# generated using pymatgen
data_KBaV5O18
_symmetry_space_group_name_H-M   'P 1'
_cell_length_a   16.75924300
_cell_length_b   9.81047500
_cell_length_c   10.91355085
_cell_angle_alpha   58.31828512
_cell_angle_beta   90.00000000
_cell_angle_gamma   90.00000000
_symmetry_Int_Tables_number   1
_chemical_formula_structural   KBaV5O18
_chemical_formula_sum   'K4 Ba4 V20 O72'
_cell_volume   1526.96552405
_cell_formula_units_Z   4
loop_
 _symmetry_equiv_pos_site_id
 _symmetry_equiv_pos_as_xyz
  1  'x, y, z'
loop_
 _atom_site_type_symbol
 _atom_site_label
 _atom_site_symmetry_multiplicity
 _atom_site_fract_x
 _atom_site_fract_y
 _atom_site_fract_z
 _atom_site_occupancy
  K  K0  1  0.41167800  0.30155300  0.20341000  1
  K  K1  1  0.91167800  0.69844700  0.29659000  1
  K  K2  1  0.58832200  0.69844700  0.79659000  1
  K  K3  1  0.08832200  0.30155300  0.70341000  1
  Ba  Ba0  1  0.38248000  0.82388700  0.56139500  1
  Ba  Ba1  1  0.88248000  0.17611300  0.93860500  1
  Ba  Ba2  1  0.61752000  0.17611300  0.43860500  1
  Ba  Ba3  1  0.11752000  0.82388700  0.06139500  1
  V  V0  1  0.42936700  0.98353300  0.11112500  1
  V  V1  1  0.92936700  0.01646700  0.38887500  1
  V  V2  1  0.57063300  0.01646700  0.88887500  1
  V  V3  1  0.07063300  0.98353300  0.61112500  1
  V  V4  1  0.45102100  0.31420600  0.80378200  1
  V  V5  1  0.95102100  0.68579400  0.69621800  1
  V  V6  1  0.54897900  0.68579400  0.19621800  1
  V  V7  1  0.04897900  0.31420600  0.30378200  1
  V  V8  1  0.30511400  0.07785500  0.86465500  1
  V  V9  1  0.80511400  0.92214500  0.63534500  1
  V  V10  1  0.69488600  0.92214500  0.13534500  1
  V  V11  1  0.19488600  0.07785500  0.36465500  1
  V  V12  1  0.41927600  0.78568600  0.95740400  1
  V  V13  1  0.91927600  0.21431400  0.54259600  1
  V  V14  1  0.58072400  0.21431400  0.04259600  1
  V  V15  1  0.08072400  0.78568600  0.45740400  1
  V  V16  1  0.44103600  0.11204700  0.65847900  1
  V  V17  1  0.94103600  0.88795300  0.84152100  1
  V  V18  1  0.55896400  0.88795300  0.34152100  1
  V  V19  1  0.05896400  0.11204700  0.15847900  1
  O  O0  1  0.45826700  0.20806600  0.01910500  1
  O  O1  1  0.95826700  0.79193400  0.48089500  1
  O  O2  1  0.54173300  0.79193400  0.98089500  1
  O  O3  1  0.04173300  0.20806600  0.51910500  1
  O  O4  1  0.43584800  0.87996800  0.76016700  1
  O  O5  1  0.93584800  0.12003200  0.73983300  1
  O  O6  1  0.56415200  0.12003200  0.23983300  1
  O  O7  1  0.06415200  0.87996800  0.26016700  1
  O  O8  1  0.44788900  0.03791900  0.89425900  1
  O  O9  1  0.94788900  0.96208100  0.60574100  1
  O  O10  1  0.55211100  0.96208100  0.10574100  1
  O  O11  1  0.05211100  0.03791900  0.39425900  1
  O  O12  1  0.43828600  0.93373700  0.29000000  1
  O  O13  1  0.93828600  0.06626300  0.21000000  1
  O  O14  1  0.56171400  0.06626300  0.71000000  1
  O  O15  1  0.06171400  0.93373700  0.79000000  1
  O  O16  1  0.32973300  0.01703900  0.06653000  1
  O  O17  1  0.82973300  0.98296100  0.43347000  1
  O  O18  1  0.67026700  0.98296100  0.93347000  1
  O  O19  1  0.17026700  0.01703900  0.56653000  1
  O  O20  1  0.34435900  0.27798200  0.81626700  1
  O  O21  1  0.84435900  0.72201800  0.68373300  1
  O  O22  1  0.65564100  0.72201800  0.18373300  1
  O  O23  1  0.15564100  0.27798200  0.31626700  1
  O  O24  1  0.31693000  0.85619100  0.94227300  1
  O  O25  1  0.81693000  0.14380900  0.55772700  1
  O  O26  1  0.68307000  0.14380900  0.05772700  1
  O  O27  1  0.18307000  0.85619100  0.44227300  1
  O  O28  1  0.46105700  0.30550700  0.63942200  1
  O  O29  1  0.96105700  0.69449300  0.86057800  1
  O  O30  1  0.53894300  0.69449300  0.36057800  1
  O  O31  1  0.03894300  0.30550700  0.13942200  1
  O  O32  1  0.43480800  0.76910800  0.14583400  1
  O  O33  1  0.93480800  0.23089200  0.35416600  1
  O  O34  1  0.56519200  0.23089200  0.85416600  1
  O  O35  1  0.06519200  0.76910800  0.64583400  1
  O  O36  1  0.33475000  0.11897800  0.68423500  1
  O  O37  1  0.83475000  0.88102200  0.81576500  1
  O  O38  1  0.66525000  0.88102200  0.31576500  1
  O  O39  1  0.16525000  0.11897800  0.18423500  1
  O  O40  1  0.45665000  0.50827700  0.74508400  1
  O  O41  1  0.95665000  0.49172300  0.75491600  1
  O  O42  1  0.54335000  0.49172300  0.25491600  1
  O  O43  1  0.04335000  0.50827700  0.24508400  1
  O  O44  1  0.29364600  0.09206300  0.36295600  1
  O  O45  1  0.79364600  0.90793700  0.13704400  1
  O  O46  1  0.70635400  0.90793700  0.63704400  1
  O  O47  1  0.20635400  0.09206300  0.86295600  1
  O  O48  1  0.40844800  0.59789300  0.00574000  1
  O  O49  1  0.90844800  0.40210700  0.49426000  1
  O  O50  1  0.59155200  0.40210700  0.99426000  1
  O  O51  1  0.09155200  0.59789300  0.50574000  1
  O  O52  1  0.45268200  0.14117100  0.49281800  1
  O  O53  1  0.95268200  0.85882900  0.00718200  1
  O  O54  1  0.54731800  0.85882900  0.50718200  1
  O  O55  1  0.04731800  0.14117100  0.99281800  1
  O  O56  1  0.21999600  0.41823700  0.90495100  1
  O  O57  1  0.71999600  0.58176300  0.59504900  1
  O  O58  1  0.78000400  0.58176300  0.09504900  1
  O  O59  1  0.28000400  0.41823700  0.40495100  1
  O  O60  1  0.25670200  0.52610500  0.28695600  1
  O  O61  1  0.75670200  0.47389500  0.21304400  1
  O  O62  1  0.74329800  0.47389500  0.71304400  1
  O  O63  1  0.24329800  0.52610500  0.78695600  1
  O  O64  1  0.29947200  0.70232200  0.32786300  1
  O  O65  1  0.79947200  0.29767800  0.17213700  1
  O  O66  1  0.70052800  0.29767800  0.67213700  1
  O  O67  1  0.20052800  0.70232200  0.82786300  1
  O  O68  1  0.32346800  0.59631500  0.44844300  1
  O  O69  1  0.82346800  0.40368500  0.05155700  1
  O  O70  1  0.67653200  0.40368500  0.55155700  1
  O  O71  1  0.17653200  0.59631500  0.94844300  1
loop_
_geom_bond_atom_site_label_1
_geom_bond_atom_site_label_2
_geom_bond_distance
_geom_bond_site_symmetry_2
K0 O48 2.553623 1_555
K0 O44 2.722085 1_555
K0 O0 2.726607 1_555
K0 O52 2.775563 1_555
K0 O6 3.019195 1_555
K0 O42 3.125355 1_555
K0 O12 3.245140 1_545
K1 O49 2.553623 1_555
K1 O45 2.722085 1_555
K1 O1 2.726607 1_555
K1 O53 2.775563 1_555
K1 O7 3.019195 1_655
K1 O43 3.125355 1_655
K1 O13 3.245140 1_565
K2 O50 2.553623 1_555
K2 O46 2.722085 1_555
K2 O2 2.726607 1_555
K2 O54 2.775563 1_555
K2 O4 3.019195 1_555
K2 O40 3.125355 1_555
K2 O14 3.245140 1_565
K3 O51 2.553623 1_555
K3 O47 2.722085 1_555
K3 O3 2.726607 1_555
K3 O55 2.775563 1_555
K3 O5 3.019195 1_455
K3 O41 3.125355 1_455
K3 O15 3.245140 1_545
Ba0 O4 2.657485 1_555
Ba0 O12 2.730573 1_555
Ba0 O44 2.800632 1_565
Ba0 O54 2.808249 1_555
Ba0 O40 2.937851 1_555
Ba0 O52 3.030888 1_565
Ba0 O68 3.220710 1_555
Ba1 O5 2.657485 1_555
Ba1 O13 2.730573 1_556
Ba1 O45 2.800632 1_546
Ba1 O55 2.808249 1_655
Ba1 O41 2.937851 1_555
Ba1 O53 3.030888 1_546
Ba1 O69 3.220710 1_556
Ba2 O6 2.657485 1_555
Ba2 O14 2.730573 1_555
Ba2 O46 2.800632 1_545
Ba2 O52 2.808249 1_555
Ba2 O42 2.937851 1_555
Ba2 O54 3.030888 1_545
Ba2 O70 3.220710 1_555
Ba3 O7 2.657485 1_555
Ba3 O15 2.730573 1_554
Ba3 O47 2.800632 1_564
Ba3 O53 2.808249 1_455
Ba3 O43 2.937851 1_555
Ba3 O55 3.030888 1_564
Ba3 O71 3.220710 1_554
O0 V0 1.942084 1_545
O0 V4 2.012697 1_554
O0 V14 2.073130 1_555
O1 V1 1.942084 1_565
O1 V5 2.012697 1_555
O1 V15 2.073130 1_655
O2 V2 1.942084 1_565
O2 V6 2.012697 1_556
O2 V12 2.073130 1_555
O3 V3 1.942084 1_545
O3 V7 2.012697 1_555
O3 V13 2.073130 1_455
O4 V12 1.864085 1_555
O4 V16 1.941369 1_565
O5 V13 1.864085 1_555
O5 V17 1.941369 1_545
O6 V14 1.864085 1_555
O6 V18 1.941369 1_545
O7 V15 1.864085 1_555
O7 V19 1.941369 1_565
O8 V2 2.071806 1_555
O8 V0 2.157830 1_546
O8 V12 2.244305 1_545
O8 V16 2.279863 1_555
O8 V4 2.348041 1_555
O8 V8 2.418764 1_555
O9 V3 2.071806 1_655
O9 V1 2.157830 1_565
O9 V13 2.244305 1_565
O9 V17 2.279863 1_555
O9 V5 2.348041 1_555
O9 V9 2.418764 1_555
O10 V0 2.071806 1_555
O10 V2 2.157830 1_564
O10 V14 2.244305 1_565
O10 V18 2.279863 1_555
O10 V6 2.348041 1_555
O10 V10 2.418764 1_555
O11 V1 2.071806 1_455
O11 V3 2.157830 1_545
O11 V15 2.244305 1_545
O11 V19 2.279863 1_555
O11 V7 2.348041 1_555
O11 V11 2.418764 1_555
O12 V0 1.752196 1_555
O12 V18 2.083990 1_555
O13 V1 1.752196 1_555
O13 V19 2.083990 1_655
O14 V2 1.752196 1_555
O14 V16 2.083990 1_555
O15 V3 1.752196 1_555
O15 V17 2.083990 1_455
O16 V0 1.721939 1_545
O16 V8 1.999860 1_554
O17 V1 1.721939 1_565
O17 V9 1.999860 1_555
O18 V2 1.721939 1_565
O18 V10 1.999860 1_556
O19 V3 1.721939 1_545
O19 V11 1.999860 1_555
O20 V4 1.813675 1_555
O20 V8 1.864700 1_555
O21 V5 1.813675 1_555
O21 V9 1.864700 1_555
O22 V6 1.813675 1_555
O22 V10 1.864700 1_555
O23 V7 1.813675 1_555
O23 V11 1.864700 1_555
O24 V12 1.824219 1_555
O24 V8 1.884367 1_565
O25 V13 1.824219 1_555
O25 V9 1.884367 1_545
O26 V14 1.824219 1_555
O26 V10 1.884367 1_545
O27 V15 1.824219 1_555
O27 V11 1.884367 1_565
O28 V16 1.828488 1_555
O28 V4 1.847678 1_555
O29 V17 1.828488 1_555
O29 V5 1.847678 1_555
O30 V18 1.828488 1_555
O30 V6 1.847678 1_555
O31 V19 1.828488 1_555
O31 V7 1.847678 1_555
O32 V0 1.933902 1_555
O32 V12 1.992949 1_554
O32 V6 2.039486 1_555
O33 V1 1.933902 1_555
O33 V13 1.992949 1_555
O33 V7 2.039486 1_655
O34 V2 1.933902 1_555
O34 V14 1.992949 1_556
O34 V4 2.039486 1_555
O35 V3 1.933902 1_555
O35 V15 1.992949 1_555
O35 V5 2.039486 1_455
O36 V16 1.810150 1_555
O36 V8 1.857980 1_555
O37 V17 1.810150 1_555
O37 V9 1.857980 1_555
O38 V18 1.810150 1_555
O38 V10 1.857980 1_555
O39 V19 1.810150 1_555
O39 V11 1.857980 1_555
O40 V4 1.662252 1_555
O41 V5 1.662252 1_555
O42 V6 1.662252 1_555
O43 V7 1.662252 1_555
O44 V11 1.660288 1_555
O45 V10 1.660288 1_555
O46 V9 1.660288 1_555
O47 V8 1.660288 1_555
O48 V12 1.638465 1_554
O49 V13 1.638465 1_555
O50 V14 1.638465 1_556
O51 V15 1.638465 1_555
O52 V16 1.686953 1_555
O53 V17 1.686953 1_554
O54 V18 1.686953 1_555
O55 V19 1.686953 1_556
O56 O63 1.224434 1_555
O57 O62 1.224434 1_555
O58 O61 1.224434 1_555
O59 O60 1.224434 1_555
O64 O68 1.239953 1_555
O65 O69 1.239953 1_555
O66 O70 1.239953 1_555
O67 O71 1.239953 1_555
