# generated using pymatgen
data_Sr3Yb2O12
_symmetry_space_group_name_H-M   'P 1'
_cell_length_a   12.71279740
_cell_length_b   12.71279740
_cell_length_c   12.71279740
_cell_angle_alpha   109.47122063
_cell_angle_beta   109.47122063
_cell_angle_gamma   109.47122063
_symmetry_Int_Tables_number   1
_chemical_formula_structural   Sr3Yb2O12
_chemical_formula_sum   'Sr12 Yb8 O48'
_cell_volume   1581.61759070
_cell_formula_units_Z   4
loop_
 _symmetry_equiv_pos_site_id
 _symmetry_equiv_pos_as_xyz
  1  'x, y, z'
loop_
 _atom_site_type_symbol
 _atom_site_label
 _atom_site_symmetry_multiplicity
 _atom_site_fract_x
 _atom_site_fract_y
 _atom_site_fract_z
 _atom_site_occupancy
  Sr  Sr0  1  0.25000000  0.37500000  0.12500000  1
  Sr  Sr1  1  0.75000000  0.62500000  0.87500000  1
  Sr  Sr2  1  0.75000000  0.12500000  0.37500000  1
  Sr  Sr3  1  0.12500000  0.25000000  0.37500000  1
  Sr  Sr4  1  0.37500000  0.75000000  0.12500000  1
  Sr  Sr5  1  0.25000000  0.87500000  0.62500000  1
  Sr  Sr6  1  0.87500000  0.75000000  0.62500000  1
  Sr  Sr7  1  0.62500000  0.25000000  0.87500000  1
  Sr  Sr8  1  0.37500000  0.12500000  0.25000000  1
  Sr  Sr9  1  0.62500000  0.87500000  0.75000000  1
  Sr  Sr10  1  0.12500000  0.37500000  0.75000000  1
  Sr  Sr11  1  0.87500000  0.62500000  0.25000000  1
  Yb  Yb0  1  0.00000000  0.00000000  0.00000000  1
  Yb  Yb1  1  0.50000000  0.00000000  0.50000000  1
  Yb  Yb2  1  0.00000000  0.50000000  0.50000000  1
  Yb  Yb3  1  0.50000000  0.00000000  0.00000000  1
  Yb  Yb4  1  0.50000000  0.50000000  0.00000000  1
  Yb  Yb5  1  0.50000000  0.50000000  0.50000000  1
  Yb  Yb6  1  0.00000000  0.00000000  0.50000000  1
  Yb  Yb7  1  0.00000000  0.50000000  0.00000000  1
  O  O0  1  0.42225600  0.35966500  0.29407300  1
  O  O1  1  0.57774400  0.64033500  0.70592700  1
  O  O2  1  0.56559100  0.12818300  0.20592700  1
  O  O3  1  0.93440900  0.14033500  0.56259100  1
  O  O4  1  0.29407300  0.42225600  0.35966500  1
  O  O5  1  0.37181700  0.93440900  0.29407300  1
  O  O6  1  0.43440900  0.87181700  0.79407300  1
  O  O7  1  0.06559100  0.85966500  0.43740900  1
  O  O8  1  0.70592700  0.57774400  0.64033500  1
  O  O9  1  0.62818300  0.06559100  0.70592700  1
  O  O10  1  0.07774400  0.37181700  0.93740900  1
  O  O11  1  0.20592700  0.56559100  0.12818300  1
  O  O12  1  0.14033500  0.07774400  0.20592700  1
  O  O13  1  0.92225600  0.62818300  0.06259100  1
  O  O14  1  0.79407300  0.43440900  0.87181700  1
  O  O15  1  0.85966500  0.92225600  0.79407300  1
  O  O16  1  0.56259100  0.93440900  0.14033500  1
  O  O17  1  0.12818300  0.42225600  0.56259100  1
  O  O18  1  0.43740900  0.06559100  0.85966500  1
  O  O19  1  0.87181700  0.57774400  0.43740900  1
  O  O20  1  0.93740900  0.07774400  0.37181700  1
  O  O21  1  0.35966500  0.56559100  0.93740900  1
  O  O22  1  0.06259100  0.92225600  0.62818300  1
  O  O23  1  0.64033500  0.43440900  0.06259100  1
  O  O24  1  0.35966500  0.29407300  0.42225600  1
  O  O25  1  0.56559100  0.93740900  0.35966500  1
  O  O26  1  0.64033500  0.70592700  0.57774400  1
  O  O27  1  0.43440900  0.06259100  0.64033500  1
  O  O28  1  0.14033500  0.56259100  0.93440900  1
  O  O29  1  0.07774400  0.20592700  0.14033500  1
  O  O30  1  0.85966500  0.43740900  0.06559100  1
  O  O31  1  0.92225600  0.79407300  0.85966500  1
  O  O32  1  0.37181700  0.93740900  0.07774400  1
  O  O33  1  0.93440900  0.29407300  0.37181700  1
  O  O34  1  0.62818300  0.06259100  0.92225600  1
  O  O35  1  0.06559100  0.70592700  0.62818300  1
  O  O36  1  0.12818300  0.20592700  0.56559100  1
  O  O37  1  0.42225600  0.56259100  0.12818300  1
  O  O38  1  0.87181700  0.79407300  0.43440900  1
  O  O39  1  0.57774400  0.43740900  0.87181700  1
  O  O40  1  0.29407300  0.37181700  0.93440900  1
  O  O41  1  0.70592700  0.62818300  0.06559100  1
  O  O42  1  0.20592700  0.14033500  0.07774400  1
  O  O43  1  0.79407300  0.85966500  0.92225600  1
  O  O44  1  0.93740900  0.35966500  0.56559100  1
  O  O45  1  0.06259100  0.64033500  0.43440900  1
  O  O46  1  0.56259100  0.12818300  0.42225600  1
  O  O47  1  0.43740900  0.87181700  0.57774400  1
loop_
_geom_bond_atom_site_label_1
_geom_bond_atom_site_label_2
_geom_bond_distance
_geom_bond_site_symmetry_2
O0 Yb5 2.235848 1_555
O0 Sr0 2.622863 1_555
O0 Sr8 2.653503 1_555
O1 Yb5 2.235848 1_555
O1 Sr1 2.622863 1_555
O1 Sr9 2.653503 1_555
O2 Yb3 2.235851 1_555
O2 Sr2 2.622871 1_555
O2 Sr8 2.653491 1_555
O3 Yb6 2.235839 1_655
O3 Sr2 2.622870 1_555
O3 Sr10 2.653500 1_655
O4 Yb5 2.235848 1_555
O4 Sr3 2.622863 1_555
O4 Sr0 2.653503 1_555
O5 Yb1 2.235851 1_565
O5 Sr4 2.622871 1_555
O5 Sr8 2.653491 1_565
O6 Yb3 2.235851 1_566
O6 Sr5 2.622871 1_555
O6 Sr9 2.653491 1_555
O7 Yb6 2.235839 1_565
O7 Sr5 2.622870 1_555
O7 Sr11 2.653500 1_455
O8 Yb5 2.235848 1_555
O8 Sr6 2.622863 1_555
O8 Sr1 2.653503 1_555
O9 Yb1 2.235851 1_555
O9 Sr7 2.622871 1_555
O9 Sr9 2.653491 1_545
O10 Yb7 2.235848 1_556
O10 Sr0 2.622863 1_556
O10 Sr10 2.653503 1_555
O11 Yb7 2.235851 1_555
O11 Sr4 2.622871 1_555
O11 Sr0 2.653491 1_555
O12 Yb0 2.235848 1_555
O12 Sr3 2.622863 1_555
O12 Sr8 2.653503 1_555
O13 Yb7 2.235848 1_655
O13 Sr1 2.622863 1_554
O13 Sr11 2.653503 1_555
O14 Yb7 2.235851 1_656
O14 Sr7 2.622871 1_555
O14 Sr1 2.653491 1_555
O15 Yb0 2.235848 1_666
O15 Sr6 2.622863 1_555
O15 Sr9 2.653503 1_555
O16 Yb3 2.235839 1_565
O16 Sr4 2.622870 1_555
O16 Sr2 2.653500 1_565
O17 Yb2 2.235848 1_555
O17 Sr3 2.622863 1_555
O17 Sr10 2.653503 1_555
O18 Yb3 2.235839 1_556
O18 Sr7 2.622870 1_555
O18 Sr5 2.653500 1_545
O19 Yb2 2.235848 1_655
O19 Sr6 2.622863 1_555
O19 Sr11 2.653503 1_555
O20 Yb6 2.235848 1_655
O20 Sr3 2.622863 1_655
O20 Sr2 2.653503 1_555
O21 Yb4 2.235839 1_556
O21 Sr4 2.622870 1_556
O21 Sr10 2.653500 1_555
O22 Yb6 2.235848 1_565
O22 Sr6 2.622863 1_455
O22 Sr5 2.653503 1_555
O23 Yb4 2.235839 1_555
O23 Sr7 2.622870 1_554
O23 Sr11 2.653500 1_555
O24 Yb5 2.235848 1_555
O24 Sr8 2.622863 1_555
O24 Sr3 2.653503 1_555
O25 Yb1 2.235839 1_565
O25 Sr2 2.622870 1_565
O25 Sr4 2.653500 1_555
O26 Yb5 2.235848 1_555
O26 Sr9 2.622863 1_555
O26 Sr6 2.653503 1_555
O27 Yb1 2.235839 1_555
O27 Sr5 2.622870 1_545
O27 Sr7 2.653500 1_555
O28 Yb7 2.235839 1_556
O28 Sr10 2.622870 1_555
O28 Sr4 2.653500 1_556
O29 Yb0 2.235848 1_555
O29 Sr0 2.622863 1_555
O29 Sr3 2.653503 1_555
O30 Yb7 2.235839 1_655
O30 Sr11 2.622870 1_555
O30 Sr7 2.653500 1_554
O31 Yb0 2.235848 1_666
O31 Sr1 2.622863 1_555
O31 Sr6 2.653503 1_555
O32 Yb3 2.235848 1_565
O32 Sr8 2.622863 1_565
O32 Sr4 2.653503 1_555
O33 Yb2 2.235851 1_655
O33 Sr2 2.622871 1_555
O33 Sr3 2.653491 1_655
O34 Yb3 2.235848 1_556
O34 Sr9 2.622863 1_545
O34 Sr7 2.653503 1_555
O35 Yb2 2.235851 1_555
O35 Sr5 2.622871 1_555
O35 Sr6 2.653491 1_455
O36 Yb6 2.235851 1_555
O36 Sr10 2.622871 1_555
O36 Sr3 2.653491 1_555
O37 Yb4 2.235848 1_555
O37 Sr0 2.622863 1_555
O37 Sr4 2.653503 1_555
O38 Yb6 2.235851 1_665
O38 Sr11 2.622871 1_555
O38 Sr6 2.653491 1_555
O39 Yb4 2.235848 1_556
O39 Sr1 2.622863 1_555
O39 Sr7 2.653503 1_555
O40 Yb4 2.235851 1_556
O40 Sr10 2.622871 1_555
O40 Sr0 2.653491 1_556
O41 Yb4 2.235851 1_555
O41 Sr11 2.622871 1_555
O41 Sr1 2.653491 1_554
O42 Yb0 2.235848 1_555
O42 Sr8 2.622863 1_555
O42 Sr0 2.653503 1_555
O43 Yb0 2.235848 1_666
O43 Sr9 2.622863 1_555
O43 Sr1 2.653503 1_555
O44 Yb2 2.235839 1_655
O44 Sr10 2.622870 1_655
O44 Sr2 2.653500 1_555
O45 Yb2 2.235839 1_555
O45 Sr11 2.622870 1_455
O45 Sr5 2.653500 1_555
O46 Yb1 2.235848 1_555
O46 Sr8 2.622863 1_555
O46 Sr2 2.653503 1_555
O47 Yb1 2.235848 1_565
O47 Sr9 2.622863 1_555
O47 Sr5 2.653503 1_555
