# generated using pymatgen
data_SmMg(BO2)5
_symmetry_space_group_name_H-M   'P 1'
_cell_length_a   7.68253200
_cell_length_b   8.70736900
_cell_length_c   12.51948486
_cell_angle_alpha   49.06046683
_cell_angle_beta   90.00000000
_cell_angle_gamma   90.00000000
_symmetry_Int_Tables_number   1
_chemical_formula_structural   SmMg(BO2)5
_chemical_formula_sum   'Sm4 Mg4 B20 O40'
_cell_volume   632.63854066
_cell_formula_units_Z   4
loop_
 _symmetry_equiv_pos_site_id
 _symmetry_equiv_pos_as_xyz
  1  'x, y, z'
loop_
 _atom_site_type_symbol
 _atom_site_label
 _atom_site_symmetry_multiplicity
 _atom_site_fract_x
 _atom_site_fract_y
 _atom_site_fract_z
 _atom_site_occupancy
  Sm  Sm0  1  0.18662200  0.94782900  0.23770700  1
  Sm  Sm1  1  0.81337800  0.05217100  0.76229300  1
  Sm  Sm2  1  0.68662200  0.05217100  0.26229300  1
  Sm  Sm3  1  0.31337800  0.94782900  0.73770700  1
  Mg  Mg0  1  0.90934400  0.52313600  0.37359300  1
  Mg  Mg1  1  0.09065600  0.47686400  0.62640700  1
  Mg  Mg2  1  0.40934400  0.47686400  0.12640700  1
  Mg  Mg3  1  0.59065600  0.52313600  0.87359300  1
  B  B0  1  0.82634300  0.91031800  0.10536600  1
  B  B1  1  0.17365700  0.08968200  0.89463400  1
  B  B2  1  0.32634300  0.08968200  0.39463400  1
  B  B3  1  0.67365700  0.91031800  0.60536600  1
  B  B4  1  0.57745500  0.65546700  0.26000800  1
  B  B5  1  0.42254500  0.34453300  0.73999200  1
  B  B6  1  0.07745500  0.34453300  0.23999200  1
  B  B7  1  0.92254500  0.65546700  0.76000800  1
  B  B8  1  0.81386900  0.48000300  0.08756700  1
  B  B9  1  0.18613100  0.51999700  0.91243300  1
  B  B10  1  0.31386900  0.51999700  0.41243300  1
  B  B11  1  0.68613100  0.48000300  0.58756700  1
  B  B12  1  0.46744000  0.72362700  0.55577400  1
  B  B13  1  0.53256000  0.27637300  0.44422600  1
  B  B14  1  0.96744000  0.27637300  0.94422600  1
  B  B15  1  0.03256000  0.72362700  0.05577400  1
  B  B16  1  0.59808800  0.84411100  0.99886900  1
  B  B17  1  0.40191200  0.15588900  0.00113100  1
  B  B18  1  0.09808800  0.15588900  0.50113100  1
  B  B19  1  0.90191200  0.84411100  0.49886900  1
  O  O0  1  0.91467600  0.31561900  0.19277600  1
  O  O1  1  0.08532400  0.68438100  0.80722400  1
  O  O2  1  0.41467600  0.68438100  0.30722400  1
  O  O3  1  0.58532400  0.31561900  0.69277600  1
  O  O4  1  0.87516100  0.67487500  0.00994400  1
  O  O5  1  0.12483900  0.32512500  0.99005600  1
  O  O6  1  0.37516100  0.32512500  0.49005600  1
  O  O7  1  0.62483900  0.67487500  0.50994400  1
  O  O8  1  0.39160500  0.90867700  0.41887600  1
  O  O9  1  0.60839500  0.09132300  0.58112400  1
  O  O10  1  0.89160500  0.09132300  0.08112400  1
  O  O11  1  0.10839500  0.90867700  0.91887600  1
  O  O12  1  0.71223100  0.79961900  0.23253900  1
  O  O13  1  0.28776900  0.20038100  0.76746100  1
  O  O14  1  0.21223100  0.20038100  0.26746100  1
  O  O15  1  0.78776900  0.79961900  0.73253900  1
  O  O16  1  0.65218200  0.42847400  0.07148700  1
  O  O17  1  0.34781800  0.57152600  0.92851300  1
  O  O18  1  0.15218200  0.57152600  0.42851300  1
  O  O19  1  0.84781800  0.42847400  0.57148700  1
  O  O20  1  0.77329200  0.97139200  0.48271900  1
  O  O21  1  0.22670800  0.02860800  0.51728100  1
  O  O22  1  0.27329200  0.02860800  0.01728100  1
  O  O23  1  0.72670800  0.97139200  0.98271900  1
  O  O24  1  0.65112900  0.45027900  0.36613900  1
  O  O25  1  0.34887100  0.54972100  0.63386100  1
  O  O26  1  0.15112900  0.54972100  0.13386100  1
  O  O27  1  0.84887100  0.45027900  0.86613900  1
  O  O28  1  0.53151800  0.68685200  0.13025000  1
  O  O29  1  0.46848200  0.31314800  0.86975000  1
  O  O30  1  0.03151800  0.31314800  0.36975000  1
  O  O31  1  0.96848200  0.68685200  0.63025000  1
  O  O32  1  0.95268200  0.87868000  0.38102000  1
  O  O33  1  0.04731800  0.12132000  0.61898000  1
  O  O34  1  0.45268200  0.12132000  0.11898000  1
  O  O35  1  0.54731800  0.87868000  0.88102000  1
  O  O36  1  0.97233200  0.76599100  0.14829100  1
  O  O37  1  0.02766800  0.23400900  0.85170900  1
  O  O38  1  0.47233200  0.23400900  0.35170900  1
  O  O39  1  0.52766800  0.76599100  0.64829100  1
loop_
_geom_bond_atom_site_label_1
_geom_bond_atom_site_label_2
_geom_bond_distance
_geom_bond_site_symmetry_2
Mg0 O30 2.083696 1_655
Mg0 O19 2.089194 1_555
Mg0 O24 2.103329 1_555
Mg0 O18 2.123784 1_655
Mg0 O36 2.201168 1_555
Mg0 O12 2.374012 1_555
Mg1 O31 2.083696 1_455
Mg1 O18 2.089194 1_555
Mg1 O25 2.103329 1_555
Mg1 O19 2.123784 1_455
Mg1 O37 2.201168 1_555
Mg1 O13 2.374012 1_555
Mg2 O28 2.083696 1_555
Mg2 O17 2.089194 1_554
Mg2 O26 2.103329 1_555
Mg2 O16 2.123784 1_555
Mg2 O38 2.201168 1_555
Mg2 O14 2.374012 1_555
Mg3 O29 2.083696 1_555
Mg3 O16 2.089194 1_556
Mg3 O27 2.103329 1_555
Mg3 O17 2.123784 1_555
Mg3 O39 2.201168 1_555
Mg3 O15 2.374012 1_555
B0 O23 1.468431 1_554
B0 O10 1.483455 1_565
B0 O12 1.490419 1_555
B0 O36 1.496982 1_555
B1 O22 1.468431 1_556
B1 O11 1.483455 1_545
B1 O13 1.490419 1_555
B1 O37 1.496982 1_555
B2 O21 1.468431 1_555
B2 O8 1.483455 1_545
B2 O14 1.490419 1_555
B2 O38 1.496982 1_555
B3 O20 1.468431 1_555
B3 O9 1.483455 1_565
B3 O15 1.490419 1_555
B3 O39 1.496982 1_555
B4 O24 1.472018 1_555
B4 O2 1.473680 1_555
B4 O12 1.483292 1_555
B4 O28 1.502145 1_555
B5 O25 1.472018 1_555
B5 O3 1.473680 1_555
B5 O13 1.483292 1_555
B5 O29 1.502145 1_555
B6 O26 1.472018 1_555
B6 O0 1.473680 1_455
B6 O14 1.483292 1_555
B6 O30 1.502145 1_555
B7 O27 1.472018 1_555
B7 O1 1.473680 1_655
B7 O15 1.483292 1_555
B7 O31 1.502145 1_555
B8 O4 1.372701 1_555
B8 O16 1.379562 1_555
B8 O0 1.383004 1_555
B9 O5 1.372701 1_555
B9 O17 1.379562 1_555
B9 O1 1.383004 1_555
B10 O6 1.372701 1_555
B10 O18 1.379562 1_555
B10 O2 1.383004 1_555
B11 O7 1.372701 1_555
B11 O19 1.379562 1_555
B11 O3 1.383004 1_555
B12 O25 1.462336 1_555
B12 O39 1.500559 1_555
B12 O8 1.501334 1_555
B12 O7 1.513549 1_555
B13 O24 1.462336 1_555
B13 O38 1.500559 1_555
B13 O9 1.501334 1_555
B13 O6 1.513549 1_555
B14 O27 1.462336 1_555
B14 O37 1.500559 1_655
B14 O10 1.501334 1_556
B14 O5 1.513549 1_655
B15 O26 1.462336 1_555
B15 O36 1.500559 1_455
B15 O11 1.501334 1_554
B15 O4 1.513549 1_455
B16 O35 1.355565 1_555
B16 O28 1.374901 1_556
B16 O23 1.397104 1_555
B17 O34 1.355565 1_555
B17 O29 1.374901 1_554
B17 O22 1.397104 1_555
B18 O33 1.355565 1_555
B18 O30 1.374901 1_555
B18 O21 1.397104 1_555
B19 O32 1.355565 1_555
B19 O31 1.374901 1_555
B19 O20 1.397104 1_555
O0 Sm2 2.544174 1_555
O1 Sm3 2.544174 1_555
O2 Sm0 2.544174 1_555
O3 Sm1 2.544174 1_555
O4 Sm1 2.698576 1_564
O5 Sm0 2.698576 1_546
O6 Sm3 2.698576 1_545
O7 Sm2 2.698576 1_565
O8 Sm0 2.593705 1_555
O8 Sm2 2.707590 1_565
O9 Sm1 2.593705 1_555
O9 Sm3 2.707590 1_545
O10 Sm2 2.593705 1_555
O10 Sm0 2.707590 1_645
O11 Sm3 2.593705 1_555
O11 Sm1 2.707590 1_465
O12 Sm2 2.467160 1_565
O13 Sm3 2.467160 1_545
O14 Sm0 2.467160 1_545
O15 Sm1 2.467160 1_565
O16 Sm2 2.500969 1_555
O17 Sm3 2.500969 1_555
O18 Sm0 2.500969 1_555
O19 Sm1 2.500969 1_555
O20 Sm2 2.451490 1_565
O21 Sm3 2.451490 1_545
O22 Sm0 2.451490 1_545
O23 Sm1 2.451490 1_565
O32 Sm0 2.322941 1_655
O32 Sm2 2.393064 1_565
O33 Sm1 2.322941 1_455
O33 Sm3 2.393064 1_545
O34 Sm2 2.322941 1_555
O34 Sm0 2.393064 1_545
O35 Sm3 2.322941 1_555
O35 Sm1 2.393064 1_565
O36 Sm0 2.965332 1_655
O37 Sm1 2.965332 1_455
O38 Sm2 2.965332 1_555
O39 Sm3 2.965332 1_555
