# generated using pymatgen
data_Nb6SnTe8
_symmetry_space_group_name_H-M   'P 1'
_cell_length_a   10.73417008
_cell_length_b   10.73417008
_cell_length_c   3.67139000
_cell_angle_alpha   90.00000000
_cell_angle_beta   90.00000000
_cell_angle_gamma   120.00000049
_symmetry_Int_Tables_number   1
_chemical_formula_structural   Nb6SnTe8
_chemical_formula_sum   'Nb6 Sn1 Te8'
_cell_volume   366.35160178
_cell_formula_units_Z   1
loop_
 _symmetry_equiv_pos_site_id
 _symmetry_equiv_pos_as_xyz
  1  'x, y, z'
loop_
 _atom_site_type_symbol
 _atom_site_label
 _atom_site_symmetry_multiplicity
 _atom_site_fract_x
 _atom_site_fract_y
 _atom_site_fract_z
 _atom_site_occupancy
  Nb  Nb0  1  0.38637800  0.89702700  0.74969900  1
  Nb  Nb1  1  0.10297300  0.48935100  0.74969900  1
  Nb  Nb2  1  0.51064900  0.61362200  0.74969900  1
  Nb  Nb3  1  0.61362200  0.10297300  0.25030100  1
  Nb  Nb4  1  0.89702700  0.51064900  0.25030100  1
  Nb  Nb5  1  0.48935100  0.38637800  0.25030100  1
  Sn  Sn0  1  0.00000000  0.00000000  0.50000000  1
  Te  Te0  1  0.06108300  0.72972400  0.75097900  1
  Te  Te1  1  0.27027600  0.33135800  0.75097900  1
  Te  Te2  1  0.66864200  0.93891700  0.75097900  1
  Te  Te3  1  0.93891700  0.27027600  0.24902100  1
  Te  Te4  1  0.72972400  0.66864200  0.24902100  1
  Te  Te5  1  0.33135800  0.06108300  0.24902100  1
  Te  Te6  1  0.66666700  0.33333300  0.74955900  1
  Te  Te7  1  0.33333300  0.66666700  0.25044100  1
loop_
_geom_bond_atom_site_label_1
_geom_bond_atom_site_label_2
_geom_bond_distance
_geom_bond_site_symmetry_2
Nb0 Te5 2.801896 1_566
Nb0 Te5 2.805156 1_565
Nb0 Te2 2.831948 1_555
Nb0 Te7 2.896618 1_555
Nb0 Te7 2.900069 1_556
Nb0 Te0 3.024380 1_555
Nb1 Te3 2.801891 1_456
Nb1 Te3 2.805150 1_455
Nb1 Te0 2.831937 1_555
Nb1 Te7 2.896621 1_555
Nb1 Te7 2.900072 1_556
Nb1 Te1 3.024389 1_555
Nb2 Te4 2.801888 1_556
Nb2 Te4 2.805148 1_555
Nb2 Te1 2.831944 1_555
Nb2 Te7 2.896627 1_555
Nb2 Te7 2.900077 1_556
Nb2 Te2 3.024379 1_555
Nb3 Te2 2.801896 1_544
Nb3 Te2 2.805156 1_545
Nb3 Te5 2.831948 1_555
Nb3 Te6 2.896618 1_555
Nb3 Te6 2.900069 1_554
Nb3 Te3 3.024380 1_555
Nb4 Te0 2.801891 1_654
Nb4 Te0 2.805150 1_655
Nb4 Te3 2.831937 1_555
Nb4 Te6 2.896621 1_555
Nb4 Te6 2.900072 1_554
Nb4 Te4 3.024389 1_555
Nb5 Te1 2.801888 1_554
Nb5 Te1 2.805148 1_555
Nb5 Te4 2.831944 1_555
Nb5 Te6 2.896627 1_555
Nb5 Te6 2.900077 1_554
Nb5 Te5 3.024379 1_555
Sn0 Te5 3.405588 1_555
Sn0 Te2 3.405588 1_445
Sn0 Te1 3.405591 1_555
Sn0 Te4 3.405591 1_445
Sn0 Te3 3.405598 1_455
Sn0 Te0 3.405598 1_545
