# generated using pymatgen
data_Ca2Mg
_symmetry_space_group_name_H-M   'P 1'
_cell_length_a   6.33622795
_cell_length_b   6.33622795
_cell_length_c   5.94541900
_cell_angle_alpha   90.00000000
_cell_angle_beta   90.00000000
_cell_angle_gamma   120.25686044
_symmetry_Int_Tables_number   1
_chemical_formula_structural   Ca2Mg
_chemical_formula_sum   'Ca4 Mg2'
_cell_volume   206.17916304
_cell_formula_units_Z   2
loop_
 _symmetry_equiv_pos_site_id
 _symmetry_equiv_pos_as_xyz
  1  'x, y, z'
loop_
 _atom_site_type_symbol
 _atom_site_label
 _atom_site_symmetry_multiplicity
 _atom_site_fract_x
 _atom_site_fract_y
 _atom_site_fract_z
 _atom_site_occupancy
  Ca  Ca0  1  0.15990100  0.47906600  0.75000000  1
  Ca  Ca1  1  0.47906600  0.15990100  0.75000000  1
  Ca  Ca2  1  0.52093400  0.84009900  0.25000000  1
  Ca  Ca3  1  0.84009900  0.52093400  0.25000000  1
  Mg  Mg0  1  0.83446500  0.83446500  0.75000000  1
  Mg  Mg1  1  0.16553500  0.16553500  0.25000000  1
loop_
_geom_bond_atom_site_label_1
_geom_bond_atom_site_label_2
_geom_bond_distance
_geom_bond_site_symmetry_2
Ca0 Ca1 3.507254 1_555
Ca0 Mg0 3.527953 1_445
Ca0 Mg1 3.585574 1_556
Ca0 Mg1 3.585574 1_555
Ca0 Ca3 3.681732 1_455
Ca0 Ca3 3.681732 1_456
Ca0 Mg0 3.693247 1_555
Ca0 Ca1 3.729336 1_455
Ca0 Ca1 3.729336 1_565
Ca0 Mg0 3.741990 1_455
Ca0 Ca2 3.745594 1_555
Ca0 Ca2 3.745594 1_556
Ca1 Mg0 3.527953 1_445
Ca1 Mg1 3.585574 1_556
Ca1 Mg1 3.585574 1_555
Ca1 Ca2 3.681732 1_545
Ca1 Ca2 3.681732 1_546
Ca1 Mg0 3.693247 1_555
Ca1 Mg0 3.741990 1_545
Ca1 Ca3 3.745594 1_555
Ca1 Ca3 3.745594 1_556
Ca2 Ca3 3.507254 1_555
Ca2 Mg1 3.527953 1_665
Ca2 Mg0 3.585574 1_555
Ca2 Mg0 3.585574 1_554
Ca2 Mg1 3.693247 1_555
Ca2 Ca3 3.729336 1_455
Ca2 Ca3 3.729336 1_565
Ca2 Mg1 3.741990 1_565
Ca3 Mg1 3.527953 1_665
Ca3 Mg0 3.585574 1_555
Ca3 Mg0 3.585574 1_554
Ca3 Mg1 3.693247 1_555
Ca3 Mg1 3.741990 1_655
