# generated using pymatgen
data_Mg2Nb2AgO8
_symmetry_space_group_name_H-M   'P 1'
_cell_length_a   5.24784400
_cell_length_b   6.16518011
_cell_length_c   10.40261275
_cell_angle_alpha   105.66574665
_cell_angle_beta   91.57611443
_cell_angle_gamma   90.54519905
_symmetry_Int_Tables_number   1
_chemical_formula_structural   Mg2Nb2AgO8
_chemical_formula_sum   'Mg4 Nb4 Ag2 O16'
_cell_volume   323.89006685
_cell_formula_units_Z   2
loop_
 _symmetry_equiv_pos_site_id
 _symmetry_equiv_pos_as_xyz
  1  'x, y, z'
loop_
 _atom_site_type_symbol
 _atom_site_label
 _atom_site_symmetry_multiplicity
 _atom_site_fract_x
 _atom_site_fract_y
 _atom_site_fract_z
 _atom_site_occupancy
  Mg  Mg0  1  0.24882500  0.86800700  0.45862500  1
  Mg  Mg1  1  0.25410500  0.41431800  0.54495500  1
  Mg  Mg2  1  0.75117500  0.13199300  0.54137500  1
  Mg  Mg3  1  0.74589500  0.58568200  0.45504500  1
  Nb  Nb0  1  0.26881200  0.03794100  0.75561800  1
  Nb  Nb1  1  0.23620800  0.29083400  0.24559300  1
  Nb  Nb2  1  0.73118800  0.96205900  0.24438200  1
  Nb  Nb3  1  0.76379200  0.70916600  0.75440700  1
  Ag  Ag0  1  0.25229100  0.66770800  0.00056100  1
  Ag  Ag1  1  0.74770900  0.33229200  0.99943900  1
  O  O0  1  0.94542200  0.01218500  0.83848100  1
  O  O1  1  0.56144500  0.19361400  0.16078800  1
  O  O2  1  0.05457800  0.98781500  0.16151900  1
  O  O3  1  0.43855500  0.80638600  0.83921200  1
  O  O4  1  0.42411700  0.28676900  0.87315200  1
  O  O5  1  0.08292900  0.42996700  0.12614000  1
  O  O6  1  0.57588300  0.71323100  0.12684800  1
  O  O7  1  0.91707100  0.57003300  0.87386000  1
  O  O8  1  0.55020000  0.91231800  0.61952300  1
  O  O9  1  0.95425200  0.29814900  0.38373100  1
  O  O10  1  0.62440900  0.44925300  0.61361300  1
  O  O11  1  0.87940700  0.84048700  0.38889300  1
  O  O12  1  0.37559100  0.55074700  0.38638700  1
  O  O13  1  0.12059300  0.15951300  0.61110700  1
  O  O14  1  0.04574800  0.70185100  0.61626900  1
  O  O15  1  0.44980000  0.08768200  0.38047700  1
loop_
_geom_bond_atom_site_label_1
_geom_bond_atom_site_label_2
_geom_bond_distance
_geom_bond_site_symmetry_2
Mg0 O12 2.022753 1_555
Mg0 O11 2.040406 1_455
Mg0 O15 2.054760 1_565
Mg0 O13 2.177384 1_565
Mg0 O8 2.230848 1_555
Mg0 O14 2.420124 1_555
Mg1 O13 2.005403 1_555
Mg1 O10 2.040960 1_555
Mg1 O14 2.063896 1_555
Mg1 O12 2.152154 1_555
Mg1 O9 2.233074 1_455
Mg1 O15 2.512512 1_555
Mg2 O10 2.022753 1_555
Mg2 O13 2.040406 1_655
Mg2 O8 2.054760 1_545
Mg2 O11 2.177384 1_545
Mg2 O15 2.230848 1_555
Mg2 O9 2.420124 1_555
Mg3 O11 2.005403 1_555
Mg3 O12 2.040960 1_555
Mg3 O9 2.063896 1_555
Mg3 O10 2.152154 1_555
Mg3 O14 2.233074 1_655
Mg3 O8 2.512512 1_555
Nb0 O4 1.849586 1_555
Nb0 O0 1.948758 1_455
Nb0 O13 1.995480 1_555
Nb0 O3 2.059051 1_545
Nb0 O8 2.080712 1_545
Nb0 O14 2.450190 1_545
Nb1 O5 1.860300 1_555
Nb1 O1 1.966571 1_555
Nb1 O12 1.974635 1_555
Nb1 O2 2.049721 1_545
Nb1 O9 2.083177 1_455
Nb1 O15 2.383944 1_555
Nb2 O6 1.849586 1_555
Nb2 O2 1.948758 1_655
Nb2 O11 1.995480 1_555
Nb2 O1 2.059051 1_565
Nb2 O15 2.080712 1_565
Nb2 O9 2.450190 1_565
Nb3 O7 1.860300 1_555
Nb3 O3 1.966571 1_555
Nb3 O10 1.974635 1_555
Nb3 O0 2.049721 1_565
Nb3 O14 2.083177 1_655
Nb3 O8 2.383944 1_555
Ag0 O6 2.087451 1_555
Ag0 O7 2.148997 1_454
Ag0 O3 2.313654 1_554
Ag0 O5 2.391222 1_555
Ag0 O2 2.474845 1_555
Ag0 O4 2.551563 1_554
Ag1 O4 2.087451 1_555
Ag1 O5 2.148997 1_656
Ag1 O1 2.313654 1_556
Ag1 O7 2.391222 1_555
Ag1 O0 2.474845 1_555
Ag1 O6 2.551563 1_556
