# generated using pymatgen
data_Sr2Ni(SeO3)3
_symmetry_space_group_name_H-M   'P 1'
_cell_length_a   7.44408480
_cell_length_b   10.35075576
_cell_length_c   12.98896387
_cell_angle_alpha   82.00291873
_cell_angle_beta   97.24416022
_cell_angle_gamma   107.36544650
_symmetry_Int_Tables_number   1
_chemical_formula_structural   Sr2Ni(SeO3)3
_chemical_formula_sum   'Sr8 Ni4 Se12 O36'
_cell_volume   942.12331681
_cell_formula_units_Z   4
loop_
 _symmetry_equiv_pos_site_id
 _symmetry_equiv_pos_as_xyz
  1  'x, y, z'
loop_
 _atom_site_type_symbol
 _atom_site_label
 _atom_site_symmetry_multiplicity
 _atom_site_fract_x
 _atom_site_fract_y
 _atom_site_fract_z
 _atom_site_occupancy
  Sr  Sr0  1  0.74778000  0.48803100  0.40051900  1
  Sr  Sr1  1  0.74765200  0.98791700  0.90068200  1
  Sr  Sr2  1  0.25221800  0.51196900  0.59948300  1
  Sr  Sr3  1  0.25235600  0.01208500  0.09931600  1
  Sr  Sr4  1  0.87175100  0.60573300  0.08739300  1
  Sr  Sr5  1  0.87158600  0.10569400  0.58748700  1
  Sr  Sr6  1  0.12825000  0.39427000  0.91260500  1
  Sr  Sr7  1  0.12841400  0.89430600  0.41251400  1
  Ni  Ni0  1  0.59359900  0.79345000  0.45832600  1
  Ni  Ni1  1  0.40635600  0.20653600  0.54170000  1
  Ni  Ni2  1  0.59350100  0.29383800  0.95836500  1
  Ni  Ni3  1  0.40648300  0.70615200  0.04163500  1
  Se  Se0  1  0.59456700  0.62118600  0.83379200  1
  Se  Se1  1  0.59461400  0.12102200  0.33381800  1
  Se  Se2  1  0.40543700  0.37881100  0.16621100  1
  Se  Se3  1  0.40539200  0.87897900  0.66618400  1
  Se  Se4  1  0.85917600  0.18892300  0.10491300  1
  Se  Se5  1  0.85929200  0.68887400  0.60492600  1
  Se  Se6  1  0.14082800  0.81107600  0.89508600  1
  Se  Se7  1  0.14070700  0.31112700  0.39507100  1
  Se  Se8  1  0.73511800  0.36150700  0.72599900  1
  Se  Se9  1  0.73508700  0.86137600  0.22601400  1
  Se  Se10  1  0.26488400  0.63849500  0.27399900  1
  Se  Se11  1  0.26491800  0.13862700  0.77398600  1
  O  O0  1  0.86383300  0.35235100  0.04867500  1
  O  O1  1  0.86398700  0.85231500  0.54876400  1
  O  O2  1  0.13617100  0.64764900  0.95132400  1
  O  O3  1  0.13600900  0.14768600  0.45123200  1
  O  O4  1  0.00710000  0.15119000  0.02877300  1
  O  O5  1  0.00718600  0.65115100  0.52878000  1
  O  O6  1  0.99290600  0.84880900  0.97122700  1
  O  O7  1  0.99281600  0.34885100  0.47121900  1
  O  O8  1  0.97572800  0.42430400  0.72361800  1
  O  O9  1  0.97566700  0.92425600  0.22354400  1
  O  O10  1  0.02427200  0.57570000  0.27638100  1
  O  O11  1  0.02434100  0.07574700  0.77645500  1
  O  O12  1  0.64090400  0.10294300  0.04620700  1
  O  O13  1  0.64097300  0.60294600  0.54618700  1
  O  O14  1  0.35910000  0.89705700  0.95379100  1
  O  O15  1  0.35902600  0.39705500  0.45381000  1
  O  O16  1  0.56567500  0.72900400  0.91614300  1
  O  O17  1  0.56571500  0.22909200  0.41594700  1
  O  O18  1  0.43432900  0.27099400  0.08385700  1
  O  O19  1  0.43428700  0.77090800  0.58405300  1
  O  O20  1  0.67524000  0.76242500  0.12284600  1
  O  O21  1  0.67525000  0.26260900  0.62281500  1
  O  O22  1  0.32476500  0.23757800  0.87715200  1
  O  O23  1  0.32474400  0.73739100  0.37718100  1
  O  O24  1  0.72650500  0.24758600  0.84000600  1
  O  O25  1  0.72659900  0.74746900  0.34003100  1
  O  O26  1  0.27349900  0.75242000  0.15999100  1
  O  O27  1  0.27340700  0.25253300  0.65996500  1
  O  O28  1  0.33407400  0.49843900  0.07637700  1
  O  O29  1  0.33453500  0.99869600  0.57623000  1
  O  O30  1  0.66591900  0.50155600  0.92362800  1
  O  O31  1  0.66546100  0.00129800  0.42377000  1
  O  O32  1  0.63049400  0.46106200  0.21109200  1
  O  O33  1  0.63055400  0.96097400  0.71117400  1
  O  O34  1  0.36950900  0.53893900  0.78890700  1
  O  O35  1  0.36945100  0.03903000  0.28882600  1
loop_
_geom_bond_atom_site_label_1
_geom_bond_atom_site_label_2
_geom_bond_distance
_geom_bond_site_symmetry_2
Ni0 O31 2.054498 1_565
Ni0 O19 2.084467 1_555
Ni0 O23 2.097157 1_555
Ni0 O25 2.106200 1_555
Ni0 O1 2.161774 1_555
Ni0 O13 2.236615 1_555
Ni1 O29 2.054392 1_545
Ni1 O17 2.084948 1_555
Ni1 O21 2.097237 1_555
Ni1 O27 2.105719 1_555
Ni1 O3 2.161706 1_555
Ni1 O15 2.236770 1_555
Ni2 O30 2.053388 1_555
Ni2 O18 2.080724 1_556
Ni2 O22 2.096943 1_555
Ni2 O24 2.108214 1_555
Ni2 O0 2.160390 1_556
Ni2 O12 2.240073 1_556
Ni3 O28 2.053348 1_555
Ni3 O16 2.080805 1_554
Ni3 O20 2.097067 1_555
Ni3 O26 2.108166 1_555
Ni3 O2 2.160272 1_554
Ni3 O14 2.240119 1_554
O0 Se4 1.738930 1_555
O0 Sr6 2.709343 1_654
O0 Sr4 2.720692 1_555
O1 Se5 1.738707 1_555
O1 Sr7 2.710977 1_655
O1 Sr5 2.721370 1_565
O2 Se6 1.738920 1_555
O2 Sr4 2.709355 1_456
O2 Sr6 2.720659 1_555
O3 Se7 1.738698 1_555
O3 Sr5 2.711000 1_455
O3 Sr7 2.721368 1_545
O4 Se4 1.726852 1_455
O4 Sr3 2.650681 1_555
O4 Sr6 2.711645 1_554
O4 Sr1 2.716238 1_444
O5 Se5 1.726681 1_455
O5 Sr2 2.650276 1_555
O5 Sr7 2.712899 1_555
O5 Sr0 2.716661 1_455
O6 Se6 1.726850 1_655
O6 Sr1 2.650696 1_555
O6 Sr4 2.711606 1_556
O6 Sr3 2.716245 1_666
O7 Se7 1.726686 1_655
O7 Sr0 2.650278 1_555
O7 Sr5 2.712928 1_555
O7 Sr2 2.716661 1_655
O8 Se8 1.716096 1_555
O8 Sr6 2.589786 1_655
O8 Sr2 2.640912 1_655
O9 Se9 1.716055 1_555
O9 Sr7 2.590083 1_655
O9 Sr3 2.642872 1_665
O10 Se10 1.716109 1_555
O10 Sr4 2.589793 1_455
O10 Sr0 2.640950 1_455
O11 Se11 1.716033 1_555
O11 Sr5 2.590078 1_455
O11 Sr1 2.642864 1_445
O12 Se4 1.739753 1_555
O12 Sr1 2.681732 1_544
O12 Sr3 2.902610 1_555
O13 Se5 1.740017 1_555
O13 Sr0 2.682729 1_555
O13 Sr2 2.904809 1_555
O14 Se6 1.739751 1_555
O14 Sr3 2.681730 1_566
O14 Sr1 2.902638 1_555
O15 Se7 1.740017 1_555
O15 Sr2 2.682778 1_555
O15 Sr0 2.904781 1_555
O16 Se0 1.723170 1_555
O16 Sr1 2.609461 1_555
O17 Se1 1.723111 1_555
O17 Sr0 2.609838 1_555
O18 Se2 1.723190 1_555
O18 Sr3 2.609418 1_555
O19 Se3 1.723126 1_555
O19 Sr2 2.609845 1_555
O20 Se9 1.732678 1_555
O20 Sr4 2.603157 1_555
O21 Se8 1.732505 1_555
O21 Sr5 2.603494 1_555
O22 Se11 1.732657 1_555
O22 Sr6 2.603180 1_555
O23 Se10 1.732472 1_555
O23 Sr7 2.603481 1_555
O24 Se8 1.755099 1_555
O24 Sr1 2.738959 1_545
O24 Sr6 3.019100 1_655
O25 Se9 1.755172 1_555
O25 Sr0 2.736396 1_555
O25 Sr7 3.019527 1_655
O26 Se10 1.755130 1_555
O26 Sr3 2.738908 1_565
O26 Sr4 3.019122 1_455
O27 Se11 1.755205 1_555
O27 Sr2 2.736384 1_555
O27 Sr5 3.019552 1_455
O28 Se2 1.735308 1_555
O28 Sr6 2.620171 1_554
O29 Se3 1.735166 1_555
O29 Sr7 2.621189 1_555
O30 Se0 1.735301 1_555
O30 Sr4 2.620149 1_556
O31 Se1 1.735171 1_555
O31 Sr5 2.621232 1_555
O32 Se2 1.706400 1_555
O32 Sr0 2.529413 1_555
O32 Sr4 2.549950 1_555
O33 Se3 1.706756 1_555
O33 Sr1 2.530103 1_555
O33 Sr5 2.548978 1_565
O34 Se0 1.706411 1_555
O34 Sr2 2.529385 1_555
O34 Sr6 2.549944 1_555
O35 Se1 1.706761 1_555
O35 Sr3 2.530127 1_555
O35 Sr7 2.549021 1_545
