# generated using pymatgen
data_Li9Mn2Co5O16
_symmetry_space_group_name_H-M   'P 1'
_cell_length_a   5.14387600
_cell_length_b   7.67520618
_cell_length_c   7.76761797
_cell_angle_alpha   97.77970984
_cell_angle_beta   102.14900234
_cell_angle_gamma   102.96997122
_symmetry_Int_Tables_number   1
_chemical_formula_structural   Li9Mn2Co5O16
_chemical_formula_sum   'Li9 Mn2 Co5 O16'
_cell_volume   286.73436683
_cell_formula_units_Z   1
loop_
 _symmetry_equiv_pos_site_id
 _symmetry_equiv_pos_as_xyz
  1  'x, y, z'
loop_
 _atom_site_type_symbol
 _atom_site_label
 _atom_site_symmetry_multiplicity
 _atom_site_fract_x
 _atom_site_fract_y
 _atom_site_fract_z
 _atom_site_occupancy
  Li  Li0  1  0.50075300  0.12806500  0.87078100  1
  Li  Li1  1  0.49808400  0.00124700  0.50537400  1
  Li  Li2  1  0.49857700  0.37817600  0.62254100  1
  Li  Li3  1  0.51070800  0.25806400  0.25902300  1
  Li  Li4  1  0.49489500  0.61786500  0.38326700  1
  Li  Li5  1  0.50453700  0.49614100  0.99856000  1
  Li  Li6  1  0.49961200  0.87469100  0.12300000  1
  Li  Li7  1  0.49274500  0.74557300  0.74179200  1
  Li  Li8  1  0.00024300  0.49930000  0.49744900  1
  Mn  Mn0  1  0.99844400  0.00168000  0.99768400  1
  Mn  Mn1  1  0.99977200  0.74775500  0.25254800  1
  Co  Co0  1  0.00241200  0.86905100  0.62473300  1
  Co  Co1  1  0.00251800  0.61603500  0.86384200  1
  Co  Co2  1  0.99629500  0.37608700  0.12999800  1
  Co  Co3  1  0.99363200  0.25385400  0.73885600  1
  Co  Co4  1  0.00487700  0.12735500  0.37788700  1
  O  O0  1  0.77044100  0.12283200  0.11728300  1
  O  O1  1  0.77389900  0.00171900  0.76563200  1
  O  O2  1  0.76572800  0.37798000  0.87792100  1
  O  O3  1  0.77132300  0.23723100  0.50642800  1
  O  O4  1  0.76479400  0.64067600  0.63273000  1
  O  O5  1  0.76668000  0.51481100  0.24476700  1
  O  O6  1  0.78517200  0.88327000  0.37212800  1
  O  O7  1  0.78401300  0.76095300  0.01080200  1
  O  O8  1  0.23458600  0.11713400  0.62587000  1
  O  O9  1  0.21739000  0.99273000  0.23546900  1
  O  O10  1  0.22682800  0.35549400  0.36677700  1
  O  O11  1  0.22140200  0.23878400  0.99545900  1
  O  O12  1  0.22288500  0.62675300  0.13296100  1
  O  O13  1  0.24045300  0.50392800  0.76695800  1
  O  O14  1  0.22523000  0.87909900  0.87921600  1
  O  O15  1  0.23107300  0.75566600  0.48226400  1
loop_
_geom_bond_atom_site_label_1
_geom_bond_atom_site_label_2
_geom_bond_distance
_geom_bond_site_symmetry_2
Li0 O2 2.075078 1_555
Li0 O8 2.075937 1_555
Li0 O1 2.112291 1_555
Li0 O0 2.126045 1_556
Li0 O14 2.126415 1_545
Li0 O11 2.153120 1_555
Li1 O3 2.025954 1_555
Li1 O15 2.028295 1_545
Li1 O8 2.086630 1_555
Li1 O1 2.210922 1_555
Li1 O6 2.249840 1_545
Li1 O9 2.265125 1_545
Li2 O10 2.135275 1_555
Li2 O4 2.147891 1_555
Li2 O8 2.160189 1_555
Li2 O2 2.162821 1_555
Li2 O13 2.204978 1_555
Li2 O3 2.213995 1_555
Li3 O10 2.056020 1_555
Li3 O5 2.141238 1_555
Li3 O3 2.147291 1_555
Li3 O9 2.204749 1_545
Li3 O11 2.228130 1_554
Li3 O0 2.237563 1_555
Li4 O4 2.092756 1_555
Li4 O15 2.101168 1_555
Li4 O10 2.140646 1_555
Li4 O5 2.153261 1_555
Li4 O12 2.162478 1_555
Li4 O6 2.263467 1_555
Li5 O13 2.030318 1_555
Li5 O5 2.061521 1_556
Li5 O2 2.086259 1_555
Li5 O11 2.168965 1_555
Li5 O7 2.187526 1_556
Li5 O12 2.280140 1_556
Li6 O0 2.104265 1_565
Li6 O14 2.119623 1_554
Li6 O12 2.126924 1_555
Li6 O7 2.136742 1_555
Li6 O9 2.145084 1_555
Li6 O6 2.152290 1_555
Li7 O4 2.035734 1_555
Li7 O13 2.070440 1_555
Li7 O1 2.122108 1_565
Li7 O15 2.197412 1_555
Li7 O14 2.244648 1_555
Li7 O7 2.271797 1_556
Li8 O15 2.090091 1_555
Li8 O10 2.092615 1_555
Li8 O5 2.108281 1_455
Li8 O3 2.108715 1_455
Li8 O4 2.136662 1_455
Li8 O13 2.186757 1_555
Mn0 O1 1.925375 1_555
Mn0 O11 1.925450 1_655
Mn0 O14 1.950112 1_645
Mn0 O0 1.953833 1_556
Mn0 O7 1.955561 1_546
Mn0 O9 1.969295 1_646
Mn1 O5 1.901524 1_555
Mn1 O15 1.909926 1_655
Mn1 O12 1.932905 1_655
Mn1 O6 1.961767 1_555
Mn1 O9 1.997798 1_655
Mn1 O7 1.998216 1_555
Co0 O4 1.915712 1_455
Co0 O8 2.005535 1_565
Co0 O15 2.027825 1_555
Co0 O14 2.047555 1_555
Co0 O6 2.073749 1_455
Co0 O1 2.096036 1_465
Co1 O13 1.868088 1_555
Co1 O2 1.986226 1_455
Co1 O4 2.006369 1_455
Co1 O14 2.059652 1_555
Co1 O7 2.135651 1_456
Co1 O12 2.139094 1_556
Co2 O0 2.005943 1_555
Co2 O12 2.007641 1_655
Co2 O10 2.014622 1_655
Co2 O5 2.018450 1_555
Co2 O2 2.068506 1_554
Co2 O11 2.074221 1_654
Co3 O3 1.893836 1_555
Co3 O13 2.004898 1_655
Co3 O8 2.049373 1_655
Co3 O2 2.050490 1_555
Co3 O1 2.071671 1_555
Co3 O11 2.121133 1_655
Co4 O10 1.887317 1_555
Co4 O6 1.947950 1_445
Co4 O3 1.970562 1_455
Co4 O9 2.047671 1_545
Co4 O8 2.058452 1_555
Co4 O0 2.118445 1_455
