# generated using pymatgen
data_RbCu2I3
_symmetry_space_group_name_H-M   'P 1'
_cell_length_a   8.89323958
_cell_length_b   8.89323958
_cell_length_c   5.34806769
_cell_angle_alpha   90.00000000
_cell_angle_beta   90.00000000
_cell_angle_gamma   101.93683401
_symmetry_Int_Tables_number   1
_chemical_formula_structural   RbCu2I3
_chemical_formula_sum   'Rb2 Cu4 I6'
_cell_volume   413.83075913
_cell_formula_units_Z   2
loop_
 _symmetry_equiv_pos_site_id
 _symmetry_equiv_pos_as_xyz
  1  'x, y, z'
loop_
 _atom_site_type_symbol
 _atom_site_label
 _atom_site_symmetry_multiplicity
 _atom_site_fract_x
 _atom_site_fract_y
 _atom_site_fract_z
 _atom_site_occupancy
  Rb  Rb0  1  0.30871267  0.69128733  0.75000000  1
  Rb  Rb1  1  0.69128733  0.30871267  0.25000000  1
  Cu  Cu0  1  0.84002164  0.84002164  0.50000000  1
  Cu  Cu1  1  0.84002164  0.84002164  -0.00000000  1
  Cu  Cu2  1  0.15997836  0.15997836  0.50000000  1
  Cu  Cu3  1  0.15997836  0.15997836  0.00000000  1
  I  I0  1  0.58918902  0.84052741  0.25000000  1
  I  I1  1  0.84052741  0.58918902  0.75000000  1
  I  I2  1  0.41081098  0.15947259  0.75000000  1
  I  I3  1  0.15947259  0.41081098  0.25000000  1
  I  I4  1  0.88989529  0.11010471  0.75000000  1
  I  I5  1  0.11010471  0.88989529  0.25000000  1
loop_
_geom_bond_atom_site_label_1
_geom_bond_atom_site_label_2
_geom_bond_distance
_geom_bond_site_symmetry_2
Cu0 I1 2.601514 1_555
Cu0 I0 2.601514 1_555
Cu0 I5 2.704225 1_655
Cu0 I4 2.704225 1_565
Cu1 I1 2.601514 1_554
Cu1 I0 2.601514 1_555
Cu1 I5 2.704225 1_655
Cu1 I4 2.704225 1_564
Cu2 I3 2.601514 1_555
Cu2 I2 2.601514 1_555
Cu2 I5 2.704225 1_545
Cu2 I4 2.704225 1_455
Cu3 I3 2.601514 1_555
Cu3 I2 2.601514 1_554
Cu3 I5 2.704225 1_545
Cu3 I4 2.704225 1_454
I0 Rb0 3.710023 1_554
I0 Rb0 3.710023 1_555
I0 Rb1 4.073918 1_565
I1 Rb1 3.710023 1_556
I1 Rb1 3.710023 1_555
I1 Rb0 4.073918 1_655
I2 Rb1 3.710023 1_555
I2 Rb1 3.710023 1_556
I2 Rb0 4.073918 1_545
I3 Rb0 3.710023 1_555
I3 Rb0 3.710023 1_554
I3 Rb1 4.073918 1_455
I4 Rb1 3.831498 1_556
I4 Rb1 3.831498 1_555
I5 Rb0 3.831498 1_555
I5 Rb0 3.831498 1_554
