# generated using pymatgen
data_Li4Cr3FeO8
_symmetry_space_group_name_H-M   'P 1'
_cell_length_a   5.16499770
_cell_length_b   5.90835248
_cell_length_c   5.93544135
_cell_angle_alpha   59.84802749
_cell_angle_beta   90.00019825
_cell_angle_gamma   73.31097886
_symmetry_Int_Tables_number   1
_chemical_formula_structural   Li4Cr3FeO8
_chemical_formula_sum   'Li4 Cr3 Fe1 O8'
_cell_volume   147.73205761
_cell_formula_units_Z   1
loop_
 _symmetry_equiv_pos_site_id
 _symmetry_equiv_pos_as_xyz
  1  'x, y, z'
loop_
 _atom_site_type_symbol
 _atom_site_label
 _atom_site_symmetry_multiplicity
 _atom_site_fract_x
 _atom_site_fract_y
 _atom_site_fract_z
 _atom_site_occupancy
  Li  Li0  1  0.00119200  0.99927900  0.50036700  1
  Li  Li1  1  0.99876100  0.00074300  0.99963600  1
  Li  Li2  1  0.99997500  0.50001000  0.99942500  1
  Li  Li3  1  0.99997600  0.50001100  0.50057600  1
  Cr  Cr0  1  0.50005200  0.49994100  0.74983100  1
  Cr  Cr1  1  0.50021300  0.99988100  0.75022400  1
  Cr  Cr2  1  0.50004500  0.00004600  0.24997200  1
  Fe  Fe0  1  0.49994500  0.50001500  0.24997700  1
  O  O0  1  0.27276600  0.23949400  0.38026700  1
  O  O1  1  0.72719700  0.76052100  0.11975400  1
  O  O2  1  0.27374900  0.24128800  0.87935800  1
  O  O3  1  0.72620700  0.75873200  0.62063700  1
  O  O4  1  0.72780700  0.25689500  0.62265300  1
  O  O5  1  0.72779000  0.25690600  0.12044700  1
  O  O6  1  0.27216900  0.74311500  0.87733800  1
  O  O7  1  0.27215200  0.74312300  0.37953800  1
loop_
_geom_bond_atom_site_label_1
_geom_bond_atom_site_label_2
_geom_bond_distance
_geom_bond_site_symmetry_2
Li0 O0 2.148733 1_565
Li0 O6 2.153428 1_555
Li0 O7 2.153459 1_555
Li0 O3 2.164929 1_455
Li0 O4 2.170903 1_465
Li0 O5 2.171002 1_465
Li1 O1 2.148718 1_546
Li1 O4 2.153424 1_555
Li1 O5 2.153439 1_556
Li1 O2 2.164934 1_655
Li1 O7 2.170904 1_646
Li1 O6 2.171053 1_645
Li2 O5 2.163037 1_556
Li2 O6 2.163080 1_655
Li2 O3 2.167217 1_555
Li2 O2 2.167248 1_655
Li2 O1 2.173251 1_556
Li2 O0 2.173276 1_656
Li3 O4 2.163015 1_555
Li3 O7 2.163030 1_655
Li3 O2 2.167204 1_655
Li3 O3 2.167208 1_555
Li3 O1 2.173168 1_555
Li3 O0 2.173222 1_655
Cr0 O4 2.033335 1_555
Cr0 O7 2.033900 1_555
Cr0 O3 2.034289 1_555
Cr0 O2 2.034300 1_555
Cr0 O5 2.034980 1_556
Cr0 O6 2.035551 1_555
Cr1 O1 2.028982 1_556
Cr1 O0 2.031720 1_565
Cr1 O3 2.032202 1_555
Cr1 O2 2.032253 1_565
Cr1 O4 2.032558 1_565
Cr1 O6 2.033347 1_555
Cr2 O1 2.030234 1_545
Cr2 O0 2.030488 1_555
Cr2 O3 2.032199 1_545
Cr2 O2 2.032240 1_554
Cr2 O5 2.032520 1_555
Cr2 O7 2.033396 1_545
Fe0 O6 2.043792 1_554
Fe0 O5 2.043937 1_555
Fe0 O7 2.043966 1_555
Fe0 O4 2.044117 1_555
Fe0 O0 2.045897 1_555
Fe0 O1 2.046131 1_555
