# generated using pymatgen
data_InAs(H2O3)2
_symmetry_space_group_name_H-M   'P 1'
_cell_length_a   9.62859200
_cell_length_b   10.68259000
_cell_length_c   11.63110700
_cell_angle_alpha   90.00000000
_cell_angle_beta   90.00000000
_cell_angle_gamma   90.00000000
_symmetry_Int_Tables_number   1
_chemical_formula_structural   InAs(H2O3)2
_chemical_formula_sum   'In8 As8 H32 O48'
_cell_volume   1196.35590027
_cell_formula_units_Z   8
loop_
 _symmetry_equiv_pos_site_id
 _symmetry_equiv_pos_as_xyz
  1  'x, y, z'
loop_
 _atom_site_type_symbol
 _atom_site_label
 _atom_site_symmetry_multiplicity
 _atom_site_fract_x
 _atom_site_fract_y
 _atom_site_fract_z
 _atom_site_occupancy
  In  In0  1  0.78958800  0.88491500  0.07430700  1
  In  In1  1  0.71041200  0.38491500  0.92569300  1
  In  In2  1  0.28958800  0.11508500  0.42569300  1
  In  In3  1  0.21041200  0.61508500  0.57430700  1
  In  In4  1  0.21041200  0.11508500  0.92569300  1
  In  In5  1  0.28958800  0.61508500  0.07430700  1
  In  In6  1  0.71041200  0.88491500  0.57430700  1
  In  In7  1  0.78958800  0.38491500  0.42569300  1
  As  As0  1  0.62462600  0.55691400  0.17786300  1
  As  As1  1  0.87537400  0.05691400  0.82213700  1
  As  As2  1  0.12462600  0.44308600  0.32213700  1
  As  As3  1  0.37537400  0.94308600  0.67786300  1
  As  As4  1  0.37537400  0.44308600  0.82213700  1
  As  As5  1  0.12462600  0.94308600  0.17786300  1
  As  As6  1  0.87537400  0.55691400  0.67786300  1
  As  As7  1  0.62462600  0.05691400  0.32213700  1
  H  H0  1  0.78146300  0.83587700  0.31783200  1
  H  H1  1  0.71853700  0.33587700  0.68216800  1
  H  H2  1  0.28146300  0.16412300  0.18216800  1
  H  H3  1  0.21853700  0.66412300  0.81783200  1
  H  H4  1  0.21853700  0.16412300  0.68216800  1
  H  H5  1  0.28146300  0.66412300  0.31783200  1
  H  H6  1  0.71853700  0.83587700  0.81783200  1
  H  H7  1  0.78146300  0.33587700  0.18216800  1
  H  H8  1  0.94258000  0.38505000  0.81644200  1
  H  H9  1  0.55742000  0.88505000  0.18355800  1
  H  H10  1  0.44258000  0.61495000  0.68355800  1
  H  H11  1  0.05742000  0.11495000  0.31644200  1
  H  H12  1  0.05742000  0.61495000  0.18355800  1
  H  H13  1  0.44258000  0.11495000  0.81644200  1
  H  H14  1  0.55742000  0.38505000  0.31644200  1
  H  H15  1  0.94258000  0.88505000  0.68355800  1
  H  H16  1  0.93765600  0.64225700  0.32958000  1
  H  H17  1  0.56234400  0.14225700  0.67042000  1
  H  H18  1  0.43765600  0.35774300  0.17042000  1
  H  H19  1  0.06234400  0.85774300  0.82958000  1
  H  H20  1  0.06234400  0.35774300  0.67042000  1
  H  H21  1  0.43765600  0.85774300  0.32958000  1
  H  H22  1  0.56234400  0.64225700  0.82958000  1
  H  H23  1  0.93765600  0.14225700  0.17042000  1
  H  H24  1  0.11898900  0.75790300  0.96771700  1
  H  H25  1  0.38101100  0.25790300  0.03228300  1
  H  H26  1  0.61898900  0.24209700  0.53228300  1
  H  H27  1  0.88101100  0.74209700  0.46771700  1
  H  H28  1  0.88101100  0.24209700  0.03228300  1
  H  H29  1  0.61898900  0.74209700  0.96771700  1
  H  H30  1  0.38101100  0.75790300  0.46771700  1
  H  H31  1  0.11898900  0.25790300  0.53228300  1
  O  O0  1  0.81826200  0.77025700  0.25870200  1
  O  O1  1  0.68173800  0.27025700  0.74129800  1
  O  O2  1  0.31826200  0.22974300  0.24129800  1
  O  O3  1  0.18173800  0.72974300  0.75870200  1
  O  O4  1  0.18173800  0.22974300  0.74129800  1
  O  O5  1  0.31826200  0.72974300  0.25870200  1
  O  O6  1  0.68173800  0.77025700  0.75870200  1
  O  O7  1  0.81826200  0.27025700  0.24129800  1
  O  O8  1  0.95308200  0.73432200  0.30847800  1
  O  O9  1  0.54691800  0.23432200  0.69152200  1
  O  O10  1  0.45308200  0.26567800  0.19152200  1
  O  O11  1  0.04691800  0.76567800  0.80847800  1
  O  O12  1  0.04691800  0.26567800  0.69152200  1
  O  O13  1  0.45308200  0.76567800  0.30847800  1
  O  O14  1  0.54691800  0.73432200  0.80847800  1
  O  O15  1  0.95308200  0.23432200  0.19152200  1
  O  O16  1  0.66893000  0.72746200  0.04022900  1
  O  O17  1  0.83107000  0.22746200  0.95977100  1
  O  O18  1  0.16893000  0.27253800  0.45977100  1
  O  O19  1  0.33107000  0.77253800  0.54022900  1
  O  O20  1  0.33107000  0.27253800  0.95977100  1
  O  O21  1  0.16893000  0.77253800  0.04022900  1
  O  O22  1  0.83107000  0.72746200  0.54022900  1
  O  O23  1  0.66893000  0.22746200  0.45977100  1
  O  O24  1  0.95234700  0.99387200  0.13545100  1
  O  O25  1  0.54765300  0.49387200  0.86454900  1
  O  O26  1  0.45234700  0.00612800  0.36454900  1
  O  O27  1  0.04765300  0.50612800  0.63545100  1
  O  O28  1  0.04765300  0.00612800  0.86454900  1
  O  O29  1  0.45234700  0.50612800  0.13545100  1
  O  O30  1  0.54765300  0.99387200  0.63545100  1
  O  O31  1  0.95234700  0.49387200  0.36454900  1
  O  O32  1  0.61872600  0.95816700  0.17406000  1
  O  O33  1  0.88127400  0.45816700  0.82594000  1
  O  O34  1  0.11872600  0.04183300  0.32594000  1
  O  O35  1  0.38127400  0.54183300  0.67406000  1
  O  O36  1  0.38127400  0.04183300  0.82594000  1
  O  O37  1  0.11872600  0.54183300  0.17406000  1
  O  O38  1  0.88127400  0.95816700  0.67406000  1
  O  O39  1  0.61872600  0.45816700  0.32594000  1
  O  O40  1  0.78269000  0.93566600  0.89809000  1
  O  O41  1  0.71731000  0.43566600  0.10191000  1
  O  O42  1  0.28269000  0.06433400  0.60191000  1
  O  O43  1  0.21731000  0.56433400  0.39809000  1
  O  O44  1  0.21731000  0.06433400  0.10191000  1
  O  O45  1  0.28269000  0.56433400  0.89809000  1
  O  O46  1  0.71731000  0.93566600  0.39809000  1
  O  O47  1  0.78269000  0.43566600  0.60191000  1
loop_
_geom_bond_atom_site_label_1
_geom_bond_atom_site_label_2
_geom_bond_distance
_geom_bond_site_symmetry_2
In0 O24 2.077609 1_555
In0 O16 2.082295 1_555
In0 O40 2.121131 1_554
In0 O32 2.159871 1_555
In0 O0 2.485213 1_555
In1 O25 2.077609 1_555
In1 O17 2.082295 1_555
In1 O41 2.121131 1_556
In1 O33 2.159871 1_555
In1 O1 2.485213 1_555
In2 O26 2.077609 1_555
In2 O18 2.082295 1_555
In2 O42 2.121131 1_555
In2 O34 2.159871 1_555
In2 O2 2.485213 1_555
In3 O27 2.077609 1_555
In3 O19 2.082295 1_555
In3 O43 2.121131 1_555
In3 O35 2.159871 1_555
In3 O3 2.485213 1_555
In4 O28 2.077609 1_555
In4 O20 2.082295 1_555
In4 O44 2.121131 1_556
In4 O36 2.159871 1_555
In4 O4 2.485213 1_555
In5 O29 2.077609 1_555
In5 O21 2.082295 1_555
In5 O45 2.121131 1_554
In5 O37 2.159871 1_555
In5 O5 2.485213 1_555
In6 O30 2.077609 1_555
In6 O22 2.082295 1_555
In6 O46 2.121131 1_555
In6 O38 2.159871 1_555
In6 O6 2.485213 1_555
In7 O31 2.077609 1_555
In7 O23 2.082295 1_555
In7 O47 2.121131 1_555
In7 O39 2.159871 1_555
In7 O7 2.485213 1_555
As0 O41 1.804020 1_555
As0 O29 1.813645 1_555
As0 O39 2.020471 1_555
As0 O16 2.462509 1_555
As1 O40 1.804020 1_545
As1 O28 1.813645 1_655
As1 O38 2.020471 1_545
As1 O17 2.462509 1_555
As2 O43 1.804020 1_555
As2 O31 1.813645 1_455
As2 O37 2.020471 1_555
As2 O18 2.462509 1_555
As3 O42 1.804020 1_565
As3 O30 1.813645 1_555
As3 O36 2.020471 1_565
As3 O19 2.462509 1_555
As4 O45 1.804020 1_555
As4 O25 1.813645 1_555
As4 O35 2.020471 1_555
As4 O20 2.462509 1_555
As5 O44 1.804020 1_565
As5 O24 1.813645 1_455
As5 O34 2.020471 1_565
As5 O21 2.462509 1_555
As6 O47 1.804020 1_555
As6 O27 1.813645 1_655
As6 O33 2.020471 1_555
As6 O22 2.462509 1_555
As7 O46 1.804020 1_545
As7 O26 1.813645 1_555
As7 O32 2.020471 1_545
As7 O23 2.462509 1_555
H0 O0 1.043997 1_555
H0 O46 1.545745 1_555
H1 O1 1.043997 1_555
H1 O47 1.545745 1_555
H2 O2 1.043997 1_555
H2 O44 1.545745 1_555
H3 O3 1.043997 1_555
H3 O45 1.545745 1_555
H4 O4 1.043997 1_555
H4 O42 1.545745 1_555
H5 O5 1.043997 1_555
H5 O43 1.545745 1_555
H6 O6 1.043997 1_555
H6 O40 1.545745 1_555
H7 O7 1.043997 1_555
H7 O41 1.545745 1_555
H8 O33 0.985257 1_555
H9 O32 0.985257 1_555
H10 O35 0.985257 1_555
H11 O34 0.985257 1_555
H12 O37 0.985257 1_555
H13 O36 0.985257 1_555
H14 O39 0.985257 1_555
H15 O38 0.985257 1_555
H16 O8 1.024480 1_555
H16 O31 1.642587 1_555
H17 O9 1.024480 1_555
H17 O30 1.642587 1_545
H18 O10 1.024480 1_555
H18 O29 1.642587 1_555
H19 O11 1.024480 1_555
H19 O28 1.642587 1_565
H20 O12 1.024480 1_555
H20 O27 1.642587 1_555
H21 O13 1.024480 1_555
H21 O26 1.642587 1_565
H22 O14 1.024480 1_555
H22 O25 1.642587 1_555
H23 O15 1.024480 1_555
H23 O24 1.642587 1_545
H24 O21 0.983354 1_556
H25 O20 0.983354 1_554
H26 O23 0.983354 1_555
H27 O22 0.983354 1_555
H28 O17 0.983354 1_554
H29 O16 0.983354 1_556
H30 O19 0.983354 1_555
H31 O18 0.983354 1_555
