# generated using pymatgen
data_BaSrGdSbO6
_symmetry_space_group_name_H-M   'P 1'
_cell_length_a   8.48713645
_cell_length_b   8.49307163
_cell_length_c   8.49950187
_cell_angle_alpha   90.00000000
_cell_angle_beta   90.00000000
_cell_angle_gamma   90.00000000
_symmetry_Int_Tables_number   1
_chemical_formula_structural   BaSrGdSbO6
_chemical_formula_sum   'Ba4 Sr4 Gd4 Sb4 O24'
_cell_volume   612.65988519
_cell_formula_units_Z   4
loop_
 _symmetry_equiv_pos_site_id
 _symmetry_equiv_pos_as_xyz
  1  'x, y, z'
loop_
 _atom_site_type_symbol
 _atom_site_label
 _atom_site_symmetry_multiplicity
 _atom_site_fract_x
 _atom_site_fract_y
 _atom_site_fract_z
 _atom_site_occupancy
  Ba  Ba0  1  -0.00000000  -0.00000000  -0.00000000  1
  Ba  Ba1  1  0.50000000  0.50000000  0.50000000  1
  Ba  Ba2  1  0.50000000  0.50000000  -0.00000000  1
  Ba  Ba3  1  0.50000000  -0.00000000  -0.00000000  1
  Sr  Sr0  1  -0.00000000  0.50000000  0.50000000  1
  Sr  Sr1  1  0.50000000  0.00000000  0.50000000  1
  Sr  Sr2  1  -0.00000000  0.50000000  -0.00000000  1
  Sr  Sr3  1  -0.00000000  0.00000000  0.50000000  1
  Gd  Gd0  1  0.75164908  0.75005114  0.74815871  1
  Gd  Gd1  1  0.24835092  0.24994886  0.74815871  1
  Gd  Gd2  1  0.24835092  0.75005114  0.25184129  1
  Gd  Gd3  1  0.75164908  0.24994886  0.25184129  1
  Sb  Sb0  1  0.24711764  0.24883481  0.25409644  1
  Sb  Sb1  1  0.75288236  0.75116519  0.25409644  1
  Sb  Sb2  1  0.75288236  0.24883481  0.74590356  1
  Sb  Sb3  1  0.24711764  0.75116519  0.74590356  1
  O  O0  1  0.01392058  0.22188496  0.28464102  1
  O  O1  1  0.98607942  0.77811504  0.28464102  1
  O  O2  1  0.98607942  0.22188496  0.71535898  1
  O  O3  1  0.01392058  0.77811504  0.71535898  1
  O  O4  1  0.26819038  0.01447703  0.22649034  1
  O  O5  1  0.26819038  0.98552297  0.77350966  1
  O  O6  1  0.73180962  0.98552297  0.22649034  1
  O  O7  1  0.73180962  0.01447703  0.77350966  1
  O  O8  1  0.21790768  0.27737201  0.01789824  1
  O  O9  1  0.78209232  0.27737201  0.98210176  1
  O  O10  1  0.21790768  0.72262799  0.98210176  1
  O  O11  1  0.78209232  0.72262799  0.01789824  1
  O  O12  1  0.48316934  0.27215758  0.22956621  1
  O  O13  1  0.51683066  0.72784242  0.22956621  1
  O  O14  1  0.51683066  0.27215758  0.77043379  1
  O  O15  1  0.48316934  0.72784242  0.77043379  1
  O  O16  1  0.22006408  0.48392047  0.28193998  1
  O  O17  1  0.22006408  0.51607953  0.71806002  1
  O  O18  1  0.77993592  0.51607953  0.28193998  1
  O  O19  1  0.77993592  0.48392047  0.71806002  1
  O  O20  1  0.27969362  0.22054262  0.48665811  1
  O  O21  1  0.72030638  0.22054262  0.51334189  1
  O  O22  1  0.27969362  0.77945738  0.51334189  1
  O  O23  1  0.72030638  0.77945738  0.48665811  1
loop_
_geom_bond_atom_site_label_1
_geom_bond_atom_site_label_2
_geom_bond_distance
_geom_bond_site_symmetry_2
Ba0 O7 2.983605 1_454
Ba0 O6 2.983605 1_445
Ba0 O4 2.983605 1_555
Ba0 O5 2.983605 1_544
Ba0 O9 2.998830 1_454
Ba0 O8 2.998830 1_555
Ba0 O11 2.998830 1_445
Ba0 O10 2.998830 1_544
Ba0 O0 3.068923 1_555
Ba0 O2 3.068923 1_454
Ba0 O3 3.068923 1_544
Ba0 O1 3.068923 1_445
Ba1 O14 3.008038 1_555
Ba1 O15 3.008038 1_555
Ba1 O12 3.008038 1_555
Ba1 O13 3.008038 1_555
Ba1 O17 3.016361 1_555
Ba1 O18 3.016361 1_555
Ba1 O19 3.016361 1_555
Ba1 O16 3.016361 1_555
Ba1 O20 3.023603 1_555
Ba1 O23 3.023603 1_555
Ba1 O21 3.023603 1_555
Ba1 O22 3.023603 1_555
Ba2 O15 2.751749 1_554
Ba2 O12 2.751749 1_555
Ba2 O13 2.751749 1_555
Ba2 O14 2.751749 1_554
Ba2 O11 3.054543 1_555
Ba2 O9 3.054543 1_554
Ba2 O8 3.054543 1_555
Ba2 O10 3.054543 1_554
Ba3 O4 2.755289 1_555
Ba3 O5 2.755289 1_544
Ba3 O7 2.755289 1_554
Ba3 O6 2.755289 1_545
Ba3 O13 3.028267 1_545
Ba3 O15 3.028267 1_544
Ba3 O12 3.028267 1_555
Ba3 O14 3.028267 1_554
Ba3 O9 3.362237 1_554
Ba3 O11 3.362237 1_545
Ba3 O10 3.362237 1_544
Ba3 O8 3.362237 1_555
Gd0 O23 2.252376 1_555
Gd0 O3 2.255950 1_655
Gd0 O7 2.262376 1_565
Gd0 O19 2.287332 1_555
Gd0 O15 2.294243 1_555
Gd0 O11 2.318891 1_556
Gd1 O20 2.252376 1_555
Gd1 O2 2.255950 1_455
Gd1 O5 2.262376 1_545
Gd1 O17 2.287332 1_555
Gd1 O14 2.294243 1_555
Gd1 O8 2.318891 1_556
Gd2 O22 2.252376 1_555
Gd2 O1 2.255950 1_455
Gd2 O4 2.262376 1_565
Gd2 O16 2.287332 1_555
Gd2 O13 2.294243 1_555
Gd2 O10 2.318891 1_554
Gd3 O21 2.252376 1_555
Gd3 O0 2.255950 1_655
Gd3 O6 2.262376 1_545
Gd3 O18 2.287332 1_555
Gd3 O12 2.294243 1_555
Gd3 O9 2.318891 1_554
O0 Sb0 2.009210 1_555
O0 Sr3 2.629785 1_555
O0 Sr0 2.990613 1_555
O1 Sb1 2.009210 1_555
O1 Sr3 2.629785 1_665
O1 Sr0 2.990613 1_655
O2 Sb2 2.009210 1_555
O2 Sr3 2.629785 1_655
O2 Sr0 2.990613 1_655
O3 Sb3 2.009210 1_555
O3 Sr3 2.629785 1_565
O3 Sr0 2.990613 1_555
O4 Sb0 2.012164 1_555
O5 Sb3 2.012164 1_555
O6 Sb1 2.012164 1_555
O7 Sb2 2.012164 1_555
O8 Sb0 2.037284 1_555
O8 Sr2 2.649259 1_555
O9 Sb2 2.037284 1_555
O9 Sr2 2.649259 1_656
O10 Sb3 2.037284 1_555
O10 Sr2 2.649259 1_556
O11 Sb1 2.037284 1_555
O11 Sr2 2.649259 1_655
O12 Sb0 2.023939 1_555
O13 Sb1 2.023939 1_555
O14 Sb2 2.023939 1_555
O15 Sb3 2.023939 1_555
O16 Sb0 2.023644 1_555
O16 Sr0 2.634787 1_555
O16 Sr2 3.041298 1_555
O17 Sb3 2.023644 1_555
O17 Sr0 2.634787 1_555
O17 Sr2 3.041298 1_556
O18 Sb1 2.023644 1_555
O18 Sr0 2.634787 1_655
O18 Sr2 3.041298 1_655
O19 Sb2 2.023644 1_555
O19 Sr0 2.634787 1_655
O19 Sr2 3.041298 1_656
O20 Sb0 2.010312 1_555
O20 Sr1 2.649027 1_555
O20 Sr3 3.025925 1_555
O21 Sb2 2.010312 1_555
O21 Sr1 2.649027 1_555
O21 Sr3 3.025925 1_655
O22 Sb3 2.010312 1_555
O22 Sr1 2.649027 1_565
O22 Sr3 3.025925 1_565
O23 Sb1 2.010312 1_555
O23 Sr1 2.649027 1_565
O23 Sr3 3.025925 1_665
