# generated using pymatgen
data_MnPb2WO6
_symmetry_space_group_name_H-M   'P 1'
_cell_length_a   5.90713800
_cell_length_b   8.17556300
_cell_length_c   11.84830700
_cell_angle_alpha   90.00000000
_cell_angle_beta   90.00000000
_cell_angle_gamma   90.00000000
_symmetry_Int_Tables_number   1
_chemical_formula_structural   MnPb2WO6
_chemical_formula_sum   'Mn4 Pb8 W4 O24'
_cell_volume   572.20425755
_cell_formula_units_Z   4
loop_
 _symmetry_equiv_pos_site_id
 _symmetry_equiv_pos_as_xyz
  1  'x, y, z'
loop_
 _atom_site_type_symbol
 _atom_site_label
 _atom_site_symmetry_multiplicity
 _atom_site_fract_x
 _atom_site_fract_y
 _atom_site_fract_z
 _atom_site_occupancy
  Mn  Mn0  1  0.25910100  0.12039600  0.11767900  1
  Mn  Mn1  1  0.74089900  0.62039600  0.88232100  1
  Mn  Mn2  1  0.75910100  0.62039600  0.38232100  1
  Mn  Mn3  1  0.24089900  0.12039600  0.61767900  1
  Pb  Pb0  1  0.79256700  0.37689900  0.14826500  1
  Pb  Pb1  1  0.20743300  0.87689900  0.85173500  1
  Pb  Pb2  1  0.29256700  0.87689900  0.35173500  1
  Pb  Pb3  1  0.70743300  0.37689900  0.64826500  1
  Pb  Pb4  1  0.79651600  0.86541000  0.14502800  1
  Pb  Pb5  1  0.20348400  0.36541000  0.85497200  1
  Pb  Pb6  1  0.29651600  0.36541000  0.35497200  1
  Pb  Pb7  1  0.70348400  0.86541000  0.64502800  1
  W  W0  1  0.25106000  0.61809200  0.11831600  1
  W  W1  1  0.74894000  0.11809200  0.88168400  1
  W  W2  1  0.75106000  0.11809200  0.38168400  1
  W  W3  1  0.24894000  0.61809200  0.61831600  1
  O  O0  1  0.96607700  0.62405300  0.23049600  1
  O  O1  1  0.03392300  0.12405300  0.76950400  1
  O  O2  1  0.46607700  0.12405300  0.26950400  1
  O  O3  1  0.53392300  0.62405300  0.73049600  1
  O  O4  1  0.44528900  0.61245800  0.25369500  1
  O  O5  1  0.55471100  0.11245800  0.74630500  1
  O  O6  1  0.94528900  0.11245800  0.24630500  1
  O  O7  1  0.05471100  0.61245800  0.75369500  1
  O  O8  1  0.49158500  0.61272000  0.01737100  1
  O  O9  1  0.50841500  0.11272000  0.98262900  1
  O  O10  1  0.99158500  0.11272000  0.48262900  1
  O  O11  1  0.00841500  0.61272000  0.51737100  1
  O  O12  1  0.23073700  0.85655000  0.13884700  1
  O  O13  1  0.76926300  0.35655000  0.86115300  1
  O  O14  1  0.73073700  0.35655000  0.36115300  1
  O  O15  1  0.26926300  0.85655000  0.63884700  1
  O  O16  1  0.21069200  0.38140800  0.13910100  1
  O  O17  1  0.78930800  0.88140800  0.86089900  1
  O  O18  1  0.71069200  0.88140800  0.36089900  1
  O  O19  1  0.28930800  0.38140800  0.63910100  1
  O  O20  1  0.02176100  0.62251400  0.00308200  1
  O  O21  1  0.97823900  0.12251400  0.99691800  1
  O  O22  1  0.52176100  0.12251400  0.49691800  1
  O  O23  1  0.47823900  0.62251400  0.50308200  1
loop_
_geom_bond_atom_site_label_1
_geom_bond_atom_site_label_2
_geom_bond_distance
_geom_bond_site_symmetry_2
Mn0 O16 2.167904 1_555
Mn0 O2 2.175239 1_555
Mn0 O9 2.175602 1_554
Mn0 O12 2.178075 1_545
Mn0 O21 2.190915 1_454
Mn0 O6 2.400647 1_455
Mn1 O17 2.167904 1_555
Mn1 O3 2.175239 1_555
Mn1 O8 2.175602 1_556
Mn1 O13 2.178075 1_555
Mn1 O20 2.190915 1_656
Mn1 O7 2.400647 1_655
Mn2 O18 2.167904 1_555
Mn2 O0 2.175239 1_555
Mn2 O11 2.175602 1_655
Mn2 O14 2.178075 1_555
Mn2 O23 2.190915 1_555
Mn2 O4 2.400647 1_555
Mn3 O19 2.167904 1_555
Mn3 O1 2.175239 1_555
Mn3 O10 2.175602 1_455
Mn3 O15 2.178075 1_545
Mn3 O22 2.190915 1_555
Mn3 O5 2.400647 1_555
O0 W0 2.145448 1_655
O0 Pb4 2.433586 1_555
O0 Pb0 2.466311 1_555
O1 W1 2.145448 1_455
O1 Pb5 2.433586 1_555
O1 Pb1 2.466311 1_545
O2 W2 2.145448 1_555
O2 Pb6 2.433586 1_555
O2 Pb2 2.466311 1_545
O3 W3 2.145448 1_555
O3 Pb7 2.433586 1_555
O3 Pb3 2.466311 1_555
O4 W0 1.972653 1_555
O4 Pb6 2.508317 1_555
O4 Pb2 2.614814 1_555
O5 W1 1.972653 1_555
O5 Pb7 2.508317 1_545
O5 Pb3 2.614814 1_555
O6 W2 1.972653 1_555
O6 Pb4 2.508317 1_545
O6 Pb0 2.614814 1_555
O7 W3 1.972653 1_555
O7 Pb5 2.508317 1_555
O7 Pb1 2.614814 1_555
O8 W0 1.857720 1_555
O9 W1 1.857720 1_555
O10 W2 1.857720 1_555
O11 W3 1.857720 1_555
O12 W0 1.968311 1_555
O12 Pb2 2.554092 1_555
O12 Pb4 2.567071 1_455
O13 W1 1.968311 1_555
O13 Pb3 2.554092 1_555
O13 Pb5 2.567071 1_655
O14 W2 1.968311 1_555
O14 Pb0 2.554092 1_555
O14 Pb6 2.567071 1_555
O15 W3 1.968311 1_555
O15 Pb1 2.554092 1_555
O15 Pb7 2.567071 1_555
O16 W0 1.965154 1_555
O16 Pb0 2.472582 1_455
O16 Pb6 2.610745 1_555
O17 W1 1.965154 1_565
O17 Pb1 2.472582 1_655
O17 Pb7 2.610745 1_555
O18 W2 1.965154 1_565
O18 Pb2 2.472582 1_555
O18 Pb4 2.610745 1_555
O19 W3 1.965154 1_555
O19 Pb3 2.472582 1_555
O19 Pb5 2.610745 1_555
O20 W0 1.923564 1_555
O21 W1 1.923564 1_555
O22 W2 1.923564 1_555
O23 W3 1.923564 1_555
