# generated using pymatgen
data_Ba6Pr2Y(CuO2)12
_symmetry_space_group_name_H-M   'P 1'
_cell_length_a   3.93820300
_cell_length_b   3.91559800
_cell_length_c   41.54960195
_cell_angle_alpha   92.70075199
_cell_angle_beta   90.00000000
_cell_angle_gamma   90.00000000
_symmetry_Int_Tables_number   1
_chemical_formula_structural   Ba6Pr2Y(CuO2)12
_chemical_formula_sum   'Ba6 Pr2 Y1 Cu12 O24'
_cell_volume   640.00063717
_cell_formula_units_Z   1
loop_
 _symmetry_equiv_pos_site_id
 _symmetry_equiv_pos_as_xyz
  1  'x, y, z'
loop_
 _atom_site_type_symbol
 _atom_site_label
 _atom_site_symmetry_multiplicity
 _atom_site_fract_x
 _atom_site_fract_y
 _atom_site_fract_z
 _atom_site_occupancy
  Ba  Ba0  1  0.50000000  0.54522600  0.09045300  1
  Ba  Ba1  1  0.50000000  0.21222300  0.42444600  1
  Ba  Ba2  1  0.50000000  0.87887000  0.75773900  1
  Ba  Ba3  1  0.50000000  0.12113000  0.24226100  1
  Ba  Ba4  1  0.50000000  0.78777700  0.57555400  1
  Ba  Ba5  1  0.50000000  0.45477400  0.90954700  1
  Pr  Pr0  1  0.50000000  0.16669400  0.33338700  1
  Pr  Pr1  1  0.50000000  0.83330600  0.66661300  1
  Y  Y0  1  0.50000000  0.50000000  0.00000000  1
  Cu  Cu0  1  0.00000000  0.07077300  0.14154500  1
  Cu  Cu1  1  0.00000000  0.73756300  0.47512700  1
  Cu  Cu2  1  0.00000000  0.40428400  0.80856800  1
  Cu  Cu3  1  0.00000000  0.59571600  0.19143200  1
  Cu  Cu4  1  0.00000000  0.26243700  0.52487300  1
  Cu  Cu5  1  0.00000000  0.92922700  0.85845500  1
  Cu  Cu6  1  0.00000000  0.02058500  0.04116900  1
  Cu  Cu7  1  0.00000000  0.68825200  0.37650200  1
  Cu  Cu8  1  0.00000000  0.35491400  0.70982900  1
  Cu  Cu9  1  0.00000000  0.64508600  0.29017100  1
  Cu  Cu10  1  0.00000000  0.31174800  0.62349800  1
  Cu  Cu11  1  0.00000000  0.97941500  0.95883100  1
  O  O0  1  0.00000000  0.04847800  0.09695700  1
  O  O1  1  0.00000000  0.71536700  0.43073300  1
  O  O2  1  0.00000000  0.38204900  0.76409900  1
  O  O3  1  0.00000000  0.61795100  0.23590100  1
  O  O4  1  0.00000000  0.28463300  0.56926700  1
  O  O5  1  0.00000000  0.95152200  0.90304300  1
  O  O6  1  0.50000000  0.01748100  0.03496100  1
  O  O7  1  0.50000000  0.68540100  0.37080300  1
  O  O8  1  0.50000000  0.35207000  0.70414000  1
  O  O9  1  0.50000000  0.64793000  0.29586000  1
  O  O10  1  0.50000000  0.31459900  0.62919700  1
  O  O11  1  0.50000000  0.98251900  0.96503900  1
  O  O12  1  0.00000000  0.57289100  0.14578300  1
  O  O13  1  0.00000000  0.23962700  0.47925400  1
  O  O14  1  0.00000000  0.90638300  0.81276600  1
  O  O15  1  0.00000000  0.09361700  0.18723400  1
  O  O16  1  0.00000000  0.76037300  0.52074600  1
  O  O17  1  0.00000000  0.42710900  0.85421700  1
  O  O18  1  0.00000000  0.51726900  0.03453800  1
  O  O19  1  0.00000000  0.18515300  0.37030400  1
  O  O20  1  0.00000000  0.85181500  0.70363100  1
  O  O21  1  0.00000000  0.14818500  0.29636900  1
  O  O22  1  0.00000000  0.81484700  0.62969600  1
  O  O23  1  0.00000000  0.48273100  0.96546200  1
loop_
_geom_bond_atom_site_label_1
_geom_bond_atom_site_label_2
_geom_bond_distance
_geom_bond_site_symmetry_2
Ba0 O0 2.789839 1_565
Ba0 O0 2.789839 1_665
Ba0 O0 2.789839 1_555
Ba0 O0 2.789839 1_655
Ba0 O6 3.022793 1_555
Ba0 O6 3.022798 1_565
Ba0 O12 3.025021 1_655
Ba0 O12 3.025021 1_555
Ba0 O18 3.043493 1_655
Ba0 O18 3.043493 1_555
Ba1 O1 2.788981 1_545
Ba1 O1 2.788981 1_645
Ba1 O1 2.788984 1_555
Ba1 O1 2.788984 1_655
Ba1 O7 2.964741 1_555
Ba1 O7 2.964744 1_545
Ba1 O19 2.987763 1_655
Ba1 O19 2.987763 1_555
Ba1 O13 3.008607 1_655
Ba1 O13 3.008607 1_555
Ba2 O2 2.789265 1_565
Ba2 O2 2.789265 1_665
Ba2 O2 2.789270 1_655
Ba2 O2 2.789270 1_555
Ba2 O8 2.963370 1_565
Ba2 O8 2.963373 1_555
Ba2 O20 2.986702 1_555
Ba2 O20 2.986702 1_655
Ba2 O14 3.015485 1_655
Ba2 O14 3.015485 1_555
Ba3 O3 2.789265 1_645
Ba3 O3 2.789265 1_545
Ba3 O3 2.789270 1_655
Ba3 O3 2.789270 1_555
Ba3 O9 2.963370 1_545
Ba3 O9 2.963373 1_555
Ba3 O21 2.986702 1_555
Ba3 O21 2.986702 1_655
Ba3 O15 3.015485 1_555
Ba3 O15 3.015485 1_655
Ba4 O4 2.788981 1_565
Ba4 O4 2.788981 1_665
Ba4 O4 2.788984 1_555
Ba4 O4 2.788984 1_655
Ba4 O10 2.964741 1_555
Ba4 O10 2.964744 1_565
Ba4 O22 2.987763 1_655
Ba4 O22 2.987763 1_555
Ba4 O16 3.008607 1_555
Ba4 O16 3.008607 1_655
Ba5 O5 2.789839 1_545
Ba5 O5 2.789839 1_645
Ba5 O5 2.789839 1_555
Ba5 O5 2.789839 1_655
Ba5 O11 3.022793 1_555
Ba5 O11 3.022798 1_545
Ba5 O17 3.025021 1_655
Ba5 O17 3.025021 1_555
Ba5 O23 3.043493 1_555
Ba5 O23 3.043493 1_655
Cu0 O0 1.850556 1_555
Cu0 O15 1.896251 1_555
Cu0 O12 1.965680 1_555
Cu0 O12 1.965688 1_545
Cu1 O1 1.842504 1_555
Cu1 O16 1.893346 1_555
Cu1 O13 1.965275 1_555
Cu1 O13 1.965279 1_565
Cu2 O2 1.845617 1_555
Cu2 O17 1.894591 1_555
Cu2 O14 1.965536 1_555
Cu2 O14 1.965536 1_545
Cu3 O3 1.845617 1_555
Cu3 O12 1.894591 1_555
Cu3 O15 1.965536 1_565
Cu3 O15 1.965536 1_555
Cu4 O4 1.842504 1_555
Cu4 O13 1.893346 1_555
Cu4 O16 1.965275 1_555
Cu4 O16 1.965279 1_545
Cu5 O5 1.850556 1_555
Cu5 O14 1.896251 1_555
Cu5 O17 1.965680 1_555
Cu5 O17 1.965688 1_565
Cu6 O18 1.977046 1_555
Cu6 O18 1.977050 1_545
Cu6 O6 1.985887 1_455
Cu6 O6 1.985887 1_555
Cu6 O0 2.315395 1_555
Cu7 O19 1.974626 1_565
Cu7 O19 1.974626 1_555
Cu7 O7 1.983256 1_555
Cu7 O7 1.983256 1_455
Cu7 O1 2.250774 1_555
Cu8 O20 1.974626 1_555
Cu8 O20 1.974626 1_545
Cu8 O8 1.983207 1_555
Cu8 O8 1.983207 1_455
Cu8 O2 2.252392 1_555
Cu9 O21 1.974626 1_565
Cu9 O21 1.974626 1_555
Cu9 O9 1.983207 1_455
Cu9 O9 1.983207 1_555
Cu9 O3 2.252392 1_555
Cu10 O22 1.974626 1_545
Cu10 O22 1.974626 1_555
Cu10 O10 1.983256 1_555
Cu10 O10 1.983256 1_455
Cu10 O4 2.250774 1_555
Cu11 O23 1.977046 1_555
Cu11 O23 1.977050 1_565
Cu11 O11 1.985887 1_455
Cu11 O11 1.985887 1_555
Cu11 O5 2.315395 1_555
O6 Y0 2.436878 1_555
O6 Y0 2.436882 1_545
O7 Pr0 2.498887 1_555
O7 Pr0 2.498894 1_565
O8 Pr1 2.501754 1_555
O8 Pr1 2.501758 1_545
O9 Pr0 2.501754 1_555
O9 Pr0 2.501758 1_565
O10 Pr1 2.498887 1_555
O10 Pr1 2.498894 1_545
O11 Y0 2.436878 1_556
O11 Y0 2.436882 1_566
O18 Y0 2.435596 1_455
O18 Y0 2.435596 1_555
O19 Pr0 2.494984 1_455
O19 Pr0 2.494984 1_555
O20 Pr1 2.497560 1_455
O20 Pr1 2.497560 1_555
O21 Pr0 2.497560 1_555
O21 Pr0 2.497560 1_455
O22 Pr1 2.494984 1_555
O22 Pr1 2.494984 1_455
O23 Y0 2.435596 1_456
O23 Y0 2.435596 1_556
