# generated using pymatgen
data_CePm3
_symmetry_space_group_name_H-M   'P 1'
_cell_length_a   7.33884817
_cell_length_b   7.33884817
_cell_length_c   5.98292100
_cell_angle_alpha   90.00000000
_cell_angle_beta   90.00000000
_cell_angle_gamma   120.00000154
_symmetry_Int_Tables_number   1
_chemical_formula_structural   CePm3
_chemical_formula_sum   'Ce2 Pm6'
_cell_volume   279.06135534
_cell_formula_units_Z   2
loop_
 _symmetry_equiv_pos_site_id
 _symmetry_equiv_pos_as_xyz
  1  'x, y, z'
loop_
 _atom_site_type_symbol
 _atom_site_label
 _atom_site_symmetry_multiplicity
 _atom_site_fract_x
 _atom_site_fract_y
 _atom_site_fract_z
 _atom_site_occupancy
  Ce  Ce0  1  0.33333300  0.66666700  0.75000000  1
  Ce  Ce1  1  0.66666700  0.33333300  0.25000000  1
  Pm  Pm0  1  0.16687700  0.33375400  0.25000000  1
  Pm  Pm1  1  0.66624600  0.83312300  0.25000000  1
  Pm  Pm2  1  0.16687700  0.83312300  0.25000000  1
  Pm  Pm3  1  0.83312300  0.66624600  0.75000000  1
  Pm  Pm4  1  0.33375400  0.16687700  0.75000000  1
  Pm  Pm5  1  0.83312300  0.16687700  0.75000000  1
loop_
_geom_bond_atom_site_label_1
_geom_bond_atom_site_label_2
_geom_bond_distance
_geom_bond_site_symmetry_2
Ce0 Pm2 3.664113 1_555
Ce0 Pm2 3.664113 1_556
Ce0 Pm1 3.664116 1_555
Ce0 Pm0 3.664116 1_556
Ce0 Pm0 3.664116 1_555
Ce0 Pm1 3.664116 1_556
Ce0 Pm4 3.669421 1_565
Ce0 Pm3 3.669421 1_455
Ce0 Pm5 3.669425 1_565
Ce0 Pm5 3.669425 1_455
Ce0 Pm3 3.669429 1_555
Ce0 Pm4 3.669429 1_555
Ce1 Pm5 3.664113 1_555
Ce1 Pm5 3.664113 1_554
Ce1 Pm3 3.664116 1_554
Ce1 Pm4 3.664116 1_555
Ce1 Pm4 3.664116 1_554
Ce1 Pm3 3.664116 1_555
Ce1 Pm0 3.669421 1_655
Ce1 Pm1 3.669421 1_545
Ce1 Pm2 3.669425 1_655
Ce1 Pm2 3.669425 1_545
Ce1 Pm1 3.669429 1_555
Ce1 Pm0 3.669429 1_555
Pm0 Pm1 3.664793 1_555
Pm0 Pm2 3.664793 1_555
Pm0 Pm5 3.667205 1_454
Pm0 Pm5 3.667205 1_455
Pm0 Pm4 3.667205 1_554
Pm0 Pm4 3.667205 1_555
Pm0 Pm1 3.674055 1_445
Pm0 Pm2 3.674055 1_545
Pm1 Pm2 3.664793 1_555
Pm1 Pm5 3.667205 1_565
Pm1 Pm5 3.667205 1_564
Pm1 Pm3 3.667205 1_555
Pm1 Pm3 3.667205 1_554
Pm1 Pm2 3.674055 1_655
Pm2 Pm3 3.667205 1_454
Pm2 Pm4 3.667205 1_564
Pm2 Pm3 3.667205 1_455
Pm2 Pm4 3.667205 1_565
Pm3 Pm4 3.664793 1_555
Pm3 Pm5 3.664793 1_555
Pm3 Pm4 3.674055 1_665
Pm3 Pm5 3.674055 1_565
Pm4 Pm5 3.664793 1_555
Pm4 Pm5 3.674055 1_455
