# generated using pymatgen
data_K2CdH2C8(N3O4)2
_symmetry_space_group_name_H-M   'P 1'
_cell_length_a   8.38168017
_cell_length_b   9.33475500
_cell_length_c   10.09412603
_cell_angle_alpha   95.17045536
_cell_angle_beta   95.22636917
_cell_angle_gamma   100.21981041
_symmetry_Int_Tables_number   1
_chemical_formula_structural   K2CdH2C8(N3O4)2
_chemical_formula_sum   'K4 Cd2 H4 C16 N12 O16'
_cell_volume   769.44740808
_cell_formula_units_Z   2
loop_
 _symmetry_equiv_pos_site_id
 _symmetry_equiv_pos_as_xyz
  1  'x, y, z'
loop_
 _atom_site_type_symbol
 _atom_site_label
 _atom_site_symmetry_multiplicity
 _atom_site_fract_x
 _atom_site_fract_y
 _atom_site_fract_z
 _atom_site_occupancy
  K  K0  1  0.06462600  0.92740800  0.19085600  1
  K  K1  1  0.93537400  0.07259200  0.80914400  1
  K  K2  1  0.32912100  0.37276800  0.59922600  1
  K  K3  1  0.67087900  0.62723200  0.40077400  1
  Cd  Cd0  1  0.46403100  0.24610900  0.03104700  1
  Cd  Cd1  1  0.53596900  0.75389100  0.96895300  1
  H  H0  1  0.06767300  0.66421700  0.76267700  1
  H  H1  1  0.93232700  0.33578300  0.23732300  1
  H  H2  1  0.67826400  0.21092600  0.54513600  1
  H  H3  1  0.32173600  0.78907400  0.45486400  1
  C  C0  1  0.56947900  0.27293600  0.34696500  1
  C  C1  1  0.43052100  0.72706400  0.65303500  1
  C  C2  1  0.11314100  0.25073800  0.11396300  1
  C  C3  1  0.88685900  0.74926200  0.88603700  1
  C  C4  1  0.17330400  0.40869600  0.10793900  1
  C  C5  1  0.82669600  0.59130400  0.89206100  1
  C  C6  1  0.59723900  0.12505000  0.29963600  1
  C  C7  1  0.40276100  0.87495000  0.70036400  1
  C  C8  1  0.11466700  0.53372300  0.15502600  1
  C  C9  1  0.88533300  0.46627700  0.84497400  1
  C  C10  1  0.02215400  0.44897800  0.76585700  1
  C  C11  1  0.97784600  0.55102200  0.23414300  1
  C  C12  1  0.65875300  0.01631500  0.36503000  1
  C  C13  1  0.34124700  0.98368500  0.63497000  1
  C  C14  1  0.72406800  0.01135300  0.50517500  1
  C  C15  1  0.27593200  0.98864700  0.49482500  1
  N  N0  1  0.35142100  0.10119700  0.72697000  1
  N  N1  1  0.64857900  0.89880300  0.27303000  1
  N  N2  1  0.30478000  0.45430500  0.04432400  1
  N  N3  1  0.69522000  0.54569500  0.95567600  1
  N  N4  1  0.21201700  0.65180500  0.11717900  1
  N  N5  1  0.78798300  0.34819500  0.88282100  1
  N  N6  1  0.32526300  0.60085100  0.05207600  1
  N  N7  1  0.67473700  0.39914900  0.94792400  1
  N  N8  1  0.41476100  0.06618900  0.84237100  1
  N  N9  1  0.58523900  0.93381100  0.15762900  1
  N  N10  1  0.55372200  0.07008700  0.17041600  1
  N  N11  1  0.44627800  0.92991300  0.82958400  1
  O  O0  1  0.98824900  0.21138500  0.17449900  1
  O  O1  1  0.01175100  0.78861500  0.82550100  1
  O  O2  1  0.22587300  0.09703600  0.45665700  1
  O  O3  1  0.77412700  0.90296400  0.54334300  1
  O  O4  1  0.10322800  0.56733200  0.72202200  1
  O  O5  1  0.89677200  0.43266800  0.27797800  1
  O  O6  1  0.60534100  0.31857300  0.47179300  1
  O  O7  1  0.39465900  0.68142700  0.52820700  1
  O  O8  1  0.18776900  0.15920500  0.05532900  1
  O  O9  1  0.81223100  0.84079500  0.94467100  1
  O  O10  1  0.05999400  0.32796900  0.73879600  1
  O  O11  1  0.94000600  0.67203100  0.26120400  1
  O  O12  1  0.72665400  0.12861300  0.59086100  1
  O  O13  1  0.27334600  0.87138700  0.40913900  1
  O  O14  1  0.50997600  0.34713000  0.26220500  1
  O  O15  1  0.49002400  0.65287000  0.73779500  1
loop_
_geom_bond_atom_site_label_1
_geom_bond_atom_site_label_2
_geom_bond_distance
_geom_bond_site_symmetry_2
K0 O11 2.614348 1_455
K0 O8 2.759888 1_565
K0 O13 2.831764 1_555
K0 O0 2.850600 1_465
K0 O2 3.057250 1_565
K0 O9 3.062277 1_454
K0 N4 3.106174 1_555
K1 O10 2.614348 1_655
K1 O9 2.759888 1_545
K1 O12 2.831764 1_555
K1 O1 2.850600 1_645
K1 O3 3.057250 1_545
K1 O8 3.062277 1_656
K1 N5 3.106174 1_555
K2 O10 2.756532 1_555
K2 O2 2.785667 1_555
K2 O6 2.848076 1_555
K2 O15 2.890971 1_555
K2 N0 2.972798 1_555
K2 O7 2.999948 1_555
K2 O4 3.108355 1_555
K3 O11 2.756532 1_555
K3 O3 2.785667 1_555
K3 O7 2.848076 1_555
K3 O14 2.890971 1_555
K3 N1 2.972798 1_555
K3 O6 2.999948 1_555
K3 O5 3.108355 1_555
Cd0 N7 2.335511 1_554
Cd0 O8 2.356388 1_555
Cd0 N8 2.377512 1_554
Cd0 O14 2.406839 1_555
Cd0 N10 2.430306 1_555
Cd0 N2 2.546139 1_555
Cd1 N6 2.335511 1_556
Cd1 O9 2.356388 1_555
Cd1 N9 2.377512 1_556
Cd1 O15 2.406839 1_555
Cd1 N11 2.430306 1_555
Cd1 N3 2.546139 1_555
H0 O4 1.061216 1_555
H0 O1 1.443904 1_555
H1 O5 1.061216 1_555
H1 O0 1.443904 1_555
H2 O12 1.052774 1_555
H2 O6 1.483581 1_555
H3 O13 1.052774 1_555
H3 O7 1.483581 1_555
C0 O14 1.269668 1_555
C0 O6 1.283870 1_555
C0 C6 1.484406 1_555
C1 O15 1.269668 1_555
C1 O7 1.283870 1_555
C1 C7 1.484406 1_555
C2 O0 1.274628 1_455
C2 O8 1.279677 1_555
C3 O1 1.274628 1_655
C3 O9 1.279677 1_555
C4 N2 1.348959 1_555
C4 C8 1.405593 1_555
C5 N3 1.348959 1_555
C5 C9 1.405593 1_555
C6 N10 1.350533 1_555
C7 N11 1.350533 1_555
C8 N4 1.356562 1_555
C9 N5 1.356562 1_555
C10 O10 1.240354 1_555
C10 O4 1.324625 1_555
C10 C9 1.479295 1_455
C11 O11 1.240354 1_555
C11 O5 1.324625 1_555
C11 C8 1.479295 1_655
C12 N1 1.357108 1_545
C12 C6 1.405801 1_555
C12 C14 1.477422 1_555
C13 N0 1.357108 1_565
C13 C7 1.405801 1_555
C13 C15 1.477422 1_555
C14 O3 1.240823 1_545
C14 O12 1.328242 1_555
C15 O2 1.240823 1_565
C15 O13 1.328242 1_555
N0 N8 1.327810 1_555
N1 N9 1.327810 1_555
N2 N6 1.342335 1_555
N3 N7 1.342335 1_555
N4 N6 1.332879 1_555
N5 N7 1.332879 1_555
N10 N9 1.341847 1_545
N11 N8 1.341847 1_565
