# generated using pymatgen
data_Nb8Si2Sb4Pd
_symmetry_space_group_name_H-M   'P 1'
_cell_length_a   5.01122100
_cell_length_b   7.86076681
_cell_length_c   7.86076681
_cell_angle_alpha   95.83135903
_cell_angle_beta   108.58727458
_cell_angle_gamma   71.41272542
_symmetry_Int_Tables_number   1
_chemical_formula_structural   Nb8Si2Sb4Pd
_chemical_formula_sum   'Nb8 Si2 Sb4 Pd1'
_cell_volume   278.19078459
_cell_formula_units_Z   1
loop_
 _symmetry_equiv_pos_site_id
 _symmetry_equiv_pos_as_xyz
  1  'x, y, z'
loop_
 _atom_site_type_symbol
 _atom_site_label
 _atom_site_symmetry_multiplicity
 _atom_site_fract_x
 _atom_site_fract_y
 _atom_site_fract_z
 _atom_site_occupancy
  Nb  Nb0  1  0.41364000  0.87452400  0.71268000  1
  Nb  Nb1  1  0.57548400  0.12547600  0.28732000  1
  Nb  Nb2  1  0.92451600  0.28732000  0.12547600  1
  Nb  Nb3  1  0.08636000  0.71268000  0.87452400  1
  Nb  Nb4  1  0.71183600  0.71268000  0.12547600  1
  Nb  Nb5  1  0.29904000  0.28732000  0.87452400  1
  Nb  Nb6  1  0.78816400  0.12547600  0.71268000  1
  Nb  Nb7  1  0.20096000  0.87452400  0.28732000  1
  Si  Si0  1  0.25000000  0.00000000  0.00000000  1
  Si  Si1  1  0.75000000  0.00000000  0.00000000  1
  Sb  Sb0  1  0.37385200  0.50000000  0.19611900  1
  Sb  Sb1  1  0.67773300  0.50000000  0.80388100  1
  Sb  Sb2  1  0.82226700  0.80388100  0.50000000  1
  Sb  Sb3  1  0.12614800  0.19611900  0.50000000  1
  Pd  Pd0  1  0.25000000  0.50000000  0.50000000  1
loop_
_geom_bond_atom_site_label_1
_geom_bond_atom_site_label_2
_geom_bond_distance
_geom_bond_site_symmetry_2
Nb0 Si0 2.637954 1_566
Nb0 Si1 2.663712 1_566
Nb0 Sb3 2.874515 1_565
Nb0 Sb1 2.876287 1_555
Nb0 Sb2 2.926672 1_555
Nb0 Sb2 3.096402 1_455
Nb1 Si0 2.637954 1_555
Nb1 Si1 2.663712 1_555
Nb1 Sb2 2.874515 1_545
Nb1 Sb0 2.876287 1_555
Nb1 Sb3 2.926672 1_655
Nb1 Sb3 3.096402 1_555
Nb2 Si0 2.637954 1_655
Nb2 Si1 2.663712 1_555
Nb2 Sb1 2.874515 1_554
Nb2 Sb3 2.876287 1_655
Nb2 Sb0 2.926672 1_555
Nb2 Sb0 3.096402 1_655
Nb3 Si0 2.637954 1_566
Nb3 Si1 2.663712 1_466
Nb3 Sb0 2.874515 1_556
Nb3 Sb2 2.876287 1_455
Nb3 Sb1 2.926672 1_455
Nb3 Sb1 3.096402 1_555
Nb4 Si1 2.637954 1_565
Nb4 Si0 2.663712 1_565
Nb4 Sb1 2.874515 1_554
Nb4 Sb2 2.876287 1_555
Nb4 Sb0 2.926672 1_555
Nb4 Sb0 3.096402 1_655
Nb5 Si1 2.637954 1_556
Nb5 Si0 2.663712 1_556
Nb5 Sb0 2.874515 1_556
Nb5 Sb3 2.876287 1_555
Nb5 Sb1 2.926672 1_455
Nb5 Sb1 3.096402 1_555
Nb6 Si1 2.637954 1_556
Nb6 Si0 2.663712 1_656
Nb6 Sb2 2.874515 1_545
Nb6 Sb1 2.876287 1_555
Nb6 Sb3 2.926672 1_655
Nb6 Sb3 3.096402 1_555
Nb7 Si1 2.637954 1_465
Nb7 Si0 2.663712 1_565
Nb7 Sb3 2.874515 1_565
Nb7 Sb0 2.876287 1_555
Nb7 Sb2 2.926672 1_555
Nb7 Sb2 3.096402 1_455
Si0 Si1 2.505610 1_555
Si0 Si1 2.505610 1_455
Pd0 Sb0 2.652623 1_555
Pd0 Sb3 2.652623 1_555
Pd0 Sb1 2.652623 1_555
Pd0 Sb2 2.652623 1_455
