# generated using pymatgen
data_Ho2CoGe2
_symmetry_space_group_name_H-M   'P 1'
_cell_length_a   5.56953849
_cell_length_b   5.56953849
_cell_length_c   10.09790688
_cell_angle_alpha   64.73134309
_cell_angle_beta   64.73134309
_cell_angle_gamma   43.76384958
_symmetry_Int_Tables_number   1
_chemical_formula_structural   Ho2CoGe2
_chemical_formula_sum   'Ho4 Co2 Ge4'
_cell_volume   192.37644421
_cell_formula_units_Z   2
loop_
 _symmetry_equiv_pos_site_id
 _symmetry_equiv_pos_as_xyz
  1  'x, y, z'
loop_
 _atom_site_type_symbol
 _atom_site_label
 _atom_site_symmetry_multiplicity
 _atom_site_fract_x
 _atom_site_fract_y
 _atom_site_fract_z
 _atom_site_occupancy
  Ho  Ho0  1  0.81042456  0.81042456  0.11667968  1
  Ho  Ho1  1  0.18957544  0.18957544  0.88332032  1
  Ho  Ho2  1  0.99236108  0.99236108  0.33414925  1
  Ho  Ho3  1  0.00763892  0.00763892  0.66585075  1
  Co  Co0  1  0.72638407  0.72638407  0.65803035  1
  Co  Co1  1  0.27361593  0.27361593  0.34196965  1
  Ge  Ge0  1  0.51375062  0.51375062  0.12167224  1
  Ge  Ge1  1  0.48624938  0.48624938  0.87832776  1
  Ge  Ge2  1  0.65901531  0.65901531  0.43924202  1
  Ge  Ge3  1  0.34098469  0.34098469  0.56075798  1
loop_
_geom_bond_atom_site_label_1
_geom_bond_atom_site_label_2
_geom_bond_distance
_geom_bond_site_symmetry_2
Co0 Ge3 2.367752 1_565
Co0 Ge3 2.367752 1_655
Co0 Ge1 2.455551 1_555
Co0 Ge2 2.604103 1_555
Co0 Ho3 2.944366 1_665
Co0 Ho1 2.971962 1_565
Co0 Ho1 2.971962 1_655
Co0 Ho3 3.043533 1_655
Co0 Ho3 3.043533 1_565
Co0 Ho2 3.159513 1_555
Co1 Ge2 2.367752 1_455
Co1 Ge2 2.367752 1_545
Co1 Ge0 2.455551 1_555
Co1 Ge3 2.604103 1_555
Co1 Ho2 2.944366 1_445
Co1 Ho0 2.971962 1_545
Co1 Ho0 2.971962 1_455
Co1 Ho2 3.043533 1_455
Co1 Ho2 3.043533 1_545
Co1 Ho3 3.159513 1_555
Ge0 Ge1 2.600314 1_554
Ge0 Ho2 2.919697 1_545
Ge0 Ho2 2.919697 1_455
Ge0 Ho0 2.970828 1_545
Ge0 Ho0 2.970828 1_455
Ge0 Ho0 3.043723 1_555
Ge0 Ho1 3.062727 1_564
Ge0 Ho1 3.062727 1_654
Ge1 Ho3 2.919697 1_655
Ge1 Ho3 2.919697 1_565
Ge1 Ho1 2.970828 1_655
Ge1 Ho1 2.970828 1_565
Ge1 Ho1 3.043723 1_555
Ge1 Ho0 3.062727 1_456
Ge1 Ho0 3.062727 1_546
Ge2 Ho0 2.892895 1_555
Ge2 Ge3 2.932776 1_555
Ge2 Ho3 2.949428 1_655
Ge2 Ho3 2.949428 1_565
Ge2 Ho2 3.103960 1_555
Ge2 Ho2 3.175560 1_545
Ge2 Ho2 3.175560 1_455
Ge3 Ho1 2.892895 1_555
Ge3 Ho2 2.949428 1_455
Ge3 Ho2 2.949428 1_545
Ge3 Ho3 3.103960 1_555
Ge3 Ho3 3.175560 1_655
Ge3 Ho3 3.175560 1_565
