# generated using pymatgen
data_Li2Cu3F11
_symmetry_space_group_name_H-M   'P 1'
_cell_length_a   18.25960350
_cell_length_b   7.33644400
_cell_length_c   6.25774858
_cell_angle_alpha   90.00000000
_cell_angle_beta   93.55051562
_cell_angle_gamma   90.00000000
_symmetry_Int_Tables_number   1
_chemical_formula_structural   Li2Cu3F11
_chemical_formula_sum   'Li8 Cu12 F44'
_cell_volume   836.68246653
_cell_formula_units_Z   4
loop_
 _symmetry_equiv_pos_site_id
 _symmetry_equiv_pos_as_xyz
  1  'x, y, z'
loop_
 _atom_site_type_symbol
 _atom_site_label
 _atom_site_symmetry_multiplicity
 _atom_site_fract_x
 _atom_site_fract_y
 _atom_site_fract_z
 _atom_site_occupancy
  Li  Li0  1  0.07244600  0.75000000  0.14372200  1
  Li  Li1  1  0.12572600  0.25000000  0.24152500  1
  Li  Li2  1  0.37322400  0.75000000  0.75916700  1
  Li  Li3  1  0.42691600  0.25000000  0.86102200  1
  Li  Li4  1  0.57308400  0.75000000  0.13897800  1
  Li  Li5  1  0.62677600  0.25000000  0.24083300  1
  Li  Li6  1  0.87427400  0.75000000  0.75847500  1
  Li  Li7  1  0.92755400  0.25000000  0.85627800  1
  Cu  Cu0  1  0.06104100  0.50106300  0.67862200  1
  Cu  Cu1  1  0.06104100  0.99893700  0.67862200  1
  Cu  Cu2  1  0.24923800  0.50025800  0.51300800  1
  Cu  Cu3  1  0.24923800  0.99974200  0.51300800  1
  Cu  Cu4  1  0.43653200  0.49777700  0.33353400  1
  Cu  Cu5  1  0.43653200  0.00222300  0.33353400  1
  Cu  Cu6  1  0.56346800  0.99777700  0.66646600  1
  Cu  Cu7  1  0.56346800  0.50222300  0.66646600  1
  Cu  Cu8  1  0.75076200  0.00025800  0.48699200  1
  Cu  Cu9  1  0.75076200  0.49974200  0.48699200  1
  Cu  Cu10  1  0.93895900  0.00106300  0.32137800  1
  Cu  Cu11  1  0.93895900  0.49893700  0.32137800  1
  F  F0  1  0.03219600  0.25000000  0.74720000  1
  F  F1  1  0.07450300  0.95824600  0.97126700  1
  F  F2  1  0.07450300  0.54175400  0.97126700  1
  F  F3  1  0.07821700  0.75000000  0.59916800  1
  F  F4  1  0.04723600  0.05056900  0.36784600  1
  F  F5  1  0.04723600  0.44943100  0.36784600  1
  F  F6  1  0.16230900  0.05092800  0.66267100  1
  F  F7  1  0.16230900  0.44907200  0.66267100  1
  F  F8  1  0.22085600  0.75000000  0.46917800  1
  F  F9  1  0.19853900  0.05610600  0.26340400  1
  F  F10  1  0.19853900  0.44389400  0.26340400  1
  F  F11  1  0.27679600  0.25000000  0.55783600  1
  F  F12  1  0.30042600  0.55684400  0.76117100  1
  F  F13  1  0.30042600  0.94315600  0.76117100  1
  F  F14  1  0.33666800  0.55620600  0.36580900  1
  F  F15  1  0.33666800  0.94379400  0.36580900  1
  F  F16  1  0.45595800  0.55616500  0.64072300  1
  F  F17  1  0.45595800  0.94383500  0.64072300  1
  F  F18  1  0.41695800  0.25000000  0.42597300  1
  F  F19  1  0.42126200  0.04705500  0.04333900  1
  F  F20  1  0.42126200  0.45294500  0.04333900  1
  F  F21  1  0.46602300  0.75000000  0.25600100  1
  F  F22  1  0.53397700  0.25000000  0.74399900  1
  F  F23  1  0.57873800  0.54705500  0.95666100  1
  F  F24  1  0.57873800  0.95294500  0.95666100  1
  F  F25  1  0.58304200  0.75000000  0.57402700  1
  F  F26  1  0.54404200  0.05616500  0.35927700  1
  F  F27  1  0.54404200  0.44383500  0.35927700  1
  F  F28  1  0.66333100  0.05620600  0.63419100  1
  F  F29  1  0.66333100  0.44379400  0.63419100  1
  F  F30  1  0.69957400  0.05684400  0.23882900  1
  F  F31  1  0.69957400  0.44315600  0.23882900  1
  F  F32  1  0.72320400  0.75000000  0.44216400  1
  F  F33  1  0.80146100  0.55610600  0.73659600  1
  F  F34  1  0.80146100  0.94389400  0.73659600  1
  F  F35  1  0.77914400  0.25000000  0.53082200  1
  F  F36  1  0.83769100  0.55092800  0.33732900  1
  F  F37  1  0.83769100  0.94907200  0.33732900  1
  F  F38  1  0.95276400  0.55056900  0.63215400  1
  F  F39  1  0.95276400  0.94943100  0.63215400  1
  F  F40  1  0.92178300  0.25000000  0.40083200  1
  F  F41  1  0.92549700  0.04175400  0.02873300  1
  F  F42  1  0.92549700  0.45824600  0.02873300  1
  F  F43  1  0.96780400  0.75000000  0.25280000  1
loop_
_geom_bond_atom_site_label_1
_geom_bond_atom_site_label_2
_geom_bond_distance
_geom_bond_site_symmetry_2
Cu0 F2 1.856729 1_555
Cu0 F7 1.896716 1_555
Cu0 F3 1.923617 1_555
Cu0 F0 1.970330 1_555
Cu0 F5 1.982018 1_555
Cu0 F38 2.013496 1_455
Cu1 F1 1.856729 1_555
Cu1 F6 1.896716 1_565
Cu1 F3 1.923617 1_555
Cu1 F0 1.970330 1_565
Cu1 F4 1.982018 1_565
Cu1 F39 2.013496 1_455
Cu2 F12 1.810471 1_555
Cu2 F10 1.813454 1_555
Cu2 F8 1.919172 1_555
Cu2 F11 1.919721 1_555
Cu2 F7 1.929186 1_555
Cu2 F14 1.935901 1_555
Cu3 F13 1.810471 1_555
Cu3 F9 1.813454 1_565
Cu3 F8 1.919172 1_555
Cu3 F11 1.919721 1_565
Cu3 F6 1.929186 1_565
Cu3 F15 1.935901 1_555
Cu4 F20 1.849580 1_555
Cu4 F14 1.896108 1_555
Cu4 F18 1.947401 1_555
Cu4 F16 1.979934 1_555
Cu4 F21 1.995443 1_555
Cu4 F27 1.999279 1_555
Cu5 F19 1.849580 1_555
Cu5 F15 1.896108 1_545
Cu5 F18 1.947401 1_555
Cu5 F17 1.979934 1_545
Cu5 F21 1.995443 1_545
Cu5 F26 1.999279 1_555
Cu6 F24 1.849580 1_555
Cu6 F28 1.896090 1_565
Cu6 F25 1.947401 1_555
Cu6 F26 1.979934 1_565
Cu6 F22 1.995443 1_565
Cu6 F17 1.999279 1_555
Cu7 F23 1.849580 1_555
Cu7 F29 1.896090 1_555
Cu7 F25 1.947401 1_555
Cu7 F27 1.979934 1_555
Cu7 F22 1.995443 1_555
Cu7 F16 1.999279 1_555
Cu8 F30 1.810471 1_555
Cu8 F34 1.813454 1_545
Cu8 F35 1.919172 1_555
Cu8 F32 1.919721 1_545
Cu8 F37 1.929186 1_545
Cu8 F28 1.935917 1_555
Cu9 F31 1.810471 1_555
Cu9 F33 1.813454 1_555
Cu9 F35 1.919172 1_555
Cu9 F32 1.919721 1_555
Cu9 F36 1.929186 1_555
Cu9 F29 1.935917 1_555
Cu10 F41 1.856729 1_555
Cu10 F37 1.896716 1_545
Cu10 F40 1.923617 1_555
Cu10 F43 1.970330 1_545
Cu10 F39 1.982018 1_545
Cu10 F4 2.013496 1_655
Cu11 F42 1.856729 1_555
Cu11 F36 1.896716 1_555
Cu11 F40 1.923617 1_555
Cu11 F43 1.970330 1_555
Cu11 F38 1.982018 1_555
Cu11 F5 2.013496 1_655
F0 Li7 2.068408 1_455
F1 Li0 1.872215 1_556
F2 Li0 1.872215 1_556
F4 Li1 2.227093 1_555
F5 Li1 2.227093 1_555
F9 Li1 1.946112 1_555
F10 Li1 1.946112 1_555
F12 Li2 1.943520 1_555
F13 Li2 1.943520 1_555
F16 Li2 2.234388 1_555
F17 Li2 2.234388 1_555
F19 Li3 1.882470 1_554
F20 Li3 1.882470 1_554
F21 Li4 2.129595 1_555
F22 Li3 2.129595 1_555
F23 Li4 1.882470 1_556
F24 Li4 1.882470 1_556
F26 Li5 2.234388 1_555
F27 Li5 2.234388 1_555
F30 Li5 1.943520 1_555
F31 Li5 1.943520 1_555
F33 Li6 1.946112 1_555
F34 Li6 1.946112 1_555
F38 Li6 2.227093 1_555
F39 Li6 2.227093 1_555
F41 Li7 1.872215 1_554
F42 Li7 1.872215 1_554
F43 Li0 2.068408 1_655
