# generated using pymatgen
data_K2LiTaBr6
_symmetry_space_group_name_H-M   'P 1'
_cell_length_a   7.57301039
_cell_length_b   7.57301039
_cell_length_c   7.57301039
_cell_angle_alpha   60.00000000
_cell_angle_beta   60.00000000
_cell_angle_gamma   60.00000000
_symmetry_Int_Tables_number   1
_chemical_formula_structural   K2LiTaBr6
_chemical_formula_sum   'K2 Li1 Ta1 Br6'
_cell_volume   307.10766782
_cell_formula_units_Z   1
loop_
 _symmetry_equiv_pos_site_id
 _symmetry_equiv_pos_as_xyz
  1  'x, y, z'
loop_
 _atom_site_type_symbol
 _atom_site_label
 _atom_site_symmetry_multiplicity
 _atom_site_fract_x
 _atom_site_fract_y
 _atom_site_fract_z
 _atom_site_occupancy
  K  K0  1  0.75000000  0.75000000  0.75000000  1
  K  K1  1  0.25000000  0.25000000  0.25000000  1
  Li  Li0  1  0.00000000  0.00000000  0.00000000  1
  Ta  Ta0  1  0.50000000  0.50000000  0.50000000  1
  Br  Br0  1  0.74564300  0.74564300  0.25435700  1
  Br  Br1  1  0.74564300  0.25435700  0.25435700  1
  Br  Br2  1  0.25435700  0.25435700  0.74564300  1
  Br  Br3  1  0.74564300  0.25435700  0.74564300  1
  Br  Br4  1  0.25435700  0.74564300  0.25435700  1
  Br  Br5  1  0.25435700  0.74564300  0.74564300  1
loop_
_geom_bond_atom_site_label_1
_geom_bond_atom_site_label_2
_geom_bond_distance
_geom_bond_site_symmetry_2
Br0 Ta0 2.630801 1_555
Br0 Li0 2.724126 1_665
Br0 K0 3.786793 1_554
Br0 K1 3.786793 1_565
Br0 K1 3.786793 1_655
Br0 K0 3.786793 1_555
Br1 Ta0 2.630801 1_555
Br1 Li0 2.724126 1_655
Br1 K1 3.786793 1_555
Br1 K0 3.786793 1_554
Br1 K0 3.786793 1_545
Br1 K1 3.786793 1_655
Br2 Ta0 2.630801 1_555
Br2 Li0 2.724126 1_556
Br2 K0 3.786793 1_455
Br2 K1 3.786793 1_555
Br2 K0 3.786793 1_545
Br2 K1 3.786793 1_556
Br3 Ta0 2.630801 1_555
Br3 Li0 2.724126 1_656
Br3 K0 3.786793 1_545
Br3 K1 3.786793 1_556
Br3 K1 3.786793 1_655
Br3 K0 3.786793 1_555
Br4 Ta0 2.630801 1_555
Br4 Li0 2.724126 1_565
Br4 K1 3.786793 1_555
Br4 K0 3.786793 1_554
Br4 K0 3.786793 1_455
Br4 K1 3.786793 1_565
Br5 Ta0 2.630801 1_555
Br5 Li0 2.724126 1_566
Br5 K0 3.786793 1_455
Br5 K1 3.786793 1_556
Br5 K1 3.786793 1_565
Br5 K0 3.786793 1_555
