# generated using pymatgen
data_TbYb3
_symmetry_space_group_name_H-M   'P 1'
_cell_length_a   7.51346340
_cell_length_b   7.51346340
_cell_length_c   6.07062500
_cell_angle_alpha   90.00000000
_cell_angle_beta   90.00000000
_cell_angle_gamma   119.99999470
_symmetry_Int_Tables_number   1
_chemical_formula_structural   TbYb3
_chemical_formula_sum   'Tb2 Yb6'
_cell_volume   296.78668381
_cell_formula_units_Z   2
loop_
 _symmetry_equiv_pos_site_id
 _symmetry_equiv_pos_as_xyz
  1  'x, y, z'
loop_
 _atom_site_type_symbol
 _atom_site_label
 _atom_site_symmetry_multiplicity
 _atom_site_fract_x
 _atom_site_fract_y
 _atom_site_fract_z
 _atom_site_occupancy
  Tb  Tb0  1  0.33333300  0.66666700  0.75000000  1
  Tb  Tb1  1  0.66666700  0.33333300  0.25000000  1
  Yb  Yb0  1  0.17035600  0.34071300  0.25000000  1
  Yb  Yb1  1  0.65928700  0.82964400  0.25000000  1
  Yb  Yb2  1  0.17035600  0.82964400  0.25000000  1
  Yb  Yb3  1  0.82964400  0.65928700  0.75000000  1
  Yb  Yb4  1  0.34071300  0.17035600  0.75000000  1
  Yb  Yb5  1  0.82964400  0.17035600  0.75000000  1
loop_
_geom_bond_atom_site_label_1
_geom_bond_atom_site_label_2
_geom_bond_distance
_geom_bond_site_symmetry_2
Tb0 Yb2 3.702902 1_555
Tb0 Yb2 3.702902 1_556
Tb0 Yb0 3.702902 1_556
Tb0 Yb0 3.702902 1_555
Tb0 Yb1 3.702902 1_555
Tb0 Yb1 3.702902 1_556
Tb0 Yb3 3.757031 1_455
Tb0 Yb4 3.757031 1_565
Tb0 Yb5 3.757039 1_455
Tb0 Yb5 3.757039 1_565
Tb0 Yb4 3.757046 1_555
Tb0 Yb3 3.757046 1_555
Tb1 Yb5 3.702902 1_555
Tb1 Yb5 3.702902 1_554
Tb1 Yb3 3.702902 1_555
Tb1 Yb4 3.702902 1_555
Tb1 Yb4 3.702902 1_554
Tb1 Yb3 3.702902 1_554
Tb1 Yb1 3.757031 1_545
Tb1 Yb0 3.757031 1_655
Tb1 Yb2 3.757039 1_655
Tb1 Yb2 3.757039 1_545
Tb1 Yb0 3.757046 1_555
Tb1 Yb1 3.757046 1_555
Yb0 Yb2 3.673565 1_555
Yb0 Yb1 3.673565 1_555
Yb0 Yb5 3.758729 1_455
Yb0 Yb5 3.758729 1_454
Yb0 Yb4 3.758736 1_555
Yb0 Yb4 3.758736 1_554
Yb0 Yb2 3.839898 1_545
Yb0 Yb1 3.839899 1_445
Yb1 Yb2 3.673565 1_555
Yb1 Yb5 3.758729 1_565
Yb1 Yb5 3.758729 1_564
Yb1 Yb3 3.758736 1_555
Yb1 Yb3 3.758736 1_554
Yb1 Yb2 3.839898 1_655
Yb2 Yb4 3.758729 1_564
Yb2 Yb4 3.758729 1_565
Yb2 Yb3 3.758729 1_454
Yb2 Yb3 3.758729 1_455
Yb3 Yb5 3.673565 1_555
Yb3 Yb4 3.673565 1_555
Yb3 Yb5 3.839898 1_565
Yb3 Yb4 3.839899 1_665
Yb4 Yb5 3.673565 1_555
Yb4 Yb5 3.839898 1_455
