# generated using pymatgen
data_NaAgO3
_symmetry_space_group_name_H-M   'P 1'
_cell_length_a   4.11241800
_cell_length_b   4.11241800
_cell_length_c   4.11241800
_cell_angle_alpha   90.00000000
_cell_angle_beta   90.00000000
_cell_angle_gamma   90.00000000
_symmetry_Int_Tables_number   1
_chemical_formula_structural   NaAgO3
_chemical_formula_sum   'Na1 Ag1 O3'
_cell_volume   69.54913840
_cell_formula_units_Z   1
loop_
 _symmetry_equiv_pos_site_id
 _symmetry_equiv_pos_as_xyz
  1  'x, y, z'
loop_
 _atom_site_type_symbol
 _atom_site_label
 _atom_site_symmetry_multiplicity
 _atom_site_fract_x
 _atom_site_fract_y
 _atom_site_fract_z
 _atom_site_occupancy
  Na  Na0  1  0.00000000  0.00000000  0.00000000  1
  Ag  Ag0  1  0.50000000  0.50000000  0.50000000  1
  O  O0  1  0.50000000  0.50000000  0.00000000  1
  O  O1  1  0.50000000  0.00000000  0.50000000  1
  O  O2  1  0.00000000  0.50000000  0.50000000  1
loop_
_geom_bond_atom_site_label_1
_geom_bond_atom_site_label_2
_geom_bond_distance
_geom_bond_site_symmetry_2
Na0 O0 2.907919 1_445
Na0 O2 2.907919 1_555
Na0 O2 2.907919 1_554
Na0 O0 2.907919 1_455
Na0 O2 2.907919 1_544
Na0 O2 2.907919 1_545
Na0 O1 2.907919 1_455
Na0 O1 2.907919 1_454
Na0 O1 2.907919 1_555
Na0 O1 2.907919 1_554
Na0 O0 2.907919 1_545
Na0 O0 2.907919 1_555
Ag0 O2 2.056209 1_555
Ag0 O1 2.056209 1_565
Ag0 O0 2.056209 1_556
Ag0 O2 2.056209 1_655
Ag0 O1 2.056209 1_555
Ag0 O0 2.056209 1_555
