# generated using pymatgen
data_Mg(BH4)2
_symmetry_space_group_name_H-M   'P 1'
_cell_length_a   4.27702362
_cell_length_b   4.27702362
_cell_length_c   5.36588300
_cell_angle_alpha   90.00000000
_cell_angle_beta   90.00000000
_cell_angle_gamma   119.99999415
_symmetry_Int_Tables_number   1
_chemical_formula_structural   Mg(BH4)2
_chemical_formula_sum   'Mg1 B2 H8'
_cell_volume   85.00709087
_cell_formula_units_Z   1
loop_
 _symmetry_equiv_pos_site_id
 _symmetry_equiv_pos_as_xyz
  1  'x, y, z'
loop_
 _atom_site_type_symbol
 _atom_site_label
 _atom_site_symmetry_multiplicity
 _atom_site_fract_x
 _atom_site_fract_y
 _atom_site_fract_z
 _atom_site_occupancy
  Mg  Mg0  1  0.00000000  0.00000000  0.00000000  1
  B  B0  1  0.66666700  0.33333300  0.79563300  1
  B  B1  1  0.33333300  0.66666700  0.20436700  1
  H  H0  1  0.36125400  0.18062700  0.70876500  1
  H  H1  1  0.81937300  0.63874600  0.70876500  1
  H  H2  1  0.81937300  0.18062700  0.70876500  1
  H  H3  1  0.63874600  0.81937300  0.29123500  1
  H  H4  1  0.18062700  0.36125400  0.29123500  1
  H  H5  1  0.18062700  0.81937300  0.29123500  1
  H  H6  1  0.66666700  0.33333300  0.02296500  1
  H  H7  1  0.33333300  0.66666700  0.97703500  1
loop_
_geom_bond_atom_site_label_1
_geom_bond_atom_site_label_2
_geom_bond_distance
_geom_bond_site_symmetry_2
B0 H6 1.219837 1_556
B0 H2 1.223518 1_555
B0 H1 1.223522 1_555
B0 H0 1.223522 1_555
B1 H7 1.219837 1_554
B1 H5 1.223518 1_555
B1 H3 1.223522 1_555
B1 H4 1.223522 1_555
H0 Mg0 2.057332 1_556
H1 Mg0 2.057332 1_666
H2 Mg0 2.057332 1_656
H3 Mg0 2.057332 1_665
H4 Mg0 2.057332 1_555
H5 Mg0 2.057332 1_565
