# generated using pymatgen
data_Cu3P4H8N2(O3F)4
_symmetry_space_group_name_H-M   'P 1'
_cell_length_a   7.99334894
_cell_length_b   9.22726506
_cell_length_c   9.67635100
_cell_angle_alpha   90.00000000
_cell_angle_beta   90.00000000
_cell_angle_gamma   94.72946941
_symmetry_Int_Tables_number   1
_chemical_formula_structural   Cu3P4H8N2(O3F)4
_chemical_formula_sum   'Cu6 P8 H16 N4 O24 F8'
_cell_volume   711.26613956
_cell_formula_units_Z   2
loop_
 _symmetry_equiv_pos_site_id
 _symmetry_equiv_pos_as_xyz
  1  'x, y, z'
loop_
 _atom_site_type_symbol
 _atom_site_label
 _atom_site_symmetry_multiplicity
 _atom_site_fract_x
 _atom_site_fract_y
 _atom_site_fract_z
 _atom_site_occupancy
  Cu  Cu0  1  0.61351400  0.18162500  0.85456200  1
  Cu  Cu1  1  0.38648600  0.31837500  0.35456200  1
  Cu  Cu2  1  0.38648600  0.81837500  0.14543800  1
  Cu  Cu3  1  0.61351400  0.68162500  0.64543800  1
  Cu  Cu4  1  0.50000000  0.50000000  0.00000000  1
  Cu  Cu5  1  0.50000000  0.00000000  0.50000000  1
  P  P0  1  0.18728100  0.52047400  0.17706600  1
  P  P1  1  0.81271900  0.97952600  0.67706600  1
  P  P2  1  0.81271900  0.47952700  0.82293400  1
  P  P3  1  0.18728100  0.02047300  0.32293400  1
  P  P4  1  0.39477800  0.38746100  0.69130800  1
  P  P5  1  0.60522200  0.11253900  0.19130800  1
  P  P6  1  0.60522200  0.61253900  0.30869200  1
  P  P7  1  0.39477800  0.88746100  0.80869200  1
  H  H0  1  0.18210700  0.28126700  0.99725300  1
  H  H1  1  0.81789300  0.21873300  0.49725300  1
  H  H2  1  0.81789300  0.71873300  0.00274700  1
  H  H3  1  0.18210700  0.78126700  0.50274700  1
  H  H4  1  0.12588800  0.10759500  0.04106100  1
  H  H5  1  0.87411200  0.39240500  0.54106100  1
  H  H6  1  0.87411200  0.89240500  0.95893900  1
  H  H7  1  0.12588800  0.60759500  0.45893900  1
  H  H8  1  0.00872000  0.19563100  0.92261400  1
  H  H9  1  0.99128000  0.30436900  0.42261400  1
  H  H10  1  0.99128000  0.80436900  0.07738600  1
  H  H11  1  0.00872000  0.69563100  0.57738600  1
  H  H12  1  0.20469900  0.14480600  0.88564700  1
  H  H13  1  0.79530100  0.35519400  0.38564700  1
  H  H14  1  0.79530100  0.85519400  0.11435300  1
  H  H15  1  0.20469900  0.64480600  0.61435300  1
  N  N0  1  0.12672200  0.18157400  0.96094000  1
  N  N1  1  0.87327800  0.31842600  0.46094000  1
  N  N2  1  0.87327800  0.81842600  0.03906000  1
  N  N3  1  0.12672200  0.68157400  0.53906000  1
  O  O0  1  0.46985300  0.35512700  0.83612600  1
  O  O1  1  0.53014700  0.14487300  0.33612600  1
  O  O2  1  0.53014700  0.64487300  0.16387400  1
  O  O3  1  0.46985300  0.85512700  0.66387400  1
  O  O4  1  0.27865000  0.44076700  0.06414000  1
  O  O5  1  0.72135000  0.05923300  0.56414000  1
  O  O6  1  0.72135000  0.55923300  0.93586000  1
  O  O7  1  0.27865000  0.94076700  0.43586000  1
  O  O8  1  0.40987400  0.55078600  0.66185500  1
  O  O9  1  0.59012600  0.94921400  0.16185500  1
  O  O10  1  0.59012600  0.44921400  0.33814500  1
  O  O11  1  0.40987400  0.05078600  0.83814500  1
  O  O12  1  0.18291400  0.68408400  0.15698600  1
  O  O13  1  0.81708600  0.81591600  0.65698600  1
  O  O14  1  0.81708600  0.31591600  0.84301400  1
  O  O15  1  0.18291400  0.18408400  0.34301400  1
  O  O16  1  0.23244800  0.47831300  0.32512400  1
  O  O17  1  0.76755200  0.02168700  0.82512400  1
  O  O18  1  0.76755200  0.52168700  0.67487600  1
  O  O19  1  0.23244800  0.97831300  0.17487600  1
  O  O20  1  0.44357500  0.28470000  0.58121900  1
  O  O21  1  0.55642500  0.21530000  0.08121900  1
  O  O22  1  0.55642500  0.71530000  0.41878100  1
  O  O23  1  0.44357500  0.78470000  0.91878100  1
  F  F0  1  0.99895300  0.45636500  0.15576200  1
  F  F1  1  0.00104700  0.04363500  0.65576200  1
  F  F2  1  0.00104700  0.54363500  0.84423800  1
  F  F3  1  0.99895300  0.95636500  0.34423800  1
  F  F4  1  0.19638400  0.35583600  0.71257000  1
  F  F5  1  0.80361600  0.14416400  0.21257000  1
  F  F6  1  0.80361600  0.64416400  0.28743000  1
  F  F7  1  0.19638400  0.85583600  0.78743000  1
loop_
_geom_bond_atom_site_label_1
_geom_bond_atom_site_label_2
_geom_bond_distance
_geom_bond_site_symmetry_2
Cu0 O11 1.951495 1_555
Cu0 O14 1.965528 1_555
Cu0 O17 2.018612 1_555
Cu0 O0 2.053458 1_555
Cu0 O21 2.266794 1_556
Cu1 O10 1.951495 1_555
Cu1 O15 1.965528 1_555
Cu1 O16 2.018612 1_555
Cu1 O1 2.053458 1_555
Cu1 O20 2.266794 1_555
Cu2 O9 1.951495 1_555
Cu2 O12 1.965528 1_555
Cu2 O19 2.018612 1_555
Cu2 O2 2.053458 1_555
Cu2 O23 2.266794 1_554
Cu3 O8 1.951495 1_555
Cu3 O13 1.965528 1_555
Cu3 O18 2.018612 1_555
Cu3 O3 2.053458 1_555
Cu3 O22 2.266794 1_555
Cu4 O6 1.911799 1_554
Cu4 O4 1.911799 1_555
Cu4 O2 2.075183 1_555
Cu4 O0 2.075183 1_554
Cu5 O5 1.911799 1_555
Cu5 O7 1.911799 1_545
Cu5 O1 2.075183 1_555
Cu5 O3 2.075183 1_545
H0 N0 1.048097 1_555
H0 O4 1.730080 1_556
H1 N1 1.048097 1_555
H1 O5 1.730080 1_555
H2 N2 1.048097 1_555
H2 O6 1.730080 1_554
H3 N3 1.048097 1_555
H3 O7 1.730080 1_555
H4 N0 1.032631 1_554
H5 N1 1.032631 1_555
H6 N2 1.032631 1_556
H7 N3 1.032631 1_555
H8 N0 1.031609 1_555
H9 N1 1.031609 1_555
H10 N2 1.031609 1_555
H11 N3 1.031609 1_555
H12 N0 1.034058 1_555
H13 N1 1.034058 1_555
H14 N2 1.034058 1_555
H15 N3 1.034058 1_555
O0 P4 1.562796 1_555
O1 P5 1.562796 1_555
O2 P6 1.562796 1_555
O3 P7 1.562796 1_555
O4 P0 1.535228 1_555
O5 P1 1.535228 1_545
O6 P2 1.535224 1_555
O7 P3 1.535224 1_565
O8 P4 1.528717 1_555
O9 P5 1.528717 1_565
O10 P6 1.528717 1_555
O11 P7 1.528717 1_545
O12 P0 1.525377 1_555
O13 P1 1.525377 1_555
O14 P2 1.525386 1_555
O15 P3 1.525386 1_555
O16 P0 1.535373 1_555
O17 P1 1.535373 1_545
O18 P2 1.535371 1_555
O19 P3 1.535371 1_565
O20 P4 1.498998 1_555
O21 P5 1.498998 1_555
O22 P6 1.498998 1_555
O23 P7 1.498998 1_555
F0 P0 1.584842 1_655
F1 P1 1.584842 1_445
F2 P2 1.584840 1_455
F3 P3 1.584840 1_665
F4 P4 1.601885 1_555
F5 P5 1.601885 1_555
F6 P6 1.601885 1_555
F7 P7 1.601885 1_555
