# generated using pymatgen
data_KCaHfBiO6
_symmetry_space_group_name_H-M   'P 1'
_cell_length_a   5.88775192
_cell_length_b   5.88775192
_cell_length_c   5.88775192
_cell_angle_alpha   60.00000000
_cell_angle_beta   60.00000000
_cell_angle_gamma   60.00000000
_symmetry_Int_Tables_number   1
_chemical_formula_structural   KCaHfBiO6
_chemical_formula_sum   'K1 Ca1 Hf1 Bi1 O6'
_cell_volume   144.32232308
_cell_formula_units_Z   1
loop_
 _symmetry_equiv_pos_site_id
 _symmetry_equiv_pos_as_xyz
  1  'x, y, z'
loop_
 _atom_site_type_symbol
 _atom_site_label
 _atom_site_symmetry_multiplicity
 _atom_site_fract_x
 _atom_site_fract_y
 _atom_site_fract_z
 _atom_site_occupancy
  K  K0  1  0.75000000  0.75000000  0.75000000  1
  Ca  Ca0  1  0.25000000  0.25000000  0.25000000  1
  Hf  Hf0  1  0.50000000  0.50000000  0.50000000  1
  Bi  Bi0  1  0.00000000  0.00000000  0.00000000  1
  O  O0  1  0.74738248  0.25261752  0.25261752  1
  O  O1  1  0.25261752  0.74738248  0.74738248  1
  O  O2  1  0.74738248  0.25261752  0.74738248  1
  O  O3  1  0.25261752  0.74738248  0.25261752  1
  O  O4  1  0.74738248  0.74738248  0.25261752  1
  O  O5  1  0.25261752  0.25261752  0.74738248  1
loop_
_geom_bond_atom_site_label_1
_geom_bond_atom_site_label_2
_geom_bond_distance
_geom_bond_site_symmetry_2
K0 O1 2.943957 1_655
K0 O1 2.943957 1_555
K0 O2 2.943957 1_555
K0 O2 2.943957 1_565
K0 O3 2.943957 1_556
K0 O0 2.943957 1_556
K0 O4 2.943957 1_556
K0 O3 2.943957 1_655
K0 O0 2.943957 1_565
K0 O5 2.943957 1_655
K0 O5 2.943957 1_565
K0 O4 2.943957 1_555
Ca0 O5 2.943957 1_555
Ca0 O2 2.943957 1_455
Ca0 O0 2.943957 1_455
Ca0 O3 2.943957 1_555
Ca0 O1 2.943957 1_545
Ca0 O0 2.943957 1_555
Ca0 O1 2.943957 1_554
Ca0 O4 2.943957 1_545
Ca0 O4 2.943957 1_455
Ca0 O3 2.943957 1_545
Ca0 O2 2.943957 1_554
Ca0 O5 2.943957 1_554
Hf0 O1 2.059840 1_555
Hf0 O2 2.059840 1_555
Hf0 O4 2.059840 1_555
Hf0 O0 2.059840 1_555
Hf0 O5 2.059840 1_555
Hf0 O3 2.059840 1_555
Bi0 O3 2.103430 1_545
Bi0 O5 2.103430 1_554
Bi0 O0 2.103430 1_455
Bi0 O4 2.103430 1_445
Bi0 O2 2.103430 1_454
Bi0 O1 2.103430 1_544
