# generated using pymatgen
data_NaGdTiNbO6F
_symmetry_space_group_name_H-M   'P 1'
_cell_length_a   7.32539373
_cell_length_b   7.32539373
_cell_length_c   7.32539373
_cell_angle_alpha   121.50078846
_cell_angle_beta   117.89046445
_cell_angle_gamma   90.55617752
_symmetry_Int_Tables_number   1
_chemical_formula_structural   NaGdTiNbO6F
_chemical_formula_sum   'Na2 Gd2 Ti2 Nb2 O12 F2'
_cell_volume   278.87928869
_cell_formula_units_Z   2
loop_
 _symmetry_equiv_pos_site_id
 _symmetry_equiv_pos_as_xyz
  1  'x, y, z'
loop_
 _atom_site_type_symbol
 _atom_site_label
 _atom_site_symmetry_multiplicity
 _atom_site_fract_x
 _atom_site_fract_y
 _atom_site_fract_z
 _atom_site_occupancy
  Na  Na0  1  0.50000000  0.00000000  0.00000000  1
  Na  Na1  1  0.50000000  0.50000000  0.50000000  1
  Gd  Gd0  1  0.50000000  0.00000000  0.50000000  1
  Gd  Gd1  1  0.00000000  0.00000000  0.00000000  1
  Ti  Ti0  1  0.00000000  0.50000000  0.00000000  1
  Ti  Ti1  1  0.00000000  0.00000000  0.50000000  1
  Nb  Nb0  1  0.00000000  0.50000000  0.50000000  1
  Nb  Nb1  1  0.50000000  0.50000000  0.00000000  1
  O  O0  1  0.92016000  0.17016000  0.75000000  1
  O  O1  1  0.31734200  0.56734200  0.75000000  1
  O  O2  1  0.93635500  0.58592200  0.76700300  1
  O  O3  1  0.31891900  0.16935200  0.73299700  1
  O  O4  1  0.93635500  0.16935200  0.35043300  1
  O  O5  1  0.31891900  0.58592200  0.14956700  1
  O  O6  1  0.07984000  0.82984000  0.25000000  1
  O  O7  1  0.68265800  0.43265800  0.25000000  1
  O  O8  1  0.06364500  0.41407800  0.23299700  1
  O  O9  1  0.68108100  0.83064800  0.26700300  1
  O  O10  1  0.06364500  0.83064800  0.64956700  1
  O  O11  1  0.68108100  0.41407800  0.85043300  1
  F  F0  1  0.62777500  0.87777500  0.75000000  1
  F  F1  1  0.37222500  0.12222500  0.25000000  1
loop_
_geom_bond_atom_site_label_1
_geom_bond_atom_site_label_2
_geom_bond_distance
_geom_bond_site_symmetry_2
Na0 O1 2.597845 1_544
Na0 O7 2.597845 1_555
Na0 O9 2.695265 1_545
Na0 O10 2.695265 1_544
Na0 O3 2.695265 1_554
Na0 O4 2.695265 1_555
Na1 O1 2.597845 1_555
Na1 O7 2.597845 1_555
Na1 O8 2.695265 1_555
Na1 O11 2.695265 1_555
Na1 O5 2.695265 1_555
Na1 O2 2.695265 1_555
Gd0 O3 2.479742 1_555
Gd0 O5 2.479742 1_545
Gd0 O9 2.479742 1_545
Gd0 O11 2.479742 1_555
Gd0 O6 2.578225 1_545
Gd0 O0 2.578225 1_555
Gd1 O2 2.479742 1_444
Gd1 O4 2.479742 1_455
Gd1 O8 2.479742 1_555
Gd1 O10 2.479742 1_544
Gd1 O6 2.578225 1_545
Gd1 O0 2.578225 1_454
Nb0 O4 2.002852 1_455
Nb0 O2 2.002852 1_455
Nb0 O8 2.002852 1_555
Nb0 O10 2.002852 1_555
Nb0 O1 2.012938 1_555
Nb0 O7 2.012938 1_455
Nb1 O5 2.002852 1_555
Nb1 O9 2.002852 1_555
Nb1 O3 2.002852 1_554
Nb1 O11 2.002852 1_554
Nb1 O1 2.012938 1_554
Nb1 O7 2.012938 1_555
O0 Ti0 1.969854 1_656
O0 Ti1 1.969854 1_655
O2 Ti0 1.977508 1_656
O3 Ti1 1.977508 1_555
O4 Ti1 1.977508 1_655
O5 Ti0 1.977508 1_555
O6 Ti1 1.969854 1_565
O6 Ti0 1.969854 1_555
O8 Ti0 1.977508 1_555
O9 Ti1 1.977508 1_665
O10 Ti1 1.977508 1_565
O11 Ti0 1.977508 1_656
F0 Na0 2.222169 1_566
F0 Na1 2.222169 1_555
F0 Gd1 2.271050 1_666
F0 Gd0 2.271050 1_565
F1 Na0 2.222169 1_555
F1 Na1 2.222169 1_555
F1 Gd1 2.271050 1_555
F1 Gd0 2.271050 1_555
