# generated using pymatgen
data_Ta2ZnO6
_symmetry_space_group_name_H-M   'P 1'
_cell_length_a   4.70869443
_cell_length_b   5.07072060
_cell_length_c   17.12862714
_cell_angle_alpha   90.00000000
_cell_angle_beta   90.00000000
_cell_angle_gamma   90.00000000
_symmetry_Int_Tables_number   1
_chemical_formula_structural   Ta2ZnO6
_chemical_formula_sum   'Ta8 Zn4 O24'
_cell_volume   408.97121791
_cell_formula_units_Z   4
loop_
 _symmetry_equiv_pos_site_id
 _symmetry_equiv_pos_as_xyz
  1  'x, y, z'
loop_
 _atom_site_type_symbol
 _atom_site_label
 _atom_site_symmetry_multiplicity
 _atom_site_fract_x
 _atom_site_fract_y
 _atom_site_fract_z
 _atom_site_occupancy
  Ta  Ta0  1  0.50000000  0.75000000  0.94430991  1
  Ta  Ta1  1  0.00000000  0.25000000  0.55569009  1
  Ta  Ta2  1  0.50000000  0.25000000  0.05569009  1
  Ta  Ta3  1  0.00000000  0.75000000  0.44430991  1
  Ta  Ta4  1  0.00000000  0.25000000  0.21967933  1
  Ta  Ta5  1  0.50000000  0.75000000  0.28032067  1
  Ta  Ta6  1  0.00000000  0.75000000  0.78032067  1
  Ta  Ta7  1  0.50000000  0.25000000  0.71967933  1
  Zn  Zn0  1  0.00000000  0.75000000  0.10295985  1
  Zn  Zn1  1  0.50000000  0.25000000  0.39704015  1
  Zn  Zn2  1  0.00000000  0.25000000  0.89704015  1
  Zn  Zn3  1  0.50000000  0.75000000  0.60295985  1
  O  O0  1  0.76134766  0.42602792  0.78955147  1
  O  O1  1  0.26134766  0.57397208  0.71044853  1
  O  O2  1  0.73865234  0.92602792  0.71044853  1
  O  O3  1  0.23865234  0.07397208  0.78955147  1
  O  O4  1  0.23865234  0.57397208  0.21044853  1
  O  O5  1  0.73865234  0.42602792  0.28955147  1
  O  O6  1  0.26134766  0.07397208  0.28955147  1
  O  O7  1  0.76134766  0.92602792  0.21044853  1
  O  O8  1  0.76995950  0.90128090  0.87130533  1
  O  O9  1  0.26995950  0.09871910  0.62869467  1
  O  O10  1  0.73004050  0.40128090  0.62869467  1
  O  O11  1  0.23004050  0.59871910  0.87130533  1
  O  O12  1  0.78107891  0.42779731  0.46451425  1
  O  O13  1  0.28107891  0.57220269  0.03548575  1
  O  O14  1  0.71892109  0.92779731  0.03548575  1
  O  O15  1  0.21892109  0.07220269  0.46451425  1
  O  O16  1  0.21892109  0.57220269  0.53548575  1
  O  O17  1  0.71892109  0.42779731  0.96451425  1
  O  O18  1  0.28107891  0.07220269  0.96451425  1
  O  O19  1  0.78107891  0.92779731  0.53548575  1
  O  O20  1  0.76995950  0.40128090  0.12869467  1
  O  O21  1  0.26995950  0.59871910  0.37130533  1
  O  O22  1  0.73004050  0.90128090  0.37130533  1
  O  O23  1  0.23004050  0.09871910  0.12869467  1
loop_
_geom_bond_atom_site_label_1
_geom_bond_atom_site_label_2
_geom_bond_distance
_geom_bond_site_symmetry_2
O0 Ta7 1.934805 1_555
O0 Ta6 1.996620 1_655
O0 Zn2 2.334369 1_655
O1 Ta6 1.934805 1_555
O1 Ta7 1.996620 1_555
O1 Zn3 2.334369 1_555
O2 Ta6 1.934805 1_655
O2 Ta7 1.996620 1_565
O2 Zn3 2.334369 1_555
O3 Ta7 1.934805 1_555
O3 Ta6 1.996620 1_545
O3 Zn2 2.334369 1_555
O4 Ta5 1.934805 1_555
O4 Ta4 1.996620 1_555
O4 Zn0 2.334369 1_555
O5 Ta4 1.934805 1_655
O5 Ta5 1.996620 1_555
O5 Zn1 2.334369 1_555
O6 Ta4 1.934805 1_555
O6 Ta5 1.996620 1_545
O6 Zn1 2.334369 1_555
O7 Ta5 1.934805 1_555
O7 Ta4 1.996620 1_665
O7 Zn0 2.334369 1_655
O8 Ta0 1.941123 1_555
O8 Ta6 2.047069 1_655
O8 Zn2 2.119986 1_665
O9 Ta1 1.941123 1_555
O9 Ta7 2.047069 1_555
O9 Zn3 2.119986 1_545
O10 Ta1 1.941123 1_655
O10 Ta7 2.047069 1_555
O10 Zn3 2.119986 1_555
O11 Ta0 1.941123 1_555
O11 Ta6 2.047069 1_555
O11 Zn2 2.119986 1_555
O12 Ta3 1.962571 1_655
O12 Zn1 1.974901 1_555
O12 Ta1 2.077110 1_655
O13 Ta2 1.962571 1_555
O13 Zn0 1.974901 1_555
O13 Ta0 2.077110 1_554
O14 Ta2 1.962571 1_565
O14 Zn0 1.974901 1_655
O14 Ta0 2.077110 1_554
O15 Ta3 1.962571 1_545
O15 Zn1 1.974901 1_555
O15 Ta1 2.077110 1_555
O16 Ta1 1.962571 1_555
O16 Zn3 1.974901 1_555
O16 Ta3 2.077110 1_555
O17 Ta0 1.962571 1_555
O17 Zn2 1.974901 1_655
O17 Ta2 2.077110 1_556
O18 Ta0 1.962571 1_545
O18 Zn2 1.974901 1_555
O18 Ta2 2.077110 1_556
O19 Ta1 1.962571 1_665
O19 Zn3 1.974901 1_555
O19 Ta3 2.077110 1_655
O20 Ta2 1.941123 1_555
O20 Ta4 2.047069 1_655
O20 Zn0 2.119986 1_655
O21 Ta3 1.941123 1_555
O21 Ta5 2.047069 1_555
O21 Zn1 2.119986 1_555
O22 Ta3 1.941123 1_655
O22 Ta5 2.047069 1_555
O22 Zn1 2.119986 1_565
O23 Ta2 1.941123 1_555
O23 Ta4 2.047069 1_555
O23 Zn0 2.119986 1_545
