# generated using pymatgen
data_Ba8Y4(Cu4O9)3
_symmetry_space_group_name_H-M   'P 1'
_cell_length_a   8.66717793
_cell_length_b   8.66717793
_cell_length_c   12.53176136
_cell_angle_alpha   74.09553056
_cell_angle_beta   74.09553056
_cell_angle_gamma   54.17650905
_symmetry_Int_Tables_number   1
_chemical_formula_structural   Ba8Y4(Cu4O9)3
_chemical_formula_sum   'Ba8 Y4 Cu12 O27'
_cell_volume   726.24121089
_cell_formula_units_Z   1
loop_
 _symmetry_equiv_pos_site_id
 _symmetry_equiv_pos_as_xyz
  1  'x, y, z'
loop_
 _atom_site_type_symbol
 _atom_site_label
 _atom_site_symmetry_multiplicity
 _atom_site_fract_x
 _atom_site_fract_y
 _atom_site_fract_z
 _atom_site_occupancy
  Ba  Ba0  1  0.91812000  0.91812000  0.81112300  1
  Ba  Ba1  1  0.17634600  0.17634600  0.81103000  1
  Ba  Ba2  1  0.42038800  0.42038800  0.81708700  1
  Ba  Ba3  1  0.67104300  0.67104300  0.81717500  1
  Ba  Ba4  1  0.08188000  0.08188000  0.18887700  1
  Ba  Ba5  1  0.32895700  0.32895700  0.18282500  1
  Ba  Ba6  1  0.57961200  0.57961200  0.18291300  1
  Ba  Ba7  1  0.82365400  0.82365400  0.18897000  1
  Y  Y0  1  0.25006200  0.25006200  0.49920400  1
  Y  Y1  1  0.74993800  0.74993800  0.50079600  1
  Y  Y2  1  0.50000000  0.50000000  0.50000000  1
  Y  Y3  1  0.00000000  0.00000000  0.50000000  1
  Cu  Cu0  1  0.08939000  0.58920400  0.64290600  1
  Cu  Cu1  1  0.58920400  0.08939000  0.64290600  1
  Cu  Cu2  1  0.33900200  0.83987000  0.64227500  1
  Cu  Cu3  1  0.83987000  0.33900200  0.64227500  1
  Cu  Cu4  1  0.16013000  0.66099800  0.35772500  1
  Cu  Cu5  1  0.66099800  0.16013000  0.35772500  1
  Cu  Cu6  1  0.41079600  0.91061000  0.35709400  1
  Cu  Cu7  1  0.91061000  0.41079600  0.35709400  1
  Cu  Cu8  1  0.00000000  0.50000000  0.00000000  1
  Cu  Cu9  1  0.50000000  0.00000000  0.00000000  1
  Cu  Cu10  1  0.25997400  0.74002600  0.00000000  1
  Cu  Cu11  1  0.74002600  0.25997400  0.00000000  1
  O  O0  1  0.34456600  0.34456600  0.62127300  1
  O  O1  1  0.84474800  0.84474800  0.62157000  1
  O  O2  1  0.59458000  0.59458000  0.62166100  1
  O  O3  1  0.09499000  0.09499000  0.62017100  1
  O  O4  1  0.40542000  0.40542000  0.37833900  1
  O  O5  1  0.90501000  0.90501000  0.37982900  1
  O  O6  1  0.65543400  0.65543400  0.37872700  1
  O  O7  1  0.15525200  0.15525200  0.37843000  1
  O  O8  1  0.96987600  0.47001800  0.62029400  1
  O  O9  1  0.47001800  0.96987600  0.62029400  1
  O  O10  1  0.22008400  0.71979000  0.62029900  1
  O  O11  1  0.71979000  0.22008400  0.62029900  1
  O  O12  1  0.03012400  0.52998200  0.37970600  1
  O  O13  1  0.52998200  0.03012400  0.37970600  1
  O  O14  1  0.28021000  0.77991600  0.37970100  1
  O  O15  1  0.77991600  0.28021000  0.37970100  1
  O  O16  1  0.03965400  0.53965500  0.84140600  1
  O  O17  1  0.53965500  0.03965400  0.84140600  1
  O  O18  1  0.27119500  0.80493800  0.84767700  1
  O  O19  1  0.80493800  0.27119500  0.84767700  1
  O  O20  1  0.19506200  0.72880500  0.15232300  1
  O  O21  1  0.72880500  0.19506200  0.15232300  1
  O  O22  1  0.46034500  0.96034600  0.15859400  1
  O  O23  1  0.96034600  0.46034500  0.15859400  1
  O  O24  1  0.24853500  0.24853500  0.00001600  1
  O  O25  1  0.50000000  0.50000000  0.00000000  1
  O  O26  1  0.75146500  0.75146500  0.99998400  1
loop_
_geom_bond_atom_site_label_1
_geom_bond_atom_site_label_2
_geom_bond_distance
_geom_bond_site_symmetry_2
Ba0 O16 2.739641 1_655
Ba0 O17 2.739641 1_565
Ba0 O19 2.746772 1_565
Ba0 O18 2.746772 1_655
Ba0 O26 2.910206 1_555
Ba0 O1 2.929285 1_555
Ba0 O10 3.013235 1_655
Ba0 O11 3.013235 1_565
Ba0 O3 3.025902 1_665
Ba1 O16 2.739835 1_555
Ba1 O17 2.739835 1_555
Ba1 O18 2.747367 1_545
Ba1 O19 2.747367 1_455
Ba1 O24 2.911085 1_556
Ba1 O0 2.931598 1_555
Ba1 O9 3.012032 1_545
Ba1 O8 3.012032 1_455
Ba1 O3 3.024201 1_555
Ba2 O16 2.771135 1_555
Ba2 O17 2.771135 1_555
Ba2 O19 2.882929 1_555
Ba2 O18 2.882929 1_555
Ba2 O25 2.915058 1_556
Ba2 O24 2.923443 1_556
Ba2 O0 3.026300 1_555
Ba2 O2 3.028488 1_555
Ba2 O11 3.065136 1_555
Ba2 O10 3.065136 1_555
Ba3 O17 2.771153 1_565
Ba3 O16 2.771153 1_655
Ba3 O18 2.883095 1_555
Ba3 O19 2.883095 1_555
Ba3 O25 2.914473 1_556
Ba3 O26 2.922175 1_555
Ba3 O1 3.024898 1_555
Ba3 O2 3.029112 1_555
Ba3 O8 3.066369 1_555
Ba3 O9 3.066369 1_555
Ba4 O22 2.739641 1_545
Ba4 O23 2.739641 1_455
Ba4 O21 2.746772 1_455
Ba4 O20 2.746772 1_545
Ba4 O24 2.910206 1_555
Ba4 O7 2.929285 1_555
Ba4 O15 3.013235 1_455
Ba4 O14 3.013235 1_545
Ba4 O5 3.025902 1_445
Ba5 O22 2.771153 1_545
Ba5 O23 2.771153 1_455
Ba5 O20 2.883095 1_555
Ba5 O21 2.883095 1_555
Ba5 O25 2.914473 1_555
Ba5 O24 2.922175 1_555
Ba5 O7 3.024898 1_555
Ba5 O4 3.029112 1_555
Ba5 O12 3.066369 1_555
Ba5 O13 3.066369 1_555
Ba6 O23 2.771135 1_555
Ba6 O22 2.771135 1_555
Ba6 O21 2.882929 1_555
Ba6 O20 2.882929 1_555
Ba6 O25 2.915058 1_555
Ba6 O26 2.923443 1_554
Ba6 O6 3.026300 1_555
Ba6 O4 3.028488 1_555
Ba6 O15 3.065136 1_555
Ba6 O14 3.065136 1_555
Ba7 O23 2.739835 1_555
Ba7 O22 2.739835 1_555
Ba7 O20 2.747367 1_655
Ba7 O21 2.747367 1_565
Ba7 O26 2.911085 1_554
Ba7 O6 2.931598 1_555
Ba7 O12 3.012032 1_655
Ba7 O13 3.012032 1_565
Ba7 O5 3.024201 1_555
Cu0 O10 1.947694 1_555
Cu0 O8 1.947884 1_455
Cu0 O0 1.989413 1_555
Cu0 O1 1.990413 1_455
Cu0 O16 2.366789 1_555
Cu1 O11 1.947694 1_555
Cu1 O9 1.947884 1_545
Cu1 O0 1.989413 1_555
Cu1 O1 1.990413 1_545
Cu1 O17 2.366789 1_555
Cu2 O10 1.946702 1_555
Cu2 O9 1.947099 1_555
Cu2 O3 1.987480 1_565
Cu2 O2 1.992001 1_555
Cu2 O18 2.452518 1_555
Cu3 O11 1.946702 1_555
Cu3 O8 1.947099 1_555
Cu3 O3 1.987480 1_655
Cu3 O2 1.992001 1_555
Cu3 O19 2.452518 1_555
Cu4 O14 1.946702 1_555
Cu4 O12 1.947099 1_555
Cu4 O5 1.987480 1_455
Cu4 O4 1.992001 1_555
Cu4 O20 2.452518 1_555
Cu5 O15 1.946702 1_555
Cu5 O13 1.947099 1_555
Cu5 O5 1.987480 1_545
Cu5 O4 1.992001 1_555
Cu5 O21 2.452518 1_555
Cu6 O14 1.947694 1_555
Cu6 O13 1.947884 1_565
Cu6 O6 1.989413 1_555
Cu6 O7 1.990413 1_565
Cu6 O22 2.366789 1_555
Cu7 O15 1.947694 1_555
Cu7 O12 1.947884 1_655
Cu7 O6 1.989413 1_555
Cu7 O7 1.990413 1_655
Cu7 O23 2.366789 1_555
Cu8 O23 1.890974 1_455
Cu8 O16 1.890974 1_554
Cu8 O26 1.973482 1_454
Cu8 O24 1.973482 1_555
Cu9 O22 1.890974 1_545
Cu9 O17 1.890974 1_554
Cu9 O26 1.973482 1_544
Cu9 O24 1.973482 1_555
Cu10 O20 1.828523 1_555
Cu10 O18 1.828523 1_554
Cu10 O25 1.894625 1_555
Cu11 O19 1.828523 1_554
Cu11 O21 1.828523 1_555
Cu11 O25 1.894625 1_555
O0 Y2 2.412402 1_555
O0 Y0 2.416749 1_555
O1 Y1 2.407263 1_555
O1 Y3 2.411365 1_665
O2 Y1 2.409811 1_555
O2 Y2 2.413502 1_555
O3 Y3 2.403332 1_555
O3 Y0 2.406688 1_555
O4 Y0 2.409811 1_555
O4 Y2 2.413502 1_555
O5 Y3 2.403332 1_665
O5 Y1 2.406688 1_555
O6 Y2 2.412402 1_555
O6 Y1 2.416749 1_555
O7 Y0 2.407263 1_555
O7 Y3 2.411365 1_555
O8 Y1 2.433521 1_555
O8 Y0 2.445588 1_655
O9 Y1 2.433521 1_555
O9 Y0 2.445588 1_565
O10 Y2 2.438639 1_555
O10 Y3 2.440516 1_565
O11 Y2 2.438639 1_555
O11 Y3 2.440516 1_655
O12 Y0 2.433521 1_555
O12 Y1 2.445588 1_455
O13 Y0 2.433521 1_555
O13 Y1 2.445588 1_545
O14 Y2 2.438639 1_555
O14 Y3 2.440516 1_565
O15 Y2 2.438639 1_555
O15 Y3 2.440516 1_655
