# generated using pymatgen
data_Ca3Ta3N5
_symmetry_space_group_name_H-M   'P 1'
_cell_length_a   5.97014334
_cell_length_b   8.09016316
_cell_length_c   8.41097455
_cell_angle_alpha   109.82082627
_cell_angle_beta   106.21674515
_cell_angle_gamma   105.05637049
_symmetry_Int_Tables_number   1
_chemical_formula_structural   Ca3Ta3N5
_chemical_formula_sum   'Ca6 Ta6 N10'
_cell_volume   337.53928113
_cell_formula_units_Z   2
loop_
 _symmetry_equiv_pos_site_id
 _symmetry_equiv_pos_as_xyz
  1  'x, y, z'
loop_
 _atom_site_type_symbol
 _atom_site_label
 _atom_site_symmetry_multiplicity
 _atom_site_fract_x
 _atom_site_fract_y
 _atom_site_fract_z
 _atom_site_occupancy
  Ca  Ca0  1  0.71563200  0.42726500  0.59921400  1
  Ca  Ca1  1  0.28436800  0.57273500  0.40078600  1
  Ca  Ca2  1  0.66182900  0.84501300  0.87015300  1
  Ca  Ca3  1  0.33817100  0.15498700  0.12984700  1
  Ca  Ca4  1  0.70230800  0.65507500  0.22113500  1
  Ca  Ca5  1  0.29769200  0.34492500  0.77886500  1
  Ta  Ta0  1  0.87292300  0.29315800  0.93483500  1
  Ta  Ta1  1  0.12707700  0.70684200  0.06516500  1
  Ta  Ta2  1  0.73157300  0.99272200  0.55836100  1
  Ta  Ta3  1  0.26842700  0.00727800  0.44163900  1
  Ta  Ta4  1  0.10882900  0.86866400  0.69722600  1
  Ta  Ta5  1  0.89117100  0.13133600  0.30277400  1
  N  N0  1  0.02666100  0.08341600  0.83705600  1
  N  N1  1  0.97333900  0.91658400  0.16294400  1
  N  N2  1  0.74129500  0.69949200  0.53727500  1
  N  N3  1  0.25870500  0.30050800  0.46272500  1
  N  N4  1  0.76246000  0.51765400  0.91961200  1
  N  N5  1  0.23754000  0.48234600  0.08038800  1
  N  N6  1  0.42202600  0.91593700  0.63685900  1
  N  N7  1  0.57797400  0.08406300  0.36314100  1
  N  N8  1  0.24334100  0.78126100  0.89180000  1
  N  N9  1  0.75665900  0.21873900  0.10820000  1
loop_
_geom_bond_atom_site_label_1
_geom_bond_atom_site_label_2
_geom_bond_distance
_geom_bond_site_symmetry_2
Ca0 N2 2.406791 1_555
Ca0 N3 2.410427 1_555
Ca0 N4 2.451884 1_555
Ca0 N7 2.547852 1_555
Ca1 N3 2.406791 1_555
Ca1 N2 2.410427 1_555
Ca1 N5 2.451884 1_555
Ca1 N6 2.547852 1_555
Ca2 N1 2.402932 1_556
Ca2 N6 2.418773 1_555
Ca2 N8 2.487894 1_555
Ca2 N0 2.657404 1_665
Ca2 N9 2.800556 1_566
Ca2 N2 2.871736 1_555
Ca2 N4 2.997022 1_555
Ca3 N0 2.402932 1_554
Ca3 N7 2.418773 1_555
Ca3 N9 2.487894 1_555
Ca3 N1 2.657404 1_445
Ca3 N8 2.800556 1_544
Ca3 N3 2.871736 1_555
Ca3 N5 2.997022 1_555
Ca4 N5 2.466227 1_555
Ca4 N2 2.493330 1_555
Ca4 N4 2.569205 1_554
Ca4 N1 2.588395 1_555
Ca5 N4 2.466227 1_555
Ca5 N3 2.493330 1_555
Ca5 N5 2.569205 1_556
Ca5 N0 2.588395 1_555
N0 Ta4 2.005413 1_545
N0 Ta0 2.163900 1_455
N0 Ta2 2.234336 1_445
N1 Ta5 2.005413 1_565
N1 Ta1 2.163900 1_655
N1 Ta3 2.234336 1_665
N2 Ta4 2.009982 1_655
N2 Ta2 2.335485 1_555
N3 Ta5 2.009982 1_455
N3 Ta3 2.335485 1_555
N4 Ta1 2.022308 1_656
N4 Ta0 2.117249 1_555
N5 Ta0 2.022308 1_454
N5 Ta1 2.117249 1_555
N6 Ta4 2.047139 1_555
N6 Ta3 2.101669 1_565
N6 Ta2 2.144829 1_555
N7 Ta5 2.047139 1_555
N7 Ta2 2.101669 1_545
N7 Ta3 2.144829 1_555
N8 Ta1 1.978407 1_556
N8 Ta4 2.041800 1_555
N9 Ta0 1.978407 1_554
N9 Ta5 2.041800 1_555
