# generated using pymatgen
data_K2NaBiCl6
_symmetry_space_group_name_H-M   'P 1'
_cell_length_a   7.70574423
_cell_length_b   7.70574423
_cell_length_c   7.70574423
_cell_angle_alpha   60.00000000
_cell_angle_beta   60.00000000
_cell_angle_gamma   60.00000000
_symmetry_Int_Tables_number   1
_chemical_formula_structural   K2NaBiCl6
_chemical_formula_sum   'K2 Na1 Bi1 Cl6'
_cell_volume   323.54058891
_cell_formula_units_Z   1
loop_
 _symmetry_equiv_pos_site_id
 _symmetry_equiv_pos_as_xyz
  1  'x, y, z'
loop_
 _atom_site_type_symbol
 _atom_site_label
 _atom_site_symmetry_multiplicity
 _atom_site_fract_x
 _atom_site_fract_y
 _atom_site_fract_z
 _atom_site_occupancy
  K  K0  1  0.75000000  0.75000000  0.75000000  1
  K  K1  1  0.25000000  0.25000000  0.25000000  1
  Na  Na0  1  0.50000000  0.50000000  0.50000000  1
  Bi  Bi0  1  0.00000000  0.00000000  0.00000000  1
  Cl  Cl0  1  0.75150600  0.24849400  0.24849400  1
  Cl  Cl1  1  0.24849400  0.24849400  0.75150600  1
  Cl  Cl2  1  0.24849400  0.75150600  0.75150600  1
  Cl  Cl3  1  0.24849400  0.75150600  0.24849400  1
  Cl  Cl4  1  0.75150600  0.24849400  0.75150600  1
  Cl  Cl5  1  0.75150600  0.75150600  0.24849400  1
loop_
_geom_bond_atom_site_label_1
_geom_bond_atom_site_label_2
_geom_bond_distance
_geom_bond_site_symmetry_2
Bi0 Cl5 2.707980 1_445
Bi0 Cl3 2.707980 1_545
Bi0 Cl2 2.707980 1_544
Bi0 Cl4 2.707980 1_454
Bi0 Cl1 2.707980 1_554
Bi0 Cl0 2.707980 1_455
Cl0 Na0 2.740804 1_555
Cl1 Na0 2.740804 1_555
Cl2 Na0 2.740804 1_555
Cl3 Na0 2.740804 1_555
Cl4 Na0 2.740804 1_555
Cl5 Na0 2.740804 1_555
