# generated using pymatgen
data_CePO4
_symmetry_space_group_name_H-M   'P 1'
_cell_length_a   5.99686477
_cell_length_b   5.99686477
_cell_length_c   5.99686477
_cell_angle_alpha   105.94872429
_cell_angle_beta   105.94872429
_cell_angle_gamma   116.77230455
_symmetry_Int_Tables_number   1
_chemical_formula_structural   CePO4
_chemical_formula_sum   'Ce2 P2 O8'
_cell_volume   163.97004583
_cell_formula_units_Z   2
loop_
 _symmetry_equiv_pos_site_id
 _symmetry_equiv_pos_as_xyz
  1  'x, y, z'
loop_
 _atom_site_type_symbol
 _atom_site_label
 _atom_site_symmetry_multiplicity
 _atom_site_fract_x
 _atom_site_fract_y
 _atom_site_fract_z
 _atom_site_occupancy
  Ce  Ce0  1  0.25000000  0.75000000  0.50000000  1
  Ce  Ce1  1  0.00000000  0.00000000  0.00000000  1
  P  P0  1  0.50000000  0.50000000  0.00000000  1
  P  P1  1  0.75000000  0.25000000  0.50000000  1
  O  O0  1  0.48261200  0.65251600  0.83009600  1
  O  O1  1  0.90251600  0.23261200  0.33009600  1
  O  O2  1  0.90251600  0.57241900  0.66990400  1
  O  O3  1  0.82241900  0.65251600  0.16990400  1
  O  O4  1  0.76738800  0.09748400  0.66990400  1
  O  O5  1  0.34748400  0.51738800  0.16990400  1
  O  O6  1  0.34748400  0.17758100  0.83009600  1
  O  O7  1  0.42758100  0.09748400  0.33009600  1
loop_
_geom_bond_atom_site_label_1
_geom_bond_atom_site_label_2
_geom_bond_distance
_geom_bond_site_symmetry_2
Ce0 O0 2.461568 1_555
Ce0 O5 2.461568 1_555
Ce0 O3 2.461573 1_455
Ce0 O6 2.461573 1_565
Ce0 O4 2.505674 1_565
Ce0 O1 2.505674 1_455
Ce0 O7 2.505675 1_565
Ce0 O2 2.505675 1_455
Ce1 O4 2.461568 1_454
Ce1 O1 2.461568 1_455
Ce1 O2 2.461573 1_444
Ce1 O7 2.461573 1_555
Ce1 O0 2.505674 1_444
Ce1 O5 2.505674 1_555
Ce1 O3 2.505675 1_445
Ce1 O6 2.505675 1_554
O0 P0 1.557305 1_556
O1 P1 1.557305 1_555
O2 P1 1.557300 1_555
O3 P0 1.557300 1_555
O4 P1 1.557305 1_555
O5 P0 1.557305 1_555
O6 P0 1.557300 1_556
O7 P1 1.557300 1_555
