# generated using pymatgen
data_Tl3Pt
_symmetry_space_group_name_H-M   'P 1'
_cell_length_a   5.91025400
_cell_length_b   5.91025400
_cell_length_c   5.91025400
_cell_angle_alpha   90.00000000
_cell_angle_beta   90.00000000
_cell_angle_gamma   90.00000000
_symmetry_Int_Tables_number   1
_chemical_formula_structural   Tl3Pt
_chemical_formula_sum   'Tl6 Pt2'
_cell_volume   206.45168736
_cell_formula_units_Z   2
loop_
 _symmetry_equiv_pos_site_id
 _symmetry_equiv_pos_as_xyz
  1  'x, y, z'
loop_
 _atom_site_type_symbol
 _atom_site_label
 _atom_site_symmetry_multiplicity
 _atom_site_fract_x
 _atom_site_fract_y
 _atom_site_fract_z
 _atom_site_occupancy
  Tl  Tl0  1  0.00000000  0.50000000  0.75000000  1
  Tl  Tl1  1  0.50000000  0.25000000  0.00000000  1
  Tl  Tl2  1  0.75000000  0.00000000  0.50000000  1
  Tl  Tl3  1  0.00000000  0.50000000  0.25000000  1
  Tl  Tl4  1  0.50000000  0.75000000  0.00000000  1
  Tl  Tl5  1  0.25000000  0.00000000  0.50000000  1
  Pt  Pt0  1  0.50000000  0.50000000  0.50000000  1
  Pt  Pt1  1  0.00000000  0.00000000  0.00000000  1
loop_
_geom_bond_atom_site_label_1
_geom_bond_atom_site_label_2
_geom_bond_distance
_geom_bond_site_symmetry_2
Tl0 Tl3 2.955127 1_555
Tl0 Tl3 2.955127 1_556
Tl1 Tl4 2.955127 1_545
Tl1 Tl4 2.955127 1_555
Tl2 Tl5 2.955127 1_555
Tl2 Tl5 2.955127 1_655
Pt0 Tl4 3.303932 1_556
Pt0 Tl5 3.303932 1_555
Pt0 Tl2 3.303932 1_555
Pt0 Tl5 3.303932 1_565
Pt0 Tl2 3.303932 1_565
Pt0 Tl3 3.303932 1_555
Pt0 Tl0 3.303932 1_555
Pt0 Tl3 3.303932 1_655
Pt0 Tl4 3.303932 1_555
Pt0 Tl0 3.303932 1_655
Pt0 Tl1 3.303932 1_555
Pt0 Tl1 3.303932 1_556
Pt1 Tl2 3.303932 1_454
Pt1 Tl0 3.303932 1_554
Pt1 Tl2 3.303932 1_455
Pt1 Tl4 3.303932 1_445
Pt1 Tl5 3.303932 1_555
Pt1 Tl3 3.303932 1_555
Pt1 Tl3 3.303932 1_545
Pt1 Tl1 3.303932 1_455
Pt1 Tl5 3.303932 1_554
Pt1 Tl1 3.303932 1_555
Pt1 Tl0 3.303932 1_544
Pt1 Tl4 3.303932 1_545
