# generated using pymatgen
data_Na2V(SO6)2
_symmetry_space_group_name_H-M   'P 1'
_cell_length_a   5.55167029
_cell_length_b   8.07947000
_cell_length_c   11.22509826
_cell_angle_alpha   90.00000000
_cell_angle_beta   99.63504255
_cell_angle_gamma   90.00000000
_symmetry_Int_Tables_number   1
_chemical_formula_structural   Na2V(SO6)2
_chemical_formula_sum   'Na4 V2 S4 O24'
_cell_volume   496.39437296
_cell_formula_units_Z   2
loop_
 _symmetry_equiv_pos_site_id
 _symmetry_equiv_pos_as_xyz
  1  'x, y, z'
loop_
 _atom_site_type_symbol
 _atom_site_label
 _atom_site_symmetry_multiplicity
 _atom_site_fract_x
 _atom_site_fract_y
 _atom_site_fract_z
 _atom_site_occupancy
  Na  Na0  1  0.08553700  0.06148600  0.35217900  1
  Na  Na1  1  0.91446300  0.93851400  0.64782100  1
  Na  Na2  1  0.91446300  0.56148600  0.14782100  1
  Na  Na3  1  0.08553700  0.43851400  0.85217900  1
  V  V0  1  0.00000000  0.00000000  0.00000000  1
  V  V1  1  0.00000000  0.50000000  0.50000000  1
  S  S0  1  0.37381400  0.27849200  0.13523000  1
  S  S1  1  0.62618600  0.72150800  0.86477000  1
  S  S2  1  0.62618600  0.77849200  0.36477000  1
  S  S3  1  0.37381400  0.22150800  0.63523000  1
  O  O0  1  0.31485100  0.25775300  0.25889000  1
  O  O1  1  0.68514900  0.74224700  0.74111000  1
  O  O2  1  0.68514900  0.75775300  0.24111000  1
  O  O3  1  0.31485100  0.24224700  0.75889000  1
  O  O4  1  0.11611000  0.80661200  0.07074200  1
  O  O5  1  0.88389000  0.19338800  0.92925800  1
  O  O6  1  0.88389000  0.30661200  0.42925800  1
  O  O7  1  0.11611000  0.69338800  0.57074200  1
  O  O8  1  0.21242700  0.40321900  0.06653000  1
  O  O9  1  0.78757300  0.59678100  0.93347000  1
  O  O10  1  0.78757300  0.90321900  0.43347000  1
  O  O11  1  0.21242700  0.09678100  0.56653000  1
  O  O12  1  0.63097000  0.32297900  0.14033500  1
  O  O13  1  0.36903000  0.67702100  0.85966500  1
  O  O14  1  0.36903000  0.82297900  0.35966500  1
  O  O15  1  0.63097000  0.17702100  0.64033500  1
  O  O16  1  0.32813300  0.11048700  0.07346400  1
  O  O17  1  0.67186700  0.88951300  0.92653600  1
  O  O18  1  0.67186700  0.61048700  0.42653600  1
  O  O19  1  0.32813300  0.38951300  0.57346400  1
  O  O20  1  0.10111400  0.51702300  0.35409100  1
  O  O21  1  0.89888600  0.48297700  0.64590900  1
  O  O22  1  0.89888600  0.01702300  0.14590900  1
  O  O23  1  0.10111400  0.98297700  0.85409100  1
loop_
_geom_bond_atom_site_label_1
_geom_bond_atom_site_label_2
_geom_bond_distance
_geom_bond_site_symmetry_2
Na0 O0 2.382879 1_555
Na0 O10 2.389438 1_445
Na0 O22 2.400157 1_455
Na0 O11 2.408226 1_555
Na0 O14 2.480563 1_545
Na0 O6 2.499680 1_455
Na1 O1 2.382879 1_555
Na1 O11 2.389438 1_665
Na1 O23 2.400157 1_655
Na1 O10 2.408226 1_555
Na1 O15 2.480563 1_565
Na1 O7 2.499680 1_655
Na2 O2 2.382879 1_555
Na2 O8 2.389438 1_655
Na2 O20 2.400157 1_655
Na2 O9 2.408226 1_554
Na2 O12 2.480563 1_555
Na2 O4 2.499680 1_655
Na3 O3 2.382879 1_555
Na3 O9 2.389438 1_455
Na3 O21 2.400157 1_455
Na3 O8 2.408226 1_556
Na3 O13 2.480563 1_555
Na3 O5 2.499680 1_455
O0 S0 1.487999 1_555
O1 S1 1.487999 1_555
O2 S2 1.487999 1_555
O3 S3 1.487999 1_555
O4 V0 1.821006 1_565
O5 V0 1.821006 1_656
O6 V1 1.821006 1_655
O7 V1 1.821006 1_555
O8 S0 1.477051 1_555
O9 S1 1.477051 1_555
O10 S2 1.477051 1_555
O11 S3 1.477051 1_555
O12 S0 1.463988 1_555
O13 S1 1.463988 1_555
O14 S2 1.463988 1_555
O15 S3 1.463988 1_555
O16 S0 1.525999 1_555
O16 V0 2.071854 1_555
O17 S1 1.525999 1_555
O17 V0 2.071854 1_666
O18 S2 1.525999 1_555
O18 V1 2.071854 1_655
O19 S3 1.525999 1_555
O19 V1 2.071854 1_555
O20 V1 1.823274 1_555
O21 V1 1.823274 1_655
O22 V0 1.823274 1_655
O23 V0 1.823274 1_566
