# generated using pymatgen
data_NiH6C2(NO2)2
_symmetry_space_group_name_H-M   'P 1'
_cell_length_a   6.74516301
_cell_length_b   10.38499798
_cell_length_c   8.96696827
_cell_angle_alpha   88.93249393
_cell_angle_beta   90.00406560
_cell_angle_gamma   90.00525469
_symmetry_Int_Tables_number   1
_chemical_formula_structural   NiH6C2(NO2)2
_chemical_formula_sum   'Ni4 H24 C8 N8 O16'
_cell_volume   628.01369291
_cell_formula_units_Z   4
loop_
 _symmetry_equiv_pos_site_id
 _symmetry_equiv_pos_as_xyz
  1  'x, y, z'
loop_
 _atom_site_type_symbol
 _atom_site_label
 _atom_site_symmetry_multiplicity
 _atom_site_fract_x
 _atom_site_fract_y
 _atom_site_fract_z
 _atom_site_occupancy
  Ni  Ni0  1  0.23851300  0.99980300  0.75003100  1
  Ni  Ni1  1  0.26195800  0.50003300  0.75004800  1
  Ni  Ni2  1  0.73813800  0.50017300  0.25029700  1
  Ni  Ni3  1  0.76168100  0.99998700  0.24970000  1
  H  H0  1  0.36465400  0.79353400  0.89052600  1
  H  H1  1  0.86465900  0.29360000  0.39051900  1
  H  H2  1  0.86451900  0.70636000  0.10953300  1
  H  H3  1  0.36453200  0.20625000  0.60950100  1
  H  H4  1  0.63525300  0.20649100  0.10947600  1
  H  H5  1  0.13537500  0.70635600  0.60946800  1
  H  H6  1  0.13543200  0.29361300  0.89053900  1
  H  H7  1  0.63538300  0.79373400  0.39043700  1
  H  H8  1  0.00161000  0.30969200  0.24343200  1
  H  H9  1  0.50185400  0.80939900  0.74352800  1
  H  H10  1  0.00167800  0.69047000  0.25655900  1
  H  H11  1  0.50175200  0.19035600  0.75648100  1
  H  H12  1  0.99828800  0.69041200  0.75651000  1
  H  H13  1  0.49819600  0.19047700  0.25651700  1
  H  H14  1  0.99831100  0.30957100  0.74352700  1
  H  H15  1  0.49827700  0.80965700  0.24339200  1
  H  H16  1  0.05605600  0.39051500  0.39403900  1
  H  H17  1  0.55610600  0.89041600  0.89404200  1
  H  H18  1  0.05592000  0.60947100  0.10603900  1
  H  H19  1  0.55616200  0.10955000  0.60585600  1
  H  H20  1  0.94399500  0.60942900  0.60599800  1
  H  H21  1  0.44385500  0.10957300  0.10594500  1
  H  H22  1  0.94397400  0.39044200  0.89410600  1
  H  H23  1  0.44392100  0.89056600  0.39394600  1
  C  C0  1  0.94151900  0.94130700  0.97020500  1
  C  C1  1  0.44145500  0.44130100  0.47035800  1
  C  C2  1  0.44148100  0.55869600  0.02978700  1
  C  C3  1  0.94156400  0.05869600  0.52968400  1
  C  C4  1  0.05853500  0.05870200  0.02961600  1
  C  C5  1  0.55843900  0.55870200  0.52980000  1
  C  C6  1  0.55846800  0.44130700  0.97034200  1
  C  C7  1  0.05847600  0.94130500  0.47019300  1
  N  N0  1  0.94045000  0.36139100  0.32825000  1
  N  N1  1  0.44060900  0.86120200  0.82821700  1
  N  N2  1  0.94041600  0.63867700  0.17185900  1
  N  N3  1  0.44058900  0.13857200  0.67173500  1
  N  N4  1  0.05953500  0.63863300  0.67180000  1
  N  N5  1  0.55941000  0.13873700  0.17175500  1
  N  N6  1  0.05954700  0.36134700  0.82826700  1
  N  N7  1  0.55947900  0.86142900  0.32812900  1
  O  O0  1  0.50199700  0.39095000  0.35159400  1
  O  O1  1  0.00207900  0.89086400  0.85153100  1
  O  O2  1  0.50194400  0.60905500  0.14856300  1
  O  O3  1  0.00216900  0.10898400  0.64848600  1
  O  O4  1  0.49799300  0.60906100  0.64854100  1
  O  O5  1  0.99792000  0.10914800  0.14829900  1
  O  O6  1  0.49795600  0.39094600  0.85157300  1
  O  O7  1  0.99795400  0.89101300  0.35139300  1
  O  O8  1  0.79176300  0.90428300  0.04634900  1
  O  O9  1  0.29183500  0.40421400  0.54655600  1
  O  O10  1  0.29185300  0.59580000  0.95357000  1
  O  O11  1  0.79196200  0.09583600  0.45348200  1
  O  O12  1  0.20826900  0.09569300  0.95347100  1
  O  O13  1  0.70810000  0.59583800  0.45361900  1
  O  O14  1  0.70807500  0.40424600  0.04659600  1
  O  O15  1  0.20810600  0.90413400  0.54638800  1
loop_
_geom_bond_atom_site_label_1
_geom_bond_atom_site_label_2
_geom_bond_distance
_geom_bond_site_symmetry_2
Ni0 O12 2.104495 1_565
Ni0 O15 2.105032 1_555
Ni0 O1 2.147820 1_555
Ni0 O3 2.148899 1_565
Ni1 O10 2.104245 1_555
Ni1 O9 2.104304 1_555
Ni1 O4 2.146328 1_555
Ni1 O6 2.146587 1_555
Ni2 O13 2.102291 1_555
Ni2 O14 2.106572 1_555
Ni2 O0 2.147132 1_555
Ni2 O2 2.147239 1_555
Ni3 O8 2.102745 1_555
Ni3 O11 2.106954 1_565
Ni3 O5 2.147673 1_565
Ni3 O7 2.147977 1_555
H0 N1 1.026562 1_555
H1 N0 1.026682 1_555
H2 N2 1.026577 1_555
H3 N3 1.026643 1_555
H4 N5 1.026645 1_555
H5 N4 1.026670 1_555
H6 N6 1.026637 1_555
H7 N7 1.026599 1_555
H8 N0 1.025764 1_455
H9 N1 1.025707 1_555
H10 N2 1.025688 1_455
H11 N3 1.025679 1_555
H12 N4 1.025720 1_655
H13 N5 1.025762 1_555
H14 N6 1.025792 1_655
H15 N7 1.025657 1_555
H16 N0 1.026689 1_455
H17 N1 1.026604 1_555
H18 N2 1.026694 1_455
H19 N3 1.026772 1_555
H20 N4 1.026673 1_655
H21 N5 1.026664 1_555
H22 N6 1.026794 1_655
H23 N7 1.026736 1_555
C0 O1 1.262759 1_655
C0 O8 1.274610 1_556
C1 O0 1.262995 1_555
C1 O9 1.274331 1_555
C2 O2 1.262870 1_555
C2 O10 1.274495 1_554
C3 O3 1.263062 1_655
C3 O11 1.274394 1_555
C4 O5 1.262961 1_455
C4 O12 1.274397 1_554
C5 O4 1.262646 1_555
C5 O13 1.274618 1_555
C6 O6 1.262933 1_555
C6 O14 1.274428 1_556
C7 O7 1.262883 1_455
C7 O15 1.274604 1_555
N0 Ni2 2.095400 1_555
N1 Ni0 2.093842 1_555
N2 Ni2 2.094578 1_555
N3 Ni0 2.095154 1_545
N4 Ni1 2.095451 1_555
N5 Ni3 2.094971 1_545
N6 Ni1 2.095815 1_555
N7 Ni3 2.094599 1_555
