# generated using pymatgen
data_Na4Sr(SiO3)3
_symmetry_space_group_name_H-M   'P 1'
_cell_length_a   6.69399859
_cell_length_b   6.70421804
_cell_length_c   6.69989602
_cell_angle_alpha   109.54959661
_cell_angle_beta   109.48786790
_cell_angle_gamma   109.37147165
_symmetry_Int_Tables_number   1
_chemical_formula_structural   Na4Sr(SiO3)3
_chemical_formula_sum   'Na4 Sr1 Si3 O9'
_cell_volume   231.47518159
_cell_formula_units_Z   1
loop_
 _symmetry_equiv_pos_site_id
 _symmetry_equiv_pos_as_xyz
  1  'x, y, z'
loop_
 _atom_site_type_symbol
 _atom_site_label
 _atom_site_symmetry_multiplicity
 _atom_site_fract_x
 _atom_site_fract_y
 _atom_site_fract_z
 _atom_site_occupancy
  Na  Na0  1  0.49625200  0.49625200  0.99250400  1
  Na  Na1  1  0.52472900  0.02472900  0.04945900  1
  Na  Na2  1  0.47012800  0.44374000  0.46704300  1
  Na  Na3  1  0.99691500  0.02330300  0.46704300  1
  Sr  Sr0  1  0.99519500  0.49519500  0.99038900  1
  Si  Si0  1  0.96076500  0.96076500  0.92152900  1
  Si  Si1  1  0.49682000  0.96144300  0.53050600  1
  Si  Si2  1  0.03368600  0.56906400  0.53050600  1
  O  O0  1  0.73896400  0.97746500  0.73094100  1
  O  O1  1  0.99197700  0.75347600  0.73094100  1
  O  O2  1  0.86716600  0.83805900  0.06619900  1
  O  O3  1  0.19903300  0.22813900  0.06619900  1
  O  O4  1  0.45862000  0.83441600  0.25942600  1
  O  O5  1  0.80080600  0.42501000  0.25942600  1
  O  O6  1  0.53059900  0.23102100  0.65386600  1
  O  O7  1  0.12326700  0.42284500  0.65386600  1
  O  O8  1  0.26307900  0.76307900  0.52615700  1
loop_
_geom_bond_atom_site_label_1
_geom_bond_atom_site_label_2
_geom_bond_distance
_geom_bond_site_symmetry_2
Na0 O7 2.506322 1_555
Na0 O6 2.506322 1_555
Na0 O2 2.512002 1_556
Na0 O3 2.512005 1_556
Na0 O5 2.523401 1_556
Na0 O4 2.523402 1_556
Na1 O4 2.246050 1_545
Na1 O5 2.246056 1_555
Na1 O3 2.942569 1_555
Na1 O2 2.942575 1_545
Na2 O6 2.236949 1_555
Na2 O3 2.237234 1_555
Na2 O7 2.969549 1_555
Na3 O7 2.236949 1_655
Na3 O2 2.237234 1_545
Na3 O6 2.969549 1_655
O0 Si1 1.666698 1_555
O0 Si0 1.669877 1_555
O0 Sr0 2.834536 1_565
O1 Si2 1.666695 1_655
O1 Si0 1.669877 1_555
O1 Sr0 2.834530 1_555
O2 Si0 1.614223 1_554
O2 Sr0 2.663107 1_554
O3 Si0 1.614213 1_444
O3 Sr0 2.663114 1_454
O4 Si1 1.612385 1_555
O4 Sr0 2.624896 1_454
O5 Si2 1.612384 1_655
O5 Sr0 2.624902 1_554
O6 Si1 1.614041 1_545
O6 Sr0 2.624399 1_555
O7 Si2 1.614046 1_555
O7 Sr0 2.624395 1_455
O8 Si1 1.667592 1_555
O8 Si2 1.667596 1_555
O8 Sr0 2.929255 1_454
