# generated using pymatgen
data_Li8PSe6
_symmetry_space_group_name_H-M   'P 1'
_cell_length_a   7.56381629
_cell_length_b   7.56381629
_cell_length_c   7.56381629
_cell_angle_alpha   120.78753348
_cell_angle_beta   120.78753348
_cell_angle_gamma   88.64127987
_symmetry_Int_Tables_number   1
_chemical_formula_structural   Li8PSe6
_chemical_formula_sum   'Li8 P1 Se6'
_cell_volume   302.25589946
_cell_formula_units_Z   1
loop_
 _symmetry_equiv_pos_site_id
 _symmetry_equiv_pos_as_xyz
  1  'x, y, z'
loop_
 _atom_site_type_symbol
 _atom_site_label
 _atom_site_symmetry_multiplicity
 _atom_site_fract_x
 _atom_site_fract_y
 _atom_site_fract_z
 _atom_site_occupancy
  Li  Li0  1  0.68620900  0.99911000  0.65564300  1
  Li  Li1  1  0.34346700  0.03056700  0.34435700  1
  Li  Li2  1  0.01542500  0.37746600  0.97064200  1
  Li  Li3  1  0.62253400  0.59317500  0.63795800  1
  Li  Li4  1  0.95521700  0.98457500  0.36204200  1
  Li  Li5  1  0.00089000  0.65653300  0.68710000  1
  Li  Li6  1  0.96943300  0.31379100  0.31290000  1
  Li  Li7  1  0.40682500  0.04478300  0.02935800  1
  P  P0  1  0.50000000  0.50000000  0.00000000  1
  Se  Se0  1  0.38832700  0.64651300  0.27106600  1
  Se  Se1  1  0.88273900  0.61167300  0.25818500  1
  Se  Se2  1  0.35348700  0.62455300  0.74181500  1
  Se  Se3  1  0.37544700  0.11726100  0.72893400  1
  Se  Se4  1  0.00000000  0.00000000  0.00000000  1
  Se  Se5  1  0.75000000  0.25000000  0.50000000  1
loop_
_geom_bond_atom_site_label_1
_geom_bond_atom_site_label_2
_geom_bond_distance
_geom_bond_site_symmetry_2
Li0 Se4 2.464092 1_666
Li0 Se0 2.506898 1_555
Li0 Se3 2.712600 1_565
Li0 Se5 2.851650 1_565
Li1 Se4 2.464089 1_555
Li1 Se3 2.506901 1_555
Li1 Se0 2.712607 1_545
Li1 Se5 2.851647 1_555
Li2 Se0 2.497489 1_556
Li2 Se5 2.625753 1_455
Li2 Se1 2.661151 1_456
Li2 Se4 2.984254 1_556
Li3 Se2 2.497499 1_555
Li3 Se5 2.625747 1_555
Li3 Se0 2.661155 1_555
Li3 Se4 2.984258 1_666
Li4 Se1 2.497484 1_555
Li4 Se5 2.625751 1_565
Li4 Se3 2.661154 1_665
Li4 Se4 2.984262 1_665
Li5 Se4 2.464089 1_566
Li5 Se2 2.506898 1_555
Li5 Se1 2.712614 1_455
Li5 Se5 2.851647 1_455
Li6 Se4 2.464093 1_655
Li6 Se1 2.506897 1_555
Li6 Se2 2.712607 1_655
Li6 Se5 2.851650 1_555
Li7 Se3 2.497487 1_554
Li7 Se5 2.625751 1_555
Li7 Se2 2.661153 1_544
Li7 Se4 2.984262 1_555
P0 Se2 2.355366 1_554
P0 Se1 2.355371 1_555
P0 Se0 2.355372 1_555
P0 Se3 2.355372 1_554
