# generated using pymatgen
data_Sr6Mg(W2O9)2
_symmetry_space_group_name_H-M   'P 1'
_cell_length_a   7.49518781
_cell_length_b   8.89628656
_cell_length_c   7.25231392
_cell_angle_alpha   79.97304023
_cell_angle_beta   81.27440328
_cell_angle_gamma   77.87574419
_symmetry_Int_Tables_number   1
_chemical_formula_structural   Sr6Mg(W2O9)2
_chemical_formula_sum   'Sr6 Mg1 W4 O18'
_cell_volume   462.23045103
_cell_formula_units_Z   1
loop_
 _symmetry_equiv_pos_site_id
 _symmetry_equiv_pos_as_xyz
  1  'x, y, z'
loop_
 _atom_site_type_symbol
 _atom_site_label
 _atom_site_symmetry_multiplicity
 _atom_site_fract_x
 _atom_site_fract_y
 _atom_site_fract_z
 _atom_site_occupancy
  Sr  Sr0  1  0.22038400  0.00890900  0.73314900  1
  Sr  Sr1  1  0.15654800  0.48011700  0.78702000  1
  Sr  Sr2  1  0.47033700  0.71036300  0.13233300  1
  Sr  Sr3  1  0.72116200  0.28373600  0.93742900  1
  Sr  Sr4  1  0.98868700  0.65020100  0.25829400  1
  Sr  Sr5  1  0.65386800  0.99786400  0.35993200  1
  Mg  Mg0  1  0.73609600  0.32677800  0.39190000  1
  W  W0  1  0.82991700  0.83647800  0.82303500  1
  W  W1  1  0.34831700  0.33862500  0.32993300  1
  W  W2  1  0.14774600  0.15360100  0.15962600  1
  W  W3  1  0.63922500  0.64206600  0.64959200  1
  O  O0  1  0.21099400  0.94283800  0.13495200  1
  O  O1  1  0.07564700  0.76097700  0.86120300  1
  O  O2  1  0.55560400  0.83767300  0.78611000  1
  O  O3  1  0.23697100  0.52186400  0.43317500  1
  O  O4  1  0.18530700  0.17298700  0.42947200  1
  O  O5  1  0.13841200  0.40248400  0.14769700  1
  O  O6  1  0.47652300  0.52727300  0.78819300  1
  O  O7  1  0.51289100  0.75680400  0.45395000  1
  O  O8  1  0.74509600  0.83767900  0.08299200  1
  O  O9  1  0.08777500  0.22311600  0.89348100  1
  O  O10  1  0.52184600  0.22668500  0.51240500  1
  O  O11  1  0.85193500  0.78278000  0.55671600  1
  O  O12  1  0.56658000  0.43362600  0.20155600  1
  O  O13  1  0.80089000  0.59331600  0.86092100  1
  O  O14  1  0.79305600  0.48873700  0.51532700  1
  O  O15  1  0.43319100  0.17878700  0.13871900  1
  O  O16  1  0.87557500  0.17347700  0.23355000  1
  O  O17  1  0.84085000  0.04051700  0.74662700  1
loop_
_geom_bond_atom_site_label_1
_geom_bond_atom_site_label_2
_geom_bond_distance
_geom_bond_site_symmetry_2
Mg0 O16 1.963144 1_555
Mg0 O14 1.970529 1_555
Mg0 O12 1.997836 1_555
Mg0 O10 2.009799 1_555
O0 W2 1.868188 1_565
O0 Sr2 2.523860 1_555
O0 Sr0 2.863663 1_564
O1 W0 1.868222 1_455
O1 Sr1 2.575436 1_555
O1 Sr0 2.624972 1_565
O1 Sr4 2.898530 1_456
O2 W3 2.086817 1_555
O2 W0 2.110913 1_555
O2 Sr2 2.612047 1_556
O2 Sr0 2.694857 1_565
O3 W1 1.891677 1_555
O3 Sr4 2.386322 1_455
O3 Sr1 2.525762 1_555
O4 W2 2.060089 1_555
O4 W1 2.074497 1_555
O4 Sr0 2.438281 1_555
O5 W1 2.130404 1_555
O5 W2 2.187427 1_555
O5 Sr4 2.462282 1_455
O5 Sr1 2.576830 1_554
O6 W3 1.825979 1_555
O6 Sr1 2.521476 1_555
O6 Sr3 2.710050 1_555
O7 W3 1.857142 1_555
O7 Sr2 2.515843 1_555
O7 Sr5 2.530724 1_555
O8 W0 1.897134 1_554
O8 Sr2 2.503401 1_555
O8 Sr4 2.533417 1_555
O8 Sr5 2.588994 1_555
O9 W2 2.010185 1_556
O9 Sr0 2.365747 1_555
O9 Sr1 2.418439 1_555
O9 Sr3 2.667331 1_455
O10 W1 1.988424 1_555
O10 Sr5 2.439576 1_545
O11 W0 2.043852 1_555
O11 W3 2.186664 1_555
O11 Sr5 2.529932 1_555
O11 Sr4 2.614136 1_555
O12 W1 2.025343 1_555
O12 Sr2 2.401453 1_555
O12 Sr3 2.521288 1_554
O13 W3 2.028918 1_555
O13 W0 2.185181 1_555
O13 Sr1 2.652221 1_655
O13 Sr3 2.882483 1_555
O13 Sr2 3.040957 1_556
O14 W3 1.897216 1_555
O14 Sr4 2.609827 1_555
O15 W1 2.094934 1_555
O15 W2 2.177525 1_555
O15 Sr5 2.586080 1_545
O15 Sr3 2.660333 1_554
O16 W2 2.007447 1_655
O16 Sr5 2.484359 1_545
O16 Sr3 2.541130 1_554
O17 W0 1.818553 1_545
O17 Sr3 2.692944 1_555
O17 Sr0 2.787475 1_655
