# generated using pymatgen
data_Rb3TaF12
_symmetry_space_group_name_H-M   'P 1'
_cell_length_a   8.29055612
_cell_length_b   8.29055612
_cell_length_c   7.74917974
_cell_angle_alpha   87.84438391
_cell_angle_beta   87.84438391
_cell_angle_gamma   127.20455071
_symmetry_Int_Tables_number   1
_chemical_formula_structural   Rb3TaF12
_chemical_formula_sum   'Rb3 Ta1 F12'
_cell_volume   422.70674126
_cell_formula_units_Z   1
loop_
 _symmetry_equiv_pos_site_id
 _symmetry_equiv_pos_as_xyz
  1  'x, y, z'
loop_
 _atom_site_type_symbol
 _atom_site_label
 _atom_site_symmetry_multiplicity
 _atom_site_fract_x
 _atom_site_fract_y
 _atom_site_fract_z
 _atom_site_occupancy
  Rb  Rb0  1  0.00000000  0.00000000  0.50000000  1
  Rb  Rb1  1  0.00000000  0.50000000  0.00000000  1
  Rb  Rb2  1  0.50000000  0.00000000  0.00000000  1
  Ta  Ta0  1  0.00000000  0.00000000  0.00000000  1
  F  F0  1  0.29823300  0.14313700  0.08593500  1
  F  F1  1  0.70176700  0.85686300  0.91406500  1
  F  F2  1  0.81628600  0.98393800  0.18147800  1
  F  F3  1  0.85686300  0.70176700  0.91406500  1
  F  F4  1  0.18371400  0.01606200  0.81852200  1
  F  F5  1  0.14313700  0.29823300  0.08593500  1
  F  F6  1  0.88169100  0.60459500  0.68647400  1
  F  F7  1  0.01606200  0.18371400  0.81852200  1
  F  F8  1  0.11830900  0.39540500  0.31352600  1
  F  F9  1  0.98393800  0.81628600  0.18147800  1
  F  F10  1  0.39540500  0.11830900  0.31352600  1
  F  F11  1  0.60459500  0.88169100  0.68647400  1
loop_
_geom_bond_atom_site_label_1
_geom_bond_atom_site_label_2
_geom_bond_distance
_geom_bond_site_symmetry_2
F0 Ta0 2.144773 1_555
F0 Rb2 2.650663 1_555
F1 Ta0 2.144773 1_666
F1 Rb2 2.650663 1_566
F2 Ta0 1.973510 1_665
F2 Rb0 2.914143 1_665
F2 Rb2 3.091421 1_565
F3 Ta0 2.144773 1_666
F3 Rb1 2.650663 1_656
F4 Ta0 1.973510 1_556
F4 Rb0 2.914143 1_555
F4 Rb2 3.091421 1_556
F5 Ta0 2.144773 1_555
F5 Rb1 2.650663 1_555
F6 Rb1 2.943838 1_656
F6 Rb0 3.073255 1_665
F7 Ta0 1.973510 1_556
F7 Rb0 2.914143 1_555
F7 Rb1 3.091421 1_556
F8 Rb1 2.943838 1_555
F8 Rb0 3.073255 1_555
F9 Ta0 1.973510 1_665
F9 Rb0 2.914143 1_665
F9 Rb1 3.091421 1_655
F10 Rb2 2.943838 1_555
F10 Rb0 3.073255 1_555
F11 Rb2 2.943838 1_566
F11 Rb0 3.073255 1_665
