# generated using pymatgen
data_CsK2As
_symmetry_space_group_name_H-M   'P 1'
_cell_length_a   5.95404982
_cell_length_b   5.95404982
_cell_length_c   5.95404982
_cell_angle_alpha   60.00000000
_cell_angle_beta   60.00000000
_cell_angle_gamma   60.00000000
_symmetry_Int_Tables_number   1
_chemical_formula_structural   CsK2As
_chemical_formula_sum   'Cs1 K2 As1'
_cell_volume   149.25276791
_cell_formula_units_Z   1
loop_
 _symmetry_equiv_pos_site_id
 _symmetry_equiv_pos_as_xyz
  1  'x, y, z'
loop_
 _atom_site_type_symbol
 _atom_site_label
 _atom_site_symmetry_multiplicity
 _atom_site_fract_x
 _atom_site_fract_y
 _atom_site_fract_z
 _atom_site_occupancy
  Cs  Cs0  1  0.00000000  0.00000000  0.00000000  1
  K  K0  1  0.25000000  0.25000000  0.25000000  1
  K  K1  1  0.75000000  0.75000000  0.75000000  1
  As  As0  1  0.50000000  0.50000000  0.50000000  1
loop_
_geom_bond_atom_site_label_1
_geom_bond_atom_site_label_2
_geom_bond_distance
_geom_bond_site_symmetry_2
Cs0 K0 3.646096 1_455
Cs0 K1 3.646096 1_544
Cs0 K1 3.646096 1_454
Cs0 K0 3.646096 1_545
Cs0 K1 3.646096 1_444
Cs0 K1 3.646096 1_445
Cs0 K0 3.646096 1_555
Cs0 K0 3.646096 1_554
As0 K1 3.646096 1_455
As0 K0 3.646096 1_655
As0 K1 3.646096 1_554
As0 K0 3.646096 1_556
As0 K0 3.646096 1_565
As0 K1 3.646096 1_555
As0 K1 3.646096 1_545
As0 K0 3.646096 1_555
As0 Cs0 4.210149 1_665
As0 Cs0 4.210149 1_565
As0 Cs0 4.210149 1_566
As0 Cs0 4.210149 1_656
As0 Cs0 4.210149 1_655
As0 Cs0 4.210149 1_556
