# generated using pymatgen
data_Li4P2O7
_symmetry_space_group_name_H-M   'P 1'
_cell_length_a   5.30050300
_cell_length_b   8.59658400
_cell_length_c   13.95281911
_cell_angle_alpha   67.84074955
_cell_angle_beta   90.00000000
_cell_angle_gamma   90.00000000
_symmetry_Int_Tables_number   1
_chemical_formula_structural   Li4P2O7
_chemical_formula_sum   'Li16 P8 O28'
_cell_volume   588.81812268
_cell_formula_units_Z   4
loop_
 _symmetry_equiv_pos_site_id
 _symmetry_equiv_pos_as_xyz
  1  'x, y, z'
loop_
 _atom_site_type_symbol
 _atom_site_label
 _atom_site_symmetry_multiplicity
 _atom_site_fract_x
 _atom_site_fract_y
 _atom_site_fract_z
 _atom_site_occupancy
  Li  Li0  1  0.68037500  0.44355900  0.30921000  1
  Li  Li1  1  0.81962500  0.44355900  0.80921000  1
  Li  Li2  1  0.31962500  0.55644100  0.69079000  1
  Li  Li3  1  0.18037500  0.55644100  0.19079000  1
  Li  Li4  1  0.65814700  0.05097600  0.41934100  1
  Li  Li5  1  0.84185300  0.05097600  0.91934100  1
  Li  Li6  1  0.34185300  0.94902400  0.58065900  1
  Li  Li7  1  0.15814700  0.94902400  0.08065900  1
  Li  Li8  1  0.86593900  0.11434900  0.23368900  1
  Li  Li9  1  0.63406100  0.11434900  0.73368900  1
  Li  Li10  1  0.13406100  0.88565100  0.76631100  1
  Li  Li11  1  0.36593900  0.88565100  0.26631100  1
  Li  Li12  1  0.31228600  0.53940300  0.41812300  1
  Li  Li13  1  0.18771400  0.53940300  0.91812300  1
  Li  Li14  1  0.68771400  0.46059700  0.58187700  1
  Li  Li15  1  0.81228600  0.46059700  0.08187700  1
  P  P0  1  0.34401200  0.26518400  0.11036200  1
  P  P1  1  0.15598800  0.26518400  0.61036200  1
  P  P2  1  0.65598800  0.73481600  0.88963800  1
  P  P3  1  0.84401200  0.73481600  0.38963800  1
  P  P4  1  0.15539600  0.24478800  0.39313600  1
  P  P5  1  0.34460400  0.24478800  0.89313600  1
  P  P6  1  0.84460400  0.75521200  0.60686400  1
  P  P7  1  0.65539600  0.75521200  0.10686400  1
  O  O0  1  0.30223600  0.08138800  0.43280900  1
  O  O1  1  0.19776400  0.08138800  0.93280900  1
  O  O2  1  0.69776400  0.91861200  0.56719100  1
  O  O3  1  0.80223600  0.91861200  0.06719100  1
  O  O4  1  0.90087700  0.23383300  0.34326200  1
  O  O5  1  0.59912300  0.23383300  0.84326200  1
  O  O6  1  0.09912300  0.76616700  0.65673800  1
  O  O7  1  0.40087700  0.76616700  0.15673800  1
  O  O8  1  0.31072600  0.39894100  0.32631100  1
  O  O9  1  0.18927400  0.39894100  0.82631100  1
  O  O10  1  0.68927400  0.60105900  0.67368900  1
  O  O11  1  0.81072600  0.60105900  0.17368900  1
  O  O12  1  0.07563100  0.29079200  0.49225700  1
  O  O13  1  0.42436900  0.29079200  0.99225700  1
  O  O14  1  0.92436900  0.70920800  0.50774300  1
  O  O15  1  0.57563100  0.70920800  0.00774300  1
  O  O16  1  0.67470000  0.58181000  0.40516800  1
  O  O17  1  0.82530000  0.58181000  0.90516800  1
  O  O18  1  0.32530000  0.41819000  0.59483200  1
  O  O19  1  0.17470000  0.41819000  0.09483200  1
  O  O20  1  0.09830700  0.73048300  0.34028600  1
  O  O21  1  0.40169300  0.73048300  0.84028600  1
  O  O22  1  0.90169300  0.26951700  0.65971400  1
  O  O23  1  0.59830700  0.26951700  0.15971400  1
  O  O24  1  0.70166300  0.90243500  0.33860400  1
  O  O25  1  0.79833700  0.90243500  0.83860400  1
  O  O26  1  0.29833700  0.09756500  0.66139600  1
  O  O27  1  0.20166300  0.09756500  0.16139600  1
loop_
_geom_bond_atom_site_label_1
_geom_bond_atom_site_label_2
_geom_bond_distance
_geom_bond_site_symmetry_2
Li0 O11 1.988659 1_555
Li0 O8 1.993482 1_555
Li0 O4 2.048443 1_555
Li0 O16 2.099142 1_555
Li1 O10 1.988659 1_555
Li1 O9 1.993482 1_655
Li1 O5 2.048443 1_555
Li1 O17 2.099142 1_555
Li2 O9 1.988659 1_555
Li2 O10 1.993482 1_555
Li2 O6 2.048443 1_555
Li2 O18 2.099142 1_555
Li3 O8 1.988659 1_555
Li3 O11 1.993482 1_455
Li3 O7 2.048443 1_555
Li3 O19 2.099142 1_555
Li4 O0 1.923443 1_555
Li4 O2 1.955443 1_545
Li4 O4 1.998594 1_555
Li4 O24 2.009467 1_545
Li5 O1 1.923443 1_655
Li5 O3 1.955443 1_546
Li5 O5 1.998594 1_555
Li5 O25 2.009467 1_545
Li6 O2 1.923443 1_555
Li6 O0 1.955443 1_565
Li6 O6 1.998594 1_555
Li6 O26 2.009467 1_565
Li7 O3 1.923443 1_455
Li7 O1 1.955443 1_564
Li7 O7 1.998594 1_555
Li7 O27 2.009467 1_565
Li8 O23 1.954084 1_555
Li8 O24 2.051364 1_545
Li8 O27 2.077187 1_655
Li8 O4 2.147408 1_555
Li9 O22 1.954084 1_555
Li9 O25 2.051364 1_545
Li9 O26 2.077187 1_555
Li9 O5 2.147408 1_555
Li10 O21 1.954084 1_555
Li10 O26 2.051364 1_565
Li10 O25 2.077187 1_455
Li10 O6 2.147408 1_555
Li11 O20 1.954084 1_555
Li11 O27 2.051364 1_565
Li11 O24 2.077187 1_555
Li11 O7 2.147408 1_555
Li12 O16 1.950901 1_555
Li12 O20 1.954067 1_555
Li12 O8 2.065441 1_555
Li12 O18 2.287266 1_555
Li12 O12 2.354448 1_555
Li13 O17 1.950901 1_455
Li13 O21 1.954067 1_555
Li13 O9 2.065441 1_555
Li13 O19 2.287266 1_556
Li13 O13 2.354448 1_555
Li14 O18 1.950901 1_555
Li14 O22 1.954067 1_555
Li14 O10 2.065441 1_555
Li14 O16 2.287266 1_555
Li14 O14 2.354448 1_555
Li15 O19 1.950901 1_655
Li15 O23 1.954067 1_555
Li15 O11 2.065441 1_555
Li15 O17 2.287266 1_554
Li15 O15 2.354448 1_555
O0 P4 1.516171 1_555
O1 P5 1.516171 1_555
O2 P6 1.516171 1_555
O3 P7 1.516171 1_555
O4 P4 1.537066 1_655
O5 P5 1.537066 1_555
O6 P6 1.537066 1_455
O7 P7 1.537066 1_555
O8 P4 1.539891 1_555
O9 P5 1.539891 1_555
O10 P6 1.539891 1_555
O11 P7 1.539891 1_555
O12 P4 1.631103 1_555
O12 P1 1.634560 1_555
O13 P5 1.631103 1_555
O13 P0 1.634560 1_556
O14 P6 1.631103 1_555
O14 P3 1.634560 1_555
O15 P7 1.631103 1_555
O15 P2 1.634560 1_554
O16 P3 1.538647 1_555
O17 P2 1.538647 1_555
O18 P1 1.538647 1_555
O19 P0 1.538647 1_555
O20 P3 1.520433 1_455
O21 P2 1.520433 1_555
O22 P1 1.520433 1_655
O23 P0 1.520433 1_555
O24 P3 1.542292 1_555
O25 P2 1.542292 1_555
O26 P1 1.542292 1_555
O27 P0 1.542292 1_555
