# generated using pymatgen
data_Nd4MgTa4Ti4O24
_symmetry_space_group_name_H-M   'P 1'
_cell_length_a   5.34813602
_cell_length_b   7.70109684
_cell_length_c   11.39760018
_cell_angle_alpha   90.06803003
_cell_angle_beta   92.30839924
_cell_angle_gamma   90.24264296
_symmetry_Int_Tables_number   1
_chemical_formula_structural   Nd4MgTa4Ti4O24
_chemical_formula_sum   'Nd4 Mg1 Ta4 Ti4 O24'
_cell_volume   469.04183393
_cell_formula_units_Z   1
loop_
 _symmetry_equiv_pos_site_id
 _symmetry_equiv_pos_as_xyz
  1  'x, y, z'
loop_
 _atom_site_type_symbol
 _atom_site_label
 _atom_site_symmetry_multiplicity
 _atom_site_fract_x
 _atom_site_fract_y
 _atom_site_fract_z
 _atom_site_occupancy
  Nd  Nd0  1  0.55579836  0.25096648  0.97652297  1
  Nd  Nd1  1  0.95044652  0.24621460  0.55552615  1
  Nd  Nd2  1  0.46723220  0.75016718  0.95998268  1
  Nd  Nd3  1  0.03425078  0.74813208  0.45879382  1
  Mg  Mg0  1  0.66702733  0.27172704  0.23314281  1
  Ta  Ta0  1  0.52734331  0.99391082  0.36817076  1
  Ta  Ta1  1  0.45079533  0.50428882  0.64842540  1
  Ta  Ta2  1  0.05741915  0.51264753  0.14205996  1
  Ta  Ta3  1  0.97153458  0.99528594  0.85218914  1
  Ti  Ti0  1  0.97214657  0.50014726  0.85796793  1
  Ti  Ti1  1  0.04442804  0.99813301  0.14010345  1
  Ti  Ti2  1  0.45496972  0.99052969  0.64186374  1
  Ti  Ti3  1  0.51893493  0.50444164  0.38068255  1
  O  O0  1  0.88728809  0.24908114  0.86292664  1
  O  O1  1  0.63990187  0.24862578  0.39765131  1
  O  O2  1  0.15662194  0.75282436  0.12715216  1
  O  O3  1  0.34472311  0.74899410  0.62014046  1
  O  O4  1  0.37980255  0.07222619  0.21661194  1
  O  O5  1  0.12378200  0.44716376  0.71162888  1
  O  O6  1  0.62125688  0.55167879  0.79678712  1
  O  O7  1  0.85797686  0.96191775  0.28393498  1
  O  O8  1  0.62213075  0.94665508  0.79151005  1
  O  O9  1  0.86012570  0.53132404  0.28086731  1
  O  O10  1  0.37607433  0.43561602  0.21786075  1
  O  O11  1  0.12873027  0.04865694  0.70741608  1
  O  O12  1  0.92519424  0.25161208  0.12512669  1
  O  O13  1  0.54095456  0.25135509  0.64593673  1
  O  O14  1  0.06578886  0.74845360  0.85256474  1
  O  O15  1  0.43902533  0.74842355  0.36142952  1
  O  O16  1  0.77778370  0.53746328  0.01792826  1
  O  O17  1  0.72809908  0.95736594  0.52578111  1
  O  O18  1  0.24517000  0.03174594  0.97348306  1
  O  O19  1  0.24587593  0.46388241  0.48206362  1
  O  O20  1  0.24134259  0.46923551  0.97890333  1
  O  O21  1  0.25113697  0.03292180  0.47636315  1
  O  O22  1  0.78142866  0.96410383  0.01473540  1
  O  O23  1  0.72495889  0.54100191  0.53005136  1
loop_
_geom_bond_atom_site_label_1
_geom_bond_atom_site_label_2
_geom_bond_distance
_geom_bond_site_symmetry_2
Nd0 O0 2.237098 1_555
Nd0 O18 2.362770 1_555
Nd0 O20 2.383694 1_555
Nd0 O16 2.535807 1_556
Nd0 O12 2.549901 1_556
Nd0 O22 2.551219 1_546
Nd1 O1 2.399195 1_555
Nd1 O13 2.458055 1_555
Nd1 O19 2.468774 1_655
Nd1 O11 2.471110 1_655
Nd1 O21 2.496801 1_655
Nd1 O5 2.503637 1_655
Nd1 O17 2.533873 1_545
Nd1 O23 2.586287 1_555
Nd2 O16 2.411461 1_556
Nd2 O22 2.411869 1_556
Nd2 O14 2.428286 1_555
Nd2 O18 2.484371 1_565
Nd2 O20 2.487287 1_555
Nd2 O6 2.569473 1_555
Nd2 O2 2.577869 1_556
Nd2 O8 2.605283 1_555
Nd3 O3 2.427513 1_555
Nd3 O17 2.445470 1_455
Nd3 O23 2.455435 1_455
Nd3 O15 2.472101 1_555
Nd3 O19 2.478178 1_555
Nd3 O21 2.480796 1_565
Nd3 O7 2.727793 1_455
Nd3 O9 2.755750 1_455
Mg0 O12 1.893230 1_555
Mg0 O1 1.894944 1_555
Mg0 O10 2.009958 1_555
Mg0 O4 2.170625 1_555
Mg0 O9 2.300823 1_555
O0 Ti0 1.985552 1_555
O0 Ta3 2.012310 1_545
O1 Ta0 2.072494 1_545
O1 Ti3 2.082958 1_555
O2 Ta2 1.931622 1_555
O2 Ti1 1.991675 1_555
O3 Ti2 1.961310 1_555
O3 Ta1 1.993200 1_555
O4 Ta0 1.966472 1_545
O4 Ti1 2.041384 1_545
O5 Ti0 1.927756 1_455
O5 Ta1 1.966439 1_555
O6 Ta1 1.922291 1_555
O6 Ti0 2.016665 1_555
O7 Ti1 1.972297 1_655
O7 Ta0 2.061346 1_555
O8 Ti2 1.924473 1_555
O8 Ta3 1.999950 1_555
O9 Ta2 1.942215 1_655
O9 Ti3 2.198036 1_555
O10 Ta2 1.973279 1_555
O10 Ti3 2.046610 1_555
O11 Ta3 1.925842 1_445
O11 Ti2 1.978299 1_545
O12 Ti1 2.061287 1_645
O12 Ta2 2.134129 1_655
O13 Ta1 2.009084 1_555
O13 Ti2 2.058762 1_545
O14 Ta3 1.968610 1_455
O14 Ti0 1.976331 1_455
O15 Ti3 1.939431 1_555
O15 Ta0 1.947369 1_555
O16 Ta2 2.026675 1_655
O16 Ti0 2.154293 1_554
O17 Ti2 2.026699 1_555
O17 Ta0 2.075413 1_555
O18 Ta3 1.991057 1_445
O18 Ti1 2.233639 1_546
O19 Ti3 1.923100 1_555
O19 Ta1 2.172903 1_555
O20 Ti0 1.968028 1_455
O20 Ta2 2.164737 1_556
O21 Ta0 1.985593 1_545
O21 Ti2 2.166090 1_545
O22 Ti1 1.980632 1_655
O22 Ta3 2.162027 1_554
O23 Ti3 2.009174 1_555
O23 Ta1 2.051075 1_555
