# generated using pymatgen
data_CaAl2Si2(ClO4)2
_symmetry_space_group_name_H-M   'P 1'
_cell_length_a   9.56875715
_cell_length_b   9.56875715
_cell_length_c   9.56875748
_cell_angle_alpha   95.54030686
_cell_angle_beta   95.54030686
_cell_angle_gamma   95.54030540
_symmetry_Int_Tables_number   1
_chemical_formula_structural   CaAl2Si2(ClO4)2
_chemical_formula_sum   'Ca3 Al6 Si6 Cl6 O24'
_cell_volume   862.98944291
_cell_formula_units_Z   3
loop_
 _symmetry_equiv_pos_site_id
 _symmetry_equiv_pos_as_xyz
  1  'x, y, z'
loop_
 _atom_site_type_symbol
 _atom_site_label
 _atom_site_symmetry_multiplicity
 _atom_site_fract_x
 _atom_site_fract_y
 _atom_site_fract_z
 _atom_site_occupancy
  Ca  Ca0  1  0.77022000  0.77022000  0.77022000  1
  Ca  Ca1  1  0.23498700  0.23498700  0.23498700  1
  Ca  Ca2  1  0.98491200  0.98491200  0.98491200  1
  Al  Al0  1  0.66756700  0.10596600  0.88669500  1
  Al  Al1  1  0.88669500  0.10596600  0.66756700  1
  Al  Al2  1  0.10596600  0.88669500  0.66756700  1
  Al  Al3  1  0.10596600  0.66756700  0.88669500  1
  Al  Al4  1  0.88669500  0.66756700  0.10596600  1
  Al  Al5  1  0.66756700  0.88669500  0.10596600  1
  Si  Si0  1  0.32433600  0.89869100  0.11091400  1
  Si  Si1  1  0.11091400  0.89869100  0.32433600  1
  Si  Si2  1  0.89869100  0.11091400  0.32433600  1
  Si  Si3  1  0.89869100  0.32433600  0.11091400  1
  Si  Si4  1  0.11091400  0.32433600  0.89869100  1
  Si  Si5  1  0.32433600  0.11091400  0.89869100  1
  Cl  Cl0  1  0.54622000  0.73904100  0.54622000  1
  Cl  Cl1  1  0.73904100  0.54622000  0.54622000  1
  Cl  Cl2  1  0.54622000  0.54622000  0.73904100  1
  Cl  Cl3  1  0.45543000  0.25714500  0.45543000  1
  Cl  Cl4  1  0.25714500  0.45543000  0.45543000  1
  Cl  Cl5  1  0.45543000  0.45543000  0.25714500  1
  O  O0  1  0.71485200  0.09201200  0.71485200  1
  O  O1  1  0.09201200  0.71485200  0.71485200  1
  O  O2  1  0.71485200  0.71485200  0.09201200  1
  O  O3  1  0.26940800  0.91016100  0.26940800  1
  O  O4  1  0.91016100  0.26940800  0.26940800  1
  O  O5  1  0.26940800  0.26940800  0.91016100  1
  O  O6  1  0.94316000  0.72607100  0.94316000  1
  O  O7  1  0.72607100  0.94316000  0.94316000  1
  O  O8  1  0.94316000  0.94316000  0.72607100  1
  O  O9  1  0.05705900  0.28067700  0.05705900  1
  O  O10  1  0.28067700  0.05705900  0.05705900  1
  O  O11  1  0.05705900  0.05705900  0.28067700  1
  O  O12  1  0.12227700  0.49066400  0.89612600  1
  O  O13  1  0.89612600  0.49066400  0.12227700  1
  O  O14  1  0.49066400  0.89612600  0.12227700  1
  O  O15  1  0.49066400  0.12227700  0.89612600  1
  O  O16  1  0.89612600  0.12227700  0.49066400  1
  O  O17  1  0.12227700  0.89612600  0.49066400  1
  O  O18  1  0.23128300  0.00173100  0.78001000  1
  O  O19  1  0.78001000  0.00173100  0.23128300  1
  O  O20  1  0.00173100  0.78001000  0.23128300  1
  O  O21  1  0.00173100  0.23128300  0.78001000  1
  O  O22  1  0.78001000  0.23128300  0.00173100  1
  O  O23  1  0.23128300  0.78001000  0.00173100  1
loop_
_geom_bond_atom_site_label_1
_geom_bond_atom_site_label_2
_geom_bond_distance
_geom_bond_site_symmetry_2
Ca0 O7 2.323044 1_555
Ca0 O6 2.323044 1_555
Ca0 O8 2.323044 1_555
Ca0 Cl2 2.853647 1_555
Ca0 Cl0 2.853647 1_555
Ca0 Cl1 2.853647 1_555
Ca1 O9 2.390865 1_555
Ca1 O10 2.390865 1_555
Ca1 O11 2.390865 1_555
Ca1 Cl5 2.812817 1_555
Ca1 Cl4 2.812817 1_555
Ca1 Cl3 2.812817 1_555
Ca2 O6 2.457792 1_555
Ca2 O7 2.457792 1_555
Ca2 O8 2.457792 1_555
Ca2 O10 2.848882 1_666
Ca2 O9 2.848882 1_666
Ca2 O11 2.848882 1_666
Al0 O15 1.725013 1_555
Al0 O0 1.743352 1_555
Al0 O22 1.753433 1_556
Al0 O7 1.817892 1_545
Al1 O16 1.725013 1_555
Al1 O0 1.743352 1_555
Al1 O21 1.753433 1_655
Al1 O8 1.817892 1_545
Al2 O17 1.725013 1_555
Al2 O1 1.743352 1_555
Al2 O18 1.753433 1_565
Al2 O8 1.817892 1_455
Al3 O12 1.725013 1_555
Al3 O1 1.743352 1_555
Al3 O23 1.753433 1_556
Al3 O6 1.817892 1_455
Al4 O13 1.725013 1_555
Al4 O2 1.743352 1_555
Al4 O20 1.753433 1_655
Al4 O6 1.817892 1_554
Al5 O14 1.725013 1_555
Al5 O2 1.743352 1_555
Al5 O19 1.753433 1_565
Al5 O7 1.817892 1_554
O3 Si1 1.649622 1_555
O3 Si0 1.649622 1_555
O4 Si2 1.649622 1_555
O4 Si3 1.649622 1_555
O5 Si4 1.649622 1_555
O5 Si5 1.649622 1_555
O9 Si3 1.722770 1_455
O9 Si4 1.722770 1_554
O10 Si0 1.722770 1_545
O10 Si5 1.722770 1_554
O11 Si1 1.722770 1_545
O11 Si2 1.722770 1_455
O12 Si4 1.587484 1_555
O13 Si3 1.587484 1_555
O14 Si0 1.587484 1_555
O15 Si5 1.587484 1_555
O16 Si2 1.587484 1_555
O17 Si1 1.587484 1_555
O18 Si5 1.603122 1_555
O19 Si2 1.603122 1_555
O20 Si1 1.603122 1_555
O21 Si4 1.603122 1_555
O22 Si3 1.603122 1_555
O23 Si0 1.603122 1_555
