# generated using pymatgen
data_PrIr3
_symmetry_space_group_name_H-M   'P 1'
_cell_length_a   6.04527859
_cell_length_b   6.04527859
_cell_length_c   4.67005100
_cell_angle_alpha   90.00000000
_cell_angle_beta   90.00000000
_cell_angle_gamma   120.00000644
_symmetry_Int_Tables_number   1
_chemical_formula_structural   PrIr3
_chemical_formula_sum   'Pr2 Ir6'
_cell_volume   147.80355023
_cell_formula_units_Z   2
loop_
 _symmetry_equiv_pos_site_id
 _symmetry_equiv_pos_as_xyz
  1  'x, y, z'
loop_
 _atom_site_type_symbol
 _atom_site_label
 _atom_site_symmetry_multiplicity
 _atom_site_fract_x
 _atom_site_fract_y
 _atom_site_fract_z
 _atom_site_occupancy
  Pr  Pr0  1  0.33333300  0.66666700  0.75000000  1
  Pr  Pr1  1  0.66666700  0.33333300  0.25000000  1
  Ir  Ir0  1  0.14907200  0.29814400  0.25000000  1
  Ir  Ir1  1  0.70185600  0.85092800  0.25000000  1
  Ir  Ir2  1  0.14907200  0.85092800  0.25000000  1
  Ir  Ir3  1  0.85092800  0.70185600  0.75000000  1
  Ir  Ir4  1  0.29814400  0.14907200  0.75000000  1
  Ir  Ir5  1  0.85092800  0.14907200  0.75000000  1
loop_
_geom_bond_atom_site_label_1
_geom_bond_atom_site_label_2
_geom_bond_distance
_geom_bond_site_symmetry_2
Ir0 Pr1 3.028245 1_455
Ir0 Pr1 3.028251 1_555
Ir0 Pr0 3.028984 1_555
Ir0 Pr0 3.028984 1_554
Ir1 Pr1 3.028245 1_565
Ir1 Pr1 3.028251 1_555
Ir1 Pr0 3.028984 1_555
Ir1 Pr0 3.028984 1_554
Ir2 Pr1 3.028248 1_455
Ir2 Pr1 3.028248 1_565
Ir2 Pr0 3.028981 1_555
Ir2 Pr0 3.028981 1_554
Ir3 Pr0 3.028245 1_655
Ir3 Pr0 3.028251 1_555
Ir3 Pr1 3.028984 1_555
Ir3 Pr1 3.028984 1_556
Ir4 Pr0 3.028245 1_545
Ir4 Pr0 3.028251 1_555
Ir4 Pr1 3.028984 1_556
Ir4 Pr1 3.028984 1_555
Ir5 Pr0 3.028248 1_545
Ir5 Pr0 3.028248 1_655
Ir5 Pr1 3.028981 1_556
Ir5 Pr1 3.028981 1_555
