# generated using pymatgen
data_Pr5Bi3Br
_symmetry_space_group_name_H-M   'P 1'
_cell_length_a   9.70037995
_cell_length_b   9.70037995
_cell_length_c   6.78091331
_cell_angle_alpha   90.00000000
_cell_angle_beta   90.00000000
_cell_angle_gamma   119.99999898
_symmetry_Int_Tables_number   1
_chemical_formula_structural   Pr5Bi3Br
_chemical_formula_sum   'Pr10 Bi6 Br2'
_cell_volume   552.58147201
_cell_formula_units_Z   2
loop_
 _symmetry_equiv_pos_site_id
 _symmetry_equiv_pos_as_xyz
  1  'x, y, z'
loop_
 _atom_site_type_symbol
 _atom_site_label
 _atom_site_symmetry_multiplicity
 _atom_site_fract_x
 _atom_site_fract_y
 _atom_site_fract_z
 _atom_site_occupancy
  Pr  Pr0  1  0.27366667  0.00000000  0.75000000  1
  Pr  Pr1  1  0.72633333  -0.00000000  0.25000000  1
  Pr  Pr2  1  0.00000000  0.27366667  0.75000000  1
  Pr  Pr3  1  -0.00000000  0.72633333  0.25000000  1
  Pr  Pr4  1  0.72633333  0.72633333  0.75000000  1
  Pr  Pr5  1  0.27366667  0.27366667  0.25000000  1
  Pr  Pr6  1  0.33333300  0.66666700  0.50000000  1
  Pr  Pr7  1  0.66666700  0.33333300  0.50000000  1
  Pr  Pr8  1  0.66666700  0.33333300  0.00000000  1
  Pr  Pr9  1  0.33333300  0.66666700  0.00000000  1
  Bi  Bi0  1  0.61577996  0.00000000  0.75000000  1
  Bi  Bi1  1  0.38422004  -0.00000000  0.25000000  1
  Bi  Bi2  1  0.00000000  0.61577996  0.75000000  1
  Bi  Bi3  1  -0.00000000  0.38422004  0.25000000  1
  Bi  Bi4  1  0.38422004  0.38422004  0.75000000  1
  Bi  Bi5  1  0.61577996  0.61577996  0.25000000  1
  Br  Br0  1  0.00000000  0.00000000  0.50000000  1
  Br  Br1  1  0.00000000  0.00000000  0.00000000  1
loop_
_geom_bond_atom_site_label_1
_geom_bond_atom_site_label_2
_geom_bond_distance
_geom_bond_site_symmetry_2
Bi0 Pr0 3.318629 1_555
Bi0 Pr4 3.323287 1_545
Bi0 Pr2 3.323287 1_655
Bi0 Pr7 3.460722 1_555
Bi0 Pr8 3.460722 1_556
Bi0 Pr9 3.460725 1_546
Bi0 Pr6 3.460725 1_545
Bi0 Pr1 3.556017 1_555
Bi0 Pr1 3.556017 1_556
Bi1 Pr1 3.318629 1_555
Bi1 Pr5 3.323287 1_555
Bi1 Pr3 3.323287 1_545
Bi1 Pr9 3.460722 1_545
Bi1 Pr6 3.460722 1_545
Bi1 Pr7 3.460725 1_555
Bi1 Pr8 3.460725 1_555
Bi1 Pr0 3.556017 1_554
Bi1 Pr0 3.556017 1_555
Bi2 Pr2 3.318629 1_555
Bi2 Pr4 3.323287 1_455
Bi2 Pr0 3.323287 1_565
Bi2 Pr6 3.460722 1_555
Bi2 Pr9 3.460722 1_556
Bi2 Pr7 3.460725 1_455
Bi2 Pr8 3.460725 1_456
Bi2 Pr3 3.556017 1_556
Bi2 Pr3 3.556017 1_555
Bi3 Pr3 3.318629 1_555
Bi3 Pr5 3.323287 1_555
Bi3 Pr1 3.323287 1_455
Bi3 Pr8 3.460722 1_455
Bi3 Pr7 3.460722 1_455
Bi3 Pr6 3.460725 1_555
Bi3 Pr9 3.460725 1_555
Bi3 Pr2 3.556017 1_555
Bi3 Pr2 3.556017 1_554
Bi4 Pr4 3.318629 1_555
Bi4 Pr0 3.323287 1_555
Bi4 Pr2 3.323287 1_555
Bi4 Pr7 3.460730 1_555
Bi4 Pr6 3.460730 1_555
Bi4 Pr8 3.460730 1_556
Bi4 Pr9 3.460730 1_556
Bi4 Pr5 3.556017 1_556
Bi4 Pr5 3.556017 1_555
Bi5 Pr5 3.318629 1_555
Bi5 Pr1 3.323287 1_565
Bi5 Pr3 3.323287 1_655
Bi5 Pr7 3.460730 1_555
Bi5 Pr6 3.460730 1_555
Bi5 Pr9 3.460730 1_555
Bi5 Pr8 3.460730 1_555
Bi5 Pr4 3.556017 1_555
Bi5 Pr4 3.556017 1_554
Br0 Pr0 3.149774 1_555
Br0 Pr1 3.149774 1_455
Br0 Pr2 3.149774 1_555
Br0 Pr3 3.149774 1_545
Br0 Pr5 3.149774 1_555
Br0 Pr4 3.149774 1_445
Br1 Pr2 3.149774 1_554
Br1 Pr0 3.149774 1_554
Br1 Pr1 3.149774 1_455
Br1 Pr3 3.149774 1_545
Br1 Pr5 3.149774 1_555
Br1 Pr4 3.149774 1_444
