# generated using pymatgen
data_Sr3NiPtO6
_symmetry_space_group_name_H-M   'P 1'
_cell_length_a   9.39972361
_cell_length_b   9.39972311
_cell_length_c   9.39972346
_cell_angle_alpha   118.00394169
_cell_angle_beta   61.99605438
_cell_angle_gamma   118.00394038
_symmetry_Int_Tables_number   1
_chemical_formula_structural   Sr3NiPtO6
_chemical_formula_sum   'Sr12 Ni4 Pt4 O24'
_cell_volume   613.47983857
_cell_formula_units_Z   4
loop_
 _symmetry_equiv_pos_site_id
 _symmetry_equiv_pos_as_xyz
  1  'x, y, z'
loop_
 _atom_site_type_symbol
 _atom_site_label
 _atom_site_symmetry_multiplicity
 _atom_site_fract_x
 _atom_site_fract_y
 _atom_site_fract_z
 _atom_site_occupancy
  Sr  Sr0  1  0.62500000  0.01087400  0.26087400  1
  Sr  Sr1  1  0.12500000  0.51087400  0.76087400  1
  Sr  Sr2  1  0.26087400  0.37500000  0.98912600  1
  Sr  Sr3  1  0.76087400  0.87500000  0.48912600  1
  Sr  Sr4  1  0.51087400  0.76087400  0.87500000  1
  Sr  Sr5  1  0.01087400  0.26087400  0.37500000  1
  Sr  Sr6  1  0.87500000  0.48912600  0.23912600  1
  Sr  Sr7  1  0.37500000  0.98912600  0.73912600  1
  Sr  Sr8  1  0.23912600  0.12500000  0.51087400  1
  Sr  Sr9  1  0.73912600  0.62500000  0.01087400  1
  Sr  Sr10  1  0.98912600  0.73912600  0.62500000  1
  Sr  Sr11  1  0.48912600  0.23912600  0.12500000  1
  Ni  Ni0  1  0.62500000  0.37500000  0.62500000  1
  Ni  Ni1  1  0.87500000  0.12500000  0.87500000  1
  Ni  Ni2  1  0.12500000  0.87500000  0.12500000  1
  Ni  Ni3  1  0.37500000  0.62500000  0.37500000  1
  Pt  Pt0  1  0.00000000  0.00000000  0.00000000  1
  Pt  Pt1  1  0.50000000  0.50000000  0.50000000  1
  Pt  Pt2  1  0.25000000  0.75000000  0.25000000  1
  Pt  Pt3  1  0.75000000  0.25000000  0.75000000  1
  O  O0  1  0.13319300  0.54291800  0.33238900  1
  O  O1  1  0.63319300  0.04291800  0.83238900  1
  O  O2  1  0.33238900  0.86680700  0.45708200  1
  O  O3  1  0.83238900  0.36680700  0.95708200  1
  O  O4  1  0.45708200  0.66761100  0.13319300  1
  O  O5  1  0.95708200  0.16761100  0.63319300  1
  O  O6  1  0.79291800  0.88319300  0.91761100  1
  O  O7  1  0.29291800  0.38319300  0.41761100  1
  O  O8  1  0.91761100  0.20708200  0.11680700  1
  O  O9  1  0.41761100  0.70708200  0.61680700  1
  O  O10  1  0.11680700  0.08238900  0.79291800  1
  O  O11  1  0.61680700  0.58238900  0.29291800  1
  O  O12  1  0.36680700  0.95708200  0.16761100  1
  O  O13  1  0.86680700  0.45708200  0.66761100  1
  O  O14  1  0.16761100  0.63319300  0.04291800  1
  O  O15  1  0.66761100  0.13319300  0.54291800  1
  O  O16  1  0.04291800  0.83238900  0.36680700  1
  O  O17  1  0.54291800  0.33238900  0.86680700  1
  O  O18  1  0.70708200  0.61680700  0.58238900  1
  O  O19  1  0.20708200  0.11680700  0.08238900  1
  O  O20  1  0.38319300  0.41761100  0.70708200  1
  O  O21  1  0.88319300  0.91761100  0.20708200  1
  O  O22  1  0.58238900  0.29291800  0.38319300  1
  O  O23  1  0.08238900  0.79291800  0.88319300  1
loop_
_geom_bond_atom_site_label_1
_geom_bond_atom_site_label_2
_geom_bond_distance
_geom_bond_site_symmetry_2
Ni0 O15 2.199948 1_555
Ni0 O18 2.199948 1_555
Ni0 O17 2.199948 1_555
Ni0 O20 2.199948 1_555
Ni0 O22 2.199948 1_555
Ni0 O13 2.199948 1_555
Ni1 O3 2.199948 1_555
Ni1 O6 2.199948 1_545
Ni1 O5 2.199948 1_555
Ni1 O10 2.199948 1_655
Ni1 O8 2.199948 1_556
Ni1 O1 2.199948 1_555
Ni2 O14 2.199948 1_555
Ni2 O19 2.199948 1_565
Ni2 O16 2.199948 1_555
Ni2 O21 2.199948 1_455
Ni2 O23 2.199948 1_554
Ni2 O12 2.199948 1_555
Ni3 O2 2.199948 1_555
Ni3 O7 2.199948 1_555
Ni3 O4 2.199948 1_555
Ni3 O11 2.199948 1_555
Ni3 O9 2.199948 1_555
Ni3 O0 2.199948 1_555
O0 Pt2 2.050444 1_555
O0 Sr5 2.492623 1_555
O0 Sr10 2.623815 1_455
O0 Sr6 2.709897 1_455
O0 Sr2 2.775334 1_554
O1 Pt3 2.050444 1_555
O1 Sr4 2.492623 1_545
O1 Sr11 2.623815 1_556
O1 Sr7 2.709897 1_545
O1 Sr3 2.775334 1_545
O2 Pt2 2.050445 1_555
O2 Sr7 2.492623 1_555
O2 Sr0 2.623815 1_565
O2 Sr8 2.709897 1_565
O2 Sr10 2.775334 1_455
O3 Pt3 2.050445 1_555
O3 Sr6 2.492623 1_556
O3 Sr1 2.623815 1_655
O3 Sr9 2.709897 1_556
O3 Sr11 2.775334 1_556
O4 Pt2 2.050444 1_555
O4 Sr9 2.492623 1_555
O4 Sr2 2.623815 1_554
O4 Sr4 2.709897 1_554
O4 Sr0 2.775334 1_565
O5 Pt3 2.050444 1_555
O5 Sr8 2.492623 1_655
O5 Sr3 2.623815 1_545
O5 Sr5 2.709897 1_655
O5 Sr1 2.775334 1_655
O6 Pt0 2.050445 1_666
O6 Sr4 2.492623 1_555
O6 Sr10 2.623815 1_555
O6 Sr9 2.709897 1_556
O6 Sr0 2.775334 1_566
O7 Pt1 2.050445 1_555
O7 Sr5 2.492623 1_555
O7 Sr11 2.623815 1_555
O7 Sr8 2.709897 1_555
O7 Sr1 2.775334 1_555
O8 Pt0 2.050444 1_655
O8 Sr6 2.492623 1_555
O8 Sr0 2.623815 1_555
O8 Sr5 2.709897 1_655
O8 Sr2 2.775334 1_654
O9 Pt1 2.050444 1_555
O9 Sr7 2.492623 1_555
O9 Sr1 2.623815 1_555
O9 Sr4 2.709897 1_555
O9 Sr3 2.775334 1_555
O10 Pt0 2.050444 1_556
O10 Sr8 2.492623 1_555
O10 Sr2 2.623815 1_555
O10 Sr7 2.709897 1_545
O10 Sr10 2.775334 1_445
O11 Pt1 2.050444 1_555
O11 Sr9 2.492623 1_555
O11 Sr3 2.623815 1_555
O11 Sr6 2.709897 1_555
O11 Sr11 2.775334 1_555
O12 Pt2 2.050444 1_555
O12 Sr11 2.492623 1_565
O12 Sr4 2.623815 1_554
O12 Sr0 2.709897 1_565
O12 Sr8 2.775334 1_565
O13 Pt3 2.050444 1_555
O13 Sr10 2.492623 1_555
O13 Sr5 2.623815 1_655
O13 Sr1 2.709897 1_655
O13 Sr9 2.775334 1_556
O14 Pt2 2.050445 1_555
O14 Sr1 2.492623 1_554
O14 Sr6 2.623815 1_455
O14 Sr2 2.709897 1_554
O14 Sr4 2.775334 1_554
O15 Pt3 2.050445 1_555
O15 Sr0 2.492623 1_555
O15 Sr7 2.623815 1_545
O15 Sr3 2.709897 1_545
O15 Sr5 2.775334 1_655
O16 Pt2 2.050444 1_555
O16 Sr3 2.492623 1_455
O16 Sr8 2.623815 1_565
O16 Sr10 2.709897 1_455
O16 Sr6 2.775334 1_455
O17 Pt3 2.050444 1_555
O17 Sr2 2.492623 1_555
O17 Sr9 2.623815 1_556
O17 Sr11 2.709897 1_556
O17 Sr7 2.775334 1_545
O18 Pt1 2.050445 1_555
O18 Sr10 2.492623 1_555
O18 Sr4 2.623815 1_555
O18 Sr3 2.709897 1_555
O18 Sr6 2.775334 1_555
O19 Pt0 2.050445 1_555
O19 Sr11 2.492623 1_555
O19 Sr5 2.623815 1_555
O19 Sr2 2.709897 1_554
O19 Sr7 2.775334 1_544
O20 Pt1 2.050444 1_555
O20 Sr2 2.492623 1_555
O20 Sr8 2.623815 1_555
O20 Sr1 2.709897 1_555
O20 Sr4 2.775334 1_555
O21 Pt0 2.050444 1_665
O21 Sr3 2.492623 1_555
O21 Sr9 2.623815 1_555
O21 Sr0 2.709897 1_565
O21 Sr5 2.775334 1_665
O22 Pt1 2.050444 1_555
O22 Sr0 2.492623 1_555
O22 Sr6 2.623815 1_555
O22 Sr11 2.709897 1_555
O22 Sr8 2.775334 1_555
O23 Pt0 2.050444 1_566
O23 Sr1 2.492623 1_555
O23 Sr7 2.623815 1_555
O23 Sr10 2.709897 1_455
O23 Sr9 2.775334 1_456
