# generated using pymatgen
data_Ba2LiB10O19
_symmetry_space_group_name_H-M   'P 1'
_cell_length_a   6.83416900
_cell_length_b   11.58795425
_cell_length_c   11.59967115
_cell_angle_alpha   61.00799498
_cell_angle_beta   73.60616858
_cell_angle_gamma   73.98496480
_symmetry_Int_Tables_number   1
_chemical_formula_structural   Ba2LiB10O19
_chemical_formula_sum   'Ba4 Li2 B20 O38'
_cell_volume   760.17876621
_cell_formula_units_Z   2
loop_
 _symmetry_equiv_pos_site_id
 _symmetry_equiv_pos_as_xyz
  1  'x, y, z'
loop_
 _atom_site_type_symbol
 _atom_site_label
 _atom_site_symmetry_multiplicity
 _atom_site_fract_x
 _atom_site_fract_y
 _atom_site_fract_z
 _atom_site_occupancy
  Ba  Ba0  1  0.82421700  0.48113500  0.87593100  1
  Ba  Ba1  1  0.17578300  0.51886500  0.12406900  1
  Ba  Ba2  1  0.33213400  0.96470900  0.38900100  1
  Ba  Ba3  1  0.66786600  0.03529100  0.61099900  1
  Li  Li0  1  0.68538100  0.36082700  0.59975400  1
  Li  Li1  1  0.31461900  0.63917300  0.40024600  1
  B  B0  1  0.01403600  0.78127700  0.85532100  1
  B  B1  1  0.98596400  0.21872300  0.14467900  1
  B  B2  1  0.18089600  0.63088700  0.63775600  1
  B  B3  1  0.81910400  0.36911300  0.36224400  1
  B  B4  1  0.51221000  0.79441000  0.14213000  1
  B  B5  1  0.48779000  0.20559000  0.85787000  1
  B  B6  1  0.98206600  0.81229800  0.25395400  1
  B  B7  1  0.01793400  0.18770200  0.74604600  1
  B  B8  1  0.37769200  0.80699800  0.80442500  1
  B  B9  1  0.62230800  0.19300200  0.19557500  1
  B  B10  1  0.87575900  0.00148200  0.30972200  1
  B  B11  1  0.12424100  0.99851800  0.69027800  1
  B  B12  1  0.56545500  0.64041600  0.56712400  1
  B  B13  1  0.43454500  0.35958400  0.43287600  1
  B  B14  1  0.35760300  0.27776600  0.03569200  1
  B  B15  1  0.64239700  0.72223400  0.96430800  1
  B  B16  1  0.10909900  0.23780000  0.50643700  1
  B  B17  1  0.89090100  0.76220000  0.49356300  1
  B  B18  1  0.41958400  0.45399900  0.79459600  1
  B  B19  1  0.58041600  0.54600100  0.20540400  1
  O  O0  1  0.42330200  0.40751000  0.93607900  1
  O  O1  1  0.57669800  0.59249000  0.06392100  1
  O  O2  1  0.08938900  0.09612600  0.55389000  1
  O  O3  1  0.91061100  0.90387400  0.44611000  1
  O  O4  1  0.02720800  0.72545800  0.38273500  1
  O  O5  1  0.97279200  0.27454200  0.61726500  1
  O  O6  1  0.49092100  0.33821500  0.76133500  1
  O  O7  1  0.50907900  0.66178500  0.23866500  1
  O  O8  1  0.87893200  0.69351100  0.93311800  1
  O  O9  1  0.12106800  0.30648900  0.06688200  1
  O  O10  1  0.02471300  0.09837500  0.25182400  1
  O  O11  1  0.97528700  0.90162500  0.74817600  1
  O  O12  1  0.42554900  0.17377800  0.99122500  1
  O  O13  1  0.57445100  0.82622200  0.00877500  1
  O  O14  1  0.56973700  0.54888500  0.70963100  1
  O  O15  1  0.43026300  0.45111500  0.29036900  1
  O  O16  1  0.34205800  0.69446500  0.54359300  1
  O  O17  1  0.65794200  0.30553500  0.45640700  1
  O  O18  1  0.89774100  0.94217200  0.21977900  1
  O  O19  1  0.10225900  0.05782800  0.78022100  1
  O  O20  1  0.57081100  0.76936200  0.83496100  1
  O  O21  1  0.42918900  0.23063800  0.16503900  1
  O  O22  1  0.21305000  0.52484700  0.75902500  1
  O  O23  1  0.78695000  0.47515300  0.24097500  1
  O  O24  1  0.97282200  0.25497300  0.82218400  1
  O  O25  1  0.02717800  0.74502700  0.17781600  1
  O  O26  1  0.98011100  0.67165400  0.61569100  1
  O  O27  1  0.01988900  0.32834600  0.38430900  1
  O  O28  1  0.67272200  0.75273000  0.51316200  1
  O  O29  1  0.32727800  0.24727000  0.48683800  1
  O  O30  1  0.66112300  0.08336100  0.31550000  1
  O  O31  1  0.33887700  0.91663900  0.68450000  1
  O  O32  1  0.78549600  0.26184700  0.11193500  1
  O  O33  1  0.21450400  0.73815300  0.88806500  1
  O  O34  1  0.44326300  0.88217000  0.19717600  1
  O  O35  1  0.55673700  0.11783000  0.80282400  1
  O  O36  1  0.65612000  0.55321100  0.50226600  1
  O  O37  1  0.34388000  0.44678900  0.49773400  1
loop_
_geom_bond_atom_site_label_1
_geom_bond_atom_site_label_2
_geom_bond_distance
_geom_bond_site_symmetry_2
Ba0 O14 2.652256 1_555
Ba0 O22 2.683235 1_655
Ba0 O32 2.690765 1_556
Ba0 O24 2.836600 1_555
Ba0 O26 2.853724 1_555
Ba0 O0 2.890602 1_555
Ba0 O1 2.953421 1_556
Ba0 O8 2.977700 1_555
Ba0 O9 3.007203 1_656
Ba0 O20 3.180361 1_555
Ba1 O15 2.652256 1_555
Ba1 O23 2.683235 1_455
Ba1 O33 2.690765 1_554
Ba1 O25 2.836600 1_555
Ba1 O27 2.853724 1_555
Ba1 O1 2.890602 1_555
Ba1 O0 2.953421 1_554
Ba1 O9 2.977700 1_555
Ba1 O8 3.007203 1_454
Ba1 O21 3.180361 1_555
Ba2 O10 2.654704 1_565
Ba2 O34 2.674141 1_555
Ba2 O30 2.675786 1_565
Ba2 O16 2.744965 1_555
Ba2 O2 2.892734 1_565
Ba2 O3 2.970726 1_455
Ba2 O28 2.972217 1_555
Ba2 O21 3.013270 1_565
Ba2 O31 3.207119 1_555
Ba3 O11 2.654704 1_545
Ba3 O35 2.674141 1_555
Ba3 O31 2.675786 1_545
Ba3 O17 2.744965 1_555
Ba3 O3 2.892734 1_545
Ba3 O2 2.970726 1_655
Ba3 O29 2.972217 1_555
Ba3 O20 3.013270 1_545
Ba3 O30 3.207119 1_555
Li0 O6 1.912539 1_555
Li0 O36 1.930434 1_555
Li0 O5 1.960562 1_555
Li0 O17 2.117917 1_555
Li1 O7 1.912539 1_555
Li1 O37 1.930434 1_555
Li1 O4 1.960562 1_555
Li1 O16 2.117917 1_555
B0 O8 1.363585 1_455
B0 O11 1.364368 1_455
B0 O33 1.415256 1_555
B1 O9 1.363585 1_655
B1 O10 1.364368 1_655
B1 O32 1.415256 1_555
B2 O22 1.373636 1_555
B2 O26 1.376577 1_455
B2 O16 1.391946 1_555
B3 O23 1.373636 1_555
B3 O27 1.376577 1_655
B3 O17 1.391946 1_555
B4 O34 1.363508 1_555
B4 O13 1.368204 1_555
B4 O7 1.397377 1_555
B5 O35 1.363508 1_555
B5 O12 1.368204 1_555
B5 O6 1.397377 1_555
B6 O18 1.351397 1_555
B6 O25 1.365208 1_655
B6 O4 1.403907 1_655
B7 O19 1.351397 1_555
B7 O24 1.365208 1_455
B7 O5 1.403907 1_455
B8 O20 1.361651 1_555
B8 O31 1.388801 1_555
B8 O33 1.396917 1_555
B9 O21 1.361651 1_555
B9 O30 1.388801 1_555
B9 O32 1.396917 1_555
B10 O18 1.460501 1_545
B10 O3 1.472548 1_545
B10 O10 1.503916 1_655
B10 O30 1.514796 1_555
B11 O19 1.460501 1_565
B11 O2 1.472548 1_565
B11 O11 1.503916 1_455
B11 O31 1.514796 1_555
B12 O36 1.448944 1_555
B12 O28 1.449417 1_555
B12 O14 1.472733 1_555
B12 O16 1.529568 1_555
B13 O37 1.448944 1_555
B13 O29 1.449417 1_555
B13 O15 1.472733 1_555
B13 O17 1.529568 1_555
B14 O12 1.446473 1_554
B14 O0 1.480793 1_554
B14 O21 1.503785 1_555
B14 O9 1.531187 1_555
B15 O13 1.446473 1_556
B15 O1 1.480793 1_556
B15 O20 1.503785 1_555
B15 O8 1.531187 1_555
B16 O29 1.470298 1_555
B16 O27 1.474170 1_555
B16 O2 1.490143 1_555
B16 O5 1.528882 1_455
B17 O28 1.470298 1_555
B17 O26 1.474170 1_555
B17 O3 1.490143 1_555
B17 O4 1.528882 1_655
B18 O0 1.463968 1_555
B18 O22 1.482407 1_555
B18 O6 1.490433 1_555
B18 O14 1.494843 1_555
B19 O1 1.463968 1_555
B19 O23 1.482407 1_555
B19 O7 1.490433 1_555
B19 O15 1.494843 1_555
