# generated using pymatgen
data_NiH4C2(S2N)2
_symmetry_space_group_name_H-M   'P 1'
_cell_length_a   10.09386200
_cell_length_b   8.94769200
_cell_length_c   11.44980122
_cell_angle_alpha   51.06384909
_cell_angle_beta   90.00000000
_cell_angle_gamma   90.00000000
_symmetry_Int_Tables_number   1
_chemical_formula_structural   NiH4C2(S2N)2
_chemical_formula_sum   'Ni4 H16 C8 S16 N8'
_cell_volume   804.37838868
_cell_formula_units_Z   4
loop_
 _symmetry_equiv_pos_site_id
 _symmetry_equiv_pos_as_xyz
  1  'x, y, z'
loop_
 _atom_site_type_symbol
 _atom_site_label
 _atom_site_symmetry_multiplicity
 _atom_site_fract_x
 _atom_site_fract_y
 _atom_site_fract_z
 _atom_site_occupancy
  Ni  Ni0  1  0.10664700  0.21880400  0.32653400  1
  Ni  Ni1  1  0.60664700  0.78119600  0.17346600  1
  Ni  Ni2  1  0.89335300  0.78119600  0.67346600  1
  Ni  Ni3  1  0.39335300  0.21880400  0.82653400  1
  H  H0  1  0.24305000  0.72732800  0.32159400  1
  H  H1  1  0.74305000  0.27267200  0.17840600  1
  H  H2  1  0.75695000  0.27267200  0.67840600  1
  H  H3  1  0.25695000  0.72732800  0.82159400  1
  H  H4  1  0.30828400  0.64862100  0.49373200  1
  H  H5  1  0.80828400  0.35137900  0.00626800  1
  H  H6  1  0.69171600  0.35137900  0.50626800  1
  H  H7  1  0.19171600  0.64862100  0.99373200  1
  H  H8  1  0.96598400  0.71388100  0.32623300  1
  H  H9  1  0.46598400  0.28611900  0.17376700  1
  H  H10  1  0.03401600  0.28611900  0.67376700  1
  H  H11  1  0.53401600  0.71388100  0.82623300  1
  H  H12  1  0.89760000  0.78655800  0.15699000  1
  H  H13  1  0.39760000  0.21344200  0.34301000  1
  H  H14  1  0.10240000  0.21344200  0.84301000  1
  H  H15  1  0.60240000  0.78655800  0.65699000  1
  C  C0  1  0.20688900  0.90384800  0.37483700  1
  C  C1  1  0.70688900  0.09615200  0.12516300  1
  C  C2  1  0.79311100  0.09615200  0.62516300  1
  C  C3  1  0.29311100  0.90384800  0.87483700  1
  C  C4  1  0.00785000  0.53820600  0.27349000  1
  C  C5  1  0.50785000  0.46179400  0.22651000  1
  C  C6  1  0.99215000  0.46179400  0.72651000  1
  C  C7  1  0.49215000  0.53820600  0.77349000  1
  S  S0  1  0.11858700  0.08259300  0.21974000  1
  S  S1  1  0.61858700  0.91740700  0.28026000  1
  S  S2  1  0.88141300  0.91740700  0.78026000  1
  S  S3  1  0.38141300  0.08259300  0.71974000  1
  S  S4  1  0.10281900  0.36612300  0.42520800  1
  S  S5  1  0.60281900  0.63387700  0.07479200  1
  S  S6  1  0.89718100  0.63387700  0.57479200  1
  S  S7  1  0.39718100  0.36612300  0.92520800  1
  S  S8  1  0.99290700  0.48039200  0.15659000  1
  S  S9  1  0.49290700  0.51960800  0.34341000  1
  S  S10  1  0.00709300  0.51960800  0.84341000  1
  S  S11  1  0.50709300  0.48039200  0.65659000  1
  S  S12  1  0.22263900  0.95706500  0.49484300  1
  S  S13  1  0.72263900  0.04293500  0.00515700  1
  S  S14  1  0.77736100  0.04293500  0.50515700  1
  S  S15  1  0.27736100  0.95706500  0.99484300  1
  N  N0  1  0.25339600  0.74790800  0.39959300  1
  N  N1  1  0.75339600  0.25209200  0.10040700  1
  N  N2  1  0.74660400  0.25209200  0.60040700  1
  N  N3  1  0.24660400  0.74790800  0.89959300  1
  N  N4  1  0.95560100  0.69129700  0.24922300  1
  N  N5  1  0.45560100  0.30870300  0.25077700  1
  N  N6  1  0.04439900  0.30870300  0.75077700  1
  N  N7  1  0.54439900  0.69129700  0.74922300  1
loop_
_geom_bond_atom_site_label_1
_geom_bond_atom_site_label_2
_geom_bond_distance
_geom_bond_site_symmetry_2
Ni0 S8 2.204151 1_455
Ni0 S0 2.206411 1_555
Ni0 S4 2.210737 1_555
Ni0 S12 2.212831 1_545
Ni1 S9 2.204151 1_555
Ni1 S1 2.206411 1_555
Ni1 S5 2.210737 1_555
Ni1 S13 2.212831 1_565
Ni2 S10 2.204151 1_655
Ni2 S2 2.206411 1_555
Ni2 S6 2.210737 1_555
Ni2 S14 2.212831 1_565
Ni3 S11 2.204151 1_555
Ni3 S3 2.206411 1_555
Ni3 S7 2.210737 1_555
Ni3 S15 2.212831 1_545
H0 N0 1.024254 1_555
H1 N1 1.024254 1_555
H2 N2 1.024254 1_555
H3 N3 1.024254 1_555
H4 N0 1.026849 1_555
H5 N1 1.026849 1_555
H6 N2 1.026849 1_555
H7 N3 1.026849 1_555
H8 N4 1.026282 1_555
H9 N5 1.026282 1_555
H10 N6 1.026282 1_555
H11 N7 1.026282 1_555
H12 N4 1.026222 1_555
H13 N5 1.026222 1_555
H14 N6 1.026222 1_555
H15 N7 1.026222 1_555
C0 N0 1.323056 1_555
C0 S0 1.713502 1_565
C0 S12 1.721156 1_555
C1 N1 1.323056 1_555
C1 S1 1.713502 1_545
C1 S13 1.721156 1_555
C2 N2 1.323056 1_555
C2 S2 1.713502 1_545
C2 S14 1.721156 1_555
C3 N3 1.323056 1_555
C3 S3 1.713502 1_565
C3 S15 1.721156 1_555
C4 N4 1.324139 1_455
C4 S4 1.716239 1_555
C4 S8 1.718187 1_455
C5 N5 1.324139 1_555
C5 S5 1.716239 1_555
C5 S9 1.718187 1_555
C6 N6 1.324139 1_655
C6 S6 1.716239 1_555
C6 S10 1.718187 1_655
C7 N7 1.324139 1_555
C7 S7 1.716239 1_555
C7 S11 1.718187 1_555
