# generated using pymatgen
data_Te7IrBr7
_symmetry_space_group_name_H-M   'P 1'
_cell_length_a   9.89946800
_cell_length_b   10.49156648
_cell_length_c   12.07037226
_cell_angle_alpha   94.44758541
_cell_angle_beta   113.24664555
_cell_angle_gamma   112.13656122
_symmetry_Int_Tables_number   1
_chemical_formula_structural   Te7IrBr7
_chemical_formula_sum   'Te14 Ir2 Br14'
_cell_volume   1028.55793112
_cell_formula_units_Z   2
loop_
 _symmetry_equiv_pos_site_id
 _symmetry_equiv_pos_as_xyz
  1  'x, y, z'
loop_
 _atom_site_type_symbol
 _atom_site_label
 _atom_site_symmetry_multiplicity
 _atom_site_fract_x
 _atom_site_fract_y
 _atom_site_fract_z
 _atom_site_occupancy
  Te  Te0  1  0.92274200  0.05067800  0.71139400  1
  Te  Te1  1  0.07725800  0.94932200  0.28860600  1
  Te  Te2  1  0.22652600  0.28025000  0.89135300  1
  Te  Te3  1  0.77347400  0.71975000  0.10864700  1
  Te  Te4  1  0.75799900  0.15874400  0.81438500  1
  Te  Te5  1  0.24200100  0.84125600  0.18561500  1
  Te  Te6  1  0.06853500  0.34271300  0.02584500  1
  Te  Te7  1  0.93146500  0.65728700  0.97415500  1
  Te  Te8  1  0.20972700  0.04692400  0.03078100  1
  Te  Te9  1  0.79027300  0.95307600  0.96921900  1
  Te  Te10  1  0.06534500  0.75807500  0.72757500  1
  Te  Te11  1  0.93465500  0.24192500  0.27242500  1
  Te  Te12  1  0.61992300  0.66581200  0.66029700  1
  Te  Te13  1  0.38007700  0.33418800  0.33970300  1
  Ir  Ir0  1  0.91699700  0.85020500  0.84043600  1
  Ir  Ir1  1  0.08300300  0.14979500  0.15956400  1
  Br  Br0  1  0.29516300  0.73808300  0.96293300  1
  Br  Br1  1  0.70483700  0.26191700  0.03706700  1
  Br  Br2  1  0.88895400  0.47344200  0.68463000  1
  Br  Br3  1  0.11104600  0.52655800  0.31537000  1
  Br  Br4  1  0.85955200  0.73284600  0.49524700  1
  Br  Br5  1  0.14044800  0.26715400  0.50475300  1
  Br  Br6  1  0.27542900  0.03657800  0.73745000  1
  Br  Br7  1  0.72457100  0.96342200  0.26255000  1
  Br  Br8  1  0.58124200  0.45462200  0.79150900  1
  Br  Br9  1  0.41875800  0.54537800  0.20849100  1
  Br  Br10  1  0.40927000  0.69399600  0.72048300  1
  Br  Br11  1  0.59073000  0.30600400  0.27951700  1
  Br  Br12  1  0.56433100  0.85374900  0.52246900  1
  Br  Br13  1  0.43566900  0.14625100  0.47753100  1
loop_
_geom_bond_atom_site_label_1
_geom_bond_atom_site_label_2
_geom_bond_distance
_geom_bond_site_symmetry_2
Te0 Te2 2.852486 1_655
Te0 Te4 2.875044 1_555
Te1 Te3 2.852486 1_455
Te1 Te5 2.875044 1_555
Te2 Te6 2.850025 1_556
Te2 Te8 3.066845 1_556
Te3 Te7 2.850025 1_554
Te3 Te9 3.066845 1_554
Te4 Te6 2.874184 1_656
Te4 Te9 2.987398 1_545
Te5 Te7 2.874184 1_454
Te5 Te8 2.987398 1_565
Ir0 Te12 2.670462 1_555
Ir0 Te7 2.695350 1_555
Ir0 Te0 2.709418 1_565
Ir0 Te10 2.718741 1_655
Ir0 Te8 2.727176 1_666
Ir0 Te9 2.730289 1_555
Ir1 Te13 2.670462 1_555
Ir1 Te6 2.695350 1_555
Ir1 Te1 2.709418 1_545
Ir1 Te11 2.718741 1_455
Ir1 Te9 2.727176 1_444
Ir1 Te8 2.730289 1_555
Br0 Te10 2.939487 1_555
Br0 Te5 3.125366 1_556
Br1 Te11 2.939487 1_555
Br1 Te4 3.125366 1_554
Br2 Te10 2.711290 1_655
Br3 Te11 2.711290 1_455
Br4 Te10 2.655784 1_655
Br5 Te11 2.655784 1_455
Br6 Te10 2.836859 1_545
Br6 Te2 3.335724 1_555
Br7 Te11 2.836859 1_565
Br7 Te3 3.335724 1_555
Br8 Te12 2.819209 1_555
Br8 Te7 3.014190 1_555
Br9 Te13 2.819209 1_555
Br9 Te6 3.014190 1_555
Br10 Te12 2.567322 1_555
Br11 Te13 2.567322 1_555
Br12 Te12 2.749940 1_555
Br12 Te0 3.068481 1_565
Br13 Te13 2.749940 1_555
Br13 Te1 3.068481 1_545
