# generated using pymatgen
data_TmCoC2
_symmetry_space_group_name_H-M   'P 1'
_cell_length_a   3.46303249
_cell_length_b   3.70768237
_cell_length_c   3.70768196
_cell_angle_alpha   106.14957375
_cell_angle_beta   90.00000000
_cell_angle_gamma   90.00000000
_symmetry_Int_Tables_number   1
_chemical_formula_structural   TmCoC2
_chemical_formula_sum   'Tm1 Co1 C2'
_cell_volume   45.72739895
_cell_formula_units_Z   1
loop_
 _symmetry_equiv_pos_site_id
 _symmetry_equiv_pos_as_xyz
  1  'x, y, z'
loop_
 _atom_site_type_symbol
 _atom_site_label
 _atom_site_symmetry_multiplicity
 _atom_site_fract_x
 _atom_site_fract_y
 _atom_site_fract_z
 _atom_site_occupancy
  Tm  Tm0  1  0.00000000  0.99241505  0.00758495  1
  Co  Co0  1  0.50000000  0.60876871  0.39123129  1
  C  C0  1  0.50000000  0.45379504  0.85517780  1
  C  C1  1  0.50000000  0.14482220  0.54620496  1
loop_
_geom_bond_atom_site_label_1
_geom_bond_atom_site_label_2
_geom_bond_distance
_geom_bond_site_symmetry_2
C0 C1 1.376457 1_555
C0 Co0 1.909210 1_556
C0 Co0 1.959328 1_555
C0 Tm0 2.584151 1_556
C0 Tm0 2.584151 1_656
C0 Tm0 2.604136 1_646
C0 Tm0 2.604136 1_546
C1 Co0 1.909211 1_545
C1 Co0 1.959328 1_555
C1 Tm0 2.584151 1_645
C1 Tm0 2.584151 1_545
C1 Tm0 2.604136 1_546
C1 Tm0 2.604136 1_646
