# generated using pymatgen
data_Fe2Pt
_symmetry_space_group_name_H-M   'P 1'
_cell_length_a   5.23519983
_cell_length_b   5.23519983
_cell_length_c   12.55370200
_cell_angle_alpha   90.00000000
_cell_angle_beta   90.00000000
_cell_angle_gamma   119.99999788
_symmetry_Int_Tables_number   1
_chemical_formula_structural   Fe2Pt
_chemical_formula_sum   'Fe16 Pt8'
_cell_volume   297.96755929
_cell_formula_units_Z   8
loop_
 _symmetry_equiv_pos_site_id
 _symmetry_equiv_pos_as_xyz
  1  'x, y, z'
loop_
 _atom_site_type_symbol
 _atom_site_label
 _atom_site_symmetry_multiplicity
 _atom_site_fract_x
 _atom_site_fract_y
 _atom_site_fract_z
 _atom_site_occupancy
  Fe  Fe0_0  1  0.16666650  0.33333350  0.32227000  1
  Fe  Fe0_1  1  0.16666650  0.33333350  0.82227000  1
  Fe  Fe0_2  1  0.16666650  0.83333350  0.32227000  1
  Fe  Fe0_3  1  0.16666650  0.83333350  0.82227000  1
  Fe  Fe0_4  1  0.66666650  0.33333350  0.32227000  1
  Fe  Fe0_5  1  0.66666650  0.33333350  0.82227000  1
  Fe  Fe0_6  1  0.66666650  0.83333350  0.32227000  1
  Fe  Fe0_7  1  0.66666650  0.83333350  0.82227000  1
  Fe  Fe1_0  1  0.33333350  0.16666650  0.17773000  1
  Fe  Fe1_1  1  0.33333350  0.16666650  0.67773000  1
  Fe  Fe1_2  1  0.33333350  0.66666650  0.17773000  1
  Fe  Fe1_3  1  0.33333350  0.66666650  0.67773000  1
  Fe  Fe1_4  1  0.83333350  0.16666650  0.17773000  1
  Fe  Fe1_5  1  0.83333350  0.16666650  0.67773000  1
  Fe  Fe1_6  1  0.83333350  0.66666650  0.17773000  1
  Fe  Fe1_7  1  0.83333350  0.66666650  0.67773000  1
  Pt  Pt0_0  1  0.00000000  0.00000000  0.00000000  1
  Pt  Pt0_1  1  0.00000000  0.00000000  0.50000000  1
  Pt  Pt0_2  1  0.00000000  0.50000000  0.00000000  1
  Pt  Pt0_3  1  0.00000000  0.50000000  0.50000000  1
  Pt  Pt0_4  1  0.50000000  0.00000000  0.00000000  1
  Pt  Pt0_5  1  0.50000000  0.00000000  0.50000000  1
  Pt  Pt0_6  1  0.50000000  0.50000000  0.00000000  1
  Pt  Pt0_7  1  0.50000000  0.50000000  0.50000000  1
loop_
_geom_bond_atom_site_label_1
_geom_bond_atom_site_label_2
_geom_bond_distance
_geom_bond_site_symmetry_2
Fe0_0 Fe1_2 2.361439 1_555
Fe0_0 Fe1_4 2.361439 1_455
Fe0_0 Fe1_0 2.361442 1_555
Fe0_0 Fe0_2 2.617600 1_555
Fe0_0 Fe0_4 2.617600 1_555
Fe0_0 Fe0_4 2.617600 1_455
Fe0_0 Fe0_2 2.617600 1_545
Fe0_0 Fe0_6 2.617600 1_445
Fe0_0 Fe0_6 2.617600 1_555
Fe0_0 Pt0_3 2.694820 1_555
Fe0_0 Pt0_1 2.694821 1_555
Fe0_0 Pt0_7 2.694821 1_555
Fe0_1 Fe1_3 2.361439 1_555
Fe0_1 Fe1_5 2.361439 1_455
Fe0_1 Fe1_1 2.361442 1_555
Fe0_1 Fe0_3 2.617600 1_555
Fe0_1 Fe0_5 2.617600 1_555
Fe0_1 Fe0_3 2.617600 1_545
Fe0_1 Fe0_5 2.617600 1_455
Fe0_1 Fe0_7 2.617600 1_445
Fe0_1 Fe0_7 2.617600 1_555
Fe0_1 Pt0_2 2.694820 1_556
Fe0_1 Pt0_0 2.694821 1_556
Fe0_1 Pt0_6 2.694821 1_556
Fe0_2 Fe1_0 2.361439 1_565
Fe0_2 Fe1_6 2.361439 1_455
Fe0_2 Fe1_2 2.361442 1_555
Fe0_2 Fe0_6 2.617600 1_555
Fe0_2 Fe0_6 2.617600 1_455
Fe0_2 Fe0_4 2.617600 1_565
Fe0_2 Fe0_4 2.617600 1_455
Fe0_2 Pt0_1 2.694820 1_565
Fe0_2 Pt0_5 2.694821 1_565
Fe0_2 Pt0_3 2.694821 1_555
Fe0_3 Fe1_1 2.361439 1_565
Fe0_3 Fe1_7 2.361439 1_455
Fe0_3 Fe1_3 2.361442 1_555
Fe0_3 Fe0_7 2.617600 1_455
Fe0_3 Fe0_7 2.617600 1_555
Fe0_3 Fe0_5 2.617600 1_565
Fe0_3 Fe0_5 2.617600 1_455
Fe0_3 Pt0_0 2.694820 1_566
Fe0_3 Pt0_2 2.694821 1_556
Fe0_3 Pt0_4 2.694821 1_566
Fe0_4 Fe1_0 2.361439 1_555
Fe0_4 Fe1_6 2.361439 1_555
Fe0_4 Fe1_4 2.361442 1_555
Fe0_4 Fe0_6 2.617600 1_555
Fe0_4 Fe0_6 2.617600 1_545
Fe0_4 Pt0_7 2.694820 1_555
Fe0_4 Pt0_5 2.694821 1_555
Fe0_4 Pt0_3 2.694821 1_655
Fe0_5 Fe1_1 2.361439 1_555
Fe0_5 Fe1_7 2.361439 1_555
Fe0_5 Fe1_5 2.361442 1_555
Fe0_5 Fe0_7 2.617600 1_555
Fe0_5 Fe0_7 2.617600 1_545
Fe0_5 Pt0_6 2.694820 1_556
Fe0_5 Pt0_4 2.694821 1_556
Fe0_5 Pt0_2 2.694821 1_656
Fe0_6 Fe1_4 2.361439 1_565
Fe0_6 Fe1_2 2.361439 1_555
Fe0_6 Fe1_6 2.361442 1_555
Fe0_6 Pt0_5 2.694820 1_565
Fe0_6 Pt0_1 2.694821 1_665
Fe0_6 Pt0_7 2.694821 1_555
Fe0_7 Fe1_3 2.361439 1_555
Fe0_7 Fe1_5 2.361439 1_565
Fe0_7 Fe1_7 2.361442 1_555
Fe0_7 Pt0_4 2.694820 1_566
Fe0_7 Pt0_6 2.694821 1_556
Fe0_7 Pt0_0 2.694821 1_666
Fe1_0 Fe1_4 2.617600 1_555
Fe1_0 Fe1_2 2.617600 1_555
Fe1_0 Fe1_2 2.617600 1_545
Fe1_0 Fe1_4 2.617600 1_455
Fe1_0 Fe1_6 2.617600 1_555
Fe1_0 Fe1_6 2.617600 1_445
Fe1_0 Pt0_4 2.694820 1_555
Fe1_0 Pt0_6 2.694821 1_555
Fe1_0 Pt0_0 2.694821 1_555
Fe1_1 Fe1_3 2.617600 1_555
Fe1_1 Fe1_5 2.617600 1_555
Fe1_1 Fe1_5 2.617600 1_455
Fe1_1 Fe1_3 2.617600 1_545
Fe1_1 Fe1_7 2.617600 1_555
Fe1_1 Fe1_7 2.617600 1_445
Fe1_1 Pt0_5 2.694820 1_555
Fe1_1 Pt0_7 2.694821 1_555
Fe1_1 Pt0_1 2.694821 1_555
Fe1_2 Fe1_6 2.617600 1_555
Fe1_2 Fe1_6 2.617600 1_455
Fe1_2 Fe1_4 2.617600 1_455
Fe1_2 Fe1_4 2.617600 1_565
Fe1_2 Pt0_6 2.694820 1_555
Fe1_2 Pt0_2 2.694821 1_555
Fe1_2 Pt0_4 2.694821 1_565
Fe1_3 Fe1_7 2.617600 1_555
Fe1_3 Fe1_7 2.617600 1_455
Fe1_3 Fe1_5 2.617600 1_455
Fe1_3 Fe1_5 2.617600 1_565
Fe1_3 Pt0_7 2.694820 1_555
Fe1_3 Pt0_3 2.694821 1_555
Fe1_3 Pt0_5 2.694821 1_565
Fe1_4 Fe1_6 2.617600 1_555
Fe1_4 Fe1_6 2.617600 1_545
Fe1_4 Pt0_0 2.694820 1_655
Fe1_4 Pt0_2 2.694821 1_655
Fe1_4 Pt0_4 2.694821 1_555
Fe1_5 Fe1_7 2.617600 1_555
Fe1_5 Fe1_7 2.617600 1_545
Fe1_5 Pt0_1 2.694820 1_655
Fe1_5 Pt0_3 2.694821 1_655
Fe1_5 Pt0_5 2.694821 1_555
Fe1_6 Pt0_2 2.694820 1_655
Fe1_6 Pt0_6 2.694821 1_555
Fe1_6 Pt0_0 2.694821 1_665
Fe1_7 Pt0_3 2.694820 1_655
Fe1_7 Pt0_1 2.694821 1_665
Fe1_7 Pt0_7 2.694821 1_555
Pt0_0 Pt0_2 2.617600 1_555
Pt0_0 Pt0_4 2.617600 1_555
Pt0_0 Pt0_4 2.617600 1_455
Pt0_0 Pt0_2 2.617600 1_545
Pt0_0 Pt0_6 2.617600 1_555
Pt0_0 Pt0_6 2.617600 1_445
Pt0_1 Pt0_3 2.617600 1_545
Pt0_1 Pt0_5 2.617600 1_555
Pt0_1 Pt0_3 2.617600 1_555
Pt0_1 Pt0_5 2.617600 1_455
Pt0_1 Pt0_7 2.617600 1_445
Pt0_1 Pt0_7 2.617600 1_555
Pt0_2 Pt0_6 2.617600 1_455
Pt0_2 Pt0_6 2.617600 1_555
Pt0_2 Pt0_4 2.617600 1_565
Pt0_2 Pt0_4 2.617600 1_455
Pt0_3 Pt0_7 2.617600 1_555
Pt0_3 Pt0_7 2.617600 1_455
Pt0_3 Pt0_5 2.617600 1_455
Pt0_3 Pt0_5 2.617600 1_565
Pt0_4 Pt0_6 2.617600 1_545
Pt0_4 Pt0_6 2.617600 1_555
Pt0_5 Pt0_7 2.617600 1_545
Pt0_5 Pt0_7 2.617600 1_555
