# generated using pymatgen
data_Al(BiO3)3
_symmetry_space_group_name_H-M   'P 1'
_cell_length_a   3.60032500
_cell_length_b   3.60032500
_cell_length_c   12.52259400
_cell_angle_alpha   90.00000000
_cell_angle_beta   90.00000000
_cell_angle_gamma   90.00000000
_symmetry_Int_Tables_number   1
_chemical_formula_structural   Al(BiO3)3
_chemical_formula_sum   'Al1 Bi3 O9'
_cell_volume   162.32212243
_cell_formula_units_Z   1
loop_
 _symmetry_equiv_pos_site_id
 _symmetry_equiv_pos_as_xyz
  1  'x, y, z'
loop_
 _atom_site_type_symbol
 _atom_site_label
 _atom_site_symmetry_multiplicity
 _atom_site_fract_x
 _atom_site_fract_y
 _atom_site_fract_z
 _atom_site_occupancy
  Al  Al0  1  0.50000000  0.50000000  0.00000000  1
  Bi  Bi0  1  0.00000000  0.00000000  0.78183300  1
  Bi  Bi1  1  0.00000000  0.00000000  0.21816700  1
  Bi  Bi2  1  0.00000000  0.00000000  0.50000000  1
  O  O0  1  0.50000000  0.00000000  0.00000000  1
  O  O1  1  0.50000000  0.00000000  0.34134800  1
  O  O2  1  0.50000000  0.00000000  0.65865200  1
  O  O3  1  0.50000000  0.50000000  0.84502700  1
  O  O4  1  0.50000000  0.50000000  0.15497300  1
  O  O5  1  0.50000000  0.50000000  0.50000000  1
  O  O6  1  0.00000000  0.50000000  0.00000000  1
  O  O7  1  0.00000000  0.50000000  0.34134800  1
  O  O8  1  0.00000000  0.50000000  0.65865200  1
loop_
_geom_bond_atom_site_label_1
_geom_bond_atom_site_label_2
_geom_bond_distance
_geom_bond_site_symmetry_2
Al0 O6 1.800162 1_655
Al0 O0 1.800162 1_565
Al0 O6 1.800162 1_555
Al0 O0 1.800162 1_555
Al0 O4 1.940664 1_555
Al0 O3 1.940664 1_554
Bi0 O2 2.370661 1_555
Bi0 O8 2.370661 1_545
Bi0 O2 2.370661 1_455
Bi0 O8 2.370661 1_555
Bi0 O3 2.665972 1_545
Bi0 O3 2.665972 1_555
Bi0 O3 2.665972 1_455
Bi0 O3 2.665972 1_445
Bi1 O7 2.370661 1_545
Bi1 O7 2.370661 1_555
Bi1 O1 2.370661 1_455
Bi1 O1 2.370661 1_555
Bi1 O4 2.665972 1_445
Bi1 O4 2.665972 1_545
Bi1 O4 2.665972 1_455
Bi1 O4 2.665972 1_555
Bi2 O5 2.545814 1_545
Bi2 O5 2.545814 1_555
Bi2 O5 2.545814 1_455
Bi2 O5 2.545814 1_445
Bi2 O2 2.680988 1_455
Bi2 O8 2.680988 1_555
Bi2 O7 2.680988 1_555
Bi2 O7 2.680988 1_545
Bi2 O2 2.680988 1_555
Bi2 O8 2.680988 1_545
Bi2 O1 2.680988 1_455
Bi2 O1 2.680988 1_555
