# generated using pymatgen
data_Ni3Cl4
_symmetry_space_group_name_H-M   'P 1'
_cell_length_a   6.02099354
_cell_length_b   6.02099354
_cell_length_c   3.53106500
_cell_angle_alpha   90.00000000
_cell_angle_beta   90.00000000
_cell_angle_gamma   108.36945404
_symmetry_Int_Tables_number   1
_chemical_formula_structural   Ni3Cl4
_chemical_formula_sum   'Ni3 Cl4'
_cell_volume   121.48662172
_cell_formula_units_Z   1
loop_
 _symmetry_equiv_pos_site_id
 _symmetry_equiv_pos_as_xyz
  1  'x, y, z'
loop_
 _atom_site_type_symbol
 _atom_site_label
 _atom_site_symmetry_multiplicity
 _atom_site_fract_x
 _atom_site_fract_y
 _atom_site_fract_z
 _atom_site_occupancy
  Ni  Ni0  1  0.50000000  0.00000000  0.50000000  1
  Ni  Ni1  1  0.00000000  0.50000000  0.50000000  1
  Ni  Ni2  1  0.50000000  0.50000000  0.00000000  1
  Cl  Cl0  1  0.73432100  0.73432100  0.50000000  1
  Cl  Cl1  1  0.26567900  0.26567900  0.50000000  1
  Cl  Cl2  1  0.75082900  0.24917100  0.00000000  1
  Cl  Cl3  1  0.24917100  0.75082900  0.00000000  1
loop_
_geom_bond_atom_site_label_1
_geom_bond_atom_site_label_2
_geom_bond_distance
_geom_bond_site_symmetry_2
Cl0 Ni2 2.417333 1_556
Cl0 Ni2 2.417333 1_555
Cl0 Ni1 2.443734 1_655
Cl0 Ni0 2.443734 1_565
Cl1 Ni2 2.417333 1_556
Cl1 Ni2 2.417333 1_555
Cl1 Ni1 2.443734 1_555
Cl1 Ni0 2.443734 1_555
Cl2 Ni2 2.449331 1_555
Cl2 Ni0 2.494119 1_555
Cl2 Ni1 2.494119 1_654
Cl2 Ni0 2.494119 1_554
Cl2 Ni1 2.494119 1_655
Cl3 Ni2 2.449331 1_555
Cl3 Ni1 2.494119 1_555
Cl3 Ni1 2.494119 1_554
Cl3 Ni0 2.494119 1_564
Cl3 Ni0 2.494119 1_565
