# generated using pymatgen
data_Ca3Ru3N5
_symmetry_space_group_name_H-M   'P 1'
_cell_length_a   5.96212778
_cell_length_b   6.92636003
_cell_length_c   8.31428205
_cell_angle_alpha   105.56116210
_cell_angle_beta   106.55155359
_cell_angle_gamma   94.96393963
_symmetry_Int_Tables_number   1
_chemical_formula_structural   Ca3Ru3N5
_chemical_formula_sum   'Ca6 Ru6 N10'
_cell_volume   312.07888157
_cell_formula_units_Z   2
loop_
 _symmetry_equiv_pos_site_id
 _symmetry_equiv_pos_as_xyz
  1  'x, y, z'
loop_
 _atom_site_type_symbol
 _atom_site_label
 _atom_site_symmetry_multiplicity
 _atom_site_fract_x
 _atom_site_fract_y
 _atom_site_fract_z
 _atom_site_occupancy
  Ca  Ca0  1  0.81442400  0.41995900  0.61768600  1
  Ca  Ca1  1  0.18557600  0.58004100  0.38231400  1
  Ca  Ca2  1  0.66571800  0.87759500  0.88416700  1
  Ca  Ca3  1  0.33428200  0.12240500  0.11583300  1
  Ca  Ca4  1  0.64437400  0.66185000  0.18562900  1
  Ca  Ca5  1  0.35562600  0.33815000  0.81437100  1
  Ru  Ru0  1  0.92113000  0.31703200  0.98109200  1
  Ru  Ru1  1  0.07887000  0.68296800  0.01890800  1
  Ru  Ru2  1  0.69944500  0.93872000  0.56007200  1
  Ru  Ru3  1  0.30055500  0.06128000  0.43992800  1
  Ru  Ru4  1  0.12760900  0.85916800  0.71931200  1
  Ru  Ru5  1  0.87239100  0.14083200  0.28068800  1
  N  N0  1  0.96224700  0.09248500  0.80229600  1
  N  N1  1  0.03775300  0.90751500  0.19770400  1
  N  N2  1  0.85648200  0.70119200  0.49698500  1
  N  N3  1  0.14351800  0.29880800  0.50301500  1
  N  N4  1  0.73466900  0.53698900  0.89691700  1
  N  N5  1  0.26533100  0.46301100  0.10308300  1
  N  N6  1  0.38049200  0.90518300  0.61146400  1
  N  N7  1  0.61950800  0.09481700  0.38853600  1
  N  N8  1  0.31006800  0.77109900  0.92089400  1
  N  N9  1  0.68993200  0.22890100  0.07910600  1
loop_
_geom_bond_atom_site_label_1
_geom_bond_atom_site_label_2
_geom_bond_distance
_geom_bond_site_symmetry_2
Ca0 N4 2.441109 1_555
Ca0 N2 2.443777 1_555
Ca0 N7 2.456749 1_555
Ca0 N3 2.526755 1_655
Ca0 N0 3.117779 1_555
Ca1 N5 2.441109 1_555
Ca1 N3 2.443777 1_555
Ca1 N6 2.456749 1_555
Ca1 N2 2.526755 1_455
Ca1 N1 3.117779 1_555
Ca2 N8 2.313580 1_555
Ca2 N4 2.454192 1_555
Ca2 N6 2.482147 1_555
Ca2 N9 2.501697 1_566
Ca2 N0 2.564800 1_565
Ca2 N1 2.845120 1_656
Ca3 N9 2.313580 1_555
Ca3 N5 2.454192 1_555
Ca3 N7 2.482147 1_555
Ca3 N8 2.501697 1_544
Ca3 N1 2.564800 1_545
Ca3 N0 2.845120 1_454
Ca4 N5 2.354888 1_555
Ca4 N2 2.464052 1_555
Ca4 N4 2.550070 1_554
Ca4 N1 2.736738 1_655
Ca4 N8 2.836395 1_554
Ca4 N9 2.950219 1_555
Ca4 N7 3.060451 1_565
Ca5 N4 2.354888 1_555
Ca5 N3 2.464052 1_555
Ca5 N5 2.550070 1_556
Ca5 N0 2.736738 1_455
Ca5 N9 2.836395 1_556
Ca5 N8 2.950219 1_555
Ca5 N6 3.060451 1_545
N0 Ru0 1.929254 1_555
N0 Ru4 2.030934 1_645
N0 Ru2 2.099460 1_545
N1 Ru1 1.929254 1_555
N1 Ru5 2.030934 1_465
N1 Ru3 2.099460 1_565
N2 Ru2 1.985399 1_555
N2 Ru4 2.033093 1_655
N3 Ru3 1.985399 1_555
N3 Ru5 2.033093 1_455
N4 Ru1 2.041381 1_656
N4 Ru0 2.113912 1_555
N5 Ru0 2.041381 1_454
N5 Ru1 2.113912 1_555
N6 Ru3 1.989817 1_565
N6 Ru4 2.004815 1_555
N6 Ru2 2.071841 1_555
N7 Ru2 1.989817 1_545
N7 Ru5 2.004815 1_555
N7 Ru3 2.071841 1_555
N8 Ru1 1.923038 1_556
N8 Ru4 1.997268 1_555
N9 Ru0 1.923038 1_554
N9 Ru5 1.997268 1_555
