# generated using pymatgen
data_Mg14CdSb
_symmetry_space_group_name_H-M   'P 1'
_cell_length_a   6.36759564
_cell_length_b   6.46591187
_cell_length_c   10.36631122
_cell_angle_alpha   90.00000000
_cell_angle_beta   90.00000000
_cell_angle_gamma   120.51208742
_symmetry_Int_Tables_number   1
_chemical_formula_structural   Mg14CdSb
_chemical_formula_sum   'Mg14 Cd1 Sb1'
_cell_volume   367.70192854
_cell_formula_units_Z   1
loop_
 _symmetry_equiv_pos_site_id
 _symmetry_equiv_pos_as_xyz
  1  'x, y, z'
loop_
 _atom_site_type_symbol
 _atom_site_label
 _atom_site_symmetry_multiplicity
 _atom_site_fract_x
 _atom_site_fract_y
 _atom_site_fract_z
 _atom_site_occupancy
  Mg  Mg0  1  0.16766501  0.33383201  0.62500000  1
  Mg  Mg1  1  0.16679677  0.83339789  0.62500000  1
  Mg  Mg2  1  0.66755250  0.33296792  0.12500000  1
  Mg  Mg3  1  0.66629142  0.33382929  0.62500000  1
  Mg  Mg4  1  0.66755250  0.83458358  0.12500000  1
  Mg  Mg5  1  0.66629142  0.83246113  0.62500000  1
  Mg  Mg6  1  0.33385026  0.16860015  0.37549759  1
  Mg  Mg7  1  0.33385026  0.16860015  0.87450241  1
  Mg  Mg8  1  0.33385026  0.66525112  0.37549759  1
  Mg  Mg9  1  0.33385026  0.66525112  0.87450241  1
  Mg  Mg10  1  0.83368342  0.16684221  0.37544477  1
  Mg  Mg11  1  0.83368342  0.16684221  0.87455523  1
  Mg  Mg12  1  0.83174542  0.66587321  0.37692050  1
  Mg  Mg13  1  0.83174542  0.66587321  0.87307950  1
  Cd  Cd0  1  0.16468357  0.33234128  0.12500000  1
  Sb  Sb0  1  0.16690807  0.83345354  0.12500000  1
loop_
_geom_bond_atom_site_label_1
_geom_bond_atom_site_label_2
_geom_bond_distance
_geom_bond_site_symmetry_2
Mg0 Mg11 3.170051 1_455
Mg0 Mg10 3.170051 1_455
Mg0 Mg5 3.175060 1_555
Mg0 Mg3 3.175060 1_555
Mg0 Mg6 3.177859 1_555
Mg0 Mg7 3.177859 1_555
Mg0 Mg8 3.177866 1_555
Mg0 Mg9 3.177866 1_555
Mg0 Mg5 3.192535 1_445
Mg0 Mg3 3.192535 1_455
Mg0 Mg1 3.232959 1_545
Mg0 Mg1 3.232959 1_555
Mg1 Mg12 3.160988 1_455
Mg1 Mg13 3.160988 1_455
Mg1 Mg3 3.183659 1_565
Mg1 Mg5 3.183659 1_555
Mg1 Mg3 3.183944 1_455
Mg1 Mg5 3.183945 1_455
Mg1 Mg8 3.190220 1_555
Mg1 Mg9 3.190220 1_555
Mg1 Mg6 3.190227 1_565
Mg1 Mg7 3.190227 1_565
Mg2 Mg7 3.177186 1_554
Mg2 Mg6 3.177186 1_555
Mg2 Sb0 3.183410 1_655
Mg2 Sb0 3.184197 1_545
Mg2 Mg4 3.222509 1_545
Mg2 Mg4 3.243403 1_555
Mg3 Mg6 3.164734 1_555
Mg3 Mg7 3.164734 1_555
Mg3 Mg5 3.224110 1_555
Mg3 Mg5 3.241802 1_545
Mg4 Mg9 3.177186 1_554
Mg4 Mg8 3.177186 1_555
Mg4 Sb0 3.183410 1_655
Mg4 Sb0 3.184198 1_555
Mg5 Mg8 3.164734 1_555
Mg5 Mg9 3.164734 1_555
Mg6 Sb0 3.198421 1_545
Mg6 Mg8 3.211301 1_555
Mg6 Mg8 3.254610 1_545
Mg7 Sb0 3.198421 1_546
Mg7 Mg9 3.211301 1_555
Mg7 Mg9 3.254610 1_545
Mg8 Sb0 3.198415 1_555
Mg9 Sb0 3.198415 1_556
Mg10 Mg8 3.179104 1_655
Mg10 Mg6 3.179104 1_655
Mg10 Mg3 3.187937 1_555
Mg10 Mg5 3.187944 1_545
Mg10 Mg8 3.188521 1_545
Mg10 Mg6 3.188522 1_555
Mg10 Mg2 3.188558 1_555
Mg10 Mg4 3.188564 1_545
Mg10 Mg12 3.233010 1_545
Mg10 Mg12 3.233010 1_555
Mg11 Mg9 3.179104 1_655
Mg11 Mg7 3.179104 1_655
Mg11 Mg3 3.187937 1_555
Mg11 Mg5 3.187944 1_545
Mg11 Mg9 3.188521 1_545
Mg11 Mg7 3.188522 1_555
Mg11 Mg2 3.188558 1_556
Mg11 Mg4 3.188564 1_546
Mg11 Mg13 3.233010 1_545
Mg11 Mg13 3.233010 1_555
Mg12 Mg5 3.167967 1_555
Mg12 Mg3 3.167973 1_555
Mg12 Mg6 3.168389 1_555
Mg12 Mg8 3.168389 1_555
Mg12 Sb0 3.193817 1_655
Mg12 Mg6 3.199278 1_665
Mg12 Mg8 3.199279 1_655
Mg12 Mg4 3.203291 1_555
Mg12 Mg2 3.203298 1_555
Mg13 Mg5 3.167967 1_555
Mg13 Mg3 3.167973 1_555
Mg13 Mg7 3.168389 1_555
Mg13 Mg9 3.168389 1_555
Mg13 Sb0 3.193817 1_656
Mg13 Mg7 3.199278 1_665
Mg13 Mg9 3.199279 1_655
Mg13 Mg4 3.203291 1_556
Mg13 Mg2 3.203298 1_556
Cd0 Mg4 3.167588 1_445
Cd0 Mg2 3.167589 1_455
Cd0 Mg11 3.168179 1_454
Cd0 Mg10 3.168179 1_455
Cd0 Mg7 3.190979 1_554
Cd0 Mg6 3.190979 1_555
Cd0 Mg9 3.190986 1_554
Cd0 Mg8 3.190986 1_555
Cd0 Mg4 3.200010 1_555
Cd0 Mg2 3.200011 1_555
Cd0 Sb0 3.232979 1_545
Cd0 Sb0 3.232979 1_555
