# generated using pymatgen
data_Er4Ga12Pd
_symmetry_space_group_name_H-M   'P 1'
_cell_length_a   7.36610756
_cell_length_b   7.36610756
_cell_length_c   7.36610756
_cell_angle_alpha   109.47122063
_cell_angle_beta   109.47122063
_cell_angle_gamma   109.47122063
_symmetry_Int_Tables_number   1
_chemical_formula_structural   Er4Ga12Pd
_chemical_formula_sum   'Er4 Ga12 Pd1'
_cell_volume   307.67504788
_cell_formula_units_Z   1
loop_
 _symmetry_equiv_pos_site_id
 _symmetry_equiv_pos_as_xyz
  1  'x, y, z'
loop_
 _atom_site_type_symbol
 _atom_site_label
 _atom_site_symmetry_multiplicity
 _atom_site_fract_x
 _atom_site_fract_y
 _atom_site_fract_z
 _atom_site_occupancy
  Er  Er0  1  0.00000000  0.00000000  0.50000000  1
  Er  Er1  1  0.00000000  0.50000000  0.00000000  1
  Er  Er2  1  0.50000000  0.00000000  0.00000000  1
  Er  Er3  1  0.50000000  0.50000000  0.50000000  1
  Ga  Ga0  1  0.75000000  0.25000000  0.50000000  1
  Ga  Ga1  1  0.75000000  0.50000000  0.25000000  1
  Ga  Ga2  1  0.50000000  0.25000000  0.75000000  1
  Ga  Ga3  1  0.25000000  0.50000000  0.75000000  1
  Ga  Ga4  1  0.25000000  0.75000000  0.50000000  1
  Ga  Ga5  1  0.50000000  0.75000000  0.25000000  1
  Ga  Ga6  1  0.70235146  0.70235146  0.00000000  1
  Ga  Ga7  1  0.29764854  0.00000000  0.29764854  1
  Ga  Ga8  1  0.00000000  0.29764854  0.29764854  1
  Ga  Ga9  1  0.29764854  0.29764854  0.00000000  1
  Ga  Ga10  1  0.70235146  -0.00000000  0.70235146  1
  Ga  Ga11  1  -0.00000000  0.70235146  0.70235146  1
  Pd  Pd0  1  0.00000000  0.00000000  0.00000000  1
loop_
_geom_bond_atom_site_label_1
_geom_bond_atom_site_label_2
_geom_bond_distance
_geom_bond_site_symmetry_2
Er0 Ga5 3.007201 1_445
Er0 Ga3 3.007201 1_555
Er0 Ga1 3.007201 1_445
Er0 Ga2 3.007201 1_555
Er0 Ga4 3.007201 1_545
Er0 Ga0 3.007201 1_455
Er0 Ga6 3.034388 1_445
Er0 Ga7 3.034388 1_555
Er0 Ga11 3.034388 1_545
Er0 Ga9 3.034388 1_556
Er0 Ga8 3.034388 1_555
Er0 Ga10 3.034388 1_455
Er1 Ga5 3.007201 1_555
Er1 Ga2 3.007201 1_454
Er1 Ga4 3.007201 1_555
Er1 Ga3 3.007201 1_554
Er1 Ga0 3.007201 1_454
Er1 Ga1 3.007201 1_455
Er1 Ga9 3.034388 1_555
Er1 Ga11 3.034388 1_554
Er1 Ga6 3.034388 1_455
Er1 Ga7 3.034388 1_565
Er1 Ga8 3.034388 1_555
Er1 Ga10 3.034388 1_454
Er2 Ga1 3.007201 1_555
Er2 Ga3 3.007201 1_544
Er2 Ga4 3.007201 1_544
Er2 Ga5 3.007201 1_545
Er2 Ga2 3.007201 1_554
Er2 Ga0 3.007201 1_555
Er2 Ga6 3.034388 1_545
Er2 Ga9 3.034388 1_555
Er2 Ga8 3.034388 1_655
Er2 Ga7 3.034388 1_555
Er2 Ga11 3.034388 1_544
Er2 Ga10 3.034388 1_554
Er3 Ga3 3.007201 1_555
Er3 Ga4 3.007201 1_555
Er3 Ga1 3.007201 1_555
Er3 Ga5 3.007201 1_555
Er3 Ga2 3.007201 1_555
Er3 Ga0 3.007201 1_555
Er3 Ga10 3.034388 1_565
Er3 Ga9 3.034388 1_555
Er3 Ga11 3.034388 1_655
Er3 Ga7 3.034388 1_555
Er3 Ga6 3.034388 1_556
Er3 Ga8 3.034388 1_555
Ga0 Ga8 2.735675 1_655
Ga0 Ga7 2.735675 1_555
Ga0 Ga11 2.735675 1_655
Ga0 Ga10 2.735675 1_555
Ga0 Ga5 3.007201 1_545
Ga0 Ga3 3.007201 1_655
Ga0 Ga2 3.007201 1_555
Ga0 Ga1 3.007201 1_555
Ga1 Ga6 2.735675 1_555
Ga1 Ga9 2.735675 1_555
Ga1 Ga8 2.735675 1_655
Ga1 Ga11 2.735675 1_655
Ga1 Ga4 3.007201 1_655
Ga1 Ga5 3.007201 1_555
Ga1 Ga2 3.007201 1_554
Ga2 Ga7 2.735675 1_555
Ga2 Ga9 2.735675 1_556
Ga2 Ga6 2.735675 1_556
Ga2 Ga4 3.007201 1_545
Ga2 Ga3 3.007201 1_555
Ga3 Ga8 2.735675 1_555
Ga3 Ga9 2.735675 1_556
Ga3 Ga6 2.735675 1_556
Ga3 Ga5 3.007201 1_556
Ga3 Ga4 3.007201 1_555
Ga4 Ga8 2.735675 1_555
Ga4 Ga7 2.735675 1_565
Ga4 Ga5 3.007201 1_555
Ga5 Ga9 2.735675 1_555
Ga5 Ga7 2.735675 1_565
Ga5 Ga6 2.735675 1_555
Ga6 Pd0 2.531694 1_665
Ga7 Pd0 2.531694 1_555
Ga8 Pd0 2.531694 1_555
Ga9 Pd0 2.531694 1_555
Ga10 Pd0 2.531694 1_656
Ga10 Ga2 2.735675 1_555
Ga10 Ga4 2.735675 1_545
Ga10 Ga5 2.735675 1_545
Ga11 Pd0 2.531694 1_566
Ga11 Ga3 2.735675 1_555
Ga11 Ga4 2.735675 1_555
