# generated using pymatgen
data_Ga4SbS9N3O2
_symmetry_space_group_name_H-M   'P 1'
_cell_length_a   12.98037000
_cell_length_b   12.98037000
_cell_length_c   12.98037000
_cell_angle_alpha   90.00000000
_cell_angle_beta   90.00000000
_cell_angle_gamma   90.00000000
_symmetry_Int_Tables_number   1
_chemical_formula_structural   Ga4SbS9N3O2
_chemical_formula_sum   'Ga16 Sb4 S36 N12 O8'
_cell_volume   2187.06261057
_cell_formula_units_Z   4
loop_
 _symmetry_equiv_pos_site_id
 _symmetry_equiv_pos_as_xyz
  1  'x, y, z'
loop_
 _atom_site_type_symbol
 _atom_site_label
 _atom_site_symmetry_multiplicity
 _atom_site_fract_x
 _atom_site_fract_y
 _atom_site_fract_z
 _atom_site_occupancy
  Ga  Ga0  1  0.96280100  0.03718800  0.32047600  1
  Ga  Ga1  1  0.67952400  0.46280100  0.46281200  1
  Ga  Ga2  1  0.53718800  0.17952400  0.03719900  1
  Ga  Ga3  1  0.46280100  0.46281200  0.67952400  1
  Ga  Ga4  1  0.17952400  0.03719900  0.53718800  1
  Ga  Ga5  1  0.03718800  0.32047600  0.96280100  1
  Ga  Ga6  1  0.03719900  0.53718800  0.17952400  1
  Ga  Ga7  1  0.32047600  0.96280100  0.03718800  1
  Ga  Ga8  1  0.46281200  0.67952400  0.46280100  1
  Ga  Ga9  1  0.53719900  0.96281200  0.82047600  1
  Ga  Ga10  1  0.82047600  0.53719900  0.96281200  1
  Ga  Ga11  1  0.96281200  0.82047600  0.53719900  1
  Ga  Ga12  1  0.87753700  0.12246300  0.62246300  1
  Ga  Ga13  1  0.37753700  0.37753700  0.37753700  1
  Ga  Ga14  1  0.62246300  0.87753700  0.12246300  1
  Ga  Ga15  1  0.12246300  0.62246300  0.87753700  1
  Sb  Sb0  1  0.11389500  0.11389500  0.11389500  1
  Sb  Sb1  1  0.88610500  0.61389500  0.38610500  1
  Sb  Sb2  1  0.61389500  0.38610500  0.88610500  1
  Sb  Sb3  1  0.38610500  0.88610500  0.61389500  1
  S  S0  1  0.93128000  0.07683400  0.15771700  1
  S  S1  1  0.84228300  0.43128000  0.42316600  1
  S  S2  1  0.57683400  0.34228300  0.06872000  1
  S  S3  1  0.43128000  0.42316600  0.84228300  1
  S  S4  1  0.34228300  0.06872000  0.57683400  1
  S  S5  1  0.07683400  0.15771700  0.93128000  1
  S  S6  1  0.06872000  0.57683400  0.34228300  1
  S  S7  1  0.15771700  0.93128000  0.07683400  1
  S  S8  1  0.42316600  0.84228300  0.43128000  1
  S  S9  1  0.56872000  0.92316600  0.65771700  1
  S  S10  1  0.65771700  0.56872000  0.92316600  1
  S  S11  1  0.92316600  0.65771700  0.56872000  1
  S  S12  1  0.13955200  0.04224400  0.36122800  1
  S  S13  1  0.63877200  0.63955200  0.45775600  1
  S  S14  1  0.54224400  0.13877200  0.86044800  1
  S  S15  1  0.63955200  0.45775600  0.63877200  1
  S  S16  1  0.13877200  0.86044800  0.54224400  1
  S  S17  1  0.04224400  0.36122800  0.13955200  1
  S  S18  1  0.86044800  0.54224400  0.13877200  1
  S  S19  1  0.36122800  0.13955200  0.04224400  1
  S  S20  1  0.45775600  0.63877200  0.63955200  1
  S  S21  1  0.36044800  0.95775600  0.86122800  1
  S  S22  1  0.86122800  0.36044800  0.95775600  1
  S  S23  1  0.95775600  0.86122800  0.36044800  1
  S  S24  1  0.89029900  0.16926100  0.43396300  1
  S  S25  1  0.56603700  0.39029900  0.33073900  1
  S  S26  1  0.66926100  0.06603700  0.10970100  1
  S  S27  1  0.39029900  0.33073900  0.56603700  1
  S  S28  1  0.06603700  0.10970100  0.66926100  1
  S  S29  1  0.16926100  0.43396300  0.89029900  1
  S  S30  1  0.10970100  0.66926100  0.06603700  1
  S  S31  1  0.43396300  0.89029900  0.16926100  1
  S  S32  1  0.33073900  0.56603700  0.39029900  1
  S  S33  1  0.60970100  0.83073900  0.93396300  1
  S  S34  1  0.93396300  0.60970100  0.83073900  1
  S  S35  1  0.83073900  0.93396300  0.60970100  1
  N  N0  1  0.99474200  0.23498400  0.43294100  1
  N  N1  1  0.56705900  0.49474200  0.26501600  1
  N  N2  1  0.73498400  0.06705900  0.00525800  1
  N  N3  1  0.49474200  0.26501600  0.56705900  1
  N  N4  1  0.06705900  0.00525800  0.73498400  1
  N  N5  1  0.23498400  0.43294100  0.99474200  1
  N  N6  1  0.00525800  0.73498400  0.06705900  1
  N  N7  1  0.43294100  0.99474200  0.23498400  1
  N  N8  1  0.26501600  0.56705900  0.49474200  1
  N  N9  1  0.50525800  0.76501600  0.93294100  1
  N  N10  1  0.93294100  0.50525800  0.76501600  1
  N  N11  1  0.76501600  0.93294100  0.50525800  1
  O  O0  1  0.89898600  0.39898600  0.10101400  1
  O  O1  1  0.39898600  0.10101400  0.89898600  1
  O  O2  1  0.10101400  0.89898600  0.39898600  1
  O  O3  1  0.60101400  0.60101400  0.60101400  1
  O  O4  1  0.80204900  0.19795100  0.69795100  1
  O  O5  1  0.30204900  0.30204900  0.30204900  1
  O  O6  1  0.69795100  0.80204900  0.19795100  1
  O  O7  1  0.19795100  0.69795100  0.80204900  1
loop_
_geom_bond_atom_site_label_1
_geom_bond_atom_site_label_2
_geom_bond_distance
_geom_bond_site_symmetry_2
Ga0 S0 2.212606 1_555
Ga0 S23 2.343132 1_545
Ga0 S12 2.355399 1_655
Ga0 S24 2.448413 1_555
Ga1 S1 2.212606 1_555
Ga1 S15 2.343132 1_555
Ga1 S13 2.355399 1_555
Ga1 S25 2.448413 1_555
Ga2 S2 2.212606 1_555
Ga2 S19 2.343132 1_555
Ga2 S14 2.355399 1_554
Ga2 S26 2.448413 1_555
Ga3 S3 2.212606 1_555
Ga3 S20 2.343132 1_555
Ga3 S15 2.355399 1_555
Ga3 S27 2.448413 1_555
Ga4 S4 2.212606 1_555
Ga4 S12 2.343132 1_555
Ga4 S16 2.355399 1_545
Ga4 S28 2.448413 1_555
Ga5 S5 2.212606 1_555
Ga5 S22 2.343132 1_455
Ga5 S17 2.355399 1_556
Ga5 S29 2.448413 1_555
Ga6 S6 2.212606 1_555
Ga6 S17 2.343132 1_555
Ga6 S18 2.355399 1_455
Ga6 S30 2.448413 1_555
Ga7 S7 2.212606 1_555
Ga7 S21 2.343132 1_554
Ga7 S19 2.355399 1_565
Ga7 S31 2.448413 1_555
Ga8 S8 2.212606 1_555
Ga8 S13 2.343132 1_555
Ga8 S20 2.355399 1_555
Ga8 S32 2.448413 1_555
Ga9 S9 2.212606 1_555
Ga9 S14 2.343132 1_565
Ga9 S21 2.355399 1_555
Ga9 S33 2.448413 1_555
Ga10 S10 2.212606 1_555
Ga10 S18 2.343132 1_556
Ga10 S22 2.355399 1_555
Ga10 S34 2.448413 1_555
Ga11 S11 2.212606 1_555
Ga11 S16 2.343132 1_655
Ga11 S23 2.355399 1_555
Ga11 S35 2.448413 1_555
Ga12 O4 1.697171 1_555
Ga12 S35 2.526514 1_545
Ga12 S28 2.526514 1_655
Ga12 S24 2.526514 1_555
Ga13 O5 1.697171 1_555
Ga13 S25 2.526514 1_555
Ga13 S32 2.526514 1_555
Ga13 S27 2.526514 1_555
Ga14 O6 1.697171 1_555
Ga14 S33 2.526514 1_554
Ga14 S26 2.526514 1_565
Ga14 S31 2.526514 1_555
Ga15 O7 1.697171 1_555
Ga15 S34 2.526514 1_455
Ga15 S30 2.526514 1_556
Ga15 S29 2.526514 1_555
S0 Sb0 2.484720 1_655
S1 Sb1 2.484720 1_555
S2 Sb2 2.484720 1_554
S3 Sb2 2.484720 1_555
S4 Sb3 2.484720 1_545
S5 Sb0 2.484720 1_556
S6 Sb1 2.484720 1_455
S7 Sb0 2.484720 1_565
S8 Sb3 2.484720 1_555
S9 Sb3 2.484720 1_555
S10 Sb2 2.484720 1_555
S11 Sb1 2.484720 1_555
N0 S24 1.601848 1_555
N1 S25 1.601848 1_555
N2 S26 1.601848 1_555
N3 S27 1.601848 1_555
N4 S28 1.601848 1_555
N5 S29 1.601848 1_555
N6 S30 1.601848 1_555
N7 S31 1.601848 1_555
N8 S32 1.601848 1_555
N9 S33 1.601848 1_555
N10 S34 1.601848 1_555
N11 S35 1.601848 1_555
O0 S22 1.987044 1_554
O0 S17 1.987044 1_655
O0 S18 1.987044 1_555
O1 S21 1.987044 1_545
O1 S19 1.987044 1_556
O1 S14 1.987044 1_555
O2 S23 1.987044 1_455
O2 S12 1.987044 1_565
O2 S16 1.987044 1_555
O3 S13 1.987044 1_555
O3 S20 1.987044 1_555
O3 S15 1.987044 1_555
