# generated using pymatgen
data_Lu4CdNi
_symmetry_space_group_name_H-M   'P 1'
_cell_length_a   9.27282386
_cell_length_b   9.27281059
_cell_length_c   9.27278417
_cell_angle_alpha   60.00135540
_cell_angle_beta   60.00138676
_cell_angle_gamma   60.00145279
_symmetry_Int_Tables_number   1
_chemical_formula_structural   Lu4CdNi
_chemical_formula_sum   'Lu16 Cd4 Ni4'
_cell_volume   563.80941075
_cell_formula_units_Z   4
loop_
 _symmetry_equiv_pos_site_id
 _symmetry_equiv_pos_as_xyz
  1  'x, y, z'
loop_
 _atom_site_type_symbol
 _atom_site_label
 _atom_site_symmetry_multiplicity
 _atom_site_fract_x
 _atom_site_fract_y
 _atom_site_fract_z
 _atom_site_occupancy
  Lu  Lu0  1  0.34838709  0.34837065  0.34841789  1
  Lu  Lu1  1  0.34840994  0.34839510  0.95479921  1
  Lu  Lu2  1  0.34838477  0.95482105  0.34842022  1
  Lu  Lu3  1  0.95480477  0.34838514  0.34842633  1
  Lu  Lu4  1  0.81157397  0.18842755  0.18840915  1
  Lu  Lu5  1  0.18841071  0.81162842  0.81155514  1
  Lu  Lu6  1  0.18843277  0.81157754  0.18842095  1
  Lu  Lu7  1  0.81162461  0.18840951  0.81156742  1
  Lu  Lu8  1  0.18840421  0.18840925  0.81156117  1
  Lu  Lu9  1  0.81156572  0.81159102  0.18841841  1
  Lu  Lu10  1  0.93726803  0.56273676  0.56273742  1
  Lu  Lu11  1  0.56273614  0.93724129  0.93728798  1
  Lu  Lu12  1  0.56273748  0.93725439  0.56274010  1
  Lu  Lu13  1  0.93725161  0.56273769  0.93727722  1
  Lu  Lu14  1  0.56273993  0.56273637  0.93728090  1
  Lu  Lu15  1  0.93727275  0.93725855  0.56273471  1
  Cd  Cd0  1  0.58101877  0.58101653  0.58102837  1
  Cd  Cd1  1  0.58103270  0.58102580  0.25689572  1
  Cd  Cd2  1  0.58101821  0.25693913  0.58102138  1
  Cd  Cd3  1  0.25692692  0.58101581  0.58102607  1
  Ni  Ni0  1  0.14242031  0.14242365  0.14242282  1
  Ni  Ni1  1  0.14242161  0.14242541  0.57272255  1
  Ni  Ni2  1  0.14241060  0.57275180  0.14241619  1
  Ni  Ni3  1  0.57274338  0.14241857  0.14241370  1
loop_
_geom_bond_atom_site_label_1
_geom_bond_atom_site_label_2
_geom_bond_distance
_geom_bond_site_symmetry_2
Lu0 Ni1 2.706231 1_555
Lu0 Ni3 2.706545 1_555
Lu0 Ni2 2.706697 1_555
Lu0 Lu12 3.351168 1_545
Lu0 Lu10 3.351224 1_455
Lu0 Lu14 3.351402 1_554
Lu1 Ni3 2.706476 1_556
Lu1 Ni0 2.706556 1_556
Lu1 Ni2 2.706649 1_556
Lu1 Lu14 3.351260 1_555
Lu1 Lu11 3.351312 1_545
Lu1 Lu13 3.351385 1_455
Lu2 Ni1 2.706198 1_565
Lu2 Ni3 2.706542 1_565
Lu2 Ni0 2.706572 1_565
Lu3 Ni1 2.706234 1_655
Lu3 Ni0 2.706585 1_655
Lu3 Ni2 2.706649 1_655
Lu4 Ni3 2.709204 1_555
Lu4 Ni0 2.709388 1_655
Lu5 Ni1 2.709050 1_565
Lu5 Ni2 2.709563 1_556
Lu6 Ni2 2.709293 1_555
Lu6 Ni0 2.709319 1_565
Lu7 Ni1 2.709092 1_655
Lu7 Ni3 2.709491 1_556
Lu8 Ni1 2.709042 1_555
Lu8 Ni0 2.709576 1_556
Lu9 Ni3 2.709207 1_565
Lu9 Ni2 2.709365 1_655
Lu10 Ni2 3.349473 1_655
Lu10 Ni1 3.349480 1_655
Lu10 Lu3 3.351092 1_555
Lu10 Lu15 3.472879 1_555
Lu10 Lu13 3.472955 1_555
Lu10 Lu12 3.472970 1_555
Lu10 Lu14 3.473070 1_555
Lu10 Lu8 3.475125 1_655
Lu10 Lu7 3.475148 1_555
Lu10 Lu6 3.475299 1_655
Lu10 Lu9 3.475352 1_555
Lu11 Ni3 3.349337 1_566
Lu11 Ni0 3.349508 1_566
Lu11 Lu2 3.351332 1_556
Lu11 Lu14 3.472728 1_555
Lu11 Lu13 3.472835 1_555
Lu11 Lu12 3.473035 1_555
Lu11 Lu15 3.473155 1_555
Lu11 Lu9 3.475004 1_556
Lu11 Lu6 3.475063 1_556
Lu11 Lu7 3.475539 1_565
Lu11 Lu8 3.475578 1_565
Lu12 Ni1 3.349528 1_565
Lu12 Ni3 3.349536 1_565
Lu12 Lu2 3.351022 1_555
Lu12 Lu15 3.472994 1_555
Lu12 Lu14 3.473006 1_555
Lu12 Lu5 3.475068 1_555
Lu12 Lu9 3.475193 1_555
Lu12 Lu8 3.475219 1_565
Lu12 Lu4 3.475363 1_565
Lu13 Ni2 3.349337 1_656
Lu13 Ni0 3.349486 1_656
Lu13 Lu3 3.351387 1_556
Lu13 Lu14 3.472770 1_555
Lu13 Lu15 3.473028 1_555
Lu13 Lu9 3.475159 1_556
Lu13 Lu4 3.475175 1_556
Lu13 Lu5 3.475481 1_655
Lu13 Lu8 3.475498 1_655
Lu14 Ni3 3.349483 1_556
Lu14 Ni2 3.349552 1_556
Lu14 Lu4 3.475078 1_556
Lu14 Lu6 3.475163 1_556
Lu14 Lu7 3.475473 1_555
Lu14 Lu5 3.475552 1_555
Lu15 Ni1 3.349338 1_665
Lu15 Ni0 3.349462 1_665
Lu15 Lu2 3.351132 1_655
Lu15 Lu3 3.351152 1_565
Lu15 Lu5 3.475054 1_655
Lu15 Lu7 3.475191 1_565
Lu15 Lu6 3.475214 1_655
Lu15 Lu4 3.475387 1_565
Cd0 Cd2 3.005143 1_555
Cd0 Cd3 3.005261 1_555
Cd0 Cd1 3.005505 1_555
Cd0 Lu12 3.142942 1_555
Cd0 Lu10 3.143048 1_555
Cd0 Lu14 3.143112 1_555
Cd0 Lu1 3.319474 1_555
Cd0 Lu3 3.319550 1_555
Cd0 Lu2 3.319652 1_555
Cd0 Lu9 3.376390 1_555
Cd0 Lu5 3.376456 1_555
Cd0 Lu7 3.376473 1_555
Cd1 Cd2 3.005432 1_555
Cd1 Cd3 3.005546 1_555
Cd1 Lu14 3.142490 1_554
Cd1 Lu11 3.142631 1_554
Cd1 Lu13 3.142697 1_554
Cd1 Lu0 3.319734 1_555
Cd1 Lu3 3.319768 1_555
Cd1 Lu2 3.319921 1_555
Cd1 Lu6 3.376156 1_555
Cd1 Lu4 3.376184 1_555
Cd1 Lu9 3.376275 1_555
Cd2 Cd3 3.005238 1_555
Cd2 Lu12 3.143041 1_545
Cd2 Lu15 3.143143 1_545
Cd2 Lu11 3.143263 1_545
Cd2 Lu1 3.319487 1_555
Cd2 Lu3 3.319524 1_555
Cd2 Lu0 3.319542 1_555
Cd2 Lu4 3.376380 1_555
Cd2 Lu8 3.376476 1_555
Cd2 Lu7 3.376485 1_555
Cd3 Lu10 3.142835 1_455
Cd3 Lu15 3.142972 1_455
Cd3 Lu13 3.143094 1_455
Cd3 Lu1 3.319563 1_555
Cd3 Lu0 3.319582 1_555
Cd3 Lu2 3.319716 1_555
Cd3 Lu6 3.376256 1_555
Cd3 Lu8 3.376384 1_555
Cd3 Lu5 3.376453 1_555
