# generated using pymatgen
data_Ce3AlZnS7
_symmetry_space_group_name_H-M   'P 1'
_cell_length_a   10.09259418
_cell_length_b   10.09259418
_cell_length_c   6.22702300
_cell_angle_alpha   90.00000000
_cell_angle_beta   90.00000000
_cell_angle_gamma   120.00000117
_symmetry_Int_Tables_number   1
_chemical_formula_structural   Ce3AlZnS7
_chemical_formula_sum   'Ce6 Al2 Zn2 S14'
_cell_volume   549.30900396
_cell_formula_units_Z   2
loop_
 _symmetry_equiv_pos_site_id
 _symmetry_equiv_pos_as_xyz
  1  'x, y, z'
loop_
 _atom_site_type_symbol
 _atom_site_label
 _atom_site_symmetry_multiplicity
 _atom_site_fract_x
 _atom_site_fract_y
 _atom_site_fract_z
 _atom_site_occupancy
  Ce  Ce0  1  0.62585200  0.85845300  0.25959600  1
  Ce  Ce1  1  0.14154700  0.76739900  0.25959600  1
  Ce  Ce2  1  0.23260100  0.37414800  0.25959600  1
  Ce  Ce3  1  0.37414800  0.14154700  0.75959600  1
  Ce  Ce4  1  0.85845300  0.23260100  0.75959600  1
  Ce  Ce5  1  0.76739900  0.62585200  0.75959600  1
  Al  Al0  1  0.33333300  0.66666700  0.83740100  1
  Al  Al1  1  0.66666700  0.33333300  0.33740100  1
  Zn  Zn0  1  0.00000000  0.00000000  0.49099900  1
  Zn  Zn1  1  0.00000000  0.00000000  0.99099900  1
  S  S0  1  0.76341700  0.90745400  0.69896600  1
  S  S1  1  0.09254600  0.85596300  0.69896600  1
  S  S2  1  0.14403700  0.23658300  0.69896600  1
  S  S3  1  0.23658300  0.09254600  0.19896600  1
  S  S4  1  0.90745400  0.14403700  0.19896600  1
  S  S5  1  0.85596300  0.76341700  0.19896600  1
  S  S6  1  0.48045900  0.58086300  0.98583300  1
  S  S7  1  0.41913700  0.89959600  0.98583300  1
  S  S8  1  0.10040400  0.51954100  0.98583300  1
  S  S9  1  0.51954100  0.41913700  0.48583300  1
  S  S10  1  0.58086300  0.10040400  0.48583300  1
  S  S11  1  0.89959600  0.48045900  0.48583300  1
  S  S12  1  0.33333300  0.66666700  0.47132300  1
  S  S13  1  0.66666700  0.33333300  0.97132300  1
loop_
_geom_bond_atom_site_label_1
_geom_bond_atom_site_label_2
_geom_bond_distance
_geom_bond_site_symmetry_2
Ce0 S7 2.880528 1_554
Ce0 S4 2.887192 1_565
Ce0 S12 2.913130 1_555
Ce0 S5 2.946815 1_555
Ce0 S6 2.966019 1_554
Ce0 S0 2.995178 1_555
Ce0 S10 3.043442 1_565
Ce1 S8 2.880528 1_554
Ce1 S5 2.887192 1_455
Ce1 S12 2.913123 1_555
Ce1 S3 2.946815 1_565
Ce1 S7 2.966019 1_554
Ce1 S1 2.995178 1_555
Ce1 S11 3.043442 1_455
Ce2 S6 2.880528 1_554
Ce2 S3 2.887192 1_555
Ce2 S12 2.913131 1_555
Ce2 S4 2.946815 1_455
Ce2 S8 2.966019 1_554
Ce2 S2 2.995178 1_555
Ce2 S9 3.043442 1_555
Ce3 S10 2.880528 1_555
Ce3 S1 2.887192 1_545
Ce3 S13 2.913130 1_555
Ce3 S2 2.946815 1_555
Ce3 S9 2.966019 1_555
Ce3 S3 2.995178 1_556
Ce3 S7 3.043442 1_545
Ce4 S11 2.880528 1_555
Ce4 S2 2.887192 1_655
Ce4 S13 2.913123 1_555
Ce4 S0 2.946815 1_545
Ce4 S10 2.966019 1_555
Ce4 S4 2.995178 1_556
Ce4 S8 3.043442 1_655
Ce5 S9 2.880528 1_555
Ce5 S0 2.887192 1_555
Ce5 S13 2.913131 1_555
Ce5 S1 2.946815 1_655
Ce5 S11 2.966019 1_555
Ce5 S5 2.995178 1_556
Ce5 S6 3.043442 1_555
Al0 S7 2.257203 1_555
Al0 S8 2.257205 1_555
Al0 S6 2.257212 1_555
Al0 S12 2.279576 1_555
Al1 S10 2.257203 1_555
Al1 S11 2.257205 1_555
Al1 S9 2.257212 1_555
Al1 S13 2.279576 1_554
S0 Zn0 2.453680 1_665
S0 Zn1 2.765937 1_665
S1 Zn0 2.453680 1_565
S1 Zn1 2.765937 1_565
S2 Zn0 2.453680 1_555
S2 Zn1 2.765937 1_555
S3 Zn1 2.453680 1_554
S3 Zn0 2.765937 1_555
S4 Zn1 2.453680 1_654
S4 Zn0 2.765937 1_655
S5 Zn1 2.453680 1_664
S5 Zn0 2.765937 1_665
