# generated using pymatgen
data_Ba3SrMg2(TeO6)2
_symmetry_space_group_name_H-M   'P 1'
_cell_length_a   9.91386368
_cell_length_b   9.91386368
_cell_length_c   9.91386306
_cell_angle_alpha   33.59088722
_cell_angle_beta   33.59088722
_cell_angle_gamma   33.59089078
_symmetry_Int_Tables_number   1
_chemical_formula_structural   Ba3SrMg2(TeO6)2
_chemical_formula_sum   'Ba3 Sr1 Mg2 Te2 O12'
_cell_volume   265.67631203
_cell_formula_units_Z   1
loop_
 _symmetry_equiv_pos_site_id
 _symmetry_equiv_pos_as_xyz
  1  'x, y, z'
loop_
 _atom_site_type_symbol
 _atom_site_label
 _atom_site_symmetry_multiplicity
 _atom_site_fract_x
 _atom_site_fract_y
 _atom_site_fract_z
 _atom_site_occupancy
  Ba  Ba0  1  0.87508639  0.87508639  0.87508639  1
  Ba  Ba1  1  0.12451930  0.12451930  0.12451930  1
  Ba  Ba2  1  0.62542606  0.62542606  0.62542606  1
  Sr  Sr0  1  0.37484637  0.37484637  0.37484637  1
  Mg  Mg0  1  0.00040586  0.00040586  0.00040586  1
  Mg  Mg1  1  0.49954461  0.49954461  0.49954461  1
  Te  Te0  1  0.74926968  0.74926968  0.74926968  1
  Te  Te1  1  0.25075555  0.25075555  0.25075555  1
  O  O0  1  0.39157252  0.86901270  0.86901270  1
  O  O1  1  0.89284632  0.36950206  0.36950206  1
  O  O2  1  0.62782871  0.10971146  0.62782871  1
  O  O3  1  0.13363534  0.60606027  0.13363534  1
  O  O4  1  0.86901270  0.86901270  0.39157252  1
  O  O5  1  0.36950206  0.36950206  0.89284632  1
  O  O6  1  0.10971146  0.62782871  0.62782871  1
  O  O7  1  0.60606027  0.13363534  0.13363534  1
  O  O8  1  0.86901270  0.39157252  0.86901270  1
  O  O9  1  0.36950206  0.89284632  0.36950206  1
  O  O10  1  0.62782871  0.62782871  0.10971146  1
  O  O11  1  0.13363534  0.13363534  0.60606027  1
loop_
_geom_bond_atom_site_label_1
_geom_bond_atom_site_label_2
_geom_bond_distance
_geom_bond_site_symmetry_2
Ba0 O9 2.866370 1_655
Ba0 O1 2.866370 1_565
Ba0 O1 2.866370 1_556
Ba0 O9 2.866370 1_556
Ba0 O5 2.866370 1_655
Ba0 O5 2.866370 1_565
Ba0 O3 2.901815 1_656
Ba0 O7 2.901815 1_566
Ba0 O11 2.901815 1_665
Ba0 O2 2.905202 1_565
Ba0 O6 2.905202 1_655
Ba0 O10 2.905202 1_556
Ba1 O8 2.861153 1_454
Ba1 O0 2.861153 1_544
Ba1 O4 2.861153 1_445
Ba1 O6 2.866316 1_545
Ba1 O2 2.866316 1_455
Ba1 O6 2.866316 1_554
Ba1 O2 2.866316 1_554
Ba1 O10 2.866316 1_455
Ba1 O10 2.866316 1_545
Ba1 O1 2.883238 1_455
Ba1 O9 2.883238 1_545
Ba1 O5 2.883238 1_554
Ba2 O0 2.845881 1_555
Ba2 O8 2.845881 1_555
Ba2 O4 2.845881 1_555
Ba2 O9 2.866204 1_555
Ba2 O1 2.866204 1_555
Ba2 O5 2.866204 1_555
Ba2 O3 2.866251 1_556
Ba2 O7 2.866251 1_556
Ba2 O7 2.866251 1_565
Ba2 O3 2.866251 1_655
Ba2 O11 2.866252 1_565
Ba2 O11 2.866252 1_655
Mg0 O4 2.104138 1_445
Mg0 O8 2.104138 1_454
Mg0 O0 2.104138 1_544
Mg0 O11 2.115176 1_554
Mg0 O7 2.115177 1_455
Mg0 O3 2.115177 1_545
Mg1 O10 2.118593 1_555
Mg1 O6 2.118593 1_555
Mg1 O2 2.118593 1_555
Mg1 O5 2.132340 1_555
Mg1 O9 2.132340 1_555
Mg1 O1 2.132340 1_555
O0 Te0 1.927351 1_555
O0 Sr0 2.866029 1_556
O0 Sr0 2.866029 1_565
O1 Te1 1.937125 1_655
O2 Te0 1.935950 1_545
O2 Sr0 2.828969 1_555
O3 Te1 1.929297 1_555
O3 Sr0 2.820259 1_555
O4 Te0 1.927351 1_555
O4 Sr0 2.866029 1_655
O4 Sr0 2.866029 1_565
O5 Te1 1.937125 1_556
O6 Te0 1.935950 1_455
O6 Sr0 2.828969 1_555
O7 Te1 1.929297 1_555
O7 Sr0 2.820259 1_555
O8 Te0 1.927351 1_555
O8 Sr0 2.866029 1_556
O8 Sr0 2.866029 1_655
O9 Te1 1.937125 1_565
O10 Te0 1.935950 1_554
O10 Sr0 2.828969 1_555
O11 Te1 1.929297 1_555
O11 Sr0 2.820259 1_555
