# generated using pymatgen
data_Cr2O5
_symmetry_space_group_name_H-M   'P 1'
_cell_length_a   3.63700600
_cell_length_b   4.79071500
_cell_length_c   11.03706401
_cell_angle_alpha   89.99577615
_cell_angle_beta   89.99994254
_cell_angle_gamma   89.99993261
_symmetry_Int_Tables_number   1
_chemical_formula_structural   Cr2O5
_chemical_formula_sum   'Cr4 O10'
_cell_volume   192.30824885
_cell_formula_units_Z   2
loop_
 _symmetry_equiv_pos_site_id
 _symmetry_equiv_pos_as_xyz
  1  'x, y, z'
loop_
 _atom_site_type_symbol
 _atom_site_label
 _atom_site_symmetry_multiplicity
 _atom_site_fract_x
 _atom_site_fract_y
 _atom_site_fract_z
 _atom_site_occupancy
  Cr  Cr0  1  0.01857000  0.88314200  0.15254600  1
  Cr  Cr1  1  0.51856800  0.11700800  0.34740300  1
  Cr  Cr2  1  0.51856900  0.11693500  0.65256800  1
  Cr  Cr3  1  0.01857000  0.88291700  0.84743300  1
  O  O0  1  0.51857700  0.99292600  0.18123100  1
  O  O1  1  0.01857600  0.00703000  0.31876400  1
  O  O2  1  0.01857900  0.00700400  0.68125000  1
  O  O3  1  0.51857900  0.99288200  0.81877600  1
  O  O4  1  0.01857400  0.55307800  0.85344100  1
  O  O5  1  0.51857300  0.44677700  0.64661000  1
  O  O6  1  0.51856900  0.44684600  0.35341300  1
  O  O7  1  0.51855400  0.99199300  0.49997400  1
  O  O8  1  0.01856200  0.00808300  0.99996900  1
  O  O9  1  0.01857100  0.55338000  0.14662200  1
loop_
_geom_bond_atom_site_label_1
_geom_bond_atom_site_label_2
_geom_bond_distance
_geom_bond_site_symmetry_2
Cr0 O9 1.581153 1_555
Cr0 O8 1.787172 1_564
Cr0 O0 1.919305 1_455
Cr0 O0 1.919355 1_555
Cr0 O1 1.928218 1_565
Cr1 O6 1.581556 1_555
Cr1 O7 1.787229 1_545
Cr1 O1 1.919475 1_555
Cr1 O1 1.919528 1_655
Cr1 O0 1.928021 1_545
Cr2 O5 1.581542 1_555
Cr2 O7 1.787434 1_545
Cr2 O2 1.919471 1_555
Cr2 O2 1.919539 1_655
Cr2 O3 1.928273 1_545
Cr3 O4 1.581550 1_555
Cr3 O8 1.787190 1_565
Cr3 O3 1.919473 1_455
Cr3 O3 1.919536 1_555
Cr3 O2 1.928060 1_565
