# generated using pymatgen
data_Cr8Co7
_symmetry_space_group_name_H-M   'P 1'
_cell_length_a   4.69183292
_cell_length_b   8.69437211
_cell_length_c   8.69437211
_cell_angle_alpha   90.00000000
_cell_angle_beta   90.00000000
_cell_angle_gamma   90.00000000
_symmetry_Int_Tables_number   1
_chemical_formula_structural   Cr8Co7
_chemical_formula_sum   'Cr16 Co14'
_cell_volume   354.66553324
_cell_formula_units_Z   2
loop_
 _symmetry_equiv_pos_site_id
 _symmetry_equiv_pos_as_xyz
  1  'x, y, z'
loop_
 _atom_site_type_symbol
 _atom_site_label
 _atom_site_symmetry_multiplicity
 _atom_site_fract_x
 _atom_site_fract_y
 _atom_site_fract_z
 _atom_site_occupancy
  Cr  Cr0  1  0.50138130  0.36022676  0.96089111  1
  Cr  Cr1  1  0.50138130  0.63977324  0.03910889  1
  Cr  Cr2  1  0.00138130  0.13977324  0.46089111  1
  Cr  Cr3  1  0.00138130  0.86022676  0.53910889  1
  Cr  Cr4  1  0.50138130  0.96089111  0.36022676  1
  Cr  Cr5  1  0.50138130  0.03910889  0.63977324  1
  Cr  Cr6  1  0.00138130  0.46089111  0.13977324  1
  Cr  Cr7  1  0.00138130  0.53910889  0.86022676  1
  Cr  Cr8  1  0.49423020  0.10321486  0.89678514  1
  Cr  Cr9  1  0.49423020  0.89678514  0.10321486  1
  Cr  Cr10  1  -0.00576980  0.39678514  0.39678514  1
  Cr  Cr11  1  -0.00576980  0.60321486  0.60321486  1
  Cr  Cr12  1  0.75022306  0.69028192  0.30971808  1
  Cr  Cr13  1  0.75022306  0.30971808  0.69028192  1
  Cr  Cr14  1  0.25022306  0.80971808  0.80971808  1
  Cr  Cr15  1  0.25022306  0.19028192  0.19028192  1
  Co  Co0  1  0.50351562  0.24244193  0.43813353  1
  Co  Co1  1  0.50351562  0.75755807  0.56186647  1
  Co  Co2  1  0.00351562  0.25755807  0.93813353  1
  Co  Co3  1  0.00351562  0.74244193  0.06186647  1
  Co  Co4  1  0.50351562  0.43813353  0.24244193  1
  Co  Co5  1  0.50351562  0.56186647  0.75755807  1
  Co  Co6  1  0.00351562  0.93813353  0.25755807  1
  Co  Co7  1  0.00351562  0.06186647  0.74244193  1
  Co  Co8  1  0.49559812  0.50000000  0.50000000  1
  Co  Co9  1  -0.00440188  0.00000000  0.00000000  1
  Co  Co10  1  0.24795433  0.31562084  0.68437916  1
  Co  Co11  1  0.24795433  0.68437916  0.31562084  1
  Co  Co12  1  0.74795433  0.18437916  0.18437916  1
  Co  Co13  1  0.74795433  0.81562084  0.81562084  1
loop_
_geom_bond_atom_site_label_1
_geom_bond_atom_site_label_2
_geom_bond_distance
_geom_bond_site_symmetry_2
Cr0 Cr8 2.303263 1_555
Cr0 Cr1 2.523829 1_556
Cr0 Cr13 2.662990 1_555
Cr0 Cr15 2.747630 1_556
Cr0 Cr6 2.947572 1_656
Cr0 Cr6 2.947572 1_556
Cr0 Cr7 2.947572 1_655
Cr0 Cr7 2.947572 1_555
Cr1 Cr9 2.303263 1_555
Cr1 Cr12 2.662990 1_555
Cr1 Cr14 2.747630 1_554
Cr1 Cr7 2.947572 1_654
Cr1 Cr7 2.947572 1_554
Cr1 Cr6 2.947572 1_655
Cr1 Cr6 2.947572 1_555
Cr2 Cr3 2.523829 1_545
Cr2 Cr4 2.947572 1_445
Cr2 Cr5 2.947572 1_455
Cr2 Cr5 2.947572 1_555
Cr2 Cr4 2.947572 1_545
Cr3 Cr4 2.947572 1_455
Cr3 Cr5 2.947572 1_465
Cr3 Cr5 2.947572 1_565
Cr3 Cr4 2.947572 1_555
Cr4 Cr9 2.303263 1_555
Cr4 Cr5 2.523829 1_565
Cr5 Cr8 2.303263 1_555
Cr6 Cr7 2.523829 1_554
Cr8 Cr9 2.538198 1_546
Cr10 Cr6 2.303263 1_555
Cr10 Cr2 2.303263 1_555
Cr10 Cr11 2.538198 1_555
Cr10 Cr15 2.808847 1_555
Cr10 Cr13 2.897452 1_455
Cr10 Cr12 2.897452 1_455
Cr11 Cr3 2.303263 1_555
Cr11 Cr7 2.303263 1_555
Cr11 Cr14 2.808847 1_555
Cr11 Cr13 2.897452 1_455
Cr11 Cr12 2.897452 1_455
Cr12 Cr4 2.662990 1_555
Cr12 Cr6 2.747630 1_655
Cr12 Cr3 2.747630 1_655
Cr12 Cr9 2.808847 1_555
Cr13 Cr5 2.662990 1_555
Cr13 Cr2 2.747630 1_655
Cr13 Cr7 2.747630 1_655
Cr13 Cr8 2.808847 1_555
Cr14 Cr3 2.662990 1_555
Cr14 Cr7 2.662990 1_555
Cr14 Cr5 2.747630 1_565
Cr14 Cr8 2.897452 1_565
Cr14 Cr9 2.897452 1_556
Cr15 Cr2 2.662990 1_555
Cr15 Cr6 2.662990 1_555
Cr15 Cr4 2.747630 1_545
Cr15 Cr9 2.897452 1_545
Cr15 Cr8 2.897452 1_554
Co0 Co8 2.303301 1_555
Co0 Co4 2.406165 1_555
Co0 Cr5 2.489753 1_555
Co0 Cr15 2.502324 1_555
Co0 Cr2 2.508465 1_655
Co0 Cr2 2.527125 1_555
Co0 Co10 2.534995 1_555
Co0 Co12 2.537246 1_555
Co0 Cr4 2.539913 1_545
Co0 Cr13 2.547160 1_555
Co0 Cr10 2.689015 1_655
Co0 Cr10 2.763984 1_555
Co1 Co8 2.303301 1_555
Co1 Co5 2.406165 1_555
Co1 Cr4 2.489753 1_555
Co1 Cr14 2.502324 1_555
Co1 Cr3 2.508465 1_655
Co1 Cr3 2.527125 1_555
Co1 Co11 2.534995 1_555
Co1 Co13 2.537246 1_555
Co1 Cr5 2.539913 1_565
Co1 Cr12 2.547160 1_555
Co1 Cr11 2.689015 1_655
Co1 Cr11 2.763984 1_555
Co2 Co9 2.303301 1_556
Co2 Co7 2.406165 1_555
Co2 Cr6 2.489753 1_556
Co2 Cr13 2.502324 1_455
Co2 Cr0 2.508465 1_555
Co2 Cr0 2.527125 1_455
Co2 Cr7 2.539913 1_555
Co2 Cr15 2.547160 1_556
Co2 Cr8 2.689015 1_555
Co2 Cr8 2.763984 1_455
Co3 Co9 2.303301 1_565
Co3 Co6 2.406165 1_555
Co3 Cr7 2.489753 1_554
Co3 Cr12 2.502324 1_455
Co3 Cr1 2.508465 1_555
Co3 Cr1 2.527125 1_455
Co3 Cr6 2.539913 1_555
Co3 Cr14 2.547160 1_554
Co3 Cr9 2.689015 1_555
Co3 Cr9 2.763984 1_455
Co4 Co8 2.303301 1_555
Co4 Cr1 2.489753 1_555
Co4 Cr15 2.502324 1_555
Co4 Cr6 2.508465 1_655
Co4 Cr6 2.527125 1_555
Co4 Cr0 2.539913 1_554
Co4 Cr12 2.547160 1_555
Co4 Cr10 2.689015 1_655
Co4 Cr10 2.763984 1_555
Co5 Co8 2.303301 1_555
Co5 Cr0 2.489753 1_555
Co5 Cr14 2.502324 1_555
Co5 Cr7 2.508465 1_655
Co5 Cr7 2.527125 1_555
Co5 Cr1 2.539913 1_556
Co5 Cr13 2.547160 1_555
Co5 Cr11 2.689015 1_655
Co5 Cr11 2.763984 1_555
Co6 Co9 2.303301 1_565
Co6 Cr2 2.489753 1_565
Co6 Cr12 2.502324 1_455
Co6 Cr4 2.508465 1_555
Co6 Cr4 2.527125 1_455
Co6 Cr3 2.539913 1_555
Co6 Cr15 2.547160 1_565
Co6 Cr9 2.689015 1_555
Co6 Cr9 2.763984 1_455
Co7 Co9 2.303301 1_556
Co7 Cr3 2.489753 1_545
Co7 Cr13 2.502324 1_455
Co7 Cr5 2.508465 1_555
Co7 Cr5 2.527125 1_455
Co7 Cr2 2.539913 1_555
Co7 Cr14 2.547160 1_545
Co7 Cr8 2.689015 1_555
Co7 Cr8 2.763984 1_455
Co8 Cr13 2.627007 1_555
Co8 Cr12 2.627007 1_555
Co8 Cr11 2.661553 1_655
Co8 Cr10 2.661553 1_655
Co8 Cr11 2.672843 1_555
Co8 Cr10 2.672843 1_555
Co9 Cr15 2.627007 1_555
Co9 Cr14 2.627007 1_544
Co9 Cr8 2.661553 1_554
Co9 Cr9 2.661553 1_545
Co9 Cr9 2.672843 1_445
Co9 Cr8 2.672843 1_454
Co10 Cr13 2.336400 1_455
Co10 Cr13 2.357678 1_555
Co10 Co5 2.534995 1_555
Co10 Co2 2.537246 1_555
Co10 Co7 2.537246 1_555
Co10 Co8 2.547475 1_555
Co10 Cr5 2.709963 1_555
Co10 Cr0 2.709963 1_555
Co10 Cr7 2.729734 1_555
Co10 Cr2 2.729734 1_555
Co10 Cr8 2.855874 1_555
Co10 Cr11 2.857857 1_555
Co10 Cr10 2.857857 1_555
Co11 Cr12 2.336400 1_455
Co11 Cr12 2.357678 1_555
Co11 Co4 2.534995 1_555
Co11 Co6 2.537246 1_555
Co11 Co3 2.537246 1_555
Co11 Co8 2.547475 1_555
Co11 Cr1 2.709963 1_555
Co11 Cr4 2.709963 1_555
Co11 Cr6 2.729734 1_555
Co11 Cr3 2.729734 1_555
Co11 Cr9 2.855874 1_555
Co11 Cr11 2.857857 1_555
Co11 Cr10 2.857857 1_555
Co12 Cr15 2.336400 1_555
Co12 Cr15 2.357678 1_655
Co12 Co2 2.534995 1_654
Co12 Co6 2.534995 1_645
Co12 Co4 2.537246 1_555
Co12 Co9 2.547475 1_655
Co12 Cr2 2.709963 1_655
Co12 Cr6 2.709963 1_655
Co12 Cr0 2.729734 1_554
Co12 Cr4 2.729734 1_545
Co12 Cr10 2.855874 1_655
Co12 Cr9 2.857857 1_545
Co12 Cr8 2.857857 1_554
Co13 Cr14 2.336400 1_555
Co13 Cr14 2.357678 1_655
Co13 Co7 2.534995 1_665
Co13 Co3 2.534995 1_656
Co13 Co5 2.537246 1_555
Co13 Co9 2.547475 1_666
Co13 Cr7 2.709963 1_655
Co13 Cr3 2.709963 1_655
Co13 Cr1 2.729734 1_556
Co13 Cr5 2.729734 1_565
Co13 Cr11 2.855874 1_655
Co13 Cr8 2.857857 1_565
Co13 Cr9 2.857857 1_556
