# generated using pymatgen
data_Ca4PtN4
_symmetry_space_group_name_H-M   'P 1'
_cell_length_a   13.42121400
_cell_length_b   3.46068200
_cell_length_c   14.38307900
_cell_angle_alpha   90.00000000
_cell_angle_beta   90.00000000
_cell_angle_gamma   90.00000000
_symmetry_Int_Tables_number   1
_chemical_formula_structural   Ca4PtN4
_chemical_formula_sum   'Ca16 Pt4 N16'
_cell_volume   668.04445126
_cell_formula_units_Z   4
loop_
 _symmetry_equiv_pos_site_id
 _symmetry_equiv_pos_as_xyz
  1  'x, y, z'
loop_
 _atom_site_type_symbol
 _atom_site_label
 _atom_site_symmetry_multiplicity
 _atom_site_fract_x
 _atom_site_fract_y
 _atom_site_fract_z
 _atom_site_occupancy
  Ca  Ca0  1  0.04963400  0.25000000  0.21157600  1
  Ca  Ca1  1  0.54963400  0.25000000  0.28842400  1
  Ca  Ca2  1  0.95036600  0.75000000  0.78842400  1
  Ca  Ca3  1  0.45036600  0.75000000  0.71157600  1
  Ca  Ca4  1  0.88974400  0.25000000  0.03897900  1
  Ca  Ca5  1  0.38974400  0.25000000  0.46102100  1
  Ca  Ca6  1  0.11025600  0.75000000  0.96102100  1
  Ca  Ca7  1  0.61025600  0.75000000  0.53897900  1
  Ca  Ca8  1  0.38742700  0.25000000  0.92642600  1
  Ca  Ca9  1  0.88742700  0.25000000  0.57357400  1
  Ca  Ca10  1  0.61257300  0.75000000  0.07357400  1
  Ca  Ca11  1  0.11257300  0.75000000  0.42642600  1
  Ca  Ca12  1  0.19150100  0.25000000  0.75264900  1
  Ca  Ca13  1  0.69150100  0.25000000  0.74735100  1
  Ca  Ca14  1  0.80849900  0.75000000  0.24735100  1
  Ca  Ca15  1  0.30849900  0.75000000  0.25264900  1
  Pt  Pt0  1  0.43042200  0.25000000  0.11873000  1
  Pt  Pt1  1  0.93042200  0.25000000  0.38127000  1
  Pt  Pt2  1  0.56957800  0.75000000  0.88127000  1
  Pt  Pt3  1  0.06957800  0.75000000  0.61873000  1
  N  N0  1  0.74612000  0.25000000  0.12482800  1
  N  N1  1  0.24612000  0.25000000  0.37517200  1
  N  N2  1  0.25388000  0.75000000  0.87517200  1
  N  N3  1  0.75388000  0.75000000  0.62482800  1
  N  N4  1  0.05998400  0.25000000  0.84945200  1
  N  N5  1  0.55998400  0.25000000  0.65054800  1
  N  N6  1  0.94001600  0.75000000  0.15054800  1
  N  N7  1  0.44001600  0.75000000  0.34945200  1
  N  N8  1  0.98490700  0.25000000  0.90890400  1
  N  N9  1  0.48490700  0.25000000  0.59109600  1
  N  N10  1  0.01509300  0.75000000  0.09109600  1
  N  N11  1  0.51509300  0.75000000  0.40890400  1
  N  N12  1  0.67997400  0.25000000  0.19119500  1
  N  N13  1  0.17997400  0.25000000  0.30880500  1
  N  N14  1  0.32002600  0.75000000  0.80880500  1
  N  N15  1  0.82002600  0.75000000  0.69119500  1
loop_
_geom_bond_atom_site_label_1
_geom_bond_atom_site_label_2
_geom_bond_distance
_geom_bond_site_symmetry_2
Ca0 N13 2.239597 1_555
Ca0 N6 2.434956 1_455
Ca0 N6 2.434956 1_445
Ca0 N10 2.492356 1_545
Ca0 N10 2.492356 1_555
Ca0 Pt1 2.918395 1_455
Ca1 N12 2.239597 1_555
Ca1 N7 2.434956 1_545
Ca1 N7 2.434956 1_555
Ca1 N11 2.492356 1_545
Ca1 N11 2.492356 1_555
Ca1 Pt0 2.918395 1_555
Ca2 N15 2.239597 1_555
Ca2 N4 2.434956 1_655
Ca2 N4 2.434956 1_665
Ca2 N8 2.492356 1_565
Ca2 N8 2.492356 1_555
Ca2 Pt3 2.918395 1_655
Ca3 N14 2.239597 1_555
Ca3 N5 2.434956 1_555
Ca3 N5 2.434956 1_565
Ca3 N9 2.492356 1_555
Ca3 N9 2.492356 1_565
Ca3 Pt2 2.918395 1_555
Ca4 N8 2.265267 1_554
Ca4 N0 2.289179 1_555
Ca4 N6 2.454464 1_555
Ca4 N6 2.454464 1_545
Ca4 N10 2.527101 1_645
Ca4 N10 2.527101 1_655
Ca5 N9 2.265267 1_555
Ca5 N1 2.289179 1_555
Ca5 N7 2.454464 1_545
Ca5 N7 2.454464 1_555
Ca5 N11 2.527101 1_555
Ca5 N11 2.527101 1_545
Ca6 N10 2.265267 1_556
Ca6 N2 2.289179 1_555
Ca6 N4 2.454464 1_555
Ca6 N4 2.454464 1_565
Ca6 N8 2.527101 1_465
Ca6 N8 2.527101 1_455
Ca7 N11 2.265267 1_555
Ca7 N3 2.289179 1_555
Ca7 N5 2.454464 1_565
Ca7 N5 2.454464 1_555
Ca7 N9 2.527101 1_565
Ca7 N9 2.527101 1_555
Ca8 N14 2.583488 1_555
Ca8 N14 2.583488 1_545
Ca8 N2 2.598094 1_545
Ca8 N2 2.598094 1_555
Ca8 Pt0 2.825476 1_556
Ca8 Pt2 3.064703 1_545
Ca8 Pt2 3.064703 1_555
Ca9 N15 2.583488 1_555
Ca9 N15 2.583488 1_545
Ca9 N3 2.598094 1_545
Ca9 N3 2.598094 1_555
Ca9 Pt1 2.825476 1_555
Ca9 Pt3 3.064703 1_645
Ca9 Pt3 3.064703 1_655
Ca10 N12 2.583488 1_565
Ca10 N12 2.583488 1_555
Ca10 N0 2.598094 1_565
Ca10 N0 2.598094 1_555
Ca10 Pt2 2.825476 1_554
Ca10 Pt0 3.064703 1_555
Ca10 Pt0 3.064703 1_565
Ca11 N13 2.583488 1_565
Ca11 N13 2.583488 1_555
Ca11 N1 2.598094 1_565
Ca11 N1 2.598094 1_555
Ca11 Pt3 2.825476 1_555
Ca11 Pt1 3.064703 1_465
Ca11 Pt1 3.064703 1_455
Ca12 N4 2.248157 1_555
Ca12 N14 2.573314 1_555
Ca12 N14 2.573314 1_545
Ca12 N2 2.607785 1_545
Ca12 N2 2.607785 1_555
Ca12 Pt3 3.062982 1_545
Ca12 Pt3 3.062982 1_555
Ca13 N5 2.248157 1_555
Ca13 N15 2.573314 1_545
Ca13 N15 2.573314 1_555
Ca13 N3 2.607785 1_545
Ca13 N3 2.607785 1_555
Ca13 Pt2 3.062982 1_555
Ca13 Pt2 3.062982 1_545
Ca14 N6 2.248157 1_555
Ca14 N12 2.573314 1_555
Ca14 N12 2.573314 1_565
Ca14 N0 2.607785 1_565
Ca14 N0 2.607785 1_555
Ca14 Pt1 3.062982 1_555
Ca14 Pt1 3.062982 1_565
Ca15 N7 2.248157 1_555
Ca15 N13 2.573314 1_565
Ca15 N13 2.573314 1_555
Ca15 N1 2.607785 1_555
Ca15 N1 2.607785 1_565
Ca15 Pt0 3.062982 1_555
Ca15 Pt0 3.062982 1_565
N0 N12 1.303574 1_555
N1 N13 1.303574 1_555
N4 N8 1.321555 1_455
N5 N9 1.321555 1_555
N10 N6 1.321555 1_455
N11 N7 1.321555 1_555
N14 N2 1.303574 1_555
N15 N3 1.303574 1_555
