# generated using pymatgen
data_Ca(WO2)2
_symmetry_space_group_name_H-M   'P 1'
_cell_length_a   6.58805900
_cell_length_b   6.59731622
_cell_length_c   16.03813057
_cell_angle_alpha   90.10940172
_cell_angle_beta   90.75821153
_cell_angle_gamma   119.25579487
_symmetry_Int_Tables_number   1
_chemical_formula_structural   Ca(WO2)2
_chemical_formula_sum   'Ca6 W12 O24'
_cell_volume   608.07804460
_cell_formula_units_Z   6
loop_
 _symmetry_equiv_pos_site_id
 _symmetry_equiv_pos_as_xyz
  1  'x, y, z'
loop_
 _atom_site_type_symbol
 _atom_site_label
 _atom_site_symmetry_multiplicity
 _atom_site_fract_x
 _atom_site_fract_y
 _atom_site_fract_z
 _atom_site_occupancy
  Ca  Ca0  1  0.17370300  0.33900300  0.03977900  1
  Ca  Ca1  1  0.83312700  0.66464500  0.33213600  1
  Ca  Ca2  1  0.16452100  0.82866300  0.16834500  1
  Ca  Ca3  1  0.16792300  0.33644300  0.66797700  1
  Ca  Ca4  1  0.49101500  0.49108800  0.49727300  1
  Ca  Ca5  1  0.83201800  0.17992200  0.83363700  1
  W  W0  1  0.66680500  0.83909900  0.16706700  1
  W  W1  1  0.45672900  0.05029400  0.36642300  1
  W  W2  1  0.49979200  0.00144300  0.00028600  1
  W  W3  1  0.67397400  0.33404700  0.16880100  1
  W  W4  1  0.99807200  0.49595700  0.50099000  1
  W  W5  1  0.80600100  0.70492700  0.70035700  1
  W  W6  1  0.99828000  0.99772300  0.50165900  1
  W  W7  1  0.33525200  0.16817400  0.83097100  1
  W  W8  1  0.20777800  0.31273100  0.29522700  1
  W  W9  1  0.32698000  0.66441100  0.82854200  1
  W  W10  1  0.54176400  0.94919100  0.63298600  1
  W  W11  1  0.88336200  0.69466900  0.97020900  1
  O  O0  1  0.37361500  0.72114100  0.07878600  1
  O  O1  1  0.52367000  0.01227300  0.24671600  1
  O  O2  1  0.37326900  0.15542100  0.08220000  1
  O  O3  1  0.78915700  0.14524700  0.08765200  1
  O  O4  1  0.68857100  0.33463200  0.42432600  1
  O  O5  1  0.51602900  0.51857200  0.23430700  1
  O  O6  1  0.86673500  0.68132900  0.57688800  1
  O  O7  1  0.99737100  0.49124900  0.24497900  1
  O  O8  1  0.70622800  0.82622800  0.43295200  1
  O  O9  1  0.79600200  0.64703800  0.09326500  1
  O  O10  1  0.15800500  0.82686000  0.42901900  1
  O  O11  1  0.96842000  0.97583500  0.24687000  1
  O  O12  1  0.01688100  0.00420600  0.75563800  1
  O  O13  1  0.84165100  0.17353900  0.57476100  1
  O  O14  1  0.29232800  0.15716500  0.57481900  1
  O  O15  1  0.00511400  0.51384200  0.75056800  1
  O  O16  1  0.18782200  0.34588400  0.89767300  1
  O  O17  1  0.11252000  0.29317800  0.43143700  1
  O  O18  1  0.50379300  0.49512800  0.76022900  1
  O  O19  1  0.30967200  0.65816200  0.57802100  1
  O  O20  1  0.19990200  0.85311700  0.90660200  1
  O  O21  1  0.61976200  0.84445200  0.91691300  1
  O  O22  1  0.47763400  0.99098800  0.75233500  1
  O  O23  1  0.61875100  0.28208100  0.92037900  1
loop_
_geom_bond_atom_site_label_1
_geom_bond_atom_site_label_2
_geom_bond_distance
_geom_bond_site_symmetry_2
Ca0 O2 2.279082 1_555
Ca0 O16 2.281875 1_554
Ca0 O0 2.282239 1_555
Ca0 O3 2.351941 1_455
Ca1 O11 2.265793 1_555
Ca1 O8 2.312997 1_555
Ca1 O7 2.382682 1_555
Ca1 O5 2.386283 1_555
Ca1 O10 2.409861 1_655
Ca1 O4 2.419963 1_555
Ca2 O7 2.308411 1_455
Ca2 O11 2.337160 1_455
Ca2 O0 2.338258 1_555
Ca2 O2 2.368805 1_565
Ca2 O1 2.399929 1_565
Ca2 O9 2.419456 1_455
Ca3 O14 2.296964 1_555
Ca3 O15 2.352325 1_555
Ca3 O19 2.359765 1_555
Ca3 O13 2.379348 1_455
Ca3 O12 2.384964 1_555
Ca3 O18 2.413398 1_555
Ca4 O8 2.224051 1_555
Ca4 O14 2.312654 1_555
Ca4 O4 2.340267 1_555
Ca4 O19 2.375287 1_555
Ca4 O17 2.404219 1_555
Ca4 O6 2.491246 1_555
Ca5 O16 2.274119 1_655
Ca5 O23 2.310282 1_555
Ca5 O15 2.350411 1_655
Ca5 O21 2.381853 1_545
Ca5 O22 2.402824 1_545
Ca5 O12 2.409723 1_655
O0 W2 2.056660 1_565
O0 W0 2.189835 1_555
O1 W1 2.017927 1_555
O1 W0 2.214861 1_545
O1 W3 2.244281 1_555
O2 W2 2.074649 1_555
O2 W3 2.209414 1_555
O3 W2 2.157325 1_555
O3 W3 2.182867 1_555
O3 W0 2.190225 1_545
O4 W1 1.967111 1_555
O4 W4 2.147003 1_555
O5 W8 2.069996 1_555
O5 W0 2.145984 1_555
O5 W3 2.220509 1_555
O6 W5 2.046033 1_555
O6 W4 2.186890 1_555
O6 W6 2.198404 1_555
O7 W3 2.207736 1_555
O7 W8 2.351116 1_655
O8 W6 2.001929 1_555
O9 W11 2.044674 1_554
O9 W3 2.188726 1_555
O9 W0 2.192275 1_555
O10 W1 2.067914 1_565
O10 W6 2.218561 1_455
O10 W4 2.236493 1_455
O11 W8 2.136225 1_665
O11 W0 2.139285 1_555
O12 W5 1.973370 1_445
O12 W7 2.177034 1_555
O13 W10 2.040083 1_545
O13 W4 2.210363 1_555
O13 W6 2.231913 1_545
O14 W6 2.044359 1_445
O14 W10 2.760691 1_545
O15 W9 2.216598 1_555
O15 W5 2.355996 1_455
O16 W7 2.144312 1_555
O16 W9 2.153720 1_555
O17 W6 2.056983 1_445
O17 W4 2.145929 1_455
O17 W8 2.267374 1_555
O18 W5 2.040573 1_555
O18 W7 2.207845 1_555
O18 W9 2.259464 1_555
O19 W10 1.972280 1_555
O19 W4 2.160151 1_455
O20 W11 2.100454 1_455
O20 W7 2.193951 1_565
O20 W9 2.204240 1_555
O20 W2 2.268180 1_566
O21 W2 2.075610 1_566
O21 W9 2.195902 1_555
O21 W11 2.522731 1_555
O22 W10 2.012885 1_555
O22 W7 2.221332 1_565
O22 W9 2.252322 1_555
O23 W2 2.074100 1_556
O23 W7 2.159256 1_555
O23 W11 2.530545 1_555
