# generated using pymatgen
data_Mg6TiSn
_symmetry_space_group_name_H-M   'P 1'
_cell_length_a   5.00692800
_cell_length_b   6.39688900
_cell_length_c   10.87930200
_cell_angle_alpha   90.00000000
_cell_angle_beta   90.00000000
_cell_angle_gamma   90.00000000
_symmetry_Int_Tables_number   1
_chemical_formula_structural   Mg6TiSn
_chemical_formula_sum   'Mg12 Ti2 Sn2'
_cell_volume   348.45058152
_cell_formula_units_Z   2
loop_
 _symmetry_equiv_pos_site_id
 _symmetry_equiv_pos_as_xyz
  1  'x, y, z'
loop_
 _atom_site_type_symbol
 _atom_site_label
 _atom_site_symmetry_multiplicity
 _atom_site_fract_x
 _atom_site_fract_y
 _atom_site_fract_z
 _atom_site_occupancy
  Mg  Mg0  1  0.00000000  0.25390100  0.08417600  1
  Mg  Mg1  1  0.00000000  0.74609900  0.08417600  1
  Mg  Mg2  1  0.00000000  0.50000000  0.83323900  1
  Mg  Mg3  1  0.50000000  0.25353400  0.91883800  1
  Mg  Mg4  1  0.50000000  0.74646600  0.91883800  1
  Mg  Mg5  1  0.50000000  0.50000000  0.66521300  1
  Mg  Mg6  1  0.00000000  0.75390100  0.58417600  1
  Mg  Mg7  1  0.00000000  0.24609900  0.58417600  1
  Mg  Mg8  1  0.00000000  0.00000000  0.33323900  1
  Mg  Mg9  1  0.50000000  0.75353400  0.41883800  1
  Mg  Mg10  1  0.50000000  0.24646600  0.41883800  1
  Mg  Mg11  1  0.50000000  0.00000000  0.16521300  1
  Ti  Ti0  1  0.50000000  0.50000000  0.16895100  1
  Ti  Ti1  1  0.50000000  0.00000000  0.66895100  1
  Sn  Sn0  1  0.00000000  0.50000000  0.32656900  1
  Sn  Sn1  1  0.00000000  0.00000000  0.82656900  1
loop_
_geom_bond_atom_site_label_1
_geom_bond_atom_site_label_2
_geom_bond_distance
_geom_bond_site_symmetry_2
Mg0 Sn0 3.071228 1_555
Mg0 Mg3 3.082675 1_554
Mg0 Mg3 3.082675 1_454
Mg0 Ti0 3.097786 1_455
Mg0 Ti0 3.097786 1_555
Mg0 Mg11 3.111679 1_455
Mg0 Mg11 3.111679 1_555
Mg0 Mg1 3.148536 1_555
Mg0 Mg2 3.151401 1_554
Mg0 Mg8 3.159122 1_555
Mg0 Sn1 3.239202 1_554
Mg0 Mg1 3.248353 1_545
Mg1 Sn0 3.071228 1_555
Mg1 Mg4 3.082675 1_454
Mg1 Mg4 3.082675 1_554
Mg1 Ti0 3.097786 1_555
Mg1 Ti0 3.097786 1_455
Mg1 Mg11 3.111679 1_565
Mg1 Mg11 3.111679 1_465
Mg1 Mg2 3.151401 1_554
Mg1 Mg8 3.159122 1_565
Mg1 Sn1 3.239202 1_564
Mg2 Mg5 3.099828 1_555
Mg2 Mg5 3.099828 1_455
Mg2 Mg4 3.101659 1_455
Mg2 Mg3 3.101659 1_555
Mg2 Mg4 3.101659 1_555
Mg2 Mg3 3.101659 1_455
Mg2 Mg6 3.159122 1_555
Mg2 Mg7 3.159122 1_555
Mg2 Sn1 3.199268 1_555
Mg2 Sn1 3.199268 1_565
Mg3 Ti0 3.144814 1_556
Mg3 Sn1 3.147272 1_555
Mg3 Sn1 3.147272 1_655
Mg3 Mg4 3.153231 1_555
Mg3 Ti1 3.165611 1_555
Mg3 Mg5 3.177932 1_555
Mg3 Mg4 3.243658 1_545
Mg4 Ti0 3.144814 1_556
Mg4 Sn1 3.147272 1_565
Mg4 Sn1 3.147272 1_665
Mg4 Ti1 3.165611 1_565
Mg4 Mg5 3.177932 1_555
Mg5 Mg6 3.111679 1_555
Mg5 Mg6 3.111679 1_655
Mg5 Mg7 3.111679 1_555
Mg5 Mg7 3.111679 1_655
Mg5 Mg9 3.132860 1_555
Mg5 Ti1 3.198703 1_555
Mg5 Ti1 3.198703 1_565
Mg6 Sn1 3.071228 1_565
Mg6 Mg9 3.082675 1_455
Mg6 Mg9 3.082675 1_555
Mg6 Ti1 3.097786 1_565
Mg6 Ti1 3.097786 1_465
Mg6 Mg7 3.148536 1_565
Mg6 Mg8 3.151401 1_565
Mg6 Sn0 3.239202 1_555
Mg6 Mg7 3.248353 1_555
Mg7 Sn1 3.071228 1_555
Mg7 Ti1 3.097786 1_455
Mg7 Ti1 3.097786 1_555
Mg7 Mg8 3.151401 1_555
Mg7 Sn0 3.239202 1_555
Mg8 Mg9 3.101659 1_545
Mg8 Mg9 3.101659 1_445
Mg8 Sn0 3.199268 1_555
Mg8 Sn0 3.199268 1_545
Mg9 Ti1 3.144814 1_565
Mg9 Sn0 3.147272 1_555
Mg9 Sn0 3.147272 1_655
Mg9 Ti0 3.165611 1_555
Mg10 Mg7 3.082675 1_655
Mg10 Mg7 3.082675 1_555
Mg10 Mg8 3.101659 1_555
Mg10 Mg8 3.101659 1_655
Mg10 Mg5 3.132860 1_555
Mg10 Ti1 3.144814 1_555
Mg10 Sn0 3.147272 1_555
Mg10 Sn0 3.147272 1_655
Mg10 Mg9 3.153231 1_545
Mg10 Ti0 3.165611 1_555
Mg10 Mg11 3.177932 1_555
Mg10 Mg9 3.243658 1_555
Mg11 Mg8 3.099828 1_555
Mg11 Mg8 3.099828 1_655
Mg11 Mg3 3.132860 1_554
Mg11 Mg4 3.132860 1_544
Mg11 Mg9 3.177932 1_545
Mg11 Ti0 3.198703 1_545
Mg11 Ti0 3.198703 1_555
Sn0 Ti0 3.034433 1_455
Sn0 Ti0 3.034433 1_555
Sn1 Ti1 3.034433 1_455
Sn1 Ti1 3.034433 1_555
