# generated using pymatgen
data_ZrSn
_symmetry_space_group_name_H-M   'P 1'
_cell_length_a   8.27208407
_cell_length_b   8.27208407
_cell_length_c   5.45692600
_cell_angle_alpha   90.00000000
_cell_angle_beta   90.00000000
_cell_angle_gamma   141.00628093
_symmetry_Int_Tables_number   1
_chemical_formula_structural   ZrSn
_chemical_formula_sum   'Zr5 Sn5'
_cell_volume   234.95838535
_cell_formula_units_Z   5
loop_
 _symmetry_equiv_pos_site_id
 _symmetry_equiv_pos_as_xyz
  1  'x, y, z'
loop_
 _atom_site_type_symbol
 _atom_site_label
 _atom_site_symmetry_multiplicity
 _atom_site_fract_x
 _atom_site_fract_y
 _atom_site_fract_z
 _atom_site_occupancy
  Zr  Zr0  1  0.05989900  0.44541100  0.00000000  1
  Zr  Zr1  1  0.98976700  0.60056000  0.50000000  1
  Zr  Zr2  1  0.87173600  0.87173600  0.50000000  1
  Zr  Zr3  1  0.44541100  0.05989900  0.00000000  1
  Zr  Zr4  1  0.60056000  0.98976700  0.50000000  1
  Sn  Sn0  1  0.21185300  0.43294500  0.50000000  1
  Sn  Sn1  1  0.85620600  0.63854500  0.00000000  1
  Sn  Sn2  1  0.63854500  0.85620600  0.00000000  1
  Sn  Sn3  1  0.22641200  0.22641200  0.00000000  1
  Sn  Sn4  1  0.43294500  0.21185300  0.50000000  1
loop_
_geom_bond_atom_site_label_1
_geom_bond_atom_site_label_2
_geom_bond_distance
_geom_bond_site_symmetry_2
Zr1 Zr2 3.064253 1_555
Zr2 Zr4 3.064253 1_555
Sn0 Zr4 2.921137 1_555
Sn0 Zr2 3.027296 1_445
Sn0 Zr0 3.039180 1_555
Sn0 Zr0 3.039180 1_556
Sn0 Zr1 3.042514 1_455
Sn0 Zr4 3.192776 1_445
Sn0 Sn3 3.270730 1_556
Sn0 Sn3 3.270730 1_555
Sn0 Zr2 3.488984 1_555
Sn1 Zr3 3.029076 1_555
Sn1 Zr1 3.050166 1_554
Sn1 Zr1 3.050166 1_555
Sn1 Zr3 3.081759 1_665
Sn1 Zr0 3.094499 1_655
Sn1 Sn3 3.142810 1_665
Sn1 Zr2 3.285843 1_554
Sn1 Zr2 3.285843 1_555
Sn1 Sn3 3.339997 1_555
Sn2 Zr0 3.029076 1_555
Sn2 Zr4 3.050166 1_554
Sn2 Zr4 3.050166 1_555
Sn2 Zr0 3.081759 1_665
Sn2 Zr3 3.094499 1_565
Sn2 Sn3 3.142810 1_665
Sn2 Zr2 3.285843 1_554
Sn2 Zr2 3.285843 1_555
Sn2 Sn3 3.339997 1_555
Sn3 Zr3 3.009621 1_555
Sn3 Zr0 3.009621 1_555
Sn3 Sn4 3.270730 1_555
Sn3 Sn4 3.270730 1_554
Sn3 Zr2 3.358556 1_445
Sn3 Zr2 3.358556 1_444
Sn4 Zr1 2.921137 1_555
Sn4 Zr2 3.027296 1_445
Sn4 Zr3 3.039180 1_555
Sn4 Zr3 3.039180 1_556
Sn4 Zr4 3.042514 1_545
Sn4 Zr1 3.192776 1_445
Sn4 Zr2 3.488984 1_555
