# generated using pymatgen
data_K2PtC4(N2Cl)2
_symmetry_space_group_name_H-M   'P 1'
_cell_length_a   9.34113200
_cell_length_b   7.21300000
_cell_length_c   8.66528607
_cell_angle_alpha   73.49324316
_cell_angle_beta   90.00000000
_cell_angle_gamma   90.00000000
_symmetry_Int_Tables_number   1
_chemical_formula_structural   K2PtC4(N2Cl)2
_chemical_formula_sum   'K4 Pt2 C8 N8 Cl4'
_cell_volume   559.78355542
_cell_formula_units_Z   2
loop_
 _symmetry_equiv_pos_site_id
 _symmetry_equiv_pos_as_xyz
  1  'x, y, z'
loop_
 _atom_site_type_symbol
 _atom_site_label
 _atom_site_symmetry_multiplicity
 _atom_site_fract_x
 _atom_site_fract_y
 _atom_site_fract_z
 _atom_site_occupancy
  K  K0  1  0.77869900  0.48838400  0.62406500  1
  K  K1  1  0.27869900  0.51161600  0.87593500  1
  K  K2  1  0.22130100  0.51161600  0.37593500  1
  K  K3  1  0.72130100  0.48838400  0.12406500  1
  Pt  Pt0  1  0.00000000  0.00000000  0.00000000  1
  Pt  Pt1  1  0.50000000  0.00000000  0.50000000  1
  C  C0  1  0.96003100  0.79855900  0.88421200  1
  C  C1  1  0.46003100  0.20144100  0.61578800  1
  C  C2  1  0.03996900  0.20144100  0.11578800  1
  C  C3  1  0.53996900  0.79855900  0.38421200  1
  C  C4  1  0.95009100  0.80705400  0.21198300  1
  C  C5  1  0.45009100  0.19294600  0.28801700  1
  C  C6  1  0.04990900  0.19294600  0.78801700  1
  C  C7  1  0.54990900  0.80705400  0.71198300  1
  N  N0  1  0.93831400  0.67439100  0.82504600  1
  N  N1  1  0.43831400  0.32560900  0.67495400  1
  N  N2  1  0.06168600  0.32560900  0.17495400  1
  N  N3  1  0.56168600  0.67439100  0.32504600  1
  N  N4  1  0.92332000  0.68607100  0.33062400  1
  N  N5  1  0.42332000  0.31392900  0.16937600  1
  N  N6  1  0.07668000  0.31392900  0.66937600  1
  N  N7  1  0.57668000  0.68607100  0.83062400  1
  Cl  Cl0  1  0.24060200  0.89092800  0.03536000  1
  Cl  Cl1  1  0.74060200  0.10907200  0.46464000  1
  Cl  Cl2  1  0.75939800  0.10907200  0.96464000  1
  Cl  Cl3  1  0.25939800  0.89092800  0.53536000  1
loop_
_geom_bond_atom_site_label_1
_geom_bond_atom_site_label_2
_geom_bond_distance
_geom_bond_site_symmetry_2
K0 N4 2.874623 1_555
K0 N0 2.895500 1_555
K0 N6 3.033907 1_655
K0 N7 3.201308 1_555
K0 N3 3.263073 1_555
K0 N1 3.374683 1_555
K1 N5 2.874623 1_556
K1 N1 2.895500 1_555
K1 N7 3.033907 1_555
K1 N6 3.201308 1_555
K1 N2 3.263073 1_556
K1 N0 3.374683 1_455
K2 N6 2.874623 1_555
K2 N2 2.895500 1_555
K2 N4 3.033907 1_455
K2 N5 3.201308 1_555
K2 N1 3.263073 1_555
K2 N3 3.374683 1_555
K3 N7 2.874623 1_554
K3 N3 2.895500 1_555
K3 N5 3.033907 1_555
K3 N4 3.201308 1_555
K3 N0 3.263073 1_554
K3 N2 3.374683 1_655
C0 N0 1.169221 1_555
C0 Pt0 2.021311 1_666
C1 N1 1.169221 1_555
C1 Pt1 2.021311 1_555
C2 N2 1.169221 1_555
C2 Pt0 2.021311 1_555
C3 N3 1.169221 1_555
C3 Pt1 2.021311 1_565
C4 N4 1.170963 1_555
C4 Pt0 2.018835 1_665
C5 N5 1.170963 1_555
C5 Pt1 2.018835 1_555
C6 N6 1.170963 1_555
C6 Pt0 2.018835 1_556
C7 N7 1.170963 1_555
C7 Pt1 2.018835 1_565
Cl0 Pt0 2.372148 1_565
Cl0 K2 3.411631 1_555
Cl0 K1 3.415914 1_554
Cl1 Pt1 2.372148 1_555
Cl1 K3 3.411631 1_555
Cl1 K0 3.415914 1_555
Cl2 Pt0 2.372148 1_656
Cl2 K0 3.411631 1_555
Cl2 K3 3.415914 1_556
Cl3 Pt1 2.372148 1_565
Cl3 K1 3.411631 1_555
Cl3 K2 3.415914 1_555
