# generated using pymatgen
data_CaMg30TiO32
_symmetry_space_group_name_H-M   'P 1'
_cell_length_a   8.58318300
_cell_length_b   8.58318300
_cell_length_c   8.57804900
_cell_angle_alpha   90.00000000
_cell_angle_beta   90.00000000
_cell_angle_gamma   90.00000000
_symmetry_Int_Tables_number   1
_chemical_formula_structural   CaMg30TiO32
_chemical_formula_sum   'Ca1 Mg30 Ti1 O32'
_cell_volume   631.95370875
_cell_formula_units_Z   1
loop_
 _symmetry_equiv_pos_site_id
 _symmetry_equiv_pos_as_xyz
  1  'x, y, z'
loop_
 _atom_site_type_symbol
 _atom_site_label
 _atom_site_symmetry_multiplicity
 _atom_site_fract_x
 _atom_site_fract_y
 _atom_site_fract_z
 _atom_site_occupancy
  Ca  Ca0  1  0.00000000  0.00000000  0.00000000  1
  Mg  Mg0  1  0.50000000  0.00000000  0.00000000  1
  Mg  Mg1  1  0.50000000  0.00000000  0.50000000  1
  Mg  Mg2  1  0.00000000  0.50000000  0.00000000  1
  Mg  Mg3  1  0.00000000  0.50000000  0.50000000  1
  Mg  Mg4  1  0.50000000  0.50000000  0.00000000  1
  Mg  Mg5  1  0.50000000  0.50000000  0.50000000  1
  Mg  Mg6  1  0.25452200  0.00000000  0.25179400  1
  Mg  Mg7  1  0.25452200  0.00000000  0.74820600  1
  Mg  Mg8  1  0.74547800  0.00000000  0.25179400  1
  Mg  Mg9  1  0.74547800  0.00000000  0.74820600  1
  Mg  Mg10  1  0.25020100  0.50000000  0.25007000  1
  Mg  Mg11  1  0.25020100  0.50000000  0.74993000  1
  Mg  Mg12  1  0.74979900  0.50000000  0.25007000  1
  Mg  Mg13  1  0.74979900  0.50000000  0.74993000  1
  Mg  Mg14  1  0.00000000  0.25452200  0.25179400  1
  Mg  Mg15  1  0.00000000  0.25452200  0.74820600  1
  Mg  Mg16  1  0.50000000  0.25020100  0.25007000  1
  Mg  Mg17  1  0.50000000  0.25020100  0.74993000  1
  Mg  Mg18  1  0.00000000  0.74547800  0.25179400  1
  Mg  Mg19  1  0.00000000  0.74547800  0.74820600  1
  Mg  Mg20  1  0.50000000  0.74979900  0.25007000  1
  Mg  Mg21  1  0.50000000  0.74979900  0.74993000  1
  Mg  Mg22  1  0.25293500  0.25293500  0.00000000  1
  Mg  Mg23  1  0.25074500  0.25074500  0.50000000  1
  Mg  Mg24  1  0.74706500  0.25293500  0.00000000  1
  Mg  Mg25  1  0.74925500  0.25074500  0.50000000  1
  Mg  Mg26  1  0.25293500  0.74706500  0.00000000  1
  Mg  Mg27  1  0.25074500  0.74925500  0.50000000  1
  Mg  Mg28  1  0.74706500  0.74706500  0.00000000  1
  Mg  Mg29  1  0.74925500  0.74925500  0.50000000  1
  Ti  Ti0  1  0.00000000  0.00000000  0.50000000  1
  O  O0  1  0.00000000  0.26259800  0.00000000  1
  O  O1  1  0.00000000  0.25655900  0.50000000  1
  O  O2  1  0.50000000  0.25195000  0.00000000  1
  O  O3  1  0.50000000  0.25078200  0.50000000  1
  O  O4  1  0.00000000  0.73740200  0.00000000  1
  O  O5  1  0.00000000  0.74344100  0.50000000  1
  O  O6  1  0.50000000  0.74805000  0.00000000  1
  O  O7  1  0.50000000  0.74921800  0.50000000  1
  O  O8  1  0.24931900  0.24931900  0.24979500  1
  O  O9  1  0.24931900  0.24931900  0.75020500  1
  O  O10  1  0.75068100  0.24931900  0.24979500  1
  O  O11  1  0.75068100  0.24931900  0.75020500  1
  O  O12  1  0.24931900  0.75068100  0.24979500  1
  O  O13  1  0.24931900  0.75068100  0.75020500  1
  O  O14  1  0.75068100  0.75068100  0.24979500  1
  O  O15  1  0.75068100  0.75068100  0.75020500  1
  O  O16  1  0.00000000  0.00000000  0.25936100  1
  O  O17  1  0.00000000  0.00000000  0.74063900  1
  O  O18  1  0.50000000  0.00000000  0.25159600  1
  O  O19  1  0.50000000  0.00000000  0.74840400  1
  O  O20  1  0.00000000  0.50000000  0.25159600  1
  O  O21  1  0.00000000  0.50000000  0.74840400  1
  O  O22  1  0.50000000  0.50000000  0.25025400  1
  O  O23  1  0.50000000  0.50000000  0.74974600  1
  O  O24  1  0.26259800  0.00000000  0.00000000  1
  O  O25  1  0.25655900  0.00000000  0.50000000  1
  O  O26  1  0.73740200  0.00000000  0.00000000  1
  O  O27  1  0.74344100  0.00000000  0.50000000  1
  O  O28  1  0.25195000  0.50000000  0.00000000  1
  O  O29  1  0.25078200  0.50000000  0.50000000  1
  O  O30  1  0.74805000  0.50000000  0.00000000  1
  O  O31  1  0.74921800  0.50000000  0.50000000  1
loop_
_geom_bond_atom_site_label_1
_geom_bond_atom_site_label_2
_geom_bond_distance
_geom_bond_site_symmetry_2
Ca0 O17 2.224811 1_554
Ca0 O16 2.224811 1_555
Ca0 O24 2.253927 1_555
Ca0 O4 2.253927 1_545
Ca0 O0 2.253927 1_555
Ca0 O26 2.253927 1_455
Mg0 O24 2.037665 1_555
Mg0 O26 2.037665 1_555
Mg0 O18 2.158203 1_555
Mg0 O19 2.158203 1_554
Mg0 O6 2.162533 1_545
Mg0 O2 2.162533 1_555
Mg1 O27 2.089499 1_555
Mg1 O25 2.089499 1_555
Mg1 O19 2.130822 1_555
Mg1 O18 2.130822 1_555
Mg1 O7 2.152508 1_545
Mg1 O3 2.152508 1_555
Mg2 O0 2.037665 1_555
Mg2 O4 2.037665 1_555
Mg2 O20 2.158203 1_555
Mg2 O21 2.158203 1_554
Mg2 O30 2.162533 1_455
Mg2 O28 2.162533 1_555
Mg3 O1 2.089499 1_555
Mg3 O5 2.089499 1_555
Mg3 O21 2.130822 1_555
Mg3 O20 2.130822 1_555
Mg3 O31 2.152508 1_455
Mg3 O29 2.152508 1_555
Mg4 O30 2.129059 1_555
Mg4 O2 2.129059 1_555
Mg4 O28 2.129059 1_555
Mg4 O6 2.129059 1_555
Mg4 O23 2.146691 1_554
Mg4 O22 2.146691 1_555
Mg5 O29 2.139084 1_555
Mg5 O3 2.139084 1_555
Mg5 O7 2.139084 1_555
Mg5 O31 2.139084 1_555
Mg5 O22 2.142333 1_555
Mg5 O23 2.142333 1_555
Mg6 O18 2.106983 1_555
Mg6 O25 2.129195 1_555
Mg6 O12 2.140485 1_545
Mg6 O8 2.140485 1_555
Mg6 O24 2.161013 1_555
Mg6 O16 2.185573 1_555
Mg7 O19 2.106983 1_555
Mg7 O25 2.129195 1_555
Mg7 O13 2.140485 1_545
Mg7 O9 2.140485 1_555
Mg7 O24 2.161013 1_556
Mg7 O17 2.185573 1_555
Mg8 O18 2.106983 1_555
Mg8 O27 2.129195 1_555
Mg8 O14 2.140485 1_545
Mg8 O10 2.140485 1_555
Mg8 O26 2.161013 1_555
Mg8 O16 2.185573 1_655
Mg9 O19 2.106983 1_555
Mg9 O27 2.129195 1_555
Mg9 O15 2.140485 1_545
Mg9 O11 2.140485 1_555
Mg9 O26 2.161013 1_556
Mg9 O17 2.185573 1_655
Mg10 O29 2.143918 1_555
Mg10 O22 2.144071 1_555
Mg10 O28 2.145165 1_555
Mg10 O20 2.147561 1_555
Mg10 O8 2.151656 1_555
Mg10 O12 2.151656 1_555
Mg11 O29 2.143918 1_555
Mg11 O23 2.144071 1_555
Mg11 O28 2.145165 1_556
Mg11 O21 2.147561 1_555
Mg11 O9 2.151656 1_555
Mg11 O13 2.151656 1_555
Mg12 O31 2.143918 1_555
Mg12 O22 2.144071 1_555
Mg12 O30 2.145165 1_555
Mg12 O20 2.147561 1_655
Mg12 O10 2.151656 1_555
Mg12 O14 2.151656 1_555
Mg13 O31 2.143918 1_555
Mg13 O23 2.144071 1_555
Mg13 O30 2.145165 1_556
Mg13 O21 2.147561 1_655
Mg13 O11 2.151656 1_555
Mg13 O15 2.151656 1_555
Mg14 O20 2.106983 1_555
Mg14 O1 2.129195 1_555
Mg14 O10 2.140485 1_455
Mg14 O8 2.140485 1_555
Mg14 O0 2.161013 1_555
Mg14 O16 2.185573 1_555
Mg15 O21 2.106983 1_555
Mg15 O1 2.129195 1_555
Mg15 O11 2.140485 1_455
Mg15 O9 2.140485 1_555
Mg15 O0 2.161013 1_556
Mg15 O17 2.185573 1_555
Mg16 O3 2.143918 1_555
Mg16 O22 2.144071 1_555
Mg16 O2 2.145165 1_555
Mg16 O18 2.147561 1_555
Mg16 O8 2.151656 1_555
Mg16 O10 2.151656 1_555
Mg17 O3 2.143918 1_555
Mg17 O23 2.144071 1_555
Mg17 O2 2.145165 1_556
Mg17 O19 2.147561 1_555
Mg17 O9 2.151656 1_555
Mg17 O11 2.151656 1_555
Mg18 O20 2.106983 1_555
Mg18 O5 2.129195 1_555
Mg18 O14 2.140485 1_455
Mg18 O12 2.140485 1_555
Mg18 O4 2.161013 1_555
Mg18 O16 2.185573 1_565
Mg19 O21 2.106983 1_555
Mg19 O5 2.129195 1_555
Mg19 O15 2.140485 1_455
Mg19 O13 2.140485 1_555
Mg19 O4 2.161013 1_556
Mg19 O17 2.185573 1_565
Mg20 O7 2.143918 1_555
Mg20 O22 2.144071 1_555
Mg20 O6 2.145165 1_555
Mg20 O18 2.147561 1_565
Mg20 O12 2.151656 1_555
Mg20 O14 2.151656 1_555
Mg21 O7 2.143918 1_555
Mg21 O23 2.144071 1_555
Mg21 O6 2.145165 1_556
Mg21 O19 2.147561 1_565
Mg21 O13 2.151656 1_555
Mg21 O15 2.151656 1_555
Mg22 O2 2.120621 1_555
Mg22 O28 2.120621 1_555
Mg22 O8 2.143203 1_555
Mg22 O9 2.143203 1_554
Mg22 O0 2.172571 1_555
Mg22 O24 2.172571 1_555
Mg23 O3 2.139401 1_555
Mg23 O29 2.139401 1_555
Mg23 O8 2.146341 1_555
Mg23 O9 2.146341 1_555
Mg23 O1 2.152769 1_555
Mg23 O25 2.152769 1_555
Mg24 O2 2.120621 1_555
Mg24 O30 2.120621 1_555
Mg24 O10 2.143203 1_555
Mg24 O11 2.143203 1_554
Mg24 O26 2.172571 1_555
Mg24 O0 2.172571 1_655
Mg25 O31 2.139401 1_555
Mg25 O3 2.139401 1_555
Mg25 O10 2.146341 1_555
Mg25 O11 2.146341 1_555
Mg25 O1 2.152769 1_655
Mg25 O27 2.152769 1_555
Mg26 O28 2.120621 1_555
Mg26 O6 2.120621 1_555
Mg26 O13 2.143203 1_554
Mg26 O12 2.143203 1_555
Mg26 O24 2.172571 1_565
Mg26 O4 2.172571 1_555
Mg27 O7 2.139401 1_555
Mg27 O29 2.139401 1_555
Mg27 O13 2.146341 1_555
Mg27 O12 2.146341 1_555
Mg27 O5 2.152769 1_555
Mg27 O25 2.152769 1_565
Mg28 O6 2.120621 1_555
Mg28 O30 2.120621 1_555
Mg28 O14 2.143203 1_555
Mg28 O15 2.143203 1_554
Mg28 O4 2.172571 1_655
Mg28 O26 2.172571 1_565
Mg29 O31 2.139401 1_555
Mg29 O7 2.139401 1_555
Mg29 O14 2.146341 1_555
Mg29 O15 2.146341 1_555
Mg29 O5 2.152769 1_655
Mg29 O27 2.152769 1_565
O1 Ti0 2.202093 1_555
O5 Ti0 2.202093 1_565
O16 Ti0 2.064213 1_555
O17 Ti0 2.064213 1_555
O25 Ti0 2.202093 1_555
O27 Ti0 2.202093 1_655
