# generated using pymatgen
data_Ho2GaCo2
_symmetry_space_group_name_H-M   'P 1'
_cell_length_a   4.08399087
_cell_length_b   5.31087149
_cell_length_c   5.31087149
_cell_angle_alpha   60.01111012
_cell_angle_beta   67.38769558
_cell_angle_gamma   67.38769558
_symmetry_Int_Tables_number   1
_chemical_formula_structural   Ho2GaCo2
_chemical_formula_sum   'Ho2 Ga1 Co2'
_cell_volume   89.39570044
_cell_formula_units_Z   1
loop_
 _symmetry_equiv_pos_site_id
 _symmetry_equiv_pos_as_xyz
  1  'x, y, z'
loop_
 _atom_site_type_symbol
 _atom_site_label
 _atom_site_symmetry_multiplicity
 _atom_site_fract_x
 _atom_site_fract_y
 _atom_site_fract_z
 _atom_site_occupancy
  Ho  Ho0  1  0.20581035  0.29418965  0.29418965  1
  Ho  Ho1  1  0.79418965  0.70581035  0.70581035  1
  Ga  Ga0  1  0.00000000  -0.00000000  0.00000000  1
  Co  Co0  1  0.50000000  0.28580633  0.71419367  1
  Co  Co1  1  0.50000000  0.71419367  0.28580633  1
loop_
_geom_bond_atom_site_label_1
_geom_bond_atom_site_label_2
_geom_bond_distance
_geom_bond_site_symmetry_2
Ho0 Ho1 3.392504 1_455
Ho0 Ho1 3.428415 1_545
Ho0 Ho1 3.428415 1_554
Ho0 Ho1 3.428415 1_445
Ho0 Ho1 3.428415 1_454
Ga0 Ho0 3.151345 1_545
Ga0 Ho0 3.151345 1_554
Ga0 Ho1 3.151345 1_454
Ga0 Ho1 3.151345 1_445
Ga0 Ho1 3.169970 1_544
Ga0 Ho0 3.169970 1_455
Ga0 Ho1 3.169971 1_444
Ga0 Ho0 3.169971 1_555
Co0 Co1 2.275492 1_555
Co0 Ga0 2.544500 1_556
Co0 Ga0 2.544500 1_656
Co0 Ho1 2.860717 1_545
Co0 Ho0 2.860717 1_556
Co0 Ho0 2.888162 1_655
Co0 Ho1 2.888162 1_455
Co0 Ho0 2.888163 1_555
Co0 Ho1 2.888163 1_555
Co0 Co1 3.036271 1_546
Co1 Ga0 2.544500 1_565
Co1 Ga0 2.544500 1_665
Co1 Ho1 2.860717 1_554
Co1 Ho0 2.860717 1_565
Co1 Ho0 2.888162 1_655
Co1 Ho1 2.888162 1_455
Co1 Ho0 2.888163 1_555
Co1 Ho1 2.888163 1_555
