# generated using pymatgen
data_In9Ga3(BiS6)4
_symmetry_space_group_name_H-M   'P 1'
_cell_length_a   3.88425700
_cell_length_b   20.47284027
_cell_length_c   12.59901753
_cell_angle_alpha   83.63688405
_cell_angle_beta   90.00000000
_cell_angle_gamma   90.00000000
_symmetry_Int_Tables_number   1
_chemical_formula_structural   In9Ga3(BiS6)4
_chemical_formula_sum   'In9 Ga3 Bi4 S24'
_cell_volume   995.72400312
_cell_formula_units_Z   1
loop_
 _symmetry_equiv_pos_site_id
 _symmetry_equiv_pos_as_xyz
  1  'x, y, z'
loop_
 _atom_site_type_symbol
 _atom_site_label
 _atom_site_symmetry_multiplicity
 _atom_site_fract_x
 _atom_site_fract_y
 _atom_site_fract_z
 _atom_site_occupancy
  In  In0  1  0.75000000  0.12788700  0.09600800  1
  In  In1  1  0.75000000  0.62847900  0.59618000  1
  In  In2  1  0.25000000  0.37074100  0.39786400  1
  In  In3  1  0.25000000  0.87171800  0.90412300  1
  In  In4  1  0.75000000  0.02498600  0.61762200  1
  In  In5  1  0.75000000  0.52566800  0.11739500  1
  In  In6  1  0.25000000  0.47584500  0.88545000  1
  In  In7  1  0.25000000  0.97484000  0.38235400  1
  In  In8  1  0.75000000  0.41352600  0.67637700  1
  Ga  Ga0  1  0.75000000  0.91673200  0.17762500  1
  Ga  Ga1  1  0.25000000  0.08318300  0.82246900  1
  Ga  Ga2  1  0.25000000  0.58294400  0.32246700  1
  Bi  Bi0  1  0.75000000  0.20448600  0.40567400  1
  Bi  Bi1  1  0.75000000  0.70542500  0.90581400  1
  Bi  Bi2  1  0.25000000  0.29451400  0.09304100  1
  Bi  Bi3  1  0.25000000  0.79474200  0.59424100  1
  S  S0  1  0.75000000  0.42311000  0.01101200  1
  S  S1  1  0.75000000  0.92295300  0.50927700  1
  S  S2  1  0.25000000  0.07763800  0.49021900  1
  S  S3  1  0.25000000  0.57887300  0.99184000  1
  S  S4  1  0.75000000  0.02010900  0.24484500  1
  S  S5  1  0.75000000  0.52444500  0.75067500  1
  S  S6  1  0.25000000  0.48051800  0.25200500  1
  S  S7  1  0.25000000  0.98008100  0.75505900  1
  S  S8  1  0.75000000  0.31931300  0.27864400  1
  S  S9  1  0.75000000  0.82151100  0.78258000  1
  S  S10  1  0.25000000  0.17866500  0.21780500  1
  S  S11  1  0.25000000  0.67973800  0.71730800  1
  S  S12  1  0.75000000  0.24241500  0.98128800  1
  S  S13  1  0.75000000  0.74304400  0.48069800  1
  S  S14  1  0.25000000  0.25757100  0.51822500  1
  S  S15  1  0.25000000  0.75694900  0.01890700  1
  S  S16  1  0.75000000  0.12914400  0.73790100  1
  S  S17  1  0.75000000  0.62930600  0.23907000  1
  S  S18  1  0.25000000  0.36529700  0.77984300  1
  S  S19  1  0.25000000  0.87094300  0.26201200  1
  S  S20  1  0.75000000  0.43058200  0.48092100  1
  S  S21  1  0.75000000  0.92755600  0.99541100  1
  S  S22  1  0.25000000  0.07237400  0.00441400  1
  S  S23  1  0.25000000  0.57214900  0.50533700  1
loop_
_geom_bond_atom_site_label_1
_geom_bond_atom_site_label_2
_geom_bond_distance
_geom_bond_site_symmetry_2
In0 S22 2.585716 1_555
In0 S22 2.585716 1_655
In0 S12 2.614489 1_554
In0 S4 2.732758 1_555
In0 S10 2.749714 1_555
In0 S10 2.749714 1_655
In1 S23 2.589274 1_555
In1 S23 2.589274 1_655
In1 S13 2.619488 1_555
In1 S5 2.721436 1_555
In1 S11 2.749016 1_555
In1 S11 2.749016 1_655
In2 S20 2.579141 1_455
In2 S20 2.579141 1_555
In2 S14 2.624663 1_555
In2 S8 2.736262 1_555
In2 S8 2.736262 1_455
In2 S6 2.740915 1_555
In3 S21 2.587072 1_455
In3 S21 2.587072 1_555
In3 S15 2.618978 1_556
In3 S9 2.742671 1_455
In3 S9 2.742671 1_555
In3 S7 2.743230 1_555
In4 S1 2.618951 1_545
In4 S2 2.669607 1_655
In4 S2 2.669607 1_555
In4 S7 2.694906 1_645
In4 S7 2.694906 1_545
In4 S16 2.749523 1_555
In5 S0 2.613197 1_555
In5 S3 2.660587 1_554
In5 S3 2.660587 1_654
In5 S6 2.674894 1_555
In5 S6 2.674894 1_655
In5 S17 2.751890 1_555
In6 S3 2.621533 1_555
In6 S0 2.657346 1_456
In6 S0 2.657346 1_556
In6 S5 2.696418 1_555
In6 S5 2.696418 1_455
In6 S18 2.749555 1_555
In7 S2 2.628693 1_565
In7 S1 2.660996 1_555
In7 S1 2.660996 1_455
In7 S4 2.697475 1_565
In7 S4 2.697475 1_465
In7 S19 2.745561 1_555
In8 S20 2.448571 1_555
In8 S18 2.482093 1_655
In8 S18 2.482093 1_555
In8 S5 2.550310 1_555
Ga0 S21 2.281811 1_554
Ga0 S19 2.357986 1_655
Ga0 S19 2.357986 1_555
Ga0 S4 2.365119 1_565
Ga1 S22 2.278442 1_556
Ga1 S16 2.360140 1_455
Ga1 S16 2.360140 1_555
Ga1 S7 2.360956 1_545
Ga2 S23 2.290046 1_555
Ga2 S17 2.357058 1_455
Ga2 S17 2.357058 1_555
Ga2 S6 2.365997 1_555
Bi0 S8 2.693308 1_555
Bi0 S14 2.702853 1_555
Bi0 S14 2.702853 1_655
Bi0 S10 3.151378 1_655
Bi0 S10 3.151378 1_555
Bi1 S9 2.690913 1_555
Bi1 S15 2.692199 1_656
Bi1 S15 2.692199 1_556
Bi1 S11 3.156872 1_555
Bi1 S11 3.156872 1_655
Bi2 S12 2.687901 1_554
Bi2 S12 2.687901 1_454
Bi2 S10 2.696245 1_555
Bi2 S8 3.124256 1_455
Bi2 S8 3.124256 1_555
Bi3 S11 2.671779 1_555
Bi3 S13 2.697056 1_555
Bi3 S13 2.697056 1_455
Bi3 S9 3.160862 1_555
Bi3 S9 3.160862 1_455
