# generated using pymatgen
data_SmInPt4
_symmetry_space_group_name_H-M   'P 1'
_cell_length_a   5.39659236
_cell_length_b   5.39659236
_cell_length_c   5.39659236
_cell_angle_alpha   60.00000000
_cell_angle_beta   60.00000000
_cell_angle_gamma   60.00000000
_symmetry_Int_Tables_number   1
_chemical_formula_structural   SmInPt4
_chemical_formula_sum   'Sm1 In1 Pt4'
_cell_volume   111.13320614
_cell_formula_units_Z   1
loop_
 _symmetry_equiv_pos_site_id
 _symmetry_equiv_pos_as_xyz
  1  'x, y, z'
loop_
 _atom_site_type_symbol
 _atom_site_label
 _atom_site_symmetry_multiplicity
 _atom_site_fract_x
 _atom_site_fract_y
 _atom_site_fract_z
 _atom_site_occupancy
  Sm  Sm0  1  0.00000000  0.00000000  0.00000000  1
  In  In0  1  0.25000000  0.25000000  0.25000000  1
  Pt  Pt0  1  0.62446333  0.62446333  0.12661001  1
  Pt  Pt1  1  0.62446333  0.12661001  0.62446333  1
  Pt  Pt2  1  0.12661001  0.62446333  0.62446333  1
  Pt  Pt3  1  0.62446333  0.62446333  0.62446333  1
loop_
_geom_bond_atom_site_label_1
_geom_bond_atom_site_label_2
_geom_bond_distance
_geom_bond_site_symmetry_2
In0 Pt2 3.162806 1_555
In0 Pt3 3.162806 1_455
In0 Pt0 3.162806 1_455
In0 Pt0 3.162806 1_555
In0 Pt1 3.162806 1_455
In0 Pt1 3.162806 1_555
In0 Pt0 3.162806 1_545
In0 Pt2 3.162806 1_545
In0 Pt2 3.162806 1_554
In0 Pt3 3.162806 1_554
In0 Pt1 3.162806 1_554
In0 Pt3 3.162806 1_545
In0 Sm0 3.304724 1_655
In0 Sm0 3.304724 1_556
In0 Sm0 3.304724 1_555
In0 Sm0 3.304724 1_565
Pt0 Pt1 2.686711 1_555
Pt0 Pt2 2.686711 1_555
Pt0 Pt3 2.686711 1_555
Pt0 Pt1 2.709881 1_564
Pt0 Pt3 2.709881 1_554
Pt0 Pt2 2.709881 1_654
Pt0 Sm0 3.165275 1_655
Pt0 Sm0 3.165275 1_565
Pt0 Sm0 3.165275 1_665
Pt1 Pt2 2.686711 1_555
Pt1 Pt3 2.686711 1_555
Pt1 Pt2 2.709881 1_645
Pt1 Pt3 2.709881 1_545
Pt1 Sm0 3.165275 1_656
Pt1 Sm0 3.165275 1_655
Pt1 Sm0 3.165275 1_556
Pt2 Pt3 2.686711 1_555
Pt2 Pt3 2.709881 1_455
Pt2 Sm0 3.165275 1_566
Pt2 Sm0 3.165275 1_556
Pt2 Sm0 3.165275 1_565
Pt3 Sm0 3.165275 1_656
Pt3 Sm0 3.165275 1_566
Pt3 Sm0 3.165275 1_665
