# generated using pymatgen
data_Rb4Mo5H4Se2O23
_symmetry_space_group_name_H-M   'P 1'
_cell_length_a   10.46502800
_cell_length_b   11.37207737
_cell_length_c   12.45882731
_cell_angle_alpha   104.51984306
_cell_angle_beta   90.00000000
_cell_angle_gamma   117.39481575
_symmetry_Int_Tables_number   1
_chemical_formula_structural   Rb4Mo5H4Se2O23
_chemical_formula_sum   'Rb8 Mo10 H8 Se4 O46'
_cell_volume   1262.86143844
_cell_formula_units_Z   2
loop_
 _symmetry_equiv_pos_site_id
 _symmetry_equiv_pos_as_xyz
  1  'x, y, z'
loop_
 _atom_site_type_symbol
 _atom_site_label
 _atom_site_symmetry_multiplicity
 _atom_site_fract_x
 _atom_site_fract_y
 _atom_site_fract_z
 _atom_site_occupancy
  Rb  Rb0  1  0.02472900  0.35407100  0.76859500  1
  Rb  Rb1  1  0.67065900  0.64592900  0.23140500  1
  Rb  Rb2  1  0.66468800  0.02109500  0.24815500  1
  Rb  Rb3  1  0.64359300  0.97890500  0.75184500  1
  Rb  Rb4  1  0.25808700  0.64088600  0.09562400  1
  Rb  Rb5  1  0.61720100  0.35911400  0.90437600  1
  Rb  Rb6  1  0.07885300  0.37408600  0.40637600  1
  Rb  Rb7  1  0.70476600  0.62591400  0.59362400  1
  Mo  Mo0  1  0.30880100  0.00000000  0.00000000  1
  Mo  Mo1  1  0.26180900  0.28913300  0.09862000  1
  Mo  Mo2  1  0.97267500  0.71086700  0.90138000  1
  Mo  Mo3  1  0.90407600  0.19403700  0.03554800  1
  Mo  Mo4  1  0.71003900  0.80596300  0.96445200  1
  Mo  Mo5  1  0.35140100  0.28366900  0.61789000  1
  Mo  Mo6  1  0.06773200  0.71633100  0.38211000  1
  Mo  Mo7  1  0.62090800  0.19460500  0.55369500  1
  Mo  Mo8  1  0.42630300  0.80539500  0.44630500  1
  Mo  Mo9  1  0.01818600  0.00000000  0.50000000  1
  H  H0  1  0.05212100  0.59169200  0.63776500  1
  H  H1  1  0.46043000  0.40830800  0.36223500  1
  H  H2  1  0.21382800  0.62762800  0.63989800  1
  H  H3  1  0.58620000  0.37237200  0.36010200  1
  H  H4  1  0.38336300  0.61192400  0.83209200  1
  H  H5  1  0.77143900  0.38807600  0.16790800  1
  H  H6  1  0.28707600  0.68426400  0.84153000  1
  H  H7  1  0.60281200  0.31573600  0.15847000  1
  Se  Se0  1  0.02551000  0.98483200  0.16731200  1
  Se  Se1  1  0.04067800  0.01516800  0.83268800  1
  Se  Se2  1  0.31478900  0.03872000  0.33933200  1
  Se  Se3  1  0.27606900  0.96128000  0.66066800  1
  O  O0  1  0.11660100  0.55028100  0.63140400  1
  O  O1  1  0.56631900  0.44971900  0.36859600  1
  O  O2  1  0.84293400  0.88793900  0.14255600  1
  O  O3  1  0.95499500  0.11206100  0.85744400  1
  O  O4  1  0.29144400  0.60538200  0.85514200  1
  O  O5  1  0.68606200  0.39461800  0.14485800  1
  O  O6  1  0.08659400  0.89209300  0.06615200  1
  O  O7  1  0.19450100  0.10790700  0.93384800  1
  O  O8  1  0.04625100  0.12092300  0.11353200  1
  O  O9  1  0.92532800  0.87907700  0.88646800  1
  O  O10  1  0.49669100  0.13830500  0.37542700  1
  O  O11  1  0.35838600  0.86169500  0.62457300  1
  O  O12  1  0.24565500  0.11630300  0.44505800  1
  O  O13  1  0.12935200  0.88369700  0.55494200  1
  O  O14  1  0.28571200  0.88853500  0.37443400  1
  O  O15  1  0.39717700  0.11146500  0.62556600  1
  O  O16  1  0.10958300  0.32480500  0.04443900  1
  O  O17  1  0.78477700  0.67519500  0.95556100  1
  O  O18  1  0.33725500  0.16378900  0.11850600  1
  O  O19  1  0.17346500  0.83621100  0.88149400  1
  O  O20  1  0.82541300  0.25570000  0.95589800  1
  O  O21  1  0.56971400  0.74430000  0.04410200  1
  O  O22  1  0.40520600  0.40245600  0.04361000  1
  O  O23  1  0.00275000  0.59754400  0.95639000  1
  O  O24  1  0.14810200  0.15213000  0.62856100  1
  O  O25  1  0.99597200  0.84787000  0.37143900  1
  O  O26  1  0.32604700  0.39629100  0.55853600  1
  O  O27  1  0.92975600  0.60370900  0.44146400  1
  O  O28  1  0.86900000  0.25314500  0.17140300  1
  O  O29  1  0.61585600  0.74685500  0.82859700  1
  O  O30  1  0.54866900  0.32762700  0.57807200  1
  O  O31  1  0.22104200  0.67237300  0.42192800  1
  O  O32  1  0.56673400  0.00000000  0.50000000  1
  O  O33  1  0.70406700  0.22969300  0.68943700  1
  O  O34  1  0.47437400  0.77030700  0.31056300  1
  O  O35  1  0.95667400  0.08266100  0.42855300  1
  O  O36  1  0.87401300  0.91733900  0.57144700  1
  O  O37  1  0.44611600  0.06808700  0.91857100  1
  O  O38  1  0.37802900  0.93191300  0.08142900  1
  O  O39  1  0.28998600  0.37818400  0.24057400  1
  O  O40  1  0.91180200  0.62181600  0.75942600  1
  O  O41  1  0.39757100  0.36921800  0.76044800  1
  O  O42  1  0.02835300  0.63078200  0.23955200  1
  O  O43  1  0.76991000  0.26816100  0.48485600  1
  O  O44  1  0.50174900  0.73183900  0.51514400  1
  O  O45  1  0.75866500  0.00000000  0.00000000  1
loop_
_geom_bond_atom_site_label_1
_geom_bond_atom_site_label_2
_geom_bond_distance
_geom_bond_site_symmetry_2
Mo0 O38 1.750347 1_545
Mo0 O37 1.750347 1_554
Mo0 O18 1.961774 1_555
Mo0 O19 1.961777 1_544
Mo0 O7 2.339610 1_554
Mo0 O6 2.339610 1_545
Mo1 O22 1.745190 1_555
Mo1 O39 1.751428 1_555
Mo1 O16 1.972320 1_555
Mo1 O18 1.982257 1_555
Mo1 O8 2.233752 1_555
Mo1 O7 2.345306 1_554
Mo2 O23 1.745195 1_655
Mo2 O40 1.751427 1_555
Mo2 O17 1.972320 1_555
Mo2 O19 1.982257 1_655
Mo2 O9 2.233746 1_555
Mo2 O6 2.345307 1_656
Mo3 O20 1.741927 1_554
Mo3 O28 1.762955 1_555
Mo3 O45 1.949576 1_555
Mo3 O16 1.955316 1_655
Mo3 O8 2.322187 1_655
Mo3 O3 2.344506 1_554
Mo4 O21 1.741920 1_556
Mo4 O29 1.762951 1_555
Mo4 O45 1.949576 1_566
Mo4 O17 1.955308 1_555
Mo4 O9 2.322187 1_555
Mo4 O2 2.344506 1_556
Mo5 O41 1.742263 1_555
Mo5 O26 1.745038 1_555
Mo5 O30 1.983048 1_555
Mo5 O24 1.988150 1_555
Mo5 O15 2.242955 1_555
Mo5 O12 2.343187 1_555
Mo6 O42 1.742263 1_555
Mo6 O27 1.745038 1_455
Mo6 O31 1.983048 1_555
Mo6 O25 1.988150 1_455
Mo6 O14 2.242955 1_555
Mo6 O13 2.343187 1_555
Mo7 O43 1.739584 1_555
Mo7 O33 1.765999 1_555
Mo7 O32 1.941557 1_555
Mo7 O30 1.942714 1_555
Mo7 O10 2.356630 1_555
Mo7 O15 2.359032 1_555
Mo8 O44 1.739584 1_555
Mo8 O34 1.765999 1_555
Mo8 O32 1.941557 1_565
Mo8 O31 1.942714 1_555
Mo8 O11 2.356630 1_555
Mo8 O14 2.359032 1_555
Mo9 O36 1.751235 1_445
Mo9 O35 1.751235 1_455
Mo9 O24 1.962902 1_555
Mo9 O25 1.962902 1_445
Mo9 O13 2.332626 1_545
Mo9 O12 2.332626 1_555
H0 O0 0.978318 1_555
H1 O1 0.978299 1_555
H2 O0 0.974626 1_555
H3 O1 0.974632 1_555
H4 O4 0.978867 1_555
H5 O5 0.978867 1_555
H6 O4 0.974459 1_555
H7 O5 0.974459 1_555
O0 Rb6 2.913032 1_555
O0 Rb0 2.960211 1_555
O1 Rb7 2.913032 1_555
O1 Rb1 2.960211 1_555
O2 Se0 1.688813 1_655
O2 Rb1 3.001939 1_555
O2 Rb2 3.017249 1_565
O3 Se1 1.688813 1_655
O3 Rb0 3.001941 1_655
O3 Rb3 3.017249 1_545
O4 Rb0 2.869695 1_555
O4 Rb4 2.963909 1_556
O5 Rb1 2.869690 1_555
O5 Rb5 2.963909 1_554
O6 Se0 1.750210 1_555
O7 Se1 1.750210 1_555
O8 Se0 1.761273 1_545
O9 Se1 1.761273 1_665
O10 Se2 1.693888 1_555
O10 Rb2 2.911799 1_555
O11 Se3 1.693888 1_555
O11 Rb3 2.911799 1_555
O12 Se2 1.744016 1_555
O13 Se3 1.744016 1_555
O14 Se2 1.759859 1_565
O15 Se3 1.759859 1_545
O16 Rb4 3.074454 1_555
O17 Rb5 3.074454 1_555
O20 Rb5 3.046234 1_555
O20 Rb0 3.195231 1_655
O20 Rb3 3.235354 1_545
O21 Rb4 3.046243 1_555
O21 Rb1 3.195231 1_555
O21 Rb2 3.235356 1_565
O22 Rb5 2.958299 1_554
O22 Rb1 3.245163 1_555
O23 Rb4 2.958299 1_556
O23 Rb0 3.245159 1_555
O24 Rb0 3.271716 1_555
O25 Rb1 3.271708 1_555
O26 Rb6 3.083572 1_555
O27 Rb7 3.083581 1_555
O28 Rb2 2.919383 1_555
O28 Rb6 3.238251 1_655
O29 Rb3 2.919387 1_555
O29 Rb7 3.238241 1_555
O30 Rb7 2.963753 1_555
O31 Rb6 2.963753 1_555
O32 Rb2 3.332359 1_555
O32 Rb3 3.332359 1_545
O33 Rb3 2.930842 1_545
O33 Rb0 3.027683 1_655
O33 Rb5 3.068967 1_555
O34 Rb2 2.930842 1_565
O34 Rb1 3.027692 1_555
O34 Rb4 3.068967 1_555
O35 Rb6 3.042069 1_655
O35 Rb2 3.481500 1_555
O36 Rb7 3.042069 1_555
O36 Rb3 3.481500 1_555
O37 Rb5 3.005126 1_555
O37 Rb3 3.238304 1_545
O38 Rb4 3.005126 1_555
O38 Rb2 3.238304 1_565
O39 Rb6 3.017407 1_555
O40 Rb7 3.017414 1_555
O41 Rb5 2.976210 1_555
O42 Rb4 2.976210 1_555
O43 Rb6 3.141123 1_655
O43 Rb2 3.286578 1_555
O44 Rb7 3.141114 1_555
O44 Rb3 3.286578 1_555
O45 Rb3 3.229351 1_544
O45 Rb2 3.229351 1_555
