# generated using pymatgen
data_VRe11B4
_symmetry_space_group_name_H-M   'P 1'
_cell_length_a   4.89740298
_cell_length_b   4.89740298
_cell_length_c   14.63330600
_cell_angle_alpha   90.00000000
_cell_angle_beta   90.00000000
_cell_angle_gamma   145.14922113
_symmetry_Int_Tables_number   1
_chemical_formula_structural   VRe11B4
_chemical_formula_sum   'V1 Re11 B4'
_cell_volume   200.56059333
_cell_formula_units_Z   1
loop_
 _symmetry_equiv_pos_site_id
 _symmetry_equiv_pos_as_xyz
  1  'x, y, z'
loop_
 _atom_site_type_symbol
 _atom_site_label
 _atom_site_symmetry_multiplicity
 _atom_site_fract_x
 _atom_site_fract_y
 _atom_site_fract_z
 _atom_site_occupancy
  V  V0  1  0.57117400  0.42882600  0.00000000  1
  Re  Re0  1  0.86489700  0.13510300  0.09215000  1
  Re  Re1  1  0.86662600  0.13337400  0.59274400  1
  Re  Re2  1  0.13715100  0.86284900  0.15172600  1
  Re  Re3  1  0.13417800  0.86582200  0.65871300  1
  Re  Re4  1  0.86489700  0.13510300  0.90785000  1
  Re  Re5  1  0.86662600  0.13337400  0.40725600  1
  Re  Re6  1  0.13417800  0.86582200  0.34128700  1
  Re  Re7  1  0.13715100  0.86284900  0.84827400  1
  Re  Re8  1  0.57681700  0.42318300  0.50000000  1
  Re  Re9  1  0.42611900  0.57388100  0.24843600  1
  Re  Re10  1  0.42611900  0.57388100  0.75156400  1
  B  B0  1  0.25000600  0.74999400  0.00000000  1
  B  B1  1  0.25478800  0.74521200  0.50000000  1
  B  B2  1  0.74463600  0.25536400  0.24912000  1
  B  B3  1  0.74463600  0.25536400  0.75088000  1
loop_
_geom_bond_atom_site_label_1
_geom_bond_atom_site_label_2
_geom_bond_distance
_geom_bond_site_symmetry_2
Re2 V0 2.731407 1_455
Re2 V0 2.731407 1_565
Re7 V0 2.731407 1_566
Re7 V0 2.731407 1_456
B0 V0 2.223497 1_565
B0 V0 2.223497 1_455
B0 Re4 2.263195 1_564
B0 Re4 2.263195 1_454
B0 Re0 2.263195 1_565
B0 Re0 2.263195 1_455
B0 Re2 2.458015 1_555
B0 Re7 2.458015 1_554
B1 Re8 2.217455 1_565
B1 Re8 2.217455 1_455
B1 Re5 2.255020 1_565
B1 Re5 2.255020 1_455
B1 Re1 2.255020 1_455
B1 Re1 2.255020 1_565
B1 Re3 2.581555 1_555
B1 Re6 2.581555 1_555
B2 Re9 2.242199 1_655
B2 Re9 2.242199 1_545
B2 Re6 2.243987 1_655
B2 Re6 2.243987 1_545
B2 Re2 2.278390 1_545
B2 Re2 2.278390 1_655
B2 Re0 2.557197 1_555
B2 Re5 2.579635 1_555
B3 Re10 2.242199 1_655
B3 Re10 2.242199 1_545
B3 Re3 2.243987 1_655
B3 Re3 2.243987 1_545
B3 Re7 2.278390 1_545
B3 Re7 2.278390 1_655
B3 Re4 2.557197 1_555
B3 Re1 2.579635 1_555
