# generated using pymatgen
data_Th3Zn
_symmetry_space_group_name_H-M   'P 1'
_cell_length_a   6.02712917
_cell_length_b   6.02712917
_cell_length_c   6.02712917
_cell_angle_alpha   133.06403682
_cell_angle_beta   133.06403682
_cell_angle_gamma   68.55359979
_symmetry_Int_Tables_number   1
_chemical_formula_structural   Th3Zn
_chemical_formula_sum   'Th3 Zn1'
_cell_volume   114.76918801
_cell_formula_units_Z   1
loop_
 _symmetry_equiv_pos_site_id
 _symmetry_equiv_pos_as_xyz
  1  'x, y, z'
loop_
 _atom_site_type_symbol
 _atom_site_label
 _atom_site_symmetry_multiplicity
 _atom_site_fract_x
 _atom_site_fract_y
 _atom_site_fract_z
 _atom_site_occupancy
  Th  Th0  1  0.75000000  0.25000000  0.50000000  1
  Th  Th1  1  0.25000000  0.75000000  0.50000000  1
  Th  Th2  1  0.50000000  0.50000000  0.00000000  1
  Zn  Zn0  1  0.00000000  0.00000000  0.00000000  1
loop_
_geom_bond_atom_site_label_1
_geom_bond_atom_site_label_2
_geom_bond_distance
_geom_bond_site_symmetry_2
Th0 Th1 3.394428 1_555
Th0 Th1 3.394428 1_544
Th0 Th1 3.394428 1_645
Th0 Th1 3.394428 1_656
Th0 Zn0 3.458628 1_555
Th0 Th2 3.458628 1_656
Th0 Zn0 3.458628 1_655
Th0 Zn0 3.458628 1_666
Th0 Th2 3.458628 1_555
Th0 Zn0 3.458628 1_656
Th0 Th2 3.458628 1_545
Th0 Th2 3.458628 1_556
Th1 Zn0 3.458628 1_666
Th1 Th2 3.458628 1_455
Th1 Th2 3.458628 1_566
Th1 Zn0 3.458628 1_565
Th1 Th2 3.458628 1_555
Th1 Th2 3.458628 1_556
Th1 Zn0 3.458628 1_555
Th1 Zn0 3.458628 1_566
Th2 Zn0 3.394428 1_554
Th2 Zn0 3.394428 1_565
Th2 Zn0 3.394428 1_666
Th2 Zn0 3.394428 1_655
