# generated using pymatgen
data_Ce(AlSi)2
_symmetry_space_group_name_H-M   'P 1'
_cell_length_a   4.21073657
_cell_length_b   4.21073657
_cell_length_c   6.82200000
_cell_angle_alpha   90.00000000
_cell_angle_beta   90.00000000
_cell_angle_gamma   120.00000892
_symmetry_Int_Tables_number   1
_chemical_formula_structural   Ce(AlSi)2
_chemical_formula_sum   'Ce1 Al2 Si2'
_cell_volume   104.75106607
_cell_formula_units_Z   1
loop_
 _symmetry_equiv_pos_site_id
 _symmetry_equiv_pos_as_xyz
  1  'x, y, z'
loop_
 _atom_site_type_symbol
 _atom_site_label
 _atom_site_symmetry_multiplicity
 _atom_site_fract_x
 _atom_site_fract_y
 _atom_site_fract_z
 _atom_site_occupancy
  Ce  Ce0  1  0.00000000  0.00000000  0.00000000  1
  Al  Al0  1  0.33333300  0.66666700  0.63863100  1
  Al  Al1  1  0.66666700  0.33333300  0.36136900  1
  Si  Si0  1  0.33333300  0.66666700  0.26598800  1
  Si  Si1  1  0.66666700  0.33333300  0.73401200  1
loop_
_geom_bond_atom_site_label_1
_geom_bond_atom_site_label_2
_geom_bond_distance
_geom_bond_site_symmetry_2
Ce0 Si0 3.033604 1_545
Ce0 Si1 3.033604 1_454
Ce0 Si0 3.033607 1_555
Ce0 Si1 3.033607 1_554
Ce0 Si1 3.033607 1_444
Ce0 Si0 3.033607 1_445
Al0 Si1 2.516641 1_455
Al0 Si1 2.516641 1_565
Al0 Si1 2.516649 1_555
Al0 Si0 2.542171 1_555
Al1 Si0 2.516641 1_545
Al1 Si0 2.516641 1_655
Al1 Si0 2.516649 1_555
Al1 Si1 2.542171 1_555
