# generated using pymatgen
data_In(BO2)5
_symmetry_space_group_name_H-M   'P 1'
_cell_length_a   4.43951010
_cell_length_b   4.50121961
_cell_length_c   8.63927827
_cell_angle_alpha   82.92611713
_cell_angle_beta   75.53894826
_cell_angle_gamma   60.45249422
_symmetry_Int_Tables_number   1
_chemical_formula_structural   In(BO2)5
_chemical_formula_sum   'In1 B5 O10'
_cell_volume   145.42979709
_cell_formula_units_Z   1
loop_
 _symmetry_equiv_pos_site_id
 _symmetry_equiv_pos_as_xyz
  1  'x, y, z'
loop_
 _atom_site_type_symbol
 _atom_site_label
 _atom_site_symmetry_multiplicity
 _atom_site_fract_x
 _atom_site_fract_y
 _atom_site_fract_z
 _atom_site_occupancy
  In  In0  1  0.37124600  0.25750700  0.00000000  1
  B  B0  1  0.14412300  0.94206300  0.77410600  1
  B  B1  1  0.91381400  0.94206300  0.22589400  1
  B  B2  1  0.79874500  0.59977200  0.77492200  1
  B  B3  1  0.60148200  0.59977200  0.22507800  1
  B  B4  1  0.62040100  0.75919800  0.50000000  1
  O  O0  1  0.87010800  0.56038400  0.60214000  1
  O  O1  1  0.56950800  0.56038400  0.39786000  1
  O  O2  1  0.42831000  0.66864200  0.84872300  1
  O  O3  1  0.90304800  0.66864200  0.15127700  1
  O  O4  1  0.04497800  0.27661900  0.84219600  1
  O  O5  1  0.67840300  0.27661900  0.15780400  1
  O  O6  1  0.82637000  0.89434600  0.81888600  1
  O  O7  1  0.27928400  0.89434600  0.18111400  1
  O  O8  1  0.26802700  0.96073100  0.60204600  1
  O  O9  1  0.77124200  0.96073100  0.39795400  1
loop_
_geom_bond_atom_site_label_1
_geom_bond_atom_site_label_2
_geom_bond_distance
_geom_bond_site_symmetry_2
In0 O4 2.190562 1_554
In0 O5 2.190566 1_555
In0 O3 2.213214 1_455
In0 O2 2.213215 1_554
In0 O7 2.235240 1_545
In0 O6 2.235242 1_544
B0 O8 1.457975 1_555
B0 O6 1.480400 1_455
B0 O2 1.483693 1_555
B0 O4 1.497551 1_565
B1 O9 1.457975 1_555
B1 O7 1.480400 1_655
B1 O3 1.483693 1_555
B1 O5 1.497551 1_565
B2 O0 1.460679 1_555
B2 O4 1.479662 1_655
B2 O6 1.491682 1_555
B2 O2 1.493096 1_555
B3 O1 1.460679 1_555
B3 O5 1.479661 1_555
B3 O7 1.491680 1_555
B3 O3 1.493099 1_555
B4 O1 1.457415 1_555
B4 O0 1.457415 1_555
B4 O9 1.468297 1_555
B4 O8 1.468297 1_555
