# generated using pymatgen
data_CsK4GaO4
_symmetry_space_group_name_H-M   'P 1'
_cell_length_a   6.77827600
_cell_length_b   11.74513600
_cell_length_c   21.15704500
_cell_angle_alpha   90.00000000
_cell_angle_beta   90.00000000
_cell_angle_gamma   90.00000000
_symmetry_Int_Tables_number   1
_chemical_formula_structural   CsK4GaO4
_chemical_formula_sum   'Cs8 K32 Ga8 O32'
_cell_volume   1684.34987374
_cell_formula_units_Z   8
loop_
 _symmetry_equiv_pos_site_id
 _symmetry_equiv_pos_as_xyz
  1  'x, y, z'
loop_
 _atom_site_type_symbol
 _atom_site_label
 _atom_site_symmetry_multiplicity
 _atom_site_fract_x
 _atom_site_fract_y
 _atom_site_fract_z
 _atom_site_occupancy
  Cs  Cs0  1  0.42196400  0.15466000  0.49814100  1
  Cs  Cs1  1  0.92196400  0.84534000  0.00185900  1
  Cs  Cs2  1  0.07803600  0.65466000  0.50185900  1
  Cs  Cs3  1  0.57803600  0.34534000  0.99814100  1
  Cs  Cs4  1  0.57803600  0.84534000  0.50185900  1
  Cs  Cs5  1  0.07803600  0.15466000  0.99814100  1
  Cs  Cs6  1  0.92196400  0.34534000  0.49814100  1
  Cs  Cs7  1  0.42196400  0.65466000  0.00185900  1
  K  K0  1  0.58693500  0.92347400  0.25199100  1
  K  K1  1  0.08693500  0.07652600  0.24800900  1
  K  K2  1  0.91306500  0.42347400  0.74800900  1
  K  K3  1  0.41306500  0.57652600  0.75199100  1
  K  K4  1  0.41306500  0.07652600  0.74800900  1
  K  K5  1  0.91306500  0.92347400  0.75199100  1
  K  K6  1  0.08693500  0.57652600  0.25199100  1
  K  K7  1  0.58693500  0.42347400  0.24800900  1
  K  K8  1  0.40762700  0.94206800  0.06733200  1
  K  K9  1  0.59237300  0.55793200  0.56733200  1
  K  K10  1  0.09237300  0.44206800  0.93266800  1
  K  K11  1  0.09237300  0.94206800  0.56733200  1
  K  K12  1  0.59237300  0.05793200  0.93266800  1
  K  K13  1  0.40762700  0.44206800  0.43266800  1
  K  K14  1  0.90762700  0.55793200  0.06733200  1
  K  K15  1  0.08814200  0.32556000  0.32241100  1
  K  K16  1  0.58814200  0.67444000  0.17758900  1
  K  K17  1  0.41185800  0.82556000  0.67758900  1
  K  K18  1  0.91185800  0.67444000  0.67758900  1
  K  K19  1  0.41185800  0.32556000  0.82241100  1
  K  K20  1  0.58814200  0.17444000  0.32241100  1
  K  K21  1  0.08814200  0.82556000  0.17758900  1
  K  K22  1  0.41018000  0.70276500  0.36022000  1
  K  K23  1  0.91018000  0.29723500  0.13978000  1
  K  K24  1  0.08982000  0.20276500  0.63978000  1
  K  K25  1  0.58982000  0.79723500  0.86022000  1
  K  K26  1  0.58982000  0.29723500  0.63978000  1
  K  K27  1  0.08982000  0.70276500  0.86022000  1
  K  K28  1  0.91018000  0.79723500  0.36022000  1
  K  K29  1  0.41018000  0.20276500  0.13978000  1
  K  K30  1  0.90762700  0.05793200  0.43266800  1
  K  K31  1  0.91185800  0.17444000  0.82241100  1
  Ga  Ga0  1  0.80392200  0.53393200  0.37161900  1
  Ga  Ga1  1  0.30392200  0.46606800  0.12838100  1
  Ga  Ga2  1  0.69607800  0.03393200  0.62838100  1
  Ga  Ga3  1  0.19607800  0.96606800  0.87161900  1
  Ga  Ga4  1  0.19607800  0.46606800  0.62838100  1
  Ga  Ga5  1  0.69607800  0.53393200  0.87161900  1
  Ga  Ga6  1  0.30392200  0.96606800  0.37161900  1
  Ga  Ga7  1  0.80392200  0.03393200  0.12838100  1
  O  O0  1  0.27642100  0.88269900  0.79718500  1
  O  O1  1  0.77642100  0.11730100  0.70281500  1
  O  O2  1  0.22357900  0.38269900  0.20281500  1
  O  O3  1  0.72357900  0.61730100  0.29718500  1
  O  O4  1  0.72357900  0.11730100  0.20281500  1
  O  O5  1  0.22357900  0.88269900  0.29718500  1
  O  O6  1  0.77642100  0.61730100  0.79718500  1
  O  O7  1  0.27642100  0.38269900  0.70281500  1
  O  O8  1  0.31552400  0.39568800  0.55627400  1
  O  O9  1  0.81552400  0.60431200  0.94372600  1
  O  O10  1  0.81552400  0.10431200  0.55627400  1
  O  O11  1  0.31552400  0.89568800  0.94372600  1
  O  O12  1  0.68447600  0.60431200  0.44372600  1
  O  O13  1  0.18447600  0.39568800  0.05627400  1
  O  O14  1  0.08555000  0.53782900  0.37876100  1
  O  O15  1  0.58555000  0.46217100  0.12123900  1
  O  O16  1  0.41445000  0.03782900  0.62123900  1
  O  O17  1  0.91445000  0.96217100  0.87876100  1
  O  O18  1  0.91445000  0.46217100  0.62123900  1
  O  O19  1  0.41445000  0.53782900  0.87876100  1
  O  O20  1  0.18447600  0.89568800  0.44372600  1
  O  O21  1  0.58555000  0.96217100  0.37876100  1
  O  O22  1  0.08555000  0.03782900  0.12123900  1
  O  O23  1  0.72133700  0.37793900  0.36408200  1
  O  O24  1  0.22133700  0.62206100  0.13591800  1
  O  O25  1  0.77866300  0.87793900  0.63591800  1
  O  O26  1  0.27866300  0.12206100  0.86408200  1
  O  O27  1  0.27866300  0.62206100  0.63591800  1
  O  O28  1  0.77866300  0.37793900  0.86408200  1
  O  O29  1  0.22133700  0.12206100  0.36408200  1
  O  O30  1  0.72133700  0.87793900  0.13591800  1
  O  O31  1  0.68447600  0.10431200  0.05627400  1
loop_
_geom_bond_atom_site_label_1
_geom_bond_atom_site_label_2
_geom_bond_distance
_geom_bond_site_symmetry_2
Cs0 O16 2.944208 1_555
Cs0 O10 2.996464 1_555
Cs0 O29 3.168674 1_555
Cs0 O8 3.169744 1_555
Cs1 O17 2.944208 1_554
Cs1 O11 2.996464 1_654
Cs1 O30 3.168674 1_555
Cs1 O9 3.169744 1_554
Cs2 O14 2.944208 1_555
Cs2 O12 2.996464 1_455
Cs2 O27 3.168674 1_555
Cs2 O20 3.169744 1_555
Cs3 O15 2.944208 1_556
Cs3 O13 2.996464 1_556
Cs3 O28 3.168674 1_555
Cs3 O31 3.169744 1_556
Cs4 O21 2.944208 1_555
Cs4 O20 2.996464 1_555
Cs4 O25 3.168674 1_555
Cs4 O12 3.169744 1_555
Cs5 O22 2.944208 1_556
Cs5 O31 2.996464 1_456
Cs5 O26 3.168674 1_555
Cs5 O13 3.169744 1_556
Cs6 O18 2.944208 1_555
Cs6 O8 2.996464 1_655
Cs6 O23 3.168674 1_555
Cs6 O10 3.169744 1_555
Cs7 O19 2.944208 1_554
Cs7 O9 2.996464 1_554
Cs7 O24 3.168674 1_555
Cs7 O11 3.169744 1_554
K0 O4 2.668876 1_565
K0 O30 2.673338 1_555
K0 O5 2.685075 1_555
K0 O21 2.720332 1_555
K1 O5 2.668876 1_545
K1 O29 2.673338 1_555
K1 O4 2.685075 1_455
K1 O22 2.720332 1_555
K2 O6 2.668876 1_555
K2 O28 2.673338 1_555
K2 O7 2.685075 1_655
K2 O18 2.720332 1_555
K3 O7 2.668876 1_555
K3 O27 2.673338 1_555
K3 O6 2.685075 1_555
K3 O19 2.720332 1_555
K4 O0 2.668876 1_545
K4 O26 2.673338 1_555
K4 O1 2.685075 1_555
K4 O16 2.720332 1_555
K5 O1 2.668876 1_565
K5 O25 2.673338 1_555
K5 O0 2.685075 1_655
K5 O17 2.720332 1_555
K6 O2 2.668876 1_555
K6 O24 2.673338 1_555
K6 O3 2.685075 1_455
K6 O14 2.720332 1_555
K7 O3 2.668876 1_555
K7 O23 2.673338 1_555
K7 O2 2.685075 1_555
K7 O15 2.720332 1_555
K8 O30 2.682270 1_555
K8 O31 2.684667 1_565
K8 O22 2.707733 1_565
K8 O11 2.743253 1_554
K9 O27 2.682270 1_555
K9 O8 2.684667 1_555
K9 O18 2.707733 1_555
K9 O12 2.743253 1_555
K10 O28 2.682270 1_455
K10 O9 2.684667 1_455
K10 O19 2.707733 1_555
K10 O13 2.743253 1_556
K11 O25 2.682270 1_455
K11 O10 2.684667 1_465
K11 O16 2.707733 1_565
K11 O20 2.743253 1_555
K12 O26 2.682270 1_555
K12 O11 2.684667 1_545
K12 O17 2.707733 1_545
K12 O31 2.743253 1_556
K13 O23 2.682270 1_555
K13 O12 2.684667 1_555
K13 O14 2.707733 1_555
K13 O8 2.743253 1_555
K14 O24 2.682270 1_655
K14 O13 2.684667 1_655
K14 O15 2.707733 1_555
K14 O9 2.743253 1_554
K15 O29 2.702791 1_555
K15 O23 2.708776 1_455
K15 O14 2.763573 1_555
K15 O2 2.774089 1_555
K16 O30 2.702791 1_555
K16 O24 2.708776 1_555
K16 O15 2.763573 1_555
K16 O3 2.774089 1_555
K17 O27 2.702791 1_555
K17 O25 2.708776 1_555
K17 O16 2.763573 1_565
K17 O0 2.774089 1_555
K18 O25 2.702791 1_555
K18 O27 2.708776 1_655
K18 O18 2.763573 1_555
K18 O6 2.774089 1_555
K19 O26 2.702791 1_555
K19 O28 2.708776 1_555
K19 O19 2.763573 1_555
K19 O7 2.774089 1_555
K20 O23 2.702791 1_555
K20 O29 2.708776 1_555
K20 O21 2.763573 1_545
K20 O4 2.774089 1_555
K21 O24 2.702791 1_555
K21 O30 2.708776 1_455
K21 O22 2.763573 1_565
K21 O5 2.774089 1_555
K22 O3 2.701636 1_555
K22 O5 2.800826 1_555
K22 O12 2.813419 1_555
K22 O14 2.957787 1_555
K23 O2 2.701636 1_655
K23 O4 2.800826 1_555
K23 O13 2.813419 1_655
K23 O15 2.957787 1_555
K24 O1 2.701636 1_455
K24 O7 2.800826 1_555
K24 O10 2.813419 1_455
K24 O16 2.957787 1_555
K25 O0 2.701636 1_555
K25 O6 2.800826 1_555
K25 O11 2.813419 1_555
K25 O17 2.957787 1_555
K26 O7 2.701636 1_555
K26 O1 2.800826 1_555
K26 O8 2.813419 1_555
K26 O18 2.957787 1_555
K27 O6 2.701636 1_455
K27 O0 2.800826 1_555
K27 O9 2.813419 1_455
K27 O19 2.957787 1_555
K28 O5 2.701636 1_655
K28 O3 2.800826 1_555
K28 O20 2.813419 1_655
K28 O21 2.957787 1_555
K29 O4 2.701636 1_555
K29 O2 2.800826 1_555
K29 O31 2.813419 1_555
K29 O22 2.957787 1_555
K30 O29 2.682270 1_655
K30 O20 2.684667 1_645
K30 O21 2.707733 1_545
K30 O10 2.743253 1_555
K31 O28 2.702791 1_555
K31 O26 2.708776 1_655
K31 O17 2.763573 1_545
K31 O1 2.774089 1_555
Ga0 O12 1.914729 1_555
Ga0 O14 1.915470 1_655
Ga0 O23 1.922392 1_555
Ga0 O3 1.932712 1_555
Ga1 O13 1.914729 1_555
Ga1 O15 1.915470 1_555
Ga1 O24 1.922392 1_555
Ga1 O2 1.932712 1_555
Ga2 O10 1.914729 1_555
Ga2 O16 1.915470 1_555
Ga2 O25 1.922392 1_545
Ga2 O1 1.932712 1_555
Ga3 O11 1.914729 1_555
Ga3 O17 1.915470 1_455
Ga3 O26 1.922392 1_565
Ga3 O0 1.932712 1_555
Ga4 O8 1.914729 1_555
Ga4 O18 1.915470 1_455
Ga4 O27 1.922392 1_555
Ga4 O7 1.932712 1_555
Ga5 O9 1.914729 1_555
Ga5 O19 1.915470 1_555
Ga5 O28 1.922392 1_555
Ga5 O6 1.932712 1_555
Ga6 O20 1.914729 1_555
Ga6 O21 1.915470 1_555
Ga6 O29 1.922392 1_565
Ga6 O5 1.932712 1_555
Ga7 O31 1.914729 1_555
Ga7 O22 1.915470 1_655
Ga7 O30 1.922392 1_545
Ga7 O4 1.932712 1_555
