# generated using pymatgen
data_Te4Mo3WS4
_symmetry_space_group_name_H-M   'P 1'
_cell_length_a   3.35761262
_cell_length_b   3.35761262
_cell_length_c   38.28142600
_cell_angle_alpha   90.00000000
_cell_angle_beta   90.00000000
_cell_angle_gamma   120.00001215
_symmetry_Int_Tables_number   1
_chemical_formula_structural   Te4Mo3WS4
_chemical_formula_sum   'Te4 Mo3 W1 S4'
_cell_volume   373.74884723
_cell_formula_units_Z   1
loop_
 _symmetry_equiv_pos_site_id
 _symmetry_equiv_pos_as_xyz
  1  'x, y, z'
loop_
 _atom_site_type_symbol
 _atom_site_label
 _atom_site_symmetry_multiplicity
 _atom_site_fract_x
 _atom_site_fract_y
 _atom_site_fract_z
 _atom_site_occupancy
  Te  Te0  1  0.00000000  0.00000000  0.70695700  1
  Te  Te1  1  0.33333300  0.66666700  0.04451100  1
  Te  Te2  1  0.33333300  0.66666700  0.14334200  1
  Te  Te3  1  0.00000000  0.00000000  0.60814500  1
  Mo  Mo0  1  0.00000000  0.00000000  0.09389600  1
  Mo  Mo1  1  0.33333300  0.66666700  0.28179000  1
  Mo  Mo2  1  0.33333300  0.66666700  0.65756900  1
  W  W0  1  0.00000000  0.00000000  0.46965200  1
  S  S0  1  0.00000000  0.00000000  0.32130400  1
  S  S1  1  0.33333300  0.66666700  0.42996700  1
  S  S2  1  0.33333300  0.66666700  0.50933100  1
  S  S3  1  0.00000000  0.00000000  0.24228500  1
loop_
_geom_bond_atom_site_label_1
_geom_bond_atom_site_label_2
_geom_bond_distance
_geom_bond_site_symmetry_2
Mo0 Te1 2.707756 1_545
Mo0 Te1 2.707758 1_555
Mo0 Te1 2.707758 1_445
Mo0 Te2 2.709387 1_545
Mo0 Te2 2.709389 1_555
Mo0 Te2 2.709389 1_445
Mo1 S3 2.458642 1_565
Mo1 S3 2.458644 1_555
Mo1 S3 2.458644 1_665
Mo1 S0 2.458854 1_565
Mo1 S0 2.458856 1_665
Mo1 S0 2.458856 1_555
Mo2 Te0 2.707836 1_565
Mo2 Te0 2.707838 1_665
Mo2 Te0 2.707838 1_555
Mo2 Te3 2.708799 1_565
Mo2 Te3 2.708801 1_665
Mo2 Te3 2.708801 1_555
S1 W0 2.462887 1_565
S1 W0 2.462889 1_665
S1 W0 2.462889 1_555
S2 W0 2.462745 1_565
S2 W0 2.462747 1_665
S2 W0 2.462747 1_555
