# generated using pymatgen
data_YbMgS3
_symmetry_space_group_name_H-M   'P 1'
_cell_length_a   7.71726390
_cell_length_b   7.71726390
_cell_length_c   7.71726393
_cell_angle_alpha   45.64183035
_cell_angle_beta   45.64183035
_cell_angle_gamma   45.64183316
_symmetry_Int_Tables_number   1
_chemical_formula_structural   YbMgS3
_chemical_formula_sum   'Yb2 Mg2 S6'
_cell_volume   214.14233244
_cell_formula_units_Z   2
loop_
 _symmetry_equiv_pos_site_id
 _symmetry_equiv_pos_as_xyz
  1  'x, y, z'
loop_
 _atom_site_type_symbol
 _atom_site_label
 _atom_site_symmetry_multiplicity
 _atom_site_fract_x
 _atom_site_fract_y
 _atom_site_fract_z
 _atom_site_occupancy
  Yb  Yb0  1  0.37062700  0.37062700  0.37062700  1
  Yb  Yb1  1  0.62937300  0.62937300  0.62937300  1
  Mg  Mg0  1  0.16583500  0.16583500  0.16583500  1
  Mg  Mg1  1  0.83416500  0.83416500  0.83416500  1
  S  S0  1  0.06825000  0.58856400  0.11556300  1
  S  S1  1  0.93175000  0.41143600  0.88443700  1
  S  S2  1  0.58856400  0.11556300  0.06825000  1
  S  S3  1  0.41143600  0.88443700  0.93175000  1
  S  S4  1  0.11556300  0.06825000  0.58856400  1
  S  S5  1  0.88443700  0.93175000  0.41143600  1
loop_
_geom_bond_atom_site_label_1
_geom_bond_atom_site_label_2
_geom_bond_distance
_geom_bond_site_symmetry_2
Mg0 S5 2.552301 1_445
Mg0 S1 2.552301 1_454
Mg0 S3 2.552301 1_544
Mg0 S4 2.561993 1_555
Mg0 S2 2.561993 1_555
Mg0 S0 2.561993 1_555
Mg1 S4 2.552301 1_665
Mg1 S0 2.552301 1_656
Mg1 S2 2.552301 1_566
Mg1 S5 2.561993 1_555
Mg1 S3 2.561993 1_555
Mg1 S1 2.561993 1_555
S0 Yb0 2.907638 1_555
S0 Yb1 2.961288 1_455
S0 Yb1 3.234924 1_554
S1 Yb1 2.907638 1_555
S1 Yb0 2.961288 1_655
S1 Yb0 3.234924 1_556
S2 Yb0 2.907638 1_555
S2 Yb1 2.961288 1_554
S2 Yb1 3.234924 1_545
S3 Yb1 2.907638 1_555
S3 Yb0 2.961288 1_556
S3 Yb0 3.234924 1_565
S4 Yb0 2.907638 1_555
S4 Yb1 2.961288 1_545
S4 Yb1 3.234924 1_455
S5 Yb1 2.907638 1_555
S5 Yb0 2.961288 1_565
S5 Yb0 3.234924 1_655
