# generated using pymatgen
data_AuI5N
_symmetry_space_group_name_H-M   'P 1'
_cell_length_a   7.43543900
_cell_length_b   13.53416000
_cell_length_c   21.64387000
_cell_angle_alpha   90.00000000
_cell_angle_beta   90.00000000
_cell_angle_gamma   90.00000000
_symmetry_Int_Tables_number   1
_chemical_formula_structural   AuI5N
_chemical_formula_sum   'Au8 I40 N8'
_cell_volume   2178.07503999
_cell_formula_units_Z   8
loop_
 _symmetry_equiv_pos_site_id
 _symmetry_equiv_pos_as_xyz
  1  'x, y, z'
loop_
 _atom_site_type_symbol
 _atom_site_label
 _atom_site_symmetry_multiplicity
 _atom_site_fract_x
 _atom_site_fract_y
 _atom_site_fract_z
 _atom_site_occupancy
  Au  Au0  1  0.73821800  0.08312300  0.25000000  1
  Au  Au1  1  0.76178200  0.58312300  0.25000000  1
  Au  Au2  1  0.26178200  0.91687700  0.75000000  1
  Au  Au3  1  0.23821800  0.41687700  0.75000000  1
  Au  Au4  1  0.00000000  0.00000000  0.00000000  1
  Au  Au5  1  0.50000000  0.50000000  0.50000000  1
  Au  Au6  1  0.00000000  0.00000000  0.50000000  1
  Au  Au7  1  0.50000000  0.50000000  0.00000000  1
  I  I0  1  0.43948500  0.97806100  0.25000000  1
  I  I1  1  0.06051500  0.47806100  0.25000000  1
  I  I2  1  0.56051500  0.02193900  0.75000000  1
  I  I3  1  0.93948500  0.52193900  0.75000000  1
  I  I4  1  0.73787800  0.08624900  0.12859200  1
  I  I5  1  0.76212200  0.58624900  0.37140800  1
  I  I6  1  0.26212200  0.91375100  0.62859200  1
  I  I7  1  0.23787800  0.41375100  0.87140800  1
  I  I8  1  0.26212200  0.91375100  0.87140800  1
  I  I9  1  0.23787800  0.41375100  0.62859200  1
  I  I10  1  0.73787800  0.08624900  0.37140800  1
  I  I11  1  0.76212200  0.58624900  0.12859200  1
  I  I12  1  0.04121700  0.18553700  0.25000000  1
  I  I13  1  0.45878300  0.68553700  0.25000000  1
  I  I14  1  0.95878300  0.81446300  0.75000000  1
  I  I15  1  0.54121700  0.31446300  0.75000000  1
  I  I16  1  0.29826500  0.06721000  0.05555300  1
  I  I17  1  0.20173500  0.56721000  0.44444700  1
  I  I18  1  0.70173500  0.93279000  0.55555300  1
  I  I19  1  0.79826500  0.43279000  0.94444700  1
  I  I20  1  0.70173500  0.93279000  0.94444700  1
  I  I21  1  0.79826500  0.43279000  0.55555300  1
  I  I22  1  0.29826500  0.06721000  0.44444700  1
  I  I23  1  0.20173500  0.56721000  0.05555300  1
  I  I24  1  0.08832300  0.81329500  0.03448100  1
  I  I25  1  0.41167700  0.31329500  0.46551900  1
  I  I26  1  0.91167700  0.18670500  0.53448100  1
  I  I27  1  0.58832300  0.68670500  0.96551900  1
  I  I28  1  0.91167700  0.18670500  0.96551900  1
  I  I29  1  0.58832300  0.68670500  0.53448100  1
  I  I30  1  0.08832300  0.81329500  0.46551900  1
  I  I31  1  0.41167700  0.31329500  0.03448100  1
  I  I32  1  0.04849500  0.83297800  0.18563500  1
  I  I33  1  0.45150500  0.33297800  0.31436500  1
  I  I34  1  0.95150500  0.16702200  0.68563500  1
  I  I35  1  0.54849500  0.66702200  0.81436500  1
  I  I36  1  0.95150500  0.16702200  0.81436500  1
  I  I37  1  0.54849500  0.66702200  0.68563500  1
  I  I38  1  0.04849500  0.83297800  0.31436500  1
  I  I39  1  0.45150500  0.33297800  0.18563500  1
  N  N0  1  0.52848000  0.83056200  0.11167000  1
  N  N1  1  0.97152000  0.33056200  0.38833000  1
  N  N2  1  0.47152000  0.16943800  0.61167000  1
  N  N3  1  0.02848000  0.66943800  0.88833000  1
  N  N4  1  0.47152000  0.16943800  0.88833000  1
  N  N5  1  0.02848000  0.66943800  0.61167000  1
  N  N6  1  0.52848000  0.83056200  0.38833000  1
  N  N7  1  0.97152000  0.33056200  0.11167000  1
loop_
_geom_bond_atom_site_label_1
_geom_bond_atom_site_label_2
_geom_bond_distance
_geom_bond_site_symmetry_2
Au0 I4 2.628081 1_555
Au0 I10 2.628081 1_555
Au0 I0 2.637357 1_545
Au0 I12 2.645172 1_655
Au1 I11 2.628081 1_555
Au1 I5 2.628081 1_555
Au1 I1 2.637357 1_655
Au1 I13 2.645172 1_555
Au2 I6 2.628081 1_555
Au2 I8 2.628081 1_555
Au2 I2 2.637357 1_565
Au2 I14 2.645172 1_455
Au3 I7 2.628081 1_555
Au3 I9 2.628081 1_555
Au3 I3 2.637357 1_455
Au3 I15 2.645172 1_555
Au4 I20 2.681694 1_444
Au4 I16 2.681694 1_555
Au4 I24 2.715409 1_545
Au4 I28 2.715409 1_454
Au5 I21 2.681694 1_555
Au5 I17 2.681694 1_555
Au5 I25 2.715409 1_555
Au5 I29 2.715409 1_555
Au6 I18 2.681694 1_445
Au6 I22 2.681694 1_555
Au6 I30 2.715409 1_545
Au6 I26 2.715409 1_455
Au7 I19 2.681694 1_554
Au7 I23 2.681694 1_555
Au7 I31 2.715409 1_555
Au7 I27 2.715409 1_554
I24 I32 3.295717 1_555
I25 I33 3.295717 1_555
I26 I34 3.295717 1_555
I27 I35 3.295717 1_555
I28 I36 3.295717 1_555
I29 I37 3.295717 1_555
I30 I38 3.295717 1_555
I31 I39 3.295717 1_555
I32 I38 2.786215 1_555
I33 I39 2.786215 1_555
I34 I36 2.786215 1_555
I35 I37 2.786215 1_555
