# generated using pymatgen
data_Pr4B3O10F
_symmetry_space_group_name_H-M   'P 1'
_cell_length_a   6.65442179
_cell_length_b   8.88133172
_cell_length_c   8.84144620
_cell_angle_alpha   105.82845470
_cell_angle_beta   106.67854712
_cell_angle_gamma   106.38372382
_symmetry_Int_Tables_number   1
_chemical_formula_structural   Pr4B3O10F
_chemical_formula_sum   'Pr8 B6 O20 F2'
_cell_volume   443.23045813
_cell_formula_units_Z   2
loop_
 _symmetry_equiv_pos_site_id
 _symmetry_equiv_pos_as_xyz
  1  'x, y, z'
loop_
 _atom_site_type_symbol
 _atom_site_label
 _atom_site_symmetry_multiplicity
 _atom_site_fract_x
 _atom_site_fract_y
 _atom_site_fract_z
 _atom_site_occupancy
  Pr  Pr0  1  0.66790400  0.83308800  0.19116000  1
  Pr  Pr1  1  0.33209600  0.16691200  0.80884000  1
  Pr  Pr2  1  0.64599600  0.45773000  0.34262000  1
  Pr  Pr3  1  0.35400400  0.54227000  0.65738000  1
  Pr  Pr4  1  0.78549900  0.19702300  0.64090000  1
  Pr  Pr5  1  0.21450100  0.80297700  0.35910000  1
  Pr  Pr6  1  0.00203400  0.23597000  0.14680000  1
  Pr  Pr7  1  0.99796600  0.76403000  0.85320000  1
  B  B0  1  0.25157500  0.49616300  0.01508300  1
  B  B1  1  0.74842500  0.50383700  0.98491700  1
  B  B2  1  0.42719700  0.07173100  0.16622500  1
  B  B3  1  0.57280300  0.92826900  0.83377500  1
  B  B4  1  0.21913500  0.17282800  0.45506900  1
  B  B5  1  0.78086500  0.82717200  0.54493100  1
  O  O0  1  0.70788800  0.86400400  0.92644200  1
  O  O1  1  0.29211200  0.13599600  0.07355800  1
  O  O2  1  0.03624000  0.04297800  0.29393300  1
  O  O3  1  0.96376000  0.95702200  0.70606700  1
  O  O4  1  0.33065100  0.90297300  0.14412100  1
  O  O5  1  0.66934900  0.09702700  0.85587900  1
  O  O6  1  0.37220300  0.09652500  0.53386500  1
  O  O7  1  0.62779700  0.90347500  0.46613500  1
  O  O8  1  0.34403400  0.31961100  0.41818700  1
  O  O9  1  0.65596600  0.68038900  0.58181300  1
  O  O10  1  0.34632500  0.55411400  0.19311000  1
  O  O11  1  0.65367500  0.44588600  0.80689000  1
  O  O12  1  0.09404300  0.32980800  0.92322900  1
  O  O13  1  0.90595700  0.67019200  0.07677100  1
  O  O14  1  0.66000100  0.16422500  0.26531300  1
  O  O15  1  0.33999900  0.83577500  0.73468700  1
  O  O16  1  0.86699000  0.75346800  0.41229200  1
  O  O17  1  0.13301000  0.24653200  0.58770800  1
  O  O18  1  0.32108500  0.60011000  0.93375100  1
  O  O19  1  0.67891500  0.39989000  0.06624900  1
  F  F0  1  0.93213500  0.49361100  0.62542700  1
  F  F1  1  0.06786500  0.50638900  0.37457300  1
loop_
_geom_bond_atom_site_label_1
_geom_bond_atom_site_label_2
_geom_bond_distance
_geom_bond_site_symmetry_2
B0 O18 1.376768 1_554
B0 O12 1.387213 1_554
B0 O10 1.394742 1_555
B1 O19 1.376768 1_556
B1 O13 1.387213 1_556
B1 O11 1.394742 1_555
B2 O4 1.386456 1_545
B2 O1 1.388117 1_555
B2 O14 1.397398 1_555
B3 O5 1.386456 1_565
B3 O0 1.388117 1_555
B3 O15 1.397398 1_555
B4 O2 1.468858 1_555
B4 O6 1.490544 1_555
B4 O8 1.507578 1_555
B4 O17 1.520158 1_555
B5 O3 1.468858 1_555
B5 O7 1.490544 1_555
B5 O9 1.507578 1_555
B5 O16 1.520158 1_555
O0 Pr0 2.508164 1_556
O0 Pr7 2.510877 1_555
O0 Pr3 2.941047 1_555
O0 Pr6 3.031938 1_666
O1 Pr1 2.508164 1_554
O1 Pr6 2.510877 1_555
O1 Pr2 2.941047 1_555
O1 Pr7 3.031938 1_444
O2 Pr0 2.351225 1_445
O2 Pr6 2.438942 1_555
O2 Pr5 2.826052 1_545
O3 Pr1 2.351225 1_665
O3 Pr7 2.438942 1_555
O3 Pr4 2.826052 1_565
O4 Pr0 2.446550 1_555
O4 Pr5 2.525023 1_555
O4 Pr7 2.549235 1_454
O5 Pr1 2.446550 1_555
O5 Pr4 2.525023 1_555
O5 Pr6 2.549235 1_656
O6 Pr5 2.369392 1_545
O6 Pr4 2.432393 1_555
O6 Pr1 2.451556 1_555
O7 Pr4 2.369392 1_565
O7 Pr5 2.432393 1_555
O7 Pr0 2.451556 1_555
O8 Pr2 2.411622 1_555
O8 Pr3 2.439558 1_555
O8 Pr6 2.535349 1_555
O9 Pr3 2.411622 1_555
O9 Pr2 2.439558 1_555
O9 Pr7 2.535349 1_555
O10 Pr2 2.554197 1_555
O10 Pr0 2.787793 1_555
O10 Pr5 2.805656 1_555
O10 Pr6 2.928955 1_555
O11 Pr3 2.554197 1_555
O11 Pr1 2.787793 1_555
O11 Pr4 2.805656 1_555
O11 Pr7 2.928955 1_555
O12 Pr4 2.433849 1_455
O12 Pr6 2.506443 1_556
O12 Pr1 2.653223 1_555
O13 Pr5 2.433849 1_655
O13 Pr7 2.506443 1_554
O13 Pr0 2.653223 1_555
O14 Pr2 2.544109 1_555
O14 Pr6 2.756679 1_655
O14 Pr0 2.852530 1_545
O14 Pr4 3.090760 1_555
O15 Pr3 2.544109 1_555
O15 Pr7 2.756679 1_455
O15 Pr1 2.852530 1_565
O15 Pr5 3.090760 1_555
O16 Pr2 2.420581 1_555
O16 Pr0 2.423547 1_555
O16 Pr5 2.434244 1_655
O17 Pr3 2.420581 1_555
O17 Pr1 2.423547 1_555
O17 Pr4 2.434244 1_455
O18 Pr3 2.443080 1_555
O18 Pr0 2.551374 1_556
O18 Pr7 2.949984 1_455
O19 Pr2 2.443080 1_555
O19 Pr1 2.551374 1_554
O19 Pr6 2.949984 1_655
F0 Pr7 2.505429 1_555
F0 Pr2 2.543500 1_555
F0 Pr4 2.594711 1_555
F0 Pr3 2.634621 1_655
F1 Pr6 2.505429 1_555
F1 Pr3 2.543500 1_555
F1 Pr5 2.594711 1_555
F1 Pr2 2.634621 1_455
