# generated using pymatgen
data_Lu6InCo2
_symmetry_space_group_name_H-M   'P 1'
_cell_length_a   8.15499319
_cell_length_b   8.15501313
_cell_length_c   8.15499678
_cell_angle_alpha   111.17616997
_cell_angle_beta   110.15163789
_cell_angle_gamma   107.11301889
_symmetry_Int_Tables_number   1
_chemical_formula_structural   Lu6InCo2
_chemical_formula_sum   'Lu12 In2 Co4'
_cell_volume   416.93133636
_cell_formula_units_Z   2
loop_
 _symmetry_equiv_pos_site_id
 _symmetry_equiv_pos_as_xyz
  1  'x, y, z'
loop_
 _atom_site_type_symbol
 _atom_site_label
 _atom_site_symmetry_multiplicity
 _atom_site_fract_x
 _atom_site_fract_y
 _atom_site_fract_z
 _atom_site_occupancy
  Lu  Lu0  1  0.44620706  0.23076717  0.21543690  1
  Lu  Lu1  1  0.55379372  0.76923602  0.78455369  1
  Lu  Lu2  1  0.01532165  0.23075737  0.78455900  1
  Lu  Lu3  1  0.98467396  0.76922888  0.21544283  1
  Lu  Lu4  1  0.18750030  0.28982754  0.47732855  1
  Lu  Lu5  1  0.81251420  0.71016836  0.52268581  1
  Lu  Lu6  1  0.18748710  0.71016673  0.89765682  1
  Lu  Lu7  1  0.81250415  0.28982644  0.10233108  1
  Lu  Lu8  1  0.31605826  0.61588644  0.29982842  1
  Lu  Lu9  1  0.68395302  0.38411918  0.70016638  1
  Lu  Lu10  1  0.31604808  0.01621497  0.70016727  1
  Lu  Lu11  1  0.68394414  0.98377223  0.29982680  1
  In  In0  1  0.49999523  0.50000323  0.00000378  1
  In  In1  1  0.00000528  -0.00001109  0.00000887  1
  Co  Co0  1  0.38038884  0.00001150  0.38039359  1
  Co  Co1  1  0.61959787  0.00000369  0.61959943  1
  Co  Co2  1  0.11257656  0.61258274  0.50001253  1
  Co  Co3  1  0.88743058  0.38743460  0.50000024  1
loop_
_geom_bond_atom_site_label_1
_geom_bond_atom_site_label_2
_geom_bond_distance
_geom_bond_site_symmetry_2
In0 Lu8 3.288365 1_555
In0 Lu11 3.288408 1_555
In0 Lu10 3.288552 1_554
In0 Lu9 3.288584 1_554
In0 Lu0 3.294049 1_555
In0 Lu2 3.294086 1_554
In0 Lu3 3.294107 1_555
In0 Lu1 3.294151 1_554
In0 Lu4 3.502457 1_554
In0 Lu6 3.502475 1_554
In0 Lu7 3.502539 1_555
In0 Lu5 3.502548 1_555
In1 Lu3 3.007499 1_445
In1 Lu0 3.007556 1_555
In1 Lu1 3.007597 1_444
In1 Lu2 3.007656 1_554
In1 Lu6 3.193913 1_544
In1 Lu4 3.194000 1_555
In1 Lu5 3.194003 1_444
In1 Lu7 3.194097 1_455
Co0 Co1 2.233597 1_555
Co0 Lu0 2.714944 1_555
Co0 Lu3 2.714975 1_445
Co0 Lu9 2.797774 1_555
Co0 Lu10 2.797813 1_555
Co0 Lu11 2.797855 1_545
Co0 Lu8 2.797883 1_545
Co0 Lu4 3.221807 1_555
Co0 Lu6 3.222021 1_544
Co1 Lu2 2.714984 1_655
Co1 Lu1 2.714989 1_545
Co1 Lu9 2.797758 1_555
Co1 Lu10 2.797764 1_555
Co1 Lu8 2.797765 1_545
Co1 Lu11 2.797775 1_545
Co1 Lu7 3.221956 1_556
Co1 Lu5 3.222084 1_545
Co2 Co3 2.181307 1_455
Co2 Lu10 2.700034 1_565
Co2 Lu8 2.700247 1_555
Co2 Lu6 2.829611 1_555
Co2 Lu5 2.829634 1_455
Co2 Lu4 2.829825 1_555
Co2 Lu7 2.829835 1_455
Co2 Lu1 3.059960 1_555
Co2 Lu3 3.059980 1_455
Co3 Lu9 2.700104 1_555
Co3 Lu11 2.700234 1_545
Co3 Lu5 2.829622 1_555
Co3 Lu6 2.829654 1_655
Co3 Lu7 2.829736 1_555
Co3 Lu4 2.829779 1_655
Co3 Lu0 3.060014 1_555
Co3 Lu2 3.060091 1_655
