# generated using pymatgen
data_K2Os(NO5)2
_symmetry_space_group_name_H-M   'P 1'
_cell_length_a   16.55696300
_cell_length_b   7.23618300
_cell_length_c   8.92216389
_cell_angle_alpha   76.63932678
_cell_angle_beta   90.00000000
_cell_angle_gamma   90.00000000
_symmetry_Int_Tables_number   1
_chemical_formula_structural   K2Os(NO5)2
_chemical_formula_sum   'K8 Os4 N8 O40'
_cell_volume   1040.02580888
_cell_formula_units_Z   4
loop_
 _symmetry_equiv_pos_site_id
 _symmetry_equiv_pos_as_xyz
  1  'x, y, z'
loop_
 _atom_site_type_symbol
 _atom_site_label
 _atom_site_symmetry_multiplicity
 _atom_site_fract_x
 _atom_site_fract_y
 _atom_site_fract_z
 _atom_site_occupancy
  K  K0  1  0.15075700  0.89270700  0.28177400  1
  K  K1  1  0.65075700  0.60729300  0.71822600  1
  K  K2  1  0.84924300  0.10729300  0.71822600  1
  K  K3  1  0.34924300  0.39270700  0.28177400  1
  K  K4  1  0.39729600  0.62199700  0.68646700  1
  K  K5  1  0.89729600  0.87800300  0.31353300  1
  K  K6  1  0.60270400  0.37800300  0.31353300  1
  K  K7  1  0.10270400  0.12199700  0.68646700  1
  Os  Os0  1  0.97545700  0.56379200  0.83012700  1
  Os  Os1  1  0.47545700  0.93620800  0.16987300  1
  Os  Os2  1  0.02454300  0.43620800  0.16987300  1
  Os  Os3  1  0.52454300  0.06379200  0.83012700  1
  N  N0  1  0.04936800  0.64487000  0.61881700  1
  N  N1  1  0.54936800  0.85513000  0.38118300  1
  N  N2  1  0.95063200  0.35513000  0.38118300  1
  N  N3  1  0.45063200  0.14487000  0.61881700  1
  N  N4  1  0.85507200  0.59994500  0.71837900  1
  N  N5  1  0.35507200  0.90005500  0.28162100  1
  N  N6  1  0.14492800  0.40005500  0.28162100  1
  N  N7  1  0.64492800  0.09994500  0.71837900  1
  O  O0  1  0.25467600  0.82001200  0.85344400  1
  O  O1  1  0.75467600  0.67998800  0.14655600  1
  O  O2  1  0.74532400  0.17998800  0.14655600  1
  O  O3  1  0.24532400  0.32001200  0.85344400  1
  O  O4  1  0.19828500  0.88254100  0.93331600  1
  O  O5  1  0.69828500  0.61745900  0.06668400  1
  O  O6  1  0.80171500  0.11745900  0.06668400  1
  O  O7  1  0.30171500  0.38254100  0.93331600  1
  O  O8  1  0.07031600  0.51480800  0.96233500  1
  O  O9  1  0.57031600  0.98519200  0.03766500  1
  O  O10  1  0.92968400  0.48519200  0.03766500  1
  O  O11  1  0.42968400  0.01480800  0.96233500  1
  O  O12  1  0.09169000  0.52293900  0.57953800  1
  O  O13  1  0.59169000  0.97706100  0.42046200  1
  O  O14  1  0.90831000  0.47706100  0.42046200  1
  O  O15  1  0.40831000  0.02293900  0.57953800  1
  O  O16  1  0.05182000  0.81485700  0.54406100  1
  O  O17  1  0.55182000  0.68514300  0.45593900  1
  O  O18  1  0.94818000  0.18514300  0.45593900  1
  O  O19  1  0.44818000  0.31485700  0.54406100  1
  O  O20  1  0.97210500  0.34245000  0.77859900  1
  O  O21  1  0.47210500  0.15755000  0.22140100  1
  O  O22  1  0.02789500  0.65755000  0.22140100  1
  O  O23  1  0.52789500  0.84245000  0.77859900  1
  O  O24  1  0.96713300  0.81144800  0.80812400  1
  O  O25  1  0.46713300  0.68855200  0.19187600  1
  O  O26  1  0.03286700  0.18855200  0.19187600  1
  O  O27  1  0.53286700  0.31144800  0.80812400  1
  O  O28  1  0.80692500  0.46456400  0.75272600  1
  O  O29  1  0.30692500  0.03543600  0.24727400  1
  O  O30  1  0.19307500  0.53543600  0.24727400  1
  O  O31  1  0.69307500  0.96456400  0.75272600  1
  O  O32  1  0.83287800  0.75315000  0.63118600  1
  O  O33  1  0.33287800  0.74685000  0.36881400  1
  O  O34  1  0.16712200  0.24685000  0.36881400  1
  O  O35  1  0.66712200  0.25315000  0.63118600  1
  O  O36  1  0.24479100  0.86238600  0.70197800  1
  O  O37  1  0.74479100  0.63761400  0.29802200  1
  O  O38  1  0.75520900  0.13761400  0.29802200  1
  O  O39  1  0.25520900  0.36238600  0.70197800  1
loop_
_geom_bond_atom_site_label_1
_geom_bond_atom_site_label_2
_geom_bond_distance
_geom_bond_site_symmetry_2
K0 O30 2.763533 1_555
K0 O29 2.774924 1_565
K0 O22 2.783416 1_555
K0 O16 2.804964 1_555
K0 O34 2.857165 1_565
K0 O26 2.871003 1_565
K0 O4 3.224319 1_554
K0 O33 3.229661 1_555
K1 O31 2.763533 1_555
K1 O28 2.774924 1_555
K1 O23 2.783416 1_555
K1 O17 2.804964 1_555
K1 O35 2.857165 1_555
K1 O27 2.871003 1_555
K1 O5 3.224319 1_556
K1 O32 3.229661 1_555
K2 O28 2.763533 1_555
K2 O31 2.774924 1_545
K2 O20 2.783416 1_555
K2 O18 2.804964 1_555
K2 O32 2.857165 1_545
K2 O24 2.871003 1_545
K2 O6 3.224319 1_556
K2 O35 3.229661 1_555
K3 O29 2.763533 1_555
K3 O30 2.774924 1_555
K3 O21 2.783416 1_555
K3 O19 2.804964 1_555
K3 O33 2.857165 1_555
K3 O25 2.871003 1_555
K3 O7 3.224319 1_554
K3 O34 3.229661 1_555
K4 O15 2.842832 1_565
K4 O23 2.915849 1_555
K4 O19 2.927253 1_555
K4 O7 2.931516 1_555
K4 O33 2.966958 1_555
K4 O39 2.993744 1_555
K4 O36 3.087392 1_555
K4 O27 3.184207 1_555
K4 O17 3.248162 1_555
K4 O0 3.291683 1_555
K5 O14 2.842832 1_555
K5 O22 2.915849 1_655
K5 O18 2.927253 1_565
K5 O6 2.931516 1_565
K5 O32 2.966958 1_555
K5 O38 2.993744 1_565
K5 O37 3.087392 1_555
K5 O26 3.184207 1_665
K5 O16 3.248162 1_655
K5 O1 3.291683 1_555
K6 O13 2.842832 1_545
K6 O21 2.915849 1_555
K6 O17 2.927253 1_555
K6 O5 2.931516 1_555
K6 O35 2.966958 1_555
K6 O37 2.993744 1_555
K6 O38 3.087392 1_555
K6 O25 3.184207 1_555
K6 O19 3.248162 1_555
K6 O2 3.291683 1_555
K7 O12 2.842832 1_555
K7 O20 2.915849 1_455
K7 O16 2.927253 1_545
K7 O4 2.931516 1_545
K7 O34 2.966958 1_555
K7 O36 2.993744 1_545
K7 O39 3.087392 1_555
K7 O24 3.184207 1_445
K7 O18 3.248162 1_455
K7 O3 3.291683 1_555
N0 O12 1.239038 1_555
N0 O16 1.257135 1_555
N0 Os0 2.210218 1_455
N1 O13 1.239038 1_555
N1 O17 1.257135 1_555
N1 Os1 2.210218 1_555
N2 O14 1.239038 1_555
N2 O18 1.257135 1_555
N2 Os2 2.210218 1_655
N3 O15 1.239038 1_555
N3 O19 1.257135 1_555
N3 Os3 2.210218 1_555
N4 O28 1.245127 1_555
N4 O32 1.253269 1_555
N4 Os0 2.216947 1_555
N5 O29 1.245127 1_565
N5 O33 1.253269 1_555
N5 Os1 2.216947 1_555
N6 O30 1.245127 1_555
N6 O34 1.253269 1_555
N6 Os2 2.216947 1_555
N7 O31 1.245127 1_545
N7 O35 1.253269 1_555
N7 Os3 2.216947 1_555
O0 O4 1.316557 1_555
O0 O36 1.324988 1_555
O1 O5 1.316557 1_555
O1 O37 1.324988 1_555
O2 O6 1.316557 1_555
O2 O38 1.324988 1_555
O3 O7 1.316557 1_555
O3 O39 1.324988 1_555
O8 Os0 1.946928 1_455
O8 Os2 1.959556 1_556
O9 Os1 1.946928 1_555
O9 Os3 1.959556 1_564
O10 Os2 1.946928 1_655
O10 Os0 1.959556 1_554
O11 Os3 1.946928 1_555
O11 Os1 1.959556 1_546
O20 Os0 1.766382 1_555
O21 Os1 1.766382 1_545
O22 Os2 1.766382 1_555
O23 Os3 1.766382 1_565
O24 Os0 1.762528 1_555
O25 Os1 1.762528 1_555
O26 Os2 1.762528 1_555
O27 Os3 1.762528 1_555
