# generated using pymatgen
data_Mg6FeSi
_symmetry_space_group_name_H-M   'P 1'
_cell_length_a   6.05199132
_cell_length_b   6.05199132
_cell_length_c   4.83464600
_cell_angle_alpha   90.00000000
_cell_angle_beta   90.00000000
_cell_angle_gamma   119.73732288
_symmetry_Int_Tables_number   1
_chemical_formula_structural   Mg6FeSi
_chemical_formula_sum   'Mg6 Fe1 Si1'
_cell_volume   153.75716660
_cell_formula_units_Z   1
loop_
 _symmetry_equiv_pos_site_id
 _symmetry_equiv_pos_as_xyz
  1  'x, y, z'
loop_
 _atom_site_type_symbol
 _atom_site_label
 _atom_site_symmetry_multiplicity
 _atom_site_fract_x
 _atom_site_fract_y
 _atom_site_fract_z
 _atom_site_occupancy
  Mg  Mg0  1  0.66766100  0.83511900  0.00000000  1
  Mg  Mg1  1  0.16488100  0.33233900  0.00000000  1
  Mg  Mg2  1  0.83262700  0.65727700  0.50000000  1
  Mg  Mg3  1  0.34272300  0.16737300  0.50000000  1
  Mg  Mg4  1  0.82661200  0.17338800  0.50000000  1
  Mg  Mg5  1  0.32965200  0.67034800  0.50000000  1
  Fe  Fe0  1  0.66747600  0.33252400  0.00000000  1
  Si  Si0  1  0.16837200  0.83162800  0.00000000  1
loop_
_geom_bond_atom_site_label_1
_geom_bond_atom_site_label_2
_geom_bond_distance
_geom_bond_site_symmetry_2
Mg0 Mg5 2.999795 1_554
Mg0 Mg5 2.999795 1_555
Mg0 Mg4 3.001030 1_565
Mg0 Mg4 3.001030 1_564
Mg0 Mg2 3.010751 1_554
Mg0 Mg2 3.010751 1_555
Mg0 Si0 3.011269 1_555
Mg0 Mg1 3.021111 1_665
Mg0 Si0 3.040834 1_655
Mg0 Mg1 3.054893 1_555
Mg1 Mg5 2.999795 1_555
Mg1 Mg5 2.999795 1_554
Mg1 Mg4 3.001030 1_455
Mg1 Mg4 3.001030 1_454
Mg1 Mg3 3.010751 1_555
Mg1 Mg3 3.010751 1_554
Mg1 Si0 3.011269 1_555
Mg1 Si0 3.040834 1_545
Mg2 Mg4 2.910607 1_555
Mg2 Mg5 2.969547 1_655
Mg2 Mg3 2.976659 1_555
Mg2 Si0 2.993088 1_656
Mg2 Si0 2.993088 1_655
Mg2 Mg5 3.084004 1_555
Mg2 Mg3 3.099345 1_665
Mg2 Mg4 3.141715 1_565
Mg3 Mg4 2.910607 1_555
Mg3 Mg5 2.969547 1_545
Mg3 Si0 2.993088 1_546
Mg3 Si0 2.993088 1_545
Mg3 Mg5 3.084004 1_555
Mg3 Mg4 3.141715 1_455
Mg4 Mg5 3.038169 1_655
Mg4 Mg5 3.038169 1_545
Mg5 Si0 2.948556 1_555
Mg5 Si0 2.948556 1_556
Fe0 Mg4 2.935762 1_554
Fe0 Mg4 2.935762 1_555
Fe0 Mg3 2.959131 1_555
Fe0 Mg3 2.959131 1_554
Fe0 Mg2 2.959131 1_555
Fe0 Mg2 2.959131 1_554
Fe0 Mg0 3.010846 1_545
Fe0 Mg1 3.010846 1_655
Fe0 Si0 3.038016 1_655
Fe0 Si0 3.038016 1_545
Fe0 Mg0 3.041145 1_555
Fe0 Mg1 3.041145 1_555
