# generated using pymatgen
data_Sr2SnN2
_symmetry_space_group_name_H-M   'P 1'
_cell_length_a   3.85446000
_cell_length_b   3.85486500
_cell_length_c   7.41343656
_cell_angle_alpha   105.06956986
_cell_angle_beta   105.06796109
_cell_angle_gamma   90.00000000
_symmetry_Int_Tables_number   1
_chemical_formula_structural   Sr2SnN2
_chemical_formula_sum   'Sr2 Sn1 N2'
_cell_volume   102.43676119
_cell_formula_units_Z   1
loop_
 _symmetry_equiv_pos_site_id
 _symmetry_equiv_pos_as_xyz
  1  'x, y, z'
loop_
 _atom_site_type_symbol
 _atom_site_label
 _atom_site_symmetry_multiplicity
 _atom_site_fract_x
 _atom_site_fract_y
 _atom_site_fract_z
 _atom_site_occupancy
  Sr  Sr0  1  0.83986100  0.83986100  0.17972300  1
  Sr  Sr1  1  0.16013900  0.16013900  0.82027700  1
  Sn  Sn0  1  0.50000000  0.50000000  0.50000000  1
  N  N0  1  0.34753200  0.34753200  0.19506600  1
  N  N1  1  0.65246800  0.65246800  0.80493400  1
loop_
_geom_bond_atom_site_label_1
_geom_bond_atom_site_label_2
_geom_bond_distance
_geom_bond_site_symmetry_2
N0 Sn0 2.102272 1_555
N0 Sr1 2.583866 1_554
N0 Sr0 2.727707 1_445
N0 Sr0 2.727710 1_455
N0 Sr0 2.727710 1_545
N0 Sr0 2.727712 1_555
N1 Sn0 2.102272 1_555
N1 Sr0 2.583866 1_556
N1 Sr1 2.727707 1_665
N1 Sr1 2.727710 1_655
N1 Sr1 2.727710 1_565
N1 Sr1 2.727712 1_555
