# generated using pymatgen
data_Li7Mn4CoO12
_symmetry_space_group_name_H-M   'P 1'
_cell_length_a   5.15846332
_cell_length_b   10.07496900
_cell_length_c   9.74295427
_cell_angle_alpha   63.42367941
_cell_angle_beta   81.87803260
_cell_angle_gamma   100.81958333
_symmetry_Int_Tables_number   1
_chemical_formula_structural   Li7Mn4CoO12
_chemical_formula_sum   'Li14 Mn8 Co2 O24'
_cell_volume   429.92884282
_cell_formula_units_Z   2
loop_
 _symmetry_equiv_pos_site_id
 _symmetry_equiv_pos_as_xyz
  1  'x, y, z'
loop_
 _atom_site_type_symbol
 _atom_site_label
 _atom_site_symmetry_multiplicity
 _atom_site_fract_x
 _atom_site_fract_y
 _atom_site_fract_z
 _atom_site_occupancy
  Li  Li0  1  0.83080500  0.16360000  0.16455400  1
  Li  Li1  1  0.33282000  0.16360400  0.67185400  1
  Li  Li2  1  0.56848000  0.67064600  0.91692500  1
  Li  Li3  1  0.10213900  0.67064300  0.41243000  1
  Li  Li4  1  0.08197500  0.16406900  0.41796700  1
  Li  Li5  1  0.58324500  0.16665500  0.91668500  1
  Li  Li6  1  0.41596100  0.32415700  0.08472600  1
  Li  Li7  1  0.90803000  0.32417000  0.59107300  1
  Li  Li8  1  0.25143600  0.00563500  0.24396300  1
  Li  Li9  1  0.75401100  0.00567200  0.75045000  1
  Li  Li10  1  0.01227800  0.50045000  0.99471500  1
  Li  Li11  1  0.48827100  0.50043800  0.50484000  1
  Li  Li12  1  0.16485100  0.83921200  0.83009500  1
  Li  Li13  1  0.67436500  0.83916900  0.33078600  1
  Mn  Mn0  1  0.66417700  0.32799900  0.33584600  1
  Mn  Mn1  1  0.74841000  0.49681800  0.75152300  1
  Mn  Mn2  1  0.91874400  0.83740200  0.58131600  1
  Mn  Mn3  1  0.00064500  0.00145900  0.99930900  1
  Mn  Mn4  1  0.49879700  0.99762100  0.50116200  1
  Mn  Mn5  1  0.16757800  0.33524900  0.83239800  1
  Mn  Mn6  1  0.24682000  0.49363100  0.25324700  1
  Mn  Mn7  1  0.41773700  0.83569900  0.08216300  1
  Co  Co0  1  0.83468800  0.66906200  0.16545400  1
  Co  Co1  1  0.33357700  0.66714800  0.66640000  1
  O  O0  1  0.47922900  0.16459100  0.30168200  1
  O  O1  1  0.98236600  0.17102100  0.79841300  1
  O  O2  1  0.18851200  0.17103400  0.03061400  1
  O  O3  1  0.68520000  0.16462800  0.53356400  1
  O  O4  1  0.21570800  0.66075200  0.05800900  1
  O  O5  1  0.68950400  0.66704900  0.56116900  1
  O  O6  1  0.97758100  0.66703200  0.77177000  1
  O  O7  1  0.44544400  0.66074900  0.28136700  1
  O  O8  1  0.01823400  0.34197900  0.22026400  1
  O  O9  1  0.52062400  0.34117700  0.72008800  1
  O  O10  1  0.34594800  0.99278000  0.89571900  1
  O  O11  1  0.84605500  0.99416600  0.39543300  1
  O  O12  1  0.82055400  0.34120900  0.93867500  1
  O  O13  1  0.32384400  0.34190700  0.43782900  1
  O  O14  1  0.14823000  0.99418600  0.61039500  1
  O  O15  1  0.64668600  0.99278800  0.11160700  1
  O  O16  1  0.59180700  0.48569800  0.14527600  1
  O  O17  1  0.14417100  0.50104000  0.63280600  1
  O  O18  1  0.81087700  0.84611600  0.95448000  1
  O  O19  1  0.31251400  0.83354300  0.46609500  1
  O  O20  1  0.35689400  0.50101200  0.86615900  1
  O  O21  1  0.89402700  0.48567500  0.36889200  1
  O  O22  1  0.52108800  0.83355900  0.70034000  1
  O  O23  1  0.03507200  0.84609800  0.19947700  1
loop_
_geom_bond_atom_site_label_1
_geom_bond_atom_site_label_2
_geom_bond_distance
_geom_bond_site_symmetry_2
Li0 O2 2.072113 1_655
Li0 O0 2.099590 1_555
Li0 O15 2.109243 1_545
Li0 O12 2.143069 1_554
Li0 O11 2.155165 1_545
Li0 O8 2.197261 1_655
Li1 O1 2.073034 1_455
Li1 O3 2.099555 1_555
Li1 O10 2.109620 1_545
Li1 O9 2.142493 1_555
Li1 O14 2.155023 1_545
Li1 O13 2.196384 1_555
Li2 O4 2.076877 1_556
Li2 O22 2.098558 1_555
Li2 O20 2.136677 1_555
Li2 O18 2.168143 1_555
Li2 O16 2.210603 1_556
Li2 O6 2.384641 1_555
Li3 O7 2.077953 1_555
Li3 O19 2.098600 1_555
Li3 O17 2.136522 1_555
Li3 O23 2.167935 1_555
Li3 O21 2.211364 1_455
Li3 O5 2.384253 1_455
Li4 O11 2.022144 1_445
Li4 O14 2.022535 1_545
Li4 O8 2.083780 1_555
Li4 O13 2.084120 1_555
Li4 O3 2.194612 1_455
Li4 O0 2.194888 1_555
Li5 O10 2.048085 1_545
Li5 O15 2.048509 1_546
Li5 O9 2.058981 1_555
Li5 O12 2.059177 1_555
Li5 O1 2.195204 1_555
Li5 O2 2.195251 1_556
Li6 O2 2.063369 1_555
Li6 O16 2.067782 1_555
Li6 O0 2.123764 1_555
Li6 O20 2.189628 1_554
Li6 O12 2.284235 1_554
Li6 O8 2.360148 1_555
Li7 O1 2.064132 1_555
Li7 O21 2.067706 1_555
Li7 O3 2.124397 1_555
Li7 O17 2.190402 1_655
Li7 O9 2.283536 1_555
Li7 O13 2.361024 1_655
Li8 O23 2.025733 1_545
Li8 O2 2.120694 1_555
Li8 O0 2.132554 1_555
Li8 O19 2.197607 1_545
Li8 O15 2.311323 1_545
Li8 O11 2.334271 1_445
Li9 O18 2.025898 1_545
Li9 O1 2.120496 1_555
Li9 O3 2.133846 1_555
Li9 O22 2.197713 1_545
Li9 O10 2.311287 1_545
Li9 O14 2.335879 1_645
Li10 O20 2.022309 1_555
Li10 O12 2.047155 1_455
Li10 O8 2.068150 1_556
Li10 O4 2.127806 1_556
Li10 O6 2.127827 1_455
Li10 O16 2.379762 1_456
Li11 O17 2.022541 1_555
Li11 O9 2.046703 1_555
Li11 O13 2.068247 1_555
Li11 O7 2.126340 1_555
Li11 O5 2.127801 1_555
Li11 O21 2.380606 1_555
Li12 O14 2.034378 1_555
Li12 O10 2.046112 1_555
Li12 O18 2.074962 1_455
Li12 O22 2.103719 1_555
Li12 O6 2.161792 1_455
Li12 O4 2.236448 1_556
Li13 O11 2.034239 1_555
Li13 O15 2.046402 1_555
Li13 O23 2.074236 1_655
Li13 O19 2.103196 1_555
Li13 O5 2.160796 1_555
Li13 O7 2.235116 1_555
Mn0 O3 1.928926 1_555
Mn0 O0 1.929193 1_555
Mn0 O8 1.950388 1_655
Mn0 O13 1.952706 1_555
Mn0 O16 1.972320 1_555
Mn0 O21 1.972675 1_555
Mn1 O9 1.942425 1_555
Mn1 O12 1.942705 1_555
Mn1 O5 1.995539 1_555
Mn1 O6 1.996195 1_555
Mn1 O17 2.182570 1_655
Mn1 O20 2.182887 1_555
Mn2 O11 1.941600 1_555
Mn2 O14 1.941630 1_655
Mn2 O6 1.996594 1_555
Mn2 O5 1.996911 1_555
Mn2 O22 2.193614 1_555
Mn2 O19 2.193646 1_655
Mn3 O18 1.937979 1_445
Mn3 O23 1.937981 1_546
Mn3 O10 1.956664 1_545
Mn3 O15 1.956702 1_446
Mn3 O1 1.969542 1_455
Mn3 O2 1.969572 1_556
Mn4 O19 1.942819 1_555
Mn4 O22 1.943069 1_555
Mn4 O14 1.950341 1_555
Mn4 O11 1.950707 1_555
Mn4 O3 1.951666 1_565
Mn4 O0 1.952203 1_565
Mn5 O2 1.935344 1_556
Mn5 O1 1.935518 1_455
Mn5 O20 1.954733 1_555
Mn5 O17 1.954946 1_555
Mn5 O12 1.962779 1_455
Mn5 O9 1.963464 1_555
Mn6 O8 1.923050 1_555
Mn6 O13 1.923236 1_555
Mn6 O4 1.949614 1_555
Mn6 O7 1.950418 1_555
Mn6 O21 1.967966 1_455
Mn6 O16 1.969681 1_555
Mn7 O10 1.944029 1_554
Mn7 O15 1.944783 1_555
Mn7 O4 1.999749 1_555
Mn7 O7 2.001513 1_555
Mn7 O23 2.182017 1_555
Mn7 O18 2.182146 1_554
Co0 O23 2.072046 1_655
Co0 O18 2.072428 1_554
Co0 O4 2.127156 1_655
Co0 O7 2.127340 1_555
Co0 O21 2.131435 1_555
Co0 O16 2.132328 1_555
Co1 O17 1.956798 1_555
Co1 O20 1.957253 1_555
Co1 O19 1.957473 1_555
Co1 O22 1.957932 1_555
Co1 O6 1.972737 1_455
Co1 O5 1.972788 1_555
