# generated using pymatgen
data_Cd2InAgS4
_symmetry_space_group_name_H-M   'P 1'
_cell_length_a   7.96226704
_cell_length_b   7.96226704
_cell_length_c   7.27603983
_cell_angle_alpha   63.47946763
_cell_angle_beta   63.47946763
_cell_angle_gamma   30.42178547
_symmetry_Int_Tables_number   1
_chemical_formula_structural   Cd2InAgS4
_chemical_formula_sum   'Cd2 In1 Ag1 S4'
_cell_volume   207.06557094
_cell_formula_units_Z   1
loop_
 _symmetry_equiv_pos_site_id
 _symmetry_equiv_pos_as_xyz
  1  'x, y, z'
loop_
 _atom_site_type_symbol
 _atom_site_label
 _atom_site_symmetry_multiplicity
 _atom_site_fract_x
 _atom_site_fract_y
 _atom_site_fract_z
 _atom_site_occupancy
  Cd  Cd0  1  0.50230000  0.50230000  0.17223600  1
  Cd  Cd1  1  0.99778500  0.99778500  0.65838900  1
  In  In0  1  0.75217000  0.75217000  0.59054200  1
  Ag  Ag0  1  0.24932000  0.24932000  0.07907500  1
  S  S0  1  0.06131900  0.06131900  0.27060800  1
  S  S1  1  0.56559800  0.56559800  0.76878500  1
  S  S2  1  0.81149900  0.81149900  0.85158100  1
  S  S3  1  0.30780300  0.30780300  0.36078400  1
loop_
_geom_bond_atom_site_label_1
_geom_bond_atom_site_label_2
_geom_bond_distance
_geom_bond_site_symmetry_2
Cd0 S0 2.509947 1_655
Cd0 S0 2.509947 1_565
Cd0 S1 2.630766 1_554
Cd0 S3 2.649563 1_555
Cd1 S0 2.522850 1_665
Cd1 S2 2.538980 1_555
Cd1 S1 2.621065 1_565
Cd1 S1 2.621065 1_655
In0 S2 2.457875 1_555
In0 S1 2.541755 1_555
In0 S3 2.562647 1_655
In0 S3 2.562647 1_565
Ag0 S2 2.559961 1_544
Ag0 S2 2.559961 1_454
Ag0 S0 2.561678 1_555
Ag0 S3 2.591094 1_555
