# generated using pymatgen
data_Mo5N4O17
_symmetry_space_group_name_H-M   'P 1'
_cell_length_a   8.90595200
_cell_length_b   10.86145131
_cell_length_c   12.21045337
_cell_angle_alpha   110.74852433
_cell_angle_beta   104.55342539
_cell_angle_gamma   86.06769746
_symmetry_Int_Tables_number   1
_chemical_formula_structural   Mo5N4O17
_chemical_formula_sum   'Mo10 N8 O34'
_cell_volume   1068.81984049
_cell_formula_units_Z   2
loop_
 _symmetry_equiv_pos_site_id
 _symmetry_equiv_pos_as_xyz
  1  'x, y, z'
loop_
 _atom_site_type_symbol
 _atom_site_label
 _atom_site_symmetry_multiplicity
 _atom_site_fract_x
 _atom_site_fract_y
 _atom_site_fract_z
 _atom_site_occupancy
  Mo  Mo0  1  0.87908100  0.15437500  0.26822600  1
  Mo  Mo1  1  0.12091900  0.84562500  0.73177400  1
  Mo  Mo2  1  0.21657400  0.26877100  0.59461200  1
  Mo  Mo3  1  0.78342600  0.73122900  0.40538800  1
  Mo  Mo4  1  0.78648800  0.44841100  0.50418800  1
  Mo  Mo5  1  0.21351200  0.55158900  0.49581200  1
  Mo  Mo6  1  0.09340700  0.54918600  0.79603700  1
  Mo  Mo7  1  0.90659300  0.45081400  0.20396300  1
  Mo  Mo8  1  0.62457800  0.20534800  0.01145200  1
  Mo  Mo9  1  0.37542200  0.79465200  0.98854800  1
  N  N0  1  0.58592400  0.76901900  0.72432900  1
  N  N1  1  0.41407600  0.23098100  0.27567100  1
  N  N2  1  0.10694100  0.21539400  0.93187500  1
  N  N3  1  0.89305900  0.78460600  0.06812500  1
  N  N4  1  0.63199700  0.43462000  0.80441600  1
  N  N5  1  0.36800300  0.56538000  0.19558400  1
  N  N6  1  0.17515900  0.06992800  0.31703600  1
  N  N7  1  0.82484100  0.93007200  0.68296400  1
  O  O0  1  0.78041600  0.32843300  0.35155900  1
  O  O1  1  0.21958400  0.67156700  0.64844100  1
  O  O2  1  0.73800500  0.11070700  0.10693800  1
  O  O3  1  0.26199500  0.88929300  0.89306200  1
  O  O4  1  0.99001100  0.29979200  0.22366700  1
  O  O5  1  0.00998900  0.70020800  0.77633300  1
  O  O6  1  0.11311400  0.16655700  0.39494900  1
  O  O7  1  0.88688600  0.83344300  0.60505100  1
  O  O8  1  0.07578800  0.02990600  0.21711300  1
  O  O9  1  0.92421200  0.97009400  0.78288700  1
  O  O10  1  0.80454200  0.06513200  0.33247100  1
  O  O11  1  0.19545800  0.93486800  0.66752900  1
  O  O12  1  0.97990700  0.45709000  0.60710500  1
  O  O13  1  0.02009300  0.54291000  0.39289500  1
  O  O14  1  0.37773400  0.17602300  0.61159700  1
  O  O15  1  0.62226600  0.82397700  0.38840300  1
  O  O16  1  0.06658000  0.18686800  0.60734200  1
  O  O17  1  0.93342000  0.81313200  0.39265800  1
  O  O18  1  0.73887900  0.60969100  0.49402800  1
  O  O19  1  0.26112100  0.39030900  0.50597200  1
  O  O20  1  0.24705200  0.42124600  0.73954300  1
  O  O21  1  0.75294800  0.57875400  0.26045700  1
  O  O22  1  0.65137200  0.40422000  0.56207300  1
  O  O23  1  0.34862800  0.59578000  0.43792700  1
  O  O24  1  0.24669000  0.63936700  0.94036000  1
  O  O25  1  0.75331000  0.36063300  0.05964000  1
  O  O26  1  0.97081700  0.48172500  0.84743400  1
  O  O27  1  0.02918300  0.51827500  0.15256600  1
  O  O28  1  0.65252500  0.32386500  0.78602500  1
  O  O29  1  0.34747500  0.67613500  0.21397500  1
  O  O30  1  0.44620900  0.24911700  0.04267700  1
  O  O31  1  0.55379100  0.75088300  0.95732300  1
  O  O32  1  0.59495200  0.10960400  0.86138300  1
  O  O33  1  0.40504800  0.89039600  0.13861700  1
loop_
_geom_bond_atom_site_label_1
_geom_bond_atom_site_label_2
_geom_bond_distance
_geom_bond_site_symmetry_2
Mo0 O10 1.698337 1_555
Mo0 O2 1.964291 1_555
Mo0 O0 2.059149 1_555
Mo0 O4 2.204476 1_555
Mo0 O8 2.216538 1_655
Mo0 O6 2.242313 1_655
Mo1 O11 1.698337 1_555
Mo1 O3 1.964291 1_555
Mo1 O1 2.059149 1_555
Mo1 O5 2.204476 1_555
Mo1 O9 2.216538 1_455
Mo1 O7 2.242313 1_455
Mo2 O14 1.708210 1_555
Mo2 O16 1.722006 1_555
Mo2 O20 1.921404 1_555
Mo2 O19 2.090793 1_555
Mo2 O6 2.262491 1_555
Mo3 O15 1.708210 1_555
Mo3 O17 1.722006 1_555
Mo3 O21 1.921404 1_555
Mo3 O18 2.090793 1_555
Mo3 O7 2.262491 1_555
Mo4 O22 1.710262 1_555
Mo4 O18 1.813674 1_555
Mo4 O12 1.845482 1_555
Mo4 O0 1.847325 1_555
Mo5 O23 1.710262 1_555
Mo5 O19 1.813674 1_555
Mo5 O13 1.845482 1_555
Mo5 O1 1.847325 1_555
Mo6 O26 1.703705 1_455
Mo6 O5 1.822940 1_555
Mo6 O24 1.918301 1_555
Mo6 O20 1.952860 1_555
Mo6 O12 2.162421 1_455
Mo7 O27 1.703705 1_655
Mo7 O4 1.822940 1_555
Mo7 O25 1.918301 1_555
Mo7 O21 1.952860 1_555
Mo7 O13 2.162421 1_655
Mo8 O32 1.718510 1_554
Mo8 O30 1.722565 1_555
Mo8 O2 1.884500 1_555
Mo8 O25 1.930896 1_555
Mo9 O33 1.718510 1_556
Mo9 O31 1.722565 1_555
Mo9 O3 1.884500 1_555
Mo9 O24 1.930896 1_555
N4 O28 1.153269 1_555
N5 O29 1.153269 1_555
N6 O8 1.262990 1_555
N6 O6 1.337580 1_555
N7 O9 1.262990 1_555
N7 O7 1.337580 1_555
