# generated using pymatgen
data_Ag2TeO6
_symmetry_space_group_name_H-M   'P 1'
_cell_length_a   6.31404122
_cell_length_b   6.31404122
_cell_length_c   8.91021632
_cell_angle_alpha   99.27201552
_cell_angle_beta   99.27201552
_cell_angle_gamma   123.04229121
_symmetry_Int_Tables_number   1
_chemical_formula_structural   Ag2TeO6
_chemical_formula_sum   'Ag4 Te2 O12'
_cell_volume   280.25924041
_cell_formula_units_Z   2
loop_
 _symmetry_equiv_pos_site_id
 _symmetry_equiv_pos_as_xyz
  1  'x, y, z'
loop_
 _atom_site_type_symbol
 _atom_site_label
 _atom_site_symmetry_multiplicity
 _atom_site_fract_x
 _atom_site_fract_y
 _atom_site_fract_z
 _atom_site_occupancy
  Ag  Ag0  1  0.73978900  0.16958900  0.33617300  1
  Ag  Ag1  1  0.83041100  0.26021100  0.66382700  1
  Ag  Ag2  1  0.65361600  0.58341600  0.16382700  1
  Ag  Ag3  1  0.41658400  0.34638400  0.83617300  1
  Te  Te0  1  0.23937200  0.76062800  0.50000000  1
  Te  Te1  1  0.98937200  0.01062800  0.00000000  1
  O  O0  1  0.14055100  0.40701600  0.39595100  1
  O  O1  1  0.59298400  0.85944900  0.60404900  1
  O  O2  1  0.99460000  0.76106500  0.10404900  1
  O  O3  1  0.23893500  0.00540000  0.89595100  1
  O  O4  1  0.86703600  0.61415900  0.40081600  1
  O  O5  1  0.38584100  0.13296400  0.59918400  1
  O  O6  1  0.71622100  0.96334300  0.09918400  1
  O  O7  1  0.03665700  0.28377900  0.90081600  1
  O  O8  1  0.36526200  0.85764700  0.31723400  1
  O  O9  1  0.14235300  0.63473800  0.68276600  1
  O  O10  1  0.29802800  0.29041300  0.18276600  1
  O  O11  1  0.70958700  0.70197200  0.81723400  1
loop_
_geom_bond_atom_site_label_1
_geom_bond_atom_site_label_2
_geom_bond_distance
_geom_bond_site_symmetry_2
Ag0 O0 2.026258 1_655
Ag0 O8 2.045737 1_545
Ag0 O6 2.231195 1_545
Ag0 O4 2.393147 1_555
Ag1 O1 2.026258 1_545
Ag1 O9 2.045737 1_655
Ag1 O7 2.231195 1_655
Ag1 O5 2.393147 1_555
Ag2 O2 2.026258 1_555
Ag2 O10 2.045737 1_555
Ag2 O4 2.231193 1_555
Ag2 O6 2.393145 1_555
Ag3 O3 2.026258 1_555
Ag3 O11 2.045737 1_555
Ag3 O5 2.231193 1_555
Ag3 O7 2.393145 1_555
O0 Te0 1.964997 1_555
O1 Te0 1.964997 1_555
O2 Te1 1.964997 1_565
O3 Te1 1.964997 1_456
O4 Te0 1.964529 1_655
O5 Te0 1.964529 1_545
O6 Te1 1.964524 1_565
O7 Te1 1.964524 1_456
O8 Te0 1.966376 1_555
O9 Te0 1.966376 1_555
O10 Te1 1.966376 1_455
O11 Te1 1.966376 1_566
