# generated using pymatgen
data_Gd2NiRuO6
_symmetry_space_group_name_H-M   'P 1'
_cell_length_a   5.36553468
_cell_length_b   5.73874500
_cell_length_c   7.71885378
_cell_angle_alpha   90.00000000
_cell_angle_beta   89.63254851
_cell_angle_gamma   90.00000000
_symmetry_Int_Tables_number   1
_chemical_formula_structural   Gd2NiRuO6
_chemical_formula_sum   'Gd4 Ni2 Ru2 O12'
_cell_volume   237.66969904
_cell_formula_units_Z   2
loop_
 _symmetry_equiv_pos_site_id
 _symmetry_equiv_pos_as_xyz
  1  'x, y, z'
loop_
 _atom_site_type_symbol
 _atom_site_label
 _atom_site_symmetry_multiplicity
 _atom_site_fract_x
 _atom_site_fract_y
 _atom_site_fract_z
 _atom_site_occupancy
  Gd  Gd0  1  0.02204300  0.42866300  0.25294700  1
  Gd  Gd1  1  0.97795700  0.57133700  0.74705300  1
  Gd  Gd2  1  0.47795700  0.92866300  0.24705300  1
  Gd  Gd3  1  0.52204300  0.07133700  0.75294700  1
  Ni  Ni0  1  0.00000000  0.00000000  0.50000000  1
  Ni  Ni1  1  0.50000000  0.50000000  0.00000000  1
  Ru  Ru0  1  0.00000000  0.00000000  0.00000000  1
  Ru  Ru1  1  0.50000000  0.50000000  0.50000000  1
  O  O0  1  0.88324200  0.04460900  0.24729400  1
  O  O1  1  0.11675800  0.95539100  0.75270600  1
  O  O2  1  0.61675800  0.54460900  0.25270600  1
  O  O3  1  0.38324200  0.45539100  0.74729400  1
  O  O4  1  0.18532600  0.70338100  0.06334200  1
  O  O5  1  0.81467400  0.29661900  0.93665800  1
  O  O6  1  0.31467400  0.20338100  0.43665800  1
  O  O7  1  0.68532600  0.79661900  0.56334200  1
  O  O8  1  0.30811200  0.19192900  0.05341300  1
  O  O9  1  0.69188800  0.80807100  0.94658700  1
  O  O10  1  0.19188800  0.69192900  0.44658700  1
  O  O11  1  0.80811200  0.30807100  0.55341300  1
loop_
_geom_bond_atom_site_label_1
_geom_bond_atom_site_label_2
_geom_bond_distance
_geom_bond_site_symmetry_2
Gd0 O2 2.274104 1_455
Gd0 O10 2.316158 1_555
Gd0 O4 2.319160 1_555
Gd0 O0 2.326913 1_455
Gd0 O6 2.485176 1_555
Gd0 O8 2.558016 1_555
Gd0 O11 2.672319 1_455
Gd0 O5 2.794174 1_454
Gd1 O3 2.274104 1_655
Gd1 O11 2.316158 1_555
Gd1 O5 2.319160 1_555
Gd1 O1 2.326913 1_655
Gd1 O7 2.485176 1_555
Gd1 O9 2.558016 1_555
Gd1 O10 2.672319 1_655
Gd1 O4 2.794174 1_656
Gd2 O0 2.274104 1_565
Gd2 O8 2.316158 1_565
Gd2 O6 2.319160 1_565
Gd2 O2 2.326913 1_555
Gd2 O4 2.485176 1_555
Gd2 O10 2.558016 1_555
Gd2 O9 2.672319 1_554
Gd2 O7 2.794174 1_555
Gd3 O1 2.274104 1_545
Gd3 O9 2.316158 1_545
Gd3 O7 2.319160 1_545
Gd3 O3 2.326913 1_555
Gd3 O5 2.485176 1_555
Gd3 O11 2.558016 1_555
Gd3 O8 2.672319 1_556
Gd3 O6 2.794174 1_555
Ni0 O1 2.068457 1_545
Ni0 O0 2.068457 1_455
Ni0 O11 2.085711 1_455
Ni0 O10 2.085711 1_545
Ni0 O6 2.107458 1_555
Ni0 O7 2.107458 1_445
Ni1 O2 2.068457 1_555
Ni1 O3 2.068457 1_554
Ni1 O8 2.085711 1_555
Ni1 O9 2.085711 1_554
Ni1 O4 2.107458 1_555
Ni1 O5 2.107458 1_554
O0 Ru0 2.021455 1_655
O1 Ru0 2.021455 1_566
O2 Ru1 2.021455 1_555
O3 Ru1 2.021455 1_555
O4 Ru0 2.032639 1_565
O5 Ru0 2.032639 1_656
O6 Ru1 2.032639 1_555
O7 Ru1 2.032639 1_555
O8 Ru0 2.030984 1_555
O9 Ru0 2.030984 1_666
O10 Ru1 2.030984 1_555
O11 Ru1 2.030984 1_555
