# generated using pymatgen
data_NaSm3SiS7
_symmetry_space_group_name_H-M   'P 1'
_cell_length_a   10.19147453
_cell_length_b   10.19147453
_cell_length_c   5.75021600
_cell_angle_alpha   90.00000000
_cell_angle_beta   90.00000000
_cell_angle_gamma   120.00000345
_symmetry_Int_Tables_number   1
_chemical_formula_structural   NaSm3SiS7
_chemical_formula_sum   'Na2 Sm6 Si2 S14'
_cell_volume   517.23609279
_cell_formula_units_Z   2
loop_
 _symmetry_equiv_pos_site_id
 _symmetry_equiv_pos_as_xyz
  1  'x, y, z'
loop_
 _atom_site_type_symbol
 _atom_site_label
 _atom_site_symmetry_multiplicity
 _atom_site_fract_x
 _atom_site_fract_y
 _atom_site_fract_z
 _atom_site_occupancy
  Na  Na0  1  0.00000000  0.00000000  0.02079800  1
  Na  Na1  1  0.00000000  0.00000000  0.52079800  1
  Sm  Sm0  1  0.12561700  0.76471900  0.75133300  1
  Sm  Sm1  1  0.36089700  0.12561700  0.25133300  1
  Sm  Sm2  1  0.23528100  0.36089700  0.75133300  1
  Sm  Sm3  1  0.63910300  0.87438300  0.75133300  1
  Sm  Sm4  1  0.76471900  0.63910300  0.25133300  1
  Sm  Sm5  1  0.87438300  0.23528100  0.25133300  1
  Si  Si0  1  0.66666700  0.33333300  0.66305600  1
  Si  Si1  1  0.33333300  0.66666700  0.16305600  1
  S  S0  1  0.09020600  0.83045600  0.27240900  1
  S  S1  1  0.74025000  0.90979400  0.27240900  1
  S  S2  1  0.83045600  0.74025000  0.77240900  1
  S  S3  1  0.90979400  0.16954400  0.77240900  1
  S  S4  1  0.52232000  0.40945000  0.51527700  1
  S  S5  1  0.16954400  0.25975000  0.27240900  1
  S  S6  1  0.33333300  0.66666700  0.53089000  1
  S  S7  1  0.66666700  0.33333300  0.03089000  1
  S  S8  1  0.40945000  0.88713100  0.01527700  1
  S  S9  1  0.11286900  0.52232000  0.01527700  1
  S  S10  1  0.47768000  0.59055000  0.01527700  1
  S  S11  1  0.59055000  0.11286900  0.51527700  1
  S  S12  1  0.88713100  0.47768000  0.51527700  1
  S  S13  1  0.25975000  0.09020600  0.77240900  1
loop_
_geom_bond_atom_site_label_1
_geom_bond_atom_site_label_2
_geom_bond_distance
_geom_bond_site_symmetry_2
Na0 S2 2.731181 1_444
Na0 S13 2.731181 1_554
Na0 S3 2.731181 1_454
Na0 S5 2.740916 1_555
Na0 S1 2.740916 1_445
Na0 S0 2.740916 1_545
Na1 S5 2.731181 1_555
Na1 S1 2.731181 1_445
Na1 S0 2.731181 1_545
Na1 S2 2.740916 1_445
Na1 S13 2.740916 1_555
Na1 S3 2.740916 1_455
S0 Sm4 2.890074 1_455
S0 Sm1 2.894049 1_565
S0 Sm0 2.899124 1_555
S0 Sm0 3.130284 1_554
S1 Sm5 2.890075 1_565
S1 Sm4 2.894043 1_555
S1 Sm3 2.899121 1_555
S1 Sm3 3.130281 1_554
S2 Sm3 2.890066 1_555
S2 Sm0 2.894053 1_655
S2 Sm4 2.899122 1_556
S2 Sm4 3.130281 1_555
S3 Sm2 2.890074 1_655
S3 Sm3 2.894049 1_545
S3 Sm5 2.899124 1_556
S3 Sm5 3.130284 1_555
S4 Si0 2.151567 1_555
S4 Sm4 2.846468 1_555
S4 Sm1 2.935766 1_555
S4 Sm2 3.032730 1_555
S5 Sm1 2.890066 1_555
S5 Sm5 2.894053 1_455
S5 Sm2 2.899122 1_555
S5 Sm2 3.130281 1_554
S6 Si1 2.115125 1_555
S6 Sm0 3.033517 1_555
S6 Sm3 3.033531 1_555
S6 Sm2 3.033535 1_555
S7 Si0 2.115125 1_554
S7 Sm5 3.033517 1_555
S7 Sm1 3.033531 1_555
S7 Sm4 3.033535 1_555
S8 Si1 2.151567 1_555
S8 Sm3 2.846477 1_554
S8 Sm0 2.935765 1_554
S8 Sm1 3.032730 1_565
S9 Si1 2.151567 1_555
S9 Sm0 2.846460 1_554
S9 Sm2 2.935781 1_554
S9 Sm5 3.032730 1_455
S10 Si1 2.151567 1_555
S10 Sm2 2.846468 1_554
S10 Sm3 2.935766 1_554
S10 Sm4 3.032730 1_555
S11 Si0 2.151567 1_555
S11 Sm1 2.846477 1_555
S11 Sm5 2.935765 1_555
S11 Sm3 3.032730 1_545
S12 Si0 2.151567 1_555
S12 Sm5 2.846460 1_555
S12 Sm4 2.935781 1_555
S12 Sm0 3.032730 1_655
S13 Sm0 2.890075 1_545
S13 Sm2 2.894043 1_555
S13 Sm1 2.899121 1_556
S13 Sm1 3.130281 1_555
