# generated using pymatgen
data_LiCo3NiO8
_symmetry_space_group_name_H-M   'P 1'
_cell_length_a   5.67796409
_cell_length_b   5.67796409
_cell_length_c   5.91259561
_cell_angle_alpha   61.75503496
_cell_angle_beta   61.75503496
_cell_angle_gamma   60.63946711
_symmetry_Int_Tables_number   1
_chemical_formula_structural   LiCo3NiO8
_chemical_formula_sum   'Li1 Co3 Ni1 O8'
_cell_volume   138.94207564
_cell_formula_units_Z   1
loop_
 _symmetry_equiv_pos_site_id
 _symmetry_equiv_pos_as_xyz
  1  'x, y, z'
loop_
 _atom_site_type_symbol
 _atom_site_label
 _atom_site_symmetry_multiplicity
 _atom_site_fract_x
 _atom_site_fract_y
 _atom_site_fract_z
 _atom_site_occupancy
  Li  Li0  1  0.00000000  0.00000000  0.50000000  1
  Co  Co0  1  0.00000000  0.50000000  0.00000000  1
  Co  Co1  1  0.50000000  0.50000000  0.00000000  1
  Co  Co2  1  0.50000000  0.00000000  0.00000000  1
  Ni  Ni0  1  0.00000000  0.00000000  0.00000000  1
  O  O0  1  0.21372700  0.74333000  0.79893800  1
  O  O1  1  0.22813700  0.22813700  0.80884500  1
  O  O2  1  0.74333000  0.21372700  0.79893800  1
  O  O3  1  0.74053500  0.74053500  0.79829900  1
  O  O4  1  0.25946500  0.25946500  0.20170100  1
  O  O5  1  0.25667000  0.78627300  0.20106200  1
  O  O6  1  0.77186300  0.77186300  0.19115500  1
  O  O7  1  0.78627300  0.25667000  0.20106200  1
loop_
_geom_bond_atom_site_label_1
_geom_bond_atom_site_label_2
_geom_bond_distance
_geom_bond_site_symmetry_2
Li0 O0 2.139734 1_545
Li0 O2 2.139734 1_455
Li0 O7 2.139734 1_455
Li0 O5 2.139734 1_545
Li0 O4 2.158988 1_555
Li0 O3 2.158988 1_445
Co0 O0 1.875871 1_554
Co0 O7 1.875871 1_455
Co0 O4 1.899000 1_555
Co0 O3 1.899000 1_454
Co0 O6 1.908652 1_455
Co0 O1 1.908652 1_554
Co1 O3 1.974509 1_554
Co1 O4 1.974509 1_555
Co1 O7 2.009066 1_555
Co1 O5 2.009066 1_555
Co1 O2 2.009066 1_554
Co1 O0 2.009066 1_554
Co2 O5 1.875871 1_545
Co2 O2 1.875871 1_554
Co2 O4 1.899000 1_555
Co2 O3 1.899000 1_544
Co2 O6 1.908652 1_545
Co2 O1 1.908652 1_554
Ni0 O1 1.872781 1_554
Ni0 O6 1.872781 1_445
Ni0 O5 1.884119 1_545
Ni0 O7 1.884119 1_455
Ni0 O2 1.884119 1_454
Ni0 O0 1.884119 1_544
