# generated using pymatgen
data_LiMnH2OF4
_symmetry_space_group_name_H-M   'P 1'
_cell_length_a   5.43371100
_cell_length_b   5.51544700
_cell_length_c   12.49103600
_cell_angle_alpha   90.00000000
_cell_angle_beta   90.00000000
_cell_angle_gamma   90.00000000
_symmetry_Int_Tables_number   1
_chemical_formula_structural   LiMnH2OF4
_chemical_formula_sum   'Li4 Mn4 H8 O4 F16'
_cell_volume   374.34816771
_cell_formula_units_Z   4
loop_
 _symmetry_equiv_pos_site_id
 _symmetry_equiv_pos_as_xyz
  1  'x, y, z'
loop_
 _atom_site_type_symbol
 _atom_site_label
 _atom_site_symmetry_multiplicity
 _atom_site_fract_x
 _atom_site_fract_y
 _atom_site_fract_z
 _atom_site_occupancy
  Li  Li0  1  0.71786000  0.26548300  0.75000000  1
  Li  Li1  1  0.21786000  0.23451700  0.75000000  1
  Li  Li2  1  0.28214000  0.73451700  0.25000000  1
  Li  Li3  1  0.78214000  0.76548300  0.25000000  1
  Mn  Mn0  1  0.50000000  0.00000000  0.50000000  1
  Mn  Mn1  1  0.00000000  0.50000000  0.00000000  1
  Mn  Mn2  1  0.50000000  0.00000000  0.00000000  1
  Mn  Mn3  1  0.00000000  0.50000000  0.50000000  1
  H  H0  1  0.91486000  0.86824200  0.81309600  1
  H  H1  1  0.41486000  0.63175800  0.68690400  1
  H  H2  1  0.08514000  0.13175800  0.31309600  1
  H  H3  1  0.58514000  0.36824200  0.18690400  1
  H  H4  1  0.08514000  0.13175800  0.18690400  1
  H  H5  1  0.58514000  0.36824200  0.31309600  1
  H  H6  1  0.91486000  0.86824200  0.68690400  1
  H  H7  1  0.41486000  0.63175800  0.81309600  1
  O  O0  1  0.96048000  0.96313100  0.75000000  1
  O  O1  1  0.46048000  0.53686900  0.75000000  1
  O  O2  1  0.03952000  0.03686900  0.25000000  1
  O  O3  1  0.53952000  0.46313100  0.25000000  1
  F  F0  1  0.78124100  0.81568500  0.54253800  1
  F  F1  1  0.28124100  0.68431500  0.95746200  1
  F  F2  1  0.21875900  0.18431500  0.04253800  1
  F  F3  1  0.71875900  0.31568500  0.45746200  1
  F  F4  1  0.21875900  0.18431500  0.45746200  1
  F  F5  1  0.71875900  0.31568500  0.04253800  1
  F  F6  1  0.78124100  0.81568500  0.95746200  1
  F  F7  1  0.28124100  0.68431500  0.54253800  1
  F  F8  1  0.46764600  0.10635300  0.64120800  1
  F  F9  1  0.96764600  0.39364700  0.85879200  1
  F  F10  1  0.53235400  0.89364700  0.14120800  1
  F  F11  1  0.03235400  0.60635300  0.35879200  1
  F  F12  1  0.53235400  0.89364700  0.35879200  1
  F  F13  1  0.03235400  0.60635300  0.14120800  1
  F  F14  1  0.46764600  0.10635300  0.85879200  1
  F  F15  1  0.96764600  0.39364700  0.64120800  1
loop_
_geom_bond_atom_site_label_1
_geom_bond_atom_site_label_2
_geom_bond_distance
_geom_bond_site_symmetry_2
Li0 O1 2.048496 1_555
Li0 O0 2.125770 1_545
Li1 O0 2.048496 1_445
Li1 O1 2.125770 1_555
Li2 O3 2.048496 1_555
Li2 O2 2.125770 1_565
Li3 O2 2.048496 1_665
Li3 O3 2.125770 1_555
H0 O0 0.978010 1_555
H1 O1 0.978010 1_555
H2 O2 0.978010 1_555
H3 O3 0.978010 1_555
H4 O2 0.978010 1_555
H5 O3 0.978010 1_555
H6 O0 0.978010 1_555
H7 O1 0.978010 1_555
F0 Mn0 1.910786 1_565
F0 Mn3 2.174132 1_655
F1 Mn1 1.910786 1_556
F1 Mn2 2.174132 1_566
F2 Mn2 1.910786 1_555
F2 Mn1 2.174132 1_555
F3 Mn3 1.910786 1_655
F3 Mn0 2.174132 1_555
F4 Mn0 1.910786 1_555
F4 Mn3 2.174132 1_555
F5 Mn1 1.910786 1_655
F5 Mn2 2.174132 1_555
F6 Mn2 1.910786 1_566
F6 Mn1 2.174132 1_656
F7 Mn3 1.910786 1_555
F7 Mn0 2.174132 1_565
F8 Mn0 1.867110 1_555
F8 Li1 2.046589 1_555
F8 Li0 2.113167 1_555
F9 Mn1 1.867110 1_656
F9 Li0 2.046589 1_555
F9 Li1 2.113167 1_655
F10 Mn2 1.867110 1_565
F10 Li3 2.046589 1_555
F10 Li2 2.113167 1_555
F11 Mn3 1.867110 1_555
F11 Li2 2.046589 1_555
F11 Li3 2.113167 1_455
F12 Mn0 1.867110 1_565
F12 Li3 2.046589 1_555
F12 Li2 2.113167 1_555
F13 Mn1 1.867110 1_555
F13 Li2 2.046589 1_555
F13 Li3 2.113167 1_455
F14 Mn2 1.867110 1_556
F14 Li1 2.046589 1_555
F14 Li0 2.113167 1_555
F15 Mn3 1.867110 1_655
F15 Li0 2.046589 1_555
F15 Li1 2.113167 1_655
