# generated using pymatgen
data_MgSb2
_symmetry_space_group_name_H-M   'P 1'
_cell_length_a   12.99012117
_cell_length_b   12.99012117
_cell_length_c   16.46030146
_cell_angle_alpha   79.49279711
_cell_angle_beta   79.49279711
_cell_angle_gamma   28.72173852
_symmetry_Int_Tables_number   1
_chemical_formula_structural   MgSb2
_chemical_formula_sum   'Mg16 Sb32'
_cell_volume   1310.91411052
_cell_formula_units_Z   16
loop_
 _symmetry_equiv_pos_site_id
 _symmetry_equiv_pos_as_xyz
  1  'x, y, z'
loop_
 _atom_site_type_symbol
 _atom_site_label
 _atom_site_symmetry_multiplicity
 _atom_site_fract_x
 _atom_site_fract_y
 _atom_site_fract_z
 _atom_site_occupancy
  Mg  Mg0_0  1  0.31611350  0.31611350  0.00344450  1
  Mg  Mg0_1  1  0.31611350  0.31611350  0.50344450  1
  Mg  Mg0_2  1  0.31611350  0.81611350  0.00344450  1
  Mg  Mg0_3  1  0.31611350  0.81611350  0.50344450  1
  Mg  Mg0_4  1  0.81611350  0.31611350  0.00344450  1
  Mg  Mg0_5  1  0.81611350  0.31611350  0.50344450  1
  Mg  Mg0_6  1  0.81611350  0.81611350  0.00344450  1
  Mg  Mg0_7  1  0.81611350  0.81611350  0.50344450  1
  Mg  Mg1_0  1  0.18388650  0.18388650  0.49655550  1
  Mg  Mg1_1  1  0.18388650  0.18388650  0.99655550  1
  Mg  Mg1_2  1  0.18388650  0.68388650  0.49655550  1
  Mg  Mg1_3  1  0.18388650  0.68388650  0.99655550  1
  Mg  Mg1_4  1  0.68388650  0.18388650  0.49655550  1
  Mg  Mg1_5  1  0.68388650  0.18388650  0.99655550  1
  Mg  Mg1_6  1  0.68388650  0.68388650  0.49655550  1
  Mg  Mg1_7  1  0.68388650  0.68388650  0.99655550  1
  Sb  Sb0_0  1  0.11920350  0.11920350  0.35524600  1
  Sb  Sb0_1  1  0.11920350  0.11920350  0.85524600  1
  Sb  Sb0_2  1  0.11920350  0.61920350  0.35524600  1
  Sb  Sb0_3  1  0.11920350  0.61920350  0.85524600  1
  Sb  Sb0_4  1  0.61920350  0.11920350  0.35524600  1
  Sb  Sb0_5  1  0.61920350  0.11920350  0.85524600  1
  Sb  Sb0_6  1  0.61920350  0.61920350  0.35524600  1
  Sb  Sb0_7  1  0.61920350  0.61920350  0.85524600  1
  Sb  Sb1_0  1  0.00065100  0.00065100  0.35461900  1
  Sb  Sb1_1  1  0.00065100  0.00065100  0.85461900  1
  Sb  Sb1_2  1  0.00065100  0.50065100  0.35461900  1
  Sb  Sb1_3  1  0.00065100  0.50065100  0.85461900  1
  Sb  Sb1_4  1  0.50065100  0.00065100  0.35461900  1
  Sb  Sb1_5  1  0.50065100  0.00065100  0.85461900  1
  Sb  Sb1_6  1  0.50065100  0.50065100  0.35461900  1
  Sb  Sb1_7  1  0.50065100  0.50065100  0.85461900  1
  Sb  Sb2_0  1  0.49934900  0.49934900  0.14538100  1
  Sb  Sb2_1  1  0.49934900  0.49934900  0.64538100  1
  Sb  Sb2_2  1  0.49934900  0.99934900  0.14538100  1
  Sb  Sb2_3  1  0.49934900  0.99934900  0.64538100  1
  Sb  Sb2_4  1  0.99934900  0.49934900  0.14538100  1
  Sb  Sb2_5  1  0.99934900  0.49934900  0.64538100  1
  Sb  Sb2_6  1  0.99934900  0.99934900  0.14538100  1
  Sb  Sb2_7  1  0.99934900  0.99934900  0.64538100  1
  Sb  Sb3_0  1  0.38079650  0.38079650  0.14475400  1
  Sb  Sb3_1  1  0.38079650  0.38079650  0.64475400  1
  Sb  Sb3_2  1  0.38079650  0.88079650  0.14475400  1
  Sb  Sb3_3  1  0.38079650  0.88079650  0.64475400  1
  Sb  Sb3_4  1  0.88079650  0.38079650  0.14475400  1
  Sb  Sb3_5  1  0.88079650  0.38079650  0.64475400  1
  Sb  Sb3_6  1  0.88079650  0.88079650  0.14475400  1
  Sb  Sb3_7  1  0.88079650  0.88079650  0.64475400  1
loop_
_geom_bond_atom_site_label_1
_geom_bond_atom_site_label_2
_geom_bond_distance
_geom_bond_site_symmetry_2
Mg0_0 Sb0_3 3.017298 1_554
Mg0_0 Sb0_5 3.017298 1_554
Mg0_0 Sb2_2 3.065805 1_545
Mg0_0 Sb2_4 3.065805 1_455
Mg0_0 Sb3_0 3.079960 1_555
Mg0_1 Sb0_4 3.017298 1_555
Mg0_1 Sb0_2 3.017298 1_555
Mg0_1 Sb2_3 3.065805 1_545
Mg0_1 Sb2_5 3.065805 1_455
Mg0_1 Sb3_1 3.079960 1_555
Mg0_2 Sb0_7 3.017298 1_554
Mg0_2 Sb0_1 3.017298 1_564
Mg0_2 Sb2_6 3.065805 1_455
Mg0_2 Sb2_0 3.065805 1_555
Mg0_2 Sb3_2 3.079960 1_555
Mg0_3 Sb0_6 3.017298 1_555
Mg0_3 Sb0_0 3.017298 1_565
Mg0_3 Sb2_1 3.065805 1_555
Mg0_3 Sb2_7 3.065805 1_455
Mg0_3 Sb3_3 3.079960 1_555
Mg0_4 Sb0_7 3.017298 1_554
Mg0_4 Sb0_1 3.017298 1_654
Mg0_4 Sb2_6 3.065805 1_545
Mg0_4 Sb2_0 3.065805 1_555
Mg0_4 Sb3_4 3.079960 1_555
Mg0_5 Sb0_6 3.017298 1_555
Mg0_5 Sb0_0 3.017298 1_655
Mg0_5 Sb2_7 3.065805 1_545
Mg0_5 Sb2_1 3.065805 1_555
Mg0_5 Sb3_5 3.079960 1_555
Mg0_6 Sb0_3 3.017298 1_654
Mg0_6 Sb0_5 3.017298 1_564
Mg0_6 Sb2_4 3.065805 1_555
Mg0_6 Sb2_2 3.065805 1_555
Mg0_6 Sb3_6 3.079960 1_555
Mg0_7 Sb0_2 3.017298 1_655
Mg0_7 Sb0_4 3.017298 1_565
Mg0_7 Sb2_5 3.065805 1_555
Mg0_7 Sb2_3 3.065805 1_555
Mg0_7 Sb3_7 3.079960 1_555
Mg1_0 Sb3_3 3.017298 1_545
Mg1_0 Sb3_5 3.017298 1_455
Mg1_0 Sb1_4 3.065805 1_555
Mg1_0 Sb1_2 3.065805 1_555
Mg1_0 Sb0_0 3.079960 1_555
Mg1_1 Sb3_4 3.017298 1_456
Mg1_1 Sb3_2 3.017298 1_546
Mg1_1 Sb1_5 3.065805 1_555
Mg1_1 Sb1_3 3.065805 1_555
Mg1_1 Sb0_1 3.079960 1_555
Mg1_2 Sb3_1 3.017298 1_555
Mg1_2 Sb3_7 3.017298 1_455
Mg1_2 Sb1_0 3.065805 1_565
Mg1_2 Sb1_6 3.065805 1_555
Mg1_2 Sb0_2 3.079960 1_555
Mg1_3 Sb3_0 3.017298 1_556
Mg1_3 Sb3_6 3.017298 1_456
Mg1_3 Sb1_7 3.065805 1_555
Mg1_3 Sb1_1 3.065805 1_565
Mg1_3 Sb0_3 3.079960 1_555
Mg1_4 Sb3_1 3.017298 1_555
Mg1_4 Sb3_7 3.017298 1_545
Mg1_4 Sb1_0 3.065805 1_655
Mg1_4 Sb1_6 3.065805 1_555
Mg1_4 Sb0_4 3.079960 1_555
Mg1_5 Sb3_0 3.017298 1_556
Mg1_5 Sb3_6 3.017298 1_546
Mg1_5 Sb1_7 3.065805 1_555
Mg1_5 Sb1_1 3.065805 1_655
Mg1_5 Sb0_5 3.079960 1_555
Mg1_6 Sb3_5 3.017298 1_555
Mg1_6 Sb3_3 3.017298 1_555
Mg1_6 Sb1_2 3.065805 1_655
Mg1_6 Sb1_4 3.065805 1_565
Mg1_6 Sb0_6 3.079960 1_555
Mg1_7 Sb3_4 3.017298 1_556
Mg1_7 Sb3_2 3.017298 1_556
Mg1_7 Sb1_5 3.065805 1_565
Mg1_7 Sb1_3 3.065805 1_655
Mg1_7 Sb0_7 3.079960 1_555
Sb0_0 Sb1_0 2.985741 1_555
Sb0_0 Sb0_6 3.221918 1_455
Sb0_0 Sb0_6 3.221918 1_545
Sb0_1 Sb1_1 2.985741 1_555
Sb0_1 Sb0_7 3.221918 1_455
Sb0_1 Sb0_7 3.221918 1_545
Sb0_2 Sb1_2 2.985741 1_555
Sb0_2 Sb0_4 3.221918 1_555
Sb0_2 Sb0_4 3.221918 1_465
Sb0_3 Sb1_3 2.985741 1_555
Sb0_3 Sb0_5 3.221918 1_555
Sb0_3 Sb0_5 3.221918 1_465
Sb0_4 Sb1_4 2.985741 1_555
Sb0_5 Sb1_5 2.985741 1_555
Sb0_6 Sb1_6 2.985741 1_555
Sb0_7 Sb1_7 2.985741 1_555
Sb2_0 Sb3_0 2.985741 1_555
Sb2_1 Sb3_1 2.985741 1_555
Sb2_2 Sb3_2 2.985741 1_555
Sb2_3 Sb3_3 2.985741 1_555
Sb2_4 Sb3_4 2.985741 1_555
Sb2_5 Sb3_5 2.985741 1_555
Sb2_6 Sb3_6 2.985741 1_555
Sb2_7 Sb3_7 2.985741 1_555
Sb3_0 Sb3_6 3.221918 1_545
Sb3_0 Sb3_6 3.221918 1_455
Sb3_1 Sb3_7 3.221918 1_545
Sb3_1 Sb3_7 3.221918 1_455
Sb3_2 Sb3_4 3.221918 1_555
Sb3_2 Sb3_4 3.221918 1_465
Sb3_3 Sb3_5 3.221918 1_465
Sb3_3 Sb3_5 3.221918 1_555
