# generated using pymatgen
data_Te4MoW3Se4
_symmetry_space_group_name_H-M   'P 1'
_cell_length_a   3.43838273
_cell_length_b   3.43838273
_cell_length_c   39.19040100
_cell_angle_alpha   90.00000000
_cell_angle_beta   90.00000000
_cell_angle_gamma   120.00001400
_symmetry_Int_Tables_number   1
_chemical_formula_structural   Te4MoW3Se4
_chemical_formula_sum   'Te4 Mo1 W3 Se4'
_cell_volume   401.25338641
_cell_formula_units_Z   1
loop_
 _symmetry_equiv_pos_site_id
 _symmetry_equiv_pos_as_xyz
  1  'x, y, z'
loop_
 _atom_site_type_symbol
 _atom_site_label
 _atom_site_symmetry_multiplicity
 _atom_site_fract_x
 _atom_site_fract_y
 _atom_site_fract_z
 _atom_site_occupancy
  Te  Te0  1  0.00000000  0.00000000  0.70513900  1
  Te  Te1  1  0.33333300  0.66666700  0.42205800  1
  Te  Te2  1  0.33333300  0.66666700  0.51720700  1
  Te  Te3  1  0.00000000  0.00000000  0.60998500  1
  Mo  Mo0  1  0.00000000  0.00000000  0.09393500  1
  W  W0  1  0.00000000  0.00000000  0.46962300  1
  W  W1  1  0.33333300  0.66666700  0.28181200  1
  W  W2  1  0.33333300  0.66666700  0.65757200  1
  Se  Se0  1  0.00000000  0.00000000  0.32365300  1
  Se  Se1  1  0.33333300  0.66666700  0.05218900  1
  Se  Se2  1  0.33333300  0.66666700  0.13564700  1
  Se  Se3  1  0.00000000  0.00000000  0.23992700  1
loop_
_geom_bond_atom_site_label_1
_geom_bond_atom_site_label_2
_geom_bond_distance
_geom_bond_site_symmetry_2
Te0 W2 2.723224 1_545
Te0 W2 2.723226 1_555
Te0 W2 2.723226 1_445
Te1 W0 2.723170 1_565
Te1 W0 2.723172 1_555
Te1 W0 2.723172 1_665
Te2 W0 2.723680 1_565
Te2 W0 2.723682 1_665
Te2 W0 2.723682 1_555
Te3 W2 2.723760 1_545
Te3 W2 2.723762 1_445
Te3 W2 2.723762 1_555
Mo0 Se2 2.571594 1_545
Mo0 Se2 2.571596 1_445
Mo0 Se2 2.571596 1_555
Mo0 Se1 2.572441 1_545
Mo0 Se1 2.572443 1_445
Mo0 Se1 2.572443 1_555
Se0 W1 2.574810 1_545
Se0 W1 2.574812 1_445
Se0 W1 2.574812 1_555
Se3 W1 2.575909 1_545
Se3 W1 2.575911 1_445
Se3 W1 2.575911 1_555
