# generated using pymatgen
data_ZnOs2(NO2)4
_symmetry_space_group_name_H-M   'P 1'
_cell_length_a   7.52710785
_cell_length_b   7.52710785
_cell_length_c   7.52710785
_cell_angle_alpha   60.00000000
_cell_angle_beta   60.00000000
_cell_angle_gamma   60.00000000
_symmetry_Int_Tables_number   1
_chemical_formula_structural   ZnOs2(NO2)4
_chemical_formula_sum   'Zn1 Os2 N4 O8'
_cell_volume   301.55700237
_cell_formula_units_Z   1
loop_
 _symmetry_equiv_pos_site_id
 _symmetry_equiv_pos_as_xyz
  1  'x, y, z'
loop_
 _atom_site_type_symbol
 _atom_site_label
 _atom_site_symmetry_multiplicity
 _atom_site_fract_x
 _atom_site_fract_y
 _atom_site_fract_z
 _atom_site_occupancy
  Zn  Zn0  1  0.25000000  0.25000000  0.25000000  1
  Os  Os0  1  0.75000000  0.75000000  0.75000000  1
  Os  Os1  1  0.00000000  0.00000000  0.00000000  1
  N  N0  1  0.36142800  0.36142800  0.36142800  1
  N  N1  1  0.36142800  0.36142800  0.91571600  1
  N  N2  1  0.36142800  0.91571600  0.36142800  1
  N  N3  1  0.91571600  0.36142800  0.36142800  1
  O  O0  1  0.09378400  0.09378400  0.09378400  1
  O  O1  1  0.09378400  0.09378400  0.71864900  1
  O  O2  1  0.09378400  0.71864900  0.09378400  1
  O  O3  1  0.71864900  0.09378400  0.09378400  1
  O  O4  1  0.65632700  0.65632700  0.65632700  1
  O  O5  1  0.65632700  0.65632700  0.03101800  1
  O  O6  1  0.65632700  0.03101800  0.65632700  1
  O  O7  1  0.03101800  0.65632700  0.65632700  1
loop_
_geom_bond_atom_site_label_1
_geom_bond_atom_site_label_2
_geom_bond_distance
_geom_bond_site_symmetry_2
N0 Zn0 2.054462 1_555
N1 Zn0 2.054462 1_556
N2 Zn0 2.054462 1_565
N3 Zn0 2.054462 1_655
O0 Os1 1.729149 1_555
O1 Os1 1.729143 1_556
O2 Os1 1.729143 1_565
O3 Os1 1.729143 1_655
O4 Os0 1.727103 1_555
O5 Os0 1.727097 1_554
O6 Os0 1.727097 1_545
O7 Os0 1.727097 1_455
