# generated using pymatgen
data_Sc3As
_symmetry_space_group_name_H-M   'P 1'
_cell_length_a   6.14642818
_cell_length_b   6.14642818
_cell_length_c   4.92417700
_cell_angle_alpha   90.00000000
_cell_angle_beta   90.00000000
_cell_angle_gamma   120.00000195
_symmetry_Int_Tables_number   1
_chemical_formula_structural   Sc3As
_chemical_formula_sum   'Sc6 As2'
_cell_volume   161.10532721
_cell_formula_units_Z   2
loop_
 _symmetry_equiv_pos_site_id
 _symmetry_equiv_pos_as_xyz
  1  'x, y, z'
loop_
 _atom_site_type_symbol
 _atom_site_label
 _atom_site_symmetry_multiplicity
 _atom_site_fract_x
 _atom_site_fract_y
 _atom_site_fract_z
 _atom_site_occupancy
  Sc  Sc0  1  0.17115700  0.34231500  0.25000000  1
  Sc  Sc1  1  0.65768500  0.82884300  0.25000000  1
  Sc  Sc2  1  0.17115700  0.82884300  0.25000000  1
  Sc  Sc3  1  0.82884300  0.65768500  0.75000000  1
  Sc  Sc4  1  0.34231500  0.17115700  0.75000000  1
  Sc  Sc5  1  0.82884300  0.17115700  0.75000000  1
  As  As0  1  0.33333300  0.66666700  0.75000000  1
  As  As1  1  0.66666700  0.33333300  0.25000000  1
loop_
_geom_bond_atom_site_label_1
_geom_bond_atom_site_label_2
_geom_bond_distance
_geom_bond_site_symmetry_2
As0 Sc1 3.007113 1_556
As0 Sc0 3.007113 1_555
As0 Sc0 3.007113 1_556
As0 Sc1 3.007113 1_555
As0 Sc2 3.007113 1_555
As0 Sc2 3.007113 1_556
As0 Sc3 3.073580 1_455
As0 Sc4 3.073580 1_565
As0 Sc5 3.073586 1_565
As0 Sc5 3.073586 1_455
As0 Sc4 3.073592 1_555
As0 Sc3 3.073592 1_555
As1 Sc3 3.007113 1_555
As1 Sc4 3.007113 1_555
As1 Sc3 3.007113 1_554
As1 Sc4 3.007113 1_554
As1 Sc5 3.007113 1_555
As1 Sc5 3.007113 1_554
As1 Sc1 3.073580 1_545
As1 Sc0 3.073580 1_655
As1 Sc2 3.073586 1_545
As1 Sc2 3.073586 1_655
As1 Sc0 3.073592 1_555
As1 Sc1 3.073592 1_555
