# generated using pymatgen
data_EuO2
_symmetry_space_group_name_H-M   'P 1'
_cell_length_a   3.86042171
_cell_length_b   3.86179288
_cell_length_c   5.47721767
_cell_angle_alpha   90.00312815
_cell_angle_beta   90.00000000
_cell_angle_gamma   90.00000000
_symmetry_Int_Tables_number   1
_chemical_formula_structural   EuO2
_chemical_formula_sum   'Eu2 O4'
_cell_volume   81.65517740
_cell_formula_units_Z   2
loop_
 _symmetry_equiv_pos_site_id
 _symmetry_equiv_pos_as_xyz
  1  'x, y, z'
loop_
 _atom_site_type_symbol
 _atom_site_label
 _atom_site_symmetry_multiplicity
 _atom_site_fract_x
 _atom_site_fract_y
 _atom_site_fract_z
 _atom_site_occupancy
  Eu  Eu0  1  0.75000000  0.25002840  0.74997611  1
  Eu  Eu1  1  0.25000000  0.74997160  0.25002389  1
  O  O0  1  0.75000000  0.75006745  0.49989013  1
  O  O1  1  0.25000000  0.24993255  0.50010987  1
  O  O2  1  0.75000000  0.74998149  -0.00012546  1
  O  O3  1  0.25000000  0.25001851  0.00012546  1
loop_
_geom_bond_atom_site_label_1
_geom_bond_atom_site_label_2
_geom_bond_distance
_geom_bond_site_symmetry_2
Eu0 O1 2.366158 1_555
Eu0 O1 2.366158 1_655
Eu0 O2 2.366610 1_556
Eu0 O2 2.367028 1_546
Eu0 O3 2.367055 1_556
Eu0 O3 2.367055 1_656
Eu0 O0 2.367229 1_545
Eu0 O0 2.367597 1_555
Eu1 O0 2.366158 1_555
Eu1 O0 2.366158 1_455
Eu1 O3 2.366610 1_555
Eu1 O3 2.367028 1_565
Eu1 O2 2.367055 1_455
Eu1 O2 2.367055 1_555
Eu1 O1 2.367229 1_565
Eu1 O1 2.367597 1_555
