# generated using pymatgen
data_NaCoPH10CO10
_symmetry_space_group_name_H-M   'P 1'
_cell_length_a   8.36695484
_cell_length_b   9.96032416
_cell_length_c   11.89020900
_cell_angle_alpha   90.00000000
_cell_angle_beta   90.00000000
_cell_angle_gamma   106.80202527
_symmetry_Int_Tables_number   1
_chemical_formula_structural   NaCoPH10CO10
_chemical_formula_sum   'Na4 Co4 P4 H40 C4 O40'
_cell_volume   948.59898401
_cell_formula_units_Z   4
loop_
 _symmetry_equiv_pos_site_id
 _symmetry_equiv_pos_as_xyz
  1  'x, y, z'
loop_
 _atom_site_type_symbol
 _atom_site_label
 _atom_site_symmetry_multiplicity
 _atom_site_fract_x
 _atom_site_fract_y
 _atom_site_fract_z
 _atom_site_occupancy
  Na  Na0  1  0.50906100  0.54197800  0.13210500  1
  Na  Na1  1  0.49093900  0.95802200  0.63210500  1
  Na  Na2  1  0.49093900  0.45802200  0.86789500  1
  Na  Na3  1  0.50906100  0.04197800  0.36789500  1
  Co  Co0  1  0.92031500  0.80725400  0.14415000  1
  Co  Co1  1  0.07968500  0.69274600  0.64415000  1
  Co  Co2  1  0.07968500  0.19274600  0.85585000  1
  Co  Co3  1  0.92031500  0.30725400  0.35585000  1
  P  P0  1  0.00576400  0.84155900  0.88625200  1
  P  P1  1  0.99423600  0.65844100  0.38625200  1
  P  P2  1  0.99423600  0.15844100  0.11374800  1
  P  P3  1  0.00576400  0.34155900  0.61374800  1
  H  H0  1  0.87437900  0.53331600  0.18414500  1
  H  H1  1  0.12562100  0.96668400  0.68414500  1
  H  H2  1  0.12562100  0.46668400  0.81585500  1
  H  H3  1  0.87437900  0.03331600  0.31585500  1
  H  H4  1  0.83341100  0.53361500  0.04823800  1
  H  H5  1  0.16658900  0.96638500  0.54823800  1
  H  H6  1  0.16658900  0.46638500  0.95176200  1
  H  H7  1  0.83341100  0.03361500  0.45176200  1
  H  H8  1  0.67721900  0.73325500  0.29391000  1
  H  H9  1  0.32278100  0.76674500  0.79391000  1
  H  H10  1  0.32278100  0.26674500  0.70609000  1
  H  H11  1  0.67721900  0.23325500  0.20609000  1
  H  H12  1  0.60382900  0.82851600  0.20901300  1
  H  H13  1  0.39617100  0.67148400  0.70901300  1
  H  H14  1  0.39617100  0.17148400  0.79098700  1
  H  H15  1  0.60382900  0.32851600  0.29098700  1
  H  H16  1  0.13871400  0.44350700  0.14265200  1
  H  H17  1  0.86128600  0.05649300  0.64265200  1
  H  H18  1  0.86128600  0.55649300  0.85734800  1
  H  H19  1  0.13871400  0.94350700  0.35734800  1
  H  H20  1  0.17988600  0.60682700  0.11751900  1
  H  H21  1  0.82011400  0.89317300  0.61751900  1
  H  H22  1  0.82011400  0.39317300  0.88248100  1
  H  H23  1  0.17988600  0.10682700  0.38248100  1
  H  H24  1  0.53101000  0.26500900  0.04079800  1
  H  H25  1  0.46899000  0.23499100  0.54079800  1
  H  H26  1  0.46899000  0.73499100  0.95920200  1
  H  H27  1  0.53101000  0.76500900  0.45920200  1
  H  H28  1  0.34224800  0.26762900  0.04128200  1
  H  H29  1  0.65775200  0.23237100  0.54128200  1
  H  H30  1  0.65775200  0.73237100  0.95871800  1
  H  H31  1  0.34224800  0.76762900  0.45871800  1
  H  H32  1  0.53638400  0.50376500  0.36568400  1
  H  H33  1  0.46361600  0.99623500  0.86568400  1
  H  H34  1  0.46361600  0.49623500  0.63431600  1
  H  H35  1  0.53638400  0.00376500  0.13431600  1
  H  H36  1  0.36551100  0.38626000  0.34490300  1
  H  H37  1  0.63448900  0.11374000  0.84490300  1
  H  H38  1  0.63448900  0.61374000  0.65509700  1
  H  H39  1  0.36551100  0.88626000  0.15509700  1
  C  C0  1  0.19016500  0.83681600  0.97460400  1
  C  C1  1  0.80983500  0.66318400  0.47460400  1
  C  C2  1  0.80983500  0.16318400  0.02539600  1
  C  C3  1  0.19016500  0.33681600  0.52539600  1
  O  O0  1  0.86408200  0.81979600  0.97298000  1
  O  O1  1  0.13591800  0.68020400  0.47298000  1
  O  O2  1  0.13591800  0.18020400  0.02702000  1
  O  O3  1  0.86408200  0.31979600  0.52702000  1
  O  O4  1  0.98163000  0.71721100  0.80411100  1
  O  O5  1  0.01837000  0.78278900  0.30411100  1
  O  O6  1  0.01837000  0.28278900  0.19588900  1
  O  O7  1  0.98163000  0.21721100  0.69588900  1
  O  O8  1  0.04709300  0.98127100  0.82199900  1
  O  O9  1  0.95290700  0.51872900  0.32199900  1
  O  O10  1  0.95290700  0.01872900  0.17800100  1
  O  O11  1  0.04709300  0.48127100  0.67800100  1
  O  O12  1  0.16830400  0.82385400  0.08108600  1
  O  O13  1  0.83169600  0.67614600  0.58108600  1
  O  O14  1  0.83169600  0.17614600  0.91891400  1
  O  O15  1  0.16830400  0.32385400  0.41891400  1
  O  O16  1  0.32732900  0.84014300  0.92675700  1
  O  O17  1  0.67267100  0.65985700  0.42675700  1
  O  O18  1  0.67267100  0.15985700  0.07324300  1
  O  O19  1  0.32732900  0.34014300  0.57324300  1
  O  O20  1  0.82866400  0.57851000  0.12232700  1
  O  O21  1  0.17133600  0.92149000  0.62232700  1
  O  O22  1  0.17133600  0.42149000  0.87767300  1
  O  O23  1  0.82866400  0.07851000  0.37767300  1
  O  O24  1  0.67144800  0.76054800  0.21386400  1
  O  O25  1  0.32855200  0.73945200  0.71386400  1
  O  O26  1  0.32855200  0.23945200  0.78613600  1
  O  O27  1  0.67144800  0.26054800  0.28613600  1
  O  O28  1  0.21109400  0.52267400  0.09745300  1
  O  O29  1  0.78890600  0.97732600  0.59745300  1
  O  O30  1  0.78890600  0.47732600  0.90254700  1
  O  O31  1  0.21109400  0.02267400  0.40254700  1
  O  O32  1  0.45989800  0.32832500  0.03844500  1
  O  O33  1  0.54010200  0.17167500  0.53844500  1
  O  O34  1  0.54010200  0.67167500  0.96155500  1
  O  O35  1  0.45989800  0.82832500  0.46155500  1
  O  O36  1  0.47681700  0.43127100  0.31151900  1
  O  O37  1  0.52318300  0.06872900  0.81151900  1
  O  O38  1  0.52318300  0.56872900  0.68848100  1
  O  O39  1  0.47681700  0.93127100  0.18848100  1
loop_
_geom_bond_atom_site_label_1
_geom_bond_atom_site_label_2
_geom_bond_distance
_geom_bond_site_symmetry_2
Na0 O32 2.330649 1_555
Na0 O34 2.377934 1_554
Na0 O36 2.380659 1_555
Na0 O24 2.412564 1_555
Na0 O28 2.478917 1_555
Na0 O20 2.595036 1_555
Na1 O33 2.330649 1_565
Na1 O35 2.377934 1_555
Na1 O37 2.380659 1_565
Na1 O25 2.412564 1_555
Na1 O29 2.478917 1_555
Na1 O21 2.595036 1_555
Na2 O34 2.330649 1_555
Na2 O32 2.377934 1_556
Na2 O38 2.380659 1_555
Na2 O26 2.412564 1_555
Na2 O30 2.478917 1_555
Na2 O22 2.595036 1_555
Na3 O35 2.330649 1_545
Na3 O33 2.377934 1_555
Na3 O39 2.380659 1_545
Na3 O27 2.412564 1_555
Na3 O31 2.478917 1_555
Na3 O23 2.595036 1_555
Co0 O10 2.083516 1_565
Co0 O0 2.100758 1_554
Co0 O5 2.113182 1_655
Co0 O24 2.163167 1_555
Co0 O12 2.167147 1_655
Co0 O20 2.199145 1_555
Co1 O11 2.083516 1_555
Co1 O1 2.100758 1_555
Co1 O4 2.113182 1_455
Co1 O25 2.163167 1_555
Co1 O13 2.167147 1_455
Co1 O21 2.199145 1_555
Co2 O8 2.083516 1_545
Co2 O2 2.100758 1_556
Co2 O7 2.113182 1_455
Co2 O26 2.163167 1_555
Co2 O14 2.167147 1_455
Co2 O22 2.199145 1_555
Co3 O9 2.083516 1_555
Co3 O3 2.100758 1_555
Co3 O6 2.113182 1_655
Co3 O27 2.163167 1_555
Co3 O15 2.167147 1_655
Co3 O23 2.199145 1_555
H0 O20 0.994356 1_555
H1 O21 0.994356 1_555
H2 O22 0.994356 1_555
H3 O23 0.994356 1_555
H4 O20 0.993906 1_555
H5 O21 0.993906 1_555
H6 O22 0.993906 1_555
H7 O23 0.993906 1_555
H8 O24 0.994824 1_555
H9 O25 0.994824 1_555
H10 O26 0.994824 1_555
H11 O27 0.994824 1_555
H12 O24 1.001577 1_555
H13 O25 1.001577 1_555
H14 O26 1.001577 1_555
H15 O27 1.001577 1_555
H16 O28 1.000639 1_555
H16 O6 1.745067 1_555
H17 O29 1.000639 1_545
H17 O7 1.745067 1_555
H18 O30 1.000639 1_555
H18 O4 1.745067 1_555
H19 O31 1.000639 1_565
H19 O5 1.745067 1_555
H20 O28 0.976833 1_555
H21 O29 0.976833 1_555
H22 O30 0.976833 1_555
H23 O31 0.976833 1_555
H24 O32 0.984604 1_555
H25 O33 0.984604 1_555
H26 O34 0.984604 1_555
H27 O35 0.984604 1_555
H28 O32 0.995772 1_555
H28 O2 1.702417 1_555
H29 O33 0.995772 1_555
H29 O3 1.702417 1_555
H30 O34 0.995772 1_555
H30 O0 1.702417 1_555
H31 O35 0.995772 1_555
H31 O1 1.702417 1_555
H32 O36 0.988179 1_555
H33 O37 0.988179 1_565
H34 O38 0.988179 1_555
H35 O39 0.988179 1_545
H36 O36 0.992210 1_555
H37 O37 0.992210 1_555
H38 O38 0.992210 1_555
H39 O39 0.992210 1_555
C0 O16 1.272737 1_555
C0 O12 1.280416 1_556
C0 P0 1.878413 1_555
C1 O17 1.272737 1_555
C1 O13 1.280416 1_555
C1 P1 1.878413 1_555
C2 O18 1.272737 1_555
C2 O14 1.280416 1_554
C2 P2 1.878413 1_555
C3 O19 1.272737 1_555
C3 O15 1.280416 1_555
C3 P3 1.878413 1_555
O0 P0 1.538543 1_655
O1 P1 1.538543 1_455
O2 P2 1.538543 1_455
O3 P3 1.538543 1_655
O4 P0 1.544045 1_655
O5 P1 1.544045 1_455
O6 P2 1.544045 1_455
O7 P3 1.544045 1_655
O8 P0 1.536727 1_555
O9 P1 1.536727 1_555
O10 P2 1.536727 1_555
O11 P3 1.536727 1_555
