# generated using pymatgen
data_Ho4MgRu
_symmetry_space_group_name_H-M   'P 1'
_cell_length_a   9.61748956
_cell_length_b   9.61750935
_cell_length_c   9.61748827
_cell_angle_alpha   59.99894502
_cell_angle_beta   59.99891303
_cell_angle_gamma   59.99896511
_symmetry_Int_Tables_number   1
_chemical_formula_structural   Ho4MgRu
_chemical_formula_sum   'Ho16 Mg4 Ru4'
_cell_volume   629.01439036
_cell_formula_units_Z   4
loop_
 _symmetry_equiv_pos_site_id
 _symmetry_equiv_pos_as_xyz
  1  'x, y, z'
loop_
 _atom_site_type_symbol
 _atom_site_label
 _atom_site_symmetry_multiplicity
 _atom_site_fract_x
 _atom_site_fract_y
 _atom_site_fract_z
 _atom_site_occupancy
  Ho  Ho0  1  0.34341543  0.34341631  0.34341528  1
  Ho  Ho1  1  0.34341645  0.34341718  0.96975108  1
  Ho  Ho2  1  0.34341703  0.96974879  0.34341729  1
  Ho  Ho3  1  0.96975045  0.34341721  0.34341651  1
  Ho  Ho4  1  0.81312027  0.18687993  0.18687973  1
  Ho  Ho5  1  0.18688025  0.81311921  0.81312240  1
  Ho  Ho6  1  0.18687997  0.81311883  0.18687970  1
  Ho  Ho7  1  0.81312022  0.18688127  0.81311997  1
  Ho  Ho8  1  0.18687893  0.18688034  0.81312070  1
  Ho  Ho9  1  0.81312215  0.81311908  0.18687998  1
  Ho  Ho10  1  0.93828712  0.56171341  0.56171246  1
  Ho  Ho11  1  0.56171264  0.93828821  0.93828641  1
  Ho  Ho12  1  0.56171261  0.93828748  0.56171331  1
  Ho  Ho13  1  0.93828713  0.56171373  0.93828685  1
  Ho  Ho14  1  0.56171281  0.56171356  0.93828710  1
  Ho  Ho15  1  0.93828637  0.93828849  0.56171261  1
  Mg  Mg0  1  0.57895268  0.57895249  0.57895279  1
  Mg  Mg1  1  0.57892425  0.57892399  0.26320001  1
  Mg  Mg2  1  0.57892383  0.26320111  0.57892329  1
  Mg  Mg3  1  0.26320056  0.57892475  0.57892286  1
  Ru  Ru0  1  0.13877688  0.13877444  0.13877817  1
  Ru  Ru1  1  0.13877772  0.13877763  0.58366647  1
  Ru  Ru2  1  0.13877835  0.58366611  0.13877832  1
  Ru  Ru3  1  0.58366589  0.13877848  0.13877770  1
loop_
_geom_bond_atom_site_label_1
_geom_bond_atom_site_label_2
_geom_bond_distance
_geom_bond_site_symmetry_2
Ho0 Ru2 2.804272 1_555
Ho0 Ru3 2.804282 1_555
Ho0 Ru1 2.804288 1_555
Ho0 Ho14 3.470422 1_554
Ho0 Ho10 3.470423 1_455
Ho0 Ho12 3.470433 1_545
Ho0 Mg2 3.534276 1_555
Ho0 Mg3 3.534278 1_555
Ho0 Mg1 3.534280 1_555
Ho1 Ru3 2.804291 1_556
Ho1 Ru2 2.804293 1_556
Ho1 Ru0 2.804346 1_556
Ho1 Ho13 3.470445 1_455
Ho1 Ho11 3.470451 1_545
Ho1 Ho14 3.470492 1_555
Ho1 Mg0 3.534431 1_555
Ho1 Mg2 3.534457 1_555
Ho1 Mg3 3.534460 1_555
Ho2 Ru1 2.804303 1_565
Ho2 Ru3 2.804305 1_565
Ho2 Ru0 2.804323 1_565
Ho2 Mg0 3.534426 1_555
Ho2 Mg3 3.534434 1_555
Ho2 Mg1 3.534445 1_555
Ho3 Ru2 2.804296 1_655
Ho3 Ru1 2.804298 1_655
Ho3 Ru0 2.804338 1_655
Ho3 Mg0 3.534431 1_555
Ho3 Mg2 3.534447 1_555
Ho3 Mg1 3.534447 1_555
Ho4 Ru0 2.748359 1_655
Ho4 Ru3 2.748411 1_555
Ho4 Mg2 3.528456 1_555
Ho4 Mg1 3.528465 1_555
Ho5 Ru2 2.748340 1_556
Ho5 Ru1 2.748368 1_565
Ho5 Mg0 3.528442 1_555
Ho5 Mg3 3.528746 1_555
Ho6 Ru0 2.748364 1_565
Ho6 Ru2 2.748397 1_555
Ho6 Mg3 3.528452 1_555
Ho6 Mg1 3.528461 1_555
Ho7 Ru1 2.748349 1_655
Ho7 Ru3 2.748353 1_556
Ho7 Mg0 3.528434 1_555
Ho7 Mg2 3.528737 1_555
Ho8 Ru0 2.748364 1_556
Ho8 Ru1 2.748413 1_555
Ho8 Mg2 3.528466 1_555
Ho8 Mg3 3.528472 1_555
Ho9 Ru2 2.748342 1_655
Ho9 Ru3 2.748376 1_565
Ho9 Mg0 3.528441 1_555
Ho9 Mg1 3.528739 1_555
Ho10 Mg0 3.298432 1_555
Ho10 Mg3 3.298699 1_655
Ho10 Ru2 3.465916 1_655
Ho10 Ru1 3.465936 1_655
Ho10 Ho3 3.470490 1_555
Ho10 Ho6 3.605989 1_655
Ho10 Ho8 3.606002 1_655
Ho10 Ho9 3.606003 1_555
Ho10 Ho7 3.606015 1_555
Ho10 Ho14 3.621641 1_555
Ho10 Ho12 3.621646 1_555
Ho10 Ho13 3.621701 1_555
Ho10 Ho15 3.621711 1_555
Ho11 Mg2 3.298789 1_565
Ho11 Mg1 3.298799 1_556
Ho11 Ru0 3.465903 1_566
Ho11 Ru3 3.465984 1_566
Ho11 Ho2 3.470444 1_556
Ho11 Ho8 3.606018 1_565
Ho11 Ho6 3.606026 1_556
Ho11 Ho7 3.606059 1_565
Ho11 Ho9 3.606067 1_556
Ho11 Ho15 3.621635 1_555
Ho11 Ho13 3.621648 1_555
Ho11 Ho12 3.621691 1_555
Ho11 Ho14 3.621706 1_555
Ho12 Mg0 3.298444 1_555
Ho12 Mg2 3.298704 1_565
Ho12 Ru1 3.465924 1_565
Ho12 Ru3 3.465928 1_565
Ho12 Ho2 3.470493 1_555
Ho12 Ho4 3.606001 1_565
Ho12 Ho8 3.606003 1_565
Ho12 Ho5 3.606017 1_555
Ho12 Ho9 3.606026 1_555
Ho12 Ho14 3.621641 1_555
Ho12 Ho15 3.621696 1_555
Ho13 Mg1 3.298784 1_556
Ho13 Mg3 3.298791 1_655
Ho13 Ru0 3.465937 1_656
Ho13 Ru2 3.465986 1_656
Ho13 Ho3 3.470444 1_556
Ho13 Ho8 3.606023 1_655
Ho13 Ho4 3.606028 1_556
Ho13 Ho9 3.606047 1_556
Ho13 Ho5 3.606049 1_655
Ho13 Ho15 3.621647 1_555
Ho13 Ho14 3.621699 1_555
Ho14 Mg0 3.298433 1_555
Ho14 Mg1 3.298694 1_556
Ho14 Ru2 3.465920 1_556
Ho14 Ru3 3.465932 1_556
Ho14 Ho6 3.605989 1_556
Ho14 Ho5 3.606003 1_555
Ho14 Ho4 3.606004 1_556
Ho14 Ho7 3.606018 1_555
Ho15 Mg2 3.298786 1_565
Ho15 Mg3 3.298800 1_655
Ho15 Ru0 3.465890 1_665
Ho15 Ru1 3.465979 1_665
Ho15 Ho2 3.470442 1_655
Ho15 Ho3 3.470446 1_565
Ho15 Ho4 3.606012 1_565
Ho15 Ho6 3.606029 1_655
Ho15 Ho7 3.606056 1_565
Ho15 Ho5 3.606071 1_655
Mg0 Mg3 3.037020 1_555
Mg0 Mg1 3.037022 1_555
Mg0 Mg2 3.037022 1_555
Mg1 Mg3 3.036415 1_555
Mg1 Mg2 3.036418 1_555
Mg2 Mg3 3.036423 1_555
