# generated using pymatgen
data_K2NaCoF6
_symmetry_space_group_name_H-M   'P 1'
_cell_length_a   5.85691200
_cell_length_b   5.85691236
_cell_length_c   5.85691235
_cell_angle_alpha   60.00000128
_cell_angle_beta   60.00000197
_cell_angle_gamma   60.00000206
_symmetry_Int_Tables_number   1
_chemical_formula_structural   K2NaCoF6
_chemical_formula_sum   'K2 Na1 Co1 F6'
_cell_volume   142.06633241
_cell_formula_units_Z   1
loop_
 _symmetry_equiv_pos_site_id
 _symmetry_equiv_pos_as_xyz
  1  'x, y, z'
loop_
 _atom_site_type_symbol
 _atom_site_label
 _atom_site_symmetry_multiplicity
 _atom_site_fract_x
 _atom_site_fract_y
 _atom_site_fract_z
 _atom_site_occupancy
  K  K0  1  0.25000000  0.25000000  0.25000000  1
  K  K1  1  0.75000000  0.75000000  0.75000000  1
  Na  Na0  1  0.50000000  0.50000000  0.50000000  1
  Co  Co0  1  0.00000000  0.00000000  0.00000000  1
  F  F0  1  0.22619400  0.77380600  0.22619400  1
  F  F1  1  0.77380600  0.77380600  0.22619400  1
  F  F2  1  0.77380600  0.22619400  0.77380600  1
  F  F3  1  0.77380600  0.22619400  0.22619400  1
  F  F4  1  0.22619400  0.77380600  0.77380600  1
  F  F5  1  0.22619400  0.22619400  0.77380600  1
loop_
_geom_bond_atom_site_label_1
_geom_bond_atom_site_label_2
_geom_bond_distance
_geom_bond_site_symmetry_2
Co0 F0 1.873548 1_545
Co0 F5 1.873548 1_554
Co0 F1 1.873548 1_445
Co0 F2 1.873548 1_454
Co0 F3 1.873548 1_455
Co0 F4 1.873548 1_544
F0 Na0 2.267914 1_555
F0 K1 2.935087 1_554
F0 K0 2.935087 1_565
F0 K1 2.935087 1_455
F0 K0 2.935087 1_555
F1 Na0 2.267914 1_555
F1 K1 2.935087 1_554
F1 K0 2.935087 1_565
F1 K1 2.935087 1_555
F1 K0 2.935087 1_655
F2 Na0 2.267914 1_555
F2 K0 2.935087 1_556
F2 K1 2.935087 1_545
F2 K0 2.935087 1_655
F2 K1 2.935087 1_555
F3 Na0 2.267915 1_555
F3 K0 2.935087 1_555
F3 K0 2.935087 1_655
F3 K1 2.935087 1_545
F3 K1 2.935087 1_554
F4 Na0 2.267915 1_555
F4 K1 2.935087 1_455
F4 K1 2.935087 1_555
F4 K0 2.935087 1_565
F4 K0 2.935087 1_556
F5 Na0 2.267914 1_555
F5 K0 2.935087 1_556
F5 K1 2.935087 1_545
F5 K0 2.935087 1_555
F5 K1 2.935087 1_455
