# generated using pymatgen
data_Mg2Bi
_symmetry_space_group_name_H-M   'P 1'
_cell_length_a   6.31869697
_cell_length_b   6.31869697
_cell_length_c   6.31869714
_cell_angle_alpha   54.59530067
_cell_angle_beta   54.59530067
_cell_angle_gamma   54.59529492
_symmetry_Int_Tables_number   1
_chemical_formula_structural   Mg2Bi
_chemical_formula_sum   'Mg4 Bi2'
_cell_volume   155.91979393
_cell_formula_units_Z   2
loop_
 _symmetry_equiv_pos_site_id
 _symmetry_equiv_pos_as_xyz
  1  'x, y, z'
loop_
 _atom_site_type_symbol
 _atom_site_label
 _atom_site_symmetry_multiplicity
 _atom_site_fract_x
 _atom_site_fract_y
 _atom_site_fract_z
 _atom_site_occupancy
  Mg  Mg0  1  0.33607900  0.00000000  0.66392100  1
  Mg  Mg1  1  0.00000000  0.66392100  0.33607900  1
  Mg  Mg2  1  0.50000000  0.50000000  0.50000000  1
  Mg  Mg3  1  0.66392100  0.33607900  0.00000000  1
  Bi  Bi0  1  0.83563800  0.83563800  0.83563800  1
  Bi  Bi1  1  0.16436200  0.16436200  0.16436200  1
loop_
_geom_bond_atom_site_label_1
_geom_bond_atom_site_label_2
_geom_bond_distance
_geom_bond_site_symmetry_2
Mg0 Mg2 3.299098 1_545
Mg0 Mg2 3.299098 1_555
Mg1 Mg2 3.299098 1_555
Mg1 Mg2 3.299098 1_455
Mg2 Mg3 3.299098 1_556
Mg2 Mg3 3.299098 1_555
Bi0 Mg3 3.283140 1_566
Bi0 Mg1 3.283140 1_656
Bi0 Mg0 3.283140 1_665
Bi0 Mg0 3.329272 1_565
Bi0 Mg1 3.329272 1_655
Bi0 Mg3 3.329272 1_556
Bi0 Mg2 3.346339 1_565
Bi0 Mg2 3.346339 1_655
Bi0 Mg2 3.346340 1_556
Bi1 Mg3 3.283140 1_455
Bi1 Mg0 3.283140 1_554
Bi1 Mg1 3.283140 1_545
Bi1 Mg1 3.329272 1_555
Bi1 Mg0 3.329272 1_555
Bi1 Mg3 3.329272 1_555
Bi1 Mg2 3.346339 1_455
Bi1 Mg2 3.346339 1_545
Bi1 Mg2 3.346340 1_554
