# generated using pymatgen
data_NbGeAs
_symmetry_space_group_name_H-M   'P 1'
_cell_length_a   3.59230510
_cell_length_b   3.59230510
_cell_length_c   7.97127273
_cell_angle_alpha   90.00000000
_cell_angle_beta   90.00000000
_cell_angle_gamma   90.00000000
_symmetry_Int_Tables_number   1
_chemical_formula_structural   NbGeAs
_chemical_formula_sum   'Nb2 Ge2 As2'
_cell_volume   102.86653192
_cell_formula_units_Z   2
loop_
 _symmetry_equiv_pos_site_id
 _symmetry_equiv_pos_as_xyz
  1  'x, y, z'
loop_
 _atom_site_type_symbol
 _atom_site_label
 _atom_site_symmetry_multiplicity
 _atom_site_fract_x
 _atom_site_fract_y
 _atom_site_fract_z
 _atom_site_occupancy
  Nb  Nb0  1  0.75000000  0.75000000  0.73842165  1
  Nb  Nb1  1  0.25000000  0.25000000  0.26157835  1
  Ge  Ge0  1  0.75000000  0.25000000  -0.00000000  1
  Ge  Ge1  1  0.25000000  0.75000000  -0.00000000  1
  As  As0  1  0.75000000  0.75000000  0.39082457  1
  As  As1  1  0.25000000  0.25000000  0.60917543  1
loop_
_geom_bond_atom_site_label_1
_geom_bond_atom_site_label_2
_geom_bond_distance
_geom_bond_site_symmetry_2
Ge0 Ge1 2.540143 1_645
Ge0 Ge1 2.540143 1_555
Ge0 Ge1 2.540143 1_655
Ge0 Ge1 2.540143 1_545
Ge0 Nb0 2.752064 1_554
Ge0 Nb0 2.752064 1_544
Ge0 Nb1 2.752064 1_555
Ge0 Nb1 2.752064 1_655
Ge1 Nb0 2.752064 1_454
Ge1 Nb0 2.752064 1_554
Ge1 Nb1 2.752064 1_555
Ge1 Nb1 2.752064 1_565
As0 Nb1 2.741123 1_555
As0 Nb1 2.741123 1_655
As0 Nb1 2.741123 1_565
As0 Nb1 2.741123 1_665
As0 Nb0 2.770791 1_555
As1 Nb0 2.741123 1_555
As1 Nb0 2.741123 1_455
As1 Nb0 2.741123 1_545
As1 Nb0 2.741123 1_445
As1 Nb1 2.770791 1_555
