# generated using pymatgen
data_Ho2NiRuO6
_symmetry_space_group_name_H-M   'P 1'
_cell_length_a   5.71510600
_cell_length_b   5.27956300
_cell_length_c   9.30418951
_cell_angle_alpha   55.29294816
_cell_angle_beta   90.00000000
_cell_angle_gamma   90.00000000
_symmetry_Int_Tables_number   1
_chemical_formula_structural   Ho2NiRuO6
_chemical_formula_sum   'Ho4 Ni2 Ru2 O12'
_cell_volume   230.78719597
_cell_formula_units_Z   2
loop_
 _symmetry_equiv_pos_site_id
 _symmetry_equiv_pos_as_xyz
  1  'x, y, z'
loop_
 _atom_site_type_symbol
 _atom_site_label
 _atom_site_symmetry_multiplicity
 _atom_site_fract_x
 _atom_site_fract_y
 _atom_site_fract_z
 _atom_site_occupancy
  Ho  Ho0  1  0.42373000  0.22714000  0.74713600  1
  Ho  Ho1  1  0.57627000  0.77286000  0.25286400  1
  Ho  Ho2  1  0.92373000  0.77286000  0.75286400  1
  Ho  Ho3  1  0.07627000  0.22714000  0.24713600  1
  Ni  Ni0  1  0.00000000  0.50000000  0.50000000  1
  Ni  Ni1  1  0.50000000  0.50000000  0.00000000  1
  Ru  Ru0  1  0.00000000  0.00000000  0.00000000  1
  Ru  Ru1  1  0.50000000  0.00000000  0.50000000  1
  O  O0  1  0.04818200  0.37253400  0.75352600  1
  O  O1  1  0.95181800  0.62746600  0.24647400  1
  O  O2  1  0.54818200  0.62746600  0.74647400  1
  O  O3  1  0.45181800  0.37253400  0.25352600  1
  O  O4  1  0.69838300  0.88361500  0.93296100  1
  O  O5  1  0.30161700  0.11638500  0.06703900  1
  O  O6  1  0.19838300  0.11638500  0.56703900  1
  O  O7  1  0.80161700  0.88361500  0.43296100  1
  O  O8  1  0.18881700  0.74590200  0.94278700  1
  O  O9  1  0.81118300  0.25409800  0.05721300  1
  O  O10  1  0.68881700  0.25409800  0.55721300  1
  O  O11  1  0.31118300  0.74590200  0.44278700  1
loop_
_geom_bond_atom_site_label_1
_geom_bond_atom_site_label_2
_geom_bond_distance
_geom_bond_site_symmetry_2
Ho0 O2 2.226696 1_555
Ho0 O10 2.269725 1_555
Ho0 O4 2.274128 1_545
Ho0 O0 2.291578 1_555
Ho0 O6 2.433961 1_555
Ho0 O8 2.510905 1_545
Ho0 O11 2.664920 1_555
Ho0 O5 2.776006 1_556
Ho1 O3 2.226696 1_555
Ho1 O11 2.269725 1_555
Ho1 O5 2.274128 1_565
Ho1 O1 2.291578 1_555
Ho1 O7 2.433961 1_555
Ho1 O9 2.510905 1_565
Ho1 O10 2.664920 1_555
Ho1 O4 2.776006 1_554
Ho2 O0 2.226696 1_655
Ho2 O8 2.269725 1_655
Ho2 O6 2.274128 1_665
Ho2 O2 2.291578 1_555
Ho2 O4 2.433961 1_555
Ho2 O10 2.510905 1_565
Ho2 O9 2.664920 1_556
Ho2 O7 2.776006 1_555
Ho3 O1 2.226696 1_455
Ho3 O9 2.269725 1_455
Ho3 O7 2.274128 1_445
Ho3 O3 2.291578 1_555
Ho3 O5 2.433961 1_555
Ho3 O11 2.510905 1_545
Ho3 O8 2.664920 1_554
Ho3 O6 2.776006 1_555
Ni0 O1 2.070073 1_455
Ni0 O0 2.070073 1_555
Ni0 O6 2.082752 1_555
Ni0 O7 2.082752 1_455
Ni0 O11 2.084397 1_555
Ni0 O10 2.084397 1_455
Ni1 O3 2.070073 1_555
Ni1 O2 2.070073 1_554
Ni1 O5 2.082752 1_555
Ni1 O4 2.082752 1_554
Ni1 O9 2.084397 1_555
Ni1 O8 2.084397 1_554
O0 Ru0 2.016655 1_556
O1 Ru0 2.016655 1_665
O2 Ru1 2.016655 1_565
O3 Ru1 2.016655 1_555
O4 Ru0 2.043150 1_666
O5 Ru0 2.043150 1_555
O6 Ru1 2.043150 1_555
O7 Ru1 2.043150 1_565
O8 Ru0 2.015130 1_566
O9 Ru0 2.015130 1_655
O10 Ru1 2.015130 1_555
O11 Ru1 2.015130 1_565
