# generated using pymatgen
data_FeH4
_symmetry_space_group_name_H-M   'P 1'
_cell_length_a   3.68771200
_cell_length_b   2.89684800
_cell_length_c   4.17890452
_cell_angle_alpha   77.70868117
_cell_angle_beta   90.00000000
_cell_angle_gamma   90.00000000
_symmetry_Int_Tables_number   1
_chemical_formula_structural   FeH4
_chemical_formula_sum   'Fe2 H8'
_cell_volume   43.61886056
_cell_formula_units_Z   2
loop_
 _symmetry_equiv_pos_site_id
 _symmetry_equiv_pos_as_xyz
  1  'x, y, z'
loop_
 _atom_site_type_symbol
 _atom_site_label
 _atom_site_symmetry_multiplicity
 _atom_site_fract_x
 _atom_site_fract_y
 _atom_site_fract_z
 _atom_site_occupancy
  Fe  Fe0  1  0.25000000  0.50308300  0.76433900  1
  Fe  Fe1  1  0.75000000  0.49691700  0.23566100  1
  H  H0  1  0.50144900  0.20637100  0.56876300  1
  H  H1  1  0.00144900  0.79362900  0.43123700  1
  H  H2  1  0.49855100  0.79362900  0.43123700  1
  H  H3  1  0.99855100  0.20637100  0.56876300  1
  H  H4  1  0.75000000  0.54685200  0.84984200  1
  H  H5  1  0.25000000  0.45314800  0.15015800  1
  H  H6  1  0.50000000  0.00000000  0.00000000  1
  H  H7  1  0.00000000  0.00000000  0.00000000  1
loop_
_geom_bond_atom_site_label_1
_geom_bond_atom_site_label_2
_geom_bond_distance
_geom_bond_site_symmetry_2
Fe0 H5 1.587810 1_556
Fe0 H0 1.601776 1_555
Fe0 H3 1.601776 1_455
Fe0 H2 1.728402 1_555
Fe0 H1 1.728402 1_555
Fe0 H7 1.825545 1_556
Fe0 H6 1.825545 1_556
Fe0 H4 1.887549 1_455
Fe0 H4 1.887549 1_555
Fe0 H6 2.120260 1_566
Fe0 H7 2.120260 1_566
Fe1 H4 1.587810 1_554
Fe1 H1 1.601776 1_655
Fe1 H2 1.601776 1_555
Fe1 H3 1.728402 1_555
Fe1 H0 1.728402 1_555
Fe1 H7 1.825545 1_665
Fe1 H6 1.825545 1_565
Fe1 H5 1.887549 1_655
Fe1 H5 1.887549 1_555
Fe1 H7 2.120260 1_655
Fe1 H6 2.120260 1_555
