# generated using pymatgen
data_K3V3O8
_symmetry_space_group_name_H-M   'P 1'
_cell_length_a   5.63815245
_cell_length_b   9.28302701
_cell_length_c   9.28767497
_cell_angle_alpha   63.45729972
_cell_angle_beta   72.34012993
_cell_angle_gamma   72.32529866
_symmetry_Int_Tables_number   1
_chemical_formula_structural   K3V3O8
_chemical_formula_sum   'K6 V6 O16'
_cell_volume   406.24797700
_cell_formula_units_Z   2
loop_
 _symmetry_equiv_pos_site_id
 _symmetry_equiv_pos_as_xyz
  1  'x, y, z'
loop_
 _atom_site_type_symbol
 _atom_site_label
 _atom_site_symmetry_multiplicity
 _atom_site_fract_x
 _atom_site_fract_y
 _atom_site_fract_z
 _atom_site_occupancy
  K  K0  1  0.99998291  -0.00000723  0.00000328  1
  K  K1  1  0.50001115  0.49999370  0.50000233  1
  K  K2  1  0.84213627  0.49091753  0.82467485  1
  K  K3  1  0.34214362  0.99093027  0.32465742  1
  K  K4  1  0.15785596  0.50906725  0.17534475  1
  K  K5  1  0.65786377  0.00908305  0.67532124  1
  V  V0  1  0.25000047  0.75000011  0.75000062  1
  V  V1  1  0.74999983  0.25000152  0.24999954  1
  V  V2  1  0.62880409  0.70484900  0.03782551  1
  V  V3  1  0.12880479  0.20486367  0.53782050  1
  V  V4  1  0.37119431  0.29513749  0.96218055  1
  V  V5  1  0.87119599  0.79515290  0.46217379  1
  O  O0  1  0.51606163  0.81692564  0.15071503  1
  O  O1  1  0.01606567  0.31693148  0.65071092  1
  O  O2  1  0.48393036  0.18307096  0.84928961  1
  O  O3  1  0.98394049  0.68307781  0.34928415  1
  O  O4  1  0.58081037  0.25274119  0.08745871  1
  O  O5  1  0.08081142  0.75274744  0.58746899  1
  O  O6  1  0.32929314  0.50421198  0.83669416  1
  O  O7  1  0.82928492  0.00423172  0.33669567  1
  O  O8  1  0.07865303  0.25255849  0.08727624  1
  O  O9  1  0.57864276  0.75255985  0.58728307  1
  O  O10  1  0.92136433  0.74744036  0.91271406  1
  O  O11  1  0.42134934  0.24744613  0.41272289  1
  O  O12  1  0.67071445  0.49576494  0.16330667  1
  O  O13  1  0.17071133  0.99578669  0.66330610  1
  O  O14  1  0.41918385  0.74725581  0.91252733  1
  O  O15  1  0.91918774  0.24726126  0.41254001  1
loop_
_geom_bond_atom_site_label_1
_geom_bond_atom_site_label_2
_geom_bond_distance
_geom_bond_site_symmetry_2
K0 O10 2.982943 1_544
K0 O8 2.983097 1_655
K0 O4 2.986911 1_555
K0 O14 2.986988 1_644
K0 O13 2.994498 1_644
K0 O7 2.994573 1_555
K0 O3 3.262030 1_545
K0 O1 3.262195 1_654
K0 O2 3.264307 1_554
K0 O0 3.264420 1_645
K0 O0 3.265577 1_545
K0 O2 3.265764 1_654
K1 O11 2.982954 1_555
K1 O9 2.983047 1_555
K1 O15 2.986847 1_555
K1 O5 2.987055 1_555
K1 O6 2.994494 1_555
K1 O12 2.994565 1_555
K1 O2 3.262098 1_555
K1 O0 3.262138 1_555
K1 O1 3.264286 1_655
K1 O3 3.264418 1_455
K1 O1 3.265670 1_555
K1 O3 3.265705 1_555
K2 O1 2.567097 1_655
K2 O5 2.823792 1_655
K2 O6 2.824188 1_655
K2 O9 2.824494 1_555
K2 O8 2.825110 1_656
K2 O6 2.826337 1_555
K2 O4 2.826602 1_556
K2 O12 3.013899 1_556
K2 O14 3.020578 1_555
K2 O10 3.024323 1_555
K3 O0 2.567075 1_555
K3 O4 2.823636 1_565
K3 O7 2.824186 1_565
K3 O8 2.824385 1_565
K3 O9 2.825235 1_555
K3 O7 2.826364 1_465
K3 O5 2.826745 1_555
K3 O13 3.014080 1_555
K3 O15 3.020649 1_465
K3 O11 3.024365 1_565
K4 O3 2.567096 1_455
K4 O15 2.823602 1_455
K4 O12 2.824189 1_455
K4 O11 2.824354 1_555
K4 O10 2.825251 1_454
K4 O12 2.826361 1_555
K4 O14 2.826782 1_554
K4 O6 3.014093 1_554
K4 O4 3.020627 1_555
K4 O8 3.024314 1_555
K5 O2 2.567143 1_555
K5 O14 2.823790 1_545
K5 O13 2.824156 1_545
K5 O10 2.824520 1_545
K5 O11 2.825094 1_555
K5 O13 2.826367 1_645
K5 O15 2.826598 1_555
K5 O7 3.013857 1_555
K5 O5 3.020548 1_645
K5 O9 3.024301 1_545
O0 V2 1.659758 1_555
O1 V3 1.659700 1_555
O2 V4 1.659694 1_555
O3 V5 1.659747 1_555
O4 V4 1.745885 1_554
O4 V1 2.003561 1_555
O5 V5 1.745981 1_455
O5 V0 2.003450 1_555
O6 V4 1.745862 1_555
O6 V0 2.002808 1_555
O7 V5 1.745877 1_545
O7 V1 2.002655 1_555
O8 V4 1.746241 1_554
O8 V1 2.003438 1_455
O9 V5 1.746359 1_555
O9 V0 2.003369 1_555
O10 V2 1.746393 1_556
O10 V0 2.003327 1_655
O11 V3 1.746268 1_555
O11 V1 2.003428 1_555
O12 V2 1.745921 1_555
O12 V1 2.002603 1_555
O13 V3 1.745879 1_565
O13 V0 2.002794 1_555
O14 V2 1.746021 1_556
O14 V0 2.003400 1_555
O15 V3 1.745903 1_655
O15 V1 2.003549 1_555
