# generated using pymatgen
data_NdSiGe
_symmetry_space_group_name_H-M   'P 1'
_cell_length_a   8.21926237
_cell_length_b   8.21926237
_cell_length_c   8.21926237
_cell_angle_alpha   150.87082209
_cell_angle_beta   150.74786056
_cell_angle_gamma   41.75474694
_symmetry_Int_Tables_number   1
_chemical_formula_structural   NdSiGe
_chemical_formula_sum   'Nd2 Si2 Ge2'
_cell_volume   131.77474603
_cell_formula_units_Z   2
loop_
 _symmetry_equiv_pos_site_id
 _symmetry_equiv_pos_as_xyz
  1  'x, y, z'
loop_
 _atom_site_type_symbol
 _atom_site_label
 _atom_site_symmetry_multiplicity
 _atom_site_fract_x
 _atom_site_fract_y
 _atom_site_fract_z
 _atom_site_occupancy
  Nd  Nd0  1  0.62948400  0.37948400  0.25000000  1
  Nd  Nd1  1  0.37051600  0.62051600  0.75000000  1
  Si  Si0  1  0.21353100  0.96353100  0.25000000  1
  Si  Si1  1  0.78646900  0.03646900  0.75000000  1
  Ge  Ge0  1  0.04954900  0.79954900  0.25000000  1
  Ge  Ge1  1  0.95045100  0.20045100  0.75000000  1
loop_
_geom_bond_atom_site_label_1
_geom_bond_atom_site_label_2
_geom_bond_distance
_geom_bond_site_symmetry_2
Nd0 Si1 3.175825 1_554
Nd0 Si1 3.175825 1_565
Nd0 Si0 3.200936 1_656
Nd0 Si0 3.200936 1_645
Nd0 Si0 3.200936 1_544
Nd0 Si0 3.200936 1_555
Nd1 Si0 3.175825 1_545
Nd1 Si0 3.175825 1_556
Nd1 Si1 3.200936 1_566
Nd1 Si1 3.200936 1_555
Nd1 Si1 3.200936 1_465
Nd1 Si1 3.200936 1_454
Si0 Si1 2.358490 1_464
Si0 Si1 2.358490 1_565
Ge0 Si0 2.518642 1_555
Ge0 Ge1 2.566868 1_454
Ge0 Ge1 2.566868 1_465
Ge0 Nd0 3.175992 1_465
Ge0 Nd0 3.175992 1_555
Ge0 Nd0 3.175992 1_566
Ge0 Nd0 3.175992 1_454
Ge0 Nd1 3.445133 1_454
Ge0 Nd1 3.445133 1_555
Ge1 Si1 2.518642 1_555
Ge1 Nd1 3.175992 1_656
Ge1 Nd1 3.175992 1_555
Ge1 Nd1 3.175992 1_544
Ge1 Nd1 3.175992 1_645
Ge1 Nd0 3.445133 1_555
Ge1 Nd0 3.445133 1_656
