# generated using pymatgen
data_Sr3LaMnCrO8
_symmetry_space_group_name_H-M   'P 1'
_cell_length_a   5.48082850
_cell_length_b   12.56312100
_cell_length_c   5.49430949
_cell_angle_alpha   90.00008364
_cell_angle_beta   90.00033222
_cell_angle_gamma   89.99899191
_symmetry_Int_Tables_number   1
_chemical_formula_structural   Sr3LaMnCrO8
_chemical_formula_sum   'Sr6 La2 Mn2 Cr2 O16'
_cell_volume   378.31788665
_cell_formula_units_Z   2
loop_
 _symmetry_equiv_pos_site_id
 _symmetry_equiv_pos_as_xyz
  1  'x, y, z'
loop_
 _atom_site_type_symbol
 _atom_site_label
 _atom_site_symmetry_multiplicity
 _atom_site_fract_x
 _atom_site_fract_y
 _atom_site_fract_z
 _atom_site_occupancy
  Sr  Sr0  1  0.49999900  0.14461400  0.00000100  1
  Sr  Sr1  1  0.50000500  0.64461800  0.50000000  1
  Sr  Sr2  1  0.00001300  0.14209200  0.50000100  1
  Sr  Sr3  1  0.00000300  0.64209100  0.99999300  1
  Sr  Sr4  1  0.00000000  0.35583800  0.99999800  1
  Sr  Sr5  1  0.00001000  0.85584300  0.49999900  1
  La  La0  1  0.50001100  0.35886300  0.50001000  1
  La  La1  1  0.49999600  0.85886300  0.00000500  1
  Mn  Mn0  1  0.00000800  0.50167500  0.49998800  1
  Mn  Mn1  1  0.00000600  0.00167800  0.00000500  1
  Cr  Cr0  1  0.50002100  0.00187700  0.49999300  1
  Cr  Cr1  1  0.49998900  0.50186600  0.00000900  1
  O  O0  1  0.00000400  0.33980300  0.49999900  1
  O  O1  1  0.99985900  0.83982800  0.00000000  1
  O  O2  1  0.50000400  0.33900500  0.99999500  1
  O  O3  1  0.50000600  0.83900800  0.50000300  1
  O  O4  1  0.50000900  0.17036700  0.50000000  1
  O  O5  1  0.50000100  0.67036300  0.00000000  1
  O  O6  1  0.00000700  0.15640300  0.99999700  1
  O  O7  1  0.00000600  0.65640200  0.49999900  1
  O  O8  1  0.24812100  0.49736400  0.74149500  1
  O  O9  1  0.24811500  0.99736400  0.24149600  1
  O  O10  1  0.75188800  0.49736100  0.25849900  1
  O  O11  1  0.75190000  0.99736500  0.75850100  1
  O  O12  1  0.75189000  0.49736300  0.74151000  1
  O  O13  1  0.75190100  0.99736600  0.24149900  1
  O  O14  1  0.24811300  0.49736200  0.25849800  1
  O  O15  1  0.24811700  0.99736500  0.75850700  1
loop_
_geom_bond_atom_site_label_1
_geom_bond_atom_site_label_2
_geom_bond_distance
_geom_bond_site_symmetry_2
La0 O4 2.368098 1_555
La0 O8 2.587255 1_555
La0 O12 2.587281 1_555
La0 O10 2.587300 1_555
La0 O14 2.587332 1_555
La0 O0 2.750813 1_655
La0 O0 2.750898 1_555
La0 O2 2.758378 1_555
La0 O2 2.758541 1_554
La1 O5 2.368148 1_555
La1 O9 2.587246 1_555
La1 O15 2.587263 1_554
La1 O13 2.587366 1_555
La1 O11 2.587393 1_554
La1 O1 2.750076 1_555
La1 O1 2.751581 1_455
La1 O3 2.758445 1_555
La1 O3 2.758467 1_554
Mn0 O14 1.900663 1_555
Mn0 O10 1.900709 1_455
Mn0 O8 1.900748 1_555
Mn0 O12 1.900838 1_455
Mn0 O7 1.943854 1_555
Mn0 O0 2.033618 1_555
Mn1 O9 1.900672 1_545
Mn1 O13 1.900680 1_445
Mn1 O11 1.900711 1_444
Mn1 O15 1.900717 1_544
Mn1 O6 1.943829 1_554
Mn1 O1 2.033341 1_445
Cr0 O13 1.981449 1_545
Cr0 O11 1.981490 1_545
Cr0 O9 1.981551 1_545
Cr0 O15 1.981622 1_545
Cr0 O3 2.046143 1_545
Cr0 O4 2.116760 1_555
Cr1 O14 1.981413 1_555
Cr1 O8 1.981469 1_554
Cr1 O10 1.981493 1_555
Cr1 O12 1.981546 1_554
Cr1 O2 2.046042 1_554
Cr1 O5 2.116848 1_555
O0 Sr2 2.483867 1_555
O0 Sr4 2.754525 1_555
O0 Sr4 2.754537 1_554
O1 Sr3 2.484194 1_654
O1 Sr5 2.754507 1_655
O1 Sr5 2.754519 1_654
O2 Sr0 2.442158 1_556
O2 Sr4 2.748544 1_655
O2 Sr4 2.748580 1_555
O3 Sr1 2.442145 1_555
O3 Sr5 2.748538 1_555
O3 Sr5 2.748589 1_655
O4 Sr2 2.763325 1_555
O4 Sr2 2.763356 1_655
O4 Sr0 2.766135 1_555
O4 Sr0 2.766147 1_556
O5 Sr3 2.763331 1_554
O5 Sr3 2.763341 1_654
O5 Sr1 2.766129 1_554
O5 Sr1 2.766130 1_555
O6 Sr4 2.505526 1_555
O6 Sr0 2.744367 1_556
O6 Sr0 2.744460 1_456
O6 Sr2 2.753010 1_555
O6 Sr2 2.753054 1_556
O7 Sr5 2.505601 1_555
O7 Sr1 2.744402 1_555
O7 Sr1 2.744418 1_455
O7 Sr3 2.752999 1_555
O7 Sr3 2.753064 1_554
O8 Sr4 2.651041 1_555
O8 Sr1 2.662500 1_555
O8 Sr3 2.678121 1_555
O9 Sr5 2.650954 1_555
O9 Sr0 2.662465 1_565
O9 Sr2 2.678105 1_565
O10 Sr4 2.650950 1_654
O10 Sr1 2.662503 1_555
O10 Sr3 2.678196 1_654
O11 Sr5 2.650939 1_655
O11 Sr0 2.662482 1_566
O11 Sr2 2.678148 1_665
O12 Sr4 2.650917 1_655
O12 Sr1 2.662511 1_555
O12 Sr3 2.678096 1_655
O13 Sr5 2.650933 1_655
O13 Sr0 2.662465 1_565
O13 Sr2 2.678131 1_665
O14 Sr4 2.650982 1_554
O14 Sr1 2.662548 1_555
O14 Sr3 2.678130 1_554
O15 Sr5 2.650972 1_555
O15 Sr0 2.662437 1_566
O15 Sr2 2.678099 1_565
