# generated using pymatgen
data_Mg3Si4
_symmetry_space_group_name_H-M   'P 1'
_cell_length_a   5.35332900
_cell_length_b   7.01231671
_cell_length_c   7.62456108
_cell_angle_alpha   117.27498750
_cell_angle_beta   90.26306569
_cell_angle_gamma   90.33618681
_symmetry_Int_Tables_number   1
_chemical_formula_structural   Mg3Si4
_chemical_formula_sum   'Mg6 Si8'
_cell_volume   254.38458698
_cell_formula_units_Z   2
loop_
 _symmetry_equiv_pos_site_id
 _symmetry_equiv_pos_as_xyz
  1  'x, y, z'
loop_
 _atom_site_type_symbol
 _atom_site_label
 _atom_site_symmetry_multiplicity
 _atom_site_fract_x
 _atom_site_fract_y
 _atom_site_fract_z
 _atom_site_occupancy
  Mg  Mg0  1  0.36235200  0.42416800  0.74862800  1
  Mg  Mg1  1  0.86451000  0.74996600  0.89391100  1
  Mg  Mg2  1  0.52969700  0.97012900  0.35416600  1
  Mg  Mg3  1  0.24533200  0.72339700  0.57483400  1
  Mg  Mg4  1  0.73969600  0.45724600  0.06886600  1
  Mg  Mg5  1  0.03006600  0.20775400  0.28826400  1
  Si  Si0  1  0.02439900  0.80735700  0.29095100  1
  Si  Si1  1  0.75749100  0.70508100  0.50610400  1
  Si  Si2  1  0.85686800  0.29738200  0.66601500  1
  Si  Si3  1  0.08900200  0.13494600  0.86581300  1
  Si  Si4  1  0.35876300  0.88452900  0.97388700  1
  Si  Si5  1  0.25405300  0.47234800  0.13464600  1
  Si  Si6  1  0.52450000  0.37085700  0.35232000  1
  Si  Si7  1  0.61661200  0.04151100  0.78184500  1
loop_
_geom_bond_atom_site_label_1
_geom_bond_atom_site_label_2
_geom_bond_distance
_geom_bond_site_symmetry_2
Mg0 Si2 2.779406 1_555
Mg0 Si2 2.820036 1_455
Mg0 Si5 2.866949 1_556
Mg0 Si4 2.879386 1_555
Mg0 Si3 2.948035 1_555
Mg0 Si6 3.002721 1_555
Mg0 Si7 3.127228 1_555
Mg1 Si4 2.773359 1_655
Mg1 Si2 2.834902 1_555
Mg1 Si4 2.847836 1_555
Mg1 Si7 2.879806 1_565
Mg1 Si1 2.880912 1_555
Mg1 Si0 2.985705 1_656
Mg1 Si3 3.045059 1_665
Mg2 Si6 2.816809 1_565
Mg2 Si4 2.824639 1_554
Mg2 Si0 2.844575 1_655
Mg2 Si1 2.875849 1_555
Mg2 Si0 2.880949 1_555
Mg2 Si2 2.983440 1_565
Mg2 Si7 3.096390 1_565
Mg3 Si1 2.652025 1_455
Mg3 Si6 2.728704 1_555
Mg3 Si0 2.753742 1_555
Mg3 Si4 2.779742 1_555
Mg3 Si1 2.786391 1_555
Mg3 Si7 2.847809 1_565
Mg3 Si3 2.851002 1_565
Mg3 Si5 2.992129 1_555
Mg4 Si5 2.643536 1_555
Mg4 Si0 2.709217 1_655
Mg4 Si6 2.753102 1_555
Mg4 Si5 2.789240 1_655
Mg4 Si7 2.799832 1_554
Mg4 Si3 2.805489 1_654
Mg4 Si2 2.820413 1_554
Mg4 Si1 2.971247 1_555
Mg5 Si2 2.814681 1_455
Mg5 Si0 2.817145 1_545
Mg5 Si6 2.827224 1_555
Mg5 Si5 2.868937 1_555
Mg5 Si6 2.899669 1_455
Mg5 Si4 3.014174 1_544
Mg5 Si3 3.039585 1_554
Si0 Si5 2.435533 1_555
Si0 Si1 2.516910 1_455
Si1 Si6 2.420126 1_555
Si1 Si7 2.458468 1_565
Si2 Si3 2.598453 1_655
Si2 Si7 2.662553 1_555
Si3 Si5 2.468599 1_556
Si3 Si7 2.610656 1_455
Si3 Si4 2.681986 1_545
Si3 Si7 2.910440 1_555
Si4 Si7 2.595987 1_565
Si5 Si6 2.535684 1_555
