# generated using pymatgen
data_MgVNiP2O9
_symmetry_space_group_name_H-M   'P 1'
_cell_length_a   6.29233500
_cell_length_b   7.30655300
_cell_length_c   14.16946400
_cell_angle_alpha   90.00000000
_cell_angle_beta   90.00000000
_cell_angle_gamma   90.00000000
_symmetry_Int_Tables_number   1
_chemical_formula_structural   MgVNiP2O9
_chemical_formula_sum   'Mg4 V4 Ni4 P8 O36'
_cell_volume   651.44506311
_cell_formula_units_Z   4
loop_
 _symmetry_equiv_pos_site_id
 _symmetry_equiv_pos_as_xyz
  1  'x, y, z'
loop_
 _atom_site_type_symbol
 _atom_site_label
 _atom_site_symmetry_multiplicity
 _atom_site_fract_x
 _atom_site_fract_y
 _atom_site_fract_z
 _atom_site_occupancy
  Mg  Mg0  1  0.25000000  0.88944800  0.77578300  1
  Mg  Mg1  1  0.25000000  0.61055200  0.27578300  1
  Mg  Mg2  1  0.75000000  0.11055200  0.22421700  1
  Mg  Mg3  1  0.75000000  0.38944800  0.72421700  1
  V  V0  1  0.25000000  0.34655500  0.88196400  1
  V  V1  1  0.75000000  0.65344500  0.11803600  1
  V  V2  1  0.75000000  0.84655500  0.61803600  1
  V  V3  1  0.25000000  0.15344500  0.38196400  1
  Ni  Ni0  1  0.00000000  0.00000000  0.00000000  1
  Ni  Ni1  1  0.00000000  0.50000000  0.50000000  1
  Ni  Ni2  1  0.50000000  0.50000000  0.50000000  1
  Ni  Ni3  1  0.50000000  0.00000000  0.00000000  1
  P  P0  1  0.75000000  0.35461800  0.93198400  1
  P  P1  1  0.25000000  0.64538200  0.06801600  1
  P  P2  1  0.25000000  0.85461800  0.56801600  1
  P  P3  1  0.75000000  0.14538200  0.43198400  1
  P  P4  1  0.25000000  0.38335400  0.69523300  1
  P  P5  1  0.75000000  0.61664600  0.30476700  1
  P  P6  1  0.75000000  0.88335400  0.80476700  1
  P  P7  1  0.25000000  0.11664600  0.19523300  1
  O  O0  1  0.53920900  0.60901000  0.36113100  1
  O  O1  1  0.03920900  0.39099000  0.63886900  1
  O  O2  1  0.46079100  0.10901000  0.13886900  1
  O  O3  1  0.96079100  0.89099000  0.86113100  1
  O  O4  1  0.46079100  0.39099000  0.63886900  1
  O  O5  1  0.96079100  0.60901000  0.36113100  1
  O  O6  1  0.53920900  0.89099000  0.86113100  1
  O  O7  1  0.03920900  0.10901000  0.13886900  1
  O  O8  1  0.75000000  0.33285200  0.47873500  1
  O  O9  1  0.25000000  0.66714800  0.52126500  1
  O  O10  1  0.25000000  0.83285200  0.02126500  1
  O  O11  1  0.75000000  0.16714800  0.97873500  1
  O  O12  1  0.25000000  0.14469300  0.94366500  1
  O  O13  1  0.75000000  0.85530700  0.05633500  1
  O  O14  1  0.75000000  0.64469300  0.55633500  1
  O  O15  1  0.25000000  0.35530700  0.44366500  1
  O  O16  1  0.25000000  0.20441900  0.75716100  1
  O  O17  1  0.75000000  0.79558100  0.24283900  1
  O  O18  1  0.75000000  0.70441900  0.74283900  1
  O  O19  1  0.25000000  0.29558100  0.25716100  1
  O  O20  1  0.93733900  0.12610400  0.36116300  1
  O  O21  1  0.43733900  0.87389600  0.63883700  1
  O  O22  1  0.06266100  0.62610400  0.13883700  1
  O  O23  1  0.56266100  0.37389600  0.86116300  1
  O  O24  1  0.06266100  0.87389600  0.63883700  1
  O  O25  1  0.56266100  0.12610400  0.36116300  1
  O  O26  1  0.93733900  0.37389600  0.86116300  1
  O  O27  1  0.43733900  0.62610400  0.13883700  1
  O  O28  1  0.25000000  0.95829700  0.27115500  1
  O  O29  1  0.75000000  0.04170300  0.72884500  1
  O  O30  1  0.75000000  0.45829700  0.22884500  1
  O  O31  1  0.25000000  0.54170300  0.77115500  1
  O  O32  1  0.25000000  0.99712400  0.49093800  1
  O  O33  1  0.75000000  0.00287600  0.50906200  1
  O  O34  1  0.75000000  0.49712400  0.00906200  1
  O  O35  1  0.25000000  0.50287600  0.99093800  1
loop_
_geom_bond_atom_site_label_1
_geom_bond_atom_site_label_2
_geom_bond_distance
_geom_bond_site_symmetry_2
Mg0 O6 2.185015 1_555
Mg0 O3 2.185015 1_455
Mg0 O21 2.273287 1_555
Mg0 O24 2.273287 1_555
Mg0 O16 2.316430 1_565
Mg0 O31 2.541663 1_555
Mg1 O0 2.185015 1_555
Mg1 O5 2.185015 1_455
Mg1 O22 2.273287 1_555
Mg1 O27 2.273287 1_555
Mg1 O19 2.316430 1_555
Mg1 O28 2.541663 1_555
Mg2 O2 2.185015 1_555
Mg2 O7 2.185015 1_655
Mg2 O20 2.273287 1_555
Mg2 O25 2.273287 1_555
Mg2 O17 2.316430 1_545
Mg2 O30 2.541663 1_555
Mg3 O4 2.185015 1_555
Mg3 O1 2.185015 1_655
Mg3 O26 2.273287 1_555
Mg3 O23 2.273287 1_555
Mg3 O18 2.316430 1_555
Mg3 O29 2.541663 1_555
Ni0 O11 2.014174 1_454
Ni0 O10 2.014174 1_545
Ni0 O13 2.056565 1_445
Ni0 O12 2.056565 1_554
Ni0 O7 2.137078 1_555
Ni0 O3 2.137078 1_444
Ni1 O9 2.014174 1_555
Ni1 O8 2.014174 1_455
Ni1 O14 2.056565 1_455
Ni1 O15 2.056565 1_555
Ni1 O1 2.137078 1_555
Ni1 O5 2.137078 1_455
Ni2 O9 2.014174 1_555
Ni2 O8 2.014174 1_555
Ni2 O14 2.056565 1_555
Ni2 O15 2.056565 1_555
Ni2 O0 2.137078 1_555
Ni2 O4 2.137078 1_555
Ni3 O11 2.014174 1_554
Ni3 O10 2.014174 1_545
Ni3 O13 2.056565 1_545
Ni3 O12 2.056565 1_554
Ni3 O6 2.137078 1_544
Ni3 O2 2.137078 1_555
O0 P5 1.549259 1_555
O1 P4 1.549259 1_555
O2 P7 1.549259 1_555
O3 P6 1.549259 1_555
O4 P4 1.549259 1_555
O5 P5 1.549259 1_555
O6 P6 1.549259 1_555
O7 P7 1.549259 1_555
O8 P3 1.521533 1_555
O9 P2 1.521533 1_555
O10 P1 1.521533 1_555
O11 P0 1.521533 1_555
O12 V0 1.714562 1_555
O13 V1 1.714562 1_555
O14 V2 1.714562 1_555
O15 V3 1.714562 1_555
O16 P4 1.574571 1_555
O16 V0 2.050790 1_555
O17 P5 1.574571 1_555
O17 V1 2.050790 1_555
O18 P6 1.574571 1_555
O18 V2 2.050790 1_555
O19 P7 1.574571 1_555
O19 V3 2.050790 1_555
O20 P3 1.554481 1_555
O20 V3 1.999328 1_655
O21 P2 1.554481 1_555
O21 V2 1.999328 1_555
O22 P1 1.554481 1_555
O22 V1 1.999328 1_455
O23 P0 1.554481 1_555
O23 V0 1.999328 1_555
O24 P2 1.554481 1_555
O24 V2 1.999328 1_455
O25 P3 1.554481 1_555
O25 V3 1.999328 1_555
O26 P0 1.554481 1_555
O26 V0 1.999328 1_655
O27 P1 1.554481 1_555
O27 V1 1.999328 1_555
O28 P7 1.579843 1_565
O28 V3 2.120920 1_565
O29 P6 1.579843 1_545
O29 V2 2.120920 1_545
O30 P5 1.579843 1_555
O30 V1 2.120920 1_555
O31 P4 1.579843 1_555
O31 V0 2.120920 1_555
O32 P2 1.508958 1_555
O32 V3 1.920625 1_565
O33 P3 1.508958 1_555
O33 V2 1.920625 1_545
O34 P0 1.508958 1_554
O34 V1 1.920625 1_555
O35 P1 1.508958 1_556
O35 V0 1.920625 1_555
