# generated using pymatgen
data_Rb2LiPu(Cl2O)2
_symmetry_space_group_name_H-M   'P 1'
_cell_length_a   6.01308846
_cell_length_b   7.25294265
_cell_length_c   7.32109610
_cell_angle_alpha   62.45293234
_cell_angle_beta   93.75576390
_cell_angle_gamma   90.23196776
_symmetry_Int_Tables_number   1
_chemical_formula_structural   Rb2LiPu(Cl2O)2
_chemical_formula_sum   'Rb2 Li1 Pu1 Cl4 O2'
_cell_volume   282.36188091
_cell_formula_units_Z   1
loop_
 _symmetry_equiv_pos_site_id
 _symmetry_equiv_pos_as_xyz
  1  'x, y, z'
loop_
 _atom_site_type_symbol
 _atom_site_label
 _atom_site_symmetry_multiplicity
 _atom_site_fract_x
 _atom_site_fract_y
 _atom_site_fract_z
 _atom_site_occupancy
  Rb  Rb0  1  0.77128400  0.89389500  0.77195700  1
  Rb  Rb1  1  0.23736500  0.17567800  0.10587300  1
  Li  Li0  1  0.98105300  0.57314500  0.39007600  1
  Pu  Pu0  1  0.48541000  0.49791500  0.49100500  1
  Cl  Cl0  1  0.72646800  0.86051100  0.32070700  1
  Cl  Cl1  1  0.70972300  0.38951000  0.86451100  1
  Cl  Cl2  1  0.26291300  0.13390000  0.62029700  1
  Cl  Cl3  1  0.21970800  0.62911600  0.12039500  1
  O  O0  1  0.72253300  0.38677100  0.42529500  1
  O  O1  1  0.24812600  0.60770800  0.55655200  1
loop_
_geom_bond_atom_site_label_1
_geom_bond_atom_site_label_2
_geom_bond_distance
_geom_bond_site_symmetry_2
Li0 O0 2.005824 1_555
Li0 O1 2.037211 1_655
Cl0 Li0 2.427017 1_555
Cl0 Rb0 3.415852 1_555
Cl0 Rb1 3.531516 1_565
Cl0 Rb1 3.793061 1_665
Cl1 Pu0 2.729760 1_555
Cl1 Rb1 3.417925 1_556
Cl1 Rb0 3.421729 1_555
Cl1 Rb1 3.516340 1_656
Cl2 Pu0 2.735370 1_555
Cl2 Rb0 3.379084 1_545
Cl2 Rb0 3.406284 1_445
Cl2 Rb1 3.628817 1_555
Cl2 Rb1 3.717709 1_556
Cl3 Li0 2.397372 1_455
Cl3 Pu0 2.806460 1_555
Cl3 Rb1 3.341592 1_555
Cl3 Rb0 3.474991 1_454
Cl3 Rb1 3.917341 1_565
O0 Pu0 1.836341 1_555
O0 Rb0 3.290218 1_545
O1 Pu0 1.830998 1_555
