# generated using pymatgen
data_Al4Ge2W3
_symmetry_space_group_name_H-M   'P 1'
_cell_length_a   4.82547225
_cell_length_b   4.82547225
_cell_length_c   6.69110935
_cell_angle_alpha   89.90170841
_cell_angle_beta   89.90170841
_cell_angle_gamma   120.03367693
_symmetry_Int_Tables_number   1
_chemical_formula_structural   Al4Ge2W3
_chemical_formula_sum   'Al4 Ge2 W3'
_cell_volume   134.88335691
_cell_formula_units_Z   1
loop_
 _symmetry_equiv_pos_site_id
 _symmetry_equiv_pos_as_xyz
  1  'x, y, z'
loop_
 _atom_site_type_symbol
 _atom_site_label
 _atom_site_symmetry_multiplicity
 _atom_site_fract_x
 _atom_site_fract_y
 _atom_site_fract_z
 _atom_site_occupancy
  Al  Al0  1  0.15216449  0.84783551  0.50000000  1
  Al  Al1  1  0.35146363  0.17594337  0.16937132  1
  Al  Al2  1  0.82405663  0.64853637  0.83062868  1
  Al  Al3  1  0.81943718  0.18056282  0.50000000  1
  Ge  Ge0  1  0.69697734  0.84569327  0.17055025  1
  Ge  Ge1  1  0.15430673  0.30302266  0.82944975  1
  W  W0  1  0.03170098  0.51564962  0.15899807  1
  W  W1  1  0.48435038  0.96829902  0.84100193  1
  W  W2  1  0.48592964  0.51407036  0.50000000  1
loop_
_geom_bond_atom_site_label_1
_geom_bond_atom_site_label_2
_geom_bond_distance
_geom_bond_site_symmetry_2
Al0 Al1 2.604281 1_565
Al0 Al2 2.604281 1_455
Al0 W0 2.682871 1_555
Al0 W1 2.682871 1_555
Al0 W2 2.783238 1_455
Al0 W2 2.783238 1_565
Al0 W2 2.790070 1_555
Al1 W1 2.624602 1_544
Al1 W2 2.633419 1_555
Al1 Ge1 2.653473 1_554
Al1 Ge0 2.734176 1_445
Al1 W0 2.757665 1_555
Al1 W0 2.759981 1_545
Al1 Ge0 2.798398 1_555
Al1 Ge0 2.824735 1_545
Al1 W0 2.842378 1_655
Al2 W0 2.624602 1_656
Al2 W2 2.633419 1_555
Al2 Ge0 2.653473 1_556
Al2 Ge1 2.734176 1_665
Al2 W1 2.757665 1_555
Al2 W1 2.759981 1_655
Al2 Ge1 2.798398 1_555
Al2 Ge1 2.824735 1_655
Al2 W1 2.842378 1_545
Al3 Ge0 2.623068 1_545
Al3 Ge1 2.623068 1_655
Al3 W1 2.681637 1_545
Al3 W0 2.681637 1_655
Al3 W2 2.784314 1_545
Al3 W2 2.784314 1_655
Al3 W2 2.787917 1_555
Ge0 W2 2.608843 1_555
Ge0 W1 2.622195 1_554
Ge0 W0 2.779618 1_655
Ge0 W0 2.780573 1_555
Ge0 W0 2.799624 1_665
Ge1 W2 2.608843 1_555
Ge1 W0 2.622195 1_556
Ge1 W1 2.779618 1_545
Ge1 W1 2.780573 1_555
Ge1 W1 2.799624 1_445
