# generated using pymatgen
data_TmAsSe
_symmetry_space_group_name_H-M   'P 1'
_cell_length_a   3.87337900
_cell_length_b   3.88647800
_cell_length_c   17.40454100
_cell_angle_alpha   90.00000000
_cell_angle_beta   90.00000000
_cell_angle_gamma   90.00000000
_symmetry_Int_Tables_number   1
_chemical_formula_structural   TmAsSe
_chemical_formula_sum   'Tm4 As4 Se4'
_cell_volume   262.00451880
_cell_formula_units_Z   4
loop_
 _symmetry_equiv_pos_site_id
 _symmetry_equiv_pos_as_xyz
  1  'x, y, z'
loop_
 _atom_site_type_symbol
 _atom_site_label
 _atom_site_symmetry_multiplicity
 _atom_site_fract_x
 _atom_site_fract_y
 _atom_site_fract_z
 _atom_site_occupancy
  Tm  Tm0  1  0.75000000  0.24088500  0.86109900  1
  Tm  Tm1  1  0.75000000  0.25911500  0.36109900  1
  Tm  Tm2  1  0.25000000  0.75911500  0.13890100  1
  Tm  Tm3  1  0.25000000  0.74088500  0.63890100  1
  As  As0  1  0.25000000  0.22571300  0.50080800  1
  As  As1  1  0.25000000  0.27428700  0.00080800  1
  As  As2  1  0.75000000  0.77428700  0.49919200  1
  As  As3  1  0.75000000  0.72571300  0.99919200  1
  Se  Se0  1  0.75000000  0.24211900  0.68809200  1
  Se  Se1  1  0.75000000  0.25788100  0.18809200  1
  Se  Se2  1  0.25000000  0.75788000  0.31190800  1
  Se  Se3  1  0.25000000  0.74212000  0.81190800  1
loop_
_geom_bond_atom_site_label_1
_geom_bond_atom_site_label_2
_geom_bond_distance
_geom_bond_site_symmetry_2
As0 As2 2.613365 1_445
As0 As2 2.613365 1_545
As0 As2 2.880463 1_455
As0 As2 2.880463 1_555
As0 Tm3 3.054020 1_545
As0 Tm1 3.111295 1_455
As0 Tm1 3.111295 1_555
As0 Tm3 3.128158 1_555
As1 As3 2.613365 1_454
As1 As3 2.613365 1_554
As1 As3 2.880463 1_444
As1 As3 2.880463 1_544
As1 Tm2 3.054020 1_555
As1 Tm0 3.111295 1_554
As1 Tm0 3.111295 1_454
As1 Tm2 3.128158 1_545
As2 Tm1 3.054020 1_565
As2 Tm3 3.111295 1_655
As2 Tm3 3.111295 1_555
As2 Tm1 3.128158 1_555
As3 Tm0 3.054020 1_555
As3 Tm2 3.111295 1_656
As3 Tm2 3.111295 1_556
As3 Tm0 3.128158 1_565
Se0 Tm3 2.870769 1_655
Se0 Tm3 2.870769 1_555
Se0 Tm3 2.877255 1_545
Se0 Tm3 2.877255 1_645
Se0 Tm0 3.011111 1_555
Se1 Tm2 2.870769 1_645
Se1 Tm2 2.870769 1_545
Se1 Tm2 2.877255 1_655
Se1 Tm2 2.877255 1_555
Se1 Tm1 3.011111 1_555
Se2 Tm1 2.870766 1_455
Se2 Tm1 2.870766 1_555
Se2 Tm1 2.877257 1_565
Se2 Tm1 2.877257 1_465
Se2 Tm2 3.011111 1_555
Se3 Tm0 2.870766 1_565
Se3 Tm0 2.870766 1_465
Se3 Tm0 2.877257 1_455
Se3 Tm0 2.877257 1_555
Se3 Tm3 3.011111 1_555
