# generated using pymatgen
data_Sr2ErMoO6
_symmetry_space_group_name_H-M   'P 1'
_cell_length_a   5.88272400
_cell_length_b   5.80698000
_cell_length_c   10.11651758
_cell_angle_alpha   55.44190699
_cell_angle_beta   90.00000000
_cell_angle_gamma   90.00000000
_symmetry_Int_Tables_number   1
_chemical_formula_structural   Sr2ErMoO6
_chemical_formula_sum   'Sr4 Er2 Mo2 O12'
_cell_volume   284.61028786
_cell_formula_units_Z   2
loop_
 _symmetry_equiv_pos_site_id
 _symmetry_equiv_pos_as_xyz
  1  'x, y, z'
loop_
 _atom_site_type_symbol
 _atom_site_label
 _atom_site_symmetry_multiplicity
 _atom_site_fract_x
 _atom_site_fract_y
 _atom_site_fract_z
 _atom_site_occupancy
  Sr  Sr0  1  0.03675000  0.24378100  0.75193300  1
  Sr  Sr1  1  0.53675000  0.75621900  0.74806700  1
  Sr  Sr2  1  0.46325000  0.24378100  0.25193300  1
  Sr  Sr3  1  0.96325000  0.75621900  0.24806700  1
  Er  Er0  1  0.00000000  0.50000000  0.00000000  1
  Er  Er1  1  0.50000000  0.50000000  0.50000000  1
  Mo  Mo0  1  0.00000000  0.00000000  0.50000000  1
  Mo  Mo1  1  0.50000000  0.00000000  0.00000000  1
  O  O0  1  0.02225300  0.31308200  0.26119700  1
  O  O1  1  0.52225300  0.68691800  0.23880300  1
  O  O2  1  0.97774700  0.68691800  0.73880300  1
  O  O3  1  0.47774700  0.31308200  0.76119700  1
  O  O4  1  0.21810800  0.15569600  0.04098200  1
  O  O5  1  0.71810800  0.84430400  0.45901800  1
  O  O6  1  0.78189200  0.84430400  0.95901800  1
  O  O7  1  0.28189200  0.15569600  0.54098200  1
  O  O8  1  0.30827700  0.76360100  0.96464400  1
  O  O9  1  0.80827700  0.23639900  0.53535600  1
  O  O10  1  0.69172300  0.23639900  0.03535600  1
  O  O11  1  0.19172300  0.76360100  0.46464400  1
loop_
_geom_bond_atom_site_label_1
_geom_bond_atom_site_label_2
_geom_bond_distance
_geom_bond_site_symmetry_2
Er0 O6 2.207989 1_454
Er0 O4 2.207989 1_555
Er0 O2 2.218949 1_454
Er0 O0 2.218949 1_555
Er0 O8 2.266876 1_554
Er0 O10 2.266876 1_455
Er1 O5 2.207989 1_555
Er1 O7 2.207989 1_555
Er1 O3 2.218949 1_555
Er1 O1 2.218949 1_555
Er1 O9 2.266876 1_555
Er1 O11 2.266876 1_555
Mo0 O11 1.959978 1_545
Mo0 O9 1.959978 1_455
Mo0 O7 2.040715 1_555
Mo0 O5 2.040715 1_445
Mo0 O0 2.043525 1_555
Mo0 O2 2.043525 1_445
Mo1 O10 1.959978 1_555
Mo1 O8 1.959978 1_544
Mo1 O6 2.040715 1_544
Mo1 O4 2.040715 1_555
Mo1 O1 2.043525 1_545
Mo1 O3 2.043525 1_554
O0 Sr3 2.524312 1_455
O0 Sr2 2.635095 1_555
O1 Sr2 2.524312 1_555
O1 Sr3 2.635095 1_555
O2 Sr0 2.524312 1_655
O2 Sr1 2.635095 1_555
O3 Sr1 2.524312 1_555
O3 Sr0 2.635095 1_555
O4 Sr3 2.550407 1_445
O4 Sr2 2.852025 1_555
O4 Sr0 2.872934 1_554
O5 Sr2 2.550407 1_565
O5 Sr3 2.852025 1_555
O5 Sr1 2.872934 1_555
O6 Sr0 2.550407 1_665
O6 Sr1 2.852025 1_555
O6 Sr3 2.872934 1_556
O7 Sr1 2.550407 1_545
O7 Sr0 2.852025 1_555
O7 Sr2 2.872934 1_555
O8 Sr1 2.591399 1_555
O8 Sr0 2.854812 1_565
O8 Sr2 2.904651 1_556
O9 Sr0 2.591399 1_655
O9 Sr1 2.854812 1_545
O9 Sr3 2.904651 1_555
O10 Sr2 2.591399 1_555
O10 Sr3 2.854812 1_545
O10 Sr1 2.904651 1_554
O11 Sr3 2.591399 1_455
O11 Sr2 2.854812 1_565
O11 Sr0 2.904651 1_555
