# generated using pymatgen
data_Ba4Ti11O26
_symmetry_space_group_name_H-M   'P 1'
_cell_length_a   7.85805400
_cell_length_b   7.92014738
_cell_length_c   10.04550049
_cell_angle_alpha   76.16171673
_cell_angle_beta   67.00024005
_cell_angle_gamma   75.70259487
_symmetry_Int_Tables_number   1
_chemical_formula_structural   Ba4Ti11O26
_chemical_formula_sum   'Ba4 Ti11 O26'
_cell_volume   550.49516834
_cell_formula_units_Z   1
loop_
 _symmetry_equiv_pos_site_id
 _symmetry_equiv_pos_as_xyz
  1  'x, y, z'
loop_
 _atom_site_type_symbol
 _atom_site_label
 _atom_site_symmetry_multiplicity
 _atom_site_fract_x
 _atom_site_fract_y
 _atom_site_fract_z
 _atom_site_occupancy
  Ba  Ba0  1  0.86111800  0.09301000  0.23090700  1
  Ba  Ba1  1  0.36538500  0.09578700  0.22221400  1
  Ba  Ba2  1  0.14253800  0.87802000  0.76330700  1
  Ba  Ba3  1  0.65291000  0.88602400  0.76485800  1
  Ti  Ti0  1  0.37443000  0.34519700  0.56519800  1
  Ti  Ti1  1  0.88801800  0.34612600  0.56731000  1
  Ti  Ti2  1  0.61363600  0.66327200  0.44115900  1
  Ti  Ti3  1  0.10859300  0.66590300  0.44947500  1
  Ti  Ti4  1  0.22659200  0.25092300  0.89374300  1
  Ti  Ti5  1  0.75298500  0.24386000  0.89964900  1
  Ti  Ti6  1  0.76660300  0.76015700  0.08491500  1
  Ti  Ti7  1  0.26243400  0.76710600  0.09338400  1
  Ti  Ti8  1  0.48804000  0.50708700  0.77674000  1
  Ti  Ti9  1  0.01740000  0.47623300  0.22970400  1
  Ti  Ti10  1  0.51413200  0.47771500  0.22979000  1
  O  O0  1  0.26307200  0.46535400  0.75849200  1
  O  O1  1  0.74543800  0.46561400  0.75765200  1
  O  O2  1  0.74784300  0.52717100  0.24154000  1
  O  O3  1  0.25450300  0.51115500  0.23426300  1
  O  O4  1  0.61391500  0.39985300  0.57165000  1
  O  O5  1  0.12242400  0.40214300  0.55379500  1
  O  O6  1  0.38459200  0.59996300  0.43136400  1
  O  O7  1  0.88419000  0.60039800  0.43071100  1
  O  O8  1  0.50645300  0.73409800  0.62110100  1
  O  O9  1  0.00681500  0.79265000  0.58762000  1
  O  O10  1  0.49751100  0.26742800  0.38240300  1
  O  O11  1  0.98598300  0.26878300  0.38203700  1
  O  O12  1  0.37903100  0.66029100  0.91344900  1
  O  O13  1  0.86775200  0.69246800  0.91688600  1
  O  O14  1  0.62770200  0.34357300  0.08603100  1
  O  O15  1  0.11574800  0.33869100  0.08657500  1
  O  O16  1  0.48315600  0.27143100  0.89569300  1
  O  O17  1  0.98874400  0.22691500  0.90979300  1
  O  O18  1  0.50693400  0.72414000  0.11914700  1
  O  O19  1  0.01223400  0.72831600  0.11648000  1
  O  O20  1  0.62803900  0.86253500  0.31099900  1
  O  O21  1  0.14518900  0.84906100  0.28634500  1
  O  O22  1  0.35508300  0.14487600  0.70474400  1
  O  O23  1  0.86647700  0.14581600  0.70642900  1
  O  O24  1  0.72801300  0.00841000  0.01065000  1
  O  O25  1  0.26329600  0.99624900  0.99999600  1
loop_
_geom_bond_atom_site_label_1
_geom_bond_atom_site_label_2
_geom_bond_distance
_geom_bond_site_symmetry_2
Ba0 O20 2.670421 1_545
Ba0 O21 2.711577 1_645
Ba0 O10 2.836613 1_555
Ba0 O11 2.838214 1_555
Ba0 O15 2.863279 1_655
Ba0 O14 2.885683 1_555
Ba0 O17 2.982745 1_554
Ba0 O24 3.049975 1_555
Ba0 O25 3.143427 1_644
Ba0 O19 3.146734 1_645
Ba0 O2 3.349250 1_555
Ba1 O20 2.689850 1_545
Ba1 O21 2.724748 1_545
Ba1 O24 2.848272 1_555
Ba1 O15 2.894242 1_555
Ba1 O14 2.912381 1_555
Ba1 O10 2.926538 1_555
Ba1 O11 2.938995 1_455
Ba1 O25 2.966786 1_544
Ba1 O16 3.103464 1_554
Ba1 O18 3.148680 1_545
Ba1 O3 3.207611 1_555
Ba2 O13 2.661178 1_455
Ba2 O9 2.665948 1_555
Ba2 O8 2.737578 1_555
Ba2 O23 2.765371 1_465
Ba2 O22 2.825520 1_565
Ba2 O12 2.839971 1_555
Ba3 O13 2.673789 1_555
Ba3 O9 2.682467 1_655
Ba3 O8 2.769801 1_555
Ba3 O23 2.784359 1_565
Ba3 O12 2.858260 1_555
Ba3 O22 2.861352 1_565
Ba3 O25 3.119297 1_555
Ba3 O24 3.154439 1_566
Ba3 O1 3.240259 1_555
Ba3 O18 3.313537 1_556
Ba3 O16 3.370816 1_565
O0 Ti4 1.909122 1_555
O0 Ti8 1.959293 1_555
O0 Ti0 2.141629 1_555
O1 Ti8 1.906481 1_555
O1 Ti5 1.984723 1_555
O1 Ti1 2.115363 1_555
O2 Ti9 2.016855 1_655
O2 Ti10 2.021622 1_555
O2 Ti6 2.113427 1_555
O2 Ti2 2.261682 1_555
O3 Ti9 1.969076 1_555
O3 Ti10 1.975264 1_555
O3 Ti7 2.176514 1_555
O3 Ti3 2.475285 1_555
O4 Ti0 2.060140 1_555
O4 Ti1 2.074880 1_555
O4 Ti2 2.182379 1_555
O4 Ti8 2.184923 1_555
O5 Ti1 1.946159 1_455
O5 Ti0 1.962002 1_555
O5 Ti3 2.098485 1_555
O6 Ti2 2.026884 1_555
O6 Ti3 2.046283 1_555
O6 Ti0 2.140868 1_555
O6 Ti10 2.216806 1_555
O7 Ti2 2.026502 1_555
O7 Ti3 2.042682 1_655
O7 Ti1 2.149403 1_555
O7 Ti9 2.220311 1_655
O8 Ti2 1.831247 1_555
O8 Ti8 2.074859 1_555
O9 Ti3 1.725028 1_555
O10 Ti0 1.882988 1_555
O10 Ti10 1.967439 1_555
O11 Ti1 1.903841 1_555
O11 Ti9 1.950536 1_655
O12 Ti8 1.859182 1_555
O12 Ti7 1.968969 1_556
O13 Ti6 1.715311 1_556
O14 Ti10 1.808097 1_555
O14 Ti5 1.995322 1_554
O15 Ti9 1.821080 1_555
O15 Ti4 2.005194 1_554
O16 Ti8 1.961015 1_555
O16 Ti4 2.070151 1_555
O16 Ti5 2.092385 1_555
O17 Ti5 1.865135 1_555
O17 Ti4 1.865683 1_655
O18 Ti7 1.974251 1_555
O18 Ti10 2.001168 1_555
O18 Ti6 2.013820 1_555
O19 Ti7 1.980273 1_555
O19 Ti6 2.022214 1_455
O19 Ti9 2.047247 1_555
O20 Ti2 1.788457 1_555
O20 Ti6 2.348079 1_555
O21 Ti3 1.890258 1_555
O21 Ti7 1.984550 1_555
O22 Ti0 1.842300 1_555
O22 Ti4 2.043400 1_555
O23 Ti1 1.840060 1_555
O23 Ti5 2.047445 1_555
O24 Ti6 1.922257 1_545
O24 Ti5 1.942780 1_554
O25 Ti7 1.833156 1_556
O25 Ti4 2.052879 1_565
