# generated using pymatgen
data_BaLaMnRuO6
_symmetry_space_group_name_H-M   'P 1'
_cell_length_a   5.73182678
_cell_length_b   5.73182487
_cell_length_c   5.77696591
_cell_angle_alpha   60.39018290
_cell_angle_beta   89.45848978
_cell_angle_gamma   119.50466778
_symmetry_Int_Tables_number   1
_chemical_formula_structural   BaLaMnRuO6
_chemical_formula_sum   'Ba1 La1 Mn1 Ru1 O6'
_cell_volume   135.35949054
_cell_formula_units_Z   1
loop_
 _symmetry_equiv_pos_site_id
 _symmetry_equiv_pos_as_xyz
  1  'x, y, z'
loop_
 _atom_site_type_symbol
 _atom_site_label
 _atom_site_symmetry_multiplicity
 _atom_site_fract_x
 _atom_site_fract_y
 _atom_site_fract_z
 _atom_site_occupancy
  Ba  Ba0  1  0.25092700  0.99958300  0.74948800  1
  La  La0  1  0.75068000  0.98148800  0.26783300  1
  Mn  Mn0  1  0.50266600  0.49600700  0.00132800  1
  Ru  Ru0  1  0.00099500  0.49995600  0.49904900  1
  O  O0  1  0.23987100  0.54830000  0.21183000  1
  O  O1  1  0.76122700  0.40278900  0.83598300  1
  O  O2  1  0.73058900  0.52955400  0.28672600  1
  O  O3  1  0.18372100  0.98268600  0.28672700  1
  O  O4  1  0.29965800  0.53981300  0.68051900  1
  O  O5  1  0.77966700  0.01982300  0.68051800  1
loop_
_geom_bond_atom_site_label_1
_geom_bond_atom_site_label_2
_geom_bond_distance
_geom_bond_site_symmetry_2
Ba0 O0 2.614755 1_556
Ba0 O3 2.746483 1_555
Ba0 O2 2.746493 1_565
Ba0 O4 2.784225 1_565
Ba0 O5 2.784227 1_465
Ba0 O1 2.942205 1_455
Ba0 O1 2.942213 1_565
Ba0 O4 2.990352 1_555
Ba0 O5 2.990353 1_565
Ba0 O2 3.071430 1_456
Ba0 O3 3.071448 1_556
Ba0 O0 3.176472 1_565
La0 O1 2.441119 1_564
La0 O2 2.482323 1_555
La0 O3 2.482324 1_655
La0 O5 2.499770 1_565
La0 O4 2.499774 1_555
Mn0 O3 2.137419 1_545
Mn0 O2 2.137424 1_555
Mn0 O0 2.146591 1_555
Mn0 O1 2.156811 1_554
Mn0 O5 2.172654 1_564
Mn0 O4 2.172662 1_554
O0 Ru0 1.957961 1_555
O1 Ru0 2.027772 1_655
O2 Ru0 2.006201 1_655
O3 Ru0 2.006201 1_555
O4 Ru0 1.991769 1_555
O5 Ru0 1.991766 1_655
