# generated using pymatgen
data_Sr(SO5)2
_symmetry_space_group_name_H-M   'P 1'
_cell_length_a   6.73744206
_cell_length_b   6.73744206
_cell_length_c   18.00133000
_cell_angle_alpha   90.00000000
_cell_angle_beta   90.00000000
_cell_angle_gamma   120.00000061
_symmetry_Int_Tables_number   1
_chemical_formula_structural   Sr(SO5)2
_chemical_formula_sum   'Sr3 S6 O30'
_cell_volume   707.66107780
_cell_formula_units_Z   3
loop_
 _symmetry_equiv_pos_site_id
 _symmetry_equiv_pos_as_xyz
  1  'x, y, z'
loop_
 _atom_site_type_symbol
 _atom_site_label
 _atom_site_symmetry_multiplicity
 _atom_site_fract_x
 _atom_site_fract_y
 _atom_site_fract_z
 _atom_site_occupancy
  Sr  Sr0  1  0.00000000  0.00000000  0.67137300  1
  Sr  Sr1  1  0.00000000  0.00000000  0.33804000  1
  Sr  Sr2  1  0.00000000  0.00000000  0.00470700  1
  S  S0  1  0.40082000  0.09144000  0.50436700  1
  S  S1  1  0.90856000  0.30937900  0.17103400  1
  S  S2  1  0.69062100  0.59918000  0.83770000  1
  S  S3  1  0.59918000  0.90856000  0.50436700  1
  S  S4  1  0.09144000  0.69062100  0.17103400  1
  S  S5  1  0.30937900  0.40082000  0.83770000  1
  O  O0  1  0.26278600  0.01427900  0.57341700  1
  O  O1  1  0.98572100  0.24850700  0.24008400  1
  O  O2  1  0.75149300  0.73721400  0.90675000  1
  O  O3  1  0.73721400  0.98572100  0.57341700  1
  O  O4  1  0.01427900  0.75149300  0.24008400  1
  O  O5  1  0.24850700  0.26278600  0.90675000  1
  O  O6  1  0.25234600  0.99978600  0.43776200  1
  O  O7  1  0.00021400  0.25256100  0.10442800  1
  O  O8  1  0.74743900  0.74765400  0.77109500  1
  O  O9  1  0.74765400  0.00021400  0.43776200  1
  O  O10  1  0.99978600  0.74743900  0.10442800  1
  O  O11  1  0.25256100  0.25234600  0.77109500  1
  O  O12  1  0.56944100  0.33220100  0.50192800  1
  O  O13  1  0.66779900  0.23724000  0.16859400  1
  O  O14  1  0.76276000  0.43055900  0.83526100  1
  O  O15  1  0.43055900  0.66779900  0.50192800  1
  O  O16  1  0.33220100  0.76276000  0.16859400  1
  O  O17  1  0.23724000  0.56944100  0.83526100  1
  O  O18  1  0.27275300  0.55117800  0.65468400  1
  O  O19  1  0.44882200  0.72157600  0.32135000  1
  O  O20  1  0.27842400  0.72724700  0.98801700  1
  O  O21  1  0.72724700  0.44882200  0.65468400  1
  O  O22  1  0.55117800  0.27842400  0.32135000  1
  O  O23  1  0.72157600  0.27275300  0.98801700  1
  O  O24  1  0.73499600  0.29255100  0.68749200  1
  O  O25  1  0.70744900  0.44244500  0.35415900  1
  O  O26  1  0.55755500  0.26500400  0.02082500  1
  O  O27  1  0.26500400  0.70744900  0.68749200  1
  O  O28  1  0.29255100  0.55755500  0.35415900  1
  O  O29  1  0.44244500  0.73499600  0.02082500  1
loop_
_geom_bond_atom_site_label_1
_geom_bond_atom_site_label_2
_geom_bond_distance
_geom_bond_site_symmetry_2
O0 S0 1.482130 1_555
O0 Sr0 2.466369 1_555
O1 S1 1.482127 1_555
O1 Sr1 2.466369 1_655
O2 S2 1.482130 1_555
O2 Sr2 2.466382 1_666
O3 S3 1.482130 1_555
O3 Sr0 2.466369 1_665
O4 S4 1.482127 1_555
O4 Sr1 2.466369 1_565
O5 S5 1.482130 1_555
O5 Sr2 2.466382 1_556
O6 S0 1.483854 1_565
O6 Sr1 2.472955 1_565
O7 S1 1.483862 1_455
O7 Sr2 2.472947 1_555
O8 S2 1.483855 1_555
O8 Sr0 2.472957 1_665
O9 S3 1.483854 1_545
O9 Sr1 2.472955 1_655
O10 S4 1.483862 1_655
O10 Sr2 2.472947 1_665
O11 S5 1.483855 1_555
O11 Sr0 2.472957 1_555
O12 S0 1.442568 1_555
O13 S1 1.442570 1_555
O14 S2 1.442563 1_555
O15 S3 1.442568 1_555
O16 S4 1.442570 1_555
O17 S5 1.442563 1_555
O18 O27 1.230860 1_555
O18 Sr0 3.230069 1_555
O19 O28 1.230872 1_555
O19 Sr1 3.230071 1_665
O20 O29 1.230866 1_556
O20 Sr2 3.230065 1_566
O21 O24 1.230860 1_555
O21 Sr0 3.230069 1_665
O22 O25 1.230872 1_555
O22 Sr1 3.230071 1_555
O23 O26 1.230866 1_556
O23 Sr2 3.230065 1_656
