# generated using pymatgen
data_V3CoSb2(PO4)6
_symmetry_space_group_name_H-M   'P 1'
_cell_length_a   8.86251099
_cell_length_b   8.86251099
_cell_length_c   8.86251098
_cell_angle_alpha   58.86531789
_cell_angle_beta   58.86531789
_cell_angle_gamma   58.86531340
_symmetry_Int_Tables_number   1
_chemical_formula_structural   V3CoSb2(PO4)6
_chemical_formula_sum   'V3 Co1 Sb2 P6 O24'
_cell_volume   479.46576562
_cell_formula_units_Z   1
loop_
 _symmetry_equiv_pos_site_id
 _symmetry_equiv_pos_as_xyz
  1  'x, y, z'
loop_
 _atom_site_type_symbol
 _atom_site_label
 _atom_site_symmetry_multiplicity
 _atom_site_fract_x
 _atom_site_fract_y
 _atom_site_fract_z
 _atom_site_occupancy
  V  V0  1  0.35179300  0.35179300  0.35179300  1
  V  V1  1  0.14508600  0.14508600  0.14508600  1
  V  V2  1  0.64750900  0.64750900  0.64750900  1
  Co  Co0  1  0.84748100  0.84748100  0.84748100  1
  Sb  Sb0  1  0.99159100  0.99159100  0.99159100  1
  Sb  Sb1  1  0.49558500  0.49558500  0.49558500  1
  P  P0  1  0.04179500  0.45894500  0.75153300  1
  P  P1  1  0.45894500  0.75153300  0.04179500  1
  P  P2  1  0.75153300  0.04179500  0.45894500  1
  P  P3  1  0.25238700  0.96067300  0.53934200  1
  P  P4  1  0.53934200  0.25238700  0.96067300  1
  P  P5  1  0.96067300  0.53934200  0.25238700  1
  O  O0  1  0.49363500  0.69762000  0.88405100  1
  O  O1  1  0.69762000  0.88405100  0.49363500  1
  O  O2  1  0.88405100  0.49363500  0.69762000  1
  O  O3  1  0.06462700  0.26674500  0.91424100  1
  O  O4  1  0.02025600  0.61262100  0.79644700  1
  O  O5  1  0.23524400  0.43312200  0.57994500  1
  O  O6  1  0.26674500  0.91424100  0.06462700  1
  O  O7  1  0.43312200  0.57994500  0.23524400  1
  O  O8  1  0.19821000  0.99454700  0.38382700  1
  O  O9  1  0.57994500  0.23524400  0.43312200  1
  O  O10  1  0.08827000  0.94394900  0.73226400  1
  O  O11  1  0.38382700  0.19821000  0.99454700  1
  O  O12  1  0.61262100  0.79644700  0.02025600  1
  O  O13  1  0.91424100  0.06462700  0.26674500  1
  O  O14  1  0.41855000  0.76934800  0.56146300  1
  O  O15  1  0.79644700  0.02025600  0.61262100  1
  O  O16  1  0.56146300  0.41855000  0.76934800  1
  O  O17  1  0.73226400  0.08827000  0.94394900  1
  O  O18  1  0.76934800  0.56146300  0.41855000  1
  O  O19  1  0.99454700  0.38382700  0.19821000  1
  O  O20  1  0.94394900  0.73226400  0.08827000  1
  O  O21  1  0.11842400  0.49993500  0.30892700  1
  O  O22  1  0.30892700  0.11842400  0.49993500  1
  O  O23  1  0.49993500  0.30892700  0.11842400  1
loop_
_geom_bond_atom_site_label_1
_geom_bond_atom_site_label_2
_geom_bond_distance
_geom_bond_site_symmetry_2
Co0 O4 1.960391 1_655
Co0 O15 1.960391 1_565
Co0 O12 1.960391 1_556
Co0 O17 2.249019 1_565
Co0 O20 2.249019 1_556
Co0 O10 2.249019 1_655
O0 P1 1.540010 1_556
O0 V2 1.957499 1_555
O1 P2 1.540010 1_565
O1 V2 1.957499 1_555
O2 P0 1.540010 1_655
O2 V2 1.957499 1_555
O3 P0 1.557906 1_555
O3 V1 2.070993 1_556
O3 Sb0 2.506031 1_445
O4 P0 1.504326 1_555
O5 P0 1.600720 1_555
O5 V0 2.062125 1_555
O5 Sb1 2.301720 1_555
O6 P1 1.557906 1_555
O6 V1 2.070993 1_565
O6 Sb0 2.506031 1_454
O7 P1 1.600720 1_555
O7 V0 2.062125 1_555
O7 Sb1 2.301720 1_555
O8 P3 1.525661 1_555
O8 V1 1.984913 1_565
O9 P2 1.600720 1_555
O9 V0 2.062125 1_555
O9 Sb1 2.301720 1_555
O10 P3 1.565263 1_555
O10 Sb0 2.188048 1_455
O11 P4 1.525661 1_555
O11 V1 1.984913 1_556
O12 P1 1.504326 1_555
O13 P2 1.557906 1_555
O13 V1 2.070993 1_655
O13 Sb0 2.506031 1_544
O14 P3 1.566781 1_555
O14 V2 2.085140 1_555
O14 Sb1 2.456274 1_555
O15 P2 1.504326 1_555
O16 P4 1.566782 1_555
O16 V2 2.085140 1_555
O16 Sb1 2.456274 1_555
O17 P4 1.565263 1_555
O17 Sb0 2.188048 1_545
O18 P5 1.566781 1_555
O18 V2 2.085140 1_555
O18 Sb1 2.456274 1_555
O19 P5 1.525661 1_555
O19 V1 1.984913 1_655
O20 P5 1.565263 1_555
O20 Sb0 2.188048 1_554
O21 P5 1.538250 1_455
O21 V0 1.906404 1_555
O22 P3 1.538250 1_545
O22 V0 1.906404 1_555
O23 P4 1.538250 1_554
O23 V0 1.906404 1_555
