# generated using pymatgen
data_ErCdIn
_symmetry_space_group_name_H-M   'P 1'
_cell_length_a   4.80391686
_cell_length_b   4.80391686
_cell_length_c   7.38120088
_cell_angle_alpha   90.00000000
_cell_angle_beta   90.00000000
_cell_angle_gamma   119.99998987
_symmetry_Int_Tables_number   1
_chemical_formula_structural   ErCdIn
_chemical_formula_sum   'Er2 Cd2 In2'
_cell_volume   147.51924019
_cell_formula_units_Z   2
loop_
 _symmetry_equiv_pos_site_id
 _symmetry_equiv_pos_as_xyz
  1  'x, y, z'
loop_
 _atom_site_type_symbol
 _atom_site_label
 _atom_site_symmetry_multiplicity
 _atom_site_fract_x
 _atom_site_fract_y
 _atom_site_fract_z
 _atom_site_occupancy
  Er  Er0  1  -0.00000000  0.00000000  0.26373647  1
  Er  Er1  1  -0.00000000  -0.00000000  0.73626353  1
  Cd  Cd0  1  0.33333300  0.66666700  0.47065352  1
  Cd  Cd1  1  0.66666700  0.33333300  0.52934648  1
  In  In0  1  0.66666700  0.33333300  0.94424550  1
  In  In1  1  0.33333300  0.66666700  0.05575450  1
loop_
_geom_bond_atom_site_label_1
_geom_bond_atom_site_label_2
_geom_bond_distance
_geom_bond_site_symmetry_2
Er0 In1 3.170052 1_545
Er0 In1 3.170056 1_555
Er0 In1 3.170056 1_445
Er0 Er1 3.487817 1_555
Er0 In0 3.640571 1_454
Er0 In0 3.640575 1_554
Er0 In0 3.640575 1_444
Er0 Er1 3.893384 1_554
Er1 In0 3.170052 1_455
Er1 In0 3.170056 1_445
Er1 In0 3.170056 1_555
Er1 In1 3.640571 1_546
Er1 In1 3.640575 1_556
Er1 In1 3.640575 1_446
Cd0 Cd1 2.807171 1_455
Cd0 Cd1 2.807171 1_565
Cd0 Cd1 2.807179 1_555
Cd0 In1 3.062453 1_555
Cd0 Er0 3.166253 1_565
Cd0 Er0 3.166257 1_555
Cd0 Er0 3.166257 1_665
Cd0 Er1 3.396493 1_565
Cd0 Er1 3.396497 1_665
Cd0 Er1 3.396497 1_555
Cd1 In0 3.062453 1_555
Cd1 Er1 3.166253 1_655
Cd1 Er1 3.166257 1_665
Cd1 Er1 3.166257 1_555
Cd1 Er0 3.396493 1_655
Cd1 Er0 3.396497 1_555
Cd1 Er0 3.396497 1_665
In0 In1 2.893090 1_546
In0 In1 2.893090 1_656
In0 In1 2.893098 1_556
