# generated using pymatgen
data_Sm2Ni12As7
_symmetry_space_group_name_H-M   'P 1'
_cell_length_a   9.36730827
_cell_length_b   9.36730827
_cell_length_c   3.86195800
_cell_angle_alpha   90.00000000
_cell_angle_beta   90.00000000
_cell_angle_gamma   120.00000188
_symmetry_Int_Tables_number   1
_chemical_formula_structural   Sm2Ni12As7
_chemical_formula_sum   'Sm2 Ni12 As7'
_cell_volume   293.47275896
_cell_formula_units_Z   1
loop_
 _symmetry_equiv_pos_site_id
 _symmetry_equiv_pos_as_xyz
  1  'x, y, z'
loop_
 _atom_site_type_symbol
 _atom_site_label
 _atom_site_symmetry_multiplicity
 _atom_site_fract_x
 _atom_site_fract_y
 _atom_site_fract_z
 _atom_site_occupancy
  Sm  Sm0  1  0.33333300  0.66666700  0.00000000  1
  Sm  Sm1  1  0.00000000  0.00000000  0.50000000  1
  Ni  Ni0  1  0.04780500  0.27877700  0.00000000  1
  Ni  Ni1  1  0.72122300  0.76902800  0.00000000  1
  Ni  Ni2  1  0.23097200  0.95219500  0.00000000  1
  Ni  Ni3  1  0.53981200  0.05545400  0.00000000  1
  Ni  Ni4  1  0.94454600  0.48435800  0.00000000  1
  Ni  Ni5  1  0.51564200  0.46018800  0.00000000  1
  Ni  Ni6  1  0.62027100  0.90796400  0.50000000  1
  Ni  Ni7  1  0.09203600  0.71230700  0.50000000  1
  Ni  Ni8  1  0.28769300  0.37972900  0.50000000  1
  Ni  Ni9  1  0.78091100  0.23713700  0.50000000  1
  Ni  Ni10  1  0.76286300  0.54377500  0.50000000  1
  Ni  Ni11  1  0.45622500  0.21908900  0.50000000  1
  As  As0  1  0.78182900  0.04528200  0.00000000  1
  As  As1  1  0.95471800  0.73654700  0.00000000  1
  As  As2  1  0.26345300  0.21817100  0.00000000  1
  As  As3  1  0.37068600  0.92941400  0.50000000  1
  As  As4  1  0.07058600  0.44127300  0.50000000  1
  As  As5  1  0.55872700  0.62931400  0.50000000  1
  As  As6  1  0.66666700  0.33333300  0.00000000  1
loop_
_geom_bond_atom_site_label_1
_geom_bond_atom_site_label_2
_geom_bond_distance
_geom_bond_site_symmetry_2
Ni0 Sm1 3.095024 1_555
Ni0 Sm1 3.095024 1_554
Ni0 Sm0 3.261538 1_555
Ni1 Sm1 3.095024 1_664
Ni1 Sm1 3.095024 1_665
Ni1 Sm0 3.261540 1_555
Ni2 Sm1 3.095024 1_565
Ni2 Sm1 3.095024 1_564
Ni2 Sm0 3.261531 1_555
Ni3 Sm0 3.155998 1_545
Ni4 Sm0 3.155998 1_655
Ni5 Sm0 3.156006 1_555
Ni6 Sm0 3.160188 1_556
Ni6 Sm0 3.160188 1_555
Ni6 Sm1 3.213901 1_665
Ni7 Sm0 3.160184 1_556
Ni7 Sm0 3.160184 1_555
Ni7 Sm1 3.213902 1_565
Ni8 Sm0 3.160191 1_556
Ni8 Sm0 3.160191 1_555
Ni8 Sm1 3.213901 1_555
As0 Ni3 2.316160 1_555
As0 Ni0 2.354142 1_655
As0 Ni1 2.355775 1_545
As0 Ni6 2.393089 1_544
As0 Ni6 2.393089 1_545
As0 Ni9 2.640835 1_554
As0 Ni9 2.640835 1_555
As0 Sm1 2.992002 1_654
As0 Sm1 2.992002 1_655
As1 Ni4 2.316160 1_555
As1 Ni1 2.354142 1_555
As1 Ni2 2.355775 1_655
As1 Ni7 2.393090 1_654
As1 Ni7 2.393090 1_655
As1 Ni10 2.640832 1_554
As1 Ni10 2.640832 1_555
As1 Sm1 2.992002 1_665
As1 Sm1 2.992002 1_664
As2 Ni5 2.316160 1_555
As2 Ni2 2.354142 1_545
As2 Ni0 2.355775 1_555
As2 Ni8 2.393090 1_554
As2 Ni8 2.393090 1_555
As2 Ni11 2.640829 1_555
As2 Ni11 2.640829 1_554
As2 Sm1 2.992002 1_554
As2 Sm1 2.992002 1_555
As3 Ni7 2.375022 1_555
As3 Ni3 2.400423 1_566
As3 Ni3 2.400423 1_565
As3 Ni2 2.401314 1_555
As3 Ni2 2.401314 1_556
As3 Ni11 2.414695 1_565
As3 Ni6 2.444605 1_555
As3 Sm0 3.007922 1_556
As3 Sm0 3.007922 1_555
As4 Ni8 2.375028 1_555
As4 Ni4 2.400420 1_456
As4 Ni4 2.400420 1_455
As4 Ni0 2.401320 1_556
As4 Ni0 2.401320 1_555
As4 Ni9 2.414695 1_455
As4 Ni7 2.444596 1_555
As4 Sm0 3.007922 1_556
As4 Sm0 3.007922 1_555
As5 Ni6 2.375019 1_555
As5 Ni5 2.400425 1_556
As5 Ni5 2.400425 1_555
As5 Ni1 2.401318 1_555
As5 Ni1 2.401318 1_556
As5 Ni10 2.414695 1_555
As5 Ni8 2.444600 1_555
As5 Sm0 3.007922 1_556
As5 Sm0 3.007922 1_555
As6 Ni3 2.257086 1_555
As6 Ni4 2.257086 1_555
As6 Ni5 2.257094 1_555
As6 Ni9 2.578801 1_554
As6 Ni9 2.578801 1_555
As6 Ni11 2.578811 1_554
As6 Ni11 2.578811 1_555
As6 Ni10 2.578812 1_555
As6 Ni10 2.578812 1_554
