# generated using pymatgen
data_SbSN2O4F3
_symmetry_space_group_name_H-M   'P 1'
_cell_length_a   8.88802400
_cell_length_b   9.56618500
_cell_length_c   18.36099400
_cell_angle_alpha   90.00000000
_cell_angle_beta   90.00000000
_cell_angle_gamma   90.00000000
_symmetry_Int_Tables_number   1
_chemical_formula_structural   SbSN2O4F3
_chemical_formula_sum   'Sb8 S8 N16 O32 F24'
_cell_volume   1561.13400144
_cell_formula_units_Z   8
loop_
 _symmetry_equiv_pos_site_id
 _symmetry_equiv_pos_as_xyz
  1  'x, y, z'
loop_
 _atom_site_type_symbol
 _atom_site_label
 _atom_site_symmetry_multiplicity
 _atom_site_fract_x
 _atom_site_fract_y
 _atom_site_fract_z
 _atom_site_occupancy
  Sb  Sb0  1  0.82824500  0.09332300  0.39141000  1
  Sb  Sb1  1  0.67175500  0.59332300  0.60859000  1
  Sb  Sb2  1  0.32824500  0.90667700  0.10859000  1
  Sb  Sb3  1  0.17175500  0.40667700  0.89141000  1
  Sb  Sb4  1  0.17175500  0.90667700  0.60859000  1
  Sb  Sb5  1  0.32824500  0.40667700  0.39141000  1
  Sb  Sb6  1  0.67175500  0.09332300  0.89141000  1
  Sb  Sb7  1  0.82824500  0.59332300  0.10859000  1
  S  S0  1  0.62218300  0.32025300  0.49991600  1
  S  S1  1  0.87781700  0.82025300  0.50008400  1
  S  S2  1  0.12218300  0.67974700  0.00008400  1
  S  S3  1  0.37781700  0.17974700  0.99991600  1
  S  S4  1  0.37781700  0.67974700  0.50008400  1
  S  S5  1  0.12218300  0.17974700  0.49991600  1
  S  S6  1  0.87781700  0.32025300  0.99991600  1
  S  S7  1  0.62218300  0.82025300  0.00008400  1
  N  N0  1  0.64233200  0.26342100  0.20735800  1
  N  N1  1  0.85766800  0.76342100  0.79264200  1
  N  N2  1  0.14233200  0.73657900  0.29264200  1
  N  N3  1  0.35766800  0.23657900  0.70735800  1
  N  N4  1  0.35766800  0.73657900  0.79264200  1
  N  N5  1  0.14233200  0.23657900  0.20735800  1
  N  N6  1  0.85766800  0.26342100  0.70735800  1
  N  N7  1  0.64233200  0.76342100  0.29264200  1
  N  N8  1  0.16689400  0.47542700  0.62411200  1
  N  N9  1  0.33310600  0.97542700  0.37588800  1
  N  N10  1  0.66689400  0.52457300  0.87588800  1
  N  N11  1  0.83310600  0.02457300  0.12411200  1
  N  N12  1  0.83310600  0.52457300  0.37588800  1
  N  N13  1  0.66689400  0.02457300  0.62411200  1
  N  N14  1  0.33310600  0.47542700  0.12411200  1
  N  N15  1  0.16689400  0.97542700  0.87588800  1
  O  O0  1  0.54270700  0.38104200  0.43284200  1
  O  O1  1  0.95729300  0.88104200  0.56715800  1
  O  O2  1  0.04270700  0.61895800  0.06715800  1
  O  O3  1  0.45729300  0.11895800  0.93284200  1
  O  O4  1  0.45729300  0.61895800  0.56715800  1
  O  O5  1  0.04270700  0.11895800  0.43284200  1
  O  O6  1  0.95729300  0.38104200  0.93284200  1
  O  O7  1  0.54270700  0.88104200  0.06715800  1
  O  O8  1  0.78678100  0.44361700  0.03054600  1
  O  O9  1  0.71321900  0.94361700  0.96945400  1
  O  O10  1  0.28678100  0.55638300  0.46945400  1
  O  O11  1  0.21321900  0.05638300  0.53054600  1
  O  O12  1  0.21321900  0.55638300  0.96945400  1
  O  O13  1  0.28678100  0.05638300  0.03054600  1
  O  O14  1  0.71321900  0.44361700  0.53054600  1
  O  O15  1  0.78678100  0.94361700  0.46945400  1
  O  O16  1  0.74640100  0.22769000  0.47207600  1
  O  O17  1  0.75359900  0.72769000  0.52792400  1
  O  O18  1  0.24640100  0.77231000  0.02792400  1
  O  O19  1  0.25359900  0.27231000  0.97207600  1
  O  O20  1  0.25359900  0.77231000  0.52792400  1
  O  O21  1  0.24640100  0.27231000  0.47207600  1
  O  O22  1  0.75359900  0.22769000  0.97207600  1
  O  O23  1  0.74640100  0.72769000  0.02792400  1
  O  O24  1  0.97569500  0.25587900  0.05102900  1
  O  O25  1  0.52430500  0.75587900  0.94897100  1
  O  O26  1  0.47569400  0.74412100  0.44897100  1
  O  O27  1  0.02430500  0.24412100  0.55102900  1
  O  O28  1  0.02430500  0.74412100  0.94897100  1
  O  O29  1  0.47569400  0.24412100  0.05102900  1
  O  O30  1  0.52430500  0.25587900  0.55102900  1
  O  O31  1  0.97569500  0.75587900  0.44897100  1
  F  F0  1  0.86508200  0.24785700  0.33056500  1
  F  F1  1  0.63491800  0.74785700  0.66943500  1
  F  F2  1  0.36508200  0.75214300  0.16943500  1
  F  F3  1  0.13491800  0.25214300  0.83056500  1
  F  F4  1  0.13491800  0.75214300  0.66943500  1
  F  F5  1  0.36508200  0.25214300  0.33056500  1
  F  F6  1  0.63491800  0.24785700  0.83056500  1
  F  F7  1  0.86508200  0.74785700  0.16943500  1
  F  F8  1  0.91514100  0.96216000  0.32750600  1
  F  F9  1  0.58485900  0.46216000  0.67249400  1
  F  F10  1  0.41514100  0.03784000  0.17249400  1
  F  F11  1  0.08485900  0.53784000  0.82750600  1
  F  F12  1  0.08485900  0.03784000  0.67249400  1
  F  F13  1  0.41514100  0.53784000  0.32750600  1
  F  F14  1  0.58485900  0.96216000  0.82750600  1
  F  F15  1  0.91514100  0.46216000  0.17249400  1
  F  F16  1  0.62885000  0.06665500  0.35962000  1
  F  F17  1  0.87115000  0.56665500  0.64038000  1
  F  F18  1  0.12885000  0.93334500  0.14038000  1
  F  F19  1  0.37115000  0.43334500  0.85962000  1
  F  F20  1  0.37115000  0.93334500  0.64038000  1
  F  F21  1  0.12885000  0.43334500  0.35962000  1
  F  F22  1  0.87115000  0.06665500  0.85962000  1
  F  F23  1  0.62885000  0.56665500  0.14038000  1
loop_
_geom_bond_atom_site_label_1
_geom_bond_atom_site_label_2
_geom_bond_distance
_geom_bond_site_symmetry_2
O0 S0 1.534225 1_555
O0 Sb5 2.066938 1_555
O1 S1 1.534225 1_555
O1 Sb4 2.066938 1_655
O2 S2 1.534225 1_555
O2 Sb7 2.066938 1_455
O3 S3 1.534225 1_555
O3 Sb6 2.066938 1_555
O4 S4 1.534225 1_555
O4 Sb1 2.066938 1_555
O5 S5 1.534225 1_555
O5 Sb0 2.066938 1_455
O6 S6 1.534225 1_555
O6 Sb3 2.066938 1_655
O7 S7 1.534225 1_555
O7 Sb2 2.066938 1_555
O8 S6 1.537424 1_554
O8 Sb7 2.059165 1_555
O9 S7 1.537424 1_556
O9 Sb6 2.059165 1_565
O10 S4 1.537424 1_555
O10 Sb5 2.059165 1_555
O11 S5 1.537424 1_555
O11 Sb4 2.059165 1_545
O12 S2 1.537424 1_556
O12 Sb3 2.059165 1_555
O13 S3 1.537424 1_554
O13 Sb2 2.059165 1_545
O14 S0 1.537424 1_555
O14 Sb1 2.059165 1_555
O15 S1 1.537424 1_555
O15 Sb0 2.059165 1_565
O16 S0 1.504757 1_555
O16 Sb0 2.091659 1_555
O17 S1 1.504757 1_555
O17 Sb1 2.091659 1_555
O18 S2 1.504757 1_555
O18 Sb2 2.091659 1_555
O19 S3 1.504757 1_555
O19 Sb3 2.091659 1_555
O20 S4 1.504757 1_555
O20 Sb4 2.091659 1_555
O21 S5 1.504757 1_555
O21 Sb5 2.091659 1_555
O22 S6 1.504757 1_555
O22 Sb6 2.091659 1_555
O23 S7 1.504757 1_555
O23 Sb7 2.091659 1_555
O24 S6 1.420134 1_554
O25 S7 1.420134 1_556
O26 S4 1.420129 1_555
O27 S5 1.420134 1_555
O28 S2 1.420134 1_556
O29 S3 1.420129 1_554
O30 S0 1.420134 1_555
O31 S1 1.420134 1_555
F0 Sb0 1.881661 1_555
F1 Sb1 1.881661 1_555
F2 Sb2 1.881661 1_555
F3 Sb3 1.881661 1_555
F4 Sb4 1.881661 1_555
F5 Sb5 1.881661 1_555
F6 Sb6 1.881661 1_555
F7 Sb7 1.881661 1_555
F8 Sb0 1.883501 1_565
F9 Sb1 1.883501 1_555
F10 Sb2 1.883501 1_545
F11 Sb3 1.883501 1_555
F12 Sb4 1.883501 1_545
F13 Sb5 1.883501 1_555
F14 Sb6 1.883501 1_565
F15 Sb7 1.883501 1_555
F16 Sb0 1.883235 1_555
F17 Sb1 1.883235 1_555
F18 Sb2 1.883235 1_555
F19 Sb3 1.883235 1_555
F20 Sb4 1.883235 1_555
F21 Sb5 1.883235 1_555
F22 Sb6 1.883235 1_555
F23 Sb7 1.883235 1_555
