# generated using pymatgen
data_Sr2YTaCu2O7
_symmetry_space_group_name_H-M   'P 1'
_cell_length_a   12.52375072
_cell_length_b   12.52375072
_cell_length_c   5.56640171
_cell_angle_alpha   77.56013900
_cell_angle_beta   77.56013900
_cell_angle_gamma   143.64842206
_symmetry_Int_Tables_number   1
_chemical_formula_structural   Sr2YTaCu2O7
_chemical_formula_sum   'Sr4 Y2 Ta2 Cu4 O14'
_cell_volume   374.28205397
_cell_formula_units_Z   2
loop_
 _symmetry_equiv_pos_site_id
 _symmetry_equiv_pos_as_xyz
  1  'x, y, z'
loop_
 _atom_site_type_symbol
 _atom_site_label
 _atom_site_symmetry_multiplicity
 _atom_site_fract_x
 _atom_site_fract_y
 _atom_site_fract_z
 _atom_site_occupancy
  Sr  Sr0  1  0.38598200  0.16008700  0.98235500  1
  Sr  Sr1  1  0.61371300  0.83512200  0.03061400  1
  Sr  Sr2  1  0.83512200  0.61371300  0.03061400  1
  Sr  Sr3  1  0.16008700  0.38598200  0.98235500  1
  Y  Y0  1  0.99719200  0.49957700  0.01430800  1
  Y  Y1  1  0.49957700  0.99719200  0.01430800  1
  Ta  Ta0  1  0.82950200  0.82950200  0.44775200  1
  Ta  Ta1  1  0.16153500  0.16153500  0.52851200  1
  Cu  Cu0  1  0.43537200  0.05477300  0.51857500  1
  Cu  Cu1  1  0.05477300  0.43537200  0.51857500  1
  Cu  Cu2  1  0.56120300  0.94217500  0.51148100  1
  Cu  Cu3  1  0.94217500  0.56120300  0.51148100  1
  O  O0  1  0.18822900  0.18822900  0.14269900  1
  O  O1  1  0.90796400  0.90796400  0.02246900  1
  O  O2  1  0.67045700  0.29261000  0.01710500  1
  O  O3  1  0.32984900  0.70321700  0.48050500  1
  O  O4  1  0.70321700  0.32984900  0.48050500  1
  O  O5  1  0.29261000  0.67045700  0.01710500  1
  O  O6  1  0.20278000  0.83067900  0.01465600  1
  O  O7  1  0.79030200  0.16320800  0.55698800  1
  O  O8  1  0.16320800  0.79030200  0.55698800  1
  O  O9  1  0.83067900  0.20278000  0.01465600  1
  O  O10  1  0.74564100  0.60854600  0.63559700  1
  O  O11  1  0.22193600  0.36347400  0.46118100  1
  O  O12  1  0.36347400  0.22193600  0.46118100  1
  O  O13  1  0.60854600  0.74564100  0.63559700  1
loop_
_geom_bond_atom_site_label_1
_geom_bond_atom_site_label_2
_geom_bond_distance
_geom_bond_site_symmetry_2
Cu0 O8 1.957013 1_545
Cu0 O4 1.982427 1_555
Cu0 O6 2.003521 1_546
Cu0 O2 2.020743 1_555
Cu1 O7 1.957013 1_455
Cu1 O3 1.982427 1_555
Cu1 O9 2.003521 1_456
Cu1 O5 2.020743 1_555
Cu2 O7 1.944437 1_565
Cu2 O3 1.962441 1_555
Cu2 O9 2.009429 1_565
Cu2 O5 2.042799 1_556
Cu3 O8 1.944437 1_655
Cu3 O4 1.962441 1_555
Cu3 O6 2.009429 1_655
Cu3 O2 2.042799 1_556
O0 Ta1 2.009230 1_555
O0 Ta0 2.041002 1_445
O0 Sr0 2.764711 1_554
O0 Sr3 2.764711 1_554
O1 Ta1 1.990347 1_664
O1 Ta0 1.993869 1_555
O1 Sr1 2.984879 1_555
O1 Sr2 2.984879 1_555
O2 Y1 2.356620 1_545
O2 Y0 2.516612 1_555
O2 Sr0 2.528923 1_554
O2 Sr2 2.696092 1_555
O3 Y1 2.389292 1_555
O3 Sr1 2.561444 1_555
O3 Y0 2.641404 1_456
O3 Sr3 2.676188 1_555
O4 Y0 2.389292 1_555
O4 Sr2 2.561444 1_555
O4 Y1 2.641404 1_546
O4 Sr0 2.676188 1_555
O5 Y0 2.356620 1_455
O5 Y1 2.516612 1_555
O5 Sr3 2.528923 1_554
O5 Sr1 2.696092 1_555
O6 Y1 2.382083 1_555
O6 Sr0 2.563541 1_564
O6 Y0 2.575247 1_455
O6 Sr2 2.856373 1_455
O7 Y1 2.364835 1_546
O7 Sr1 2.628334 1_546
O7 Y0 2.673622 1_555
O7 Sr3 2.902265 1_654
O8 Y0 2.364835 1_456
O8 Sr2 2.628334 1_456
O8 Y1 2.673622 1_555
O8 Sr0 2.902265 1_564
O9 Y0 2.382083 1_555
O9 Sr3 2.563541 1_654
O9 Y1 2.575247 1_545
O9 Sr1 2.856373 1_545
O10 Ta0 1.858134 1_555
O10 Sr0 2.528318 1_555
O10 Sr2 2.664757 1_556
O11 Ta1 1.869923 1_555
O11 Sr1 2.619018 1_555
O11 Sr3 2.949734 1_554
O11 Sr3 2.971785 1_555
O12 Ta1 1.869923 1_555
O12 Sr2 2.619018 1_555
O12 Sr0 2.949734 1_554
O12 Sr0 2.971785 1_555
O13 Ta0 1.858134 1_555
O13 Sr3 2.528318 1_555
O13 Sr1 2.664757 1_556
