# generated using pymatgen
data_CaNb4O14
_symmetry_space_group_name_H-M   'P 1'
_cell_length_a   7.58396400
_cell_length_b   7.58396400
_cell_length_c   7.58396416
_cell_angle_alpha   59.16040724
_cell_angle_beta   59.16040724
_cell_angle_gamma   59.16041192
_symmetry_Int_Tables_number   1
_chemical_formula_structural   CaNb4O14
_chemical_formula_sum   'Ca1 Nb4 O14'
_cell_volume   302.54064799
_cell_formula_units_Z   1
loop_
 _symmetry_equiv_pos_site_id
 _symmetry_equiv_pos_as_xyz
  1  'x, y, z'
loop_
 _atom_site_type_symbol
 _atom_site_label
 _atom_site_symmetry_multiplicity
 _atom_site_fract_x
 _atom_site_fract_y
 _atom_site_fract_z
 _atom_site_occupancy
  Ca  Ca0  1  0.50000000  0.50000000  0.50000000  1
  Nb  Nb0  1  0.00000000  0.00000000  0.00000000  1
  Nb  Nb1  1  0.50000000  0.00000000  0.00000000  1
  Nb  Nb2  1  0.00000000  0.00000000  0.50000000  1
  Nb  Nb3  1  0.00000000  0.50000000  0.00000000  1
  O  O0  1  0.36719700  0.36719700  0.36719700  1
  O  O1  1  0.63280300  0.63280300  0.63280300  1
  O  O2  1  0.92114500  0.31746700  0.31746700  1
  O  O3  1  0.31069600  0.94097000  0.94097000  1
  O  O4  1  0.31746700  0.31746700  0.92114500  1
  O  O5  1  0.94097000  0.94097000  0.31069600  1
  O  O6  1  0.94097000  0.31069600  0.94097000  1
  O  O7  1  0.31746700  0.92114500  0.31746700  1
  O  O8  1  0.07885500  0.68253300  0.68253300  1
  O  O9  1  0.68930400  0.05903000  0.05903000  1
  O  O10  1  0.68253300  0.68253300  0.07885500  1
  O  O11  1  0.05903000  0.05903000  0.68930400  1
  O  O12  1  0.05903000  0.68930400  0.05903000  1
  O  O13  1  0.68253300  0.07885500  0.68253300  1
loop_
_geom_bond_atom_site_label_1
_geom_bond_atom_site_label_2
_geom_bond_distance
_geom_bond_site_symmetry_2
Ca0 O1 2.482599 1_555
Ca0 O0 2.482599 1_555
Ca0 O10 2.632944 1_555
Ca0 O4 2.632944 1_555
Ca0 O7 2.632944 1_555
Ca0 O2 2.632944 1_555
Ca0 O13 2.632944 1_555
Ca0 O8 2.632944 1_555
Nb0 O3 1.998859 1_544
Nb0 O6 1.998859 1_454
Nb0 O12 1.998859 1_545
Nb0 O9 1.998859 1_455
Nb0 O5 1.998859 1_445
Nb0 O11 1.998859 1_554
Nb1 O9 1.996351 1_555
Nb1 O3 1.996351 1_544
Nb1 O7 2.006526 1_545
Nb1 O13 2.006526 1_554
Nb1 O4 2.006527 1_554
Nb1 O10 2.006527 1_545
Nb2 O11 1.996352 1_555
Nb2 O5 1.996352 1_445
Nb2 O2 2.006526 1_455
Nb2 O13 2.006526 1_455
Nb2 O7 2.006526 1_545
Nb2 O8 2.006526 1_545
Nb3 O12 1.996351 1_555
Nb3 O6 1.996351 1_454
Nb3 O2 2.006526 1_455
Nb3 O8 2.006526 1_554
Nb3 O10 2.006527 1_455
Nb3 O4 2.006527 1_554
