# generated using pymatgen
data_SrEuSeS
_symmetry_space_group_name_H-M   'P 1'
_cell_length_a   7.51430094
_cell_length_b   7.51430094
_cell_length_c   7.51430061
_cell_angle_alpha   33.45638806
_cell_angle_beta   33.45638806
_cell_angle_gamma   33.45639071
_symmetry_Int_Tables_number   1
_chemical_formula_structural   SrEuSeS
_chemical_formula_sum   'Sr1 Eu1 Se1 S1'
_cell_volume   114.84603154
_cell_formula_units_Z   1
loop_
 _symmetry_equiv_pos_site_id
 _symmetry_equiv_pos_as_xyz
  1  'x, y, z'
loop_
 _atom_site_type_symbol
 _atom_site_label
 _atom_site_symmetry_multiplicity
 _atom_site_fract_x
 _atom_site_fract_y
 _atom_site_fract_z
 _atom_site_occupancy
  Sr  Sr0  1  0.49682600  0.49682600  0.49682600  1
  Eu  Eu0  1  0.00334900  0.00334900  0.00334900  1
  Se  Se0  1  0.25199100  0.25199100  0.25199100  1
  S  S0  1  0.74783500  0.74783500  0.74783500  1
loop_
_geom_bond_atom_site_label_1
_geom_bond_atom_site_label_2
_geom_bond_distance
_geom_bond_site_symmetry_2
Eu0 S0 2.995794 1_445
Eu0 S0 2.995795 1_544
Eu0 S0 2.995795 1_454
Eu0 Se0 3.078899 1_554
Eu0 Se0 3.078899 1_455
Eu0 Se0 3.078899 1_545
Se0 Sr0 3.126926 1_554
Se0 Sr0 3.126926 1_545
Se0 Sr0 3.126926 1_455
S0 Sr0 3.049739 1_556
S0 Sr0 3.049740 1_565
S0 Sr0 3.049740 1_655
