# generated using pymatgen
data_K2Co(B2O5)6
_symmetry_space_group_name_H-M   'P 1'
_cell_length_a   8.04356700
_cell_length_b   8.06084879
_cell_length_c   10.13103083
_cell_angle_alpha   104.84040458
_cell_angle_beta   102.47744155
_cell_angle_gamma   89.71777222
_symmetry_Int_Tables_number   1
_chemical_formula_structural   K2Co(B2O5)6
_chemical_formula_sum   'K2 Co1 B12 O30'
_cell_volume   619.08203066
_cell_formula_units_Z   1
loop_
 _symmetry_equiv_pos_site_id
 _symmetry_equiv_pos_as_xyz
  1  'x, y, z'
loop_
 _atom_site_type_symbol
 _atom_site_label
 _atom_site_symmetry_multiplicity
 _atom_site_fract_x
 _atom_site_fract_y
 _atom_site_fract_z
 _atom_site_occupancy
  K  K0  1  0.65730300  0.29892000  0.67538400  1
  K  K1  1  0.34269700  0.70108000  0.32461600  1
  Co  Co0  1  0.00000000  0.00000000  0.00000000  1
  B  B0  1  0.28933100  0.82429900  0.88620000  1
  B  B1  1  0.71066900  0.17570100  0.11380000  1
  B  B2  1  0.12581000  0.79015400  0.62548200  1
  B  B3  1  0.87419000  0.20984600  0.37451800  1
  B  B4  1  0.98698600  0.66253400  0.79249700  1
  B  B5  1  0.01301400  0.33746600  0.20750300  1
  B  B6  1  0.21512000  0.55964500  0.94758000  1
  B  B7  1  0.78488000  0.44035500  0.05242000  1
  B  B8  1  0.41812500  0.90597100  0.70547300  1
  B  B9  1  0.58187500  0.09402900  0.29452700  1
  B  B10  1  0.84542200  0.66194400  0.55205900  1
  B  B11  1  0.15457800  0.33805600  0.44794100  1
  O  O0  1  0.13813900  0.74231700  0.74948100  1
  O  O1  1  0.86186100  0.25768300  0.25051900  1
  O  O2  1  0.26849900  0.46520800  0.04342500  1
  O  O3  1  0.73150100  0.53479200  0.95657500  1
  O  O4  1  0.33185100  0.68739900  0.95372900  1
  O  O5  1  0.66814900  0.31260100  0.04627100  1
  O  O6  1  0.42266700  0.88704400  0.83650300  1
  O  O7  1  0.57733300  0.11295600  0.16349700  1
  O  O8  1  0.55333800  0.96492900  0.66750300  1
  O  O9  1  0.44666200  0.03507100  0.33249700  1
  O  O10  1  0.26416800  0.85920100  0.59826300  1
  O  O11  1  0.73583200  0.14079900  0.40173700  1
  O  O12  1  0.97209000  0.75569400  0.52821200  1
  O  O13  1  0.02791000  0.24430600  0.47178800  1
  O  O14  1  0.68675900  0.62001800  0.44800100  1
  O  O15  1  0.31324100  0.37998200  0.55199900  1
  O  O16  1  0.85454900  0.59472000  0.66187200  1
  O  O17  1  0.14545100  0.40528000  0.33812800  1
  O  O18  1  0.05703000  0.52961300  0.85683100  1
  O  O19  1  0.94297000  0.47038700  0.14316900  1
  O  O20  1  0.21191400  0.96020500  0.97220600  1
  O  O21  1  0.78808600  0.03979500  0.02779400  1
  O  O22  1  0.02416300  0.11767000  0.72700600  1
  O  O23  1  0.97583700  0.88233000  0.27299400  1
  O  O24  1  0.91884400  0.79836800  0.88405200  1
  O  O25  1  0.08115600  0.20163200  0.11594800  1
  O  O26  1  0.92476700  0.14416000  0.80719000  1
  O  O27  1  0.07523300  0.85584000  0.19281000  1
  O  O28  1  0.31578700  0.32749900  0.66930600  1
  O  O29  1  0.68421300  0.67250100  0.33069400  1
loop_
_geom_bond_atom_site_label_1
_geom_bond_atom_site_label_2
_geom_bond_distance
_geom_bond_site_symmetry_2
K0 O28 2.744239 1_555
K0 O26 2.748318 1_555
K0 O8 2.799486 1_545
K0 O16 2.918834 1_555
K0 O15 2.924763 1_555
K0 O3 2.930626 1_555
K0 O11 2.940752 1_555
K1 O29 2.744239 1_555
K1 O27 2.748318 1_555
K1 O9 2.799486 1_565
K1 O17 2.918834 1_555
K1 O14 2.924763 1_555
K1 O2 2.930626 1_555
K1 O10 2.940752 1_555
Co0 O25 1.774475 1_555
Co0 O24 1.774475 1_444
Co0 O20 1.800945 1_544
Co0 O21 1.800945 1_455
Co0 O27 2.485409 1_545
Co0 O26 2.485409 1_454
B0 O6 1.424316 1_555
B0 O4 1.443852 1_555
B0 O20 1.444264 1_555
B0 O0 1.626451 1_555
B1 O7 1.424316 1_555
B1 O5 1.443852 1_555
B1 O21 1.444264 1_555
B1 O1 1.626451 1_555
B2 O10 1.357085 1_555
B2 O12 1.383380 1_455
B2 O0 1.389458 1_555
B3 O11 1.357085 1_555
B3 O13 1.383380 1_655
B3 O1 1.389458 1_555
B4 O24 1.432889 1_555
B4 O18 1.443382 1_655
B4 O16 1.486913 1_555
B4 O0 1.569056 1_655
B5 O25 1.432889 1_555
B5 O19 1.443382 1_455
B5 O17 1.486913 1_555
B5 O1 1.569056 1_455
B6 O4 1.377449 1_555
B6 O2 1.379119 1_556
B6 O18 1.380107 1_555
B7 O5 1.377449 1_555
B7 O3 1.379119 1_554
B7 O19 1.380107 1_555
B8 O8 1.355074 1_555
B8 O6 1.367304 1_555
B8 O10 1.438411 1_555
B9 O9 1.355074 1_555
B9 O7 1.367304 1_555
B9 O11 1.438411 1_555
B10 O16 1.345309 1_555
B10 O12 1.369311 1_555
B10 O14 1.447305 1_555
B11 O17 1.345309 1_555
B11 O13 1.369311 1_555
B11 O15 1.447305 1_555
O14 O29 1.356001 1_555
O15 O28 1.356001 1_555
O22 O26 1.238872 1_455
O23 O27 1.238872 1_655
