# generated using pymatgen
data_LiCe(PO3)4
_symmetry_space_group_name_H-M   'P 1'
_cell_length_a   9.08794883
_cell_length_b   9.08794883
_cell_length_c   9.95225637
_cell_angle_alpha   56.99934840
_cell_angle_beta   56.99934840
_cell_angle_gamma   46.54206675
_symmetry_Int_Tables_number   1
_chemical_formula_structural   LiCe(PO3)4
_chemical_formula_sum   'Li2 Ce2 P8 O24'
_cell_volume   480.47404681
_cell_formula_units_Z   2
loop_
 _symmetry_equiv_pos_site_id
 _symmetry_equiv_pos_as_xyz
  1  'x, y, z'
loop_
 _atom_site_type_symbol
 _atom_site_label
 _atom_site_symmetry_multiplicity
 _atom_site_fract_x
 _atom_site_fract_y
 _atom_site_fract_z
 _atom_site_occupancy
  Li  Li0  1  0.80025900  0.19974100  0.25000000  1
  Li  Li1  1  0.19974100  0.80025900  0.75000000  1
  Ce  Ce0  1  0.30259500  0.69740500  0.25000000  1
  Ce  Ce1  1  0.69740500  0.30259500  0.75000000  1
  P  P0  1  0.51230800  0.18886300  0.59732700  1
  P  P1  1  0.81113700  0.48769200  0.90267300  1
  P  P2  1  0.48769200  0.81113700  0.40267300  1
  P  P3  1  0.18886300  0.51230800  0.09732700  1
  P  P4  1  0.92004700  0.80273800  0.66429500  1
  P  P5  1  0.19726200  0.07995300  0.83570500  1
  P  P6  1  0.07995300  0.19726200  0.33570500  1
  P  P7  1  0.80273800  0.92004700  0.16429500  1
  O  O0  1  0.52606300  0.32155100  0.41802500  1
  O  O1  1  0.67844900  0.47393700  0.08197500  1
  O  O2  1  0.47393700  0.67844900  0.58197500  1
  O  O3  1  0.32155100  0.52606300  0.91802500  1
  O  O4  1  0.48729200  0.25387400  0.72197600  1
  O  O5  1  0.74612600  0.51270800  0.77802400  1
  O  O6  1  0.51270800  0.74612600  0.27802400  1
  O  O7  1  0.25387400  0.48729200  0.22197600  1
  O  O8  1  0.84657400  0.66640200  0.84425200  1
  O  O9  1  0.33359800  0.15342600  0.65574800  1
  O  O10  1  0.15342600  0.33359800  0.15574800  1
  O  O11  1  0.66640200  0.84657400  0.34425200  1
  O  O12  1  0.72272000  0.95410900  0.59065300  1
  O  O13  1  0.04589100  0.27728000  0.90934700  1
  O  O14  1  0.27728000  0.04589100  0.40934700  1
  O  O15  1  0.95410900  0.72272000  0.09065300  1
  O  O16  1  0.10516600  0.66631400  0.54964100  1
  O  O17  1  0.33368600  0.89483400  0.95035900  1
  O  O18  1  0.89483400  0.33368600  0.45035900  1
  O  O19  1  0.66631400  0.10516600  0.04964100  1
  O  O20  1  0.93980600  0.92698300  0.70294500  1
  O  O21  1  0.07301700  0.06019400  0.79705500  1
  O  O22  1  0.06019400  0.07301700  0.29705500  1
  O  O23  1  0.92698300  0.93980600  0.20294500  1
loop_
_geom_bond_atom_site_label_1
_geom_bond_atom_site_label_2
_geom_bond_distance
_geom_bond_site_symmetry_2
Li0 O1 1.978358 1_555
Li0 O0 1.978358 1_555
Li0 O23 2.000261 1_545
Li0 O22 2.000261 1_655
Li1 O2 1.978358 1_555
Li1 O3 1.978358 1_555
Li1 O21 2.000261 1_565
Li1 O20 2.000261 1_455
Ce0 O6 2.407846 1_555
Ce0 O7 2.407846 1_555
Ce0 O16 2.478553 1_555
Ce0 O17 2.478553 1_554
Ce0 O0 2.553959 1_555
Ce0 O1 2.553959 1_555
Ce0 O23 2.645276 1_455
Ce0 O22 2.645276 1_565
Ce1 O5 2.407846 1_555
Ce1 O4 2.407846 1_555
Ce1 O18 2.478553 1_555
Ce1 O19 2.478553 1_556
Ce1 O2 2.553959 1_555
Ce1 O3 2.553959 1_555
Ce1 O20 2.645276 1_545
Ce1 O21 2.645276 1_655
O0 P0 1.508125 1_555
O1 P1 1.508125 1_554
O2 P2 1.508125 1_555
O3 P3 1.508125 1_556
O4 P0 1.498692 1_555
O5 P1 1.498692 1_555
O6 P2 1.498692 1_555
O7 P3 1.498692 1_555
O8 P1 1.602009 1_555
O8 P4 1.614570 1_555
O9 P0 1.602009 1_555
O9 P5 1.614570 1_555
O10 P3 1.602009 1_555
O10 P6 1.614570 1_555
O11 P2 1.602009 1_555
O11 P7 1.614570 1_555
O12 P4 1.607875 1_555
O12 P0 1.617549 1_565
O13 P5 1.607875 1_555
O13 P1 1.617549 1_455
O14 P6 1.607875 1_555
O14 P2 1.617549 1_545
O15 P7 1.607875 1_555
O15 P3 1.617549 1_655
O16 P4 1.500033 1_455
O17 P5 1.500033 1_565
O18 P6 1.500033 1_655
O19 P7 1.500033 1_545
O20 P4 1.510766 1_555
O21 P5 1.510766 1_555
O22 P6 1.510766 1_555
O23 P7 1.510766 1_555
