# generated using pymatgen
data_Mg16Al12Pd
_symmetry_space_group_name_H-M   'P 1'
_cell_length_a   9.21373021
_cell_length_b   9.02118153
_cell_length_c   9.02118075
_cell_angle_alpha   109.03481227
_cell_angle_beta   109.90418795
_cell_angle_gamma   109.90416961
_symmetry_Int_Tables_number   1
_chemical_formula_structural   Mg16Al12Pd
_chemical_formula_sum   'Mg16 Al12 Pd1'
_cell_volume   574.10576582
_cell_formula_units_Z   1
loop_
 _symmetry_equiv_pos_site_id
 _symmetry_equiv_pos_as_xyz
  1  'x, y, z'
loop_
 _atom_site_type_symbol
 _atom_site_label
 _atom_site_symmetry_multiplicity
 _atom_site_fract_x
 _atom_site_fract_y
 _atom_site_fract_z
 _atom_site_occupancy
  Mg  Mg0  1  0.99155200  0.99999900  0.00000000  1
  Mg  Mg1  1  0.31796800  0.59579200  0.99999900  1
  Mg  Mg2  1  0.00214100  0.35021000  0.99999900  1
  Mg  Mg3  1  0.57992900  0.27671900  0.00000100  1
  Mg  Mg4  1  0.68260300  0.67734800  0.27740000  1
  Mg  Mg5  1  0.57992900  0.00000000  0.27671900  1
  Mg  Mg6  1  0.00525500  0.60005300  0.32265200  1
  Mg  Mg7  1  0.00214200  0.00000000  0.35021000  1
  Mg  Mg8  1  0.40520200  0.72260000  0.39994800  1
  Mg  Mg9  1  0.72217800  0.40420900  0.40420800  1
  Mg  Mg10  1  0.31796900  0.99999900  0.59579100  1
  Mg  Mg11  1  0.00525500  0.32265100  0.60005200  1
  Mg  Mg12  1  0.65193100  0.64978700  0.64978800  1
  Mg  Mg13  1  0.68260300  0.27740000  0.67734800  1
  Mg  Mg14  1  0.30321000  0.72328200  0.72328200  1
  Mg  Mg15  1  0.40520200  0.39994800  0.72260000  1
  Al  Al0  1  0.81369400  0.61725500  0.99999900  1
  Al  Al1  1  0.64797300  0.81138200  0.00000000  1
  Al  Al2  1  0.36725600  0.36342800  0.18267900  1
  Al  Al3  1  0.18457500  0.81732000  0.18074800  1
  Al  Al4  1  0.83659000  0.18862000  0.18861900  1
  Al  Al5  1  0.36725600  0.18267900  0.36342800  1
  Al  Al6  1  0.19643900  0.38274600  0.38274600  1
  Al  Al7  1  0.81369500  0.00000000  0.61725500  1
  Al  Al8  1  0.00382700  0.81925100  0.63657300  1
  Al  Al9  1  0.64797300  0.00000000  0.81138100  1
  Al  Al10  1  0.00382700  0.63657200  0.81925200  1
  Al  Al11  1  0.18457500  0.18074800  0.81732000  1
  Pd  Pd0  1  0.27725000  0.00000000  0.99999900  1
loop_
_geom_bond_atom_site_label_1
_geom_bond_atom_site_label_2
_geom_bond_distance
_geom_bond_site_symmetry_2
Mg0 Pd0 2.632344 1_664
Mg0 Mg7 3.127432 1_665
Mg0 Mg12 3.127450 1_554
Mg0 Mg2 3.127450 1_664
Mg1 Mg2 2.997724 1_555
Mg1 Mg14 3.053019 1_555
Mg1 Mg5 3.053031 1_566
Mg1 Mg15 3.079328 1_555
Mg1 Mg4 3.079343 1_556
Mg1 Mg11 3.111180 1_555
Mg1 Mg8 3.111196 1_556
Mg2 Mg6 3.028678 1_556
Mg3 Pd0 3.044468 1_554
Mg3 Mg9 3.053018 1_555
Mg3 Mg4 3.221794 1_555
Mg3 Mg6 3.354065 1_655
Mg4 Mg7 3.028673 1_665
Mg4 Mg9 3.111181 1_555
Mg4 Mg5 3.354065 1_565
Mg5 Pd0 3.044482 1_554
Mg5 Mg9 3.053036 1_555
Mg5 Mg8 3.221800 1_545
Mg6 Mg9 3.079327 1_455
Mg10 Mg7 2.997724 1_565
Mg10 Mg14 3.053024 1_555
Mg10 Mg3 3.053042 1_566
Mg10 Mg8 3.079317 1_555
Mg10 Mg13 3.079334 1_565
Mg10 Mg6 3.111176 1_555
Mg10 Mg15 3.111198 1_565
Mg11 Mg7 3.028667 1_555
Mg11 Mg9 3.079339 1_455
Mg11 Mg14 3.221807 1_555
Mg11 Mg5 3.354063 1_455
Mg12 Mg9 2.997706 1_555
Mg12 Mg15 3.028671 1_555
Mg12 Mg8 3.028682 1_555
Mg13 Mg2 3.028662 1_655
Mg13 Mg9 3.111195 1_555
Mg13 Mg5 3.221797 1_555
Mg13 Mg3 3.354074 1_556
Mg14 Pd0 3.044463 1_565
Mg14 Mg6 3.221802 1_555
Mg14 Mg15 3.354067 1_555
Mg14 Mg8 3.354067 1_555
Mg15 Mg3 3.221806 1_556
Al0 Al1 2.686831 1_556
Al0 Al10 2.771357 1_655
Al0 Al3 2.771363 1_656
Al0 Mg13 2.931652 1_555
Al0 Mg6 2.931658 1_656
Al0 Mg3 3.093744 1_556
Al0 Mg15 3.103895 1_555
Al0 Mg4 3.103899 1_556
Al0 Mg12 3.159946 1_555
Al0 Mg7 3.159957 1_666
Al0 Mg0 3.279422 1_556
Al1 Al9 2.771136 1_564
Al1 Al4 2.771143 1_565
Al1 Mg14 2.922556 1_554
Al1 Mg5 2.922557 1_565
Al1 Mg1 3.000186 1_554
Al1 Mg7 3.036145 1_665
Al1 Mg12 3.036161 1_554
Al1 Mg0 3.041205 1_555
Al1 Mg4 3.085281 1_555
Al1 Mg15 3.085282 1_554
Al2 Al5 2.655519 1_555
Al2 Al6 2.771387 1_555
Al2 Pd0 2.801134 1_554
Al2 Mg4 2.884533 1_555
Al2 Mg9 3.012393 1_555
Al2 Mg8 3.013648 1_555
Al2 Mg3 3.093369 1_555
Al2 Mg1 3.115776 1_554
Al2 Mg2 3.141797 1_554
Al2 Mg0 3.211150 1_445
Al3 Al5 2.683882 1_565
Al3 Pd0 2.801144 1_564
Al3 Mg8 2.884535 1_555
Al3 Mg1 3.012392 1_554
Al3 Mg6 3.013631 1_555
Al3 Mg5 3.093389 1_565
Al3 Mg10 3.115765 1_555
Al3 Mg7 3.141782 1_565
Al3 Mg0 3.211131 1_455
Al4 Al6 2.686838 1_655
Al4 Al9 2.771143 1_554
Al4 Mg3 2.922537 1_555
Al4 Mg5 2.922551 1_555
Al4 Mg9 3.000159 1_555
Al4 Mg2 3.036153 1_654
Al4 Mg7 3.036162 1_655
Al4 Mg0 3.041234 1_545
Al4 Mg6 3.085275 1_655
Al4 Mg11 3.085277 1_655
Al5 Al6 2.771387 1_555
Al5 Pd0 2.801140 1_554
Al5 Mg13 2.884532 1_555
Al5 Mg9 3.012400 1_555
Al5 Mg15 3.013648 1_555
Al5 Mg5 3.093375 1_555
Al5 Mg10 3.115767 1_545
Al5 Mg7 3.141788 1_555
Al5 Mg0 3.211144 1_445
Al6 Mg15 2.931650 1_555
Al6 Mg8 2.931651 1_555
Al6 Mg14 3.093734 1_555
Al6 Mg11 3.103887 1_555
Al6 Mg6 3.103893 1_555
Al6 Mg7 3.159957 1_555
Al6 Mg2 3.159965 1_554
Al6 Mg0 3.279448 1_445
Al7 Al9 2.686831 1_555
Al7 Al8 2.771364 1_645
Al7 Mg11 2.931646 1_655
Al7 Mg4 2.931654 1_545
Al7 Mg5 3.093736 1_555
Al7 Mg13 3.103898 1_555
Al7 Mg8 3.103904 1_545
Al7 Mg2 3.159950 1_655
Al7 Mg12 3.159969 1_545
Al7 Mg0 3.279437 1_546
Al8 Pd0 2.801123 1_565
Al8 Mg6 2.884542 1_555
Al8 Mg10 3.012407 1_555
Al8 Mg4 3.013644 1_455
Al8 Mg14 3.093377 1_555
Al8 Mg9 3.115759 1_455
Al8 Mg12 3.141777 1_455
Al8 Mg0 3.211131 1_456
Al9 Mg14 2.922560 1_545
Al9 Mg3 2.922564 1_556
Al9 Mg10 3.000178 1_545
Al9 Mg2 3.036141 1_655
Al9 Mg12 3.036166 1_545
Al9 Mg0 3.041213 1_546
Al9 Mg13 3.085275 1_555
Al9 Mg8 3.085275 1_545
Al10 Al3 2.655504 1_556
Al10 Al8 2.683874 1_555
Al10 Pd0 2.801137 1_565
Al10 Mg11 2.884548 1_555
Al10 Mg1 3.012385 1_555
Al10 Mg13 3.013637 1_455
Al10 Mg14 3.093384 1_555
Al10 Mg9 3.115771 1_455
Al10 Mg12 3.141777 1_455
Al10 Mg0 3.211132 1_456
Al11 Al8 2.655512 1_545
Al11 Al2 2.683881 1_556
Al11 Al7 2.771356 1_455
Al11 Pd0 2.801130 1_555
Al11 Mg15 2.884536 1_555
Al11 Mg10 3.012406 1_545
Al11 Mg11 3.013629 1_555
Al11 Mg3 3.093389 1_556
Al11 Mg1 3.115775 1_555
Al11 Mg2 3.141785 1_555
Al11 Mg0 3.211144 1_446
