# generated using pymatgen
data_CrP8W3
_symmetry_space_group_name_H-M   'P 1'
_cell_length_a   4.51058172
_cell_length_b   4.51058172
_cell_length_c   13.00052524
_cell_angle_alpha   85.01863626
_cell_angle_beta   85.01863626
_cell_angle_gamma   40.91311095
_symmetry_Int_Tables_number   1
_chemical_formula_structural   CrP8W3
_chemical_formula_sum   'Cr1 P8 W3'
_cell_volume   172.47931584
_cell_formula_units_Z   1
loop_
 _symmetry_equiv_pos_site_id
 _symmetry_equiv_pos_as_xyz
  1  'x, y, z'
loop_
 _atom_site_type_symbol
 _atom_site_label
 _atom_site_symmetry_multiplicity
 _atom_site_fract_x
 _atom_site_fract_y
 _atom_site_fract_z
 _atom_site_occupancy
  Cr  Cr0  1  0.55420400  0.55420400  0.60363300  1
  P  P0  1  0.85004700  0.85004700  0.55420400  1
  P  P1  1  0.34935600  0.34935600  0.04937000  1
  P  P2  1  0.65171100  0.65171100  0.94626600  1
  P  P3  1  0.14963800  0.14963800  0.45838600  1
  P  P4  1  0.12261400  0.12261400  0.72890700  1
  P  P5  1  0.62394300  0.62394300  0.24027600  1
  P  P6  1  0.37867000  0.37867000  0.75465900  1
  P  P7  1  0.87484200  0.87484200  0.26542400  1
  W  W0  1  0.05481600  0.05481600  0.10355600  1
  W  W1  1  0.94603700  0.94603700  0.89289200  1
  W  W2  1  0.44412300  0.44412300  0.40242700  1
loop_
_geom_bond_atom_site_label_1
_geom_bond_atom_site_label_2
_geom_bond_distance
_geom_bond_site_symmetry_2
Cr0 P6 2.348684 1_555
Cr0 P4 2.376228 1_655
Cr0 P4 2.376228 1_565
Cr0 P0 2.466024 1_455
Cr0 P0 2.466024 1_545
Cr0 P0 2.523455 1_555
Cr0 P3 2.533597 1_565
Cr0 P3 2.533597 1_655
Cr0 W2 2.856422 1_555
P0 W2 2.592305 1_655
P0 W2 2.592305 1_565
P1 W0 2.494781 1_655
P1 W0 2.494781 1_565
P1 W0 2.523677 1_555
P1 W1 2.642566 1_454
P1 W1 2.642566 1_544
P2 W1 2.492446 1_455
P2 W1 2.492446 1_545
P2 W1 2.519977 1_555
P2 W0 2.650829 1_566
P2 W0 2.650829 1_656
P3 W2 2.503205 1_545
P3 W2 2.503205 1_455
P3 W2 2.527660 1_555
P4 P6 2.220445 1_555
P4 W1 2.486502 1_445
P4 P6 2.592418 1_545
P4 P6 2.592418 1_455
P5 P7 2.175458 1_555
P5 W2 2.481946 1_555
P5 W0 2.485616 1_565
P5 W0 2.485616 1_655
P5 P7 2.626298 1_455
P5 P7 2.626298 1_545
P6 W1 2.495718 1_455
P6 W1 2.495718 1_545
P7 W0 2.479727 1_665
P7 W2 2.488720 1_565
P7 W2 2.488720 1_655
