# generated using pymatgen
data_Zn(WO2)4
_symmetry_space_group_name_H-M   'P 1'
_cell_length_a   7.77261185
_cell_length_b   7.77261185
_cell_length_c   7.77261185
_cell_angle_alpha   92.58417068
_cell_angle_beta   92.58417068
_cell_angle_gamma   155.48131788
_symmetry_Int_Tables_number   1
_chemical_formula_structural   Zn(WO2)4
_chemical_formula_sum   'Zn1 W4 O8'
_cell_volume   190.42343673
_cell_formula_units_Z   1
loop_
 _symmetry_equiv_pos_site_id
 _symmetry_equiv_pos_as_xyz
  1  'x, y, z'
loop_
 _atom_site_type_symbol
 _atom_site_label
 _atom_site_symmetry_multiplicity
 _atom_site_fract_x
 _atom_site_fract_y
 _atom_site_fract_z
 _atom_site_occupancy
  Zn  Zn0  1  0.50000000  0.50000000  0.00000000  1
  W  W0  1  0.84055800  0.34121400  0.18177300  1
  W  W1  1  0.65878600  0.84055800  0.49934400  1
  W  W2  1  0.34121400  0.15944200  0.50065600  1
  W  W3  1  0.15944200  0.65878600  0.81822700  1
  O  O0  1  0.53619600  0.15619100  0.69238700  1
  O  O1  1  0.84380900  0.53619600  0.38000500  1
  O  O2  1  0.15619100  0.46380400  0.61999500  1
  O  O3  1  0.46380400  0.84380900  0.30761300  1
  O  O4  1  0.21564600  0.83343500  0.04908100  1
  O  O5  1  0.16656500  0.21564600  0.38221100  1
  O  O6  1  0.78435400  0.16656500  0.95091900  1
  O  O7  1  0.83343500  0.78435400  0.61778900  1
loop_
_geom_bond_atom_site_label_1
_geom_bond_atom_site_label_2
_geom_bond_distance
_geom_bond_site_symmetry_2
O0 W2 2.094685 1_555
O0 W3 2.115935 1_545
O0 W3 2.115938 1_655
O1 W0 2.094680 1_555
O1 W2 2.115940 1_555
O1 W2 2.115940 1_665
O2 W3 2.094680 1_555
O2 W1 2.115940 1_555
O2 W1 2.115940 1_445
O3 W1 2.094685 1_555
O3 W0 2.115935 1_565
O3 W0 2.115938 1_455
O4 W3 1.970743 1_554
O4 W0 2.128642 1_565
O4 W0 2.128645 1_455
O5 W2 1.970736 1_555
O5 W1 2.128640 1_445
O5 W1 2.128640 1_555
O6 W0 1.970743 1_556
O6 W3 2.128642 1_545
O6 W3 2.128645 1_655
O7 W1 1.970736 1_555
O7 W2 2.128640 1_665
O7 W2 2.128640 1_555
