# generated using pymatgen
data_Sr2TbCu2(BiO4)2
_symmetry_space_group_name_H-M   'P 1'
_cell_length_a   15.53949813
_cell_length_b   15.53949813
_cell_length_c   15.53949813
_cell_angle_alpha   165.95681401
_cell_angle_beta   165.95681401
_cell_angle_gamma   19.91041981
_symmetry_Int_Tables_number   1
_chemical_formula_structural   Sr2TbCu2(BiO4)2
_chemical_formula_sum   'Sr2 Tb1 Cu2 Bi2 O8'
_cell_volume   220.91893693
_cell_formula_units_Z   1
loop_
 _symmetry_equiv_pos_site_id
 _symmetry_equiv_pos_as_xyz
  1  'x, y, z'
loop_
 _atom_site_type_symbol
 _atom_site_label
 _atom_site_symmetry_multiplicity
 _atom_site_fract_x
 _atom_site_fract_y
 _atom_site_fract_z
 _atom_site_occupancy
  Sr  Sr0  1  0.11433200  0.11433200  0.00000000  1
  Sr  Sr1  1  0.88566800  0.88566800  0.00000000  1
  Tb  Tb0  1  0.00000000  0.00000000  0.00000000  1
  Cu  Cu0  1  0.44736100  0.44736100  0.00000000  1
  Cu  Cu1  1  0.55263900  0.55263900  0.00000000  1
  Bi  Bi0  1  0.29597600  0.29597600  0.00000000  1
  Bi  Bi1  1  0.70402400  0.70402400  0.00000000  1
  O  O0  1  0.54895600  0.04895600  0.50000000  1
  O  O1  1  0.45104400  0.95104400  0.50000000  1
  O  O2  1  0.04895600  0.54895600  0.50000000  1
  O  O3  1  0.95104400  0.45104400  0.50000000  1
  O  O4  1  0.20208900  0.20208900  0.00000000  1
  O  O5  1  0.79791100  0.79791100  0.00000000  1
  O  O6  1  0.36550800  0.36550800  0.00000000  1
  O  O7  1  0.63449200  0.63449200  0.00000000  1
loop_
_geom_bond_atom_site_label_1
_geom_bond_atom_site_label_2
_geom_bond_distance
_geom_bond_site_symmetry_2
Cu0 O1 1.902944 1_544
Cu0 O3 1.902944 1_454
Cu0 O3 1.902944 1_555
Cu0 O1 1.902944 1_555
Cu0 O6 2.505606 1_555
Cu1 O2 1.902944 1_655
Cu1 O0 1.902944 1_554
Cu1 O0 1.902944 1_565
Cu1 O2 1.902944 1_554
Cu1 O7 2.505606 1_555
Bi0 O6 2.128447 1_555
Bi0 O5 2.687094 1_556
Bi0 O5 2.687094 1_444
Bi0 O5 2.687094 1_545
Bi0 O5 2.687094 1_455
Bi0 O4 2.873979 1_555
Bi1 O7 2.128447 1_555
Bi1 O4 2.687094 1_666
Bi1 O4 2.687094 1_554
Bi1 O4 2.687094 1_565
Bi1 O4 2.687094 1_655
Bi1 O5 2.873979 1_555
O0 Tb0 2.419560 1_555
O0 Tb0 2.419560 1_656
O0 Sr0 2.759238 1_555
O0 Sr0 2.759238 1_656
O1 Tb0 2.419560 1_565
O1 Tb0 2.419560 1_666
O1 Sr1 2.759238 1_455
O1 Sr1 2.759238 1_556
O2 Tb0 2.419560 1_566
O2 Tb0 2.419560 1_555
O2 Sr0 2.759238 1_555
O2 Sr0 2.759238 1_566
O3 Tb0 2.419560 1_655
O3 Tb0 2.419560 1_666
O3 Sr1 2.759238 1_545
O3 Sr1 2.759238 1_556
O4 Sr0 2.686334 1_555
O5 Sr1 2.686334 1_555
O6 Sr1 2.756411 1_455
O6 Sr1 2.756411 1_556
O6 Sr1 2.756411 1_545
O6 Sr1 2.756411 1_444
O7 Sr0 2.756411 1_666
O7 Sr0 2.756411 1_565
O7 Sr0 2.756411 1_655
O7 Sr0 2.756411 1_554
