# generated using pymatgen
data_KLuH8(CO3)4
_symmetry_space_group_name_H-M   'P 1'
_cell_length_a   9.08681600
_cell_length_b   9.24179160
_cell_length_c   9.24179160
_cell_angle_alpha   76.01394098
_cell_angle_beta   60.55318088
_cell_angle_gamma   60.55318088
_symmetry_Int_Tables_number   1
_chemical_formula_structural   KLuH8(CO3)4
_chemical_formula_sum   'K2 Lu2 H16 C8 O24'
_cell_volume   588.53631389
_cell_formula_units_Z   2
loop_
 _symmetry_equiv_pos_site_id
 _symmetry_equiv_pos_as_xyz
  1  'x, y, z'
loop_
 _atom_site_type_symbol
 _atom_site_label
 _atom_site_symmetry_multiplicity
 _atom_site_fract_x
 _atom_site_fract_y
 _atom_site_fract_z
 _atom_site_occupancy
  K  K0  1  0.37500000  0.75000000  0.75000000  1
  K  K1  1  0.62500000  0.25000000  0.25000000  1
  Lu  Lu0  1  0.87500000  0.75000000  0.75000000  1
  Lu  Lu1  1  0.12500000  0.25000000  0.25000000  1
  H  H0  1  0.45555600  0.39657400  0.91284700  1
  H  H1  1  0.26497700  0.10342600  0.58715300  1
  H  H2  1  0.86840300  0.08715300  0.89657400  1
  H  H3  1  0.35213000  0.41284700  0.60342600  1
  H  H4  1  0.54444400  0.60342600  0.08715300  1
  H  H5  1  0.73502300  0.89657400  0.41284700  1
  H  H6  1  0.13159700  0.91284700  0.10342600  1
  H  H7  1  0.64787000  0.58715300  0.39657400  1
  H  H8  1  0.67383800  0.34043100  0.82573900  1
  H  H9  1  0.34000800  0.15956900  0.67426100  1
  H  H10  1  0.99957700  0.17426100  0.84043100  1
  H  H11  1  0.51426900  0.32573900  0.65956900  1
  H  H12  1  0.32616200  0.65956900  0.17426100  1
  H  H13  1  0.65999200  0.84043100  0.32573900  1
  H  H14  1  0.00042300  0.82573900  0.15956900  1
  H  H15  1  0.48573100  0.67426100  0.34043100  1
  C  C0  1  0.07432800  0.98034600  0.52829600  1
  C  C1  1  0.08297000  0.51965400  0.97170400  1
  C  C2  1  0.10262300  0.47170400  0.48034600  1
  C  C3  1  0.55467400  0.02829600  0.01965400  1
  C  C4  1  0.92567200  0.01965400  0.47170400  1
  C  C5  1  0.91703000  0.48034600  0.02829600  1
  C  C6  1  0.89737700  0.52829600  0.51965400  1
  C  C7  1  0.44532600  0.97170400  0.98034600  1
  O  O0  1  0.56035800  0.39877700  0.80614300  1
  O  O1  1  0.26527900  0.10122300  0.69385700  1
  O  O2  1  0.86650100  0.19385700  0.89877700  1
  O  O3  1  0.45913600  0.30614300  0.60122300  1
  O  O4  1  0.43964200  0.60122300  0.19385700  1
  O  O5  1  0.73472100  0.89877700  0.30614300  1
  O  O6  1  0.13349900  0.80614300  0.10122300  1
  O  O7  1  0.54086400  0.69385700  0.39877700  1
  O  O8  1  0.08397900  0.87408700  0.64254000  1
  O  O9  1  0.10060700  0.62591300  0.85746000  1
  O  O10  1  0.22651900  0.35746000  0.37408700  1
  O  O11  1  0.45806600  0.14254000  0.12591300  1
  O  O12  1  0.91602100  0.12591300  0.35746000  1
  O  O13  1  0.89939300  0.37408700  0.14254000  1
  O  O14  1  0.77348100  0.64254000  0.62591300  1
  O  O15  1  0.54193400  0.85746000  0.87408700  1
  O  O16  1  0.17409600  0.05972500  0.45464800  1
  O  O17  1  0.18846900  0.44027500  0.04535200  1
  O  O18  1  0.12874300  0.54535200  0.55972500  1
  O  O19  1  0.73382100  0.95464800  0.94027500  1
  O  O20  1  0.82590400  0.94027500  0.54535200  1
  O  O21  1  0.81153100  0.55972500  0.95464800  1
  O  O22  1  0.87125700  0.45464800  0.44027500  1
  O  O23  1  0.26617900  0.04535200  0.05972500  1
loop_
_geom_bond_atom_site_label_1
_geom_bond_atom_site_label_2
_geom_bond_distance
_geom_bond_site_symmetry_2
K0 O6 2.883034 1_556
K0 O0 2.883034 1_555
K0 O1 2.883036 1_565
K0 O7 2.883036 1_555
K0 O9 2.888676 1_555
K0 O14 2.888684 1_555
K0 O8 2.888684 1_555
K0 O15 2.888684 1_555
K1 O2 2.883034 1_554
K1 O4 2.883034 1_555
K1 O3 2.883036 1_555
K1 O5 2.883036 1_545
K1 O13 2.888676 1_555
K1 O11 2.888684 1_555
K1 O12 2.888684 1_555
K1 O10 2.888684 1_555
Lu0 O18 2.306295 1_655
Lu0 O21 2.306297 1_555
Lu0 O19 2.306297 1_555
Lu0 O20 2.306297 1_555
Lu0 O8 2.375675 1_655
Lu0 O14 2.375675 1_555
Lu0 O15 2.375675 1_555
Lu0 O9 2.375682 1_655
Lu1 O22 2.306295 1_455
Lu1 O23 2.306297 1_555
Lu1 O17 2.306297 1_555
Lu1 O16 2.306297 1_555
Lu1 O11 2.375675 1_555
Lu1 O12 2.375675 1_455
Lu1 O10 2.375675 1_555
Lu1 O13 2.375682 1_455
H0 O0 0.982740 1_555
H1 O1 0.982745 1_555
H2 O2 0.982740 1_555
H3 O3 0.982745 1_555
H4 O4 0.982740 1_555
H5 O5 0.982745 1_555
H6 O6 0.982740 1_555
H7 O7 0.982745 1_555
H8 O0 0.988221 1_555
H9 O1 0.988213 1_555
H10 O2 0.988221 1_555
H11 O3 0.988213 1_555
H12 O4 0.988221 1_555
H13 O5 0.988213 1_555
H14 O6 0.988221 1_555
H15 O7 0.988213 1_555
C0 O8 1.261745 1_555
C0 O16 1.276391 1_565
C1 O9 1.261746 1_555
C1 O17 1.276391 1_556
C2 O10 1.261746 1_555
C2 O18 1.276391 1_555
C3 O11 1.261745 1_555
C3 O19 1.276391 1_544
C4 O12 1.261745 1_555
C4 O20 1.276391 1_545
C5 O13 1.261746 1_555
C5 O21 1.276391 1_554
C6 O14 1.261746 1_555
C6 O22 1.276391 1_555
C7 O15 1.261745 1_555
C7 O23 1.276391 1_566
