# generated using pymatgen
data_Na(CrS2)2
_symmetry_space_group_name_H-M   'P 1'
_cell_length_a   3.53080300
_cell_length_b   10.96228700
_cell_length_c   12.76431200
_cell_angle_alpha   90.00000000
_cell_angle_beta   90.00000000
_cell_angle_gamma   90.00000000
_symmetry_Int_Tables_number   1
_chemical_formula_structural   Na(CrS2)2
_chemical_formula_sum   'Na4 Cr8 S16'
_cell_volume   494.05132242
_cell_formula_units_Z   4
loop_
 _symmetry_equiv_pos_site_id
 _symmetry_equiv_pos_as_xyz
  1  'x, y, z'
loop_
 _atom_site_type_symbol
 _atom_site_label
 _atom_site_symmetry_multiplicity
 _atom_site_fract_x
 _atom_site_fract_y
 _atom_site_fract_z
 _atom_site_occupancy
  Na  Na0  1  0.25000000  0.23928600  0.33457100  1
  Na  Na1  1  0.75000000  0.76071400  0.66542900  1
  Na  Na2  1  0.75000000  0.26071400  0.83457100  1
  Na  Na3  1  0.25000000  0.73928600  0.16542900  1
  Cr  Cr0  1  0.25000000  0.05886600  0.11305500  1
  Cr  Cr1  1  0.75000000  0.94113400  0.88694500  1
  Cr  Cr2  1  0.75000000  0.44113400  0.61305500  1
  Cr  Cr3  1  0.25000000  0.55886600  0.38694500  1
  Cr  Cr4  1  0.25000000  0.08312800  0.60245300  1
  Cr  Cr5  1  0.75000000  0.91687200  0.39754700  1
  Cr  Cr6  1  0.75000000  0.41687200  0.10245300  1
  Cr  Cr7  1  0.25000000  0.58312800  0.89754700  1
  S  S0  1  0.75000000  0.02788300  0.71489600  1
  S  S1  1  0.25000000  0.97211700  0.28510400  1
  S  S2  1  0.25000000  0.47211700  0.21489600  1
  S  S3  1  0.75000000  0.52788300  0.78510400  1
  S  S4  1  0.25000000  0.08098900  0.92928400  1
  S  S5  1  0.75000000  0.91901100  0.07071600  1
  S  S6  1  0.75000000  0.41901100  0.42928400  1
  S  S7  1  0.25000000  0.58098900  0.57071600  1
  S  S8  1  0.75000000  0.11510700  0.47990400  1
  S  S9  1  0.25000000  0.88489300  0.52009600  1
  S  S10  1  0.25000000  0.38489300  0.97990400  1
  S  S11  1  0.75000000  0.61510700  0.02009600  1
  S  S12  1  0.75000000  0.20139500  0.14718000  1
  S  S13  1  0.25000000  0.79860500  0.85282000  1
  S  S14  1  0.25000000  0.29860500  0.64718000  1
  S  S15  1  0.75000000  0.70139500  0.35282000  1
loop_
_geom_bond_atom_site_label_1
_geom_bond_atom_site_label_2
_geom_bond_distance
_geom_bond_site_symmetry_2
Na0 S8 2.900181 1_455
Na0 S8 2.900181 1_555
Na0 S6 2.908586 1_555
Na0 S6 2.908586 1_455
Na0 S2 2.974560 1_555
Na0 S1 2.996073 1_545
Na0 S12 3.001740 1_555
Na0 S12 3.001740 1_455
Na1 S9 2.900181 1_555
Na1 S9 2.900181 1_655
Na1 S7 2.908586 1_655
Na1 S7 2.908586 1_555
Na1 S3 2.974560 1_555
Na1 S0 2.996073 1_565
Na1 S13 3.001740 1_555
Na1 S13 3.001740 1_655
Na2 S10 2.900181 1_555
Na2 S10 2.900181 1_655
Na2 S4 2.908586 1_655
Na2 S4 2.908586 1_555
Na2 S0 2.974560 1_555
Na2 S3 2.996073 1_555
Na2 S14 3.001740 1_655
Na2 S14 3.001740 1_555
Na3 S11 2.900181 1_455
Na3 S11 2.900181 1_555
Na3 S5 2.908586 1_455
Na3 S5 2.908586 1_555
Na3 S1 2.974560 1_555
Na3 S2 2.996073 1_555
Na3 S15 3.001740 1_455
Na3 S15 3.001740 1_555
Cr0 S4 2.358214 1_554
Cr0 S1 2.393144 1_545
Cr0 S12 2.397416 1_455
Cr0 S12 2.397416 1_555
Cr0 S5 2.399832 1_445
Cr0 S5 2.399832 1_545
Cr1 S5 2.358214 1_556
Cr1 S0 2.393144 1_565
Cr1 S13 2.397416 1_655
Cr1 S13 2.397416 1_555
Cr1 S4 2.399832 1_565
Cr1 S4 2.399832 1_665
Cr2 S6 2.358214 1_555
Cr2 S3 2.393144 1_555
Cr2 S14 2.397416 1_555
Cr2 S14 2.397416 1_655
Cr2 S7 2.399832 1_655
Cr2 S7 2.399832 1_555
Cr3 S7 2.358214 1_555
Cr3 S2 2.393144 1_555
Cr3 S15 2.397416 1_455
Cr3 S15 2.397416 1_555
Cr3 S6 2.399832 1_555
Cr3 S6 2.399832 1_455
Cr4 S0 2.354437 1_555
Cr4 S0 2.354437 1_455
Cr4 S8 2.384623 1_455
Cr4 S8 2.384623 1_555
Cr4 S9 2.414019 1_545
Cr4 S14 2.430134 1_555
Cr5 S1 2.354437 1_555
Cr5 S1 2.354437 1_655
Cr5 S9 2.384623 1_555
Cr5 S9 2.384623 1_655
Cr5 S8 2.414019 1_565
Cr5 S15 2.430134 1_555
Cr6 S2 2.354437 1_555
Cr6 S2 2.354437 1_655
Cr6 S10 2.384623 1_654
Cr6 S10 2.384623 1_554
Cr6 S11 2.414019 1_555
Cr6 S12 2.430134 1_555
Cr7 S3 2.354437 1_455
Cr7 S3 2.354437 1_555
Cr7 S11 2.384623 1_456
Cr7 S11 2.384623 1_556
Cr7 S10 2.414019 1_555
Cr7 S13 2.430134 1_555
