# generated using pymatgen
data_CeCu5Au
_symmetry_space_group_name_H-M   'P 1'
_cell_length_a   5.03945690
_cell_length_b   8.18756835
_cell_length_c   10.32556351
_cell_angle_alpha   90.00000000
_cell_angle_beta   90.00000000
_cell_angle_gamma   90.00000000
_symmetry_Int_Tables_number   1
_chemical_formula_structural   CeCu5Au
_chemical_formula_sum   'Ce4 Cu20 Au4'
_cell_volume   426.04202087
_cell_formula_units_Z   4
loop_
 _symmetry_equiv_pos_site_id
 _symmetry_equiv_pos_as_xyz
  1  'x, y, z'
loop_
 _atom_site_type_symbol
 _atom_site_label
 _atom_site_symmetry_multiplicity
 _atom_site_fract_x
 _atom_site_fract_y
 _atom_site_fract_z
 _atom_site_occupancy
  Ce  Ce0  1  0.25000000  0.25937330  0.56461511  1
  Ce  Ce1  1  0.75000000  0.74062670  0.43538489  1
  Ce  Ce2  1  0.25000000  0.75937330  0.93538489  1
  Ce  Ce3  1  0.75000000  0.24062670  0.06461511  1
  Cu  Cu0  1  0.49989908  0.56729808  0.18679478  1
  Cu  Cu1  1  -0.00010092  0.43270192  0.81320522  1
  Cu  Cu2  1  0.00010092  0.06729808  0.31320522  1
  Cu  Cu3  1  0.50010092  0.93270192  0.68679478  1
  Cu  Cu4  1  0.50010092  0.43270192  0.81320522  1
  Cu  Cu5  1  0.00010092  0.56729808  0.18679478  1
  Cu  Cu6  1  -0.00010092  0.93270192  0.68679478  1
  Cu  Cu7  1  0.49989908  0.06729808  0.31320522  1
  Cu  Cu8  1  0.75000000  0.94539347  0.89184954  1
  Cu  Cu9  1  0.25000000  0.05460653  0.10815046  1
  Cu  Cu10  1  0.75000000  0.44539347  0.60815046  1
  Cu  Cu11  1  0.25000000  0.55460653  0.39184954  1
  Cu  Cu12  1  0.75000000  0.68334954  0.75421975  1
  Cu  Cu13  1  0.25000000  0.31665046  0.24578025  1
  Cu  Cu14  1  0.75000000  0.18334954  0.74578025  1
  Cu  Cu15  1  0.25000000  0.81665046  0.25421975  1
  Cu  Cu16  1  0.75000000  0.58877701  0.98448893  1
  Cu  Cu17  1  0.25000000  0.41122299  0.01551107  1
  Cu  Cu18  1  0.75000000  0.08877701  0.51551107  1
  Cu  Cu19  1  0.25000000  0.91122299  0.48448893  1
  Au  Au0  1  0.25000000  0.14082238  0.86286306  1
  Au  Au1  1  0.75000000  0.85917762  0.13713694  1
  Au  Au2  1  0.25000000  0.64082238  0.63713694  1
  Au  Au3  1  0.75000000  0.35917762  0.36286306  1
loop_
_geom_bond_atom_site_label_1
_geom_bond_atom_site_label_2
_geom_bond_distance
_geom_bond_site_symmetry_2
Ce0 Cu18 2.925247 1_555
Ce0 Cu18 2.925247 1_455
Ce0 Cu19 2.968144 1_545
Ce0 Cu10 2.978388 1_455
Ce0 Cu10 2.978388 1_555
Ce0 Cu11 3.004225 1_555
Ce0 Cu4 3.192355 1_555
Ce0 Cu1 3.192355 1_555
Ce0 Cu14 3.199334 1_455
Ce0 Cu14 3.199334 1_555
Ce0 Cu3 3.214628 1_545
Ce0 Cu6 3.214628 1_545
Ce0 Cu2 3.286045 1_555
Ce0 Cu7 3.286045 1_555
Ce0 Cu13 3.325383 1_555
Ce1 Cu19 2.925247 1_555
Ce1 Cu19 2.925247 1_655
Ce1 Cu18 2.968144 1_565
Ce1 Cu11 2.978388 1_555
Ce1 Cu11 2.978388 1_655
Ce1 Cu10 3.004225 1_555
Ce1 Cu5 3.192355 1_655
Ce1 Cu0 3.192355 1_555
Ce1 Cu15 3.199334 1_555
Ce1 Cu15 3.199334 1_655
Ce1 Cu2 3.214628 1_665
Ce1 Cu7 3.214628 1_565
Ce1 Cu6 3.286045 1_655
Ce1 Cu3 3.286045 1_555
Ce1 Cu12 3.325383 1_555
Ce2 Cu16 2.925247 1_455
Ce2 Cu16 2.925247 1_555
Ce2 Cu17 2.968144 1_556
Ce2 Cu8 2.978388 1_555
Ce2 Cu8 2.978388 1_455
Ce2 Cu9 3.004225 1_566
Ce2 Cu6 3.192355 1_555
Ce2 Cu3 3.192355 1_555
Ce2 Cu12 3.199334 1_555
Ce2 Cu12 3.199334 1_455
Ce2 Cu4 3.214628 1_555
Ce2 Cu1 3.214628 1_555
Ce2 Cu0 3.286045 1_556
Ce2 Cu5 3.286045 1_556
Ce2 Cu15 3.325383 1_556
Ce3 Cu17 2.925247 1_655
Ce3 Cu17 2.925247 1_555
Ce3 Cu16 2.968144 1_554
Ce3 Cu9 2.978388 1_655
Ce3 Cu9 2.978388 1_555
Ce3 Cu8 3.004225 1_544
Ce3 Cu2 3.192355 1_655
Ce3 Cu7 3.192355 1_555
Ce3 Cu13 3.199334 1_555
Ce3 Cu13 3.199334 1_655
Ce3 Cu5 3.214628 1_655
Ce3 Cu0 3.214628 1_555
Ce3 Cu1 3.286045 1_654
Ce3 Cu4 3.286045 1_554
Ce3 Cu14 3.325383 1_554
Cu0 Cu16 2.446030 1_554
Cu0 Cu11 2.465717 1_555
Cu0 Cu13 2.483633 1_555
Cu0 Cu15 2.497751 1_555
Cu0 Cu5 2.518711 1_555
Cu0 Cu17 2.519304 1_555
Cu0 Cu5 2.520746 1_655
Cu1 Cu17 2.446030 1_556
Cu1 Cu10 2.465717 1_455
Cu1 Cu12 2.483633 1_455
Cu1 Cu14 2.497751 1_455
Cu1 Cu4 2.518711 1_455
Cu1 Cu16 2.519304 1_455
Cu1 Cu4 2.520746 1_555
Cu2 Cu9 2.465717 1_555
Cu2 Cu7 2.518711 1_555
Cu2 Cu7 2.520746 1_455
Cu3 Cu8 2.465717 1_555
Cu3 Cu6 2.518711 1_655
Cu3 Cu6 2.520746 1_555
Cu6 Cu8 2.465717 1_455
Cu7 Cu9 2.465717 1_555
Cu10 Cu12 2.463861 1_555
Cu10 Cu4 2.465717 1_555
Cu10 Cu14 2.573465 1_555
Cu11 Cu13 2.463861 1_555
Cu11 Cu5 2.465717 1_555
Cu11 Cu15 2.573465 1_555
Cu12 Cu4 2.483633 1_555
Cu12 Cu3 2.497751 1_555
Cu12 Cu6 2.497751 1_655
Cu12 Cu16 2.500566 1_555
Cu12 Cu8 2.573465 1_555
Cu13 Cu5 2.483633 1_555
Cu13 Cu2 2.497751 1_555
Cu13 Cu7 2.497751 1_555
Cu13 Cu17 2.500566 1_555
Cu13 Cu9 2.573465 1_555
Cu14 Cu8 2.463861 1_545
Cu14 Cu3 2.483633 1_545
Cu14 Cu6 2.483633 1_645
Cu14 Cu4 2.497751 1_555
Cu14 Cu18 2.500566 1_555
Cu15 Cu9 2.463861 1_565
Cu15 Cu7 2.483633 1_565
Cu15 Cu2 2.483633 1_565
Cu15 Cu5 2.497751 1_555
Cu15 Cu19 2.500566 1_555
Cu16 Cu5 2.446030 1_656
Cu16 Cu4 2.519304 1_555
Cu17 Cu4 2.446030 1_554
Cu17 Cu5 2.519304 1_555
Cu18 Cu7 2.446030 1_555
Cu18 Cu2 2.446030 1_655
Cu18 Cu3 2.519304 1_545
Cu18 Cu6 2.519304 1_645
Cu19 Cu3 2.446030 1_555
Cu19 Cu6 2.446030 1_555
Cu19 Cu2 2.519304 1_565
Cu19 Cu7 2.519304 1_565
Au0 Cu9 2.629262 1_556
Au0 Cu17 2.717681 1_556
Au0 Cu4 2.750002 1_555
Au0 Cu1 2.750002 1_555
Au0 Cu6 2.792364 1_545
Au0 Cu3 2.792364 1_545
Au0 Cu14 2.816349 1_555
Au0 Cu14 2.816349 1_455
Au0 Cu8 2.999816 1_545
Au0 Cu8 2.999816 1_445
Au0 Ce2 3.211659 1_545
Au0 Ce0 3.228924 1_555
Au0 Ce3 3.369942 1_556
Au0 Ce3 3.369942 1_456
Au1 Cu8 2.629262 1_554
Au1 Cu16 2.717681 1_554
Au1 Cu0 2.750002 1_555
Au1 Cu5 2.750002 1_655
Au1 Cu2 2.792364 1_665
Au1 Cu7 2.792364 1_565
Au1 Cu15 2.816349 1_655
Au1 Cu15 2.816349 1_555
Au1 Cu9 2.999816 1_565
Au1 Cu9 2.999816 1_665
Au1 Ce3 3.211659 1_565
Au1 Ce1 3.228924 1_555
Au1 Ce2 3.369942 1_654
Au1 Ce2 3.369942 1_554
Au2 Cu11 2.629262 1_555
Au2 Cu19 2.717681 1_555
Au2 Cu6 2.750002 1_555
Au2 Cu3 2.750002 1_555
Au2 Cu1 2.792364 1_555
Au2 Cu4 2.792364 1_555
Au2 Cu12 2.816349 1_555
Au2 Cu12 2.816349 1_455
Au2 Cu10 2.999816 1_455
Au2 Cu10 2.999816 1_555
Au2 Ce0 3.211659 1_555
Au2 Ce2 3.228924 1_555
Au2 Ce1 3.369942 1_455
Au2 Ce1 3.369942 1_555
Au3 Cu10 2.629262 1_555
Au3 Cu18 2.717681 1_555
Au3 Cu2 2.750002 1_655
Au3 Cu7 2.750002 1_555
Au3 Cu5 2.792364 1_655
Au3 Cu0 2.792364 1_555
Au3 Cu13 2.816349 1_555
Au3 Cu13 2.816349 1_655
Au3 Cu11 2.999816 1_655
Au3 Cu11 2.999816 1_555
Au3 Ce1 3.211659 1_555
Au3 Ce3 3.228924 1_555
Au3 Ce0 3.369942 1_555
Au3 Ce0 3.369942 1_655
