# generated using pymatgen
data_Nb3Cr3N
_symmetry_space_group_name_H-M   'P 1'
_cell_length_a   8.13331615
_cell_length_b   8.13331615
_cell_length_c   8.13331615
_cell_angle_alpha   60.00000000
_cell_angle_beta   60.00000000
_cell_angle_gamma   60.00000000
_symmetry_Int_Tables_number   1
_chemical_formula_structural   Nb3Cr3N
_chemical_formula_sum   'Nb12 Cr12 N4'
_cell_volume   380.44156864
_cell_formula_units_Z   4
loop_
 _symmetry_equiv_pos_site_id
 _symmetry_equiv_pos_as_xyz
  1  'x, y, z'
loop_
 _atom_site_type_symbol
 _atom_site_label
 _atom_site_symmetry_multiplicity
 _atom_site_fract_x
 _atom_site_fract_y
 _atom_site_fract_z
 _atom_site_occupancy
  Nb  Nb0  1  0.80677900  0.80677900  0.19322100  1
  Nb  Nb1  1  0.19322100  0.19322100  0.80677900  1
  Nb  Nb2  1  0.80677900  0.19322100  0.80677900  1
  Nb  Nb3  1  0.19322100  0.80677900  0.19322100  1
  Nb  Nb4  1  0.19322100  0.80677900  0.80677900  1
  Nb  Nb5  1  0.80677900  0.19322100  0.19322100  1
  Nb  Nb6  1  0.44322100  0.44322100  0.05677900  1
  Nb  Nb7  1  0.05677900  0.05677900  0.44322100  1
  Nb  Nb8  1  0.44322100  0.05677900  0.44322100  1
  Nb  Nb9  1  0.05677900  0.44322100  0.05677900  1
  Nb  Nb10  1  0.05677900  0.44322100  0.44322100  1
  Nb  Nb11  1  0.44322100  0.05677900  0.05677900  1
  Cr  Cr0  1  0.12500000  0.62500000  0.62500000  1
  Cr  Cr1  1  0.62500000  0.12500000  0.62500000  1
  Cr  Cr2  1  0.62500000  0.62500000  0.12500000  1
  Cr  Cr3  1  0.62500000  0.62500000  0.62500000  1
  Cr  Cr4  1  0.73441800  0.42186100  0.42186100  1
  Cr  Cr5  1  0.42186100  0.73441800  0.42186100  1
  Cr  Cr6  1  0.42186100  0.42186100  0.73441800  1
  Cr  Cr7  1  0.42186100  0.42186100  0.42186100  1
  Cr  Cr8  1  0.51558200  0.82813900  0.82813900  1
  Cr  Cr9  1  0.82813900  0.51558200  0.82813900  1
  Cr  Cr10  1  0.82813900  0.82813900  0.51558200  1
  Cr  Cr11  1  0.82813900  0.82813900  0.82813900  1
  N  N0  1  0.62500000  0.12500000  0.12500000  1
  N  N1  1  0.12500000  0.62500000  0.12500000  1
  N  N2  1  0.12500000  0.12500000  0.62500000  1
  N  N3  1  0.12500000  0.12500000  0.12500000  1
loop_
_geom_bond_atom_site_label_1
_geom_bond_atom_site_label_2
_geom_bond_distance
_geom_bond_site_symmetry_2
Cr0 Cr11 2.457752 1_455
Cr0 Cr7 2.457752 1_555
Cr0 Cr5 2.457756 1_555
Cr0 Cr6 2.457756 1_555
Cr0 Cr10 2.457756 1_455
Cr0 Cr9 2.457756 1_455
Cr0 Nb4 2.916531 1_555
Cr0 Nb7 2.916531 1_565
Cr0 Nb9 2.916531 1_556
Cr0 Nb1 2.916531 1_555
Cr0 Nb3 2.916531 1_555
Cr0 Nb10 2.916531 1_555
Cr1 Cr11 2.457752 1_545
Cr1 Cr7 2.457752 1_555
Cr1 Cr4 2.457756 1_555
Cr1 Cr6 2.457756 1_555
Cr1 Cr8 2.457756 1_545
Cr1 Cr10 2.457756 1_545
Cr1 Nb2 2.916531 1_555
Cr1 Nb7 2.916531 1_655
Cr1 Nb11 2.916531 1_556
Cr1 Nb1 2.916531 1_555
Cr1 Nb5 2.916531 1_555
Cr1 Nb8 2.916531 1_555
Cr2 Cr7 2.457752 1_555
Cr2 Cr4 2.457756 1_555
Cr2 Cr5 2.457756 1_555
Cr2 Cr8 2.457756 1_554
Cr2 Cr9 2.457756 1_554
Cr2 Nb0 2.916531 1_555
Cr2 Nb9 2.916531 1_655
Cr2 Nb11 2.916531 1_565
Cr2 Nb5 2.916531 1_555
Cr2 Nb3 2.916531 1_555
Cr2 Nb6 2.916531 1_555
Cr3 Cr8 2.457749 1_555
Cr3 Cr9 2.457749 1_555
Cr3 Cr4 2.457749 1_555
Cr3 Cr5 2.457749 1_555
Cr3 Cr6 2.457749 1_555
Cr3 Nb10 2.916531 1_655
Cr3 Nb8 2.916531 1_565
Cr3 Nb6 2.916531 1_556
Cr3 Nb4 2.916531 1_555
Cr3 Nb2 2.916531 1_555
Cr3 Nb0 2.916531 1_555
Cr4 Cr6 2.542125 1_555
Cr4 Cr7 2.542125 1_555
Cr4 Cr5 2.542125 1_555
Cr4 Nb10 2.806367 1_655
Cr4 Nb7 2.806371 1_655
Cr4 Nb9 2.806371 1_655
Cr4 Nb0 2.920925 1_555
Cr4 Nb2 2.920925 1_555
Cr4 Nb5 2.920932 1_555
Cr5 Cr6 2.542125 1_555
Cr5 Cr7 2.542125 1_555
Cr5 Nb8 2.806367 1_565
Cr5 Nb7 2.806371 1_565
Cr5 Nb11 2.806371 1_565
Cr5 Nb0 2.920925 1_555
Cr5 Nb4 2.920925 1_555
Cr5 Nb3 2.920932 1_555
Cr6 Cr7 2.542125 1_555
Cr6 Nb6 2.806367 1_556
Cr6 Nb9 2.806371 1_556
Cr6 Nb11 2.806371 1_556
Cr6 Nb4 2.920925 1_555
Cr6 Nb2 2.920925 1_555
Cr6 Nb1 2.920932 1_555
Cr7 Nb10 2.806375 1_555
Cr7 Nb8 2.806375 1_555
Cr7 Nb6 2.806375 1_555
Cr7 Nb1 2.920929 1_555
Cr7 Nb5 2.920929 1_555
Cr7 Nb3 2.920929 1_555
Cr8 Cr9 2.542125 1_555
Cr8 Nb4 2.806367 1_555
Cr8 Nb3 2.806371 1_556
Cr8 Nb1 2.806371 1_565
Cr8 Nb8 2.920925 1_565
Cr8 Nb6 2.920925 1_556
Cr8 Nb11 2.920932 1_566
Cr9 Nb2 2.806367 1_555
Cr9 Nb5 2.806371 1_556
Cr9 Nb1 2.806371 1_655
Cr9 Nb6 2.920925 1_556
Cr9 Nb10 2.920925 1_655
Cr9 Nb9 2.920932 1_656
Cr10 Cr3 2.457749 1_555
Cr10 Cr8 2.542125 1_555
Cr10 Cr11 2.542125 1_555
Cr10 Cr9 2.542125 1_555
Cr10 Nb0 2.806367 1_555
Cr10 Nb3 2.806371 1_655
Cr10 Nb5 2.806371 1_565
Cr10 Nb8 2.920925 1_565
Cr10 Nb10 2.920925 1_655
Cr10 Nb7 2.920932 1_665
Cr11 Cr2 2.457752 1_556
Cr11 Cr8 2.542125 1_555
Cr11 Cr9 2.542125 1_555
Cr11 Nb0 2.806375 1_556
Cr11 Nb2 2.806375 1_565
Cr11 Nb4 2.806375 1_655
Cr11 Nb7 2.920929 1_665
Cr11 Nb9 2.920929 1_656
Cr11 Nb11 2.920929 1_566
N0 Nb5 2.179489 1_555
N0 Nb8 2.179489 1_555
N0 Nb6 2.179489 1_555
N0 Nb2 2.179489 1_554
N0 Nb0 2.179489 1_545
N0 Nb11 2.179489 1_555
N1 Nb3 2.179489 1_555
N1 Nb6 2.179489 1_555
N1 Nb10 2.179489 1_555
N1 Nb0 2.179489 1_455
N1 Nb4 2.179489 1_554
N1 Nb9 2.179489 1_555
N2 Nb1 2.179489 1_555
N2 Nb8 2.179489 1_555
N2 Nb10 2.179489 1_555
N2 Nb2 2.179489 1_455
N2 Nb4 2.179489 1_545
N2 Nb7 2.179489 1_555
N3 Nb7 2.179489 1_555
N3 Nb11 2.179489 1_555
N3 Nb9 2.179489 1_555
N3 Nb1 2.179489 1_554
N3 Nb5 2.179489 1_455
N3 Nb3 2.179489 1_545
