# generated using pymatgen
data_Pr2Se3O16
_symmetry_space_group_name_H-M   'P 1'
_cell_length_a   7.24585400
_cell_length_b   13.34713200
_cell_length_c   19.98563859
_cell_angle_alpha   48.31907823
_cell_angle_beta   90.00000000
_cell_angle_gamma   90.00000000
_symmetry_Int_Tables_number   1
_chemical_formula_structural   Pr2Se3O16
_chemical_formula_sum   'Pr8 Se12 O64'
_cell_volume   1443.55906971
_cell_formula_units_Z   4
loop_
 _symmetry_equiv_pos_site_id
 _symmetry_equiv_pos_as_xyz
  1  'x, y, z'
loop_
 _atom_site_type_symbol
 _atom_site_label
 _atom_site_symmetry_multiplicity
 _atom_site_fract_x
 _atom_site_fract_y
 _atom_site_fract_z
 _atom_site_occupancy
  Pr  Pr0  1  0.75244100  0.10337600  0.47276300  1
  Pr  Pr1  1  0.74755900  0.10337600  0.97276300  1
  Pr  Pr2  1  0.24755900  0.89662400  0.52723700  1
  Pr  Pr3  1  0.25244100  0.89662400  0.02723700  1
  Pr  Pr4  1  0.77750100  0.71026400  0.85202300  1
  Pr  Pr5  1  0.72249900  0.71026400  0.35202300  1
  Pr  Pr6  1  0.22249900  0.28973600  0.14797700  1
  Pr  Pr7  1  0.27750100  0.28973600  0.64797700  1
  Se  Se0  1  0.09006700  0.00426000  0.65732500  1
  Se  Se1  1  0.40993300  0.00426000  0.15732500  1
  Se  Se2  1  0.90993300  0.99574000  0.34267500  1
  Se  Se3  1  0.59006700  0.99574000  0.84267500  1
  Se  Se4  1  0.75457600  0.75977000  0.13612800  1
  Se  Se5  1  0.74542400  0.75977000  0.63612800  1
  Se  Se6  1  0.24542400  0.24023000  0.86387200  1
  Se  Se7  1  0.25457600  0.24023000  0.36387200  1
  Se  Se8  1  0.88667100  0.39009700  0.96525600  1
  Se  Se9  1  0.61332900  0.39009700  0.46525600  1
  Se  Se10  1  0.11332900  0.60990300  0.03474400  1
  Se  Se11  1  0.38667100  0.60990300  0.53474400  1
  O  O0  1  0.75803200  0.02481900  0.88804700  1
  O  O1  1  0.74196800  0.02481900  0.38804700  1
  O  O2  1  0.24196800  0.97518100  0.11195300  1
  O  O3  1  0.25803200  0.97518100  0.61195300  1
  O  O4  1  0.92894300  0.10014400  0.57914200  1
  O  O5  1  0.57105700  0.10014400  0.07914200  1
  O  O6  1  0.07105700  0.89985600  0.42085800  1
  O  O7  1  0.42894300  0.89985600  0.92085800  1
  O  O8  1  0.68586500  0.91872500  0.81227400  1
  O  O9  1  0.81413500  0.91872500  0.31227400  1
  O  O10  1  0.31413500  0.08127500  0.18772600  1
  O  O11  1  0.18586500  0.08127500  0.68772600  1
  O  O12  1  0.00545400  0.85803000  0.74530900  1
  O  O13  1  0.49454600  0.85803000  0.24530900  1
  O  O14  1  0.99454600  0.14197000  0.25469100  1
  O  O15  1  0.50545400  0.14197000  0.75469100  1
  O  O16  1  0.57537500  0.87905600  0.57098200  1
  O  O17  1  0.92462500  0.87905600  0.07098200  1
  O  O18  1  0.42462500  0.12094400  0.42901800  1
  O  O19  1  0.07537500  0.12094400  0.92901800  1
  O  O20  1  0.92814000  0.86873000  0.58483600  1
  O  O21  1  0.57186000  0.86873000  0.08483600  1
  O  O22  1  0.07186000  0.13127000  0.41516400  1
  O  O23  1  0.42814000  0.13127000  0.91516400  1
  O  O24  1  0.75259400  0.64352500  0.63099800  1
  O  O25  1  0.74740600  0.64352500  0.13099800  1
  O  O26  1  0.24740600  0.35647500  0.36900200  1
  O  O27  1  0.25259400  0.35647500  0.86900200  1
  O  O28  1  0.71171000  0.70410900  0.73812500  1
  O  O29  1  0.78829000  0.70410900  0.23812500  1
  O  O30  1  0.28829000  0.29589100  0.26187500  1
  O  O31  1  0.21171000  0.29589100  0.76187500  1
  O  O32  1  0.00022500  0.53456200  0.89153200  1
  O  O33  1  0.49977500  0.53456200  0.39153200  1
  O  O34  1  0.99977500  0.46543800  0.10846800  1
  O  O35  1  0.50022500  0.46543800  0.60846800  1
  O  O36  1  0.99394300  0.71980600  0.94114800  1
  O  O37  1  0.50605700  0.71980600  0.44114800  1
  O  O38  1  0.00605700  0.28019400  0.05885200  1
  O  O39  1  0.49394300  0.28019400  0.55885200  1
  O  O40  1  0.70122400  0.45721700  0.97904800  1
  O  O41  1  0.79877600  0.45721700  0.47904800  1
  O  O42  1  0.29877600  0.54278300  0.02095200  1
  O  O43  1  0.20122400  0.54278300  0.52095200  1
  O  O44  1  0.81730700  0.31969700  0.92566400  1
  O  O45  1  0.68269300  0.31969700  0.42566400  1
  O  O46  1  0.18269300  0.68030300  0.07433600  1
  O  O47  1  0.31730700  0.68030300  0.57433600  1
  O  O48  1  0.77563900  0.25132100  0.80415200  1
  O  O49  1  0.72436100  0.25132100  0.30415200  1
  O  O50  1  0.22436100  0.74867900  0.19584800  1
  O  O51  1  0.27563900  0.74867900  0.69584800  1
  O  O52  1  0.59017100  0.01224800  0.61742200  1
  O  O53  1  0.90982900  0.01224800  0.11742200  1
  O  O54  1  0.40982900  0.98775200  0.38257800  1
  O  O55  1  0.09017100  0.98775200  0.88257800  1
  O  O56  1  0.94062100  0.29020500  0.61954300  1
  O  O57  1  0.55937900  0.29020500  0.11954300  1
  O  O58  1  0.05937900  0.70979500  0.38045700  1
  O  O59  1  0.44062100  0.70979500  0.88045700  1
  O  O60  1  0.93865800  0.64090200  0.49196600  1
  O  O61  1  0.56134200  0.64090200  0.99196600  1
  O  O62  1  0.06134200  0.35909800  0.50803400  1
  O  O63  1  0.43865800  0.35909800  0.00803400  1
loop_
_geom_bond_atom_site_label_1
_geom_bond_atom_site_label_2
_geom_bond_distance
_geom_bond_site_symmetry_2
O0 Se3 1.709440 1_545
O0 Pr1 2.516492 1_555
O1 Se2 1.709440 1_545
O1 Pr0 2.516492 1_555
O2 Se1 1.709440 1_565
O2 Pr3 2.516492 1_555
O3 Se0 1.709440 1_565
O3 Pr2 2.516492 1_555
O4 Se0 1.668184 1_655
O4 Pr0 2.456743 1_555
O5 Se1 1.668184 1_555
O5 Pr1 2.456743 1_554
O6 Se2 1.668184 1_455
O6 Pr2 2.456743 1_555
O7 Se3 1.668184 1_555
O7 Pr3 2.456743 1_556
O8 Se3 1.654768 1_555
O8 Pr4 2.423594 1_555
O9 Se2 1.654768 1_555
O9 Pr5 2.423594 1_555
O10 Se1 1.654768 1_555
O10 Pr6 2.423594 1_555
O11 Se0 1.654768 1_555
O11 Pr7 2.423594 1_555
O12 Se0 1.647065 1_565
O12 Pr4 2.360573 1_455
O13 Se1 1.647065 1_565
O13 Pr5 2.360573 1_555
O14 Se2 1.647065 1_545
O14 Pr6 2.360573 1_655
O15 Se3 1.647065 1_545
O15 Pr7 2.360573 1_555
O16 Se5 1.729541 1_555
O16 Pr2 2.487724 1_555
O16 Pr0 2.578195 1_565
O17 Se4 1.729541 1_555
O17 Pr3 2.487724 1_655
O17 Pr1 2.578195 1_564
O18 Se7 1.729541 1_555
O18 Pr0 2.487724 1_555
O18 Pr2 2.578195 1_545
O19 Se6 1.729541 1_555
O19 Pr1 2.487724 1_455
O19 Pr3 2.578195 1_546
O20 Se5 1.713450 1_555
O20 Pr2 2.500102 1_655
O20 Pr0 2.667704 1_565
O21 Se4 1.713450 1_555
O21 Pr3 2.500102 1_555
O21 Pr1 2.667704 1_564
O22 Se7 1.713450 1_555
O22 Pr0 2.500102 1_455
O22 Pr2 2.667704 1_545
O23 Se6 1.713450 1_555
O23 Pr1 2.500102 1_555
O23 Pr3 2.667704 1_546
O24 Se5 1.622357 1_555
O25 Se4 1.622357 1_555
O26 Se7 1.622357 1_555
O27 Se6 1.622357 1_555
O28 Se5 1.659176 1_555
O28 Pr4 2.379992 1_555
O29 Se4 1.659176 1_555
O29 Pr5 2.379992 1_555
O30 Se7 1.659176 1_555
O30 Pr6 2.379992 1_555
O31 Se6 1.659176 1_555
O31 Pr7 2.379992 1_555
O32 Se8 1.669554 1_455
O32 Pr4 2.502950 1_455
O33 Se9 1.669554 1_555
O33 Pr5 2.502950 1_555
O34 Se10 1.669554 1_655
O34 Pr6 2.502950 1_655
O35 Se11 1.669554 1_555
O35 Pr7 2.502950 1_555
O36 Se10 1.658256 1_656
O36 Pr4 2.439315 1_555
O37 Se11 1.658256 1_555
O37 Pr5 2.439315 1_555
O38 Se8 1.658256 1_454
O38 Pr6 2.439315 1_555
O39 Se9 1.658256 1_555
O39 Pr7 2.439315 1_555
O40 Se8 1.735669 1_555
O40 Pr4 2.598861 1_555
O41 Se9 1.735669 1_555
O41 Pr5 2.598861 1_555
O42 Se10 1.735669 1_555
O42 Pr6 2.598861 1_555
O43 Se11 1.735669 1_555
O43 Pr7 2.598861 1_555
O44 Se8 1.658456 1_555
O44 Pr1 2.421404 1_555
O45 Se9 1.658456 1_555
O45 Pr0 2.421404 1_555
O46 Se10 1.658456 1_555
O46 Pr3 2.421404 1_555
O47 Se11 1.658456 1_555
O47 Pr2 2.421404 1_555
O48 Pr1 2.538972 1_555
O49 Pr0 2.538972 1_555
O50 Pr3 2.538972 1_555
O51 Pr2 2.538972 1_555
O52 Pr0 2.558043 1_555
O53 Pr1 2.558043 1_554
O54 Pr2 2.558043 1_555
O55 Pr3 2.558043 1_556
O56 O62 1.962608 1_655
O56 Pr7 2.505322 1_655
O57 O63 1.962608 1_555
O57 Pr6 2.505322 1_555
O58 O60 1.962608 1_455
O58 Pr5 2.505322 1_455
O59 O61 1.962608 1_555
O59 Pr4 2.505322 1_555
O60 Pr5 2.772898 1_555
O61 Pr4 2.772898 1_555
O62 Pr7 2.772898 1_555
O63 Pr6 2.772898 1_555
