# generated using pymatgen
data_Sr2EuWO6
_symmetry_space_group_name_H-M   'P 1'
_cell_length_a   5.88026664
_cell_length_b   6.07182821
_cell_length_c   8.43527617
_cell_angle_alpha   89.97895811
_cell_angle_beta   90.46221734
_cell_angle_gamma   89.98973499
_symmetry_Int_Tables_number   1
_chemical_formula_structural   Sr2EuWO6
_chemical_formula_sum   'Sr4 Eu2 W2 O12'
_cell_volume   301.16301262
_cell_formula_units_Z   2
loop_
 _symmetry_equiv_pos_site_id
 _symmetry_equiv_pos_as_xyz
  1  'x, y, z'
loop_
 _atom_site_type_symbol
 _atom_site_label
 _atom_site_symmetry_multiplicity
 _atom_site_fract_x
 _atom_site_fract_y
 _atom_site_fract_z
 _atom_site_occupancy
  Sr  Sr0  1  0.51409655  0.55283160  0.24938524  1
  Sr  Sr1  1  0.98587288  0.05276017  0.25043040  1
  Sr  Sr2  1  0.48590345  0.44716840  0.75061476  1
  Sr  Sr3  1  0.01412712  0.94723983  0.74956960  1
  Eu  Eu0  1  0.00000000  0.50000000  0.00000000  1
  Eu  Eu1  1  0.50000000  0.00000000  0.50000000  1
  W  W0  1  0.50000000  0.00000000  0.00000000  1
  W  W1  1  0.00000000  0.50000000  0.50000000  1
  O  O0  1  0.22884472  0.17922377  0.95008035  1
  O  O1  1  0.27104969  0.67911859  0.54990856  1
  O  O2  1  0.77115528  0.82077623  0.04991965  1
  O  O3  1  0.72895031  0.32088141  0.45009144  1
  O  O4  1  0.32802614  0.72898417  0.94442440  1
  O  O5  1  0.17192922  0.22896383  0.55557628  1
  O  O6  1  0.67197386  0.27101583  0.05557560  1
  O  O7  1  0.82807078  0.77103617  0.44442372  1
  O  O8  1  0.40154531  0.96563749  0.22208305  1
  O  O9  1  0.09845215  0.46563223  0.27794567  1
  O  O10  1  0.59845469  0.03436251  0.77791695  1
  O  O11  1  0.90154785  0.53436777  0.72205433  1
loop_
_geom_bond_atom_site_label_1
_geom_bond_atom_site_label_2
_geom_bond_distance
_geom_bond_site_symmetry_2
Eu0 O2 2.406339 1_455
Eu0 O0 2.406339 1_554
Eu0 O9 2.419360 1_555
Eu0 O11 2.419360 1_454
Eu0 O6 2.426624 1_455
Eu0 O4 2.426624 1_554
Eu1 O3 2.407328 1_555
Eu1 O1 2.407328 1_545
Eu1 O8 2.419293 1_545
Eu1 O10 2.419293 1_555
Eu1 O7 2.426565 1_545
Eu1 O5 2.426565 1_555
O0 W0 1.972829 1_556
O0 Sr3 2.531176 1_545
O0 Sr2 2.793309 1_555
O0 Sr1 3.017794 1_456
O1 W1 1.972443 1_555
O1 Sr2 2.531610 1_555
O1 Sr3 2.794902 1_555
O1 Sr0 3.019309 1_555
O2 W0 1.972829 1_565
O2 Sr1 2.531176 1_565
O2 Sr0 2.793309 1_555
O2 Sr3 3.017794 1_654
O3 W1 1.972443 1_655
O3 Sr0 2.531610 1_555
O3 Sr1 2.794902 1_555
O3 Sr2 3.019309 1_555
O4 W0 1.985897 1_566
O4 Sr2 2.547256 1_555
O4 Sr3 2.795241 1_555
O4 Sr0 2.985074 1_556
O5 W1 1.985282 1_555
O5 Sr3 2.547134 1_545
O5 Sr2 2.797172 1_555
O5 Sr1 2.987313 1_455
O6 W0 1.985897 1_555
O6 Sr0 2.547256 1_555
O6 Sr1 2.795241 1_555
O6 Sr2 2.985074 1_554
O7 W1 1.985282 1_655
O7 Sr1 2.547134 1_565
O7 Sr0 2.797172 1_555
O7 Sr3 2.987313 1_655
O8 W0 1.976191 1_565
O8 Sr1 2.514061 1_465
O8 Sr0 2.601933 1_555
O9 W1 1.976083 1_555
O9 Sr0 2.514331 1_555
O9 Sr1 2.602910 1_455
O10 W0 1.976191 1_556
O10 Sr3 2.514061 1_645
O10 Sr2 2.601933 1_555
O11 W1 1.976083 1_655
O11 Sr2 2.514331 1_555
O11 Sr3 2.602910 1_655
