# generated using pymatgen
data_U6Rh2S15
_symmetry_space_group_name_H-M   'P 1'
_cell_length_a   11.28324407
_cell_length_b   11.28324407
_cell_length_c   11.28324407
_cell_angle_alpha   109.47122063
_cell_angle_beta   109.47122063
_cell_angle_gamma   109.47122063
_symmetry_Int_Tables_number   1
_chemical_formula_structural   U6Rh2S15
_chemical_formula_sum   'U12 Rh4 S30'
_cell_volume   1105.80883806
_cell_formula_units_Z   2
loop_
 _symmetry_equiv_pos_site_id
 _symmetry_equiv_pos_as_xyz
  1  'x, y, z'
loop_
 _atom_site_type_symbol
 _atom_site_label
 _atom_site_symmetry_multiplicity
 _atom_site_fract_x
 _atom_site_fract_y
 _atom_site_fract_z
 _atom_site_occupancy
  U  U0  1  0.29508200  0.29508200  0.59016500  1
  U  U1  1  0.70491800  0.00000000  0.29508200  1
  U  U2  1  0.00000000  0.70491800  0.29508200  1
  U  U3  1  0.70491800  0.29508200  0.00000000  1
  U  U4  1  0.29508200  0.59016500  0.29508200  1
  U  U5  1  0.00000000  0.29508200  0.70491800  1
  U  U6  1  0.29508200  0.70491800  0.00000000  1
  U  U7  1  0.29508200  0.00000000  0.70491800  1
  U  U8  1  0.59016500  0.29508200  0.29508200  1
  U  U9  1  0.70491800  0.70491800  0.40983500  1
  U  U10  1  0.70491800  0.40983500  0.70491800  1
  U  U11  1  0.40983500  0.70491800  0.70491800  1
  Rh  Rh0  1  0.00000000  0.00000000  0.50000000  1
  Rh  Rh1  1  0.00000000  0.50000000  0.00000000  1
  Rh  Rh2  1  0.50000000  0.00000000  0.00000000  1
  Rh  Rh3  1  0.50000000  0.50000000  0.50000000  1
  S  S0  1  0.00000000  0.18340800  0.43852400  1
  S  S1  1  0.81659200  0.81659200  0.25511600  1
  S  S2  1  0.18340800  0.00000000  0.43852400  1
  S  S3  1  0.00000000  0.43852400  0.18340800  1
  S  S4  1  0.18340800  0.43852400  0.00000000  1
  S  S5  1  0.81659200  0.25511600  0.81659200  1
  S  S6  1  0.25511600  0.81659200  0.81659200  1
  S  S7  1  0.43852400  0.18340800  0.00000000  1
  S  S8  1  0.43852400  0.00000000  0.18340800  1
  S  S9  1  0.74488400  0.56147600  0.56147600  1
  S  S10  1  0.56147600  0.56147600  0.74488400  1
  S  S11  1  0.56147600  0.74488400  0.56147600  1
  S  S12  1  0.00000000  0.81659200  0.56147600  1
  S  S13  1  0.18340800  0.18340800  0.74488400  1
  S  S14  1  0.81659200  0.00000000  0.56147600  1
  S  S15  1  0.00000000  0.56147600  0.81659200  1
  S  S16  1  0.81659200  0.56147600  0.00000000  1
  S  S17  1  0.18340800  0.74488400  0.18340800  1
  S  S18  1  0.74488400  0.18340800  0.18340800  1
  S  S19  1  0.56147600  0.81659200  0.00000000  1
  S  S20  1  0.56147600  0.00000000  0.81659200  1
  S  S21  1  0.25511600  0.43852400  0.43852400  1
  S  S22  1  0.43852400  0.43852400  0.25511600  1
  S  S23  1  0.43852400  0.25511600  0.43852400  1
  S  S24  1  0.75000000  0.25000000  0.50000000  1
  S  S25  1  0.75000000  0.50000000  0.25000000  1
  S  S26  1  0.50000000  0.25000000  0.75000000  1
  S  S27  1  0.25000000  0.50000000  0.75000000  1
  S  S28  1  0.25000000  0.75000000  0.50000000  1
  S  S29  1  0.50000000  0.75000000  0.25000000  1
loop_
_geom_bond_atom_site_label_1
_geom_bond_atom_site_label_2
_geom_bond_distance
_geom_bond_site_symmetry_2
Rh0 S13 2.391797 1_555
Rh0 S2 2.391797 1_555
Rh0 S0 2.391797 1_555
Rh0 S12 2.391797 1_545
Rh0 S14 2.391797 1_455
Rh0 S1 2.391797 1_445
Rh1 S3 2.391797 1_555
Rh1 S4 2.391797 1_555
Rh1 S5 2.391797 1_454
Rh1 S16 2.391797 1_455
Rh1 S15 2.391797 1_554
Rh1 S17 2.391797 1_555
Rh2 S7 2.391797 1_555
Rh2 S8 2.391797 1_555
Rh2 S20 2.391797 1_554
Rh2 S19 2.391797 1_545
Rh2 S6 2.391797 1_544
Rh2 S18 2.391797 1_555
Rh3 S21 2.391797 1_555
Rh3 S22 2.391797 1_555
Rh3 S9 2.391797 1_555
Rh3 S23 2.391797 1_555
Rh3 S10 2.391797 1_555
Rh3 S11 2.391797 1_555
S0 U1 2.751127 1_455
S0 U0 2.751127 1_555
S0 U5 2.845615 1_555
S1 U1 2.751127 1_565
S1 U2 2.751127 1_655
S1 U9 2.845605 1_555
S2 U2 2.751127 1_545
S2 U0 2.751127 1_555
S2 U7 2.845615 1_555
S3 U3 2.751127 1_455
S3 U4 2.751127 1_555
S3 U2 2.845615 1_555
S4 U5 2.751127 1_554
S4 U4 2.751127 1_555
S4 U6 2.845615 1_555
S5 U5 2.751127 1_655
S5 U3 2.751127 1_556
S5 U10 2.845605 1_555
S6 U7 2.751127 1_565
S6 U6 2.751127 1_556
S6 U11 2.845605 1_555
S7 U7 2.751127 1_554
S7 U8 2.751127 1_555
S7 U3 2.845615 1_555
S8 U6 2.751127 1_545
S8 U8 2.751127 1_555
S8 U1 2.845615 1_555
S9 U9 2.751135 1_555
S9 U10 2.751135 1_555
S9 U8 2.845616 1_555
S10 U11 2.751135 1_555
S10 U10 2.751135 1_555
S10 U0 2.845616 1_555
S11 U11 2.751135 1_555
S11 U9 2.751135 1_555
S11 U4 2.845616 1_555
S12 U7 2.751127 1_565
S12 U9 2.751127 1_455
S12 U2 2.845615 1_555
S13 U5 2.751127 1_555
S13 U7 2.751127 1_555
S13 U0 2.845605 1_555
S14 U5 2.751127 1_655
S14 U9 2.751127 1_545
S14 U1 2.845615 1_555
S15 U6 2.751127 1_556
S15 U10 2.751127 1_455
S15 U5 2.845615 1_555
S16 U2 2.751127 1_655
S16 U10 2.751127 1_554
S16 U3 2.845615 1_555
S17 U2 2.751127 1_555
S17 U6 2.751127 1_555
S17 U4 2.845605 1_555
S18 U1 2.751127 1_555
S18 U3 2.751127 1_555
S18 U8 2.845605 1_555
S19 U1 2.751127 1_565
S19 U11 2.751127 1_554
S19 U6 2.845615 1_555
S20 U3 2.751127 1_556
S20 U11 2.751127 1_545
S20 U7 2.845615 1_555
S21 U4 2.751135 1_555
S21 U0 2.751135 1_555
S21 U11 2.845616 1_555
S22 U4 2.751135 1_555
S22 U8 2.751135 1_555
S22 U9 2.845616 1_555
S23 U0 2.751135 1_555
S23 U8 2.751135 1_555
S23 U10 2.845616 1_555
S24 U8 2.733671 1_555
S24 U10 2.733671 1_555
S24 U1 2.733676 1_555
S24 U5 2.733676 1_655
S25 U8 2.733671 1_555
S25 U9 2.733671 1_555
S25 U3 2.733676 1_555
S25 U2 2.733676 1_655
S26 U0 2.733671 1_555
S26 U10 2.733671 1_555
S26 U3 2.733676 1_556
S26 U7 2.733676 1_555
S27 U0 2.733671 1_555
S27 U11 2.733671 1_555
S27 U6 2.733676 1_556
S27 U5 2.733676 1_555
S28 U4 2.733671 1_555
S28 U11 2.733671 1_555
S28 U2 2.733676 1_555
S28 U7 2.733676 1_565
S29 U9 2.733671 1_555
S29 U4 2.733671 1_555
S29 U1 2.733676 1_565
S29 U6 2.733676 1_555
