# generated using pymatgen
data_Na3Mn2CuH10S4O17
_symmetry_space_group_name_H-M   'P 1'
_cell_length_a   7.79446254
_cell_length_b   7.87989394
_cell_length_c   14.56796800
_cell_angle_alpha   90.00000000
_cell_angle_beta   90.00000000
_cell_angle_gamma   100.89890843
_symmetry_Int_Tables_number   1
_chemical_formula_structural   Na3Mn2CuH10S4O17
_chemical_formula_sum   'Na6 Mn4 Cu2 H20 S8 O34'
_cell_volume   878.61850608
_cell_formula_units_Z   2
loop_
 _symmetry_equiv_pos_site_id
 _symmetry_equiv_pos_as_xyz
  1  'x, y, z'
loop_
 _atom_site_type_symbol
 _atom_site_label
 _atom_site_symmetry_multiplicity
 _atom_site_fract_x
 _atom_site_fract_y
 _atom_site_fract_z
 _atom_site_occupancy
  Na  Na0  1  0.15032700  0.78393700  0.75180800  1
  Na  Na1  1  0.84967300  0.21606300  0.25180800  1
  Na  Na2  1  0.46708100  0.19258800  0.40158200  1
  Na  Na3  1  0.53291900  0.80741200  0.90158200  1
  Na  Na4  1  0.51364100  0.80264300  0.59222800  1
  Na  Na5  1  0.48635900  0.19735700  0.09222800  1
  Mn  Mn0  1  0.76394200  0.34340100  0.61392300  1
  Mn  Mn1  1  0.23605800  0.65659900  0.11392300  1
  Mn  Mn2  1  0.23530500  0.65688200  0.38528700  1
  Mn  Mn3  1  0.76469500  0.34311800  0.88528700  1
  Cu  Cu0  1  0.30549400  0.27904200  0.74974200  1
  Cu  Cu1  1  0.69450600  0.72095800  0.24974200  1
  H  H0  1  0.69219100  0.56190900  0.47444000  1
  H  H1  1  0.30780900  0.43809100  0.97444000  1
  H  H2  1  0.30817300  0.43810200  0.52555000  1
  H  H3  1  0.69182700  0.56189800  0.02555000  1
  H  H4  1  0.86429200  0.12971100  0.48148100  1
  H  H5  1  0.13570800  0.87028900  0.98148100  1
  H  H6  1  0.13565600  0.87128500  0.51808600  1
  H  H7  1  0.86434400  0.12871500  0.01808600  1
  H  H8  1  0.04567100  0.19816100  0.53525700  1
  H  H9  1  0.95432900  0.80183900  0.03525700  1
  H  H10  1  0.95409700  0.80245600  0.46431400  1
  H  H11  1  0.04590300  0.19754400  0.96431400  1
  H  H12  1  0.80782400  0.44466400  0.42951200  1
  H  H13  1  0.19217600  0.55533600  0.92951200  1
  H  H14  1  0.19137100  0.55459500  0.57030100  1
  H  H15  1  0.80862900  0.44540500  0.07030100  1
  H  H16  1  0.88326200  0.01140100  0.74750800  1
  H  H17  1  0.11673800  0.98859900  0.24750800  1
  H  H18  1  0.81129200  0.82571200  0.70722200  1
  H  H19  1  0.18870800  0.17428800  0.20722200  1
  S  S0  1  0.05176000  0.38474300  0.74969200  1
  S  S1  1  0.94824000  0.61525700  0.24969200  1
  S  S2  1  0.51249300  0.52630600  0.74935300  1
  S  S3  1  0.48750700  0.47369400  0.24935300  1
  S  S4  1  0.34935600  0.13245700  0.62051400  1
  S  S5  1  0.65064400  0.86754300  0.12051400  1
  S  S6  1  0.65049800  0.86708000  0.38006200  1
  S  S7  1  0.34950200  0.13292000  0.88006200  1
  O  O0  1  0.03538900  0.49679900  0.66538600  1
  O  O1  1  0.96461100  0.50320100  0.16538600  1
  O  O2  1  0.96441000  0.50456600  0.33444300  1
  O  O3  1  0.03559000  0.49543400  0.83444300  1
  O  O4  1  0.91751500  0.18831600  0.53788500  1
  O  O5  1  0.08248500  0.81168400  0.03788500  1
  O  O6  1  0.08185300  0.80873800  0.46289400  1
  O  O7  1  0.91814700  0.19126200  0.96289400  1
  O  O8  1  0.63472400  0.54218200  0.66542000  1
  O  O9  1  0.36527600  0.45781800  0.16542000  1
  O  O10  1  0.37287100  0.46610200  0.33496000  1
  O  O11  1  0.62712900  0.53389800  0.83496000  1
  O  O12  1  0.54528200  0.13141300  0.60683400  1
  O  O13  1  0.45471800  0.86858700  0.10683400  1
  O  O14  1  0.45472800  0.86760700  0.39447800  1
  O  O15  1  0.54527300  0.13239300  0.89447800  1
  O  O16  1  0.44160100  0.69254400  0.74951400  1
  O  O17  1  0.55839900  0.30745600  0.24951400  1
  O  O18  1  0.87433100  0.25305200  0.74951200  1
  O  O19  1  0.12566900  0.74694800  0.24951200  1
  O  O20  1  0.89065600  0.88850700  0.75272400  1
  O  O21  1  0.10934400  0.11149300  0.25272400  1
  O  O22  1  0.28842400  0.21558100  0.53451200  1
  O  O23  1  0.71157600  0.78441900  0.03451200  1
  O  O24  1  0.71228100  0.78488800  0.46632600  1
  O  O25  1  0.28771900  0.21511200  0.96632600  1
  O  O26  1  0.71424800  0.44092100  0.47602100  1
  O  O27  1  0.28575200  0.55907900  0.97602100  1
  O  O28  1  0.28577000  0.55902500  0.52415200  1
  O  O29  1  0.71423000  0.44097500  0.02415200  1
  O  O30  1  0.26374800  0.94234200  0.61821800  1
  O  O31  1  0.73625200  0.05765800  0.11821800  1
  O  O32  1  0.73542600  0.05714800  0.38175800  1
  O  O33  1  0.26457400  0.94285200  0.88175800  1
loop_
_geom_bond_atom_site_label_1
_geom_bond_atom_site_label_2
_geom_bond_distance
_geom_bond_site_symmetry_2
Na0 O20 2.325164 1_455
Na0 O33 2.350158 1_555
Na0 O30 2.389507 1_555
Na0 O16 2.508469 1_555
Na0 O3 2.578447 1_555
Na0 O0 2.596261 1_555
Na1 O21 2.325164 1_655
Na1 O32 2.350158 1_555
Na1 O31 2.389507 1_555
Na1 O17 2.508469 1_555
Na1 O2 2.578447 1_555
Na1 O1 2.596261 1_555
Na2 O22 2.411950 1_555
Na2 O17 2.447435 1_555
Na2 O32 2.537988 1_555
Na2 O14 2.546472 1_545
Na2 O10 2.593225 1_555
Na2 O26 2.700207 1_555
Na3 O23 2.411950 1_556
Na3 O16 2.447435 1_555
Na3 O33 2.537988 1_555
Na3 O15 2.546471 1_565
Na3 O11 2.593225 1_555
Na3 O27 2.700207 1_555
Na4 O24 2.421312 1_555
Na4 O30 2.441273 1_555
Na4 O16 2.476688 1_555
Na4 O28 2.556169 1_555
Na4 O12 2.564385 1_565
Na4 O8 2.640545 1_555
Na5 O25 2.421312 1_554
Na5 O31 2.441273 1_555
Na5 O17 2.476688 1_555
Na5 O29 2.556169 1_555
Na5 O13 2.564385 1_545
Na5 O9 2.640545 1_555
Mn0 O8 2.151126 1_555
Mn0 O12 2.151559 1_555
Mn0 O4 2.169443 1_555
Mn0 O26 2.211105 1_555
Mn0 O18 2.319584 1_555
Mn0 O0 2.352146 1_655
Mn1 O9 2.151126 1_555
Mn1 O13 2.151559 1_555
Mn1 O5 2.169443 1_555
Mn1 O27 2.211105 1_554
Mn1 O19 2.319584 1_555
Mn1 O1 2.352146 1_455
Mn2 O10 2.134668 1_555
Mn2 O14 2.150885 1_555
Mn2 O6 2.163770 1_555
Mn2 O28 2.226313 1_555
Mn2 O19 2.318544 1_555
Mn2 O2 2.342904 1_455
Mn3 O11 2.134668 1_555
Mn3 O15 2.150880 1_555
Mn3 O7 2.163770 1_555
Mn3 O29 2.226313 1_556
Mn3 O18 2.318544 1_555
Mn3 O3 2.342904 1_655
Cu0 S4 2.268161 1_555
Cu0 S7 2.279713 1_555
Cu0 S2 2.282711 1_555
Cu0 S0 2.286491 1_555
Cu1 S5 2.268161 1_555
Cu1 S6 2.279713 1_555
Cu1 S3 2.282711 1_555
Cu1 S1 2.286491 1_555
H0 O26 1.000494 1_555
H0 O24 1.738297 1_555
H1 O27 1.000494 1_555
H1 O25 1.738297 1_555
H2 O28 1.000885 1_555
H2 O22 1.735866 1_555
H3 O29 1.000885 1_555
H3 O23 1.735866 1_555
H4 O4 0.994026 1_555
H5 O5 0.994026 1_556
H6 O6 0.993526 1_555
H7 O7 0.993526 1_554
H8 O4 0.987925 1_455
H9 O5 0.987925 1_655
H10 O6 0.987843 1_655
H11 O7 0.987843 1_455
H12 O26 0.991859 1_555
H13 O27 0.991859 1_555
H14 O28 0.992409 1_555
H15 O29 0.992409 1_555
H16 O20 0.983861 1_545
H17 O21 0.983861 1_565
H18 O20 0.975274 1_555
H19 O21 0.975274 1_555
O0 S0 1.531977 1_555
O1 S1 1.531977 1_555
O2 S1 1.530558 1_555
O3 S0 1.530558 1_555
O8 S2 1.540565 1_555
O9 S3 1.540565 1_555
O10 S3 1.528745 1_555
O11 S2 1.528745 1_555
O12 S4 1.541650 1_555
O13 S5 1.541650 1_555
O14 S6 1.541089 1_555
O15 S7 1.541097 1_555
O16 S2 1.514922 1_555
O17 S3 1.514922 1_555
O18 S0 1.564208 1_655
O19 S1 1.564208 1_455
O22 S4 1.530336 1_555
O23 S5 1.530336 1_555
O24 S6 1.532511 1_555
O25 S7 1.532511 1_555
O30 S4 1.520729 1_565
O31 S5 1.520729 1_545
O32 S6 1.518897 1_545
O33 S7 1.518897 1_565
