# generated using pymatgen
data_Sc5(CoSn3)6
_symmetry_space_group_name_H-M   'P 1'
_cell_length_a   13.52167857
_cell_length_b   13.52167857
_cell_length_c   16.44555756
_cell_angle_alpha   114.27422352
_cell_angle_beta   114.27422352
_cell_angle_gamma   90.00000000
_symmetry_Int_Tables_number   1
_chemical_formula_structural   Sc5(CoSn3)6
_chemical_formula_sum   'Sc20 Co24 Sn72'
_cell_volume   2446.43900504
_cell_formula_units_Z   4
loop_
 _symmetry_equiv_pos_site_id
 _symmetry_equiv_pos_as_xyz
  1  'x, y, z'
loop_
 _atom_site_type_symbol
 _atom_site_label
 _atom_site_symmetry_multiplicity
 _atom_site_fract_x
 _atom_site_fract_y
 _atom_site_fract_z
 _atom_site_occupancy
  Sc  Sc0  1  0.62500000  0.87500000  0.25000000  1
  Sc  Sc1  1  0.12500000  0.37500000  0.25000000  1
  Sc  Sc2  1  0.37500000  0.12500000  0.75000000  1
  Sc  Sc3  1  0.87500000  0.62500000  0.75000000  1
  Sc  Sc4  1  0.05963977  0.80855178  0.38296876  1
  Sc  Sc5  1  0.82332899  0.30855178  0.38296876  1
  Sc  Sc6  1  0.30855178  0.55963977  0.88296876  1
  Sc  Sc7  1  0.07441699  0.05963977  0.88296876  1
  Sc  Sc8  1  0.94036023  0.19144822  0.61703124  1
  Sc  Sc9  1  0.17667101  0.69144822  0.61703124  1
  Sc  Sc10  1  0.69144822  0.44036023  0.11703124  1
  Sc  Sc11  1  0.92558301  0.94036023  0.11703124  1
  Sc  Sc12  1  0.55963977  0.57441699  0.38296876  1
  Sc  Sc13  1  0.32332899  0.07441699  0.38296876  1
  Sc  Sc14  1  0.80855178  0.32332899  0.88296876  1
  Sc  Sc15  1  0.57441699  0.82332899  0.88296876  1
  Sc  Sc16  1  0.44036023  0.42558301  0.61703124  1
  Sc  Sc17  1  0.67667101  0.92558301  0.61703124  1
  Sc  Sc18  1  0.19144822  0.67667101  0.11703124  1
  Sc  Sc19  1  0.42558301  0.17667101  0.11703124  1
  Co  Co0  1  0.36915382  0.87448974  0.25013943  1
  Co  Co1  1  0.38098562  0.37448974  0.25013943  1
  Co  Co2  1  0.37448974  0.86915382  0.75013943  1
  Co  Co3  1  0.87564969  0.36915382  0.75013943  1
  Co  Co4  1  0.63084618  0.12551026  0.74986057  1
  Co  Co5  1  0.61901438  0.62551026  0.74986057  1
  Co  Co6  1  0.62551026  0.13084618  0.24986057  1
  Co  Co7  1  0.12435031  0.63084618  0.24986057  1
  Co  Co8  1  0.86915382  0.37564969  0.25013943  1
  Co  Co9  1  0.88098562  0.87564969  0.25013943  1
  Co  Co10  1  0.87448974  0.88098562  0.75013943  1
  Co  Co11  1  0.37564969  0.38098562  0.75013943  1
  Co  Co12  1  0.13084618  0.62435031  0.74986057  1
  Co  Co13  1  0.11901438  0.12435031  0.74986057  1
  Co  Co14  1  0.12551026  0.11901438  0.24986057  1
  Co  Co15  1  0.62435031  0.61901438  0.24986057  1
  Co  Co16  1  0.24721495  0.99721495  0.49442989  1
  Co  Co17  1  0.74721495  0.49721495  0.49442989  1
  Co  Co18  1  0.49721495  0.74721495  0.99442989  1
  Co  Co19  1  0.99721495  0.24721495  0.99442989  1
  Co  Co20  1  0.75278505  0.00278505  0.50557011  1
  Co  Co21  1  0.25278505  0.50278505  0.50557011  1
  Co  Co22  1  0.50278505  0.25278505  0.00557011  1
  Co  Co23  1  0.00278505  0.75278505  0.00557011  1
  Sn  Sn0  1  0.29800145  0.54800145  0.25000000  1
  Sn  Sn1  1  0.45199855  0.04800145  0.25000000  1
  Sn  Sn2  1  0.04800145  0.79800145  0.75000000  1
  Sn  Sn3  1  0.20199855  0.29800145  0.75000000  1
  Sn  Sn4  1  0.70199855  0.45199855  0.75000000  1
  Sn  Sn5  1  0.54800145  0.95199855  0.75000000  1
  Sn  Sn6  1  0.95199855  0.20199855  0.25000000  1
  Sn  Sn7  1  0.79800145  0.70199855  0.25000000  1
  Sn  Sn8  1  0.36678726  0.79306148  0.07814363  1
  Sn  Sn9  1  0.21135637  0.29306148  0.07814363  1
  Sn  Sn10  1  0.29306148  0.86678726  0.57814363  1
  Sn  Sn11  1  0.78508214  0.36678726  0.57814363  1
  Sn  Sn12  1  0.63321274  0.20693852  0.92185637  1
  Sn  Sn13  1  0.78864363  0.70693852  0.92185637  1
  Sn  Sn14  1  0.70693852  0.13321274  0.42185637  1
  Sn  Sn15  1  0.21491786  0.63321274  0.42185637  1
  Sn  Sn16  1  0.86678726  0.28508214  0.07814363  1
  Sn  Sn17  1  0.71135637  0.78508214  0.07814363  1
  Sn  Sn18  1  0.79306148  0.71135637  0.57814363  1
  Sn  Sn19  1  0.28508214  0.21135637  0.57814363  1
  Sn  Sn20  1  0.13321274  0.71491786  0.92185637  1
  Sn  Sn21  1  0.28864363  0.21491786  0.92185637  1
  Sn  Sn22  1  0.20693852  0.28864363  0.42185637  1
  Sn  Sn23  1  0.71491786  0.78864363  0.42185637  1
  Sn  Sn24  1  0.53779055  0.95706738  0.42201202  1
  Sn  Sn25  1  0.38422146  0.45706738  0.42201202  1
  Sn  Sn26  1  0.45706738  0.03779055  0.92201202  1
  Sn  Sn27  1  0.96494464  0.53779055  0.92201202  1
  Sn  Sn28  1  0.46220945  0.04293262  0.57798798  1
  Sn  Sn29  1  0.61577854  0.54293262  0.57798798  1
  Sn  Sn30  1  0.54293262  0.96220945  0.07798798  1
  Sn  Sn31  1  0.03505536  0.46220945  0.07798798  1
  Sn  Sn32  1  0.03779055  0.46494464  0.42201202  1
  Sn  Sn33  1  0.88422146  0.96494464  0.42201202  1
  Sn  Sn34  1  0.95706738  0.88422146  0.92201202  1
  Sn  Sn35  1  0.46494464  0.38422146  0.92201202  1
  Sn  Sn36  1  0.96220945  0.53505536  0.57798798  1
  Sn  Sn37  1  0.11577854  0.03505536  0.57798798  1
  Sn  Sn38  1  0.04293262  0.11577854  0.07798798  1
  Sn  Sn39  1  0.53505536  0.61577854  0.07798798  1
  Sn  Sn40  1  0.45130879  0.70130879  0.25000000  1
  Sn  Sn41  1  0.29869121  0.20130879  0.25000000  1
  Sn  Sn42  1  0.20130879  0.95130879  0.75000000  1
  Sn  Sn43  1  0.04869121  0.45130879  0.75000000  1
  Sn  Sn44  1  0.54869121  0.29869121  0.75000000  1
  Sn  Sn45  1  0.70130879  0.79869121  0.75000000  1
  Sn  Sn46  1  0.79869121  0.04869121  0.25000000  1
  Sn  Sn47  1  0.95130879  0.54869121  0.25000000  1
  Sn  Sn48  1  0.25801367  0.83026926  0.33892577  1
  Sn  Sn49  1  0.58091211  0.33026926  0.33892577  1
  Sn  Sn50  1  0.33026926  0.75801367  0.83892577  1
  Sn  Sn51  1  0.00865651  0.25801367  0.83892577  1
  Sn  Sn52  1  0.74198633  0.16973074  0.66107423  1
  Sn  Sn53  1  0.41908789  0.66973074  0.66107423  1
  Sn  Sn54  1  0.66973074  0.24198633  0.16107423  1
  Sn  Sn55  1  0.99134349  0.74198633  0.16107423  1
  Sn  Sn56  1  0.75801367  0.50865651  0.33892577  1
  Sn  Sn57  1  0.08091211  0.00865651  0.33892577  1
  Sn  Sn58  1  0.83026926  0.08091211  0.83892577  1
  Sn  Sn59  1  0.50865651  0.58091211  0.83892577  1
  Sn  Sn60  1  0.24198633  0.49134349  0.66107423  1
  Sn  Sn61  1  0.91908789  0.99134349  0.66107423  1
  Sn  Sn62  1  0.16973074  0.91908789  0.16107423  1
  Sn  Sn63  1  0.49134349  0.41908789  0.16107423  1
  Sn  Sn64  1  0.25000000  0.96868019  0.00000000  1
  Sn  Sn65  1  0.25000000  0.46868019  0.00000000  1
  Sn  Sn66  1  0.46868019  0.75000000  0.50000000  1
  Sn  Sn67  1  0.53131981  0.25000000  0.50000000  1
  Sn  Sn68  1  0.75000000  0.03131981  0.00000000  1
  Sn  Sn69  1  0.75000000  0.53131981  0.00000000  1
  Sn  Sn70  1  0.96868019  0.75000000  0.50000000  1
  Sn  Sn71  1  0.03131981  0.25000000  0.50000000  1
loop_
_geom_bond_atom_site_label_1
_geom_bond_atom_site_label_2
_geom_bond_distance
_geom_bond_site_symmetry_2
Sc0 Sn8 3.273785 1_555
Sc0 Sn14 3.273785 1_565
Sc0 Sn17 3.273785 1_555
Sc0 Sn23 3.273785 1_555
Sc0 Sn39 3.284202 1_555
Sc0 Sn33 3.284202 1_555
Sc0 Sn24 3.284202 1_555
Sc0 Sn30 3.284202 1_555
Sc0 Sn7 3.308227 1_555
Sc0 Sn1 3.308227 1_565
Sc0 Sn40 3.321417 1_555
Sc0 Sn46 3.321417 1_565
Sc1 Sn9 3.273785 1_555
Sc1 Sn22 3.273785 1_555
Sc1 Sn16 3.273785 1_455
Sc1 Sn15 3.273785 1_555
Sc1 Sn38 3.284202 1_555
Sc1 Sn25 3.284202 1_555
Sc1 Sn31 3.284202 1_555
Sc1 Sn32 3.284202 1_555
Sc1 Sn6 3.308227 1_455
Sc1 Sn0 3.308227 1_555
Sc1 Sn47 3.321417 1_455
Sc1 Sn41 3.321417 1_555
Sc2 Sn10 3.273785 1_545
Sc2 Sn12 3.273785 1_555
Sc2 Sn21 3.273785 1_555
Sc2 Sn19 3.273785 1_555
Sc2 Sn35 3.284202 1_555
Sc2 Sn37 3.284202 1_555
Sc2 Sn28 3.284202 1_555
Sc2 Sn26 3.284202 1_555
Sc2 Sn5 3.308227 1_545
Sc2 Sn3 3.308227 1_555
Sc2 Sn42 3.321417 1_545
Sc2 Sn44 3.321417 1_555
Sc3 Sn18 3.273785 1_555
Sc3 Sn13 3.273785 1_555
Sc3 Sn11 3.273785 1_555
Sc3 Sn20 3.273785 1_655
Sc3 Sn29 3.284202 1_555
Sc3 Sn34 3.284202 1_555
Sc3 Sn27 3.284202 1_555
Sc3 Sn36 3.284202 1_555
Sc3 Sn4 3.308227 1_555
Sc3 Sn2 3.308227 1_655
Sc3 Sn45 3.321417 1_555
Sc3 Sn43 3.321417 1_655
Sc4 Sn70 3.007152 1_455
Sc4 Sn55 3.083519 1_455
Sc4 Sn48 3.094862 1_555
Sc4 Sn57 3.116268 1_565
Sc4 Sn37 3.188181 1_565
Sc4 Sn47 3.212899 1_455
Sc4 Sn7 3.228371 1_455
Sc4 Sn10 3.236786 1_555
Sc4 Sn15 3.252860 1_555
Sc4 Sn33 3.262847 1_455
Sc5 Sn71 3.007152 1_655
Sc5 Sn54 3.083519 1_555
Sc5 Sn49 3.094861 1_555
Sc5 Sn56 3.116268 1_555
Sc5 Sn36 3.188181 1_555
Sc5 Sn46 3.212899 1_555
Sc5 Sn6 3.228371 1_555
Sc5 Sn11 3.236786 1_555
Sc5 Sn14 3.252860 1_555
Sc5 Sn32 3.262846 1_655
Sc6 Sn65 3.007152 1_556
Sc6 Sn60 3.083519 1_555
Sc6 Sn50 3.094862 1_555
Sc6 Sn59 3.116268 1_555
Sc6 Sn39 3.188181 1_556
Sc6 Sn43 3.212899 1_555
Sc6 Sn3 3.228371 1_555
Sc6 Sn8 3.236786 1_556
Sc6 Sn20 3.252860 1_555
Sc6 Sn35 3.262847 1_555
Sc7 Sn64 3.007151 1_546
Sc7 Sn61 3.083519 1_445
Sc7 Sn51 3.094862 1_555
Sc7 Sn58 3.116268 1_455
Sc7 Sn38 3.188181 1_556
Sc7 Sn42 3.212899 1_545
Sc7 Sn2 3.228371 1_545
Sc7 Sn9 3.236786 1_556
Sc7 Sn21 3.252860 1_555
Sc7 Sn34 3.262847 1_445
Sc8 Sn71 3.007152 1_655
Sc8 Sn51 3.083519 1_655
Sc8 Sn52 3.094862 1_555
Sc8 Sn61 3.116268 1_545
Sc8 Sn33 3.188181 1_545
Sc8 Sn43 3.212899 1_655
Sc8 Sn3 3.228371 1_655
Sc8 Sn14 3.236786 1_555
Sc8 Sn11 3.252860 1_555
Sc8 Sn37 3.262847 1_655
Sc9 Sn70 3.007152 1_455
Sc9 Sn50 3.083519 1_555
Sc9 Sn53 3.094861 1_555
Sc9 Sn60 3.116268 1_555
Sc9 Sn32 3.188181 1_555
Sc9 Sn42 3.212899 1_555
Sc9 Sn2 3.228371 1_555
Sc9 Sn15 3.236786 1_555
Sc9 Sn10 3.252860 1_555
Sc9 Sn36 3.262846 1_455
Sc10 Sn69 3.007152 1_555
Sc10 Sn56 3.083519 1_555
Sc10 Sn54 3.094862 1_555
Sc10 Sn63 3.116268 1_555
Sc10 Sn35 3.188181 1_554
Sc10 Sn47 3.212899 1_555
Sc10 Sn7 3.228371 1_555
Sc10 Sn12 3.236786 1_554
Sc10 Sn16 3.252860 1_555
Sc10 Sn39 3.262847 1_555
Sc11 Sn68 3.007151 1_565
Sc11 Sn57 3.083519 1_665
Sc11 Sn55 3.094862 1_555
Sc11 Sn62 3.116268 1_655
Sc11 Sn34 3.188181 1_554
Sc11 Sn46 3.212899 1_565
Sc11 Sn6 3.228371 1_565
Sc11 Sn13 3.236786 1_554
Sc11 Sn17 3.252860 1_555
Sc11 Sn38 3.262847 1_665
Sc12 Sn66 3.007151 1_555
Sc12 Sn63 3.083519 1_555
Sc12 Sn56 3.094862 1_555
Sc12 Sn49 3.116268 1_555
Sc12 Sn29 3.188181 1_555
Sc12 Sn40 3.212899 1_555
Sc12 Sn0 3.228371 1_555
Sc12 Sn18 3.236786 1_555
Sc12 Sn23 3.252860 1_555
Sc12 Sn25 3.262847 1_555
Sc13 Sn67 3.007151 1_555
Sc13 Sn62 3.083519 1_545
Sc13 Sn57 3.094862 1_555
Sc13 Sn48 3.116268 1_545
Sc13 Sn28 3.188181 1_555
Sc13 Sn41 3.212899 1_555
Sc13 Sn1 3.228371 1_555
Sc13 Sn19 3.236786 1_555
Sc13 Sn22 3.252860 1_555
Sc13 Sn24 3.262847 1_545
Sc14 Sn69 3.007152 1_556
Sc14 Sn52 3.083519 1_555
Sc14 Sn58 3.094861 1_555
Sc14 Sn51 3.116268 1_655
Sc14 Sn31 3.188181 1_656
Sc14 Sn44 3.212899 1_555
Sc14 Sn4 3.228371 1_555
Sc14 Sn16 3.236786 1_556
Sc14 Sn12 3.252860 1_555
Sc14 Sn27 3.262846 1_555
Sc15 Sn68 3.007151 1_566
Sc15 Sn53 3.083519 1_555
Sc15 Sn59 3.094862 1_555
Sc15 Sn50 3.116268 1_555
Sc15 Sn30 3.188181 1_556
Sc15 Sn45 3.212899 1_555
Sc15 Sn5 3.228371 1_555
Sc15 Sn17 3.236786 1_556
Sc15 Sn13 3.252860 1_555
Sc15 Sn26 3.262847 1_565
Sc16 Sn67 3.007151 1_555
Sc16 Sn59 3.083519 1_555
Sc16 Sn60 3.094862 1_555
Sc16 Sn53 3.116268 1_555
Sc16 Sn25 3.188181 1_555
Sc16 Sn44 3.212899 1_555
Sc16 Sn4 3.228371 1_555
Sc16 Sn22 3.236786 1_555
Sc16 Sn19 3.252860 1_555
Sc16 Sn29 3.262847 1_555
Sc17 Sn66 3.007151 1_555
Sc17 Sn58 3.083519 1_565
Sc17 Sn61 3.094862 1_555
Sc17 Sn52 3.116268 1_565
Sc17 Sn24 3.188181 1_555
Sc17 Sn45 3.212899 1_555
Sc17 Sn5 3.228371 1_555
Sc17 Sn23 3.236786 1_555
Sc17 Sn18 3.252860 1_555
Sc17 Sn28 3.262847 1_565
Sc18 Sn65 3.007152 1_555
Sc18 Sn48 3.083519 1_555
Sc18 Sn62 3.094861 1_555
Sc18 Sn55 3.116268 1_455
Sc18 Sn27 3.188181 1_454
Sc18 Sn40 3.212899 1_555
Sc18 Sn0 3.228371 1_555
Sc18 Sn20 3.236786 1_554
Sc18 Sn8 3.252860 1_555
Sc18 Sn31 3.262846 1_555
Sc19 Sn64 3.007151 1_545
Sc19 Sn49 3.083519 1_555
Sc19 Sn63 3.094862 1_555
Sc19 Sn54 3.116268 1_555
Sc19 Sn26 3.188181 1_554
Sc19 Sn41 3.212899 1_555
Sc19 Sn1 3.228371 1_555
Sc19 Sn21 3.236786 1_554
Sc19 Sn9 3.252860 1_555
Sc19 Sn30 3.262847 1_545
Co0 Sn24 2.557611 1_555
Co0 Sn8 2.564961 1_555
Co0 Sn40 2.591384 1_555
Co0 Sn1 2.601134 1_565
Co0 Sn62 2.694284 1_555
Co0 Sn48 2.696288 1_555
Co0 Sc18 2.929398 1_555
Co0 Sc13 2.953195 1_565
Co0 Sc0 3.460422 1_555
Co1 Sn25 2.557611 1_555
Co1 Sn9 2.564961 1_555
Co1 Sn41 2.591384 1_555
Co1 Sn0 2.601134 1_555
Co1 Sn63 2.694284 1_555
Co1 Sn49 2.696288 1_555
Co1 Sc19 2.929398 1_555
Co1 Sc12 2.953195 1_555
Co1 Sc1 3.460422 1_555
Co2 Sn26 2.557611 1_565
Co2 Sn10 2.564961 1_555
Co2 Sn42 2.591384 1_555
Co2 Sn5 2.601134 1_555
Co2 Sn53 2.694284 1_555
Co2 Sn50 2.696288 1_555
Co2 Sc9 2.929398 1_555
Co2 Sc15 2.953195 1_555
Co2 Sc2 3.460422 1_565
Co3 Sn27 2.557611 1_555
Co3 Sn11 2.564961 1_555
Co3 Sn43 2.591384 1_655
Co3 Sn4 2.601134 1_555
Co3 Sn52 2.694284 1_555
Co3 Sn51 2.696288 1_655
Co3 Sc8 2.929398 1_555
Co3 Sc14 2.953195 1_555
Co3 Sc3 3.460422 1_555
Co4 Sn28 2.557611 1_555
Co4 Sn12 2.564961 1_555
Co4 Sn44 2.591384 1_555
Co4 Sn5 2.601134 1_545
Co4 Sn58 2.694284 1_555
Co4 Sn52 2.696288 1_555
Co4 Sc14 2.929398 1_555
Co4 Sc17 2.953195 1_545
Co4 Sc2 3.460422 1_555
Co5 Sn29 2.557611 1_555
Co5 Sn13 2.564961 1_555
Co5 Sn45 2.591384 1_555
Co5 Sn4 2.601134 1_555
Co5 Sn59 2.694284 1_555
Co5 Sn53 2.696288 1_555
Co5 Sc15 2.929398 1_555
Co5 Sc16 2.953195 1_555
Co5 Sc3 3.460422 1_555
Co6 Sn30 2.557611 1_545
Co6 Sn14 2.564961 1_555
Co6 Sn46 2.591384 1_555
Co6 Sn1 2.601134 1_555
Co6 Sn49 2.694284 1_555
Co6 Sn54 2.696288 1_555
Co6 Sc5 2.929398 1_555
Co6 Sc19 2.953195 1_555
Co6 Sc0 3.460422 1_545
Co7 Sn31 2.557611 1_555
Co7 Sn15 2.564961 1_555
Co7 Sn47 2.591384 1_455
Co7 Sn0 2.601134 1_555
Co7 Sn48 2.694284 1_555
Co7 Sn55 2.696288 1_455
Co7 Sc4 2.929398 1_555
Co7 Sc18 2.953195 1_555
Co7 Sc1 3.460422 1_555
Co8 Sn32 2.557611 1_655
Co8 Sn16 2.564961 1_555
Co8 Sn47 2.591384 1_555
Co8 Sn6 2.601134 1_555
Co8 Sn54 2.694284 1_555
Co8 Sn56 2.696288 1_555
Co8 Sc10 2.929398 1_555
Co8 Sc5 2.953195 1_555
Co8 Sc1 3.460422 1_655
Co9 Sn33 2.557611 1_555
Co9 Sn17 2.564961 1_555
Co9 Sn46 2.591384 1_565
Co9 Sn7 2.601134 1_555
Co9 Sn55 2.694284 1_555
Co9 Sn57 2.696288 1_665
Co9 Sc11 2.929398 1_555
Co9 Sc4 2.953195 1_655
Co9 Sc0 3.460422 1_555
Co10 Sn34 2.557611 1_555
Co10 Sn18 2.564961 1_555
Co10 Sn45 2.591384 1_555
Co10 Sn2 2.601134 1_655
Co10 Sn61 2.694284 1_555
Co10 Sn58 2.696288 1_565
Co10 Sc17 2.929398 1_555
Co10 Sc7 2.953195 1_665
Co10 Sc3 3.460422 1_555
Co11 Sn35 2.557611 1_555
Co11 Sn19 2.564961 1_555
Co11 Sn44 2.591384 1_555
Co11 Sn3 2.601134 1_555
Co11 Sn60 2.694284 1_555
Co11 Sn59 2.696288 1_555
Co11 Sc16 2.929398 1_555
Co11 Sc6 2.953195 1_555
Co11 Sc2 3.460422 1_555
Co12 Sn36 2.557611 1_455
Co12 Sn20 2.564961 1_555
Co12 Sn43 2.591384 1_555
Co12 Sn2 2.601134 1_555
Co12 Sn50 2.694284 1_555
Co12 Sn60 2.696288 1_555
Co12 Sc6 2.929398 1_555
Co12 Sc9 2.953195 1_555
Co12 Sc3 3.460422 1_455
Co13 Sn37 2.557611 1_555
Co13 Sn21 2.564961 1_555
Co13 Sn42 2.591384 1_545
Co13 Sn3 2.601134 1_555
Co13 Sn51 2.694284 1_555
Co13 Sn61 2.696288 1_445
Co13 Sc7 2.929398 1_555
Co13 Sc8 2.953195 1_455
Co13 Sc2 3.460422 1_555
Co14 Sn38 2.557611 1_555
Co14 Sn22 2.564961 1_555
Co14 Sn41 2.591384 1_555
Co14 Sn6 2.601134 1_455
Co14 Sn57 2.694284 1_555
Co14 Sn62 2.696288 1_545
Co14 Sc13 2.929398 1_555
Co14 Sc11 2.953195 1_445
Co14 Sc1 3.460422 1_555
Co15 Sn39 2.557611 1_555
Co15 Sn23 2.564961 1_555
Co15 Sn40 2.591384 1_555
Co15 Sn7 2.601134 1_555
Co15 Sn56 2.694284 1_555
Co15 Sn63 2.696288 1_555
Co15 Sc12 2.929398 1_555
Co15 Sc10 2.953195 1_555
Co15 Sc0 3.460422 1_555
Co16 Sn19 2.585447 1_565
Co16 Sn10 2.585447 1_555
Co16 Sn28 2.595882 1_565
Co16 Sn37 2.595882 1_565
Co16 Sn57 2.686566 1_565
Co16 Sn48 2.686566 1_555
Co16 Sc13 2.938271 1_565
Co16 Sc4 2.938272 1_555
Co16 Sc2 3.419662 1_565
Co17 Sn18 2.585447 1_555
Co17 Sn11 2.585447 1_555
Co17 Sn29 2.595882 1_555
Co17 Sn36 2.595882 1_555
Co17 Sn56 2.686566 1_555
Co17 Sn49 2.686566 1_555
Co17 Sc5 2.938271 1_555
Co17 Sc12 2.938272 1_555
Co17 Sc3 3.419662 1_555
Co18 Sn17 2.585447 1_556
Co18 Sn8 2.585447 1_556
Co18 Sn30 2.595882 1_556
Co18 Sn39 2.595882 1_556
Co18 Sn59 2.686566 1_555
Co18 Sn50 2.686566 1_555
Co18 Sc15 2.938271 1_555
Co18 Sc6 2.938272 1_555
Co18 Sc0 3.419662 1_556
Co19 Sn9 2.585447 1_656
Co19 Sn16 2.585447 1_556
Co19 Sn38 2.595882 1_656
Co19 Sn31 2.595882 1_656
Co19 Sn51 2.686566 1_655
Co19 Sn58 2.686566 1_555
Co19 Sc14 2.938271 1_555
Co19 Sc7 2.938272 1_655
Co19 Sc1 3.419662 1_656
Co20 Sn23 2.585447 1_545
Co20 Sn14 2.585447 1_555
Co20 Sn24 2.595882 1_545
Co20 Sn33 2.595882 1_545
Co20 Sn61 2.686566 1_545
Co20 Sn52 2.686566 1_555
Co20 Sc17 2.938271 1_545
Co20 Sc8 2.938272 1_555
Co20 Sc0 3.419662 1_545
Co21 Sn22 2.585447 1_555
Co21 Sn15 2.585447 1_555
Co21 Sn25 2.595882 1_555
Co21 Sn32 2.595882 1_555
Co21 Sn60 2.686566 1_555
Co21 Sn53 2.686566 1_555
Co21 Sc9 2.938271 1_555
Co21 Sc16 2.938272 1_555
Co21 Sc1 3.419662 1_555
Co22 Sn21 2.585447 1_554
Co22 Sn12 2.585447 1_554
Co22 Sn26 2.595882 1_554
Co22 Sn35 2.595882 1_554
Co22 Sn63 2.686566 1_555
Co22 Sn54 2.686566 1_555
Co22 Sc19 2.938271 1_555
Co22 Sc10 2.938272 1_555
Co22 Sc2 3.419662 1_554
Co23 Sn13 2.585447 1_454
Co23 Sn20 2.585447 1_554
Co23 Sn34 2.595882 1_454
Co23 Sn27 2.595882 1_454
Co23 Sn55 2.686566 1_455
Co23 Sn62 2.686566 1_555
Co23 Sc18 2.938271 1_555
Co23 Sc11 2.938272 1_455
Co23 Sc3 3.419662 1_454
Sn0 Sn40 2.931626 1_555
Sn1 Sn41 2.931626 1_555
Sn2 Sn42 2.931626 1_555
Sn3 Sn43 2.931626 1_555
Sn4 Sn44 2.931626 1_555
Sn24 Sn28 2.946011 1_565
Sn25 Sn29 2.946012 1_555
Sn26 Sn30 2.946011 1_546
Sn27 Sn31 2.946011 1_656
Sn32 Sn36 2.946011 1_455
Sn33 Sn37 2.946012 1_665
Sn34 Sn38 2.946012 1_666
Sn35 Sn39 2.946012 1_556
Sn45 Sn5 2.931626 1_555
Sn46 Sn6 2.931626 1_555
Sn47 Sn7 2.931626 1_555
