# generated using pymatgen
data_Rb2AlInCl6
_symmetry_space_group_name_H-M   'P 1'
_cell_length_a   7.60975024
_cell_length_b   7.60975024
_cell_length_c   7.60975024
_cell_angle_alpha   60.00000000
_cell_angle_beta   60.00000000
_cell_angle_gamma   60.00000000
_symmetry_Int_Tables_number   1
_chemical_formula_structural   Rb2AlInCl6
_chemical_formula_sum   'Rb2 Al1 In1 Cl6'
_cell_volume   311.59911226
_cell_formula_units_Z   1
loop_
 _symmetry_equiv_pos_site_id
 _symmetry_equiv_pos_as_xyz
  1  'x, y, z'
loop_
 _atom_site_type_symbol
 _atom_site_label
 _atom_site_symmetry_multiplicity
 _atom_site_fract_x
 _atom_site_fract_y
 _atom_site_fract_z
 _atom_site_occupancy
  Rb  Rb0  1  0.75000000  0.75000000  0.75000000  1
  Rb  Rb1  1  0.25000000  0.25000000  0.25000000  1
  Al  Al0  1  0.00000000  0.00000000  0.00000000  1
  In  In0  1  0.50000000  0.50000000  0.50000000  1
  Cl  Cl0  1  0.78127800  0.21872200  0.21872200  1
  Cl  Cl1  1  0.21872200  0.21872200  0.78127800  1
  Cl  Cl2  1  0.21872200  0.78127800  0.78127800  1
  Cl  Cl3  1  0.21872200  0.78127800  0.21872200  1
  Cl  Cl4  1  0.78127800  0.21872200  0.78127800  1
  Cl  Cl5  1  0.78127800  0.78127800  0.21872200  1
loop_
_geom_bond_atom_site_label_1
_geom_bond_atom_site_label_2
_geom_bond_distance
_geom_bond_site_symmetry_2
Al0 Cl2 2.353845 1_544
Al0 Cl4 2.353845 1_454
Al0 Cl5 2.353845 1_445
Al0 Cl0 2.353845 1_455
Al0 Cl3 2.353845 1_545
Al0 Cl1 2.353845 1_554
Cl0 In0 3.027061 1_555
Cl0 Rb1 3.819736 1_655
Cl0 Rb0 3.819736 1_554
Cl0 Rb1 3.819736 1_555
Cl0 Rb0 3.819736 1_545
Cl1 In0 3.027061 1_555
Cl1 Rb1 3.819736 1_556
Cl1 Rb0 3.819736 1_455
Cl1 Rb1 3.819736 1_555
Cl1 Rb0 3.819736 1_545
Cl2 In0 3.027061 1_555
Cl2 Rb1 3.819736 1_565
Cl2 Rb1 3.819736 1_556
Cl2 Rb0 3.819736 1_455
Cl2 Rb0 3.819736 1_555
Cl3 In0 3.027061 1_555
Cl3 Rb1 3.819736 1_565
Cl3 Rb0 3.819736 1_455
Cl3 Rb0 3.819736 1_554
Cl3 Rb1 3.819736 1_555
Cl4 In0 3.027061 1_555
Cl4 Rb1 3.819736 1_556
Cl4 Rb1 3.819736 1_655
Cl4 Rb0 3.819736 1_555
Cl4 Rb0 3.819736 1_545
Cl5 In0 3.027061 1_555
Cl5 Rb1 3.819736 1_565
Cl5 Rb1 3.819736 1_655
Cl5 Rb0 3.819736 1_555
Cl5 Rb0 3.819736 1_554
