# generated using pymatgen
data_ScSiIr
_symmetry_space_group_name_H-M   'P 1'
_cell_length_a   4.05940552
_cell_length_b   6.48457528
_cell_length_c   7.27832863
_cell_angle_alpha   90.00000000
_cell_angle_beta   90.00000000
_cell_angle_gamma   90.00000000
_symmetry_Int_Tables_number   1
_chemical_formula_structural   ScSiIr
_chemical_formula_sum   'Sc4 Si4 Ir4'
_cell_volume   191.59123425
_cell_formula_units_Z   4
loop_
 _symmetry_equiv_pos_site_id
 _symmetry_equiv_pos_as_xyz
  1  'x, y, z'
loop_
 _atom_site_type_symbol
 _atom_site_label
 _atom_site_symmetry_multiplicity
 _atom_site_fract_x
 _atom_site_fract_y
 _atom_site_fract_z
 _atom_site_occupancy
  Sc  Sc0  1  0.25000000  0.00972758  0.31399265  1
  Sc  Sc1  1  0.25000000  0.50972758  0.18600735  1
  Sc  Sc2  1  0.75000000  0.99027242  0.68600735  1
  Sc  Sc3  1  0.75000000  0.49027242  0.81399265  1
  Si  Si0  1  0.25000000  0.29079559  0.62052375  1
  Si  Si1  1  0.25000000  0.79079559  0.87947625  1
  Si  Si2  1  0.75000000  0.70920441  0.37947625  1
  Si  Si3  1  0.75000000  0.20920441  0.12052375  1
  Ir  Ir0  1  0.25000000  0.16052327  0.93951018  1
  Ir  Ir1  1  0.25000000  0.66052327  0.56048982  1
  Ir  Ir2  1  0.75000000  0.83947673  0.06048982  1
  Ir  Ir3  1  0.75000000  0.33947673  0.43951018  1
loop_
_geom_bond_atom_site_label_1
_geom_bond_atom_site_label_2
_geom_bond_distance
_geom_bond_site_symmetry_2
Sc0 Si3 2.788499 1_455
Sc0 Si3 2.788499 1_555
Sc0 Si2 2.853864 1_445
Sc0 Si2 2.853864 1_545
Sc0 Si0 2.880869 1_555
Sc1 Si2 2.788499 1_555
Sc1 Si2 2.788499 1_455
Sc1 Si3 2.853864 1_455
Sc1 Si3 2.853864 1_555
Sc1 Si1 2.880869 1_554
Sc2 Si1 2.788499 1_555
Sc2 Si1 2.788499 1_655
Sc2 Si0 2.853864 1_565
Sc2 Si0 2.853864 1_665
Sc2 Si2 2.880869 1_555
Sc3 Si0 2.788499 1_655
Sc3 Si0 2.788499 1_555
Sc3 Si1 2.853864 1_555
Sc3 Si1 2.853864 1_655
Sc3 Si3 2.880869 1_556
Ir0 Si1 2.437018 1_545
Ir0 Si3 2.440305 1_556
Ir0 Si3 2.440305 1_456
Ir0 Si0 2.470598 1_555
Ir0 Sc1 2.889022 1_556
Ir0 Sc0 2.895706 1_556
Ir0 Sc2 2.956827 1_445
Ir0 Sc2 2.956827 1_545
Ir0 Sc3 3.086509 1_455
Ir0 Sc3 3.086509 1_555
Ir1 Si0 2.437018 1_555
Ir1 Si2 2.440305 1_555
Ir1 Si2 2.440305 1_455
Ir1 Si1 2.470598 1_555
Ir1 Sc0 2.889022 1_565
Ir1 Sc1 2.895706 1_555
Ir1 Sc3 2.956827 1_555
Ir1 Sc3 2.956827 1_455
Ir1 Sc2 3.086509 1_455
Ir1 Sc2 3.086509 1_555
Ir2 Si3 2.437018 1_565
Ir2 Si1 2.440305 1_654
Ir2 Si1 2.440305 1_554
Ir2 Si2 2.470598 1_555
Ir2 Sc3 2.889022 1_554
Ir2 Sc2 2.895706 1_554
Ir2 Sc0 2.956827 1_665
Ir2 Sc0 2.956827 1_565
Ir2 Sc1 3.086509 1_655
Ir2 Sc1 3.086509 1_555
Ir3 Si2 2.437018 1_555
Ir3 Si0 2.440305 1_555
Ir3 Si0 2.440305 1_655
Ir3 Si3 2.470598 1_555
Ir3 Sc2 2.889022 1_545
Ir3 Sc3 2.895706 1_555
Ir3 Sc1 2.956827 1_655
Ir3 Sc1 2.956827 1_555
Ir3 Sc0 3.086509 1_555
Ir3 Sc0 3.086509 1_655
