# generated using pymatgen
data_Ca4Er2(Sn5Pt3)3
_symmetry_space_group_name_H-M   'P 1'
_cell_length_a   4.48854772
_cell_length_b   7.45559738
_cell_length_c   80.16105885
_cell_angle_alpha   90.04715787
_cell_angle_beta   90.00000000
_cell_angle_gamma   90.00000000
_symmetry_Int_Tables_number   1
_chemical_formula_structural   Ca4Er2(Sn5Pt3)3
_chemical_formula_sum   'Ca16 Er8 Sn60 Pt36'
_cell_volume   2682.57326476
_cell_formula_units_Z   4
loop_
 _symmetry_equiv_pos_site_id
 _symmetry_equiv_pos_as_xyz
  1  'x, y, z'
loop_
 _atom_site_type_symbol
 _atom_site_label
 _atom_site_symmetry_multiplicity
 _atom_site_fract_x
 _atom_site_fract_y
 _atom_site_fract_z
 _atom_site_occupancy
  Ca  Ca0  1  0.75000000  0.25103506  0.02563161  1
  Ca  Ca1  1  0.75000000  0.25091841  0.35895506  1
  Ca  Ca2  1  0.75000000  0.25102802  0.69230048  1
  Ca  Ca3  1  0.75000000  0.75090338  0.14104919  1
  Ca  Ca4  1  0.75000000  0.75089946  0.47438446  1
  Ca  Ca5  1  0.75000000  0.75089468  0.80771720  1
  Ca  Ca6  1  0.25000000  0.74841202  0.30776396  1
  Ca  Ca7  1  0.25000000  0.74874338  0.64107638  1
  Ca  Ca8  1  0.25000000  0.74875269  0.97440256  1
  Ca  Ca9  1  0.25000000  0.24839250  0.19223532  1
  Ca  Ca10  1  0.25000000  0.24882864  0.52559798  1
  Ca  Ca11  1  0.25000000  0.24882257  0.85893619  1
  Ca  Ca12  1  0.75000000  0.28250661  0.25769009  1
  Ca  Ca13  1  0.75000000  0.28256792  0.59104283  1
  Ca  Ca14  1  0.75000000  0.28259969  0.92437186  1
  Ca  Ca15  1  0.75000000  0.78251234  0.24230500  1
  Er  Er0  1  0.75000000  0.78144538  0.57543641  1
  Er  Er1  1  0.75000000  0.78146534  0.90876684  1
  Er  Er2  1  0.25000000  0.71796409  0.07543281  1
  Er  Er3  1  0.25000000  0.71804376  0.40877186  1
  Er  Er4  1  0.25000000  0.71800436  0.74209025  1
  Er  Er5  1  0.25000000  0.21794633  0.09121508  1
  Er  Er6  1  0.25000000  0.21801714  0.42454099  1
  Er  Er7  1  0.25000000  0.21796304  0.75787073  1
  Sn  Sn0  1  0.75000000  0.37739648  0.06715920  1
  Sn  Sn1  1  0.75000000  0.37752567  0.40049583  1
  Sn  Sn2  1  0.75000000  0.37740071  0.73383285  1
  Sn  Sn3  1  0.75000000  0.87751619  0.09949581  1
  Sn  Sn4  1  0.75000000  0.87749074  0.43283471  1
  Sn  Sn5  1  0.75000000  0.87747154  0.76616312  1
  Sn  Sn6  1  0.25000000  0.62129100  0.26615568  1
  Sn  Sn7  1  0.25000000  0.62108330  0.59955672  1
  Sn  Sn8  1  0.25000000  0.62102124  0.93288867  1
  Sn  Sn9  1  0.25000000  0.12121850  0.23384274  1
  Sn  Sn10  1  0.25000000  0.12331201  0.56726950  1
  Sn  Sn11  1  0.25000000  0.12326873  0.90060343  1
  Sn  Sn12  1  0.75000000  0.90574577  0.28222728  1
  Sn  Sn13  1  0.75000000  0.90616816  0.61551447  1
  Sn  Sn14  1  0.75000000  0.90610916  0.94883390  1
  Sn  Sn15  1  0.75000000  0.40578246  0.21777408  1
  Sn  Sn16  1  0.75000000  0.40528073  0.55105945  1
  Sn  Sn17  1  0.75000000  0.40530956  0.88440190  1
  Sn  Sn18  1  0.25000000  0.09351011  0.05114554  1
  Sn  Sn19  1  0.25000000  0.09360514  0.38447377  1
  Sn  Sn20  1  0.25000000  0.09355868  0.71781866  1
  Sn  Sn21  1  0.25000000  0.59372302  0.11552359  1
  Sn  Sn22  1  0.25000000  0.59363945  0.44885164  1
  Sn  Sn23  1  0.25000000  0.59380868  0.78217208  1
  Sn  Sn24  1  0.75000000  0.71588659  0.04361583  1
  Sn  Sn25  1  0.75000000  0.71598503  0.37694762  1
  Sn  Sn26  1  0.75000000  0.71573304  0.71027360  1
  Sn  Sn27  1  0.75000000  0.21595077  0.12304884  1
  Sn  Sn28  1  0.75000000  0.21584919  0.45637867  1
  Sn  Sn29  1  0.75000000  0.21572248  0.78971539  1
  Sn  Sn30  1  0.25000000  0.28509787  0.28967922  1
  Sn  Sn31  1  0.25000000  0.28357956  0.62296114  1
  Sn  Sn32  1  0.25000000  0.28368605  0.95629602  1
  Sn  Sn33  1  0.25000000  0.78520107  0.21032301  1
  Sn  Sn34  1  0.25000000  0.78517088  0.54360302  1
  Sn  Sn35  1  0.25000000  0.78524156  0.87693984  1
  Sn  Sn36  1  0.75000000  0.46118314  0.31885446  1
  Sn  Sn37  1  0.75000000  0.46163418  0.65214805  1
  Sn  Sn38  1  0.75000000  0.46162221  0.98548908  1
  Sn  Sn39  1  0.75000000  0.96115813  0.18113360  1
  Sn  Sn40  1  0.75000000  0.96235611  0.51447915  1
  Sn  Sn41  1  0.75000000  0.96240860  0.84781173  1
  Sn  Sn42  1  0.25000000  0.53752838  0.01454543  1
  Sn  Sn43  1  0.25000000  0.53764112  0.34787926  1
  Sn  Sn44  1  0.25000000  0.53753697  0.68121382  1
  Sn  Sn45  1  0.25000000  0.03761163  0.15212347  1
  Sn  Sn46  1  0.25000000  0.03743088  0.48546798  1
  Sn  Sn47  1  0.25000000  0.03738259  0.81880217  1
  Sn  Sn48  1  0.75000000  0.03632392  0.31876320  1
  Sn  Sn49  1  0.75000000  0.03632834  0.65214675  1
  Sn  Sn50  1  0.75000000  0.03631451  0.98547384  1
  Sn  Sn51  1  0.75000000  0.53638498  0.18124028  1
  Sn  Sn52  1  0.75000000  0.53596611  0.51450135  1
  Sn  Sn53  1  0.75000000  0.53597546  0.84783221  1
  Sn  Sn54  1  0.25000000  0.96379227  0.01443736  1
  Sn  Sn55  1  0.25000000  0.96377815  0.34774724  1
  Sn  Sn56  1  0.25000000  0.96382705  0.68110180  1
  Sn  Sn57  1  0.25000000  0.46377274  0.15225156  1
  Sn  Sn58  1  0.25000000  0.46376938  0.48557676  1
  Sn  Sn59  1  0.25000000  0.46381889  0.81890771  1
  Pt  Pt0  1  0.75000000  0.53673598  0.28567878  1
  Pt  Pt1  1  0.75000000  0.53652589  0.61893967  1
  Pt  Pt2  1  0.75000000  0.53640361  0.95227364  1
  Pt  Pt3  1  0.75000000  0.03662285  0.21432681  1
  Pt  Pt4  1  0.75000000  0.02969881  0.54820128  1
  Pt  Pt5  1  0.75000000  0.02974353  0.88153015  1
  Pt  Pt6  1  0.25000000  0.46961812  0.04834863  1
  Pt  Pt7  1  0.25000000  0.46980901  0.38169297  1
  Pt  Pt8  1  0.25000000  0.46969235  0.71502018  1
  Pt  Pt9  1  0.25000000  0.96986178  0.11830850  1
  Pt  Pt10  1  0.25000000  0.96987674  0.45165508  1
  Pt  Pt11  1  0.25000000  0.96996433  0.78499196  1
  Pt  Pt12  1  0.75000000  0.75848656  0.00928844  1
  Pt  Pt13  1  0.75000000  0.75815385  0.34266251  1
  Pt  Pt14  1  0.75000000  0.75843192  0.67595189  1
  Pt  Pt15  1  0.75000000  0.25806342  0.15733750  1
  Pt  Pt16  1  0.75000000  0.25835048  0.49072568  1
  Pt  Pt17  1  0.75000000  0.25824983  0.82406158  1
  Pt  Pt18  1  0.25000000  0.24317186  0.32426763  1
  Pt  Pt19  1  0.25000000  0.24295463  0.65754176  1
  Pt  Pt20  1  0.25000000  0.24293572  0.99087914  1
  Pt  Pt21  1  0.25000000  0.74318277  0.17572772  1
  Pt  Pt22  1  0.25000000  0.74269787  0.50915104  1
  Pt  Pt23  1  0.25000000  0.74266637  0.84248932  1
  Pt  Pt24  1  0.75000000  0.99492313  0.06745805  1
  Pt  Pt25  1  0.75000000  0.99491241  0.40081003  1
  Pt  Pt26  1  0.75000000  0.99490978  0.73413869  1
  Pt  Pt27  1  0.75000000  0.49484487  0.09920335  1
  Pt  Pt28  1  0.75000000  0.49477869  0.43255693  1
  Pt  Pt29  1  0.75000000  0.49471110  0.76589001  1
  Pt  Pt30  1  0.25000000  0.99956679  0.26639265  1
  Pt  Pt31  1  0.25000000  0.99670803  0.59930846  1
  Pt  Pt32  1  0.25000000  0.99677993  0.93264106  1
  Pt  Pt33  1  0.25000000  0.49959509  0.23361072  1
  Pt  Pt34  1  0.25000000  0.50840748  0.56710881  1
  Pt  Pt35  1  0.25000000  0.50841073  0.90043914  1
loop_
_geom_bond_atom_site_label_1
_geom_bond_atom_site_label_2
_geom_bond_distance
_geom_bond_site_symmetry_2
Ca0 Sn42 3.223670 1_555
Ca0 Sn42 3.223670 1_655
Ca0 Sn54 3.228798 1_645
Ca0 Sn54 3.228798 1_545
Ca0 Sn18 3.256221 1_555
Ca0 Sn18 3.256221 1_655
Ca0 Pt6 3.317199 1_655
Ca0 Pt6 3.317199 1_555
Ca0 Sn0 3.458892 1_555
Ca0 Pt20 3.577819 1_654
Ca0 Pt20 3.577819 1_554
Ca0 Sn38 3.581628 1_554
Ca0 Sn50 3.594000 1_554
Ca0 Sn24 3.752530 1_555
Ca1 Sn43 3.224574 1_655
Ca1 Sn43 3.224574 1_555
Ca1 Sn55 3.228593 1_645
Ca1 Sn55 3.228593 1_545
Ca1 Sn19 3.255892 1_655
Ca1 Sn19 3.255892 1_555
Ca1 Pt7 3.319244 1_555
Ca1 Pt7 3.319244 1_655
Ca1 Sn1 3.460407 1_555
Ca1 Pt18 3.573719 1_655
Ca1 Pt18 3.573719 1_555
Ca1 Sn36 3.577551 1_555
Ca1 Sn48 3.596030 1_555
Ca1 Sn25 3.754267 1_555
Ca2 Sn44 3.223758 1_655
Ca2 Sn44 3.223758 1_555
Ca2 Sn56 3.228689 1_645
Ca2 Sn56 3.228689 1_545
Ca2 Sn20 3.256285 1_555
Ca2 Sn20 3.256285 1_655
Ca2 Pt8 3.317615 1_655
Ca2 Pt8 3.317615 1_555
Ca2 Sn2 3.459284 1_555
Ca2 Pt19 3.578206 1_655
Ca2 Pt19 3.578206 1_555
Ca2 Sn37 3.582403 1_555
Ca2 Sn49 3.593641 1_555
Ca2 Sn26 3.751180 1_555
Ca3 Sn45 3.223500 1_565
Ca3 Sn45 3.223500 1_665
Ca3 Sn57 3.229404 1_655
Ca3 Sn57 3.229404 1_555
Ca3 Sn21 3.254669 1_655
Ca3 Sn21 3.254669 1_555
Ca3 Pt9 3.321090 1_555
Ca3 Pt9 3.321090 1_655
Ca3 Sn3 3.462886 1_555
Ca3 Pt21 3.573235 1_655
Ca3 Pt21 3.573235 1_555
Ca3 Sn39 3.574033 1_555
Ca3 Sn51 3.598080 1_555
Ca3 Sn27 3.756567 1_565
Ca4 Sn46 3.222830 1_565
Ca4 Sn46 3.222830 1_665
Ca4 Sn58 3.229176 1_555
Ca4 Sn58 3.229176 1_655
Ca4 Sn22 3.255247 1_655
Ca4 Sn22 3.255247 1_555
Ca4 Pt10 3.320661 1_655
Ca4 Pt10 3.320661 1_555
Ca4 Sn4 3.462562 1_555
Ca4 Sn40 3.578705 1_555
Ca4 Pt22 3.578790 1_655
Ca4 Pt22 3.578790 1_555
Ca4 Sn52 3.594134 1_555
Ca4 Sn28 3.756062 1_565
Ca5 Sn47 3.222647 1_665
Ca5 Sn47 3.222647 1_565
Ca5 Sn59 3.228868 1_655
Ca5 Sn59 3.228868 1_555
Ca5 Sn23 3.255400 1_555
Ca5 Sn23 3.255400 1_655
Ca5 Pt11 3.320818 1_555
Ca5 Pt11 3.320818 1_655
Ca5 Sn5 3.462866 1_555
Ca5 Sn41 3.578881 1_555
Ca5 Pt23 3.579140 1_655
Ca5 Pt23 3.579140 1_555
Ca5 Sn53 3.593952 1_555
Ca5 Sn29 3.755100 1_565
Ca6 Sn36 3.227403 1_455
Ca6 Sn36 3.227403 1_555
Ca6 Sn48 3.227811 1_565
Ca6 Sn48 3.227811 1_465
Ca6 Sn12 3.256853 1_555
Ca6 Sn12 3.256853 1_455
Ca6 Pt0 3.264507 1_555
Ca6 Pt0 3.264507 1_455
Ca7 Sn37 3.226394 1_455
Ca7 Sn37 3.226394 1_555
Ca7 Sn49 3.227751 1_565
Ca7 Sn49 3.227751 1_465
Ca7 Sn13 3.258370 1_555
Ca7 Sn13 3.258370 1_455
Ca7 Pt1 3.268698 1_555
Ca7 Pt1 3.268698 1_455
Ca8 Sn38 3.226828 1_455
Ca8 Sn38 3.226828 1_555
Ca8 Sn50 3.227656 1_465
Ca8 Sn50 3.227656 1_565
Ca8 Sn14 3.258526 1_555
Ca8 Sn14 3.258526 1_455
Ca8 Pt2 3.268833 1_555
Ca8 Pt2 3.268833 1_455
Ca9 Sn39 3.226706 1_445
Ca9 Sn39 3.226706 1_545
Ca9 Sn51 3.229083 1_555
Ca9 Sn51 3.229083 1_455
Ca9 Sn15 3.255894 1_555
Ca9 Sn15 3.255894 1_455
Ca9 Pt3 3.266528 1_555
Ca9 Pt3 3.266528 1_455
Ca10 Sn40 3.223319 1_445
Ca10 Sn40 3.223319 1_545
Ca10 Sn52 3.227086 1_555
Ca10 Sn52 3.227086 1_455
Ca10 Sn16 3.249491 1_555
Ca10 Sn16 3.249491 1_455
Ca10 Pt4 3.315683 1_555
Ca10 Pt4 3.315683 1_455
Ca10 Sn10 3.469779 1_555
Ca10 Sn46 3.581053 1_555
Ca10 Pt16 3.585582 1_455
Ca10 Pt16 3.585582 1_555
Ca10 Sn58 3.587296 1_555
Ca10 Sn34 3.747148 1_545
Ca11 Sn41 3.223154 1_445
Ca11 Sn41 3.223154 1_545
Ca11 Sn53 3.227325 1_555
Ca11 Sn53 3.227325 1_455
Ca11 Sn17 3.249798 1_555
Ca11 Sn17 3.249798 1_455
Ca11 Pt5 3.315087 1_555
Ca11 Pt5 3.315087 1_455
Ca11 Sn11 3.469523 1_555
Ca11 Sn47 3.581481 1_555
Ca11 Pt17 3.585712 1_455
Ca11 Pt17 3.585712 1_555
Ca11 Sn59 3.588002 1_555
Ca11 Sn35 3.746577 1_545
Ca12 Pt0 2.935884 1_555
Ca12 Pt30 3.158444 1_545
Ca12 Pt30 3.158444 1_645
Ca12 Sn9 3.183286 1_655
Ca12 Sn9 3.183286 1_555
Ca12 Sn15 3.329823 1_555
Ca12 Pt33 3.374509 1_655
Ca12 Pt33 3.374509 1_555
Ca12 Sn30 3.407727 1_655
Ca12 Sn30 3.407727 1_555
Ca12 Sn12 3.430488 1_545
Ca12 Sn6 3.445914 1_655
Ca12 Sn6 3.445914 1_555
Ca13 Pt1 2.928958 1_555
Ca13 Pt31 3.165495 1_545
Ca13 Pt31 3.165495 1_645
Ca13 Sn10 3.174037 1_555
Ca13 Sn10 3.174037 1_655
Ca13 Sn16 3.333856 1_555
Ca13 Pt34 3.399720 1_555
Ca13 Pt34 3.399720 1_655
Ca13 Sn31 3.403418 1_555
Ca13 Sn31 3.403418 1_655
Ca13 Sn13 3.425267 1_545
Ca13 Sn7 3.445207 1_555
Ca13 Sn7 3.445207 1_655
Ca14 Pt2 2.928519 1_555
Ca14 Pt32 3.165353 1_645
Ca14 Pt32 3.165353 1_545
Ca14 Sn11 3.174010 1_655
Ca14 Sn11 3.174010 1_555
Ca14 Sn17 3.332815 1_555
Ca14 Pt35 3.399556 1_655
Ca14 Pt35 3.399556 1_555
Ca14 Sn32 3.403771 1_555
Ca14 Sn32 3.403771 1_655
Ca14 Sn14 3.425381 1_545
Ca14 Sn8 3.444741 1_555
Ca14 Sn8 3.444741 1_655
Ca15 Pt3 2.937052 1_565
Ca15 Pt33 3.157419 1_655
Ca15 Pt33 3.157419 1_555
Ca15 Sn6 3.184447 1_555
Ca15 Sn6 3.184447 1_655
Ca15 Sn12 3.328764 1_555
Ca15 Pt30 3.373242 1_655
Ca15 Pt30 3.373242 1_555
Ca15 Sn33 3.407325 1_655
Ca15 Sn33 3.407325 1_555
Ca15 Sn15 3.427359 1_555
Ca15 Sn9 3.446253 1_665
Ca15 Sn9 3.446253 1_565
Er0 Pt4 2.863346 1_565
Er0 Pt34 3.102268 1_555
Er0 Pt34 3.102268 1_655
Er0 Sn7 3.195071 1_555
Er0 Sn7 3.195071 1_655
Er0 Sn13 3.343831 1_555
Er0 Pt31 3.356985 1_655
Er0 Pt31 3.356985 1_555
Er0 Sn34 3.398430 1_655
Er0 Sn34 3.398430 1_555
Er0 Sn16 3.416844 1_555
Er0 Sn10 3.458986 1_665
Er0 Sn10 3.458986 1_565
Er1 Pt5 2.863560 1_565
Er1 Pt35 3.102351 1_555
Er1 Pt35 3.102351 1_655
Er1 Sn8 3.195374 1_555
Er1 Sn8 3.195374 1_655
Er1 Sn14 3.342821 1_555
Er1 Pt32 3.357269 1_655
Er1 Pt32 3.357269 1_555
Er1 Sn35 3.398049 1_555
Er1 Sn35 3.398049 1_655
Er1 Sn17 3.416239 1_555
Er1 Sn11 3.458585 1_665
Er1 Sn11 3.458585 1_565
Er2 Pt6 2.852253 1_555
Er2 Pt24 3.116310 1_555
Er2 Pt24 3.116310 1_455
Er2 Sn3 3.188847 1_455
Er2 Sn3 3.188847 1_555
Er2 Sn21 3.345281 1_555
Er2 Pt27 3.382306 1_455
Er2 Pt27 3.382306 1_555
Er2 Sn24 3.397338 1_455
Er2 Sn24 3.397338 1_555
Er2 Sn18 3.411586 1_565
Er2 Sn0 3.452689 1_555
Er2 Sn0 3.452689 1_455
Er3 Pt7 2.851392 1_555
Er3 Pt25 3.115651 1_555
Er3 Pt25 3.115651 1_455
Er3 Sn4 3.188548 1_455
Er3 Sn4 3.188548 1_555
Er3 Sn22 3.344772 1_555
Er3 Pt28 3.383498 1_455
Er3 Pt28 3.383498 1_555
Er3 Sn25 3.397774 1_555
Er3 Sn25 3.397774 1_455
Er3 Sn19 3.412176 1_565
Er3 Sn1 3.452455 1_555
Er3 Sn1 3.452455 1_455
Er4 Pt8 2.851228 1_555
Er4 Pt26 3.115663 1_455
Er4 Pt26 3.115663 1_555
Er4 Sn5 3.189090 1_555
Er4 Sn5 3.189090 1_455
Er4 Sn23 3.344498 1_555
Er4 Pt29 3.384266 1_555
Er4 Pt29 3.384266 1_455
Er4 Sn26 3.397324 1_455
Er4 Sn26 3.397324 1_555
Er4 Sn20 3.410919 1_565
Er4 Sn2 3.452638 1_555
Er4 Sn2 3.452638 1_455
Er5 Pt9 2.853871 1_545
Er5 Pt27 3.115536 1_555
Er5 Pt27 3.115536 1_455
Er5 Sn0 3.189403 1_555
Er5 Sn0 3.189403 1_455
Er5 Sn18 3.342583 1_555
Er5 Pt24 3.379801 1_545
Er5 Pt24 3.379801 1_445
Er5 Sn27 3.398364 1_555
Er5 Sn27 3.398364 1_455
Er5 Sn21 3.411338 1_555
Er5 Sn3 3.452848 1_445
Er5 Sn3 3.452848 1_545
Er6 Pt10 2.855403 1_545
Er6 Pt28 3.115315 1_455
Er6 Pt28 3.115315 1_555
Er6 Sn1 3.189045 1_555
Er6 Sn1 3.189045 1_455
Er6 Sn19 3.342354 1_555
Er6 Pt25 3.378924 1_445
Er6 Pt25 3.378924 1_545
Er6 Sn28 3.398606 1_455
Er6 Sn28 3.398606 1_555
Er6 Sn22 3.410491 1_555
Er6 Sn4 3.453577 1_445
Er6 Sn4 3.453577 1_545
Er7 Pt11 2.855154 1_545
Er7 Pt29 3.115303 1_455
Er7 Pt29 3.115303 1_555
Er7 Sn2 3.188495 1_555
Er7 Sn2 3.188495 1_455
Er7 Sn20 3.341172 1_555
Er7 Pt26 3.378784 1_445
Er7 Pt26 3.378784 1_545
Er7 Sn29 3.399029 1_455
Er7 Sn29 3.399029 1_555
Er7 Sn23 3.411432 1_555
Er7 Sn5 3.453365 1_445
Er7 Sn5 3.453365 1_545
Sn12 Sn48 3.085564 1_565
Sn13 Sn49 3.091918 1_565
Sn14 Sn50 3.092606 1_565
Sn15 Sn51 3.086981 1_555
Sn16 Sn52 3.089025 1_555
Sn17 Sn53 3.089861 1_555
Sn18 Sn54 3.096666 1_545
Sn19 Sn55 3.098317 1_545
Sn20 Sn56 3.097359 1_545
Sn21 Sn57 3.100228 1_555
Sn22 Sn58 3.099824 1_555
Sn23 Sn59 3.100904 1_555
Pt0 Sn36 2.718853 1_555
Pt0 Sn12 2.765292 1_555
Pt0 Sn6 2.808025 1_655
Pt0 Sn6 2.808025 1_555
Pt0 Sn30 2.942854 1_555
Pt0 Sn30 2.942854 1_655
Pt1 Sn37 2.720397 1_555
Pt1 Sn13 2.769772 1_555
Pt1 Sn7 2.801781 1_555
Pt1 Sn7 2.801781 1_655
Pt1 Sn31 2.949267 1_555
Pt1 Sn31 2.949267 1_655
Pt2 Sn38 2.720782 1_555
Pt2 Sn14 2.770359 1_555
Pt2 Sn8 2.801972 1_555
Pt2 Sn8 2.801972 1_655
Pt2 Sn32 2.948185 1_655
Pt2 Sn32 2.948185 1_555
Pt3 Sn39 2.719185 1_545
Pt3 Sn15 2.765917 1_555
Pt3 Sn9 2.807194 1_555
Pt3 Sn9 2.807194 1_655
Pt3 Sn33 2.941519 1_545
Pt3 Sn33 2.941519 1_645
Pt4 Sn40 2.749027 1_545
Pt4 Sn10 2.803307 1_555
Pt4 Sn10 2.803307 1_655
Pt4 Sn16 2.809357 1_555
Pt4 Sn34 2.914657 1_545
Pt4 Sn34 2.914657 1_645
Pt5 Sn41 2.748724 1_545
Pt5 Sn11 2.803366 1_655
Pt5 Sn11 2.803366 1_555
Pt5 Sn17 2.809327 1_555
Pt5 Sn35 2.914456 1_645
Pt5 Sn35 2.914456 1_545
Pt6 Sn42 2.757007 1_555
Pt6 Sn0 2.790145 1_455
Pt6 Sn0 2.790145 1_555
Pt6 Sn18 2.813243 1_555
Pt6 Sn24 2.924556 1_555
Pt6 Sn24 2.924556 1_455
Pt7 Sn43 2.757727 1_555
Pt7 Sn1 2.789924 1_455
Pt7 Sn1 2.789924 1_555
Pt7 Sn19 2.813851 1_555
Pt7 Sn25 2.924255 1_455
Pt7 Sn25 2.924255 1_555
Pt8 Sn44 2.757165 1_555
Pt8 Sn2 2.790365 1_555
Pt8 Sn2 2.790365 1_455
Pt8 Sn20 2.813444 1_555
Pt8 Sn26 2.923634 1_455
Pt8 Sn26 2.923634 1_555
Pt9 Sn45 2.756896 1_565
Pt9 Sn3 2.789852 1_455
Pt9 Sn3 2.789852 1_555
Pt9 Sn21 2.813028 1_555
Pt9 Sn27 2.923403 1_465
Pt9 Sn27 2.923403 1_565
Pt10 Sn46 2.756467 1_565
Pt10 Sn4 2.790259 1_555
Pt10 Sn4 2.790259 1_455
Pt10 Sn22 2.813877 1_555
Pt10 Sn28 2.922684 1_465
Pt10 Sn28 2.922684 1_565
Pt11 Sn47 2.756071 1_565
Pt11 Sn5 2.790823 1_555
Pt11 Sn5 2.790823 1_455
Pt11 Sn23 2.813375 1_555
Pt11 Sn29 2.921680 1_565
Pt11 Sn29 2.921680 1_465
Pt12 Sn54 2.747554 1_555
Pt12 Sn54 2.747554 1_655
Pt12 Sn24 2.770248 1_555
Pt12 Sn42 2.815908 1_655
Pt12 Sn42 2.815908 1_555
Pt12 Sn50 2.818047 1_564
Pt12 Sn38 2.920853 1_554
Pt13 Sn55 2.748112 1_655
Pt13 Sn55 2.748112 1_555
Pt13 Sn25 2.766512 1_555
Pt13 Sn43 2.813483 1_655
Pt13 Sn43 2.813483 1_555
Pt13 Sn48 2.824530 1_565
Pt13 Sn36 2.921908 1_555
Pt14 Sn56 2.747937 1_555
Pt14 Sn56 2.747937 1_655
Pt14 Sn26 2.769881 1_555
Pt14 Sn44 2.815691 1_655
Pt14 Sn44 2.815691 1_555
Pt14 Sn49 2.817909 1_565
Pt14 Sn37 2.920711 1_555
Pt15 Sn57 2.748855 1_555
Pt15 Sn57 2.748855 1_655
Pt15 Sn27 2.766233 1_555
Pt15 Sn45 2.812783 1_655
Pt15 Sn45 2.812783 1_555
Pt15 Sn51 2.823231 1_555
Pt15 Sn39 2.923292 1_545
Pt16 Sn58 2.748403 1_655
Pt16 Sn58 2.748403 1_555
Pt16 Sn28 2.771208 1_555
Pt16 Sn52 2.812459 1_555
Pt16 Sn46 2.815342 1_655
Pt16 Sn46 2.815342 1_555
Pt16 Sn40 2.915915 1_545
Pt17 Sn59 2.749087 1_555
Pt17 Sn59 2.749087 1_655
Pt17 Sn29 2.771165 1_555
Pt17 Sn53 2.812789 1_555
Pt17 Sn47 2.815134 1_655
Pt17 Sn47 2.815134 1_555
Pt17 Sn41 2.914876 1_545
Pt18 Sn48 2.758377 1_455
Pt18 Sn48 2.758377 1_555
Pt18 Sn30 2.790464 1_555
Pt18 Sn36 2.805023 1_555
Pt18 Sn36 2.805023 1_455
Pt18 Sn55 2.808563 1_545
Pt18 Sn43 2.897512 1_555
Pt19 Sn49 2.756067 1_555
Pt19 Sn49 2.756067 1_455
Pt19 Sn31 2.788765 1_555
Pt19 Sn37 2.807673 1_455
Pt19 Sn37 2.807673 1_555
Pt19 Sn56 2.811422 1_545
Pt19 Sn44 2.901313 1_555
Pt20 Sn50 2.756175 1_455
Pt20 Sn50 2.756175 1_555
Pt20 Sn32 2.789067 1_555
Pt20 Sn38 2.807658 1_555
Pt20 Sn38 2.807658 1_455
Pt20 Sn54 2.811412 1_546
Pt20 Sn42 2.901069 1_556
Pt21 Sn51 2.758678 1_555
Pt21 Sn51 2.758678 1_455
Pt21 Sn33 2.790577 1_555
Pt21 Sn39 2.804364 1_555
Pt21 Sn39 2.804364 1_455
Pt21 Sn57 2.806170 1_555
Pt21 Sn45 2.899257 1_565
Pt22 Sn52 2.756344 1_555
Pt22 Sn52 2.756344 1_455
Pt22 Sn34 2.779543 1_555
Pt22 Sn58 2.808788 1_555
Pt22 Sn40 2.810701 1_555
Pt22 Sn40 2.810701 1_455
Pt22 Sn46 2.905104 1_565
Pt23 Sn53 2.756080 1_555
Pt23 Sn53 2.756080 1_455
Pt23 Sn35 2.779513 1_555
Pt23 Sn59 2.808737 1_555
Pt23 Sn41 2.810997 1_455
Pt23 Sn41 2.810997 1_555
Pt23 Sn47 2.905223 1_565
Pt24 Sn18 2.699722 1_565
Pt24 Sn18 2.699722 1_665
Pt24 Sn3 2.713940 1_555
Pt24 Sn24 2.823864 1_555
Pt24 Sn0 2.851688 1_565
Pt25 Sn19 2.700860 1_665
Pt25 Sn19 2.700860 1_565
Pt25 Sn4 2.712983 1_555
Pt25 Sn25 2.824359 1_555
Pt25 Sn1 2.852742 1_565
Pt26 Sn20 2.700140 1_565
Pt26 Sn20 2.700140 1_665
Pt26 Sn5 2.713004 1_555
Pt26 Sn26 2.825873 1_555
Pt26 Sn2 2.851824 1_565
Pt27 Sn21 2.700027 1_555
Pt27 Sn21 2.700027 1_655
Pt27 Sn0 2.713161 1_555
Pt27 Sn27 2.825576 1_555
Pt27 Sn3 2.853120 1_555
Pt28 Sn22 2.699001 1_555
Pt28 Sn22 2.699001 1_655
Pt28 Sn1 2.713978 1_555
Pt28 Sn28 2.824481 1_555
Pt28 Sn4 2.853416 1_555
Pt29 Sn23 2.698993 1_555
Pt29 Sn23 2.698993 1_655
Pt29 Sn2 2.713817 1_555
Pt29 Sn29 2.825004 1_555
Pt29 Sn5 2.853774 1_555
Pt30 Sn12 2.671833 1_555
Pt30 Sn12 2.671833 1_455
Pt30 Sn9 2.763083 1_565
Pt30 Sn6 2.820320 1_555
Pt30 Sn30 2.830150 1_565
Pt31 Sn13 2.679834 1_455
Pt31 Sn13 2.679834 1_555
Pt31 Sn10 2.736969 1_565
Pt31 Sn7 2.800594 1_555
Pt31 Sn31 2.857042 1_565
Pt32 Sn14 2.679569 1_555
Pt32 Sn14 2.679569 1_455
Pt32 Sn11 2.736572 1_565
Pt32 Sn8 2.801592 1_555
Pt32 Sn32 2.857356 1_565
Pt33 Sn15 2.671346 1_555
Pt33 Sn15 2.671346 1_455
Pt33 Sn6 2.761406 1_555
Pt33 Sn9 2.821100 1_555
Pt33 Sn33 2.832940 1_555
Pt34 Sn16 2.698420 1_555
Pt34 Sn16 2.698420 1_455
Pt34 Sn7 2.732695 1_555
Pt34 Sn34 2.795454 1_555
Pt34 Sn10 2.871156 1_555
Pt35 Sn17 2.697903 1_555
Pt35 Sn17 2.697903 1_455
Pt35 Sn8 2.732669 1_555
Pt35 Sn35 2.795475 1_555
Pt35 Sn11 2.871505 1_555
