# generated using pymatgen
data_Li7Mn4CoO12
_symmetry_space_group_name_H-M   'P 1'
_cell_length_a   2.86839196
_cell_length_b   5.08642904
_cell_length_c   15.76637586
_cell_angle_alpha   97.61741463
_cell_angle_beta   90.23986649
_cell_angle_gamma   73.38958755
_symmetry_Int_Tables_number   1
_chemical_formula_structural   Li7Mn4CoO12
_chemical_formula_sum   'Li7 Mn4 Co1 O12'
_cell_volume   218.34757287
_cell_formula_units_Z   1
loop_
 _symmetry_equiv_pos_site_id
 _symmetry_equiv_pos_as_xyz
  1  'x, y, z'
loop_
 _atom_site_type_symbol
 _atom_site_label
 _atom_site_symmetry_multiplicity
 _atom_site_fract_x
 _atom_site_fract_y
 _atom_site_fract_z
 _atom_site_occupancy
  Li  Li0  1  0.49994700  0.00001600  0.83330400  1
  Li  Li1  1  0.26806300  0.46678700  0.07126300  1
  Li  Li2  1  0.73191600  0.53330300  0.59547100  1
  Li  Li3  1  0.75083300  0.50183400  0.25220300  1
  Li  Li4  1  0.24919200  0.49821900  0.41447700  1
  Li  Li5  1  0.23938600  0.51587300  0.76102000  1
  Li  Li6  1  0.76051000  0.48418700  0.90570800  1
  Mn  Mn0  1  0.02008000  0.96162400  0.98714700  1
  Mn  Mn1  1  0.97974500  0.03853200  0.67941300  1
  Mn  Mn2  1  0.51369100  0.97746100  0.16191200  1
  Mn  Mn3  1  0.48655000  0.02230500  0.50482700  1
  Co  Co0  1  0.00006300  0.00002200  0.33335600  1
  O  O0  1  0.39931800  0.19891000  0.96062600  1
  O  O1  1  0.60048100  0.80114600  0.70598000  1
  O  O2  1  0.90550400  0.19414800  0.11739800  1
  O  O3  1  0.09458600  0.80579000  0.54930900  1
  O  O4  1  0.39872600  0.22283500  0.29665500  1
  O  O5  1  0.60140900  0.77718500  0.37004400  1
  O  O6  1  0.87464700  0.24332400  0.46292500  1
  O  O7  1  0.12553200  0.75665600  0.20378500  1
  O  O8  1  0.36879600  0.25614500  0.63518600  1
  O  O9  1  0.63105100  0.74390300  0.03142700  1
  O  O10  1  0.87642800  0.24622500  0.78356500  1
  O  O11  1  0.12354300  0.75357200  0.88300000  1
loop_
_geom_bond_atom_site_label_1
_geom_bond_atom_site_label_2
_geom_bond_distance
_geom_bond_site_symmetry_2
Li0 O10 2.085688 1_455
Li0 O11 2.086018 1_645
Li0 O10 2.095259 1_555
Li0 O11 2.095748 1_545
Li0 O1 2.106159 1_545
Li0 O0 2.106171 1_555
Li1 O0 2.030541 1_554
Li1 O9 2.114835 1_455
Li1 O9 2.131799 1_555
Li1 O2 2.145220 1_555
Li1 O2 2.152205 1_455
Li1 O7 2.356346 1_555
Li2 O1 2.028897 1_555
Li2 O8 2.113951 1_655
Li2 O8 2.131503 1_555
Li2 O3 2.144841 1_555
Li2 O3 2.151960 1_655
Li2 O6 2.356906 1_555
Li3 O7 2.097967 1_555
Li3 O7 2.117428 1_655
Li3 O5 2.137930 1_555
Li3 O4 2.148059 1_555
Li3 O4 2.168805 1_655
Li3 O2 2.427442 1_555
Li4 O6 2.098632 1_555
Li4 O6 2.117635 1_455
Li4 O4 2.137782 1_555
Li4 O5 2.148003 1_555
Li4 O5 2.168397 1_455
Li4 O3 2.427500 1_555
Li5 O10 2.009330 1_555
Li5 O10 2.010003 1_455
Li5 O11 2.104765 1_555
Li5 O8 2.202282 1_555
Li5 O1 2.239916 1_455
Li5 O1 2.265372 1_555
Li6 O11 2.009259 1_555
Li6 O11 2.009709 1_655
Li6 O10 2.107465 1_555
Li6 O9 2.200765 1_556
Li6 O0 2.238847 1_655
Li6 O0 2.264665 1_555
Mn0 O11 1.807769 1_555
Mn0 O0 1.923779 1_465
Mn0 O0 1.924340 1_565
Mn0 O9 1.967280 1_556
Mn0 O9 1.969007 1_456
Mn0 O2 2.205346 1_466
Mn1 O10 1.807072 1_555
Mn1 O1 1.924138 1_645
Mn1 O1 1.925031 1_545
Mn1 O8 1.966683 1_555
Mn1 O8 1.968269 1_655
Mn1 O3 2.203763 1_645
Mn2 O7 1.958880 1_655
Mn2 O2 1.961175 1_465
Mn2 O7 1.963290 1_555
Mn2 O2 1.972379 1_565
Mn2 O9 2.210477 1_555
Mn2 O4 2.290673 1_565
Mn3 O6 1.959592 1_455
Mn3 O3 1.960333 1_645
Mn3 O6 1.964197 1_555
Mn3 O3 1.971806 1_545
Mn3 O8 2.209304 1_555
Mn3 O5 2.290723 1_545
Co0 O5 1.908468 1_545
Co0 O4 1.908481 1_455
Co0 O5 1.961436 1_445
Co0 O4 1.961436 1_555
Co0 O6 2.217087 1_455
Co0 O7 2.217242 1_545
