# generated using pymatgen
data_Ta2MnZn2O8
_symmetry_space_group_name_H-M   'P 1'
_cell_length_a   10.27173454
_cell_length_b   10.27173454
_cell_length_c   5.31981275
_cell_angle_alpha   89.83280393
_cell_angle_beta   89.83280393
_cell_angle_gamma   33.83441165
_symmetry_Int_Tables_number   1
_chemical_formula_structural   Ta2MnZn2O8
_chemical_formula_sum   'Ta4 Mn2 Zn4 O16'
_cell_volume   312.51935221
_cell_formula_units_Z   2
loop_
 _symmetry_equiv_pos_site_id
 _symmetry_equiv_pos_as_xyz
  1  'x, y, z'
loop_
 _atom_site_type_symbol
 _atom_site_label
 _atom_site_symmetry_multiplicity
 _atom_site_fract_x
 _atom_site_fract_y
 _atom_site_fract_z
 _atom_site_occupancy
  Ta  Ta0  1  0.03963400  0.72635400  0.73075400  1
  Ta  Ta1  1  0.27364600  0.96036600  0.76924600  1
  Ta  Ta2  1  0.96036600  0.27364600  0.26924600  1
  Ta  Ta3  1  0.72635400  0.03963400  0.23075400  1
  Mn  Mn0  1  0.65428500  0.34571500  0.75000000  1
  Mn  Mn1  1  0.34571500  0.65428500  0.25000000  1
  Zn  Zn0  1  0.87110800  0.56621900  0.77012600  1
  Zn  Zn1  1  0.43378100  0.12889200  0.72987400  1
  Zn  Zn2  1  0.12889200  0.43378100  0.22987400  1
  Zn  Zn3  1  0.56621900  0.87110800  0.27012600  1
  O  O0  1  0.03831200  0.81789200  0.06268700  1
  O  O1  1  0.18210800  0.96168800  0.43731300  1
  O  O2  1  0.96168800  0.18210800  0.93731300  1
  O  O3  1  0.81789200  0.03831200  0.56268700  1
  O  O4  1  0.31203900  0.56687800  0.59495000  1
  O  O5  1  0.43312200  0.68796100  0.90505000  1
  O  O6  1  0.68796100  0.43312200  0.40505000  1
  O  O7  1  0.56687800  0.31203900  0.09495000  1
  O  O8  1  0.92629100  0.71669400  0.43034700  1
  O  O9  1  0.28330600  0.07370900  0.06965300  1
  O  O10  1  0.45510000  0.15637900  0.35907100  1
  O  O11  1  0.84362100  0.54490000  0.14092900  1
  O  O12  1  0.54490000  0.84362100  0.64092900  1
  O  O13  1  0.15637900  0.45510000  0.85907100  1
  O  O14  1  0.71669400  0.92629100  0.93034700  1
  O  O15  1  0.07370900  0.28330600  0.56965300  1
loop_
_geom_bond_atom_site_label_1
_geom_bond_atom_site_label_2
_geom_bond_distance
_geom_bond_site_symmetry_2
Mn0 O6 2.189941 1_555
Mn0 O7 2.189941 1_556
Mn0 O4 2.222189 1_555
Mn0 O5 2.222189 1_555
Mn0 O2 2.231690 1_555
Mn0 O3 2.231690 1_555
Mn1 O4 2.189941 1_555
Mn1 O5 2.189941 1_554
Mn1 O7 2.222189 1_555
Mn1 O6 2.222189 1_555
Mn1 O1 2.231690 1_555
Mn1 O0 2.231690 1_555
O0 Ta0 1.997680 1_554
O0 Ta3 2.031075 1_465
O1 Ta1 1.997680 1_555
O1 Ta2 2.031075 1_465
O2 Ta2 1.997680 1_556
O2 Ta1 2.031075 1_645
O3 Ta3 1.997680 1_555
O3 Ta0 2.031075 1_645
O4 Ta0 1.847978 1_555
O5 Ta1 1.847978 1_555
O6 Ta2 1.847978 1_555
O7 Ta3 1.847978 1_555
O8 Zn2 1.967577 1_655
O8 Ta0 2.030499 1_655
O8 Ta3 2.241265 1_565
O9 Zn3 1.967577 1_545
O9 Ta1 2.030499 1_544
O9 Ta2 2.241265 1_455
O10 Zn2 1.989842 1_555
O10 Ta3 2.027343 1_555
O10 Zn1 2.028737 1_555
O10 Zn3 2.135785 1_545
O11 Zn3 1.989842 1_555
O11 Ta2 2.027343 1_555
O11 Zn0 2.028737 1_554
O11 Zn2 2.135785 1_655
O12 Zn0 1.989842 1_555
O12 Ta1 2.027343 1_555
O12 Zn3 2.028737 1_555
O12 Zn1 2.135785 1_565
O13 Zn1 1.989842 1_555
O13 Ta0 2.027343 1_555
O13 Zn2 2.028737 1_556
O13 Zn0 2.135785 1_455
O14 Zn1 1.967577 1_565
O14 Ta3 2.030499 1_566
O14 Ta0 2.241265 1_655
O15 Zn0 1.967577 1_455
O15 Ta2 2.030499 1_455
O15 Ta1 2.241265 1_545
