# generated using pymatgen
data_TmCoSn
_symmetry_space_group_name_H-M   'P 1'
_cell_length_a   7.10765200
_cell_length_b   4.48971400
_cell_length_c   7.43512000
_cell_angle_alpha   90.00000000
_cell_angle_beta   90.00000000
_cell_angle_gamma   90.00000000
_symmetry_Int_Tables_number   1
_chemical_formula_structural   TmCoSn
_chemical_formula_sum   'Tm4 Co4 Sn4'
_cell_volume   237.26452844
_cell_formula_units_Z   4
loop_
 _symmetry_equiv_pos_site_id
 _symmetry_equiv_pos_as_xyz
  1  'x, y, z'
loop_
 _atom_site_type_symbol
 _atom_site_label
 _atom_site_symmetry_multiplicity
 _atom_site_fract_x
 _atom_site_fract_y
 _atom_site_fract_z
 _atom_site_occupancy
  Tm  Tm0  1  0.98584600  0.25000000  0.79187700  1
  Tm  Tm1  1  0.48584600  0.25000000  0.70812300  1
  Tm  Tm2  1  0.01415400  0.75000000  0.20812300  1
  Tm  Tm3  1  0.51415400  0.75000000  0.29187700  1
  Co  Co0  1  0.15582800  0.25000000  0.43699300  1
  Co  Co1  1  0.65582800  0.25000000  0.06300700  1
  Co  Co2  1  0.84417200  0.75000000  0.56300700  1
  Co  Co3  1  0.34417200  0.75000000  0.93699300  1
  Sn  Sn0  1  0.78942100  0.25000000  0.39642500  1
  Sn  Sn1  1  0.28942100  0.25000000  0.10357500  1
  Sn  Sn2  1  0.21057900  0.75000000  0.60357500  1
  Sn  Sn3  1  0.71057900  0.75000000  0.89642500  1
loop_
_geom_bond_atom_site_label_1
_geom_bond_atom_site_label_2
_geom_bond_distance
_geom_bond_site_symmetry_2
Co0 Sn2 2.593231 1_555
Co0 Sn2 2.593231 1_545
Co0 Sn0 2.621702 1_455
Co0 Sn1 2.654631 1_555
Co0 Tm0 2.902054 1_455
Co0 Tm2 2.991500 1_555
Co0 Tm2 2.991500 1_545
Co0 Tm1 3.092875 1_555
Co1 Sn3 2.593231 1_544
Co1 Sn3 2.593231 1_554
Co1 Sn1 2.621702 1_555
Co1 Sn0 2.654631 1_555
Co1 Tm1 2.902054 1_554
Co1 Tm3 2.991500 1_545
Co1 Tm3 2.991500 1_555
Co1 Tm0 3.092875 1_554
Co2 Sn0 2.593231 1_555
Co2 Sn0 2.593231 1_565
Co2 Sn2 2.621702 1_655
Co2 Sn3 2.654631 1_555
Co2 Tm2 2.902054 1_655
Co2 Tm0 2.991500 1_565
Co2 Tm0 2.991500 1_555
Co2 Tm3 3.092875 1_555
Co3 Sn1 2.593231 1_556
Co3 Sn1 2.593231 1_566
Co3 Sn3 2.621702 1_555
Co3 Sn2 2.654631 1_555
Co3 Tm3 2.902054 1_556
Co3 Tm1 2.991500 1_565
Co3 Tm1 2.991500 1_555
Co3 Tm2 3.092875 1_556
Sn0 Tm3 3.077584 1_555
Sn0 Tm3 3.077584 1_545
Sn0 Tm2 3.090463 1_645
Sn0 Tm2 3.090463 1_655
Sn0 Tm1 3.166474 1_555
Sn0 Tm0 3.254861 1_555
Sn1 Tm2 3.077584 1_545
Sn1 Tm2 3.077584 1_555
Sn1 Tm3 3.090463 1_545
Sn1 Tm3 3.090463 1_555
Sn1 Tm0 3.166474 1_454
Sn1 Tm1 3.254861 1_554
Sn2 Tm1 3.077584 1_565
Sn2 Tm1 3.077584 1_555
Sn2 Tm0 3.090463 1_455
Sn2 Tm0 3.090463 1_465
Sn2 Tm3 3.166474 1_555
Sn2 Tm2 3.254861 1_555
Sn3 Tm0 3.077584 1_565
Sn3 Tm0 3.077584 1_555
Sn3 Tm1 3.090463 1_565
Sn3 Tm1 3.090463 1_555
Sn3 Tm2 3.166474 1_656
Sn3 Tm3 3.254861 1_556
