# generated using pymatgen
data_LaMgCrSnO6
_symmetry_space_group_name_H-M   'P 1'
_cell_length_a   5.44576088
_cell_length_b   5.61920500
_cell_length_c   7.88579015
_cell_angle_alpha   90.00000000
_cell_angle_beta   89.63601992
_cell_angle_gamma   90.00000000
_symmetry_Int_Tables_number   1
_chemical_formula_structural   LaMgCrSnO6
_chemical_formula_sum   'La2 Mg2 Cr2 Sn2 O12'
_cell_volume   241.30698676
_cell_formula_units_Z   2
loop_
 _symmetry_equiv_pos_site_id
 _symmetry_equiv_pos_as_xyz
  1  'x, y, z'
loop_
 _atom_site_type_symbol
 _atom_site_label
 _atom_site_symmetry_multiplicity
 _atom_site_fract_x
 _atom_site_fract_y
 _atom_site_fract_z
 _atom_site_occupancy
  La  La0  1  0.01003500  0.95868700  0.75026600  1
  La  La1  1  0.51003500  0.54131300  0.25026600  1
  Mg  Mg0  1  0.47795400  0.44369100  0.75138000  1
  Mg  Mg1  1  0.97795400  0.05630900  0.25138000  1
  Cr  Cr0  1  0.50023100  0.00171500  0.49947200  1
  Cr  Cr1  1  0.00023100  0.49828500  0.99947200  1
  Sn  Sn0  1  0.49881600  0.00084400  0.00235100  1
  Sn  Sn1  1  0.99881600  0.49915600  0.50235100  1
  O  O0  1  0.09159700  0.43836300  0.24588500  1
  O  O1  1  0.21082500  0.22195800  0.93766300  1
  O  O2  1  0.21701200  0.21208100  0.55901300  1
  O  O3  1  0.31235100  0.68719700  0.93739000  1
  O  O4  1  0.31838000  0.69155800  0.56336900  1
  O  O5  1  0.36279700  0.96739300  0.25321300  1
  O  O6  1  0.59159700  0.06163700  0.74588500  1
  O  O7  1  0.71082500  0.27804200  0.43766300  1
  O  O8  1  0.71701200  0.28791900  0.05901300  1
  O  O9  1  0.81235100  0.81280300  0.43739000  1
  O  O10  1  0.81838000  0.80844200  0.06336900  1
  O  O11  1  0.86279700  0.53260700  0.75321300  1
loop_
_geom_bond_atom_site_label_1
_geom_bond_atom_site_label_2
_geom_bond_distance
_geom_bond_site_symmetry_2
La0 O6 2.351465 1_465
La0 O2 2.356032 1_565
La0 O1 2.364008 1_565
La0 O11 2.524988 1_455
La0 O4 2.685799 1_555
La0 O3 2.691856 1_555
La0 O10 2.804574 1_456
La0 O9 2.819951 1_455
La1 O0 2.351465 1_555
La1 O8 2.356032 1_555
La1 O7 2.364008 1_555
La1 O5 2.524988 1_555
La1 O10 2.685799 1_555
La1 O9 2.691856 1_555
La1 O4 2.804574 1_555
La1 O3 2.819951 1_554
Mg0 O11 2.154635 1_555
Mg0 O3 2.195536 1_555
Mg0 O4 2.215765 1_555
Mg0 O6 2.234605 1_555
Mg0 O1 2.408197 1_555
Mg0 O2 2.457987 1_555
Mg1 O5 2.154635 1_645
Mg1 O9 2.195536 1_545
Mg1 O10 2.215765 1_545
Mg1 O0 2.234605 1_655
Mg1 O7 2.408197 1_555
Mg1 O8 2.457987 1_555
Cr0 O7 1.989150 1_555
Cr0 O2 1.996851 1_555
Cr0 O6 2.036934 1_555
Cr0 O9 2.060351 1_545
Cr0 O4 2.065371 1_545
Cr0 O5 2.094510 1_545
Cr1 O1 1.989150 1_555
Cr1 O8 1.996851 1_456
Cr1 O0 2.036934 1_556
Cr1 O3 2.060351 1_555
Cr1 O10 2.065371 1_456
Cr1 O11 2.094510 1_455
O0 Sn1 2.109326 1_455
O1 Sn0 2.067320 1_556
O2 Sn1 2.054390 1_455
O3 Sn0 2.099136 1_566
O4 Sn1 2.107032 1_455
O5 Sn0 2.116328 1_565
O6 Sn0 2.109326 1_556
O7 Sn1 2.067320 1_555
O8 Sn0 2.054390 1_555
O9 Sn1 2.099136 1_555
O10 Sn0 2.107032 1_565
O11 Sn1 2.116328 1_555
