# generated using pymatgen
data_NaDyTi2O6
_symmetry_space_group_name_H-M   'P 1'
_cell_length_a   5.33060300
_cell_length_b   5.54139600
_cell_length_c   7.63665800
_cell_angle_alpha   90.00000000
_cell_angle_beta   90.00000000
_cell_angle_gamma   90.00000000
_symmetry_Int_Tables_number   1
_chemical_formula_structural   NaDyTi2O6
_chemical_formula_sum   'Na2 Dy2 Ti4 O12'
_cell_volume   225.57910428
_cell_formula_units_Z   2
loop_
 _symmetry_equiv_pos_site_id
 _symmetry_equiv_pos_as_xyz
  1  'x, y, z'
loop_
 _atom_site_type_symbol
 _atom_site_label
 _atom_site_symmetry_multiplicity
 _atom_site_fract_x
 _atom_site_fract_y
 _atom_site_fract_z
 _atom_site_occupancy
  Na  Na0  1  0.49474800  0.71681300  0.50000000  1
  Na  Na1  1  0.99474800  0.28318700  0.00000000  1
  Dy  Dy0  1  0.01768200  0.18014200  0.50000000  1
  Dy  Dy1  1  0.51768200  0.81985800  0.00000000  1
  Ti  Ti0  1  0.51184400  0.26457200  0.75246900  1
  Ti  Ti1  1  0.01184400  0.73542800  0.25246900  1
  Ti  Ti2  1  0.51184400  0.26457200  0.24753100  1
  Ti  Ti3  1  0.01184400  0.73542800  0.74753100  1
  O  O0  1  0.92259200  0.77371100  0.50000000  1
  O  O1  1  0.60150400  0.27540200  0.50000000  1
  O  O2  1  0.10150400  0.72459800  0.00000000  1
  O  O3  1  0.42259200  0.22628900  0.00000000  1
  O  O4  1  0.19176300  0.44600200  0.69787800  1
  O  O5  1  0.27813000  0.96463500  0.29101800  1
  O  O6  1  0.77813000  0.03536500  0.20898200  1
  O  O7  1  0.69176300  0.55399800  0.80212200  1
  O  O8  1  0.77813000  0.03536500  0.79101800  1
  O  O9  1  0.69176300  0.55399800  0.19787800  1
  O  O10  1  0.19176300  0.44600200  0.30212200  1
  O  O11  1  0.27813000  0.96463500  0.70898200  1
loop_
_geom_bond_atom_site_label_1
_geom_bond_atom_site_label_2
_geom_bond_distance
_geom_bond_site_symmetry_2
Na0 O0 2.302358 1_555
Na0 O5 2.401294 1_555
Na0 O11 2.401294 1_555
Na0 O1 2.511359 1_555
Na0 O4 2.672834 1_555
Na0 O10 2.672834 1_555
Na0 O7 2.690748 1_555
Na0 O9 2.690748 1_555
Na1 O3 2.302358 1_655
Na1 O6 2.401294 1_555
Na1 O8 2.401294 1_554
Na1 O2 2.511359 1_655
Na1 O9 2.672834 1_555
Na1 O7 2.672834 1_554
Na1 O4 2.690748 1_654
Na1 O10 2.690748 1_655
Dy0 O1 2.280417 1_455
Dy0 O4 2.305435 1_555
Dy0 O10 2.305435 1_555
Dy0 O0 2.308531 1_445
Dy0 O11 2.429117 1_545
Dy0 O5 2.429117 1_545
Dy0 O6 2.685765 1_455
Dy0 O8 2.685765 1_455
Dy1 O2 2.280417 1_555
Dy1 O7 2.305435 1_554
Dy1 O9 2.305435 1_555
Dy1 O3 2.308531 1_565
Dy1 O8 2.429117 1_564
Dy1 O6 2.429117 1_565
Dy1 O5 2.685765 1_555
Dy1 O11 2.685765 1_554
O0 Ti3 1.960772 1_655
O0 Ti1 1.960772 1_655
O1 Ti2 1.987282 1_555
O1 Ti0 1.987282 1_555
O2 Ti1 1.987282 1_555
O2 Ti3 1.987282 1_554
O3 Ti0 1.960772 1_554
O3 Ti2 1.960772 1_555
O4 Ti3 1.906793 1_555
O4 Ti0 2.023804 1_555
O5 Ti1 1.927373 1_555
O5 Ti2 2.103538 1_565
O6 Ti2 1.927373 1_555
O6 Ti1 2.103538 1_645
O7 Ti0 1.906793 1_555
O7 Ti3 2.023804 1_655
O8 Ti0 1.927373 1_555
O8 Ti3 2.103538 1_645
O9 Ti2 1.906793 1_555
O9 Ti1 2.023804 1_655
O10 Ti1 1.906793 1_555
O10 Ti2 2.023804 1_555
O11 Ti3 1.927373 1_555
O11 Ti0 2.103538 1_565
