# generated using pymatgen
data_La2TiCrO6
_symmetry_space_group_name_H-M   'P 1'
_cell_length_a   8.03532797
_cell_length_b   7.92425149
_cell_length_c   9.63290822
_cell_angle_alpha   112.96599934
_cell_angle_beta   66.40475857
_cell_angle_gamma   88.51595965
_symmetry_Int_Tables_number   1
_chemical_formula_structural   La2TiCrO6
_chemical_formula_sum   'La8 Ti4 Cr4 O24'
_cell_volume   505.33902394
_cell_formula_units_Z   4
loop_
 _symmetry_equiv_pos_site_id
 _symmetry_equiv_pos_as_xyz
  1  'x, y, z'
loop_
 _atom_site_type_symbol
 _atom_site_label
 _atom_site_symmetry_multiplicity
 _atom_site_fract_x
 _atom_site_fract_y
 _atom_site_fract_z
 _atom_site_occupancy
  La  La0  1  0.62644300  0.38479200  0.25275800  1
  La  La1  1  0.87852400  0.62637500  0.74937000  1
  La  La2  1  0.12904300  0.87590600  0.24833200  1
  La  La3  1  0.37742500  0.12959800  0.74916000  1
  La  La4  1  0.87125800  0.12377500  0.75061300  1
  La  La5  1  0.12333700  0.36532300  0.24715800  1
  La  La6  1  0.37281500  0.62012700  0.75080500  1
  La  La7  1  0.62106700  0.87393200  0.25176000  1
  Ti  Ti0  1  0.50077500  0.49947800  0.99886000  1
  Ti  Ti1  1  0.75252300  0.75014400  0.49965400  1
  Ti  Ti2  1  0.99729300  0.99997000  0.00040100  1
  Ti  Ti3  1  0.24929500  0.25046600  0.50111800  1
  Cr  Cr0  1  0.75138000  0.24845800  0.49978200  1
  Cr  Cr1  1  0.99871300  0.50156200  0.00037600  1
  Cr  Cr2  1  0.24778600  0.75176900  0.50109100  1
  Cr  Cr3  1  0.50224700  0.99828100  0.99913300  1
  O  O0  1  0.81775600  0.98507300  0.47121800  1
  O  O1  1  0.06489900  0.23765500  0.97254200  1
  O  O2  1  0.30991000  0.47379000  0.46593400  1
  O  O3  1  0.55948400  0.72062300  0.96005300  1
  O  O4  1  0.59387800  0.33814600  0.74853700  1
  O  O5  1  0.83659400  0.59946900  0.24885400  1
  O  O6  1  0.07870900  0.84568600  0.75340200  1
  O  O7  1  0.33564600  0.08796200  0.25287100  1
  O  O8  1  0.98280400  0.30998900  0.53113800  1
  O  O9  1  0.23323300  0.56052200  0.02861400  1
  O  O10  1  0.50109200  0.82138000  0.53372700  1
  O  O11  1  0.74701500  0.07765700  0.03898500  1
  O  O12  1  0.91357700  0.15049800  0.25108600  1
  O  O13  1  0.15625100  0.41169600  0.75130200  1
  O  O14  1  0.41420500  0.66224200  0.24722900  1
  O  O15  1  0.67108800  0.90447000  0.74677600  1
  O  O16  1  0.51655900  0.18933700  0.47139900  1
  O  O17  1  0.76732400  0.44003900  0.96884200  1
  O  O18  1  0.00305600  0.67237800  0.46089600  1
  O  O19  1  0.24908400  0.92870000  0.96622200  1
  O  O20  1  0.68521800  0.51231100  0.52756100  1
  O  O21  1  0.93245400  0.76490700  0.02874900  1
  O  O22  1  0.19025600  0.02930300  0.53979200  1
  O  O23  1  0.43998600  0.27620800  0.03390200  1
loop_
_geom_bond_atom_site_label_1
_geom_bond_atom_site_label_2
_geom_bond_distance
_geom_bond_site_symmetry_2
La0 O11 2.339284 1_555
La0 O2 2.403971 1_555
La0 O5 2.427900 1_555
La0 O20 2.681357 1_555
La0 O17 2.726637 1_554
La0 O14 2.777568 1_555
La0 O12 2.914708 1_555
La0 O23 2.934194 1_555
La0 O16 2.956704 1_555
La1 O6 2.398186 1_655
La1 O8 2.403156 1_555
La1 O3 2.408641 1_555
La1 O13 2.781331 1_655
La2 O7 2.393090 1_565
La2 O0 2.398723 1_455
La2 O9 2.402448 1_555
La2 O14 2.807613 1_555
La3 O10 2.351054 1_545
La3 O1 2.407219 1_555
La3 O4 2.429898 1_555
La3 O16 2.693364 1_555
La3 O23 2.788051 1_556
La3 O13 2.807995 1_555
La3 O22 2.863640 1_555
La3 O15 2.908224 1_545
La3 O19 2.987694 1_545
La4 O15 2.398065 1_545
La4 O17 2.402557 1_555
La4 O22 2.408710 1_655
La4 O4 2.778468 1_555
La5 O18 2.338664 1_555
La5 O23 2.404813 1_555
La5 O12 2.426532 1_455
La5 O1 2.678140 1_554
La5 O8 2.727531 1_455
La5 O7 2.778376 1_555
La5 O5 2.911430 1_455
La5 O2 2.934298 1_555
La5 O9 2.954320 1_555
La6 O19 2.352952 1_555
La6 O20 2.406140 1_555
La6 O13 2.429927 1_555
La6 O9 2.693250 1_556
La6 O2 2.790699 1_555
La6 O4 2.806056 1_555
La6 O3 2.859463 1_555
La6 O6 2.911916 1_555
La6 O10 2.990065 1_555
La7 O14 2.392520 1_555
La7 O21 2.399690 1_555
La7 O16 2.402229 1_565
La7 O7 2.810916 1_565
Cr0 O12 2.009289 1_555
Cr0 O4 2.011319 1_555
Cr0 O0 2.023113 1_545
Cr0 O20 2.029229 1_555
Cr0 O8 2.041728 1_555
Cr0 O16 2.052636 1_555
Cr1 O5 2.007586 1_555
Cr1 O13 2.013644 1_654
Cr1 O21 2.023319 1_555
Cr1 O1 2.029481 1_654
Cr1 O17 2.042160 1_554
Cr1 O9 2.049438 1_655
Cr2 O6 2.049281 1_555
Cr2 O14 2.061737 1_555
Cr2 O22 2.087807 1_565
Cr2 O2 2.107522 1_555
Cr2 O18 2.212760 1_555
Cr2 O10 2.231824 1_555
Cr3 O15 2.049387 1_555
Cr3 O7 2.060868 1_566
Cr3 O3 2.087312 1_555
Cr3 O23 2.108562 1_566
Cr3 O11 2.211642 1_566
Cr3 O19 2.231739 1_555
O0 Ti1 2.036914 1_555
O1 Ti2 2.060422 1_446
O2 Ti3 1.965807 1_555
O3 Ti0 1.961143 1_555
O4 Ti0 2.027131 1_555
O5 Ti1 2.029613 1_555
O6 Ti2 2.006563 1_456
O7 Ti3 2.020033 1_555
O8 Ti3 2.058390 1_655
O9 Ti0 2.069396 1_554
O10 Ti1 1.942576 1_555
O11 Ti2 1.928845 1_545
O12 Ti2 2.029017 1_545
O13 Ti3 2.025997 1_555
O14 Ti0 2.021056 1_554
O15 Ti1 2.007553 1_555
O16 Ti3 2.067441 1_555
O17 Ti0 2.058755 1_555
O18 Ti1 1.930358 1_455
O19 Ti2 1.945052 1_456
O20 Ti1 2.061171 1_555
O21 Ti2 2.036902 1_555
O22 Ti3 1.961215 1_555
O23 Ti0 1.965094 1_554
