# generated using pymatgen
data_Eu2AgPd
_symmetry_space_group_name_H-M   'P 1'
_cell_length_a   5.23536628
_cell_length_b   5.23536628
_cell_length_c   5.23536628
_cell_angle_alpha   60.00000000
_cell_angle_beta   60.00000000
_cell_angle_gamma   60.00000000
_symmetry_Int_Tables_number   1
_chemical_formula_structural   Eu2AgPd
_chemical_formula_sum   'Eu2 Ag1 Pd1'
_cell_volume   101.46732638
_cell_formula_units_Z   1
loop_
 _symmetry_equiv_pos_site_id
 _symmetry_equiv_pos_as_xyz
  1  'x, y, z'
loop_
 _atom_site_type_symbol
 _atom_site_label
 _atom_site_symmetry_multiplicity
 _atom_site_fract_x
 _atom_site_fract_y
 _atom_site_fract_z
 _atom_site_occupancy
  Eu  Eu0  1  0.25000000  0.25000000  0.25000000  1
  Eu  Eu1  1  0.75000000  0.75000000  0.75000000  1
  Ag  Ag0  1  0.50000000  0.50000000  0.50000000  1
  Pd  Pd0  1  0.00000000  0.00000000  0.00000000  1
loop_
_geom_bond_atom_site_label_1
_geom_bond_atom_site_label_2
_geom_bond_distance
_geom_bond_site_symmetry_2
Eu0 Pd0 3.205994 1_555
Eu0 Pd0 3.205994 1_556
Eu0 Pd0 3.205994 1_565
Eu0 Pd0 3.205994 1_655
Eu1 Pd0 3.205994 1_566
Eu1 Pd0 3.205994 1_656
Eu1 Pd0 3.205994 1_666
Eu1 Pd0 3.205994 1_665
Ag0 Eu1 3.205994 1_455
Ag0 Eu0 3.205994 1_555
Ag0 Eu0 3.205994 1_556
Ag0 Eu0 3.205994 1_655
Ag0 Eu1 3.205994 1_555
Ag0 Eu1 3.205994 1_545
Ag0 Eu0 3.205994 1_565
Ag0 Eu1 3.205994 1_554
