# generated using pymatgen
data_Li3MgTi8O16
_symmetry_space_group_name_H-M   'P 1'
_cell_length_a   10.46342556
_cell_length_b   10.46342556
_cell_length_c   10.46342555
_cell_angle_alpha   33.25308696
_cell_angle_beta   33.25308696
_cell_angle_gamma   33.25308674
_symmetry_Int_Tables_number   1
_chemical_formula_structural   Li3MgTi8O16
_chemical_formula_sum   'Li3 Mg1 Ti8 O16'
_cell_volume   306.65169050
_cell_formula_units_Z   1
loop_
 _symmetry_equiv_pos_site_id
 _symmetry_equiv_pos_as_xyz
  1  'x, y, z'
loop_
 _atom_site_type_symbol
 _atom_site_label
 _atom_site_symmetry_multiplicity
 _atom_site_fract_x
 _atom_site_fract_y
 _atom_site_fract_z
 _atom_site_occupancy
  Li  Li0  1  0.18819300  0.18819300  0.18819300  1
  Li  Li1  1  0.31039700  0.31039700  0.31039700  1
  Li  Li2  1  0.81345800  0.81345800  0.81345800  1
  Mg  Mg0  1  0.99864000  0.99864000  0.99864000  1
  Ti  Ti0  1  0.75364500  0.75364500  0.24166000  1
  Ti  Ti1  1  0.50101000  0.50101000  0.50101000  1
  Ti  Ti2  1  0.24166000  0.75364500  0.75364500  1
  Ti  Ti3  1  0.75364500  0.24166000  0.75364500  1
  Ti  Ti4  1  0.68805800  0.68805800  0.68805800  1
  Ti  Ti5  1  0.25580900  0.25580900  0.74458800  1
  Ti  Ti6  1  0.25580900  0.74458800  0.25580900  1
  Ti  Ti7  1  0.74458800  0.25580900  0.25580900  1
  O  O0  1  0.39516700  0.84131300  0.39516700  1
  O  O1  1  0.84131300  0.39516700  0.39516700  1
  O  O2  1  0.39516700  0.39516700  0.84131300  1
  O  O3  1  0.62288000  0.62288000  0.62288000  1
  O  O4  1  0.88007100  0.88007100  0.88007100  1
  O  O5  1  0.10630800  0.10630800  0.64910800  1
  O  O6  1  0.10630800  0.64910800  0.10630800  1
  O  O7  1  0.64910800  0.10630800  0.10630800  1
  O  O8  1  0.88219400  0.36511800  0.88219400  1
  O  O9  1  0.36511800  0.88219400  0.88219400  1
  O  O10  1  0.88219400  0.88219400  0.36511800  1
  O  O11  1  0.11768700  0.11768700  0.11768700  1
  O  O12  1  0.38140300  0.38140300  0.38140300  1
  O  O13  1  0.60841700  0.60841700  0.15332700  1
  O  O14  1  0.15332700  0.60841700  0.60841700  1
  O  O15  1  0.60841700  0.15332700  0.60841700  1
loop_
_geom_bond_atom_site_label_1
_geom_bond_atom_site_label_2
_geom_bond_distance
_geom_bond_site_symmetry_2
Li0 O0 2.026047 1_545
Li0 O1 2.026047 1_455
Li0 O2 2.026047 1_554
Li0 O11 2.088914 1_555
Li1 O6 1.997982 1_555
Li1 O7 1.997982 1_555
Li1 O5 1.997982 1_555
Li1 O12 2.103728 1_555
Li2 O4 1.973574 1_555
Li2 O14 2.007367 1_655
Li2 O15 2.007367 1_565
Li2 O13 2.007367 1_556
Mg0 O7 2.062678 1_566
Mg0 O6 2.062678 1_656
Mg0 O5 2.062678 1_665
Mg0 O8 2.127849 1_565
Mg0 O9 2.127849 1_655
Mg0 O10 2.127849 1_556
O0 Ti1 1.998072 1_555
O0 Ti0 2.030712 1_555
O0 Ti2 2.030712 1_555
O1 Ti1 1.998072 1_555
O1 Ti0 2.030712 1_555
O1 Ti3 2.030712 1_555
O2 Ti1 1.998072 1_555
O2 Ti2 2.030712 1_555
O2 Ti3 2.030712 1_555
O3 Ti4 1.931059 1_555
O3 Ti2 2.128386 1_555
O3 Ti3 2.128386 1_555
O3 Ti0 2.128386 1_555
O4 Ti2 1.999882 1_655
O4 Ti3 1.999882 1_565
O4 Ti0 1.999882 1_556
O5 Ti3 1.979487 1_455
O5 Ti2 1.979487 1_545
O6 Ti0 1.979487 1_455
O6 Ti2 1.979487 1_554
O7 Ti0 1.979487 1_545
O7 Ti3 1.979487 1_554
O8 Ti4 1.900453 1_555
O8 Ti5 2.127397 1_655
O8 Ti7 2.127397 1_556
O9 Ti4 1.900453 1_555
O9 Ti5 2.127397 1_565
O9 Ti6 2.127397 1_556
O10 Ti4 1.900453 1_555
O10 Ti6 2.127397 1_655
O10 Ti7 2.127397 1_565
O11 Ti6 2.009579 1_545
O11 Ti7 2.009579 1_455
O11 Ti5 2.009579 1_554
O12 Ti7 2.019562 1_555
O12 Ti6 2.019562 1_555
O12 Ti5 2.019562 1_555
O13 Ti7 1.984577 1_555
O13 Ti6 1.984577 1_555
O13 Ti1 2.048675 1_555
O14 Ti5 1.984577 1_555
O14 Ti6 1.984577 1_555
O14 Ti1 2.048675 1_555
O15 Ti5 1.984577 1_555
O15 Ti7 1.984577 1_555
O15 Ti1 2.048675 1_555
