# generated using pymatgen
data_Na2CaFe2(PO4)3
_symmetry_space_group_name_H-M   'P 1'
_cell_length_a   8.88902861
_cell_length_b   8.88902861
_cell_length_c   6.61461635
_cell_angle_alpha   73.05528560
_cell_angle_beta   73.05528560
_cell_angle_gamma   91.97487432
_symmetry_Int_Tables_number   1
_chemical_formula_structural   Na2CaFe2(PO4)3
_chemical_formula_sum   'Na4 Ca2 Fe4 P6 O24'
_cell_volume   474.16826912
_cell_formula_units_Z   2
loop_
 _symmetry_equiv_pos_site_id
 _symmetry_equiv_pos_as_xyz
  1  'x, y, z'
loop_
 _atom_site_type_symbol
 _atom_site_label
 _atom_site_symmetry_multiplicity
 _atom_site_fract_x
 _atom_site_fract_y
 _atom_site_fract_z
 _atom_site_occupancy
  Na  Na0  1  0.97548700  0.02451300  0.25000000  1
  Na  Na1  1  0.02451300  0.97548700  0.75000000  1
  Na  Na2  1  0.50000000  0.50000000  0.00000000  1
  Na  Na3  1  0.50000000  0.50000000  0.50000000  1
  Ca  Ca0  1  0.26865700  0.73134300  0.25000000  1
  Ca  Ca1  1  0.73134300  0.26865700  0.75000000  1
  Fe  Fe0  1  0.38830500  0.06419600  0.36723600  1
  Fe  Fe1  1  0.61169500  0.93580400  0.63276400  1
  Fe  Fe2  1  0.93580400  0.61169500  0.13276400  1
  Fe  Fe3  1  0.06419600  0.38830500  0.86723600  1
  P  P0  1  0.71863800  0.28136200  0.25000000  1
  P  P1  1  0.28136200  0.71863800  0.75000000  1
  P  P2  1  0.65935800  0.86441200  0.12450800  1
  P  P3  1  0.34064200  0.13558800  0.87549200  1
  P  P4  1  0.13558800  0.34064200  0.37549200  1
  P  P5  1  0.86441200  0.65935800  0.62450800  1
  O  O0  1  0.55118400  0.25921600  0.22839800  1
  O  O1  1  0.44881600  0.74078400  0.77160200  1
  O  O2  1  0.74078400  0.44881600  0.27160200  1
  O  O3  1  0.25921600  0.55118400  0.72839800  1
  O  O4  1  0.54110300  0.71735200  0.17967900  1
  O  O5  1  0.45889700  0.28264800  0.82032100  1
  O  O6  1  0.28264800  0.45889700  0.32032100  1
  O  O7  1  0.71735200  0.54110300  0.67967900  1
  O  O8  1  0.73931900  0.15879500  0.46025000  1
  O  O9  1  0.26068100  0.84120500  0.53975000  1
  O  O10  1  0.84120500  0.26068100  0.03975000  1
  O  O11  1  0.15879500  0.73931900  0.96025000  1
  O  O12  1  0.60170900  0.94517600  0.31190000  1
  O  O13  1  0.39829100  0.05482400  0.68810000  1
  O  O14  1  0.05482400  0.39829100  0.18810000  1
  O  O15  1  0.94517600  0.60170900  0.81190000  1
  O  O16  1  0.83101000  0.82400000  0.10760000  1
  O  O17  1  0.16899000  0.17600000  0.89240000  1
  O  O18  1  0.17600000  0.16899000  0.39240000  1
  O  O19  1  0.82400000  0.83101000  0.60760000  1
  O  O20  1  0.33270300  0.01096900  0.10249600  1
  O  O21  1  0.66729700  0.98903100  0.89750400  1
  O  O22  1  0.98903100  0.66729700  0.39750400  1
  O  O23  1  0.01096900  0.33270300  0.60249600  1
loop_
_geom_bond_atom_site_label_1
_geom_bond_atom_site_label_2
_geom_bond_distance
_geom_bond_site_symmetry_2
Na0 O19 2.445212 1_545
Na0 O17 2.445212 1_654
Na0 O10 2.684117 1_555
Na0 O8 2.684117 1_555
Na0 O18 2.690597 1_655
Na0 O16 2.690597 1_545
Na1 O16 2.445212 1_456
Na1 O18 2.445212 1_565
Na1 O11 2.684117 1_555
Na1 O9 2.684117 1_555
Na1 O17 2.690597 1_565
Na1 O19 2.690597 1_455
Na2 O7 2.338709 1_554
Na2 O6 2.338709 1_555
Na2 O0 2.377689 1_555
Na2 O1 2.377689 1_554
Na2 O5 2.611857 1_554
Na2 O4 2.611857 1_555
Na3 O5 2.338709 1_555
Na3 O4 2.338709 1_555
Na3 O2 2.377689 1_555
Na3 O3 2.377689 1_555
Na3 O6 2.611857 1_555
Na3 O7 2.611857 1_555
Ca0 O6 2.344078 1_555
Ca0 O4 2.344078 1_555
Ca0 O20 2.370520 1_565
Ca0 O22 2.370520 1_455
Ca0 O9 2.376671 1_555
Ca0 O11 2.376671 1_554
Ca1 O5 2.344078 1_555
Ca1 O7 2.344078 1_555
Ca1 O21 2.370520 1_545
Ca1 O23 2.370520 1_655
Ca1 O8 2.376671 1_555
Ca1 O10 2.376671 1_556
Fe0 O0 2.017117 1_555
Fe0 O9 2.071260 1_545
Fe0 O18 2.117861 1_555
Fe0 O20 2.122737 1_555
Fe0 O13 2.127588 1_555
Fe0 O12 2.193407 1_545
Fe1 O1 2.017117 1_555
Fe1 O8 2.071260 1_565
Fe1 O19 2.117861 1_555
Fe1 O21 2.122737 1_555
Fe1 O12 2.127588 1_555
Fe1 O13 2.193407 1_565
Fe2 O2 2.017117 1_555
Fe2 O11 2.071260 1_654
Fe2 O16 2.117861 1_555
Fe2 O22 2.122737 1_555
Fe2 O15 2.127588 1_554
Fe2 O14 2.193407 1_655
Fe3 O3 2.017117 1_555
Fe3 O10 2.071260 1_456
Fe3 O17 2.117861 1_555
Fe3 O23 2.122737 1_555
Fe3 O14 2.127588 1_556
Fe3 O15 2.193407 1_455
O0 P0 1.547575 1_555
O1 P1 1.547575 1_555
O2 P0 1.547575 1_555
O3 P1 1.547575 1_555
O4 P2 1.533161 1_555
O5 P3 1.533161 1_555
O6 P4 1.533161 1_555
O7 P5 1.533161 1_555
O8 P0 1.560303 1_555
O9 P1 1.560303 1_555
O10 P0 1.560303 1_555
O11 P1 1.560303 1_555
O12 P2 1.577414 1_555
O13 P3 1.577414 1_555
O14 P4 1.577414 1_555
O15 P5 1.577414 1_555
O16 P2 1.559295 1_555
O17 P3 1.559295 1_555
O18 P4 1.559295 1_555
O19 P5 1.559295 1_555
O20 P3 1.565250 1_554
O21 P2 1.565250 1_556
O22 P5 1.565250 1_555
O23 P4 1.565250 1_555
