# generated using pymatgen
data_CeSe2
_symmetry_space_group_name_H-M   'P 1'
_cell_length_a   11.40172294
_cell_length_b   18.04568609
_cell_length_c   18.04568609
_cell_angle_alpha   115.68772878
_cell_angle_beta   102.15801243
_cell_angle_gamma   102.15801243
_symmetry_Int_Tables_number   1
_chemical_formula_structural   CeSe2
_chemical_formula_sum   'Ce12 Se24'
_cell_volume   3072.86930366
_cell_formula_units_Z   12
loop_
 _symmetry_equiv_pos_site_id
 _symmetry_equiv_pos_as_xyz
  1  'x, y, z'
loop_
 _atom_site_type_symbol
 _atom_site_label
 _atom_site_symmetry_multiplicity
 _atom_site_fract_x
 _atom_site_fract_y
 _atom_site_fract_z
 _atom_site_occupancy
  Ce  Ce0  1  0.19860432  0.84131910  0.43327736  1
  Ce  Ce1  1  0.76532696  0.56672264  0.40804174  1
  Ce  Ce2  1  0.35728522  0.59195826  0.15868090  1
  Ce  Ce3  1  0.35728522  0.15868090  0.59195826  1
  Ce  Ce4  1  0.76532696  0.40804174  0.56672264  1
  Ce  Ce5  1  0.19860432  0.43327736  0.84131910  1
  Ce  Ce6  1  0.80133078  0.15861861  0.56664831  1
  Ce  Ce7  1  0.23468246  0.43335169  0.59197030  1
  Ce  Ce8  1  0.64271216  0.40802970  0.84138139  1
  Ce  Ce9  1  0.64271216  0.84138139  0.40802970  1
  Ce  Ce10  1  0.23468246  0.59197030  0.43335169  1
  Ce  Ce11  1  0.80133078  0.56664831  0.15861861  1
  Se  Se0  1  0.73603763  0.47219927  0.23610989  1
  Se  Se1  1  0.49992774  0.76389011  0.23608938  1
  Se  Se2  1  0.26383836  0.76391062  0.52780073  1
  Se  Se3  1  0.26383836  0.52780073  0.76391062  1
  Se  Se4  1  0.49992774  0.23608938  0.76389011  1
  Se  Se5  1  0.73603763  0.23610989  0.47219927  1
  Se  Se6  1  0.83263433  1.00000000  0.48031595  1
  Se  Se7  1  0.35231838  0.51968405  0.51968405  1
  Se  Se8  1  0.83263433  0.48031595  1.00000000  1
  Se  Se9  1  0.16757242  0.00000000  0.51965208  1
  Se  Se10  1  0.64792034  0.48034792  0.48034792  1
  Se  Se11  1  0.16757242  0.51965208  0.00000000  1
  Se  Se12  1  0.55333464  0.55332934  0.10673776  1
  Se  Se13  1  0.44659688  0.89326224  0.44659158  1
  Se  Se14  1  0.00000530  0.55340842  0.44667066  1
  Se  Se15  1  0.00000530  0.44667066  0.55340842  1
  Se  Se16  1  0.44659688  0.44659158  0.89326224  1
  Se  Se17  1  0.55333464  0.10673776  0.55332934  1
  Se  Se18  1  -0.00000818  0.71925046  0.28073357  1
  Se  Se19  1  0.71925825  0.71926643  0.43851690  1
  Se  Se20  1  0.28074136  0.56148310  0.28074954  1
  Se  Se21  1  0.28074136  0.28074954  0.56148310  1
  Se  Se22  1  0.71925825  0.43851690  0.71926643  1
  Se  Se23  1  -0.00000818  0.28073357  0.71925046  1
loop_
_geom_bond_atom_site_label_1
_geom_bond_atom_site_label_2
_geom_bond_distance
_geom_bond_site_symmetry_2
Ce0 Se13 2.708054 1_555
Ce0 Se2 2.717160 1_555
Ce0 Se9 2.746640 1_565
Ce0 Se18 2.752148 1_555
Ce1 Se14 2.708054 1_655
Ce1 Se0 2.717160 1_555
Ce1 Se10 2.746640 1_555
Ce1 Se19 2.752148 1_555
Ce2 Se12 2.708054 1_555
Ce2 Se1 2.717160 1_555
Ce2 Se11 2.746640 1_555
Ce2 Se20 2.752148 1_555
Ce3 Se17 2.708054 1_555
Ce3 Se4 2.717160 1_555
Ce3 Se9 2.746640 1_555
Ce3 Se21 2.752148 1_555
Ce4 Se15 2.708054 1_655
Ce4 Se5 2.717160 1_555
Ce4 Se10 2.746640 1_555
Ce4 Se22 2.752148 1_555
Ce5 Se16 2.708054 1_555
Ce5 Se3 2.717160 1_555
Ce5 Se11 2.746640 1_556
Ce5 Se23 2.752148 1_555
Ce6 Se17 2.707970 1_555
Ce6 Se5 2.717526 1_555
Ce6 Se6 2.747055 1_545
Ce6 Se23 2.753060 1_655
Ce7 Se15 2.707970 1_555
Ce7 Se3 2.717526 1_555
Ce7 Se7 2.747055 1_555
Ce7 Se21 2.753060 1_555
Ce8 Se16 2.707970 1_555
Ce8 Se4 2.717526 1_555
Ce8 Se8 2.747055 1_555
Ce8 Se22 2.753060 1_555
Ce9 Se13 2.707970 1_555
Ce9 Se1 2.717526 1_555
Ce9 Se6 2.747055 1_555
Ce9 Se19 2.753060 1_555
Ce10 Se14 2.707970 1_555
Ce10 Se2 2.717526 1_555
Ce10 Se7 2.747055 1_555
Ce10 Se20 2.753060 1_555
Ce11 Se12 2.707970 1_555
Ce11 Se0 2.717526 1_555
Ce11 Se8 2.747055 1_554
Ce11 Se18 2.753060 1_655
