# generated using pymatgen
data_Li2Cr(SiO3)2
_symmetry_space_group_name_H-M   'P 1'
_cell_length_a   5.19723591
_cell_length_b   10.48550509
_cell_length_c   5.19578035
_cell_angle_alpha   105.71500967
_cell_angle_beta   95.33780598
_cell_angle_gamma   74.25672942
_symmetry_Int_Tables_number   1
_chemical_formula_structural   Li2Cr(SiO3)2
_chemical_formula_sum   'Li4 Cr2 Si4 O12'
_cell_volume   262.28059485
_cell_formula_units_Z   2
loop_
 _symmetry_equiv_pos_site_id
 _symmetry_equiv_pos_as_xyz
  1  'x, y, z'
loop_
 _atom_site_type_symbol
 _atom_site_label
 _atom_site_symmetry_multiplicity
 _atom_site_fract_x
 _atom_site_fract_y
 _atom_site_fract_z
 _atom_site_occupancy
  Li  Li0  1  0.50880500  0.83887400  0.92365500  1
  Li  Li1  1  0.09693200  0.66406500  0.83656700  1
  Li  Li2  1  0.83631500  0.33891600  0.09794300  1
  Li  Li3  1  0.92391300  0.16395200  0.51069900  1
  Cr  Cr0  1  0.67877600  0.50130600  0.67924500  1
  Cr  Cr1  1  0.92778200  0.00153800  0.92947000  1
  Si  Si0  1  0.19340800  0.83607700  0.38369900  1
  Si  Si1  1  0.77796500  0.66713400  0.29912200  1
  Si  Si2  1  0.29907500  0.33552400  0.77956000  1
  Si  Si3  1  0.38287500  0.16687400  0.19523800  1
  O  O0  1  0.09563500  0.98722400  0.58529900  1
  O  O1  1  0.17442000  0.83101600  0.06713700  1
  O  O2  1  0.02428300  0.73492800  0.45688600  1
  O  O3  1  0.50761700  0.76826300  0.47369100  1
  O  O4  1  0.75400400  0.67208200  0.98757600  1
  O  O5  1  0.83159200  0.51599600  0.34951900  1
  O  O6  1  0.34927500  0.48659400  0.83138800  1
  O  O7  1  0.98773500  0.33048200  0.75564400  1
  O  O8  1  0.47369400  0.23374900  0.50964000  1
  O  O9  1  0.45629800  0.26838100  0.02691400  1
  O  O10  1  0.06627100  0.17245100  0.17672600  1
  O  O11  1  0.58366300  0.01563300  0.09565100  1
loop_
_geom_bond_atom_site_label_1
_geom_bond_atom_site_label_2
_geom_bond_distance
_geom_bond_site_symmetry_2
Li0 O11 1.953069 1_566
Li0 O4 1.954331 1_555
Li0 O1 1.983635 1_556
Li0 O3 2.253038 1_555
Li1 O1 1.954126 1_556
Li1 O6 1.959249 1_555
Li1 O4 1.985533 1_455
Li1 O2 2.256008 1_555
Li2 O10 1.951045 1_655
Li2 O5 1.955326 1_555
Li2 O7 1.981836 1_554
Li2 O9 2.256806 1_555
Li3 O0 1.951393 1_645
Li3 O7 1.952106 1_555
Li3 O10 1.981125 1_655
Li3 O8 2.254164 1_555
Cr0 O6 2.010624 1_555
Cr0 O5 2.012958 1_555
Cr0 O4 2.152960 1_555
Cr0 O7 2.156402 1_555
Cr1 O11 2.010158 1_556
Cr1 O0 2.013741 1_645
Cr1 O1 2.151791 1_646
Cr1 O10 2.158909 1_656
O0 Si0 1.621696 1_555
O1 Si0 1.625804 1_555
O2 Si1 1.673025 1_455
O2 Si0 1.681853 1_555
O3 Si0 1.672994 1_555
O3 Si1 1.681936 1_555
O4 Si1 1.625716 1_556
O5 Si1 1.621491 1_555
O6 Si2 1.621700 1_555
O7 Si2 1.625411 1_655
O8 Si3 1.672921 1_555
O8 Si2 1.682208 1_555
O9 Si2 1.672620 1_554
O9 Si3 1.682286 1_555
O10 Si3 1.625304 1_555
O11 Si3 1.621581 1_555
