# generated using pymatgen
data_Ca2AgWO6
_symmetry_space_group_name_H-M   'P 1'
_cell_length_a   5.80540508
_cell_length_b   6.02778038
_cell_length_c   8.02897884
_cell_angle_alpha   93.32816819
_cell_angle_beta   131.51342573
_cell_angle_gamma   121.29918136
_symmetry_Int_Tables_number   1
_chemical_formula_structural   Ca2AgWO6
_chemical_formula_sum   'Ca2 Ag1 W1 O6'
_cell_volume   139.76770289
_cell_formula_units_Z   1
loop_
 _symmetry_equiv_pos_site_id
 _symmetry_equiv_pos_as_xyz
  1  'x, y, z'
loop_
 _atom_site_type_symbol
 _atom_site_label
 _atom_site_symmetry_multiplicity
 _atom_site_fract_x
 _atom_site_fract_y
 _atom_site_fract_z
 _atom_site_occupancy
  Ca  Ca0  1  0.99396000  0.54942700  0.21067300  1
  Ca  Ca1  1  0.01244500  0.56940600  0.71734400  1
  Ag  Ag0  1  0.99375300  0.00534800  0.49063800  1
  W  W0  1  0.00094800  0.98285800  0.00277500  1
  O  O0  1  0.75686700  0.83186700  0.11409600  1
  O  O1  1  0.20856000  0.06119500  0.87776800  1
  O  O2  1  0.35609400  0.43370200  0.24199900  1
  O  O3  1  0.42796100  0.81357300  0.67013900  1
  O  O4  1  0.49751400  0.05863900  0.32642300  1
  O  O5  1  0.68858100  0.50806800  0.80688300  1
loop_
_geom_bond_atom_site_label_1
_geom_bond_atom_site_label_2
_geom_bond_distance
_geom_bond_site_symmetry_2
Ca0 O3 2.306758 1_655
Ca0 O5 2.354527 1_554
Ca0 O4 2.361210 1_665
Ca0 O1 2.363102 1_554
Ca0 O2 2.410982 1_655
Ca0 O0 2.562714 1_555
Ca1 O4 2.268105 1_455
Ca1 O5 2.299755 1_455
Ca1 O0 2.321453 1_556
Ca1 O3 2.390938 1_555
Ca1 O1 2.418459 1_565
Ca1 O2 2.622168 1_455
Ag0 O5 2.174925 1_655
Ag0 O0 2.179952 1_545
Ag0 O1 2.373580 1_655
Ag0 O2 2.390400 1_545
Ag0 O4 2.473174 1_555
O0 W0 2.017032 1_655
O1 W0 1.936568 1_546
O2 W0 1.910028 1_545
O3 W0 1.902479 1_656
O4 W0 1.958429 1_545
O5 W0 2.063266 1_656
