# generated using pymatgen
data_Ca2TiAlO5
_symmetry_space_group_name_H-M   'P 1'
_cell_length_a   8.25242260
_cell_length_b   8.25242260
_cell_length_c   8.25242260
_cell_angle_alpha   141.58392183
_cell_angle_beta   139.44627242
_cell_angle_gamma   57.09035709
_symmetry_Int_Tables_number   1
_chemical_formula_structural   Ca2TiAlO5
_chemical_formula_sum   'Ca4 Ti2 Al2 O10'
_cell_volume   225.15733028
_cell_formula_units_Z   2
loop_
 _symmetry_equiv_pos_site_id
 _symmetry_equiv_pos_as_xyz
  1  'x, y, z'
loop_
 _atom_site_type_symbol
 _atom_site_label
 _atom_site_symmetry_multiplicity
 _atom_site_fract_x
 _atom_site_fract_y
 _atom_site_fract_z
 _atom_site_occupancy
  Ca  Ca0  1  0.42317500  0.89956800  0.54360000  1
  Ca  Ca1  1  0.14403200  0.62042500  0.54360000  1
  Ca  Ca2  1  0.57682500  0.12042500  0.47639400  1
  Ca  Ca3  1  0.85596800  0.39956800  0.47639400  1
  Ti  Ti0  1  0.50000000  0.49783600  0.99783600  1
  Ti  Ti1  1  0.00000000  0.99783600  0.99783600  1
  Al  Al0  1  0.82664900  0.78810100  0.11475000  1
  Al  Al1  1  0.17335100  0.28810100  0.96145200  1
  O  O0  1  0.89943000  0.11646000  0.51588900  1
  O  O1  1  0.10057000  0.61646000  0.21703000  1
  O  O2  1  0.42466700  0.32419100  0.04345000  1
  O  O3  1  0.57533300  0.61878300  0.89952400  1
  O  O4  1  0.78074200  0.82419100  0.89952400  1
  O  O5  1  0.21925800  0.11878300  0.04345000  1
  O  O6  1  0.76925900  0.26684900  0.01021600  1
  O  O7  1  0.23074100  0.24095700  0.49759000  1
  O  O8  1  0.24336700  0.74095700  0.01021600  1
  O  O9  1  0.75663300  0.76684900  0.49759000  1
loop_
_geom_bond_atom_site_label_1
_geom_bond_atom_site_label_2
_geom_bond_distance
_geom_bond_site_symmetry_2
Ca0 O4 2.327976 1_555
Ca0 O1 2.407992 1_555
Ca0 O8 2.539086 1_555
Ca0 O7 2.549822 1_565
Ca0 O6 2.564465 1_566
Ca0 O9 2.564639 1_555
Ca0 O2 2.571681 1_566
Ca0 O2 2.980689 1_555
Ca1 O3 2.327974 1_555
Ca1 O1 2.407992 1_555
Ca1 O6 2.539086 1_455
Ca1 O9 2.549822 1_455
Ca1 O8 2.564465 1_556
Ca1 O7 2.564639 1_555
Ca1 O5 2.571682 1_566
Ca1 O5 2.980685 1_555
Ca2 O5 2.327980 1_555
Ca2 O0 2.408003 1_555
Ca2 O9 2.539082 1_545
Ca2 O6 2.549815 1_556
Ca2 O7 2.564460 1_555
Ca2 O8 2.564637 1_545
Ca2 O3 2.571680 1_555
Ca2 O3 2.980694 1_544
Ca3 O2 2.327976 1_555
Ca3 O0 2.407979 1_555
Ca3 O7 2.539090 1_655
Ca3 O8 2.549823 1_656
Ca3 O9 2.564470 1_555
Ca3 O6 2.564647 1_555
Ca3 O4 2.571673 1_555
Ca3 O4 2.980692 1_544
Al0 O3 1.752341 1_554
Al0 O4 1.752347 1_554
Al0 O1 1.823049 1_655
Al0 O0 1.830966 1_565
Al1 O2 1.752341 1_556
Al1 O5 1.752346 1_556
Al1 O0 1.823053 1_455
Al1 O1 1.830969 1_556
O2 Ti0 2.179583 1_554
O3 Ti0 2.179583 1_555
O4 Ti1 2.179575 1_655
O5 Ti1 2.179575 1_544
O6 Ti1 1.977741 1_644
O6 Ti0 1.984720 1_554
O7 Ti1 1.977741 1_544
O7 Ti0 1.984720 1_555
O8 Ti0 1.977741 1_554
O8 Ti1 1.984720 1_554
O9 Ti0 1.977741 1_554
O9 Ti1 1.984720 1_655
