# generated using pymatgen
data_MgV2O4
_symmetry_space_group_name_H-M   'P 1'
_cell_length_a   2.96603000
_cell_length_b   9.79379200
_cell_length_c   9.91403700
_cell_angle_alpha   90.00000000
_cell_angle_beta   90.00000000
_cell_angle_gamma   90.00000000
_symmetry_Int_Tables_number   1
_chemical_formula_structural   MgV2O4
_chemical_formula_sum   'Mg4 V8 O16'
_cell_volume   287.98969710
_cell_formula_units_Z   4
loop_
 _symmetry_equiv_pos_site_id
 _symmetry_equiv_pos_as_xyz
  1  'x, y, z'
loop_
 _atom_site_type_symbol
 _atom_site_label
 _atom_site_symmetry_multiplicity
 _atom_site_fract_x
 _atom_site_fract_y
 _atom_site_fract_z
 _atom_site_occupancy
  Mg  Mg0  1  0.72987100  0.86307500  0.25000000  1
  Mg  Mg1  1  0.72987100  0.63692500  0.75000000  1
  Mg  Mg2  1  0.27012900  0.36307500  0.25000000  1
  Mg  Mg3  1  0.27012900  0.13692500  0.75000000  1
  V  V0  1  0.24032000  0.61782000  0.42675900  1
  V  V1  1  0.24032000  0.88218000  0.92675900  1
  V  V2  1  0.75968000  0.38218000  0.92675900  1
  V  V3  1  0.24032000  0.88218000  0.57324100  1
  V  V4  1  0.75968000  0.38218000  0.57324100  1
  V  V5  1  0.24032000  0.61782000  0.07324100  1
  V  V6  1  0.75968000  0.11782000  0.07324100  1
  V  V7  1  0.75968000  0.11782000  0.42675900  1
  O  O0  1  0.75932700  0.47799300  0.11412500  1
  O  O1  1  0.24067300  0.52200700  0.88587500  1
  O  O2  1  0.71297100  0.75000000  0.00000000  1
  O  O3  1  0.24067300  0.97799300  0.11412500  1
  O  O4  1  0.24067300  0.97799300  0.38587500  1
  O  O5  1  0.22501500  0.78582600  0.75000000  1
  O  O6  1  0.75932700  0.02200700  0.88587500  1
  O  O7  1  0.77498500  0.28582600  0.75000000  1
  O  O8  1  0.71297100  0.75000000  0.50000000  1
  O  O9  1  0.28702900  0.25000000  0.00000000  1
  O  O10  1  0.75932700  0.47799300  0.38587500  1
  O  O11  1  0.77498500  0.21417400  0.25000000  1
  O  O12  1  0.22501500  0.71417400  0.25000000  1
  O  O13  1  0.28702900  0.25000000  0.50000000  1
  O  O14  1  0.75932700  0.02200700  0.61412500  1
  O  O15  1  0.24067300  0.52200700  0.61412500  1
loop_
_geom_bond_atom_site_label_1
_geom_bond_atom_site_label_2
_geom_bond_distance
_geom_bond_site_symmetry_2
Mg0 O12 2.069656 1_655
Mg0 O12 2.090195 1_555
Mg0 O4 2.277420 1_555
Mg0 O3 2.277420 1_555
Mg0 O4 2.318771 1_655
Mg0 O3 2.318771 1_655
Mg1 O5 2.069656 1_655
Mg1 O5 2.090195 1_555
Mg1 O1 2.277420 1_555
Mg1 O15 2.277420 1_555
Mg1 O1 2.318771 1_655
Mg1 O15 2.318771 1_655
Mg2 O11 2.069656 1_455
Mg2 O11 2.090195 1_555
Mg2 O10 2.277420 1_555
Mg2 O0 2.277420 1_555
Mg2 O10 2.318771 1_455
Mg2 O0 2.318771 1_455
Mg3 O7 2.069656 1_455
Mg3 O7 2.090195 1_555
Mg3 O6 2.277420 1_555
Mg3 O14 2.277420 1_555
Mg3 O6 2.318771 1_455
Mg3 O14 2.318771 1_455
O0 V5 2.018650 1_655
O0 V2 2.081117 1_554
O0 V5 2.099849 1_555
O1 V2 2.018650 1_455
O1 V5 2.081117 1_556
O1 V2 2.099849 1_555
O2 V5 2.041666 1_555
O2 V1 2.041666 1_554
O2 V5 2.156292 1_655
O2 V1 2.156292 1_654
O3 V6 2.018650 1_465
O3 V1 2.081117 1_554
O3 V6 2.099849 1_565
O4 V7 2.018650 1_465
O4 V3 2.081117 1_555
O4 V7 2.099849 1_565
O5 V3 1.990845 1_555
O5 V1 1.990845 1_555
O6 V1 2.018650 1_645
O6 V6 2.081117 1_556
O6 V1 2.099849 1_545
O7 V2 1.990845 1_555
O7 V4 1.990845 1_555
O8 V0 2.041666 1_555
O8 V3 2.041666 1_555
O8 V0 2.156292 1_655
O8 V3 2.156292 1_655
O9 V6 2.041666 1_555
O9 V2 2.041666 1_554
O9 V6 2.156292 1_455
O9 V2 2.156292 1_454
O10 V0 2.018650 1_655
O10 V4 2.081117 1_555
O10 V0 2.099849 1_555
O11 V6 1.990845 1_555
O11 V7 1.990845 1_555
O12 V0 1.990845 1_555
O12 V5 1.990845 1_555
O13 V7 2.041666 1_555
O13 V4 2.041666 1_555
O13 V7 2.156292 1_455
O13 V4 2.156292 1_455
O14 V3 2.018650 1_645
O14 V7 2.081117 1_555
O14 V3 2.099849 1_545
O15 V4 2.018650 1_455
O15 V0 2.081117 1_555
O15 V4 2.099849 1_555
