# generated using pymatgen
data_Co
_symmetry_space_group_name_H-M   'P 1'
_cell_length_a   4.55007498
_cell_length_b   4.55003709
_cell_length_c   4.55003025
_cell_angle_alpha   60.00016435
_cell_angle_beta   60.00010024
_cell_angle_gamma   60.00002658
_symmetry_Int_Tables_number   1
_chemical_formula_structural   Co
_chemical_formula_sum   Co6
_cell_volume   66.60912556
_cell_formula_units_Z   6
loop_
 _symmetry_equiv_pos_site_id
 _symmetry_equiv_pos_as_xyz
  1  'x, y, z'
loop_
 _atom_site_type_symbol
 _atom_site_label
 _atom_site_symmetry_multiplicity
 _atom_site_fract_x
 _atom_site_fract_y
 _atom_site_fract_z
 _atom_site_occupancy
  Co  Co0  1  0.74999794  0.75000036  0.75000042  1
  Co  Co1  1  0.00000157  0.99999916  0.00000005  1
  Co  Co2  1  0.87500078  0.37499949  0.37499978  1
  Co  Co3  1  0.37499950  0.87500078  0.37499997  1
  Co  Co4  1  0.37500020  0.37500002  0.87499933  1
  Co  Co5  1  0.37500001  0.37500020  0.37500046  1
loop_
_geom_bond_atom_site_label_1
_geom_bond_atom_site_label_2
_geom_bond_distance
_geom_bond_site_symmetry_2
Co0 Co2 2.667690 1_555
Co0 Co4 2.667692 1_565
Co0 Co3 2.667693 1_556
Co0 Co5 2.667700 1_565
Co0 Co3 2.667700 1_555
Co0 Co2 2.667701 1_556
Co0 Co5 2.667703 1_556
Co0 Co4 2.667704 1_555
Co0 Co2 2.667705 1_565
Co0 Co5 2.667710 1_655
Co0 Co4 2.667723 1_655
Co0 Co3 2.667726 1_655
Co0 Co1 2.786320 1_655
Co0 Co1 2.786325 1_646
Co0 Co1 2.786329 1_556
Co0 Co1 2.786329 1_656
Co1 Co2 2.667688 1_465
Co1 Co3 2.667691 1_554
Co1 Co4 2.667693 1_554
Co1 Co3 2.667700 1_555
Co1 Co5 2.667700 1_555
Co1 Co2 2.667700 1_464
Co1 Co2 2.667703 1_455
Co1 Co5 2.667705 1_564
Co1 Co4 2.667706 1_564
Co1 Co5 2.667711 1_465
Co1 Co4 2.667723 1_464
Co1 Co3 2.667724 1_455
Co2 Co3 2.275023 1_645
Co2 Co4 2.275029 1_654
Co2 Co4 2.275030 1_555
Co2 Co3 2.275035 1_555
Co2 Co5 2.275037 1_655
Co2 Co5 2.275038 1_555
Co3 Co5 2.275018 1_565
Co3 Co5 2.275019 1_555
Co3 Co4 2.275022 1_564
Co3 Co4 2.275023 1_555
Co4 Co5 2.275010 1_555
Co4 Co5 2.275020 1_556
