# generated using pymatgen
data_Ca2FeP2(H2O5)2
_symmetry_space_group_name_H-M   'P 1'
_cell_length_a   5.56352359
_cell_length_b   5.78169826
_cell_length_c   6.63396036
_cell_angle_alpha   89.91364299
_cell_angle_beta   103.13226929
_cell_angle_gamma   108.59464776
_symmetry_Int_Tables_number   1
_chemical_formula_structural   Ca2FeP2(H2O5)2
_chemical_formula_sum   'Ca2 Fe1 P2 H4 O10'
_cell_volume   196.38072376
_cell_formula_units_Z   1
loop_
 _symmetry_equiv_pos_site_id
 _symmetry_equiv_pos_as_xyz
  1  'x, y, z'
loop_
 _atom_site_type_symbol
 _atom_site_label
 _atom_site_symmetry_multiplicity
 _atom_site_fract_x
 _atom_site_fract_y
 _atom_site_fract_z
 _atom_site_occupancy
  Ca  Ca0  1  0.16803500  0.40186000  0.76758800  1
  Ca  Ca1  1  0.83196500  0.59814000  0.23241200  1
  Fe  Fe0  1  0.50000000  0.00000000  0.00000000  1
  P  P0  1  0.14830200  0.24213400  0.23291900  1
  P  P1  1  0.85169800  0.75786600  0.76708100  1
  H  H0  1  0.41644100  0.72093600  0.33395300  1
  H  H1  1  0.58355900  0.27906400  0.66604700  1
  H  H2  1  0.30966300  0.06679800  0.57058000  1
  H  H3  1  0.69033700  0.93320200  0.42942000  1
  O  O0  1  0.37500400  0.29805500  0.11598800  1
  O  O1  1  0.62499600  0.70194500  0.88401200  1
  O  O2  1  0.11899400  0.99965400  0.33431100  1
  O  O3  1  0.88100600  0.00034600  0.66568900  1
  O  O4  1  0.43195000  0.15482800  0.70572300  1
  O  O5  1  0.56805000  0.84517200  0.29427700  1
  O  O6  1  0.89419900  0.24154000  0.06898700  1
  O  O7  1  0.10580100  0.75846000  0.93101300  1
  O  O8  1  0.20086700  0.45922800  0.39660600  1
  O  O9  1  0.79913300  0.54077200  0.60339400  1
loop_
_geom_bond_atom_site_label_1
_geom_bond_atom_site_label_2
_geom_bond_distance
_geom_bond_site_symmetry_2
Ca0 O3 2.355024 1_455
Ca0 O4 2.444848 1_555
Ca0 O9 2.465076 1_455
Ca0 O7 2.485693 1_555
Ca0 O0 2.501060 1_556
Ca0 O8 2.522592 1_555
Ca0 O1 2.523665 1_555
Ca0 O6 2.766965 1_456
Ca1 O2 2.355024 1_655
Ca1 O5 2.444848 1_555
Ca1 O8 2.465076 1_655
Ca1 O6 2.485693 1_555
Ca1 O1 2.501060 1_554
Ca1 O9 2.522592 1_555
Ca1 O0 2.523665 1_555
Ca1 O7 2.766965 1_654
Fe0 O7 2.135918 1_544
Fe0 O6 2.135918 1_555
Fe0 O5 2.151942 1_545
Fe0 O4 2.151942 1_554
Fe0 O1 2.248715 1_544
Fe0 O0 2.248715 1_555
H0 O5 1.005291 1_555
H0 O8 1.722786 1_555
H1 O4 1.005291 1_555
H1 O9 1.722786 1_555
H2 O4 1.014430 1_555
H2 O2 1.648153 1_545
H3 O5 1.014430 1_555
H3 O3 1.648153 1_565
O0 P0 1.575058 1_555
O1 P1 1.575058 1_555
O2 P0 1.531562 1_565
O3 P1 1.531562 1_545
O6 P0 1.574670 1_655
O7 P1 1.574670 1_455
O8 P0 1.570304 1_555
O9 P1 1.570304 1_555
