# generated using pymatgen
data_Pr2TeO2
_symmetry_space_group_name_H-M   'P 1'
_cell_length_a   4.09310703
_cell_length_b   4.09310783
_cell_length_c   7.13201529
_cell_angle_alpha   106.67561470
_cell_angle_beta   106.67561337
_cell_angle_gamma   90.00000828
_symmetry_Int_Tables_number   1
_chemical_formula_structural   Pr2TeO2
_chemical_formula_sum   'Pr2 Te1 O2'
_cell_volume   109.20536758
_cell_formula_units_Z   1
loop_
 _symmetry_equiv_pos_site_id
 _symmetry_equiv_pos_as_xyz
  1  'x, y, z'
loop_
 _atom_site_type_symbol
 _atom_site_label
 _atom_site_symmetry_multiplicity
 _atom_site_fract_x
 _atom_site_fract_y
 _atom_site_fract_z
 _atom_site_occupancy
  Pr  Pr0  1  0.65957483  0.65957483  0.31915165  1
  Pr  Pr1  1  0.34042517  0.34042517  0.68084835  1
  Te  Te0  1  0.00000000  -0.00000000  -0.00000000  1
  O  O0  1  0.25000000  0.75000000  0.50000000  1
  O  O1  1  0.75000000  0.25000000  0.50000000  1
loop_
_geom_bond_atom_site_label_1
_geom_bond_atom_site_label_2
_geom_bond_distance
_geom_bond_site_symmetry_2
Pr0 Te0 3.564345 1_555
Pr0 Te0 3.564350 1_565
Pr0 Te0 3.564350 1_655
Pr0 Te0 3.564354 1_665
Pr1 Te0 3.564345 1_666
Pr1 Te0 3.564350 1_656
Pr1 Te0 3.564350 1_566
Pr1 Te0 3.564354 1_556
O0 Pr0 2.361781 1_555
O0 Pr1 2.361782 1_555
O0 Pr0 2.361789 1_455
O0 Pr1 2.361789 1_565
O1 Pr1 2.361781 1_555
O1 Pr0 2.361782 1_555
O1 Pr1 2.361789 1_655
O1 Pr0 2.361789 1_545
