# generated using pymatgen
data_DyAlSi
_symmetry_space_group_name_H-M   'P 1'
_cell_length_a   5.52071336
_cell_length_b   5.52071336
_cell_length_c   5.68931599
_cell_angle_alpha   90.00000000
_cell_angle_beta   90.00000000
_cell_angle_gamma   137.82527703
_symmetry_Int_Tables_number   1
_chemical_formula_structural   DyAlSi
_chemical_formula_sum   'Dy2 Al2 Si2'
_cell_volume   116.42003325
_cell_formula_units_Z   2
loop_
 _symmetry_equiv_pos_site_id
 _symmetry_equiv_pos_as_xyz
  1  'x, y, z'
loop_
 _atom_site_type_symbol
 _atom_site_label
 _atom_site_symmetry_multiplicity
 _atom_site_fract_x
 _atom_site_fract_y
 _atom_site_fract_z
 _atom_site_occupancy
  Dy  Dy0  1  0.69476605  0.30523395  0.25000000  1
  Dy  Dy1  1  0.30523395  0.69476605  0.75000000  1
  Al  Al0  1  0.00000000  -0.00000000  -0.00000000  1
  Al  Al1  1  0.00000000  -0.00000000  0.50000000  1
  Si  Si0  1  0.40104261  0.59895739  0.25000000  1
  Si  Si1  1  0.59895739  0.40104261  0.75000000  1
loop_
_geom_bond_atom_site_label_1
_geom_bond_atom_site_label_2
_geom_bond_distance
_geom_bond_site_symmetry_2
Dy0 Si0 2.908831 1_545
Dy0 Si0 2.908831 1_655
Dy0 Si1 3.011028 1_555
Dy0 Si1 3.011028 1_554
Dy0 Si0 3.025943 1_555
Dy1 Si1 2.908831 1_565
Dy1 Si1 2.908831 1_455
Dy1 Si0 3.011028 1_556
Dy1 Si0 3.011028 1_555
Dy1 Si1 3.025943 1_555
Al0 Si0 2.647210 1_555
Al0 Si1 2.647210 1_444
Al0 Si0 2.647210 1_445
Al0 Si1 2.647210 1_554
Al0 Dy1 3.161391 1_554
Al0 Dy0 3.161391 1_445
Al0 Dy0 3.161391 1_555
Al0 Dy1 3.161391 1_444
Al1 Si0 2.647210 1_555
Al1 Si1 2.647210 1_445
Al1 Si0 2.647210 1_445
Al1 Si1 2.647210 1_555
Al1 Dy0 3.161391 1_445
Al1 Dy0 3.161391 1_555
Al1 Dy1 3.161391 1_445
Al1 Dy1 3.161391 1_555
