# generated using pymatgen
data_Sr3BN3
_symmetry_space_group_name_H-M   'P 1'
_cell_length_a   7.38698640
_cell_length_b   7.38698640
_cell_length_c   5.25823900
_cell_angle_alpha   90.00000000
_cell_angle_beta   90.00000000
_cell_angle_gamma   120.00000362
_symmetry_Int_Tables_number   1
_chemical_formula_structural   Sr3BN3
_chemical_formula_sum   'Sr6 B2 N6'
_cell_volume   248.48806673
_cell_formula_units_Z   2
loop_
 _symmetry_equiv_pos_site_id
 _symmetry_equiv_pos_as_xyz
  1  'x, y, z'
loop_
 _atom_site_type_symbol
 _atom_site_label
 _atom_site_symmetry_multiplicity
 _atom_site_fract_x
 _atom_site_fract_y
 _atom_site_fract_z
 _atom_site_occupancy
  Sr  Sr0  1  0.92955300  0.62980500  0.25000000  1
  Sr  Sr1  1  0.70025200  0.07044700  0.25000000  1
  Sr  Sr2  1  0.37019500  0.29974800  0.25000000  1
  Sr  Sr3  1  0.07044700  0.37019500  0.75000000  1
  Sr  Sr4  1  0.29974800  0.92955300  0.75000000  1
  Sr  Sr5  1  0.62980500  0.70025200  0.75000000  1
  B  B0  1  0.66666700  0.33333300  0.75000000  1
  B  B1  1  0.33333300  0.66666700  0.25000000  1
  N  N0  1  0.86193100  0.55250200  0.75000000  1
  N  N1  1  0.69057100  0.13806900  0.75000000  1
  N  N2  1  0.44749800  0.30942900  0.75000000  1
  N  N3  1  0.13806900  0.44749800  0.25000000  1
  N  N4  1  0.30942900  0.86193100  0.25000000  1
  N  N5  1  0.55250200  0.69057100  0.25000000  1
loop_
_geom_bond_atom_site_label_1
_geom_bond_atom_site_label_2
_geom_bond_distance
_geom_bond_site_symmetry_2
B0 N1 1.538321 1_555
B0 N0 1.538326 1_555
B0 N2 1.538329 1_555
B1 N4 1.538321 1_555
B1 N3 1.538326 1_555
B1 N5 1.538329 1_555
N0 Sr5 2.450088 1_555
N0 Sr3 2.502092 1_655
N0 Sr0 2.683771 1_555
N0 Sr0 2.683771 1_556
N0 Sr4 3.034711 1_655
N1 Sr3 2.450088 1_655
N1 Sr4 2.502092 1_545
N1 Sr1 2.683771 1_555
N1 Sr1 2.683771 1_556
N1 Sr5 3.034711 1_545
N2 Sr4 2.450088 1_545
N2 Sr5 2.502092 1_555
N2 Sr2 2.683771 1_555
N2 Sr2 2.683771 1_556
N2 Sr3 3.034711 1_555
N3 Sr2 2.450088 1_555
N3 Sr0 2.502092 1_455
N3 Sr3 2.683771 1_554
N3 Sr3 2.683771 1_555
N3 Sr1 3.034711 1_455
N4 Sr0 2.450088 1_455
N4 Sr1 2.502092 1_565
N4 Sr4 2.683771 1_555
N4 Sr4 2.683771 1_554
N4 Sr2 3.034711 1_565
N5 Sr1 2.450088 1_565
N5 Sr2 2.502092 1_555
N5 Sr5 2.683771 1_554
N5 Sr5 2.683771 1_555
N5 Sr0 3.034711 1_555
