# generated using pymatgen
data_Ti2NbNi9
_symmetry_space_group_name_H-M   'P 1'
_cell_length_a   13.56196141
_cell_length_b   13.56196141
_cell_length_c   8.44131100
_cell_angle_alpha   90.00000000
_cell_angle_beta   90.00000000
_cell_angle_gamma   158.22350851
_symmetry_Int_Tables_number   1
_chemical_formula_structural   Ti2NbNi9
_chemical_formula_sum   'Ti8 Nb4 Ni36'
_cell_volume   575.98798040
_cell_formula_units_Z   4
loop_
 _symmetry_equiv_pos_site_id
 _symmetry_equiv_pos_as_xyz
  1  'x, y, z'
loop_
 _atom_site_type_symbol
 _atom_site_label
 _atom_site_symmetry_multiplicity
 _atom_site_fract_x
 _atom_site_fract_y
 _atom_site_fract_z
 _atom_site_occupancy
  Ti  Ti0  1  0.77742800  0.22257200  0.00000000  1
  Ti  Ti1  1  0.44191200  0.55808800  0.00000000  1
  Ti  Ti2  1  0.99919200  0.00080800  0.24941100  1
  Ti  Ti3  1  0.66629100  0.33370900  0.25006300  1
  Ti  Ti4  1  0.33263200  0.66736800  0.24953900  1
  Ti  Ti5  1  0.99919200  0.00080800  0.75058900  1
  Ti  Ti6  1  0.66629100  0.33370900  0.74993700  1
  Ti  Ti7  1  0.33263200  0.66736800  0.75046100  1
  Nb  Nb0  1  0.55501000  0.44499000  0.50000000  1
  Nb  Nb1  1  0.22351500  0.77648500  0.50000000  1
  Nb  Nb2  1  0.88924400  0.11075600  0.50000000  1
  Nb  Nb3  1  0.10969100  0.89030900  0.00000000  1
  Ni  Ni0  1  0.38311300  0.10593500  0.50000000  1
  Ni  Ni1  1  0.04885600  0.43793800  0.50000000  1
  Ni  Ni2  1  0.71574700  0.77304300  0.50000000  1
  Ni  Ni3  1  0.89406500  0.61688700  0.50000000  1
  Ni  Ni4  1  0.56206200  0.95114400  0.50000000  1
  Ni  Ni5  1  0.22695700  0.28425300  0.50000000  1
  Ni  Ni6  1  0.05636000  0.94364000  0.50000000  1
  Ni  Ni7  1  0.72313000  0.27687000  0.50000000  1
  Ni  Ni8  1  0.38947600  0.61052400  0.50000000  1
  Ni  Ni9  1  0.28447600  0.23142900  0.00000000  1
  Ni  Ni10  1  0.94979400  0.56092300  0.00000000  1
  Ni  Ni11  1  0.61735300  0.89651500  0.00000000  1
  Ni  Ni12  1  0.76857100  0.71552400  0.00000000  1
  Ni  Ni13  1  0.43907700  0.05020600  0.00000000  1
  Ni  Ni14  1  0.10348500  0.38264700  0.00000000  1
  Ni  Ni15  1  0.60884400  0.39115600  0.00000000  1
  Ni  Ni16  1  0.27574400  0.72425600  0.00000000  1
  Ni  Ni17  1  0.94219600  0.05780400  0.00000000  1
  Ni  Ni18  1  0.16666200  0.83333800  0.24970900  1
  Ni  Ni19  1  0.83295100  0.16704900  0.24747000  1
  Ni  Ni20  1  0.49894800  0.50105200  0.24706200  1
  Ni  Ni21  1  0.83285400  0.66722100  0.24981400  1
  Ni  Ni22  1  0.50226100  0.00296100  0.24738700  1
  Ni  Ni23  1  0.16744700  0.33545900  0.24754400  1
  Ni  Ni24  1  0.33277900  0.16714600  0.24981400  1
  Ni  Ni25  1  0.99703900  0.49773900  0.24738700  1
  Ni  Ni26  1  0.66454100  0.83255300  0.24754400  1
  Ni  Ni27  1  0.16666200  0.83333800  0.75029100  1
  Ni  Ni28  1  0.83295100  0.16704900  0.75253000  1
  Ni  Ni29  1  0.49894800  0.50105200  0.75293800  1
  Ni  Ni30  1  0.83285400  0.66722100  0.75018600  1
  Ni  Ni31  1  0.50226100  0.00296100  0.75261300  1
  Ni  Ni32  1  0.16744700  0.33545900  0.75245600  1
  Ni  Ni33  1  0.33277900  0.16714600  0.75018600  1
  Ni  Ni34  1  0.99703900  0.49773900  0.75261300  1
  Ni  Ni35  1  0.66454100  0.83255300  0.75245600  1
loop_
_geom_bond_atom_site_label_1
_geom_bond_atom_site_label_2
_geom_bond_distance
_geom_bond_site_symmetry_2
Nb0 Ni2 2.556007 1_555
Nb0 Ni5 2.556007 1_555
Nb0 Ni6 2.562025 1_655
Nb0 Ni6 2.562025 1_545
Nb0 Ni33 2.578726 1_555
Nb0 Ni30 2.578726 1_555
Nb0 Ni21 2.578726 1_555
Nb0 Ni24 2.578726 1_555
Nb0 Ni0 2.582480 1_555
Nb0 Ni3 2.582480 1_555
Nb0 Ni29 2.605486 1_555
Nb0 Ni20 2.605486 1_555
Nb1 Ni4 2.548010 1_555
Nb1 Ni1 2.548010 1_555
Nb1 Ni7 2.561794 1_565
Nb1 Ni7 2.561794 1_455
Nb1 Ni3 2.585824 1_455
Nb1 Ni0 2.585824 1_565
Nb1 Ni25 2.589743 1_455
Nb1 Ni34 2.589743 1_455
Nb1 Ni31 2.589743 1_565
Nb1 Ni22 2.589743 1_565
Nb1 Ni27 2.599424 1_555
Nb1 Ni18 2.599424 1_555
Nb2 Ni5 2.549122 1_655
Nb2 Ni2 2.549122 1_545
Nb2 Ni4 2.556458 1_545
Nb2 Ni1 2.556458 1_655
Nb2 Ni8 2.561780 1_545
Nb2 Ni8 2.561780 1_655
Nb2 Ni26 2.590149 1_545
Nb2 Ni23 2.590149 1_655
Nb2 Ni32 2.590149 1_655
Nb2 Ni35 2.590149 1_545
Nb2 Ni19 2.606199 1_555
Nb2 Ni28 2.606199 1_555
Nb3 Ni15 2.561872 1_455
Nb3 Ni15 2.561872 1_565
Nb3 Ni21 2.568936 1_455
Nb3 Ni24 2.568936 1_565
Nb3 Ni30 2.568936 1_454
Nb3 Ni33 2.568936 1_564
Nb3 Ni12 2.579516 1_455
Nb3 Ni9 2.579516 1_565
Nb3 Ni10 2.581888 1_455
Nb3 Ni13 2.581888 1_565
Nb3 Ni18 2.597268 1_555
Nb3 Ni27 2.597268 1_554
Ni0 Ni3 2.505660 1_445
Ni0 Ni6 2.523222 1_545
Ni0 Ni27 2.567598 1_545
Ni0 Ni18 2.567598 1_545
Ni0 Ni33 2.582190 1_555
Ni0 Ni24 2.582190 1_555
Ni0 Ti6 2.590175 1_555
Ni0 Ti3 2.590175 1_555
Ni0 Ni7 2.604601 1_555
Ni0 Ni3 2.617886 1_555
Ni1 Ni4 2.494111 1_445
Ni1 Ni7 2.522675 1_455
Ni1 Ni19 2.575935 1_455
Ni1 Ni28 2.575935 1_455
Ni1 Ti7 2.592730 1_555
Ni1 Ti4 2.592730 1_555
Ni1 Ni8 2.595464 1_555
Ni1 Ni25 2.599459 1_455
Ni1 Ni34 2.599459 1_455
Ni1 Ni4 2.629435 1_555
Ni2 Ni5 2.504338 1_555
Ni2 Ni8 2.514736 1_555
Ni2 Ni29 2.582049 1_555
Ni2 Ni20 2.582049 1_555
Ni2 Ni26 2.591525 1_555
Ni2 Ni35 2.591525 1_555
Ni2 Ti5 2.596041 1_565
Ni2 Ti2 2.596041 1_565
Ni2 Ni6 2.615693 1_655
Ni2 Ni5 2.619208 1_665
Ni3 Ni6 2.523222 1_655
Ni3 Ni30 2.582190 1_555
Ni3 Ti6 2.590175 1_555
Ni3 Ti3 2.590175 1_555
Ni3 Ni7 2.604601 1_555
Ni4 Ni7 2.522675 1_565
Ni4 Ti7 2.592730 1_555
Ni4 Ti4 2.592730 1_555
Ni4 Ni8 2.595464 1_555
Ni5 Ni8 2.514736 1_555
Ni5 Ti5 2.596041 1_455
Ni5 Ti2 2.596041 1_455
Ni5 Ni6 2.615693 1_545
Ni6 Ti5 2.606362 1_465
Ni6 Ti2 2.606362 1_465
Ni7 Ti6 2.596779 1_555
Ni7 Ti3 2.596779 1_555
Ni8 Ti7 2.600451 1_555
Ni8 Ti4 2.600451 1_555
Ni9 Ti1 2.572358 1_555
Ni9 Ti2 2.590213 1_455
Ni9 Ti5 2.590213 1_454
Ni10 Ni16 2.502271 1_655
Ni10 Ni13 2.506864 1_665
Ni10 Ni25 2.554490 1_555
Ni10 Ni34 2.554490 1_554
Ni10 Ni18 2.561536 1_655
Ni10 Ni27 2.561536 1_654
Ni10 Ti0 2.568719 1_555
Ni10 Ti3 2.594119 1_555
Ni10 Ti6 2.594119 1_554
Ni10 Ni13 2.616682 1_555
Ni10 Ni15 2.628529 1_555
Ni11 Ni14 2.490720 1_665
Ni11 Ni17 2.509063 1_565
Ni11 Ti0 2.537185 1_565
Ni11 Ti1 2.538606 1_555
Ni11 Ni19 2.539685 1_565
Ni11 Ni28 2.539685 1_564
Ni11 Ni26 2.561146 1_555
Ni11 Ni35 2.561146 1_554
Ni11 Ti4 2.591872 1_555
Ni11 Ti7 2.591872 1_554
Ni11 Ni16 2.611445 1_555
Ni11 Ni14 2.632826 1_555
Ni12 Ni9 2.480283 1_555
Ni12 Ni15 2.519067 1_555
Ni12 Ni20 2.535123 1_555
Ni12 Ni29 2.535123 1_554
Ni12 Ti1 2.572358 1_555
Ni12 Ni21 2.587805 1_555
Ni12 Ni30 2.587805 1_554
Ni12 Ti2 2.590213 1_565
Ni12 Ti5 2.590213 1_564
Ni12 Ni17 2.606098 1_565
Ni12 Ni9 2.643263 1_665
Ni13 Ni16 2.502271 1_545
Ni13 Ni22 2.554490 1_555
Ni13 Ni31 2.554490 1_554
Ni13 Ni18 2.561536 1_545
Ni13 Ni27 2.561536 1_544
Ni13 Ti0 2.568719 1_555
Ni13 Ti3 2.594119 1_555
Ni13 Ti6 2.594119 1_554
Ni13 Ni15 2.628529 1_555
Ni14 Ni17 2.509063 1_455
Ni14 Ti0 2.537185 1_455
Ni14 Ti1 2.538606 1_555
Ni14 Ni28 2.539685 1_454
Ni14 Ni19 2.539685 1_455
Ni14 Ni32 2.561146 1_554
Ni14 Ni23 2.561146 1_555
Ni14 Ti4 2.591872 1_555
Ni14 Ti7 2.591872 1_554
Ni14 Ni16 2.611445 1_555
Ni15 Ni9 2.519067 1_555
Ni15 Ni24 2.562934 1_555
Ni15 Ni21 2.562934 1_555
Ni15 Ni33 2.562934 1_554
Ni15 Ni30 2.562934 1_554
Ni15 Ti6 2.607115 1_554
Ni15 Ti3 2.607115 1_555
Ni16 Ni22 2.553245 1_565
Ni16 Ni31 2.553245 1_564
Ni16 Ni25 2.553245 1_455
Ni16 Ni34 2.553245 1_454
Ni16 Ti0 2.562166 1_455
Ni16 Ti0 2.562166 1_565
Ni16 Ti4 2.594812 1_555
Ni16 Ti7 2.594812 1_554
Ni17 Ni35 2.552113 1_544
Ni17 Ni26 2.552113 1_545
Ni17 Ni23 2.552113 1_655
Ni17 Ni32 2.552113 1_654
Ni17 Ti1 2.561784 1_545
Ni17 Ti1 2.561784 1_655
Ni17 Ti5 2.595616 1_554
Ni17 Ti2 2.595616 1_555
Ni17 Ni9 2.606098 1_655
Ni18 Ni25 2.561550 1_455
Ni18 Ni22 2.561550 1_565
Ni18 Ti3 2.561794 1_455
Ni18 Ti3 2.561794 1_565
Ni18 Ni3 2.567598 1_455
Ni18 Ni21 2.574433 1_455
Ni18 Ni24 2.574433 1_565
Ni19 Ni22 2.555296 1_555
Ni19 Ni25 2.555296 1_555
Ni19 Ti0 2.559476 1_555
Ni19 Ni23 2.559748 1_655
Ni19 Ni26 2.559748 1_545
Ni19 Ti4 2.561847 1_545
Ni19 Ti4 2.561847 1_655
Ni19 Ni4 2.575935 1_545
Ni20 Ni9 2.535123 1_555
Ni20 Ni26 2.550235 1_555
Ni20 Ni23 2.550235 1_555
Ni20 Ti2 2.561858 1_455
Ni20 Ti2 2.561858 1_565
Ni20 Ni24 2.575260 1_555
Ni20 Ni21 2.575260 1_555
Ni20 Ti1 2.580186 1_555
Ni20 Ni5 2.582049 1_555
Ni21 Ni24 2.561389 1_665
Ni21 Ni24 2.562157 1_555
Ni21 Ti3 2.566058 1_555
Ni21 Ni6 2.568438 1_655
Ni21 Ti2 2.569330 1_565
Ni21 Ni3 2.582190 1_555
Ni22 Ni25 2.535018 1_555
Ni22 Ti0 2.552427 1_555
Ni22 Ti3 2.556737 1_555
Ni22 Ti4 2.561401 1_545
Ni22 Ni7 2.579266 1_555
Ni22 Ni25 2.588528 1_445
Ni22 Ni4 2.599459 1_545
Ni23 Ti1 2.542565 1_555
Ni23 Ni26 2.546884 1_555
Ni23 Ti4 2.559709 1_555
Ni23 Ti2 2.563364 1_455
Ni23 Ni26 2.576662 1_445
Ni23 Ni8 2.581078 1_555
Ni23 Ni5 2.591525 1_555
Ni24 Ti3 2.566058 1_555
Ni24 Ni6 2.568438 1_545
Ni24 Ti2 2.569330 1_455
Ni24 Ni9 2.587805 1_555
Ni25 Ti0 2.552427 1_555
Ni25 Ti3 2.556737 1_555
Ni25 Ti4 2.561401 1_655
Ni25 Ni7 2.579266 1_555
Ni26 Ti1 2.542565 1_555
Ni26 Ti4 2.559709 1_555
Ni26 Ti2 2.563364 1_565
Ni26 Ni8 2.581078 1_555
Ni27 Ni34 2.561550 1_455
Ni27 Ni31 2.561550 1_565
Ni27 Ti6 2.561794 1_455
Ni27 Ti6 2.561794 1_565
Ni27 Ni3 2.567598 1_455
Ni27 Ni30 2.574433 1_455
Ni27 Ni33 2.574433 1_565
Ni28 Ni31 2.555296 1_555
Ni28 Ni34 2.555296 1_555
Ni28 Ti0 2.559476 1_556
Ni28 Ni32 2.559748 1_655
Ni28 Ni35 2.559748 1_545
Ni28 Ti7 2.561847 1_545
Ni28 Ti7 2.561847 1_655
Ni28 Ni4 2.575935 1_545
Ni29 Ni9 2.535123 1_556
Ni29 Ni35 2.550235 1_555
Ni29 Ni32 2.550235 1_555
Ni29 Ti5 2.561858 1_455
Ni29 Ti5 2.561858 1_565
Ni29 Ni33 2.575260 1_555
Ni29 Ni30 2.575260 1_555
Ni29 Ti1 2.580186 1_556
Ni29 Ni5 2.582049 1_555
Ni30 Ni33 2.561389 1_665
Ni30 Ni33 2.562157 1_555
Ni30 Ti6 2.566058 1_555
Ni30 Ni6 2.568438 1_655
Ni30 Ti5 2.569330 1_565
Ni31 Ni34 2.535018 1_555
Ni31 Ti0 2.552427 1_556
Ni31 Ti6 2.556737 1_555
Ni31 Ti7 2.561401 1_545
Ni31 Ni7 2.579266 1_555
Ni31 Ni34 2.588528 1_445
Ni31 Ni4 2.599459 1_545
Ni32 Ti1 2.542565 1_556
Ni32 Ni35 2.546884 1_555
Ni32 Ti7 2.559709 1_555
Ni32 Ti5 2.563364 1_455
Ni32 Ni35 2.576662 1_445
Ni32 Ni8 2.581078 1_555
Ni32 Ni5 2.591525 1_555
Ni33 Ti6 2.566058 1_555
Ni33 Ni6 2.568438 1_545
Ni33 Ti5 2.569330 1_455
Ni33 Ni9 2.587805 1_556
Ni34 Ti0 2.552427 1_556
Ni34 Ti6 2.556737 1_555
Ni34 Ti7 2.561401 1_655
Ni34 Ni7 2.579266 1_555
Ni35 Ti1 2.542565 1_556
Ni35 Ti7 2.559709 1_555
Ni35 Ti5 2.563364 1_565
Ni35 Ni8 2.581078 1_555
