# generated using pymatgen
data_Sr7SN6
_symmetry_space_group_name_H-M   'P 1'
_cell_length_a   11.89787182
_cell_length_b   6.80022791
_cell_length_c   13.43308657
_cell_angle_alpha   90.00000000
_cell_angle_beta   90.00000000
_cell_angle_gamma   90.00000000
_symmetry_Int_Tables_number   1
_chemical_formula_structural   Sr7SN6
_chemical_formula_sum   'Sr28 S4 N24'
_cell_volume   1086.84739241
_cell_formula_units_Z   4
loop_
 _symmetry_equiv_pos_site_id
 _symmetry_equiv_pos_as_xyz
  1  'x, y, z'
loop_
 _atom_site_type_symbol
 _atom_site_label
 _atom_site_symmetry_multiplicity
 _atom_site_fract_x
 _atom_site_fract_y
 _atom_site_fract_z
 _atom_site_occupancy
  Sr  Sr0  1  0.03764065  0.73855880  0.98616707  1
  Sr  Sr1  1  0.46235935  0.76144120  0.48616707  1
  Sr  Sr2  1  0.53764065  0.76144120  0.01383293  1
  Sr  Sr3  1  0.96235935  0.73855880  0.51383293  1
  Sr  Sr4  1  0.96235935  0.26144120  0.01383293  1
  Sr  Sr5  1  0.53764065  0.23855880  0.51383293  1
  Sr  Sr6  1  0.46235935  0.23855880  0.98616707  1
  Sr  Sr7  1  0.03764065  0.26144120  0.48616707  1
  Sr  Sr8  1  0.21460103  0.85370307  0.62038761  1
  Sr  Sr9  1  0.28539897  0.64629693  0.12038761  1
  Sr  Sr10  1  0.71460103  0.64629693  0.37961239  1
  Sr  Sr11  1  0.78539897  0.85370307  0.87961239  1
  Sr  Sr12  1  0.78539897  0.14629693  0.37961239  1
  Sr  Sr13  1  0.71460103  0.35370307  0.87961239  1
  Sr  Sr14  1  0.28539897  0.35370307  0.62038761  1
  Sr  Sr15  1  0.21460103  0.14629693  0.12038761  1
  Sr  Sr16  1  0.28661953  0.63342883  0.86210706  1
  Sr  Sr17  1  0.21338047  0.86657117  0.36210706  1
  Sr  Sr18  1  0.78661953  0.86657117  0.13789294  1
  Sr  Sr19  1  0.71338047  0.63342883  0.63789294  1
  Sr  Sr20  1  0.71338047  0.36657117  0.13789294  1
  Sr  Sr21  1  0.78661953  0.13342883  0.63789294  1
  Sr  Sr22  1  0.21338047  0.13342883  0.86210706  1
  Sr  Sr23  1  0.28661953  0.36657117  0.36210706  1
  Sr  Sr24  1  0.00000000  0.45389623  0.75000000  1
  Sr  Sr25  1  0.50000000  0.04610377  0.25000000  1
  Sr  Sr26  1  0.00000000  0.54610377  0.25000000  1
  Sr  Sr27  1  0.50000000  0.95389623  0.75000000  1
  S  S0  1  0.00000000  0.94558500  0.75000000  1
  S  S1  1  0.50000000  0.55441500  0.25000000  1
  S  S2  1  0.00000000  0.05441500  0.25000000  1
  S  S3  1  0.50000000  0.44558500  0.75000000  1
  N  N0  1  0.10107496  0.80869476  0.79156067  1
  N  N1  1  0.39892504  0.69130524  0.29156067  1
  N  N2  1  0.60107496  0.69130524  0.20843933  1
  N  N3  1  0.89892504  0.80869476  0.70843933  1
  N  N4  1  0.89892504  0.19130524  0.20843933  1
  N  N5  1  0.60107496  0.30869476  0.70843933  1
  N  N6  1  0.39892504  0.30869476  0.79156067  1
  N  N7  1  0.10107496  0.19130524  0.29156067  1
  N  N8  1  0.16411069  0.57397207  0.49489327  1
  N  N9  1  0.33588931  0.92602793  0.99489327  1
  N  N10  1  0.66411069  0.92602793  0.50510673  1
  N  N11  1  0.83588931  0.57397207  0.00510673  1
  N  N12  1  0.83588931  0.42602793  0.50510673  1
  N  N13  1  0.66411069  0.07397207  0.00510673  1
  N  N14  1  0.33588931  0.07397207  0.49489327  1
  N  N15  1  0.16411069  0.42602793  0.99489327  1
  N  N16  1  0.45838484  0.58437627  0.65793453  1
  N  N17  1  0.04161516  0.91562373  0.15793453  1
  N  N18  1  0.95838484  0.91562373  0.34206547  1
  N  N19  1  0.54161516  0.58437627  0.84206547  1
  N  N20  1  0.54161516  0.41562373  0.34206547  1
  N  N21  1  0.95838484  0.08437627  0.84206547  1
  N  N22  1  0.04161516  0.08437627  0.65793453  1
  N  N23  1  0.45838484  0.41562373  0.15793453  1
loop_
_geom_bond_atom_site_label_1
_geom_bond_atom_site_label_2
_geom_bond_distance
_geom_bond_site_symmetry_2
N0 S0 1.620007 1_555
N0 Sr16 2.681788 1_555
N0 Sr8 2.684265 1_555
N0 Sr22 2.749529 1_565
N0 Sr24 2.753008 1_555
N0 Sr0 2.762418 1_555
N1 S1 1.620007 1_555
N1 Sr17 2.681788 1_555
N1 Sr9 2.684265 1_555
N1 Sr23 2.749529 1_555
N1 Sr25 2.753008 1_565
N1 Sr1 2.762418 1_555
N2 S1 1.620007 1_555
N2 Sr18 2.681788 1_555
N2 Sr10 2.684265 1_555
N2 Sr20 2.749529 1_555
N2 Sr25 2.753008 1_565
N2 Sr2 2.762418 1_555
N3 S0 1.620007 1_655
N3 Sr19 2.681788 1_555
N3 Sr11 2.684265 1_555
N3 Sr21 2.749529 1_565
N3 Sr24 2.753008 1_655
N3 Sr3 2.762418 1_555
N4 S2 1.620007 1_655
N4 Sr20 2.681788 1_555
N4 Sr12 2.684265 1_555
N4 Sr18 2.749529 1_545
N4 Sr26 2.753008 1_655
N4 Sr4 2.762418 1_555
N5 S3 1.620007 1_555
N5 Sr21 2.681788 1_555
N5 Sr13 2.684265 1_555
N5 Sr19 2.749529 1_555
N5 Sr27 2.753008 1_545
N5 Sr5 2.762418 1_555
N6 S3 1.620007 1_555
N6 Sr22 2.681788 1_555
N6 Sr14 2.684265 1_555
N6 Sr16 2.749529 1_555
N6 Sr27 2.753008 1_545
N6 Sr6 2.762418 1_555
N7 S2 1.620007 1_555
N7 Sr23 2.681788 1_555
N7 Sr15 2.684265 1_555
N7 Sr17 2.749529 1_545
N7 Sr26 2.753008 1_555
N7 Sr7 2.762418 1_555
N8 Sr7 2.606675 1_555
N8 Sr8 2.611745 1_555
N8 Sr3 2.660709 1_455
N8 Sr14 2.677301 1_555
N8 Sr23 2.701004 1_555
N8 Sr17 2.735762 1_555
N9 Sr6 2.606675 1_565
N9 Sr9 2.611745 1_556
N9 Sr2 2.660709 1_556
N9 Sr15 2.677301 1_566
N9 Sr22 2.701004 1_565
N9 Sr16 2.735762 1_555
N10 Sr5 2.606675 1_565
N10 Sr10 2.611745 1_555
N10 Sr1 2.660709 1_555
N10 Sr12 2.677301 1_565
N10 Sr21 2.701004 1_565
N10 Sr19 2.735762 1_555
N11 Sr4 2.606675 1_555
N11 Sr11 2.611745 1_554
N11 Sr0 2.660709 1_654
N11 Sr13 2.677301 1_554
N11 Sr20 2.701004 1_555
N11 Sr18 2.735762 1_555
N12 Sr3 2.606675 1_555
N12 Sr12 2.611745 1_555
N12 Sr7 2.660709 1_655
N12 Sr10 2.677301 1_555
N12 Sr19 2.701004 1_555
N12 Sr21 2.735762 1_555
N13 Sr2 2.606675 1_545
N13 Sr13 2.611745 1_554
N13 Sr6 2.660709 1_554
N13 Sr11 2.677301 1_544
N13 Sr18 2.701004 1_545
N13 Sr20 2.735762 1_555
N14 Sr1 2.606675 1_545
N14 Sr14 2.611745 1_555
N14 Sr5 2.660709 1_555
N14 Sr8 2.677301 1_545
N14 Sr17 2.701004 1_545
N14 Sr23 2.735762 1_555
N15 Sr0 2.606675 1_555
N15 Sr15 2.611745 1_556
N15 Sr4 2.660709 1_456
N15 Sr9 2.677301 1_556
N15 Sr16 2.701004 1_555
N15 Sr22 2.735762 1_555
N16 S3 1.632612 1_555
N16 Sr1 2.603074 1_555
N16 Sr14 2.636480 1_555
N16 Sr27 2.844100 1_555
N16 Sr19 3.064038 1_555
N16 Sr5 3.188487 1_555
N17 S2 1.632612 1_565
N17 Sr0 2.603074 1_554
N17 Sr15 2.636480 1_565
N17 Sr26 2.844100 1_555
N17 Sr18 3.064038 1_455
N17 Sr4 3.188487 1_465
N18 S2 1.632612 1_665
N18 Sr3 2.603074 1_555
N18 Sr12 2.636480 1_565
N18 Sr26 2.844100 1_655
N18 Sr17 3.064038 1_655
N18 Sr7 3.188487 1_665
N19 S3 1.632612 1_555
N19 Sr2 2.603074 1_556
N19 Sr13 2.636480 1_555
N19 Sr27 2.844100 1_555
N19 Sr16 3.064038 1_555
N19 Sr6 3.188487 1_555
N20 S1 1.632612 1_555
N20 Sr5 2.603074 1_555
N20 Sr10 2.636480 1_555
N20 Sr25 2.844100 1_555
N20 Sr23 3.064038 1_555
N20 Sr1 3.188487 1_555
N21 S0 1.632612 1_645
N21 Sr4 2.603074 1_556
N21 Sr11 2.636480 1_545
N21 Sr24 2.844100 1_655
N21 Sr22 3.064038 1_655
N21 Sr0 3.188487 1_645
N22 S0 1.632612 1_545
N22 Sr7 2.603074 1_555
N22 Sr8 2.636480 1_545
N22 Sr24 2.844100 1_555
N22 Sr21 3.064038 1_455
N22 Sr3 3.188487 1_445
N23 S1 1.632612 1_555
N23 Sr6 2.603074 1_554
N23 Sr9 2.636480 1_555
N23 Sr25 2.844100 1_555
N23 Sr20 3.064038 1_555
N23 Sr2 3.188487 1_555
