# generated using pymatgen
data_Li4Mn3O7
_symmetry_space_group_name_H-M   'P 1'
_cell_length_a   6.50858700
_cell_length_b   6.54148829
_cell_length_c   6.92512442
_cell_angle_alpha   73.76831193
_cell_angle_beta   71.52196874
_cell_angle_gamma   72.19323162
_symmetry_Int_Tables_number   1
_chemical_formula_structural   Li4Mn3O7
_chemical_formula_sum   'Li8 Mn6 O14'
_cell_volume   260.74554872
_cell_formula_units_Z   2
loop_
 _symmetry_equiv_pos_site_id
 _symmetry_equiv_pos_as_xyz
  1  'x, y, z'
loop_
 _atom_site_type_symbol
 _atom_site_label
 _atom_site_symmetry_multiplicity
 _atom_site_fract_x
 _atom_site_fract_y
 _atom_site_fract_z
 _atom_site_occupancy
  Li  Li0  1  0.85462400  0.92594300  0.22166300  1
  Li  Li1  1  0.14537600  0.07405700  0.77833700  1
  Li  Li2  1  0.43534900  0.20891900  0.34909800  1
  Li  Li3  1  0.56465100  0.79108100  0.65090200  1
  Li  Li4  1  0.29767800  0.64448500  0.07439500  1
  Li  Li5  1  0.00000000  0.50000000  0.50000000  1
  Li  Li6  1  0.70232200  0.35551500  0.92560500  1
  Li  Li7  1  0.50000000  0.00000000  0.00000000  1
  Mn  Mn0  1  0.92142300  0.71410900  0.85359400  1
  Mn  Mn1  1  0.07857700  0.28589100  0.14640600  1
  Mn  Mn2  1  0.21574600  0.86131600  0.42007600  1
  Mn  Mn3  1  0.78425400  0.13868400  0.57992400  1
  Mn  Mn4  1  0.35972000  0.42063400  0.72237900  1
  Mn  Mn5  1  0.64028000  0.57936600  0.27762100  1
  O  O0  1  0.82417800  0.02891600  0.86032900  1
  O  O1  1  0.09866400  0.15758900  0.47655000  1
  O  O2  1  0.37455200  0.32542100  0.04470900  1
  O  O3  1  0.52234200  0.87864700  0.33248900  1
  O  O4  1  0.23983900  0.74434200  0.72115600  1
  O  O5  1  0.95072600  0.59715300  0.18591200  1
  O  O6  1  0.67361500  0.43673600  0.61987900  1
  O  O7  1  0.90133600  0.84241100  0.52345000  1
  O  O8  1  0.17582200  0.97108400  0.13967100  1
  O  O9  1  0.47765800  0.12135300  0.66751100  1
  O  O10  1  0.62544800  0.67457900  0.95529100  1
  O  O11  1  0.32638500  0.56326400  0.38012100  1
  O  O12  1  0.04927400  0.40284700  0.81408800  1
  O  O13  1  0.76016100  0.25565800  0.27884400  1
loop_
_geom_bond_atom_site_label_1
_geom_bond_atom_site_label_2
_geom_bond_distance
_geom_bond_site_symmetry_2
Li0 O8 2.076384 1_655
Li0 O7 2.102734 1_555
Li0 O5 2.110709 1_555
Li0 O3 2.141569 1_555
Li0 O13 2.167674 1_565
Li0 O0 2.458619 1_564
Li1 O0 2.076384 1_455
Li1 O1 2.102734 1_555
Li1 O12 2.110709 1_555
Li1 O9 2.141569 1_555
Li1 O4 2.167674 1_545
Li1 O8 2.458619 1_546
Li2 O3 2.085886 1_545
Li2 O13 2.111790 1_555
Li2 O2 2.151037 1_555
Li2 O1 2.179929 1_555
Li2 O9 2.201930 1_555
Li2 O11 2.257957 1_555
Li3 O9 2.085886 1_565
Li3 O4 2.111790 1_555
Li3 O10 2.151037 1_555
Li3 O7 2.179929 1_555
Li3 O3 2.201930 1_555
Li3 O6 2.257957 1_555
Li4 O2 2.045674 1_555
Li4 O10 2.078661 1_554
Li4 O11 2.088270 1_555
Li4 O8 2.161958 1_555
Li4 O5 2.231615 1_455
Li4 O4 2.468288 1_554
Li5 O6 2.144963 1_455
Li5 O11 2.144963 1_555
Li5 O7 2.171017 1_455
Li5 O1 2.171017 1_555
Li5 O5 2.186899 1_455
Li5 O12 2.186899 1_555
Li6 O10 2.045674 1_555
Li6 O2 2.078661 1_556
Li6 O6 2.088270 1_555
Li6 O0 2.161958 1_555
Li6 O12 2.231615 1_655
Li6 O13 2.468288 1_556
Li7 O0 2.066727 1_554
Li7 O8 2.066727 1_545
Li7 O2 2.106944 1_555
Li7 O10 2.106944 1_544
Li7 O9 2.252277 1_554
Li7 O3 2.252277 1_545
Mn0 O10 1.901755 1_555
Mn0 O0 1.970107 1_565
Mn0 O12 2.010945 1_655
Mn0 O4 2.029707 1_655
Mn0 O7 2.235676 1_555
Mn0 O5 2.263308 1_556
Mn1 O2 1.901755 1_555
Mn1 O8 1.970107 1_545
Mn1 O5 2.010945 1_455
Mn1 O13 2.029707 1_455
Mn1 O1 2.235676 1_555
Mn1 O12 2.263308 1_554
Mn2 O3 1.922366 1_555
Mn2 O11 1.926925 1_555
Mn2 O8 1.944245 1_555
Mn2 O1 1.954812 1_565
Mn2 O7 1.972832 1_455
Mn2 O4 2.049230 1_555
Mn3 O9 1.922366 1_555
Mn3 O6 1.926925 1_555
Mn3 O0 1.944245 1_555
Mn3 O7 1.954812 1_545
Mn3 O1 1.972832 1_655
Mn3 O13 2.049230 1_555
Mn4 O12 1.946437 1_555
Mn4 O6 1.964541 1_555
Mn4 O9 1.969318 1_555
Mn4 O4 2.019023 1_555
Mn4 O2 2.168511 1_556
Mn4 O11 2.345468 1_555
Mn5 O5 1.946437 1_555
Mn5 O11 1.964541 1_555
Mn5 O3 1.969318 1_555
Mn5 O13 2.019023 1_555
Mn5 O10 2.168511 1_554
Mn5 O6 2.345468 1_555
