# generated using pymatgen
data_Cs3FeS3
_symmetry_space_group_name_H-M   'P 1'
_cell_length_a   10.50073588
_cell_length_b   10.50073588
_cell_length_c   13.52621264
_cell_angle_alpha   90.00000000
_cell_angle_beta   90.00000000
_cell_angle_gamma   139.17742963
_symmetry_Int_Tables_number   1
_chemical_formula_structural   Cs3FeS3
_chemical_formula_sum   'Cs12 Fe4 S12'
_cell_volume   975.00451150
_cell_formula_units_Z   4
loop_
 _symmetry_equiv_pos_site_id
 _symmetry_equiv_pos_as_xyz
  1  'x, y, z'
loop_
 _atom_site_type_symbol
 _atom_site_label
 _atom_site_symmetry_multiplicity
 _atom_site_fract_x
 _atom_site_fract_y
 _atom_site_fract_z
 _atom_site_occupancy
  Cs  Cs0  1  0.87258144  0.87258144  0.68156960  1
  Cs  Cs1  1  0.12741856  0.12741856  0.31843040  1
  Cs  Cs2  1  0.62741856  0.62741856  0.18156960  1
  Cs  Cs3  1  0.37258144  0.37258144  0.81843040  1
  Cs  Cs4  1  0.17573000  0.52919372  0.12652706  1
  Cs  Cs5  1  0.47080628  0.82427000  0.87347294  1
  Cs  Cs6  1  0.97080628  0.32427000  0.62652706  1
  Cs  Cs7  1  0.67573000  0.02919372  0.37347294  1
  Cs  Cs8  1  0.82427000  0.47080628  0.87347294  1
  Cs  Cs9  1  0.52919372  0.17573000  0.12652706  1
  Cs  Cs10  1  0.02919372  0.67573000  0.37347294  1
  Cs  Cs11  1  0.32427000  0.97080628  0.62652706  1
  Fe  Fe0  1  0.91999023  0.08000977  -0.00000000  1
  Fe  Fe1  1  0.41999023  0.58000977  0.50000000  1
  Fe  Fe2  1  0.08000977  0.91999023  -0.00000000  1
  Fe  Fe3  1  0.58000977  0.41999023  0.50000000  1
  S  S0  1  0.29350301  0.29350301  0.56388146  1
  S  S1  1  0.70649699  0.70649699  0.43611854  1
  S  S2  1  0.20649699  0.20649699  0.06388146  1
  S  S3  1  0.79350301  0.79350301  0.93611854  1
  S  S4  1  0.72176156  0.01091012  0.11677522  1
  S  S5  1  0.98908988  0.27823844  0.88322478  1
  S  S6  1  0.48908988  0.77823844  0.61677522  1
  S  S7  1  0.22176156  0.51091012  0.38322478  1
  S  S8  1  0.27823844  0.98908988  0.88322478  1
  S  S9  1  0.01091012  0.72176156  0.11677522  1
  S  S10  1  0.51091012  0.22176156  0.38322478  1
  S  S11  1  0.77823844  0.48908988  0.61677522  1
loop_
_geom_bond_atom_site_label_1
_geom_bond_atom_site_label_2
_geom_bond_distance
_geom_bond_site_symmetry_2
Cs0 S6 3.453693 1_555
Cs0 S11 3.453693 1_555
Cs0 S0 3.469719 1_665
Cs0 S3 3.491461 1_555
Cs0 S1 3.535867 1_555
Cs1 S10 3.453693 1_555
Cs1 S7 3.453693 1_555
Cs1 S1 3.469719 1_445
Cs1 S2 3.491461 1_555
Cs1 S0 3.535867 1_555
Cs2 S4 3.453693 1_565
Cs2 S9 3.453693 1_655
Cs2 S2 3.469719 1_555
Cs2 S1 3.491461 1_555
Cs2 S3 3.535867 1_554
Cs3 S5 3.453693 1_455
Cs3 S8 3.453693 1_545
Cs3 S3 3.469719 1_555
Cs3 S0 3.491461 1_555
Cs3 S2 3.535867 1_556
Cs4 S9 3.521145 1_555
Cs4 S7 3.530831 1_555
Cs4 S4 3.618809 1_455
Cs4 S5 3.714733 1_454
Cs4 S2 3.736520 1_555
Cs4 S4 3.818949 1_565
Cs5 S8 3.521145 1_555
Cs5 S6 3.530831 1_555
Cs5 S5 3.618809 1_565
Cs5 S4 3.714733 1_566
Cs5 S3 3.736520 1_555
Cs5 S5 3.818949 1_455
Cs6 S11 3.521145 1_555
Cs6 S5 3.530831 1_555
Cs6 S6 3.618809 1_655
Cs6 S7 3.714733 1_655
Cs6 S0 3.736520 1_655
Cs6 S6 3.818949 1_545
Cs7 S10 3.521145 1_555
Cs7 S4 3.530831 1_555
Cs7 S7 3.618809 1_545
Cs7 S6 3.714733 1_545
Cs7 S1 3.736520 1_545
Cs7 S7 3.818949 1_655
Cs8 S5 3.521145 1_555
Cs8 S11 3.530831 1_555
Cs8 S8 3.618809 1_655
Cs8 S9 3.714733 1_656
Cs8 S3 3.736520 1_555
Cs8 S8 3.818949 1_545
Cs9 S4 3.521145 1_555
Cs9 S10 3.530831 1_555
Cs9 S9 3.618809 1_545
Cs9 S8 3.714733 1_544
Cs9 S2 3.736520 1_555
Cs9 S9 3.818949 1_655
Cs10 S7 3.521145 1_555
Cs10 S9 3.530831 1_555
Cs10 S10 3.618809 1_455
Cs10 S11 3.714733 1_455
Cs10 S1 3.736520 1_455
Cs10 S10 3.818949 1_565
Cs11 S6 3.521145 1_555
Cs11 S8 3.530831 1_555
Cs11 S11 3.618809 1_565
Cs11 S10 3.714733 1_565
Cs11 S0 3.736520 1_565
Cs11 S11 3.818949 1_455
Fe0 S5 2.251296 1_554
Fe0 S4 2.251296 1_555
Fe0 S3 2.348242 1_544
Fe0 S2 2.348242 1_655
Fe1 S6 2.251296 1_555
Fe1 S7 2.251296 1_555
Fe1 S0 2.348242 1_555
Fe1 S1 2.348242 1_555
Fe2 S8 2.251296 1_554
Fe2 S9 2.251296 1_555
Fe2 S2 2.348242 1_565
Fe2 S3 2.348242 1_454
Fe3 S11 2.251296 1_555
Fe3 S10 2.251296 1_555
Fe3 S1 2.348242 1_555
Fe3 S0 2.348242 1_555
