# generated using pymatgen
data_YbZnPd
_symmetry_space_group_name_H-M   'P 1'
_cell_length_a   4.37309300
_cell_length_b   6.98836400
_cell_length_c   7.77784100
_cell_angle_alpha   90.00000000
_cell_angle_beta   90.00000000
_cell_angle_gamma   90.00000000
_symmetry_Int_Tables_number   1
_chemical_formula_structural   YbZnPd
_chemical_formula_sum   'Yb4 Zn4 Pd4'
_cell_volume   237.69677637
_cell_formula_units_Z   4
loop_
 _symmetry_equiv_pos_site_id
 _symmetry_equiv_pos_as_xyz
  1  'x, y, z'
loop_
 _atom_site_type_symbol
 _atom_site_label
 _atom_site_symmetry_multiplicity
 _atom_site_fract_x
 _atom_site_fract_y
 _atom_site_fract_z
 _atom_site_occupancy
  Yb  Yb0  1  0.25000000  0.51635000  0.19272900  1
  Yb  Yb1  1  0.75000000  0.48365000  0.80727100  1
  Yb  Yb2  1  0.25000000  0.01635000  0.30727100  1
  Yb  Yb3  1  0.75000000  0.98365000  0.69272900  1
  Zn  Zn0  1  0.25000000  0.66194500  0.57380600  1
  Zn  Zn1  1  0.75000000  0.33805500  0.42619400  1
  Zn  Zn2  1  0.25000000  0.16194500  0.92619400  1
  Zn  Zn3  1  0.75000000  0.83805500  0.07380600  1
  Pd  Pd0  1  0.75000000  0.71823200  0.39260500  1
  Pd  Pd1  1  0.25000000  0.28176800  0.60739500  1
  Pd  Pd2  1  0.75000000  0.21823200  0.10739500  1
  Pd  Pd3  1  0.25000000  0.78176800  0.89260500  1
loop_
_geom_bond_atom_site_label_1
_geom_bond_atom_site_label_2
_geom_bond_distance
_geom_bond_site_symmetry_2
Yb0 Zn1 3.103353 1_555
Yb0 Zn1 3.103353 1_455
Yb0 Zn0 3.133733 1_555
Yb0 Zn2 3.229815 1_554
Yb0 Zn3 3.269696 1_455
Yb0 Zn3 3.269696 1_555
Yb1 Zn0 3.103353 1_655
Yb1 Zn0 3.103353 1_555
Yb1 Zn1 3.133733 1_555
Yb1 Zn3 3.229815 1_556
Yb1 Zn2 3.269696 1_655
Yb1 Zn2 3.269696 1_555
Yb2 Zn3 3.103353 1_545
Yb2 Zn3 3.103353 1_445
Yb2 Zn2 3.133733 1_554
Yb2 Zn0 3.229815 1_545
Yb2 Zn1 3.269696 1_555
Yb2 Zn1 3.269696 1_455
Yb3 Zn2 3.103353 1_565
Yb3 Zn2 3.103353 1_665
Yb3 Zn3 3.133733 1_556
Yb3 Zn1 3.229815 1_565
Yb3 Zn0 3.269696 1_655
Yb3 Zn0 3.269696 1_555
Pd0 Zn3 2.617144 1_555
Pd0 Zn0 2.630967 1_655
Pd0 Zn0 2.630967 1_555
Pd0 Zn1 2.669629 1_555
Pd0 Yb3 2.981519 1_555
Pd0 Yb0 3.031205 1_555
Pd0 Yb0 3.031205 1_655
Pd0 Yb2 3.092229 1_565
Pd0 Yb2 3.092229 1_665
Pd1 Zn2 2.617144 1_555
Pd1 Zn1 2.630967 1_555
Pd1 Zn1 2.630967 1_455
Pd1 Zn0 2.669629 1_555
Pd1 Yb2 2.981519 1_555
Pd1 Yb1 3.031205 1_455
Pd1 Yb1 3.031205 1_555
Pd1 Yb3 3.092229 1_545
Pd1 Yb3 3.092229 1_445
Pd2 Zn1 2.617144 1_555
Pd2 Zn2 2.630967 1_554
Pd2 Zn2 2.630967 1_654
Pd2 Zn3 2.669629 1_545
Pd2 Yb1 2.981519 1_554
Pd2 Yb2 3.031205 1_555
Pd2 Yb2 3.031205 1_655
Pd2 Yb0 3.092229 1_555
Pd2 Yb0 3.092229 1_655
Pd3 Zn0 2.617144 1_555
Pd3 Zn3 2.630967 1_456
Pd3 Zn3 2.630967 1_556
Pd3 Zn2 2.669629 1_565
Pd3 Yb0 2.981519 1_556
Pd3 Yb3 3.031205 1_555
Pd3 Yb3 3.031205 1_455
Pd3 Yb1 3.092229 1_555
Pd3 Yb1 3.092229 1_455
