# generated using pymatgen
data_Sr2CuH6
_symmetry_space_group_name_H-M   'P 1'
_cell_length_a   7.31600872
_cell_length_b   7.31600872
_cell_length_c   5.46324700
_cell_angle_alpha   90.00000000
_cell_angle_beta   90.00000000
_cell_angle_gamma   136.21515687
_symmetry_Int_Tables_number   1
_chemical_formula_structural   Sr2CuH6
_chemical_formula_sum   'Sr4 Cu2 H12'
_cell_volume   202.33702978
_cell_formula_units_Z   2
loop_
 _symmetry_equiv_pos_site_id
 _symmetry_equiv_pos_as_xyz
  1  'x, y, z'
loop_
 _atom_site_type_symbol
 _atom_site_label
 _atom_site_symmetry_multiplicity
 _atom_site_fract_x
 _atom_site_fract_y
 _atom_site_fract_z
 _atom_site_occupancy
  Sr  Sr0  1  0.14496500  0.85503500  0.50000000  1
  Sr  Sr1  1  0.64496500  0.35503500  0.00000000  1
  Sr  Sr2  1  0.85503500  0.14496500  0.50000000  1
  Sr  Sr3  1  0.35503500  0.64496500  0.00000000  1
  Cu  Cu0  1  0.50000000  0.50000000  0.50000000  1
  Cu  Cu1  1  0.00000000  0.00000000  0.00000000  1
  H  H0  1  0.00007200  0.50007200  0.75000000  1
  H  H1  1  0.49992800  0.99992800  0.25000000  1
  H  H2  1  0.99992800  0.49992800  0.25000000  1
  H  H3  1  0.50007200  0.00007200  0.75000000  1
  H  H4  1  0.38373600  0.61626400  0.50000000  1
  H  H5  1  0.88373600  0.11626400  0.00000000  1
  H  H6  1  0.61626400  0.38373600  0.50000000  1
  H  H7  1  0.11626400  0.88373600  0.00000000  1
  H  H8  1  0.26232000  0.26232000  0.73795800  1
  H  H9  1  0.73768000  0.73768000  0.26204200  1
  H  H10  1  0.23768000  0.23768000  0.23795800  1
  H  H11  1  0.76232000  0.76232000  0.76204200  1
loop_
_geom_bond_atom_site_label_1
_geom_bond_atom_site_label_2
_geom_bond_distance
_geom_bond_site_symmetry_2
Cu0 H6 1.578497 1_555
Cu0 H4 1.578497 1_555
Cu0 H8 1.836181 1_555
Cu0 H9 1.836181 1_555
Cu0 H10 2.024275 1_555
Cu0 H11 2.024275 1_555
Cu1 H7 1.578497 1_545
Cu1 H5 1.578497 1_455
Cu1 H11 1.836181 1_444
Cu1 H10 1.836181 1_555
Cu1 H9 2.024275 1_445
Cu1 H8 2.024275 1_554
H0 Sr3 2.399647 1_556
H0 Sr0 2.399647 1_555
H0 Sr2 2.400094 1_455
H0 Sr1 2.400094 1_456
H1 Sr0 2.399647 1_555
H1 Sr3 2.399647 1_555
H1 Sr1 2.400094 1_565
H1 Sr2 2.400094 1_565
H2 Sr2 2.399647 1_555
H2 Sr1 2.399647 1_555
H2 Sr3 2.400094 1_655
H2 Sr0 2.400094 1_655
H3 Sr1 2.399647 1_556
H3 Sr2 2.399647 1_555
H3 Sr0 2.400094 1_545
H3 Sr3 2.400094 1_546
H4 Sr2 2.755575 1_565
H4 Sr2 2.755575 1_455
H4 Sr3 2.759277 1_555
H4 Sr3 2.759277 1_556
H5 Sr3 2.755575 1_655
H5 Sr3 2.755575 1_545
H5 Sr2 2.759277 1_554
H5 Sr2 2.759277 1_555
H6 Sr0 2.755575 1_655
H6 Sr0 2.755575 1_545
H6 Sr1 2.759277 1_555
H6 Sr1 2.759277 1_556
H7 Sr1 2.755575 1_455
H7 Sr1 2.755575 1_565
H7 Sr0 2.759277 1_554
H7 Sr0 2.759277 1_555
H8 Sr1 2.757655 1_556
H8 Sr3 2.757655 1_556
H8 Sr2 2.758976 1_455
H8 Sr0 2.758976 1_545
H9 Sr1 2.757655 1_555
H9 Sr3 2.757655 1_555
H9 Sr0 2.758976 1_655
H9 Sr2 2.758976 1_565
H10 Sr2 2.757655 1_455
H10 Sr0 2.757655 1_545
H10 Sr1 2.758976 1_555
H10 Sr3 2.758976 1_555
H11 Sr0 2.757655 1_655
H11 Sr2 2.757655 1_565
H11 Sr3 2.758976 1_556
H11 Sr1 2.758976 1_556
