# generated using pymatgen
data_Mn3(GaN2)2
_symmetry_space_group_name_H-M   'P 1'
_cell_length_a   6.75276465
_cell_length_b   6.59073951
_cell_length_c   5.19449763
_cell_angle_alpha   89.99999602
_cell_angle_beta   75.96130334
_cell_angle_gamma   119.20940858
_symmetry_Int_Tables_number   1
_chemical_formula_structural   Mn3(GaN2)2
_chemical_formula_sum   'Mn6 Ga4 N8'
_cell_volume   193.83842500
_cell_formula_units_Z   2
loop_
 _symmetry_equiv_pos_site_id
 _symmetry_equiv_pos_as_xyz
  1  'x, y, z'
loop_
 _atom_site_type_symbol
 _atom_site_label
 _atom_site_symmetry_multiplicity
 _atom_site_fract_x
 _atom_site_fract_y
 _atom_site_fract_z
 _atom_site_occupancy
  Mn  Mn0  1  0.15795100  0.97040700  0.86807800  1
  Mn  Mn1  1  0.84204900  0.81245700  0.63192200  1
  Mn  Mn2  1  0.84204900  0.02959300  0.13192200  1
  Mn  Mn3  1  0.15795100  0.18754300  0.36807800  1
  Mn  Mn4  1  0.00000000  0.56655900  0.75000000  1
  Mn  Mn5  1  0.00000000  0.43344100  0.25000000  1
  Ga  Ga0  1  0.60153900  0.16473100  0.73430700  1
  Ga  Ga1  1  0.39846100  0.56319300  0.76569300  1
  Ga  Ga2  1  0.39846100  0.83526900  0.26569300  1
  Ga  Ga3  1  0.60153900  0.43680700  0.23430700  1
  N  N0  1  0.18934700  0.94141300  0.50048100  1
  N  N1  1  0.81065300  0.75206700  0.99951900  1
  N  N2  1  0.81065300  0.05858700  0.49951900  1
  N  N3  1  0.18934700  0.24793300  0.00048100  1
  N  N4  1  0.78990600  0.28376500  0.01286100  1
  N  N5  1  0.21009400  0.49386000  0.48713900  1
  N  N6  1  0.21009400  0.71623500  0.98713900  1
  N  N7  1  0.78990600  0.50614000  0.51286100  1
loop_
_geom_bond_atom_site_label_1
_geom_bond_atom_site_label_2
_geom_bond_distance
_geom_bond_site_symmetry_2
Mn0 N3 1.885694 1_566
Mn0 N0 1.889635 1_555
Mn0 N1 1.991563 1_455
Mn0 N6 1.998513 1_555
Mn1 N2 1.885694 1_565
Mn1 N1 1.889635 1_555
Mn1 N0 1.991565 1_655
Mn1 N7 1.998525 1_555
Mn2 N1 1.885694 1_544
Mn2 N2 1.889635 1_555
Mn2 N3 1.991563 1_655
Mn2 N4 1.998513 1_555
Mn3 N0 1.885694 1_545
Mn3 N3 1.889635 1_555
Mn3 N2 1.991565 1_455
Mn3 N5 1.998525 1_555
Mn4 N5 1.957131 1_555
Mn4 N4 1.957135 1_456
Mn4 N7 1.996288 1_455
Mn4 N6 1.996289 1_555
Mn4 N0 2.351885 1_555
Mn4 N1 2.351890 1_455
Mn5 N7 1.957131 1_455
Mn5 N6 1.957135 1_554
Mn5 N5 1.996288 1_555
Mn5 N4 1.996289 1_455
Mn5 N2 2.351885 1_455
Mn5 N3 2.351890 1_555
Ga0 N2 2.024716 1_555
Ga0 N4 2.060602 1_556
Ga0 N7 2.121539 1_555
Ga1 N3 2.024725 1_556
Ga1 N5 2.060602 1_555
Ga1 N6 2.121539 1_555
Ga2 N0 2.024716 1_555
Ga2 N6 2.060602 1_554
Ga2 N5 2.121539 1_555
Ga3 N1 2.024725 1_554
Ga3 N7 2.060602 1_555
Ga3 N4 2.121539 1_555
