# generated using pymatgen
data_SrZr2SnO6
_symmetry_space_group_name_H-M   'P 1'
_cell_length_a   4.19440922
_cell_length_b   4.19440922
_cell_length_c   8.39502586
_cell_angle_alpha   90.00000000
_cell_angle_beta   90.00000000
_cell_angle_gamma   90.00000000
_symmetry_Int_Tables_number   1
_chemical_formula_structural   SrZr2SnO6
_chemical_formula_sum   'Sr1 Zr2 Sn1 O6'
_cell_volume   147.69426673
_cell_formula_units_Z   1
loop_
 _symmetry_equiv_pos_site_id
 _symmetry_equiv_pos_as_xyz
  1  'x, y, z'
loop_
 _atom_site_type_symbol
 _atom_site_label
 _atom_site_symmetry_multiplicity
 _atom_site_fract_x
 _atom_site_fract_y
 _atom_site_fract_z
 _atom_site_occupancy
  Sr  Sr0  1  0.50000000  0.50000000  0.50000000  1
  Zr  Zr0  1  -0.00000000  -0.00000000  0.75075414  1
  Zr  Zr1  1  0.00000000  0.00000000  0.24924586  1
  Sn  Sn0  1  0.50000000  0.50000000  0.00000000  1
  O  O0  1  0.50000000  0.00000000  0.74534483  1
  O  O1  1  0.50000000  -0.00000000  0.25465517  1
  O  O2  1  -0.00000000  -0.00000000  0.50000000  1
  O  O3  1  -0.00000000  -0.00000000  0.00000000  1
  O  O4  1  0.00000000  0.50000000  0.74534483  1
  O  O5  1  -0.00000000  0.50000000  0.25465517  1
loop_
_geom_bond_atom_site_label_1
_geom_bond_atom_site_label_2
_geom_bond_distance
_geom_bond_site_symmetry_2
O0 Zr0 2.097696 1_655
O0 Zr0 2.097696 1_555
O0 Sr0 2.939478 1_545
O0 Sr0 2.939478 1_555
O1 Zr1 2.097696 1_655
O1 Zr1 2.097696 1_555
O1 Sr0 2.939478 1_555
O1 Sr0 2.939478 1_545
O2 Zr1 2.105087 1_555
O2 Zr0 2.105087 1_555
O2 Sr0 2.965895 1_445
O2 Sr0 2.965895 1_545
O2 Sr0 2.965895 1_455
O2 Sr0 2.965895 1_555
O3 Zr0 2.092425 1_554
O3 Zr1 2.092425 1_555
O4 Zr0 2.097696 1_565
O4 Zr0 2.097696 1_555
O4 Sr0 2.939478 1_555
O4 Sr0 2.939478 1_455
O5 Zr1 2.097696 1_565
O5 Zr1 2.097696 1_555
O5 Sr0 2.939478 1_555
O5 Sr0 2.939478 1_455
