# generated using pymatgen
data_H(WO3)4
_symmetry_space_group_name_H-M   'P 1'
_cell_length_a   6.70638406
_cell_length_b   6.70638406
_cell_length_c   6.70638406
_cell_angle_alpha   109.84913585
_cell_angle_beta   109.84913585
_cell_angle_gamma   108.71800566
_symmetry_Int_Tables_number   1
_chemical_formula_structural   H(WO3)4
_chemical_formula_sum   'H1 W4 O12'
_cell_volume   232.15987782
_cell_formula_units_Z   1
loop_
 _symmetry_equiv_pos_site_id
 _symmetry_equiv_pos_as_xyz
  1  'x, y, z'
loop_
 _atom_site_type_symbol
 _atom_site_label
 _atom_site_symmetry_multiplicity
 _atom_site_fract_x
 _atom_site_fract_y
 _atom_site_fract_z
 _atom_site_occupancy
  H  H0  1  0.00000000  0.00000000  0.00000000  1
  W  W0  1  0.48063900  0.97892600  0.00000000  1
  W  W1  1  0.97892600  0.48063900  0.00000000  1
  W  W2  1  0.02107400  0.02107400  0.50171300  1
  W  W3  1  0.51936100  0.51936100  0.49828700  1
  O  O0  1  0.74552000  0.24665600  0.00000000  1
  O  O1  1  0.24665600  0.74552000  0.00000000  1
  O  O2  1  0.75334400  0.75334400  0.49886400  1
  O  O3  1  0.25448000  0.25448000  0.50113600  1
  O  O4  1  0.25014000  0.99990100  0.74963100  1
  O  O5  1  0.74986000  0.49949100  0.74976100  1
  O  O6  1  0.25027100  0.50050900  0.25036900  1
  O  O7  1  0.74972900  0.00009900  0.25023900  1
  O  O8  1  0.99990100  0.25014000  0.74963100  1
  O  O9  1  0.49949100  0.74986000  0.74976100  1
  O  O10  1  0.50050900  0.25027100  0.25036900  1
  O  O11  1  0.00009900  0.74972900  0.25023900  1
loop_
_geom_bond_atom_site_label_1
_geom_bond_atom_site_label_2
_geom_bond_distance
_geom_bond_site_symmetry_2
O0 W1 1.826485 1_555
O0 W0 2.081417 1_545
O1 W0 1.826485 1_555
O1 W1 2.081417 1_455
O2 W3 1.826485 1_555
O2 W2 2.081417 1_665
O3 W2 1.826485 1_555
O3 W3 2.081417 1_555
O4 W2 1.926206 1_565
O4 W0 1.940609 1_556
O5 W1 1.926206 1_556
O5 W3 1.940609 1_555
O6 W3 1.926201 1_555
O6 W1 1.940613 1_455
O7 W0 1.926201 1_545
O7 W2 1.940613 1_655
O8 W2 1.926206 1_655
O8 W1 1.940609 1_556
O9 W0 1.926206 1_556
O9 W3 1.940609 1_555
O10 W3 1.926201 1_555
O10 W0 1.940613 1_545
O11 W1 1.926201 1_455
O11 W2 1.940613 1_565
