# generated using pymatgen
data_Ba2U(PO5)2
_symmetry_space_group_name_H-M   'P 1'
_cell_length_a   6.84068100
_cell_length_b   8.80010645
_cell_length_c   9.17649618
_cell_angle_alpha   105.20768523
_cell_angle_beta   93.54910829
_cell_angle_gamma   111.72644259
_symmetry_Int_Tables_number   1
_chemical_formula_structural   Ba2U(PO5)2
_chemical_formula_sum   'Ba4 U2 P4 O20'
_cell_volume   487.34775625
_cell_formula_units_Z   2
loop_
 _symmetry_equiv_pos_site_id
 _symmetry_equiv_pos_as_xyz
  1  'x, y, z'
loop_
 _atom_site_type_symbol
 _atom_site_label
 _atom_site_symmetry_multiplicity
 _atom_site_fract_x
 _atom_site_fract_y
 _atom_site_fract_z
 _atom_site_occupancy
  Ba  Ba0  1  0.33940900  0.95064300  0.23826300  1
  Ba  Ba1  1  0.66059100  0.04935700  0.76173700  1
  Ba  Ba2  1  0.68777600  0.58196400  0.29479300  1
  Ba  Ba3  1  0.31222400  0.41803600  0.70520700  1
  U  U0  1  0.00565000  0.25277700  0.21788500  1
  U  U1  1  0.99435000  0.74722300  0.78211500  1
  P  P0  1  0.27839700  0.68819300  0.46568200  1
  P  P1  1  0.72160300  0.31180700  0.53431800  1
  P  P2  1  0.29582900  0.18209900  0.96805100  1
  P  P3  1  0.70417100  0.81790100  0.03194900  1
  O  O0  1  0.50691000  0.80718700  0.46050500  1
  O  O1  1  0.49309000  0.19281300  0.53949500  1
  O  O2  1  0.24985600  0.71392500  0.63841100  1
  O  O3  1  0.75014400  0.28607500  0.36158900  1
  O  O4  1  0.25460400  0.49505600  0.40323600  1
  O  O5  1  0.74539600  0.50494400  0.59676400  1
  O  O6  1  0.10871800  0.71830300  0.37503400  1
  O  O7  1  0.89128200  0.28169700  0.62496600  1
  O  O8  1  0.34496700  0.25679800  0.14835000  1
  O  O9  1  0.65503300  0.74320200  0.85165000  1
  O  O10  1  0.28687000  0.99296600  0.92616700  1
  O  O11  1  0.71313000  0.00703400  0.07383300  1
  O  O12  1  0.06192400  0.12980000  0.33566100  1
  O  O13  1  0.93807600  0.87020000  0.66433900  1
  O  O14  1  0.47082000  0.28604700  0.89494700  1
  O  O15  1  0.52918000  0.71395300  0.10505300  1
  O  O16  1  0.92828000  0.38670800  0.12436900  1
  O  O17  1  0.07172000  0.61329200  0.87563100  1
  O  O18  1  0.07132500  0.17576300  0.92242900  1
  O  O19  1  0.92867500  0.82423700  0.07757100  1
loop_
_geom_bond_atom_site_label_1
_geom_bond_atom_site_label_2
_geom_bond_distance
_geom_bond_site_symmetry_2
Ba0 O6 2.729239 1_555
Ba0 O19 2.760210 1_455
Ba0 O1 2.859874 1_565
Ba0 O15 2.894907 1_555
Ba0 O12 2.928142 1_565
Ba0 O11 2.998318 1_565
Ba0 O10 3.000227 1_554
Ba0 O8 3.005860 1_565
Ba0 O0 3.032844 1_555
Ba0 O3 3.098700 1_565
Ba1 O7 2.729239 1_555
Ba1 O18 2.760210 1_655
Ba1 O0 2.859874 1_545
Ba1 O14 2.894907 1_555
Ba1 O13 2.928142 1_545
Ba1 O10 2.998318 1_545
Ba1 O11 3.000227 1_556
Ba1 O9 3.005860 1_545
Ba1 O1 3.032844 1_555
Ba1 O2 3.098700 1_545
Ba2 O6 2.643783 1_655
Ba2 O15 2.705147 1_555
Ba2 O8 2.849157 1_555
Ba2 O0 2.870306 1_555
Ba2 O3 2.994198 1_555
Ba2 O16 3.017716 1_555
Ba2 O5 3.056356 1_555
Ba2 O4 3.072824 1_555
Ba2 O19 3.357041 1_555
Ba3 O7 2.643783 1_455
Ba3 O14 2.705147 1_555
Ba3 O9 2.849157 1_555
Ba3 O1 2.870306 1_555
Ba3 O2 2.994198 1_555
Ba3 O17 3.017716 1_555
Ba3 O4 3.056356 1_555
Ba3 O5 3.072824 1_555
Ba3 O18 3.357041 1_555
O0 P0 1.538102 1_555
O1 P1 1.538102 1_555
O2 P0 1.576233 1_555
O2 U1 2.311184 1_455
O3 P1 1.576233 1_555
O3 U0 2.311184 1_655
O4 P0 1.586275 1_555
O4 U0 2.321560 1_555
O5 P1 1.586275 1_555
O5 U1 2.321560 1_555
O6 P0 1.527488 1_555
O7 P1 1.527488 1_555
O8 P2 1.574636 1_554
O8 U0 2.435282 1_555
O9 P3 1.574636 1_556
O9 U1 2.435282 1_555
O10 P2 1.583549 1_565
O10 U1 2.323187 1_455
O11 P3 1.583549 1_545
O11 U0 2.323187 1_655
O12 U0 1.832480 1_555
O13 U1 1.832480 1_555
O14 P2 1.526571 1_555
O15 P3 1.526571 1_555
O16 U0 1.828080 1_655
O17 U1 1.828080 1_455
O18 P2 1.543273 1_555
O18 U0 2.724746 1_556
O19 P3 1.543273 1_555
O19 U1 2.724746 1_554
