# generated using pymatgen
data_SmPdPb
_symmetry_space_group_name_H-M   'P 1'
_cell_length_a   7.75350731
_cell_length_b   7.75350731
_cell_length_c   4.06397193
_cell_angle_alpha   90.00000000
_cell_angle_beta   90.00000000
_cell_angle_gamma   120.00000385
_symmetry_Int_Tables_number   1
_chemical_formula_structural   SmPdPb
_chemical_formula_sum   'Sm3 Pd3 Pb3'
_cell_volume   211.58151179
_cell_formula_units_Z   3
loop_
 _symmetry_equiv_pos_site_id
 _symmetry_equiv_pos_as_xyz
  1  'x, y, z'
loop_
 _atom_site_type_symbol
 _atom_site_label
 _atom_site_symmetry_multiplicity
 _atom_site_fract_x
 _atom_site_fract_y
 _atom_site_fract_z
 _atom_site_occupancy
  Sm  Sm0  1  0.40602207  0.40602207  0.50000000  1
  Sm  Sm1  1  0.59397793  0.00000000  0.50000000  1
  Sm  Sm2  1  0.00000000  0.59397793  0.50000000  1
  Pd  Pd0  1  0.66666700  0.33333300  -0.00000000  1
  Pd  Pd1  1  0.33333300  0.66666700  -0.00000000  1
  Pd  Pd2  1  -0.00000000  0.00000000  0.50000000  1
  Pb  Pb0  1  0.73972709  0.73972709  -0.00000000  1
  Pb  Pb1  1  0.26027291  0.00000000  0.00000000  1
  Pb  Pb2  1  0.00000000  0.26027291  0.00000000  1
loop_
_geom_bond_atom_site_label_1
_geom_bond_atom_site_label_2
_geom_bond_distance
_geom_bond_site_symmetry_2
Pd0 Sm1 3.109604 1_554
Pd0 Sm1 3.109604 1_555
Pd0 Sm2 3.109605 1_655
Pd0 Sm2 3.109605 1_654
Pd0 Sm0 3.109609 1_555
Pd0 Sm0 3.109609 1_554
Pd1 Sm2 3.109604 1_555
Pd1 Sm2 3.109604 1_554
Pd1 Sm1 3.109605 1_565
Pd1 Sm1 3.109605 1_564
Pd1 Sm0 3.109609 1_555
Pd1 Sm0 3.109609 1_554
Pd2 Sm0 3.148095 1_555
Pd2 Sm1 3.148095 1_455
Pd2 Sm2 3.148095 1_545
Pb0 Pd2 2.863809 1_665
Pb0 Pd2 2.863809 1_664
Pb0 Pd1 2.909402 1_555
Pb0 Pd0 2.909402 1_555
Pb0 Sm0 3.289912 1_554
Pb0 Sm0 3.289912 1_555
Pb0 Sm2 3.429134 1_654
Pb0 Sm1 3.429134 1_565
Pb0 Sm1 3.429134 1_564
Pb0 Sm2 3.429134 1_655
Pb1 Pd2 2.863809 1_554
Pb1 Pd2 2.863809 1_555
Pb1 Pd1 2.909395 1_545
Pb1 Pd0 2.909399 1_555
Pb1 Sm1 3.289913 1_554
Pb1 Sm1 3.289913 1_555
Pb1 Sm2 3.429134 1_544
Pb1 Sm2 3.429134 1_545
Pb1 Sm0 3.429134 1_554
Pb1 Sm0 3.429134 1_555
Pb2 Pd2 2.863809 1_554
Pb2 Pd2 2.863809 1_555
Pb2 Pd0 2.909395 1_455
Pb2 Pd1 2.909399 1_555
Pb2 Sm2 3.289913 1_555
Pb2 Sm2 3.289913 1_554
Pb2 Sm1 3.429134 1_455
Pb2 Sm1 3.429134 1_454
Pb2 Sm0 3.429134 1_554
Pb2 Sm0 3.429134 1_555
