# generated using pymatgen
data_CaEuTi4O12
_symmetry_space_group_name_H-M   'P 1'
_cell_length_a   5.48394479
_cell_length_b   5.48394479
_cell_length_c   7.77900392
_cell_angle_alpha   90.00000000
_cell_angle_beta   90.00000000
_cell_angle_gamma   89.85953576
_symmetry_Int_Tables_number   1
_chemical_formula_structural   CaEuTi4O12
_chemical_formula_sum   'Ca1 Eu1 Ti4 O12'
_cell_volume   233.94234175
_cell_formula_units_Z   1
loop_
 _symmetry_equiv_pos_site_id
 _symmetry_equiv_pos_as_xyz
  1  'x, y, z'
loop_
 _atom_site_type_symbol
 _atom_site_label
 _atom_site_symmetry_multiplicity
 _atom_site_fract_x
 _atom_site_fract_y
 _atom_site_fract_z
 _atom_site_occupancy
  Ca  Ca0  1  0.49316174  0.49316174  0.50000000  1
  Eu  Eu0  1  0.00588146  0.00588146  -0.00000000  1
  Ti  Ti0  1  0.50253740  0.99777163  0.74764185  1
  Ti  Ti1  1  0.50253740  0.99777163  0.25235815  1
  Ti  Ti2  1  0.99777163  0.50253740  0.25235815  1
  Ti  Ti3  1  0.99777163  0.50253740  0.74764185  1
  O  O0  1  0.77393009  0.22653015  0.75977461  1
  O  O1  1  0.22653015  0.77393009  0.75977461  1
  O  O2  1  0.22653015  0.77393009  0.24022539  1
  O  O3  1  0.77393009  0.22653015  0.24022539  1
  O  O4  1  0.72369986  0.72369986  0.72462700  1
  O  O5  1  0.26409438  0.26409438  0.76966163  1
  O  O6  1  0.26409438  0.26409438  0.23033837  1
  O  O7  1  0.72369986  0.72369986  0.27537300  1
  O  O8  1  0.52665918  0.98169207  -0.00000000  1
  O  O9  1  0.48596532  0.03051320  0.50000000  1
  O  O10  1  0.98169207  0.52665918  -0.00000000  1
  O  O11  1  0.03051320  0.48596532  0.50000000  1
loop_
_geom_bond_atom_site_label_1
_geom_bond_atom_site_label_2
_geom_bond_distance
_geom_bond_site_symmetry_2
Ca0 O7 2.501570 1_555
Ca0 O4 2.501570 1_555
Ca0 O11 2.537543 1_555
Ca0 O9 2.537543 1_555
Ca0 O6 2.750294 1_555
Ca0 O5 2.750294 1_555
Ca0 O2 2.929383 1_555
Ca0 O1 2.929383 1_555
Ca0 O3 2.929383 1_555
Ca0 O0 2.929383 1_555
Ca0 O9 2.946973 1_565
Ca0 O11 2.946973 1_655
Eu0 O1 2.562560 1_544
Eu0 O3 2.562560 1_455
Eu0 O0 2.562560 1_454
Eu0 O2 2.562560 1_545
Eu0 O8 2.631699 1_445
Eu0 O10 2.631699 1_445
Eu0 O6 2.688986 1_555
Eu0 O5 2.688986 1_554
Eu0 O8 2.858671 1_545
Eu0 O10 2.858671 1_455
Eu0 O7 3.064273 1_445
Eu0 O4 3.064273 1_444
O0 Ti0 1.951121 1_545
O0 Ti3 1.953425 1_555
O1 Ti3 1.951121 1_455
O1 Ti0 1.953425 1_555
O2 Ti2 1.951121 1_455
O2 Ti1 1.953425 1_555
O3 Ti1 1.951121 1_545
O3 Ti2 1.953425 1_555
O4 Ti3 1.937291 1_555
O4 Ti0 1.937291 1_555
O5 Ti3 1.965420 1_455
O5 Ti0 1.965420 1_545
O6 Ti1 1.965420 1_545
O6 Ti2 1.965420 1_455
O7 Ti1 1.937291 1_555
O7 Ti2 1.937291 1_555
O8 Ti0 1.969507 1_554
O8 Ti1 1.969507 1_555
O9 Ti1 1.936869 1_545
O9 Ti0 1.936869 1_545
O10 Ti3 1.969507 1_554
O10 Ti2 1.969507 1_555
O11 Ti2 1.936869 1_455
O11 Ti3 1.936869 1_455
