# generated using pymatgen
data_Sr3(CoO3)2
_symmetry_space_group_name_H-M   'P 1'
_cell_length_a   6.61056071
_cell_length_b   6.72829387
_cell_length_c   6.66289642
_cell_angle_alpha   92.25799409
_cell_angle_beta   93.53274938
_cell_angle_gamma   92.88910739
_symmetry_Int_Tables_number   1
_chemical_formula_structural   Sr3(CoO3)2
_chemical_formula_sum   'Sr6 Co4 O12'
_cell_volume   295.14316087
_cell_formula_units_Z   2
loop_
 _symmetry_equiv_pos_site_id
 _symmetry_equiv_pos_as_xyz
  1  'x, y, z'
loop_
 _atom_site_type_symbol
 _atom_site_label
 _atom_site_symmetry_multiplicity
 _atom_site_fract_x
 _atom_site_fract_y
 _atom_site_fract_z
 _atom_site_occupancy
  Sr  Sr0  1  0.88540100  0.24602700  0.61482000  1
  Sr  Sr1  1  0.24734100  0.61563900  0.88347300  1
  Sr  Sr2  1  0.61496500  0.88629300  0.25425900  1
  Sr  Sr3  1  0.75025700  0.38373600  0.11610300  1
  Sr  Sr4  1  0.38549800  0.11432500  0.74747900  1
  Sr  Sr5  1  0.11444000  0.75432900  0.38549700  1
  Co  Co0  1  0.24616500  0.25630300  0.25113300  1
  Co  Co1  1  0.74681700  0.74392100  0.75516200  1
  Co  Co2  1  0.00146500  0.99921100  0.99907400  1
  Co  Co3  1  0.50116400  0.50043200  0.49828300  1
  O  O0  1  0.22220200  0.41110600  0.53485200  1
  O  O1  1  0.41446900  0.54220500  0.22148700  1
  O  O2  1  0.54102600  0.21537400  0.40790900  1
  O  O3  1  0.90900800  0.71771600  0.03816800  1
  O  O4  1  0.72648200  0.03789300  0.91128500  1
  O  O5  1  0.04101900  0.91114300  0.71655800  1
  O  O6  1  0.77710600  0.58897300  0.46278300  1
  O  O7  1  0.58891000  0.45977900  0.77749900  1
  O  O8  1  0.45841000  0.78573500  0.59070300  1
  O  O9  1  0.09338900  0.28129800  0.96279900  1
  O  O10  1  0.27443800  0.96008900  0.08653000  1
  O  O11  1  0.96002900  0.08847300  0.28414400  1
loop_
_geom_bond_atom_site_label_1
_geom_bond_atom_site_label_2
_geom_bond_distance
_geom_bond_site_symmetry_2
Co0 O9 2.131314 1_554
Co0 O0 2.140538 1_555
Co0 O11 2.181024 1_455
Co0 O2 2.189111 1_555
Co0 O1 2.195109 1_555
Co0 O10 2.258414 1_545
Co1 O3 2.128939 1_556
Co1 O7 2.146420 1_555
Co1 O8 2.176152 1_555
Co1 O6 2.197978 1_555
Co1 O4 2.212299 1_565
Co1 O5 2.231216 1_655
Co2 O10 1.896169 1_556
Co2 O4 1.908638 1_465
Co2 O5 1.987763 1_555
Co2 O9 1.991967 1_565
Co2 O3 1.992579 1_456
Co2 O11 2.008539 1_466
Co3 O6 1.921725 1_555
Co3 O1 1.932763 1_555
Co3 O0 1.943311 1_555
Co3 O7 1.948183 1_555
Co3 O2 2.022392 1_555
Co3 O8 2.031486 1_555
O0 Sr0 2.533406 1_455
O0 Sr1 2.644700 1_555
O0 Sr5 2.662745 1_555
O0 Sr4 2.722391 1_555
O1 Sr1 2.524477 1_554
O1 Sr2 2.603714 1_555
O1 Sr3 2.632265 1_555
O1 Sr5 2.755801 1_555
O2 Sr2 2.486282 1_545
O2 Sr0 2.582468 1_555
O2 Sr4 2.641156 1_555
O2 Sr3 2.706194 1_555
O3 Sr3 2.518306 1_555
O3 Sr5 2.606636 1_655
O3 Sr1 2.630492 1_654
O3 Sr2 2.752503 1_555
O4 Sr4 2.528735 1_555
O4 Sr3 2.643511 1_556
O4 Sr2 2.668612 1_546
O4 Sr0 2.700371 1_555
O5 Sr5 2.492914 1_555
O5 Sr4 2.589040 1_565
O5 Sr0 2.619686 1_465
O5 Sr1 2.703857 1_555
O6 Sr5 2.532249 1_655
O6 Sr3 2.635792 1_555
O6 Sr0 2.669139 1_555
O6 Sr2 2.707889 1_555
O7 Sr3 2.517683 1_556
O7 Sr4 2.620256 1_555
O7 Sr1 2.659607 1_555
O7 Sr0 2.740048 1_555
O8 Sr4 2.489741 1_565
O8 Sr5 2.574889 1_555
O8 Sr2 2.624659 1_555
O8 Sr1 2.722533 1_555
O9 Sr1 2.510923 1_555
O9 Sr0 2.617875 1_455
O9 Sr3 2.655413 1_456
O9 Sr4 2.735366 1_555
O10 Sr2 2.531635 1_555
O10 Sr1 2.629611 1_554
O10 Sr4 2.651717 1_564
O10 Sr5 2.707884 1_555
O11 Sr0 2.494816 1_555
O11 Sr2 2.589069 1_545
O11 Sr5 2.611219 1_645
O11 Sr3 2.717506 1_555
