# generated using pymatgen
data_FeRu
_symmetry_space_group_name_H-M   'P 1'
_cell_length_a   5.28560284
_cell_length_b   5.28560284
_cell_length_c   8.14045400
_cell_angle_alpha   90.00000000
_cell_angle_beta   90.00000000
_cell_angle_gamma   119.99998549
_symmetry_Int_Tables_number   1
_chemical_formula_structural   FeRu
_chemical_formula_sum   'Fe8 Ru8'
_cell_volume   196.95561934
_cell_formula_units_Z   8
loop_
 _symmetry_equiv_pos_site_id
 _symmetry_equiv_pos_as_xyz
  1  'x, y, z'
loop_
 _atom_site_type_symbol
 _atom_site_label
 _atom_site_symmetry_multiplicity
 _atom_site_fract_x
 _atom_site_fract_y
 _atom_site_fract_z
 _atom_site_occupancy
  Fe  Fe0_0  1  0.16666650  0.33333350  0.25000000  1
  Fe  Fe0_1  1  0.16666650  0.33333350  0.75000000  1
  Fe  Fe0_2  1  0.16666650  0.83333350  0.25000000  1
  Fe  Fe0_3  1  0.16666650  0.83333350  0.75000000  1
  Fe  Fe0_4  1  0.66666650  0.33333350  0.25000000  1
  Fe  Fe0_5  1  0.66666650  0.33333350  0.75000000  1
  Fe  Fe0_6  1  0.66666650  0.83333350  0.25000000  1
  Fe  Fe0_7  1  0.66666650  0.83333350  0.75000000  1
  Ru  Ru0_0  1  0.00000000  0.00000000  0.00000000  1
  Ru  Ru0_1  1  0.00000000  0.00000000  0.50000000  1
  Ru  Ru0_2  1  0.00000000  0.50000000  0.00000000  1
  Ru  Ru0_3  1  0.00000000  0.50000000  0.50000000  1
  Ru  Ru0_4  1  0.50000000  0.00000000  0.00000000  1
  Ru  Ru0_5  1  0.50000000  0.00000000  0.50000000  1
  Ru  Ru0_6  1  0.50000000  0.50000000  0.00000000  1
  Ru  Ru0_7  1  0.50000000  0.50000000  0.50000000  1
loop_
_geom_bond_atom_site_label_1
_geom_bond_atom_site_label_2
_geom_bond_distance
_geom_bond_site_symmetry_2
Fe0_0 Ru0_2 2.543583 1_555
Fe0_0 Ru0_3 2.543583 1_555
Fe0_0 Ru0_0 2.543585 1_555
Fe0_0 Ru0_6 2.543585 1_555
Fe0_0 Ru0_7 2.543585 1_555
Fe0_0 Ru0_1 2.543585 1_555
Fe0_0 Fe0_2 2.642801 1_555
Fe0_0 Fe0_4 2.642801 1_455
Fe0_0 Fe0_2 2.642801 1_545
Fe0_0 Fe0_4 2.642801 1_555
Fe0_0 Fe0_6 2.642802 1_445
Fe0_0 Fe0_6 2.642802 1_555
Fe0_1 Ru0_2 2.543583 1_556
Fe0_1 Ru0_3 2.543583 1_555
Fe0_1 Ru0_0 2.543585 1_556
Fe0_1 Ru0_7 2.543585 1_555
Fe0_1 Ru0_1 2.543585 1_555
Fe0_1 Ru0_6 2.543585 1_556
Fe0_1 Fe0_5 2.642801 1_455
Fe0_1 Fe0_3 2.642801 1_555
Fe0_1 Fe0_3 2.642801 1_545
Fe0_1 Fe0_5 2.642801 1_555
Fe0_1 Fe0_7 2.642802 1_445
Fe0_1 Fe0_7 2.642802 1_555
Fe0_2 Ru0_1 2.543583 1_565
Fe0_2 Ru0_0 2.543583 1_565
Fe0_2 Ru0_5 2.543585 1_565
Fe0_2 Ru0_2 2.543585 1_555
Fe0_2 Ru0_3 2.543585 1_555
Fe0_2 Ru0_4 2.543585 1_565
Fe0_2 Fe0_6 2.642801 1_455
Fe0_2 Fe0_6 2.642801 1_555
Fe0_2 Fe0_4 2.642802 1_455
Fe0_2 Fe0_4 2.642802 1_565
Fe0_3 Ru0_0 2.543583 1_566
Fe0_3 Ru0_1 2.543583 1_565
Fe0_3 Ru0_2 2.543585 1_556
Fe0_3 Ru0_4 2.543585 1_566
Fe0_3 Ru0_5 2.543585 1_565
Fe0_3 Ru0_3 2.543585 1_555
Fe0_3 Fe0_7 2.642801 1_555
Fe0_3 Fe0_7 2.642801 1_455
Fe0_3 Fe0_5 2.642802 1_455
Fe0_3 Fe0_5 2.642802 1_565
Fe0_4 Ru0_7 2.543583 1_555
Fe0_4 Ru0_6 2.543583 1_555
Fe0_4 Ru0_2 2.543585 1_655
Fe0_4 Ru0_3 2.543585 1_655
Fe0_4 Ru0_4 2.543585 1_555
Fe0_4 Ru0_5 2.543585 1_555
Fe0_4 Fe0_6 2.642801 1_555
Fe0_4 Fe0_6 2.642801 1_545
Fe0_5 Ru0_6 2.543583 1_556
Fe0_5 Ru0_7 2.543583 1_555
Fe0_5 Ru0_2 2.543585 1_656
Fe0_5 Ru0_3 2.543585 1_655
Fe0_5 Ru0_4 2.543585 1_556
Fe0_5 Ru0_5 2.543585 1_555
Fe0_5 Fe0_7 2.642801 1_555
Fe0_5 Fe0_7 2.642801 1_545
Fe0_6 Ru0_5 2.543583 1_565
Fe0_6 Ru0_4 2.543583 1_565
Fe0_6 Ru0_6 2.543585 1_555
Fe0_6 Ru0_0 2.543585 1_665
Fe0_6 Ru0_7 2.543585 1_555
Fe0_6 Ru0_1 2.543585 1_665
Fe0_7 Ru0_4 2.543583 1_566
Fe0_7 Ru0_5 2.543583 1_565
Fe0_7 Ru0_7 2.543585 1_555
Fe0_7 Ru0_1 2.543585 1_665
Fe0_7 Ru0_0 2.543585 1_666
Fe0_7 Ru0_6 2.543585 1_556
Ru0_0 Ru0_4 2.642801 1_555
Ru0_0 Ru0_2 2.642801 1_545
Ru0_0 Ru0_2 2.642801 1_555
Ru0_0 Ru0_4 2.642801 1_455
Ru0_0 Ru0_6 2.642802 1_445
Ru0_0 Ru0_6 2.642802 1_555
Ru0_1 Ru0_5 2.642801 1_455
Ru0_1 Ru0_5 2.642801 1_555
Ru0_1 Ru0_3 2.642801 1_555
Ru0_1 Ru0_3 2.642801 1_545
Ru0_1 Ru0_7 2.642802 1_445
Ru0_1 Ru0_7 2.642802 1_555
Ru0_2 Ru0_6 2.642801 1_555
Ru0_2 Ru0_6 2.642801 1_455
Ru0_2 Ru0_4 2.642802 1_455
Ru0_2 Ru0_4 2.642802 1_565
Ru0_3 Ru0_7 2.642801 1_555
Ru0_3 Ru0_7 2.642801 1_455
Ru0_3 Ru0_5 2.642802 1_565
Ru0_3 Ru0_5 2.642802 1_455
Ru0_4 Ru0_6 2.642801 1_555
Ru0_4 Ru0_6 2.642801 1_545
Ru0_5 Ru0_7 2.642801 1_555
Ru0_5 Ru0_7 2.642801 1_545
