# generated using pymatgen
data_Mg14ZnGa
_symmetry_space_group_name_H-M   'P 1'
_cell_length_a   6.25570345
_cell_length_b   6.32284511
_cell_length_c   10.29991834
_cell_angle_alpha   90.00000000
_cell_angle_beta   90.00000000
_cell_angle_gamma   120.35568543
_symmetry_Int_Tables_number   1
_chemical_formula_structural   Mg14ZnGa
_chemical_formula_sum   'Mg14 Zn1 Ga1'
_cell_volume   351.54858974
_cell_formula_units_Z   1
loop_
 _symmetry_equiv_pos_site_id
 _symmetry_equiv_pos_as_xyz
  1  'x, y, z'
loop_
 _atom_site_type_symbol
 _atom_site_label
 _atom_site_symmetry_multiplicity
 _atom_site_fract_x
 _atom_site_fract_y
 _atom_site_fract_z
 _atom_site_occupancy
  Mg  Mg0  1  0.16888563  0.33444231  0.62500000  1
  Mg  Mg1  1  0.16855993  0.83427947  0.62500000  1
  Mg  Mg2  1  0.66957342  0.33519218  0.12500000  1
  Mg  Mg3  1  0.66586869  0.33283144  0.62500000  1
  Mg  Mg4  1  0.66957342  0.83438025  0.12500000  1
  Mg  Mg5  1  0.66586869  0.83303625  0.62500000  1
  Mg  Mg6  1  0.32834591  0.16478863  0.36774705  1
  Mg  Mg7  1  0.32834591  0.16478863  0.88225295  1
  Mg  Mg8  1  0.32834591  0.66355828  0.36774705  1
  Mg  Mg9  1  0.32834591  0.66355828  0.88225295  1
  Mg  Mg10  1  0.83664787  0.16832444  0.37312739  1
  Mg  Mg11  1  0.83664787  0.16832444  0.87687261  1
  Mg  Mg12  1  0.83617598  0.66808849  0.37407741  1
  Mg  Mg13  1  0.83617598  0.66808849  0.87592259  1
  Zn  Zn0  1  0.16688663  0.33344281  0.12500000  1
  Ga  Ga0  1  0.16575222  0.83287561  0.12500000  1
loop_
_geom_bond_atom_site_label_1
_geom_bond_atom_site_label_2
_geom_bond_distance
_geom_bond_site_symmetry_2
Mg0 Mg5 3.114138 1_555
Mg0 Mg3 3.114138 1_555
Mg0 Mg5 3.141590 1_445
Mg0 Mg3 3.141590 1_455
Mg0 Mg10 3.153834 1_455
Mg0 Mg11 3.153834 1_455
Mg0 Mg1 3.161423 1_545
Mg0 Mg1 3.161423 1_555
Mg0 Mg6 3.201268 1_555
Mg0 Mg7 3.201268 1_555
Mg0 Mg8 3.201274 1_555
Mg0 Mg9 3.201274 1_555
Mg1 Mg3 3.114996 1_565
Mg1 Mg5 3.114996 1_555
Mg1 Mg3 3.140722 1_455
Mg1 Mg5 3.140722 1_455
Mg1 Mg12 3.146240 1_455
Mg1 Mg13 3.146240 1_455
Mg1 Mg8 3.205579 1_555
Mg1 Mg9 3.205579 1_555
Mg1 Mg6 3.205585 1_565
Mg1 Mg7 3.205585 1_565
Mg2 Mg7 3.105517 1_554
Mg2 Mg6 3.105517 1_555
Mg2 Zn0 3.116648 1_655
Mg2 Zn0 3.139084 1_555
Mg2 Mg4 3.156289 1_555
Mg2 Mg4 3.166556 1_545
Mg3 Mg5 3.160128 1_545
Mg3 Mg5 3.162718 1_555
Mg3 Mg7 3.215655 1_555
Mg3 Mg6 3.215655 1_555
Mg4 Mg9 3.105517 1_554
Mg4 Mg8 3.105517 1_555
Mg4 Zn0 3.116648 1_665
Mg4 Zn0 3.139084 1_555
Mg5 Mg9 3.215655 1_555
Mg5 Mg8 3.215655 1_555
Mg6 Zn0 3.081778 1_555
Mg6 Mg8 3.153643 1_555
Mg6 Mg8 3.169202 1_545
Mg7 Zn0 3.081778 1_556
Mg7 Mg9 3.153643 1_555
Mg7 Mg9 3.169202 1_545
Mg8 Zn0 3.081784 1_555
Mg9 Zn0 3.081784 1_556
Mg10 Mg8 3.087773 1_655
Mg10 Mg6 3.087773 1_655
Mg10 Zn0 3.115994 1_655
Mg10 Mg2 3.138742 1_555
Mg10 Mg4 3.138748 1_545
Mg10 Mg12 3.161439 1_555
Mg10 Mg12 3.161439 1_545
Mg10 Mg8 3.169031 1_545
Mg10 Mg6 3.169031 1_555
Mg10 Mg3 3.174376 1_555
Mg10 Mg5 3.174383 1_545
Mg11 Mg9 3.087773 1_655
Mg11 Mg7 3.087773 1_655
Mg11 Zn0 3.115994 1_656
Mg11 Mg2 3.138742 1_556
Mg11 Mg4 3.138748 1_546
Mg11 Mg13 3.161439 1_555
Mg11 Mg13 3.161439 1_545
Mg11 Mg9 3.169031 1_545
Mg11 Mg7 3.169031 1_555
Mg11 Mg3 3.174376 1_555
Mg11 Mg5 3.174383 1_545
Mg12 Mg6 3.094130 1_665
Mg12 Mg8 3.094131 1_655
Mg12 Mg4 3.143405 1_555
Mg12 Mg2 3.143411 1_555
Mg12 Mg6 3.163127 1_555
Mg12 Mg8 3.163127 1_555
Mg12 Mg5 3.166290 1_555
Mg12 Mg3 3.166297 1_555
Mg13 Mg7 3.094130 1_665
Mg13 Mg9 3.094131 1_655
Mg13 Mg4 3.143405 1_556
Mg13 Mg2 3.143411 1_556
Mg13 Mg7 3.163127 1_555
Mg13 Mg9 3.163127 1_555
Mg13 Mg5 3.166290 1_555
Mg13 Mg3 3.166297 1_555
Ga0 Mg9 3.087501 1_554
Ga0 Mg8 3.087501 1_555
Ga0 Mg7 3.087507 1_564
Ga0 Mg6 3.087507 1_565
Ga0 Mg2 3.108766 1_455
Ga0 Mg4 3.108766 1_455
Ga0 Mg12 3.121985 1_455
Ga0 Mg13 3.121985 1_454
Ga0 Mg2 3.146959 1_565
Ga0 Mg4 3.146959 1_555
Ga0 Zn0 3.161428 1_565
Ga0 Zn0 3.161429 1_555
