# generated using pymatgen
data_Pr3Ge13Ru4
_symmetry_space_group_name_H-M   'P 1'
_cell_length_a   9.12017198
_cell_length_b   9.12016887
_cell_length_c   9.12017219
_cell_angle_alpha   90.00016321
_cell_angle_beta   89.99977566
_cell_angle_gamma   89.99986631
_symmetry_Int_Tables_number   1
_chemical_formula_structural   Pr3Ge13Ru4
_chemical_formula_sum   'Pr6 Ge26 Ru8'
_cell_volume   758.59320059
_cell_formula_units_Z   2
loop_
 _symmetry_equiv_pos_site_id
 _symmetry_equiv_pos_as_xyz
  1  'x, y, z'
loop_
 _atom_site_type_symbol
 _atom_site_label
 _atom_site_symmetry_multiplicity
 _atom_site_fract_x
 _atom_site_fract_y
 _atom_site_fract_z
 _atom_site_occupancy
  Pr  Pr0  1  0.00000406  0.50000348  0.74999991  1
  Pr  Pr1  1  0.50000431  0.24999966  0.00000455  1
  Pr  Pr2  1  0.74999992  0.00000534  0.49999591  1
  Pr  Pr3  1  -0.00000425  0.49999470  0.25000013  1
  Pr  Pr4  1  0.49999564  0.75000032  -0.00000437  1
  Pr  Pr5  1  0.25000030  -0.00000355  0.50000394  1
  Ge  Ge0  1  0.49998874  0.50001841  0.49999763  1
  Ge  Ge1  1  0.00001129  -0.00001823  0.00000244  1
  Ge  Ge2  1  0.79151433  0.35397852  0.50000296  1
  Ge  Ge3  1  0.64602960  0.50001340  0.79151026  1
  Ge  Ge4  1  0.49999134  0.20848376  0.64603437  1
  Ge  Ge5  1  0.20849222  0.64604951  0.49999447  1
  Ge  Ge6  1  0.35395204  0.50001587  0.20849201  1
  Ge  Ge7  1  0.49999010  0.79150388  0.35395822  1
  Ge  Ge8  1  0.79151346  0.64605008  0.49999981  1
  Ge  Ge9  1  0.64602686  0.50001848  0.20848948  1
  Ge  Ge10  1  0.20849328  0.35397276  0.49999429  1
  Ge  Ge11  1  0.35395741  0.50001394  0.79151048  1
  Ge  Ge12  1  0.49999282  0.79150568  0.64603474  1
  Ge  Ge13  1  0.49998536  0.20848425  0.35396470  1
  Ge  Ge14  1  0.29150781  -0.00001406  0.85396614  1
  Ge  Ge15  1  0.14604564  0.29151464  0.00000342  1
  Ge  Ge16  1  0.00000590  0.14602475  0.70848932  1
  Ge  Ge17  1  0.70848667  -0.00001848  0.14603504  1
  Ge  Ge18  1  0.85396803  0.70849514  0.00000271  1
  Ge  Ge19  1  0.00001241  0.85394877  0.29150960  1
  Ge  Ge20  1  0.29150526  -0.00001370  0.14604194  1
  Ge  Ge21  1  0.14604571  0.70849536  0.00000542  1
  Ge  Ge22  1  0.70848692  -0.00001544  0.85396471  1
  Ge  Ge23  1  0.85397451  0.29151698  -0.00000259  1
  Ge  Ge24  1  0.00001477  0.14602264  0.29151020  1
  Ge  Ge25  1  0.00000693  0.85395293  0.70848852  1
  Ru  Ru0  1  0.74999847  0.24999852  0.74999998  1
  Ru  Ru1  1  0.24999727  0.74999822  0.25000148  1
  Ru  Ru2  1  0.75000162  0.75000347  0.25000536  1
  Ru  Ru3  1  0.25000283  0.25000354  0.75000602  1
  Ru  Ru4  1  0.24999648  0.74999660  0.74999901  1
  Ru  Ru5  1  0.74999554  0.24999677  0.24999941  1
  Ru  Ru6  1  0.25000394  0.25000140  0.24999498  1
  Ru  Ru7  1  0.75000447  0.75000170  0.74999337  1
loop_
_geom_bond_atom_site_label_1
_geom_bond_atom_site_label_2
_geom_bond_distance
_geom_bond_site_symmetry_2
Pr0 Ru4 3.224378 1_555
Pr0 Ru7 3.224449 1_455
Pr0 Ru3 3.224455 1_555
Pr0 Ru0 3.224539 1_455
Pr1 Ru5 3.224384 1_555
Pr1 Ru6 3.224402 1_555
Pr1 Ru0 3.224453 1_554
Pr1 Ru3 3.224474 1_554
Pr2 Ru5 3.224394 1_555
Pr2 Ru2 3.224414 1_545
Pr2 Ru0 3.224445 1_555
Pr2 Ru7 3.224479 1_545
Pr3 Ru5 3.224459 1_455
Pr3 Ru6 3.224473 1_555
Pr3 Ru2 3.224482 1_455
Pr3 Ru1 3.224503 1_555
Pr4 Ru4 3.224447 1_554
Pr4 Ru1 3.224489 1_555
Pr4 Ru7 3.224533 1_554
Pr4 Ru2 3.224575 1_555
Pr5 Ru4 3.224439 1_545
Pr5 Ru1 3.224467 1_545
Pr5 Ru3 3.224522 1_555
Pr5 Ru6 3.224562 1_555
Ge0 Ge12 2.973391 1_555
Ge0 Ge7 2.973393 1_555
Ge0 Ge5 2.973443 1_555
Ge0 Ge10 2.973499 1_555
Ge0 Ge6 2.973548 1_555
Ge0 Ge9 2.973565 1_555
Ge0 Ge11 2.973576 1_555
Ge0 Ge3 2.973622 1_555
Ge0 Ge8 2.973681 1_555
Ge0 Ge2 2.973716 1_555
Ge0 Ge13 2.973756 1_555
Ge0 Ge4 2.973783 1_555
Ge1 Ge21 2.973374 1_545
Ge1 Ge18 2.973417 1_445
Ge1 Ge14 2.973463 1_554
Ge1 Ge20 2.973464 1_555
Ge1 Ge19 2.973544 1_545
Ge1 Ge24 2.973574 1_555
Ge1 Ge25 2.973575 1_544
Ge1 Ge16 2.973633 1_554
Ge1 Ge17 2.973677 1_455
Ge1 Ge22 2.973705 1_454
Ge1 Ge15 2.973758 1_555
Ge1 Ge23 2.973781 1_455
Ge2 Ru0 2.498228 1_555
Ge2 Ru5 2.498290 1_555
Ge2 Pr2 3.250423 1_555
Ge2 Pr3 3.253826 1_655
Ge2 Pr0 3.253871 1_655
Ge3 Ru7 2.498139 1_555
Ge3 Ru0 2.498325 1_555
Ge3 Pr0 3.250429 1_655
Ge3 Pr4 3.253803 1_556
Ge3 Pr1 3.254002 1_556
Ge4 Ru3 2.498128 1_555
Ge4 Ru0 2.498263 1_555
Ge4 Pr1 3.250396 1_556
Ge4 Pr5 3.253840 1_555
Ge4 Pr2 3.253921 1_555
Ge5 Ru1 2.498071 1_555
Ge5 Ru4 2.498158 1_555
Ge5 Pr5 3.250178 1_565
Ge5 Pr0 3.253990 1_555
Ge5 Pr3 3.254001 1_555
Ge6 Ru1 2.498004 1_555
Ge6 Ru6 2.498245 1_555
Ge6 Pr3 3.250262 1_555
Ge6 Pr4 3.253894 1_555
Ge6 Pr1 3.254070 1_555
Ge7 Ru1 2.498101 1_555
Ge7 Ru2 2.498227 1_555
Ge7 Pr4 3.250314 1_555
Ge7 Pr5 3.253904 1_565
Ge7 Pr2 3.254063 1_565
Ge8 Ru7 2.498086 1_555
Ge8 Ru2 2.498111 1_555
Ge8 Pr2 3.250258 1_565
Ge8 Pr3 3.253948 1_655
Ge8 Pr0 3.253978 1_655
Ge9 Ru2 2.498109 1_555
Ge9 Ru5 2.498384 1_555
Ge9 Pr3 3.250382 1_655
Ge9 Pr4 3.253819 1_555
Ge9 Pr1 3.253972 1_555
Ge10 Ru6 2.498204 1_555
Ge10 Ru3 2.498306 1_555
Ge10 Pr5 3.250441 1_555
Ge10 Pr3 3.253885 1_555
Ge10 Pr0 3.253931 1_555
Ge11 Ru4 2.498034 1_555
Ge11 Ru3 2.498235 1_555
Ge11 Pr0 3.250241 1_555
Ge11 Pr4 3.253825 1_556
Ge11 Pr1 3.254086 1_556
Ge12 Ru4 2.498155 1_555
Ge12 Ru7 2.498261 1_555
Ge12 Pr4 3.250303 1_556
Ge12 Pr5 3.253868 1_565
Ge12 Pr2 3.254037 1_565
Ge13 Ru6 2.498066 1_555
Ge13 Ru5 2.498278 1_555
Ge13 Pr1 3.250307 1_555
Ge13 Pr5 3.253835 1_555
Ge13 Pr2 3.253947 1_555
Ge14 Ru4 2.498110 1_545
Ge14 Ru3 2.498316 1_555
Ge14 Pr5 3.250318 1_555
Ge14 Pr4 3.253803 1_546
Ge14 Pr1 3.254063 1_556
Ge15 Ru6 2.498107 1_555
Ge15 Ru3 2.498140 1_554
Ge15 Pr1 3.250291 1_555
Ge15 Pr3 3.253897 1_555
Ge15 Pr0 3.253971 1_554
Ge16 Ru3 2.498226 1_555
Ge16 Ru0 2.498281 1_455
Ge16 Pr0 3.250467 1_555
Ge16 Pr5 3.253830 1_555
Ge16 Pr2 3.253928 1_455
Ge17 Ru2 2.498036 1_545
Ge17 Ru5 2.498313 1_555
Ge17 Pr2 3.250312 1_555
Ge17 Pr4 3.253830 1_545
Ge17 Pr1 3.253985 1_555
Ge18 Ru2 2.498211 1_555
Ge18 Ru7 2.498264 1_554
Ge18 Pr4 3.250405 1_555
Ge18 Pr3 3.253942 1_655
Ge18 Pr0 3.253946 1_654
Ge19 Ru1 2.498009 1_555
Ge19 Ru2 2.498208 1_455
Ge19 Pr3 3.250242 1_555
Ge19 Pr5 3.253923 1_565
Ge19 Pr2 3.254056 1_465
Ge20 Ru1 2.498073 1_545
Ge20 Ru6 2.498259 1_555
Ge20 Pr5 3.250310 1_555
Ge20 Pr4 3.253870 1_545
Ge20 Pr1 3.254069 1_555
Ge21 Ru1 2.498105 1_555
Ge21 Ru4 2.498181 1_554
Ge21 Pr4 3.250203 1_555
Ge21 Pr0 3.253996 1_554
Ge21 Pr3 3.254005 1_555
Ge22 Ru7 2.498077 1_545
Ge22 Ru0 2.498311 1_555
Ge22 Pr2 3.250380 1_555
Ge22 Pr4 3.253818 1_546
Ge22 Pr1 3.253991 1_556
Ge23 Ru0 2.498223 1_554
Ge23 Ru5 2.498269 1_555
Ge23 Pr1 3.250400 1_555
Ge23 Pr3 3.253827 1_655
Ge23 Pr0 3.253871 1_654
Ge24 Ru6 2.498157 1_555
Ge24 Ru5 2.498384 1_455
Ge24 Pr3 3.250408 1_555
Ge24 Pr5 3.253824 1_555
Ge24 Pr2 3.253930 1_455
Ge25 Ru4 2.498075 1_555
Ge25 Ru7 2.498158 1_455
Ge25 Pr0 3.250205 1_555
Ge25 Pr5 3.253884 1_565
Ge25 Pr2 3.254054 1_465
