# generated using pymatgen
data_LaMg6Cr
_symmetry_space_group_name_H-M   'P 1'
_cell_length_a   5.21935100
_cell_length_b   6.47961500
_cell_length_c   11.55344700
_cell_angle_alpha   90.00000000
_cell_angle_beta   90.00000000
_cell_angle_gamma   90.00000000
_symmetry_Int_Tables_number   1
_chemical_formula_structural   LaMg6Cr
_chemical_formula_sum   'La2 Mg12 Cr2'
_cell_volume   390.73047252
_cell_formula_units_Z   2
loop_
 _symmetry_equiv_pos_site_id
 _symmetry_equiv_pos_as_xyz
  1  'x, y, z'
loop_
 _atom_site_type_symbol
 _atom_site_label
 _atom_site_symmetry_multiplicity
 _atom_site_fract_x
 _atom_site_fract_y
 _atom_site_fract_z
 _atom_site_occupancy
  La  La0  1  0.50000000  0.50000000  0.66708200  1
  La  La1  1  0.50000000  0.00000000  0.16708200  1
  Mg  Mg0  1  0.50000000  0.74448600  0.91827800  1
  Mg  Mg1  1  0.50000000  0.25551400  0.91827800  1
  Mg  Mg2  1  0.00000000  0.23633500  0.58249200  1
  Mg  Mg3  1  0.00000000  0.76366500  0.58249200  1
  Mg  Mg4  1  0.00000000  0.50000000  0.83815700  1
  Mg  Mg5  1  0.00000000  0.00000000  0.82884700  1
  Mg  Mg6  1  0.50000000  0.24448600  0.41827800  1
  Mg  Mg7  1  0.50000000  0.75551400  0.41827800  1
  Mg  Mg8  1  0.00000000  0.73633500  0.08249200  1
  Mg  Mg9  1  0.00000000  0.26366500  0.08249200  1
  Mg  Mg10  1  0.00000000  0.00000000  0.33815700  1
  Mg  Mg11  1  0.00000000  0.50000000  0.32884700  1
  Cr  Cr0  1  0.50000000  0.00000000  0.66436900  1
  Cr  Cr1  1  0.50000000  0.50000000  0.16436900  1
loop_
_geom_bond_atom_site_label_1
_geom_bond_atom_site_label_2
_geom_bond_distance
_geom_bond_site_symmetry_2
La0 Mg3 3.268689 1_555
La0 Mg2 3.268689 1_655
La0 Mg2 3.268689 1_555
La0 Mg3 3.268689 1_655
La0 Mg4 3.273680 1_555
La0 Mg4 3.273680 1_655
La0 Mg1 3.306396 1_555
La0 Mg0 3.306396 1_555
La0 Mg7 3.317246 1_555
La0 Mg6 3.317246 1_555
La1 Mg9 3.268689 1_655
La1 Mg8 3.268689 1_645
La1 Mg8 3.268689 1_545
La1 Mg9 3.268689 1_555
La1 Mg10 3.273680 1_555
La1 Mg10 3.273680 1_655
La1 Mg7 3.306396 1_545
La1 Mg6 3.306396 1_555
La1 Mg1 3.317246 1_554
La1 Mg0 3.317246 1_544
Mg0 Mg1 3.168350 1_555
Mg0 Mg4 3.190124 1_655
Mg0 Mg4 3.190124 1_555
Mg0 Mg8 3.226873 1_656
Mg0 Mg8 3.226873 1_556
Mg0 Mg5 3.258696 1_665
Mg0 Mg5 3.258696 1_565
Mg0 Mg1 3.311265 1_565
Mg1 Mg4 3.190124 1_655
Mg1 Mg4 3.190124 1_555
Mg1 Mg9 3.226873 1_656
Mg1 Mg9 3.226873 1_556
Mg1 Mg5 3.258696 1_655
Mg1 Mg5 3.258696 1_555
Mg2 Mg3 3.062720 1_545
Mg2 Mg6 3.226873 1_455
Mg2 Mg6 3.226873 1_555
Mg2 Mg5 3.232058 1_555
Mg2 Mg4 3.412301 1_555
Mg2 Mg3 3.416895 1_555
Mg3 Mg7 3.226873 1_455
Mg3 Mg7 3.226873 1_555
Mg3 Mg5 3.232058 1_565
Mg3 Mg4 3.412301 1_555
Mg4 Mg8 3.211525 1_556
Mg4 Mg9 3.211525 1_556
Mg4 Mg5 3.241593 1_555
Mg4 Mg5 3.241593 1_565
Mg5 Mg8 3.392119 1_546
Mg5 Mg9 3.392119 1_556
Mg6 Mg7 3.168350 1_545
Mg6 Mg7 3.311265 1_555
Mg8 Mg9 3.062720 1_555
Mg8 Mg9 3.416895 1_565
Mg10 Mg6 3.190124 1_455
Mg10 Mg6 3.190124 1_555
Mg10 Mg7 3.190124 1_445
Mg10 Mg7 3.190124 1_545
Mg10 Mg2 3.211525 1_555
Mg10 Mg3 3.211525 1_545
Mg10 Mg11 3.241593 1_555
Mg10 Mg11 3.241593 1_545
Mg10 Mg9 3.412301 1_555
Mg10 Mg8 3.412301 1_545
Mg11 Mg8 3.232058 1_555
Mg11 Mg9 3.232058 1_555
Mg11 Mg7 3.258696 1_455
Mg11 Mg7 3.258696 1_555
Mg11 Mg6 3.258696 1_555
Mg11 Mg6 3.258696 1_455
Mg11 Mg2 3.392119 1_555
Mg11 Mg3 3.392119 1_555
Cr0 Mg2 3.170223 1_655
Cr0 Mg3 3.170223 1_545
Cr0 Mg2 3.170223 1_555
Cr0 Mg3 3.170223 1_645
Cr0 Mg5 3.228235 1_555
Cr0 Mg5 3.228235 1_655
Cr0 La0 3.239959 1_545
Cr0 La0 3.239959 1_555
Cr0 Mg7 3.254749 1_545
Cr0 Mg6 3.254749 1_555
Cr0 Mg1 3.368484 1_555
Cr0 Mg0 3.368484 1_545
Cr1 Mg9 3.170223 1_555
Cr1 Mg9 3.170223 1_655
Cr1 Mg8 3.170223 1_555
Cr1 Mg8 3.170223 1_655
Cr1 Mg11 3.228235 1_655
Cr1 Mg11 3.228235 1_555
Cr1 La1 3.239959 1_565
Cr1 La1 3.239959 1_555
Cr1 Mg0 3.254749 1_554
Cr1 Mg1 3.254749 1_554
Cr1 Mg7 3.368484 1_555
Cr1 Mg6 3.368484 1_555
