# generated using pymatgen
data_Na(MoSe)3
_symmetry_space_group_name_H-M   'P 1'
_cell_length_a   8.87795786
_cell_length_b   8.87795786
_cell_length_c   4.52226100
_cell_angle_alpha   90.00000000
_cell_angle_beta   90.00000000
_cell_angle_gamma   119.99999896
_symmetry_Int_Tables_number   1
_chemical_formula_structural   Na(MoSe)3
_chemical_formula_sum   'Na2 Mo6 Se6'
_cell_volume   308.68279121
_cell_formula_units_Z   2
loop_
 _symmetry_equiv_pos_site_id
 _symmetry_equiv_pos_as_xyz
  1  'x, y, z'
loop_
 _atom_site_type_symbol
 _atom_site_label
 _atom_site_symmetry_multiplicity
 _atom_site_fract_x
 _atom_site_fract_y
 _atom_site_fract_z
 _atom_site_occupancy
  Na  Na0  1  0.66666700  0.33333300  0.75000000  1
  Na  Na1  1  0.33333300  0.66666700  0.25000000  1
  Mo  Mo0  1  0.97447500  0.81531800  0.75000000  1
  Mo  Mo1  1  0.84084400  0.02552500  0.75000000  1
  Mo  Mo2  1  0.18468200  0.15915600  0.75000000  1
  Mo  Mo3  1  0.02552500  0.18468200  0.25000000  1
  Mo  Mo4  1  0.15915600  0.97447500  0.25000000  1
  Mo  Mo5  1  0.81531800  0.84084400  0.25000000  1
  Se  Se0  1  0.31623800  0.95043300  0.75000000  1
  Se  Se1  1  0.63419500  0.68376200  0.75000000  1
  Se  Se2  1  0.04956700  0.36580500  0.75000000  1
  Se  Se3  1  0.68376200  0.04956700  0.25000000  1
  Se  Se4  1  0.36580500  0.31623800  0.25000000  1
  Se  Se5  1  0.95043300  0.63419500  0.25000000  1
loop_
_geom_bond_atom_site_label_1
_geom_bond_atom_site_label_2
_geom_bond_distance
_geom_bond_site_symmetry_2
Na0 Se2 3.264788 1_655
Na0 Se0 3.264791 1_545
Na0 Se1 3.264796 1_555
Na0 Se3 3.444528 1_555
Na0 Se3 3.444528 1_556
Na0 Se5 3.444532 1_556
Na0 Se5 3.444532 1_555
Na0 Se4 3.444535 1_556
Na0 Se4 3.444535 1_555
Na1 Se5 3.264788 1_455
Na1 Se3 3.264791 1_565
Na1 Se4 3.264796 1_555
Na1 Se0 3.444528 1_555
Na1 Se0 3.444528 1_554
Na1 Se2 3.444532 1_554
Na1 Se2 3.444532 1_555
Na1 Se1 3.444535 1_555
Na1 Se1 3.444535 1_554
Mo0 Se1 2.638585 1_555
Mo0 Se0 2.646774 1_655
Mo0 Se5 2.720427 1_556
Mo0 Se5 2.720427 1_555
Mo1 Se2 2.638584 1_655
Mo1 Se1 2.646775 1_545
Mo1 Se3 2.720432 1_556
Mo1 Se3 2.720432 1_555
Mo2 Se0 2.638577 1_545
Mo2 Se2 2.646782 1_555
Mo2 Se4 2.720429 1_556
Mo2 Se4 2.720429 1_555
Mo3 Se4 2.638585 1_555
Mo3 Se3 2.646774 1_455
Mo3 Se2 2.720427 1_554
Mo3 Se2 2.720427 1_555
Mo4 Se5 2.638584 1_455
Mo4 Se4 2.646775 1_565
Mo4 Se0 2.720432 1_555
Mo4 Se0 2.720432 1_554
Mo5 Se3 2.638577 1_565
Mo5 Se5 2.646782 1_555
Mo5 Se1 2.720429 1_555
Mo5 Se1 2.720429 1_554
