# generated using pymatgen
data_Li4MnCo3O8
_symmetry_space_group_name_H-M   'P 1'
_cell_length_a   5.87395872
_cell_length_b   5.87395872
_cell_length_c   5.15483696
_cell_angle_alpha   72.86972869
_cell_angle_beta   72.86972869
_cell_angle_gamma   59.90119326
_symmetry_Int_Tables_number   1
_chemical_formula_structural   Li4MnCo3O8
_chemical_formula_sum   'Li4 Mn1 Co3 O8'
_cell_volume   144.71316899
_cell_formula_units_Z   1
loop_
 _symmetry_equiv_pos_site_id
 _symmetry_equiv_pos_as_xyz
  1  'x, y, z'
loop_
 _atom_site_type_symbol
 _atom_site_label
 _atom_site_symmetry_multiplicity
 _atom_site_fract_x
 _atom_site_fract_y
 _atom_site_fract_z
 _atom_site_occupancy
  Li  Li0  1  0.24914600  0.24914600  0.49826500  1
  Li  Li1  1  0.24955000  0.75045000  0.50000000  1
  Li  Li2  1  0.75045000  0.24955000  0.50000000  1
  Li  Li3  1  0.75085400  0.75085400  0.50173500  1
  Mn  Mn0  1  0.50000000  0.50000000  0.00000000  1
  Co  Co0  1  0.00000000  0.00000000  0.00000000  1
  Co  Co1  1  0.00000000  0.50000000  0.00000000  1
  Co  Co2  1  0.50000000  0.00000000  0.00000000  1
  O  O0  1  0.37974000  0.37974000  0.77455300  1
  O  O1  1  0.38539900  0.85417400  0.77025600  1
  O  O2  1  0.85417400  0.38539900  0.77025600  1
  O  O3  1  0.86456300  0.86456300  0.77067000  1
  O  O4  1  0.13543700  0.13543700  0.22933000  1
  O  O5  1  0.14582600  0.61460100  0.22974400  1
  O  O6  1  0.61460100  0.14582600  0.22974400  1
  O  O7  1  0.62026000  0.62026000  0.22544700  1
loop_
_geom_bond_atom_site_label_1
_geom_bond_atom_site_label_2
_geom_bond_distance
_geom_bond_site_symmetry_2
Li0 O5 2.080920 1_555
Li0 O6 2.080920 1_555
Li0 O4 2.086265 1_555
Li0 O2 2.207125 1_455
Li0 O1 2.207125 1_545
Li0 O0 2.254483 1_555
Li1 O0 2.116929 1_555
Li1 O7 2.116929 1_555
Li1 O5 2.142730 1_555
Li1 O1 2.142730 1_555
Li1 O3 2.163759 1_455
Li1 O4 2.163759 1_565
Li2 O0 2.116929 1_555
Li2 O7 2.116929 1_555
Li2 O6 2.142730 1_555
Li2 O2 2.142730 1_555
Li2 O3 2.163759 1_545
Li2 O4 2.163759 1_655
Li3 O2 2.080920 1_555
Li3 O1 2.080920 1_555
Li3 O3 2.086265 1_555
Li3 O6 2.207125 1_565
Li3 O5 2.207125 1_655
Li3 O7 2.254483 1_555
Mn0 O1 1.948686 1_554
Mn0 O2 1.948686 1_554
Mn0 O6 1.948686 1_555
Mn0 O5 1.948686 1_555
Mn0 O0 1.953534 1_554
Mn0 O7 1.953534 1_555
Co0 O2 2.081935 1_454
Co0 O1 2.081935 1_544
Co0 O5 2.081935 1_545
Co0 O6 2.081935 1_455
Co0 O3 2.099080 1_444
Co0 O4 2.099080 1_555
Co1 O3 1.992523 1_454
Co1 O4 1.992523 1_555
Co1 O0 2.049684 1_554
Co1 O7 2.049684 1_455
Co1 O5 2.057908 1_555
Co1 O2 2.057908 1_454
Co2 O3 1.992523 1_544
Co2 O4 1.992523 1_555
Co2 O7 2.049684 1_545
Co2 O0 2.049684 1_554
Co2 O1 2.057908 1_544
Co2 O6 2.057908 1_555
