# generated using pymatgen
data_ZrPt3
_symmetry_space_group_name_H-M   'P 1'
_cell_length_a   5.69323639
_cell_length_b   5.69323639
_cell_length_c   9.29995900
_cell_angle_alpha   89.99999985
_cell_angle_beta   90.00000015
_cell_angle_gamma   120.00014046
_symmetry_Int_Tables_number   1
_chemical_formula_structural   ZrPt3
_chemical_formula_sum   'Zr4 Pt12'
_cell_volume   261.05347801
_cell_formula_units_Z   4
loop_
 _symmetry_equiv_pos_site_id
 _symmetry_equiv_pos_as_xyz
  1  'x, y, z'
loop_
 _atom_site_type_symbol
 _atom_site_label
 _atom_site_symmetry_multiplicity
 _atom_site_fract_x
 _atom_site_fract_y
 _atom_site_fract_z
 _atom_site_occupancy
  Zr  Zr0  1  0.00000000  0.00000000  0.50000000  1
  Zr  Zr1  1  0.00000000  0.00000000  -0.00000000  1
  Zr  Zr2  1  0.66667074  0.33332926  0.74999716  1
  Zr  Zr3  1  0.33332926  0.66667074  0.25000284  1
  Pt  Pt0  1  0.50000000  0.00000000  0.50000000  1
  Pt  Pt1  1  0.50000000  0.50000000  0.50000000  1
  Pt  Pt2  1  0.00000000  0.50000000  0.50000000  1
  Pt  Pt3  1  0.50000000  0.00000000  -0.00000000  1
  Pt  Pt4  1  0.50000000  0.50000000  -0.00000000  1
  Pt  Pt5  1  0.00000000  0.50000000  -0.00000000  1
  Pt  Pt6  1  0.17014111  0.82985889  0.75002001  1
  Pt  Pt7  1  0.65973128  0.82985662  0.75002001  1
  Pt  Pt8  1  0.17014338  0.34026872  0.75002001  1
  Pt  Pt9  1  0.82985889  0.17014111  0.24997999  1
  Pt  Pt10  1  0.34026872  0.17014338  0.24997999  1
  Pt  Pt11  1  0.82985662  0.65973128  0.24997999  1
loop_
_geom_bond_atom_site_label_1
_geom_bond_atom_site_label_2
_geom_bond_distance
_geom_bond_site_symmetry_2
Pt0 Pt9 2.837671 1_555
Pt0 Pt6 2.837671 1_545
Pt0 Pt10 2.837718 1_555
Pt0 Pt7 2.837718 1_545
Pt0 Pt2 2.846612 1_655
Pt0 Pt2 2.846612 1_545
Pt0 Pt1 2.846618 1_555
Pt0 Zr0 2.846618 1_555
Pt0 Pt1 2.846618 1_545
Pt0 Zr0 2.846618 1_655
Pt0 Zr3 2.847184 1_545
Pt0 Zr2 2.847184 1_555
Pt1 Pt10 2.837664 1_555
Pt1 Pt11 2.837664 1_555
Pt1 Pt8 2.837664 1_555
Pt1 Pt7 2.837664 1_555
Pt1 Zr0 2.846612 1_665
Pt1 Zr0 2.846612 1_555
Pt1 Pt2 2.846618 1_555
Pt1 Pt2 2.846618 1_655
Pt1 Zr3 2.847221 1_555
Pt1 Zr2 2.847221 1_555
Pt2 Pt9 2.837671 1_455
Pt2 Pt6 2.837671 1_555
Pt2 Pt8 2.837718 1_555
Pt2 Zr0 2.846618 1_555
Pt2 Zr0 2.846618 1_565
Pt2 Zr2 2.847184 1_455
Pt2 Zr3 2.847184 1_555
Pt3 Pt6 2.837366 1_544
Pt3 Pt9 2.837366 1_555
Pt3 Pt7 2.837413 1_544
Pt3 Pt5 2.846612 1_545
Pt3 Pt5 2.846612 1_655
Pt3 Zr1 2.846618 1_655
Pt3 Zr1 2.846618 1_555
Pt3 Pt4 2.846618 1_545
Pt3 Pt4 2.846618 1_555
Pt3 Zr3 2.847228 1_545
Pt3 Zr2 2.847228 1_554
Pt4 Pt7 2.837359 1_554
Pt4 Pt8 2.837359 1_554
Pt4 Zr1 2.846612 1_665
Pt4 Zr1 2.846612 1_555
Pt4 Pt5 2.846618 1_555
Pt4 Pt5 2.846618 1_655
Pt4 Zr2 2.847264 1_554
Pt4 Zr3 2.847264 1_555
Pt5 Pt6 2.837366 1_554
Pt5 Pt9 2.837366 1_455
Pt5 Pt8 2.837413 1_554
Pt5 Zr1 2.846618 1_565
Pt5 Zr1 2.846618 1_555
Pt5 Zr2 2.847228 1_454
Pt5 Zr3 2.847228 1_555
Pt6 Pt7 2.787359 1_555
Pt6 Pt8 2.787359 1_555
Pt6 Zr2 2.846818 1_455
Pt6 Zr2 2.846818 1_565
Pt6 Zr1 2.866982 1_566
Pt6 Zr0 2.867284 1_565
Pt6 Pt7 2.905877 1_455
Pt6 Pt8 2.905877 1_565
Pt7 Pt8 2.787334 1_555
Pt7 Zr2 2.846807 1_555
Pt7 Zr2 2.846840 1_565
Pt7 Zr1 2.866941 1_666
Pt7 Zr0 2.867243 1_665
Pt7 Pt8 2.905891 1_665
Pt8 Zr2 2.846807 1_555
Pt8 Zr2 2.846840 1_455
Pt8 Zr1 2.866941 1_556
Pt8 Zr0 2.867243 1_555
Pt9 Zr3 2.846818 1_545
Pt9 Zr3 2.846818 1_655
Pt9 Zr1 2.866982 1_655
Pt9 Zr0 2.867284 1_655
Pt10 Pt11 2.787334 1_555
Pt10 Pt9 2.787359 1_555
Pt10 Pt4 2.837359 1_555
Pt10 Pt3 2.837413 1_555
Pt10 Zr3 2.846807 1_555
Pt10 Zr3 2.846840 1_545
Pt10 Zr1 2.866941 1_555
Pt10 Zr0 2.867243 1_555
Pt10 Pt9 2.905877 1_455
Pt10 Pt11 2.905891 1_445
Pt11 Pt9 2.787359 1_555
Pt11 Pt4 2.837359 1_555
Pt11 Pt5 2.837413 1_655
Pt11 Pt2 2.837718 1_655
Pt11 Zr3 2.846807 1_555
Pt11 Zr3 2.846840 1_655
Pt11 Zr1 2.866941 1_665
Pt11 Zr0 2.867243 1_665
Pt11 Pt9 2.905877 1_565
