# generated using pymatgen
data_MgCr2(SiO4)3
_symmetry_space_group_name_H-M   'P 1'
_cell_length_a   10.13923943
_cell_length_b   10.13923943
_cell_length_c   10.13923943
_cell_angle_alpha   109.79795447
_cell_angle_beta   109.79795447
_cell_angle_gamma   108.81971082
_symmetry_Int_Tables_number   1
_chemical_formula_structural   MgCr2(SiO4)3
_chemical_formula_sum   'Mg4 Cr8 Si12 O48'
_cell_volume   802.32843632
_cell_formula_units_Z   4
loop_
 _symmetry_equiv_pos_site_id
 _symmetry_equiv_pos_as_xyz
  1  'x, y, z'
loop_
 _atom_site_type_symbol
 _atom_site_label
 _atom_site_symmetry_multiplicity
 _atom_site_fract_x
 _atom_site_fract_y
 _atom_site_fract_z
 _atom_site_occupancy
  Mg  Mg0  1  0.75000000  0.75000000  0.00000000  1
  Mg  Mg1  1  0.50000000  0.00000000  0.50000000  1
  Mg  Mg2  1  0.00000000  0.50000000  0.50000000  1
  Mg  Mg3  1  0.25000000  0.25000000  0.00000000  1
  Cr  Cr0  1  0.87500000  0.12500000  0.25000000  1
  Cr  Cr1  1  0.87500000  0.62500000  0.25000000  1
  Cr  Cr2  1  0.37500000  0.12500000  0.25000000  1
  Cr  Cr3  1  0.37500000  0.62500000  0.25000000  1
  Cr  Cr4  1  0.37500000  0.12500000  0.75000000  1
  Cr  Cr5  1  0.87500000  0.62500000  0.75000000  1
  Cr  Cr6  1  0.37500000  0.62500000  0.75000000  1
  Cr  Cr7  1  0.87500000  0.12500000  0.75000000  1
  Si  Si0  1  0.25000000  0.75000000  0.50000000  1
  Si  Si1  1  0.62500000  0.24978200  0.12478200  1
  Si  Si2  1  0.75021800  0.87500000  0.37521800  1
  Si  Si3  1  0.12500000  0.50021800  0.87521800  1
  Si  Si4  1  0.25021800  0.87500000  0.87521800  1
  Si  Si5  1  0.49978200  0.37500000  0.62478200  1
  Si  Si6  1  0.75000000  0.25000000  0.50000000  1
  Si  Si7  1  0.99978200  0.37500000  0.12478200  1
  Si  Si8  1  0.00000000  0.00000000  0.00000000  1
  Si  Si9  1  0.12500000  0.00021800  0.37521800  1
  Si  Si10  1  0.62500000  0.74978200  0.62478200  1
  Si  Si11  1  0.50000000  0.50000000  0.00000000  1
  O  O0  1  0.06157300  0.70197000  0.44942700  1
  O  O1  1  0.47631900  0.61901100  0.43724600  1
  O  O2  1  0.06823500  0.13098900  0.35730800  1
  O  O3  1  0.98521400  0.32934600  0.26289500  1
  O  O4  1  0.26478600  0.02768100  0.84413200  1
  O  O5  1  0.45197000  0.50254300  0.14039700  1
  O  O6  1  0.36214600  0.31157300  0.85960300  1
  O  O7  1  0.78907300  0.72631900  0.35730800  1
  O  O8  1  0.77768100  0.43354900  0.26289500  1
  O  O9  1  0.36901100  0.43176500  0.64269200  1
  O  O10  1  0.47231900  0.23521400  0.15586800  1
  O  O11  1  0.88098900  0.02368100  0.56275400  1
  O  O12  1  0.17065400  0.51478600  0.73710500  1
  O  O13  1  0.07934600  0.31645100  0.84413200  1
  O  O14  1  0.46092700  0.31823500  0.43724600  1
  O  O15  1  0.99745700  0.04803000  0.85960300  1
  O  O16  1  0.18176500  0.03907300  0.56275400  1
  O  O17  1  0.18842700  0.13785400  0.14039700  1
  O  O18  1  0.18354900  0.42065400  0.15586800  1
  O  O19  1  0.25254300  0.61214600  0.55057300  1
  O  O20  1  0.79803000  0.43842700  0.55057300  1
  O  O21  1  0.77368100  0.71092700  0.64269200  1
  O  O22  1  0.06645100  0.72231900  0.73710500  1
  O  O23  1  0.88785400  0.24745700  0.44942700  1
  O  O24  1  0.68842700  0.54803000  0.05057300  1
  O  O25  1  0.27368100  0.63098900  0.06275400  1
  O  O26  1  0.68176500  0.11901100  0.14269200  1
  O  O27  1  0.76478600  0.92065400  0.23710500  1
  O  O28  1  0.48521400  0.22231900  0.65586800  1
  O  O29  1  0.29803000  0.74745700  0.35960300  1
  O  O30  1  0.38785400  0.93842700  0.64039700  1
  O  O31  1  0.96092700  0.52368100  0.14269200  1
  O  O32  1  0.97231900  0.81645100  0.23710500  1
  O  O33  1  0.38098900  0.81823500  0.85730800  1
  O  O34  1  0.27768100  0.01478600  0.34413200  1
  O  O35  1  0.86901100  0.22631900  0.93724600  1
  O  O36  1  0.57934600  0.73521400  0.76289500  1
  O  O37  1  0.67065400  0.93354900  0.65586800  1
  O  O38  1  0.28907300  0.93176500  0.06275400  1
  O  O39  1  0.75254300  0.20197000  0.64039700  1
  O  O40  1  0.56823500  0.21092700  0.93724600  1
  O  O41  1  0.56157300  0.11214600  0.35960300  1
  O  O42  1  0.56645100  0.82934600  0.34413200  1
  O  O43  1  0.49745700  0.63785400  0.94942700  1
  O  O44  1  0.95197000  0.81157300  0.94942700  1
  O  O45  1  0.97631900  0.53907300  0.85730800  1
  O  O46  1  0.68354900  0.52768100  0.76289500  1
  O  O47  1  0.86214600  0.00254300  0.05057300  1
loop_
_geom_bond_atom_site_label_1
_geom_bond_atom_site_label_2
_geom_bond_distance
_geom_bond_site_symmetry_2
Mg0 O47 2.224770 1_565
Mg0 O44 2.224770 1_554
Mg0 O43 2.224770 1_554
Mg0 O24 2.224770 1_555
Mg0 O27 2.359360 1_555
Mg0 O36 2.359360 1_554
Mg0 O46 2.359360 1_554
Mg0 O32 2.359360 1_555
Mg1 O39 2.224770 1_555
Mg1 O29 2.224770 1_545
Mg1 O30 2.224770 1_545
Mg1 O41 2.224770 1_555
Mg1 O28 2.359360 1_555
Mg1 O42 2.359360 1_545
Mg1 O34 2.359360 1_555
Mg1 O37 2.359360 1_545
Mg2 O0 2.224770 1_555
Mg2 O23 2.224770 1_455
Mg2 O20 2.224770 1_455
Mg2 O19 2.224770 1_555
Mg2 O3 2.359360 1_455
Mg2 O8 2.359360 1_455
Mg2 O12 2.359360 1_555
Mg2 O22 2.359360 1_555
Mg3 O15 2.224770 1_454
Mg3 O5 2.224770 1_555
Mg3 O6 2.224770 1_554
Mg3 O17 2.224770 1_555
Mg3 O18 2.359360 1_555
Mg3 O13 2.359360 1_554
Mg3 O4 2.359360 1_554
Mg3 O10 2.359360 1_555
Cr0 O26 1.860270 1_555
Cr0 O2 1.860270 1_655
Cr0 O47 1.914058 1_555
Cr0 O23 1.914058 1_555
Cr0 O3 1.944839 1_555
Cr0 O27 1.944839 1_545
Cr1 O31 1.860270 1_555
Cr1 O7 1.860270 1_555
Cr1 O24 1.914058 1_555
Cr1 O0 1.914058 1_655
Cr1 O8 1.944839 1_555
Cr1 O32 1.944839 1_555
Cr2 O14 1.860270 1_555
Cr2 O38 1.860270 1_545
Cr2 O41 1.914058 1_555
Cr2 O17 1.914058 1_555
Cr2 O34 1.944839 1_555
Cr2 O10 1.944839 1_555
Cr3 O25 1.860270 1_555
Cr3 O1 1.860270 1_555
Cr3 O5 1.914058 1_555
Cr3 O29 1.914058 1_555
Cr3 O18 1.944839 1_555
Cr3 O42 1.944839 1_555
Cr4 O16 1.860270 1_555
Cr4 O40 1.860270 1_555
Cr4 O30 1.914058 1_545
Cr4 O6 1.914058 1_555
Cr4 O28 1.944839 1_555
Cr4 O4 1.944839 1_555
Cr5 O45 1.860270 1_555
Cr5 O21 1.860270 1_555
Cr5 O20 1.914058 1_555
Cr5 O44 1.914058 1_555
Cr5 O22 1.944839 1_655
Cr5 O46 1.944839 1_555
Cr6 O9 1.860270 1_555
Cr6 O33 1.860270 1_555
Cr6 O19 1.914058 1_555
Cr6 O43 1.914058 1_555
Cr6 O12 1.944839 1_555
Cr6 O36 1.944839 1_555
Cr7 O11 1.860270 1_555
Cr7 O35 1.860270 1_555
Cr7 O15 1.914058 1_555
Cr7 O39 1.914058 1_555
Cr7 O13 1.944839 1_655
Cr7 O37 1.944839 1_545
O0 Si0 1.648354 1_555
O1 Si10 1.645286 1_555
O2 Si9 1.645286 1_555
O3 Si7 1.652942 1_555
O4 Si4 1.652942 1_545
O5 Si11 1.648354 1_555
O6 Si11 1.648354 1_556
O7 Si2 1.645286 1_555
O8 Si1 1.652942 1_555
O9 Si5 1.645286 1_555
O10 Si1 1.652942 1_555
O11 Si2 1.645286 1_545
O12 Si3 1.652942 1_555
O13 Si3 1.652942 1_555
O14 Si5 1.645286 1_555
O15 Si8 1.648354 1_656
O16 Si9 1.645286 1_555
O17 Si8 1.648354 1_555
O18 Si7 1.652942 1_455
O19 Si0 1.648354 1_555
O20 Si6 1.648354 1_555
O21 Si10 1.645286 1_555
O22 Si4 1.652942 1_555
O23 Si6 1.648354 1_555
O24 Si11 1.648354 1_555
O25 Si3 1.645286 1_554
O26 Si1 1.645286 1_555
O27 Si2 1.652942 1_555
O28 Si5 1.652942 1_555
O29 Si0 1.648354 1_555
O30 Si0 1.648354 1_555
O31 Si7 1.645286 1_555
O32 Si9 1.652942 1_665
O33 Si4 1.645286 1_555
O34 Si9 1.652942 1_555
O35 Si7 1.645286 1_556
O36 Si10 1.652942 1_555
O37 Si10 1.652942 1_555
O38 Si4 1.645286 1_554
O39 Si6 1.648354 1_555
O40 Si1 1.645286 1_556
O41 Si6 1.648354 1_555
O42 Si2 1.652942 1_555
O43 Si11 1.648354 1_556
O44 Si8 1.648354 1_666
O45 Si3 1.645286 1_655
O46 Si5 1.652942 1_555
O47 Si8 1.648354 1_655
