# generated using pymatgen
data_SmB12
_symmetry_space_group_name_H-M   'P 1'
_cell_length_a   5.33202351
_cell_length_b   5.33202470
_cell_length_c   5.33202531
_cell_angle_alpha   60.00000871
_cell_angle_beta   60.00000139
_cell_angle_gamma   60.00000829
_symmetry_Int_Tables_number   1
_chemical_formula_structural   SmB12
_chemical_formula_sum   'Sm1 B12'
_cell_volume   107.19177749
_cell_formula_units_Z   1
loop_
 _symmetry_equiv_pos_site_id
 _symmetry_equiv_pos_as_xyz
  1  'x, y, z'
loop_
 _atom_site_type_symbol
 _atom_site_label
 _atom_site_symmetry_multiplicity
 _atom_site_fract_x
 _atom_site_fract_y
 _atom_site_fract_z
 _atom_site_occupancy
  Sm  Sm0  1  -0.00000000  0.00000000  0.00000000  1
  B  B0  1  0.16268913  0.50000000  0.50000000  1
  B  B1  1  0.83731087  0.50000000  0.50000000  1
  B  B2  1  0.50000000  0.50000000  0.83731087  1
  B  B3  1  0.83731087  0.16268913  0.50000000  1
  B  B4  1  0.50000000  0.83731087  0.16268913  1
  B  B5  1  0.50000000  0.16268913  0.83731087  1
  B  B6  1  0.50000000  0.83731087  0.50000000  1
  B  B7  1  0.83731087  0.50000000  0.16268913  1
  B  B8  1  0.16268913  0.83731087  0.50000000  1
  B  B9  1  0.50000000  0.16268913  0.50000000  1
  B  B10  1  0.16268913  0.50000000  0.83731087  1
  B  B11  1  0.50000000  0.50000000  0.16268913  1
loop_
_geom_bond_atom_site_label_1
_geom_bond_atom_site_label_2
_geom_bond_distance
_geom_bond_site_symmetry_2
B0 B1 1.734925 1_455
B0 B11 1.798550 1_555
B0 B8 1.798550 1_555
B0 B9 1.798550 1_555
B0 B10 1.798550 1_555
B0 Sm0 2.803590 1_556
B0 Sm0 2.803590 1_565
B1 B2 1.798550 1_555
B1 B3 1.798550 1_555
B1 B6 1.798550 1_555
B1 B7 1.798550 1_555
B1 Sm0 2.803590 1_665
B1 Sm0 2.803590 1_656
B2 B5 1.798550 1_555
B2 B6 1.798550 1_555
B2 Sm0 2.803589 1_656
B2 Sm0 2.803589 1_566
B3 B8 1.734925 1_645
B3 B9 1.798549 1_555
B3 B5 1.798550 1_555
B3 B7 1.798550 1_555
B3 Sm0 2.803590 1_656
B3 Sm0 2.803590 1_655
B4 B5 1.734925 1_564
B4 B8 1.798550 1_555
B4 B7 1.798550 1_555
B4 B6 1.798550 1_555
B4 Sm0 2.803589 1_665
B4 Sm0 2.803589 1_565
B5 B9 1.798550 1_555
B5 Sm0 2.803589 1_556
B5 Sm0 2.803589 1_656
B6 B9 1.734925 1_565
B6 B8 1.798549 1_555
B6 Sm0 2.803589 1_665
B6 Sm0 2.803589 1_566
B7 Sm0 2.803589 1_665
B7 Sm0 2.803589 1_655
B8 Sm0 2.803590 1_565
B8 Sm0 2.803590 1_566
B9 Sm0 2.803589 1_556
B9 Sm0 2.803589 1_655
B10 B7 1.734925 1_456
B10 B2 1.798549 1_555
B10 B5 1.798550 1_555
B10 B8 1.798550 1_555
B10 Sm0 2.803589 1_556
B10 Sm0 2.803589 1_566
B11 B2 1.734925 1_554
B11 B7 1.798549 1_555
B11 B4 1.798550 1_555
B11 B9 1.798550 1_555
B11 Sm0 2.803589 1_565
B11 Sm0 2.803589 1_655
