# generated using pymatgen
data_Na4H6Se2O11
_symmetry_space_group_name_H-M   'P 1'
_cell_length_a   5.58353291
_cell_length_b   5.58353291
_cell_length_c   18.29789639
_cell_angle_alpha   96.74568174
_cell_angle_beta   96.74568174
_cell_angle_gamma   103.30429614
_symmetry_Int_Tables_number   1
_chemical_formula_structural   Na4H6Se2O11
_chemical_formula_sum   'Na8 H12 Se4 O22'
_cell_volume   545.10243432
_cell_formula_units_Z   2
loop_
 _symmetry_equiv_pos_site_id
 _symmetry_equiv_pos_as_xyz
  1  'x, y, z'
loop_
 _atom_site_type_symbol
 _atom_site_label
 _atom_site_symmetry_multiplicity
 _atom_site_fract_x
 _atom_site_fract_y
 _atom_site_fract_z
 _atom_site_occupancy
  Na  Na0  1  0.05224200  0.37275500  0.80872100  1
  Na  Na1  1  0.56403400  0.24352000  0.19127900  1
  Na  Na2  1  0.49352000  0.31403400  0.69127900  1
  Na  Na3  1  0.62275500  0.80224200  0.30872100  1
  Na  Na4  1  0.30841800  0.89370400  0.99464600  1
  Na  Na5  1  0.89905900  0.31377200  0.00535400  1
  Na  Na6  1  0.56377200  0.64905900  0.50535400  1
  Na  Na7  1  0.14370400  0.05841800  0.49464600  1
  H  H0  1  0.47035800  0.09484700  0.82860200  1
  H  H1  1  0.26624500  0.64175700  0.17139800  1
  H  H2  1  0.89175700  0.01624500  0.67139800  1
  H  H3  1  0.34484700  0.22035800  0.32860200  1
  H  H4  1  0.26586500  0.91996900  0.76759100  1
  H  H5  1  0.15237800  0.49827400  0.23240900  1
  H  H6  1  0.74827400  0.90237800  0.73240900  1
  H  H7  1  0.16996900  0.01586500  0.26759100  1
  H  H8  1  0.46386900  0.41531100  0.04203500  1
  H  H9  1  0.37327700  0.42183500  0.95796500  1
  H  H10  1  0.67183500  0.12327700  0.45796500  1
  H  H11  1  0.66531100  0.21386900  0.54203500  1
  Se  Se0  1  0.71388500  0.73971900  0.87702000  1
  Se  Se1  1  0.86269800  0.83686500  0.12298000  1
  Se  Se2  1  0.08686500  0.61269800  0.62298000  1
  Se  Se3  1  0.98971900  0.46388500  0.37702000  1
  O  O0  1  0.42386900  0.62356700  0.89493000  1
  O  O1  1  0.72863700  0.52893900  0.10507000  1
  O  O2  1  0.77893900  0.47863700  0.60507000  1
  O  O3  1  0.87356700  0.17386900  0.39493000  1
  O  O4  1  0.91897800  0.64856000  0.93465800  1
  O  O5  1  0.71390200  0.98432100  0.06534200  1
  O  O6  1  0.23432100  0.46390200  0.56534200  1
  O  O7  1  0.89856000  0.66897800  0.43465800  1
  O  O8  1  0.74473000  0.63582900  0.78990200  1
  O  O9  1  0.84592700  0.95482900  0.21009800  1
  O  O10  1  0.20482900  0.59592700  0.71009800  1
  O  O11  1  0.88582900  0.49473000  0.28990200  1
  O  O12  1  0.76221200  0.05105000  0.88785700  1
  O  O13  1  0.16319300  0.87435600  0.11214300  1
  O  O14  1  0.12435600  0.91319300  0.61214300  1
  O  O15  1  0.30105000  0.51221200  0.38785700  1
  O  O16  1  0.32247700  0.09362100  0.79312400  1
  O  O17  1  0.30049700  0.52935300  0.20687600  1
  O  O18  1  0.77935300  0.05049700  0.70687600  1
  O  O19  1  0.34362100  0.07247700  0.29312400  1
  O  O20  1  0.32926700  0.32926700  0.00000000  1
  O  O21  1  0.57926700  0.07926700  0.50000000  1
loop_
_geom_bond_atom_site_label_1
_geom_bond_atom_site_label_2
_geom_bond_distance
_geom_bond_site_symmetry_2
Na0 O16 2.422028 1_555
Na0 O10 2.436391 1_555
Na0 O0 2.475835 1_555
Na0 O18 2.513051 1_455
Na0 O8 2.522894 1_455
Na0 O12 2.787267 1_455
Na0 O4 2.886496 1_455
Na1 O17 2.422032 1_555
Na1 O11 2.436391 1_555
Na1 O1 2.475839 1_555
Na1 O19 2.513049 1_555
Na1 O9 2.522885 1_545
Na1 O13 2.787262 1_545
Na1 O5 2.886490 1_545
Na2 O18 2.422032 1_555
Na2 O8 2.436391 1_555
Na2 O2 2.475839 1_555
Na2 O16 2.513049 1_555
Na2 O10 2.522885 1_555
Na2 O14 2.787262 1_545
Na2 O6 2.886490 1_555
Na3 O19 2.422028 1_565
Na3 O9 2.436391 1_555
Na3 O3 2.475835 1_565
Na3 O17 2.513051 1_555
Na3 O11 2.522894 1_555
Na3 O15 2.787267 1_555
Na3 O7 2.886496 1_555
Na4 O4 2.350127 1_455
Na4 O5 2.384576 1_556
Na4 O13 2.390659 1_556
Na4 O20 2.397650 1_566
Na4 O0 2.469208 1_555
Na5 O5 2.350124 1_545
Na5 O4 2.384577 1_554
Na5 O12 2.390660 1_554
Na5 O20 2.397645 1_655
Na5 O1 2.469211 1_555
Na6 O6 2.350124 1_555
Na6 O7 2.384577 1_555
Na6 O15 2.390660 1_555
Na6 O21 2.397645 1_565
Na6 O2 2.469211 1_555
Na7 O7 2.350127 1_445
Na7 O6 2.384576 1_555
Na7 O14 2.390659 1_545
Na7 O21 2.397650 1_555
Na7 O3 2.469208 1_455
H0 O16 0.986752 1_555
H1 O17 0.986756 1_555
H2 O18 0.986756 1_555
H3 O19 0.986752 1_555
H4 O16 0.987993 1_565
H5 O17 0.987993 1_555
H6 O18 0.987993 1_565
H7 O19 0.987993 1_555
H8 O20 0.999225 1_555
H8 O1 1.707102 1_555
H9 O20 0.999229 1_556
H9 O0 1.707097 1_555
H10 O21 0.999229 1_555
H10 O3 1.707097 1_555
H11 O21 0.999225 1_555
H11 O2 1.707102 1_555
O0 Se0 1.685655 1_555
O1 Se1 1.685654 1_555
O2 Se2 1.685654 1_655
O3 Se3 1.685655 1_555
O4 Se0 1.671336 1_555
O5 Se1 1.671337 1_555
O6 Se2 1.671337 1_555
O7 Se3 1.671336 1_555
O8 Se0 1.673460 1_555
O9 Se1 1.673461 1_555
O10 Se2 1.673461 1_555
O11 Se3 1.673460 1_555
O12 Se0 1.680619 1_545
O13 Se1 1.680624 1_455
O14 Se2 1.680624 1_555
O15 Se3 1.680619 1_455
