# generated using pymatgen
data_NdNb3O9
_symmetry_space_group_name_H-M   'P 1'
_cell_length_a   7.71946600
_cell_length_b   5.42442600
_cell_length_c   16.66622805
_cell_angle_alpha   87.98680082
_cell_angle_beta   90.00000000
_cell_angle_gamma   90.00000000
_symmetry_Int_Tables_number   1
_chemical_formula_structural   NdNb3O9
_chemical_formula_sum   'Nd4 Nb12 O36'
_cell_volume   697.44541156
_cell_formula_units_Z   4
loop_
 _symmetry_equiv_pos_site_id
 _symmetry_equiv_pos_as_xyz
  1  'x, y, z'
loop_
 _atom_site_type_symbol
 _atom_site_label
 _atom_site_symmetry_multiplicity
 _atom_site_fract_x
 _atom_site_fract_y
 _atom_site_fract_z
 _atom_site_occupancy
  Nd  Nd0  1  0.75003600  0.53438700  0.03209800  1
  Nd  Nd1  1  0.24996400  0.46561300  0.96790200  1
  Nd  Nd2  1  0.25003600  0.46561300  0.46790200  1
  Nd  Nd3  1  0.74996400  0.53438700  0.53209800  1
  Nb  Nb0  1  0.00114600  0.97924400  0.40030800  1
  Nb  Nb1  1  0.99885400  0.02075600  0.59969200  1
  Nb  Nb2  1  0.50114600  0.02075600  0.09969200  1
  Nb  Nb3  1  0.49885400  0.97924400  0.90030800  1
  Nb  Nb4  1  0.51667500  0.97216600  0.40068500  1
  Nb  Nb5  1  0.48332500  0.02783400  0.59931500  1
  Nb  Nb6  1  0.01667500  0.02783400  0.09931500  1
  Nb  Nb7  1  0.98332500  0.97216600  0.90068500  1
  Nb  Nb8  1  0.97099400  0.50818500  0.25125300  1
  Nb  Nb9  1  0.02900600  0.49181500  0.74874700  1
  Nb  Nb10  1  0.47099400  0.49181500  0.24874700  1
  Nb  Nb11  1  0.52900600  0.50818500  0.75125300  1
  O  O0  1  0.74463100  0.59614000  0.25907100  1
  O  O1  1  0.25536900  0.40386000  0.74092900  1
  O  O2  1  0.24463100  0.40386000  0.24092900  1
  O  O3  1  0.75536900  0.59614000  0.75907100  1
  O  O4  1  0.46403000  0.76173400  0.51670000  1
  O  O5  1  0.53597000  0.23826600  0.48330000  1
  O  O6  1  0.96403000  0.23826600  0.98330000  1
  O  O7  1  0.03597000  0.76173400  0.01670000  1
  O  O8  1  0.75114900  0.85090800  0.41994300  1
  O  O9  1  0.24885100  0.14909200  0.58005700  1
  O  O10  1  0.25114900  0.14909200  0.08005700  1
  O  O11  1  0.74885100  0.85090800  0.91994300  1
  O  O12  1  0.44673200  0.82027800  0.18937000  1
  O  O13  1  0.55326800  0.17972200  0.81063000  1
  O  O14  1  0.94673200  0.17972200  0.31063000  1
  O  O15  1  0.05326800  0.82027800  0.68937000  1
  O  O16  1  0.45161600  0.81706900  0.68854000  1
  O  O17  1  0.54838400  0.18293100  0.31146000  1
  O  O18  1  0.95161600  0.18293100  0.81146000  1
  O  O19  1  0.04838400  0.81706900  0.18854000  1
  O  O20  1  0.46262600  0.76110700  0.01674500  1
  O  O21  1  0.53737400  0.23889300  0.98325500  1
  O  O22  1  0.96262600  0.23889300  0.48325500  1
  O  O23  1  0.03737400  0.76110700  0.51674500  1
  O  O24  1  0.93761000  0.34591600  0.14323800  1
  O  O25  1  0.06239000  0.65408400  0.85676200  1
  O  O26  1  0.43761000  0.65408400  0.35676200  1
  O  O27  1  0.56239000  0.34591600  0.64323800  1
  O  O28  1  0.74914500  0.93618400  0.09438800  1
  O  O29  1  0.25085500  0.06381600  0.90561200  1
  O  O30  1  0.24914500  0.06381600  0.40561200  1
  O  O31  1  0.75085500  0.93618400  0.59438800  1
  O  O32  1  0.55491300  0.34948200  0.14337100  1
  O  O33  1  0.44508700  0.65051800  0.85662900  1
  O  O34  1  0.05491300  0.65051800  0.35662900  1
  O  O35  1  0.94508700  0.34948200  0.64337100  1
loop_
_geom_bond_atom_site_label_1
_geom_bond_atom_site_label_2
_geom_bond_distance
_geom_bond_site_symmetry_2
Nd0 O28 2.446845 1_555
Nd0 O21 2.453269 1_554
Nd0 O6 2.462154 1_554
Nd0 O11 2.493273 1_554
Nd0 O7 2.537017 1_655
Nd0 O24 2.537661 1_555
Nd0 O20 2.545241 1_555
Nd0 O32 2.565790 1_555
Nd1 O29 2.446845 1_555
Nd1 O20 2.453269 1_556
Nd1 O7 2.462154 1_556
Nd1 O10 2.493273 1_556
Nd1 O6 2.537017 1_455
Nd1 O25 2.537661 1_555
Nd1 O21 2.545241 1_555
Nd1 O33 2.565790 1_555
Nd2 O30 2.446845 1_555
Nd2 O23 2.453269 1_555
Nd2 O4 2.462154 1_555
Nd2 O9 2.493273 1_555
Nd2 O5 2.537017 1_555
Nd2 O26 2.537661 1_555
Nd2 O22 2.545241 1_455
Nd2 O34 2.565790 1_555
Nd3 O31 2.446845 1_555
Nd3 O22 2.453269 1_555
Nd3 O5 2.462154 1_555
Nd3 O8 2.493273 1_555
Nd3 O4 2.537017 1_555
Nd3 O27 2.537661 1_555
Nd3 O23 2.545241 1_655
Nd3 O35 2.565790 1_555
Nb0 O14 1.865118 1_465
Nb0 O30 1.971325 1_565
Nb0 O34 1.993245 1_555
Nb0 O22 2.029780 1_465
Nb0 O8 2.073644 1_455
Nb0 O23 2.254506 1_555
Nb1 O15 1.865118 1_645
Nb1 O31 1.971325 1_545
Nb1 O35 1.993245 1_555
Nb1 O23 2.029780 1_645
Nb1 O9 2.073644 1_655
Nb1 O22 2.254506 1_555
Nb2 O12 1.865118 1_545
Nb2 O28 1.971325 1_545
Nb2 O32 1.993245 1_555
Nb2 O20 2.029780 1_545
Nb2 O10 2.073644 1_555
Nb2 O21 2.254506 1_554
Nb3 O13 1.865118 1_565
Nb3 O29 1.971325 1_565
Nb3 O33 1.993245 1_555
Nb3 O21 2.029780 1_565
Nb3 O11 2.073644 1_555
Nb3 O20 2.254506 1_556
Nb4 O17 1.859800 1_565
Nb4 O8 1.948583 1_555
Nb4 O26 1.993533 1_555
Nb4 O5 2.034979 1_565
Nb4 O30 2.126446 1_565
Nb4 O4 2.247575 1_555
Nb5 O16 1.859800 1_545
Nb5 O9 1.948583 1_555
Nb5 O27 1.993533 1_555
Nb5 O4 2.034979 1_545
Nb5 O31 2.126446 1_545
Nb5 O5 2.247575 1_555
Nb6 O19 1.859800 1_545
Nb6 O10 1.948583 1_555
Nb6 O24 1.993533 1_455
Nb6 O7 2.034979 1_545
Nb6 O28 2.126446 1_445
Nb6 O6 2.247575 1_454
Nb7 O18 1.859800 1_565
Nb7 O11 1.948583 1_555
Nb7 O25 1.993533 1_655
Nb7 O6 2.034979 1_565
Nb7 O29 2.126446 1_665
Nb7 O7 2.247575 1_656
Nb8 O0 1.817247 1_555
Nb8 O14 2.016191 1_555
Nb8 O19 2.033135 1_655
Nb8 O24 2.047744 1_555
Nb8 O34 2.048252 1_655
Nb8 O2 2.195140 1_655
Nb9 O1 1.817247 1_555
Nb9 O15 2.016191 1_555
Nb9 O18 2.033135 1_455
Nb9 O25 2.047744 1_555
Nb9 O35 2.048252 1_455
Nb9 O3 2.195140 1_455
Nb10 O2 1.817247 1_555
Nb10 O12 2.016191 1_555
Nb10 O17 2.033135 1_555
Nb10 O26 2.047744 1_555
Nb10 O32 2.048252 1_555
Nb10 O0 2.195140 1_555
Nb11 O3 1.817247 1_555
Nb11 O13 2.016191 1_555
Nb11 O16 2.033135 1_555
Nb11 O27 2.047744 1_555
Nb11 O33 2.048252 1_555
Nb11 O1 2.195140 1_555
