# generated using pymatgen
data_HoTiFe11N
_symmetry_space_group_name_H-M   'P 1'
_cell_length_a   4.79287200
_cell_length_b   6.50868452
_cell_length_c   6.50868452
_cell_angle_alpha   97.46292303
_cell_angle_beta   111.60406576
_cell_angle_gamma   68.39593424
_symmetry_Int_Tables_number   1
_chemical_formula_structural   HoTiFe11N
_chemical_formula_sum   'Ho1 Ti1 Fe11 N1'
_cell_volume   175.51151322
_cell_formula_units_Z   1
loop_
 _symmetry_equiv_pos_site_id
 _symmetry_equiv_pos_as_xyz
  1  'x, y, z'
loop_
 _atom_site_type_symbol
 _atom_site_label
 _atom_site_symmetry_multiplicity
 _atom_site_fract_x
 _atom_site_fract_y
 _atom_site_fract_z
 _atom_site_occupancy
  Ho  Ho0  1  0.00618000  0.99382000  0.00618000  1
  Ti  Ti0  1  0.63505900  0.36494100  0.63505900  1
  Fe  Fe0  1  0.50003400  0.99759700  0.49891500  1
  Fe  Fe1  1  0.00128400  0.99759700  0.49891500  1
  Fe  Fe2  1  0.50003400  0.50108500  0.00240300  1
  Fe  Fe3  1  0.00128400  0.50108500  0.00240300  1
  Fe  Fe4  1  0.72566800  0.77433200  0.22566800  1
  Fe  Fe5  1  0.27746700  0.22253300  0.77746700  1
  Fe  Fe6  1  0.49761600  0.78011200  0.77534400  1
  Fe  Fe7  1  0.49761600  0.22465600  0.21988800  1
  Fe  Fe8  1  0.35683300  0.64316700  0.35683300  1
  Fe  Fe9  1  0.99990300  0.35884900  0.35865400  1
  Fe  Fe10  1  0.99990300  0.64134600  0.64115100  1
  N  N0  1  0.50111900  0.99888100  0.00111900  1
loop_
_geom_bond_atom_site_label_1
_geom_bond_atom_site_label_2
_geom_bond_distance
_geom_bond_site_symmetry_2
Ho0 N0 2.396825 1_555
Ho0 N0 2.396825 1_455
Ho0 Ti0 3.165619 1_464
Fe0 Fe1 2.390445 1_555
Fe0 Fe1 2.402427 1_655
Fe0 Fe6 2.435158 1_555
Fe0 Fe4 2.455988 1_555
Fe0 Fe7 2.480221 1_565
Fe0 Fe5 2.480512 1_565
Fe0 Fe8 2.606201 1_555
Fe0 Fe10 2.609028 1_555
Fe0 Fe9 2.627476 1_465
Fe0 Ti0 2.662200 1_565
Fe0 Ho0 3.212613 1_555
Fe0 Ho0 3.296287 1_656
Fe1 Fe6 2.435158 1_555
Fe1 Fe4 2.455988 1_455
Fe1 Fe7 2.480221 1_465
Fe1 Fe5 2.480512 1_565
Fe1 Fe8 2.606201 1_555
Fe1 Fe10 2.609026 1_455
Fe1 Fe9 2.627478 1_465
Fe1 Ti0 2.662200 1_465
Fe1 Ho0 3.212613 1_555
Fe1 Ho0 3.296287 1_556
Fe2 Fe3 2.390445 1_555
Fe2 Fe3 2.402427 1_655
Fe2 Fe7 2.435158 1_555
Fe2 Fe4 2.455988 1_555
Fe2 Fe6 2.480221 1_554
Fe2 Fe5 2.480512 1_554
Fe2 Fe8 2.606201 1_555
Fe2 Fe9 2.609028 1_555
Fe2 Ti0 2.662200 1_554
Fe2 Ho0 3.212613 1_555
Fe2 Ho0 3.296287 1_645
Fe3 Fe7 2.435158 1_555
Fe3 Fe4 2.455988 1_455
Fe3 Fe6 2.480221 1_454
Fe3 Fe5 2.480512 1_554
Fe3 Fe8 2.606201 1_555
Fe3 Fe9 2.609026 1_455
Fe3 Ti0 2.662200 1_454
Fe3 Ho0 3.212613 1_555
Fe3 Ho0 3.296287 1_545
Fe4 N0 1.915377 1_555
Fe4 Fe9 2.634887 1_555
Fe5 N0 1.907726 1_546
Fe5 Fe9 2.660136 1_455
Fe5 Ti0 2.686719 1_455
Fe5 Ti0 2.686719 1_555
Fe6 N0 1.908687 1_556
Fe6 Ti0 2.657216 1_555
Fe7 N0 1.908687 1_545
Fe7 Ti0 2.657216 1_555
Fe7 Fe9 2.667669 1_455
Fe7 Fe9 2.667673 1_555
Fe8 Ti0 2.373236 1_555
Fe8 Fe9 2.950087 1_455
Fe8 Fe9 2.950091 1_555
Fe9 Ti0 2.922811 1_655
Fe9 Ti0 2.922815 1_555
Fe9 Ho0 3.080747 1_645
Fe10 Fe9 2.425551 1_555
Fe10 Fe2 2.627476 1_656
Fe10 Fe3 2.627478 1_656
Fe10 Fe4 2.634887 1_555
Fe10 Fe5 2.660136 1_655
Fe10 Fe6 2.667669 1_655
Fe10 Fe6 2.667673 1_555
Fe10 Ti0 2.922811 1_655
Fe10 Ti0 2.922815 1_555
Fe10 Fe8 2.950087 1_655
Fe10 Fe8 2.950091 1_555
Fe10 Ho0 3.080747 1_656
