# generated using pymatgen
data_Mg(BH4)2
_symmetry_space_group_name_H-M   'P 1'
_cell_length_a   5.64910900
_cell_length_b   5.64910900
_cell_length_c   6.04081800
_cell_angle_alpha   90.00000000
_cell_angle_beta   90.00000000
_cell_angle_gamma   90.00000000
_symmetry_Int_Tables_number   1
_chemical_formula_structural   Mg(BH4)2
_chemical_formula_sum   'Mg2 B4 H16'
_cell_volume   192.77719663
_cell_formula_units_Z   2
loop_
 _symmetry_equiv_pos_site_id
 _symmetry_equiv_pos_as_xyz
  1  'x, y, z'
loop_
 _atom_site_type_symbol
 _atom_site_label
 _atom_site_symmetry_multiplicity
 _atom_site_fract_x
 _atom_site_fract_y
 _atom_site_fract_z
 _atom_site_occupancy
  Mg  Mg0  1  0.50000000  0.50000000  0.49970200  1
  Mg  Mg1  1  0.00000000  0.00000000  0.99970200  1
  B  B0  1  0.23940100  0.76059900  0.74409700  1
  B  B1  1  0.76059900  0.23940100  0.74409700  1
  B  B2  1  0.73940100  0.73940100  0.24409700  1
  B  B3  1  0.26059900  0.26059900  0.24409700  1
  H  H0  1  0.04025900  0.69959900  0.80300600  1
  H  H1  1  0.95974100  0.30040100  0.80300600  1
  H  H2  1  0.54025900  0.80040100  0.30300600  1
  H  H3  1  0.45974100  0.19959900  0.30300600  1
  H  H4  1  0.30040100  0.95974100  0.80300600  1
  H  H5  1  0.69959900  0.04025900  0.80300600  1
  H  H6  1  0.80040100  0.54025900  0.30300600  1
  H  H7  1  0.19959900  0.45974100  0.30300600  1
  H  H8  1  0.37963600  0.62036400  0.82345000  1
  H  H9  1  0.62036400  0.37963600  0.82345000  1
  H  H10  1  0.87963600  0.87963600  0.32345000  1
  H  H11  1  0.12036400  0.12036400  0.32345000  1
  H  H12  1  0.23348900  0.76651100  0.54389100  1
  H  H13  1  0.76651100  0.23348900  0.54389100  1
  H  H14  1  0.73348900  0.73348900  0.04389100  1
  H  H15  1  0.26651100  0.26651100  0.04389100  1
loop_
_geom_bond_atom_site_label_1
_geom_bond_atom_site_label_2
_geom_bond_distance
_geom_bond_site_symmetry_2
B0 H12 1.210330 1_555
B0 H8 1.218587 1_555
B0 H0 1.229207 1_555
B0 H4 1.229207 1_555
B1 H13 1.210330 1_555
B1 H9 1.218587 1_555
B1 H5 1.229207 1_555
B1 H1 1.229207 1_555
B2 H14 1.210330 1_555
B2 H10 1.218587 1_555
B2 H2 1.229207 1_555
B2 H6 1.229207 1_555
B3 H15 1.210330 1_555
B3 H11 1.218587 1_555
B3 H7 1.229207 1_555
B3 H3 1.229207 1_555
H0 Mg1 2.084072 1_565
H1 Mg1 2.084072 1_655
H2 Mg0 2.084072 1_555
H3 Mg0 2.084072 1_555
H4 Mg1 2.084072 1_565
H5 Mg1 2.084072 1_655
H6 Mg0 2.084072 1_555
H7 Mg0 2.084072 1_555
H8 Mg0 2.179320 1_555
H9 Mg0 2.179320 1_555
H10 Mg1 2.179320 1_664
H11 Mg1 2.179320 1_554
H12 Mg0 2.145837 1_555
H13 Mg0 2.145837 1_555
H14 Mg1 2.145837 1_664
H15 Mg1 2.145837 1_554
