# generated using pymatgen
data_Dy3Fe2Si7
_symmetry_space_group_name_H-M   'P 1'
_cell_length_a   12.40407096
_cell_length_b   12.40407096
_cell_length_c   4.08779800
_cell_angle_alpha   90.00000000
_cell_angle_beta   90.00000000
_cell_angle_gamma   161.29457727
_symmetry_Int_Tables_number   1
_chemical_formula_structural   Dy3Fe2Si7
_chemical_formula_sum   'Dy3 Fe2 Si7'
_cell_volume   201.70675494
_cell_formula_units_Z   1
loop_
 _symmetry_equiv_pos_site_id
 _symmetry_equiv_pos_as_xyz
  1  'x, y, z'
loop_
 _atom_site_type_symbol
 _atom_site_label
 _atom_site_symmetry_multiplicity
 _atom_site_fract_x
 _atom_site_fract_y
 _atom_site_fract_z
 _atom_site_occupancy
  Dy  Dy0  1  0.09770300  0.90229700  0.50000000  1
  Dy  Dy1  1  0.46682800  0.53317200  0.50000000  1
  Dy  Dy2  1  0.78189600  0.21810400  0.00000000  1
  Fe  Fe0  1  0.65536300  0.34463700  0.00000000  1
  Fe  Fe1  1  0.90994600  0.09005400  0.00000000  1
  Si  Si0  1  0.37136400  0.62863600  0.00000000  1
  Si  Si1  1  0.56261700  0.43738300  0.00000000  1
  Si  Si2  1  0.87209200  0.12790800  0.50000000  1
  Si  Si3  1  0.00277200  0.99722800  0.00000000  1
  Si  Si4  1  0.19366300  0.80633700  0.00000000  1
  Si  Si5  1  0.28909100  0.71090900  0.50000000  1
  Si  Si6  1  0.69336500  0.30663500  0.50000000  1
loop_
_geom_bond_atom_site_label_1
_geom_bond_atom_site_label_2
_geom_bond_distance
_geom_bond_site_symmetry_2
Dy0 Si1 2.996434 1_566
Dy0 Si1 2.996434 1_565
Dy0 Si1 2.996434 1_456
Dy0 Si1 2.996434 1_455
Dy0 Si6 3.089788 1_455
Dy0 Si6 3.089788 1_565
Dy0 Si3 3.094731 1_556
Dy0 Si3 3.094731 1_555
Dy0 Si4 3.113689 1_555
Dy0 Si4 3.113689 1_556
Dy0 Fe0 3.198923 1_566
Dy0 Fe0 3.198923 1_565
Dy0 Fe0 3.198923 1_456
Dy0 Fe0 3.198923 1_455
Dy1 Si3 3.002521 1_545
Dy1 Si3 3.002521 1_546
Dy1 Si3 3.002521 1_656
Dy1 Si3 3.002521 1_655
Dy1 Si2 3.072645 1_455
Dy1 Si2 3.072645 1_565
Dy1 Si0 3.104540 1_556
Dy1 Si0 3.104540 1_555
Dy1 Si1 3.110532 1_555
Dy1 Si1 3.110532 1_556
Dy1 Fe1 3.190566 1_455
Dy1 Fe1 3.190566 1_456
Dy1 Fe1 3.190566 1_565
Dy1 Fe1 3.190566 1_566
Dy2 Si5 2.876111 1_545
Dy2 Si5 2.876111 1_544
Dy2 Si5 2.876111 1_655
Dy2 Si5 2.876111 1_654
Dy2 Si4 2.954354 1_545
Dy2 Si4 2.954354 1_655
Dy2 Si0 2.976526 1_655
Dy2 Si0 2.976526 1_545
Dy2 Si6 2.978895 1_554
Dy2 Si6 2.978895 1_555
Dy2 Si2 3.008675 1_555
Dy2 Si2 3.008675 1_554
Dy2 Fe0 3.097320 1_555
Dy2 Fe1 3.134454 1_555
Fe0 Si4 2.223155 1_545
Fe0 Si4 2.223155 1_655
Fe0 Si6 2.245628 1_554
Fe0 Si6 2.245628 1_555
Fe0 Si1 2.270270 1_555
Fe1 Si0 2.226075 1_545
Fe1 Si0 2.226075 1_655
Fe1 Si2 2.244130 1_554
Fe1 Si2 2.244130 1_555
Fe1 Si3 2.272228 1_645
Si1 Si3 2.491872 1_545
Si1 Si3 2.491872 1_655
