# generated using pymatgen
data_Mg8Mn3N8
_symmetry_space_group_name_H-M   'P 1'
_cell_length_a   8.51487332
_cell_length_b   4.38140518
_cell_length_c   6.58258132
_cell_angle_alpha   90.00000200
_cell_angle_beta   76.33267912
_cell_angle_gamma   75.09130142
_symmetry_Int_Tables_number   1
_chemical_formula_structural   Mg8Mn3N8
_chemical_formula_sum   'Mg8 Mn3 N8'
_cell_volume   230.10679555
_cell_formula_units_Z   1
loop_
 _symmetry_equiv_pos_site_id
 _symmetry_equiv_pos_as_xyz
  1  'x, y, z'
loop_
 _atom_site_type_symbol
 _atom_site_label
 _atom_site_symmetry_multiplicity
 _atom_site_fract_x
 _atom_site_fract_y
 _atom_site_fract_z
 _atom_site_occupancy
  Mg  Mg0  1  0.05124000  0.97437900  0.75843700  1
  Mg  Mg1  1  0.94876000  0.02562100  0.24156300  1
  Mg  Mg2  1  0.67416200  0.66291900  0.47317000  1
  Mg  Mg3  1  0.32583800  0.33708100  0.52683000  1
  Mg  Mg4  1  0.80892100  0.59554000  0.96713100  1
  Mg  Mg5  1  0.19107900  0.40446000  0.03286900  1
  Mg  Mg6  1  0.39112300  0.80443800  0.20076100  1
  Mg  Mg7  1  0.60887700  0.19556200  0.79923900  1
  Mn  Mn0  1  0.00000000  0.50000000  0.50000000  1
  Mn  Mn1  1  0.37468000  0.81265900  0.79006700  1
  Mn  Mn2  1  0.62532000  0.18734100  0.20993300  1
  N  N0  1  0.19673800  0.90163000  0.01474500  1
  N  N1  1  0.80326200  0.09837000  0.98525500  1
  N  N2  1  0.33490000  0.83255000  0.54139300  1
  N  N3  1  0.66510000  0.16745000  0.45860700  1
  N  N4  1  0.58359000  0.70820500  0.81587800  1
  N  N5  1  0.41641000  0.29179500  0.18412200  1
  N  N6  1  0.94498800  0.52750700  0.25879400  1
  N  N7  1  0.05501200  0.47249300  0.74120600  1
loop_
_geom_bond_atom_site_label_1
_geom_bond_atom_site_label_2
_geom_bond_distance
_geom_bond_site_symmetry_2
Mg0 N7 2.193464 1_555
Mg0 N7 2.193464 1_565
Mg0 N1 2.214206 1_465
Mg0 N0 2.295121 1_556
Mg0 N2 2.420357 1_555
Mg1 N6 2.193464 1_555
Mg1 N6 2.193464 1_545
Mg1 N0 2.214206 1_645
Mg1 N1 2.295121 1_554
Mg1 N3 2.420357 1_555
Mg2 N3 2.194863 1_555
Mg2 N3 2.194863 1_565
Mg2 N4 2.195981 1_555
Mg2 N6 2.327955 1_555
Mg2 N2 2.716844 1_555
Mg3 N2 2.194863 1_555
Mg3 N2 2.194863 1_545
Mg3 N5 2.195981 1_555
Mg3 N7 2.327955 1_555
Mg3 N3 2.716844 1_555
Mg4 N1 2.193822 1_555
Mg4 N1 2.193826 1_565
Mg4 N7 2.199824 1_655
Mg4 N4 2.309033 1_555
Mg4 N6 2.447581 1_556
Mg5 N0 2.193822 1_555
Mg5 N0 2.193826 1_545
Mg5 N6 2.199824 1_455
Mg5 N5 2.309033 1_555
Mg5 N7 2.447581 1_554
Mg6 N2 2.175862 1_555
Mg6 N5 2.200753 1_555
Mg6 N5 2.200757 1_565
Mg6 N0 2.239485 1_555
Mg6 N4 2.639057 1_554
Mg7 N3 2.175862 1_555
Mg7 N4 2.200753 1_555
Mg7 N4 2.200757 1_545
Mg7 N1 2.239485 1_555
Mg7 N5 2.639057 1_556
Mn0 N7 1.754234 1_555
Mn0 N6 1.754234 1_455
Mn1 N2 1.746040 1_555
Mn1 N4 1.768196 1_555
Mn1 N0 1.808896 1_556
Mn2 N3 1.746040 1_555
Mn2 N5 1.768196 1_555
Mn2 N1 1.808896 1_554
