# generated using pymatgen
data_ThN3F7
_symmetry_space_group_name_H-M   'P 1'
_cell_length_a   6.75698600
_cell_length_b   7.83859000
_cell_length_c   14.48878900
_cell_angle_alpha   90.00000000
_cell_angle_beta   90.00000000
_cell_angle_gamma   90.00000000
_symmetry_Int_Tables_number   1
_chemical_formula_structural   ThN3F7
_chemical_formula_sum   'Th4 N12 F28'
_cell_volume   767.40222856
_cell_formula_units_Z   4
loop_
 _symmetry_equiv_pos_site_id
 _symmetry_equiv_pos_as_xyz
  1  'x, y, z'
loop_
 _atom_site_type_symbol
 _atom_site_label
 _atom_site_symmetry_multiplicity
 _atom_site_fract_x
 _atom_site_fract_y
 _atom_site_fract_z
 _atom_site_occupancy
  Th  Th0  1  0.25000000  0.47995800  0.56216500  1
  Th  Th1  1  0.25000000  0.02004200  0.06216500  1
  Th  Th2  1  0.75000000  0.52004200  0.43783500  1
  Th  Th3  1  0.75000000  0.97995800  0.93783500  1
  N  N0  1  0.25000000  0.91617000  0.79659800  1
  N  N1  1  0.25000000  0.58383000  0.29659800  1
  N  N2  1  0.75000000  0.08383000  0.20340200  1
  N  N3  1  0.75000000  0.41617000  0.70340200  1
  N  N4  1  0.00840300  0.56842700  0.89693900  1
  N  N5  1  0.49159700  0.93157300  0.39693900  1
  N  N6  1  0.50840300  0.43157300  0.10306100  1
  N  N7  1  0.99159700  0.06842700  0.60306100  1
  N  N8  1  0.99159700  0.43157300  0.10306100  1
  N  N9  1  0.50840300  0.06842700  0.60306100  1
  N  N10  1  0.49159700  0.56842700  0.89693900  1
  N  N11  1  0.00840300  0.93157300  0.39693900  1
  F  F0  1  0.25000000  0.68905800  0.46473300  1
  F  F1  1  0.25000000  0.81094200  0.96473300  1
  F  F2  1  0.75000000  0.31094200  0.53526700  1
  F  F3  1  0.75000000  0.18905800  0.03526700  1
  F  F4  1  0.25000000  0.69161800  0.22712500  1
  F  F5  1  0.25000000  0.80838200  0.72712500  1
  F  F6  1  0.75000000  0.30838200  0.77287500  1
  F  F7  1  0.75000000  0.19161800  0.27287500  1
  F  F8  1  0.25000000  0.40104700  0.09695100  1
  F  F9  1  0.25000000  0.09895300  0.59695100  1
  F  F10  1  0.75000000  0.59895300  0.90304900  1
  F  F11  1  0.75000000  0.90104700  0.40304900  1
  F  F12  1  0.03517200  0.41813200  0.68709100  1
  F  F13  1  0.46482800  0.08186800  0.18709100  1
  F  F14  1  0.53517200  0.58186800  0.31290900  1
  F  F15  1  0.96482800  0.91813200  0.81290900  1
  F  F16  1  0.96482800  0.58186800  0.31290900  1
  F  F17  1  0.53517200  0.91813200  0.81290900  1
  F  F18  1  0.46482800  0.41813200  0.68709100  1
  F  F19  1  0.03517200  0.08186800  0.18709100  1
  F  F20  1  0.05590400  0.36779500  0.44754400  1
  F  F21  1  0.44409600  0.13220500  0.94754400  1
  F  F22  1  0.55590400  0.63220500  0.55245600  1
  F  F23  1  0.94409600  0.86779500  0.05245600  1
  F  F24  1  0.94409600  0.63220500  0.55245600  1
  F  F25  1  0.55590400  0.86779500  0.05245600  1
  F  F26  1  0.44409600  0.36779500  0.44754400  1
  F  F27  1  0.05590400  0.13220500  0.94754400  1
loop_
_geom_bond_atom_site_label_1
_geom_bond_atom_site_label_2
_geom_bond_distance
_geom_bond_site_symmetry_2
F0 Th0 2.163169 1_555
F1 Th1 2.163169 1_566
F2 Th2 2.163169 1_555
F3 Th3 2.163169 1_544
F4 N1 1.314180 1_555
F5 N0 1.314180 1_555
F6 N3 1.314180 1_555
F7 N2 1.314180 1_555
F8 N8 1.764567 1_455
F8 N6 1.764567 1_555
F9 N7 1.764567 1_455
F9 N9 1.764567 1_555
F10 N4 1.764567 1_655
F10 N10 1.764567 1_555
F11 N11 1.764567 1_655
F11 N5 1.764567 1_555
F12 N3 1.941402 1_455
F12 Th0 2.370269 1_555
F13 N2 1.941402 1_555
F13 Th1 2.370269 1_555
F14 N1 1.941402 1_555
F14 Th2 2.370269 1_555
F15 N0 1.941402 1_655
F15 Th3 2.370269 1_555
F16 N1 1.941402 1_655
F16 Th2 2.370269 1_555
F17 N0 1.941402 1_555
F17 Th3 2.370269 1_555
F18 N3 1.941402 1_555
F18 Th0 2.370269 1_555
F19 N2 1.941402 1_455
F19 Th1 2.370269 1_555
F20 Th0 2.291511 1_555
F20 Th2 2.390908 1_455
F21 Th1 2.291511 1_556
F21 Th3 2.390908 1_545
F22 Th2 2.291511 1_555
F22 Th0 2.390908 1_555
F23 Th3 2.291511 1_554
F23 Th1 2.390908 1_665
F24 Th2 2.291511 1_555
F24 Th0 2.390908 1_655
F25 Th3 2.291511 1_554
F25 Th1 2.390908 1_565
F26 Th0 2.291511 1_555
F26 Th2 2.390908 1_555
F27 Th1 2.291511 1_556
F27 Th3 2.390908 1_445
