# generated using pymatgen
data_DyMoBrO4
_symmetry_space_group_name_H-M   'P 1'
_cell_length_a   6.93232600
_cell_length_b   7.28732403
_cell_length_c   11.06111886
_cell_angle_alpha   105.47948260
_cell_angle_beta   107.32328266
_cell_angle_gamma   92.97116823
_symmetry_Int_Tables_number   1
_chemical_formula_structural   DyMoBrO4
_chemical_formula_sum   'Dy4 Mo4 Br4 O16'
_cell_volume   508.82746465
_cell_formula_units_Z   4
loop_
 _symmetry_equiv_pos_site_id
 _symmetry_equiv_pos_as_xyz
  1  'x, y, z'
loop_
 _atom_site_type_symbol
 _atom_site_label
 _atom_site_symmetry_multiplicity
 _atom_site_fract_x
 _atom_site_fract_y
 _atom_site_fract_z
 _atom_site_occupancy
  Dy  Dy0  1  0.64548100  0.12101600  0.73072800  1
  Dy  Dy1  1  0.35451900  0.87898400  0.26927200  1
  Dy  Dy2  1  0.39110800  0.65280300  0.76856600  1
  Dy  Dy3  1  0.60889200  0.34719700  0.23143400  1
  Mo  Mo0  1  0.73270200  0.81295900  0.13391400  1
  Mo  Mo1  1  0.26729800  0.18704100  0.86608600  1
  Mo  Mo2  1  0.77399800  0.59220700  0.62930100  1
  Mo  Mo3  1  0.22600200  0.40779300  0.37069900  1
  Br  Br0  1  0.25959200  0.98884100  0.51739100  1
  Br  Br1  1  0.74040800  0.01115900  0.48260900  1
  Br  Br2  1  0.19399100  0.71652400  0.98091700  1
  Br  Br3  1  0.80600900  0.28347600  0.01908300  1
  O  O0  1  0.66815200  0.72637400  0.95849400  1
  O  O1  1  0.33184800  0.27362600  0.04150600  1
  O  O2  1  0.00176700  0.86636500  0.20660800  1
  O  O3  1  0.99823300  0.13363500  0.79339200  1
  O  O4  1  0.62270300  0.64748800  0.20122400  1
  O  O5  1  0.37729700  0.35251200  0.79877600  1
  O  O6  1  0.39515400  0.97992800  0.81804700  1
  O  O7  1  0.60484600  0.02007200  0.18195300  1
  O  O8  1  0.04236900  0.64540700  0.67397500  1
  O  O9  1  0.95763100  0.35459300  0.32602500  1
  O  O10  1  0.70993100  0.41499000  0.70172000  1
  O  O11  1  0.29006900  0.58501000  0.29828000  1
  O  O12  1  0.67280000  0.50593200  0.45216000  1
  O  O13  1  0.32720000  0.49406800  0.54784000  1
  O  O14  1  0.65624900  0.79611600  0.70265300  1
  O  O15  1  0.34375100  0.20388400  0.29734700  1
loop_
_geom_bond_atom_site_label_1
_geom_bond_atom_site_label_2
_geom_bond_distance
_geom_bond_site_symmetry_2
Dy0 O10 2.290199 1_555
Dy0 O14 2.312453 1_545
Dy0 O3 2.324240 1_555
Dy0 O6 2.518859 1_545
Dy0 O5 2.711006 1_555
Dy1 O11 2.290199 1_555
Dy1 O15 2.312453 1_565
Dy1 O2 2.324240 1_555
Dy1 O7 2.518859 1_565
Dy1 O4 2.711006 1_555
Dy2 O6 2.295787 1_555
Dy2 O0 2.297535 1_555
Dy2 O13 2.300081 1_555
Dy2 O5 2.301569 1_555
Dy2 O8 2.322132 1_555
Dy2 O14 2.450742 1_555
Dy3 O7 2.295787 1_555
Dy3 O1 2.297535 1_555
Dy3 O12 2.300081 1_555
Dy3 O4 2.301569 1_555
Dy3 O9 2.322132 1_555
Dy3 O15 2.450742 1_555
Mo0 O2 1.772480 1_655
Mo0 O0 1.778603 1_554
Mo0 O4 1.819848 1_555
Mo0 O7 1.826745 1_565
Mo1 O3 1.772480 1_455
Mo1 O1 1.778603 1_556
Mo1 O5 1.819848 1_555
Mo1 O6 1.826745 1_545
Mo2 O8 1.769516 1_655
Mo2 O12 1.790171 1_555
Mo2 O10 1.792017 1_555
Mo2 O14 1.846416 1_555
Mo3 O9 1.769516 1_455
Mo3 O13 1.790171 1_555
Mo3 O11 1.792017 1_555
Mo3 O15 1.846416 1_555
Br0 Dy0 2.900465 1_565
Br0 Dy1 2.926337 1_555
Br1 Dy1 2.900465 1_545
Br1 Dy0 2.926337 1_555
Br2 Dy1 2.923550 1_556
Br2 Dy2 2.999157 1_555
Br3 Dy0 2.923550 1_554
Br3 Dy3 2.999157 1_555
