# generated using pymatgen
data_MgSi2NiO6
_symmetry_space_group_name_H-M   'P 1'
_cell_length_a   5.27268000
_cell_length_b   9.03377100
_cell_length_c   18.47413200
_cell_angle_alpha   90.00000000
_cell_angle_beta   90.00000000
_cell_angle_gamma   90.00000000
_symmetry_Int_Tables_number   1
_chemical_formula_structural   MgSi2NiO6
_chemical_formula_sum   'Mg8 Si16 Ni8 O48'
_cell_volume   879.96324868
_cell_formula_units_Z   8
loop_
 _symmetry_equiv_pos_site_id
 _symmetry_equiv_pos_as_xyz
  1  'x, y, z'
loop_
 _atom_site_type_symbol
 _atom_site_label
 _atom_site_symmetry_multiplicity
 _atom_site_fract_x
 _atom_site_fract_y
 _atom_site_fract_z
 _atom_site_occupancy
  Mg  Mg0  1  0.61875500  0.15032500  0.37614100  1
  Mg  Mg1  1  0.38124500  0.84967500  0.62385900  1
  Mg  Mg2  1  0.61875500  0.65032500  0.12385900  1
  Mg  Mg3  1  0.11875500  0.84967500  0.12385900  1
  Mg  Mg4  1  0.88124500  0.15032500  0.87614100  1
  Mg  Mg5  1  0.38124500  0.34967500  0.87614100  1
  Mg  Mg6  1  0.11875500  0.34967500  0.37614100  1
  Mg  Mg7  1  0.88124500  0.65032500  0.62385900  1
  Si  Si0  1  0.56481900  0.65896900  0.77256200  1
  Si  Si1  1  0.71868300  0.83724600  0.47425600  1
  Si  Si2  1  0.78131700  0.83724600  0.97425600  1
  Si  Si3  1  0.93518100  0.15896900  0.22743800  1
  Si  Si4  1  0.06481900  0.34103100  0.72743800  1
  Si  Si5  1  0.43518100  0.84103100  0.27256200  1
  Si  Si6  1  0.21868300  0.66275400  0.47425600  1
  Si  Si7  1  0.71868300  0.33724600  0.02574400  1
  Si  Si8  1  0.78131700  0.33724600  0.52574400  1
  Si  Si9  1  0.93518100  0.65896900  0.27256200  1
  Si  Si10  1  0.43518100  0.34103100  0.22743800  1
  Si  Si11  1  0.56481900  0.15896900  0.72743800  1
  Si  Si12  1  0.28131700  0.16275400  0.52574400  1
  Si  Si13  1  0.06481900  0.84103100  0.77256200  1
  Si  Si14  1  0.28131700  0.66275400  0.97425600  1
  Si  Si15  1  0.21868300  0.16275400  0.02574400  1
  Ni  Ni0  1  0.37561500  0.99790500  0.87546800  1
  Ni  Ni1  1  0.62438500  0.00209500  0.12453200  1
  Ni  Ni2  1  0.87561500  0.00209500  0.62453200  1
  Ni  Ni3  1  0.12438500  0.99790500  0.37546800  1
  Ni  Ni4  1  0.37561500  0.49790500  0.62453200  1
  Ni  Ni5  1  0.62438500  0.50209500  0.37546800  1
  Ni  Ni6  1  0.87561500  0.50209500  0.87546800  1
  Ni  Ni7  1  0.12438500  0.49790500  0.12453200  1
  O  O0  1  0.93211600  0.49984700  0.31237800  1
  O  O1  1  0.30599300  0.01416500  0.06728300  1
  O  O2  1  0.06788400  0.50015300  0.68762200  1
  O  O3  1  0.71389900  0.33949900  0.93641800  1
  O  O4  1  0.21389900  0.16050100  0.93641800  1
  O  O5  1  0.92213500  0.20470500  0.05060000  1
  O  O6  1  0.94614000  0.66028900  0.18376300  1
  O  O7  1  0.05386000  0.83971100  0.68376300  1
  O  O8  1  0.71389900  0.83949900  0.56358200  1
  O  O9  1  0.94614000  0.16028900  0.31623700  1
  O  O10  1  0.43211600  0.50015300  0.18762200  1
  O  O11  1  0.78610100  0.33949900  0.43641800  1
  O  O12  1  0.69400700  0.98583500  0.93271700  1
  O  O13  1  0.44614000  0.83971100  0.18376300  1
  O  O14  1  0.56788400  0.99984700  0.68762200  1
  O  O15  1  0.30599300  0.51416500  0.43271700  1
  O  O16  1  0.43211600  0.00015300  0.31237800  1
  O  O17  1  0.16355600  0.76872900  0.30199800  1
  O  O18  1  0.33644400  0.76872900  0.80199800  1
  O  O19  1  0.57786500  0.70470500  0.94940000  1
  O  O20  1  0.78610100  0.83949900  0.06358200  1
  O  O21  1  0.55386000  0.66028900  0.68376300  1
  O  O22  1  0.80599300  0.48583500  0.06728300  1
  O  O23  1  0.16355600  0.26872900  0.19800200  1
  O  O24  1  0.28610100  0.16050100  0.43641800  1
  O  O25  1  0.55386000  0.16028900  0.81623700  1
  O  O26  1  0.69400700  0.48583500  0.56728300  1
  O  O27  1  0.21389900  0.66050100  0.56358200  1
  O  O28  1  0.19400700  0.51416500  0.93271700  1
  O  O29  1  0.66355600  0.73127100  0.30199800  1
  O  O30  1  0.06788400  0.00015300  0.81237800  1
  O  O31  1  0.83644400  0.73127100  0.80199800  1
  O  O32  1  0.83644400  0.23127100  0.69800200  1
  O  O33  1  0.80599300  0.98583500  0.43271700  1
  O  O34  1  0.28610100  0.66050100  0.06358200  1
  O  O35  1  0.19400700  0.01416500  0.56728300  1
  O  O36  1  0.33644400  0.26872900  0.69800200  1
  O  O37  1  0.07786500  0.79529500  0.94940000  1
  O  O38  1  0.42213500  0.79529500  0.44940000  1
  O  O39  1  0.66355600  0.23127100  0.19800200  1
  O  O40  1  0.42213500  0.29529500  0.05060000  1
  O  O41  1  0.57786500  0.20470500  0.55060000  1
  O  O42  1  0.07786500  0.29529500  0.55060000  1
  O  O43  1  0.44614000  0.33971100  0.31623700  1
  O  O44  1  0.56788400  0.49984700  0.81237800  1
  O  O45  1  0.92213500  0.70470500  0.44940000  1
  O  O46  1  0.05386000  0.33971100  0.81623700  1
  O  O47  1  0.93211600  0.99984700  0.18762200  1
loop_
_geom_bond_atom_site_label_1
_geom_bond_atom_site_label_2
_geom_bond_distance
_geom_bond_site_symmetry_2
Mg0 O16 2.048524 1_555
Mg0 O9 2.052458 1_555
Mg0 O33 2.067649 1_545
Mg0 O24 2.079644 1_555
Mg0 O11 2.222412 1_555
Mg0 O43 2.231628 1_555
Mg1 O14 2.048524 1_555
Mg1 O7 2.052458 1_555
Mg1 O35 2.067649 1_565
Mg1 O8 2.079644 1_555
Mg1 O27 2.222412 1_555
Mg1 O21 2.231628 1_555
Mg2 O10 2.048524 1_555
Mg2 O6 2.052458 1_555
Mg2 O22 2.067649 1_555
Mg2 O34 2.079644 1_555
Mg2 O20 2.222412 1_555
Mg2 O13 2.231628 1_555
Mg3 O47 2.048524 1_455
Mg3 O13 2.052458 1_555
Mg3 O1 2.067649 1_565
Mg3 O20 2.079644 1_455
Mg3 O34 2.222412 1_555
Mg3 O6 2.231628 1_455
Mg4 O30 2.048524 1_655
Mg4 O25 2.052458 1_555
Mg4 O12 2.067649 1_545
Mg4 O4 2.079644 1_655
Mg4 O3 2.222412 1_555
Mg4 O46 2.231628 1_655
Mg5 O44 2.048524 1_555
Mg5 O46 2.052458 1_555
Mg5 O28 2.067649 1_555
Mg5 O3 2.079644 1_555
Mg5 O4 2.222412 1_555
Mg5 O25 2.231628 1_555
Mg6 O0 2.048524 1_455
Mg6 O43 2.052458 1_555
Mg6 O15 2.067649 1_555
Mg6 O11 2.079644 1_455
Mg6 O24 2.222412 1_555
Mg6 O9 2.231628 1_455
Mg7 O2 2.048524 1_655
Mg7 O21 2.052458 1_555
Mg7 O26 2.067649 1_555
Mg7 O27 2.079644 1_655
Mg7 O8 2.222412 1_555
Mg7 O7 2.231628 1_655
Ni0 O12 1.987149 1_555
Ni0 O30 1.997900 1_565
Ni0 O4 2.037760 1_565
Ni0 O25 2.057317 1_565
Ni0 O18 2.484179 1_555
Ni1 O1 1.987149 1_555
Ni1 O47 1.997900 1_545
Ni1 O20 2.037760 1_545
Ni1 O13 2.057317 1_545
Ni1 O39 2.484179 1_555
Ni2 O35 1.987149 1_655
Ni2 O14 1.997900 1_545
Ni2 O8 2.037760 1_545
Ni2 O7 2.057317 1_645
Ni2 O32 2.484179 1_555
Ni3 O33 1.987149 1_455
Ni3 O16 1.997900 1_565
Ni3 O24 2.037760 1_565
Ni3 O9 2.057317 1_465
Ni3 O17 2.484179 1_555
Ni4 O26 1.987149 1_555
Ni4 O2 1.997900 1_555
Ni4 O27 2.037760 1_555
Ni4 O21 2.057317 1_555
Ni4 O36 2.484179 1_555
Ni5 O15 1.987149 1_555
Ni5 O0 1.997900 1_555
Ni5 O11 2.037760 1_555
Ni5 O43 2.057317 1_555
Ni5 O29 2.484179 1_555
Ni6 O28 1.987149 1_655
Ni6 O44 1.997900 1_555
Ni6 O3 2.037760 1_555
Ni6 O46 2.057317 1_655
Ni6 O31 2.484179 1_555
Ni7 O22 1.987149 1_455
Ni7 O10 1.997900 1_555
Ni7 O34 2.037760 1_555
Ni7 O6 2.057317 1_455
Ni7 O23 2.484179 1_555
O0 Si9 1.614820 1_555
O1 Si15 1.613272 1_555
O2 Si4 1.614820 1_555
O3 Si7 1.650539 1_556
O4 Si15 1.650539 1_556
O5 Si7 1.671903 1_555
O5 Si15 1.673121 1_655
O6 Si9 1.641545 1_555
O7 Si13 1.641545 1_555
O8 Si1 1.650539 1_555
O9 Si3 1.641545 1_555
O10 Si10 1.614820 1_555
O11 Si8 1.650539 1_555
O12 Si2 1.613272 1_555
O13 Si5 1.641545 1_555
O14 Si11 1.614820 1_565
O15 Si6 1.613272 1_555
O16 Si5 1.614820 1_545
O17 Si9 1.651927 1_455
O17 Si5 1.665387 1_555
O18 Si0 1.651927 1_555
O18 Si13 1.665387 1_555
O19 Si2 1.671903 1_555
O19 Si14 1.673121 1_555
O20 Si2 1.650539 1_554
O21 Si0 1.641545 1_555
O22 Si7 1.613272 1_555
O23 Si3 1.651927 1_455
O23 Si10 1.665387 1_555
O24 Si12 1.650539 1_555
O25 Si11 1.641545 1_555
O26 Si8 1.613272 1_555
O27 Si6 1.650539 1_555
O28 Si14 1.613272 1_555
O29 Si5 1.651927 1_555
O29 Si9 1.665387 1_555
O30 Si13 1.614820 1_545
O31 Si13 1.651927 1_655
O31 Si0 1.665387 1_555
O32 Si4 1.651927 1_655
O32 Si11 1.665387 1_555
O33 Si1 1.613272 1_555
O34 Si14 1.650539 1_554
O35 Si12 1.613272 1_555
O36 Si11 1.651927 1_555
O36 Si4 1.665387 1_555
O37 Si14 1.671903 1_555
O37 Si2 1.673121 1_455
O38 Si6 1.671903 1_555
O38 Si1 1.673121 1_555
O39 Si10 1.651927 1_555
O39 Si3 1.665387 1_555
O40 Si15 1.671903 1_555
O40 Si7 1.673121 1_555
O41 Si8 1.671903 1_555
O41 Si12 1.673121 1_555
O42 Si12 1.671903 1_555
O42 Si8 1.673121 1_455
O43 Si10 1.641545 1_555
O44 Si0 1.614820 1_555
O45 Si1 1.671903 1_555
O45 Si6 1.673121 1_655
O46 Si4 1.641545 1_555
O47 Si3 1.614820 1_565
