# generated using pymatgen
data_Zn3Ag2(GeO4)3
_symmetry_space_group_name_H-M   'P 1'
_cell_length_a   10.68763510
_cell_length_b   10.68763510
_cell_length_c   10.68763510
_cell_angle_alpha   109.47122063
_cell_angle_beta   109.47122063
_cell_angle_gamma   109.47122063
_symmetry_Int_Tables_number   1
_chemical_formula_structural   Zn3Ag2(GeO4)3
_chemical_formula_sum   'Zn12 Ag8 Ge12 O48'
_cell_volume   939.77299602
_cell_formula_units_Z   4
loop_
 _symmetry_equiv_pos_site_id
 _symmetry_equiv_pos_as_xyz
  1  'x, y, z'
loop_
 _atom_site_type_symbol
 _atom_site_label
 _atom_site_symmetry_multiplicity
 _atom_site_fract_x
 _atom_site_fract_y
 _atom_site_fract_z
 _atom_site_occupancy
  Zn  Zn0  1  0.25000000  0.87500000  0.62500000  1
  Zn  Zn1  1  0.75000000  0.62500000  0.87500000  1
  Zn  Zn2  1  0.62500000  0.87500000  0.75000000  1
  Zn  Zn3  1  0.87500000  0.62500000  0.25000000  1
  Zn  Zn4  1  0.62500000  0.25000000  0.87500000  1
  Zn  Zn5  1  0.87500000  0.75000000  0.62500000  1
  Zn  Zn6  1  0.75000000  0.12500000  0.37500000  1
  Zn  Zn7  1  0.25000000  0.37500000  0.12500000  1
  Zn  Zn8  1  0.37500000  0.12500000  0.25000000  1
  Zn  Zn9  1  0.12500000  0.37500000  0.75000000  1
  Zn  Zn10  1  0.37500000  0.75000000  0.12500000  1
  Zn  Zn11  1  0.12500000  0.25000000  0.37500000  1
  Ag  Ag0  1  0.50000000  0.50000000  0.50000000  1
  Ag  Ag1  1  0.50000000  0.00000000  0.50000000  1
  Ag  Ag2  1  0.00000000  0.50000000  0.50000000  1
  Ag  Ag3  1  0.50000000  0.50000000  0.00000000  1
  Ag  Ag4  1  0.00000000  0.00000000  0.50000000  1
  Ag  Ag5  1  0.00000000  0.50000000  0.00000000  1
  Ag  Ag6  1  0.50000000  0.00000000  0.00000000  1
  Ag  Ag7  1  0.00000000  0.00000000  0.00000000  1
  Ge  Ge0  1  0.12500000  0.75000000  0.87500000  1
  Ge  Ge1  1  0.87500000  0.25000000  0.12500000  1
  Ge  Ge2  1  0.62500000  0.37500000  0.25000000  1
  Ge  Ge3  1  0.75000000  0.87500000  0.12500000  1
  Ge  Ge4  1  0.87500000  0.12500000  0.75000000  1
  Ge  Ge5  1  0.25000000  0.62500000  0.37500000  1
  Ge  Ge6  1  0.75000000  0.37500000  0.62500000  1
  Ge  Ge7  1  0.25000000  0.12500000  0.87500000  1
  Ge  Ge8  1  0.12500000  0.87500000  0.25000000  1
  Ge  Ge9  1  0.37500000  0.62500000  0.75000000  1
  Ge  Ge10  1  0.62500000  0.75000000  0.37500000  1
  Ge  Ge11  1  0.37500000  0.25000000  0.62500000  1
  O  O0  1  0.40938100  0.81014000  0.77440000  1
  O  O1  1  0.86501800  0.40075900  0.09061900  1
  O  O2  1  0.09924100  0.96426000  0.68986000  1
  O  O3  1  0.53574000  0.63498200  0.72560000  1
  O  O4  1  0.68986000  0.09061900  0.72560000  1
  O  O5  1  0.63498200  0.72560000  0.53574000  1
  O  O6  1  0.63498200  0.40938100  0.09924100  1
  O  O7  1  0.72560000  0.53574000  0.63498200  1
  O  O8  1  0.81014000  0.53574000  0.40075900  1
  O  O9  1  0.96426000  0.77440000  0.86501800  1
  O  O10  1  0.77440000  0.86501800  0.96426000  1
  O  O11  1  0.72560000  0.68986000  0.09061900  1
  O  O12  1  0.40938100  0.09924100  0.63498200  1
  O  O13  1  0.40075900  0.81014000  0.53574000  1
  O  O14  1  0.09061900  0.72560000  0.68986000  1
  O  O15  1  0.09924100  0.63498200  0.40938100  1
  O  O16  1  0.53574000  0.40075900  0.81014000  1
  O  O17  1  0.09061900  0.86501800  0.40075900  1
  O  O18  1  0.96426000  0.68986000  0.09924100  1
  O  O19  1  0.18986000  0.46426000  0.59924100  1
  O  O20  1  0.68986000  0.09924100  0.96426000  1
  O  O21  1  0.77440000  0.40938100  0.81014000  1
  O  O22  1  0.40075900  0.09061900  0.86501800  1
  O  O23  1  0.86501800  0.96426000  0.77440000  1
  O  O24  1  0.59061900  0.18986000  0.22560000  1
  O  O25  1  0.13498200  0.59924100  0.90938100  1
  O  O26  1  0.90075900  0.03574000  0.31014000  1
  O  O27  1  0.46426000  0.36501800  0.27440000  1
  O  O28  1  0.31014000  0.90938100  0.27440000  1
  O  O29  1  0.36501800  0.27440000  0.46426000  1
  O  O30  1  0.36501800  0.59061900  0.90075900  1
  O  O31  1  0.27440000  0.46426000  0.36501800  1
  O  O32  1  0.13498200  0.03574000  0.22560000  1
  O  O33  1  0.59924100  0.90938100  0.13498200  1
  O  O34  1  0.22560000  0.59061900  0.18986000  1
  O  O35  1  0.18986000  0.22560000  0.59061900  1
  O  O36  1  0.31014000  0.90075900  0.03574000  1
  O  O37  1  0.03574000  0.31014000  0.90075900  1
  O  O38  1  0.90938100  0.13498200  0.59924100  1
  O  O39  1  0.46426000  0.59924100  0.18986000  1
  O  O40  1  0.90075900  0.36501800  0.59061900  1
  O  O41  1  0.90938100  0.27440000  0.31014000  1
  O  O42  1  0.59924100  0.18986000  0.46426000  1
  O  O43  1  0.59061900  0.90075900  0.36501800  1
  O  O44  1  0.27440000  0.31014000  0.90938100  1
  O  O45  1  0.22560000  0.13498200  0.03574000  1
  O  O46  1  0.03574000  0.22560000  0.13498200  1
  O  O47  1  0.81014000  0.77440000  0.40938100  1
loop_
_geom_bond_atom_site_label_1
_geom_bond_atom_site_label_2
_geom_bond_distance
_geom_bond_site_symmetry_2
Ag0 O29 2.177239 1_555
Ag0 O27 2.177239 1_555
Ag0 O31 2.177239 1_555
Ag0 O7 2.177239 1_555
Ag0 O5 2.177239 1_555
Ag0 O3 2.177239 1_555
Ag1 O42 2.177237 1_555
Ag1 O13 2.177237 1_545
Ag1 O28 2.177237 1_545
Ag1 O4 2.177237 1_555
Ag1 O43 2.177244 1_545
Ag1 O12 2.177244 1_555
Ag2 O19 2.177237 1_555
Ag2 O41 2.177237 1_455
Ag2 O8 2.177237 1_455
Ag2 O14 2.177237 1_555
Ag2 O15 2.177244 1_555
Ag2 O40 2.177244 1_455
Ag3 O39 2.177237 1_555
Ag3 O44 2.177237 1_554
Ag3 O11 2.177237 1_555
Ag3 O16 2.177237 1_554
Ag3 O6 2.177244 1_555
Ag3 O30 2.177244 1_554
Ag4 O26 2.177237 1_455
Ag4 O35 2.177237 1_555
Ag4 O2 2.177237 1_545
Ag4 O47 2.177237 1_445
Ag4 O38 2.177244 1_455
Ag4 O17 2.177244 1_545
Ag5 O37 2.177237 1_554
Ag5 O34 2.177237 1_555
Ag5 O18 2.177237 1_455
Ag5 O21 2.177237 1_454
Ag5 O25 2.177244 1_554
Ag5 O1 2.177244 1_455
Ag6 O36 2.177237 1_545
Ag6 O24 2.177237 1_555
Ag6 O20 2.177237 1_554
Ag6 O0 2.177237 1_544
Ag6 O33 2.177244 1_545
Ag6 O22 2.177244 1_554
Ag7 O45 2.177239 1_555
Ag7 O32 2.177239 1_555
Ag7 O46 2.177239 1_555
Ag7 O9 2.177239 1_444
Ag7 O23 2.177239 1_444
Ag7 O10 2.177239 1_444
Ge0 O9 1.796024 1_455
Ge0 O14 1.796026 1_555
Ge0 O36 1.796026 1_556
Ge0 O25 1.796029 1_555
Ge1 O46 1.796024 1_655
Ge1 O20 1.796026 1_554
Ge1 O41 1.796026 1_555
Ge1 O1 1.796029 1_555
Ge2 O27 1.796024 1_555
Ge2 O8 1.796026 1_555
Ge2 O24 1.796026 1_555
Ge2 O6 1.796029 1_555
Ge3 O10 1.796024 1_554
Ge3 O11 1.796026 1_555
Ge3 O26 1.796026 1_565
Ge3 O33 1.796029 1_555
Ge4 O23 1.796024 1_545
Ge4 O4 1.796026 1_555
Ge4 O37 1.796026 1_655
Ge4 O38 1.796029 1_555
Ge5 O31 1.796024 1_555
Ge5 O13 1.796026 1_555
Ge5 O34 1.796026 1_555
Ge5 O15 1.796029 1_555
Ge6 O7 1.796024 1_555
Ge6 O21 1.796026 1_555
Ge6 O42 1.796026 1_555
Ge6 O40 1.796029 1_555
Ge7 O45 1.796024 1_556
Ge7 O2 1.796026 1_545
Ge7 O44 1.796026 1_555
Ge7 O22 1.796029 1_555
Ge8 O32 1.796024 1_565
Ge8 O18 1.796026 1_455
Ge8 O28 1.796026 1_555
Ge8 O17 1.796029 1_555
Ge9 O3 1.796024 1_555
Ge9 O0 1.796026 1_555
Ge9 O19 1.796026 1_555
Ge9 O30 1.796029 1_555
Ge10 O5 1.796024 1_555
Ge10 O47 1.796026 1_555
Ge10 O39 1.796026 1_555
Ge10 O43 1.796029 1_555
Ge11 O29 1.796024 1_555
Ge11 O16 1.796026 1_555
Ge11 O35 1.796026 1_555
Ge11 O12 1.796029 1_555
O0 Zn2 2.305480 1_555
O0 Zn0 2.375610 1_555
O1 Zn4 2.305474 1_554
O1 Zn3 2.375604 1_555
O2 Zn0 2.305480 1_555
O2 Zn5 2.375610 1_455
O3 Zn2 2.305470 1_555
O3 Zn1 2.375616 1_555
O4 Zn2 2.305480 1_545
O4 Zn4 2.375610 1_555
O5 Zn5 2.305470 1_555
O5 Zn2 2.375616 1_555
O6 Zn3 2.305474 1_555
O6 Zn4 2.375604 1_554
O7 Zn1 2.305470 1_555
O7 Zn5 2.375616 1_555
O8 Zn3 2.305480 1_555
O8 Zn5 2.375610 1_555
O9 Zn5 2.305470 1_555
O9 Zn1 2.375616 1_555
O10 Zn1 2.305470 1_555
O10 Zn2 2.375616 1_555
O11 Zn1 2.305480 1_554
O11 Zn3 2.375610 1_555
O12 Zn4 2.305474 1_555
O12 Zn0 2.375604 1_545
O13 Zn0 2.305480 1_555
O13 Zn2 2.375610 1_555
O14 Zn5 2.305480 1_455
O14 Zn0 2.375610 1_555
O15 Zn0 2.305474 1_555
O15 Zn3 2.375604 1_455
O16 Zn4 2.305480 1_555
O16 Zn1 2.375610 1_555
O17 Zn3 2.305474 1_455
O17 Zn0 2.375604 1_555
O18 Zn3 2.305480 1_555
O18 Zn1 2.375610 1_554
O19 Zn9 2.305480 1_555
O19 Zn11 2.375610 1_555
O20 Zn4 2.305480 1_555
O20 Zn2 2.375610 1_545
O21 Zn1 2.305480 1_555
O21 Zn4 2.375610 1_555
O22 Zn0 2.305474 1_545
O22 Zn4 2.375604 1_555
O23 Zn2 2.305470 1_555
O23 Zn5 2.375616 1_555
O24 Zn8 2.305480 1_555
O24 Zn6 2.375610 1_555
O25 Zn10 2.305474 1_556
O25 Zn9 2.375604 1_555
O26 Zn6 2.305480 1_555
O26 Zn11 2.375610 1_655
O27 Zn8 2.305470 1_555
O27 Zn7 2.375616 1_555
O28 Zn8 2.305480 1_565
O28 Zn10 2.375610 1_555
O29 Zn11 2.305470 1_555
O29 Zn8 2.375616 1_555
O30 Zn9 2.305474 1_555
O30 Zn10 2.375604 1_556
O31 Zn7 2.305470 1_555
O31 Zn11 2.375616 1_555
O32 Zn8 2.305470 1_555
O32 Zn11 2.375616 1_555
O33 Zn6 2.305474 1_565
O33 Zn10 2.375604 1_555
O34 Zn7 2.305480 1_555
O34 Zn10 2.375610 1_555
O35 Zn11 2.305480 1_555
O35 Zn9 2.375610 1_555
O36 Zn10 2.305480 1_555
O36 Zn8 2.375610 1_565
O37 Zn9 2.305480 1_555
O37 Zn7 2.375610 1_556
O38 Zn9 2.305474 1_655
O38 Zn6 2.375604 1_555
O39 Zn10 2.305480 1_555
O39 Zn7 2.375610 1_555
O40 Zn6 2.305474 1_555
O40 Zn9 2.375604 1_655
O41 Zn11 2.305480 1_655
O41 Zn6 2.375610 1_555
O42 Zn6 2.305480 1_555
O42 Zn8 2.375610 1_555
O43 Zn10 2.305474 1_555
O43 Zn6 2.375604 1_565
O44 Zn7 2.305480 1_556
O44 Zn9 2.375610 1_555
O45 Zn7 2.305470 1_555
O45 Zn8 2.375616 1_555
O46 Zn11 2.305470 1_555
O46 Zn7 2.375616 1_555
O47 Zn5 2.305480 1_555
O47 Zn3 2.375610 1_555
