# generated using pymatgen
data_MoW3(Se3S)2
_symmetry_space_group_name_H-M   'P 1'
_cell_length_a   3.28655241
_cell_length_b   3.28655241
_cell_length_c   37.40321500
_cell_angle_alpha   90.00000000
_cell_angle_beta   90.00000000
_cell_angle_gamma   120.00000832
_symmetry_Int_Tables_number   1
_chemical_formula_structural   MoW3(Se3S)2
_chemical_formula_sum   'Mo1 W3 Se6 S2'
_cell_volume   349.88123786
_cell_formula_units_Z   1
loop_
 _symmetry_equiv_pos_site_id
 _symmetry_equiv_pos_as_xyz
  1  'x, y, z'
loop_
 _atom_site_type_symbol
 _atom_site_label
 _atom_site_symmetry_multiplicity
 _atom_site_fract_x
 _atom_site_fract_y
 _atom_site_fract_z
 _atom_site_occupancy
  Mo  Mo0  1  0.66666700  0.33333300  0.28178900  1
  W  W0  1  0.33333300  0.66666700  0.09392100  1
  W  W1  1  0.33333300  0.66666700  0.46965700  1
  W  W2  1  0.66666700  0.33333300  0.65754800  1
  Se  Se0  1  0.33333300  0.66666700  0.32686400  1
  Se  Se1  1  0.33333300  0.66666700  0.70290000  1
  Se  Se2  1  0.66666700  0.33333300  0.42431400  1
  Se  Se3  1  0.66666700  0.33333300  0.51500300  1
  Se  Se4  1  0.33333300  0.66666700  0.23672300  1
  Se  Se5  1  0.33333300  0.66666700  0.61218000  1
  S  S0  1  0.66666700  0.33333300  0.05273300  1
  S  S1  1  0.66666700  0.33333300  0.13511700  1
loop_
_geom_bond_atom_site_label_1
_geom_bond_atom_site_label_2
_geom_bond_distance
_geom_bond_site_symmetry_2
Mo0 Se4 2.538062 1_655
Mo0 Se4 2.538062 1_545
Mo0 Se4 2.538067 1_555
Mo0 Se0 2.538286 1_545
Mo0 Se0 2.538286 1_655
Mo0 Se0 2.538290 1_555
Se1 W2 2.545179 1_455
Se1 W2 2.545179 1_565
Se1 W2 2.545184 1_555
Se2 W1 2.544955 1_545
Se2 W1 2.544955 1_655
Se2 W1 2.544959 1_555
Se3 W1 2.545030 1_655
Se3 W1 2.545030 1_545
Se3 W1 2.545034 1_555
Se5 W2 2.545578 1_565
Se5 W2 2.545578 1_455
Se5 W2 2.545583 1_555
S0 W0 2.444137 1_655
S0 W0 2.444137 1_545
S0 W0 2.444141 1_555
S1 W0 2.444325 1_545
S1 W0 2.444325 1_655
S1 W0 2.444330 1_555
