# generated using pymatgen
data_Li9Mn2Co5O16
_symmetry_space_group_name_H-M   'P 1'
_cell_length_a   5.01237100
_cell_length_b   5.12140330
_cell_length_c   11.79026059
_cell_angle_alpha   90.09681515
_cell_angle_beta   90.41101755
_cell_angle_gamma   108.51613789
_symmetry_Int_Tables_number   1
_chemical_formula_structural   Li9Mn2Co5O16
_chemical_formula_sum   'Li9 Mn2 Co5 O16'
_cell_volume   286.98305140
_cell_formula_units_Z   1
loop_
 _symmetry_equiv_pos_site_id
 _symmetry_equiv_pos_as_xyz
  1  'x, y, z'
loop_
 _atom_site_type_symbol
 _atom_site_label
 _atom_site_symmetry_multiplicity
 _atom_site_fract_x
 _atom_site_fract_y
 _atom_site_fract_z
 _atom_site_occupancy
  Li  Li0  1  0.00000000  0.50000000  0.00000000  1
  Li  Li1  1  0.49954400  0.49889600  0.12850400  1
  Li  Li2  1  0.00128100  0.49975000  0.25526200  1
  Li  Li3  1  0.49512000  0.50283200  0.38639500  1
  Li  Li4  1  0.00000000  0.50000000  0.50000000  1
  Li  Li5  1  0.50488000  0.49716800  0.61360500  1
  Li  Li6  1  0.99871900  0.50025000  0.74473800  1
  Li  Li7  1  0.50045600  0.50110400  0.87149600  1
  Li  Li8  1  0.50000000  0.00000000  0.50000000  1
  Mn  Mn0  1  0.99883800  0.99886000  0.87519900  1
  Mn  Mn1  1  0.00116200  0.00114000  0.12480100  1
  Co  Co0  1  0.50000000  0.00000000  0.00000000  1
  Co  Co1  1  0.51101100  0.00840800  0.25874300  1
  Co  Co2  1  0.00847600  0.99071400  0.38134700  1
  Co  Co3  1  0.99152400  0.00928600  0.61865300  1
  Co  Co4  1  0.48898900  0.99159200  0.74125700  1
  O  O0  1  0.25067800  0.78014000  0.88370900  1
  O  O1  1  0.76036500  0.78356900  0.99969300  1
  O  O2  1  0.25966300  0.78832600  0.11948100  1
  O  O3  1  0.76539900  0.77128900  0.23702600  1
  O  O4  1  0.24508200  0.76475200  0.36677900  1
  O  O5  1  0.77182600  0.76124900  0.50049200  1
  O  O6  1  0.25493900  0.76983600  0.63558100  1
  O  O7  1  0.76628800  0.77101900  0.76138200  1
  O  O8  1  0.74932200  0.21986000  0.11629100  1
  O  O9  1  0.23371200  0.22898100  0.23861800  1
  O  O10  1  0.74506100  0.23016400  0.36441900  1
  O  O11  1  0.22817400  0.23875100  0.49950800  1
  O  O12  1  0.75491800  0.23524800  0.63322100  1
  O  O13  1  0.23460100  0.22871100  0.76297400  1
  O  O14  1  0.74033700  0.21167400  0.88051900  1
  O  O15  1  0.23963500  0.21643100  0.00030700  1
loop_
_geom_bond_atom_site_label_1
_geom_bond_atom_site_label_2
_geom_bond_distance
_geom_bond_site_symmetry_2
Li0 O0 2.098445 1_554
Li0 O8 2.098445 1_455
Li0 O14 2.145900 1_454
Li0 O2 2.145900 1_555
Li0 O15 2.158640 1_555
Li0 O1 2.158640 1_454
Li1 O3 2.036606 1_555
Li1 O9 2.057381 1_555
Li1 O8 2.183723 1_555
Li1 O2 2.187438 1_555
Li1 O15 2.200413 1_555
Li1 O1 2.228575 1_554
Li2 O4 1.995381 1_555
Li2 O10 2.028652 1_455
Li2 O9 2.085010 1_555
Li2 O3 2.102318 1_455
Li2 O8 2.268687 1_455
Li2 O2 2.290509 1_555
Li3 O11 2.068908 1_555
Li3 O5 2.070313 1_555
Li3 O4 2.118542 1_555
Li3 O10 2.168243 1_555
Li3 O9 2.347626 1_555
Li3 O3 2.384632 1_555
Li4 O5 2.017470 1_455
Li4 O11 2.017470 1_555
Li4 O4 2.188978 1_555
Li4 O12 2.188978 1_455
Li4 O6 2.222519 1_555
Li4 O10 2.222519 1_455
Li5 O5 2.068908 1_555
Li5 O11 2.070313 1_555
Li5 O12 2.118542 1_555
Li5 O6 2.168243 1_555
Li5 O7 2.347626 1_555
Li5 O13 2.384632 1_555
Li6 O12 1.995381 1_555
Li6 O6 2.028652 1_655
Li6 O7 2.085010 1_555
Li6 O13 2.102318 1_655
Li6 O0 2.268687 1_655
Li6 O14 2.290509 1_555
Li7 O13 2.036606 1_555
Li7 O7 2.057381 1_555
Li7 O0 2.183723 1_555
Li7 O14 2.187438 1_555
Li7 O1 2.200413 1_555
Li7 O15 2.228575 1_556
Li8 O11 2.099895 1_555
Li8 O5 2.099895 1_545
Li8 O4 2.130342 1_545
Li8 O12 2.130342 1_555
Li8 O6 2.137408 1_545
Li8 O10 2.137408 1_555
Mn0 O7 1.905107 1_555
Mn0 O13 1.917579 1_665
Mn0 O0 1.937756 1_655
Mn0 O14 1.941277 1_565
Mn0 O15 1.997212 1_666
Mn0 O1 1.998132 1_555
Mn1 O9 1.905107 1_555
Mn1 O3 1.917579 1_445
Mn1 O8 1.937756 1_455
Mn1 O2 1.941277 1_545
Mn1 O1 1.997212 1_444
Mn1 O15 1.998132 1_555
Co0 O0 1.945757 1_544
Co0 O8 1.945757 1_555
Co0 O14 1.952160 1_554
Co0 O2 1.952160 1_545
Co0 O1 1.962294 1_544
Co0 O15 1.962294 1_555
Co1 O10 1.829342 1_555
Co1 O4 1.982336 1_545
Co1 O3 2.037952 1_545
Co1 O9 2.063423 1_555
Co1 O2 2.148429 1_545
Co1 O8 2.152623 1_555
Co2 O4 1.910276 1_555
Co2 O11 1.962322 1_565
Co2 O5 1.976236 1_455
Co2 O10 2.076636 1_465
Co2 O3 2.176435 1_455
Co2 O9 2.180519 1_565
Co3 O12 1.910276 1_555
Co3 O5 1.962322 1_545
Co3 O11 1.976236 1_655
Co3 O6 2.076636 1_645
Co3 O13 2.176435 1_655
Co3 O7 2.180519 1_545
Co4 O6 1.829342 1_555
Co4 O12 1.982336 1_565
Co4 O13 2.037952 1_565
Co4 O7 2.063423 1_555
Co4 O14 2.148429 1_565
Co4 O0 2.152623 1_555
