# generated using pymatgen
data_Y9Al(GeS7)3
_symmetry_space_group_name_H-M   'P 1'
_cell_length_a   11.43020820
_cell_length_b   11.43008036
_cell_length_c   11.43004829
_cell_angle_alpha   95.95387535
_cell_angle_beta   84.04517041
_cell_angle_gamma   84.04504116
_symmetry_Int_Tables_number   1
_chemical_formula_structural   Y9Al(GeS7)3
_chemical_formula_sum   'Y18 Al2 Ge6 S42'
_cell_volume   1467.31530801
_cell_formula_units_Z   2
loop_
 _symmetry_equiv_pos_site_id
 _symmetry_equiv_pos_as_xyz
  1  'x, y, z'
loop_
 _atom_site_type_symbol
 _atom_site_label
 _atom_site_symmetry_multiplicity
 _atom_site_fract_x
 _atom_site_fract_y
 _atom_site_fract_z
 _atom_site_occupancy
  Y  Y0  1  0.03818858  0.09460455  0.30664583  1
  Y  Y1  1  0.70425286  0.43449810  0.65975768  1
  Y  Y2  1  0.38124479  0.76155461  0.98239609  1
  Y  Y3  1  0.34023926  0.29574350  0.43449737  1
  Y  Y4  1  0.01760129  0.61875929  0.76156191  1
  Y  Y5  1  0.69335094  0.96180764  0.09460604  1
  Y  Y6  1  0.23844670  0.98238940  0.61876070  1
  Y  Y7  1  0.90539323  0.30664057  0.96181761  1
  Y  Y8  1  0.56550234  0.65975442  0.29575081  1
  Y  Y9  1  0.54391472  0.31601729  0.09243064  1
  Y  Y10  1  0.21972274  0.64672525  0.43589842  1
  Y  Y11  1  0.86868956  0.99009090  0.76683821  1
  Y  Y12  1  0.23316242  0.13131236  0.99008866  1
  Y  Y13  1  0.90756960  0.45608720  0.31601964  1
  Y  Y14  1  0.56409892  0.78028259  0.64672166  1
  Y  Y15  1  0.35327191  0.43590931  0.78027201  1
  Y  Y16  1  0.00990914  0.76684370  0.13130731  1
  Y  Y17  1  0.68397753  0.09243366  0.45608194  1
  Al  Al0  1  0.10912284  0.89088138  0.89087877  1
  Al  Al1  1  0.60904239  0.39095635  0.39095911  1
  Ge  Ge0  1  0.90242408  0.76620448  0.43199483  1
  Ge  Ge1  1  0.56800244  0.09758234  0.76619756  1
  Ge  Ge2  1  0.23380011  0.43199985  0.09757580  1
  Ge  Ge3  1  0.40139612  0.93242021  0.26461567  1
  Ge  Ge4  1  0.06757453  0.26460665  0.59861444  1
  Ge  Ge5  1  0.73538697  0.59860465  0.93242690  1
  S  S0  1  0.06829409  0.83820088  0.36537787  1
  S  S1  1  0.72913097  0.17354852  0.69084479  1
  S  S2  1  0.39501383  0.50651640  0.02232569  1
  S  S3  1  0.97767006  0.60498593  0.50651468  1
  S  S4  1  0.63461694  0.93170534  0.83819725  1
  S  S5  1  0.30915160  0.27086901  0.17354111  1
  S  S6  1  0.82645883  0.69085194  0.27086725  1
  S  S7  1  0.49348782  0.02233165  0.60498235  1
  S  S8  1  0.16180015  0.36538206  0.93170630  1
  S  S9  1  0.34592470  0.75076578  0.22802486  1
  S  S10  1  0.01022225  0.08476607  0.55868238  1
  S  S11  1  0.68167963  0.41596867  0.90353707  1
  S  S12  1  0.44131881  0.98977576  0.08477049  1
  S  S13  1  0.09646405  0.31831997  0.41597688  1
  S  S14  1  0.77197719  0.65407660  0.75076965  1
  S  S15  1  0.58403062  0.90353054  0.31832317  1
  S  S16  1  0.24923175  0.22801749  0.65407993  1
  S  S17  1  0.91522677  0.55867862  0.98978076  1
  S  S18  1  0.84204291  0.00013022  0.26198711  1
  S  S19  1  0.51196359  0.33869300  0.58201930  1
  S  S20  1  0.16707399  0.69146807  0.92920036  1
  S  S21  1  0.07080020  0.83292762  0.69146804  1
  S  S22  1  0.73800608  0.15795613  0.00012797  1
  S  S23  1  0.41797932  0.48803410  0.33869169  1
  S  S24  1  0.66131106  0.58202131  0.48803765  1
  S  S25  1  0.30853593  0.92920147  0.83292855  1
  S  S26  1  0.99987720  0.26199341  0.15795878  1
  S  S27  1  0.37828614  0.77979232  0.51821965  1
  S  S28  1  0.04811931  0.10010464  0.85618453  1
  S  S29  1  0.69707793  0.44453907  0.20692874  1
  S  S30  1  0.14381474  0.95188008  0.10010203  1
  S  S31  1  0.79307343  0.30292774  0.44454254  1
  S  S32  1  0.48178229  0.62171446  0.77979364  1
  S  S33  1  0.55545514  0.20692641  0.30292365  1
  S  S34  1  0.22020089  0.51821975  0.62171038  1
  S  S35  1  0.89989063  0.85618266  0.95187496  1
  S  S36  1  0.61411762  0.72753497  0.05832404  1
  S  S37  1  0.27246659  0.05832387  0.38588016  1
  S  S38  1  0.94167555  0.38588089  0.72753949  1
  S  S39  1  0.77299695  0.88562234  0.55917905  1
  S  S40  1  0.44082079  0.22701007  0.88561814  1
  S  S41  1  0.11437964  0.55917988  0.22700749  1
loop_
_geom_bond_atom_site_label_1
_geom_bond_atom_site_label_2
_geom_bond_distance
_geom_bond_site_symmetry_2
Al0 S21 2.404143 1_555
Al0 S20 2.404148 1_555
Al0 S25 2.404168 1_555
Al0 S30 2.504102 1_556
Al0 S28 2.504108 1_565
Al0 S35 2.504233 1_455
Al1 S29 2.401715 1_555
Al1 S31 2.401720 1_555
Al1 S33 2.401758 1_555
Al1 S19 2.502523 1_555
Al1 S23 2.502586 1_555
Al1 S24 2.502618 1_555
Ge0 S39 2.210907 1_555
Ge0 S0 2.237347 1_655
Ge0 S3 2.238235 1_555
Ge0 S6 2.246220 1_555
Ge1 S40 2.210911 1_555
Ge1 S4 2.237399 1_545
Ge1 S7 2.238216 1_555
Ge1 S1 2.246235 1_555
Ge2 S41 2.210924 1_555
Ge2 S8 2.237362 1_554
Ge2 S2 2.238210 1_555
Ge2 S5 2.246223 1_555
Ge3 S37 2.210482 1_565
Ge3 S15 2.238006 1_555
Ge3 S12 2.238455 1_555
Ge3 S9 2.244125 1_555
Ge4 S38 2.210482 1_455
Ge4 S13 2.238031 1_555
Ge4 S10 2.238432 1_555
Ge4 S16 2.244133 1_555
Ge5 S36 2.210475 1_556
Ge5 S11 2.238012 1_555
Ge5 S17 2.238427 1_555
Ge5 S14 2.244132 1_555
S0 Y16 2.880845 1_555
S0 Y10 2.881829 1_555
S0 Y0 3.066755 1_565
S1 Y11 2.769029 1_545
S1 Y17 2.863018 1_555
S1 Y1 3.027922 1_555
S2 Y9 2.855858 1_555
S2 Y15 2.902428 1_554
S2 Y2 2.987747 1_554
S3 Y13 2.855815 1_555
S3 Y10 2.902449 1_655
S3 Y4 2.987856 1_655
S4 Y11 2.880890 1_555
S4 Y14 2.881805 1_555
S4 Y5 3.066830 1_556
S5 Y12 2.768979 1_554
S5 Y9 2.863006 1_555
S5 Y3 3.028003 1_555
S6 Y16 2.768981 1_655
S6 Y13 2.863005 1_555
S6 Y8 3.028067 1_555
S7 Y17 2.855775 1_555
S7 Y14 2.902363 1_545
S7 Y6 2.987855 1_545
S8 Y12 2.880818 1_555
S8 Y15 2.881876 1_555
S8 Y7 3.066872 1_455
S9 Y2 2.812028 1_554
S9 Y8 2.830024 1_555
S9 Y10 3.061272 1_555
S10 Y0 2.880516 1_555
S10 Y6 2.924197 1_545
S10 Y11 3.089926 1_445
S11 Y1 2.803588 1_555
S11 Y7 2.899510 1_555
S11 Y9 2.936995 1_556
S12 Y5 2.880502 1_555
S12 Y2 2.924140 1_554
S12 Y12 3.090004 1_564
S13 Y3 2.803562 1_555
S13 Y0 2.899523 1_555
S13 Y13 2.937061 1_455
S14 Y4 2.812019 1_655
S14 Y1 2.830030 1_555
S14 Y14 3.061396 1_555
S15 Y8 2.803565 1_555
S15 Y5 2.899471 1_555
S15 Y17 2.937045 1_565
S16 Y6 2.812029 1_545
S16 Y3 2.830030 1_555
S16 Y15 3.061419 1_555
S17 Y7 2.880540 1_555
S17 Y4 2.924114 1_655
S17 Y16 3.090046 1_656
S18 Y0 2.660560 1_655
S18 Y5 2.719552 1_545
S18 Y17 2.754340 1_555
S18 Y16 3.246577 1_645
S19 Y1 2.742670 1_555
S19 Y3 2.766209 1_555
S19 Y15 2.804709 1_555
S19 Y17 3.359258 1_555
S20 Y2 2.760243 1_555
S20 Y16 2.776842 1_556
S20 Y4 2.815079 1_555
S21 Y4 2.760218 1_555
S21 Y11 2.776862 1_455
S21 Y6 2.815040 1_555
S22 Y5 2.660558 1_545
S22 Y7 2.719520 1_554
S22 Y9 2.754291 1_555
S22 Y11 3.246610 1_544
S23 Y3 2.742654 1_555
S23 Y8 2.766152 1_555
S23 Y10 2.804717 1_555
S23 Y9 3.359280 1_555
S24 Y8 2.742601 1_555
S24 Y1 2.766120 1_555
S24 Y14 2.804724 1_555
S24 Y13 3.359269 1_555
S25 Y6 2.760155 1_555
S25 Y12 2.776848 1_565
S25 Y2 2.815065 1_555
S26 Y7 2.660499 1_554
S26 Y0 2.719521 1_655
S26 Y13 2.754319 1_555
S26 Y12 3.246597 1_654
S27 Y10 2.666921 1_555
S27 Y14 2.704856 1_555
S27 Y6 2.745314 1_555
S27 Y8 3.235074 1_555
S28 Y11 2.744758 1_445
S28 Y12 2.767363 1_555
S28 Y7 2.809469 1_455
S28 Y6 3.364193 1_545
S29 Y9 2.746968 1_555
S29 Y8 2.782309 1_555
S29 Y13 2.831096 1_555
S30 Y12 2.744747 1_564
S30 Y16 2.767293 1_555
S30 Y0 2.809503 1_565
S30 Y2 3.364212 1_554
S31 Y13 2.746897 1_555
S31 Y1 2.782278 1_555
S31 Y17 2.831126 1_555
S32 Y14 2.666937 1_555
S32 Y15 2.704834 1_555
S32 Y2 2.745352 1_555
S32 Y1 3.235088 1_555
S33 Y17 2.746864 1_555
S33 Y3 2.782301 1_555
S33 Y9 2.831054 1_555
S34 Y15 2.666856 1_555
S34 Y10 2.704828 1_555
S34 Y4 2.745399 1_555
S34 Y3 3.235115 1_555
S35 Y16 2.744736 1_656
S35 Y11 2.767275 1_555
S35 Y5 2.809505 1_556
S35 Y4 3.364094 1_655
S36 Y2 2.885141 1_554
S36 Y8 2.913128 1_555
S36 Y5 2.917758 1_555
S37 Y6 2.885211 1_545
S37 Y3 2.913050 1_555
S37 Y0 2.917830 1_555
S38 Y4 2.885181 1_655
S38 Y1 2.913134 1_555
S38 Y7 2.917818 1_555
S39 Y17 2.887810 1_565
S39 Y11 2.911643 1_555
S39 Y14 2.915995 1_555
S40 Y9 2.887791 1_556
S40 Y12 2.911670 1_555
S40 Y15 2.916033 1_555
S41 Y13 2.887778 1_455
S41 Y16 2.911706 1_555
S41 Y10 2.915957 1_555
