# generated using pymatgen
data_TiZn(GeO3)2
_symmetry_space_group_name_H-M   'P 1'
_cell_length_a   6.94537194
_cell_length_b   6.94537194
_cell_length_c   5.05527600
_cell_angle_alpha   79.96098557
_cell_angle_beta   79.96098557
_cell_angle_gamma   79.32597214
_symmetry_Int_Tables_number   1
_chemical_formula_structural   TiZn(GeO3)2
_chemical_formula_sum   'Ti2 Zn2 Ge4 O12'
_cell_volume   233.41312703
_cell_formula_units_Z   2
loop_
 _symmetry_equiv_pos_site_id
 _symmetry_equiv_pos_as_xyz
  1  'x, y, z'
loop_
 _atom_site_type_symbol
 _atom_site_label
 _atom_site_symmetry_multiplicity
 _atom_site_fract_x
 _atom_site_fract_y
 _atom_site_fract_z
 _atom_site_occupancy
  Ti  Ti0  1  0.10154200  0.89845800  0.25000000  1
  Ti  Ti1  1  0.89845800  0.10154200  0.75000000  1
  Zn  Zn0  1  0.65943300  0.34056700  0.25000000  1
  Zn  Zn1  1  0.34056700  0.65943300  0.75000000  1
  Ge  Ge0  1  0.58713700  0.83821500  0.12924400  1
  Ge  Ge1  1  0.16178500  0.41286300  0.37075600  1
  Ge  Ge2  1  0.41286300  0.16178500  0.87075600  1
  Ge  Ge3  1  0.83821500  0.58713700  0.62924400  1
  O  O0  1  0.69164600  0.60254200  0.34495400  1
  O  O1  1  0.39745800  0.30835400  0.15504600  1
  O  O2  1  0.30835400  0.39745800  0.65504600  1
  O  O3  1  0.60254200  0.69164600  0.84495400  1
  O  O4  1  0.84371600  0.34625500  0.88708300  1
  O  O5  1  0.65374500  0.15628400  0.61291700  1
  O  O6  1  0.15628400  0.65374500  0.11291700  1
  O  O7  1  0.34625500  0.84371600  0.38708300  1
  O  O8  1  0.81782600  0.95621900  0.10137600  1
  O  O9  1  0.04378100  0.18217400  0.39862400  1
  O  O10  1  0.18217400  0.04378100  0.89862400  1
  O  O11  1  0.95621900  0.81782600  0.60137600  1
loop_
_geom_bond_atom_site_label_1
_geom_bond_atom_site_label_2
_geom_bond_distance
_geom_bond_site_symmetry_2
Ge0 O3 1.878634 1_554
Ge0 O0 1.899676 1_555
Ge0 O8 1.904251 1_555
Ge0 O7 1.932053 1_555
Ge1 O2 1.878634 1_555
Ge1 O1 1.899676 1_555
Ge1 O9 1.904251 1_555
Ge1 O6 1.932053 1_555
Ge2 O1 1.878634 1_556
Ge2 O2 1.899676 1_555
Ge2 O10 1.904251 1_555
Ge2 O5 1.932053 1_555
Ge3 O0 1.878634 1_555
Ge3 O3 1.899676 1_555
Ge3 O11 1.904251 1_555
Ge3 O4 1.932053 1_555
O0 Zn0 2.020853 1_555
O1 Zn0 2.020853 1_555
O2 Zn1 2.020853 1_555
O3 Zn1 2.020853 1_555
O4 Ti1 1.895496 1_555
O4 Zn0 2.044617 1_556
O5 Ti1 1.895496 1_555
O5 Zn0 2.044617 1_555
O6 Ti0 1.895496 1_555
O6 Zn1 2.044617 1_554
O7 Ti0 1.895496 1_555
O7 Zn1 2.044617 1_555
O8 Ti1 1.930058 1_564
O8 Ti0 2.174076 1_655
O9 Ti1 1.930058 1_455
O9 Ti0 2.174076 1_545
O10 Ti0 1.930058 1_546
O10 Ti1 2.174076 1_455
O11 Ti0 1.930058 1_655
O11 Ti1 2.174076 1_565
