# generated using pymatgen
data_Li2CrO2
_symmetry_space_group_name_H-M   'P 1'
_cell_length_a   2.98615500
_cell_length_b   7.51140545
_cell_length_c   10.41125793
_cell_angle_alpha   110.30085506
_cell_angle_beta   89.99720433
_cell_angle_gamma   101.47002588
_symmetry_Int_Tables_number   1
_chemical_formula_structural   Li2CrO2
_chemical_formula_sum   'Li8 Cr4 O8'
_cell_volume   214.04223287
_cell_formula_units_Z   4
loop_
 _symmetry_equiv_pos_site_id
 _symmetry_equiv_pos_as_xyz
  1  'x, y, z'
loop_
 _atom_site_type_symbol
 _atom_site_label
 _atom_site_symmetry_multiplicity
 _atom_site_fract_x
 _atom_site_fract_y
 _atom_site_fract_z
 _atom_site_occupancy
  Li  Li0  1  0.17913600  0.35829900  0.46289900  1
  Li  Li1  1  0.42905100  0.85813900  0.71252600  1
  Li  Li2  1  0.67911700  0.35827100  0.96294000  1
  Li  Li3  1  0.92906100  0.85814900  0.21252100  1
  Li  Li4  1  0.82094700  0.64186000  0.53747500  1
  Li  Li5  1  0.07086800  0.14170100  0.78710100  1
  Li  Li6  1  0.32094400  0.64184900  0.03747800  1
  Li  Li7  1  0.57088400  0.14172700  0.28705900  1
  Cr  Cr0  1  0.49564600  0.99123300  0.49573500  1
  Cr  Cr1  1  0.75435500  0.50876600  0.75427000  1
  Cr  Cr2  1  0.99558600  0.99113600  0.99573700  1
  Cr  Cr3  1  0.25442900  0.50886500  0.25425900  1
  O  O0  1  0.71435300  0.42879500  0.35884700  1
  O  O1  1  0.96339100  0.92685700  0.60760900  1
  O  O2  1  0.21434100  0.42875800  0.85883300  1
  O  O3  1  0.46337000  0.92683000  0.10759700  1
  O  O4  1  0.28661000  0.57314300  0.64239000  1
  O  O5  1  0.53563100  0.07120200  0.89115400  1
  O  O6  1  0.78661700  0.57317000  0.14240400  1
  O  O7  1  0.03566200  0.07124500  0.39116600  1
loop_
_geom_bond_atom_site_label_1
_geom_bond_atom_site_label_2
_geom_bond_distance
_geom_bond_site_symmetry_2
Li0 O4 1.975070 1_555
Li0 O7 1.976276 1_555
Li0 O0 2.017332 1_555
Li0 O0 2.017611 1_455
Li1 O4 1.962147 1_555
Li1 O5 1.963015 1_565
Li1 O1 2.017202 1_555
Li1 O1 2.017427 1_455
Li2 O6 1.975072 1_556
Li2 O5 1.976379 1_555
Li2 O2 2.017688 1_655
Li2 O2 2.017915 1_555
Li3 O6 1.962031 1_555
Li3 O7 1.963245 1_665
Li3 O3 2.017100 1_655
Li3 O3 2.017380 1_555
Li4 O1 1.962154 1_555
Li4 O0 1.963022 1_555
Li4 O4 2.017180 1_555
Li4 O4 2.017416 1_655
Li5 O1 1.975077 1_445
Li5 O2 1.976297 1_555
Li5 O5 2.017390 1_455
Li5 O5 2.017586 1_555
Li6 O3 1.962044 1_555
Li6 O2 1.963228 1_554
Li6 O6 2.017149 1_455
Li6 O6 2.017344 1_555
Li7 O3 1.975052 1_545
Li7 O0 1.976372 1_555
Li7 O7 2.017672 1_555
Li7 O7 2.017898 1_655
Cr0 O1 2.049633 1_555
Cr0 O1 2.049785 1_455
Cr0 O7 2.053109 1_665
Cr0 O7 2.053213 1_565
Cr1 O4 2.049678 1_555
Cr1 O4 2.049827 1_655
Cr1 O2 2.053055 1_555
Cr1 O2 2.053159 1_655
Cr2 O3 2.049324 1_656
Cr2 O3 2.049459 1_556
Cr2 O5 2.053394 1_665
Cr2 O5 2.053489 1_565
Cr3 O6 2.049347 1_455
Cr3 O6 2.049362 1_555
Cr3 O0 2.053473 1_555
Cr3 O0 2.053504 1_455
