# generated using pymatgen
data_Yb3Cr
_symmetry_space_group_name_H-M   'P 1'
_cell_length_a   4.69470859
_cell_length_b   4.69470859
_cell_length_c   4.69470859
_cell_angle_alpha   90.00000000
_cell_angle_beta   90.00000000
_cell_angle_gamma   90.00000000
_symmetry_Int_Tables_number   1
_chemical_formula_structural   Yb3Cr
_chemical_formula_sum   'Yb3 Cr1'
_cell_volume   103.47273291
_cell_formula_units_Z   1
loop_
 _symmetry_equiv_pos_site_id
 _symmetry_equiv_pos_as_xyz
  1  'x, y, z'
loop_
 _atom_site_type_symbol
 _atom_site_label
 _atom_site_symmetry_multiplicity
 _atom_site_fract_x
 _atom_site_fract_y
 _atom_site_fract_z
 _atom_site_occupancy
  Yb  Yb0  1  0.00000000  0.50000000  0.50000000  1
  Yb  Yb1  1  0.50000000  0.00000000  0.50000000  1
  Yb  Yb2  1  0.50000000  0.50000000  0.00000000  1
  Cr  Cr0  1  0.00000000  0.00000000  0.00000000  1
loop_
_geom_bond_atom_site_label_1
_geom_bond_atom_site_label_2
_geom_bond_distance
_geom_bond_site_symmetry_2
Yb0 Yb2 3.319660 1_455
Yb0 Yb1 3.319660 1_555
Yb0 Yb2 3.319660 1_456
Yb0 Yb2 3.319660 1_556
Yb0 Yb2 3.319660 1_555
Yb0 Yb1 3.319660 1_565
Yb0 Yb1 3.319660 1_455
Yb0 Yb1 3.319660 1_465
Yb1 Yb2 3.319660 1_556
Yb1 Yb2 3.319660 1_555
Yb1 Yb2 3.319660 1_546
Yb1 Yb2 3.319660 1_545
Cr0 Yb0 3.319660 1_544
Cr0 Yb2 3.319660 1_455
Cr0 Yb1 3.319660 1_555
Cr0 Yb2 3.319660 1_555
Cr0 Yb1 3.319660 1_454
Cr0 Yb2 3.319660 1_445
Cr0 Yb0 3.319660 1_545
Cr0 Yb1 3.319660 1_455
Cr0 Yb0 3.319660 1_555
Cr0 Yb2 3.319660 1_545
Cr0 Yb0 3.319660 1_554
Cr0 Yb1 3.319660 1_554
