# generated using pymatgen
data_Tb7PtI12
_symmetry_space_group_name_H-M   'P 1'
_cell_length_a   9.72875313
_cell_length_b   9.72875312
_cell_length_c   9.72875400
_cell_angle_alpha   107.43520461
_cell_angle_beta   107.43520461
_cell_angle_gamma   107.43520127
_symmetry_Int_Tables_number   1
_chemical_formula_structural   Tb7PtI12
_chemical_formula_sum   'Tb7 Pt1 I12'
_cell_volume   757.57369025
_cell_formula_units_Z   1
loop_
 _symmetry_equiv_pos_site_id
 _symmetry_equiv_pos_as_xyz
  1  'x, y, z'
loop_
 _atom_site_type_symbol
 _atom_site_label
 _atom_site_symmetry_multiplicity
 _atom_site_fract_x
 _atom_site_fract_y
 _atom_site_fract_z
 _atom_site_occupancy
  Tb  Tb0  1  0.10267705  0.03273071  0.30605351  1
  Tb  Tb1  1  0.30605351  0.10267705  0.03273071  1
  Tb  Tb2  1  0.03273071  0.30605351  0.10267705  1
  Tb  Tb3  1  0.89732295  0.96726929  0.69394649  1
  Tb  Tb4  1  0.69394649  0.89732295  0.96726929  1
  Tb  Tb5  1  0.96726929  0.69394649  0.89732295  1
  Tb  Tb6  1  0.50000000  0.50000000  0.50000000  1
  Pt  Pt0  1  0.00000000  0.00000000  0.00000000  1
  I  I0  1  0.07492927  0.68061090  0.22684259  1
  I  I1  1  0.22684259  0.07492927  0.68061090  1
  I  I2  1  0.68061090  0.22684259  0.07492927  1
  I  I3  1  0.92507073  0.31938910  0.77315741  1
  I  I4  1  0.77315741  0.92507073  0.31938910  1
  I  I5  1  0.31938910  0.77315741  0.92507073  1
  I  I6  1  0.47187411  0.15678908  0.39214193  1
  I  I7  1  0.39214193  0.47187411  0.15678908  1
  I  I8  1  0.15678908  0.39214193  0.47187411  1
  I  I9  1  0.52812589  0.84321092  0.60785807  1
  I  I10  1  0.60785807  0.52812589  0.84321092  1
  I  I11  1  0.84321092  0.60785807  0.52812589  1
loop_
_geom_bond_atom_site_label_1
_geom_bond_atom_site_label_2
_geom_bond_distance
_geom_bond_site_symmetry_2
Pt0 Tb5 2.724649 1_444
Pt0 Tb2 2.724649 1_555
Pt0 Tb4 2.724649 1_444
Pt0 Tb1 2.724649 1_555
Pt0 Tb0 2.724649 1_555
Pt0 Tb3 2.724649 1_444
I0 Tb5 3.116030 1_454
I0 Tb0 3.184533 1_565
I0 Tb2 3.327887 1_555
I1 Tb3 3.116030 1_445
I1 Tb1 3.184533 1_556
I1 Tb0 3.327887 1_555
I2 Tb4 3.116030 1_544
I2 Tb2 3.184533 1_655
I2 Tb1 3.327887 1_555
I3 Tb2 3.116030 1_656
I3 Tb3 3.184533 1_545
I3 Tb5 3.327887 1_555
I4 Tb0 3.116030 1_665
I4 Tb4 3.184533 1_554
I4 Tb3 3.327887 1_555
I5 Tb1 3.116030 1_566
I5 Tb5 3.184533 1_455
I5 Tb4 3.327887 1_555
I6 Tb6 3.083146 1_555
I6 Tb0 3.170658 1_555
I6 Tb1 3.180204 1_555
I7 Tb6 3.083146 1_555
I7 Tb1 3.170658 1_555
I7 Tb2 3.180204 1_555
I8 Tb6 3.083146 1_555
I8 Tb2 3.170658 1_555
I8 Tb0 3.180204 1_555
I9 Tb6 3.083146 1_555
I9 Tb3 3.170658 1_555
I9 Tb4 3.180204 1_555
I10 Tb6 3.083146 1_555
I10 Tb4 3.170658 1_555
I10 Tb5 3.180204 1_555
I11 Tb6 3.083146 1_555
I11 Tb5 3.170658 1_555
I11 Tb3 3.180204 1_555
