# generated using pymatgen
data_LiAlFeO4
_symmetry_space_group_name_H-M   'P 1'
_cell_length_a   9.46230278
_cell_length_b   2.90232767
_cell_length_c   10.06302004
_cell_angle_alpha   89.99226266
_cell_angle_beta   90.00510708
_cell_angle_gamma   91.78903107
_symmetry_Int_Tables_number   1
_chemical_formula_structural   LiAlFeO4
_chemical_formula_sum   'Li4 Al4 Fe4 O16'
_cell_volume   276.22301958
_cell_formula_units_Z   4
loop_
 _symmetry_equiv_pos_site_id
 _symmetry_equiv_pos_as_xyz
  1  'x, y, z'
loop_
 _atom_site_type_symbol
 _atom_site_label
 _atom_site_symmetry_multiplicity
 _atom_site_fract_x
 _atom_site_fract_y
 _atom_site_fract_z
 _atom_site_occupancy
  Li  Li0  1  0.08242200  0.29157500  0.62777200  1
  Li  Li1  1  0.41762000  0.70851500  0.12779700  1
  Li  Li2  1  0.58156700  0.29360800  0.87267600  1
  Li  Li3  1  0.91832600  0.70710500  0.37260000  1
  Al  Al0  1  0.00125700  0.23878100  0.12718600  1
  Al  Al1  1  0.49874600  0.76126500  0.62721800  1
  Al  Al2  1  0.50107200  0.23889600  0.37255400  1
  Al  Al3  1  0.99888600  0.76107200  0.87254600  1
  Fe  Fe0  1  0.22430800  0.75411100  0.35135600  1
  Fe  Fe1  1  0.27566700  0.24585200  0.85122000  1
  Fe  Fe2  1  0.72471800  0.75262000  0.14878900  1
  Fe  Fe3  1  0.77537100  0.24634200  0.64866600  1
  O  O0  1  0.10199500  0.26200100  0.96404200  1
  O  O1  1  0.13037600  0.28395200  0.44188300  1
  O  O2  1  0.08195600  0.74306100  0.21500300  1
  O  O3  1  0.16185200  0.78920600  0.75703400  1
  O  O4  1  0.33821900  0.21077200  0.25705600  1
  O  O5  1  0.41803900  0.25682500  0.71501600  1
  O  O6  1  0.36963000  0.71596200  0.94190400  1
  O  O7  1  0.39797900  0.73801500  0.46412200  1
  O  O8  1  0.60161900  0.26215600  0.53579200  1
  O  O9  1  0.63143000  0.28184000  0.05825500  1
  O  O10  1  0.58183800  0.74327000  0.28492300  1
  O  O11  1  0.66153900  0.78984800  0.74290300  1
  O  O12  1  0.83851400  0.21014900  0.24286800  1
  O  O13  1  0.91816100  0.25678800  0.78488500  1
  O  O14  1  0.86855600  0.71859500  0.55819000  1
  O  O15  1  0.89834000  0.73781600  0.03574100  1
loop_
_geom_bond_atom_site_label_1
_geom_bond_atom_site_label_2
_geom_bond_distance
_geom_bond_site_symmetry_2
Li0 O1 1.925184 1_555
Li0 O3 2.067705 1_555
Li0 O3 2.109620 1_545
Li0 O13 2.217264 1_455
Li0 O14 2.505516 1_455
Li1 O6 1.925210 1_554
Li1 O4 2.067655 1_555
Li1 O4 2.109595 1_565
Li1 O10 2.216892 1_555
Li1 O9 2.504641 1_555
Li2 O9 1.926684 1_556
Li2 O11 2.069773 1_555
Li2 O11 2.117891 1_545
Li2 O5 2.216322 1_555
Li2 O6 2.482653 1_555
Li3 O14 1.926646 1_555
Li3 O12 2.070577 1_555
Li3 O12 2.115279 1_565
Li3 O2 2.216656 1_655
Li3 O1 2.484700 1_655
Al0 O2 1.853793 1_555
Al0 O2 1.871397 1_545
Al0 O0 1.898590 1_554
Al0 O12 1.930214 1_455
Al0 O15 1.954724 1_445
Al0 O15 1.995105 1_455
Al1 O5 1.853968 1_555
Al1 O5 1.871224 1_565
Al1 O7 1.898181 1_555
Al1 O11 1.930454 1_555
Al1 O8 1.954177 1_565
Al1 O8 1.995224 1_555
Al2 O10 1.853235 1_555
Al2 O10 1.870822 1_545
Al2 O8 1.898375 1_555
Al2 O4 1.929749 1_555
Al2 O7 1.955818 1_545
Al2 O7 1.996968 1_555
Al3 O13 1.853149 1_555
Al3 O13 1.870754 1_565
Al3 O15 1.898127 1_556
Al3 O3 1.930839 1_655
Al3 O0 1.955753 1_665
Al3 O0 1.996347 1_655
Fe0 O1 1.845523 1_555
Fe0 O2 1.922260 1_555
Fe0 O4 1.931205 1_565
Fe0 O7 1.998712 1_555
Fe0 O1 2.017541 1_565
Fe0 O4 2.157720 1_555
Fe1 O6 1.846439 1_555
Fe1 O5 1.921489 1_555
Fe1 O3 1.930206 1_545
Fe1 O0 1.999221 1_555
Fe1 O6 2.018242 1_545
Fe1 O3 2.156502 1_555
Fe2 O9 1.844184 1_555
Fe2 O10 1.924390 1_555
Fe2 O12 1.931298 1_565
Fe2 O15 1.999936 1_555
Fe2 O9 2.013091 1_565
Fe2 O12 2.154022 1_555
Fe3 O14 1.846455 1_555
Fe3 O13 1.924213 1_555
Fe3 O11 1.930168 1_545
Fe3 O8 1.999920 1_555
Fe3 O14 2.009316 1_545
Fe3 O11 2.157413 1_555
