# generated using pymatgen
data_Tl2BiSbTe4
_symmetry_space_group_name_H-M   'P 1'
_cell_length_a   4.54274700
_cell_length_b   7.87220700
_cell_length_c   8.43723011
_cell_angle_alpha   71.71574640
_cell_angle_beta   90.00000000
_cell_angle_gamma   90.00000000
_symmetry_Int_Tables_number   1
_chemical_formula_structural   Tl2BiSbTe4
_chemical_formula_sum   'Tl2 Bi1 Sb1 Te4'
_cell_volume   286.49383835
_cell_formula_units_Z   1
loop_
 _symmetry_equiv_pos_site_id
 _symmetry_equiv_pos_as_xyz
  1  'x, y, z'
loop_
 _atom_site_type_symbol
 _atom_site_label
 _atom_site_symmetry_multiplicity
 _atom_site_fract_x
 _atom_site_fract_y
 _atom_site_fract_z
 _atom_site_occupancy
  Tl  Tl0  1  0.00000000  0.50000000  0.50000000  1
  Tl  Tl1  1  0.50000000  0.00000000  0.50000000  1
  Bi  Bi0  1  0.00000000  0.00000000  0.00000000  1
  Sb  Sb0  1  0.50000000  0.50000000  0.00000000  1
  Te  Te0  1  0.50000000  0.75509800  0.21857200  1
  Te  Te1  1  0.00000000  0.26596700  0.21595700  1
  Te  Te2  1  0.50000000  0.24490200  0.78142800  1
  Te  Te3  1  0.00000000  0.73403300  0.78404300  1
loop_
_geom_bond_atom_site_label_1
_geom_bond_atom_site_label_2
_geom_bond_distance
_geom_bond_site_symmetry_2
Bi0 Te2 3.169545 1_554
Bi0 Te2 3.169545 1_454
Bi0 Te0 3.169545 1_445
Bi0 Te0 3.169545 1_545
Bi0 Te1 3.177657 1_555
Bi0 Te3 3.177657 1_544
Sb0 Te0 3.123683 1_555
Sb0 Te2 3.123683 1_554
Sb0 Te1 3.125227 1_555
Sb0 Te1 3.125227 1_655
Sb0 Te3 3.125227 1_654
Sb0 Te3 3.125227 1_554
Te0 Tl0 3.440651 1_555
Te0 Tl0 3.440651 1_655
Te0 Tl1 3.496768 1_565
Te1 Tl0 3.450809 1_555
Te1 Tl1 3.483942 1_555
Te1 Tl1 3.483942 1_455
Te2 Tl0 3.440651 1_555
Te2 Tl0 3.440651 1_655
Te2 Tl1 3.496768 1_555
Te3 Tl0 3.450809 1_555
Te3 Tl1 3.483942 1_465
Te3 Tl1 3.483942 1_565
