# generated using pymatgen
data_Na3Nd(AsO4)2
_symmetry_space_group_name_H-M   'P 1'
_cell_length_a   5.62310746
_cell_length_b   14.32720555
_cell_length_c   19.54793204
_cell_angle_alpha   90.00000000
_cell_angle_beta   90.00000000
_cell_angle_gamma   90.00000000
_symmetry_Int_Tables_number   1
_chemical_formula_structural   Na3Nd(AsO4)2
_chemical_formula_sum   'Na24 Nd8 As16 O64'
_cell_volume   1574.84818888
_cell_formula_units_Z   8
loop_
 _symmetry_equiv_pos_site_id
 _symmetry_equiv_pos_as_xyz
  1  'x, y, z'
loop_
 _atom_site_type_symbol
 _atom_site_label
 _atom_site_symmetry_multiplicity
 _atom_site_fract_x
 _atom_site_fract_y
 _atom_site_fract_z
 _atom_site_occupancy
  Na  Na0  1  0.97896570  0.21646087  0.99390051  1
  Na  Na1  1  0.02103430  0.78353913  0.49390051  1
  Na  Na2  1  0.02103430  0.71646087  0.99390051  1
  Na  Na3  1  0.97896570  0.28353913  0.49390051  1
  Na  Na4  1  0.98268202  0.95202973  0.64712398  1
  Na  Na5  1  0.01731798  0.04797027  0.14712398  1
  Na  Na6  1  0.01731798  0.45202973  0.64712398  1
  Na  Na7  1  0.98268202  0.54797027  0.14712398  1
  Na  Na8  1  0.98819584  0.86212360  0.82695444  1
  Na  Na9  1  0.01180416  0.13787640  0.32695444  1
  Na  Na10  1  0.01180416  0.36212360  0.82695444  1
  Na  Na11  1  0.98819584  0.63787640  0.32695444  1
  Na  Na12  1  0.46818580  0.79769401  0.73194651  1
  Na  Na13  1  0.53181420  0.20230599  0.23194651  1
  Na  Na14  1  0.53181420  0.29769401  0.73194651  1
  Na  Na15  1  0.46818580  0.70230599  0.23194651  1
  Na  Na16  1  0.54284237  0.96748318  0.88768116  1
  Na  Na17  1  0.45715763  0.03251682  0.38768116  1
  Na  Na18  1  0.45715763  0.46748318  0.88768116  1
  Na  Na19  1  0.54284237  0.53251682  0.38768116  1
  Na  Na20  1  0.49372324  0.88509666  0.55188106  1
  Na  Na21  1  0.50627676  0.11490334  0.05188106  1
  Na  Na22  1  0.50627676  0.38509666  0.55188106  1
  Na  Na23  1  0.49372324  0.61490334  0.05188106  1
  Nd  Nd0  1  0.92700221  0.61137027  0.80374788  1
  Nd  Nd1  1  0.07299779  0.38862973  0.30374788  1
  Nd  Nd2  1  0.07299779  0.11137027  0.80374788  1
  Nd  Nd3  1  0.92700221  0.88862973  0.30374788  1
  Nd  Nd4  1  0.56022686  0.63811808  0.57295230  1
  Nd  Nd5  1  0.43977314  0.36188192  0.07295230  1
  Nd  Nd6  1  0.43977314  0.13811808  0.57295230  1
  Nd  Nd7  1  0.56022686  0.86188192  0.07295230  1
  As  As0  1  0.96536083  0.47521733  0.98090961  1
  As  As1  1  0.03463917  0.52478267  0.48090961  1
  As  As2  1  0.03463917  0.97521733  0.98090961  1
  As  As3  1  0.96536083  0.02478267  0.48090961  1
  As  As4  1  0.98681297  0.22464196  0.65296122  1
  As  As5  1  0.01318703  0.77535804  0.15296122  1
  As  As6  1  0.01318703  0.72464196  0.65296122  1
  As  As7  1  0.98681297  0.27535804  0.15296122  1
  As  As8  1  0.47501604  0.52423882  0.72416843  1
  As  As9  1  0.52498396  0.47576118  0.22416843  1
  As  As10  1  0.52498396  0.02423882  0.72416843  1
  As  As11  1  0.47501604  0.97576118  0.22416843  1
  As  As12  1  0.45823671  0.72619430  0.89602222  1
  As  As13  1  0.54176329  0.27380570  0.39602222  1
  As  As14  1  0.54176329  0.22619430  0.89602222  1
  As  As15  1  0.45823671  0.77380570  0.39602222  1
  O  O0  1  0.58273531  0.81232822  0.84733722  1
  O  O1  1  0.41726469  0.18767178  0.34733722  1
  O  O2  1  0.41726469  0.31232822  0.84733722  1
  O  O3  1  0.58273531  0.68767178  0.34733722  1
  O  O4  1  0.70347602  0.46687280  0.76539300  1
  O  O5  1  0.29652398  0.53312720  0.26539300  1
  O  O6  1  0.29652398  0.96687280  0.76539300  1
  O  O7  1  0.70347602  0.03312720  0.26539300  1
  O  O8  1  0.88691405  0.87170131  0.99677627  1
  O  O9  1  0.11308595  0.12829869  0.49677627  1
  O  O10  1  0.11308595  0.37170131  0.99677627  1
  O  O11  1  0.88691405  0.62829869  0.49677627  1
  O  O12  1  0.79087975  0.78142587  0.60863056  1
  O  O13  1  0.20912025  0.21857413  0.10863056  1
  O  O14  1  0.20912025  0.28142587  0.60863056  1
  O  O15  1  0.79087975  0.71857413  0.10863056  1
  O  O16  1  0.66410868  0.46337177  0.99789716  1
  O  O17  1  0.33589132  0.53662823  0.49789716  1
  O  O18  1  0.33589132  0.96337177  0.99789716  1
  O  O19  1  0.66410868  0.03662823  0.49789716  1
  O  O20  1  0.91292517  0.43866077  0.53043858  1
  O  O21  1  0.08707483  0.56133923  0.03043858  1
  O  O22  1  0.08707483  0.93866077  0.53043858  1
  O  O23  1  0.91292517  0.06133923  0.03043858  1
  O  O24  1  0.79097033  0.99432999  0.76181705  1
  O  O25  1  0.20902967  0.00567001  0.26181705  1
  O  O26  1  0.20902967  0.49432999  0.76181705  1
  O  O27  1  0.79097033  0.50567001  0.26181705  1
  O  O28  1  0.60976335  0.62325118  0.88213227  1
  O  O29  1  0.39023665  0.37674882  0.38213227  1
  O  O30  1  0.39023665  0.12325118  0.88213227  1
  O  O31  1  0.60976335  0.87674882  0.38213227  1
  O  O32  1  0.53907834  0.64090541  0.72907048  1
  O  O33  1  0.46092166  0.35909459  0.22907048  1
  O  O34  1  0.46092166  0.14090541  0.72907048  1
  O  O35  1  0.53907834  0.85909459  0.22907048  1
  O  O36  1  0.94942926  0.60811135  0.64892404  1
  O  O37  1  0.05057074  0.39188865  0.14892404  1
  O  O38  1  0.05057074  0.10811135  0.64892404  1
  O  O39  1  0.94942926  0.89188865  0.14892404  1
  O  O40  1  0.84073884  0.21355928  0.87570029  1
  O  O41  1  0.15926116  0.78644072  0.37570029  1
  O  O42  1  0.15926116  0.71355928  0.87570029  1
  O  O43  1  0.84073884  0.28644072  0.37570029  1
  O  O44  1  0.98469226  0.25632842  0.73794321  1
  O  O45  1  0.01530774  0.74367158  0.23794321  1
  O  O46  1  0.01530774  0.75632842  0.73794321  1
  O  O47  1  0.98469226  0.24367158  0.23794321  1
  O  O48  1  0.53527168  0.99465722  0.63877323  1
  O  O49  1  0.46472832  0.00534278  0.13877323  1
  O  O50  1  0.46472832  0.49465722  0.63877323  1
  O  O51  1  0.53527168  0.50534278  0.13877323  1
  O  O52  1  0.98748530  0.99679236  0.89510399  1
  O  O53  1  0.01251470  0.00320764  0.39510399  1
  O  O54  1  0.01251470  0.49679236  0.89510399  1
  O  O55  1  0.98748530  0.50320764  0.39510399  1
  O  O56  1  0.28293238  0.75435401  0.61761421  1
  O  O57  1  0.71706762  0.24564599  0.11761421  1
  O  O58  1  0.71706762  0.25435401  0.61761421  1
  O  O59  1  0.28293238  0.74564599  0.11761421  1
  O  O60  1  0.46695976  0.74702626  0.98279910  1
  O  O61  1  0.53304024  0.25297374  0.48279910  1
  O  O62  1  0.53304024  0.24702626  0.98279910  1
  O  O63  1  0.46695976  0.75297374  0.48279910  1
loop_
_geom_bond_atom_site_label_1
_geom_bond_atom_site_label_2
_geom_bond_distance
_geom_bond_site_symmetry_2
Na0 O10 2.349219 1_655
Na0 O23 2.363763 1_556
Na0 O40 2.438155 1_555
Na0 O62 2.554673 1_555
Na0 O13 2.589535 1_656
Na0 O57 2.862173 1_556
Na1 O11 2.349219 1_455
Na1 O22 2.363763 1_555
Na1 O41 2.438155 1_555
Na1 O63 2.554673 1_555
Na1 O12 2.589535 1_455
Na1 O56 2.862173 1_555
Na2 O8 2.349219 1_455
Na2 O21 2.363763 1_556
Na2 O42 2.438155 1_555
Na2 O60 2.554673 1_555
Na2 O15 2.589535 1_456
Na2 O59 2.862173 1_556
Na3 O9 2.349219 1_655
Na3 O20 2.363763 1_555
Na3 O43 2.438155 1_555
Na3 O61 2.554673 1_555
Na3 O14 2.589535 1_655
Na3 O58 2.862173 1_555
Na4 O38 2.268836 1_665
Na4 O22 2.363058 1_655
Na4 O24 2.560474 1_555
Na4 O48 2.594046 1_555
Na4 O12 2.775592 1_555
Na4 O6 2.916261 1_655
Na5 O39 2.268836 1_445
Na5 O23 2.363058 1_455
Na5 O25 2.560474 1_555
Na5 O49 2.594046 1_555
Na5 O13 2.775592 1_555
Na5 O7 2.916261 1_455
Na6 O36 2.268836 1_455
Na6 O20 2.363058 1_455
Na6 O26 2.560474 1_555
Na6 O50 2.594046 1_555
Na6 O14 2.775592 1_555
Na6 O4 2.916261 1_455
Na7 O37 2.268836 1_655
Na7 O21 2.363058 1_655
Na7 O27 2.560474 1_555
Na7 O51 2.594046 1_555
Na7 O15 2.775592 1_555
Na7 O5 2.916261 1_655
Na8 O46 2.312636 1_655
Na8 O52 2.344657 1_555
Na8 O0 2.421962 1_555
Na8 O42 2.522663 1_655
Na8 O24 2.537522 1_555
Na8 O6 2.589670 1_655
Na9 O47 2.312636 1_455
Na9 O53 2.344657 1_555
Na9 O1 2.421962 1_555
Na9 O43 2.522663 1_455
Na9 O25 2.537522 1_555
Na9 O7 2.589670 1_455
Na10 O44 2.312636 1_455
Na10 O54 2.344657 1_555
Na10 O2 2.421962 1_555
Na10 O40 2.522663 1_455
Na10 O26 2.537522 1_555
Na10 O4 2.589670 1_455
Na11 O45 2.312636 1_655
Na11 O55 2.344657 1_555
Na11 O3 2.421962 1_555
Na11 O41 2.522663 1_655
Na11 O27 2.537522 1_555
Na11 O5 2.589670 1_655
Na12 O32 2.282132 1_555
Na12 O0 2.355167 1_555
Na12 O56 2.542784 1_555
Na12 O46 2.617262 1_555
Na12 O6 2.689668 1_555
Na13 O33 2.282132 1_555
Na13 O1 2.355167 1_555
Na13 O57 2.542784 1_555
Na13 O47 2.617262 1_555
Na13 O7 2.689668 1_555
Na14 O34 2.282132 1_555
Na14 O2 2.355167 1_555
Na14 O58 2.542784 1_555
Na14 O44 2.617262 1_555
Na14 O4 2.689668 1_555
Na15 O35 2.282132 1_555
Na15 O3 2.355167 1_555
Na15 O59 2.542784 1_555
Na15 O45 2.617262 1_555
Na15 O5 2.689668 1_555
Na16 O0 2.369330 1_555
Na16 O30 2.393472 1_565
Na16 O18 2.449395 1_555
Na16 O52 2.539441 1_555
Na16 O6 2.762771 1_555
Na16 O24 2.854497 1_555
Na17 O1 2.369330 1_555
Na17 O31 2.393472 1_545
Na17 O19 2.449395 1_555
Na17 O53 2.539441 1_555
Na17 O7 2.762771 1_555
Na17 O25 2.854497 1_555
Na18 O2 2.369330 1_555
Na18 O28 2.393472 1_555
Na18 O16 2.449395 1_555
Na18 O54 2.539441 1_555
Na18 O4 2.762771 1_555
Na18 O26 2.854497 1_555
Na19 O3 2.369330 1_555
Na19 O29 2.393472 1_555
Na19 O17 2.449395 1_555
Na19 O55 2.539441 1_555
Na19 O5 2.762771 1_555
Na19 O27 2.854497 1_555
Na20 O48 2.324574 1_555
Na20 O63 2.330134 1_555
Na20 O22 2.448121 1_555
Na20 O12 2.495762 1_555
Na20 O56 2.562190 1_555
Na20 O19 2.597093 1_565
Na21 O49 2.324574 1_555
Na21 O62 2.330134 1_554
Na21 O23 2.448121 1_555
Na21 O13 2.495762 1_555
Na21 O57 2.562190 1_555
Na21 O18 2.597093 1_544
Na22 O50 2.324574 1_555
Na22 O61 2.330134 1_555
Na22 O20 2.448121 1_555
Na22 O14 2.495762 1_555
Na22 O58 2.562190 1_555
Na22 O17 2.597093 1_555
Na23 O51 2.324574 1_555
Na23 O60 2.330134 1_554
Na23 O21 2.448121 1_555
Na23 O15 2.495762 1_555
Na23 O59 2.562190 1_555
Na23 O16 2.597093 1_554
Nd0 O28 2.357744 1_555
Nd0 O42 2.414026 1_655
Nd0 O26 2.449222 1_655
Nd0 O54 2.472886 1_655
Nd0 O46 2.492897 1_655
Nd0 O4 2.535326 1_555
Nd0 O32 2.658623 1_555
Nd0 O36 3.029472 1_555
Nd1 O29 2.357744 1_555
Nd1 O43 2.414026 1_455
Nd1 O27 2.449222 1_455
Nd1 O55 2.472886 1_455
Nd1 O47 2.492897 1_455
Nd1 O5 2.535326 1_555
Nd1 O33 2.658623 1_555
Nd1 O37 3.029472 1_555
Nd2 O30 2.357744 1_555
Nd2 O40 2.414026 1_455
Nd2 O24 2.449222 1_445
Nd2 O52 2.472886 1_445
Nd2 O44 2.492897 1_455
Nd2 O6 2.535326 1_545
Nd2 O34 2.658623 1_555
Nd2 O38 3.029472 1_555
Nd3 O31 2.357744 1_555
Nd3 O41 2.414026 1_655
Nd3 O25 2.449222 1_665
Nd3 O53 2.472886 1_665
Nd3 O45 2.492897 1_655
Nd3 O7 2.535326 1_565
Nd3 O35 2.658623 1_555
Nd3 O39 3.029472 1_555
Nd4 O11 2.368907 1_555
Nd4 O17 2.420370 1_555
Nd4 O56 2.442711 1_555
Nd4 O63 2.467519 1_555
Nd4 O50 2.483649 1_555
Nd4 O12 2.526702 1_555
Nd4 O36 2.679546 1_555
Nd4 O32 3.054365 1_555
Nd5 O10 2.368907 1_554
Nd5 O16 2.420370 1_554
Nd5 O57 2.442711 1_555
Nd5 O62 2.467519 1_554
Nd5 O51 2.483649 1_555
Nd5 O13 2.526702 1_555
Nd5 O37 2.679546 1_555
Nd5 O33 3.054365 1_555
Nd6 O9 2.368907 1_555
Nd6 O19 2.420370 1_555
Nd6 O58 2.442711 1_555
Nd6 O61 2.467519 1_555
Nd6 O48 2.483649 1_545
Nd6 O14 2.526702 1_555
Nd6 O38 2.679546 1_555
Nd6 O34 3.054365 1_555
Nd7 O8 2.368907 1_554
Nd7 O18 2.420370 1_554
Nd7 O59 2.442711 1_555
Nd7 O60 2.467519 1_554
Nd7 O49 2.483649 1_565
Nd7 O15 2.526702 1_555
Nd7 O39 2.679546 1_555
Nd7 O35 3.054365 1_555
As0 O21 1.711223 1_656
As0 O54 1.726055 1_655
As0 O10 1.727944 1_655
As0 O16 1.734537 1_555
As1 O20 1.711223 1_455
As1 O55 1.726055 1_455
As1 O11 1.727944 1_455
As1 O17 1.734537 1_555
As2 O23 1.711223 1_466
As2 O52 1.726055 1_455
As2 O8 1.727944 1_455
As2 O18 1.734537 1_555
As3 O22 1.711223 1_645
As3 O53 1.726055 1_655
As3 O9 1.727944 1_655
As3 O19 1.734537 1_555
As4 O38 1.709440 1_655
As4 O58 1.720274 1_555
As4 O44 1.722178 1_555
As4 O14 1.724953 1_655
As5 O39 1.709440 1_455
As5 O59 1.720274 1_555
As5 O45 1.722178 1_555
As5 O15 1.724953 1_455
As6 O36 1.709440 1_455
As6 O56 1.720274 1_555
As6 O46 1.722178 1_555
As6 O12 1.724953 1_455
As7 O37 1.709440 1_655
As7 O57 1.720274 1_555
As7 O47 1.722178 1_555
As7 O13 1.724953 1_655
As8 O32 1.712565 1_555
As8 O26 1.721126 1_555
As8 O50 1.723233 1_555
As8 O4 1.724892 1_555
As9 O33 1.712565 1_555
As9 O27 1.721126 1_555
As9 O51 1.723233 1_555
As9 O5 1.724892 1_555
As10 O34 1.712565 1_555
As10 O24 1.721126 1_545
As10 O48 1.723233 1_545
As10 O6 1.724892 1_545
As11 O35 1.712565 1_555
As11 O25 1.721126 1_565
As11 O49 1.723233 1_565
As11 O7 1.724892 1_565
As12 O0 1.708424 1_555
As12 O60 1.723064 1_555
As12 O28 1.724820 1_555
As12 O42 1.736927 1_555
As13 O1 1.708424 1_555
As13 O61 1.723064 1_555
As13 O29 1.724820 1_555
As13 O43 1.736927 1_555
As14 O2 1.708424 1_555
As14 O62 1.723064 1_555
As14 O30 1.724820 1_555
As14 O40 1.736927 1_555
As15 O3 1.708424 1_555
As15 O63 1.723064 1_555
As15 O31 1.724820 1_555
As15 O41 1.736927 1_555
