# generated using pymatgen
data_Ba4Ti3O10
_symmetry_space_group_name_H-M   'P 1'
_cell_length_a   4.06435428
_cell_length_b   4.06435428
_cell_length_c   29.56538900
_cell_angle_alpha   90.00000000
_cell_angle_beta   90.00000000
_cell_angle_gamma   90.11598982
_symmetry_Int_Tables_number   1
_chemical_formula_structural   Ba4Ti3O10
_chemical_formula_sum   'Ba8 Ti6 O20'
_cell_volume   488.38894199
_cell_formula_units_Z   2
loop_
 _symmetry_equiv_pos_site_id
 _symmetry_equiv_pos_as_xyz
  1  'x, y, z'
loop_
 _atom_site_type_symbol
 _atom_site_label
 _atom_site_symmetry_multiplicity
 _atom_site_fract_x
 _atom_site_fract_y
 _atom_site_fract_z
 _atom_site_occupancy
  Ba  Ba0  1  0.49683200  0.50316800  0.56715700  1
  Ba  Ba1  1  0.00316800  0.99683200  0.06715700  1
  Ba  Ba2  1  0.49478300  0.50521700  0.70135300  1
  Ba  Ba3  1  0.00521700  0.99478300  0.20135300  1
  Ba  Ba4  1  0.99683200  0.00316800  0.93284300  1
  Ba  Ba5  1  0.50316800  0.49683200  0.43284300  1
  Ba  Ba6  1  0.99478300  0.00521700  0.79864700  1
  Ba  Ba7  1  0.50521700  0.49478300  0.29864700  1
  Ti  Ti0  1  0.50000000  0.50000000  0.00000000  1
  Ti  Ti1  1  0.00000000  0.00000000  0.50000000  1
  Ti  Ti2  1  0.47955600  0.52044400  0.86255200  1
  Ti  Ti3  1  0.02044400  0.97955600  0.36255200  1
  Ti  Ti4  1  0.97955600  0.02044400  0.63744800  1
  Ti  Ti5  1  0.52044400  0.47955600  0.13744800  1
  O  O0  1  0.00467500  0.99532500  0.70365800  1
  O  O1  1  0.49532500  0.50467500  0.20365800  1
  O  O2  1  0.50250200  0.49749800  0.93215800  1
  O  O3  1  0.99749800  0.00250200  0.43215800  1
  O  O4  1  0.50000000  0.00000000  0.00000000  1
  O  O5  1  0.50000000  0.00000000  0.50000000  1
  O  O6  1  0.50405100  0.98730700  0.86312400  1
  O  O7  1  0.48730700  0.00405100  0.36312400  1
  O  O8  1  0.49594900  0.01269300  0.13687600  1
  O  O9  1  0.51269300  0.99594900  0.63687600  1
  O  O10  1  0.98730700  0.50405100  0.13687600  1
  O  O11  1  0.00405100  0.48730700  0.63687600  1
  O  O12  1  0.01269300  0.49594900  0.86312400  1
  O  O13  1  0.99594900  0.51269300  0.36312400  1
  O  O14  1  0.00000000  0.50000000  0.50000000  1
  O  O15  1  0.00000000  0.50000000  0.00000000  1
  O  O16  1  0.50467500  0.49532500  0.79634200  1
  O  O17  1  0.99532500  0.00467500  0.29634200  1
  O  O18  1  0.49749800  0.50250200  0.06784200  1
  O  O19  1  0.00250200  0.99749800  0.56784200  1
loop_
_geom_bond_atom_site_label_1
_geom_bond_atom_site_label_2
_geom_bond_distance
_geom_bond_site_symmetry_2
Ba0 O14 2.831950 1_555
Ba0 O5 2.831950 1_565
Ba0 O19 2.844289 1_555
Ba0 O14 2.850406 1_655
Ba0 O5 2.850406 1_555
Ba0 O19 2.871279 1_545
Ba0 O19 2.871279 1_655
Ba0 O9 2.874686 1_555
Ba0 O11 2.874686 1_555
Ba0 O19 2.909534 1_645
Ba0 O9 2.916056 1_545
Ba0 O11 2.916056 1_655
Ba1 O4 2.831950 1_565
Ba1 O15 2.831950 1_555
Ba1 O18 2.844289 1_555
Ba1 O4 2.850406 1_465
Ba1 O15 2.850406 1_565
Ba1 O18 2.871279 1_565
Ba1 O18 2.871279 1_455
Ba1 O8 2.874686 1_565
Ba1 O10 2.874686 1_455
Ba1 O18 2.909534 1_465
Ba1 O10 2.916056 1_465
Ba1 O8 2.916056 1_465
Ba2 O9 2.759838 1_555
Ba2 O11 2.759838 1_555
Ba2 O16 2.808963 1_555
Ba2 O9 2.814978 1_545
Ba2 O11 2.814978 1_655
Ba2 O0 2.820748 1_555
Ba2 O0 2.872395 1_655
Ba2 O0 2.872395 1_545
Ba2 O0 2.934547 1_645
Ba3 O10 2.759838 1_455
Ba3 O8 2.759838 1_565
Ba3 O17 2.808963 1_465
Ba3 O10 2.814978 1_465
Ba3 O8 2.814978 1_465
Ba3 O1 2.820748 1_555
Ba3 O1 2.872395 1_455
Ba3 O1 2.872395 1_565
Ba3 O1 2.934547 1_465
Ba4 O15 2.831950 1_656
Ba4 O4 2.831950 1_556
Ba4 O2 2.844289 1_555
Ba4 O4 2.850406 1_656
Ba4 O15 2.850406 1_646
Ba4 O2 2.871279 1_655
Ba4 O2 2.871279 1_545
Ba4 O6 2.874686 1_545
Ba4 O12 2.874686 1_655
Ba4 O2 2.909534 1_645
Ba4 O12 2.916056 1_645
Ba4 O6 2.916056 1_645
Ba5 O5 2.831950 1_555
Ba5 O14 2.831950 1_655
Ba5 O3 2.844289 1_555
Ba5 O14 2.850406 1_555
Ba5 O5 2.850406 1_565
Ba5 O3 2.871279 1_455
Ba5 O3 2.871279 1_565
Ba5 O13 2.874686 1_555
Ba5 O7 2.874686 1_555
Ba5 O3 2.909534 1_465
Ba5 O13 2.916056 1_455
Ba5 O7 2.916056 1_565
Ba6 O6 2.759838 1_545
Ba6 O12 2.759838 1_655
Ba6 O0 2.808963 1_645
Ba6 O12 2.814978 1_645
Ba6 O6 2.814978 1_645
Ba6 O16 2.820748 1_555
Ba6 O16 2.872395 1_655
Ba6 O16 2.872395 1_545
Ba6 O16 2.934547 1_645
Ba7 O13 2.759838 1_555
Ba7 O7 2.759838 1_555
Ba7 O1 2.808963 1_555
Ba7 O7 2.814978 1_565
Ba7 O13 2.814978 1_455
Ba7 O17 2.820748 1_555
Ba7 O17 2.872395 1_565
Ba7 O17 2.872395 1_455
Ba7 O17 2.934547 1_465
O0 Ti4 1.962852 1_465
O1 Ti5 1.962852 1_555
O2 Ti0 2.005827 1_556
O2 Ti2 2.062159 1_555
O3 Ti1 2.005827 1_655
O3 Ti3 2.062159 1_645
O4 Ti0 2.032177 1_545
O4 Ti0 2.032177 1_555
O5 Ti1 2.032177 1_655
O5 Ti1 2.032177 1_555
O6 Ti2 1.899981 1_555
O6 Ti2 2.169411 1_565
O7 Ti3 1.899981 1_545
O7 Ti3 2.169411 1_645
O8 Ti5 1.899981 1_555
O8 Ti5 2.169411 1_545
O9 Ti4 1.899981 1_565
O9 Ti4 2.169411 1_465
O10 Ti5 1.899981 1_555
O10 Ti5 2.169411 1_655
O11 Ti4 1.899981 1_455
O11 Ti4 2.169411 1_465
O12 Ti2 1.899981 1_555
O12 Ti2 2.169411 1_455
O13 Ti3 1.899981 1_655
O13 Ti3 2.169411 1_645
O14 Ti1 2.032177 1_565
O14 Ti1 2.032177 1_555
O15 Ti0 2.032177 1_455
O15 Ti0 2.032177 1_555
O16 Ti2 1.962852 1_555
O17 Ti3 1.962852 1_645
O18 Ti0 2.005827 1_555
O18 Ti5 2.062159 1_555
O19 Ti1 2.005827 1_565
O19 Ti4 2.062159 1_465
