# generated using pymatgen
data_Nd8Sb14Rh17
_symmetry_space_group_name_H-M   'P 1'
_cell_length_a   13.94391838
_cell_length_b   13.94391838
_cell_length_c   13.94391838
_cell_angle_alpha   127.57147307
_cell_angle_beta   127.57147307
_cell_angle_gamma   77.32026033
_symmetry_Int_Tables_number   1
_chemical_formula_structural   Nd8Sb14Rh17
_chemical_formula_sum   'Nd16 Sb28 Rh34'
_cell_volume   1652.35302984
_cell_formula_units_Z   2
loop_
 _symmetry_equiv_pos_site_id
 _symmetry_equiv_pos_as_xyz
  1  'x, y, z'
loop_
 _atom_site_type_symbol
 _atom_site_label
 _atom_site_symmetry_multiplicity
 _atom_site_fract_x
 _atom_site_fract_y
 _atom_site_fract_z
 _atom_site_occupancy
  Nd  Nd0  1  0.91140000  0.41140000  0.96786100  1
  Nd  Nd1  1  0.44353900  0.94353900  0.03213900  1
  Nd  Nd2  1  0.41140000  0.44353900  0.50000000  1
  Nd  Nd3  1  0.94353900  0.91140000  0.50000000  1
  Nd  Nd4  1  0.16992500  0.16992500  0.00000000  1
  Nd  Nd5  1  0.66992500  0.66992500  0.00000000  1
  Nd  Nd6  1  0.17185400  0.67185400  0.50000000  1
  Nd  Nd7  1  0.67185400  0.17185400  0.50000000  1
  Nd  Nd8  1  0.67566900  0.43768000  0.25789600  1
  Nd  Nd9  1  0.17978400  0.41777300  0.74210400  1
  Nd  Nd10  1  0.43768000  0.17978400  0.76201100  1
  Nd  Nd11  1  0.67978400  0.93768000  0.76201100  1
  Nd  Nd12  1  0.41777300  0.67566900  0.23798900  1
  Nd  Nd13  1  0.17566900  0.91777300  0.23798900  1
  Nd  Nd14  1  0.91777300  0.67978400  0.74210400  1
  Nd  Nd15  1  0.93768000  0.17566900  0.25789600  1
  Sb  Sb0  1  0.22238700  0.48238600  0.23717100  1
  Sb  Sb1  1  0.24521400  0.98521500  0.76282900  1
  Sb  Sb2  1  0.48238600  0.24521400  0.25999900  1
  Sb  Sb3  1  0.74521400  0.98238600  0.25999900  1
  Sb  Sb4  1  0.98521500  0.22238700  0.74000100  1
  Sb  Sb5  1  0.72238700  0.48521500  0.74000100  1
  Sb  Sb6  1  0.48521500  0.74521400  0.76282900  1
  Sb  Sb7  1  0.98238600  0.72238700  0.23717100  1
  Sb  Sb8  1  0.17199900  0.21505100  0.27312600  1
  Sb  Sb9  1  0.94192500  0.89887300  0.72687400  1
  Sb  Sb10  1  0.21505100  0.94192500  0.04305200  1
  Sb  Sb11  1  0.44192500  0.71505100  0.04305200  1
  Sb  Sb12  1  0.89887300  0.17199900  0.95694800  1
  Sb  Sb13  1  0.67199900  0.39887300  0.95694800  1
  Sb  Sb14  1  0.39887300  0.44192500  0.72687400  1
  Sb  Sb15  1  0.71505100  0.67199900  0.27312600  1
  Sb  Sb16  1  0.37719700  0.37719700  0.00000000  1
  Sb  Sb17  1  0.87719700  0.87719700  0.00000000  1
  Sb  Sb18  1  0.11851900  0.61851900  0.67629400  1
  Sb  Sb19  1  0.94222500  0.44222500  0.32370600  1
  Sb  Sb20  1  0.61851900  0.94222500  0.50000000  1
  Sb  Sb21  1  0.44222500  0.11851900  0.50000000  1
  Sb  Sb22  1  0.37550300  0.87550300  0.50000000  1
  Sb  Sb23  1  0.87550300  0.37550300  0.50000000  1
  Sb  Sb24  1  0.10849300  0.60849300  0.98369000  1
  Sb  Sb25  1  0.62480400  0.12480400  0.01631000  1
  Sb  Sb26  1  0.60849300  0.62480400  0.50000000  1
  Sb  Sb27  1  0.12480400  0.10849300  0.50000000  1
  Rh  Rh0  1  0.38280000  0.16081100  0.30940300  1
  Rh  Rh1  1  0.85140800  0.07339600  0.69059700  1
  Rh  Rh2  1  0.16081100  0.85140800  0.77801100  1
  Rh  Rh3  1  0.35140800  0.66081100  0.77801100  1
  Rh  Rh4  1  0.07339600  0.38280000  0.22198900  1
  Rh  Rh5  1  0.88280000  0.57339600  0.22198900  1
  Rh  Rh6  1  0.57339600  0.35140800  0.69059700  1
  Rh  Rh7  1  0.66081100  0.88280000  0.30940300  1
  Rh  Rh8  1  0.91538900  0.41538900  0.73721400  1
  Rh  Rh9  1  0.67817400  0.17817400  0.26278600  1
  Rh  Rh10  1  0.41538900  0.67817400  0.50000000  1
  Rh  Rh11  1  0.17817400  0.91538900  0.50000000  1
  Rh  Rh12  1  0.66779000  0.16779000  0.74870700  1
  Rh  Rh13  1  0.41908300  0.91908300  0.25129300  1
  Rh  Rh14  1  0.16779000  0.41908300  0.50000000  1
  Rh  Rh15  1  0.91908300  0.66779000  0.50000000  1
  Rh  Rh16  1  0.21162200  0.71162200  0.95670500  1
  Rh  Rh17  1  0.75491700  0.25491700  0.04329500  1
  Rh  Rh18  1  0.71162200  0.75491700  0.50000000  1
  Rh  Rh19  1  0.25491700  0.21162200  0.50000000  1
  Rh  Rh20  1  0.41948400  0.43020700  0.24551500  1
  Rh  Rh21  1  0.18469200  0.17396900  0.75448500  1
  Rh  Rh22  1  0.43020700  0.18469200  0.01072300  1
  Rh  Rh23  1  0.68469200  0.93020700  0.01072300  1
  Rh  Rh24  1  0.17396900  0.41948400  0.98927700  1
  Rh  Rh25  1  0.91948400  0.67396900  0.98927700  1
  Rh  Rh26  1  0.67396900  0.68469200  0.75448500  1
  Rh  Rh27  1  0.93020700  0.91948400  0.24551500  1
  Rh  Rh28  1  0.43239400  0.93239400  0.75233700  1
  Rh  Rh29  1  0.18005700  0.68005700  0.24766300  1
  Rh  Rh30  1  0.93239400  0.18005700  0.50000000  1
  Rh  Rh31  1  0.68005700  0.43239400  0.50000000  1
  Rh  Rh32  1  0.00369400  0.00369400  0.00000000  1
  Rh  Rh33  1  0.50369400  0.50369400  0.00000000  1
loop_
_geom_bond_atom_site_label_1
_geom_bond_atom_site_label_2
_geom_bond_distance
_geom_bond_site_symmetry_2
Nd0 Rh4 3.063447 1_656
Nd0 Rh5 3.063447 1_556
Nd0 Sb5 3.268922 1_555
Nd0 Sb4 3.268922 1_555
Nd0 Rh8 3.284403 1_555
Nd0 Sb13 3.286527 1_555
Nd0 Sb12 3.286527 1_555
Nd0 Sb0 3.373219 1_656
Nd0 Sb7 3.373219 1_556
Nd0 Rh12 3.487635 1_555
Nd0 Rh24 3.509042 1_655
Nd0 Rh25 3.509042 1_555
Nd0 Rh1 3.664122 1_555
Nd0 Rh6 3.664122 1_555
Nd0 Rh29 3.715115 1_656
Nd1 Rh2 3.063447 1_554
Nd1 Rh3 3.063447 1_554
Nd1 Sb3 3.268922 1_555
Nd1 Sb2 3.268922 1_565
Nd1 Rh9 3.284385 1_565
Nd1 Sb10 3.286527 1_555
Nd1 Sb11 3.286527 1_555
Nd1 Sb6 3.373211 1_554
Nd1 Sb1 3.373211 1_554
Nd1 Rh13 3.487635 1_555
Nd1 Rh23 3.509042 1_555
Nd1 Rh22 3.509042 1_565
Nd1 Rh0 3.664113 1_565
Nd1 Rh7 3.664113 1_555
Nd1 Rh28 3.715115 1_554
Nd2 Rh6 3.063446 1_555
Nd2 Rh0 3.063447 1_555
Nd2 Sb6 3.268924 1_555
Nd2 Sb0 3.268932 1_555
Nd2 Rh10 3.284389 1_555
Nd2 Sb14 3.286527 1_555
Nd2 Sb8 3.286527 1_555
Nd2 Sb2 3.373221 1_555
Nd2 Sb5 3.373221 1_555
Nd2 Rh14 3.487635 1_555
Nd2 Rh26 3.509042 1_555
Nd2 Rh20 3.509042 1_555
Nd2 Rh3 3.664113 1_555
Nd2 Rh4 3.664122 1_555
Nd2 Rh31 3.715115 1_555
Nd3 Rh1 3.063446 1_565
Nd3 Rh7 3.063447 1_555
Nd3 Sb1 3.268924 1_655
Nd3 Sb7 3.268932 1_555
Nd3 Rh11 3.284389 1_655
Nd3 Sb15 3.286527 1_555
Nd3 Sb9 3.286527 1_555
Nd3 Sb4 3.373221 1_565
Nd3 Sb3 3.373221 1_555
Nd3 Rh15 3.487635 1_555
Nd3 Rh21 3.509042 1_665
Nd3 Rh27 3.509042 1_555
Nd3 Rh2 3.664113 1_655
Nd3 Rh5 3.664122 1_555
Nd3 Rh30 3.715115 1_565
Nd4 Sb1 3.366334 1_544
Nd4 Sb0 3.366343 1_555
Nd4 Sb2 3.366344 1_555
Nd4 Sb4 3.366344 1_454
Nd4 Sb10 3.442716 1_545
Nd4 Sb12 3.442716 1_454
Nd4 Sb8 3.442716 1_555
Nd4 Sb9 3.442716 1_444
Nd4 Rh1 3.510843 1_454
Nd4 Rh2 3.510844 1_544
Nd4 Rh0 3.510844 1_555
Nd4 Rh4 3.510854 1_555
Nd4 Rh24 3.586878 1_554
Nd4 Rh21 3.586878 1_554
Nd4 Rh20 3.586878 1_555
Nd4 Rh22 3.586878 1_555
Nd4 Rh32 3.619953 1_555
Nd5 Sb6 3.366334 1_554
Nd5 Sb7 3.366343 1_555
Nd5 Sb5 3.366344 1_554
Nd5 Sb3 3.366344 1_555
Nd5 Sb13 3.442716 1_554
Nd5 Sb15 3.442716 1_555
Nd5 Sb14 3.442716 1_554
Nd5 Sb11 3.442716 1_555
Nd5 Rh6 3.510843 1_554
Nd5 Rh3 3.510844 1_554
Nd5 Rh7 3.510844 1_555
Nd5 Rh5 3.510854 1_555
Nd5 Rh26 3.586878 1_554
Nd5 Rh25 3.586878 1_554
Nd5 Rh23 3.586878 1_555
Nd5 Rh27 3.586878 1_555
Nd5 Rh33 3.619953 1_555
Nd6 Rh5 3.168988 1_455
Nd6 Rh4 3.168988 1_555
Nd6 Rh2 3.168988 1_555
Nd6 Rh3 3.168988 1_555
Nd6 Sb1 3.381100 1_555
Nd6 Sb6 3.381100 1_555
Nd6 Sb7 3.381109 1_455
Nd6 Sb0 3.381109 1_555
Nd6 Rh11 3.416258 1_555
Nd6 Rh10 3.416258 1_555
Nd6 Sb19 3.442501 1_455
Nd6 Sb18 3.442501 1_555
Nd6 Rh15 3.537489 1_455
Nd6 Rh14 3.537489 1_555
Nd6 Rh29 3.659757 1_555
Nd6 Rh28 3.659757 1_555
Nd7 Rh7 3.168988 1_545
Nd7 Rh0 3.168988 1_555
Nd7 Rh1 3.168999 1_555
Nd7 Rh6 3.168999 1_555
Nd7 Sb3 3.381099 1_545
Nd7 Sb4 3.381099 1_555
Nd7 Sb5 3.381099 1_555
Nd7 Sb2 3.381099 1_555
Nd7 Rh9 3.416244 1_555
Nd7 Rh8 3.416261 1_555
Nd7 Sb20 3.442501 1_545
Nd7 Sb21 3.442501 1_555
Nd7 Rh12 3.537489 1_555
Nd7 Rh13 3.537489 1_545
Nd7 Rh30 3.659757 1_555
Nd7 Rh31 3.659757 1_555
Nd8 Rh17 3.188474 1_555
Nd8 Sb19 3.245617 1_555
Nd8 Sb16 3.248849 1_555
Nd8 Rh15 3.287886 1_555
Nd8 Sb15 3.289581 1_555
Nd8 Sb23 3.309048 1_555
Nd8 Sb26 3.335186 1_555
Nd8 Sb25 3.377353 1_555
Nd8 Rh31 3.384568 1_555
Nd8 Rh18 3.451659 1_555
Nd8 Rh33 3.475772 1_555
Nd8 Rh22 3.482183 1_555
Nd8 Rh20 3.491538 1_555
Nd8 Rh9 3.652688 1_555
Nd8 Sb13 3.858268 1_554
Nd9 Rh16 3.188474 1_555
Nd9 Sb18 3.245617 1_555
Nd9 Sb16 3.248849 1_556
Nd9 Rh14 3.287886 1_555
Nd9 Sb14 3.289581 1_555
Nd9 Sb23 3.309048 1_455
Nd9 Sb27 3.335186 1_555
Nd9 Sb24 3.377362 1_555
Nd9 Rh30 3.384568 1_455
Nd9 Rh19 3.451659 1_555
Nd9 Rh33 3.475772 1_556
Nd9 Rh24 3.482183 1_555
Nd9 Rh21 3.491538 1_555
Nd9 Rh8 3.652671 1_455
Nd9 Sb11 3.858268 1_556
Nd10 Rh19 3.188474 1_555
Nd10 Sb21 3.245617 1_555
Nd10 Sb16 3.248849 1_556
Nd10 Rh12 3.287886 1_555
Nd10 Sb13 3.289581 1_555
Nd10 Sb22 3.309048 1_545
Nd10 Sb25 3.335176 1_556
Nd10 Sb27 3.377352 1_555
Nd10 Rh28 3.384568 1_545
Nd10 Rh17 3.451659 1_556
Nd10 Rh33 3.475772 1_556
Nd10 Rh21 3.482183 1_555
Nd10 Rh22 3.491538 1_556
Nd10 Rh11 3.652680 1_545
Nd10 Sb14 3.858268 1_555
Nd11 Rh18 3.188474 1_555
Nd11 Sb20 3.245617 1_555
Nd11 Sb17 3.248849 1_556
Nd11 Rh12 3.287886 1_565
Nd11 Sb12 3.289581 1_565
Nd11 Sb22 3.309048 1_555
Nd11 Sb25 3.335176 1_566
Nd11 Sb26 3.377352 1_555
Nd11 Rh28 3.384568 1_555
Nd11 Rh17 3.451659 1_566
Nd11 Rh32 3.475772 1_666
Nd11 Rh26 3.482183 1_555
Nd11 Rh23 3.491538 1_556
Nd11 Rh10 3.652680 1_555
Nd11 Sb9 3.858268 1_555
Nd12 Rh18 3.188474 1_555
Nd12 Sb20 3.245617 1_555
Nd12 Sb16 3.248849 1_555
Nd12 Rh13 3.287886 1_555
Nd12 Sb11 3.289581 1_555
Nd12 Sb22 3.309048 1_555
Nd12 Sb24 3.335185 1_554
Nd12 Sb26 3.377352 1_555
Nd12 Rh29 3.384568 1_555
Nd12 Rh16 3.451659 1_554
Nd12 Rh33 3.475772 1_555
Nd12 Rh20 3.482183 1_555
Nd12 Rh24 3.491538 1_554
Nd12 Rh10 3.652680 1_555
Nd12 Sb15 3.858268 1_555
Nd13 Rh19 3.188474 1_565
Nd13 Sb21 3.245617 1_565
Nd13 Sb17 3.248849 1_455
Nd13 Rh13 3.287886 1_555
Nd13 Sb10 3.289581 1_555
Nd13 Sb22 3.309048 1_555
Nd13 Sb24 3.335185 1_554
Nd13 Sb27 3.377352 1_565
Nd13 Rh29 3.384568 1_555
Nd13 Rh16 3.451659 1_554
Nd13 Rh32 3.475772 1_565
Nd13 Rh27 3.482183 1_455
Nd13 Rh25 3.491538 1_454
Nd13 Rh11 3.652680 1_555
Nd13 Sb8 3.858268 1_565
Nd14 Rh16 3.188474 1_655
Nd14 Sb18 3.245617 1_655
Nd14 Sb17 3.248849 1_556
Nd14 Rh15 3.287886 1_555
Nd14 Sb9 3.289581 1_555
Nd14 Sb23 3.309048 1_555
Nd14 Sb26 3.335186 1_555
Nd14 Sb24 3.377362 1_655
Nd14 Rh31 3.384568 1_555
Nd14 Rh18 3.451659 1_555
Nd14 Rh32 3.475772 1_666
Nd14 Rh25 3.482183 1_555
Nd14 Rh26 3.491538 1_555
Nd14 Rh8 3.652671 1_555
Nd14 Sb10 3.858268 1_656
Nd15 Rh17 3.188474 1_555
Nd15 Sb19 3.245617 1_555
Nd15 Sb17 3.248849 1_545
Nd15 Rh14 3.287886 1_655
Nd15 Sb8 3.289581 1_655
Nd15 Sb23 3.309048 1_555
Nd15 Sb27 3.335186 1_655
Nd15 Sb25 3.377353 1_555
Nd15 Rh30 3.384568 1_555
Nd15 Rh19 3.451659 1_655
Nd15 Rh32 3.475772 1_655
Nd15 Rh23 3.482183 1_545
Nd15 Rh27 3.491538 1_545
Nd15 Rh9 3.652688 1_555
Nd15 Sb12 3.858268 1_554
Rh0 Sb2 2.580830 1_555
Rh0 Sb21 2.666228 1_555
Rh0 Sb8 2.673065 1_555
Rh0 Sb10 2.701233 1_545
Rh0 Rh13 2.948617 1_545
Rh1 Sb4 2.580841 1_555
Rh1 Sb20 2.666223 1_545
Rh1 Sb9 2.673053 1_545
Rh1 Sb12 2.701229 1_555
Rh1 Rh12 2.948618 1_555
Rh2 Sb1 2.580819 1_555
Rh2 Sb18 2.666228 1_555
Rh2 Sb10 2.673065 1_556
Rh2 Sb9 2.701233 1_455
Rh3 Sb6 2.580819 1_555
Rh3 Sb18 2.666228 1_555
Rh3 Sb11 2.673065 1_556
Rh3 Sb14 2.701233 1_555
Rh4 Sb0 2.580852 1_555
Rh4 Sb19 2.666215 1_455
Rh4 Sb12 2.673061 1_454
Rh4 Sb8 2.701236 1_555
Rh5 Sb7 2.580852 1_555
Rh5 Sb19 2.666215 1_555
Rh5 Sb13 2.673061 1_554
Rh5 Sb15 2.701236 1_555
Rh6 Sb5 2.580841 1_555
Rh6 Sb21 2.666223 1_555
Rh6 Sb14 2.673053 1_555
Rh6 Sb13 2.701229 1_555
Rh7 Sb3 2.580830 1_555
Rh7 Sb20 2.666228 1_555
Rh7 Sb15 2.673065 1_555
Rh7 Sb11 2.701233 1_555
Rh8 Sb24 2.631421 1_655
Rh8 Sb5 2.668926 1_555
Rh8 Sb4 2.668926 1_555
Rh8 Sb23 2.684847 1_555
Rh9 Sb25 2.631447 1_555
Rh9 Sb2 2.668915 1_555
Rh9 Sb3 2.668915 1_545
Rh9 Sb23 2.684861 1_555
Rh10 Sb26 2.631420 1_555
Rh10 Sb0 2.668922 1_555
Rh10 Sb6 2.668934 1_555
Rh10 Sb22 2.684861 1_555
Rh11 Sb27 2.631420 1_565
Rh11 Sb7 2.668922 1_455
Rh11 Sb1 2.668934 1_555
Rh11 Sb22 2.684861 1_555
Rh12 Sb20 2.670689 1_545
Rh12 Sb21 2.670689 1_555
Rh12 Sb12 2.698641 1_555
Rh12 Sb13 2.698641 1_555
Rh12 Rh17 2.881234 1_556
Rh12 Rh6 2.948618 1_555
Rh13 Sb20 2.670689 1_555
Rh13 Sb21 2.670689 1_565
Rh13 Sb11 2.698641 1_555
Rh13 Sb10 2.698641 1_555
Rh13 Rh16 2.881234 1_554
Rh13 Rh7 2.948617 1_555
Rh14 Sb18 2.670689 1_555
Rh14 Sb19 2.670689 1_455
Rh14 Sb8 2.698641 1_555
Rh14 Sb14 2.698641 1_555
Rh14 Rh19 2.881234 1_555
Rh14 Rh4 2.948613 1_555
Rh14 Rh3 2.948617 1_555
Rh15 Sb19 2.670689 1_555
Rh15 Sb18 2.670689 1_655
Rh15 Sb9 2.698641 1_555
Rh15 Sb15 2.698641 1_555
Rh15 Rh18 2.881234 1_555
Rh15 Rh5 2.948613 1_555
Rh15 Rh2 2.948617 1_655
Rh16 Sb24 2.550480 1_555
Rh16 Sb18 2.649224 1_555
Rh16 Sb11 2.654538 1_556
Rh16 Sb10 2.654538 1_556
Rh17 Sb25 2.550458 1_555
Rh17 Sb19 2.649224 1_555
Rh17 Sb12 2.654538 1_554
Rh17 Sb13 2.654538 1_554
Rh18 Sb26 2.550468 1_555
Rh18 Sb20 2.649224 1_555
Rh18 Sb9 2.654538 1_555
Rh18 Sb15 2.654538 1_555
Rh19 Sb27 2.550468 1_555
Rh19 Sb21 2.649224 1_555
Rh19 Sb14 2.654538 1_555
Rh19 Sb8 2.654538 1_555
Rh20 Sb2 2.624902 1_555
Rh20 Sb26 2.625446 1_555
Rh20 Sb0 2.632782 1_555
Rh20 Sb16 2.694009 1_555
Rh21 Sb4 2.624902 1_455
Rh21 Sb27 2.625446 1_555
Rh21 Sb1 2.632794 1_545
Rh21 Sb16 2.694009 1_556
Rh22 Sb1 2.624901 1_544
Rh22 Sb25 2.625452 1_555
Rh22 Sb2 2.632787 1_555
Rh22 Sb16 2.694009 1_555
Rh23 Sb6 2.624901 1_554
Rh23 Sb25 2.625452 1_565
Rh23 Sb3 2.632787 1_555
Rh23 Sb17 2.694009 1_555
Rh24 Sb0 2.624889 1_556
Rh24 Sb24 2.625440 1_555
Rh24 Sb4 2.632787 1_455
Rh24 Sb16 2.694009 1_556
Rh25 Sb7 2.624889 1_556
Rh25 Sb24 2.625440 1_655
Rh25 Sb5 2.632787 1_555
Rh25 Sb17 2.694009 1_556
Rh26 Sb5 2.624902 1_555
Rh26 Sb26 2.625446 1_555
Rh26 Sb6 2.632794 1_555
Rh26 Sb17 2.694009 1_556
Rh27 Sb3 2.624902 1_555
Rh27 Sb27 2.625446 1_665
Rh27 Sb7 2.632782 1_555
Rh27 Sb17 2.694009 1_555
Rh28 Sb1 2.620388 1_555
Rh28 Sb6 2.620388 1_555
Rh28 Sb25 2.649273 1_566
Rh28 Sb22 2.665967 1_555
Rh29 Sb7 2.620375 1_455
Rh29 Sb0 2.620375 1_555
Rh29 Sb24 2.649262 1_554
Rh29 Sb22 2.665967 1_555
Rh30 Sb4 2.620381 1_555
Rh30 Sb3 2.620381 1_545
Rh30 Sb27 2.649275 1_655
Rh30 Sb23 2.665967 1_555
Rh31 Sb2 2.620381 1_555
Rh31 Sb5 2.620381 1_555
Rh31 Sb26 2.649275 1_555
Rh31 Sb23 2.665967 1_555
Rh32 Sb12 2.673296 1_454
Rh32 Sb9 2.673296 1_444
Rh32 Sb8 2.673296 1_555
Rh32 Sb10 2.673296 1_545
Rh32 Sb17 2.754680 1_445
Rh33 Sb14 2.673296 1_554
Rh33 Sb15 2.673296 1_555
Rh33 Sb11 2.673296 1_555
Rh33 Sb13 2.673296 1_554
Rh33 Sb16 2.754680 1_555
