# generated using pymatgen
data_Li7Mn4CoO12
_symmetry_space_group_name_H-M   'P 1'
_cell_length_a   7.91949066
_cell_length_b   7.92606144
_cell_length_c   8.71694555
_cell_angle_alpha   108.68627626
_cell_angle_beta   102.20880965
_cell_angle_gamma   114.39913727
_symmetry_Int_Tables_number   1
_chemical_formula_structural   Li7Mn4CoO12
_chemical_formula_sum   'Li14 Mn8 Co2 O24'
_cell_volume   432.92209025
_cell_formula_units_Z   2
loop_
 _symmetry_equiv_pos_site_id
 _symmetry_equiv_pos_as_xyz
  1  'x, y, z'
loop_
 _atom_site_type_symbol
 _atom_site_label
 _atom_site_symmetry_multiplicity
 _atom_site_fract_x
 _atom_site_fract_y
 _atom_site_fract_z
 _atom_site_occupancy
  Li  Li0  1  0.58390300  0.83374100  0.75102700  1
  Li  Li1  1  0.08276300  0.83292400  0.24896800  1
  Li  Li2  1  0.21003700  0.07010000  0.61528000  1
  Li  Li3  1  0.70603600  0.07372100  0.11441000  1
  Li  Li4  1  0.96062500  0.59294300  0.88558200  1
  Li  Li5  1  0.45662700  0.59656300  0.38471600  1
  Li  Li6  1  0.11599700  0.25245800  0.37401400  1
  Li  Li7  1  0.61765300  0.25031200  0.87536600  1
  Li  Li8  1  0.29257300  0.92574300  0.87529000  1
  Li  Li9  1  0.78924400  0.92574400  0.37392300  1
  Li  Li10  1  0.55066400  0.41421200  0.62598500  1
  Li  Li11  1  0.04902000  0.41635500  0.12463100  1
  Li  Li12  1  0.37408900  0.74091600  0.12470900  1
  Li  Li13  1  0.87741400  0.74092200  0.62607400  1
  Mn  Mn0  1  0.00047500  0.00038600  0.99975400  1
  Mn  Mn1  1  0.50047700  0.00038800  0.50001000  1
  Mn  Mn2  1  0.16618500  0.66628200  0.49998400  1
  Mn  Mn3  1  0.66619100  0.66627800  0.00024500  1
  Mn  Mn4  1  0.91086000  0.16645100  0.74980700  1
  Mn  Mn5  1  0.41681400  0.16111100  0.25041200  1
  Mn  Mn6  1  0.24984500  0.50557700  0.74958300  1
  Mn  Mn7  1  0.75578800  0.50022100  0.25019500  1
  Co  Co0  1  0.33333300  0.33333100  0.99999900  1
  Co  Co1  1  0.83333600  0.33333100  0.50000000  1
  O  O0  1  0.38545400  0.94830300  0.66763000  1
  O  O1  1  0.88543900  0.94772500  0.16656500  1
  O  O2  1  0.78122600  0.71894300  0.83343400  1
  O  O3  1  0.28121900  0.71836200  0.33237500  1
  O  O4  1  0.13750800  0.45024000  0.92159600  1
  O  O5  1  0.65761600  0.43894200  0.43017700  1
  O  O6  1  0.00905400  0.22772300  0.56982800  1
  O  O7  1  0.52916700  0.21642300  0.07840300  1
  O  O8  1  0.05320900  0.61717300  0.66844200  1
  O  O9  1  0.55239400  0.61225500  0.16922600  1
  O  O10  1  0.71706100  0.28121300  0.66843800  1
  O  O11  1  0.22348400  0.28306000  0.16810900  1
  O  O12  1  0.44318900  0.38360500  0.83189800  1
  O  O13  1  0.94960900  0.38545500  0.33156500  1
  O  O14  1  0.11428300  0.05440800  0.83078100  1
  O  O15  1  0.61345600  0.04949500  0.33155900  1
  O  O16  1  0.33392700  0.11560800  0.43474900  1
  O  O17  1  0.83629000  0.11660000  0.93672700  1
  O  O18  1  0.48624300  0.76649100  0.93661500  1
  O  O19  1  0.98552900  0.76692300  0.43471800  1
  O  O20  1  0.33274400  0.55106000  0.56524800  1
  O  O21  1  0.83037800  0.55006500  0.06327900  1
  O  O22  1  0.18042900  0.90018100  0.06339100  1
  O  O23  1  0.68114000  0.89973900  0.56528100  1
loop_
_geom_bond_atom_site_label_1
_geom_bond_atom_site_label_2
_geom_bond_distance
_geom_bond_site_symmetry_2
Li0 O23 2.055606 1_555
Li0 O20 2.056608 1_555
Li0 O18 2.059269 1_555
Li0 O17 2.060492 1_565
Li0 O2 2.214660 1_555
Li0 O0 2.223001 1_555
Li1 O19 2.055637 1_455
Li1 O16 2.056636 1_565
Li1 O22 2.059218 1_555
Li1 O21 2.060464 1_455
Li1 O1 2.214675 1_455
Li1 O3 2.223072 1_555
Li2 O0 2.047497 1_545
Li2 O19 2.067840 1_445
Li2 O16 2.072098 1_555
Li2 O14 2.189432 1_555
Li2 O12 2.208520 1_555
Li2 O6 2.438155 1_555
Li3 O18 2.073750 1_544
Li3 O17 2.074113 1_554
Li3 O1 2.100614 1_545
Li3 O7 2.165702 1_555
Li3 O15 2.204763 1_555
Li3 O13 2.220375 1_555
Li4 O22 2.073828 1_656
Li4 O21 2.074189 1_556
Li4 O2 2.100600 1_555
Li4 O4 2.165812 1_655
Li4 O8 2.204710 1_655
Li4 O10 2.220313 1_555
Li5 O3 2.047433 1_555
Li5 O23 2.067850 1_555
Li5 O20 2.072066 1_555
Li5 O9 2.189393 1_555
Li5 O11 2.208467 1_555
Li5 O5 2.438196 1_555
Li6 O13 2.043481 1_455
Li6 O20 2.057191 1_555
Li6 O6 2.087563 1_555
Li6 O1 2.144523 1_445
Li6 O11 2.181643 1_555
Li6 O16 2.442067 1_555
Li7 O21 2.048971 1_556
Li7 O7 2.090289 1_556
Li7 O12 2.099956 1_555
Li7 O0 2.137287 1_545
Li7 O10 2.158189 1_555
Li7 O17 2.427957 1_555
Li8 O22 2.049008 1_556
Li8 O7 2.090501 1_566
Li8 O14 2.096583 1_565
Li8 O0 2.124056 1_555
Li8 O8 2.173585 1_555
Li8 O18 2.432389 1_555
Li9 O15 2.044346 1_565
Li9 O23 2.058246 1_555
Li9 O6 2.087264 1_665
Li9 O1 2.133638 1_555
Li9 O9 2.183810 1_555
Li9 O19 2.444915 1_555
Li10 O10 2.043560 1_555
Li10 O16 2.057189 1_555
Li10 O5 2.087545 1_555
Li10 O2 2.144522 1_555
Li10 O12 2.181667 1_555
Li10 O20 2.441991 1_555
Li11 O17 2.048967 1_454
Li11 O4 2.090271 1_554
Li11 O11 2.099986 1_555
Li11 O3 2.137300 1_555
Li11 O13 2.158249 1_455
Li11 O21 2.427961 1_455
Li12 O18 2.049014 1_554
Li12 O4 2.090460 1_554
Li12 O9 2.096670 1_555
Li12 O3 2.124053 1_555
Li12 O15 2.173631 1_565
Li12 O22 2.432398 1_555
Li13 O8 2.044386 1_655
Li13 O19 2.058271 1_555
Li13 O5 2.087232 1_555
Li13 O2 2.133623 1_555
Li13 O14 2.183854 1_665
Li13 O23 2.444814 1_555
Mn0 O1 1.937413 1_446
Mn0 O2 1.938007 1_445
Mn0 O14 1.952427 1_555
Mn0 O11 1.954580 1_556
Mn0 O17 1.962812 1_455
Mn0 O22 1.962816 1_546
Mn1 O10 1.933547 1_555
Mn1 O15 1.934518 1_555
Mn1 O0 1.942649 1_545
Mn1 O3 1.942727 1_545
Mn1 O23 1.974013 1_545
Mn1 O16 1.976888 1_555
Mn2 O13 1.933524 1_455
Mn2 O8 1.934565 1_555
Mn2 O3 1.942598 1_555
Mn2 O0 1.942747 1_555
Mn2 O19 1.973905 1_455
Mn2 O20 1.976966 1_555
Mn3 O2 1.937417 1_554
Mn3 O1 1.938022 1_555
Mn3 O9 1.952448 1_555
Mn3 O12 1.954547 1_554
Mn3 O18 1.962811 1_554
Mn3 O21 1.962835 1_555
Mn4 O23 1.942161 1_545
Mn4 O17 1.945881 1_555
Mn4 O4 1.973050 1_655
Mn4 O6 1.998533 1_655
Mn4 O10 2.189165 1_555
Mn4 O14 2.232692 1_655
Mn5 O16 1.940314 1_555
Mn5 O22 1.946685 1_545
Mn5 O7 1.973647 1_555
Mn5 O5 1.999242 1_555
Mn5 O15 2.186666 1_555
Mn5 O11 2.235082 1_555
Mn6 O20 1.940290 1_555
Mn6 O18 1.946698 1_555
Mn6 O4 1.973669 1_555
Mn6 O6 1.999276 1_555
Mn6 O8 2.186485 1_555
Mn6 O12 2.235352 1_555
Mn7 O19 1.942170 1_555
Mn7 O21 1.945891 1_555
Mn7 O7 1.973033 1_555
Mn7 O5 1.998497 1_555
Mn7 O13 2.189334 1_555
Mn7 O9 2.232435 1_555
Co0 O12 1.920884 1_555
Co0 O11 1.920921 1_556
Co0 O14 1.931918 1_555
Co0 O9 1.931961 1_556
Co0 O4 2.208072 1_555
Co0 O7 2.208126 1_556
Co1 O15 1.953134 1_555
Co1 O8 1.953147 1_655
Co1 O13 1.954617 1_555
Co1 O10 1.954637 1_555
Co1 O6 1.984514 1_655
Co1 O5 1.984533 1_555
