# generated using pymatgen
data_Sc3(CuGe)4
_symmetry_space_group_name_H-M   'P 1'
_cell_length_a   4.04111300
_cell_length_b   6.53661300
_cell_length_c   7.71836659
_cell_angle_alpha   115.05229511
_cell_angle_beta   105.17603029
_cell_angle_gamma   90.00000000
_symmetry_Int_Tables_number   1
_chemical_formula_structural   Sc3(CuGe)4
_chemical_formula_sum   'Sc3 Cu4 Ge4'
_cell_volume   176.82147106
_cell_formula_units_Z   1
loop_
 _symmetry_equiv_pos_site_id
 _symmetry_equiv_pos_as_xyz
  1  'x, y, z'
loop_
 _atom_site_type_symbol
 _atom_site_label
 _atom_site_symmetry_multiplicity
 _atom_site_fract_x
 _atom_site_fract_y
 _atom_site_fract_z
 _atom_site_occupancy
  Sc  Sc0  1  0.00000000  0.50000000  0.00000000  1
  Sc  Sc1  1  0.87287400  0.87287400  0.74574800  1
  Sc  Sc2  1  0.12712600  0.12712600  0.25425200  1
  Cu  Cu0  1  0.67190200  0.47808300  0.34380400  1
  Cu  Cu1  1  0.67190200  0.86572100  0.34380400  1
  Cu  Cu2  1  0.32809800  0.13427900  0.65619600  1
  Cu  Cu3  1  0.32809800  0.52191700  0.65619600  1
  Ge  Ge0  1  0.78406700  0.28406700  0.56813400  1
  Ge  Ge1  1  0.21593300  0.71593300  0.43186600  1
  Ge  Ge2  1  0.50000000  0.80662700  0.00000000  1
  Ge  Ge3  1  0.50000000  0.19337300  0.00000000  1
loop_
_geom_bond_atom_site_label_1
_geom_bond_atom_site_label_2
_geom_bond_distance
_geom_bond_site_symmetry_2
Cu0 Ge3 2.416646 1_555
Cu0 Ge1 2.456669 1_555
Cu0 Ge1 2.456669 1_655
Cu0 Ge0 2.502099 1_555
Cu0 Cu1 2.533840 1_555
Cu0 Sc2 2.906466 1_655
Cu0 Sc2 2.906466 1_555
Cu0 Sc1 2.973943 1_555
Cu1 Ge2 2.416645 1_555
Cu1 Ge1 2.456669 1_555
Cu1 Ge1 2.456669 1_655
Cu1 Ge0 2.502099 1_565
Cu1 Sc2 2.906466 1_665
Cu1 Sc2 2.906466 1_565
Cu1 Sc1 2.973943 1_555
Cu2 Ge3 2.416645 1_556
Cu2 Ge0 2.456669 1_555
Cu2 Ge0 2.456669 1_455
Cu2 Ge1 2.502099 1_545
Cu2 Cu3 2.533840 1_555
Cu2 Sc1 2.906466 1_445
Cu2 Sc1 2.906466 1_545
Cu2 Sc2 2.973943 1_555
Cu3 Ge2 2.416646 1_556
Cu3 Ge0 2.456669 1_555
Cu3 Ge0 2.456669 1_455
Cu3 Ge1 2.502099 1_555
Cu3 Sc1 2.906466 1_455
Cu3 Sc1 2.906466 1_555
Cu3 Sc2 2.973943 1_555
Ge0 Sc0 2.890881 1_656
Ge0 Sc2 2.915011 1_655
Ge0 Sc2 2.915011 1_555
Ge1 Sc0 2.890881 1_555
Ge1 Sc1 2.915011 1_455
Ge1 Sc1 2.915011 1_555
Ge2 Ge3 2.528009 1_565
Ge2 Sc0 2.846028 1_655
Ge2 Sc0 2.846028 1_555
Ge2 Sc1 2.928647 1_554
Ge2 Sc2 2.928647 1_565
Ge2 Sc1 2.928647 1_454
Ge2 Sc2 2.928647 1_665
Ge3 Sc0 2.846028 1_655
Ge3 Sc0 2.846028 1_555
Ge3 Sc2 2.928647 1_555
Ge3 Sc1 2.928647 1_544
Ge3 Sc2 2.928647 1_655
Ge3 Sc1 2.928647 1_444
