# generated using pymatgen
data_Yb
_symmetry_space_group_name_H-M   'P 1'
_cell_length_a   7.70574395
_cell_length_b   7.70574395
_cell_length_c   12.75409400
_cell_angle_alpha   90.00000000
_cell_angle_beta   90.00000000
_cell_angle_gamma   119.99999956
_symmetry_Int_Tables_number   1
_chemical_formula_structural   Yb
_chemical_formula_sum   Yb16
_cell_volume   655.85735759
_cell_formula_units_Z   16
loop_
 _symmetry_equiv_pos_site_id
 _symmetry_equiv_pos_as_xyz
  1  'x, y, z'
loop_
 _atom_site_type_symbol
 _atom_site_label
 _atom_site_symmetry_multiplicity
 _atom_site_fract_x
 _atom_site_fract_y
 _atom_site_fract_z
 _atom_site_occupancy
  Yb  Yb0_0  1  0.16666650  0.33333350  0.12500000  1
  Yb  Yb0_1  1  0.16666650  0.33333350  0.62500000  1
  Yb  Yb0_2  1  0.16666650  0.83333350  0.12500000  1
  Yb  Yb0_3  1  0.16666650  0.83333350  0.62500000  1
  Yb  Yb0_4  1  0.66666650  0.33333350  0.12500000  1
  Yb  Yb0_5  1  0.66666650  0.33333350  0.62500000  1
  Yb  Yb0_6  1  0.66666650  0.83333350  0.12500000  1
  Yb  Yb0_7  1  0.66666650  0.83333350  0.62500000  1
  Yb  Yb1_0  1  0.33333350  0.16666650  0.37500000  1
  Yb  Yb1_1  1  0.33333350  0.16666650  0.87500000  1
  Yb  Yb1_2  1  0.33333350  0.66666650  0.37500000  1
  Yb  Yb1_3  1  0.33333350  0.66666650  0.87500000  1
  Yb  Yb1_4  1  0.83333350  0.16666650  0.37500000  1
  Yb  Yb1_5  1  0.83333350  0.16666650  0.87500000  1
  Yb  Yb1_6  1  0.83333350  0.66666650  0.37500000  1
  Yb  Yb1_7  1  0.83333350  0.66666650  0.87500000  1
loop_
_geom_bond_atom_site_label_1
_geom_bond_atom_site_label_2
_geom_bond_distance
_geom_bond_site_symmetry_2
Yb0_0 Yb0_2 3.852872 1_545
Yb0_0 Yb0_4 3.852872 1_555
Yb0_0 Yb0_2 3.852872 1_555
Yb0_0 Yb0_4 3.852872 1_455
Yb0_0 Yb0_6 3.852872 1_555
Yb0_0 Yb0_6 3.852872 1_445
Yb0_0 Yb1_3 3.887786 1_554
Yb0_0 Yb1_5 3.887786 1_454
Yb0_0 Yb1_4 3.887786 1_455
Yb0_0 Yb1_2 3.887786 1_555
Yb0_0 Yb1_1 3.887790 1_554
Yb0_0 Yb1_0 3.887790 1_555
Yb0_1 Yb0_3 3.852872 1_545
Yb0_1 Yb0_5 3.852872 1_555
Yb0_1 Yb0_3 3.852872 1_555
Yb0_1 Yb0_5 3.852872 1_455
Yb0_1 Yb0_7 3.852872 1_555
Yb0_1 Yb0_7 3.852872 1_445
Yb0_1 Yb1_4 3.887786 1_455
Yb0_1 Yb1_2 3.887786 1_555
Yb0_1 Yb1_3 3.887786 1_555
Yb0_1 Yb1_5 3.887786 1_455
Yb0_1 Yb1_0 3.887790 1_555
Yb0_1 Yb1_1 3.887790 1_555
Yb0_2 Yb0_6 3.852872 1_455
Yb0_2 Yb0_6 3.852872 1_555
Yb0_2 Yb0_4 3.852872 1_565
Yb0_2 Yb0_4 3.852872 1_455
Yb0_2 Yb1_7 3.887786 1_454
Yb0_2 Yb1_1 3.887786 1_564
Yb0_2 Yb1_0 3.887786 1_565
Yb0_2 Yb1_6 3.887786 1_455
Yb0_2 Yb1_3 3.887790 1_554
Yb0_2 Yb1_2 3.887790 1_555
Yb0_3 Yb0_7 3.852872 1_455
Yb0_3 Yb0_7 3.852872 1_555
Yb0_3 Yb0_5 3.852872 1_565
Yb0_3 Yb0_5 3.852872 1_455
Yb0_3 Yb1_0 3.887786 1_565
Yb0_3 Yb1_6 3.887786 1_455
Yb0_3 Yb1_7 3.887786 1_455
Yb0_3 Yb1_1 3.887786 1_565
Yb0_3 Yb1_2 3.887790 1_555
Yb0_3 Yb1_3 3.887790 1_555
Yb0_4 Yb0_6 3.852872 1_545
Yb0_4 Yb0_6 3.852872 1_555
Yb0_4 Yb1_1 3.887786 1_554
Yb0_4 Yb1_7 3.887786 1_554
Yb0_4 Yb1_0 3.887786 1_555
Yb0_4 Yb1_6 3.887786 1_555
Yb0_4 Yb1_5 3.887790 1_554
Yb0_4 Yb1_4 3.887790 1_555
Yb0_5 Yb0_7 3.852872 1_545
Yb0_5 Yb0_7 3.852872 1_555
Yb0_5 Yb1_0 3.887786 1_555
Yb0_5 Yb1_6 3.887786 1_555
Yb0_5 Yb1_7 3.887786 1_555
Yb0_5 Yb1_1 3.887786 1_555
Yb0_5 Yb1_4 3.887790 1_555
Yb0_5 Yb1_5 3.887790 1_555
Yb0_6 Yb1_3 3.887786 1_554
Yb0_6 Yb1_5 3.887786 1_564
Yb0_6 Yb1_2 3.887786 1_555
Yb0_6 Yb1_4 3.887786 1_565
Yb0_6 Yb1_7 3.887790 1_554
Yb0_6 Yb1_6 3.887790 1_555
Yb0_7 Yb1_2 3.887786 1_555
Yb0_7 Yb1_4 3.887786 1_565
Yb0_7 Yb1_3 3.887786 1_555
Yb0_7 Yb1_5 3.887786 1_565
Yb0_7 Yb1_6 3.887790 1_555
Yb0_7 Yb1_7 3.887790 1_555
Yb1_0 Yb1_2 3.852872 1_555
Yb1_0 Yb1_4 3.852872 1_455
Yb1_0 Yb1_4 3.852872 1_555
Yb1_0 Yb1_2 3.852872 1_545
Yb1_0 Yb1_6 3.852872 1_445
Yb1_0 Yb1_6 3.852872 1_555
Yb1_1 Yb1_3 3.852872 1_555
Yb1_1 Yb1_5 3.852872 1_455
Yb1_1 Yb1_5 3.852872 1_555
Yb1_1 Yb1_3 3.852872 1_545
Yb1_1 Yb1_7 3.852872 1_445
Yb1_1 Yb1_7 3.852872 1_555
Yb1_2 Yb1_6 3.852872 1_455
Yb1_2 Yb1_6 3.852872 1_555
Yb1_2 Yb1_4 3.852872 1_455
Yb1_2 Yb1_4 3.852872 1_565
Yb1_3 Yb1_7 3.852872 1_455
Yb1_3 Yb1_7 3.852872 1_555
Yb1_3 Yb1_5 3.852872 1_455
Yb1_3 Yb1_5 3.852872 1_565
Yb1_4 Yb1_6 3.852872 1_555
Yb1_4 Yb1_6 3.852872 1_545
Yb1_5 Yb1_7 3.852872 1_545
Yb1_5 Yb1_7 3.852872 1_555
