# generated using pymatgen
data_Dy3TaO7
_symmetry_space_group_name_H-M   'P 1'
_cell_length_a   8.14824690
_cell_length_b   8.14824690
_cell_length_c   5.36720900
_cell_angle_alpha   90.00000000
_cell_angle_beta   90.00000000
_cell_angle_gamma   125.41724677
_symmetry_Int_Tables_number   1
_chemical_formula_structural   Dy3TaO7
_chemical_formula_sum   'Dy6 Ta2 O14'
_cell_volume   290.40870931
_cell_formula_units_Z   2
loop_
 _symmetry_equiv_pos_site_id
 _symmetry_equiv_pos_as_xyz
  1  'x, y, z'
loop_
 _atom_site_type_symbol
 _atom_site_label
 _atom_site_symmetry_multiplicity
 _atom_site_fract_x
 _atom_site_fract_y
 _atom_site_fract_z
 _atom_site_occupancy
  Dy  Dy0  1  0.00000000  0.50000000  0.00000000  1
  Dy  Dy1  1  0.50000000  0.00000000  0.00000000  1
  Dy  Dy2  1  0.61958500  0.38041500  0.47118400  1
  Dy  Dy3  1  0.11958500  0.88041500  0.52881600  1
  Dy  Dy4  1  0.88041500  0.11958500  0.47118400  1
  Dy  Dy5  1  0.38041500  0.61958500  0.52881600  1
  Ta  Ta0  1  0.75000000  0.75000000  0.00000000  1
  Ta  Ta1  1  0.25000000  0.25000000  0.00000000  1
  O  O0  1  0.75000000  0.25000000  0.24222100  1
  O  O1  1  0.83825700  0.59964100  0.76379000  1
  O  O2  1  0.98782500  0.01217500  0.21149700  1
  O  O3  1  0.40035900  0.16174300  0.76379000  1
  O  O4  1  0.33825700  0.09964100  0.23621000  1
  O  O5  1  0.09964100  0.33825700  0.76379000  1
  O  O6  1  0.51217500  0.48782500  0.21149700  1
  O  O7  1  0.48782500  0.51217500  0.78850300  1
  O  O8  1  0.90035900  0.66174300  0.23621000  1
  O  O9  1  0.59964100  0.83825700  0.23621000  1
  O  O10  1  0.66174300  0.90035900  0.76379000  1
  O  O11  1  0.01217500  0.98782500  0.78850300  1
  O  O12  1  0.16174300  0.40035900  0.23621000  1
  O  O13  1  0.25000000  0.75000000  0.75777900  1
loop_
_geom_bond_atom_site_label_1
_geom_bond_atom_site_label_2
_geom_bond_distance
_geom_bond_site_symmetry_2
Dy0 O0 2.275905 1_455
Dy0 O13 2.275905 1_554
Dy0 O5 2.289890 1_554
Dy0 O8 2.289890 1_455
Dy0 O12 2.289890 1_555
Dy0 O1 2.289890 1_454
Dy1 O0 2.275905 1_555
Dy1 O13 2.275905 1_544
Dy1 O4 2.289890 1_555
Dy1 O3 2.289890 1_554
Dy1 O10 2.289890 1_544
Dy1 O9 2.289890 1_545
Dy2 O6 2.088645 1_555
Dy2 O0 2.253327 1_555
Dy2 O1 2.267821 1_555
Dy2 O3 2.267821 1_555
Dy2 O4 2.449657 1_555
Dy2 O8 2.449657 1_555
Dy2 O7 2.557709 1_555
Dy3 O11 2.088645 1_555
Dy3 O13 2.253327 1_555
Dy3 O4 2.267821 1_565
Dy3 O8 2.267821 1_455
Dy3 O3 2.449657 1_565
Dy3 O1 2.449657 1_455
Dy3 O2 2.557709 1_465
Dy4 O2 2.088645 1_555
Dy4 O0 2.253327 1_555
Dy4 O5 2.267821 1_655
Dy4 O10 2.267821 1_545
Dy4 O12 2.449657 1_655
Dy4 O9 2.449657 1_545
Dy4 O11 2.557709 1_645
Dy5 O7 2.088645 1_555
Dy5 O13 2.253327 1_555
Dy5 O9 2.267821 1_555
Dy5 O12 2.267821 1_555
Dy5 O5 2.449657 1_555
Dy5 O10 2.449657 1_555
Dy5 O6 2.557709 1_555
O1 Ta0 2.155614 1_556
O2 Ta0 2.193003 1_545
O2 Ta1 2.193003 1_655
O3 Ta1 2.155614 1_556
O4 Ta1 2.155614 1_555
O5 Ta1 2.155614 1_556
O6 Ta1 2.193003 1_555
O6 Ta0 2.193003 1_555
O7 Ta1 2.193003 1_556
O7 Ta0 2.193003 1_556
O8 Ta0 2.155614 1_555
O9 Ta0 2.155614 1_555
O10 Ta0 2.155614 1_556
O11 Ta0 2.193003 1_456
O11 Ta1 2.193003 1_566
O12 Ta1 2.155614 1_555
