# generated using pymatgen
data_Nb7(B4Ru3)2
_symmetry_space_group_name_H-M   'P 1'
_cell_length_a   9.63509608
_cell_length_b   9.63509608
_cell_length_c   3.12544300
_cell_angle_alpha   90.00000000
_cell_angle_beta   90.00000000
_cell_angle_gamma   120.00000057
_symmetry_Int_Tables_number   1
_chemical_formula_structural   Nb7(B4Ru3)2
_chemical_formula_sum   'Nb7 B8 Ru6'
_cell_volume   251.27791041
_cell_formula_units_Z   1
loop_
 _symmetry_equiv_pos_site_id
 _symmetry_equiv_pos_as_xyz
  1  'x, y, z'
loop_
 _atom_site_type_symbol
 _atom_site_label
 _atom_site_symmetry_multiplicity
 _atom_site_fract_x
 _atom_site_fract_y
 _atom_site_fract_z
 _atom_site_occupancy
  Nb  Nb0  1  0.00000000  0.00000000  0.00000000  1
  Nb  Nb1  1  0.27637700  0.91484500  0.00000000  1
  Nb  Nb2  1  0.63846800  0.72362300  0.00000000  1
  Nb  Nb3  1  0.08515500  0.36153200  0.00000000  1
  Nb  Nb4  1  0.72362300  0.08515500  0.00000000  1
  Nb  Nb5  1  0.36153200  0.27637700  0.00000000  1
  Nb  Nb6  1  0.91484500  0.63846800  0.00000000  1
  B  B0  1  0.33333300  0.66666700  0.00000000  1
  B  B1  1  0.66666700  0.33333300  0.00000000  1
  B  B2  1  0.84761000  0.78180900  0.50000000  1
  B  B3  1  0.93419900  0.15239000  0.50000000  1
  B  B4  1  0.21819100  0.06580100  0.50000000  1
  B  B5  1  0.15239000  0.21819100  0.50000000  1
  B  B6  1  0.06580100  0.84761000  0.50000000  1
  B  B7  1  0.78180900  0.93419900  0.50000000  1
  Ru  Ru0  1  0.63987000  0.48546100  0.50000000  1
  Ru  Ru1  1  0.84559100  0.36013000  0.50000000  1
  Ru  Ru2  1  0.51453900  0.15440900  0.50000000  1
  Ru  Ru3  1  0.36013000  0.51453900  0.50000000  1
  Ru  Ru4  1  0.15440900  0.63987000  0.50000000  1
  Ru  Ru5  1  0.48546100  0.84559100  0.50000000  1
loop_
_geom_bond_atom_site_label_1
_geom_bond_atom_site_label_2
_geom_bond_distance
_geom_bond_site_symmetry_2
Nb1 Ru4 2.780106 1_555
Nb1 Ru4 2.780106 1_554
Nb1 Ru2 2.781904 1_565
Nb1 Ru2 2.781904 1_564
Nb1 Ru5 2.879232 1_555
Nb1 Ru5 2.879232 1_554
Nb2 Ru5 2.780106 1_555
Nb2 Ru5 2.780106 1_554
Nb2 Ru0 2.781904 1_555
Nb2 Ru0 2.781904 1_554
Nb2 Ru3 2.879232 1_555
Nb2 Ru3 2.879232 1_554
Nb3 Ru3 2.780106 1_555
Nb3 Ru3 2.780106 1_554
Nb3 Ru1 2.781904 1_455
Nb3 Ru1 2.781904 1_454
Nb3 Ru4 2.879232 1_555
Nb3 Ru4 2.879232 1_554
Nb4 Ru1 2.780106 1_555
Nb4 Ru1 2.780106 1_554
Nb4 Ru5 2.781904 1_544
Nb4 Ru5 2.781904 1_545
Nb4 Ru2 2.879232 1_554
Nb4 Ru2 2.879232 1_555
Nb5 Ru2 2.780106 1_555
Nb5 Ru2 2.780106 1_554
Nb5 Ru3 2.781904 1_555
Nb5 Ru3 2.781904 1_554
Nb5 Ru0 2.879232 1_554
Nb5 Ru0 2.879232 1_555
Nb6 Ru0 2.780106 1_555
Nb6 Ru0 2.780106 1_554
Nb6 Ru4 2.781904 1_655
Nb6 Ru4 2.781904 1_654
Nb6 Ru1 2.879232 1_555
Nb6 Ru1 2.879232 1_554
B0 Ru4 2.244027 1_554
B0 Ru4 2.244027 1_555
B0 Ru5 2.244029 1_555
B0 Ru5 2.244029 1_554
B0 Ru3 2.244033 1_555
B0 Ru3 2.244033 1_554
B0 Nb1 2.707643 1_555
B0 Nb3 2.707649 1_555
B0 Nb2 2.707652 1_555
B1 Ru1 2.244027 1_555
B1 Ru1 2.244027 1_554
B1 Ru2 2.244029 1_554
B1 Ru2 2.244029 1_555
B1 Ru0 2.244033 1_555
B1 Ru0 2.244033 1_554
B1 Nb4 2.707643 1_555
B1 Nb6 2.707649 1_555
B1 Nb5 2.707652 1_555
B2 B6 1.867815 1_655
B2 B7 1.867815 1_555
B2 Nb6 2.379898 1_555
B2 Nb6 2.379898 1_556
B2 Nb2 2.384810 1_555
B2 Nb2 2.384810 1_556
B2 Nb0 2.435330 1_665
B2 Nb0 2.435330 1_666
B2 Ru0 2.538527 1_555
B3 B7 1.867815 1_545
B3 B5 1.867815 1_655
B3 Nb4 2.379898 1_556
B3 Nb4 2.379898 1_555
B3 Nb3 2.384810 1_656
B3 Nb3 2.384810 1_655
B3 Nb0 2.435330 1_655
B3 Nb0 2.435330 1_656
B3 Ru1 2.538527 1_555
B4 B6 1.867815 1_545
B4 B5 1.867815 1_555
B4 Nb5 2.379898 1_556
B4 Nb5 2.379898 1_555
B4 Nb1 2.384810 1_545
B4 Nb1 2.384810 1_546
B4 Nb0 2.435330 1_556
B4 Nb0 2.435330 1_555
B4 Ru2 2.538527 1_555
B5 Nb3 2.379898 1_555
B5 Nb3 2.379898 1_556
B5 Nb5 2.384810 1_556
B5 Nb5 2.384810 1_555
B5 Nb0 2.435330 1_556
B5 Nb0 2.435330 1_555
B5 Ru3 2.538527 1_555
B6 Nb1 2.379898 1_556
B6 Nb1 2.379898 1_555
B6 Nb6 2.384810 1_455
B6 Nb6 2.384810 1_456
B6 Nb0 2.435330 1_566
B6 Nb0 2.435330 1_565
B6 Ru4 2.538527 1_555
B7 Nb2 2.379898 1_555
B7 Nb2 2.379898 1_556
B7 Nb4 2.384810 1_566
B7 Nb4 2.384810 1_565
B7 Nb0 2.435330 1_665
B7 Nb0 2.435330 1_666
B7 Ru5 2.538527 1_555
