# generated using pymatgen
data_CdPd3O4
_symmetry_space_group_name_H-M   'P 1'
_cell_length_a   5.76491975
_cell_length_b   5.76491975
_cell_length_c   5.76491975
_cell_angle_alpha   90.00000000
_cell_angle_beta   90.00000000
_cell_angle_gamma   90.00000000
_symmetry_Int_Tables_number   1
_chemical_formula_structural   CdPd3O4
_chemical_formula_sum   'Cd2 Pd6 O8'
_cell_volume   191.59307086
_cell_formula_units_Z   2
loop_
 _symmetry_equiv_pos_site_id
 _symmetry_equiv_pos_as_xyz
  1  'x, y, z'
loop_
 _atom_site_type_symbol
 _atom_site_label
 _atom_site_symmetry_multiplicity
 _atom_site_fract_x
 _atom_site_fract_y
 _atom_site_fract_z
 _atom_site_occupancy
  Cd  Cd0  1  0.50000000  0.50000000  0.50000000  1
  Cd  Cd1  1  -0.00000000  0.00000000  -0.00000000  1
  Pd  Pd0  1  0.75000000  0.00000000  0.50000000  1
  Pd  Pd1  1  0.50000000  0.75000000  -0.00000000  1
  Pd  Pd2  1  -0.00000000  0.50000000  0.75000000  1
  Pd  Pd3  1  -0.00000000  0.50000000  0.25000000  1
  Pd  Pd4  1  0.25000000  0.00000000  0.50000000  1
  Pd  Pd5  1  0.50000000  0.25000000  -0.00000000  1
  O  O0  1  0.75000000  0.25000000  0.25000000  1
  O  O1  1  0.25000000  0.25000000  0.75000000  1
  O  O2  1  0.25000000  0.75000000  0.25000000  1
  O  O3  1  0.75000000  0.75000000  0.75000000  1
  O  O4  1  0.25000000  0.75000000  0.75000000  1
  O  O5  1  0.75000000  0.75000000  0.25000000  1
  O  O6  1  0.25000000  0.25000000  0.25000000  1
  O  O7  1  0.75000000  0.25000000  0.75000000  1
loop_
_geom_bond_atom_site_label_1
_geom_bond_atom_site_label_2
_geom_bond_distance
_geom_bond_site_symmetry_2
Cd0 O2 2.496283 1_555
Cd0 O3 2.496283 1_555
Cd0 O0 2.496283 1_555
Cd0 O6 2.496283 1_555
Cd0 O7 2.496283 1_555
Cd0 O4 2.496283 1_555
Cd0 O1 2.496283 1_555
Cd0 O5 2.496283 1_555
Cd1 O4 2.496283 1_544
Cd1 O5 2.496283 1_445
Cd1 O7 2.496283 1_454
Cd1 O0 2.496283 1_455
Cd1 O3 2.496283 1_444
Cd1 O2 2.496283 1_545
Cd1 O6 2.496283 1_555
Cd1 O1 2.496283 1_554
O0 Pd5 2.038207 1_555
O0 Pd0 2.038207 1_555
O0 Pd3 2.038207 1_655
O1 Pd2 2.038207 1_555
O1 Pd5 2.038207 1_556
O1 Pd4 2.038207 1_555
O2 Pd4 2.038207 1_565
O2 Pd1 2.038207 1_555
O2 Pd3 2.038207 1_555
O3 Pd1 2.038207 1_556
O3 Pd2 2.038207 1_655
O3 Pd0 2.038207 1_565
O4 Pd4 2.038207 1_565
O4 Pd1 2.038207 1_556
O4 Pd2 2.038207 1_555
O5 Pd1 2.038207 1_555
O5 Pd0 2.038207 1_565
O5 Pd3 2.038207 1_655
O6 Pd3 2.038207 1_555
O6 Pd5 2.038207 1_555
O6 Pd4 2.038207 1_555
O7 Pd2 2.038207 1_655
O7 Pd5 2.038207 1_556
O7 Pd0 2.038207 1_555
