# generated using pymatgen
data_Ce2(ZnGe2)3
_symmetry_space_group_name_H-M   'P 1'
_cell_length_a   12.62623419
_cell_length_b   12.62623419
_cell_length_c   5.95460230
_cell_angle_alpha   90.00000000
_cell_angle_beta   90.00000000
_cell_angle_gamma   152.72540095
_symmetry_Int_Tables_number   1
_chemical_formula_structural   Ce2(ZnGe2)3
_chemical_formula_sum   'Ce4 Zn6 Ge12'
_cell_volume   435.01895751
_cell_formula_units_Z   2
loop_
 _symmetry_equiv_pos_site_id
 _symmetry_equiv_pos_as_xyz
  1  'x, y, z'
loop_
 _atom_site_type_symbol
 _atom_site_label
 _atom_site_symmetry_multiplicity
 _atom_site_fract_x
 _atom_site_fract_y
 _atom_site_fract_z
 _atom_site_occupancy
  Ce  Ce0  1  0.10654433  0.89345567  0.75000000  1
  Ce  Ce1  1  0.89345567  0.10654433  0.25000000  1
  Ce  Ce2  1  0.60640892  0.39359108  0.25000000  1
  Ce  Ce3  1  0.39359108  0.60640892  0.75000000  1
  Zn  Zn0  1  0.76127944  0.76127944  0.00000000  1
  Zn  Zn1  1  0.66040702  0.33959298  0.75000000  1
  Zn  Zn2  1  0.76127944  0.76127944  0.50000000  1
  Zn  Zn3  1  0.23872056  0.23872056  0.00000000  1
  Zn  Zn4  1  0.33959298  0.66040702  0.25000000  1
  Zn  Zn5  1  0.23872056  0.23872056  0.50000000  1
  Ge  Ge0  1  0.98661029  0.58437236  0.03534302  1
  Ge  Ge1  1  0.01338971  0.41562764  0.53534302  1
  Ge  Ge2  1  0.41562764  0.01338971  0.03534302  1
  Ge  Ge3  1  0.58437236  0.98661029  0.53534302  1
  Ge  Ge4  1  0.01338971  0.41562764  0.96465698  1
  Ge  Ge5  1  0.98661029  0.58437236  0.46465698  1
  Ge  Ge6  1  0.58437236  0.98661029  0.96465698  1
  Ge  Ge7  1  0.44146862  0.55853138  0.25000000  1
  Ge  Ge8  1  0.93320414  0.06679586  0.75000000  1
  Ge  Ge9  1  0.06679586  0.93320414  0.25000000  1
  Ge  Ge10  1  0.55853138  0.44146862  0.75000000  1
  Ge  Ge11  1  0.41562764  0.01338971  0.46465698  1
loop_
_geom_bond_atom_site_label_1
_geom_bond_atom_site_label_2
_geom_bond_distance
_geom_bond_site_symmetry_2
Ce0 Ge9 3.133021 1_556
Ce0 Ge9 3.133021 1_555
Ce0 Ge0 3.147179 1_456
Ce0 Ge11 3.147179 1_565
Ce0 Ge2 3.147179 1_566
Ce0 Ge5 3.147179 1_455
Ce0 Ge10 3.201644 1_565
Ce0 Ge10 3.201644 1_455
Ce0 Zn1 3.257211 1_455
Ce0 Zn1 3.257211 1_565
Ce0 Zn3 3.327559 1_566
Ce0 Zn5 3.327559 1_565
Ce0 Zn0 3.327559 1_456
Ce0 Zn2 3.327559 1_455
Ce1 Ge8 3.133021 1_554
Ce1 Ge8 3.133021 1_555
Ce1 Ge6 3.147179 1_544
Ce1 Ge3 3.147179 1_545
Ce1 Ge1 3.147179 1_655
Ce1 Ge4 3.147179 1_654
Ce1 Ge7 3.201644 1_545
Ce1 Ge7 3.201644 1_655
Ce1 Zn4 3.257211 1_655
Ce1 Zn4 3.257211 1_545
Ce1 Zn5 3.327559 1_655
Ce1 Zn3 3.327559 1_655
Ce1 Zn0 3.327559 1_545
Ce1 Zn2 3.327559 1_545
Ce2 Ge9 3.131653 1_545
Ce2 Ge9 3.131653 1_655
Ce2 Ge0 3.150418 1_555
Ce2 Ge5 3.150418 1_555
Ce2 Ge11 3.150418 1_555
Ce2 Ge2 3.150418 1_555
Ce2 Ge10 3.200751 1_555
Ce2 Ge10 3.200751 1_554
Ce2 Zn1 3.258884 1_555
Ce2 Zn1 3.258884 1_554
Ce2 Zn2 3.384542 1_555
Ce2 Zn0 3.384542 1_555
Ce2 Zn3 3.384542 1_555
Ce2 Zn5 3.384542 1_555
Ce3 Ge8 3.131653 1_455
Ce3 Ge8 3.131653 1_565
Ce3 Ge6 3.150418 1_555
Ce3 Ge3 3.150418 1_555
Ce3 Ge4 3.150418 1_555
Ce3 Ge1 3.150418 1_555
Ce3 Ge7 3.200751 1_556
Ce3 Ge7 3.200751 1_555
Ce3 Zn4 3.258884 1_555
Ce3 Zn4 3.258884 1_556
Ce3 Zn2 3.384542 1_555
Ce3 Zn0 3.384542 1_556
Ce3 Zn3 3.384542 1_556
Ce3 Zn5 3.384542 1_555
Ge0 Ge4 2.472169 1_654
Ge0 Ge2 2.554325 1_665
Ge0 Ge5 2.556394 1_555
Ge0 Zn1 2.602770 1_554
Ge1 Ge5 2.472169 1_455
Ge1 Ge3 2.554325 1_445
Ge1 Ge4 2.556394 1_555
Ge1 Zn4 2.602770 1_555
Ge2 Ge6 2.472169 1_544
Ge2 Zn1 2.602770 1_554
Ge3 Ge6 2.556394 1_555
Ge3 Zn4 2.602770 1_555
Ge4 Ge6 2.554325 1_445
Ge4 Zn4 2.602770 1_556
Ge5 Zn1 2.602770 1_555
Ge6 Zn4 2.602770 1_556
Ge7 Zn4 2.500084 1_555
Ge7 Zn2 2.588298 1_555
Ge7 Zn0 2.588298 1_555
Ge7 Zn5 2.588298 1_555
Ge7 Zn3 2.588298 1_555
Ge8 Zn0 2.631202 1_546
Ge8 Zn2 2.631202 1_545
Ge8 Zn3 2.631202 1_656
Ge8 Zn5 2.631202 1_655
Ge9 Zn5 2.631202 1_565
Ge9 Zn2 2.631202 1_455
Ge9 Zn0 2.631202 1_455
Ge9 Zn3 2.631202 1_565
Ge10 Zn1 2.500084 1_555
Ge10 Zn2 2.588298 1_555
Ge10 Zn0 2.588298 1_556
Ge10 Zn5 2.588298 1_555
Ge10 Zn3 2.588298 1_556
Ge11 Ge3 2.472169 1_545
Ge11 Ge5 2.554325 1_445
Ge11 Ge2 2.556394 1_555
Ge11 Zn1 2.602770 1_555
