# generated using pymatgen
data_LiFeSnO4
_symmetry_space_group_name_H-M   'P 1'
_cell_length_a   6.13343900
_cell_length_b   6.13343900
_cell_length_c   8.57949500
_cell_angle_alpha   90.00000000
_cell_angle_beta   90.00000000
_cell_angle_gamma   90.00000000
_symmetry_Int_Tables_number   1
_chemical_formula_structural   LiFeSnO4
_chemical_formula_sum   'Li4 Fe4 Sn4 O16'
_cell_volume   322.75265700
_cell_formula_units_Z   4
loop_
 _symmetry_equiv_pos_site_id
 _symmetry_equiv_pos_as_xyz
  1  'x, y, z'
loop_
 _atom_site_type_symbol
 _atom_site_label
 _atom_site_symmetry_multiplicity
 _atom_site_fract_x
 _atom_site_fract_y
 _atom_site_fract_z
 _atom_site_occupancy
  Li  Li0  1  0.00000000  0.22721900  0.00000000  1
  Li  Li1  1  0.00000000  0.77278100  0.50000000  1
  Li  Li2  1  0.22721900  0.00000000  0.25000000  1
  Li  Li3  1  0.77278100  0.00000000  0.75000000  1
  Fe  Fe0  1  0.23484300  0.50000000  0.25000000  1
  Fe  Fe1  1  0.50000000  0.23484300  0.00000000  1
  Fe  Fe2  1  0.50000000  0.76515700  0.50000000  1
  Fe  Fe3  1  0.76515700  0.50000000  0.75000000  1
  Sn  Sn0  1  0.25502800  0.25502800  0.62500000  1
  Sn  Sn1  1  0.25502800  0.74497200  0.87500000  1
  Sn  Sn2  1  0.74497200  0.25502800  0.37500000  1
  Sn  Sn3  1  0.74497200  0.74497200  0.12500000  1
  O  O0  1  0.01671900  0.26112600  0.25222300  1
  O  O1  1  0.01671900  0.73887400  0.24777700  1
  O  O2  1  0.26112600  0.01671900  0.99777700  1
  O  O3  1  0.26112600  0.98328100  0.50222300  1
  O  O4  1  0.26233500  0.48037200  0.01250100  1
  O  O5  1  0.26233500  0.51962800  0.48749900  1
  O  O6  1  0.48037200  0.26233500  0.23749900  1
  O  O7  1  0.48037200  0.73766500  0.26250100  1
  O  O8  1  0.51962800  0.26233500  0.76250100  1
  O  O9  1  0.51962800  0.73766500  0.73749900  1
  O  O10  1  0.73766500  0.51962800  0.51250100  1
  O  O11  1  0.73766500  0.48037200  0.98749900  1
  O  O12  1  0.73887400  0.01671900  0.00222300  1
  O  O13  1  0.73887400  0.98328100  0.49777700  1
  O  O14  1  0.98328100  0.26112600  0.74777700  1
  O  O15  1  0.98328100  0.73887400  0.75222300  1
loop_
_geom_bond_atom_site_label_1
_geom_bond_atom_site_label_2
_geom_bond_distance
_geom_bond_site_symmetry_2
Li0 O2 2.057279 1_554
Li0 O12 2.057279 1_455
Li0 O0 2.176334 1_555
Li0 O14 2.176334 1_454
Li0 O4 2.238595 1_555
Li0 O11 2.238595 1_454
Li1 O3 2.057279 1_555
Li1 O13 2.057279 1_455
Li1 O1 2.176334 1_555
Li1 O15 2.176334 1_455
Li1 O10 2.238595 1_455
Li1 O5 2.238595 1_555
Li2 O0 2.057279 1_555
Li2 O1 2.057279 1_545
Li2 O3 2.176334 1_545
Li2 O2 2.176334 1_554
Li2 O6 2.238595 1_555
Li2 O7 2.238595 1_545
Li3 O14 2.057279 1_555
Li3 O15 2.057279 1_545
Li3 O12 2.176334 1_556
Li3 O13 2.176334 1_545
Li3 O9 2.238595 1_545
Li3 O8 2.238595 1_555
Fe0 O1 1.984132 1_555
Fe0 O0 1.984132 1_555
Fe0 O5 2.048128 1_555
Fe0 O4 2.048128 1_555
Fe0 O7 2.098631 1_555
Fe0 O6 2.098631 1_555
Fe1 O12 1.984132 1_555
Fe1 O2 1.984132 1_554
Fe1 O8 2.048128 1_554
Fe1 O6 2.048128 1_555
Fe1 O4 2.098631 1_555
Fe1 O11 2.098631 1_554
Fe2 O13 1.984132 1_555
Fe2 O3 1.984132 1_555
Fe2 O9 2.048128 1_555
Fe2 O7 2.048128 1_555
Fe2 O10 2.098631 1_555
Fe2 O5 2.098631 1_555
Fe3 O15 1.984132 1_555
Fe3 O14 1.984132 1_555
Fe3 O11 2.048128 1_555
Fe3 O10 2.048128 1_555
Fe3 O9 2.098631 1_555
Fe3 O8 2.098631 1_555
O0 Sn2 1.972057 1_455
O1 Sn3 1.972057 1_455
O2 Sn1 1.972057 1_545
O3 Sn0 1.972057 1_565
O4 Sn1 2.006865 1_554
O5 Sn0 2.006865 1_555
O6 Sn2 2.006865 1_555
O7 Sn3 2.006865 1_555
O8 Sn0 2.006865 1_555
O9 Sn1 2.006865 1_555
O10 Sn2 2.006865 1_555
O11 Sn3 2.006865 1_556
O12 Sn3 1.972057 1_545
O13 Sn2 1.972057 1_565
O14 Sn0 1.972057 1_655
O15 Sn1 1.972057 1_655
