# generated using pymatgen
data_Er2Al3Fe14
_symmetry_space_group_name_H-M   'P 1'
_cell_length_a   8.17494400
_cell_length_b   8.51796129
_cell_length_c   8.51796129
_cell_angle_alpha   120.05986942
_cell_angle_beta   90.00000000
_cell_angle_gamma   90.00000000
_symmetry_Int_Tables_number   1
_chemical_formula_structural   Er2Al3Fe14
_chemical_formula_sum   'Er4 Al6 Fe28'
_cell_volume   513.36283273
_cell_formula_units_Z   2
loop_
 _symmetry_equiv_pos_site_id
 _symmetry_equiv_pos_as_xyz
  1  'x, y, z'
loop_
 _atom_site_type_symbol
 _atom_site_label
 _atom_site_symmetry_multiplicity
 _atom_site_fract_x
 _atom_site_fract_y
 _atom_site_fract_z
 _atom_site_occupancy
  Er  Er0  1  0.75000000  0.99991300  0.00008700  1
  Er  Er1  1  0.25000000  0.00008700  0.99991300  1
  Er  Er2  1  0.25000000  0.66671900  0.33328100  1
  Er  Er3  1  0.75000000  0.33328100  0.66671900  1
  Al  Al0  1  0.50000000  0.50000000  0.00000000  1
  Al  Al1  1  0.50000000  0.50000000  0.50000000  1
  Al  Al2  1  0.50000000  0.00000000  0.50000000  1
  Al  Al3  1  0.00000000  0.50000000  0.00000000  1
  Al  Al4  1  0.00000000  0.50000000  0.50000000  1
  Al  Al5  1  0.00000000  0.00000000  0.50000000  1
  Fe  Fe0  1  0.61086800  0.66666200  0.33333800  1
  Fe  Fe1  1  0.38913200  0.33333800  0.66666200  1
  Fe  Fe2  1  0.11086800  0.33333800  0.66666200  1
  Fe  Fe3  1  0.88913200  0.66666200  0.33333800  1
  Fe  Fe4  1  0.75000000  0.67930200  0.02785800  1
  Fe  Fe5  1  0.75000000  0.34852500  0.32050100  1
  Fe  Fe6  1  0.75000000  0.97242400  0.65169900  1
  Fe  Fe7  1  0.75000000  0.34830100  0.02757600  1
  Fe  Fe8  1  0.75000000  0.97214200  0.32069800  1
  Fe  Fe9  1  0.75000000  0.67949900  0.65147500  1
  Fe  Fe10  1  0.25000000  0.32069800  0.97214200  1
  Fe  Fe11  1  0.25000000  0.65147500  0.67949900  1
  Fe  Fe12  1  0.25000000  0.02757600  0.34830100  1
  Fe  Fe13  1  0.25000000  0.65169900  0.97242400  1
  Fe  Fe14  1  0.25000000  0.02785800  0.67930200  1
  Fe  Fe15  1  0.25000000  0.32050100  0.34852500  1
  Fe  Fe16  1  0.48603000  0.83455600  0.66879600  1
  Fe  Fe17  1  0.48593300  0.83442700  0.16557300  1
  Fe  Fe18  1  0.48603000  0.33120400  0.16544400  1
  Fe  Fe19  1  0.51397000  0.16544400  0.33120400  1
  Fe  Fe20  1  0.51406700  0.16557300  0.83442700  1
  Fe  Fe21  1  0.51397000  0.66879600  0.83455600  1
  Fe  Fe22  1  0.98603000  0.16544400  0.33120400  1
  Fe  Fe23  1  0.98593300  0.16557300  0.83442700  1
  Fe  Fe24  1  0.98603000  0.66879600  0.83455600  1
  Fe  Fe25  1  0.01397000  0.83455600  0.66879600  1
  Fe  Fe26  1  0.01406700  0.83442700  0.16557300  1
  Fe  Fe27  1  0.01397000  0.33120400  0.16544400  1
loop_
_geom_bond_atom_site_label_1
_geom_bond_atom_site_label_2
_geom_bond_distance
_geom_bond_site_symmetry_2
Er0 Fe9 2.854384 1_554
Er0 Fe5 2.854384 1_565
Er0 Fe4 2.856788 1_555
Er0 Fe8 2.856788 1_555
Er0 Fe7 2.857464 1_565
Er0 Fe6 2.857464 1_554
Er0 Fe21 3.111602 1_554
Er0 Fe24 3.111602 1_554
Er0 Fe19 3.111602 1_565
Er0 Fe22 3.111602 1_565
Er0 Fe23 3.114020 1_564
Er0 Fe20 3.114020 1_564
Er0 Fe16 3.259135 1_554
Er0 Fe25 3.259135 1_654
Er0 Fe18 3.259135 1_565
Er0 Fe27 3.259135 1_665
Er0 Fe17 3.259550 1_555
Er0 Fe26 3.259550 1_655
Er1 Fe11 2.854384 1_545
Er1 Fe15 2.854384 1_556
Er1 Fe14 2.856788 1_555
Er1 Fe10 2.856788 1_555
Er1 Fe12 2.857464 1_556
Er1 Fe13 2.857464 1_545
Er1 Fe25 3.111602 1_545
Er1 Fe16 3.111602 1_545
Er1 Fe27 3.111602 1_556
Er1 Fe18 3.111602 1_556
Er1 Fe26 3.114020 1_546
Er1 Fe17 3.114020 1_546
Er1 Fe24 3.259135 1_445
Er1 Fe21 3.259135 1_545
Er1 Fe22 3.259135 1_456
Er1 Fe19 3.259135 1_556
Er1 Fe20 3.259550 1_555
Er1 Fe23 3.259550 1_455
Er2 Fe0 2.950076 1_555
Er2 Fe3 2.950076 1_455
Er2 Fe14 3.011122 1_565
Er2 Fe10 3.011122 1_554
Er2 Fe13 3.011717 1_554
Er2 Fe12 3.011717 1_565
Er2 Fe15 3.016207 1_555
Er2 Fe11 3.016207 1_555
Er2 Fe18 3.137103 1_555
Er2 Fe27 3.137103 1_555
Er2 Fe16 3.137103 1_555
Er2 Fe25 3.137103 1_555
Er2 Fe17 3.137805 1_555
Er2 Fe26 3.137805 1_555
Er3 Fe2 2.950076 1_655
Er3 Fe1 2.950076 1_555
Er3 Fe4 3.011122 1_556
Er3 Fe8 3.011122 1_545
Er3 Fe6 3.011717 1_545
Er3 Fe7 3.011717 1_556
Er3 Fe5 3.016207 1_555
Er3 Fe9 3.016207 1_555
Er3 Fe19 3.137103 1_555
Er3 Fe21 3.137103 1_555
Er3 Fe24 3.137103 1_555
Er3 Fe22 3.137103 1_555
Er3 Fe23 3.137805 1_555
Er3 Fe20 3.137805 1_555
Al0 Fe17 2.468238 1_555
Al0 Fe20 2.468238 1_554
Al0 Fe18 2.469039 1_555
Al0 Fe21 2.469039 1_554
Al0 Fe10 2.490522 1_554
Al0 Fe4 2.490522 1_555
Al0 Fe13 2.491143 1_554
Al0 Fe7 2.491143 1_555
Al0 Fe0 2.619281 1_555
Al0 Fe1 2.619281 1_554
Al0 Er2 3.195930 1_555
Al0 Er3 3.195930 1_554
Al1 Fe16 2.469117 1_555
Al1 Fe21 2.469117 1_555
Al1 Fe19 2.469117 1_555
Al1 Fe18 2.469117 1_555
Al1 Fe9 2.490588 1_555
Al1 Fe11 2.490588 1_555
Al1 Fe15 2.490588 1_555
Al1 Fe5 2.490588 1_555
Al1 Fe0 2.621272 1_555
Al1 Fe1 2.621272 1_555
Al1 Er3 3.198532 1_555
Al1 Er2 3.198532 1_555
Al2 Fe20 2.468238 1_555
Al2 Fe17 2.468238 1_545
Al2 Fe19 2.469039 1_555
Al2 Fe16 2.469039 1_545
Al2 Fe8 2.490522 1_545
Al2 Fe14 2.490522 1_555
Al2 Fe6 2.491143 1_545
Al2 Fe12 2.491143 1_555
Al2 Fe1 2.619281 1_555
Al2 Fe0 2.619281 1_545
Al2 Er3 3.195930 1_555
Al2 Er2 3.195930 1_545
Al3 Fe26 2.468238 1_555
Al3 Fe23 2.468238 1_454
Al3 Fe27 2.469039 1_555
Al3 Fe24 2.469039 1_454
Al3 Fe10 2.490522 1_554
Al3 Fe4 2.490522 1_455
Al3 Fe13 2.491143 1_554
Al3 Fe7 2.491143 1_455
Al3 Fe3 2.619281 1_455
Al3 Fe2 2.619281 1_554
Al3 Er2 3.195930 1_555
Al3 Er3 3.195930 1_454
Al4 Fe25 2.469117 1_555
Al4 Fe24 2.469117 1_455
Al4 Fe22 2.469117 1_455
Al4 Fe27 2.469117 1_555
Al4 Fe9 2.490588 1_455
Al4 Fe11 2.490588 1_555
Al4 Fe15 2.490588 1_555
Al4 Fe5 2.490588 1_455
Al4 Fe2 2.621272 1_555
Al4 Fe3 2.621272 1_455
Al4 Er3 3.198532 1_455
Al4 Er2 3.198532 1_555
Al5 Fe23 2.468238 1_455
Al5 Fe26 2.468238 1_545
Al5 Fe22 2.469039 1_455
Al5 Fe25 2.469039 1_545
Al5 Fe8 2.490522 1_445
Al5 Fe14 2.490522 1_555
Al5 Fe6 2.491143 1_445
Al5 Fe12 2.491143 1_555
Al5 Fe2 2.619281 1_555
Al5 Fe3 2.619281 1_445
Al5 Er3 3.195930 1_455
Al5 Er2 3.195930 1_545
Fe0 Fe3 2.274793 1_555
Fe0 Fe18 2.675397 1_555
Fe0 Fe16 2.675397 1_555
Fe0 Fe17 2.678261 1_555
Fe0 Fe9 2.890021 1_555
Fe0 Fe5 2.890021 1_555
Fe0 Fe6 2.890532 1_555
Fe0 Fe7 2.890532 1_555
Fe0 Fe8 2.890792 1_555
Fe0 Fe4 2.890792 1_555
Fe1 Fe2 2.274793 1_555
Fe1 Fe19 2.675397 1_555
Fe1 Fe21 2.675397 1_555
Fe1 Fe20 2.678261 1_555
Fe1 Fe11 2.890021 1_555
Fe1 Fe15 2.890021 1_555
Fe1 Fe13 2.890532 1_555
Fe1 Fe12 2.890532 1_555
Fe1 Fe10 2.890792 1_555
Fe1 Fe14 2.890792 1_555
Fe2 Fe22 2.675397 1_455
Fe2 Fe24 2.675397 1_455
Fe2 Fe23 2.678261 1_455
Fe3 Fe9 2.890021 1_555
Fe3 Fe5 2.890021 1_555
Fe3 Fe6 2.890532 1_555
Fe3 Fe7 2.890532 1_555
Fe3 Fe8 2.890792 1_555
Fe3 Fe4 2.890792 1_555
Fe4 Fe8 2.492142 1_555
Fe5 Fe7 2.494169 1_555
Fe6 Fe9 2.494169 1_555
Fe10 Fe14 2.492142 1_555
Fe10 Fe20 2.495862 1_555
Fe10 Fe23 2.495862 1_455
Fe10 Fe18 2.508900 1_556
Fe10 Fe27 2.508900 1_556
Fe10 Fe2 2.890792 1_555
Fe11 Fe13 2.494169 1_555
Fe11 Fe24 2.495533 1_455
Fe11 Fe21 2.495533 1_555
Fe11 Fe25 2.511136 1_555
Fe11 Fe16 2.511136 1_555
Fe11 Fe2 2.890021 1_555
Fe12 Fe15 2.494169 1_555
Fe12 Fe22 2.495667 1_455
Fe12 Fe19 2.495667 1_555
Fe12 Fe26 2.506799 1_545
Fe12 Fe17 2.506799 1_545
Fe12 Fe2 2.890532 1_555
Fe13 Fe24 2.495667 1_455
Fe13 Fe21 2.495667 1_555
Fe13 Fe17 2.506799 1_556
Fe13 Fe26 2.506799 1_556
Fe13 Fe2 2.890532 1_555
Fe14 Fe20 2.495862 1_555
Fe14 Fe23 2.495862 1_455
Fe14 Fe25 2.508900 1_545
Fe14 Fe16 2.508900 1_545
Fe14 Fe2 2.890792 1_555
Fe15 Fe22 2.495533 1_455
Fe15 Fe19 2.495533 1_555
Fe15 Fe18 2.511136 1_555
Fe15 Fe27 2.511136 1_555
Fe15 Fe2 2.890021 1_555
Fe16 Fe20 2.451102 1_565
Fe16 Fe21 2.456924 1_555
Fe16 Fe9 2.495533 1_555
Fe16 Fe6 2.495667 1_555
Fe17 Fe21 2.451102 1_554
Fe17 Fe19 2.451102 1_565
Fe17 Fe4 2.495862 1_555
Fe17 Fe8 2.495862 1_555
Fe18 Fe20 2.451102 1_554
Fe18 Fe19 2.456924 1_555
Fe18 Fe5 2.495533 1_555
Fe18 Fe7 2.495667 1_555
Fe19 Fe8 2.508900 1_545
Fe19 Fe5 2.511136 1_555
Fe20 Fe6 2.506799 1_545
Fe20 Fe7 2.506799 1_556
Fe21 Fe4 2.508900 1_556
Fe21 Fe9 2.511136 1_555
Fe22 Fe26 2.451102 1_645
Fe22 Fe27 2.456924 1_655
Fe22 Fe8 2.508900 1_545
Fe22 Fe5 2.511136 1_555
Fe23 Fe25 2.451102 1_645
Fe23 Fe27 2.451102 1_656
Fe23 Fe6 2.506799 1_545
Fe23 Fe7 2.506799 1_556
Fe24 Fe26 2.451102 1_656
Fe24 Fe25 2.456924 1_655
Fe24 Fe4 2.508900 1_556
Fe24 Fe9 2.511136 1_555
Fe25 Fe9 2.495533 1_455
Fe25 Fe6 2.495667 1_455
Fe25 Fe3 2.675397 1_455
Fe26 Fe4 2.495862 1_455
Fe26 Fe8 2.495862 1_455
Fe26 Fe3 2.678261 1_455
Fe27 Fe5 2.495533 1_455
Fe27 Fe7 2.495667 1_455
Fe27 Fe3 2.675397 1_455
