# generated using pymatgen
data_Ti4ZnO6
_symmetry_space_group_name_H-M   'P 1'
_cell_length_a   5.15774806
_cell_length_b   5.15774806
_cell_length_c   15.10189300
_cell_angle_alpha   90.00000000
_cell_angle_beta   90.00000000
_cell_angle_gamma   146.75869906
_symmetry_Int_Tables_number   1
_chemical_formula_structural   Ti4ZnO6
_chemical_formula_sum   'Ti8 Zn2 O12'
_cell_volume   220.22363795
_cell_formula_units_Z   2
loop_
 _symmetry_equiv_pos_site_id
 _symmetry_equiv_pos_as_xyz
  1  'x, y, z'
loop_
 _atom_site_type_symbol
 _atom_site_label
 _atom_site_symmetry_multiplicity
 _atom_site_fract_x
 _atom_site_fract_y
 _atom_site_fract_z
 _atom_site_occupancy
  Ti  Ti0  1  0.14656700  0.85343300  0.03973400  1
  Ti  Ti1  1  0.59865800  0.40134200  0.62969600  1
  Ti  Ti2  1  0.85343300  0.14656700  0.96026600  1
  Ti  Ti3  1  0.40134200  0.59865800  0.37030400  1
  Ti  Ti4  1  0.14656700  0.85343300  0.46026600  1
  Ti  Ti5  1  0.85343300  0.14656700  0.53973400  1
  Ti  Ti6  1  0.40134200  0.59865800  0.12969600  1
  Ti  Ti7  1  0.59865800  0.40134200  0.87030400  1
  Zn  Zn0  1  0.34312500  0.65687500  0.75000000  1
  Zn  Zn1  1  0.65687500  0.34312500  0.25000000  1
  O  O0  1  0.50000000  0.50000000  0.50000000  1
  O  O1  1  0.50000000  0.50000000  0.00000000  1
  O  O2  1  0.95824200  0.04175800  0.84064100  1
  O  O3  1  0.04175800  0.95824200  0.15935900  1
  O  O4  1  0.04175800  0.95824200  0.34064100  1
  O  O5  1  0.95824200  0.04175800  0.65935900  1
  O  O6  1  0.23410100  0.76589900  0.90612700  1
  O  O7  1  0.76589900  0.23410100  0.09387300  1
  O  O8  1  0.76589900  0.23410100  0.40612700  1
  O  O9  1  0.23410100  0.76589900  0.59387300  1
  O  O10  1  0.69043500  0.30956500  0.75000000  1
  O  O11  1  0.30956500  0.69043500  0.25000000  1
loop_
_geom_bond_atom_site_label_1
_geom_bond_atom_site_label_2
_geom_bond_distance
_geom_bond_site_symmetry_2
O0 Ti5 2.153000 1_455
O0 Ti5 2.153000 1_565
O0 Ti4 2.153000 1_545
O0 Ti4 2.153000 1_655
O0 Ti1 2.187994 1_555
O0 Ti3 2.187994 1_555
O1 Ti0 2.153000 1_545
O1 Ti2 2.153000 1_564
O1 Ti2 2.153000 1_454
O1 Ti0 2.153000 1_655
O1 Ti6 2.187994 1_555
O1 Ti7 2.187994 1_554
O2 Ti7 2.074498 1_545
O2 Ti7 2.074498 1_655
O2 Ti2 2.082532 1_555
O2 Zn0 2.311924 1_545
O2 Zn0 2.311924 1_655
O3 Ti6 2.074498 1_455
O3 Ti6 2.074498 1_565
O3 Ti0 2.082532 1_555
O3 Zn1 2.311924 1_455
O3 Zn1 2.311924 1_565
O4 Ti3 2.074498 1_455
O4 Ti3 2.074498 1_565
O4 Ti4 2.082532 1_555
O4 Zn1 2.311924 1_455
O4 Zn1 2.311924 1_565
O5 Ti1 2.074498 1_545
O5 Ti1 2.074498 1_655
O5 Ti5 2.082532 1_555
O5 Zn0 2.311924 1_545
O5 Zn0 2.311924 1_655
O6 Ti2 2.058218 1_455
O6 Ti2 2.058218 1_565
O6 Ti7 2.064342 1_455
O6 Ti7 2.064342 1_565
O6 Ti0 2.195407 1_556
O7 Ti0 2.058218 1_545
O7 Ti0 2.058218 1_655
O7 Ti6 2.064342 1_545
O7 Ti6 2.064342 1_655
O7 Ti2 2.195407 1_554
O8 Ti4 2.058218 1_545
O8 Ti4 2.058218 1_655
O8 Ti3 2.064342 1_545
O8 Ti3 2.064342 1_655
O8 Ti5 2.195407 1_555
O9 Ti5 2.058218 1_455
O9 Ti5 2.058218 1_565
O9 Ti1 2.064342 1_455
O9 Ti1 2.064342 1_565
O9 Ti4 2.195407 1_555
O10 Ti7 2.030711 1_555
O10 Ti1 2.030711 1_555
O10 Zn0 2.110536 1_655
O10 Zn0 2.110536 1_545
O11 Ti3 2.030711 1_555
O11 Ti6 2.030711 1_555
O11 Zn1 2.110536 1_565
O11 Zn1 2.110536 1_455
