# generated using pymatgen
data_Sr3WO6
_symmetry_space_group_name_H-M   'P 1'
_cell_length_a   10.24290700
_cell_length_b   10.27158741
_cell_length_c   10.31398819
_cell_angle_alpha   80.60082959
_cell_angle_beta   71.31001435
_cell_angle_gamma   60.53559329
_symmetry_Int_Tables_number   1
_chemical_formula_structural   Sr3WO6
_chemical_formula_sum   'Sr18 W6 O36'
_cell_volume   894.94941269
_cell_formula_units_Z   6
loop_
 _symmetry_equiv_pos_site_id
 _symmetry_equiv_pos_as_xyz
  1  'x, y, z'
loop_
 _atom_site_type_symbol
 _atom_site_label
 _atom_site_symmetry_multiplicity
 _atom_site_fract_x
 _atom_site_fract_y
 _atom_site_fract_z
 _atom_site_occupancy
  Sr  Sr0  1  0.47283400  0.64481600  0.76510200  1
  Sr  Sr1  1  0.59455400  0.37350500  0.25920900  1
  Sr  Sr2  1  0.05497900  0.35454100  0.71888000  1
  Sr  Sr3  1  0.88877500  0.65992700  0.21688400  1
  Sr  Sr4  1  0.74669200  0.94973800  0.77850900  1
  Sr  Sr5  1  0.17249500  0.05191700  0.30352900  1
  Sr  Sr6  1  0.06827900  0.65983400  0.86863000  1
  Sr  Sr7  1  0.97053900  0.31796600  0.08493400  1
  Sr  Sr8  1  0.70221500  0.30172900  0.88137400  1
  Sr  Sr9  1  0.26491700  0.69325600  0.13492800  1
  Sr  Sr10  1  0.19778000  0.36335500  0.35363900  1
  Sr  Sr11  1  0.78750100  0.68635600  0.57391600  1
  Sr  Sr12  1  0.34117900  0.01827700  0.90860600  1
  Sr  Sr13  1  0.58173900  0.02586100  0.15527500  1
  Sr  Sr14  1  0.45899200  0.31967300  0.63775700  1
  Sr  Sr15  1  0.50443600  0.71188700  0.37969400  1
  Sr  Sr16  1  0.15372900  0.97291800  0.65446200  1
  Sr  Sr17  1  0.85748600  0.98525400  0.36697300  1
  W  W0  1  0.00282100  0.99781800  0.99736500  1
  W  W1  1  0.65971700  0.67375800  0.00843300  1
  W  W2  1  0.32940200  0.33504200  0.00278600  1
  W  W3  1  0.15830900  0.66796300  0.50847000  1
  W  W4  1  0.82264200  0.33520300  0.51285700  1
  W  W5  1  0.49894400  0.01042100  0.50139100  1
  O  O0  1  0.93485900  0.96638200  0.85678500  1
  O  O1  1  0.11400500  0.01641200  0.10955400  1
  O  O2  1  0.37733400  0.03064300  0.38240000  1
  O  O3  1  0.66029300  0.97261700  0.58362900  1
  O  O4  1  0.80167300  0.16292100  0.08821200  1
  O  O5  1  0.21740500  0.83874200  0.89922700  1
  O  O6  1  0.53951700  0.17103600  0.39774900  1
  O  O7  1  0.47614000  0.83321100  0.58830900  1
  O  O8  1  0.33323600  0.12879400  0.64875000  1
  O  O9  1  0.68191300  0.85940800  0.36011600  1
  O  O10  1  0.04425200  0.15319500  0.87540900  1
  O  O11  1  0.96344700  0.85838700  0.12574100  1
  O  O12  1  0.75815300  0.20115100  0.63948100  1
  O  O13  1  0.10052900  0.87997800  0.46398500  1
  O  O14  1  0.50696100  0.13961200  0.92811100  1
  O  O15  1  0.46662100  0.82904900  0.12819000  1
  O  O16  1  0.22707900  0.23178200  0.14075400  1
  O  O17  1  0.60364300  0.78048900  0.84280400  1
  O  O18  1  0.87606500  0.22716900  0.34694200  1
  O  O19  1  0.26121200  0.67701700  0.63423600  1
  O  O20  1  0.21085300  0.33863800  0.88545400  1
  O  O21  1  0.76681700  0.78991800  0.01079400  1
  O  O22  1  0.77046300  0.45263800  0.67716000  1
  O  O23  1  0.04016600  0.67529900  0.38620200  1
  O  O24  1  0.61008000  0.45721600  0.49743800  1
  O  O25  1  0.34506300  0.60566700  0.34946100  1
  O  O26  1  0.89225900  0.47893900  0.40402900  1
  O  O27  1  0.22062900  0.45485900  0.54773800  1
  O  O28  1  0.16188300  0.52836200  0.08089800  1
  O  O29  1  0.86417000  0.51948600  0.91403200  1
  O  O30  1  0.42504000  0.43271000  0.85644800  1
  O  O31  1  0.71264100  0.56072700  0.17948600  1
  O  O32  1  0.97049700  0.71234900  0.66305300  1
  O  O33  1  0.55491800  0.55849600  0.00368400  1
  O  O34  1  0.43853100  0.32464400  0.13145300  1
  O  O35  1  0.04239500  0.21764200  0.52338000  1
loop_
_geom_bond_atom_site_label_1
_geom_bond_atom_site_label_2
_geom_bond_distance
_geom_bond_site_symmetry_2
O0 W0 1.926686 1_655
O0 Sr4 2.400480 1_555
O0 Sr16 2.547366 1_655
O0 Sr6 2.746853 1_655
O0 Sr8 3.070953 1_565
O1 W0 1.950150 1_544
O1 Sr5 2.390814 1_555
O1 Sr12 2.578862 1_554
O1 Sr7 2.706011 1_455
O1 Sr9 2.898919 1_545
O1 Sr17 3.183410 1_445
O2 W5 1.934664 1_555
O2 Sr5 2.386731 1_555
O2 Sr13 2.581989 1_555
O2 Sr15 2.868593 1_545
O2 Sr10 2.997491 1_555
O2 Sr16 3.185093 1_545
O3 W5 1.939354 1_565
O3 Sr4 2.378994 1_555
O3 Sr17 2.521994 1_555
O3 Sr11 2.568464 1_555
O3 Sr14 3.154733 1_565
O4 W0 1.960443 1_644
O4 Sr8 2.567531 1_554
O4 Sr1 2.573643 1_555
O4 Sr7 2.860770 1_555
O4 Sr13 3.055920 1_555
O4 Sr17 3.199516 1_545
O5 W0 2.026496 1_555
O5 Sr0 2.485991 1_555
O5 Sr9 2.689990 1_556
O5 Sr12 2.730258 1_565
O5 Sr16 2.780738 1_555
O5 Sr6 3.011580 1_555
O6 W5 1.962370 1_555
O6 Sr1 2.520141 1_555
O6 Sr17 2.787634 1_545
O6 Sr14 2.797513 1_555
O6 Sr13 2.924975 1_555
O6 Sr10 3.207264 1_555
O7 W5 1.980539 1_565
O7 Sr0 2.437855 1_555
O7 Sr15 2.527331 1_555
O7 Sr11 2.739658 1_555
O7 Sr16 2.764856 1_555
O8 W5 1.894542 1_555
O8 Sr2 2.597751 1_555
O8 Sr12 2.744746 1_555
O8 Sr14 2.799007 1_555
O8 Sr16 2.956951 1_545
O9 W5 2.042008 1_565
O9 Sr3 2.362593 1_555
O9 Sr13 2.631220 1_565
O9 Sr17 2.703399 1_555
O9 Sr11 2.747522 1_555
O9 Sr15 2.831288 1_555
O10 W0 1.994465 1_545
O10 Sr2 2.432078 1_555
O10 Sr7 2.645063 1_456
O10 Sr16 2.752686 1_545
O10 Sr12 2.766556 1_555
O10 Sr8 3.039706 1_455
O11 W0 1.890385 1_654
O11 Sr3 2.464005 1_555
O11 Sr17 2.646415 1_555
O11 Sr9 2.720970 1_655
O11 Sr6 3.183047 1_654
O12 W4 1.947413 1_555
O12 Sr8 2.638825 1_555
O12 Sr14 2.688891 1_555
O12 Sr4 2.778427 1_545
O13 W3 1.970542 1_555
O13 Sr5 2.438340 1_565
O13 Sr16 2.622648 1_555
O13 Sr17 2.638684 1_455
O14 W2 1.986493 1_556
O14 Sr4 2.461206 1_545
O14 Sr13 2.610924 1_556
O14 Sr12 2.619171 1_555
O14 Sr8 3.066163 1_555
O14 Sr14 3.297020 1_555
O15 W1 1.988984 1_555
O15 Sr15 2.737320 1_555
O15 Sr13 2.880236 1_565
O15 Sr12 2.920344 1_564
O15 Sr5 2.943296 1_565
O15 Sr9 2.988325 1_555
O16 W2 1.973109 1_555
O16 Sr5 2.438426 1_555
O16 Sr7 2.556307 1_455
O16 Sr10 2.624023 1_555
O16 Sr12 3.050988 1_554
O17 W1 1.961559 1_556
O17 Sr12 2.562433 1_565
O17 Sr4 2.667495 1_555
O17 Sr0 2.696188 1_555
O17 Sr11 2.812464 1_555
O18 W4 1.970259 1_555
O18 Sr17 2.554546 1_545
O18 Sr5 2.583608 1_655
O18 Sr7 2.738174 1_555
O18 Sr1 2.890813 1_555
O19 W3 1.953023 1_555
O19 Sr6 2.631132 1_555
O19 Sr16 2.694705 1_555
O19 Sr0 2.766548 1_555
O19 Sr15 3.099399 1_555
O19 Sr14 3.204114 1_555
O20 W2 1.955353 1_556
O20 Sr2 2.633867 1_555
O20 Sr7 2.731833 1_456
O20 Sr6 2.878031 1_555
O20 Sr12 2.879833 1_555
O20 Sr14 2.922100 1_555
O21 W1 1.985422 1_555
O21 Sr13 2.556787 1_565
O21 Sr3 2.644887 1_555
O21 Sr6 2.673834 1_654
O21 Sr4 2.678837 1_554
O22 W4 2.016277 1_555
O22 Sr8 2.526602 1_555
O22 Sr11 2.526977 1_555
O22 Sr0 2.627860 1_555
O22 Sr2 2.732527 1_655
O23 W3 1.979314 1_555
O23 Sr11 2.651519 1_455
O23 Sr3 2.746955 1_455
O23 Sr17 2.801386 1_455
O23 Sr10 2.810854 1_555
O23 Sr9 2.913444 1_555
O24 W4 1.951622 1_555
O24 Sr15 2.551169 1_555
O24 Sr14 2.555999 1_555
O24 Sr1 2.806588 1_555
O24 Sr0 3.145807 1_555
O25 W3 1.971369 1_555
O25 Sr15 2.478307 1_555
O25 Sr9 2.483286 1_555
O25 Sr1 2.507816 1_555
O26 W4 1.982317 1_555
O26 Sr3 2.447416 1_555
O26 Sr11 2.554608 1_555
O26 Sr10 2.641411 1_655
O27 W3 1.965810 1_555
O27 Sr10 2.465192 1_555
O27 Sr2 2.502575 1_555
O27 Sr14 2.539242 1_555
O28 W2 1.954730 1_555
O28 Sr3 2.450398 1_455
O28 Sr6 2.577198 1_554
O28 Sr9 2.595521 1_555
O28 Sr10 3.068161 1_555
O29 W1 1.943496 1_556
O29 Sr2 2.465104 1_655
O29 Sr7 2.529664 1_556
O29 Sr6 2.964021 1_655
O30 W2 1.941331 1_556
O30 Sr0 2.440716 1_555
O30 Sr14 2.551878 1_555
O30 Sr8 2.556107 1_555
O30 Sr6 3.197930 1_555
O31 W1 2.019680 1_555
O31 Sr15 2.488011 1_555
O31 Sr7 2.609621 1_555
O31 Sr3 2.612414 1_555
O31 Sr1 2.640402 1_555
O32 W3 1.964567 1_655
O32 Sr11 2.471202 1_555
O32 Sr6 2.499169 1_655
O32 Sr4 2.513697 1_555
O33 W1 1.964497 1_555
O33 Sr9 2.561642 1_555
O33 Sr8 2.603062 1_554
O33 Sr0 2.725476 1_554
O33 Sr1 3.002053 1_555
O34 W2 1.951654 1_555
O34 Sr1 2.626179 1_555
O34 Sr13 2.680798 1_555
O34 Sr10 2.683650 1_555
O34 Sr8 3.018477 1_554
O35 W4 1.994079 1_455
O35 Sr16 2.550504 1_545
O35 Sr5 2.628266 1_555
O35 Sr2 2.707530 1_555
O35 Sr10 2.745923 1_555
