# generated using pymatgen
data_Rb7SmFe6(P4O17)2
_symmetry_space_group_name_H-M   'P 1'
_cell_length_a   9.43739300
_cell_length_b   10.03820394
_cell_length_c   10.15917057
_cell_angle_alpha   92.09282558
_cell_angle_beta   93.74803571
_cell_angle_gamma   116.32234989
_symmetry_Int_Tables_number   1
_chemical_formula_structural   Rb7SmFe6(P4O17)2
_chemical_formula_sum   'Rb7 Sm1 Fe6 P8 O34'
_cell_volume   858.47664455
_cell_formula_units_Z   1
loop_
 _symmetry_equiv_pos_site_id
 _symmetry_equiv_pos_as_xyz
  1  'x, y, z'
loop_
 _atom_site_type_symbol
 _atom_site_label
 _atom_site_symmetry_multiplicity
 _atom_site_fract_x
 _atom_site_fract_y
 _atom_site_fract_z
 _atom_site_occupancy
  Rb  Rb0  1  0.07141200  0.20905800  0.34209800  1
  Rb  Rb1  1  0.92858800  0.79094200  0.65790200  1
  Rb  Rb2  1  0.62472600  0.97646000  0.37338500  1
  Rb  Rb3  1  0.37527400  0.02354000  0.62661500  1
  Rb  Rb4  1  0.67607600  0.43840300  0.90392600  1
  Rb  Rb5  1  0.32392400  0.56159700  0.09607400  1
  Rb  Rb6  1  0.50000000  0.00000000  0.00000000  1
  Sm  Sm0  1  0.50000000  0.50000000  0.50000000  1
  Fe  Fe0  1  0.15592000  0.10774500  0.96540700  1
  Fe  Fe1  1  0.84408000  0.89225500  0.03459300  1
  Fe  Fe2  1  0.83463000  0.09426900  0.75490700  1
  Fe  Fe3  1  0.16537000  0.90573100  0.24509300  1
  Fe  Fe4  1  0.84290700  0.42357000  0.27695400  1
  Fe  Fe5  1  0.15709300  0.57643000  0.72304600  1
  P  P0  1  0.78693500  0.33215500  0.57260400  1
  P  P1  1  0.21306500  0.66784500  0.42739600  1
  P  P2  1  0.19427100  0.26357700  0.68972700  1
  P  P3  1  0.80572900  0.73642300  0.31027300  1
  P  P4  1  0.91133400  0.23210600  0.03862300  1
  P  P5  1  0.08866600  0.76789400  0.96137700  1
  P  P6  1  0.55795800  0.75574200  0.78507900  1
  P  P7  1  0.44204200  0.24425800  0.21492100  1
  O  O0  1  0.37476200  0.22119800  0.06708600  1
  O  O1  1  0.62523800  0.77880200  0.93291400  1
  O  O2  1  0.83277800  0.30863000  0.43101900  1
  O  O3  1  0.16722200  0.69137000  0.56898100  1
  O  O4  1  0.01596800  0.15742100  0.64276200  1
  O  O5  1  0.98403200  0.84257900  0.35723800  1
  O  O6  1  0.17958600  0.91426300  0.89211900  1
  O  O7  1  0.82041400  0.08573700  0.10788100  1
  O  O8  1  0.25887900  0.19698400  0.79987800  1
  O  O9  1  0.74112100  0.80301600  0.20012200  1
  O  O10  1  0.93254900  0.00539800  0.87618800  1
  O  O11  1  0.06745100  0.99460200  0.12381200  1
  O  O12  1  0.21272800  0.41705800  0.74471800  1
  O  O13  1  0.78727200  0.58294200  0.25528200  1
  O  O14  1  0.08755100  0.26805300  0.02730000  1
  O  O15  1  0.91244900  0.73194700  0.97270000  1
  O  O16  1  0.61788500  0.27439600  0.21399900  1
  O  O17  1  0.38211500  0.72560400  0.78600100  1
  O  O18  1  0.29190200  0.28337400  0.56940400  1
  O  O19  1  0.70809800  0.71662600  0.43059600  1
  O  O20  1  0.71634100  0.17570900  0.62963600  1
  O  O21  1  0.28365900  0.82429100  0.37036400  1
  O  O22  1  0.65972100  0.38934600  0.56203300  1
  O  O23  1  0.34027900  0.61065400  0.43796700  1
  O  O24  1  0.81871400  0.22033000  0.90099600  1
  O  O25  1  0.18128600  0.77967000  0.09900400  1
  O  O26  1  0.91337500  0.36687600  0.12006300  1
  O  O27  1  0.08662500  0.63312400  0.87993700  1
  O  O28  1  0.57918800  0.62942100  0.71114500  1
  O  O29  1  0.42081200  0.37057900  0.28885500  1
  O  O30  1  0.64400500  0.90352000  0.71343600  1
  O  O31  1  0.35599500  0.09648000  0.28656400  1
  O  O32  1  0.93130700  0.44376600  0.66289700  1
  O  O33  1  0.06869300  0.55623400  0.33710300  1
loop_
_geom_bond_atom_site_label_1
_geom_bond_atom_site_label_2
_geom_bond_distance
_geom_bond_site_symmetry_2
Fe0 O11 2.011205 1_546
Fe0 O10 2.020492 1_455
Fe0 O8 2.031310 1_555
Fe0 O0 2.044194 1_556
Fe0 O14 2.073925 1_556
Fe0 O6 2.162693 1_545
Fe1 O10 2.011205 1_564
Fe1 O11 2.020492 1_655
Fe1 O9 2.031310 1_555
Fe1 O1 2.044194 1_554
Fe1 O15 2.073925 1_554
Fe1 O7 2.162693 1_565
Fe2 O10 1.957153 1_555
Fe2 O30 1.966566 1_545
Fe2 O24 1.971570 1_555
Fe2 O4 1.993529 1_655
Fe2 O20 2.057614 1_555
Fe3 O11 1.957153 1_555
Fe3 O31 1.966566 1_565
Fe3 O25 1.971570 1_555
Fe3 O5 1.993529 1_455
Fe3 O21 2.057614 1_555
Fe4 O13 1.907637 1_555
Fe4 O26 1.927327 1_555
Fe4 O2 1.960557 1_555
Fe4 O33 1.985215 1_655
Fe4 O16 2.023233 1_555
Fe5 O12 1.907637 1_555
Fe5 O27 1.927327 1_555
Fe5 O3 1.960557 1_555
Fe5 O32 1.985215 1_455
Fe5 O17 2.023233 1_555
O0 P7 1.559480 1_555
O0 Rb6 3.018928 1_555
O0 Rb4 3.311998 1_554
O1 P6 1.559480 1_555
O1 Rb6 3.018928 1_566
O1 Rb5 3.311998 1_556
O2 P0 1.568137 1_555
O2 Rb0 3.013854 1_655
O2 Rb2 3.035980 1_545
O3 P1 1.568137 1_555
O3 Rb1 3.013854 1_455
O3 Rb3 3.035980 1_565
O4 P2 1.569203 1_555
O4 Rb0 3.155389 1_555
O4 Rb1 3.406569 1_445
O5 P3 1.569203 1_555
O5 Rb1 3.155389 1_555
O5 Rb0 3.406569 1_665
O6 P5 1.557715 1_555
O6 Rb6 2.876722 1_566
O6 Rb1 3.041832 1_455
O6 Rb3 3.310604 1_565
O7 P4 1.557715 1_555
O7 Rb6 2.876722 1_555
O7 Rb0 3.041832 1_655
O7 Rb2 3.310604 1_545
O8 P2 1.548478 1_555
O8 Rb3 3.010201 1_555
O9 P3 1.548478 1_555
O9 Rb2 3.010201 1_555
O10 Rb1 3.020370 1_545
O11 Rb0 3.020370 1_565
O12 P2 1.550012 1_555
O13 P3 1.550012 1_555
O14 P4 1.550794 1_455
O14 Rb5 2.821986 1_555
O14 Rb0 3.274703 1_555
O15 P5 1.550794 1_655
O15 Rb4 2.821986 1_555
O15 Rb1 3.274703 1_555
O16 P7 1.550017 1_555
O16 Rb6 3.174896 1_555
O17 P6 1.550017 1_555
O17 Rb6 3.174896 1_566
O18 P2 1.544429 1_555
O18 Sm0 2.363971 1_555
O18 Rb0 2.844003 1_555
O18 Rb3 3.103365 1_555
O19 P3 1.544429 1_555
O19 Sm0 2.363971 1_555
O19 Rb1 2.844003 1_555
O19 Rb2 3.103365 1_555
O20 P0 1.560411 1_555
O20 Rb3 2.884111 1_555
O20 Rb2 3.052365 1_545
O21 P1 1.560411 1_555
O21 Rb2 2.884111 1_555
O21 Rb3 3.052365 1_565
O22 P0 1.543171 1_555
O22 Sm0 2.305396 1_555
O23 P1 1.543171 1_555
O23 Sm0 2.305396 1_555
O24 P4 1.571439 1_556
O24 Rb4 3.036237 1_555
O24 Rb6 3.099785 1_556
O25 P5 1.571439 1_554
O25 Rb5 3.036237 1_555
O25 Rb6 3.099785 1_565
O26 P4 1.551824 1_555
O26 Rb0 3.426205 1_655
O27 P5 1.551824 1_555
O27 Rb1 3.426205 1_455
O28 P6 1.545200 1_555
O28 Sm0 2.360811 1_555
O28 Rb1 3.057828 1_555
O28 Rb4 3.153338 1_555
O29 P7 1.545200 1_555
O29 Sm0 2.360811 1_555
O29 Rb0 3.057828 1_555
O29 Rb5 3.153338 1_555
O30 P6 1.574023 1_555
O30 Rb3 3.340101 1_565
O30 Rb1 3.413452 1_555
O31 P7 1.574023 1_555
O31 Rb2 3.340101 1_545
O31 Rb0 3.413452 1_555
O32 P0 1.536504 1_555
O32 Rb1 3.498668 1_555
O33 P1 1.536504 1_555
O33 Rb0 3.498668 1_555
