# generated using pymatgen
data_MgV12Zn6O24
_symmetry_space_group_name_H-M   'P 1'
_cell_length_a   6.05676429
_cell_length_b   6.04662724
_cell_length_c   18.39728884
_cell_angle_alpha   61.25547724
_cell_angle_beta   61.19106513
_cell_angle_gamma   60.10425781
_symmetry_Int_Tables_number   1
_chemical_formula_structural   MgV12Zn6O24
_chemical_formula_sum   'Mg1 V12 Zn6 O24'
_cell_volume   485.43691126
_cell_formula_units_Z   1
loop_
 _symmetry_equiv_pos_site_id
 _symmetry_equiv_pos_as_xyz
  1  'x, y, z'
loop_
 _atom_site_type_symbol
 _atom_site_label
 _atom_site_symmetry_multiplicity
 _atom_site_fract_x
 _atom_site_fract_y
 _atom_site_fract_z
 _atom_site_occupancy
  Mg  Mg0  1  0.00238700  0.00012530  0.49975126  1
  V  V0  1  0.00322713  0.50752490  0.16169056  1
  V  V1  1  0.50764748  0.50703553  0.16193234  1
  V  V2  1  0.00079752  0.50062810  0.49989097  1
  V  V3  1  0.50772972  0.00273925  0.16169811  1
  V  V4  1  0.50570559  0.50501012  0.33302911  1
  V  V5  1  0.50260640  0.50165155  0.49779531  1
  V  V6  1  0.99978577  0.48817285  0.83829802  1
  V  V7  1  0.50160331  -0.00006063  0.49986685  1
  V  V8  1  0.48960121  0.00069330  0.83835942  1
  V  V9  1  0.49818790  0.49891377  0.66693330  1
  V  V10  1  0.49052546  0.49178589  0.83684364  1
  V  V11  1  0.87497364  0.87478438  0.95743647  1
  Zn  Zn0  1  0.12026200  0.12005864  0.04514813  1
  Zn  Zn1  1  0.15349168  0.15437285  0.34626836  1
  Zn  Zn2  1  0.49752603  0.49592075  0.00199857  1
  Zn  Zn3  1  0.12236701  0.12100380  0.70968304  1
  Zn  Zn4  1  0.88176714  0.88111137  0.28873368  1
  Zn  Zn5  1  0.84902935  0.85183457  0.65358660  1
  O  O0  1  0.25433315  0.25407248  0.08927123  1
  O  O1  1  0.27480384  0.27507097  0.22732050  1
  O  O2  1  0.25423382  0.72223482  0.08962108  1
  O  O3  1  0.72273801  0.25296836  0.08967714  1
  O  O4  1  0.28983327  0.74496414  0.24334253  1
  O  O5  1  0.24689345  0.24567744  0.42141612  1
  O  O6  1  0.74551008  0.28927343  0.24323701  1
  O  O7  1  0.74755228  0.74610468  0.08592843  1
  O  O8  1  0.23951791  0.74260132  0.42147154  1
  O  O9  1  0.25744123  0.25733288  0.57163018  1
  O  O10  1  0.74674012  0.74674798  0.24240283  1
  O  O11  1  0.74363398  0.23827562  0.42148778  1
  O  O12  1  0.26047270  0.76420770  0.57538250  1
  O  O13  1  0.24659812  0.26052004  0.75739367  1
  O  O14  1  0.76402112  0.25971937  0.57543655  1
  O  O15  1  0.74644983  0.74469144  0.42729815  1
  O  O16  1  0.25216947  0.25569978  0.91055283  1
  O  O17  1  0.25493707  0.71553021  0.75884084  1
  O  O18  1  0.75955729  0.75888498  0.57719242  1
  O  O19  1  0.71411824  0.24318980  0.75919565  1
  O  O20  1  0.26791745  0.75016415  0.91202376  1
  O  O21  1  0.72576893  0.72437430  0.77378924  1
  O  O22  1  0.73853758  0.26657288  0.91292090  1
  O  O23  1  0.74740875  0.73781694  0.91422040  1
loop_
_geom_bond_atom_site_label_1
_geom_bond_atom_site_label_2
_geom_bond_distance
_geom_bond_site_symmetry_2
Mg0 O12 2.092550 1_545
Mg0 O14 2.095870 1_455
Mg0 O18 2.107363 1_445
Mg0 O8 2.120261 1_545
Mg0 O11 2.129274 1_455
Mg0 O5 2.133414 1_555
O0 Zn0 1.974556 1_555
O0 V0 2.030837 1_555
O0 V3 2.034391 1_555
O0 Zn2 2.120297 1_555
O1 Zn1 1.819357 1_555
O1 V3 2.028343 1_555
O1 V0 2.028845 1_555
O1 V1 2.029093 1_555
O2 Zn0 1.978733 1_565
O2 V0 2.030748 1_555
O2 V1 2.032449 1_555
O2 Zn2 2.113010 1_555
O3 Zn0 1.979243 1_655
O3 V3 2.028234 1_555
O3 V1 2.030848 1_555
O3 Zn2 2.112954 1_555
O4 Zn4 2.031611 1_455
O4 V3 2.077398 1_565
O4 V1 2.080749 1_555
O4 V4 2.103024 1_555
O5 Zn1 2.082164 1_555
O5 V2 2.111550 1_555
O5 V7 2.114024 1_555
O5 V4 2.258650 1_555
O6 Zn4 2.030084 1_545
O6 V0 2.078713 1_655
O6 V1 2.082851 1_555
O6 V4 2.100383 1_555
O7 V11 1.964767 1_554
O7 V0 2.083570 1_655
O7 V3 2.084020 1_565
O7 V1 2.085124 1_555
O8 V2 2.093044 1_555
O8 Zn1 2.115005 1_565
O8 V5 2.123198 1_555
O8 V4 2.172967 1_555
O9 V7 2.037776 1_555
O9 V2 2.037791 1_555
O9 Zn3 2.110785 1_555
O9 V5 2.131948 1_555
O10 Zn4 2.013867 1_555
O10 V0 2.076819 1_655
O10 V3 2.079285 1_565
O10 V4 2.117776 1_555
O11 V7 2.091656 1_555
O11 Zn1 2.108018 1_655
O11 V5 2.120311 1_555
O11 V4 2.178361 1_555
O12 V7 2.076008 1_565
O12 Zn5 2.126577 1_455
O12 V5 2.133012 1_555
O12 V9 2.217941 1_555
O13 Zn3 2.007422 1_555
O13 V6 2.029737 1_455
O13 V8 2.100082 1_555
O13 V9 2.146556 1_555
O14 V2 2.079532 1_655
O14 Zn5 2.109989 1_545
O14 V5 2.132664 1_555
O14 V9 2.219426 1_555
O15 V2 2.038539 1_655
O15 V7 2.038567 1_565
O15 Zn4 2.118594 1_555
O15 V5 2.123032 1_555
O16 V6 2.024567 1_455
O16 V8 2.031775 1_555
O16 Zn0 2.058078 1_556
O16 V10 2.065574 1_555
O17 Zn3 2.019532 1_565
O17 V10 2.026706 1_555
O17 V6 2.103034 1_455
O17 V9 2.133239 1_555
O18 Zn5 2.093374 1_555
O18 V2 2.110626 1_655
O18 V7 2.113510 1_565
O18 V9 2.273407 1_555
O19 Zn3 2.035951 1_655
O19 V8 2.035982 1_555
O19 V10 2.075019 1_555
O19 V9 2.140493 1_555
O20 V11 1.957416 1_455
O20 V8 2.057545 1_565
O20 V10 2.086371 1_555
O20 Zn2 2.162694 1_556
O21 Zn5 1.839784 1_555
O21 V6 2.026798 1_555
O21 V8 2.034134 1_565
O21 V10 2.046721 1_555
O22 V11 1.949480 1_545
O22 V10 2.055184 1_555
O22 V6 2.105825 1_555
O22 Zn2 2.145218 1_556
O23 V11 1.943758 1_555
O23 V6 2.058194 1_555
O23 V8 2.098826 1_565
O23 Zn2 2.148760 1_556
