# generated using pymatgen
data_La(Ge3Pt)4
_symmetry_space_group_name_H-M   'P 1'
_cell_length_a   7.49847526
_cell_length_b   7.49847526
_cell_length_c   7.49847526
_cell_angle_alpha   109.47122063
_cell_angle_beta   109.47122063
_cell_angle_gamma   109.47122063
_symmetry_Int_Tables_number   1
_chemical_formula_structural   La(Ge3Pt)4
_chemical_formula_sum   'La1 Ge12 Pt4'
_cell_volume   324.56149718
_cell_formula_units_Z   1
loop_
 _symmetry_equiv_pos_site_id
 _symmetry_equiv_pos_as_xyz
  1  'x, y, z'
loop_
 _atom_site_type_symbol
 _atom_site_label
 _atom_site_symmetry_multiplicity
 _atom_site_fract_x
 _atom_site_fract_y
 _atom_site_fract_z
 _atom_site_occupancy
  La  La0  1  0.00000000  0.00000000  0.00000000  1
  Ge  Ge0  1  0.35539562  0.20450017  0.84910456  1
  Ge  Ge1  1  0.64460438  0.79549983  0.15089544  1
  Ge  Ge2  1  0.64460438  0.49370894  0.84910456  1
  Ge  Ge3  1  0.35539562  0.50629106  0.15089544  1
  Ge  Ge4  1  0.20450017  0.84910356  0.35539562  1
  Ge  Ge5  1  0.79549983  0.15089544  0.64460438  1
  Ge  Ge6  1  0.49370894  0.84910456  0.64460438  1
  Ge  Ge7  1  0.50629106  0.15089544  0.35539562  1
  Ge  Ge8  1  0.84910456  0.35539562  0.20450017  1
  Ge  Ge9  1  0.15089644  0.64460438  0.79549983  1
  Ge  Ge10  1  0.84910356  0.64460438  0.49370894  1
  Ge  Ge11  1  0.15089544  0.35539562  0.50629106  1
  Pt  Pt0  1  0.00000000  0.00000000  0.50000000  1
  Pt  Pt1  1  0.50000000  0.00000000  0.00000000  1
  Pt  Pt2  1  0.00000000  0.50000000  0.00000000  1
  Pt  Pt3  1  0.50000000  0.50000000  0.50000000  1
loop_
_geom_bond_atom_site_label_1
_geom_bond_atom_site_label_2
_geom_bond_distance
_geom_bond_site_symmetry_2
Ge0 Pt1 2.500940 1_556
Ge0 Pt0 2.500940 1_555
Ge0 Ge2 2.504112 1_555
Ge0 Ge3 2.613054 1_556
Ge0 La0 3.343070 1_556
Ge1 Pt1 2.500940 1_565
Ge1 Pt0 2.500940 1_665
Ge1 Ge3 2.504112 1_555
Ge1 Ge2 2.613054 1_554
Ge1 La0 3.343070 1_665
Ge2 Pt3 2.500940 1_555
Ge2 Pt2 2.500940 1_656
Ge2 La0 3.343070 1_666
Ge3 Pt3 2.500940 1_555
Ge3 Pt2 2.500940 1_555
Ge3 La0 3.343070 1_555
Ge4 Pt2 2.500937 1_555
Ge4 Pt0 2.500944 1_565
Ge4 Ge6 2.504108 1_555
Ge4 Ge7 2.613059 1_565
Ge4 La0 3.343075 1_565
Ge5 Pt0 2.500940 1_655
Ge5 Pt2 2.500940 1_656
Ge5 Ge7 2.504112 1_555
Ge5 Ge6 2.613054 1_545
Ge5 La0 3.343070 1_656
Ge6 Pt3 2.500940 1_555
Ge6 Pt1 2.500940 1_566
Ge6 La0 3.343070 1_666
Ge7 Pt3 2.500940 1_555
Ge7 Pt1 2.500940 1_555
Ge7 La0 3.343070 1_555
Ge8 Pt2 2.500940 1_655
Ge8 Pt1 2.500940 1_555
Ge8 La0 3.343070 1_655
Ge9 Pt1 2.500937 1_566
Ge9 Pt2 2.500944 1_556
Ge9 La0 3.343075 1_566
Ge10 Pt3 2.500933 1_555
Ge10 Pt0 2.500941 1_665
Ge10 Ge8 2.504117 1_555
Ge10 Ge9 2.613063 1_655
Ge10 La0 3.343067 1_666
Ge11 Pt3 2.500940 1_555
Ge11 Pt0 2.500940 1_555
Ge11 Ge9 2.504108 1_555
Ge11 Ge8 2.613054 1_455
Ge11 La0 3.343070 1_555
