# generated using pymatgen
data_Li5Mn2NiO8
_symmetry_space_group_name_H-M   'P 1'
_cell_length_a   5.73692100
_cell_length_b   10.09875073
_cell_length_c   5.81453688
_cell_angle_alpha   105.86123687
_cell_angle_beta   119.55736699
_cell_angle_gamma   73.49980500
_symmetry_Int_Tables_number   1
_chemical_formula_structural   Li5Mn2NiO8
_chemical_formula_sum   'Li10 Mn4 Ni2 O16'
_cell_volume   277.35629631
_cell_formula_units_Z   2
loop_
 _symmetry_equiv_pos_site_id
 _symmetry_equiv_pos_as_xyz
  1  'x, y, z'
loop_
 _atom_site_type_symbol
 _atom_site_label
 _atom_site_symmetry_multiplicity
 _atom_site_fract_x
 _atom_site_fract_y
 _atom_site_fract_z
 _atom_site_occupancy
  Li  Li0  1  0.50002300  0.99995400  0.99999900  1
  Li  Li1  1  0.99997600  0.50004700  0.50000100  1
  Li  Li2  1  0.99996500  0.00000100  0.99993100  1
  Li  Li3  1  0.50003600  0.49999800  0.50006900  1
  Li  Li4  1  0.25000000  0.25000000  0.75000100  1
  Li  Li5  1  0.74999900  0.75000000  0.25000000  1
  Li  Li6  1  0.00002100  0.99993300  0.50000700  1
  Li  Li7  1  0.49997900  0.50006600  0.99999300  1
  Li  Li8  1  0.50005200  0.99993400  0.50000700  1
  Li  Li9  1  0.99994800  0.50006600  0.99999300  1
  Mn  Mn0  1  0.25000400  0.75000000  0.75000800  1
  Mn  Mn1  1  0.75000300  0.75000300  0.75000600  1
  Mn  Mn2  1  0.74999300  0.25000100  0.24999500  1
  Mn  Mn3  1  0.25000400  0.25000200  0.24999900  1
  Ni  Ni0  1  0.24999700  0.75000100  0.24999600  1
  Ni  Ni1  1  0.74999900  0.25000100  0.75000200  1
  O  O0  1  0.61016000  0.13257100  0.35288500  1
  O  O1  1  0.11016200  0.63242800  0.85274300  1
  O  O2  1  0.88984100  0.36742900  0.14711600  1
  O  O3  1  0.38983700  0.86757000  0.64725400  1
  O  O4  1  0.11286300  0.13723500  0.36295000  1
  O  O5  1  0.61287400  0.63707800  0.86281500  1
  O  O6  1  0.38714000  0.36276300  0.13705200  1
  O  O7  1  0.88712600  0.86292100  0.63718300  1
  O  O8  1  0.11317200  0.14166500  0.89477200  1
  O  O9  1  0.61338800  0.64143100  0.39486100  1
  O  O10  1  0.63994000  0.14166200  0.89477100  1
  O  O11  1  0.14004200  0.64142900  0.39485800  1
  O  O12  1  0.38682700  0.35833500  0.60522900  1
  O  O13  1  0.88661100  0.85856900  0.10513700  1
  O  O14  1  0.86006100  0.35833700  0.60523000  1
  O  O15  1  0.35995400  0.85856800  0.10513900  1
loop_
_geom_bond_atom_site_label_1
_geom_bond_atom_site_label_2
_geom_bond_distance
_geom_bond_site_symmetry_2
Li0 O3 2.023801 1_555
Li0 O0 2.025469 1_566
Li0 O15 2.161403 1_556
Li0 O13 2.161442 1_556
Li0 O10 2.163868 1_565
Li0 O8 2.163946 1_565
Li1 O1 2.023775 1_655
Li1 O2 2.025470 1_555
Li1 O11 2.161368 1_655
Li1 O9 2.161437 1_555
Li1 O14 2.163881 1_555
Li1 O12 2.163950 1_655
Li2 O13 2.057855 1_546
Li2 O15 2.057916 1_646
Li2 O8 2.059150 1_655
Li2 O10 2.059184 1_555
Li2 O7 2.085699 1_545
Li2 O4 2.087505 1_656
Li3 O9 2.057863 1_555
Li3 O11 2.057925 1_555
Li3 O12 2.059153 1_555
Li3 O14 2.059184 1_555
Li3 O5 2.085691 1_555
Li3 O6 2.087501 1_555
Li4 O8 2.040796 1_555
Li4 O12 2.040797 1_555
Li4 O14 2.040900 1_455
Li4 O10 2.040907 1_555
Li4 O6 2.083698 1_556
Li4 O4 2.083705 1_555
Li5 O9 2.042059 1_555
Li5 O13 2.042072 1_555
Li5 O15 2.042148 1_555
Li5 O11 2.042149 1_655
Li5 O7 2.084842 1_555
Li5 O5 2.084854 1_554
Li6 O3 2.135308 1_555
Li6 O0 2.136660 1_465
Li6 O7 2.142923 1_455
Li6 O4 2.144678 1_565
Li6 O13 2.234961 1_455
Li6 O8 2.236219 1_565
Li7 O1 2.135309 1_555
Li7 O2 2.136659 1_556
Li7 O5 2.142931 1_555
Li7 O6 2.144683 1_556
Li7 O9 2.234958 1_556
Li7 O12 2.236211 1_555
Li8 O3 2.135275 1_555
Li8 O0 2.136602 1_565
Li8 O7 2.142968 1_555
Li8 O4 2.144702 1_565
Li8 O15 2.234966 1_555
Li8 O10 2.236201 1_565
Li9 O1 2.135267 1_655
Li9 O2 2.136603 1_556
Li9 O5 2.142964 1_555
Li9 O6 2.144723 1_656
Li9 O11 2.234939 1_656
Li9 O14 2.236201 1_555
Mn0 O15 1.932396 1_556
Mn0 O11 1.932488 1_555
Mn0 O5 1.943603 1_555
Mn0 O7 1.943630 1_455
Mn0 O1 1.952383 1_555
Mn0 O3 1.952404 1_555
Mn1 O13 1.932390 1_556
Mn1 O9 1.932474 1_555
Mn1 O7 1.943492 1_555
Mn1 O5 1.943516 1_555
Mn1 O3 1.952497 1_555
Mn1 O1 1.952503 1_655
Mn2 O10 1.931930 1_554
Mn2 O14 1.931964 1_555
Mn2 O6 1.942902 1_555
Mn2 O4 1.942987 1_655
Mn2 O0 1.951795 1_555
Mn2 O2 1.951798 1_555
Mn3 O12 1.931932 1_555
Mn3 O8 1.931938 1_554
Mn3 O6 1.942791 1_555
Mn3 O4 1.942877 1_555
Mn3 O0 1.951879 1_555
Mn3 O2 1.951893 1_455
Ni0 O15 1.931650 1_555
Ni0 O11 1.931703 1_555
Ni0 O13 1.931746 1_455
Ni0 O9 1.931776 1_555
Ni0 O1 2.145339 1_554
Ni0 O3 2.145346 1_555
Ni1 O10 1.929882 1_555
Ni1 O14 1.929884 1_555
Ni1 O12 1.929956 1_555
Ni1 O8 1.929967 1_655
Ni1 O2 2.144205 1_556
Ni1 O0 2.144225 1_555
