# generated using pymatgen
data_Ba2NbP2O9F
_symmetry_space_group_name_H-M   'P 1'
_cell_length_a   7.28321800
_cell_length_b   7.19516500
_cell_length_c   9.16346356
_cell_angle_alpha   88.80183306
_cell_angle_beta   90.00000000
_cell_angle_gamma   90.00000000
_symmetry_Int_Tables_number   1
_chemical_formula_structural   Ba2NbP2O9F
_chemical_formula_sum   'Ba4 Nb2 P4 O18 F2'
_cell_volume   480.09673978
_cell_formula_units_Z   2
loop_
 _symmetry_equiv_pos_site_id
 _symmetry_equiv_pos_as_xyz
  1  'x, y, z'
loop_
 _atom_site_type_symbol
 _atom_site_label
 _atom_site_symmetry_multiplicity
 _atom_site_fract_x
 _atom_site_fract_y
 _atom_site_fract_z
 _atom_site_occupancy
  Ba  Ba0  1  0.63604500  0.32896600  0.56761400  1
  Ba  Ba1  1  0.13604500  0.67103400  0.43238600  1
  Ba  Ba2  1  0.35982500  0.67190600  0.92817100  1
  Ba  Ba3  1  0.85982500  0.32809400  0.07182900  1
  Nb  Nb0  1  0.49377400  0.97644000  0.24850400  1
  Nb  Nb1  1  0.99377400  0.02356000  0.75149600  1
  P  P0  1  0.64427100  0.80500000  0.57337500  1
  P  P1  1  0.14427100  0.19500000  0.42662500  1
  P  P2  1  0.35653300  0.19579300  0.92703800  1
  P  P3  1  0.85653300  0.80420700  0.07296200  1
  O  O0  1  0.28114300  0.32272600  0.50067200  1
  O  O1  1  0.78114300  0.67727400  0.49932800  1
  O  O2  1  0.71846100  0.67729300  0.99946600  1
  O  O3  1  0.21846100  0.32270700  0.00053400  1
  O  O4  1  0.56610100  0.95798100  0.46202200  1
  O  O5  1  0.06610100  0.04201900  0.53797800  1
  O  O6  1  0.43534200  0.04467600  0.03850600  1
  O  O7  1  0.93534200  0.95532400  0.96149400  1
  O  O8  1  0.74008800  0.93230400  0.68852400  1
  O  O9  1  0.24008800  0.06769600  0.31147600  1
  O  O10  1  0.26134300  0.06686800  0.81155300  1
  O  O11  1  0.76134300  0.93313200  0.18844700  1
  O  O12  1  0.51654000  0.30650400  0.85978700  1
  O  O13  1  0.01654000  0.69349600  0.14021300  1
  O  O14  1  0.48411000  0.69407400  0.64002600  1
  O  O15  1  0.98411000  0.30592600  0.35997400  1
  O  O16  1  0.41963900  0.74015300  0.23217700  1
  O  O17  1  0.91963900  0.25984700  0.76782300  1
  F  F0  1  0.58478400  0.25990200  0.26803700  1
  F  F1  1  0.08478400  0.74009800  0.73196300  1
loop_
_geom_bond_atom_site_label_1
_geom_bond_atom_site_label_2
_geom_bond_distance
_geom_bond_site_symmetry_2
Ba0 O0 2.657215 1_555
Ba0 O1 2.779110 1_555
Ba0 O17 2.800206 1_555
Ba0 O12 2.816667 1_555
Ba0 F0 2.824764 1_555
Ba0 O4 2.903257 1_545
Ba0 O14 2.939200 1_555
Ba0 O8 3.132910 1_545
Ba0 O15 3.176057 1_555
Ba1 O1 2.657215 1_455
Ba1 O0 2.779110 1_555
Ba1 O16 2.800206 1_555
Ba1 O13 2.816667 1_555
Ba1 F1 2.824764 1_555
Ba1 O5 2.903257 1_565
Ba1 O15 2.939200 1_455
Ba1 O9 3.132910 1_565
Ba1 O14 3.176057 1_555
Ba2 O2 2.692962 1_555
Ba2 F1 2.729322 1_555
Ba2 O3 2.782615 1_556
Ba2 O14 2.792660 1_555
Ba2 O16 2.872022 1_556
Ba2 O6 2.938031 1_566
Ba2 O12 2.945616 1_555
Ba2 O10 3.099250 1_565
Ba2 O13 3.172263 1_556
Ba3 O3 2.692962 1_655
Ba3 F0 2.729322 1_555
Ba3 O2 2.782615 1_554
Ba3 O15 2.792660 1_555
Ba3 O17 2.872022 1_554
Ba3 O7 2.938031 1_544
Ba3 O13 2.945616 1_655
Ba3 O11 3.099250 1_545
Ba3 O12 3.172263 1_554
Nb0 O16 1.793036 1_555
Nb0 O6 2.021291 1_565
Nb0 O4 2.027907 1_555
Nb0 O9 2.047867 1_565
Nb0 O11 2.050564 1_555
Nb1 O17 1.793036 1_555
Nb1 O7 2.021291 1_545
Nb1 O5 2.027907 1_655
Nb1 O8 2.047867 1_545
Nb1 O10 2.050564 1_655
O0 P1 1.524730 1_555
O1 P0 1.524730 1_555
O2 P3 1.524603 1_556
O3 P2 1.524603 1_554
O4 P0 1.590575 1_555
O5 P1 1.590575 1_555
O6 P2 1.583850 1_554
O7 P3 1.583850 1_556
O8 P0 1.574738 1_555
O9 P1 1.574738 1_555
O10 P2 1.581800 1_555
O11 P3 1.581800 1_555
O12 P2 1.533578 1_555
O13 P3 1.533578 1_455
O14 P0 1.533082 1_555
O15 P1 1.533082 1_655
F0 Nb0 2.155564 1_545
F1 Nb1 2.155564 1_465
