# generated using pymatgen
data_Mg14CuB
_symmetry_space_group_name_H-M   'P 1'
_cell_length_a   6.21930327
_cell_length_b   6.27327072
_cell_length_c   9.98555831
_cell_angle_alpha   90.00000000
_cell_angle_beta   90.00000000
_cell_angle_gamma   120.28746915
_symmetry_Int_Tables_number   1
_chemical_formula_structural   Mg14CuB
_chemical_formula_sum   'Mg14 Cu1 B1'
_cell_volume   336.41349722
_cell_formula_units_Z   1
loop_
 _symmetry_equiv_pos_site_id
 _symmetry_equiv_pos_as_xyz
  1  'x, y, z'
loop_
 _atom_site_type_symbol
 _atom_site_label
 _atom_site_symmetry_multiplicity
 _atom_site_fract_x
 _atom_site_fract_y
 _atom_site_fract_z
 _atom_site_occupancy
  Mg  Mg0  1  0.17544065  0.33771983  0.62500000  1
  Mg  Mg1  1  0.17351108  0.83675504  0.62500000  1
  Mg  Mg2  1  0.75511678  0.38312946  0.12500000  1
  Mg  Mg3  1  0.66125620  0.33241060  0.62500000  1
  Mg  Mg4  1  0.75511678  0.87198632  0.12500000  1
  Mg  Mg5  1  0.66125620  0.82884460  0.62500000  1
  Mg  Mg6  1  0.31031094  0.14458302  0.31782654  1
  Mg  Mg7  1  0.31031094  0.14458302  0.93217346  1
  Mg  Mg8  1  0.31031094  0.66572893  0.31782654  1
  Mg  Mg9  1  0.31031094  0.66572893  0.93217346  1
  Mg  Mg10  1  0.82908615  0.16454358  0.37719700  1
  Mg  Mg11  1  0.82908615  0.16454358  0.87280300  1
  Mg  Mg12  1  0.82632569  0.66316334  0.37360351  1
  Mg  Mg13  1  0.82632569  0.66316334  0.87639649  1
  Cu  Cu0  1  0.14620489  0.32310194  0.12500000  1
  B  B0  1  0.12002997  0.81001449  0.12500000  1
loop_
_geom_bond_atom_site_label_1
_geom_bond_atom_site_label_2
_geom_bond_distance
_geom_bond_site_symmetry_2
Mg0 Mg5 3.038368 1_555
Mg0 Mg3 3.038368 1_555
Mg0 Mg11 3.095601 1_455
Mg0 Mg10 3.095601 1_455
Mg0 Mg1 3.136652 1_555
Mg0 Mg1 3.136653 1_545
Mg0 Mg5 3.181201 1_445
Mg0 Mg3 3.181201 1_455
Mg1 Mg3 3.058762 1_565
Mg1 Mg5 3.058762 1_555
Mg1 Mg12 3.127017 1_455
Mg1 Mg13 3.127017 1_455
Mg1 Mg3 3.161131 1_455
Mg1 Mg5 3.161131 1_455
Mg1 Mg9 3.493425 1_555
Mg1 Mg8 3.493425 1_555
Mg1 Mg6 3.493430 1_565
Mg1 Mg7 3.493430 1_565
Mg3 Mg5 3.114265 1_555
Mg3 Mg5 3.159006 1_545
Mg10 Mg2 3.011683 1_555
Mg10 Mg4 3.011689 1_545
Mg10 Mg3 3.070845 1_555
Mg10 Mg5 3.070851 1_545
Mg10 Mg8 3.114885 1_655
Mg10 Mg6 3.114885 1_655
Mg10 Mg12 3.136876 1_555
Mg10 Mg12 3.136876 1_545
Mg10 Mg8 3.220159 1_545
Mg10 Mg6 3.220159 1_555
Mg11 Mg2 3.011683 1_556
Mg11 Mg4 3.011689 1_546
Mg11 Mg3 3.070845 1_555
Mg11 Mg5 3.070851 1_545
Mg11 Mg9 3.114885 1_655
Mg11 Mg7 3.114885 1_655
Mg11 Mg13 3.136876 1_555
Mg11 Mg13 3.136876 1_545
Mg11 Mg9 3.220159 1_545
Mg11 Mg7 3.220159 1_555
Mg12 Mg4 2.942783 1_555
Mg12 Mg2 2.942789 1_555
Mg12 Mg6 3.053196 1_665
Mg12 Mg8 3.053197 1_655
Mg12 Mg5 3.084199 1_555
Mg12 Mg3 3.084205 1_555
Mg12 Mg6 3.265251 1_555
Mg12 Mg8 3.265252 1_555
Mg13 Mg4 2.942783 1_556
Mg13 Mg2 2.942789 1_556
Mg13 Mg7 3.053196 1_665
Mg13 Mg9 3.053197 1_655
Mg13 Mg5 3.084199 1_555
Mg13 Mg3 3.084205 1_555
Mg13 Mg7 3.265251 1_555
Mg13 Mg9 3.265252 1_555
Cu0 Mg4 2.642298 1_445
Cu0 Mg2 2.642298 1_455
Cu0 Mg6 2.675114 1_555
Cu0 Mg7 2.675114 1_554
Cu0 Mg9 2.675122 1_554
Cu0 Mg8 2.675122 1_555
Cu0 Mg11 3.040127 1_454
Cu0 Mg10 3.040127 1_455
B0 Mg2 2.488324 1_455
B0 Mg4 2.488324 1_455
B0 Mg8 2.647203 1_555
B0 Mg9 2.647203 1_554
B0 Mg7 2.647210 1_564
B0 Mg6 2.647210 1_565
B0 Mg12 2.941163 1_455
B0 Mg13 2.941163 1_454
