# generated using pymatgen
data_CaMnZnAs2H3O10
_symmetry_space_group_name_H-M   'P 1'
_cell_length_a   5.57859321
_cell_length_b   20.06231763
_cell_length_c   7.46565310
_cell_angle_alpha   93.26400217
_cell_angle_beta   68.65342070
_cell_angle_gamma   92.41321461
_symmetry_Int_Tables_number   1
_chemical_formula_structural   CaMnZnAs2H3O10
_chemical_formula_sum   'Ca4 Mn4 Zn4 As8 H12 O40'
_cell_volume   776.76181689
_cell_formula_units_Z   4
loop_
 _symmetry_equiv_pos_site_id
 _symmetry_equiv_pos_as_xyz
  1  'x, y, z'
loop_
 _atom_site_type_symbol
 _atom_site_label
 _atom_site_symmetry_multiplicity
 _atom_site_fract_x
 _atom_site_fract_y
 _atom_site_fract_z
 _atom_site_occupancy
  Ca  Ca0  1  0.25055500  0.25026000  0.25111800  1
  Ca  Ca1  1  0.50063600  0.50029200  0.50168400  1
  Ca  Ca2  1  0.75316200  0.74953700  0.74703000  1
  Ca  Ca3  1  0.00242300  0.99957700  0.99671200  1
  Mn  Mn0  1  0.00455600  0.50053700  0.00292100  1
  Mn  Mn1  1  0.25582500  0.74916700  0.24797800  1
  Mn  Mn2  1  0.75574500  0.25040200  0.75376300  1
  Mn  Mn3  1  0.50681500  0.99908200  0.49844100  1
  Zn  Zn0  1  0.12805600  0.12764300  0.63089400  1
  Zn  Zn1  1  0.37647400  0.37856200  0.88777300  1
  Zn  Zn2  1  0.62895700  0.62767700  0.13189100  1
  Zn  Zn3  1  0.88045500  0.87684700  0.37489900  1
  As  As0  1  0.73455300  0.14728300  0.34778400  1
  As  As1  1  0.97837600  0.39965400  0.60745700  1
  As  As2  1  0.22876400  0.64893300  0.85452900  1
  As  As3  1  0.48453700  0.89656700  0.09516800  1
  As  As4  1  0.51972900  0.10284700  0.90262800  1
  As  As5  1  0.76990800  0.35375900  0.15487600  1
  As  As6  1  0.02668300  0.60146200  0.39538300  1
  As  As7  1  0.27748000  0.85044700  0.64240900  1
  H  H0  1  0.26135100  0.04959400  0.30230700  1
  H  H1  1  0.51165800  0.30031100  0.55376500  1
  H  H2  1  0.75783200  0.54907200  0.80473000  1
  H  H3  1  0.00809100  0.79820900  0.05273900  1
  H  H4  1  0.99417000  0.20318900  0.93845000  1
  H  H5  1  0.24622700  0.45532700  0.18962900  1
  H  H6  1  0.49694700  0.70444500  0.43702500  1
  H  H7  1  0.74456100  0.95246800  0.68605200  1
  H  H8  1  0.03827100  0.00613300  0.48460600  1
  H  H9  1  0.28894700  0.25722100  0.73646300  1
  H  H10  1  0.53515900  0.50717900  0.98758300  1
  H  H11  1  0.78516200  0.75603000  0.23516600  1
  O  O0  1  0.42154900  0.17135800  0.40741800  1
  O  O1  1  0.66559400  0.42231200  0.66173200  1
  O  O2  1  0.91666900  0.67260600  0.91015900  1
  O  O3  1  0.17220200  0.92161400  0.15587200  1
  O  O4  1  0.74036500  0.05990900  0.30970800  1
  O  O5  1  0.99189000  0.31245200  0.57011100  1
  O  O6  1  0.24109600  0.56201900  0.81719100  1
  O  O7  1  0.48947300  0.80951800  0.05737100  1
  O  O8  1  0.83185500  0.07850400  0.84206700  1
  O  O9  1  0.08119300  0.32834000  0.09340200  1
  O  O10  1  0.33778600  0.57736400  0.33973800  1
  O  O11  1  0.58947400  0.82751100  0.58795000  1
  O  O12  1  0.51261200  0.19023300  0.93881000  1
  O  O13  1  0.76232900  0.44081500  0.19046200  1
  O  O14  1  0.01140000  0.68837700  0.43085600  1
  O  O15  1  0.26231000  0.93770200  0.67852000  1
  O  O16  1  0.85705000  0.17123800  0.52595500  1
  O  O17  1  0.09818500  0.42576000  0.78890100  1
  O  O18  1  0.34820300  0.67408000  0.03688000  1
  O  O19  1  0.60656900  0.91970700  0.27419500  1
  O  O20  1  0.39117100  0.07820900  0.72769000  1
  O  O21  1  0.64200000  0.32962200  0.97917000  1
  O  O22  1  0.90391600  0.57552400  0.21493800  1
  O  O23  1  0.15373200  0.82388500  0.46300100  1
  O  O24  1  0.94359800  0.18502500  0.15322000  1
  O  O25  1  0.19135700  0.43564000  0.41216700  1
  O  O26  1  0.44004000  0.68613800  0.66071500  1
  O  O27  1  0.69201400  0.93543300  0.90208300  1
  O  O28  1  0.31015300  0.06525800  0.09842800  1
  O  O29  1  0.56192500  0.31501700  0.34922100  1
  O  O30  1  0.81434200  0.56438700  0.59009700  1
  O  O31  1  0.06353600  0.81459500  0.83861900  1
  O  O32  1  0.20826200  0.03608300  0.44468100  1
  O  O33  1  0.45845700  0.28707100  0.69650200  1
  O  O34  1  0.70667800  0.53699100  0.94568600  1
  O  O35  1  0.95705600  0.78586500  0.19332500  1
  O  O36  1  0.04821100  0.21628900  0.79939400  1
  O  O37  1  0.29697200  0.46686100  0.05108100  1
  O  O38  1  0.54785800  0.71568500  0.29814200  1
  O  O39  1  0.79885200  0.96530400  0.54669100  1
loop_
_geom_bond_atom_site_label_1
_geom_bond_atom_site_label_2
_geom_bond_distance
_geom_bond_site_symmetry_2
Ca0 O24 2.406824 1_455
Ca0 O29 2.422653 1_555
Ca0 O9 2.424338 1_555
Ca0 O0 2.434164 1_555
Ca0 O12 2.524039 1_554
Ca0 O5 2.573316 1_455
Ca0 O21 2.876330 1_554
Ca0 O16 2.888001 1_455
Ca1 O25 2.378675 1_555
Ca1 O30 2.388856 1_555
Ca1 O10 2.410138 1_555
Ca1 O1 2.420053 1_555
Ca1 O13 2.513002 1_555
Ca1 O6 2.552281 1_555
Ca1 O17 2.907217 1_555
Ca1 O22 2.915124 1_555
Ca2 O26 2.371357 1_555
Ca2 O31 2.395625 1_655
Ca2 O11 2.410987 1_555
Ca2 O2 2.416329 1_555
Ca2 O7 2.516015 1_556
Ca2 O14 2.548734 1_655
Ca2 O23 2.888693 1_655
Ca2 O18 2.933243 1_556
Ca3 O27 2.398579 1_455
Ca3 O8 2.424977 1_465
Ca3 O28 2.429958 1_566
Ca3 O3 2.431281 1_556
Ca3 O4 2.530314 1_466
Ca3 O15 2.567957 1_555
Ca3 O20 2.850834 1_565
Ca3 O19 2.912949 1_456
Mn0 O37 1.947882 1_555
Mn0 O13 1.974639 1_455
Mn0 O6 1.977620 1_554
Mn0 O34 2.033151 1_454
Mn0 O22 2.058366 1_455
Mn0 O17 2.064421 1_554
Mn1 O38 1.952058 1_555
Mn1 O7 1.975561 1_555
Mn1 O14 1.976098 1_555
Mn1 O35 2.029557 1_455
Mn1 O18 2.054838 1_555
Mn1 O23 2.068971 1_555
Mn2 O36 1.942063 1_655
Mn2 O12 1.973127 1_555
Mn2 O5 1.976436 1_555
Mn2 O33 2.032020 1_555
Mn2 O21 2.182537 1_555
Mn2 O16 2.191476 1_555
Mn3 O39 1.947085 1_555
Mn3 O15 1.973925 1_555
Mn3 O4 1.974198 1_565
Mn3 O32 2.027494 1_565
Mn3 O19 2.177409 1_555
Mn3 O20 2.199657 1_565
As0 O24 1.691413 1_555
As0 O0 1.720763 1_555
As0 O16 1.740283 1_555
As0 O4 1.759527 1_555
As1 O25 1.686734 1_655
As1 O1 1.716547 1_555
As1 O5 1.756229 1_555
As1 O17 1.762048 1_655
As2 O26 1.687391 1_555
As2 O2 1.717575 1_455
As2 O6 1.750344 1_555
As2 O18 1.762289 1_556
As3 O27 1.692016 1_554
As3 O3 1.722423 1_555
As3 O19 1.740827 1_555
As3 O7 1.752880 1_555
As4 O28 1.696897 1_556
As4 O8 1.717010 1_555
As4 O20 1.744391 1_555
As4 O12 1.758482 1_555
As5 O29 1.697754 1_555
As5 O9 1.718707 1_655
As5 O21 1.744806 1_554
As5 O13 1.751568 1_555
As6 O30 1.692603 1_455
As6 O10 1.715003 1_555
As6 O14 1.749699 1_555
As6 O22 1.765349 1_455
As7 O31 1.691880 1_555
As7 O11 1.713857 1_555
As7 O15 1.756801 1_555
As7 O23 1.765058 1_555
H0 O32 1.042999 1_555
H0 O28 1.495065 1_555
H1 O33 1.043812 1_555
H1 O29 1.493374 1_555
H2 O34 1.025754 1_555
H2 O30 1.562545 1_555
H3 O35 1.024741 1_455
H3 O31 1.565378 1_554
H4 O36 1.016980 1_655
H4 O24 1.584876 1_556
H5 O37 1.006049 1_555
H5 O25 1.644453 1_555
H6 O38 1.006689 1_555
H6 O26 1.642745 1_555
H7 O39 1.017378 1_555
H7 O27 1.585571 1_555
H8 O32 1.056317 1_555
H8 O39 1.473125 1_445
H9 O33 1.053148 1_555
H9 O36 1.479988 1_555
H10 O34 1.061280 1_555
H10 O37 1.462584 1_556
H11 O35 1.063143 1_555
H11 O38 1.459001 1_555
O0 Zn0 2.071333 1_555
O1 Zn1 2.070634 1_555
O2 Zn2 2.059772 1_556
O3 Zn3 2.058151 1_455
O8 Zn0 2.081113 1_655
O9 Zn1 2.068987 1_554
O10 Zn2 2.066508 1_555
O11 Zn3 2.075783 1_555
O16 Zn0 2.171642 1_655
O17 Zn1 2.211168 1_555
O18 Zn2 2.197634 1_555
O19 Zn3 2.158615 1_555
O20 Zn0 2.153298 1_555
O21 Zn1 2.135027 1_555
O22 Zn2 2.175624 1_555
O23 Zn3 2.198115 1_455
O32 Zn0 2.198330 1_555
O33 Zn1 2.216790 1_555
O34 Zn2 2.184083 1_556
O35 Zn3 2.171206 1_555
O36 Zn0 2.085128 1_555
O37 Zn1 2.061034 1_554
O38 Zn2 2.066787 1_555
O39 Zn3 2.094118 1_555
