# generated using pymatgen
data_Ba2Mg2Tl2Cr3O10
_symmetry_space_group_name_H-M   'P 1'
_cell_length_a   3.80410000
_cell_length_b   3.88540093
_cell_length_c   19.49875958
_cell_angle_alpha   91.79687357
_cell_angle_beta   95.20195065
_cell_angle_gamma   90.10006930
_symmetry_Int_Tables_number   1
_chemical_formula_structural   Ba2Mg2Tl2Cr3O10
_chemical_formula_sum   'Ba2 Mg2 Tl2 Cr3 O10'
_cell_volume   286.86932298
_cell_formula_units_Z   1
loop_
 _symmetry_equiv_pos_site_id
 _symmetry_equiv_pos_as_xyz
  1  'x, y, z'
loop_
 _atom_site_type_symbol
 _atom_site_label
 _atom_site_symmetry_multiplicity
 _atom_site_fract_x
 _atom_site_fract_y
 _atom_site_fract_z
 _atom_site_occupancy
  Ba  Ba0  1  0.16598200  0.17095000  0.28909300  1
  Ba  Ba1  1  0.83092900  0.90288700  0.70147000  1
  Mg  Mg0  1  0.92694600  0.93202600  0.89101100  1
  Mg  Mg1  1  0.05568000  0.13901600  0.09411000  1
  Tl  Tl0  1  0.71950500  0.76798800  0.43963900  1
  Tl  Tl1  1  0.27008800  0.31010000  0.55650700  1
  Cr  Cr0  1  0.39259100  0.42320200  0.82440200  1
  Cr  Cr1  1  0.62041400  0.64505300  0.17525600  1
  Cr  Cr2  1  0.49501900  0.66514300  0.00425500  1
  O  O0  1  0.90268800  0.42152200  0.84624200  1
  O  O1  1  0.34238100  0.41473900  0.72563800  1
  O  O2  1  0.40689500  0.92682400  0.85062500  1
  O  O3  1  0.77798600  0.74467600  0.56760900  1
  O  O4  1  0.50437500  0.17568000  0.02895200  1
  O  O5  1  0.64294400  0.14298900  0.16766700  1
  O  O6  1  0.65820800  0.66300400  0.27314800  1
  O  O7  1  0.10898300  0.64147300  0.14002100  1
  O  O8  1  0.21146200  0.20002900  0.43056500  1
  O  O9  1  0.98488600  0.70257200  0.98475200  1
loop_
_geom_bond_atom_site_label_1
_geom_bond_atom_site_label_2
_geom_bond_distance
_geom_bond_site_symmetry_2
Ba0 O6 2.718134 1_555
Ba0 O6 2.724737 1_455
Ba0 O8 2.747002 1_555
Ba0 O6 2.749932 1_445
Ba0 O6 2.752784 1_545
Ba0 O5 2.950480 1_455
Ba0 O5 3.110182 1_555
Ba1 O3 2.652320 1_555
Ba1 O1 2.734205 1_555
Ba1 O1 2.739974 1_655
Ba1 O1 2.779221 1_665
Ba1 O1 2.782825 1_565
Mg0 O2 2.052760 1_655
Mg0 O9 2.052849 1_555
Mg0 O2 2.061715 1_555
Mg0 O0 2.116091 1_565
Mg0 O0 2.140334 1_555
Mg1 O7 2.123648 1_555
Mg1 O7 2.157911 1_545
Mg1 O5 2.220269 1_455
Mg1 O4 2.225229 1_555
Mg1 O4 2.358394 1_455
Mg1 O5 2.542763 1_555
Mg1 O9 2.676291 1_444
Cr0 O1 1.917155 1_555
Cr0 O0 1.948628 1_555
Cr0 O0 1.948998 1_455
Cr0 O2 2.006291 1_555
Cr0 O2 2.010267 1_545
Cr1 O6 1.900211 1_555
Cr1 O5 1.947282 1_565
Cr1 O5 1.954311 1_555
Cr1 O7 2.003559 1_555
Cr1 O7 2.038999 1_655
Cr2 O9 1.941503 1_554
Cr2 O9 1.949953 1_454
Cr2 O4 1.975961 1_555
Cr2 O4 2.026015 1_565
O3 Tl0 2.489495 1_555
O3 Tl1 2.542421 1_655
O3 Tl1 2.553572 1_555
O8 Tl1 2.469344 1_555
O8 Tl0 2.533617 1_445
O8 Tl0 2.559737 1_545
