# generated using pymatgen
data_K2Na2Nb(WO4)3
_symmetry_space_group_name_H-M   'P 1'
_cell_length_a   3.99291900
_cell_length_b   8.02444700
_cell_length_c   8.03103500
_cell_angle_alpha   90.00000000
_cell_angle_beta   90.00000000
_cell_angle_gamma   90.00000000
_symmetry_Int_Tables_number   1
_chemical_formula_structural   K2Na2Nb(WO4)3
_chemical_formula_sum   'K2 Na2 Nb1 W3 O12'
_cell_volume   257.32212653
_cell_formula_units_Z   1
loop_
 _symmetry_equiv_pos_site_id
 _symmetry_equiv_pos_as_xyz
  1  'x, y, z'
loop_
 _atom_site_type_symbol
 _atom_site_label
 _atom_site_symmetry_multiplicity
 _atom_site_fract_x
 _atom_site_fract_y
 _atom_site_fract_z
 _atom_site_occupancy
  K  K0  1  0.50000000  0.25125700  0.25117100  1
  K  K1  1  0.50000000  0.25125700  0.74882900  1
  Na  Na0  1  0.50000000  0.74852500  0.25129600  1
  Na  Na1  1  0.50000000  0.74852500  0.74870400  1
  Nb  Nb0  1  0.00000000  0.50273300  0.50000000  1
  W  W0  1  0.00000000  0.99800200  0.00000000  1
  W  W1  1  0.00000000  0.50208000  0.00000000  1
  W  W2  1  0.00000000  0.99812100  0.50000000  1
  O  O0  1  0.50000000  0.99592900  0.00000000  1
  O  O1  1  0.50000000  0.50384300  0.00000000  1
  O  O2  1  0.50000000  0.99610000  0.50000000  1
  O  O3  1  0.50000000  0.50404100  0.50000000  1
  O  O4  1  0.00000000  0.99546900  0.25870500  1
  O  O5  1  0.00000000  0.50411600  0.24889600  1
  O  O6  1  0.00000000  0.99546900  0.74129500  1
  O  O7  1  0.00000000  0.50411600  0.75110400  1
  O  O8  1  0.00000000  0.25909400  0.00000000  1
  O  O9  1  0.00000000  0.74232200  0.00000000  1
  O  O10  1  0.00000000  0.24840600  0.50000000  1
  O  O11  1  0.00000000  0.75059600  0.50000000  1
loop_
_geom_bond_atom_site_label_1
_geom_bond_atom_site_label_2
_geom_bond_distance
_geom_bond_site_symmetry_2
K0 O10 2.824853 1_655
K0 O10 2.824853 1_555
K0 O8 2.838794 1_555
K0 O8 2.838794 1_655
K0 O5 2.846620 1_655
K0 O5 2.846620 1_555
K0 O3 2.847462 1_555
K0 O1 2.859566 1_555
K0 O2 2.861058 1_545
K0 O4 2.864001 1_545
K0 O4 2.864001 1_645
K0 O0 2.875204 1_545
K1 O10 2.824853 1_655
K1 O10 2.824853 1_555
K1 O8 2.838794 1_556
K1 O8 2.838794 1_656
K1 O7 2.846620 1_655
K1 O7 2.846620 1_555
K1 O3 2.847462 1_555
K1 O1 2.859566 1_556
K1 O2 2.861058 1_545
K1 O6 2.864001 1_545
K1 O6 2.864001 1_645
K1 O0 2.875204 1_546
Na0 O5 2.798698 1_555
Na0 O5 2.798698 1_655
Na0 O3 2.799689 1_555
Na0 O4 2.813554 1_555
Na0 O4 2.813554 1_655
Na0 O1 2.815686 1_555
Na0 O2 2.817126 1_555
Na0 O11 2.824099 1_655
Na0 O11 2.824099 1_555
Na0 O0 2.830960 1_555
Na0 O9 2.839247 1_555
Na0 O9 2.839247 1_655
Na1 O7 2.798698 1_555
Na1 O7 2.798698 1_655
Na1 O3 2.799689 1_555
Na1 O6 2.813554 1_655
Na1 O6 2.813554 1_555
Na1 O1 2.815686 1_556
Na1 O2 2.817126 1_555
Na1 O11 2.824099 1_555
Na1 O11 2.824099 1_655
Na1 O0 2.830960 1_556
Na1 O9 2.839247 1_556
Na1 O9 2.839247 1_656
Nb0 O11 1.988964 1_555
Nb0 O3 1.996487 1_455
Nb0 O3 1.996487 1_555
Nb0 O7 2.016656 1_555
Nb0 O5 2.016656 1_555
Nb0 O10 2.040834 1_555
O0 W0 1.996529 1_555
O0 W0 1.996529 1_655
O1 W1 1.996510 1_655
O1 W1 1.996510 1_555
O2 W2 1.996525 1_655
O2 W2 1.996525 1_555
O4 W2 1.937965 1_555
O4 W0 2.077768 1_555
O5 W1 1.998959 1_555
O6 W2 1.937965 1_555
O6 W0 2.077768 1_556
O7 W1 1.998959 1_556
O8 W1 1.949828 1_555
O8 W0 2.095119 1_545
O9 W1 1.927809 1_555
O9 W0 2.051691 1_555
O10 W2 2.008399 1_545
O11 W2 1.986251 1_555
