# generated using pymatgen
data_SrHg3
_symmetry_space_group_name_H-M   'P 1'
_cell_length_a   5.22319400
_cell_length_b   6.95448125
_cell_length_c   6.95448125
_cell_angle_alpha   120.01562324
_cell_angle_beta   90.00000000
_cell_angle_gamma   90.00000000
_symmetry_Int_Tables_number   1
_chemical_formula_structural   SrHg3
_chemical_formula_sum   'Sr2 Hg6'
_cell_volume   218.73983350
_cell_formula_units_Z   2
loop_
 _symmetry_equiv_pos_site_id
 _symmetry_equiv_pos_as_xyz
  1  'x, y, z'
loop_
 _atom_site_type_symbol
 _atom_site_label
 _atom_site_symmetry_multiplicity
 _atom_site_fract_x
 _atom_site_fract_y
 _atom_site_fract_z
 _atom_site_occupancy
  Sr  Sr0  1  0.75000000  0.66666929  0.33333071  1
  Sr  Sr1  1  0.25000000  0.33333071  0.66666929  1
  Hg  Hg0  1  0.75000000  0.15620337  0.31230635  1
  Hg  Hg1  1  0.75000000  0.15625336  0.84374664  1
  Hg  Hg2  1  0.75000000  0.68769365  0.84379663  1
  Hg  Hg3  1  0.25000000  0.84379663  0.68769365  1
  Hg  Hg4  1  0.25000000  0.84374664  0.15625336  1
  Hg  Hg5  1  0.25000000  0.31230635  0.15620337  1
loop_
_geom_bond_atom_site_label_1
_geom_bond_atom_site_label_2
_geom_bond_distance
_geom_bond_site_symmetry_2
Hg0 Sr1 3.372535 1_555
Hg0 Sr1 3.372535 1_655
Hg0 Sr0 3.479189 1_555
Hg0 Sr0 3.479901 1_545
Hg1 Sr1 3.372061 1_655
Hg1 Sr1 3.372061 1_555
Hg1 Sr0 3.478683 1_545
Hg1 Sr0 3.478683 1_556
Hg2 Sr1 3.372535 1_555
Hg2 Sr1 3.372535 1_655
Hg2 Sr0 3.479189 1_555
Hg2 Sr0 3.479901 1_556
Hg3 Sr0 3.372535 1_555
Hg3 Sr0 3.372535 1_455
Hg3 Sr1 3.479189 1_555
Hg3 Sr1 3.479901 1_565
Hg4 Sr0 3.372061 1_455
Hg4 Sr0 3.372061 1_555
Hg4 Sr1 3.478683 1_565
Hg4 Sr1 3.478683 1_554
Hg5 Sr0 3.372535 1_455
Hg5 Sr0 3.372535 1_555
Hg5 Sr1 3.479189 1_555
Hg5 Sr1 3.479901 1_554
