# generated using pymatgen
data_Sm2Ge6Pd
_symmetry_space_group_name_H-M   'P 1'
_cell_length_a   4.10248200
_cell_length_b   4.15566200
_cell_length_c   11.31864556
_cell_angle_alpha   90.00000000
_cell_angle_beta   100.44122087
_cell_angle_gamma   90.00000000
_symmetry_Int_Tables_number   1
_chemical_formula_structural   Sm2Ge6Pd
_chemical_formula_sum   'Sm2 Ge6 Pd1'
_cell_volume   189.77099019
_cell_formula_units_Z   1
loop_
 _symmetry_equiv_pos_site_id
 _symmetry_equiv_pos_as_xyz
  1  'x, y, z'
loop_
 _atom_site_type_symbol
 _atom_site_label
 _atom_site_symmetry_multiplicity
 _atom_site_fract_x
 _atom_site_fract_y
 _atom_site_fract_z
 _atom_site_occupancy
  Sm  Sm0  1  0.77860900  0.50000000  0.55721700  1
  Sm  Sm1  1  0.11638200  0.50000000  0.23276400  1
  Ge  Ge0  1  0.49473300  0.50000000  0.98946600  1
  Ge  Ge1  1  0.38242300  0.50000000  0.76484600  1
  Ge  Ge2  1  0.99343400  0.00000000  0.98686700  1
  Ge  Ge3  1  0.88071800  0.00000000  0.76143600  1
  Ge  Ge4  1  0.66719900  0.00000000  0.33439900  1
  Ge  Ge5  1  0.23618200  0.00000000  0.47236300  1
  Pd  Pd0  1  0.55732100  0.00000000  0.11464100  1
loop_
_geom_bond_atom_site_label_1
_geom_bond_atom_site_label_2
_geom_bond_distance
_geom_bond_site_symmetry_2
Ge0 Ge1 2.500296 1_555
Ge0 Pd0 2.501761 1_556
Ge0 Pd0 2.501761 1_566
Ge0 Ge2 2.919897 1_455
Ge0 Ge2 2.919897 1_465
Ge0 Ge2 2.919900 1_565
Ge0 Ge2 2.919900 1_555
Ge0 Sm1 3.397346 1_556
Ge0 Sm1 3.397346 1_656
Ge1 Ge3 2.920002 1_465
Ge1 Ge3 2.920002 1_455
Ge1 Ge3 2.920002 1_565
Ge1 Ge3 2.920002 1_555
Ge1 Sm0 3.090156 1_455
Ge1 Sm0 3.090159 1_555
Ge2 Pd0 2.496092 1_556
Ge2 Pd0 2.496092 1_656
Ge2 Ge3 2.509323 1_555
Ge2 Sm1 3.436464 1_646
Ge2 Sm1 3.436464 1_656
Ge3 Sm0 3.079749 1_555
Ge3 Sm0 3.079749 1_545
Ge4 Pd0 2.446176 1_555
Ge4 Ge5 2.562415 1_555
Ge4 Ge5 2.562422 1_655
Ge4 Sm1 3.131270 1_555
Ge4 Sm1 3.131270 1_545
Ge4 Sm1 3.131273 1_645
Ge4 Sm1 3.131273 1_655
Ge4 Sm0 3.235577 1_545
Ge4 Sm0 3.235577 1_555
Ge5 Sm0 3.068730 1_555
Ge5 Sm0 3.068730 1_445
Ge5 Sm0 3.068730 1_545
Ge5 Sm0 3.068730 1_455
Ge5 Sm1 3.380892 1_555
Ge5 Sm1 3.380892 1_545
Pd0 Sm1 3.202156 1_655
Pd0 Sm1 3.202156 1_645
Pd0 Sm1 3.202159 1_555
Pd0 Sm1 3.202159 1_545
