# generated using pymatgen
data_Cs2La10Ru2I17
_symmetry_space_group_name_H-M   'P 1'
_cell_length_a   11.92790395
_cell_length_b   11.92790395
_cell_length_c   10.14047843
_cell_angle_alpha   86.88956555
_cell_angle_beta   86.88956555
_cell_angle_gamma   107.71069912
_symmetry_Int_Tables_number   1
_chemical_formula_structural   Cs2La10Ru2I17
_chemical_formula_sum   'Cs2 La10 Ru2 I17'
_cell_volume   1368.52866437
_cell_formula_units_Z   1
loop_
 _symmetry_equiv_pos_site_id
 _symmetry_equiv_pos_as_xyz
  1  'x, y, z'
loop_
 _atom_site_type_symbol
 _atom_site_label
 _atom_site_symmetry_multiplicity
 _atom_site_fract_x
 _atom_site_fract_y
 _atom_site_fract_z
 _atom_site_occupancy
  Cs  Cs0  1  0.67462400  0.32537600  0.00000000  1
  Cs  Cs1  1  0.32537600  0.67462400  0.00000000  1
  La  La0  1  0.70816400  0.00868000  0.42784500  1
  La  La1  1  0.29183600  0.99132000  0.57215500  1
  La  La2  1  0.99132000  0.29183600  0.57215500  1
  La  La3  1  0.00868000  0.70816400  0.42784500  1
  La  La4  1  0.66924600  0.66924600  0.55669200  1
  La  La5  1  0.33075400  0.33075400  0.44330800  1
  La  La6  1  0.93500400  0.93500400  0.67821100  1
  La  La7  1  0.06499600  0.06499600  0.32178900  1
  La  La8  1  0.79377400  0.79377400  0.18411900  1
  La  La9  1  0.20622600  0.20622600  0.81588100  1
  Ru  Ru0  1  0.85736200  0.85736200  0.42832500  1
  Ru  Ru1  1  0.14263800  0.14263800  0.57167500  1
  I  I0  1  0.61545100  0.95012700  0.13901300  1
  I  I1  1  0.38454900  0.04987300  0.86098700  1
  I  I2  1  0.04987300  0.38454900  0.86098700  1
  I  I3  1  0.95012700  0.61545100  0.13901300  1
  I  I4  1  0.52684700  0.18816700  0.42054100  1
  I  I5  1  0.47315300  0.81183300  0.57945900  1
  I  I6  1  0.81183300  0.47315300  0.57945900  1
  I  I7  1  0.18816700  0.52684700  0.42054100  1
  I  I8  1  0.56252900  0.56252900  0.28090200  1
  I  I9  1  0.43747100  0.43747100  0.71909800  1
  I  I10  1  0.24738900  0.89945000  0.27250400  1
  I  I11  1  0.75261100  0.10055000  0.72749600  1
  I  I12  1  0.10055000  0.75261100  0.72749600  1
  I  I13  1  0.89945000  0.24738900  0.27250400  1
  I  I14  1  0.28932000  0.28932000  0.13112500  1
  I  I15  1  0.71068000  0.71068000  0.86887500  1
  I  I16  1  0.00000000  0.00000000  0.00000000  1
loop_
_geom_bond_atom_site_label_1
_geom_bond_atom_site_label_2
_geom_bond_distance
_geom_bond_site_symmetry_2
Cs0 I13 4.211386 1_555
Cs0 I11 4.211386 1_554
Cs0 I3 4.344165 1_555
Cs0 I1 4.344165 1_554
Cs0 I2 4.450224 1_654
Cs0 I0 4.450224 1_545
Cs0 I6 4.543461 1_554
Cs0 I4 4.543461 1_555
Cs0 I8 4.545944 1_555
Cs0 I9 4.545944 1_554
Cs0 I14 4.598607 1_555
Cs0 I15 4.598607 1_554
Cs1 I10 4.211386 1_555
Cs1 I12 4.211386 1_554
Cs1 I0 4.344165 1_555
Cs1 I2 4.344165 1_554
Cs1 I1 4.450224 1_564
Cs1 I3 4.450224 1_455
Cs1 I5 4.543461 1_554
Cs1 I7 4.543461 1_555
Cs1 I8 4.545944 1_555
Cs1 I9 4.545944 1_554
Cs1 I14 4.598607 1_555
Cs1 I15 4.598607 1_554
La0 Ru0 2.894654 1_545
La1 Ru1 2.894654 1_565
La2 Ru1 2.894654 1_655
La3 Ru0 2.894654 1_455
La4 Ru0 2.840206 1_555
La5 Ru1 2.840206 1_555
La6 Ru0 2.850233 1_555
La6 Ru1 3.020259 1_665
La7 Ru1 2.850233 1_555
La7 Ru0 3.020259 1_445
La8 Ru0 2.709353 1_555
La9 Ru1 2.709353 1_555
I0 La0 3.223775 1_565
I0 La8 3.261597 1_555
I1 La1 3.223775 1_545
I1 La9 3.261597 1_555
I2 La2 3.223775 1_455
I2 La9 3.261597 1_555
I3 La3 3.223775 1_655
I3 La8 3.261597 1_555
I4 La5 3.289538 1_555
I4 La1 3.297059 1_545
I4 La0 3.476155 1_555
I5 La4 3.289538 1_555
I5 La0 3.297059 1_565
I5 La1 3.476155 1_555
I6 La4 3.289538 1_555
I6 La3 3.297059 1_655
I6 La2 3.476155 1_555
I7 La5 3.289538 1_555
I7 La2 3.297059 1_455
I7 La3 3.476155 1_555
I8 La4 3.293726 1_555
I8 La8 3.311018 1_555
I8 La5 3.515649 1_555
I9 La5 3.293726 1_555
I9 La9 3.311018 1_555
I9 La4 3.515649 1_555
I10 La1 3.301167 1_555
I10 La3 3.311337 1_555
I10 La7 3.388923 1_565
I11 La0 3.301167 1_555
I11 La2 3.311337 1_555
I11 La6 3.388923 1_545
I12 La3 3.301167 1_555
I12 La1 3.311337 1_555
I12 La6 3.388923 1_455
I13 La2 3.301167 1_555
I13 La0 3.311337 1_555
I13 La7 3.388923 1_655
I14 La5 3.271243 1_555
I14 La9 3.503391 1_554
I14 La7 3.546581 1_555
I15 La4 3.271243 1_555
I15 La8 3.503391 1_556
I15 La6 3.546581 1_555
I16 La9 3.302922 1_554
I16 La8 3.302922 1_445
I16 La7 3.468896 1_555
I16 La6 3.468896 1_444
