# generated using pymatgen
data_BaCuO6
_symmetry_space_group_name_H-M   'P 1'
_cell_length_a   9.24864000
_cell_length_b   10.39902698
_cell_length_c   14.40026232
_cell_angle_alpha   110.46283932
_cell_angle_beta   108.57596889
_cell_angle_gamma   90.50315456
_symmetry_Int_Tables_number   1
_chemical_formula_structural   BaCuO6
_chemical_formula_sum   'Ba8 Cu8 O48'
_cell_volume   1218.66930181
_cell_formula_units_Z   8
loop_
 _symmetry_equiv_pos_site_id
 _symmetry_equiv_pos_as_xyz
  1  'x, y, z'
loop_
 _atom_site_type_symbol
 _atom_site_label
 _atom_site_symmetry_multiplicity
 _atom_site_fract_x
 _atom_site_fract_y
 _atom_site_fract_z
 _atom_site_occupancy
  Ba  Ba0  1  0.01452400  0.25750800  0.50610700  1
  Ba  Ba1  1  0.46364700  0.74223600  0.46481700  1
  Ba  Ba2  1  0.50654600  0.23646100  0.48120200  1
  Ba  Ba3  1  0.99688800  0.74319000  0.50216400  1
  Ba  Ba4  1  0.24008200  0.98623200  0.98942600  1
  Ba  Ba5  1  0.22443100  0.46359100  0.96096200  1
  Ba  Ba6  1  0.74955600  0.53224600  0.00492100  1
  Ba  Ba7  1  0.76834700  0.99305900  0.00632400  1
  Cu  Cu0  1  0.96092400  0.68482400  0.90363400  1
  Cu  Cu1  1  0.27755200  0.02439300  0.57130100  1
  Cu  Cu2  1  0.47255500  0.20791700  0.94000800  1
  Cu  Cu3  1  0.83235500  0.53788900  0.61129900  1
  Cu  Cu4  1  0.01962700  0.30349800  0.07033200  1
  Cu  Cu5  1  0.18969100  0.46863000  0.41154300  1
  Cu  Cu6  1  0.70504000  0.94558200  0.41295400  1
  Cu  Cu7  1  0.56396800  0.82434100  0.09471500  1
  O  O0  1  0.31264900  0.20051300  0.58613600  1
  O  O1  1  0.47483000  0.04453400  0.57380400  1
  O  O2  1  0.48245900  0.37344900  0.93098500  1
  O  O3  1  0.39179500  0.46343500  0.42905500  1
  O  O4  1  0.44867400  0.52214200  0.74452100  1
  O  O5  1  0.72732400  0.10508900  0.39427400  1
  O  O6  1  0.99084000  0.17537400  0.75122600  1
  O  O7  1  0.17661900  0.63149200  0.39443600  1
  O  O8  1  0.04661000  0.13780600  0.07884800  1
  O  O9  1  0.71271500  0.78504500  0.43170700  1
  O  O10  1  0.30739400  0.72330400  0.75476600  1
  O  O11  1  0.08049200  0.03094000  0.57012200  1
  O  O12  1  0.03514900  0.47655100  0.07327200  1
  O  O13  1  0.31771100  0.51522200  0.74874100  1
  O  O14  1  0.74879700  0.80288700  0.08304000  1
  O  O15  1  0.80153200  0.29020300  0.05782600  1
  O  O16  1  0.98149300  0.05733400  0.75172500  1
  O  O17  1  0.79093100  0.35852400  0.57842600  1
  O  O18  1  0.89744900  0.95862300  0.40423800  1
  O  O19  1  0.18605000  0.77197200  0.24529000  1
  O  O20  1  0.43775300  0.72839800  0.75032400  1
  O  O21  1  0.77571100  0.72116900  0.65295600  1
  O  O22  1  0.21661600  0.29836700  0.40981900  1
  O  O23  1  0.38552900  0.75214200  0.10802700  1
  O  O24  1  0.55847500  0.47831700  0.25713800  1
  O  O25  1  0.19435600  0.97825300  0.24359300  1
  O  O26  1  0.66396100  0.62767700  0.64266600  1
  O  O27  1  0.16108900  0.69702300  0.91629100  1
  O  O28  1  0.22102200  0.29155600  0.08785100  1
  O  O29  1  0.27245300  0.19944400  0.93174300  1
  O  O30  1  0.50633700  0.95860800  0.40774100  1
  O  O31  1  0.69750300  0.23420900  0.95404700  1
  O  O32  1  0.76421700  0.70909800  0.89667300  1
  O  O33  1  0.99244600  0.45377500  0.40922400  1
  O  O34  1  0.74934000  0.07165200  0.75069100  1
  O  O35  1  0.69268500  0.27885500  0.24722700  1
  O  O36  1  0.47695100  0.03075600  0.92650100  1
  O  O37  1  0.00993900  0.54518900  0.58921700  1
  O  O38  1  0.76039800  0.18925900  0.75013900  1
  O  O39  1  0.93930400  0.50972500  0.89955800  1
  O  O40  1  0.57014200  0.28285900  0.26381500  1
  O  O41  1  0.28653000  0.85338800  0.57298200  1
  O  O42  1  0.06203500  0.98198600  0.24592500  1
  O  O43  1  0.49210400  0.65981400  0.10389000  1
  O  O44  1  0.68192200  0.47457500  0.24064700  1
  O  O45  1  0.54125100  0.99089600  0.08934200  1
  O  O46  1  0.93913600  0.85011400  0.89163400  1
  O  O47  1  0.05353600  0.77685300  0.24619500  1
loop_
_geom_bond_atom_site_label_1
_geom_bond_atom_site_label_2
_geom_bond_distance
_geom_bond_site_symmetry_2
Ba0 O17 2.666402 1_455
Ba0 O5 2.752657 1_455
Ba0 O22 2.765090 1_555
Ba0 O0 2.786327 1_555
Ba0 O37 2.813361 1_555
Ba0 O11 2.821113 1_555
Ba0 O33 2.823207 1_455
Ba0 O18 2.953923 1_445
Ba1 O9 2.561633 1_555
Ba1 O7 2.610842 1_555
Ba1 O41 2.616402 1_555
Ba1 O30 2.716320 1_555
Ba1 O3 2.795834 1_555
Ba1 O26 3.249552 1_555
Ba2 O17 2.615691 1_555
Ba2 O30 2.707240 1_545
Ba2 O22 2.719956 1_555
Ba2 O0 2.783635 1_555
Ba2 O1 2.819131 1_555
Ba2 O3 2.834927 1_555
Ba2 O5 2.843313 1_555
Ba3 O9 2.599285 1_555
Ba3 O41 2.630132 1_655
Ba3 O7 2.633600 1_655
Ba3 O37 2.745597 1_655
Ba3 O11 2.817679 1_665
Ba3 O33 2.827938 1_555
Ba3 O18 3.045007 1_555
Ba4 O29 2.670223 1_565
Ba4 O45 2.688208 1_556
Ba4 O36 2.715690 1_565
Ba4 O8 2.728155 1_566
Ba4 O46 2.788104 1_455
Ba4 O27 2.818594 1_555
Ba5 O39 2.607528 1_455
Ba5 O2 2.678186 1_555
Ba5 O29 2.692949 1_555
Ba5 O12 2.711825 1_556
Ba5 O27 2.743407 1_555
Ba5 O43 2.873504 1_556
Ba5 O28 2.976849 1_556
Ba5 O23 3.029308 1_556
Ba5 O6 3.488851 1_455
Ba6 O39 2.625229 1_554
Ba6 O14 2.641608 1_555
Ba6 O2 2.643129 1_554
Ba6 O12 2.655185 1_655
Ba6 O32 2.822272 1_554
Ba6 O15 2.876721 1_555
Ba6 O31 2.921579 1_554
Ba6 O43 3.218093 1_555
Ba7 O14 2.610091 1_555
Ba7 O36 2.664204 1_564
Ba7 O8 2.664581 1_665
Ba7 O46 2.723808 1_554
Ba7 O45 2.731079 1_555
Ba7 O32 2.813164 1_554
Ba7 O31 2.884313 1_564
Ba7 O15 2.903164 1_565
Cu0 O46 1.793462 1_555
Cu0 O27 1.800330 1_655
Cu0 O39 1.808412 1_555
Cu0 O32 1.814687 1_555
Cu1 O0 1.782448 1_555
Cu1 O41 1.789187 1_545
Cu1 O11 1.819296 1_555
Cu1 O1 1.822161 1_555
Cu2 O2 1.774709 1_555
Cu2 O36 1.785880 1_555
Cu2 O29 1.815594 1_555
Cu2 O31 2.031586 1_555
Cu3 O17 1.761946 1_555
Cu3 O37 1.775338 1_655
Cu3 O26 1.918393 1_555
Cu3 O21 1.919696 1_555
Cu4 O8 1.783806 1_555
Cu4 O12 1.788636 1_555
Cu4 O28 1.809707 1_555
Cu4 O15 1.966322 1_455
Cu5 O22 1.782833 1_555
Cu5 O7 1.794419 1_555
Cu5 O3 1.808688 1_555
Cu5 O33 1.818101 1_455
Cu6 O9 1.780461 1_555
Cu6 O5 1.790942 1_565
Cu6 O30 1.823412 1_555
Cu6 O18 1.830521 1_555
Cu7 O45 1.771926 1_555
Cu7 O14 1.778685 1_555
Cu7 O43 1.892218 1_555
Cu7 O23 1.898533 1_555
O10 O20 1.229169 1_555
O13 O4 1.234654 1_555
O15 O31 1.401337 1_554
O16 O6 1.232470 1_555
O19 O47 1.231091 1_555
O21 O26 1.348860 1_555
O23 O43 1.382380 1_555
O24 O44 1.236320 1_555
O25 O42 1.235476 1_555
O34 O38 1.229376 1_555
O35 O40 1.228678 1_555
