# generated using pymatgen
data_NbFe4Si
_symmetry_space_group_name_H-M   'P 1'
_cell_length_a   4.79091690
_cell_length_b   4.79091690
_cell_length_c   7.53503200
_cell_angle_alpha   90.00000000
_cell_angle_beta   90.00000000
_cell_angle_gamma   120.00001240
_symmetry_Int_Tables_number   1
_chemical_formula_structural   NbFe4Si
_chemical_formula_sum   'Nb2 Fe8 Si2'
_cell_volume   149.77969916
_cell_formula_units_Z   2
loop_
 _symmetry_equiv_pos_site_id
 _symmetry_equiv_pos_as_xyz
  1  'x, y, z'
loop_
 _atom_site_type_symbol
 _atom_site_label
 _atom_site_symmetry_multiplicity
 _atom_site_fract_x
 _atom_site_fract_y
 _atom_site_fract_z
 _atom_site_occupancy
  Nb  Nb0  1  0.33333300  0.66666700  0.41795800  1
  Nb  Nb1  1  0.66666700  0.33333300  0.58204200  1
  Fe  Fe0  1  0.00000000  0.00000000  0.50000000  1
  Fe  Fe1  1  0.00000000  0.00000000  0.00000000  1
  Fe  Fe2  1  0.83016500  0.16983500  0.24289900  1
  Fe  Fe3  1  0.83016500  0.66033000  0.24289900  1
  Fe  Fe4  1  0.33967000  0.16983500  0.24289900  1
  Fe  Fe5  1  0.16983500  0.83016500  0.75710100  1
  Fe  Fe6  1  0.16983500  0.33967000  0.75710100  1
  Fe  Fe7  1  0.66033000  0.83016500  0.75710100  1
  Si  Si0  1  0.66666700  0.33333300  0.94301800  1
  Si  Si1  1  0.33333300  0.66666700  0.05698200  1
loop_
_geom_bond_atom_site_label_1
_geom_bond_atom_site_label_2
_geom_bond_distance
_geom_bond_site_symmetry_2
Nb0 Si1 2.719966 1_555
Nb0 Nb1 3.029781 1_455
Nb0 Nb1 3.029781 1_565
Nb0 Nb1 3.029789 1_555
Nb1 Si0 2.719966 1_555
Fe0 Fe6 2.395652 1_555
Fe0 Fe4 2.395652 1_555
Fe0 Fe3 2.395652 1_445
Fe0 Fe7 2.395652 1_445
Fe0 Fe5 2.395652 1_545
Fe0 Fe2 2.395652 1_455
Fe0 Nb1 2.834273 1_455
Fe0 Nb0 2.834273 1_545
Fe0 Nb1 2.834277 1_445
Fe0 Nb1 2.834277 1_555
Fe0 Nb0 2.834277 1_445
Fe0 Nb0 2.834277 1_555
Fe1 Fe6 2.309973 1_554
Fe1 Fe4 2.309973 1_555
Fe1 Fe3 2.309973 1_445
Fe1 Fe7 2.309973 1_444
Fe1 Fe5 2.309973 1_544
Fe1 Fe2 2.309973 1_455
Fe1 Si0 2.799160 1_454
Fe1 Si1 2.799160 1_545
Fe1 Si0 2.799164 1_444
Fe1 Si1 2.799164 1_555
Fe1 Si1 2.799164 1_445
Fe1 Si0 2.799164 1_554
Fe2 Fe3 2.349921 1_555
Fe2 Fe4 2.349921 1_555
Fe2 Fe4 2.440996 1_655
Fe2 Fe3 2.440996 1_545
Fe2 Si0 2.635631 1_554
Fe2 Nb0 2.734752 1_655
Fe2 Nb0 2.734752 1_545
Fe2 Si1 2.775140 1_655
Fe2 Si1 2.775140 1_545
Fe2 Nb1 2.893276 1_555
Fe3 Fe4 2.349920 1_555
Fe3 Fe4 2.440996 1_665
Fe3 Si0 2.635633 1_554
Fe3 Nb0 2.734750 1_655
Fe3 Nb0 2.734755 1_555
Fe3 Si1 2.775139 1_655
Fe3 Si1 2.775143 1_555
Fe3 Nb1 2.893277 1_555
Fe4 Si0 2.635633 1_554
Fe4 Nb0 2.734750 1_545
Fe4 Nb0 2.734755 1_555
Fe4 Si1 2.775139 1_545
Fe4 Si1 2.775143 1_555
Fe4 Nb1 2.893277 1_555
Fe5 Fe7 2.349921 1_555
Fe5 Fe6 2.349921 1_555
Fe5 Fe6 2.440996 1_565
Fe5 Fe7 2.440996 1_455
Fe5 Si1 2.635631 1_556
Fe5 Nb1 2.734752 1_565
Fe5 Nb1 2.734752 1_455
Fe5 Si0 2.775140 1_565
Fe5 Si0 2.775140 1_455
Fe5 Nb0 2.893276 1_555
Fe6 Fe7 2.349920 1_555
Fe6 Fe7 2.440996 1_445
Fe6 Si1 2.635633 1_556
Fe6 Nb1 2.734750 1_455
Fe6 Nb1 2.734755 1_555
Fe6 Si0 2.775139 1_455
Fe6 Si0 2.775143 1_555
Fe6 Nb0 2.893277 1_555
Fe7 Si1 2.635633 1_556
Fe7 Nb1 2.734750 1_565
Fe7 Nb1 2.734755 1_555
Fe7 Si0 2.775139 1_565
Fe7 Si0 2.775143 1_555
Fe7 Nb0 2.893277 1_555
