# generated using pymatgen
data_Co(RhS2)2
_symmetry_space_group_name_H-M   'P 1'
_cell_length_a   6.84814957
_cell_length_b   6.84814957
_cell_length_c   6.84814957
_cell_angle_alpha   60.00000000
_cell_angle_beta   60.00000000
_cell_angle_gamma   60.00000000
_symmetry_Int_Tables_number   1
_chemical_formula_structural   Co(RhS2)2
_chemical_formula_sum   'Co2 Rh4 S8'
_cell_volume   227.09350525
_cell_formula_units_Z   2
loop_
 _symmetry_equiv_pos_site_id
 _symmetry_equiv_pos_as_xyz
  1  'x, y, z'
loop_
 _atom_site_type_symbol
 _atom_site_label
 _atom_site_symmetry_multiplicity
 _atom_site_fract_x
 _atom_site_fract_y
 _atom_site_fract_z
 _atom_site_occupancy
  Co  Co0  1  0.37500000  0.37500000  0.37500000  1
  Co  Co1  1  0.62500000  0.62500000  0.62500000  1
  Rh  Rh0  1  0.00000000  0.00000000  0.50000000  1
  Rh  Rh1  1  0.00000000  0.50000000  0.00000000  1
  Rh  Rh2  1  0.50000000  0.00000000  0.00000000  1
  Rh  Rh3  1  0.00000000  0.00000000  0.00000000  1
  S  S0  1  0.24726900  0.24726900  0.75819400  1
  S  S1  1  0.24726900  0.75819400  0.24726900  1
  S  S2  1  0.75819400  0.24726900  0.24726900  1
  S  S3  1  0.24726900  0.24726900  0.24726900  1
  S  S4  1  0.75273100  0.75273100  0.24180600  1
  S  S5  1  0.75273100  0.24180600  0.75273100  1
  S  S6  1  0.24180600  0.75273100  0.75273100  1
  S  S7  1  0.75273100  0.75273100  0.75273100  1
loop_
_geom_bond_atom_site_label_1
_geom_bond_atom_site_label_2
_geom_bond_distance
_geom_bond_site_symmetry_2
Co0 S3 2.142620 1_555
Co0 S2 2.142626 1_555
Co0 S1 2.142626 1_555
Co0 S0 2.142626 1_555
Co1 S7 2.142620 1_555
Co1 S4 2.142626 1_555
Co1 S6 2.142626 1_555
Co1 S5 2.142626 1_555
Rh0 S1 2.395025 1_545
Rh0 S2 2.395025 1_455
Rh0 S6 2.395025 1_545
Rh0 S5 2.395025 1_455
Rh0 S3 2.395030 1_555
Rh0 S7 2.395030 1_445
Rh1 S0 2.395025 1_554
Rh1 S6 2.395025 1_554
Rh1 S4 2.395025 1_455
Rh1 S2 2.395025 1_455
Rh1 S3 2.395030 1_555
Rh1 S7 2.395030 1_454
Rh2 S4 2.395025 1_545
Rh2 S1 2.395025 1_545
Rh2 S0 2.395025 1_554
Rh2 S5 2.395025 1_554
Rh2 S7 2.395030 1_544
Rh2 S3 2.395030 1_555
Rh3 S6 2.395030 1_544
Rh3 S4 2.395030 1_445
Rh3 S5 2.395030 1_454
Rh3 S0 2.395030 1_554
Rh3 S2 2.395030 1_455
Rh3 S1 2.395030 1_545
