# generated using pymatgen
data_Na2S2O3
_symmetry_space_group_name_H-M   'P 1'
_cell_length_a   7.71515400
_cell_length_b   7.81779566
_cell_length_c   9.45968188
_cell_angle_alpha   85.36708148
_cell_angle_beta   83.09558453
_cell_angle_gamma   63.99947852
_symmetry_Int_Tables_number   1
_chemical_formula_structural   Na2S2O3
_chemical_formula_sum   'Na6 S6 O9'
_cell_volume   508.84757741
_cell_formula_units_Z   3
loop_
 _symmetry_equiv_pos_site_id
 _symmetry_equiv_pos_as_xyz
  1  'x, y, z'
loop_
 _atom_site_type_symbol
 _atom_site_label
 _atom_site_symmetry_multiplicity
 _atom_site_fract_x
 _atom_site_fract_y
 _atom_site_fract_z
 _atom_site_occupancy
  Na  Na0  1  0.80231300  0.93887800  0.21856900  1
  Na  Na1  1  0.50291200  0.08221500  0.87735600  1
  Na  Na2  1  0.84946600  0.35989400  0.80090600  1
  Na  Na3  1  0.87528300  0.32023700  0.23414500  1
  Na  Na4  1  0.24201000  0.00229200  0.63896900  1
  Na  Na5  1  0.30775800  0.98196600  0.25538400  1
  S  S0  1  0.65273900  0.67647900  0.33598800  1
  S  S1  1  0.05562000  0.99942800  0.95852300  1
  S  S2  1  0.98169200  0.99651400  0.43447600  1
  S  S3  1  0.77974000  0.64377100  0.52232300  1
  S  S4  1  0.58449900  0.70374900  0.69872500  1
  S  S5  1  0.88862500  0.00654900  0.64112600  1
  O  O0  1  0.24453200  0.44343800  0.17322400  1
  O  O1  1  0.50381200  0.27478700  0.15887200  1
  O  O2  1  0.83693300  0.10999400  0.94053400  1
  O  O3  1  0.25431900  0.27369000  0.48642400  1
  O  O4  1  0.16875700  0.33704300  0.14429400  1
  O  O5  1  0.49344500  0.11905400  0.12639500  1
  O  O6  1  0.42760200  0.16461100  0.51949300  1
  O  O7  1  0.06316600  0.02154900  0.11955000  1
  O  O8  1  0.15147700  0.12206600  0.87472400  1
loop_
_geom_bond_atom_site_label_1
_geom_bond_atom_site_label_2
_geom_bond_distance
_geom_bond_site_symmetry_2
Na0 O5 2.404395 1_565
Na0 O7 2.436127 1_665
Na0 O1 2.699912 1_565
Na0 S2 2.768525 1_555
Na0 S0 2.858823 1_555
Na0 O2 2.890408 1_564
Na1 O5 2.384953 1_556
Na1 O8 2.592990 1_555
Na1 O2 2.815551 1_555
Na1 S4 3.305296 1_545
Na1 S5 3.357164 1_555
Na2 O2 2.299747 1_555
Na2 O8 2.399348 1_655
Na2 S4 2.752616 1_555
Na2 S5 3.136803 1_555
Na2 S3 3.241730 1_555
Na3 O4 2.376209 1_655
Na3 O7 2.406735 1_655
Na3 S0 2.734181 1_555
Na3 S2 2.906520 1_545
Na4 O8 2.393262 1_555
Na4 O6 2.431096 1_555
Na4 O3 2.498442 1_555
Na4 S5 2.709625 1_455
Na4 S4 2.736384 1_545
Na4 S2 2.967403 1_445
Na5 O7 2.305346 1_565
Na5 O5 2.324744 1_565
Na5 O4 2.673910 1_565
Na5 S2 2.822620 1_455
Na5 S0 2.826611 1_555
S0 S3 2.062820 1_555
S2 S5 1.995256 1_565
S3 S4 2.043584 1_555
O0 O4 1.268896 1_555
O0 O1 1.846499 1_555
O1 O5 1.317107 1_555
O2 S1 1.545763 1_645
O3 O6 1.292389 1_555
O7 S1 1.557670 1_544
O8 S1 1.566042 1_545
