# generated using pymatgen
data_Re(RhO3)2
_symmetry_space_group_name_H-M   'P 1'
_cell_length_a   4.55722766
_cell_length_b   4.55722766
_cell_length_c   9.27799130
_cell_angle_alpha   90.00000000
_cell_angle_beta   90.00000000
_cell_angle_gamma   90.00000000
_symmetry_Int_Tables_number   1
_chemical_formula_structural   Re(RhO3)2
_chemical_formula_sum   'Re2 Rh4 O12'
_cell_volume   192.68832888
_cell_formula_units_Z   2
loop_
 _symmetry_equiv_pos_site_id
 _symmetry_equiv_pos_as_xyz
  1  'x, y, z'
loop_
 _atom_site_type_symbol
 _atom_site_label
 _atom_site_symmetry_multiplicity
 _atom_site_fract_x
 _atom_site_fract_y
 _atom_site_fract_z
 _atom_site_occupancy
  Re  Re0  1  -0.00000000  -0.00000000  -0.00000000  1
  Re  Re1  1  0.50000000  0.50000000  0.50000000  1
  Rh  Rh0  1  -0.00000000  -0.00000000  0.33311312  1
  Rh  Rh1  1  -0.00000000  -0.00000000  0.66688688  1
  Rh  Rh2  1  0.50000000  0.50000000  0.83311312  1
  Rh  Rh3  1  0.50000000  0.50000000  0.16688688  1
  O  O0  1  0.29940868  0.29940868  -0.00000000  1
  O  O1  1  0.70059132  0.70059132  -0.00000000  1
  O  O2  1  0.20059132  0.79940868  0.50000000  1
  O  O3  1  0.79940868  0.20059132  0.50000000  1
  O  O4  1  0.30926773  0.30926773  0.34068744  1
  O  O5  1  0.69073227  0.69073227  0.65931256  1
  O  O6  1  0.69073227  0.69073227  0.34068744  1
  O  O7  1  0.19073227  0.80926773  0.84068744  1
  O  O8  1  0.19073227  0.80926773  0.15931256  1
  O  O9  1  0.30926773  0.30926773  0.65931256  1
  O  O10  1  0.80926773  0.19073227  0.15931256  1
  O  O11  1  0.80926773  0.19073227  0.84068744  1
loop_
_geom_bond_atom_site_label_1
_geom_bond_atom_site_label_2
_geom_bond_distance
_geom_bond_site_symmetry_2
O0 Re0 1.929657 1_555
O0 Rh2 2.017119 1_554
O0 Rh3 2.017119 1_555
O1 Re0 1.929657 1_665
O1 Rh2 2.017119 1_554
O1 Rh3 2.017119 1_555
O2 Re1 1.929657 1_555
O2 Rh1 2.017119 1_565
O2 Rh0 2.017119 1_565
O3 Re1 1.929657 1_555
O3 Rh1 2.017119 1_655
O3 Rh0 2.017119 1_655
O4 Re1 1.922455 1_555
O4 Rh0 1.994436 1_555
O4 Rh3 2.027628 1_555
O5 Re1 1.922455 1_555
O5 Rh1 1.994436 1_665
O5 Rh2 2.027628 1_555
O6 Re1 1.922455 1_555
O6 Rh0 1.994436 1_665
O6 Rh3 2.027628 1_555
O7 Re0 1.922455 1_566
O7 Rh2 1.994436 1_555
O7 Rh1 2.027628 1_565
O8 Re0 1.922455 1_565
O8 Rh3 1.994436 1_555
O8 Rh0 2.027628 1_565
O9 Re1 1.922455 1_555
O9 Rh1 1.994436 1_555
O9 Rh2 2.027628 1_555
O10 Re0 1.922455 1_655
O10 Rh3 1.994436 1_555
O10 Rh0 2.027628 1_655
O11 Re0 1.922455 1_656
O11 Rh2 1.994436 1_555
O11 Rh1 2.027628 1_655
