# generated using pymatgen
data_BaMg4Ge3
_symmetry_space_group_name_H-M   'P 1'
_cell_length_a   4.63532550
_cell_length_b   4.63532550
_cell_length_c   8.72906633
_cell_angle_alpha   90.00000000
_cell_angle_beta   90.00000000
_cell_angle_gamma   90.00000000
_symmetry_Int_Tables_number   1
_chemical_formula_structural   BaMg4Ge3
_chemical_formula_sum   'Ba1 Mg4 Ge3'
_cell_volume   187.55483589
_cell_formula_units_Z   1
loop_
 _symmetry_equiv_pos_site_id
 _symmetry_equiv_pos_as_xyz
  1  'x, y, z'
loop_
 _atom_site_type_symbol
 _atom_site_label
 _atom_site_symmetry_multiplicity
 _atom_site_fract_x
 _atom_site_fract_y
 _atom_site_fract_z
 _atom_site_occupancy
  Ba  Ba0  1  0.00000000  0.00000000  0.00000000  1
  Mg  Mg0  1  0.50000000  -0.00000000  0.68097004  1
  Mg  Mg1  1  0.00000000  0.50000000  0.68097004  1
  Mg  Mg2  1  0.50000000  0.00000000  0.31902996  1
  Mg  Mg3  1  -0.00000000  0.50000000  0.31902996  1
  Ge  Ge0  1  0.00000000  0.00000000  0.50000000  1
  Ge  Ge1  1  0.50000000  0.50000000  0.85223357  1
  Ge  Ge2  1  0.50000000  0.50000000  0.14776643  1
loop_
_geom_bond_atom_site_label_1
_geom_bond_atom_site_label_2
_geom_bond_distance
_geom_bond_site_symmetry_2
Ba0 Ge2 3.522338 1_445
Ba0 Ge2 3.522338 1_545
Ba0 Ge1 3.522338 1_554
Ba0 Ge1 3.522338 1_454
Ba0 Ge2 3.522338 1_455
Ba0 Ge1 3.522338 1_444
Ba0 Ge2 3.522338 1_555
Ba0 Ge1 3.522338 1_544
Ba0 Mg3 3.623101 1_555
Ba0 Mg1 3.623101 1_554
Ba0 Mg0 3.623101 1_454
Ba0 Mg2 3.623101 1_555
Ba0 Mg1 3.623101 1_544
Ba0 Mg2 3.623101 1_455
Ba0 Mg0 3.623101 1_554
Ba0 Mg3 3.623101 1_545
Ge0 Mg0 2.804819 1_455
Ge0 Mg1 2.804819 1_545
Ge0 Mg2 2.804819 1_555
Ge0 Mg3 2.804819 1_555
Ge0 Mg1 2.804819 1_555
Ge0 Mg3 2.804819 1_545
Ge0 Mg2 2.804819 1_455
Ge0 Mg0 2.804819 1_555
Ge1 Ge2 2.579726 1_556
Ge1 Mg1 2.757988 1_555
Ge1 Mg0 2.757988 1_565
Ge1 Mg0 2.757988 1_555
Ge1 Mg1 2.757988 1_655
Ge2 Mg2 2.757988 1_555
Ge2 Mg3 2.757988 1_555
Ge2 Mg2 2.757988 1_565
Ge2 Mg3 2.757988 1_655
