# generated using pymatgen
data_CoBr2N6O
_symmetry_space_group_name_H-M   'P 1'
_cell_length_a   7.13506930
_cell_length_b   7.13506930
_cell_length_c   11.78307000
_cell_angle_alpha   90.00000000
_cell_angle_beta   90.00000000
_cell_angle_gamma   110.58694737
_symmetry_Int_Tables_number   1
_chemical_formula_structural   CoBr2N6O
_chemical_formula_sum   'Co2 Br4 N12 O2'
_cell_volume   561.55913406
_cell_formula_units_Z   2
loop_
 _symmetry_equiv_pos_site_id
 _symmetry_equiv_pos_as_xyz
  1  'x, y, z'
loop_
 _atom_site_type_symbol
 _atom_site_label
 _atom_site_symmetry_multiplicity
 _atom_site_fract_x
 _atom_site_fract_y
 _atom_site_fract_z
 _atom_site_occupancy
  Co  Co0  1  0.78850800  0.21149200  0.25000000  1
  Co  Co1  1  0.21149200  0.78850800  0.75000000  1
  Br  Br0  1  0.85813900  0.85813900  0.50000000  1
  Br  Br1  1  0.85813900  0.85813900  0.00000000  1
  Br  Br2  1  0.14186100  0.14186100  0.50000000  1
  Br  Br3  1  0.14186100  0.14186100  0.00000000  1
  N  N0  1  0.26640900  0.73359100  0.25000000  1
  N  N1  1  0.73359100  0.26640900  0.75000000  1
  N  N2  1  0.91654100  0.08345900  0.25000000  1
  N  N3  1  0.08345900  0.91654100  0.75000000  1
  N  N4  1  0.52185800  0.23195500  0.25000000  1
  N  N5  1  0.23195600  0.52185800  0.75000000  1
  N  N6  1  0.47814200  0.76804400  0.75000000  1
  N  N7  1  0.76804500  0.47814200  0.25000000  1
  N  N8  1  0.64480800  0.35519200  0.16490000  1
  N  N9  1  0.35519200  0.64480800  0.83510000  1
  N  N10  1  0.64480800  0.35519200  0.33510000  1
  N  N11  1  0.35519200  0.64480800  0.66490000  1
  O  O0  1  0.36394700  0.63605300  0.25000000  1
  O  O1  1  0.63605300  0.36394700  0.75000000  1
loop_
_geom_bond_atom_site_label_1
_geom_bond_atom_site_label_2
_geom_bond_distance
_geom_bond_site_symmetry_2
Co0 N2 1.501979 1_555
Co0 N4 1.958680 1_555
Co0 N7 1.958680 1_555
Co0 N8 1.961456 1_555
Co0 N10 1.961456 1_555
Co1 N3 1.501979 1_555
Co1 N5 1.958683 1_555
Co1 N6 1.958683 1_555
Co1 N9 1.961456 1_555
Co1 N11 1.961456 1_555
Br0 Br2 2.305251 1_665
Br1 Br3 2.305251 1_665
N0 O0 1.144236 1_555
N1 O1 1.144236 1_555
N4 N8 1.416251 1_555
N5 N9 1.416248 1_555
N6 N9 1.416248 1_555
N7 N8 1.416251 1_555
N10 N7 1.416251 1_555
N10 N4 1.416251 1_555
N11 N6 1.416248 1_555
N11 N5 1.416248 1_555
