# generated using pymatgen
data_Y(AlCu)6
_symmetry_space_group_name_H-M   'P 1'
_cell_length_a   6.58164061
_cell_length_b   6.58164061
_cell_length_c   6.58164061
_cell_angle_alpha   135.49543173
_cell_angle_beta   99.04501628
_cell_angle_gamma   97.44619023
_symmetry_Int_Tables_number   1
_chemical_formula_structural   Y(AlCu)6
_chemical_formula_sum   'Y1 Al6 Cu6'
_cell_volume   184.94025121
_cell_formula_units_Z   1
loop_
 _symmetry_equiv_pos_site_id
 _symmetry_equiv_pos_as_xyz
  1  'x, y, z'
loop_
 _atom_site_type_symbol
 _atom_site_label
 _atom_site_symmetry_multiplicity
 _atom_site_fract_x
 _atom_site_fract_y
 _atom_site_fract_z
 _atom_site_occupancy
  Y  Y0  1  0.00000000  0.00000000  -0.00000000  1
  Al  Al0  1  0.34927693  0.34927693  -0.00000000  1
  Al  Al1  1  0.65072307  0.65072307  0.00000000  1
  Al  Al2  1  0.65318084  0.00000000  0.65318084  1
  Al  Al3  1  0.34681916  -0.00000000  0.34681916  1
  Al  Al4  1  0.79740493  0.29740493  0.50000000  1
  Al  Al5  1  0.20259507  0.70259507  0.50000000  1
  Cu  Cu0  1  0.50000000  0.00000000  -0.00000000  1
  Cu  Cu1  1  0.50000000  0.50000000  0.50000000  1
  Cu  Cu2  1  0.00000000  0.00000000  0.50000000  1
  Cu  Cu3  1  0.00000000  0.50000000  -0.00000000  1
  Cu  Cu4  1  0.23009337  0.50000000  0.73009337  1
  Cu  Cu5  1  0.76990663  0.50000000  0.26990663  1
loop_
_geom_bond_atom_site_label_1
_geom_bond_atom_site_label_2
_geom_bond_distance
_geom_bond_site_symmetry_2
Al0 Al1 2.617698 1_555
Al0 Cu3 2.619101 1_555
Al0 Cu2 2.619101 1_554
Al0 Cu1 2.619101 1_555
Al0 Cu0 2.619101 1_555
Al0 Cu4 2.651842 1_554
Al0 Cu5 2.651842 1_555
Al0 Al5 2.798995 1_555
Al0 Al5 2.798995 1_544
Al0 Y0 3.033051 1_555
Al1 Cu2 2.619101 1_665
Al1 Cu1 2.619101 1_554
Al1 Cu0 2.619101 1_565
Al1 Cu3 2.619101 1_655
Al1 Cu5 2.651842 1_555
Al1 Cu4 2.651842 1_554
Al1 Al4 2.798995 1_565
Al1 Al4 2.798995 1_554
Al1 Y0 3.033051 1_665
Al2 Al3 2.617840 1_555
Al2 Cu2 2.636371 1_655
Al2 Cu1 2.636371 1_545
Al2 Cu0 2.636371 1_556
Al2 Cu3 2.636371 1_656
Al2 Cu5 2.684540 1_556
Al2 Cu5 2.684540 1_545
Al2 Al4 2.895362 1_555
Al2 Al5 2.895362 1_545
Al2 Y0 2.963547 1_656
Al3 Cu1 2.636371 1_555
Al3 Cu0 2.636371 1_555
Al3 Cu2 2.636371 1_555
Al3 Cu3 2.636371 1_545
Al3 Cu4 2.684540 1_544
Al3 Cu4 2.684540 1_555
Al3 Al4 2.895362 1_555
Al3 Al5 2.895362 1_545
Al3 Y0 2.963547 1_555
Al4 Cu2 2.507176 1_655
Al4 Cu1 2.507176 1_555
Al4 Cu0 2.507176 1_555
Al4 Cu3 2.507176 1_656
Al4 Cu5 2.638332 1_555
Al4 Cu4 2.638332 1_655
Al4 Y0 3.050744 1_666
Al4 Y0 3.050744 1_655
Al5 Cu0 2.507176 1_566
Al5 Cu1 2.507176 1_555
Al5 Cu2 2.507176 1_565
Al5 Cu3 2.507176 1_555
Al5 Cu5 2.638332 1_455
Al5 Cu4 2.638332 1_555
Al5 Y0 3.050744 1_555
Al5 Y0 3.050744 1_566
Cu0 Cu1 2.492372 1_544
Cu0 Cu1 2.492372 1_555
Cu0 Cu4 2.508972 1_544
Cu0 Cu5 2.508972 1_555
Cu0 Y0 3.290820 1_555
Cu0 Y0 3.290820 1_655
Cu1 Cu4 2.508972 1_555
Cu1 Cu5 2.508972 1_555
Cu1 Y0 3.290820 1_555
Cu1 Y0 3.290820 1_666
Cu2 Cu3 2.492372 1_545
Cu2 Cu3 2.492372 1_556
Cu2 Cu5 2.508972 1_445
Cu2 Cu4 2.508972 1_555
Cu2 Y0 3.290820 1_555
Cu2 Y0 3.290820 1_556
Cu3 Cu5 2.508972 1_455
Cu3 Cu4 2.508972 1_554
Cu3 Y0 3.290820 1_555
Cu3 Y0 3.290820 1_565
Cu4 Y0 3.174523 1_555
Cu4 Y0 3.174523 1_566
Cu5 Y0 3.174523 1_655
Cu5 Y0 3.174523 1_666
