# generated using pymatgen
data_Er6Mg(GeS7)2
_symmetry_space_group_name_H-M   'P 1'
_cell_length_a   9.73457367
_cell_length_b   9.73457367
_cell_length_c   5.87935800
_cell_angle_alpha   90.00000000
_cell_angle_beta   90.00000000
_cell_angle_gamma   119.99999777
_symmetry_Int_Tables_number   1
_chemical_formula_structural   Er6Mg(GeS7)2
_chemical_formula_sum   'Er6 Mg1 Ge2 S14'
_cell_volume   482.49678018
_cell_formula_units_Z   1
loop_
 _symmetry_equiv_pos_site_id
 _symmetry_equiv_pos_as_xyz
  1  'x, y, z'
loop_
 _atom_site_type_symbol
 _atom_site_label
 _atom_site_symmetry_multiplicity
 _atom_site_fract_x
 _atom_site_fract_y
 _atom_site_fract_z
 _atom_site_occupancy
  Er  Er0  1  0.97134200  0.52567400  0.26001500  1
  Er  Er1  1  0.55433200  0.02865800  0.26001500  1
  Er  Er2  1  0.47432600  0.44566800  0.26001500  1
  Er  Er3  1  0.69096700  0.80655800  0.76513300  1
  Er  Er4  1  0.11559200  0.30903300  0.76513300  1
  Er  Er5  1  0.19344200  0.88440800  0.76513300  1
  Mg  Mg0  1  0.33333300  0.66666700  0.45443000  1
  Ge  Ge0  1  0.66666700  0.33333300  0.83744500  1
  Ge  Ge1  1  0.00000000  0.00000000  0.34151500  1
  S  S0  1  0.18250300  0.41391500  0.20868600  1
  S  S1  1  0.23141200  0.81749700  0.20868600  1
  S  S2  1  0.58608500  0.76858800  0.20868600  1
  S  S3  1  0.48193700  0.91845600  0.69235800  1
  S  S4  1  0.43651900  0.51806300  0.69235800  1
  S  S5  1  0.08154400  0.56348100  0.69235800  1
  S  S6  1  0.66666700  0.33333300  0.46150600  1
  S  S7  1  0.00000000  0.00000000  0.96447900  1
  S  S8  1  0.42828500  0.18627100  0.99949100  1
  S  S9  1  0.75798600  0.57171500  0.99949100  1
  S  S10  1  0.81372900  0.24201400  0.99949100  1
  S  S11  1  0.23817400  0.14602100  0.50475900  1
  S  S12  1  0.90784700  0.76182600  0.50475900  1
  S  S13  1  0.85397900  0.09215300  0.50475900  1
loop_
_geom_bond_atom_site_label_1
_geom_bond_atom_site_label_2
_geom_bond_distance
_geom_bond_site_symmetry_2
Er0 S5 2.711590 1_655
Er0 S1 2.716343 1_655
Er0 S0 2.781419 1_655
Er0 S9 2.791329 1_554
Er0 S10 2.844007 1_554
Er0 S6 2.855232 1_555
Er0 S12 3.026244 1_555
Er0 S5 3.468443 1_654
Er1 S3 2.711590 1_545
Er1 S2 2.716342 1_545
Er1 S1 2.781419 1_545
Er1 S10 2.791329 1_554
Er1 S8 2.844007 1_554
Er1 S6 2.855231 1_555
Er1 S13 3.026244 1_555
Er1 S3 3.468443 1_544
Er2 S4 2.711590 1_555
Er2 S0 2.716342 1_555
Er2 S2 2.781419 1_555
Er2 S8 2.791329 1_554
Er2 S9 2.844007 1_554
Er2 S6 2.855239 1_555
Er2 S11 3.026244 1_555
Er2 S4 3.468443 1_554
Er3 S4 2.692417 1_555
Er3 S2 2.757227 1_556
Er3 S3 2.779671 1_555
Er3 S12 2.812419 1_555
Er3 S13 2.859908 1_565
Er3 S7 2.881779 1_665
Er3 S9 3.006968 1_555
Er3 S2 3.391857 1_555
Er4 S5 2.692422 1_555
Er4 S0 2.757227 1_556
Er4 S4 2.779664 1_555
Er4 S13 2.812424 1_455
Er4 S11 2.859902 1_555
Er4 S7 2.881778 1_555
Er4 S10 3.006976 1_455
Er4 S0 3.391857 1_555
Er5 S3 2.692413 1_555
Er5 S1 2.757225 1_556
Er5 S5 2.779662 1_555
Er5 S11 2.812427 1_565
Er5 S12 2.859909 1_455
Er5 S7 2.881786 1_565
Er5 S8 3.006974 1_565
Er5 S1 3.391855 1_555
Mg0 S5 2.551755 1_555
Mg0 S3 2.551756 1_555
Mg0 S4 2.551762 1_555
Mg0 S1 2.585426 1_555
Mg0 S0 2.585433 1_555
Mg0 S2 2.585433 1_555
Ge0 S6 2.210280 1_555
Ge0 S10 2.240529 1_555
Ge0 S8 2.240536 1_555
Ge0 S9 2.240537 1_555
Ge1 S7 2.216730 1_554
Ge1 S13 2.240884 1_455
Ge1 S12 2.240884 1_445
Ge1 S11 2.240884 1_555
