# generated using pymatgen
data_SrMg14Cr
_symmetry_space_group_name_H-M   'P 1'
_cell_length_a   6.49515145
_cell_length_b   6.49515090
_cell_length_c   10.43206652
_cell_angle_alpha   90.00000000
_cell_angle_beta   90.00000000
_cell_angle_gamma   120.00000273
_symmetry_Int_Tables_number   1
_chemical_formula_structural   SrMg14Cr
_chemical_formula_sum   'Sr1 Mg14 Cr1'
_cell_volume   381.13558180
_cell_formula_units_Z   1
loop_
 _symmetry_equiv_pos_site_id
 _symmetry_equiv_pos_as_xyz
  1  'x, y, z'
loop_
 _atom_site_type_symbol
 _atom_site_label
 _atom_site_symmetry_multiplicity
 _atom_site_fract_x
 _atom_site_fract_y
 _atom_site_fract_z
 _atom_site_occupancy
  Sr  Sr0  1  0.16666700  0.33333300  0.12500000  1
  Mg  Mg0  1  0.17499349  0.83749625  0.12500000  1
  Mg  Mg1  1  0.16569036  0.83284468  0.62500000  1
  Mg  Mg2  1  0.66250375  0.32500651  0.12500000  1
  Mg  Mg3  1  0.66715532  0.33430964  0.62500000  1
  Mg  Mg4  1  0.66250375  0.83749625  0.12500000  1
  Mg  Mg5  1  0.66715532  0.83284468  0.62500000  1
  Mg  Mg6  1  0.33502658  0.16497342  0.38889926  1
  Mg  Mg7  1  0.33502658  0.16497342  0.86110074  1
  Mg  Mg8  1  0.33502658  0.67005415  0.38889926  1
  Mg  Mg9  1  0.33502658  0.67005415  0.86110074  1
  Mg  Mg10  1  0.82994585  0.16497342  0.38889926  1
  Mg  Mg11  1  0.82994585  0.16497342  0.86110074  1
  Mg  Mg12  1  0.83333300  0.66666700  0.36914207  1
  Mg  Mg13  1  0.83333300  0.66666700  0.88085793  1
  Cr  Cr0  1  0.16666700  0.33333300  0.62500000  1
loop_
_geom_bond_atom_site_label_1
_geom_bond_atom_site_label_2
_geom_bond_distance
_geom_bond_site_symmetry_2
Mg0 Mg2 3.166453 1_565
Mg0 Mg4 3.166453 1_555
Mg0 Mg12 3.190636 1_455
Mg0 Mg13 3.190636 1_454
Mg0 Sr0 3.247913 1_565
Mg0 Sr0 3.247913 1_555
Mg0 Mg9 3.312517 1_554
Mg0 Mg8 3.312517 1_555
Mg0 Mg7 3.312523 1_564
Mg0 Mg6 3.312523 1_565
Mg0 Mg2 3.328698 1_455
Mg0 Mg4 3.328698 1_455
Mg1 Mg8 3.091454 1_555
Mg1 Mg9 3.091454 1_555
Mg1 Mg6 3.091461 1_565
Mg1 Mg7 3.091461 1_565
Mg1 Mg3 3.238060 1_455
Mg1 Mg5 3.238061 1_455
Mg1 Mg3 3.257091 1_565
Mg1 Mg5 3.257091 1_555
Mg1 Mg12 3.258721 1_455
Mg1 Mg13 3.258721 1_455
Mg2 Mg4 3.166453 1_545
Mg2 Sr0 3.247913 1_555
Mg2 Sr0 3.247913 1_655
Mg2 Mg7 3.312523 1_554
Mg2 Mg6 3.312523 1_555
Mg2 Mg4 3.328698 1_555
Mg3 Mg6 3.091461 1_555
Mg3 Mg7 3.091461 1_555
Mg3 Mg5 3.238060 1_555
Mg3 Mg5 3.257091 1_545
Mg4 Sr0 3.247913 1_555
Mg4 Sr0 3.247913 1_665
Mg4 Mg9 3.312523 1_554
Mg4 Mg8 3.312523 1_555
Mg5 Mg8 3.091461 1_555
Mg5 Mg9 3.091461 1_555
Mg6 Mg8 3.214575 1_545
Mg6 Mg8 3.280576 1_555
Mg6 Sr0 3.341624 1_555
Mg7 Mg9 3.214575 1_545
Mg7 Mg9 3.280576 1_555
Mg7 Sr0 3.341624 1_556
Mg8 Sr0 3.341631 1_555
Mg9 Sr0 3.341631 1_556
Mg10 Mg3 3.091454 1_555
Mg10 Mg5 3.091461 1_545
Mg10 Mg8 3.214575 1_545
Mg10 Mg6 3.214576 1_555
Mg10 Mg12 3.254165 1_545
Mg10 Mg12 3.254165 1_555
Mg10 Mg8 3.280576 1_655
Mg10 Mg6 3.280576 1_655
Mg10 Mg2 3.312517 1_555
Mg10 Mg4 3.312523 1_545
Mg10 Sr0 3.341631 1_655
Mg11 Mg3 3.091454 1_555
Mg11 Mg5 3.091461 1_545
Mg11 Mg9 3.214575 1_545
Mg11 Mg7 3.214576 1_555
Mg11 Mg13 3.254165 1_545
Mg11 Mg13 3.254165 1_555
Mg11 Mg9 3.280576 1_655
Mg11 Mg7 3.280576 1_655
Mg11 Mg2 3.312517 1_556
Mg11 Mg4 3.312523 1_546
Mg11 Sr0 3.341631 1_656
Mg12 Mg4 3.190629 1_555
Mg12 Mg2 3.190636 1_555
Mg12 Mg6 3.254165 1_555
Mg12 Mg6 3.254165 1_665
Mg12 Mg8 3.254165 1_555
Mg12 Mg8 3.254165 1_655
Mg12 Mg5 3.258715 1_555
Mg12 Mg3 3.258721 1_555
Mg13 Mg4 3.190629 1_556
Mg13 Mg2 3.190636 1_556
Mg13 Mg7 3.254165 1_555
Mg13 Mg7 3.254165 1_665
Mg13 Mg9 3.254165 1_555
Mg13 Mg9 3.254165 1_655
Mg13 Mg5 3.258715 1_555
Mg13 Mg3 3.258721 1_555
Cr0 Mg6 3.107060 1_555
Cr0 Mg7 3.107060 1_555
Cr0 Mg8 3.107067 1_555
Cr0 Mg9 3.107067 1_555
Cr0 Mg10 3.107067 1_455
Cr0 Mg11 3.107067 1_455
Cr0 Mg1 3.247580 1_545
Cr0 Mg1 3.247580 1_555
Cr0 Mg5 3.247580 1_445
Cr0 Mg5 3.247580 1_555
Cr0 Mg3 3.247580 1_455
Cr0 Mg3 3.247580 1_555
