# generated using pymatgen
data_Zr2VCo3
_symmetry_space_group_name_H-M   'P 1'
_cell_length_a   4.78701070
_cell_length_b   4.78701070
_cell_length_c   4.78701080
_cell_angle_alpha   64.07589442
_cell_angle_beta   64.07589442
_cell_angle_gamma   64.07588289
_symmetry_Int_Tables_number   1
_chemical_formula_structural   Zr2VCo3
_chemical_formula_sum   'Zr2 V1 Co3'
_cell_volume   84.52575932
_cell_formula_units_Z   1
loop_
 _symmetry_equiv_pos_site_id
 _symmetry_equiv_pos_as_xyz
  1  'x, y, z'
loop_
 _atom_site_type_symbol
 _atom_site_label
 _atom_site_symmetry_multiplicity
 _atom_site_fract_x
 _atom_site_fract_y
 _atom_site_fract_z
 _atom_site_occupancy
  Zr  Zr0  1  0.62698649  0.62698649  0.62698649  1
  Zr  Zr1  1  0.37301351  0.37301351  0.37301351  1
  V  V0  1  0.00000000  0.00000000  0.00000000  1
  Co  Co0  1  0.00000000  0.50000000  0.00000000  1
  Co  Co1  1  0.50000000  0.00000000  0.00000000  1
  Co  Co2  1  0.00000000  0.00000000  0.50000000  1
loop_
_geom_bond_atom_site_label_1
_geom_bond_atom_site_label_2
_geom_bond_distance
_geom_bond_site_symmetry_2
Zr0 Zr1 2.882963 1_555
Zr0 Zr1 3.067528 1_655
Zr0 Zr1 3.067528 1_565
Zr0 Zr1 3.067528 1_556
V0 Zr1 2.966660 1_455
V0 Zr1 2.966660 1_545
V0 Zr0 2.966660 1_454
V0 Zr0 2.966660 1_544
V0 Zr0 2.966660 1_445
V0 Zr1 2.966660 1_554
Co0 V0 2.393505 1_565
Co0 V0 2.393505 1_555
Co0 Co1 2.539417 1_555
Co0 Co1 2.539417 1_465
Co0 Co2 2.539417 1_555
Co0 Co2 2.539417 1_564
Co0 Zr0 2.763348 1_454
Co0 Zr1 2.763348 1_555
Co0 Zr0 2.920019 1_455
Co0 Zr1 2.920019 1_554
Co0 Zr1 2.920019 1_455
Co0 Zr0 2.920019 1_554
Co1 V0 2.393505 1_655
Co1 V0 2.393505 1_555
Co1 Co2 2.539417 1_555
Co1 Co2 2.539417 1_654
Co1 Zr0 2.763348 1_544
Co1 Zr1 2.763348 1_555
Co1 Zr0 2.920019 1_545
Co1 Zr1 2.920019 1_554
Co1 Zr1 2.920019 1_545
Co1 Zr0 2.920019 1_554
Co2 V0 2.393505 1_556
Co2 V0 2.393505 1_555
Co2 Zr0 2.763348 1_445
Co2 Zr1 2.763348 1_555
Co2 Zr1 2.920018 1_455
Co2 Zr1 2.920018 1_545
Co2 Zr0 2.920018 1_545
Co2 Zr0 2.920018 1_455
