# generated using pymatgen
data_KNa7Al8(SiO4)8
_symmetry_space_group_name_H-M   'P 1'
_cell_length_a   8.50072100
_cell_length_b   10.08902155
_cell_length_c   10.09941988
_cell_angle_alpha   119.90674990
_cell_angle_beta   89.97755692
_cell_angle_gamma   90.06011814
_symmetry_Int_Tables_number   1
_chemical_formula_structural   KNa7Al8(SiO4)8
_chemical_formula_sum   'K1 Na7 Al8 Si8 O32'
_cell_volume   750.82538327
_cell_formula_units_Z   1
loop_
 _symmetry_equiv_pos_site_id
 _symmetry_equiv_pos_as_xyz
  1  'x, y, z'
loop_
 _atom_site_type_symbol
 _atom_site_label
 _atom_site_symmetry_multiplicity
 _atom_site_fract_x
 _atom_site_fract_y
 _atom_site_fract_z
 _atom_site_occupancy
  K  K0  1  0.74135000  0.99944900  0.99912200  1
  Na  Na0  1  0.24436600  0.00064300  0.00102900  1
  Na  Na1  1  0.75063700  0.00378500  0.55579900  1
  Na  Na2  1  0.75035900  0.55517000  0.00195400  1
  Na  Na3  1  0.75139900  0.44744600  0.44245600  1
  Na  Na4  1  0.25114200  0.00613600  0.44773000  1
  Na  Na5  1  0.25051300  0.44506700  0.00182300  1
  Na  Na6  1  0.25036400  0.55221300  0.55149900  1
  Al  Al0  1  0.93284600  0.09081500  0.32978700  1
  Al  Al1  1  0.93575700  0.23852600  0.90611800  1
  Al  Al2  1  0.93517000  0.66680200  0.76080700  1
  Al  Al3  1  0.43532100  0.90654300  0.66814000  1
  Al  Al4  1  0.43508900  0.76121000  0.09326900  1
  Al  Al5  1  0.43308300  0.32850800  0.23793000  1
  Al  Al6  1  0.44045200  0.32975000  0.66303500  1
  Al  Al7  1  0.94089100  0.66349700  0.33372200  1
  Si  Si0  1  0.04737000  0.32940900  0.66309900  1
  Si  Si1  1  0.54728200  0.66302100  0.33368600  1
  Si  Si2  1  0.56352900  0.09268600  0.33098000  1
  Si  Si3  1  0.56100100  0.23797300  0.90381800  1
  Si  Si4  1  0.56127400  0.66624600  0.76228300  1
  Si  Si5  1  0.06136800  0.90477700  0.66678500  1
  Si  Si6  1  0.06203000  0.76191800  0.09478800  1
  Si  Si7  1  0.06355400  0.32972400  0.23718500  1
  O  O0  1  0.97161700  0.17116000  0.52513500  1
  O  O1  1  0.99395500  0.35166900  0.82814000  1
  O  O2  1  0.98935700  0.47548500  0.64696800  1
  O  O3  1  0.49314000  0.82754200  0.47742800  1
  O  O4  1  0.48894600  0.64813100  0.17254400  1
  O  O5  1  0.47107100  0.52420900  0.35295200  1
  O  O6  1  0.74006900  0.01798200  0.30551700  1
  O  O7  1  0.74017300  0.28999700  0.96970400  1
  O  O8  1  0.74007200  0.68139400  0.70972000  1
  O  O9  1  0.24055800  0.97156900  0.68133200  1
  O  O10  1  0.24056900  0.71007000  0.02677900  1
  O  O11  1  0.24044600  0.30226500  0.28370700  1
  O  O12  1  0.43806700  0.96066800  0.21746300  1
  O  O13  1  0.44067000  0.25751500  0.03977800  1
  O  O14  1  0.44010700  0.78261300  0.74336700  1
  O  O15  1  0.94044400  0.04057500  0.77969800  1
  O  O16  1  0.94017100  0.73917300  0.95901300  1
  O  O17  1  0.93774800  0.21941100  0.26009900  1
  O  O18  1  0.51201600  0.15856700  0.50866600  1
  O  O19  1  0.49770700  0.34704800  0.83791500  1
  O  O20  1  0.49974300  0.49113400  0.65296500  1
  O  O21  1  0.99920500  0.83734100  0.49170900  1
  O  O22  1  0.00091500  0.65384300  0.16280300  1
  O  O23  1  0.01334300  0.50825800  0.34875100  1
  O  O24  1  0.06869600  0.94326900  0.22595700  1
  O  O25  1  0.06687100  0.28363200  0.05750400  1
  O  O26  1  0.06704700  0.77359400  0.71695000  1
  O  O27  1  0.56660200  0.05802900  0.77149300  1
  O  O28  1  0.56735100  0.71372900  0.94233500  1
  O  O29  1  0.56880500  0.22802000  0.28606100  1
  O  O30  1  0.23722200  0.31683400  0.64843000  1
  O  O31  1  0.73715000  0.64846200  0.33137200  1
loop_
_geom_bond_atom_site_label_1
_geom_bond_atom_site_label_2
_geom_bond_distance
_geom_bond_site_symmetry_2
K0 O17 2.970211 1_566
K0 O15 2.976559 1_565
K0 O16 2.977277 1_555
K0 O6 3.005575 1_566
K0 O28 3.028108 1_555
K0 O27 3.033213 1_565
K0 O29 3.034313 1_566
K0 O8 3.080130 1_555
K0 O7 3.090256 1_565
Na0 O12 2.921510 1_545
Na0 O13 2.938404 1_555
Na0 O14 2.945390 1_544
Na0 O11 2.957833 1_555
Na0 O24 3.005360 1_545
Na0 O25 3.022898 1_555
Na0 O26 3.032048 1_544
Na0 O10 3.069686 1_545
Na0 O9 3.093152 1_544
Na1 O27 2.510504 1_555
Na1 O21 2.574135 1_545
Na1 O6 2.603671 1_555
Na1 O0 2.643962 1_555
Na1 O15 2.649347 1_555
Na1 O3 2.677552 1_545
Na1 O18 2.743802 1_555
Na2 O28 2.511624 1_554
Na2 O7 2.530143 1_554
Na2 O22 2.559711 1_655
Na2 O16 2.652136 1_554
Na2 O4 2.678830 1_555
Na2 O1 2.827886 1_554
Na2 O19 2.879374 1_554
Na2 O31 2.973945 1_555
Na3 O29 2.512539 1_555
Na3 O8 2.552124 1_555
Na3 O23 2.608592 1_655
Na3 O17 2.640915 1_555
Na3 O31 2.766902 1_555
Na3 O5 2.792704 1_555
Na3 O2 2.803093 1_555
Na3 O20 2.890438 1_555
Na4 O24 2.531464 1_545
Na4 O9 2.552642 1_545
Na4 O18 2.590711 1_555
Na4 O12 2.660532 1_545
Na4 O30 2.759211 1_555
Na4 O0 2.781769 1_455
Na4 O3 2.848797 1_545
Na4 O21 2.903433 1_445
Na5 O25 2.512621 1_555
Na5 O19 2.550103 1_554
Na5 O10 2.558792 1_555
Na5 O13 2.659058 1_555
Na5 O1 2.659266 1_454
Na5 O4 2.783847 1_555
Na5 O22 2.858958 1_555
Na6 O26 2.548090 1_555
Na6 O20 2.560852 1_555
Na6 O11 2.622904 1_555
Na6 O5 2.655922 1_555
Na6 O2 2.681554 1_455
Na6 O14 2.694960 1_555
Na6 O23 2.746809 1_555
Na6 O30 2.987938 1_555
Al0 O0 1.750217 1_555
Al0 O17 1.758057 1_555
Al0 O24 1.759326 1_645
Al0 O6 1.761731 1_555
Al1 O1 1.750123 1_555
Al1 O15 1.754339 1_555
Al1 O25 1.758800 1_656
Al1 O7 1.764866 1_555
Al2 O2 1.745917 1_555
Al2 O16 1.756282 1_555
Al2 O26 1.756913 1_655
Al2 O8 1.765032 1_555
Al3 O3 1.748108 1_555
Al3 O27 1.754231 1_565
Al3 O14 1.757725 1_555
Al3 O9 1.761872 1_555
Al4 O4 1.750537 1_555
Al4 O28 1.757509 1_554
Al4 O10 1.762096 1_555
Al4 O12 1.762488 1_555
Al5 O5 1.750406 1_555
Al5 O11 1.756696 1_555
Al5 O29 1.757713 1_555
Al5 O13 1.758613 1_555
Al6 O30 1.733178 1_555
Al6 O20 1.754649 1_555
Al6 O19 1.754961 1_555
Al6 O18 1.760665 1_555
Al7 O31 1.737555 1_555
Al7 O21 1.753852 1_555
Al7 O22 1.755365 1_655
Al7 O23 1.759128 1_655
O0 Si0 1.638718 1_655
O1 Si0 1.631330 1_655
O2 Si0 1.637903 1_655
O3 Si1 1.634826 1_555
O4 Si1 1.635154 1_555
O5 Si1 1.639705 1_555
O6 Si2 1.641685 1_555
O7 Si3 1.639791 1_555
O8 Si4 1.641669 1_555
O9 Si5 1.641722 1_555
O10 Si6 1.640552 1_555
O11 Si7 1.640082 1_555
O12 Si2 1.643516 1_565
O13 Si3 1.643171 1_554
O14 Si4 1.643807 1_555
O15 Si5 1.636533 1_645
O16 Si6 1.641001 1_656
O17 Si7 1.640139 1_655
O18 Si2 1.632315 1_555
O19 Si3 1.635667 1_555
O20 Si4 1.633173 1_555
O21 Si5 1.633683 1_655
O22 Si6 1.635869 1_555
O23 Si7 1.635118 1_555
O24 Si6 1.639706 1_555
O25 Si7 1.633580 1_555
O26 Si5 1.636914 1_555
O27 Si3 1.632459 1_555
O28 Si4 1.634065 1_555
O29 Si2 1.640007 1_555
O30 Si0 1.619922 1_555
O31 Si1 1.619942 1_555
