# generated using pymatgen
data_KBaSbSe3
_symmetry_space_group_name_H-M   'P 1'
_cell_length_a   9.38980000
_cell_length_b   9.57064600
_cell_length_c   9.57976468
_cell_angle_alpha   71.72552902
_cell_angle_beta   90.00000000
_cell_angle_gamma   90.00000000
_symmetry_Int_Tables_number   1
_chemical_formula_structural   KBaSbSe3
_chemical_formula_sum   'K4 Ba4 Sb4 Se12'
_cell_volume   817.48024394
_cell_formula_units_Z   4
loop_
 _symmetry_equiv_pos_site_id
 _symmetry_equiv_pos_as_xyz
  1  'x, y, z'
loop_
 _atom_site_type_symbol
 _atom_site_label
 _atom_site_symmetry_multiplicity
 _atom_site_fract_x
 _atom_site_fract_y
 _atom_site_fract_z
 _atom_site_occupancy
  K  K0  1  0.08937000  0.58535000  0.29013700  1
  K  K1  1  0.58937000  0.41465000  0.20986300  1
  K  K2  1  0.91063000  0.41465000  0.70986300  1
  K  K3  1  0.41063000  0.58535000  0.79013700  1
  Ba  Ba0  1  0.71329600  0.91705800  0.03647300  1
  Ba  Ba1  1  0.21329600  0.08294200  0.46352700  1
  Ba  Ba2  1  0.28670400  0.08294200  0.96352700  1
  Ba  Ba3  1  0.78670400  0.91705800  0.53647300  1
  Sb  Sb0  1  0.45154600  0.75222500  0.37363100  1
  Sb  Sb1  1  0.95154600  0.24777500  0.12636900  1
  Sb  Sb2  1  0.54845400  0.24777500  0.62636900  1
  Sb  Sb3  1  0.04845400  0.75222500  0.87363100  1
  Se  Se0  1  0.20486600  0.35975200  0.09148200  1
  Se  Se1  1  0.70486600  0.64024800  0.40851800  1
  Se  Se2  1  0.79513400  0.64024800  0.90851800  1
  Se  Se3  1  0.29513400  0.35975200  0.59148200  1
  Se  Se4  1  0.01636700  0.96406100  0.22282700  1
  Se  Se5  1  0.51636700  0.03593900  0.27717300  1
  Se  Se6  1  0.98363300  0.03593900  0.77717300  1
  Se  Se7  1  0.48363300  0.96406100  0.72282700  1
  Se  Se8  1  0.39617200  0.72948100  0.11721400  1
  Se  Se9  1  0.89617200  0.27051900  0.38278600  1
  Se  Se10  1  0.60382800  0.27051900  0.88278600  1
  Se  Se11  1  0.10382800  0.72948100  0.61721400  1
loop_
_geom_bond_atom_site_label_1
_geom_bond_atom_site_label_2
_geom_bond_distance
_geom_bond_site_symmetry_2
K0 Se9 3.388288 1_455
K0 Se8 3.393081 1_555
K0 Se0 3.469359 1_555
K0 Se4 3.543590 1_555
K0 Se3 3.580432 1_555
K0 Se11 3.801257 1_555
K0 Sb3 3.823904 1_554
K0 Se1 3.869229 1_455
K0 Sb0 3.944211 1_555
K1 Se8 3.388288 1_555
K1 Se9 3.393081 1_555
K1 Se1 3.469359 1_555
K1 Se5 3.543590 1_555
K1 Se2 3.580432 1_554
K1 Se10 3.801257 1_554
K1 Sb2 3.823904 1_555
K1 Se0 3.869229 1_555
K1 Sb1 3.944211 1_555
K2 Se11 3.388288 1_655
K2 Se10 3.393081 1_555
K2 Se2 3.469359 1_555
K2 Se6 3.543590 1_555
K2 Se1 3.580432 1_555
K2 Se9 3.801257 1_555
K2 Sb1 3.823904 1_556
K2 Se3 3.869229 1_655
K2 Sb2 3.944211 1_555
K3 Se10 3.388288 1_555
K3 Se11 3.393081 1_555
K3 Se3 3.469359 1_555
K3 Se7 3.543590 1_555
K3 Se0 3.580432 1_556
K3 Se8 3.801257 1_556
K3 Sb0 3.823904 1_555
K3 Se2 3.869229 1_555
K3 Sb3 3.944211 1_555
Ba0 Se2 3.338882 1_554
Ba0 Se10 3.397700 1_564
Ba0 Se5 3.417020 1_565
Ba0 Se8 3.437613 1_555
Ba0 Se4 3.462873 1_655
Ba0 Se6 3.483678 1_564
Ba0 Se7 3.610138 1_554
Ba0 Se1 3.715650 1_555
Ba1 Se3 3.338882 1_555
Ba1 Se11 3.397700 1_545
Ba1 Se4 3.417020 1_545
Ba1 Se9 3.437613 1_455
Ba1 Se5 3.462873 1_555
Ba1 Se7 3.483678 1_545
Ba1 Se6 3.610138 1_455
Ba1 Se0 3.715650 1_555
Ba2 Se0 3.338882 1_556
Ba2 Se8 3.397700 1_546
Ba2 Se7 3.417020 1_545
Ba2 Se10 3.437613 1_555
Ba2 Se6 3.462873 1_455
Ba2 Se4 3.483678 1_546
Ba2 Se5 3.610138 1_556
Ba2 Se3 3.715650 1_555
Ba3 Se1 3.338882 1_555
Ba3 Se9 3.397700 1_565
Ba3 Se6 3.417020 1_565
Ba3 Se11 3.437613 1_655
Ba3 Se7 3.462873 1_555
Ba3 Se5 3.483678 1_565
Ba3 Se4 3.610138 1_655
Ba3 Se2 3.715650 1_555
Sb0 Se8 2.585930 1_555
Sb0 Se1 2.587170 1_555
Sb0 Se5 2.650240 1_565
Sb1 Se9 2.585930 1_555
Sb1 Se0 2.587170 1_655
Sb1 Se4 2.650240 1_645
Sb2 Se10 2.585930 1_555
Sb2 Se3 2.587170 1_555
Sb2 Se7 2.650240 1_545
Sb3 Se11 2.585930 1_555
Sb3 Se2 2.587170 1_455
Sb3 Se6 2.650240 1_465
