# generated using pymatgen
data_NaGa
_symmetry_space_group_name_H-M   'P 1'
_cell_length_a   5.19446255
_cell_length_b   5.19446255
_cell_length_c   4.49881400
_cell_angle_alpha   90.00000000
_cell_angle_beta   90.00000000
_cell_angle_gamma   111.66584311
_symmetry_Int_Tables_number   1
_chemical_formula_structural   NaGa
_chemical_formula_sum   'Na2 Ga2'
_cell_volume   112.81319604
_cell_formula_units_Z   2
loop_
 _symmetry_equiv_pos_site_id
 _symmetry_equiv_pos_as_xyz
  1  'x, y, z'
loop_
 _atom_site_type_symbol
 _atom_site_label
 _atom_site_symmetry_multiplicity
 _atom_site_fract_x
 _atom_site_fract_y
 _atom_site_fract_z
 _atom_site_occupancy
  Na  Na0  1  0.67457800  0.32542200  0.25000000  1
  Na  Na1  1  0.32542200  0.67457800  0.75000000  1
  Ga  Ga0  1  0.05261900  0.94738100  0.25000000  1
  Ga  Ga1  1  0.94738100  0.05261900  0.75000000  1
loop_
_geom_bond_atom_site_label_1
_geom_bond_atom_site_label_2
_geom_bond_distance
_geom_bond_site_symmetry_2
Na0 Na1 3.750673 1_555
Na0 Na1 3.750673 1_554
Ga0 Ga1 2.424489 1_464
Ga0 Ga1 2.424489 1_465
Ga0 Na0 3.099899 1_455
Ga0 Na0 3.099899 1_565
Ga0 Na1 3.249417 1_555
Ga0 Na1 3.249417 1_554
Ga0 Na0 3.249577 1_465
Ga1 Na1 3.099899 1_545
Ga1 Na1 3.099899 1_655
Ga1 Na0 3.249417 1_556
Ga1 Na0 3.249417 1_555
Ga1 Na1 3.249577 1_645
