# generated using pymatgen
data_Ca3Si4(AgO7)2
_symmetry_space_group_name_H-M   'P 1'
_cell_length_a   9.53732539
_cell_length_b   9.53732539
_cell_length_c   10.41000665
_cell_angle_alpha   61.17118458
_cell_angle_beta   61.17118458
_cell_angle_gamma   48.70111639
_symmetry_Int_Tables_number   1
_chemical_formula_structural   Ca3Si4(AgO7)2
_chemical_formula_sum   'Ca6 Si8 Ag4 O28'
_cell_volume   603.57245523
_cell_formula_units_Z   2
loop_
 _symmetry_equiv_pos_site_id
 _symmetry_equiv_pos_as_xyz
  1  'x, y, z'
loop_
 _atom_site_type_symbol
 _atom_site_label
 _atom_site_symmetry_multiplicity
 _atom_site_fract_x
 _atom_site_fract_y
 _atom_site_fract_z
 _atom_site_occupancy
  Ca  Ca0  1  0.24037100  0.15166900  0.53657900  1
  Ca  Ca1  1  0.84833100  0.75962900  0.96342000  1
  Ca  Ca2  1  0.15166900  0.24037100  0.03657900  1
  Ca  Ca3  1  0.65860700  0.34139300  0.25000000  1
  Ca  Ca4  1  0.75962900  0.84833100  0.46342100  1
  Ca  Ca5  1  0.34139300  0.65860700  0.75000000  1
  Si  Si0  1  0.09170500  0.53638200  0.67078100  1
  Si  Si1  1  0.53638200  0.09170500  0.17078100  1
  Si  Si2  1  0.22996400  0.51483700  0.14016400  1
  Si  Si3  1  0.51483700  0.22996400  0.64016400  1
  Si  Si4  1  0.46361800  0.90829500  0.82921900  1
  Si  Si5  1  0.77003600  0.48516300  0.85983600  1
  Si  Si6  1  0.48516300  0.77003600  0.35983600  1
  Si  Si7  1  0.90829500  0.46361800  0.32921900  1
  Ag  Ag0  1  0.22735100  0.77264900  0.25000000  1
  Ag  Ag1  1  0.77264900  0.22735100  0.75000000  1
  Ag  Ag2  1  0.00000000  0.00000000  0.00000000  1
  Ag  Ag3  1  0.00000000  0.00000000  0.50000000  1
  O  O0  1  0.32812500  0.85609200  0.50594400  1
  O  O1  1  0.89766900  0.97045200  0.72188800  1
  O  O2  1  0.63153500  0.47418800  0.81937100  1
  O  O3  1  0.97045200  0.89766900  0.22188800  1
  O  O4  1  0.97931500  0.26002600  0.45877600  1
  O  O5  1  0.51101700  0.06305600  0.80090400  1
  O  O6  1  0.47418800  0.63153500  0.31937100  1
  O  O7  1  0.73997400  0.02068500  0.04122400  1
  O  O8  1  0.48898300  0.93694400  0.19909600  1
  O  O9  1  0.69785100  0.64549300  0.39897900  1
  O  O10  1  0.10233100  0.02954800  0.27811200  1
  O  O11  1  0.02068500  0.73997400  0.54122400  1
  O  O12  1  0.93694400  0.48898300  0.69909600  1
  O  O13  1  0.85609200  0.32812500  0.00594400  1
  O  O14  1  0.64549300  0.69785100  0.89897900  1
  O  O15  1  0.26002600  0.97931500  0.95877600  1
  O  O16  1  0.47051700  0.90344700  0.67326100  1
  O  O17  1  0.30214900  0.35450700  0.60102100  1
  O  O18  1  0.09655300  0.52948300  0.82673900  1
  O  O19  1  0.35450700  0.30214900  0.10102100  1
  O  O20  1  0.06305600  0.51101700  0.30090400  1
  O  O21  1  0.02954800  0.10233100  0.77811200  1
  O  O22  1  0.90344700  0.47051700  0.17326100  1
  O  O23  1  0.36846500  0.52581200  0.18062900  1
  O  O24  1  0.52948300  0.09655300  0.32673900  1
  O  O25  1  0.52581200  0.36846500  0.68062900  1
  O  O26  1  0.14390800  0.67187500  0.99405600  1
  O  O27  1  0.67187500  0.14390800  0.49405600  1
loop_
_geom_bond_atom_site_label_1
_geom_bond_atom_site_label_2
_geom_bond_distance
_geom_bond_site_symmetry_2
Ca0 O16 2.313295 1_545
Ca0 O4 2.379950 1_455
Ca0 O21 2.412178 1_555
Ca0 O24 2.456926 1_555
Ca0 O0 2.498867 1_545
Ca0 O17 2.770715 1_555
Ca0 O20 2.977715 1_555
Ca1 O18 2.313289 1_655
Ca1 O7 2.379957 1_566
Ca1 O1 2.412172 1_555
Ca1 O22 2.456931 1_556
Ca1 O26 2.498872 1_655
Ca1 O14 2.770708 1_555
Ca1 O8 2.977721 1_556
Ca2 O22 2.313295 1_455
Ca2 O15 2.379950 1_544
Ca2 O10 2.412178 1_555
Ca2 O18 2.456926 1_554
Ca2 O13 2.498867 1_455
Ca2 O19 2.770715 1_555
Ca2 O5 2.977715 1_554
Ca3 O13 2.323557 1_555
Ca3 O27 2.323557 1_555
Ca3 O6 2.355881 1_555
Ca3 O23 2.355881 1_555
Ca3 O24 2.942046 1_555
Ca3 O22 2.942046 1_555
Ca4 O24 2.313295 1_565
Ca4 O11 2.379950 1_655
Ca4 O3 2.412178 1_555
Ca4 O16 2.456926 1_555
Ca4 O27 2.498867 1_565
Ca4 O9 2.770715 1_555
Ca4 O12 2.977715 1_555
Ca5 O26 2.323557 1_555
Ca5 O0 2.323557 1_555
Ca5 O25 2.355881 1_555
Ca5 O2 2.355881 1_555
Ca5 O18 2.942046 1_555
Ca5 O16 2.942046 1_555
Ag0 O10 2.002313 1_565
Ag0 O3 2.002313 1_455
Ag0 O6 2.096423 1_555
Ag0 O23 2.096423 1_555
Ag0 O11 2.703692 1_555
Ag0 O15 2.703692 1_554
Ag1 O21 2.002313 1_655
Ag1 O1 2.002313 1_545
Ag1 O25 2.096423 1_555
Ag1 O2 2.096423 1_555
Ag1 O7 2.703692 1_556
Ag1 O4 2.703692 1_555
Ag2 O3 1.982065 1_445
Ag2 O21 1.982065 1_554
Ag2 O15 2.186950 1_544
Ag2 O7 2.186950 1_455
Ag2 O13 2.473117 1_455
Ag2 O26 2.473117 1_544
Ag3 O1 1.982065 1_445
Ag3 O10 1.982065 1_555
Ag3 O4 2.186950 1_455
Ag3 O11 2.186950 1_545
Ag3 O0 2.473117 1_545
Ag3 O27 2.473117 1_455
O0 Si6 1.616975 1_555
O2 Si5 1.641614 1_555
O4 Si7 1.633239 1_555
O5 Si3 1.668604 1_555
O5 Si4 1.674067 1_545
O6 Si6 1.641614 1_555
O7 Si1 1.633239 1_555
O8 Si6 1.668604 1_555
O8 Si1 1.674067 1_565
O9 Si7 1.666817 1_555
O9 Si6 1.685703 1_555
O11 Si0 1.633239 1_555
O12 Si5 1.668604 1_555
O12 Si0 1.674067 1_655
O13 Si5 1.616975 1_554
O14 Si4 1.666817 1_555
O14 Si5 1.685703 1_555
O15 Si4 1.633239 1_555
O16 Si4 1.614823 1_555
O17 Si0 1.666817 1_555
O17 Si3 1.685703 1_555
O18 Si0 1.614823 1_555
O19 Si1 1.666817 1_555
O19 Si2 1.685703 1_555
O20 Si2 1.668604 1_555
O20 Si7 1.674067 1_455
O22 Si7 1.614823 1_555
O23 Si2 1.641614 1_555
O24 Si1 1.614823 1_555
O25 Si3 1.641614 1_555
O26 Si2 1.616975 1_556
O27 Si3 1.616975 1_555
