# generated using pymatgen
data_EuBi2
_symmetry_space_group_name_H-M   'P 1'
_cell_length_a   4.68475707
_cell_length_b   4.68475707
_cell_length_c   17.42652379
_cell_angle_alpha   97.72476811
_cell_angle_beta   97.72476811
_cell_angle_gamma   90.00000000
_symmetry_Int_Tables_number   1
_chemical_formula_structural   EuBi2
_chemical_formula_sum   'Eu4 Bi8'
_cell_volume   375.48545710
_cell_formula_units_Z   4
loop_
 _symmetry_equiv_pos_site_id
 _symmetry_equiv_pos_as_xyz
  1  'x, y, z'
loop_
 _atom_site_type_symbol
 _atom_site_label
 _atom_site_symmetry_multiplicity
 _atom_site_fract_x
 _atom_site_fract_y
 _atom_site_fract_z
 _atom_site_occupancy
  Eu  Eu0  1  0.44849196  0.69849196  0.89698392  1
  Eu  Eu1  1  0.69849196  0.44849196  0.39698392  1
  Eu  Eu2  1  0.55150804  0.30150804  0.10301708  1
  Eu  Eu3  1  0.30150804  0.55150804  0.60301608  1
  Bi  Bi0  1  0.96822433  0.21822433  0.93644865  1
  Bi  Bi1  1  0.21822433  0.96822433  0.43644865  1
  Bi  Bi2  1  0.03177567  0.78177567  0.06355135  1
  Bi  Bi3  1  0.78177567  0.03177567  0.56355135  1
  Bi  Bi4  1  0.62693435  0.87693435  0.25386869  1
  Bi  Bi5  1  0.87693435  0.62693435  0.75386869  1
  Bi  Bi6  1  0.37306565  0.12306565  0.74613131  1
  Bi  Bi7  1  0.12306565  0.37306565  0.24613131  1
loop_
_geom_bond_atom_site_label_1
_geom_bond_atom_site_label_2
_geom_bond_distance
_geom_bond_site_symmetry_2
Bi0 Bi2 3.196169 1_656
Bi0 Bi2 3.196170 1_646
Bi0 Eu0 3.380734 1_655
Bi0 Eu0 3.380734 1_645
Bi0 Eu0 3.380734 1_555
Bi0 Eu0 3.380734 1_545
Bi0 Eu2 3.688900 1_656
Bi0 Eu2 3.688903 1_556
Bi1 Bi3 3.196169 1_565
Bi1 Bi3 3.196170 1_465
Bi1 Eu1 3.380734 1_565
Bi1 Eu1 3.380734 1_555
Bi1 Eu1 3.380734 1_465
Bi1 Eu1 3.380734 1_455
Bi1 Eu3 3.688888 1_565
Bi1 Eu3 3.688888 1_555
Bi2 Eu2 3.380734 1_565
Bi2 Eu2 3.380737 1_465
Bi2 Eu2 3.380737 1_555
Bi2 Eu2 3.380740 1_455
Bi2 Eu0 3.688888 1_454
Bi2 Eu0 3.688888 1_554
Bi3 Eu3 3.380734 1_545
Bi3 Eu3 3.380734 1_645
Bi3 Eu3 3.380734 1_555
Bi3 Eu3 3.380734 1_655
Bi3 Eu1 3.688888 1_545
Bi3 Eu1 3.688888 1_555
Bi4 Bi7 3.315267 1_665
Bi4 Bi7 3.315267 1_565
Bi4 Bi7 3.315267 1_655
Bi4 Bi7 3.315267 1_555
Bi4 Eu1 3.388513 1_565
Bi4 Eu1 3.388513 1_555
Bi4 Eu2 3.485355 1_565
Bi4 Eu2 3.485358 1_555
Bi5 Bi6 3.315267 1_665
Bi5 Bi6 3.315267 1_655
Bi5 Bi6 3.315267 1_565
Bi5 Bi6 3.315267 1_555
Bi5 Eu0 3.388513 1_655
Bi5 Eu0 3.388513 1_555
Bi5 Eu3 3.485370 1_655
Bi5 Eu3 3.485370 1_555
Bi6 Eu3 3.388513 1_545
Bi6 Eu3 3.388513 1_555
Bi6 Eu0 3.485370 1_545
Bi6 Eu0 3.485370 1_555
Bi7 Eu2 3.388499 1_555
Bi7 Eu2 3.388502 1_455
Bi7 Eu1 3.485370 1_455
Bi7 Eu1 3.485370 1_555
