# generated using pymatgen
data_KLaEuSbO6
_symmetry_space_group_name_H-M   'P 1'
_cell_length_a   9.21117755
_cell_length_b   9.19711803
_cell_length_c   9.34066937
_cell_angle_alpha   90.00000000
_cell_angle_beta   90.00000000
_cell_angle_gamma   90.00000000
_symmetry_Int_Tables_number   1
_chemical_formula_structural   KLaEuSbO6
_chemical_formula_sum   'K4 La4 Eu4 Sb4 O24'
_cell_volume   791.30682827
_cell_formula_units_Z   4
loop_
 _symmetry_equiv_pos_site_id
 _symmetry_equiv_pos_as_xyz
  1  'x, y, z'
loop_
 _atom_site_type_symbol
 _atom_site_label
 _atom_site_symmetry_multiplicity
 _atom_site_fract_x
 _atom_site_fract_y
 _atom_site_fract_z
 _atom_site_occupancy
  K  K0  1  0.00000000  0.50000000  0.50000000  1
  K  K1  1  0.50000000  0.50000000  0.00000000  1
  K  K2  1  0.50000000  0.00000000  0.00000000  1
  K  K3  1  0.00000000  0.00000000  0.50000000  1
  La  La0  1  0.75000000  0.75000000  0.75000000  1
  La  La1  1  0.25000000  0.25000000  0.75000000  1
  La  La2  1  0.25000000  0.75000000  0.25000000  1
  La  La3  1  0.75000000  0.25000000  0.25000000  1
  Eu  Eu0  1  0.50000000  0.00000000  0.50000000  1
  Eu  Eu1  1  0.00000000  0.50000000  0.00000000  1
  Eu  Eu2  1  0.00000000  0.00000000  0.00000000  1
  Eu  Eu3  1  0.50000000  0.50000000  0.50000000  1
  Sb  Sb0  1  0.25000000  0.25000000  0.25000000  1
  Sb  Sb1  1  0.75000000  0.75000000  0.25000000  1
  Sb  Sb2  1  0.75000000  0.25000000  0.75000000  1
  Sb  Sb3  1  0.25000000  0.75000000  0.75000000  1
  O  O0  1  0.02108458  0.20103988  0.28487375  1
  O  O1  1  0.97891542  0.79896012  0.28487375  1
  O  O2  1  0.97891542  0.20103988  0.71512625  1
  O  O3  1  0.02108458  0.79896012  0.71512625  1
  O  O4  1  0.28777680  0.02074853  0.20269293  1
  O  O5  1  0.28777680  0.97925147  0.79730707  1
  O  O6  1  0.71222320  0.97925147  0.20269293  1
  O  O7  1  0.71222320  0.02074853  0.79730707  1
  O  O8  1  0.19379453  0.29191461  0.01875005  1
  O  O9  1  0.80620547  0.29191461  0.98124995  1
  O  O10  1  0.19379453  0.70808539  0.98124995  1
  O  O11  1  0.80620547  0.70808539  0.01875005  1
  O  O12  1  0.47891542  0.29896012  0.21512625  1
  O  O13  1  0.52108458  0.70103988  0.21512625  1
  O  O14  1  0.52108458  0.29896012  0.78487375  1
  O  O15  1  0.47891542  0.70103988  0.78487375  1
  O  O16  1  0.21222320  0.47925147  0.29730707  1
  O  O17  1  0.21222320  0.52074853  0.70269293  1
  O  O18  1  0.78777680  0.52074853  0.29730707  1
  O  O19  1  0.78777680  0.47925147  0.70269293  1
  O  O20  1  0.30620547  0.20808539  0.48124995  1
  O  O21  1  0.69379453  0.20808539  0.51875005  1
  O  O22  1  0.30620547  0.79191461  0.51875005  1
  O  O23  1  0.69379453  0.79191461  0.48124995  1
loop_
_geom_bond_atom_site_label_1
_geom_bond_atom_site_label_2
_geom_bond_distance
_geom_bond_site_symmetry_2
K0 O17 2.728057 1_555
K0 O16 2.728057 1_555
K0 O19 2.728057 1_455
K0 O18 2.728057 1_455
K1 O14 2.737564 1_554
K1 O15 2.737564 1_554
K1 O12 2.737564 1_555
K1 O13 2.737564 1_555
K2 O6 2.728057 1_545
K2 O7 2.728057 1_554
K2 O5 2.728057 1_544
K2 O4 2.728057 1_555
K3 O3 2.737564 1_545
K3 O1 2.737564 1_445
K3 O2 2.737564 1_455
K3 O0 2.737564 1_555
La0 O19 2.552835 1_555
La0 O7 2.552835 1_565
La0 O3 2.558109 1_655
La0 O15 2.558109 1_555
La0 O23 2.591963 1_555
La0 O11 2.591963 1_556
La1 O5 2.552835 1_545
La1 O17 2.552835 1_555
La1 O2 2.558109 1_455
La1 O14 2.558109 1_555
La1 O20 2.591963 1_555
La1 O8 2.591963 1_556
La2 O16 2.552835 1_555
La2 O4 2.552835 1_565
La2 O1 2.558109 1_455
La2 O13 2.558109 1_555
La2 O22 2.591963 1_555
La2 O10 2.591963 1_554
La3 O18 2.552835 1_555
La3 O6 2.552835 1_545
La3 O0 2.558109 1_655
La3 O12 2.558109 1_555
La3 O9 2.591963 1_554
La3 O21 2.591963 1_555
Eu0 O20 2.622927 1_555
Eu0 O21 2.622927 1_555
Eu0 O22 2.622927 1_545
Eu0 O23 2.622927 1_545
Eu1 O9 2.622927 1_454
Eu1 O8 2.622927 1_555
Eu1 O10 2.622927 1_554
Eu1 O11 2.622927 1_455
Eu2 O10 3.228804 1_544
Eu2 O11 3.228804 1_445
Eu2 O9 3.228804 1_454
Eu2 O8 3.228804 1_555
Eu2 O1 3.246063 1_445
Eu2 O0 3.246063 1_555
Eu2 O3 3.246063 1_544
Eu2 O2 3.246063 1_454
Eu2 O5 3.263050 1_544
Eu2 O4 3.263050 1_555
Eu2 O7 3.263050 1_454
Eu2 O6 3.263050 1_445
Eu3 O20 3.228804 1_555
Eu3 O23 3.228804 1_555
Eu3 O21 3.228804 1_555
Eu3 O22 3.228804 1_555
Eu3 O14 3.246063 1_555
Eu3 O12 3.246063 1_555
Eu3 O13 3.246063 1_555
Eu3 O15 3.246063 1_555
Eu3 O18 3.263050 1_555
Eu3 O19 3.263050 1_555
Eu3 O16 3.263050 1_555
Eu3 O17 3.263050 1_555
O0 Sb0 2.180593 1_555
O1 Sb1 2.180593 1_555
O2 Sb2 2.180593 1_555
O3 Sb3 2.180593 1_555
O4 Sb0 2.182181 1_555
O5 Sb3 2.182181 1_555
O6 Sb1 2.182181 1_555
O7 Sb2 2.182181 1_555
O8 Sb0 2.254410 1_555
O9 Sb2 2.254410 1_555
O10 Sb3 2.254410 1_555
O11 Sb1 2.254410 1_555
O12 Sb0 2.180593 1_555
O13 Sb1 2.180593 1_555
O14 Sb2 2.180593 1_555
O15 Sb3 2.180593 1_555
O16 Sb0 2.182181 1_555
O17 Sb3 2.182181 1_555
O18 Sb1 2.182181 1_555
O19 Sb2 2.182181 1_555
O20 Sb0 2.254410 1_555
O21 Sb2 2.254410 1_555
O22 Sb3 2.254410 1_555
O23 Sb1 2.254410 1_555
