# generated using pymatgen
data_Ga40CuMo8
_symmetry_space_group_name_H-M   'P 1'
_cell_length_a   9.59731154
_cell_length_b   9.59731154
_cell_length_c   9.59731134
_cell_angle_alpha   94.65270138
_cell_angle_beta   94.65270138
_cell_angle_gamma   94.65270341
_symmetry_Int_Tables_number   1
_chemical_formula_structural   Ga40CuMo8
_chemical_formula_sum   'Ga40 Cu1 Mo8'
_cell_volume   874.74803778
_cell_formula_units_Z   1
loop_
 _symmetry_equiv_pos_site_id
 _symmetry_equiv_pos_as_xyz
  1  'x, y, z'
loop_
 _atom_site_type_symbol
 _atom_site_label
 _atom_site_symmetry_multiplicity
 _atom_site_fract_x
 _atom_site_fract_y
 _atom_site_fract_z
 _atom_site_occupancy
  Ga  Ga0  1  0.50000000  0.50000000  0.50000000  1
  Ga  Ga1  1  0.50000000  0.00000000  0.50000000  1
  Ga  Ga2  1  0.00000000  0.50000000  0.50000000  1
  Ga  Ga3  1  0.50000000  0.50000000  0.00000000  1
  Ga  Ga4  1  0.36520100  0.73422100  0.38852200  1
  Ga  Ga5  1  0.73422100  0.38852200  0.36520100  1
  Ga  Ga6  1  0.38852200  0.36520100  0.73422100  1
  Ga  Ga7  1  0.63479900  0.26577900  0.61147800  1
  Ga  Ga8  1  0.26577900  0.61147800  0.63479900  1
  Ga  Ga9  1  0.61147800  0.63479900  0.26577900  1
  Ga  Ga10  1  0.22056600  0.32454700  0.46227400  1
  Ga  Ga11  1  0.32454700  0.46227400  0.22056600  1
  Ga  Ga12  1  0.46227400  0.22056600  0.32454700  1
  Ga  Ga13  1  0.77943400  0.67545300  0.53772600  1
  Ga  Ga14  1  0.67545300  0.53772600  0.77943400  1
  Ga  Ga15  1  0.53772600  0.77943400  0.67545300  1
  Ga  Ga16  1  0.92567300  0.22100600  0.54985100  1
  Ga  Ga17  1  0.22100600  0.54985100  0.92567300  1
  Ga  Ga18  1  0.54985100  0.92567300  0.22100600  1
  Ga  Ga19  1  0.07432700  0.77899400  0.45014900  1
  Ga  Ga20  1  0.77899400  0.45014900  0.07432700  1
  Ga  Ga21  1  0.45014900  0.07432700  0.77899400  1
  Ga  Ga22  1  0.21324600  0.03188500  0.40022000  1
  Ga  Ga23  1  0.03188500  0.40022000  0.21324600  1
  Ga  Ga24  1  0.40022000  0.21324600  0.03188500  1
  Ga  Ga25  1  0.78675400  0.96811500  0.59978000  1
  Ga  Ga26  1  0.96811500  0.59978000  0.78675400  1
  Ga  Ga27  1  0.59978000  0.78675400  0.96811500  1
  Ga  Ga28  1  0.25538800  0.94514700  0.12435800  1
  Ga  Ga29  1  0.94514700  0.12435800  0.25538800  1
  Ga  Ga30  1  0.12435800  0.25538800  0.94514700  1
  Ga  Ga31  1  0.74461200  0.05485300  0.87564200  1
  Ga  Ga32  1  0.05485300  0.87564200  0.74461200  1
  Ga  Ga33  1  0.87564200  0.74461200  0.05485300  1
  Ga  Ga34  1  0.82326400  0.87470900  0.32036000  1
  Ga  Ga35  1  0.87470900  0.32036000  0.82326400  1
  Ga  Ga36  1  0.32036000  0.82326400  0.87470900  1
  Ga  Ga37  1  0.17673600  0.12529100  0.67964000  1
  Ga  Ga38  1  0.12529100  0.67964000  0.17673600  1
  Ga  Ga39  1  0.67964000  0.17673600  0.12529100  1
  Cu  Cu0  1  0.00000000  0.00000000  0.00000000  1
  Mo  Mo0  1  0.19877400  0.19877400  0.19877400  1
  Mo  Mo1  1  0.80122600  0.80122600  0.80122600  1
  Mo  Mo2  1  0.38756800  0.70891400  0.11231100  1
  Mo  Mo3  1  0.70891400  0.11231100  0.38756800  1
  Mo  Mo4  1  0.11231100  0.38756800  0.70891400  1
  Mo  Mo5  1  0.61243200  0.29108600  0.88768900  1
  Mo  Mo6  1  0.29108600  0.88768900  0.61243200  1
  Mo  Mo7  1  0.88768900  0.61243200  0.29108600  1
loop_
_geom_bond_atom_site_label_1
_geom_bond_atom_site_label_2
_geom_bond_distance
_geom_bond_site_symmetry_2
Ga0 Ga6 2.916979 1_555
Ga0 Ga9 2.916979 1_555
Ga0 Ga8 2.916979 1_555
Ga0 Ga5 2.916979 1_555
Ga0 Ga4 2.916979 1_555
Ga0 Ga7 2.916979 1_555
Ga0 Ga14 3.028138 1_555
Ga0 Ga11 3.028138 1_555
Ga0 Ga13 3.028138 1_555
Ga0 Ga10 3.028138 1_555
Ga0 Ga15 3.028138 1_555
Ga0 Ga12 3.028138 1_555
Ga1 Mo3 2.556426 1_555
Ga1 Mo6 2.556426 1_545
Ga2 Mo4 2.556426 1_555
Ga2 Mo7 2.556426 1_455
Ga3 Mo2 2.556426 1_555
Ga3 Mo5 2.556426 1_554
Ga4 Mo2 2.669939 1_555
Ga4 Mo6 2.682855 1_555
Ga5 Mo3 2.669939 1_555
Ga5 Mo7 2.682854 1_555
Ga6 Mo4 2.669939 1_555
Ga6 Mo5 2.682855 1_555
Ga7 Mo5 2.669939 1_555
Ga7 Mo3 2.682855 1_555
Ga8 Mo6 2.669939 1_555
Ga8 Mo4 2.682854 1_555
Ga9 Mo7 2.669939 1_555
Ga9 Mo2 2.682855 1_555
Ga10 Mo0 2.697053 1_555
Ga10 Mo4 2.704992 1_555
Ga10 Ga37 2.974040 1_555
Ga11 Mo0 2.697053 1_555
Ga11 Mo2 2.704992 1_555
Ga11 Ga38 2.974040 1_555
Ga12 Mo0 2.697053 1_555
Ga12 Mo3 2.704992 1_555
Ga12 Ga39 2.974040 1_555
Ga13 Mo1 2.697053 1_555
Ga13 Mo7 2.704992 1_555
Ga13 Ga34 2.974040 1_555
Ga14 Mo1 2.697053 1_555
Ga14 Mo5 2.704992 1_555
Ga14 Ga35 2.974040 1_555
Ga15 Mo1 2.697053 1_555
Ga15 Mo6 2.704992 1_555
Ga15 Ga36 2.974040 1_555
Ga16 Mo3 2.588504 1_555
Ga16 Mo4 2.605809 1_655
Ga16 Ga35 2.812819 1_555
Ga16 Ga37 2.873857 1_655
Ga16 Ga29 2.927529 1_555
Ga17 Mo4 2.588504 1_555
Ga17 Mo2 2.605809 1_556
Ga17 Ga36 2.812819 1_555
Ga17 Ga38 2.873857 1_556
Ga17 Ga30 2.927529 1_555
Ga18 Mo2 2.588504 1_555
Ga18 Mo3 2.605809 1_565
Ga18 Ga34 2.812819 1_555
Ga18 Ga39 2.873857 1_565
Ga18 Ga28 2.927529 1_555
Ga19 Mo6 2.588504 1_555
Ga19 Mo7 2.605809 1_455
Ga19 Ga38 2.812819 1_555
Ga19 Ga34 2.873857 1_455
Ga19 Ga32 2.927529 1_555
Ga20 Mo7 2.588504 1_555
Ga20 Mo5 2.605809 1_554
Ga20 Ga39 2.812819 1_555
Ga20 Ga35 2.873857 1_554
Ga20 Ga33 2.927529 1_555
Ga21 Mo5 2.588504 1_555
Ga21 Mo6 2.605809 1_545
Ga21 Ga37 2.812819 1_555
Ga21 Ga36 2.873857 1_545
Ga21 Ga31 2.927529 1_555
Ga22 Mo0 2.611012 1_555
Ga22 Mo6 2.645637 1_545
Ga22 Ga28 2.781506 1_545
Ga22 Ga37 2.816240 1_555
Ga22 Ga29 3.054601 1_455
Ga23 Mo0 2.611012 1_555
Ga23 Mo7 2.645637 1_455
Ga23 Ga29 2.781506 1_455
Ga23 Ga38 2.816240 1_555
Ga23 Ga30 3.054601 1_554
Ga24 Mo0 2.611012 1_555
Ga24 Mo5 2.645637 1_554
Ga24 Ga30 2.781506 1_554
Ga24 Ga39 2.816240 1_555
Ga24 Ga28 3.054601 1_545
Ga25 Mo1 2.611012 1_555
Ga25 Mo3 2.645637 1_565
Ga25 Ga31 2.781506 1_565
Ga25 Ga34 2.816240 1_555
Ga25 Ga32 3.054601 1_655
Ga26 Mo1 2.611012 1_555
Ga26 Mo4 2.645637 1_655
Ga26 Ga32 2.781506 1_655
Ga26 Ga35 2.816240 1_555
Ga26 Ga33 3.054601 1_556
Ga27 Mo1 2.611012 1_555
Ga27 Mo2 2.645637 1_556
Ga27 Ga33 2.781506 1_556
Ga27 Ga36 2.816240 1_555
Ga27 Ga31 3.054601 1_565
Ga28 Mo0 2.593415 1_565
Ga28 Mo2 2.685277 1_555
Ga28 Ga36 2.720989 1_554
Ga28 Ga38 2.845736 1_555
Ga29 Mo0 2.593415 1_655
Ga29 Mo3 2.685277 1_555
Ga29 Ga34 2.720989 1_545
Ga29 Ga39 2.845736 1_555
Ga30 Mo0 2.593415 1_556
Ga30 Mo4 2.685277 1_555
Ga30 Ga35 2.720989 1_455
Ga30 Ga37 2.845736 1_555
Ga31 Mo1 2.593415 1_545
Ga31 Mo5 2.685277 1_555
Ga31 Ga39 2.720989 1_556
Ga31 Ga35 2.845736 1_555
Ga32 Mo1 2.593415 1_455
Ga32 Mo6 2.685277 1_555
Ga32 Ga37 2.720989 1_565
Ga32 Ga36 2.845736 1_555
Ga33 Mo1 2.593415 1_554
Ga33 Mo7 2.685277 1_555
Ga33 Ga38 2.720989 1_655
Ga33 Ga34 2.845736 1_555
Ga34 Mo7 2.638796 1_555
Ga34 Mo3 2.665073 1_565
Ga34 Ga9 2.929093 1_555
Ga35 Mo5 2.638796 1_555
Ga35 Mo4 2.665073 1_655
Ga35 Ga7 2.929093 1_555
Ga36 Mo6 2.638796 1_555
Ga36 Mo2 2.665073 1_556
Ga36 Ga8 2.929093 1_555
Ga37 Mo4 2.638796 1_555
Ga37 Mo6 2.665073 1_545
Ga37 Ga6 2.929093 1_555
Ga38 Mo2 2.638796 1_555
Ga38 Mo7 2.665073 1_455
Ga38 Ga4 2.929093 1_555
Ga39 Mo3 2.638796 1_555
Ga39 Mo5 2.665073 1_554
Ga39 Ga5 2.929093 1_555
Cu0 Ga30 2.746973 1_554
Cu0 Ga33 2.746973 1_445
Cu0 Ga29 2.746973 1_455
Cu0 Ga32 2.746973 1_544
Cu0 Ga28 2.746973 1_545
Cu0 Ga31 2.746973 1_454
Cu0 Mo0 3.024348 1_555
Cu0 Mo1 3.024348 1_444
