# generated using pymatgen
data_K2P4H6PtO11
_symmetry_space_group_name_H-M   'P 1'
_cell_length_a   13.44036700
_cell_length_b   13.44036700
_cell_length_c   8.17869400
_cell_angle_alpha   90.00000000
_cell_angle_beta   90.00000000
_cell_angle_gamma   90.00000000
_symmetry_Int_Tables_number   1
_chemical_formula_structural   K2P4H6PtO11
_chemical_formula_sum   'K8 P16 H24 Pt4 O44'
_cell_volume   1477.42762411
_cell_formula_units_Z   4
loop_
 _symmetry_equiv_pos_site_id
 _symmetry_equiv_pos_as_xyz
  1  'x, y, z'
loop_
 _atom_site_type_symbol
 _atom_site_label
 _atom_site_symmetry_multiplicity
 _atom_site_fract_x
 _atom_site_fract_y
 _atom_site_fract_z
 _atom_site_occupancy
  K  K0  1  0.77482800  0.72517200  0.00000000  1
  K  K1  1  0.22517200  0.27482800  0.00000000  1
  K  K2  1  0.72517200  0.22517200  0.00000000  1
  K  K3  1  0.27482800  0.77482800  0.00000000  1
  K  K4  1  0.88136700  0.61863300  0.50000000  1
  K  K5  1  0.11863300  0.38136700  0.50000000  1
  K  K6  1  0.61863300  0.11863300  0.50000000  1
  K  K7  1  0.38136700  0.88136700  0.50000000  1
  P  P0  1  0.63011000  0.61558800  0.68502600  1
  P  P1  1  0.36989000  0.38441200  0.68502600  1
  P  P2  1  0.86989000  0.11558800  0.68502600  1
  P  P3  1  0.13011000  0.88441200  0.68502600  1
  P  P4  1  0.61558800  0.36989000  0.68502600  1
  P  P5  1  0.38441200  0.63011000  0.68502600  1
  P  P6  1  0.11558800  0.13011000  0.68502600  1
  P  P7  1  0.88441200  0.86989000  0.68502600  1
  P  P8  1  0.36989000  0.38441200  0.31497400  1
  P  P9  1  0.63011000  0.61558800  0.31497400  1
  P  P10  1  0.13011000  0.88441200  0.31497400  1
  P  P11  1  0.86989000  0.11558800  0.31497400  1
  P  P12  1  0.38441200  0.63011000  0.31497400  1
  P  P13  1  0.61558800  0.36989000  0.31497400  1
  P  P14  1  0.88441200  0.86989000  0.31497400  1
  P  P15  1  0.11558800  0.13011000  0.31497400  1
  H  H0  1  0.53020500  0.72985900  0.77782900  1
  H  H1  1  0.46979500  0.27014100  0.77782900  1
  H  H2  1  0.96979500  0.22985900  0.77782900  1
  H  H3  1  0.03020500  0.77014100  0.77782900  1
  H  H4  1  0.72985900  0.46979500  0.77782900  1
  H  H5  1  0.27014100  0.53020500  0.77782900  1
  H  H6  1  0.22985900  0.03020500  0.77782900  1
  H  H7  1  0.77014100  0.96979500  0.77782900  1
  H  H8  1  0.46979500  0.27014100  0.22217100  1
  H  H9  1  0.53020500  0.72985900  0.22217100  1
  H  H10  1  0.03020500  0.77014100  0.22217100  1
  H  H11  1  0.96979500  0.22985900  0.22217100  1
  H  H12  1  0.27014100  0.53020500  0.22217100  1
  H  H13  1  0.72985900  0.46979500  0.22217100  1
  H  H14  1  0.77014100  0.96979500  0.22217100  1
  H  H15  1  0.22985900  0.03020500  0.22217100  1
  H  H16  1  0.87229300  0.37229300  0.40687400  1
  H  H17  1  0.12770700  0.62770700  0.40687400  1
  H  H18  1  0.62770700  0.87229300  0.40687400  1
  H  H19  1  0.37229300  0.12770700  0.40687400  1
  H  H20  1  0.12770700  0.62770700  0.59312600  1
  H  H21  1  0.87229300  0.37229300  0.59312600  1
  H  H22  1  0.37229300  0.12770700  0.59312600  1
  H  H23  1  0.62770700  0.87229300  0.59312600  1
  Pt  Pt0  1  0.50000000  0.50000000  0.68146600  1
  Pt  Pt1  1  0.00000000  0.00000000  0.68146600  1
  Pt  Pt2  1  0.50000000  0.50000000  0.31853400  1
  Pt  Pt3  1  0.00000000  0.00000000  0.31853400  1
  O  O0  1  0.64677900  0.66235800  0.50000000  1
  O  O1  1  0.35322100  0.33764200  0.50000000  1
  O  O2  1  0.85322100  0.16235800  0.50000000  1
  O  O3  1  0.14677900  0.83764200  0.50000000  1
  O  O4  1  0.66235800  0.35322100  0.50000000  1
  O  O5  1  0.33764200  0.64677900  0.50000000  1
  O  O6  1  0.16235800  0.14677900  0.50000000  1
  O  O7  1  0.83764200  0.85322100  0.50000000  1
  O  O8  1  0.60580600  0.71527400  0.78419600  1
  O  O9  1  0.39419400  0.28472600  0.78419600  1
  O  O10  1  0.89419400  0.21527400  0.78419600  1
  O  O11  1  0.10580600  0.78472600  0.78419600  1
  O  O12  1  0.71527400  0.39419400  0.78419600  1
  O  O13  1  0.28472600  0.60580600  0.78419600  1
  O  O14  1  0.21527400  0.10580600  0.78419600  1
  O  O15  1  0.78472600  0.89419400  0.78419600  1
  O  O16  1  0.39419400  0.28472600  0.21580400  1
  O  O17  1  0.60580600  0.71527400  0.21580400  1
  O  O18  1  0.10580600  0.78472600  0.21580400  1
  O  O19  1  0.89419400  0.21527400  0.21580400  1
  O  O20  1  0.28472600  0.60580600  0.21580400  1
  O  O21  1  0.71527400  0.39419400  0.21580400  1
  O  O22  1  0.78472600  0.89419400  0.21580400  1
  O  O23  1  0.21527400  0.10580600  0.21580400  1
  O  O24  1  0.73300800  0.58185700  0.74353300  1
  O  O25  1  0.26699200  0.41814300  0.74353300  1
  O  O26  1  0.76699200  0.08185700  0.74353300  1
  O  O27  1  0.23300800  0.91814300  0.74353300  1
  O  O28  1  0.58185700  0.26699200  0.74353300  1
  O  O29  1  0.41814300  0.73300800  0.74353300  1
  O  O30  1  0.08185700  0.23300800  0.74353300  1
  O  O31  1  0.91814300  0.76699200  0.74353300  1
  O  O32  1  0.26699200  0.41814300  0.25646700  1
  O  O33  1  0.73300800  0.58185700  0.25646700  1
  O  O34  1  0.23300800  0.91814300  0.25646700  1
  O  O35  1  0.76699200  0.08185700  0.25646700  1
  O  O36  1  0.41814300  0.73300800  0.25646700  1
  O  O37  1  0.58185700  0.26699200  0.25646700  1
  O  O38  1  0.91814300  0.76699200  0.25646700  1
  O  O39  1  0.08185700  0.23300800  0.25646700  1
  O  O40  1  0.90451600  0.40451600  0.50000000  1
  O  O41  1  0.09548400  0.59548400  0.50000000  1
  O  O42  1  0.59548400  0.90451600  0.50000000  1
  O  O43  1  0.40451600  0.09548400  0.50000000  1
loop_
_geom_bond_atom_site_label_1
_geom_bond_atom_site_label_2
_geom_bond_distance
_geom_bond_site_symmetry_2
K0 O15 2.879862 1_554
K0 O22 2.879862 1_555
K0 O8 2.879862 1_554
K0 O17 2.879862 1_555
K0 O33 2.902754 1_555
K0 O24 2.902754 1_554
K0 O31 2.902754 1_554
K0 O38 2.902754 1_555
K1 O14 2.879862 1_554
K1 O23 2.879862 1_555
K1 O16 2.879862 1_555
K1 O9 2.879862 1_554
K1 O30 2.902754 1_554
K1 O39 2.902754 1_555
K1 O25 2.902754 1_554
K1 O32 2.902754 1_555
K2 O19 2.879862 1_555
K2 O10 2.879862 1_554
K2 O12 2.879862 1_554
K2 O21 2.879862 1_555
K2 O26 2.902754 1_554
K2 O35 2.902754 1_555
K2 O37 2.902754 1_555
K2 O28 2.902754 1_554
K3 O11 2.879862 1_554
K3 O18 2.879862 1_555
K3 O13 2.879862 1_554
K3 O20 2.879862 1_555
K3 O34 2.902754 1_555
K3 O27 2.902754 1_554
K3 O29 2.902754 1_554
K3 O36 2.902754 1_555
K4 O31 2.861389 1_555
K4 O38 2.861389 1_555
K4 O24 2.861389 1_555
K4 O33 2.861389 1_555
K4 O41 2.894581 1_655
K4 O40 2.894581 1_555
K4 O7 3.207250 1_555
K4 O0 3.207250 1_555
K5 O30 2.861389 1_555
K5 O39 2.861389 1_555
K5 O25 2.861389 1_555
K5 O32 2.861389 1_555
K5 O40 2.894581 1_455
K5 O41 2.894581 1_555
K5 O6 3.207250 1_555
K5 O1 3.207250 1_555
K6 O26 2.861389 1_555
K6 O35 2.861389 1_555
K6 O28 2.861389 1_555
K6 O37 2.861389 1_555
K6 O42 2.894581 1_545
K6 O43 2.894581 1_555
K6 O2 3.207250 1_555
K6 O4 3.207250 1_555
K7 O34 2.861389 1_555
K7 O27 2.861389 1_555
K7 O29 2.861389 1_555
K7 O36 2.861389 1_555
K7 O43 2.894581 1_565
K7 O42 2.894581 1_555
K7 O3 3.207250 1_555
K7 O5 3.207250 1_555
P0 Pt0 2.339315 1_555
P1 Pt0 2.339315 1_555
P2 Pt1 2.339315 1_655
P3 Pt1 2.339315 1_565
P4 Pt0 2.339315 1_555
P5 Pt0 2.339315 1_555
P6 Pt1 2.339315 1_555
P7 Pt1 2.339315 1_665
P8 Pt2 2.339315 1_555
P9 Pt2 2.339315 1_555
P10 Pt3 2.339315 1_565
P11 Pt3 2.339315 1_655
P12 Pt2 2.339315 1_555
P13 Pt2 2.339315 1_555
P14 Pt3 2.339315 1_665
P15 Pt3 2.339315 1_555
H0 O8 1.036151 1_555
H0 O29 1.532635 1_555
H1 O9 1.036151 1_555
H1 O28 1.532635 1_555
H2 O10 1.036151 1_555
H2 O30 1.532635 1_655
H3 O11 1.036151 1_555
H3 O31 1.532635 1_455
H4 O12 1.036151 1_555
H4 O24 1.532635 1_555
H5 O13 1.036151 1_555
H5 O25 1.532635 1_555
H6 O14 1.036151 1_555
H6 O27 1.532635 1_545
H7 O15 1.036151 1_555
H7 O26 1.532635 1_565
H8 O16 1.036151 1_555
H8 O37 1.532635 1_555
H9 O17 1.036151 1_555
H9 O36 1.532635 1_555
H10 O18 1.036151 1_555
H10 O38 1.532635 1_455
H11 O19 1.036151 1_555
H11 O39 1.532635 1_655
H12 O20 1.036151 1_555
H12 O32 1.532635 1_555
H13 O21 1.036151 1_555
H13 O33 1.532635 1_555
H14 O22 1.036151 1_555
H14 O35 1.532635 1_565
H15 O23 1.036151 1_555
H15 O34 1.532635 1_545
H16 O40 0.977364 1_555
H17 O41 0.977364 1_555
H18 O42 0.977364 1_555
H19 O43 0.977364 1_555
H20 O41 0.977364 1_555
H21 O40 0.977364 1_555
H22 O43 0.977364 1_555
H23 O42 0.977364 1_555
O0 P9 1.653883 1_555
O0 P0 1.653883 1_555
O1 P1 1.653883 1_555
O1 P8 1.653883 1_555
O2 P2 1.653883 1_555
O2 P11 1.653883 1_555
O3 P3 1.653883 1_555
O3 P10 1.653883 1_555
O4 P4 1.653883 1_555
O4 P13 1.653883 1_555
O5 P5 1.653883 1_555
O5 P12 1.653883 1_555
O6 P6 1.653883 1_555
O6 P15 1.653883 1_555
O7 P7 1.653883 1_555
O7 P14 1.653883 1_555
O8 P0 1.599895 1_555
O9 P1 1.599895 1_555
O10 P2 1.599895 1_555
O11 P3 1.599895 1_555
O12 P4 1.599895 1_555
O13 P5 1.599895 1_555
O14 P6 1.599895 1_555
O15 P7 1.599895 1_555
O16 P8 1.599895 1_555
O17 P9 1.599895 1_555
O18 P10 1.599895 1_555
O19 P11 1.599895 1_555
O20 P12 1.599895 1_555
O21 P13 1.599895 1_555
O22 P14 1.599895 1_555
O23 P15 1.599895 1_555
O24 P0 1.532044 1_555
O25 P1 1.532044 1_555
O26 P2 1.532044 1_555
O27 P3 1.532044 1_555
O28 P4 1.532044 1_555
O29 P5 1.532044 1_555
O30 P6 1.532044 1_555
O31 P7 1.532044 1_555
O32 P8 1.532044 1_555
O33 P9 1.532044 1_555
O34 P10 1.532044 1_555
O35 P11 1.532044 1_555
O36 P12 1.532044 1_555
O37 P13 1.532044 1_555
O38 P14 1.532044 1_555
O39 P15 1.532044 1_555
