# generated using pymatgen
data_LaB5NO14
_symmetry_space_group_name_H-M   'P 1'
_cell_length_a   15.18360400
_cell_length_b   6.59020400
_cell_length_c   12.92047587
_cell_angle_alpha   60.00624138
_cell_angle_beta   90.00000000
_cell_angle_gamma   90.00000000
_symmetry_Int_Tables_number   1
_chemical_formula_structural   LaB5NO14
_chemical_formula_sum   'La4 B20 N4 O56'
_cell_volume   1119.72191539
_cell_formula_units_Z   4
loop_
 _symmetry_equiv_pos_site_id
 _symmetry_equiv_pos_as_xyz
  1  'x, y, z'
loop_
 _atom_site_type_symbol
 _atom_site_label
 _atom_site_symmetry_multiplicity
 _atom_site_fract_x
 _atom_site_fract_y
 _atom_site_fract_z
 _atom_site_occupancy
  La  La0  1  0.79613100  0.45108500  0.88142800  1
  La  La1  1  0.70386900  0.45108500  0.38142800  1
  La  La2  1  0.20386900  0.54891500  0.11857200  1
  La  La3  1  0.29613100  0.54891500  0.61857200  1
  B  B0  1  0.53416800  0.60184500  0.60299800  1
  B  B1  1  0.96583200  0.60184500  0.10299800  1
  B  B2  1  0.46583200  0.39815500  0.39700200  1
  B  B3  1  0.03416800  0.39815500  0.89700200  1
  B  B4  1  0.66973500  0.36507400  0.63938900  1
  B  B5  1  0.83026500  0.36507400  0.13938900  1
  B  B6  1  0.33026500  0.63492600  0.36061100  1
  B  B7  1  0.16973500  0.63492600  0.86061100  1
  B  B8  1  0.67634500  0.79590900  0.53486700  1
  B  B9  1  0.82365500  0.79590900  0.03486700  1
  B  B10  1  0.32365500  0.20409100  0.46513300  1
  B  B11  1  0.17634500  0.20409100  0.96513300  1
  B  B12  1  0.70875500  0.95923500  0.67312500  1
  B  B13  1  0.79124500  0.95923500  0.17312500  1
  B  B14  1  0.29124500  0.04076500  0.32687500  1
  B  B15  1  0.20875500  0.04076500  0.82687500  1
  B  B16  1  0.75244300  0.05928000  0.82306600  1
  B  B17  1  0.74755700  0.05928000  0.32306600  1
  B  B18  1  0.24755700  0.94072000  0.17693400  1
  B  B19  1  0.25244300  0.94072000  0.67693400  1
  N  N0  1  0.57699400  0.36566200  0.95116300  1
  N  N1  1  0.92300600  0.36566200  0.45116300  1
  N  N2  1  0.42300600  0.63433800  0.04883700  1
  N  N3  1  0.07699400  0.63433800  0.54883700  1
  O  O0  1  0.44415600  0.60384100  0.59799500  1
  O  O1  1  0.05584400  0.60384100  0.09799500  1
  O  O2  1  0.55584400  0.39615900  0.40200500  1
  O  O3  1  0.94415600  0.39615900  0.90200500  1
  O  O4  1  0.57928700  0.39189700  0.66698400  1
  O  O5  1  0.92071300  0.39189700  0.16698400  1
  O  O6  1  0.42071300  0.60810300  0.33301600  1
  O  O7  1  0.07928700  0.60810300  0.83301600  1
  O  O8  1  0.58082000  0.80849500  0.54431400  1
  O  O9  1  0.91918000  0.80849500  0.04431400  1
  O  O10  1  0.41918000  0.19150500  0.45568600  1
  O  O11  1  0.08082000  0.19150500  0.95568600  1
  O  O12  1  0.70315800  0.58072500  0.53540500  1
  O  O13  1  0.79684200  0.58072500  0.03540500  1
  O  O14  1  0.29684200  0.41927500  0.46459500  1
  O  O15  1  0.20315800  0.41927500  0.96459500  1
  O  O16  1  0.72584800  0.28671400  0.75012600  1
  O  O17  1  0.77415200  0.28671400  0.25012600  1
  O  O18  1  0.27415200  0.71328600  0.24987400  1
  O  O19  1  0.22584800  0.71328600  0.74987400  1
  O  O20  1  0.71585500  0.79088300  0.64294000  1
  O  O21  1  0.78414500  0.79088300  0.14294000  1
  O  O22  1  0.28414500  0.20911700  0.35706000  1
  O  O23  1  0.21585500  0.20911700  0.85706000  1
  O  O24  1  0.67775800  0.18130700  0.60297600  1
  O  O25  1  0.82224200  0.18130700  0.10297600  1
  O  O26  1  0.32224200  0.81869300  0.39702400  1
  O  O27  1  0.17775800  0.81869300  0.89702400  1
  O  O28  1  0.74224600  0.89076800  0.78875500  1
  O  O29  1  0.75775400  0.89076800  0.28875500  1
  O  O30  1  0.25775400  0.10923200  0.21124500  1
  O  O31  1  0.24224600  0.10923200  0.71124500  1
  O  O32  1  0.79219700  0.01342500  0.92693800  1
  O  O33  1  0.70780300  0.01342500  0.42693800  1
  O  O34  1  0.20780300  0.98657500  0.07306200  1
  O  O35  1  0.29219700  0.98657500  0.57306200  1
  O  O36  1  0.65278300  0.27507900  0.99356000  1
  O  O37  1  0.84721700  0.27507900  0.49356000  1
  O  O38  1  0.34721700  0.72492100  0.00644000  1
  O  O39  1  0.15278300  0.72492100  0.50644000  1
  O  O40  1  0.57315500  0.55853400  0.85662000  1
  O  O41  1  0.92684500  0.55853400  0.35662000  1
  O  O42  1  0.42684500  0.44146600  0.14338000  1
  O  O43  1  0.07315500  0.44146600  0.64338000  1
  O  O44  1  0.51012400  0.25723400  0.00663500  1
  O  O45  1  0.98987600  0.25723400  0.50663500  1
  O  O46  1  0.48987600  0.74276600  0.99336500  1
  O  O47  1  0.01012400  0.74276600  0.49336500  1
  O  O48  1  0.91872300  0.81939500  0.70372200  1
  O  O49  1  0.58127700  0.81939500  0.20372200  1
  O  O50  1  0.08127700  0.18060500  0.29627800  1
  O  O51  1  0.41872300  0.18060500  0.79627800  1
  O  O52  1  0.90631000  0.68235900  0.66570700  1
  O  O53  1  0.59369000  0.68235900  0.16570700  1
  O  O54  1  0.09369000  0.31764100  0.33429300  1
  O  O55  1  0.40631000  0.31764100  0.83429300  1
loop_
_geom_bond_atom_site_label_1
_geom_bond_atom_site_label_2
_geom_bond_distance
_geom_bond_site_symmetry_2
La0 O3 2.270900 1_555
La0 O13 2.527321 1_556
La0 O25 2.534512 1_556
La0 O36 2.549819 1_555
La0 O32 2.640581 1_555
La0 O16 2.650966 1_555
La0 O28 2.651478 1_555
La0 O52 2.939885 1_555
La1 O2 2.270900 1_555
La1 O12 2.527321 1_555
La1 O24 2.534512 1_555
La1 O37 2.549819 1_555
La1 O33 2.640581 1_555
La1 O17 2.650966 1_555
La1 O29 2.651478 1_555
La1 O53 2.939885 1_555
La2 O1 2.270900 1_555
La2 O15 2.527321 1_554
La2 O27 2.534512 1_554
La2 O38 2.549819 1_555
La2 O34 2.640581 1_555
La2 O18 2.650966 1_555
La2 O30 2.651478 1_555
La2 O54 2.939885 1_555
La3 O0 2.270900 1_555
La3 O14 2.527321 1_555
La3 O26 2.534512 1_555
La3 O39 2.549819 1_555
La3 O35 2.640581 1_555
La3 O19 2.650966 1_555
La3 O31 2.651478 1_555
La3 O55 2.939885 1_555
B0 O0 1.367987 1_555
B0 O8 1.378017 1_555
B0 O4 1.386904 1_555
B1 O1 1.367987 1_655
B1 O9 1.378017 1_555
B1 O5 1.386904 1_555
B2 O2 1.367987 1_555
B2 O10 1.378017 1_555
B2 O6 1.386904 1_555
B3 O3 1.367987 1_455
B3 O11 1.378017 1_555
B3 O7 1.386904 1_555
B4 O4 1.451691 1_555
B4 O12 1.474219 1_555
B4 O24 1.507488 1_555
B4 O16 1.516895 1_555
B5 O5 1.451691 1_555
B5 O13 1.474219 1_555
B5 O25 1.507488 1_555
B5 O17 1.516895 1_555
B6 O6 1.451691 1_555
B6 O14 1.474219 1_555
B6 O26 1.507488 1_555
B6 O18 1.516895 1_555
B7 O7 1.451691 1_555
B7 O15 1.474219 1_555
B7 O27 1.507488 1_555
B7 O19 1.516895 1_555
B8 O8 1.461369 1_555
B8 O12 1.472061 1_555
B8 O33 1.492988 1_565
B8 O20 1.504841 1_555
B9 O9 1.461369 1_555
B9 O13 1.472061 1_555
B9 O32 1.492988 1_564
B9 O21 1.504841 1_555
B10 O10 1.461369 1_555
B10 O14 1.472061 1_555
B10 O35 1.492988 1_545
B10 O22 1.504841 1_555
B11 O11 1.461369 1_555
B11 O15 1.472061 1_555
B11 O34 1.492988 1_546
B11 O23 1.504841 1_555
B12 O20 1.351768 1_555
B12 O24 1.363312 1_565
B12 O28 1.421344 1_555
B13 O21 1.351768 1_555
B13 O25 1.363312 1_565
B13 O29 1.421344 1_555
B14 O22 1.351768 1_555
B14 O26 1.363312 1_545
B14 O30 1.421344 1_555
B15 O23 1.351768 1_555
B15 O27 1.363312 1_545
B15 O31 1.421344 1_555
B16 O32 1.360640 1_555
B16 O16 1.373121 1_555
B16 O28 1.394989 1_545
B17 O33 1.360640 1_555
B17 O17 1.373121 1_555
B17 O29 1.394989 1_545
B18 O34 1.360640 1_555
B18 O18 1.373121 1_555
B18 O30 1.394989 1_565
B19 O35 1.360640 1_555
B19 O19 1.373121 1_555
B19 O31 1.394989 1_565
N0 O44 1.242230 1_556
N0 O40 1.248520 1_555
N0 O36 1.285968 1_555
N1 O45 1.242230 1_555
N1 O41 1.248520 1_555
N1 O37 1.285968 1_555
N2 O46 1.242230 1_554
N2 O42 1.248520 1_555
N2 O38 1.285968 1_555
N3 O47 1.242230 1_555
N3 O43 1.248520 1_555
N3 O39 1.285968 1_555
O48 O52 1.239292 1_555
O49 O53 1.239292 1_555
O50 O54 1.239292 1_555
O51 O55 1.239292 1_555
