# generated using pymatgen
data_Li3Mn(CoO3)2
_symmetry_space_group_name_H-M   'P 1'
_cell_length_a   2.99767833
_cell_length_b   2.99767833
_cell_length_c   14.62016660
_cell_angle_alpha   87.96889275
_cell_angle_beta   87.96889275
_cell_angle_gamma   58.12686310
_symmetry_Int_Tables_number   1
_chemical_formula_structural   Li3Mn(CoO3)2
_chemical_formula_sum   'Li3 Mn1 Co2 O6'
_cell_volume   111.47691739
_cell_formula_units_Z   1
loop_
 _symmetry_equiv_pos_site_id
 _symmetry_equiv_pos_as_xyz
  1  'x, y, z'
loop_
 _atom_site_type_symbol
 _atom_site_label
 _atom_site_symmetry_multiplicity
 _atom_site_fract_x
 _atom_site_fract_y
 _atom_site_fract_z
 _atom_site_occupancy
  Li  Li0  1  0.50000000  0.50000000  0.50000000  1
  Li  Li1  1  0.17043000  0.17043000  0.16864500  1
  Li  Li2  1  0.82957000  0.82957000  0.83135500  1
  Mn  Mn0  1  0.50000000  0.50000000  0.00000000  1
  Co  Co0  1  0.16709700  0.16709700  0.66566600  1
  Co  Co1  1  0.83290300  0.83290300  0.33433400  1
  O  O0  1  0.83485700  0.83485700  0.59040900  1
  O  O1  1  0.50123100  0.50123100  0.25913600  1
  O  O2  1  0.13767200  0.13767200  0.92120000  1
  O  O3  1  0.16514300  0.16514300  0.40959100  1
  O  O4  1  0.86232800  0.86232800  0.07880000  1
  O  O5  1  0.49876900  0.49876900  0.74086400  1
loop_
_geom_bond_atom_site_label_1
_geom_bond_atom_site_label_2
_geom_bond_distance
_geom_bond_site_symmetry_2
Li0 O0 2.126937 1_545
Li0 O0 2.126937 1_455
Li0 O3 2.126937 1_655
Li0 O3 2.126937 1_565
Li0 O0 2.239320 1_555
Li0 O3 2.239320 1_555
Li1 O4 2.122333 1_445
Li1 O1 2.135863 1_545
Li1 O1 2.135863 1_455
Li1 O4 2.179475 1_455
Li1 O4 2.179475 1_545
Li1 O1 2.222941 1_555
Li2 O2 2.122333 1_665
Li2 O5 2.135863 1_565
Li2 O5 2.135863 1_655
Li2 O2 2.179475 1_655
Li2 O2 2.179475 1_565
Li2 O5 2.222941 1_555
Mn0 O2 1.975069 1_564
Mn0 O2 1.975069 1_654
Mn0 O4 1.975069 1_545
Mn0 O4 1.975069 1_455
Mn0 O4 2.260517 1_555
Mn0 O2 2.260517 1_554
Co0 O0 2.006381 1_545
Co0 O0 2.006381 1_455
Co0 O5 2.007163 1_545
Co0 O5 2.007163 1_455
Co0 O5 2.093961 1_555
Co0 O0 2.096977 1_445
Co1 O3 2.006381 1_655
Co1 O3 2.006381 1_565
Co1 O1 2.007163 1_655
Co1 O1 2.007163 1_565
Co1 O1 2.093961 1_555
Co1 O3 2.096977 1_665
