# generated using pymatgen
data_AsS2XeN2F13
_symmetry_space_group_name_H-M   'P 1'
_cell_length_a   12.26065400
_cell_length_b   7.45622500
_cell_length_c   15.17714688
_cell_angle_alpha   65.40052618
_cell_angle_beta   90.00000000
_cell_angle_gamma   90.00000000
_symmetry_Int_Tables_number   1
_chemical_formula_structural   AsS2XeN2F13
_chemical_formula_sum   'As4 S8 Xe4 N8 F52'
_cell_volume   1261.54073838
_cell_formula_units_Z   4
loop_
 _symmetry_equiv_pos_site_id
 _symmetry_equiv_pos_as_xyz
  1  'x, y, z'
loop_
 _atom_site_type_symbol
 _atom_site_label
 _atom_site_symmetry_multiplicity
 _atom_site_fract_x
 _atom_site_fract_y
 _atom_site_fract_z
 _atom_site_occupancy
  As  As0  1  0.23652700  0.76194600  0.61996100  1
  As  As1  1  0.26347300  0.76194600  0.11996100  1
  As  As2  1  0.76347300  0.23805400  0.38003900  1
  As  As3  1  0.73652700  0.23805400  0.88003900  1
  S  S0  1  0.53160300  0.84240200  0.80012200  1
  S  S1  1  0.96839700  0.84240200  0.30012200  1
  S  S2  1  0.46839700  0.15759800  0.19987800  1
  S  S3  1  0.03160300  0.15759800  0.69987800  1
  S  S4  1  0.16993300  0.39977200  0.94343000  1
  S  S5  1  0.33006700  0.39977200  0.44343000  1
  S  S6  1  0.83006700  0.60022800  0.05657000  1
  S  S7  1  0.66993300  0.60022800  0.55657000  1
  Xe  Xe0  1  0.38552700  0.16436600  0.83857400  1
  Xe  Xe1  1  0.11447300  0.16436600  0.33857400  1
  Xe  Xe2  1  0.61447300  0.83563400  0.16142600  1
  Xe  Xe3  1  0.88552700  0.83563400  0.66142600  1
  N  N0  1  0.48781200  0.05805900  0.75300400  1
  N  N1  1  0.01218800  0.05805900  0.25300400  1
  N  N2  1  0.51218800  0.94194100  0.24699600  1
  N  N3  1  0.98781200  0.94194100  0.74699600  1
  N  N4  1  0.27394100  0.36100900  0.91384100  1
  N  N5  1  0.22605900  0.36100900  0.41384100  1
  N  N6  1  0.72605900  0.63899100  0.08615900  1
  N  N7  1  0.77394100  0.63899100  0.58615900  1
  F  F0  1  0.64472800  0.76398000  0.85003400  1
  F  F1  1  0.85527200  0.76398000  0.35003400  1
  F  F2  1  0.35527200  0.23602000  0.14996600  1
  F  F3  1  0.14472800  0.23602000  0.64996600  1
  F  F4  1  0.47898800  0.76612300  0.90758800  1
  F  F5  1  0.02101200  0.76612300  0.40758800  1
  F  F6  1  0.52101200  0.23387700  0.09241200  1
  F  F7  1  0.97898800  0.23387700  0.59241200  1
  F  F8  1  0.47923300  0.65798400  0.79218100  1
  F  F9  1  0.02076700  0.65798400  0.29218100  1
  F  F10  1  0.52076700  0.34201600  0.20781900  1
  F  F11  1  0.97923300  0.34201600  0.70781900  1
  F  F12  1  0.59179400  0.89187500  0.69684700  1
  F  F13  1  0.90820600  0.89187500  0.19684700  1
  F  F14  1  0.40820600  0.10812500  0.30315300  1
  F  F15  1  0.09179400  0.10812500  0.80315300  1
  F  F16  1  0.27406300  0.86304800  0.70281600  1
  F  F17  1  0.22593700  0.86304800  0.20281600  1
  F  F18  1  0.72593700  0.13695200  0.29718400  1
  F  F19  1  0.77406300  0.13695200  0.79718400  1
  F  F20  1  0.34016200  0.58107400  0.66547700  1
  F  F21  1  0.15983800  0.58107400  0.16547700  1
  F  F22  1  0.65983800  0.41892600  0.33452300  1
  F  F23  1  0.84016200  0.41892600  0.83452300  1
  F  F24  1  0.13085800  0.94207800  0.57338200  1
  F  F25  1  0.36914200  0.94207800  0.07338200  1
  F  F26  1  0.86914200  0.05792200  0.42661800  1
  F  F27  1  0.63085800  0.05792200  0.92661800  1
  F  F28  1  0.14314400  0.60194200  0.70724600  1
  F  F29  1  0.35685600  0.60194200  0.20724600  1
  F  F30  1  0.85685600  0.39805800  0.29275400  1
  F  F31  1  0.64314400  0.39805800  0.79275400  1
  F  F32  1  0.32800500  0.92445400  0.53261800  1
  F  F33  1  0.17199500  0.92445400  0.03261800  1
  F  F34  1  0.67199500  0.07554600  0.46738200  1
  F  F35  1  0.82800500  0.07554600  0.96738200  1
  F  F36  1  0.14144500  0.32983300  0.05376900  1
  F  F37  1  0.35855500  0.32983300  0.55376900  1
  F  F38  1  0.85855500  0.67016700  0.94623100  1
  F  F39  1  0.64144500  0.67016700  0.44623100  1
  F  F40  1  0.13169800  0.61799700  0.91360400  1
  F  F41  1  0.36830200  0.61799700  0.41360400  1
  F  F42  1  0.86830200  0.38200300  0.08639600  1
  F  F43  1  0.63169800  0.38200300  0.58639600  1
  F  F44  1  0.05950000  0.32816600  0.91675100  1
  F  F45  1  0.44050000  0.32816600  0.41675100  1
  F  F46  1  0.94050000  0.67183400  0.08324900  1
  F  F47  1  0.55950000  0.67183400  0.58324900  1
  F  F48  1  0.19629100  0.66200800  0.53748700  1
  F  F49  1  0.30370900  0.66200800  0.03748700  1
  F  F50  1  0.80370900  0.33799200  0.46251300  1
  F  F51  1  0.69629100  0.33799200  0.96251300  1
loop_
_geom_bond_atom_site_label_1
_geom_bond_atom_site_label_2
_geom_bond_distance
_geom_bond_site_symmetry_2
As0 F20 1.770557 1_555
As0 F48 1.772561 1_555
As0 F32 1.773736 1_555
As0 F16 1.774993 1_555
As0 F28 1.781384 1_555
As0 F24 1.786533 1_555
As1 F21 1.770557 1_555
As1 F49 1.772561 1_555
As1 F33 1.773736 1_555
As1 F17 1.774993 1_555
As1 F29 1.781384 1_555
As1 F25 1.786533 1_555
As2 F22 1.770557 1_555
As2 F50 1.772561 1_555
As2 F34 1.773736 1_555
As2 F18 1.774993 1_555
As2 F30 1.781384 1_555
As2 F26 1.786533 1_555
As3 F23 1.770557 1_555
As3 F51 1.772561 1_555
As3 F35 1.773736 1_555
As3 F19 1.774993 1_555
As3 F31 1.781384 1_555
As3 F27 1.786533 1_555
N0 S0 1.558185 1_545
N0 Xe0 2.178232 1_555
N1 S1 1.558185 1_445
N1 Xe1 2.178232 1_555
N2 S2 1.558185 1_565
N2 Xe2 2.178232 1_555
N3 S3 1.558185 1_665
N3 Xe3 2.178232 1_555
N4 S4 1.421062 1_555
N4 Xe0 2.592471 1_555
N5 S5 1.421062 1_555
N5 Xe1 2.592471 1_555
N6 S6 1.421062 1_555
N6 Xe2 2.592471 1_555
N7 S7 1.421062 1_555
N7 Xe3 2.592471 1_555
F0 S0 1.571849 1_555
F1 S1 1.571849 1_555
F2 S2 1.571849 1_555
F3 S3 1.571849 1_555
F4 S0 1.620977 1_555
F5 S1 1.620977 1_455
F6 S2 1.620977 1_555
F7 S3 1.620977 1_655
F8 S0 1.567027 1_555
F9 S1 1.567027 1_455
F10 S2 1.567027 1_555
F11 S3 1.567027 1_655
F12 S0 1.629762 1_555
F13 S1 1.629762 1_555
F14 S2 1.629762 1_555
F15 S3 1.629762 1_555
F36 S4 1.572030 1_554
F37 S5 1.572030 1_555
F38 S6 1.572030 1_556
F39 S7 1.572030 1_555
F40 S4 1.568127 1_555
F41 S5 1.568127 1_555
F42 S6 1.568127 1_555
F43 S7 1.568127 1_555
F44 S4 1.569160 1_555
F45 S5 1.569160 1_555
F46 S6 1.569160 1_555
F47 S7 1.569160 1_555
