# generated using pymatgen
data_Nd2In3Ni
_symmetry_space_group_name_H-M   'P 1'
_cell_length_a   7.65796800
_cell_length_b   9.53828006
_cell_length_c   16.56094111
_cell_angle_alpha   89.99266837
_cell_angle_beta   90.00000000
_cell_angle_gamma   90.00000000
_symmetry_Int_Tables_number   1
_chemical_formula_structural   Nd2In3Ni
_chemical_formula_sum   'Nd16 In24 Ni8'
_cell_volume   1209.67478092
_cell_formula_units_Z   8
loop_
 _symmetry_equiv_pos_site_id
 _symmetry_equiv_pos_as_xyz
  1  'x, y, z'
loop_
 _atom_site_type_symbol
 _atom_site_label
 _atom_site_symmetry_multiplicity
 _atom_site_fract_x
 _atom_site_fract_y
 _atom_site_fract_z
 _atom_site_occupancy
  Nd  Nd0_0  1  0.00000000  0.49999100  0.01412600  1
  Nd  Nd0_1  1  0.00000000  0.49999100  0.51412600  1
  Nd  Nd0_2  1  0.00000000  0.99999100  0.01412600  1
  Nd  Nd0_3  1  0.00000000  0.99999100  0.51412600  1
  Nd  Nd0_4  1  0.50000000  0.49999100  0.01412600  1
  Nd  Nd0_5  1  0.50000000  0.49999100  0.51412600  1
  Nd  Nd0_6  1  0.50000000  0.99999100  0.01412600  1
  Nd  Nd0_7  1  0.50000000  0.99999100  0.51412600  1
  Nd  Nd1_0  1  0.00000000  0.25002950  0.24246050  1
  Nd  Nd1_1  1  0.00000000  0.25002950  0.74246050  1
  Nd  Nd1_2  1  0.00000000  0.75002950  0.24246050  1
  Nd  Nd1_3  1  0.00000000  0.75002950  0.74246050  1
  Nd  Nd1_4  1  0.50000000  0.25002950  0.24246050  1
  Nd  Nd1_5  1  0.50000000  0.25002950  0.74246050  1
  Nd  Nd1_6  1  0.50000000  0.75002950  0.24246050  1
  Nd  Nd1_7  1  0.50000000  0.75002950  0.74246050  1
  In  In0_0  1  0.25000000  0.24998000  0.41808000  1
  In  In0_1  1  0.25000000  0.24998000  0.91808000  1
  In  In0_2  1  0.25000000  0.74998000  0.41808000  1
  In  In0_3  1  0.25000000  0.74998000  0.91808000  1
  In  In0_4  1  0.75000000  0.24998000  0.41808000  1
  In  In0_5  1  0.75000000  0.24998000  0.91808000  1
  In  In0_6  1  0.75000000  0.74998000  0.41808000  1
  In  In0_7  1  0.75000000  0.74998000  0.91808000  1
  In  In1_0  1  0.25000000  0.24997300  0.09076200  1
  In  In1_1  1  0.25000000  0.24997300  0.59076200  1
  In  In1_2  1  0.25000000  0.74997300  0.09076200  1
  In  In1_3  1  0.25000000  0.74997300  0.59076200  1
  In  In1_4  1  0.75000000  0.24997300  0.09076200  1
  In  In1_5  1  0.75000000  0.24997300  0.59076200  1
  In  In1_6  1  0.75000000  0.74997300  0.09076200  1
  In  In1_7  1  0.75000000  0.74997300  0.59076200  1
  In  In2_0  1  0.25000000  0.49999650  0.32211400  1
  In  In2_1  1  0.25000000  0.49999650  0.82211400  1
  In  In2_2  1  0.25000000  0.99999650  0.32211400  1
  In  In2_3  1  0.25000000  0.99999650  0.82211400  1
  In  In2_4  1  0.75000000  0.49999650  0.32211400  1
  In  In2_5  1  0.75000000  0.49999650  0.82211400  1
  In  In2_6  1  0.75000000  0.99999650  0.32211400  1
  In  In2_7  1  0.75000000  0.99999650  0.82211400  1
  Ni  Ni0_0  1  0.25000000  0.49993050  0.16245750  1
  Ni  Ni0_1  1  0.25000000  0.49993050  0.66245750  1
  Ni  Ni0_2  1  0.25000000  0.99993050  0.16245750  1
  Ni  Ni0_3  1  0.25000000  0.99993050  0.66245750  1
  Ni  Ni0_4  1  0.75000000  0.49993050  0.16245750  1
  Ni  Ni0_5  1  0.75000000  0.49993050  0.66245750  1
  Ni  Ni0_6  1  0.75000000  0.99993050  0.16245750  1
  Ni  Ni0_7  1  0.75000000  0.99993050  0.66245750  1
loop_
_geom_bond_atom_site_label_1
_geom_bond_atom_site_label_2
_geom_bond_distance
_geom_bond_site_symmetry_2
Nd0_0 Ni0_0 3.114437 1_555
Nd0_0 Ni0_4 3.114437 1_455
Nd0_0 Nd0_4 3.828984 1_555
Nd0_0 Nd0_4 3.828984 1_455
Nd0_1 Ni0_1 3.114437 1_555
Nd0_1 Ni0_5 3.114437 1_455
Nd0_1 Nd0_5 3.828984 1_555
Nd0_1 Nd0_5 3.828984 1_455
Nd0_2 Ni0_2 3.114437 1_555
Nd0_2 Ni0_6 3.114437 1_455
Nd0_2 Nd0_6 3.828984 1_555
Nd0_2 Nd0_6 3.828984 1_455
Nd0_3 Ni0_3 3.114437 1_555
Nd0_3 Ni0_7 3.114437 1_455
Nd0_3 Nd0_7 3.828984 1_555
Nd0_3 Nd0_7 3.828984 1_455
Nd0_4 Ni0_0 3.114437 1_555
Nd0_4 Ni0_4 3.114437 1_555
Nd0_5 Ni0_5 3.114437 1_555
Nd0_5 Ni0_1 3.114437 1_555
Nd0_6 Ni0_2 3.114437 1_555
Nd0_6 Ni0_6 3.114437 1_555
Nd0_7 Ni0_3 3.114437 1_555
Nd0_7 Ni0_7 3.114437 1_555
Nd1_0 Ni0_0 3.331902 1_555
Nd1_0 Ni0_4 3.331902 1_455
Nd1_0 Ni0_2 3.333496 1_545
Nd1_0 Ni0_6 3.333496 1_445
Nd1_1 Ni0_1 3.331902 1_555
Nd1_1 Ni0_5 3.331902 1_455
Nd1_1 Ni0_3 3.333496 1_545
Nd1_1 Ni0_7 3.333496 1_445
Nd1_2 Ni0_2 3.331902 1_555
Nd1_2 Ni0_6 3.331902 1_455
Nd1_2 Ni0_0 3.333496 1_555
Nd1_2 Ni0_4 3.333496 1_455
Nd1_3 Ni0_3 3.331902 1_555
Nd1_3 Ni0_7 3.331902 1_455
Nd1_3 Ni0_1 3.333496 1_555
Nd1_3 Ni0_5 3.333496 1_455
Nd1_4 Ni0_4 3.331902 1_555
Nd1_4 Ni0_0 3.331902 1_555
Nd1_4 Ni0_6 3.333496 1_545
Nd1_4 Ni0_2 3.333496 1_545
Nd1_5 Ni0_1 3.331902 1_555
Nd1_5 Ni0_5 3.331902 1_555
Nd1_5 Ni0_7 3.333496 1_545
Nd1_5 Ni0_3 3.333496 1_545
Nd1_6 Ni0_6 3.331902 1_555
Nd1_6 Ni0_2 3.331902 1_555
Nd1_6 Ni0_0 3.333496 1_555
Nd1_6 Ni0_4 3.333496 1_555
Nd1_7 Ni0_7 3.331902 1_555
Nd1_7 Ni0_3 3.331902 1_555
Nd1_7 Ni0_1 3.333496 1_555
Nd1_7 Ni0_5 3.333496 1_555
In0_0 In1_1 2.859776 1_555
In0_0 In2_0 2.865622 1_555
In0_0 In2_2 2.865698 1_545
In0_0 Nd0_3 3.446742 1_545
In0_0 Nd0_7 3.446742 1_545
In0_0 Nd0_1 3.447169 1_555
In0_0 Nd0_5 3.447169 1_555
In0_0 Nd1_4 3.481984 1_555
In0_0 Nd1_0 3.481984 1_555
In0_1 In1_0 2.859776 1_556
In0_1 In2_1 2.865622 1_555
In0_1 In2_3 2.865698 1_545
In0_1 Nd0_6 3.446742 1_546
In0_1 Nd0_2 3.446742 1_546
In0_1 Nd0_4 3.447169 1_556
In0_1 Nd0_0 3.447169 1_556
In0_1 Nd1_1 3.481984 1_555
In0_1 Nd1_5 3.481984 1_555
In0_2 In1_3 2.859776 1_555
In0_2 In2_2 2.865622 1_555
In0_2 In2_0 2.865698 1_555
In0_2 Nd0_1 3.446742 1_555
In0_2 Nd0_5 3.446742 1_555
In0_2 Nd0_3 3.447169 1_555
In0_2 Nd0_7 3.447169 1_555
In0_2 Nd1_2 3.481984 1_555
In0_2 Nd1_6 3.481984 1_555
In0_3 In1_2 2.859776 1_556
In0_3 In2_3 2.865622 1_555
In0_3 In2_1 2.865698 1_555
In0_3 Nd0_0 3.446742 1_556
In0_3 Nd0_4 3.446742 1_556
In0_3 Nd0_2 3.447169 1_556
In0_3 Nd0_6 3.447169 1_556
In0_3 Nd1_3 3.481984 1_555
In0_3 Nd1_7 3.481984 1_555
In0_4 In1_5 2.859776 1_555
In0_4 In2_4 2.865622 1_555
In0_4 In2_6 2.865698 1_545
In0_4 Nd0_7 3.446742 1_545
In0_4 Nd0_3 3.446742 1_645
In0_4 Nd0_5 3.447169 1_555
In0_4 Nd0_1 3.447169 1_655
In0_4 Nd1_4 3.481984 1_555
In0_4 Nd1_0 3.481984 1_655
In0_5 In1_4 2.859776 1_556
In0_5 In2_5 2.865622 1_555
In0_5 In2_7 2.865698 1_545
In0_5 Nd0_6 3.446742 1_546
In0_5 Nd0_2 3.446742 1_646
In0_5 Nd0_4 3.447169 1_556
In0_5 Nd0_0 3.447169 1_656
In0_5 Nd1_5 3.481984 1_555
In0_5 Nd1_1 3.481984 1_655
In0_6 In1_7 2.859776 1_555
In0_6 In2_6 2.865622 1_555
In0_6 In2_4 2.865698 1_555
In0_6 Nd0_5 3.446742 1_555
In0_6 Nd0_1 3.446742 1_655
In0_6 Nd0_7 3.447169 1_555
In0_6 Nd0_3 3.447169 1_655
In0_6 Nd1_6 3.481984 1_555
In0_6 Nd1_2 3.481984 1_655
In0_7 In1_6 2.859776 1_556
In0_7 In2_7 2.865622 1_555
In0_7 In2_5 2.865698 1_555
In0_7 Nd0_4 3.446742 1_556
In0_7 Nd0_0 3.446742 1_656
In0_7 Nd0_6 3.447169 1_556
In0_7 Nd0_2 3.447169 1_656
In0_7 Nd1_7 3.481984 1_555
In0_7 Nd1_3 3.481984 1_655
In1_0 Ni0_0 2.663598 1_555
In1_0 Ni0_2 2.664052 1_545
In1_0 Nd1_0 3.158604 1_555
In1_0 Nd1_4 3.158604 1_555
In1_0 Nd0_2 3.310919 1_545
In1_0 Nd0_6 3.310919 1_545
In1_0 Nd0_4 3.310933 1_555
In1_0 Nd0_0 3.310933 1_555
In1_1 Ni0_1 2.663598 1_555
In1_1 Ni0_3 2.664052 1_545
In1_1 Nd1_5 3.158604 1_555
In1_1 Nd1_1 3.158604 1_555
In1_1 Nd0_3 3.310919 1_545
In1_1 Nd0_7 3.310919 1_545
In1_1 Nd0_1 3.310933 1_555
In1_1 Nd0_5 3.310933 1_555
In1_2 Ni0_2 2.663598 1_555
In1_2 Ni0_0 2.664052 1_555
In1_2 Nd1_2 3.158604 1_555
In1_2 Nd1_6 3.158604 1_555
In1_2 Nd0_4 3.310919 1_555
In1_2 Nd0_0 3.310919 1_555
In1_2 Nd0_2 3.310933 1_555
In1_2 Nd0_6 3.310933 1_555
In1_3 Ni0_3 2.663598 1_555
In1_3 Ni0_1 2.664052 1_555
In1_3 Nd1_3 3.158604 1_555
In1_3 Nd1_7 3.158604 1_555
In1_3 Nd0_5 3.310919 1_555
In1_3 Nd0_1 3.310919 1_555
In1_3 Nd0_3 3.310933 1_555
In1_3 Nd0_7 3.310933 1_555
In1_4 Ni0_4 2.663598 1_555
In1_4 Ni0_6 2.664052 1_545
In1_4 Nd1_4 3.158604 1_555
In1_4 Nd1_0 3.158604 1_655
In1_4 Nd0_6 3.310919 1_545
In1_4 Nd0_2 3.310919 1_645
In1_4 Nd0_4 3.310933 1_555
In1_4 Nd0_0 3.310933 1_655
In1_5 Ni0_5 2.663598 1_555
In1_5 Ni0_7 2.664052 1_545
In1_5 Nd1_5 3.158604 1_555
In1_5 Nd1_1 3.158604 1_655
In1_5 Nd0_7 3.310919 1_545
In1_5 Nd0_3 3.310919 1_645
In1_5 Nd0_5 3.310933 1_555
In1_5 Nd0_1 3.310933 1_655
In1_6 Ni0_6 2.663598 1_555
In1_6 Ni0_4 2.664052 1_555
In1_6 Nd1_6 3.158604 1_555
In1_6 Nd1_2 3.158604 1_655
In1_6 Nd0_4 3.310919 1_555
In1_6 Nd0_0 3.310919 1_655
In1_6 Nd0_6 3.310933 1_555
In1_6 Nd0_2 3.310933 1_655
In1_7 Ni0_7 2.663598 1_555
In1_7 Ni0_5 2.664052 1_555
In1_7 Nd1_7 3.158604 1_555
In1_7 Nd1_3 3.158604 1_655
In1_7 Nd0_5 3.310919 1_555
In1_7 Nd0_1 3.310919 1_655
In1_7 Nd0_7 3.310933 1_555
In1_7 Nd0_3 3.310933 1_655
In2_0 Ni0_0 2.644062 1_555
In2_0 Nd1_0 3.330297 1_555
In2_0 Nd1_4 3.330297 1_555
In2_0 Nd1_2 3.330506 1_555
In2_0 Nd1_6 3.330506 1_555
In2_0 Nd0_1 3.711744 1_555
In2_0 Nd0_5 3.711744 1_555
In2_1 Ni0_1 2.644062 1_555
In2_1 Nd1_5 3.330297 1_555
In2_1 Nd1_1 3.330297 1_555
In2_1 Nd1_3 3.330506 1_555
In2_1 Nd1_7 3.330506 1_555
In2_1 Nd0_0 3.711744 1_556
In2_1 Nd0_4 3.711744 1_556
In2_2 Ni0_2 2.644062 1_555
In2_2 Nd1_2 3.330297 1_555
In2_2 Nd1_6 3.330297 1_555
In2_2 Nd1_0 3.330506 1_565
In2_2 Nd1_4 3.330506 1_565
In2_2 Nd0_7 3.711744 1_555
In2_2 Nd0_3 3.711744 1_555
In2_3 Ni0_3 2.644062 1_555
In2_3 Nd1_7 3.330297 1_555
In2_3 Nd1_3 3.330297 1_555
In2_3 Nd1_1 3.330506 1_565
In2_3 Nd1_5 3.330506 1_565
In2_3 Nd0_2 3.711744 1_556
In2_3 Nd0_6 3.711744 1_556
In2_4 Ni0_4 2.644062 1_555
In2_4 Nd1_4 3.330297 1_555
In2_4 Nd1_0 3.330297 1_655
In2_4 Nd1_6 3.330506 1_555
In2_4 Nd1_2 3.330506 1_655
In2_4 Nd0_5 3.711744 1_555
In2_4 Nd0_1 3.711744 1_655
In2_5 Ni0_5 2.644062 1_555
In2_5 Nd1_5 3.330297 1_555
In2_5 Nd1_1 3.330297 1_655
In2_5 Nd1_7 3.330506 1_555
In2_5 Nd1_3 3.330506 1_655
In2_5 Nd0_4 3.711744 1_556
In2_5 Nd0_0 3.711744 1_656
In2_6 Ni0_6 2.644062 1_555
In2_6 Nd1_6 3.330297 1_555
In2_6 Nd1_2 3.330297 1_655
In2_6 Nd1_4 3.330506 1_565
In2_6 Nd1_0 3.330506 1_665
In2_6 Nd0_7 3.711744 1_555
In2_6 Nd0_3 3.711744 1_655
In2_7 Ni0_7 2.644062 1_555
In2_7 Nd1_7 3.330297 1_555
In2_7 Nd1_3 3.330297 1_655
In2_7 Nd1_5 3.330506 1_565
In2_7 Nd1_1 3.330506 1_665
In2_7 Nd0_6 3.711744 1_556
In2_7 Nd0_2 3.711744 1_656
