# generated using pymatgen
data_AlCr(WO4)2
_symmetry_space_group_name_H-M   'P 1'
_cell_length_a   5.10817464
_cell_length_b   5.54775635
_cell_length_c   9.15940535
_cell_angle_alpha   90.18658696
_cell_angle_beta   90.45434166
_cell_angle_gamma   90.90685562
_symmetry_Int_Tables_number   1
_chemical_formula_structural   AlCr(WO4)2
_chemical_formula_sum   'Al2 Cr2 W4 O16'
_cell_volume   259.52539159
_cell_formula_units_Z   2
loop_
 _symmetry_equiv_pos_site_id
 _symmetry_equiv_pos_as_xyz
  1  'x, y, z'
loop_
 _atom_site_type_symbol
 _atom_site_label
 _atom_site_symmetry_multiplicity
 _atom_site_fract_x
 _atom_site_fract_y
 _atom_site_fract_z
 _atom_site_occupancy
  Al  Al0  1  0.24628700  0.65128300  0.24948000  1
  Al  Al1  1  0.75346000  0.34970500  0.75031000  1
  Cr  Cr0  1  0.75168500  0.36047600  0.24965500  1
  Cr  Cr1  1  0.24806000  0.63917000  0.74940500  1
  W  W0  1  0.74602900  0.83549000  0.50070700  1
  W  W1  1  0.74470500  0.83719600  0.00108300  1
  W  W2  1  0.25274100  0.16525900  0.49909000  1
  W  W3  1  0.25567000  0.16269900  0.99858300  1
  O  O0  1  0.40724800  0.38408200  0.13539500  1
  O  O1  1  0.09151600  0.39124900  0.36087200  1
  O  O2  1  0.59236600  0.61523400  0.86500600  1
  O  O3  1  0.90836300  0.60773600  0.63857900  1
  O  O4  1  0.41997000  0.88058500  0.61540600  1
  O  O5  1  0.09060100  0.88163100  0.88781600  1
  O  O6  1  0.57979700  0.12107800  0.38471500  1
  O  O7  1  0.91067800  0.11666600  0.11260200  1
  O  O8  1  0.93116200  0.62360300  0.13948300  1
  O  O9  1  0.57414000  0.62788100  0.36077100  1
  O  O10  1  0.06875000  0.37699200  0.86134200  1
  O  O11  1  0.42660500  0.37180500  0.63941700  1
  O  O12  1  0.41499400  0.87464000  0.11987800  1
  O  O13  1  0.58569300  0.12565900  0.88015300  1
  O  O14  1  0.09314200  0.87967300  0.38531300  1
  O  O15  1  0.90633800  0.12020800  0.61494100  1
loop_
_geom_bond_atom_site_label_1
_geom_bond_atom_site_label_2
_geom_bond_distance
_geom_bond_site_symmetry_2
Al0 O8 1.896121 1_455
Al0 O12 1.918143 1_555
Al0 O1 1.932204 1_555
Al0 O14 1.949834 1_555
Al0 O9 1.959934 1_555
Al0 O0 2.001872 1_555
Al1 O10 1.901677 1_655
Al1 O13 1.919850 1_555
Al1 O3 1.925913 1_555
Al1 O15 1.950581 1_555
Al1 O11 1.953145 1_555
Al1 O2 1.998200 1_555
Cr0 O8 1.992898 1_555
Cr0 O1 2.010399 1_655
Cr0 O6 2.014002 1_555
Cr0 O7 2.026044 1_555
Cr0 O9 2.026453 1_555
Cr0 O0 2.046229 1_555
Cr1 O10 1.997037 1_555
Cr1 O3 2.008283 1_455
Cr1 O4 2.015405 1_555
Cr1 O11 2.023484 1_555
Cr1 O5 2.025539 1_555
Cr1 O2 2.052031 1_555
O0 W3 1.903347 1_554
O1 W2 1.969606 1_555
O2 W1 1.902536 1_556
O3 W0 1.976308 1_555
O4 W0 1.994902 1_555
O4 W2 2.097186 1_565
O5 W3 2.026385 1_565
O5 W1 2.067841 1_456
O6 W2 1.996924 1_555
O6 W0 2.097439 1_545
O7 W1 2.024928 1_545
O7 W3 2.068378 1_654
O8 W1 1.986110 1_555
O9 W0 1.918560 1_555
O10 W3 1.982884 1_555
O11 W2 1.921952 1_555
O12 W1 2.025429 1_555
O12 W3 2.118706 1_564
O13 W3 2.024696 1_555
O13 W1 2.118043 1_546
O14 W2 2.048358 1_565
O14 W0 2.082976 1_455
O15 W0 2.048175 1_545
O15 W2 2.082558 1_655
