# generated using pymatgen
data_Ca2Al4Si8O33
_symmetry_space_group_name_H-M   'P 1'
_cell_length_a   10.02385409
_cell_length_b   10.02385409
_cell_length_c   7.41800412
_cell_angle_alpha   73.66908160
_cell_angle_beta   73.66908160
_cell_angle_gamma   83.16269676
_symmetry_Int_Tables_number   1
_chemical_formula_structural   Ca2Al4Si8O33
_chemical_formula_sum   'Ca2 Al4 Si8 O33'
_cell_volume   685.76588910
_cell_formula_units_Z   1
loop_
 _symmetry_equiv_pos_site_id
 _symmetry_equiv_pos_as_xyz
  1  'x, y, z'
loop_
 _atom_site_type_symbol
 _atom_site_label
 _atom_site_symmetry_multiplicity
 _atom_site_fract_x
 _atom_site_fract_y
 _atom_site_fract_z
 _atom_site_occupancy
  Ca  Ca0  1  0.75801800  0.75801800  0.27305000  1
  Ca  Ca1  1  0.24198200  0.24198200  0.72695000  1
  Al  Al0  1  0.82269700  0.43742600  0.26970900  1
  Al  Al1  1  0.43742600  0.82269700  0.26970900  1
  Al  Al2  1  0.17730300  0.56257400  0.73029100  1
  Al  Al3  1  0.56257400  0.17730300  0.73029100  1
  Si  Si0  1  0.85554200  0.62276800  0.84200200  1
  Si  Si1  1  0.62276800  0.85554200  0.84200200  1
  Si  Si2  1  0.14445800  0.37723200  0.15799800  1
  Si  Si3  1  0.37723200  0.14445800  0.15799800  1
  Si  Si4  1  0.69362500  0.46020800  0.69069500  1
  Si  Si5  1  0.46020800  0.69362500  0.69069500  1
  Si  Si6  1  0.30637500  0.53979200  0.30930500  1
  Si  Si7  1  0.53979200  0.30637500  0.30930500  1
  O  O0  1  0.76152700  0.76152700  0.76613000  1
  O  O1  1  0.23847300  0.23847300  0.23387000  1
  O  O2  1  0.84007500  0.59473900  0.07587100  1
  O  O3  1  0.59473900  0.84007500  0.07587100  1
  O  O4  1  0.15992500  0.40526100  0.92412900  1
  O  O5  1  0.40526100  0.15992500  0.92412900  1
  O  O6  1  0.76175900  0.52601800  0.45654100  1
  O  O7  1  0.52601800  0.76175900  0.45654100  1
  O  O8  1  0.23824100  0.47398200  0.54345900  1
  O  O9  1  0.47398200  0.23824100  0.54345900  1
  O  O10  1  0.80094800  0.48668400  0.80694500  1
  O  O11  1  0.48668400  0.80094800  0.80694500  1
  O  O12  1  0.19905200  0.51331600  0.19305500  1
  O  O13  1  0.51331600  0.19905200  0.19305500  1
  O  O14  1  0.01604700  0.65006900  0.72062900  1
  O  O15  1  0.65006900  0.01604700  0.72062900  1
  O  O16  1  0.98395300  0.34993100  0.27937100  1
  O  O17  1  0.34993100  0.98395300  0.27937100  1
  O  O18  1  0.54584800  0.54584800  0.75511000  1
  O  O19  1  0.45415200  0.45415200  0.24489000  1
  O  O20  1  0.70276400  0.33005800  0.26397500  1
  O  O21  1  0.33005800  0.70276400  0.26397500  1
  O  O22  1  0.29723600  0.66994200  0.73602500  1
  O  O23  1  0.66994200  0.29723600  0.73602500  1
  O  O24  1  0.86265400  0.13734600  0.00000000  1
  O  O25  1  0.13734600  0.86265400  0.00000000  1
  O  O26  1  0.92612400  0.92612400  0.01462100  1
  O  O27  1  0.07387600  0.07387600  0.98537900  1
  O  O28  1  0.00000000  0.00000000  0.50000000  1
  O  O29  1  0.01220200  0.24852500  0.63347700  1
  O  O30  1  0.24852500  0.01220200  0.63347700  1
  O  O31  1  0.98779800  0.75147500  0.36652300  1
  O  O32  1  0.75147500  0.98779800  0.36652300  1
loop_
_geom_bond_atom_site_label_1
_geom_bond_atom_site_label_2
_geom_bond_distance
_geom_bond_site_symmetry_2
Ca0 O6 2.343084 1_555
Ca0 O7 2.343084 1_555
Ca0 O3 2.417409 1_555
Ca0 O2 2.417409 1_555
Ca0 O26 2.529174 1_555
Ca0 O31 2.574253 1_555
Ca0 O32 2.574253 1_555
Ca1 O8 2.343084 1_555
Ca1 O9 2.343084 1_555
Ca1 O4 2.417409 1_555
Ca1 O5 2.417409 1_555
Ca1 O27 2.529174 1_555
Ca1 O30 2.574253 1_555
Ca1 O29 2.574253 1_555
Al0 O20 1.722769 1_555
Al0 O16 1.754810 1_555
Al0 O6 1.780278 1_555
Al0 O2 1.798296 1_555
Al1 O21 1.722769 1_555
Al1 O17 1.754810 1_555
Al1 O7 1.780278 1_555
Al1 O3 1.798296 1_555
Al2 O22 1.722769 1_555
Al2 O14 1.754810 1_555
Al2 O8 1.780278 1_555
Al2 O4 1.798296 1_555
Al3 O23 1.722769 1_555
Al3 O15 1.754810 1_555
Al3 O9 1.780278 1_555
Al3 O5 1.798296 1_555
O0 Si1 1.638724 1_555
O0 Si0 1.638724 1_555
O1 Si3 1.638724 1_555
O1 Si2 1.638724 1_555
O2 Si0 1.642453 1_554
O3 Si1 1.642453 1_554
O4 Si2 1.642453 1_556
O5 Si3 1.642453 1_556
O6 Si4 1.647541 1_555
O7 Si5 1.647541 1_555
O8 Si6 1.647541 1_555
O9 Si7 1.647541 1_555
O10 Si0 1.638626 1_555
O10 Si4 1.640056 1_555
O11 Si1 1.638626 1_555
O11 Si5 1.640056 1_555
O12 Si2 1.638626 1_555
O12 Si6 1.640056 1_555
O13 Si3 1.638626 1_555
O13 Si7 1.640056 1_555
O14 Si0 1.620388 1_455
O15 Si1 1.620388 1_545
O16 Si2 1.620388 1_655
O17 Si3 1.620388 1_565
O18 Si4 1.639921 1_555
O18 Si5 1.639921 1_555
O19 Si7 1.639921 1_555
O19 Si6 1.639921 1_555
O20 Si7 1.605188 1_555
O21 Si6 1.605188 1_555
O22 Si5 1.605188 1_555
O23 Si4 1.605188 1_555
