# generated using pymatgen
data_Tm(Fe2Si)2
_symmetry_space_group_name_H-M   'P 1'
_cell_length_a   7.04011700
_cell_length_b   7.04011700
_cell_length_c   3.76160100
_cell_angle_alpha   90.00000000
_cell_angle_beta   90.00000000
_cell_angle_gamma   90.00000000
_symmetry_Int_Tables_number   1
_chemical_formula_structural   Tm(Fe2Si)2
_chemical_formula_sum   'Tm2 Fe8 Si4'
_cell_volume   186.43716088
_cell_formula_units_Z   2
loop_
 _symmetry_equiv_pos_site_id
 _symmetry_equiv_pos_as_xyz
  1  'x, y, z'
loop_
 _atom_site_type_symbol
 _atom_site_label
 _atom_site_symmetry_multiplicity
 _atom_site_fract_x
 _atom_site_fract_y
 _atom_site_fract_z
 _atom_site_occupancy
  Tm  Tm0  1  0.50000000  0.50000000  0.50000000  1
  Tm  Tm1  1  0.00000000  0.00000000  0.00000000  1
  Fe  Fe0  1  0.64723000  0.91384300  0.50000000  1
  Fe  Fe1  1  0.35277000  0.08615700  0.50000000  1
  Fe  Fe2  1  0.14723000  0.58615700  0.00000000  1
  Fe  Fe3  1  0.85277000  0.41384300  0.00000000  1
  Fe  Fe4  1  0.91384300  0.64723000  0.50000000  1
  Fe  Fe5  1  0.08615700  0.35277000  0.50000000  1
  Fe  Fe6  1  0.58615700  0.14723000  0.00000000  1
  Fe  Fe7  1  0.41384300  0.85277000  0.00000000  1
  Si  Si0  1  0.78074700  0.21925300  0.50000000  1
  Si  Si1  1  0.21925300  0.78074700  0.50000000  1
  Si  Si2  1  0.28074700  0.28074700  0.00000000  1
  Si  Si3  1  0.71925300  0.71925300  0.00000000  1
loop_
_geom_bond_atom_site_label_1
_geom_bond_atom_site_label_2
_geom_bond_distance
_geom_bond_site_symmetry_2
Fe0 Si0 2.346610 1_565
Fe0 Si3 2.381436 1_556
Fe0 Si3 2.381436 1_555
Fe0 Fe1 2.401896 1_565
Fe0 Fe6 2.534159 1_565
Fe0 Fe7 2.534159 1_555
Fe0 Fe6 2.534159 1_566
Fe0 Fe7 2.534159 1_556
Fe0 Fe4 2.654460 1_555
Fe0 Tm0 3.092389 1_555
Fe0 Tm1 3.173846 1_666
Fe0 Tm1 3.173846 1_665
Fe1 Si1 2.346610 1_545
Fe1 Si2 2.381436 1_555
Fe1 Si2 2.381436 1_556
Fe1 Fe7 2.534159 1_546
Fe1 Fe7 2.534159 1_545
Fe1 Fe6 2.534159 1_556
Fe1 Fe6 2.534159 1_555
Fe1 Fe5 2.654460 1_555
Fe1 Tm0 3.092389 1_555
Fe1 Tm1 3.173846 1_556
Fe1 Tm1 3.173846 1_555
Fe2 Si2 2.346610 1_555
Fe2 Si1 2.381436 1_555
Fe2 Si1 2.381436 1_554
Fe2 Fe3 2.401896 1_455
Fe2 Fe4 2.534159 1_455
Fe2 Fe4 2.534159 1_454
Fe2 Fe5 2.534159 1_554
Fe2 Fe5 2.534159 1_555
Fe2 Fe7 2.654460 1_555
Fe2 Tm1 3.092389 1_565
Fe2 Tm0 3.173846 1_555
Fe2 Tm0 3.173846 1_554
Fe3 Si3 2.346610 1_555
Fe3 Si0 2.381436 1_555
Fe3 Si0 2.381436 1_554
Fe3 Fe5 2.534159 1_654
Fe3 Fe4 2.534159 1_555
Fe3 Fe5 2.534159 1_655
Fe3 Fe4 2.534159 1_554
Fe3 Fe6 2.654460 1_555
Fe3 Tm1 3.092389 1_655
Fe3 Tm0 3.173846 1_555
Fe3 Tm0 3.173846 1_554
Fe4 Si1 2.346610 1_655
Fe4 Si3 2.381436 1_556
Fe4 Si3 2.381436 1_555
Fe4 Fe5 2.401896 1_655
Fe4 Tm0 3.092389 1_555
Fe4 Tm1 3.173846 1_666
Fe4 Tm1 3.173846 1_665
Fe5 Si0 2.346610 1_455
Fe5 Si2 2.381436 1_555
Fe5 Si2 2.381436 1_556
Fe5 Tm0 3.092389 1_555
Fe5 Tm1 3.173846 1_556
Fe5 Tm1 3.173846 1_555
Fe6 Si2 2.346610 1_555
Fe6 Si0 2.381436 1_555
Fe6 Si0 2.381436 1_554
Fe6 Fe7 2.401896 1_545
Fe6 Tm1 3.092389 1_655
Fe6 Tm0 3.173846 1_555
Fe6 Tm0 3.173846 1_554
Fe7 Si3 2.346610 1_555
Fe7 Si1 2.381436 1_554
Fe7 Si1 2.381436 1_555
Fe7 Tm1 3.092389 1_565
Fe7 Tm0 3.173846 1_555
Fe7 Tm0 3.173846 1_554
Si0 Tm0 2.795181 1_555
Si0 Tm1 2.881425 1_656
Si0 Tm1 2.881425 1_655
Si1 Tm0 2.795181 1_555
Si1 Tm1 2.881425 1_566
Si1 Tm1 2.881425 1_565
Si2 Tm1 2.795181 1_555
Si2 Tm0 2.881425 1_555
Si2 Tm0 2.881425 1_554
Si3 Tm1 2.795181 1_665
Si3 Tm0 2.881425 1_555
Si3 Tm0 2.881425 1_554
