# generated using pymatgen
data_NaSrMg2F7
_symmetry_space_group_name_H-M   'P 1'
_cell_length_a   7.46033575
_cell_length_b   7.46033575
_cell_length_c   7.46033575
_cell_angle_alpha   120.84336715
_cell_angle_beta   118.59541935
_cell_angle_gamma   90.49764712
_symmetry_Int_Tables_number   1
_chemical_formula_structural   NaSrMg2F7
_chemical_formula_sum   'Na2 Sr2 Mg4 F14'
_cell_volume   294.69565209
_cell_formula_units_Z   2
loop_
 _symmetry_equiv_pos_site_id
 _symmetry_equiv_pos_as_xyz
  1  'x, y, z'
loop_
 _atom_site_type_symbol
 _atom_site_label
 _atom_site_symmetry_multiplicity
 _atom_site_fract_x
 _atom_site_fract_y
 _atom_site_fract_z
 _atom_site_occupancy
  Na  Na0  1  0.00000000  0.00000000  0.50000000  1
  Na  Na1  1  0.00000000  0.50000000  0.00000000  1
  Sr  Sr0  1  0.00000000  0.00000000  0.00000000  1
  Sr  Sr1  1  0.50000000  0.00000000  0.50000000  1
  Mg  Mg0  1  0.50000000  0.50000000  0.50000000  1
  Mg  Mg1  1  0.50000000  0.00000000  0.00000000  1
  Mg  Mg2  1  0.50000000  0.50000000  0.00000000  1
  Mg  Mg3  1  0.00000000  0.50000000  0.50000000  1
  F  F0  1  0.11788900  0.86788900  0.25000000  1
  F  F1  1  0.88211100  0.13211100  0.75000000  1
  F  F2  1  0.42172000  0.17172000  0.25000000  1
  F  F3  1  0.81862400  0.56862400  0.25000000  1
  F  F4  1  0.43305700  0.57923700  0.25897200  1
  F  F5  1  0.82026500  0.17408500  0.24102800  1
  F  F6  1  0.43305700  0.17408500  0.85382000  1
  F  F7  1  0.82026500  0.57923700  0.64618000  1
  F  F8  1  0.57828000  0.82828000  0.75000000  1
  F  F9  1  0.18137600  0.43137600  0.75000000  1
  F  F10  1  0.56694300  0.42076300  0.74102800  1
  F  F11  1  0.17973500  0.82591500  0.75897200  1
  F  F12  1  0.56694300  0.82591500  0.14618000  1
  F  F13  1  0.17973500  0.42076300  0.35382000  1
loop_
_geom_bond_atom_site_label_1
_geom_bond_atom_site_label_2
_geom_bond_distance
_geom_bond_site_symmetry_2
F0 Na0 2.218965 1_565
F0 Na1 2.218965 1_555
F0 Sr0 2.356519 1_565
F0 Sr1 2.356519 1_565
F1 Na0 2.218965 1_655
F1 Na1 2.218965 1_656
F1 Sr1 2.356519 1_555
F1 Sr0 2.356519 1_656
F2 Mg1 2.016534 1_555
F2 Mg0 2.016534 1_555
F2 Sr0 2.623192 1_555
F2 Sr1 2.623192 1_555
F3 Mg3 2.036398 1_655
F3 Mg2 2.036398 1_555
F3 Na0 2.649590 1_665
F3 Na1 2.649590 1_655
F4 Mg0 2.016837 1_555
F4 Mg2 2.022185 1_555
F4 Sr1 2.581024 1_565
F4 Na1 2.709363 1_555
F5 Mg1 2.016837 1_555
F5 Mg3 2.022185 1_655
F5 Sr0 2.581024 1_655
F5 Na0 2.709363 1_655
F6 Mg1 2.016837 1_556
F6 Mg2 2.022185 1_556
F6 Sr1 2.581024 1_555
F6 Na0 2.709363 1_555
F7 Mg0 2.016837 1_555
F7 Mg3 2.022185 1_655
F7 Sr0 2.581024 1_666
F7 Na1 2.709363 1_656
F8 Mg1 2.016534 1_566
F8 Mg0 2.016534 1_555
F8 Sr1 2.623192 1_565
F8 Sr0 2.623192 1_666
F9 Mg3 2.036398 1_555
F9 Mg2 2.036398 1_556
F9 Na1 2.649590 1_556
F9 Na0 2.649590 1_555
F10 Mg0 2.016837 1_555
F10 Mg2 2.022185 1_556
F10 Sr1 2.581024 1_555
F10 Na1 2.709363 1_656
F11 Mg1 2.016837 1_566
F11 Mg3 2.022185 1_555
F11 Sr0 2.581024 1_566
F11 Na0 2.709363 1_565
F12 Mg1 2.016837 1_565
F12 Mg2 2.022185 1_555
F12 Sr1 2.581024 1_565
F12 Na0 2.709363 1_665
F13 Mg0 2.016837 1_555
F13 Mg3 2.022185 1_555
F13 Sr0 2.581024 1_555
F13 Na1 2.709363 1_555
