# generated using pymatgen
data_V3FeS6
_symmetry_space_group_name_H-M   'P 1'
_cell_length_a   5.59459168
_cell_length_b   5.59459100
_cell_length_c   6.43236326
_cell_angle_alpha   90.00000000
_cell_angle_beta   64.22244940
_cell_angle_gamma   119.99999009
_symmetry_Int_Tables_number   1
_chemical_formula_structural   V3FeS6
_chemical_formula_sum   'V3 Fe1 S6'
_cell_volume   150.77962794
_cell_formula_units_Z   1
loop_
 _symmetry_equiv_pos_site_id
 _symmetry_equiv_pos_as_xyz
  1  'x, y, z'
loop_
 _atom_site_type_symbol
 _atom_site_label
 _atom_site_symmetry_multiplicity
 _atom_site_fract_x
 _atom_site_fract_y
 _atom_site_fract_z
 _atom_site_occupancy
  V  V0  1  0.66224100  0.33112100  0.00663800  1
  V  V1  1  0.33775900  0.66887900  0.99336200  1
  V  V2  1  0.00000000  0.00000000  0.00000000  1
  Fe  Fe0  1  0.00000000  0.50000000  0.50000000  1
  S  S0  1  0.15723100  0.24722600  0.26144800  1
  S  S1  1  0.82854700  0.58132100  0.26144800  1
  S  S2  1  0.49132600  0.91000500  0.26144800  1
  S  S3  1  0.84276900  0.75277400  0.73855200  1
  S  S4  1  0.17145300  0.41867900  0.73855200  1
  S  S5  1  0.50867400  0.08999500  0.73855200  1
loop_
_geom_bond_atom_site_label_1
_geom_bond_atom_site_label_2
_geom_bond_distance
_geom_bond_site_symmetry_2
Fe0 S3 2.279951 1_455
Fe0 S0 2.279951 1_555
Fe0 S4 2.279951 1_555
Fe0 S1 2.279951 1_455
Fe0 S2 2.279952 1_555
Fe0 S5 2.279952 1_455
S0 V0 2.352749 1_555
S0 V2 2.363264 1_555
S0 V1 2.379318 1_554
S1 V0 2.352750 1_555
S1 V2 2.363264 1_665
S1 V1 2.379323 1_654
S2 V0 2.352753 1_565
S2 V2 2.363264 1_665
S2 V1 2.379321 1_554
S3 V1 2.352749 1_555
S3 V2 2.363264 1_666
S3 V0 2.379318 1_556
S4 V1 2.352750 1_555
S4 V2 2.363264 1_556
S4 V0 2.379323 1_456
S5 V1 2.352753 1_545
S5 V2 2.363264 1_556
S5 V0 2.379321 1_556
