# generated using pymatgen
data_CoO2
_symmetry_space_group_name_H-M   'P 1'
_cell_length_a   2.74077473
_cell_length_b   4.92612979
_cell_length_c   9.81259246
_cell_angle_alpha   89.78083485
_cell_angle_beta   89.87559665
_cell_angle_gamma   89.95684976
_symmetry_Int_Tables_number   1
_chemical_formula_structural   CoO2
_chemical_formula_sum   'Co4 O8'
_cell_volume   132.48253558
_cell_formula_units_Z   4
loop_
 _symmetry_equiv_pos_site_id
 _symmetry_equiv_pos_as_xyz
  1  'x, y, z'
loop_
 _atom_site_type_symbol
 _atom_site_label
 _atom_site_symmetry_multiplicity
 _atom_site_fract_x
 _atom_site_fract_y
 _atom_site_fract_z
 _atom_site_occupancy
  Co  Co0  1  0.49867141  0.50083567  0.50235390  1
  Co  Co1  1  0.99885916  0.00106394  0.00177678  1
  Co  Co2  1  0.99868291  0.00083008  0.50235263  1
  Co  Co3  1  0.49888256  0.50107084  0.00176725  1
  O  O0  1  0.49947374  0.83299149  0.40672686  1
  O  O1  1  0.99944104  0.33301639  0.40672387  1
  O  O2  1  0.49816821  0.83173687  0.09739155  1
  O  O3  1  0.99820213  0.33174578  0.09739510  1
  O  O4  1  0.49780985  0.16876937  0.59805203  1
  O  O5  1  0.99781029  0.66874730  0.59806671  1
  O  O6  1  0.49954944  0.17046967  0.90616162  1
  O  O7  1  0.99956229  0.67048760  0.90614670  1
loop_
_geom_bond_atom_site_label_1
_geom_bond_atom_site_label_2
_geom_bond_distance
_geom_bond_site_symmetry_2
Co0 O1 1.856439 1_555
Co0 O5 1.857238 1_455
Co0 O1 1.857252 1_455
Co0 O5 1.857684 1_555
Co0 O4 1.883058 1_555
Co0 O0 1.883094 1_555
Co1 O2 1.856525 1_645
Co1 O6 1.856701 1_554
Co1 O2 1.857241 1_545
Co1 O6 1.857415 1_654
Co1 O7 1.882585 1_544
Co1 O3 1.882977 1_555
Co2 O0 1.856503 1_645
Co2 O0 1.857230 1_545
Co2 O4 1.857257 1_555
Co2 O4 1.857654 1_655
Co2 O5 1.883206 1_545
Co2 O1 1.883233 1_555
Co3 O3 1.856607 1_555
Co3 O7 1.856774 1_454
Co3 O3 1.857279 1_455
Co3 O7 1.857444 1_554
Co3 O6 1.882570 1_554
Co3 O2 1.882939 1_555
