# generated using pymatgen
data_WSeS
_symmetry_space_group_name_H-M   'P 1'
_cell_length_a   3.24783065
_cell_length_b   3.24783065
_cell_length_c   22.77338267
_cell_angle_alpha   90.00000000
_cell_angle_beta   90.00000000
_cell_angle_gamma   120.00000112
_symmetry_Int_Tables_number   1
_chemical_formula_structural   WSeS
_chemical_formula_sum   'W2 Se2 S2'
_cell_volume   208.03907966
_cell_formula_units_Z   2
loop_
 _symmetry_equiv_pos_site_id
 _symmetry_equiv_pos_as_xyz
  1  'x, y, z'
loop_
 _atom_site_type_symbol
 _atom_site_label
 _atom_site_symmetry_multiplicity
 _atom_site_fract_x
 _atom_site_fract_y
 _atom_site_fract_z
 _atom_site_occupancy
  W  W0  1  -0.00000000  0.00000000  0.15054715  1
  W  W1  1  0.33333300  0.66666700  0.45132280  1
  Se  Se0  1  0.00000000  -0.00000000  0.52538137  1
  Se  Se1  1  0.00000000  -0.00000000  0.37720394  1
  S  S0  1  0.33333300  0.66666700  0.08304627  1
  S  S1  1  0.33333300  0.66666700  0.21810246  1
loop_
_geom_bond_atom_site_label_1
_geom_bond_atom_site_label_2
_geom_bond_distance
_geom_bond_site_symmetry_2
Se0 W1 2.522028 1_545
Se0 W1 2.522030 1_445
Se0 W1 2.522030 1_555
Se1 W1 2.522947 1_545
Se1 W1 2.522949 1_445
Se1 W1 2.522949 1_555
S0 W0 2.424703 1_565
S0 W0 2.424705 1_555
S0 W0 2.424705 1_665
S1 W0 2.425489 1_565
S1 W0 2.425491 1_665
S1 W0 2.425491 1_555
