# generated using pymatgen
data_YCo2B2C
_symmetry_space_group_name_H-M   'P 1'
_cell_length_a   5.75791984
_cell_length_b   5.75791984
_cell_length_c   5.75791984
_cell_angle_alpha   144.21833616
_cell_angle_beta   144.21833616
_cell_angle_gamma   51.50092817
_symmetry_Int_Tables_number   1
_chemical_formula_structural   YCo2B2C
_chemical_formula_sum   'Y1 Co2 B2 C1'
_cell_volume   64.90664528
_cell_formula_units_Z   1
loop_
 _symmetry_equiv_pos_site_id
 _symmetry_equiv_pos_as_xyz
  1  'x, y, z'
loop_
 _atom_site_type_symbol
 _atom_site_label
 _atom_site_symmetry_multiplicity
 _atom_site_fract_x
 _atom_site_fract_y
 _atom_site_fract_z
 _atom_site_occupancy
  Y  Y0  1  0.50000000  0.50000000  0.00000000  1
  Co  Co0  1  0.75000000  0.25000000  0.50000000  1
  Co  Co1  1  0.25000000  0.75000000  0.50000000  1
  B  B0  1  0.14546600  0.14546600  0.00000000  1
  B  B1  1  0.85453400  0.85453400  0.00000000  1
  C  C0  1  0.00000000  0.00000000  0.00000000  1
loop_
_geom_bond_atom_site_label_1
_geom_bond_atom_site_label_2
_geom_bond_distance
_geom_bond_site_symmetry_2
B0 C0 1.508811 1_555
B0 Co1 2.074720 1_555
B0 Co0 2.074720 1_454
B0 Co0 2.074720 1_555
B0 Co1 2.074720 1_544
B1 C0 1.508811 1_665
B1 Co1 2.074720 1_554
B1 Co0 2.074720 1_565
B1 Co0 2.074720 1_554
B1 Co1 2.074720 1_655
C0 Y0 2.501543 1_556
C0 Y0 2.501543 1_455
C0 Y0 2.501543 1_444
C0 Y0 2.501543 1_545
