# generated using pymatgen
data_SrSiO3
_symmetry_space_group_name_H-M   'P 1'
_cell_length_a   6.94518575
_cell_length_b   6.95536271
_cell_length_c   9.71250518
_cell_angle_alpha   69.57432701
_cell_angle_beta   83.49285053
_cell_angle_gamma   75.56126536
_symmetry_Int_Tables_number   1
_chemical_formula_structural   SrSiO3
_chemical_formula_sum   'Sr6 Si6 O18'
_cell_volume   425.60981406
_cell_formula_units_Z   6
loop_
 _symmetry_equiv_pos_site_id
 _symmetry_equiv_pos_as_xyz
  1  'x, y, z'
loop_
 _atom_site_type_symbol
 _atom_site_label
 _atom_site_symmetry_multiplicity
 _atom_site_fract_x
 _atom_site_fract_y
 _atom_site_fract_z
 _atom_site_occupancy
  Sr  Sr0  1  0.58478181  0.22913291  0.65128317  1
  Sr  Sr1  1  0.41521819  0.77086709  0.34871683  1
  Sr  Sr2  1  0.07903252  0.41094689  0.33806179  1
  Sr  Sr3  1  0.92096748  0.58905311  0.66193821  1
  Sr  Sr4  1  0.24065022  0.25216294  0.99764247  1
  Sr  Sr5  1  0.75934978  0.74783706  0.00235753  1
  Si  Si0  1  0.04317748  0.01904393  0.70510240  1
  Si  Si1  1  0.95682252  0.98095607  0.29489760  1
  Si  Si2  1  0.26886684  0.77056254  0.97934018  1
  Si  Si3  1  0.73113316  0.22943746  0.02065982  1
  Si  Si4  1  0.38431617  0.66476646  0.70755736  1
  Si  Si5  1  0.61568383  0.33523354  0.29244264  1
  O  O0  1  0.96651429  0.25972343  0.60590335  1
  O  O1  1  0.03348571  0.74027657  0.39409665  1
  O  O2  1  0.86269242  0.89960817  0.73934095  1
  O  O3  1  0.13730758  0.10039183  0.26065905  1
  O  O4  1  0.13694502  0.99473440  0.86261092  1
  O  O5  1  0.86305498  0.00526560  0.13738908  1
  O  O6  1  0.13344644  0.60394618  0.05589021  1
  O  O7  1  0.86655356  0.39605382  0.94410979  1
  O  O8  1  0.38292483  0.83775795  0.08294504  1
  O  O9  1  0.61707517  0.16224205  0.91705496  1
  O  O10  1  0.43942094  0.68748007  0.86205748  1
  O  O11  1  0.56057906  0.31251993  0.13794252  1
  O  O12  1  0.72705232  0.52361449  0.26245795  1
  O  O13  1  0.27294768  0.47638551  0.73754205  1
  O  O14  1  0.76699971  0.10474610  0.37682095  1
  O  O15  1  0.23300029  0.89525390  0.62317905  1
  O  O16  1  0.42636547  0.36980910  0.39972149  1
  O  O17  1  0.57363453  0.63019090  0.60027851  1
loop_
_geom_bond_atom_site_label_1
_geom_bond_atom_site_label_2
_geom_bond_distance
_geom_bond_site_symmetry_2
O0 Si0 1.600038 1_655
O0 Sr3 2.472430 1_555
O0 Sr2 2.554143 1_655
O0 Sr0 2.686896 1_555
O1 Si1 1.600038 1_455
O1 Sr2 2.472430 1_555
O1 Sr3 2.554143 1_455
O1 Sr1 2.686896 1_555
O2 Si0 1.613673 1_665
O2 Sr3 2.454213 1_555
O2 Sr5 2.497051 1_556
O2 Sr0 2.551442 1_565
O3 Si1 1.613673 1_445
O3 Sr2 2.454213 1_555
O3 Sr4 2.497051 1_554
O3 Sr1 2.551442 1_545
O4 Si0 1.668335 1_565
O4 Si2 1.686742 1_555
O4 Sr4 2.817970 1_565
O5 Si1 1.668335 1_545
O5 Si3 1.686742 1_555
O5 Sr5 2.817970 1_545
O6 Si2 1.601254 1_554
O6 Sr5 2.582383 1_455
O6 Sr4 2.612153 1_554
O6 Sr2 2.627940 1_555
O7 Si3 1.601254 1_556
O7 Sr4 2.582383 1_655
O7 Sr5 2.612153 1_556
O7 Sr3 2.627940 1_555
O8 Si2 1.597518 1_554
O8 Sr1 2.484121 1_555
O8 Sr5 2.626987 1_555
O8 Sr4 2.658779 1_564
O9 Si3 1.597518 1_556
O9 Sr0 2.484121 1_555
O9 Sr4 2.626987 1_555
O9 Sr5 2.658779 1_546
O10 Si4 1.657999 1_555
O10 Si2 1.687271 1_555
O10 Sr5 2.919065 1_556
O11 Si5 1.657999 1_555
O11 Si3 1.687271 1_555
O11 Sr4 2.919065 1_554
O12 Si5 1.608681 1_555
O12 Sr5 2.482025 1_555
O12 Sr2 2.485780 1_655
O12 Sr1 2.662112 1_555
O13 Si4 1.608681 1_555
O13 Sr4 2.482025 1_555
O13 Sr3 2.485780 1_455
O13 Sr0 2.662112 1_555
O14 Si5 1.668557 1_555
O14 Si1 1.669386 1_545
O14 Sr0 3.123333 1_555
O15 Si4 1.668557 1_555
O15 Si0 1.669386 1_565
O15 Sr1 3.123333 1_555
O16 Si5 1.605930 1_555
O16 Sr2 2.474529 1_555
O16 Sr0 2.557610 1_555
O16 Sr1 2.639924 1_555
O17 Si4 1.605930 1_555
O17 Sr3 2.474529 1_555
O17 Sr1 2.557610 1_555
O17 Sr0 2.639924 1_555
