# generated using pymatgen
data_Al2Se3O28
_symmetry_space_group_name_H-M   'P 1'
_cell_length_a   26.30640800
_cell_length_b   6.57026300
_cell_length_c   8.12318407
_cell_angle_alpha   82.24016889
_cell_angle_beta   90.00000000
_cell_angle_gamma   90.00000000
_symmetry_Int_Tables_number   1
_chemical_formula_structural   Al2Se3O28
_chemical_formula_sum   'Al4 Se6 O56'
_cell_volume   1391.15440042
_cell_formula_units_Z   2
loop_
 _symmetry_equiv_pos_site_id
 _symmetry_equiv_pos_as_xyz
  1  'x, y, z'
loop_
 _atom_site_type_symbol
 _atom_site_label
 _atom_site_symmetry_multiplicity
 _atom_site_fract_x
 _atom_site_fract_y
 _atom_site_fract_z
 _atom_site_occupancy
  Al  Al0  1  0.10603600  0.60552700  0.60995400  1
  Al  Al1  1  0.60603600  0.39447300  0.39004600  1
  Al  Al2  1  0.98098200  0.51542400  0.19162000  1
  Al  Al3  1  0.48098200  0.48457600  0.80838000  1
  Se  Se0  1  0.75445200  0.94894500  0.03114500  1
  Se  Se1  1  0.25445200  0.05105500  0.96885500  1
  Se  Se2  1  0.09262600  0.98969700  0.23770400  1
  Se  Se3  1  0.59262600  0.01030300  0.76229600  1
  Se  Se4  1  0.95803000  0.04554100  0.67316100  1
  Se  Se5  1  0.45803000  0.95445900  0.32683900  1
  O  O0  1  0.89679400  0.10814100  0.13311400  1
  O  O1  1  0.39679400  0.89185900  0.86688600  1
  O  O2  1  0.06576800  0.72077400  0.76080500  1
  O  O3  1  0.56576800  0.27922600  0.23919500  1
  O  O4  1  0.86514000  0.54947000  0.16346800  1
  O  O5  1  0.36514000  0.45053000  0.83653200  1
  O  O6  1  0.12819900  0.82420200  0.42782700  1
  O  O7  1  0.62819900  0.17579800  0.57217300  1
  O  O8  1  0.70564400  0.25236000  0.32766300  1
  O  O9  1  0.20564400  0.74764000  0.67233700  1
  O  O10  1  0.90717400  0.59885800  0.10106600  1
  O  O11  1  0.40717400  0.40114200  0.89893400  1
  O  O12  1  0.16912600  0.63781200  0.73702000  1
  O  O13  1  0.66912600  0.36218800  0.26298000  1
  O  O14  1  0.85210700  0.44458100  0.60580200  1
  O  O15  1  0.35210700  0.55541900  0.39419800  1
  O  O16  1  0.78623600  0.98285600  0.85633100  1
  O  O17  1  0.28623600  0.01714400  0.14366900  1
  O  O18  1  0.20417200  0.58569400  0.11668500  1
  O  O19  1  0.70417200  0.41430600  0.88331500  1
  O  O20  1  0.13128400  0.60463300  0.40674900  1
  O  O21  1  0.63128400  0.39536700  0.59325100  1
  O  O22  1  0.86100700  0.02530900  0.21390500  1
  O  O23  1  0.36100700  0.97469100  0.78609500  1
  O  O24  1  0.06226200  0.16431400  0.32275200  1
  O  O25  1  0.56226200  0.83568600  0.67724800  1
  O  O26  1  0.24984100  0.35307700  0.46154600  1
  O  O27  1  0.74984100  0.64692300  0.53845400  1
  O  O28  1  0.16351100  0.50358500  0.08929000  1
  O  O29  1  0.66351100  0.49641500  0.91071000  1
  O  O30  1  0.07353700  0.25837600  0.80306500  1
  O  O31  1  0.57353700  0.74162400  0.19693500  1
  O  O32  1  0.92918400  0.98573600  0.50699800  1
  O  O33  1  0.42918400  0.01426400  0.49300200  1
  O  O34  1  0.20956600  0.26774400  0.50695400  1
  O  O35  1  0.70956600  0.73225600  0.49304600  1
  O  O36  1  0.75515500  0.70964600  0.12102600  1
  O  O37  1  0.25515500  0.29035400  0.87897400  1
  O  O38  1  0.10309700  0.31763700  0.67933300  1
  O  O39  1  0.60309700  0.68236300  0.32066700  1
  O  O40  1  0.96888300  0.41745600  0.39665200  1
  O  O41  1  0.46888300  0.58254400  0.60334800  1
  O  O42  1  0.13652200  0.04204900  0.09782400  1
  O  O43  1  0.63652200  0.95795100  0.90217600  1
  O  O44  1  0.94734900  0.87495600  0.83668900  1
  O  O45  1  0.44734900  0.12504400  0.16331100  1
  O  O46  1  0.00249400  0.77497800  0.21143200  1
  O  O47  1  0.50249400  0.22502200  0.78856800  1
  O  O48  1  0.00133400  0.37229700  0.04109500  1
  O  O49  1  0.50133400  0.62770300  0.95890500  1
  O  O50  1  0.03840900  0.68508000  0.62078000  1
  O  O51  1  0.53840900  0.31492000  0.37922000  1
  O  O52  1  0.05056300  0.80715500  0.13545300  1
  O  O53  1  0.55056300  0.19284500  0.86454700  1
  O  O54  1  0.87026500  0.34322800  0.73041900  1
  O  O55  1  0.37026500  0.65677200  0.26958100  1
loop_
_geom_bond_atom_site_label_1
_geom_bond_atom_site_label_2
_geom_bond_distance
_geom_bond_site_symmetry_2
Al0 O20 1.780031 1_555
Al0 O2 1.856780 1_555
Al0 O50 1.859642 1_555
Al0 O38 1.900934 1_555
Al0 O12 1.980915 1_555
Al0 O6 2.004733 1_555
Al1 O21 1.780031 1_555
Al1 O3 1.856780 1_555
Al1 O51 1.859642 1_555
Al1 O39 1.900934 1_555
Al1 O13 1.980915 1_555
Al1 O7 2.004733 1_555
Al2 O48 1.725272 1_655
Al2 O40 1.732067 1_555
Al2 O46 1.824401 1_655
Al2 O10 2.121934 1_555
Al3 O49 1.725272 1_555
Al3 O41 1.732067 1_555
Al3 O47 1.824401 1_555
Al3 O11 2.121934 1_555
O0 O22 1.231553 1_555
O1 O23 1.231553 1_555
O2 O50 1.392414 1_555
O3 O51 1.392414 1_555
O6 Se2 1.997434 1_555
O7 Se3 1.997434 1_555
O10 O4 1.241185 1_555
O11 O5 1.241185 1_555
O12 O9 1.271715 1_555
O13 O8 1.271715 1_555
O14 O54 1.230571 1_555
O15 O55 1.230571 1_555
O16 Se0 1.637020 1_556
O17 Se1 1.637020 1_554
O18 O28 1.231713 1_555
O19 O29 1.231713 1_555
O20 O6 1.477760 1_555
O21 O7 1.477760 1_555
O24 Se2 1.626532 1_545
O25 Se3 1.626532 1_565
O26 O34 1.231694 1_555
O27 O35 1.231694 1_555
O30 O38 1.288733 1_555
O31 O39 1.288733 1_555
O32 Se4 1.641748 1_565
O33 Se5 1.641748 1_545
O36 Se0 1.641773 1_555
O37 Se1 1.641773 1_555
O42 Se2 1.623983 1_545
O43 Se3 1.623983 1_565
O44 Se4 1.642447 1_565
O45 Se5 1.642447 1_545
O46 O52 1.410462 1_555
O47 O53 1.410462 1_555
O52 Se2 1.903090 1_555
O53 Se3 1.903090 1_555
