# generated using pymatgen
data_SmGa3Pd
_symmetry_space_group_name_H-M   'P 1'
_cell_length_a   6.12812203
_cell_length_b   6.12812203
_cell_length_c   6.12812203
_cell_angle_alpha   140.29905425
_cell_angle_beta   140.29905425
_cell_angle_gamma   57.39950779
_symmetry_Int_Tables_number   1
_chemical_formula_structural   SmGa3Pd
_chemical_formula_sum   'Sm1 Ga3 Pd1'
_cell_volume   93.10332644
_cell_formula_units_Z   1
loop_
 _symmetry_equiv_pos_site_id
 _symmetry_equiv_pos_as_xyz
  1  'x, y, z'
loop_
 _atom_site_type_symbol
 _atom_site_label
 _atom_site_symmetry_multiplicity
 _atom_site_fract_x
 _atom_site_fract_y
 _atom_site_fract_z
 _atom_site_occupancy
  Sm  Sm0  1  -0.00000000  -0.00000000  -0.00000000  1
  Ga  Ga0  1  0.61383978  0.61383978  -0.00000000  1
  Ga  Ga1  1  0.38616022  0.38616022  0.00000000  1
  Ga  Ga2  1  0.75000000  0.25000000  0.50000000  1
  Pd  Pd0  1  0.25000000  0.75000000  0.50000000  1
loop_
_geom_bond_atom_site_label_1
_geom_bond_atom_site_label_2
_geom_bond_distance
_geom_bond_site_symmetry_2
Ga0 Ga1 2.447679 1_555
Ga0 Pd0 2.544183 1_554
Ga0 Ga2 2.544183 1_554
Ga0 Ga2 2.544183 1_565
Ga0 Pd0 2.544183 1_655
Ga0 Sm0 3.187181 1_666
Ga0 Sm0 3.187181 1_554
Ga0 Sm0 3.187181 1_565
Ga0 Sm0 3.187181 1_655
Ga1 Pd0 2.544183 1_555
Ga1 Ga2 2.544183 1_555
Ga1 Ga2 2.544183 1_454
Ga1 Pd0 2.544183 1_544
Ga1 Sm0 3.187181 1_655
Ga1 Sm0 3.187181 1_666
Ga1 Sm0 3.187181 1_554
Ga1 Sm0 3.187181 1_565
Ga2 Pd0 2.942845 1_656
Ga2 Pd0 2.942845 1_544
Ga2 Pd0 2.942845 1_645
Ga2 Pd0 2.942845 1_555
Ga2 Sm0 3.399052 1_655
Ga2 Sm0 3.399052 1_666
Ga2 Sm0 3.399052 1_656
Ga2 Sm0 3.399052 1_555
Pd0 Sm0 3.399052 1_555
Pd0 Sm0 3.399052 1_565
Pd0 Sm0 3.399052 1_566
Pd0 Sm0 3.399052 1_666
