# generated using pymatgen
data_Bi6N5O26
_symmetry_space_group_name_H-M   'P 1'
_cell_length_a   9.26417187
_cell_length_b   15.48780476
_cell_length_c   17.25795993
_cell_angle_alpha   112.87032116
_cell_angle_beta   90.00000000
_cell_angle_gamma   90.00000000
_symmetry_Int_Tables_number   1
_chemical_formula_structural   Bi6N5O26
_chemical_formula_sum   'Bi24 N20 O104'
_cell_volume   2281.53918866
_cell_formula_units_Z   4
loop_
 _symmetry_equiv_pos_site_id
 _symmetry_equiv_pos_as_xyz
  1  'x, y, z'
loop_
 _atom_site_type_symbol
 _atom_site_label
 _atom_site_symmetry_multiplicity
 _atom_site_fract_x
 _atom_site_fract_y
 _atom_site_fract_z
 _atom_site_occupancy
  Bi  Bi0  1  0.17075629  0.44588313  0.89680112  1
  Bi  Bi1  1  0.32924371  0.94588313  0.39680112  1
  Bi  Bi2  1  0.82924371  0.55411687  0.10319888  1
  Bi  Bi3  1  0.67075629  0.05411687  0.60319888  1
  Bi  Bi4  1  0.15180382  0.66196834  0.84308027  1
  Bi  Bi5  1  0.34819618  0.16196834  0.34308027  1
  Bi  Bi6  1  0.84819618  0.33803166  0.15691973  1
  Bi  Bi7  1  0.65180382  0.83803166  0.65691973  1
  Bi  Bi8  1  0.48069358  0.59913851  0.96341246  1
  Bi  Bi9  1  0.01930642  0.09913851  0.46341246  1
  Bi  Bi10  1  0.51930642  0.40086149  0.03658754  1
  Bi  Bi11  1  0.98069358  0.90086149  0.53658754  1
  Bi  Bi12  1  0.19778814  0.41177545  0.67249881  1
  Bi  Bi13  1  0.30221186  0.91177545  0.17249881  1
  Bi  Bi14  1  0.80221186  0.58822455  0.32750119  1
  Bi  Bi15  1  0.69778814  0.08822455  0.82750119  1
  Bi  Bi16  1  0.48702658  0.58073131  0.73050224  1
  Bi  Bi17  1  0.01297342  0.08073131  0.23050224  1
  Bi  Bi18  1  0.51297342  0.41926869  0.26949776  1
  Bi  Bi19  1  0.98702658  0.91926869  0.76949776  1
  Bi  Bi20  1  0.51200303  0.37398351  0.77433597  1
  Bi  Bi21  1  0.98799697  0.87398351  0.27433597  1
  Bi  Bi22  1  0.48799697  0.62601649  0.22566403  1
  Bi  Bi23  1  0.01200303  0.12601649  0.72566403  1
  N  N0  1  0.67923761  0.81570123  0.17552580  1
  N  N1  1  0.82076239  0.31570123  0.67552580  1
  N  N2  1  0.32076239  0.18429877  0.82447420  1
  N  N3  1  0.17923761  0.68429877  0.32447420  1
  N  N4  1  0.29932871  0.78907336  0.71813518  1
  N  N5  1  0.20067129  0.28907336  0.21813518  1
  N  N6  1  0.70067129  0.21092664  0.28186482  1
  N  N7  1  0.79932871  0.71092664  0.78186482  1
  N  N8  1  0.80546441  0.69630063  0.96650618  1
  N  N9  1  0.69453559  0.19630063  0.46650618  1
  N  N10  1  0.19453559  0.30369937  0.03349382  1
  N  N11  1  0.30546441  0.80369937  0.53349382  1
  N  N12  1  0.19621500  0.88214532  0.98236275  1
  N  N13  1  0.30378500  0.38214532  0.48236275  1
  N  N14  1  0.80378500  0.11785468  0.01763725  1
  N  N15  1  0.69621500  0.61785468  0.51763725  1
  N  N16  1  0.16819885  0.65479095  0.11217552  1
  N  N17  1  0.33180115  0.15479095  0.61217552  1
  N  N18  1  0.83180115  0.34520905  0.88782448  1
  N  N19  1  0.66819885  0.84520905  0.38782448  1
  O  O0  1  0.44335343  0.41931123  0.67362667  1
  O  O1  1  0.05664657  0.91931123  0.17362667  1
  O  O2  1  0.55664657  0.58068877  0.32637333  1
  O  O3  1  0.94335343  0.08068877  0.82637333  1
  O  O4  1  0.39527522  0.68152655  0.85409636  1
  O  O5  1  0.10472478  0.18152655  0.35409636  1
  O  O6  1  0.60472478  0.31847345  0.14590364  1
  O  O7  1  0.89527522  0.81847345  0.64590364  1
  O  O8  1  0.06912954  0.50025357  0.80032570  1
  O  O9  1  0.43087046  0.00025357  0.30032570  1
  O  O10  1  0.93087046  0.49974643  0.19967430  1
  O  O11  1  0.56912954  0.99974643  0.69967430  1
  O  O12  1  0.41661354  0.45107667  0.93054853  1
  O  O13  1  0.08338646  0.95107667  0.43054853  1
  O  O14  1  0.58338646  0.54892333  0.06945147  1
  O  O15  1  0.91661354  0.04892333  0.56945147  1
  O  O16  1  0.24897821  0.56219012  0.72307512  1
  O  O17  1  0.25102179  0.06219012  0.22307512  1
  O  O18  1  0.75102179  0.43780988  0.27692488  1
  O  O19  1  0.74897821  0.93780988  0.77692488  1
  O  O20  1  0.27383834  0.37195143  0.77598348  1
  O  O21  1  0.22616166  0.87195143  0.27598348  1
  O  O22  1  0.72616166  0.62804857  0.22401652  1
  O  O23  1  0.77383834  0.12804857  0.72401652  1
  O  O24  1  0.24351441  0.59039493  0.92029173  1
  O  O25  1  0.25648559  0.09039493  0.42029173  1
  O  O26  1  0.75648559  0.40960507  0.07970827  1
  O  O27  1  0.74351441  0.90960507  0.57970827  1
  O  O28  1  0.54458541  0.52765643  0.82896073  1
  O  O29  1  0.95541459  0.02765643  0.32896073  1
  O  O30  1  0.45541459  0.47234357  0.17103927  1
  O  O31  1  0.04458541  0.97234357  0.67103927  1
  O  O32  1  0.69578292  0.89771896  0.23079665  1
  O  O33  1  0.80421708  0.39771896  0.73079665  1
  O  O34  1  0.30421708  0.10228104  0.76920335  1
  O  O35  1  0.19578292  0.60228104  0.26920335  1
  O  O36  1  0.55464005  0.78387878  0.14996689  1
  O  O37  1  0.94535995  0.28387878  0.64996689  1
  O  O38  1  0.44535995  0.21612122  0.85003311  1
  O  O39  1  0.05464005  0.71612122  0.35003311  1
  O  O40  1  0.79008272  0.76525552  0.14697942  1
  O  O41  1  0.70991728  0.26525552  0.64697942  1
  O  O42  1  0.20991728  0.23474448  0.85302058  1
  O  O43  1  0.29008272  0.73474448  0.35302058  1
  O  O44  1  0.31088898  0.87275212  0.72585446  1
  O  O45  1  0.18911102  0.37275212  0.22585446  1
  O  O46  1  0.68911102  0.12724788  0.27414554  1
  O  O47  1  0.81088898  0.62724788  0.77414554  1
  O  O48  1  0.40752033  0.73461307  0.69535494  1
  O  O49  1  0.09247967  0.23461307  0.19535494  1
  O  O50  1  0.59247967  0.26538693  0.30464506  1
  O  O51  1  0.90752033  0.76538693  0.80464506  1
  O  O52  1  0.17933098  0.75814216  0.73225603  1
  O  O53  1  0.32066902  0.25814216  0.23225603  1
  O  O54  1  0.82066902  0.24185784  0.26774397  1
  O  O55  1  0.67933098  0.74185784  0.76774397  1
  O  O56  1  0.93734096  0.71550808  0.97047048  1
  O  O57  1  0.56265904  0.21550808  0.47047048  1
  O  O58  1  0.06265904  0.28449192  0.02952952  1
  O  O59  1  0.43734096  0.78449192  0.52952952  1
  O  O60  1  0.71058820  0.75156451  0.96216889  1
  O  O61  1  0.78941180  0.25156451  0.46216889  1
  O  O62  1  0.28941180  0.24843549  0.03783111  1
  O  O63  1  0.21058820  0.74843549  0.53783111  1
  O  O64  1  0.76733898  0.61693778  0.96734560  1
  O  O65  1  0.73266102  0.11693778  0.46734560  1
  O  O66  1  0.23266102  0.38306222  0.03265440  1
  O  O67  1  0.26733898  0.88306222  0.53265440  1
  O  O68  1  0.22165832  0.80973560  0.99856199  1
  O  O69  1  0.27834168  0.30973560  0.49856199  1
  O  O70  1  0.77834168  0.19026440  0.00143801  1
  O  O71  1  0.72165832  0.69026440  0.50143801  1
  O  O72  1  0.15818836  0.87144830  0.90911293  1
  O  O73  1  0.34181164  0.37144830  0.40911293  1
  O  O74  1  0.84181164  0.12855170  0.09088707  1
  O  O75  1  0.65818836  0.62855170  0.59088707  1
  O  O76  1  0.21174984  0.96257744  0.03952100  1
  O  O77  1  0.28825016  0.46257744  0.53952100  1
  O  O78  1  0.78825016  0.03742256  0.96047900  1
  O  O79  1  0.71174984  0.53742256  0.46047900  1
  O  O80  1  0.16231869  0.56690849  0.07344345  1
  O  O81  1  0.33768131  0.06690849  0.57344345  1
  O  O82  1  0.83768131  0.43309151  0.92655655  1
  O  O83  1  0.66231869  0.93309151  0.42655655  1
  O  O84  1  0.05760522  0.69803702  0.15216851  1
  O  O85  1  0.44239478  0.19803702  0.65216851  1
  O  O86  1  0.94239478  0.30196298  0.84783149  1
  O  O87  1  0.55760522  0.80196298  0.34783149  1
  O  O88  1  0.28378385  0.69887181  0.11232068  1
  O  O89  1  0.21621615  0.19887181  0.61232068  1
  O  O90  1  0.71621615  0.30112819  0.88767932  1
  O  O91  1  0.78378385  0.80112819  0.38767932  1
  O  O92  1  0.96582927  0.45777666  0.54013146  1
  O  O93  1  0.53417073  0.95777666  0.04013146  1
  O  O94  1  0.03417073  0.54222334  0.45986854  1
  O  O95  1  0.46582927  0.04222334  0.95986854  1
  O  O96  1  0.01567911  0.58083971  0.53596577  1
  O  O97  1  0.48432089  0.08083971  0.03596577  1
  O  O98  1  0.98432089  0.41916029  0.46403423  1
  O  O99  1  0.51567911  0.91916029  0.96403423  1
  O  O100  1  0.64303489  0.42987104  0.56287051  1
  O  O101  1  0.85696511  0.92987104  0.06287051  1
  O  O102  1  0.35696511  0.57012896  0.43712949  1
  O  O103  1  0.14303489  0.07012896  0.93712949  1
loop_
_geom_bond_atom_site_label_1
_geom_bond_atom_site_label_2
_geom_bond_distance
_geom_bond_site_symmetry_2
Bi0 O20 2.171361 1_555
Bi0 O24 2.218741 1_555
Bi0 O8 2.336110 1_555
Bi0 O12 2.344571 1_555
Bi1 O21 2.171361 1_555
Bi1 O25 2.218741 1_565
Bi1 O9 2.336110 1_565
Bi1 O13 2.344571 1_555
Bi2 O22 2.171361 1_555
Bi2 O26 2.218741 1_555
Bi2 O10 2.336110 1_555
Bi2 O14 2.344571 1_555
Bi3 O23 2.171361 1_555
Bi3 O27 2.218741 1_545
Bi3 O11 2.336110 1_545
Bi3 O15 2.344571 1_555
Bi4 O24 2.207805 1_555
Bi4 O16 2.236076 1_555
Bi4 O4 2.273916 1_555
Bi4 O8 2.442874 1_555
Bi5 O25 2.207805 1_555
Bi5 O17 2.236076 1_555
Bi5 O5 2.273916 1_555
Bi5 O9 2.442874 1_555
Bi6 O26 2.207805 1_555
Bi6 O18 2.236076 1_555
Bi6 O6 2.273916 1_555
Bi6 O10 2.442874 1_555
Bi7 O27 2.207805 1_555
Bi7 O19 2.236076 1_555
Bi7 O7 2.273916 1_555
Bi7 O11 2.442874 1_555
Bi8 O12 2.218491 1_555
Bi8 O28 2.227855 1_555
Bi8 O24 2.306901 1_555
Bi8 O14 2.442374 1_556
Bi8 O64 2.667941 1_555
Bi8 O4 2.772134 1_555
Bi9 O13 2.218491 1_545
Bi9 O29 2.227855 1_455
Bi9 O25 2.306901 1_555
Bi9 O15 2.442374 1_455
Bi9 O65 2.667941 1_455
Bi9 O5 2.772134 1_555
Bi10 O14 2.218491 1_555
Bi10 O30 2.227855 1_555
Bi10 O26 2.306901 1_555
Bi10 O12 2.442374 1_554
Bi10 O66 2.667941 1_555
Bi10 O6 2.772134 1_555
Bi11 O15 2.218491 1_565
Bi11 O31 2.227855 1_655
Bi11 O27 2.306901 1_555
Bi11 O13 2.442374 1_655
Bi11 O67 2.667941 1_655
Bi11 O7 2.772134 1_555
Bi12 O16 2.198461 1_555
Bi12 O20 2.218690 1_555
Bi12 O0 2.277647 1_555
Bi12 O8 2.411492 1_555
Bi13 O17 2.198461 1_565
Bi13 O21 2.218690 1_555
Bi13 O1 2.277647 1_555
Bi13 O9 2.411492 1_565
Bi14 O18 2.198461 1_555
Bi14 O22 2.218690 1_555
Bi14 O2 2.277647 1_555
Bi14 O10 2.411492 1_555
Bi15 O19 2.198461 1_545
Bi15 O23 2.218690 1_555
Bi15 O3 2.277647 1_555
Bi15 O11 2.411492 1_545
Bi16 O28 2.221034 1_555
Bi16 O16 2.221198 1_555
Bi16 O4 2.262943 1_555
Bi16 O0 2.338790 1_555
Bi17 O29 2.221034 1_455
Bi17 O17 2.221198 1_555
Bi17 O5 2.262943 1_555
Bi17 O1 2.338790 1_545
Bi18 O30 2.221034 1_555
Bi18 O18 2.221198 1_555
Bi18 O6 2.262943 1_555
Bi18 O2 2.338790 1_555
Bi19 O31 2.221034 1_655
Bi19 O19 2.221198 1_555
Bi19 O7 2.262943 1_555
Bi19 O3 2.338790 1_565
Bi20 O0 2.206015 1_555
Bi20 O20 2.206964 1_555
Bi20 O28 2.213700 1_555
Bi20 O12 2.640541 1_555
Bi21 O1 2.206015 1_655
Bi21 O21 2.206964 1_655
Bi21 O29 2.213700 1_565
Bi21 O13 2.640541 1_655
Bi22 O2 2.206015 1_555
Bi22 O22 2.206964 1_555
Bi22 O30 2.213700 1_555
Bi22 O14 2.640541 1_555
Bi23 O3 2.206015 1_455
Bi23 O23 2.206964 1_455
Bi23 O31 2.213700 1_545
Bi23 O15 2.640541 1_455
N0 O36 1.265261 1_555
N0 O32 1.266935 1_555
N0 O40 1.268243 1_555
N1 O37 1.265261 1_555
N1 O33 1.266935 1_555
N1 O41 1.268243 1_555
N2 O38 1.265261 1_555
N2 O34 1.266935 1_555
N2 O42 1.268243 1_555
N3 O39 1.265261 1_555
N3 O35 1.266935 1_555
N3 O43 1.268243 1_555
N4 O44 1.254844 1_555
N4 O48 1.269987 1_555
N4 O52 1.271007 1_555
N5 O45 1.254844 1_555
N5 O49 1.269987 1_555
N5 O53 1.271007 1_555
N6 O46 1.254844 1_555
N6 O50 1.269987 1_555
N6 O54 1.271007 1_555
N7 O47 1.254844 1_555
N7 O51 1.269987 1_555
N7 O55 1.271007 1_555
N8 O60 1.249219 1_555
N8 O56 1.252986 1_555
N8 O64 1.284378 1_555
N9 O61 1.249219 1_555
N9 O57 1.252986 1_555
N9 O65 1.284378 1_555
N10 O62 1.249219 1_555
N10 O58 1.252986 1_555
N10 O66 1.284378 1_555
N11 O63 1.249219 1_555
N11 O59 1.252986 1_555
N11 O67 1.284378 1_555
N12 O72 1.259689 1_555
N12 O76 1.261120 1_556
N12 O68 1.278713 1_555
N13 O73 1.259689 1_555
N13 O77 1.261120 1_555
N13 O69 1.278713 1_555
N14 O74 1.259689 1_555
N14 O78 1.261120 1_554
N14 O70 1.278713 1_555
N15 O75 1.259689 1_555
N15 O79 1.261120 1_555
N15 O71 1.278713 1_555
N16 O80 1.263010 1_555
N16 O88 1.269405 1_555
N16 O84 1.270974 1_555
N17 O81 1.263010 1_555
N17 O89 1.269405 1_555
N17 O85 1.270974 1_555
N18 O82 1.263010 1_555
N18 O90 1.269405 1_555
N18 O86 1.270974 1_555
N19 O83 1.263010 1_555
N19 O91 1.269405 1_555
N19 O87 1.270974 1_555
O92 O98 1.225249 1_555
O93 O99 1.225249 1_554
O94 O96 1.225249 1_555
O95 O97 1.225249 1_556
