# generated using pymatgen
data_Mg16Al12Te
_symmetry_space_group_name_H-M   'P 1'
_cell_length_a   9.18014294
_cell_length_b   9.18014294
_cell_length_c   9.18014294
_cell_angle_alpha   109.47122063
_cell_angle_beta   109.47122063
_cell_angle_gamma   109.47122063
_symmetry_Int_Tables_number   1
_chemical_formula_structural   Mg16Al12Te
_chemical_formula_sum   'Mg16 Al12 Te1'
_cell_volume   595.56126023
_cell_formula_units_Z   1
loop_
 _symmetry_equiv_pos_site_id
 _symmetry_equiv_pos_as_xyz
  1  'x, y, z'
loop_
 _atom_site_type_symbol
 _atom_site_label
 _atom_site_symmetry_multiplicity
 _atom_site_fract_x
 _atom_site_fract_y
 _atom_site_fract_z
 _atom_site_occupancy
  Mg  Mg0  1  0.71666600  0.31278100  0.31278100  1
  Mg  Mg1  1  0.33570200  0.33570200  0.33570200  1
  Mg  Mg2  1  0.66429800  0.00000000  0.00000000  1
  Mg  Mg3  1  0.28333400  0.59611500  0.59611500  1
  Mg  Mg4  1  0.00000000  0.68721900  0.40388500  1
  Mg  Mg5  1  0.59611500  0.59611500  0.28333400  1
  Mg  Mg6  1  0.40388500  0.00000000  0.68721900  1
  Mg  Mg7  1  0.00000000  0.00000000  0.66429800  1
  Mg  Mg8  1  0.31278100  0.71666600  0.31278100  1
  Mg  Mg9  1  0.68721900  0.40388500  0.00000000  1
  Mg  Mg10  1  0.68721900  0.00000000  0.40388500  1
  Mg  Mg11  1  0.31278100  0.31278100  0.71666600  1
  Mg  Mg12  1  0.00000000  0.66429800  0.00000000  1
  Mg  Mg13  1  0.40388500  0.68721900  0.00000000  1
  Mg  Mg14  1  0.59611500  0.28333400  0.59611500  1
  Mg  Mg15  1  0.00000000  0.40388500  0.68721900  1
  Al  Al0  1  0.18589300  0.81232100  0.81232100  1
  Al  Al1  1  0.81410700  0.62642800  0.62642800  1
  Al  Al2  1  0.00000000  0.37357200  0.18767900  1
  Al  Al3  1  0.62642800  0.81410700  0.62642800  1
  Al  Al4  1  0.37357200  0.18767900  0.00000000  1
  Al  Al5  1  0.18767900  0.37357200  0.00000000  1
  Al  Al6  1  0.81232100  0.18589300  0.81232100  1
  Al  Al7  1  0.18767900  0.00000000  0.37357200  1
  Al  Al8  1  0.81232100  0.81232100  0.18589300  1
  Al  Al9  1  0.37357200  0.00000000  0.18767900  1
  Al  Al10  1  0.62642800  0.62642800  0.81410700  1
  Al  Al11  1  0.00000000  0.18767900  0.37357200  1
  Te  Te0  1  0.00000000  0.00000000  0.00000000  1
loop_
_geom_bond_atom_site_label_1
_geom_bond_atom_site_label_2
_geom_bond_distance
_geom_bond_site_symmetry_2
Mg0 Mg2 3.063272 1_555
Mg0 Mg4 3.154874 1_655
Mg0 Mg15 3.154874 1_655
Mg0 Mg14 3.201808 1_555
Mg0 Mg5 3.201808 1_555
Mg0 Mg9 3.201808 1_555
Mg0 Mg10 3.201808 1_555
Mg1 Mg3 3.063272 1_555
Mg1 Mg14 3.063272 1_555
Mg1 Mg5 3.063272 1_555
Mg1 Te0 3.081792 1_555
Mg2 Mg6 3.063272 1_554
Mg2 Te0 3.081792 1_655
Mg3 Mg4 3.154874 1_555
Mg3 Mg8 3.201808 1_555
Mg3 Mg6 3.201808 1_565
Mg4 Mg7 3.063272 1_565
Mg4 Mg9 3.201808 1_455
Mg4 Mg6 3.201808 1_565
Mg4 Mg5 3.201808 1_455
Mg4 Mg8 3.201808 1_555
Mg5 Mg9 3.154874 1_555
Mg5 Mg8 3.201808 1_555
Mg6 Mg8 3.154874 1_545
Mg6 Mg9 3.201808 1_556
Mg7 Te0 3.081792 1_556
Mg10 Mg7 3.063272 1_655
Mg10 Mg14 3.154874 1_555
Mg10 Mg8 3.154874 1_545
Mg10 Mg15 3.201808 1_655
Mg10 Mg13 3.201808 1_545
Mg10 Mg5 3.201808 1_545
Mg11 Mg7 3.063272 1_555
Mg11 Mg9 3.154874 1_556
Mg11 Mg13 3.154874 1_556
Mg11 Mg14 3.201808 1_555
Mg11 Mg3 3.201808 1_555
Mg11 Mg6 3.201808 1_555
Mg11 Mg15 3.201808 1_555
Mg12 Mg9 3.063272 1_455
Mg12 Mg15 3.063272 1_554
Mg12 Mg8 3.063272 1_555
Mg12 Te0 3.081792 1_565
Mg13 Mg2 3.063272 1_565
Mg13 Mg5 3.154874 1_555
Mg13 Mg15 3.201808 1_554
Mg13 Mg3 3.201808 1_554
Mg13 Mg8 3.201808 1_555
Mg14 Mg6 3.154874 1_555
Mg14 Mg9 3.201808 1_556
Mg14 Mg15 3.201808 1_655
Mg15 Mg3 3.154874 1_555
Al0 Al1 2.786743 1_455
Al0 Al4 2.813517 1_566
Al0 Al9 2.813517 1_566
Al0 Mg3 2.901727 1_555
Al0 Mg6 2.974039 1_565
Al0 Mg13 2.974039 1_556
Al0 Mg12 3.114836 1_556
Al0 Mg7 3.114836 1_565
Al0 Mg4 3.137970 1_555
Al0 Mg15 3.137970 1_555
Al0 Te0 3.284880 1_566
Al1 Al3 2.813517 1_555
Al1 Al10 2.813517 1_555
Al1 Mg0 2.901727 1_555
Al1 Mg5 2.974039 1_555
Al1 Mg14 2.974039 1_555
Al1 Mg12 3.114836 1_656
Al1 Mg7 3.114836 1_665
Al1 Mg4 3.137970 1_655
Al1 Mg15 3.137970 1_655
Al1 Te0 3.284880 1_666
Al2 Al5 2.813517 1_555
Al2 Al6 2.813517 1_454
Al2 Mg4 2.901727 1_555
Al2 Mg8 2.974039 1_555
Al2 Mg9 2.974039 1_455
Al2 Mg1 3.114836 1_555
Al2 Mg2 3.114836 1_455
Al2 Mg3 3.137970 1_555
Al2 Mg0 3.137970 1_455
Al2 Te0 3.284880 1_555
Al3 Al6 2.786743 1_565
Al3 Mg8 2.901727 1_555
Al3 Mg5 2.974039 1_555
Al3 Mg3 2.974039 1_555
Al3 Mg7 3.114836 1_665
Al3 Mg2 3.114836 1_566
Al3 Mg10 3.137970 1_565
Al3 Mg6 3.137970 1_565
Al3 Te0 3.284880 1_666
Al4 Al5 2.786743 1_555
Al4 Al9 2.813517 1_555
Al4 Mg9 2.901727 1_555
Al4 Mg0 2.974039 1_555
Al4 Mg6 2.974039 1_554
Al4 Mg1 3.114836 1_555
Al4 Mg7 3.114836 1_554
Al4 Mg5 3.137970 1_555
Al4 Mg11 3.137970 1_554
Al4 Te0 3.284880 1_555
Al5 Al6 2.813517 1_454
Al5 Mg13 2.901727 1_555
Al5 Mg8 2.974039 1_555
Al5 Mg15 2.974039 1_554
Al5 Mg1 3.114836 1_555
Al5 Mg7 3.114836 1_554
Al5 Mg5 3.137970 1_555
Al5 Mg11 3.137970 1_554
Al5 Te0 3.284880 1_555
Al6 Mg14 2.901727 1_555
Al6 Mg15 2.974039 1_655
Al6 Mg9 2.974039 1_556
Al6 Mg7 3.114836 1_655
Al6 Mg2 3.114836 1_556
Al6 Mg6 3.137970 1_555
Al6 Mg10 3.137970 1_555
Al6 Te0 3.284880 1_656
Al7 Al9 2.786743 1_555
Al7 Al8 2.813517 1_445
Al7 Mg6 2.901727 1_555
Al7 Mg11 2.974039 1_555
Al7 Mg4 2.974039 1_545
Al7 Mg1 3.114836 1_555
Al7 Mg12 3.114836 1_545
Al7 Mg14 3.137970 1_555
Al7 Mg8 3.137970 1_545
Al7 Te0 3.284880 1_555
Al8 Mg5 2.901727 1_555
Al8 Mg4 2.974039 1_655
Al8 Mg10 2.974039 1_565
Al8 Mg12 3.114836 1_655
Al8 Mg2 3.114836 1_565
Al8 Mg13 3.137970 1_555
Al8 Mg9 3.137970 1_555
Al8 Te0 3.284880 1_665
Al9 Mg10 2.901727 1_555
Al9 Mg0 2.974039 1_555
Al9 Mg13 2.974039 1_545
Al9 Mg1 3.114836 1_555
Al9 Mg12 3.114836 1_545
Al9 Mg14 3.137970 1_555
Al9 Mg8 3.137970 1_545
Al9 Te0 3.284880 1_555
Al10 Al8 2.786743 1_556
Al10 Al3 2.813517 1_555
Al10 Mg11 2.901727 1_555
Al10 Mg14 2.974039 1_555
Al10 Mg3 2.974039 1_555
Al10 Mg12 3.114836 1_656
Al10 Mg2 3.114836 1_566
Al10 Mg9 3.137970 1_556
Al10 Mg13 3.137970 1_556
Al10 Te0 3.284880 1_666
Al11 Al2 2.786743 1_555
Al11 Al7 2.813517 1_555
Al11 Al8 2.813517 1_445
Al11 Mg15 2.901727 1_555
Al11 Mg11 2.974039 1_555
Al11 Mg10 2.974039 1_455
Al11 Mg1 3.114836 1_555
Al11 Mg2 3.114836 1_455
Al11 Mg3 3.137970 1_555
Al11 Mg0 3.137970 1_455
Al11 Te0 3.284880 1_555
