# generated using pymatgen
data_Cd3Fe2Cu10(SnSe4)5
_symmetry_space_group_name_H-M   'P 1'
_cell_length_a   21.42160598
_cell_length_b   21.03892070
_cell_length_c   7.09060446
_cell_angle_alpha   83.45116653
_cell_angle_beta   77.35028747
_cell_angle_gamma   19.19854600
_symmetry_Int_Tables_number   1
_chemical_formula_structural   Cd3Fe2Cu10(SnSe4)5
_chemical_formula_sum   'Cd3 Fe2 Cu10 Sn5 Se20'
_cell_volume   981.57369057
_cell_formula_units_Z   1
loop_
 _symmetry_equiv_pos_site_id
 _symmetry_equiv_pos_as_xyz
  1  'x, y, z'
loop_
 _atom_site_type_symbol
 _atom_site_label
 _atom_site_symmetry_multiplicity
 _atom_site_fract_x
 _atom_site_fract_y
 _atom_site_fract_z
 _atom_site_occupancy
  Cd  Cd0  1  0.20004200  0.00008200  0.99991800  1
  Cd  Cd1  1  0.60019300  0.39980700  0.60019300  1
  Cd  Cd2  1  0.99991800  0.79995800  0.20004200  1
  Fe  Fe0  1  0.39990400  0.20000900  0.79999100  1
  Fe  Fe1  1  0.79999100  0.60009600  0.39990400  1
  Cu  Cu0  1  0.84990100  0.65009900  0.84990100  1
  Cu  Cu1  1  0.44818400  0.25104200  0.25200100  1
  Cu  Cu2  1  0.05022900  0.84981200  0.65000300  1
  Cu  Cu3  1  0.25200100  0.04877400  0.44818400  1
  Cu  Cu4  1  0.65000300  0.44995600  0.05022900  1
  Cu  Cu5  1  0.34990100  0.15009900  0.34990100  1
  Cu  Cu6  1  0.95122600  0.74799900  0.74895800  1
  Cu  Cu7  1  0.55004400  0.34999700  0.15018800  1
  Cu  Cu8  1  0.74895800  0.55181600  0.95122600  1
  Cu  Cu9  1  0.15018800  0.94977100  0.55004400  1
  Sn  Sn0  1  0.90022100  0.69857700  0.30142300  1
  Sn  Sn1  1  0.49861700  0.30008200  0.69991800  1
  Sn  Sn2  1  0.09996200  0.90003800  0.09996200  1
  Sn  Sn3  1  0.30142300  0.09977900  0.90022100  1
  Sn  Sn4  1  0.69991800  0.50138300  0.49861700  1
  Se  Se0  1  0.22022100  0.28594100  0.71405900  1
  Se  Se1  1  0.62049000  0.68583400  0.31416600  1
  Se  Se2  1  0.00722700  0.09070700  0.90929300  1
  Se  Se3  1  0.40688300  0.49080800  0.50919200  1
  Se  Se4  1  0.80701900  0.89068000  0.10932000  1
  Se  Se5  1  0.10932000  0.19298100  0.80701900  1
  Se  Se6  1  0.50919200  0.59311700  0.40688300  1
  Se  Se7  1  0.90929300  0.99277300  0.00722700  1
  Se  Se8  1  0.31416600  0.37951000  0.62049000  1
  Se  Se9  1  0.71405900  0.77977900  0.22022100  1
  Se  Se10  1  0.59713200  0.60308200  0.88782000  1
  Se  Se11  1  0.99708000  0.00292000  0.48654100  1
  Se  Se12  1  0.39691800  0.40286800  0.08803400  1
  Se  Se13  1  0.76645600  0.83335100  0.69743500  1
  Se  Se14  1  0.16664900  0.23354400  0.29724200  1
  Se  Se15  1  0.08803400  0.11218000  0.39691800  1
  Se  Se16  1  0.48654100  0.51345900  0.99708000  1
  Se  Se17  1  0.88782000  0.91196600  0.59713200  1
  Se  Se18  1  0.29724200  0.30256500  0.16664900  1
  Se  Se19  1  0.69743500  0.70275800  0.76645600  1
loop_
_geom_bond_atom_site_label_1
_geom_bond_atom_site_label_2
_geom_bond_distance
_geom_bond_site_symmetry_2
Cd0 Se15 2.666699 1_556
Cd0 Se10 2.666699 1_545
Cd0 Se2 2.667764 1_555
Cd0 Se5 2.668192 1_555
Cd1 Se11 2.665158 1_555
Cd1 Se16 2.665158 1_555
Cd1 Se3 2.672784 1_555
Cd1 Se6 2.672784 1_555
Cd2 Se17 2.666699 1_555
Cd2 Se12 2.666699 1_655
Cd2 Se7 2.667764 1_555
Cd2 Se4 2.668192 1_555
Fe0 Se13 2.462522 1_545
Fe0 Se18 2.462522 1_556
Fe0 Se8 2.466163 1_555
Fe0 Se0 2.467314 1_555
Fe1 Se19 2.462522 1_555
Fe1 Se14 2.462522 1_655
Fe1 Se1 2.466163 1_555
Fe1 Se9 2.467314 1_555
Cu0 Se0 2.469495 1_655
Cu0 Se9 2.469495 1_556
Cu0 Se13 2.471264 1_555
Cu0 Se19 2.471264 1_555
Cu1 Se12 2.418149 1_555
Cu1 Se4 2.420848 1_545
Cu1 Se8 2.458380 1_555
Cu1 Se18 2.466497 1_555
Cu2 Se3 2.408800 1_555
Cu2 Se7 2.411307 1_456
Cu2 Se11 2.411485 1_465
Cu2 Se17 2.412676 1_455
Cu3 Se15 2.418167 1_555
Cu3 Se5 2.420844 1_555
Cu3 Se1 2.458382 1_545
Cu3 Se14 2.466479 1_555
Cu4 Se6 2.408800 1_555
Cu4 Se2 2.411307 1_654
Cu4 Se16 2.411485 1_554
Cu4 Se10 2.412676 1_554
Cu5 Se9 2.469495 1_545
Cu5 Se0 2.469495 1_555
Cu5 Se14 2.471264 1_555
Cu5 Se18 2.471264 1_555
Cu6 Se17 2.418164 1_555
Cu6 Se4 2.420851 1_556
Cu6 Se8 2.458382 1_655
Cu6 Se13 2.466477 1_555
Cu7 Se3 2.408800 1_555
Cu7 Se7 2.411307 1_545
Cu7 Se16 2.411485 1_554
Cu7 Se12 2.412676 1_555
Cu8 Se10 2.418146 1_555
Cu8 Se5 2.420847 1_655
Cu8 Se1 2.458386 1_556
Cu8 Se19 2.466493 1_555
Cu9 Se6 2.408800 1_555
Cu9 Se2 2.411307 1_565
Cu9 Se11 2.411485 1_465
Cu9 Se15 2.412676 1_565
Se0 Sn3 2.658318 1_555
Se1 Sn4 2.647774 1_555
Se2 Sn2 2.598802 1_546
Se3 Sn1 2.612409 1_555
Se4 Sn0 2.621211 1_555
Se5 Sn3 2.621211 1_555
Se6 Sn4 2.612409 1_555
Se7 Sn2 2.598802 1_655
Se8 Sn1 2.647774 1_555
Se9 Sn0 2.658318 1_555
Se10 Sn4 2.613290 1_555
Se11 Sn2 2.598685 1_645
Se12 Sn1 2.613290 1_554
Se13 Sn0 2.661091 1_555
Se14 Sn3 2.661091 1_554
Se15 Sn4 2.613290 1_455
Se16 Sn2 2.598685 1_556
Se17 Sn1 2.613290 1_565
Se18 Sn0 2.661091 1_455
Se19 Sn3 2.661091 1_565
