# generated using pymatgen
data_GdHfF7
_symmetry_space_group_name_H-M   'P 1'
_cell_length_a   5.72566890
_cell_length_b   6.07418705
_cell_length_c   8.24059924
_cell_angle_alpha   102.25872175
_cell_angle_beta   90.00000000
_cell_angle_gamma   90.00000000
_symmetry_Int_Tables_number   1
_chemical_formula_structural   GdHfF7
_chemical_formula_sum   'Gd2 Hf2 F14'
_cell_volume   280.06324030
_cell_formula_units_Z   2
loop_
 _symmetry_equiv_pos_site_id
 _symmetry_equiv_pos_as_xyz
  1  'x, y, z'
loop_
 _atom_site_type_symbol
 _atom_site_label
 _atom_site_symmetry_multiplicity
 _atom_site_fract_x
 _atom_site_fract_y
 _atom_site_fract_z
 _atom_site_occupancy
  Gd  Gd0  1  0.69944613  0.65771217  0.68753937  1
  Gd  Gd1  1  0.19944613  0.34228783  0.31246063  1
  Hf  Hf0  1  0.70894420  0.81068325  0.22477920  1
  Hf  Hf1  1  0.20894420  0.18931675  0.77522080  1
  F  F0  1  0.88667838  0.45000169  0.47429732  1
  F  F1  1  0.38667838  0.54999831  0.52570268  1
  F  F2  1  0.42849979  0.93464004  0.77175102  1
  F  F3  1  0.92849979  0.06535996  0.22824898  1
  F  F4  1  0.95279719  0.96240118  0.76092247  1
  F  F5  1  0.45279719  0.03759882  0.23907753  1
  F  F6  1  0.99596391  0.45134456  0.78818442  1
  F  F7  1  0.49596391  0.54865544  0.21181558  1
  F  F8  1  0.70030011  0.75755187  0.97913159  1
  F  F9  1  0.20030011  0.24244813  0.02086841  1
  F  F10  1  0.70937210  0.86439779  0.47176568  1
  F  F11  1  0.20937210  0.13560221  0.52823432  1
  F  F12  1  0.49435818  0.38121239  0.78549550  1
  F  F13  1  0.99435818  0.61878761  0.21450450  1
loop_
_geom_bond_atom_site_label_1
_geom_bond_atom_site_label_2
_geom_bond_distance
_geom_bond_site_symmetry_2
F0 Gd0 2.210765 1_555
F0 Gd1 2.245683 1_655
F1 Gd1 2.210765 1_555
F1 Gd0 2.245683 1_555
F2 Hf1 1.988821 1_565
F2 Gd0 2.285182 1_555
F3 Hf0 1.988821 1_545
F3 Gd1 2.285182 1_655
F4 Hf1 1.998914 1_665
F4 Gd0 2.328070 1_555
F5 Hf0 1.998914 1_545
F5 Gd1 2.328070 1_555
F6 Hf1 1.989846 1_655
F6 Gd0 2.362847 1_555
F7 Hf0 1.989846 1_555
F7 Gd1 2.362847 1_555
F8 Hf0 1.981642 1_556
F8 Gd0 2.350083 1_555
F9 Hf1 1.981642 1_554
F9 Gd1 2.350083 1_555
F10 Hf0 1.991727 1_555
F10 Gd0 2.385161 1_555
F11 Hf1 1.991727 1_555
F11 Gd1 2.385161 1_555
F12 Hf1 1.998617 1_555
F12 Gd0 2.329586 1_555
F13 Hf0 1.998617 1_555
F13 Gd1 2.329586 1_655
