# generated using pymatgen
data_Sr5Ca3Ti3Mn5O20
_symmetry_space_group_name_H-M   'P 1'
_cell_length_a   11.10982905
_cell_length_b   11.30036427
_cell_length_c   17.65206767
_cell_angle_alpha   108.57723056
_cell_angle_beta   108.55787319
_cell_angle_gamma   90.08684939
_symmetry_Int_Tables_number   1
_chemical_formula_structural   Sr5Ca3Ti3Mn5O20
_chemical_formula_sum   'Sr20 Ca12 Ti12 Mn20 O80'
_cell_volume   1978.32909285
_cell_formula_units_Z   4
loop_
 _symmetry_equiv_pos_site_id
 _symmetry_equiv_pos_as_xyz
  1  'x, y, z'
loop_
 _atom_site_type_symbol
 _atom_site_label
 _atom_site_symmetry_multiplicity
 _atom_site_fract_x
 _atom_site_fract_y
 _atom_site_fract_z
 _atom_site_occupancy
  Sr  Sr0  1  0.30635800  0.06237100  0.61037000  1
  Sr  Sr1  1  0.30313200  0.55809800  0.61078900  1
  Sr  Sr2  1  0.80945700  0.06271100  0.61011000  1
  Sr  Sr3  1  0.81383500  0.56183000  0.61234900  1
  Sr  Sr4  1  0.19173200  0.43372200  0.38464000  1
  Sr  Sr5  1  0.19569500  0.43923800  0.89196900  1
  Sr  Sr6  1  0.69740100  0.43743300  0.38496700  1
  Sr  Sr7  1  0.69760100  0.93450700  0.38413000  1
  Sr  Sr8  1  0.69555900  0.93770600  0.88892500  1
  Sr  Sr9  1  0.06142600  0.30017800  0.61122300  1
  Sr  Sr10  1  0.05991000  0.80222900  0.61312200  1
  Sr  Sr11  1  0.55854500  0.30029100  0.61218000  1
  Sr  Sr12  1  0.56092600  0.80197800  0.61248300  1
  Sr  Sr13  1  0.44264100  0.19976900  0.38455300  1
  Sr  Sr14  1  0.44305100  0.20211000  0.88959900  1
  Sr  Sr15  1  0.44656500  0.69753600  0.38407400  1
  Sr  Sr16  1  0.44538300  0.70014800  0.88953400  1
  Sr  Sr17  1  0.94765800  0.19807400  0.38519600  1
  Sr  Sr18  1  0.94990100  0.20502200  0.89206300  1
  Sr  Sr19  1  0.94444100  0.69811600  0.38336400  1
  Ca  Ca0  1  0.30026100  0.06918700  0.10969200  1
  Ca  Ca1  1  0.29917300  0.56173200  0.11145800  1
  Ca  Ca2  1  0.80199400  0.06743900  0.10751800  1
  Ca  Ca3  1  0.80541000  0.56695200  0.10936800  1
  Ca  Ca4  1  0.18447300  0.93577600  0.38712600  1
  Ca  Ca5  1  0.19659800  0.93582100  0.89391400  1
  Ca  Ca6  1  0.69764400  0.43996600  0.89277400  1
  Ca  Ca7  1  0.05689000  0.29207500  0.11023300  1
  Ca  Ca8  1  0.04985200  0.79730600  0.11306200  1
  Ca  Ca9  1  0.54806600  0.28957500  0.10839500  1
  Ca  Ca10  1  0.55600700  0.79566100  0.11017100  1
  Ca  Ca11  1  0.94689900  0.70542700  0.89508300  1
  Ti  Ti0  1  0.00414700  0.00010200  0.00026500  1
  Ti  Ti1  1  0.00465000  0.50110400  0.00459500  1
  Ti  Ti2  1  0.50262900  0.99983900  0.00383200  1
  Ti  Ti3  1  0.49967200  0.99923500  0.49638900  1
  Ti  Ti4  1  0.50646500  0.50625000  0.00710500  1
  Ti  Ti5  1  0.50312500  0.49967200  0.49974500  1
  Ti  Ti6  1  0.25423700  0.75364500  0.00949000  1
  Ti  Ti7  1  0.25202700  0.74983800  0.49814100  1
  Ti  Ti8  1  0.75070500  0.25401500  0.00112800  1
  Ti  Ti9  1  0.75394100  0.24915400  0.49712300  1
  Ti  Ti10  1  0.75618900  0.74990900  0.00180300  1
  Ti  Ti11  1  0.75563500  0.74965600  0.49915200  1
  Mn  Mn0  1  0.00276800  0.99718600  0.49642400  1
  Mn  Mn1  1  0.00148500  0.49957800  0.49709400  1
  Mn  Mn2  1  0.25658300  0.24982900  0.00339500  1
  Mn  Mn3  1  0.25080700  0.24747700  0.49776100  1
  Mn  Mn4  1  0.10468400  0.09026500  0.24443300  1
  Mn  Mn5  1  0.11226600  0.09449100  0.75605900  1
  Mn  Mn6  1  0.10994500  0.59298300  0.24560900  1
  Mn  Mn7  1  0.11133600  0.60396800  0.75835600  1
  Mn  Mn8  1  0.60454300  0.09141900  0.24475400  1
  Mn  Mn9  1  0.61277100  0.10194600  0.75119900  1
  Mn  Mn10  1  0.60877100  0.58943200  0.24433400  1
  Mn  Mn11  1  0.61776600  0.59478500  0.75283700  1
  Mn  Mn12  1  0.35684300  0.40113600  0.24630600  1
  Mn  Mn13  1  0.36917500  0.40535000  0.75406900  1
  Mn  Mn14  1  0.35496100  0.90427100  0.24749800  1
  Mn  Mn15  1  0.36332000  0.90486000  0.75282400  1
  Mn  Mn16  1  0.85349500  0.39904200  0.24045500  1
  Mn  Mn17  1  0.86021800  0.40844700  0.75454000  1
  Mn  Mn18  1  0.85737400  0.90231300  0.24223300  1
  Mn  Mn19  1  0.86701000  0.90331600  0.75242400  1
  O  O0  1  0.12212100  0.11490600  0.49221600  1
  O  O1  1  0.12372500  0.11067200  0.99072900  1
  O  O2  1  0.12532900  0.62267600  0.49137700  1
  O  O3  1  0.12611200  0.62625900  0.98912900  1
  O  O4  1  0.62513800  0.12366600  0.49090200  1
  O  O5  1  0.62849300  0.12646300  0.99162600  1
  O  O6  1  0.62702200  0.62343200  0.49183800  1
  O  O7  1  0.63134100  0.61986600  0.98872000  1
  O  O8  1  0.13545200  0.38716300  0.01810300  1
  O  O9  1  0.12376300  0.38029700  0.50254300  1
  O  O10  1  0.14237300  0.87994800  0.01878600  1
  O  O11  1  0.13451200  0.87568600  0.50583800  1
  O  O12  1  0.64150200  0.38252700  0.01625500  1
  O  O13  1  0.63277200  0.37710000  0.50533900  1
  O  O14  1  0.64162000  0.87855100  0.01676400  1
  O  O15  1  0.63482700  0.87512700  0.50604800  1
  O  O16  1  0.37400500  0.10997700  0.48745700  1
  O  O17  1  0.37714600  0.11062300  0.99062400  1
  O  O18  1  0.37564800  0.62091700  0.49083800  1
  O  O19  1  0.38018100  0.62023000  0.99244900  1
  O  O20  1  0.87452600  0.12133600  0.49297600  1
  O  O21  1  0.87837900  0.11862700  0.99337600  1
  O  O22  1  0.87598400  0.62107800  0.49239300  1
  O  O23  1  0.87767000  0.61817300  0.98850000  1
  O  O24  1  0.39525500  0.39045900  0.01645100  1
  O  O25  1  0.38479400  0.38341700  0.50483700  1
  O  O26  1  0.39060700  0.88411800  0.01718900  1
  O  O27  1  0.38397300  0.87775000  0.50628100  1
  O  O28  1  0.88943100  0.39015100  0.01877600  1
  O  O29  1  0.88045400  0.37919600  0.50501600  1
  O  O30  1  0.89164600  0.88334600  0.01610300  1
  O  O31  1  0.88196000  0.87745700  0.50483200  1
  O  O32  1  0.08227700  0.08929900  0.13008600  1
  O  O33  1  0.07952600  0.08160100  0.64213500  1
  O  O34  1  0.08286000  0.60212400  0.12655700  1
  O  O35  1  0.07521100  0.58988800  0.64414600  1
  O  O36  1  0.58641800  0.09407100  0.12474200  1
  O  O37  1  0.57402300  0.08190800  0.62429200  1
  O  O38  1  0.58947000  0.59819400  0.12560400  1
  O  O39  1  0.57763600  0.58111800  0.62672500  1
  O  O40  1  0.44633100  0.42106100  0.37193000  1
  O  O41  1  0.45402600  0.41776600  0.87430300  1
  O  O42  1  0.45098300  0.91620900  0.37144100  1
  O  O43  1  0.45612700  0.91430500  0.87831000  1
  O  O44  1  0.93019500  0.41717200  0.35550000  1
  O  O45  1  0.95203900  0.41633700  0.87826800  1
  O  O46  1  0.94797600  0.91022100  0.36136000  1
  O  O47  1  0.95518000  0.90560400  0.87803400  1
  O  O48  1  0.32946300  0.28178400  0.12635800  1
  O  O49  1  0.32422800  0.30520000  0.63648000  1
  O  O50  1  0.33100300  0.77768300  0.12693500  1
  O  O51  1  0.32211800  0.79405300  0.62657400  1
  O  O52  1  0.83231900  0.28541800  0.12724900  1
  O  O53  1  0.82269700  0.30117100  0.62826100  1
  O  O54  1  0.83541300  0.77832700  0.12436600  1
  O  O55  1  0.82618000  0.79506900  0.62666400  1
  O  O56  1  0.18169400  0.19313000  0.35947100  1
  O  O57  1  0.19374200  0.20872000  0.87335100  1
  O  O58  1  0.19486800  0.70952000  0.37132600  1
  O  O59  1  0.19966500  0.71567200  0.87497100  1
  O  O60  1  0.69354500  0.20270600  0.37160100  1
  O  O61  1  0.70393200  0.22174500  0.87943100  1
  O  O62  1  0.69505100  0.69937700  0.37002800  1
  O  O63  1  0.70816500  0.71346300  0.87644000  1
  O  O64  1  0.41534700  0.07107200  0.23903400  1
  O  O65  1  0.42996400  0.07407200  0.75240000  1
  O  O66  1  0.42203500  0.56630000  0.23874500  1
  O  O67  1  0.43482800  0.56688200  0.75149800  1
  O  O68  1  0.92340600  0.07233800  0.23753100  1
  O  O69  1  0.93578500  0.07539100  0.75312200  1
  O  O70  1  0.92167800  0.55861700  0.23813600  1
  O  O71  1  0.93631800  0.58492500  0.76206500  1
  O  O72  1  0.16904500  0.41841500  0.23989800  1
  O  O73  1  0.18898600  0.44388000  0.75521800  1
  O  O74  1  0.16863700  0.92496000  0.24812000  1
  O  O75  1  0.18303600  0.93463300  0.76237100  1
  O  O76  1  0.67242500  0.41273000  0.23678900  1
  O  O77  1  0.67759700  0.42452900  0.75958700  1
  O  O78  1  0.67005500  0.91957200  0.23895800  1
  O  O79  1  0.68670900  0.93608100  0.75347200  1
loop_
_geom_bond_atom_site_label_1
_geom_bond_atom_site_label_2
_geom_bond_distance
_geom_bond_site_symmetry_2
Ca0 O64 2.226838 1_555
Ca0 O48 2.334523 1_555
Ca0 O10 2.497083 1_545
Ca0 O1 2.546493 1_554
Ca0 O32 2.559428 1_555
Ca0 O26 2.630820 1_545
Ca0 O17 2.671148 1_554
Ca1 O66 2.210881 1_555
Ca1 O50 2.380329 1_555
Ca1 O8 2.434226 1_555
Ca1 O34 2.527503 1_555
Ca1 O24 2.602995 1_555
Ca1 O3 2.693703 1_554
Ca1 O19 2.783272 1_554
Ca2 O68 2.244524 1_555
Ca2 O52 2.382966 1_555
Ca2 O14 2.507969 1_545
Ca2 O36 2.515250 1_555
Ca2 O5 2.590120 1_554
Ca2 O30 2.610382 1_545
Ca2 O21 2.635112 1_554
Ca2 O32 3.010222 1_655
Ca3 O70 2.260954 1_555
Ca3 O54 2.329198 1_555
Ca3 O12 2.502331 1_555
Ca3 O38 2.517539 1_555
Ca3 O28 2.518007 1_555
Ca3 O7 2.612723 1_554
Ca3 O23 2.721643 1_554
Ca3 O34 3.012554 1_655
Ca4 O74 2.366602 1_555
Ca4 O58 2.489029 1_555
Ca4 O46 2.519337 1_455
Ca4 O0 2.539336 1_565
Ca4 O11 2.608873 1_555
Ca4 O16 2.614932 1_565
Ca4 O27 2.771685 1_555
Ca4 O42 3.062214 1_555
Ca4 O56 3.097113 1_565
Ca5 O75 2.274210 1_555
Ca5 O59 2.404041 1_555
Ca5 O1 2.492829 1_565
Ca5 O17 2.549397 1_565
Ca5 O47 2.616596 1_455
Ca5 O10 2.711298 1_556
Ca5 O26 2.747870 1_556
Ca5 O43 2.985550 1_555
Ca6 O77 2.238890 1_555
Ca6 O61 2.404645 1_555
Ca6 O7 2.479658 1_555
Ca6 O23 2.565021 1_555
Ca6 O41 2.622744 1_555
Ca6 O12 2.706848 1_556
Ca6 O28 2.754765 1_556
Ca6 O45 2.923034 1_555
Ca7 O72 2.219656 1_555
Ca7 O32 2.429769 1_555
Ca7 O28 2.555454 1_455
Ca7 O8 2.564238 1_555
Ca7 O52 2.609880 1_455
Ca7 O21 2.614962 1_454
Ca7 O1 2.729436 1_554
Ca7 O48 2.956058 1_555
Ca8 O74 2.303587 1_555
Ca8 O34 2.310333 1_555
Ca8 O54 2.467764 1_455
Ca8 O30 2.472775 1_455
Ca8 O10 2.602752 1_555
Ca8 O23 2.658297 1_454
Ca8 O3 2.780336 1_554
Ca8 O50 3.068461 1_555
Ca9 O76 2.230159 1_555
Ca9 O36 2.340184 1_555
Ca9 O24 2.499384 1_555
Ca9 O48 2.552237 1_555
Ca9 O17 2.610358 1_554
Ca9 O12 2.643140 1_555
Ca9 O5 2.683473 1_554
Ca10 O78 2.206157 1_555
Ca10 O38 2.348866 1_555
Ca10 O26 2.490169 1_555
Ca10 O14 2.545642 1_555
Ca10 O19 2.616038 1_554
Ca10 O50 2.623974 1_555
Ca10 O7 2.770657 1_554
Ca10 O54 3.045479 1_555
Ca11 O71 2.273316 1_555
Ca11 O47 2.380497 1_555
Ca11 O23 2.474659 1_555
Ca11 O3 2.523546 1_655
Ca11 O63 2.572041 1_555
Ca11 O30 2.661671 1_556
Ca11 O10 2.756519 1_656
Ca11 O59 2.947057 1_655
Mn0 O0 1.911471 1_565
Mn0 O31 1.975654 1_455
Mn0 O20 2.001779 1_465
Mn0 O11 2.012873 1_555
Mn0 O46 2.145239 1_455
Mn0 O33 2.300200 1_565
Mn1 O9 1.917450 1_555
Mn1 O22 1.959798 1_455
Mn1 O29 1.978264 1_455
Mn1 O2 2.002573 1_555
Mn1 O44 2.235238 1_455
Mn1 O35 2.325218 1_555
Mn2 O48 1.969344 1_555
Mn2 O8 2.063711 1_555
Mn2 O1 2.064066 1_554
Mn2 O57 2.066925 1_554
Mn2 O17 2.071742 1_554
Mn2 O24 2.117854 1_555
Mn3 O0 2.027035 1_555
Mn3 O9 2.062415 1_555
Mn3 O16 2.074989 1_555
Mn3 O25 2.084162 1_555
Mn3 O56 2.185405 1_555
Mn3 O49 2.190013 1_555
Mn4 O56 1.895752 1_555
Mn4 O32 1.949972 1_555
Mn4 O68 1.984641 1_455
Mn4 O74 2.012600 1_545
Mn5 O33 1.882875 1_555
Mn5 O69 1.954584 1_455
Mn5 O57 1.967991 1_555
Mn5 O75 1.992651 1_545
Mn6 O72 2.062061 1_555
Mn6 O34 2.062394 1_555
Mn6 O70 2.081427 1_455
Mn6 O58 2.085795 1_555
Mn7 O35 1.879153 1_555
Mn7 O59 1.961783 1_555
Mn7 O71 1.979925 1_455
Mn7 O73 1.997812 1_555
Mn8 O78 2.058251 1_545
Mn8 O36 2.073224 1_555
Mn8 O64 2.080828 1_555
Mn8 O60 2.089409 1_555
Mn9 O79 2.054534 1_545
Mn9 O65 2.062563 1_555
Mn9 O37 2.077888 1_555
Mn9 O61 2.136879 1_555
Mn10 O66 2.057594 1_555
Mn10 O62 2.066766 1_555
Mn10 O38 2.072321 1_555
Mn10 O76 2.097577 1_555
Mn11 O67 2.047780 1_555
Mn11 O77 2.063291 1_555
Mn11 O63 2.074704 1_555
Mn11 O39 2.080214 1_555
Mn12 O48 2.040567 1_555
Mn12 O40 2.057767 1_555
Mn12 O66 2.059620 1_555
Mn12 O72 2.066177 1_555
Mn13 O49 1.918438 1_555
Mn13 O67 1.983903 1_555
Mn13 O41 1.987253 1_555
Mn13 O73 2.054343 1_555
Mn14 O64 2.065115 1_565
Mn14 O42 2.066107 1_555
Mn14 O50 2.084431 1_555
Mn14 O74 2.086646 1_555
Mn15 O65 2.052548 1_565
Mn15 O51 2.077228 1_555
Mn15 O75 2.081843 1_555
Mn15 O43 2.091978 1_555
Mn16 O44 1.877511 1_555
Mn16 O52 1.939651 1_555
Mn16 O70 1.972269 1_555
Mn16 O76 1.999834 1_555
Mn17 O77 2.064753 1_555
Mn17 O45 2.067888 1_555
Mn17 O53 2.073018 1_555
Mn17 O71 2.112855 1_555
Mn18 O46 1.993938 1_555
Mn18 O54 2.042033 1_555
Mn18 O78 2.074637 1_555
Mn18 O68 2.091106 1_565
Mn19 O79 2.042392 1_555
Mn19 O55 2.063312 1_555
Mn19 O69 2.083105 1_565
Mn19 O47 2.111258 1_555
O0 Sr0 2.639557 1_555
O0 Sr17 2.648580 1_455
O0 Sr9 2.711944 1_555
O1 Ti0 1.904140 1_556
O1 Sr18 2.635909 1_455
O2 Ti7 1.959094 1_555
O2 Sr4 2.641898 1_555
O2 Sr19 2.646245 1_455
O2 Sr1 2.685482 1_555
O2 Sr10 2.735669 1_555
O3 Ti6 1.888397 1_556
O3 Ti1 2.090559 1_556
O3 Sr5 2.558313 1_555
O4 Ti9 1.966026 1_555
O4 Ti3 2.023929 1_545
O4 Sr13 2.643062 1_555
O4 Sr7 2.678358 1_545
O4 Sr2 2.698280 1_555
O4 Sr11 2.721072 1_555
O5 Ti8 1.909000 1_556
O5 Ti2 2.105080 1_546
O5 Sr8 2.606193 1_545
O5 Sr14 2.615979 1_555
O6 Ti11 1.962637 1_555
O6 Ti5 2.027532 1_555
O6 Sr15 2.632824 1_555
O6 Sr6 2.646784 1_555
O6 Sr12 2.721677 1_555
O6 Sr3 2.730389 1_555
O7 Ti10 1.926247 1_556
O7 Ti4 2.055516 1_556
O7 Sr16 2.621451 1_555
O8 Ti1 1.951203 1_555
O8 Sr5 2.744785 1_554
O8 Sr18 2.754261 1_454
O9 Sr1 2.603280 1_555
O9 Sr9 2.632523 1_555
O9 Sr17 2.655040 1_455
O9 Sr4 2.658153 1_555
O10 Ti6 1.895920 1_555
O10 Ti0 2.068411 1_565
O11 Ti7 1.934128 1_555
O11 Sr0 2.601029 1_565
O11 Sr10 2.638378 1_555
O11 Sr19 2.734342 1_455
O12 Ti8 1.901754 1_555
O12 Ti4 2.056096 1_555
O12 Sr14 2.821447 1_554
O13 Ti9 1.979951 1_555
O13 Ti5 2.001391 1_555
O13 Sr11 2.649733 1_555
O13 Sr3 2.651122 1_555
O13 Sr6 2.718067 1_555
O13 Sr13 2.724259 1_555
O14 Ti10 1.943728 1_555
O14 Ti2 2.072799 1_555
O14 Sr8 2.778312 1_554
O14 Sr16 2.801158 1_554
O15 Ti11 1.956104 1_555
O15 Ti3 2.060683 1_555
O15 Sr12 2.618511 1_555
O15 Sr2 2.621021 1_565
O15 Sr15 2.721306 1_555
O15 Sr7 2.728051 1_555
O16 Ti3 1.879103 1_545
O16 Sr13 2.638995 1_555
O16 Sr0 2.709629 1_555
O16 Sr11 2.787877 1_555
O17 Ti2 1.884008 1_546
O17 Sr14 2.605497 1_555
O18 Ti5 1.977142 1_555
O18 Ti7 2.006089 1_555
O18 Sr15 2.627715 1_555
O18 Sr4 2.680681 1_555
O18 Sr12 2.721884 1_555
O18 Sr1 2.770936 1_555
O19 Ti4 1.918610 1_556
O19 Ti6 2.075237 1_556
O19 Sr16 2.553742 1_555
O19 Sr5 2.625236 1_555
O20 Ti9 1.971619 1_555
O20 Sr7 2.647908 1_545
O20 Sr2 2.656961 1_555
O20 Sr17 2.657963 1_555
O20 Sr9 2.700634 1_655
O21 Ti0 1.939678 1_656
O21 Ti8 2.090004 1_556
O21 Sr18 2.607205 1_555
O21 Sr8 2.628043 1_545
O22 Ti11 1.977391 1_555
O22 Sr6 2.631399 1_555
O22 Sr19 2.652844 1_555
O22 Sr3 2.690951 1_555
O22 Sr10 2.709866 1_655
O23 Ti1 1.952181 1_656
O23 Ti10 2.019371 1_556
O24 Ti4 1.878362 1_555
O24 Sr14 2.747672 1_554
O24 Sr5 2.778880 1_554
O25 Ti5 1.899326 1_555
O25 Sr1 2.636420 1_555
O25 Sr11 2.647712 1_555
O25 Sr13 2.700577 1_555
O25 Sr4 2.702012 1_555
O26 Ti2 1.921675 1_555
O26 Ti6 2.054791 1_555
O26 Sr16 2.767997 1_554
O27 Ti3 1.964087 1_555
O27 Ti7 1.996498 1_555
O27 Sr12 2.606612 1_555
O27 Sr0 2.653978 1_565
O27 Sr15 2.728436 1_555
O28 Ti1 1.916335 1_655
O28 Ti8 2.054480 1_555
O28 Sr18 2.794669 1_554
O29 Ti9 1.973088 1_555
O29 Sr3 2.608185 1_555
O29 Sr9 2.650902 1_655
O29 Sr6 2.684974 1_555
O29 Sr17 2.733432 1_555
O30 Ti0 1.957947 1_665
O30 Ti10 2.027554 1_555
O30 Sr8 2.816512 1_554
O31 Ti11 1.969125 1_555
O31 Sr10 2.630623 1_655
O31 Sr2 2.638934 1_565
O31 Sr7 2.692915 1_555
O31 Sr19 2.714660 1_555
O32 Ti0 2.068901 1_555
O33 Sr9 2.688774 1_555
O33 Sr0 2.745144 1_555
O33 Sr2 2.865167 1_455
O33 Sr10 3.028721 1_545
O34 Ti1 1.983282 1_555
O35 Sr10 2.620270 1_555
O35 Sr3 2.773848 1_455
O35 Sr1 2.775724 1_555
O35 Sr9 3.131884 1_555
O36 Ti2 1.959589 1_545
O37 Ti3 2.029574 1_545
O37 Sr11 2.545471 1_555
O37 Sr2 2.708353 1_555
O37 Sr0 2.906952 1_555
O37 Sr12 3.103274 1_545
O38 Ti4 1.920897 1_555
O39 Ti5 2.014610 1_555
O39 Sr12 2.588080 1_555
O39 Sr3 2.718148 1_555
O39 Sr1 2.975286 1_555
O39 Sr11 3.102551 1_555
O40 Ti5 2.023066 1_555
O40 Sr13 2.581718 1_555
O40 Sr6 2.725866 1_555
O40 Sr4 2.907959 1_555
O40 Sr15 3.062662 1_555
O41 Ti4 2.114245 1_556
O41 Sr14 2.542835 1_555
O41 Sr5 2.986081 1_555
O41 Sr16 3.120068 1_555
O42 Ti3 1.989481 1_555
O42 Sr15 2.552666 1_555
O42 Sr7 2.679184 1_555
O42 Sr13 3.141957 1_565
O43 Ti2 2.003960 1_556
O43 Sr16 2.495964 1_555
O43 Sr8 2.613413 1_555
O43 Sr14 3.200811 1_565
O44 Sr17 2.684419 1_555
O44 Sr4 2.779922 1_655
O44 Sr6 2.791800 1_555
O44 Sr19 3.049607 1_555
O45 Ti1 2.009839 1_656
O45 Sr18 2.477118 1_555
O45 Sr5 2.644704 1_655
O46 Sr19 2.549505 1_555
O46 Sr7 2.935641 1_555
O46 Sr17 3.144354 1_565
O47 Ti0 1.968422 1_666
O47 Sr8 2.966429 1_555
O49 Sr0 2.629820 1_555
O49 Sr11 2.767649 1_555
O49 Sr9 2.807376 1_555
O49 Sr1 3.031171 1_555
O50 Ti6 1.901088 1_555
O51 Ti7 2.036946 1_555
O51 Sr1 2.592142 1_555
O51 Sr12 2.746351 1_555
O51 Sr10 2.850523 1_555
O51 Sr0 3.135025 1_565
O52 Ti8 2.028596 1_555
O53 Ti9 2.072123 1_555
O53 Sr2 2.608506 1_555
O53 Sr9 2.762359 1_655
O53 Sr11 2.856729 1_555
O53 Sr3 3.045527 1_555
O54 Ti10 1.975571 1_555
O55 Ti11 2.020852 1_555
O55 Sr3 2.565538 1_555
O55 Sr10 2.685765 1_655
O55 Sr12 2.880404 1_555
O55 Sr2 3.130092 1_565
O56 Sr4 2.607581 1_555
O56 Sr17 2.775909 1_455
O56 Sr13 2.787016 1_555
O57 Sr5 2.518728 1_555
O57 Sr14 2.695949 1_555
O57 Sr18 2.833323 1_455
O58 Ti7 2.016523 1_555
O58 Sr15 2.740139 1_555
O58 Sr19 2.862706 1_455
O58 Sr4 3.200209 1_555
O59 Ti6 2.150293 1_556
O59 Sr16 2.670698 1_555
O60 Ti9 1.986638 1_555
O60 Sr6 2.586064 1_555
O60 Sr17 2.758210 1_555
O60 Sr13 2.869451 1_555
O60 Sr7 3.107655 1_545
O61 Ti8 1.951288 1_556
O61 Sr18 2.682069 1_555
O61 Sr14 2.972607 1_555
O62 Ti11 2.041629 1_555
O62 Sr7 2.587771 1_555
O62 Sr19 2.705435 1_555
O62 Sr15 2.849881 1_555
O62 Sr6 3.053752 1_555
O63 Ti10 2.004589 1_556
O63 Sr8 2.480800 1_555
O63 Sr16 3.008268 1_555
O64 Sr13 2.434721 1_555
O65 Sr14 2.349991 1_555
O65 Sr0 2.405345 1_555
O66 Sr15 2.446294 1_555
O67 Sr16 2.387116 1_555
O67 Sr1 2.418497 1_555
O68 Sr17 2.465312 1_555
O69 Sr18 2.377180 1_555
O69 Sr2 2.424224 1_555
O70 Sr19 2.476306 1_555
O71 Sr3 2.484862 1_555
O72 Sr4 2.435121 1_555
O73 Sr5 2.408645 1_555
O73 Sr9 2.485226 1_555
O75 Sr10 2.497790 1_555
O76 Sr6 2.463551 1_555
O77 Sr11 2.442771 1_555
O78 Sr7 2.431888 1_555
O79 Sr8 2.355713 1_555
O79 Sr12 2.412454 1_555
