# generated using pymatgen
data_Li5Mn3O8
_symmetry_space_group_name_H-M   'P 1'
_cell_length_a   5.13338316
_cell_length_b   5.76540186
_cell_length_c   5.91815145
_cell_angle_alpha   60.85038159
_cell_angle_beta   71.57588266
_cell_angle_gamma   90.00017333
_symmetry_Int_Tables_number   1
_chemical_formula_structural   Li5Mn3O8
_chemical_formula_sum   'Li5 Mn3 O8'
_cell_volume   142.60287042
_cell_formula_units_Z   1
loop_
 _symmetry_equiv_pos_site_id
 _symmetry_equiv_pos_as_xyz
  1  'x, y, z'
loop_
 _atom_site_type_symbol
 _atom_site_label
 _atom_site_symmetry_multiplicity
 _atom_site_fract_x
 _atom_site_fract_y
 _atom_site_fract_z
 _atom_site_occupancy
  Li  Li0  1  0.49880000  0.24573100  0.00853800  1
  Li  Li1  1  0.50000200  0.23779300  0.50000100  1
  Li  Li2  1  0.50000100  0.76220500  0.50000100  1
  Li  Li3  1  0.50120200  0.75426700  0.99146400  1
  Li  Li4  1  0.00000200  0.99999900  0.50000100  1
  Mn  Mn0  1  0.99997400  0.00000700  0.00000900  1
  Mn  Mn1  1  0.00000700  0.49999700  0.50000100  1
  Mn  Mn2  1  0.00000400  0.50000800  0.99997700  1
  O  O0  1  0.23818300  0.35795700  0.78408200  1
  O  O1  1  0.21488200  0.39075300  0.24150000  1
  O  O2  1  0.21488200  0.86774700  0.24149900  1
  O  O3  1  0.22944500  0.86302400  0.77395000  1
  O  O4  1  0.77055800  0.13697200  0.22605300  1
  O  O5  1  0.78512000  0.13225600  0.75850000  1
  O  O6  1  0.78511900  0.60924400  0.75850300  1
  O  O7  1  0.76181900  0.64204000  0.21592000  1
loop_
_geom_bond_atom_site_label_1
_geom_bond_atom_site_label_2
_geom_bond_distance
_geom_bond_site_symmetry_2
Li0 O0 2.063751 1_554
Li0 O4 2.084516 1_555
Li0 O6 2.084785 1_554
Li0 O5 2.084788 1_554
Li0 O2 2.139381 1_545
Li0 O1 2.139381 1_555
Li1 O4 2.095257 1_555
Li1 O3 2.095260 1_545
Li1 O0 2.195288 1_555
Li1 O7 2.195293 1_555
Li1 O5 2.315453 1_555
Li1 O1 2.315470 1_555
Li2 O4 2.095252 1_565
Li2 O3 2.095254 1_555
Li2 O7 2.195290 1_555
Li2 O0 2.195299 1_555
Li2 O6 2.315466 1_555
Li2 O2 2.315469 1_555
Li3 O7 2.063751 1_556
Li3 O3 2.084508 1_555
Li3 O1 2.084792 1_556
Li3 O2 2.084795 1_556
Li3 O6 2.139379 1_555
Li3 O5 2.139400 1_565
Li4 O2 2.051411 1_555
Li4 O1 2.051413 1_565
Li4 O6 2.051422 1_455
Li4 O5 2.051422 1_465
Li4 O4 2.144568 1_465
Li4 O3 2.144569 1_555
Mn0 O5 1.943054 1_554
Mn0 O2 1.943197 1_645
Mn0 O7 1.957095 1_545
Mn0 O0 1.957134 1_654
Mn0 O4 1.957899 1_555
Mn0 O3 1.958145 1_644
Mn1 O1 1.955978 1_555
Mn1 O5 1.955982 1_455
Mn1 O2 1.956000 1_555
Mn1 O6 1.956015 1_455
Mn1 O0 2.224885 1_555
Mn1 O7 2.224934 1_455
Mn2 O6 1.943029 1_455
Mn2 O1 1.943216 1_556
Mn2 O0 1.957063 1_555
Mn2 O7 1.957183 1_456
Mn2 O3 1.957981 1_555
Mn2 O4 1.958068 1_456
