# generated using pymatgen
data_Zr5In3Cu
_symmetry_space_group_name_H-M   'P 1'
_cell_length_a   8.83926162
_cell_length_b   8.83926162
_cell_length_c   5.97542200
_cell_angle_alpha   90.00000000
_cell_angle_beta   90.00000000
_cell_angle_gamma   119.99999713
_symmetry_Int_Tables_number   1
_chemical_formula_structural   Zr5In3Cu
_chemical_formula_sum   'Zr10 In6 Cu2'
_cell_volume   404.32556479
_cell_formula_units_Z   2
loop_
 _symmetry_equiv_pos_site_id
 _symmetry_equiv_pos_as_xyz
  1  'x, y, z'
loop_
 _atom_site_type_symbol
 _atom_site_label
 _atom_site_symmetry_multiplicity
 _atom_site_fract_x
 _atom_site_fract_y
 _atom_site_fract_z
 _atom_site_occupancy
  Zr  Zr0  1  0.73014500  0.73014500  0.25000000  1
  Zr  Zr1  1  0.26985500  0.00000000  0.25000000  1
  Zr  Zr2  1  0.00000000  0.26985500  0.25000000  1
  Zr  Zr3  1  0.26985500  0.26985500  0.75000000  1
  Zr  Zr4  1  0.73014500  0.00000000  0.75000000  1
  Zr  Zr5  1  0.00000000  0.73014500  0.75000000  1
  Zr  Zr6  1  0.66666700  0.33333300  0.50000000  1
  Zr  Zr7  1  0.33333300  0.66666700  0.50000000  1
  Zr  Zr8  1  0.33333300  0.66666700  0.00000000  1
  Zr  Zr9  1  0.66666700  0.33333300  0.00000000  1
  In  In0  1  0.37812800  0.37812800  0.25000000  1
  In  In1  1  0.62187200  0.00000000  0.25000000  1
  In  In2  1  0.00000000  0.62187200  0.25000000  1
  In  In3  1  0.62187200  0.62187200  0.75000000  1
  In  In4  1  0.37812800  0.00000000  0.75000000  1
  In  In5  1  0.00000000  0.37812800  0.75000000  1
  Cu  Cu0  1  0.00000000  0.00000000  0.50000000  1
  Cu  Cu1  1  0.00000000  0.00000000  0.00000000  1
loop_
_geom_bond_atom_site_label_1
_geom_bond_atom_site_label_2
_geom_bond_distance
_geom_bond_site_symmetry_2
Zr6 Zr9 2.987711 1_556
Zr6 Zr9 2.987711 1_555
Zr7 Zr8 2.987711 1_556
Zr7 Zr8 2.987711 1_555
In0 Zr2 2.981371 1_555
In0 Zr1 2.981371 1_555
In0 Zr0 3.111570 1_555
In0 Zr3 3.137255 1_554
In0 Zr3 3.137255 1_555
In0 Zr7 3.146929 1_555
In0 Zr6 3.146929 1_555
In0 Zr9 3.146929 1_555
In0 Zr8 3.146929 1_555
In1 Zr0 2.981371 1_545
In1 Zr2 2.981371 1_655
In1 Zr1 3.111570 1_555
In1 Zr4 3.137255 1_555
In1 Zr4 3.137255 1_554
In1 Zr9 3.146921 1_555
In1 Zr6 3.146921 1_555
In1 Zr8 3.146924 1_545
In1 Zr7 3.146924 1_545
In2 Zr0 2.981371 1_455
In2 Zr1 2.981371 1_565
In2 Zr2 3.111570 1_555
In2 Zr5 3.137255 1_554
In2 Zr5 3.137255 1_555
In2 Zr8 3.146921 1_555
In2 Zr7 3.146921 1_555
In2 Zr9 3.146924 1_455
In2 Zr6 3.146924 1_455
In3 Zr5 2.981371 1_655
In3 Zr4 2.981371 1_565
In3 Zr3 3.111570 1_555
In3 Zr0 3.137255 1_556
In3 Zr0 3.137255 1_555
In3 Zr8 3.146929 1_556
In3 Zr9 3.146929 1_556
In3 Zr7 3.146929 1_555
In3 Zr6 3.146929 1_555
In4 Zr3 2.981371 1_555
In4 Zr5 2.981371 1_545
In4 Zr4 3.111570 1_555
In4 Zr1 3.137255 1_556
In4 Zr1 3.137255 1_555
In4 Zr7 3.146921 1_545
In4 Zr8 3.146921 1_546
In4 Zr9 3.146924 1_556
In4 Zr6 3.146924 1_555
In5 Zr3 2.981371 1_555
In5 Zr4 2.981371 1_455
In5 Zr5 3.111570 1_555
In5 Zr2 3.137255 1_556
In5 Zr2 3.137255 1_555
In5 Zr6 3.146921 1_455
In5 Zr9 3.146921 1_456
In5 Zr7 3.146924 1_555
In5 Zr8 3.146924 1_556
Cu0 Zr2 2.814489 1_555
Cu0 Zr1 2.814489 1_555
Cu0 Zr5 2.814489 1_545
Cu0 Zr4 2.814489 1_455
Cu0 Zr3 2.814490 1_555
Cu0 Zr0 2.814490 1_445
Cu0 Cu1 2.987711 1_556
Cu0 Cu1 2.987711 1_555
Cu1 Zr2 2.814489 1_555
Cu1 Zr1 2.814489 1_555
Cu1 Zr4 2.814489 1_454
Cu1 Zr5 2.814489 1_544
Cu1 Zr3 2.814490 1_554
Cu1 Zr0 2.814490 1_445
