# generated using pymatgen
data_RuRh
_symmetry_space_group_name_H-M   'P 1'
_cell_length_a   5.41883004
_cell_length_b   5.41883004
_cell_length_c   8.59673620
_cell_angle_alpha   90.00000000
_cell_angle_beta   90.00000000
_cell_angle_gamma   120.00000442
_symmetry_Int_Tables_number   1
_chemical_formula_structural   RuRh
_chemical_formula_sum   'Ru8 Rh8'
_cell_volume   218.61264171
_cell_formula_units_Z   8
loop_
 _symmetry_equiv_pos_site_id
 _symmetry_equiv_pos_as_xyz
  1  'x, y, z'
loop_
 _atom_site_type_symbol
 _atom_site_label
 _atom_site_symmetry_multiplicity
 _atom_site_fract_x
 _atom_site_fract_y
 _atom_site_fract_z
 _atom_site_occupancy
  Ru  Ru0_0  1  0.00000000  0.00000000  0.25000000  1
  Ru  Ru0_1  1  0.00000000  0.00000000  0.75000000  1
  Ru  Ru0_2  1  0.00000000  0.50000000  0.25000000  1
  Ru  Ru0_3  1  0.00000000  0.50000000  0.75000000  1
  Ru  Ru0_4  1  0.50000000  0.00000000  0.25000000  1
  Ru  Ru0_5  1  0.50000000  0.00000000  0.75000000  1
  Ru  Ru0_6  1  0.50000000  0.50000000  0.25000000  1
  Ru  Ru0_7  1  0.50000000  0.50000000  0.75000000  1
  Rh  Rh0_0  1  0.33333350  0.16666650  0.00000000  1
  Rh  Rh0_1  1  0.33333350  0.16666650  0.50000000  1
  Rh  Rh0_2  1  0.33333350  0.66666650  0.00000000  1
  Rh  Rh0_3  1  0.33333350  0.66666650  0.50000000  1
  Rh  Rh0_4  1  0.83333350  0.16666650  0.00000000  1
  Rh  Rh0_5  1  0.83333350  0.16666650  0.50000000  1
  Rh  Rh0_6  1  0.83333350  0.66666650  0.00000000  1
  Rh  Rh0_7  1  0.83333350  0.66666650  0.50000000  1
loop_
_geom_bond_atom_site_label_1
_geom_bond_atom_site_label_2
_geom_bond_distance
_geom_bond_site_symmetry_2
Ru0_0 Ru0_6 2.709415 1_555
Ru0_0 Ru0_6 2.709415 1_445
Ru0_0 Ru0_2 2.709415 1_545
Ru0_0 Ru0_2 2.709415 1_555
Ru0_0 Ru0_4 2.709415 1_455
Ru0_0 Ru0_4 2.709415 1_555
Ru0_1 Ru0_7 2.709415 1_445
Ru0_1 Ru0_7 2.709415 1_555
Ru0_1 Ru0_5 2.709415 1_555
Ru0_1 Ru0_3 2.709415 1_555
Ru0_1 Ru0_3 2.709415 1_545
Ru0_1 Ru0_5 2.709415 1_455
Ru0_2 Ru0_4 2.709415 1_455
Ru0_2 Ru0_4 2.709415 1_565
Ru0_2 Ru0_6 2.709415 1_555
Ru0_2 Ru0_6 2.709415 1_455
Ru0_3 Ru0_5 2.709415 1_455
Ru0_3 Ru0_5 2.709415 1_565
Ru0_3 Ru0_7 2.709415 1_555
Ru0_3 Ru0_7 2.709415 1_455
Ru0_4 Ru0_6 2.709415 1_545
Ru0_4 Ru0_6 2.709415 1_555
Ru0_5 Ru0_7 2.709415 1_555
Ru0_5 Ru0_7 2.709415 1_545
Rh0_0 Ru0_5 2.658188 1_554
Rh0_0 Ru0_4 2.658188 1_555
Rh0_0 Ru0_0 2.658189 1_555
Rh0_0 Ru0_7 2.658189 1_554
Rh0_0 Ru0_1 2.658189 1_554
Rh0_0 Ru0_6 2.658189 1_555
Rh0_0 Rh0_6 2.709415 1_555
Rh0_0 Rh0_6 2.709415 1_445
Rh0_0 Rh0_2 2.709415 1_545
Rh0_0 Rh0_4 2.709415 1_555
Rh0_0 Rh0_2 2.709415 1_555
Rh0_0 Rh0_4 2.709415 1_455
Rh0_1 Ru0_5 2.658188 1_555
Rh0_1 Ru0_4 2.658188 1_555
Rh0_1 Ru0_0 2.658189 1_555
Rh0_1 Ru0_7 2.658189 1_555
Rh0_1 Ru0_6 2.658189 1_555
Rh0_1 Ru0_1 2.658189 1_555
Rh0_1 Rh0_7 2.709415 1_555
Rh0_1 Rh0_7 2.709415 1_445
Rh0_1 Rh0_5 2.709415 1_555
Rh0_1 Rh0_3 2.709415 1_545
Rh0_1 Rh0_5 2.709415 1_455
Rh0_1 Rh0_3 2.709415 1_555
Rh0_2 Ru0_7 2.658188 1_554
Rh0_2 Ru0_6 2.658188 1_555
Rh0_2 Ru0_3 2.658189 1_554
Rh0_2 Ru0_4 2.658189 1_565
Rh0_2 Ru0_2 2.658189 1_555
Rh0_2 Ru0_5 2.658189 1_564
Rh0_2 Rh0_4 2.709415 1_455
Rh0_2 Rh0_4 2.709415 1_565
Rh0_2 Rh0_6 2.709415 1_555
Rh0_2 Rh0_6 2.709415 1_455
Rh0_3 Ru0_7 2.658188 1_555
Rh0_3 Ru0_6 2.658188 1_555
Rh0_3 Ru0_3 2.658189 1_555
Rh0_3 Ru0_4 2.658189 1_565
Rh0_3 Ru0_5 2.658189 1_565
Rh0_3 Ru0_2 2.658189 1_555
Rh0_3 Rh0_5 2.709415 1_455
Rh0_3 Rh0_5 2.709415 1_565
Rh0_3 Rh0_7 2.709415 1_555
Rh0_3 Rh0_7 2.709415 1_455
Rh0_4 Ru0_1 2.658188 1_654
Rh0_4 Ru0_0 2.658188 1_655
Rh0_4 Ru0_2 2.658189 1_655
Rh0_4 Ru0_4 2.658189 1_555
Rh0_4 Ru0_3 2.658189 1_654
Rh0_4 Ru0_5 2.658189 1_554
Rh0_4 Rh0_6 2.709415 1_545
Rh0_4 Rh0_6 2.709415 1_555
Rh0_5 Ru0_1 2.658188 1_655
Rh0_5 Ru0_0 2.658188 1_655
Rh0_5 Ru0_2 2.658189 1_655
Rh0_5 Ru0_4 2.658189 1_555
Rh0_5 Ru0_3 2.658189 1_655
Rh0_5 Ru0_5 2.658189 1_555
Rh0_5 Rh0_7 2.709415 1_545
Rh0_5 Rh0_7 2.709415 1_555
Rh0_6 Ru0_2 2.658188 1_655
Rh0_6 Ru0_3 2.658188 1_654
Rh0_6 Ru0_7 2.658189 1_554
Rh0_6 Ru0_6 2.658189 1_555
Rh0_6 Ru0_1 2.658189 1_664
Rh0_6 Ru0_0 2.658189 1_665
Rh0_7 Ru0_2 2.658188 1_655
Rh0_7 Ru0_3 2.658188 1_655
Rh0_7 Ru0_6 2.658189 1_555
Rh0_7 Ru0_7 2.658189 1_555
Rh0_7 Ru0_0 2.658189 1_665
Rh0_7 Ru0_1 2.658189 1_665
