# generated using pymatgen
data_HoInPt2
_symmetry_space_group_name_H-M   'P 1'
_cell_length_a   4.73477264
_cell_length_b   4.73477264
_cell_length_c   8.52171400
_cell_angle_alpha   90.00000000
_cell_angle_beta   90.00000000
_cell_angle_gamma   119.99998106
_symmetry_Int_Tables_number   1
_chemical_formula_structural   HoInPt2
_chemical_formula_sum   'Ho2 In2 Pt4'
_cell_volume   165.44586937
_cell_formula_units_Z   2
loop_
 _symmetry_equiv_pos_site_id
 _symmetry_equiv_pos_as_xyz
  1  'x, y, z'
loop_
 _atom_site_type_symbol
 _atom_site_label
 _atom_site_symmetry_multiplicity
 _atom_site_fract_x
 _atom_site_fract_y
 _atom_site_fract_z
 _atom_site_occupancy
  Ho  Ho0  1  0.00000000  0.00000000  0.00000000  1
  Ho  Ho1  1  0.00000000  0.00000000  0.50000000  1
  In  In0  1  0.66666700  0.33333300  0.75000000  1
  In  In1  1  0.33333300  0.66666700  0.25000000  1
  Pt  Pt0  1  0.66666700  0.33333300  0.40736000  1
  Pt  Pt1  1  0.33333300  0.66666700  0.59264000  1
  Pt  Pt2  1  0.33333300  0.66666700  0.90736000  1
  Pt  Pt3  1  0.66666700  0.33333300  0.09264000  1
loop_
_geom_bond_atom_site_label_1
_geom_bond_atom_site_label_2
_geom_bond_distance
_geom_bond_site_symmetry_2
Ho0 Pt2 2.845331 1_544
Ho0 Pt3 2.845331 1_455
Ho0 Pt2 2.845336 1_554
Ho0 Pt3 2.845336 1_555
Ho0 Pt2 2.845336 1_444
Ho0 Pt3 2.845336 1_445
Ho0 In0 3.465747 1_454
Ho0 In1 3.465747 1_545
Ho0 In0 3.465751 1_554
Ho0 In0 3.465751 1_444
Ho0 In1 3.465751 1_555
Ho0 In1 3.465751 1_445
Ho1 Pt0 2.845331 1_455
Ho1 Pt1 2.845331 1_545
Ho1 Pt1 2.845336 1_445
Ho1 Pt0 2.845336 1_555
Ho1 Pt0 2.845336 1_445
Ho1 Pt1 2.845336 1_555
Ho1 In0 3.465747 1_455
Ho1 In1 3.465747 1_545
Ho1 In0 3.465751 1_555
Ho1 In0 3.465751 1_445
Ho1 In1 3.465751 1_445
Ho1 In1 3.465751 1_555
In0 Pt0 2.919880 1_555
In0 Pt3 2.919880 1_556
In0 Pt1 3.044815 1_545
In0 Pt2 3.044815 1_545
In0 Pt1 3.044815 1_655
In0 Pt2 3.044815 1_655
In0 Pt1 3.044822 1_555
In0 Pt2 3.044822 1_555
In1 Pt1 2.919880 1_555
In1 Pt2 2.919880 1_554
In1 Pt0 3.044815 1_455
In1 Pt3 3.044815 1_455
In1 Pt0 3.044815 1_565
In1 Pt3 3.044815 1_565
In1 Pt0 3.044822 1_555
In1 Pt3 3.044822 1_555
Pt0 Pt3 2.681954 1_555
Pt1 Pt2 2.681954 1_555
