# generated using pymatgen
data_Dy2Si2O7
_symmetry_space_group_name_H-M   'P 1'
_cell_length_a   6.64544600
_cell_length_b   6.68971442
_cell_length_c   18.20318189
_cell_angle_alpha   83.79933197
_cell_angle_beta   88.41957808
_cell_angle_gamma   88.22984560
_symmetry_Int_Tables_number   1
_chemical_formula_structural   Dy2Si2O7
_chemical_formula_sum   'Dy12 Si12 O42'
_cell_volume   803.88552853
_cell_formula_units_Z   6
loop_
 _symmetry_equiv_pos_site_id
 _symmetry_equiv_pos_as_xyz
  1  'x, y, z'
loop_
 _atom_site_type_symbol
 _atom_site_label
 _atom_site_symmetry_multiplicity
 _atom_site_fract_x
 _atom_site_fract_y
 _atom_site_fract_z
 _atom_site_occupancy
  Dy  Dy0  1  0.88296000  0.90037300  0.60758300  1
  Dy  Dy1  1  0.14597900  0.12342400  0.40179200  1
  Dy  Dy2  1  0.38461500  0.65271500  0.90323900  1
  Dy  Dy3  1  0.61663300  0.34751500  0.09679600  1
  Dy  Dy4  1  0.44797300  0.96441400  0.73839400  1
  Dy  Dy5  1  0.54592000  0.03046000  0.25892000  1
  Dy  Dy6  1  0.87806600  0.34753700  0.91032900  1
  Dy  Dy7  1  0.12113700  0.65312900  0.08978000  1
  Dy  Dy8  1  0.18432100  0.47063800  0.73786800  1
  Dy  Dy9  1  0.81414400  0.53189800  0.26447200  1
  Dy  Dy10  1  0.55443700  0.37614200  0.58792100  1
  Dy  Dy11  1  0.40862200  0.61032100  0.41435900  1
  Si  Si0  1  0.87616800  0.81568100  0.93771100  1
  Si  Si1  1  0.12386100  0.18397200  0.06267300  1
  Si  Si2  1  0.66234800  0.49000300  0.74022400  1
  Si  Si3  1  0.33896000  0.51097600  0.25707200  1
  Si  Si4  1  0.99556100  0.95770200  0.78683600  1
  Si  Si5  1  0.00603200  0.04405500  0.21447500  1
  Si  Si6  1  0.36466700  0.17586200  0.91922500  1
  Si  Si7  1  0.63544500  0.82340900  0.08087100  1
  Si  Si8  1  0.34831600  0.86341200  0.57930900  1
  Si  Si9  1  0.65220200  0.12993800  0.41861600  1
  Si  Si10  1  0.04211600  0.39334700  0.55283900  1
  Si  Si11  1  0.90135600  0.72893100  0.44353800  1
  O  O0  1  0.22504900  0.78276300  0.65834200  1
  O  O1  1  0.78959700  0.22227000  0.34679000  1
  O  O2  1  0.49686200  0.62757800  0.78407400  1
  O  O3  1  0.50620400  0.37252500  0.21515300  1
  O  O4  1  0.54615500  0.30491800  0.94998900  1
  O  O5  1  0.45417900  0.69463800  0.05001400  1
  O  O6  1  0.45499000  0.68773400  0.53280300  1
  O  O7  1  0.55919300  0.29767900  0.46884400  1
  O  O8  1  0.80708500  0.94019000  0.73321900  1
  O  O9  1  0.19933200  0.06339300  0.26476800  1
  O  O10  1  0.15047300  0.12878100  0.75248900  1
  O  O11  1  0.85054800  0.87123200  0.24781300  1
  O  O12  1  0.85656700  0.41392000  0.78885500  1
  O  O13  1  0.14101900  0.58492100  0.21075200  1
  O  O14  1  0.73104800  0.59955900  0.65978400  1
  O  O15  1  0.27342700  0.40052400  0.33750900  1
  O  O16  1  0.86666600  0.23923500  0.58454600  1
  O  O17  1  0.11740700  0.78476000  0.40501900  1
  O  O18  1  0.72684900  0.65202000  0.91254300  1
  O  O19  1  0.27348000  0.34820400  0.08744700  1
  O  O20  1  0.43402900  0.99162000  0.87212300  1
  O  O21  1  0.56519600  0.00812000  0.12764300  1
  O  O22  1  0.17397500  0.98844700  0.53151700  1
  O  O23  1  0.80764000  0.95962800  0.46541100  1
  O  O24  1  0.08164300  0.68936400  0.96408200  1
  O  O25  1  0.91860300  0.31081300  0.03592800  1
  O  O26  1  0.52589200  0.00368900  0.61087900  1
  O  O27  1  0.47225800  0.00035700  0.38617300  1
  O  O28  1  0.20920500  0.40033300  0.61581400  1
  O  O29  1  0.75365200  0.63181200  0.38965800  1
  O  O30  1  0.51309100  0.30891500  0.71943900  1
  O  O31  1  0.48420200  0.69211900  0.27840800  1
  O  O32  1  0.91363600  0.62253600  0.53166600  1
  O  O33  1  0.13637800  0.37988300  0.47027300  1
  O  O34  1  0.78055400  0.91930600  0.00965000  1
  O  O35  1  0.21931700  0.08050600  0.99054600  1
  O  O36  1  0.22070600  0.35678000  0.87560400  1
  O  O37  1  0.77924800  0.64331500  0.12480600  1
  O  O38  1  0.13158200  0.75079400  0.80739900  1
  O  O39  1  0.86801500  0.25026000  0.19390300  1
  O  O40  1  0.90922700  0.01085000  0.87345200  1
  O  O41  1  0.08868100  0.98945700  0.12673100  1
loop_
_geom_bond_atom_site_label_1
_geom_bond_atom_site_label_2
_geom_bond_distance
_geom_bond_site_symmetry_2
Dy0 O16 2.260167 1_565
Dy0 O8 2.369627 1_555
Dy0 O14 2.373009 1_555
Dy0 O22 2.398103 1_655
Dy0 O32 2.433471 1_555
Dy0 O26 2.451860 1_565
Dy0 O0 2.547375 1_655
Dy0 O23 2.634940 1_555
Dy1 O33 2.225370 1_555
Dy1 O15 2.257567 1_555
Dy1 O17 2.273654 1_545
Dy1 O27 2.316527 1_555
Dy1 O22 2.445288 1_545
Dy1 O9 2.582090 1_555
Dy1 O1 2.634318 1_455
Dy1 O23 2.707695 1_445
Dy2 O18 2.285073 1_555
Dy2 O24 2.290332 1_555
Dy2 O2 2.296048 1_555
Dy2 O20 2.308046 1_555
Dy2 O36 2.395285 1_555
Dy2 O38 2.479512 1_555
Dy2 O4 2.599680 1_555
Dy2 O5 2.769247 1_556
Dy3 O3 2.278455 1_555
Dy3 O25 2.284854 1_555
Dy3 O19 2.291248 1_555
Dy3 O21 2.312804 1_555
Dy3 O37 2.392477 1_555
Dy3 O39 2.487152 1_555
Dy3 O5 2.598409 1_555
Dy3 O4 2.771972 1_554
Dy4 O10 2.254363 1_565
Dy4 O2 2.332257 1_555
Dy4 O30 2.345028 1_565
Dy4 O26 2.352741 1_565
Dy4 O8 2.386908 1_555
Dy4 O20 2.459617 1_555
Dy4 O0 2.531321 1_555
Dy4 O38 2.773617 1_555
Dy5 O11 2.272528 1_545
Dy5 O31 2.300639 1_545
Dy5 O9 2.307583 1_555
Dy5 O27 2.342799 1_555
Dy5 O3 2.349732 1_555
Dy5 O21 2.410040 1_555
Dy5 O1 2.746236 1_555
Dy5 O39 2.796990 1_555
Dy6 O12 2.215506 1_555
Dy6 O18 2.247104 1_555
Dy6 O25 2.295353 1_556
Dy6 O4 2.318217 1_555
Dy6 O36 2.347116 1_655
Dy6 O40 2.420054 1_555
Dy7 O13 2.206822 1_555
Dy7 O19 2.253114 1_555
Dy7 O24 2.296179 1_554
Dy7 O5 2.324990 1_555
Dy7 O37 2.343736 1_455
Dy7 O41 2.418699 1_555
Dy8 O10 2.290950 1_555
Dy8 O28 2.320662 1_555
Dy8 O12 2.369146 1_455
Dy8 O38 2.384252 1_555
Dy8 O0 2.426741 1_555
Dy8 O30 2.438934 1_555
Dy8 O36 2.556240 1_555
Dy8 O2 2.558390 1_555
Dy9 O11 2.277010 1_555
Dy9 O13 2.378265 1_655
Dy9 O39 2.404963 1_555
Dy9 O1 2.428837 1_555
Dy9 O31 2.429730 1_555
Dy9 O29 2.462338 1_555
Dy9 O3 2.563849 1_555
Dy9 O37 2.585621 1_555
Dy10 O16 2.243997 1_555
Dy10 O7 2.283833 1_555
Dy10 O6 2.299580 1_555
Dy10 O28 2.340512 1_555
Dy10 O30 2.397493 1_555
Dy10 O14 2.436785 1_555
Dy10 O26 2.493715 1_555
Dy11 O17 2.229719 1_555
Dy11 O6 2.302049 1_555
Dy11 O15 2.303314 1_555
Dy11 O29 2.330164 1_555
Dy11 O7 2.415896 1_555
Dy11 O31 2.516332 1_555
Dy11 O33 2.533238 1_555
Dy11 O27 2.648993 1_565
O0 Si8 1.681207 1_555
O1 Si9 1.648993 1_555
O2 Si2 1.655689 1_555
O3 Si3 1.648524 1_555
O4 Si6 1.649121 1_555
O5 Si7 1.647600 1_555
O6 Si8 1.652489 1_555
O7 Si9 1.620124 1_555
O8 Si4 1.623659 1_555
O9 Si5 1.614214 1_555
O10 Si4 1.625796 1_445
O11 Si5 1.631014 1_665
O12 Si2 1.622850 1_555
O13 Si3 1.617655 1_555
O14 Si2 1.625303 1_555
O15 Si3 1.621888 1_555
O16 Si10 1.632188 1_655
O17 Si11 1.616646 1_455
O18 Si0 1.610518 1_555
O19 Si1 1.611921 1_555
O20 Si6 1.624230 1_565
O21 Si7 1.624618 1_545
O22 Si8 1.623980 1_555
O23 Si9 1.690216 1_565
O23 Si11 1.728537 1_555
O24 Si0 1.638982 1_455
O25 Si1 1.641184 1_655
O26 Si8 1.680999 1_545
O27 Si9 1.656429 1_555
O28 Si10 1.623031 1_555
O29 Si11 1.605510 1_555
O30 Si2 1.669874 1_555
O31 Si3 1.656955 1_555
O32 Si11 1.686333 1_555
O32 Si10 1.742953 1_655
O33 Si10 1.622724 1_555
O34 Si0 1.649884 1_554
O34 Si7 1.676850 1_555
O35 Si1 1.651829 1_556
O35 Si6 1.677918 1_555
O36 Si6 1.665328 1_555
O37 Si7 1.663497 1_555
O38 Si4 1.643932 1_455
O39 Si5 1.647282 1_655
O40 Si0 1.671764 1_545
O40 Si4 1.732084 1_545
O41 Si1 1.668407 1_565
O41 Si5 1.746831 1_565
