# generated using pymatgen
data_EuZnGa
_symmetry_space_group_name_H-M   'P 1'
_cell_length_a   5.77416792
_cell_length_b   5.77416792
_cell_length_c   7.55769448
_cell_angle_alpha   50.20969774
_cell_angle_beta   50.20969774
_cell_angle_gamma   46.81615126
_symmetry_Int_Tables_number   1
_chemical_formula_structural   EuZnGa
_chemical_formula_sum   'Eu2 Zn2 Ga2'
_cell_volume   131.68414944
_cell_formula_units_Z   2
loop_
 _symmetry_equiv_pos_site_id
 _symmetry_equiv_pos_as_xyz
  1  'x, y, z'
loop_
 _atom_site_type_symbol
 _atom_site_label
 _atom_site_symmetry_multiplicity
 _atom_site_fract_x
 _atom_site_fract_y
 _atom_site_fract_z
 _atom_site_occupancy
  Eu  Eu0  1  0.45790690  0.45790690  0.29681307  1
  Eu  Eu1  1  0.54209310  0.54209310  0.70318693  1
  Zn  Zn0  1  0.83417204  0.83417204  0.72541894  1
  Zn  Zn1  1  0.16582796  0.16582796  0.27458106  1
  Ga  Ga0  1  0.16118712  0.16118712  0.89454071  1
  Ga  Ga1  1  0.83881288  0.83881288  0.10545929  1
loop_
_geom_bond_atom_site_label_1
_geom_bond_atom_site_label_2
_geom_bond_distance
_geom_bond_site_symmetry_2
Eu0 Zn1 3.103151 1_655
Eu0 Zn1 3.103151 1_565
Eu0 Ga0 3.164057 1_654
Eu0 Ga0 3.164057 1_564
Eu0 Ga1 3.200734 1_555
Eu0 Zn1 3.214852 1_555
Eu0 Ga0 3.237688 1_555
Eu0 Zn0 3.245302 1_554
Eu0 Ga1 3.390062 1_455
Eu0 Ga1 3.390062 1_545
Eu0 Zn0 3.398545 1_455
Eu0 Zn0 3.398545 1_545
Eu1 Zn0 3.103151 1_455
Eu1 Zn0 3.103151 1_545
Eu1 Ga1 3.164057 1_456
Eu1 Ga1 3.164057 1_546
Eu1 Ga0 3.200734 1_555
Eu1 Zn0 3.214852 1_555
Eu1 Ga1 3.237688 1_555
Eu1 Zn1 3.245302 1_556
Eu1 Ga0 3.390062 1_565
Eu1 Ga0 3.390062 1_655
Eu1 Zn1 3.398545 1_565
Eu1 Zn1 3.398545 1_655
Zn0 Zn1 2.694465 1_665
Ga0 Ga1 2.572449 1_446
Ga0 Zn0 2.643591 1_455
Ga0 Zn0 2.643591 1_545
Ga0 Zn1 2.906742 1_556
Ga1 Zn1 2.643591 1_655
Ga1 Zn1 2.643591 1_565
Ga1 Zn0 2.906742 1_554
