# generated using pymatgen
data_MgFe6(OF2)4
_symmetry_space_group_name_H-M   'P 1'
_cell_length_a   8.20483481
_cell_length_b   6.04420582
_cell_length_c   5.81196217
_cell_angle_alpha   68.79695269
_cell_angle_beta   67.26143886
_cell_angle_gamma   65.02047853
_symmetry_Int_Tables_number   1
_chemical_formula_structural   MgFe6(OF2)4
_chemical_formula_sum   'Mg1 Fe6 O4 F8'
_cell_volume   234.07130831
_cell_formula_units_Z   1
loop_
 _symmetry_equiv_pos_site_id
 _symmetry_equiv_pos_as_xyz
  1  'x, y, z'
loop_
 _atom_site_type_symbol
 _atom_site_label
 _atom_site_symmetry_multiplicity
 _atom_site_fract_x
 _atom_site_fract_y
 _atom_site_fract_z
 _atom_site_occupancy
  Mg  Mg0  1  0.83766300  0.15240000  0.67165800  1
  Fe  Fe0  1  0.84512500  0.64460400  0.66541200  1
  Fe  Fe1  1  0.65303500  0.37139100  0.26383200  1
  Fe  Fe2  1  0.33938500  0.68524600  0.63930800  1
  Fe  Fe3  1  0.18406600  0.32699300  0.37724000  1
  Fe  Fe4  1  0.48736700  0.99400100  0.99974400  1
  Fe  Fe5  1  0.03899300  0.96292700  0.04036200  1
  O  O0  1  0.34053500  0.98530200  0.34093000  1
  O  O1  1  0.66258900  0.67902800  0.00777700  1
  O  O2  1  0.01563900  0.26129400  0.71958200  1
  O  O3  1  0.01559600  0.65770100  0.30786300  1
  F  F0  1  0.65194600  0.05432900  0.61636500  1
  F  F1  1  0.33093000  0.36138200  0.95457500  1
  F  F2  1  0.32970700  0.88489300  0.89147500  1
  F  F3  1  0.93990700  0.20455200  0.29000100  1
  F  F4  1  0.64505400  0.50387800  0.58104000  1
  F  F5  1  0.02673500  0.80033300  0.74199500  1
  F  F6  1  0.36575400  0.43142800  0.42963400  1
  F  F7  1  0.68997400  0.12164800  0.04454500  1
loop_
_geom_bond_atom_site_label_1
_geom_bond_atom_site_label_2
_geom_bond_distance
_geom_bond_site_symmetry_2
Mg0 O2 1.975329 1_655
Fe0 O1 1.994541 1_556
Fe0 O3 2.002131 1_655
Fe0 O2 2.121164 1_655
Fe1 O1 1.926028 1_555
Fe2 O0 2.005834 1_555
Fe3 O3 1.892884 1_555
Fe3 O2 1.947458 1_555
Fe3 O0 1.955619 1_545
Fe4 O1 1.835580 1_556
Fe4 O0 1.875522 1_556
Fe5 O3 1.962426 1_555
Fe5 O2 2.077756 1_564
F0 Mg0 2.013887 1_555
F0 Fe4 2.103182 1_545
F0 Fe1 2.242929 1_555
F0 Fe0 2.291248 1_545
F1 Fe4 2.019594 1_545
F1 Fe2 2.148479 1_555
F1 Fe3 2.254677 1_556
F2 Fe4 2.038167 1_555
F2 Fe5 2.100037 1_556
F2 Fe2 2.172270 1_555
F3 Mg0 2.000617 1_555
F3 Fe5 2.125317 1_645
F3 Fe1 2.177440 1_555
F4 Mg0 2.070387 1_555
F4 Fe2 2.212739 1_555
F4 Fe1 2.230398 1_555
F4 Fe0 2.400391 1_555
F5 Mg0 2.043235 1_465
F5 Fe2 2.242813 1_555
F5 Fe0 2.303206 1_455
F5 Fe5 2.331102 1_556
F6 Fe3 1.999531 1_555
F6 Fe1 2.095423 1_555
F6 Fe2 2.180264 1_555
F7 Mg0 2.017027 1_554
F7 Fe1 2.168262 1_555
F7 Fe4 2.233749 1_544
F7 Fe5 2.600801 1_645
