# generated using pymatgen
data_Hf6Al16Pd7
_symmetry_space_group_name_H-M   'P 1'
_cell_length_a   8.69967440
_cell_length_b   8.69967532
_cell_length_c   8.69967665
_cell_angle_alpha   59.99999433
_cell_angle_beta   59.99999441
_cell_angle_gamma   59.99999029
_symmetry_Int_Tables_number   1
_chemical_formula_structural   Hf6Al16Pd7
_chemical_formula_sum   'Hf6 Al16 Pd7'
_cell_volume   465.57975542
_cell_formula_units_Z   1
loop_
 _symmetry_equiv_pos_site_id
 _symmetry_equiv_pos_as_xyz
  1  'x, y, z'
loop_
 _atom_site_type_symbol
 _atom_site_label
 _atom_site_symmetry_multiplicity
 _atom_site_fract_x
 _atom_site_fract_y
 _atom_site_fract_z
 _atom_site_occupancy
  Hf  Hf0  1  0.68266449  0.68266399  0.31733591  1
  Hf  Hf1  1  0.31733576  0.68266389  0.31733607  1
  Hf  Hf2  1  0.68266366  0.31733608  0.31733656  1
  Hf  Hf3  1  0.31733561  0.31733590  0.68266399  1
  Hf  Hf4  1  0.68266464  0.31733573  0.68266373  1
  Hf  Hf5  1  0.31733553  0.68266473  0.68266386  1
  Al  Al0  1  0.87967464  0.87967464  0.36097662  1
  Al  Al1  1  0.87967488  0.36097651  0.87967465  1
  Al  Al2  1  0.36097663  0.87967477  0.87967450  1
  Al  Al3  1  0.87967478  0.87967452  0.87967470  1
  Al  Al4  1  0.12032543  0.12032548  0.63902335  1
  Al  Al5  1  0.12032524  0.63902336  0.12032537  1
  Al  Al6  1  0.63902347  0.12032535  0.12032540  1
  Al  Al7  1  0.12032522  0.12032552  0.12032525  1
  Al  Al8  1  0.66586734  0.66586704  0.00239885  1
  Al  Al9  1  0.66586724  0.00239834  0.66586739  1
  Al  Al10  1  0.00239873  0.66586707  0.66586730  1
  Al  Al11  1  0.66586751  0.66586727  0.66586749  1
  Al  Al12  1  0.33413282  0.33413288  0.99760110  1
  Al  Al13  1  0.33413290  0.99760132  0.33413265  1
  Al  Al14  1  0.99760154  0.33413275  0.33413263  1
  Al  Al15  1  0.33413260  0.33413240  0.33413265  1
  Pd  Pd0  1  0.00000034  0.00000023  -0.00000073  1
  Pd  Pd1  1  -0.00000006  0.00000015  0.50000052  1
  Pd  Pd2  1  0.49999988  0.00000029  0.50000003  1
  Pd  Pd3  1  0.00000043  0.49999896  0.50000065  1
  Pd  Pd4  1  0.49999979  0.50000008  0.00000046  1
  Pd  Pd5  1  -0.00000022  0.49999993  0.00000012  1
  Pd  Pd6  1  0.50000016  -0.00000018  -0.00000007  1
loop_
_geom_bond_atom_site_label_1
_geom_bond_atom_site_label_2
_geom_bond_distance
_geom_bond_site_symmetry_2
Hf0 Hf2 3.178235 1_555
Hf0 Hf4 3.178235 1_555
Hf0 Hf5 3.178239 1_555
Hf0 Hf1 3.178241 1_555
Hf0 Pd5 3.185413 1_655
Hf0 Pd6 3.185416 1_565
Hf0 Pd2 3.185417 1_565
Hf0 Pd3 3.185417 1_655
Hf1 Hf2 3.178233 1_555
Hf1 Hf3 3.178235 1_555
Hf1 Hf5 3.178236 1_555
Hf1 Pd4 3.185411 1_555
Hf1 Pd3 3.185415 1_555
Hf1 Pd6 3.185417 1_565
Hf1 Pd1 3.185418 1_565
Hf2 Hf4 3.178231 1_555
Hf2 Hf3 3.178233 1_555
Hf2 Pd2 3.185413 1_555
Hf2 Pd4 3.185415 1_555
Hf2 Pd5 3.185416 1_655
Hf2 Pd1 3.185416 1_655
Hf3 Hf5 3.178241 1_555
Hf3 Hf4 3.178242 1_555
Hf3 Pd3 3.185406 1_555
Hf3 Pd2 3.185412 1_555
Hf3 Pd5 3.185416 1_556
Hf3 Pd6 3.185417 1_556
Hf4 Hf5 3.178244 1_555
Hf4 Pd1 3.185408 1_655
Hf4 Pd3 3.185410 1_655
Hf4 Pd6 3.185417 1_556
Hf4 Pd4 3.185422 1_556
Hf5 Pd1 3.185409 1_565
Hf5 Pd2 3.185414 1_565
Hf5 Pd5 3.185417 1_556
Hf5 Pd4 3.185420 1_556
Al0 Pd0 2.564114 1_665
Al0 Pd2 2.698561 1_565
Al0 Pd1 2.698561 1_665
Al0 Pd3 2.698568 1_655
Al0 Al9 2.747270 1_565
Al0 Al11 2.747270 1_555
Al0 Al10 2.747271 1_655
Al0 Al7 2.960774 1_665
Al0 Al6 2.960779 1_565
Al0 Al5 2.960780 1_655
Al0 Hf1 3.202838 1_655
Al0 Hf0 3.202841 1_555
Al0 Hf2 3.202842 1_565
Al1 Pd0 2.564106 1_656
Al1 Pd5 2.698555 1_656
Al1 Pd3 2.698556 1_655
Al1 Pd4 2.698563 1_556
Al1 Al10 2.747269 1_655
Al1 Al11 2.747270 1_555
Al1 Al8 2.747270 1_556
Al1 Al7 2.960770 1_656
Al1 Al4 2.960779 1_655
Al1 Al6 2.960780 1_556
Al1 Hf3 3.202835 1_655
Al1 Hf4 3.202845 1_555
Al1 Hf2 3.202845 1_556
Al2 Pd0 2.564106 1_566
Al2 Pd6 2.698556 1_566
Al2 Pd2 2.698560 1_565
Al2 Pd4 2.698561 1_556
Al2 Al9 2.747268 1_565
Al2 Al8 2.747272 1_556
Al2 Al7 2.960774 1_566
Al2 Al4 2.960779 1_565
Al2 Al5 2.960782 1_556
Al2 Hf3 3.202838 1_565
Al2 Hf1 3.202842 1_556
Al2 Hf5 3.202843 1_555
Al3 Pd0 2.564104 1_666
Al3 Pd1 2.698558 1_665
Al3 Pd6 2.698560 1_566
Al3 Pd5 2.698560 1_656
Al3 Al8 2.747272 1_556
Al3 Al9 2.747272 1_565
Al3 Al5 2.960772 1_656
Al3 Al6 2.960774 1_566
Al3 Al4 2.960775 1_665
Al3 Hf5 3.202836 1_655
Al3 Hf0 3.202840 1_556
Al3 Hf4 3.202840 1_565
Al4 Pd0 2.564104 1_556
Al4 Pd3 2.698552 1_555
Al4 Pd1 2.698554 1_555
Al4 Pd2 2.698559 1_555
Al4 Hf5 3.202836 1_545
Al4 Hf4 3.202836 1_455
Al4 Hf3 3.202840 1_555
Al5 Pd0 2.564111 1_565
Al5 Pd5 2.698557 1_555
Al5 Pd4 2.698559 1_555
Al5 Pd3 2.698566 1_555
Al5 Hf0 3.202835 1_455
Al5 Hf5 3.202840 1_554
Al5 Hf1 3.202844 1_555
Al6 Pd0 2.564110 1_655
Al6 Pd6 2.698558 1_555
Al6 Pd2 2.698561 1_555
Al6 Pd4 2.698561 1_555
Al6 Hf0 3.202839 1_545
Al6 Hf4 3.202842 1_554
Al6 Hf2 3.202847 1_555
Al7 Pd0 2.564106 1_555
Al7 Pd5 2.698559 1_555
Al7 Pd6 2.698562 1_555
Al7 Pd1 2.698566 1_555
Al7 Hf3 3.202840 1_554
Al7 Hf1 3.202843 1_545
Al7 Hf2 3.202843 1_455
Al8 Pd5 2.511434 1_655
Al8 Pd6 2.511436 1_565
Al8 Pd4 2.511438 1_555
Al8 Hf0 2.893369 1_555
Al8 Hf2 2.893370 1_555
Al8 Hf1 2.893371 1_555
Al8 Al9 2.927714 1_564
Al9 Pd6 2.511436 1_556
Al9 Pd1 2.511437 1_655
Al9 Pd2 2.511438 1_555
Al9 Hf2 2.893370 1_555
Al9 Hf4 2.893370 1_555
Al9 Hf3 2.893372 1_555
Al10 Pd5 2.511437 1_556
Al10 Pd1 2.511439 1_565
Al10 Pd3 2.511440 1_555
Al10 Al3 2.747272 1_455
Al10 Hf5 2.893367 1_555
Al10 Hf3 2.893367 1_555
Al10 Hf1 2.893369 1_555
Al10 Al11 2.927710 1_455
Al10 Al9 2.927713 1_465
Al10 Al8 2.927714 1_456
Al11 Pd3 2.511440 1_655
Al11 Pd4 2.511440 1_556
Al11 Pd2 2.511440 1_565
Al11 Al2 2.747270 1_555
Al11 Hf0 2.893374 1_555
Al11 Hf4 2.893375 1_555
Al11 Hf5 2.893376 1_555
Al11 Al9 2.927709 1_565
Al11 Al8 2.927712 1_556
Al12 Pd5 2.511437 1_556
Al12 Pd6 2.511438 1_556
Al12 Pd4 2.511441 1_556
Al12 Al5 2.747270 1_556
Al12 Al6 2.747271 1_556
Al12 Al7 2.747272 1_556
Al12 Hf3 2.893370 1_555
Al12 Hf5 2.893373 1_555
Al12 Hf4 2.893373 1_555
Al12 Al15 2.927713 1_556
Al12 Al14 2.927714 1_456
Al12 Al13 2.927715 1_546
Al13 Pd6 2.511437 1_565
Al13 Pd1 2.511437 1_565
Al13 Pd2 2.511440 1_565
Al13 Al6 2.747270 1_565
Al13 Al4 2.747272 1_565
Al13 Al7 2.747273 1_565
Al13 Hf5 2.893367 1_555
Al13 Hf1 2.893370 1_555
Al13 Hf0 2.893371 1_555
Al13 Al15 2.927710 1_565
Al13 Al14 2.927713 1_465
Al14 Pd1 2.511436 1_655
Al14 Pd5 2.511436 1_655
Al14 Pd3 2.511439 1_655
Al14 Al5 2.747269 1_655
Al14 Al4 2.747270 1_655
Al14 Al7 2.747271 1_655
Al14 Hf4 2.893368 1_555
Al14 Hf0 2.893368 1_555
Al14 Hf2 2.893369 1_555
Al14 Al15 2.927709 1_655
Al15 Pd3 2.511434 1_555
Al15 Pd2 2.511435 1_555
Al15 Pd4 2.511436 1_555
Al15 Al4 2.747268 1_555
Al15 Al6 2.747269 1_555
Al15 Al5 2.747271 1_555
Al15 Hf3 2.893373 1_555
Al15 Hf2 2.893374 1_555
Al15 Hf1 2.893374 1_555
