# generated using pymatgen
data_K4UC2O11
_symmetry_space_group_name_H-M   'P 1'
_cell_length_a   9.29461800
_cell_length_b   7.12462300
_cell_length_c   19.42248843
_cell_angle_alpha   70.34850579
_cell_angle_beta   90.00000000
_cell_angle_gamma   90.00000000
_symmetry_Int_Tables_number   1
_chemical_formula_structural   K4UC2O11
_chemical_formula_sum   'K16 U4 C8 O44'
_cell_volume   1211.25758843
_cell_formula_units_Z   4
loop_
 _symmetry_equiv_pos_site_id
 _symmetry_equiv_pos_as_xyz
  1  'x, y, z'
loop_
 _atom_site_type_symbol
 _atom_site_label
 _atom_site_symmetry_multiplicity
 _atom_site_fract_x
 _atom_site_fract_y
 _atom_site_fract_z
 _atom_site_occupancy
  K  K0  1  0.81920900  0.29528400  0.80237400  1
  K  K1  1  0.68079100  0.29528400  0.30237400  1
  K  K2  1  0.18079100  0.70471600  0.19762600  1
  K  K3  1  0.31920900  0.70471600  0.69762600  1
  K  K4  1  0.48189900  0.20706900  0.70293200  1
  K  K5  1  0.01810100  0.20706900  0.20293200  1
  K  K6  1  0.51810100  0.79293100  0.29706800  1
  K  K7  1  0.98189900  0.79293100  0.79706800  1
  K  K8  1  0.59088000  0.72043200  0.51595600  1
  K  K9  1  0.90912000  0.72043200  0.01595600  1
  K  K10  1  0.40912000  0.27956800  0.48404400  1
  K  K11  1  0.09088000  0.27956800  0.98404400  1
  K  K12  1  0.01201000  0.61759100  0.58359200  1
  K  K13  1  0.48799000  0.61759100  0.08359200  1
  K  K14  1  0.98799000  0.38240900  0.41640800  1
  K  K15  1  0.51201000  0.38240900  0.91640800  1
  U  U0  1  0.81982700  0.06250000  0.61265200  1
  U  U1  1  0.68017300  0.06250000  0.11265200  1
  U  U2  1  0.18017300  0.93750000  0.38734800  1
  U  U3  1  0.31982700  0.93750000  0.88734800  1
  C  C0  1  0.12838100  0.10261100  0.61033200  1
  C  C1  1  0.37161900  0.10261100  0.11033200  1
  C  C2  1  0.87161900  0.89738900  0.38966800  1
  C  C3  1  0.62838100  0.89738900  0.88966800  1
  C  C4  1  0.66492800  0.70092400  0.68972900  1
  C  C5  1  0.83507200  0.70092400  0.18972900  1
  C  C6  1  0.33507200  0.29907600  0.31027100  1
  C  C7  1  0.16492800  0.29907600  0.81027100  1
  O  O0  1  0.62985200  0.28850400  0.57413900  1
  O  O1  1  0.87014800  0.28850400  0.07413900  1
  O  O2  1  0.37014800  0.71149600  0.42586100  1
  O  O3  1  0.12985200  0.71149600  0.92586100  1
  O  O4  1  0.75203000  0.39440500  0.54307600  1
  O  O5  1  0.74797000  0.39440500  0.04307600  1
  O  O6  1  0.24797000  0.60559500  0.45692400  1
  O  O7  1  0.25203000  0.60559500  0.95692400  1
  O  O8  1  0.82070100  0.12531500  0.69791400  1
  O  O9  1  0.67929900  0.12531500  0.19791400  1
  O  O10  1  0.17929900  0.87468500  0.30208600  1
  O  O11  1  0.32070100  0.87468500  0.80208600  1
  O  O12  1  0.81603800  0.98668500  0.53043200  1
  O  O13  1  0.68396200  0.98668500  0.03043200  1
  O  O14  1  0.18396200  0.01331500  0.46956800  1
  O  O15  1  0.31603800  0.01331500  0.96956800  1
  O  O16  1  0.04116500  0.24755100  0.57386800  1
  O  O17  1  0.45883500  0.24755100  0.07386800  1
  O  O18  1  0.95883500  0.75244900  0.42613200  1
  O  O19  1  0.54116500  0.75244900  0.92613200  1
  O  O20  1  0.26320900  0.12260300  0.61440400  1
  O  O21  1  0.23679100  0.12260300  0.11440400  1
  O  O22  1  0.73679100  0.87739700  0.38559600  1
  O  O23  1  0.76320900  0.87739700  0.88559600  1
  O  O24  1  0.06277300  0.93081700  0.64381700  1
  O  O25  1  0.43722700  0.93081700  0.14381700  1
  O  O26  1  0.93722700  0.06918300  0.35618300  1
  O  O27  1  0.56277300  0.06918300  0.85618300  1
  O  O28  1  0.80698300  0.71123700  0.68801400  1
  O  O29  1  0.69301700  0.71123700  0.18801400  1
  O  O30  1  0.19301700  0.28876300  0.31198600  1
  O  O31  1  0.30698300  0.28876300  0.81198600  1
  O  O32  1  0.59713400  0.54463000  0.72456800  1
  O  O33  1  0.90286600  0.54463000  0.22456800  1
  O  O34  1  0.40286600  0.45537000  0.27543200  1
  O  O35  1  0.09713400  0.45537000  0.77543200  1
  O  O36  1  0.59902400  0.86825600  0.65088500  1
  O  O37  1  0.90097600  0.86825600  0.15088500  1
  O  O38  1  0.40097600  0.13174400  0.34911500  1
  O  O39  1  0.09902400  0.13174400  0.84911500  1
  O  O40  1  0.69147000  0.46801000  0.41044200  1
  O  O41  1  0.80853000  0.46801000  0.91044200  1
  O  O42  1  0.30853000  0.53199000  0.58955800  1
  O  O43  1  0.19147000  0.53199000  0.08955800  1
loop_
_geom_bond_atom_site_label_1
_geom_bond_atom_site_label_2
_geom_bond_distance
_geom_bond_site_symmetry_2
K0 O8 2.689880 1_555
K0 O41 2.768960 1_555
K0 O35 2.801109 1_655
K0 O32 2.809711 1_555
K0 O39 2.869551 1_655
K0 O27 2.869808 1_555
K0 O23 2.917365 1_545
K0 O28 3.049840 1_555
K1 O9 2.689880 1_555
K1 O40 2.768960 1_555
K1 O34 2.801109 1_555
K1 O33 2.809711 1_555
K1 O38 2.869551 1_555
K1 O26 2.869808 1_555
K1 O22 2.917365 1_545
K1 O29 3.049840 1_555
K2 O10 2.689880 1_555
K2 O43 2.768960 1_555
K2 O33 2.801109 1_455
K2 O34 2.809711 1_555
K2 O37 2.869551 1_455
K2 O25 2.869808 1_555
K2 O21 2.917365 1_565
K2 O30 3.049840 1_555
K3 O11 2.689880 1_555
K3 O42 2.768960 1_555
K3 O32 2.801109 1_555
K3 O35 2.809711 1_555
K3 O36 2.869551 1_555
K3 O24 2.869808 1_555
K3 O20 2.917365 1_565
K3 O31 3.049840 1_555
K4 O0 2.740245 1_555
K4 O32 2.790613 1_555
K4 O20 2.854153 1_555
K4 O31 2.880531 1_555
K4 O27 2.902248 1_555
K4 O11 2.914470 1_545
K4 O42 3.061995 1_555
K4 O36 3.110506 1_545
K4 O8 3.209886 1_555
K5 O1 2.740245 1_455
K5 O33 2.790613 1_455
K5 O21 2.854153 1_555
K5 O30 2.880531 1_555
K5 O26 2.902248 1_455
K5 O10 2.914470 1_545
K5 O43 3.061995 1_555
K5 O37 3.110506 1_445
K5 O9 3.209886 1_455
K6 O2 2.740245 1_555
K6 O34 2.790613 1_555
K6 O22 2.854153 1_555
K6 O29 2.880531 1_555
K6 O25 2.902248 1_555
K6 O9 2.914470 1_565
K6 O40 3.061995 1_555
K6 O38 3.110506 1_565
K6 O10 3.209886 1_555
K7 O3 2.740245 1_655
K7 O35 2.790613 1_655
K7 O23 2.854153 1_555
K7 O28 2.880531 1_555
K7 O24 2.902248 1_655
K7 O8 2.914470 1_565
K7 O41 3.061995 1_555
K7 O39 3.110506 1_665
K7 O11 3.209886 1_655
K8 O4 2.663362 1_555
K8 O2 2.711120 1_555
K8 O22 2.756089 1_555
K8 O12 2.901007 1_555
K8 O0 2.922187 1_555
K8 O42 3.072838 1_555
K8 O36 3.136747 1_555
K9 O5 2.663362 1_555
K9 O3 2.711120 1_654
K9 O23 2.756089 1_554
K9 O13 2.901007 1_555
K9 O1 2.922187 1_555
K9 O43 3.072838 1_655
K9 O37 3.136747 1_555
K10 O6 2.663362 1_555
K10 O0 2.711120 1_555
K10 O20 2.756089 1_555
K10 O14 2.901007 1_555
K10 O2 2.922187 1_555
K10 O40 3.072838 1_555
K10 O38 3.136747 1_555
K11 O7 2.663362 1_555
K11 O1 2.711120 1_456
K11 O21 2.756089 1_556
K11 O15 2.901007 1_555
K11 O3 2.922187 1_555
K11 O41 3.072838 1_455
K11 O39 3.136747 1_555
K12 O16 2.719298 1_555
K12 O42 2.816665 1_555
K12 O24 2.885602 1_555
K12 O18 2.923021 1_455
K12 O28 3.016637 1_455
K12 O12 3.077787 1_455
K12 O4 3.135027 1_455
K13 O17 2.719298 1_555
K13 O43 2.816665 1_555
K13 O25 2.885602 1_555
K13 O19 2.923021 1_554
K13 O29 3.016637 1_555
K13 O13 3.077787 1_555
K13 O5 3.135027 1_555
K14 O18 2.719298 1_555
K14 O40 2.816665 1_555
K14 O26 2.885602 1_555
K14 O16 2.923021 1_655
K14 O30 3.016637 1_655
K14 O14 3.077787 1_655
K14 O6 3.135027 1_655
K15 O19 2.719298 1_555
K15 O41 2.816665 1_555
K15 O27 2.885602 1_555
K15 O17 2.923021 1_556
K15 O31 3.016637 1_555
K15 O15 3.077787 1_555
K15 O7 3.135027 1_555
C0 O20 1.266715 1_555
C0 O16 1.316499 1_555
C0 O24 1.325716 1_545
C1 O21 1.266715 1_555
C1 O17 1.316499 1_555
C1 O25 1.325716 1_545
C2 O22 1.266715 1_555
C2 O18 1.316499 1_555
C2 O26 1.325716 1_565
C3 O23 1.266715 1_555
C3 O19 1.316499 1_555
C3 O27 1.325716 1_565
C4 O32 1.260194 1_555
C4 O28 1.322187 1_555
C4 O36 1.326929 1_555
C5 O33 1.260194 1_555
C5 O29 1.322187 1_555
C5 O37 1.326929 1_555
C6 O34 1.260194 1_555
C6 O30 1.322187 1_555
C6 O38 1.326929 1_555
C7 O35 1.260194 1_555
C7 O31 1.322187 1_555
C7 O39 1.326929 1_555
O0 O4 1.384444 1_555
O0 U0 2.336664 1_555
O1 O5 1.384444 1_555
O1 U1 2.336664 1_555
O2 O6 1.384444 1_555
O2 U2 2.336664 1_555
O3 O7 1.384444 1_555
O3 U3 2.336664 1_555
O4 U0 2.380276 1_555
O5 U1 2.380276 1_555
O6 U2 2.380276 1_555
O7 U3 2.380276 1_555
O8 U0 1.855036 1_555
O9 U1 1.855036 1_555
O10 U2 1.855036 1_555
O11 U3 1.855036 1_555
O12 U0 1.850221 1_565
O13 U1 1.850221 1_565
O14 U2 1.850221 1_545
O15 U3 1.850221 1_545
O16 U0 2.422801 1_455
O17 U1 2.422801 1_555
O18 U2 2.422801 1_655
O19 U3 2.422801 1_555
O24 U0 2.442049 1_465
O25 U1 2.442049 1_565
O26 U2 2.442049 1_645
O27 U3 2.442049 1_545
O28 U0 2.440493 1_565
O29 U1 2.440493 1_565
O30 U2 2.440493 1_545
O31 U3 2.440493 1_545
O36 U0 2.446894 1_565
O37 U1 2.446894 1_565
O38 U2 2.446894 1_545
O39 U3 2.446894 1_545
