# generated using pymatgen
data_Li9Mn7O16
_symmetry_space_group_name_H-M   'P 1'
_cell_length_a   11.32866852
_cell_length_b   11.32866852
_cell_length_c   9.78860729
_cell_angle_alpha   71.48932117
_cell_angle_beta   71.48932117
_cell_angle_gamma   14.60392790
_symmetry_Int_Tables_number   1
_chemical_formula_structural   Li9Mn7O16
_chemical_formula_sum   'Li9 Mn7 O16'
_cell_volume   300.08373163
_cell_formula_units_Z   1
loop_
 _symmetry_equiv_pos_site_id
 _symmetry_equiv_pos_as_xyz
  1  'x, y, z'
loop_
 _atom_site_type_symbol
 _atom_site_label
 _atom_site_symmetry_multiplicity
 _atom_site_fract_x
 _atom_site_fract_y
 _atom_site_fract_z
 _atom_site_occupancy
  Li  Li0  1  0.93800100  0.93800100  0.80348600  1
  Li  Li1  1  0.06199900  0.06199900  0.19651400  1
  Li  Li2  1  0.18227800  0.18227800  0.56105600  1
  Li  Li3  1  0.55882800  0.55882800  0.68340000  1
  Li  Li4  1  0.68616400  0.68616400  0.06108200  1
  Li  Li5  1  0.81772200  0.81772200  0.43894400  1
  Li  Li6  1  0.31383600  0.31383600  0.93891800  1
  Li  Li7  1  0.44117200  0.44117200  0.31660000  1
  Li  Li8  1  0.00000000  0.00000000  0.50000000  1
  Mn  Mn0  1  0.38270100  0.38270100  0.62376400  1
  Mn  Mn1  1  0.61729900  0.61729900  0.37623600  1
  Mn  Mn2  1  0.50000000  0.50000000  0.00000000  1
  Mn  Mn3  1  0.75388700  0.75388700  0.74760900  1
  Mn  Mn4  1  0.87387700  0.87387700  0.12972700  1
  Mn  Mn5  1  0.12612300  0.12612300  0.87027300  1
  Mn  Mn6  1  0.24611300  0.24611300  0.25239100  1
  O  O0  1  0.84970400  0.84970400  0.76411700  1
  O  O1  1  0.97428500  0.97428500  0.14484900  1
  O  O2  1  0.09645300  0.09645300  0.51696400  1
  O  O3  1  0.45859100  0.45859100  0.65336000  1
  O  O4  1  0.60011100  0.60011100  0.01222300  1
  O  O5  1  0.71337200  0.71337200  0.39468500  1
  O  O6  1  0.22546700  0.22546700  0.89009500  1
  O  O7  1  0.34588100  0.34588100  0.27377200  1
  O  O8  1  0.02571500  0.02571500  0.85515100  1
  O  O9  1  0.15029600  0.15029600  0.23588300  1
  O  O10  1  0.28662800  0.28662800  0.60531500  1
  O  O11  1  0.65411900  0.65411900  0.72622800  1
  O  O12  1  0.77453300  0.77453300  0.10990500  1
  O  O13  1  0.90354700  0.90354700  0.48303600  1
  O  O14  1  0.39988900  0.39988900  0.98777700  1
  O  O15  1  0.54140900  0.54140900  0.34664000  1
loop_
_geom_bond_atom_site_label_1
_geom_bond_atom_site_label_2
_geom_bond_distance
_geom_bond_site_symmetry_2
Li0 O3 2.002876 1_655
Li0 O3 2.002876 1_565
Li0 O0 2.139085 1_555
Li0 O8 2.186267 1_665
Li0 O14 2.252097 1_655
Li0 O14 2.252097 1_565
Li1 O15 2.002876 1_545
Li1 O15 2.002876 1_455
Li1 O9 2.139085 1_555
Li1 O1 2.186267 1_445
Li1 O4 2.252097 1_455
Li1 O4 2.252097 1_545
Li2 O11 2.105407 1_545
Li2 O11 2.105407 1_455
Li2 O2 2.106997 1_555
Li2 O5 2.117816 1_545
Li2 O5 2.117816 1_455
Li2 O10 2.517471 1_555
Li3 O2 2.135540 1_655
Li3 O2 2.135540 1_565
Li3 O8 2.156971 1_655
Li3 O8 2.156971 1_565
Li3 O11 2.310114 1_555
Li3 O3 2.363280 1_555
Li4 O4 2.135620 1_555
Li4 O6 2.169872 1_564
Li4 O6 2.169872 1_654
Li4 O9 2.183517 1_655
Li4 O9 2.183517 1_565
Li4 O12 2.186332 1_555
Li5 O7 2.105407 1_565
Li5 O7 2.105407 1_655
Li5 O13 2.106997 1_555
Li5 O10 2.117816 1_565
Li5 O10 2.117816 1_655
Li5 O5 2.517471 1_555
Li6 O14 2.135620 1_555
Li6 O12 2.169872 1_546
Li6 O12 2.169872 1_456
Li6 O0 2.183517 1_545
Li6 O0 2.183517 1_455
Li6 O6 2.186332 1_555
Li7 O13 2.135540 1_545
Li7 O13 2.135540 1_455
Li7 O1 2.156971 1_545
Li7 O1 2.156971 1_455
Li7 O7 2.310114 1_555
Li7 O15 2.363280 1_555
Li8 O15 2.073274 1_545
Li8 O15 2.073274 1_455
Li8 O3 2.073274 1_545
Li8 O3 2.073274 1_455
Li8 O2 2.226360 1_555
Li8 O13 2.226360 1_445
Mn0 O3 1.819073 1_555
Mn0 O13 1.943485 1_545
Mn0 O13 1.943485 1_455
Mn0 O0 1.964283 1_455
Mn0 O0 1.964283 1_545
Mn0 O10 2.223500 1_555
Mn1 O15 1.819073 1_555
Mn1 O2 1.943485 1_565
Mn1 O2 1.943485 1_655
Mn1 O9 1.964283 1_655
Mn1 O9 1.964283 1_565
Mn1 O5 2.223500 1_555
Mn2 O8 1.973064 1_654
Mn2 O8 1.973064 1_564
Mn2 O1 1.973064 1_545
Mn2 O1 1.973064 1_455
Mn2 O4 2.290955 1_555
Mn2 O14 2.290955 1_554
Mn3 O6 1.963712 1_565
Mn3 O6 1.963712 1_655
Mn3 O10 1.974483 1_655
Mn3 O10 1.974483 1_565
Mn3 O0 2.210381 1_555
Mn3 O11 2.317631 1_555
Mn4 O14 1.955924 1_564
Mn4 O14 1.955924 1_654
Mn4 O7 1.972117 1_565
Mn4 O7 1.972117 1_655
Mn4 O12 2.302072 1_555
Mn4 O1 2.308171 1_555
Mn5 O4 1.955924 1_546
Mn5 O4 1.955924 1_456
Mn5 O11 1.972117 1_545
Mn5 O11 1.972117 1_455
Mn5 O6 2.302072 1_555
Mn5 O8 2.308171 1_555
Mn6 O12 1.963712 1_545
Mn6 O12 1.963712 1_455
Mn6 O5 1.974483 1_545
Mn6 O5 1.974483 1_455
Mn6 O9 2.210381 1_555
Mn6 O7 2.317631 1_555
