# generated using pymatgen
data_ZrCrCuS4
_symmetry_space_group_name_H-M   'P 1'
_cell_length_a   3.58281300
_cell_length_b   6.05864000
_cell_length_c   11.69428499
_cell_angle_alpha   89.78027790
_cell_angle_beta   90.00000000
_cell_angle_gamma   90.00000000
_symmetry_Int_Tables_number   1
_chemical_formula_structural   ZrCrCuS4
_chemical_formula_sum   'Zr2 Cr2 Cu2 S8'
_cell_volume   253.84567545
_cell_formula_units_Z   2
loop_
 _symmetry_equiv_pos_site_id
 _symmetry_equiv_pos_as_xyz
  1  'x, y, z'
loop_
 _atom_site_type_symbol
 _atom_site_label
 _atom_site_symmetry_multiplicity
 _atom_site_fract_x
 _atom_site_fract_y
 _atom_site_fract_z
 _atom_site_occupancy
  Zr  Zr0  1  0.00000000  0.01785700  0.24461700  1
  Zr  Zr1  1  0.00000000  0.98214300  0.75538300  1
  Cr  Cr0  1  0.50000000  0.51195400  0.74237500  1
  Cr  Cr1  1  0.50000000  0.48804600  0.25762500  1
  Cu  Cu0  1  0.50000000  0.50000000  0.00000000  1
  Cu  Cu1  1  0.00000000  0.00000000  0.50000000  1
  S  S0  1  0.50000000  0.18243000  0.11709600  1
  S  S1  1  0.50000000  0.81757000  0.88290400  1
  S  S2  1  0.00000000  0.65605600  0.62323500  1
  S  S3  1  0.00000000  0.34394400  0.37676500  1
  S  S4  1  0.00000000  0.64383800  0.13854400  1
  S  S5  1  0.00000000  0.35616200  0.86145600  1
  S  S6  1  0.50000000  0.17409200  0.62649000  1
  S  S7  1  0.50000000  0.82590800  0.37351000  1
loop_
_geom_bond_atom_site_label_1
_geom_bond_atom_site_label_2
_geom_bond_distance
_geom_bond_site_symmetry_2
Cr0 S2 2.429652 1_655
Cr0 S2 2.429652 1_555
Cr0 S5 2.455448 1_555
Cr0 S5 2.455448 1_655
Cr0 S6 2.459261 1_555
Cr0 S1 2.480432 1_555
Cr1 S3 2.429652 1_655
Cr1 S3 2.429652 1_555
Cr1 S4 2.455448 1_555
Cr1 S4 2.455448 1_655
Cr1 S7 2.459261 1_555
Cr1 S0 2.480432 1_555
Cu0 S1 2.357300 1_554
Cu0 S0 2.357300 1_555
Cu0 S5 2.569898 1_554
Cu0 S4 2.569898 1_655
Cu0 S5 2.569898 1_654
Cu0 S4 2.569898 1_555
Cu1 S2 2.529076 1_545
Cu1 S3 2.529076 1_555
Cu1 S7 2.553759 1_445
Cu1 S6 2.553759 1_455
Cu1 S7 2.553759 1_545
Cu1 S6 2.553759 1_555
S0 Zr0 2.532942 1_655
S0 Zr0 2.532942 1_555
S1 Zr1 2.532942 1_555
S1 Zr1 2.532942 1_655
S2 Zr1 2.512921 1_555
S3 Zr0 2.512921 1_555
S4 Zr0 2.587516 1_565
S5 Zr1 2.587516 1_545
S6 Zr1 2.611538 1_645
S6 Zr1 2.611538 1_545
S7 Zr0 2.611538 1_565
S7 Zr0 2.611538 1_665
