# generated using pymatgen
data_Na4SrCaSi2
_symmetry_space_group_name_H-M   'P 1'
_cell_length_a   5.29914300
_cell_length_b   5.29914300
_cell_length_c   7.43170800
_cell_angle_alpha   90.00000000
_cell_angle_beta   90.00000000
_cell_angle_gamma   90.00000000
_symmetry_Int_Tables_number   1
_chemical_formula_structural   Na4SrCaSi2
_chemical_formula_sum   'Na4 Sr1 Ca1 Si2'
_cell_volume   208.68917206
_cell_formula_units_Z   1
loop_
 _symmetry_equiv_pos_site_id
 _symmetry_equiv_pos_as_xyz
  1  'x, y, z'
loop_
 _atom_site_type_symbol
 _atom_site_label
 _atom_site_symmetry_multiplicity
 _atom_site_fract_x
 _atom_site_fract_y
 _atom_site_fract_z
 _atom_site_occupancy
  Na  Na0  1  0.50000000  0.00000000  0.25687900  1
  Na  Na1  1  0.00000000  0.50000000  0.74312100  1
  Na  Na2  1  0.50000000  0.50000000  0.00000000  1
  Na  Na3  1  0.00000000  0.00000000  0.50000000  1
  Sr  Sr0  1  0.00000000  0.00000000  0.00000000  1
  Ca  Ca0  1  0.50000000  0.50000000  0.50000000  1
  Si  Si0  1  0.50000000  0.00000000  0.74231700  1
  Si  Si1  1  0.00000000  0.50000000  0.25768300  1
loop_
_geom_bond_atom_site_label_1
_geom_bond_atom_site_label_2
_geom_bond_distance
_geom_bond_site_symmetry_2
Na0 Na3 3.206988 1_655
Na0 Na3 3.206988 1_555
Na0 Na2 3.265685 1_545
Na0 Sr0 3.265685 1_655
Na0 Na2 3.265685 1_555
Na0 Sr0 3.265685 1_555
Na1 Na3 3.206988 1_555
Na1 Na3 3.206988 1_565
Na1 Sr0 3.265685 1_566
Na1 Na2 3.265685 1_456
Na1 Na2 3.265685 1_556
Na1 Sr0 3.265685 1_556
Na2 Si1 3.269182 1_555
Na2 Si0 3.269182 1_554
Na2 Si1 3.269182 1_655
Na2 Si0 3.269182 1_564
Na3 Si0 3.203625 1_555
Na3 Si1 3.203625 1_545
Na3 Si1 3.203625 1_555
Na3 Si0 3.203625 1_455
Ca0 Si0 3.203625 1_565
Ca0 Si0 3.203625 1_555
Ca0 Si1 3.203625 1_555
Ca0 Si1 3.203625 1_655
Ca0 Na1 3.206988 1_555
Ca0 Na1 3.206988 1_655
Ca0 Na0 3.206988 1_565
Ca0 Na0 3.206988 1_555
Si0 Sr0 3.269182 1_556
Si0 Sr0 3.269182 1_656
Si1 Sr0 3.269182 1_555
Si1 Sr0 3.269182 1_565
