# generated using pymatgen
data_NaLa2Mn3O9
_symmetry_space_group_name_H-M   'P 1'
_cell_length_a   5.50108676
_cell_length_b   8.72533724
_cell_length_c   8.55525107
_cell_angle_alpha   101.69277046
_cell_angle_beta   108.63561423
_cell_angle_gamma   108.73858737
_symmetry_Int_Tables_number   1
_chemical_formula_structural   NaLa2Mn3O9
_chemical_formula_sum   'Na2 La4 Mn6 O18'
_cell_volume   346.50144754
_cell_formula_units_Z   2
loop_
 _symmetry_equiv_pos_site_id
 _symmetry_equiv_pos_as_xyz
  1  'x, y, z'
loop_
 _atom_site_type_symbol
 _atom_site_label
 _atom_site_symmetry_multiplicity
 _atom_site_fract_x
 _atom_site_fract_y
 _atom_site_fract_z
 _atom_site_occupancy
  Na  Na0  1  0.33332400  0.41666000  0.24998600  1
  Na  Na1  1  0.33331900  0.91665500  0.74997900  1
  La  La0  1  0.00025200  0.24622400  0.75453700  1
  La  La1  1  0.00023100  0.74621400  0.25451800  1
  La  La2  1  0.66644100  0.58711200  0.74546600  1
  La  La3  1  0.66642800  0.08711500  0.24548100  1
  Mn  Mn0  1  0.33333200  0.16665500  0.50002500  1
  Mn  Mn1  1  0.66716800  0.83135200  0.50205900  1
  Mn  Mn2  1  0.99949100  0.50200600  0.49792600  1
  Mn  Mn3  1  0.33334000  0.66666300  0.00002500  1
  Mn  Mn4  1  0.66716400  0.33134700  0.00206100  1
  Mn  Mn5  1  0.99948400  0.00199500  0.99792800  1
  O  O0  1  0.83332800  0.16669200  0.00000500  1
  O  O1  1  0.83332100  0.66670000  0.50000100  1
  O  O2  1  0.83334400  0.41668600  0.25000500  1
  O  O3  1  0.83335100  0.91668800  0.75001100  1
  O  O4  1  0.33335700  0.16668800  0.00000300  1
  O  O5  1  0.33336400  0.66669600  0.50000300  1
  O  O6  1  0.50432000  0.50399100  0.99243900  1
  O  O7  1  0.50431700  0.00398900  0.49244200  1
  O  O8  1  0.16234100  0.82929800  0.00755800  1
  O  O9  1  0.16234400  0.32929400  0.50755400  1
  O  O10  1  0.50547800  0.26052200  0.75034200  1
  O  O11  1  0.50547500  0.76051800  0.25033600  1
  O  O12  1  0.16119800  0.57283300  0.74966400  1
  O  O13  1  0.16119800  0.07283000  0.24966600  1
  O  O14  1  0.99099600  0.50382400  0.99201300  1
  O  O15  1  0.99099200  0.00382900  0.49201400  1
  O  O16  1  0.67565200  0.82946400  0.00797600  1
  O  O17  1  0.67564800  0.32946100  0.50797700  1
loop_
_geom_bond_atom_site_label_1
_geom_bond_atom_site_label_2
_geom_bond_distance
_geom_bond_site_symmetry_2
Na0 O0 2.718772 1_455
Na0 O1 2.719062 1_555
Na0 O4 2.727793 1_555
Na0 O5 2.728128 1_555
Na0 O2 2.750529 1_555
Na0 O2 2.750558 1_455
Na0 O6 2.804456 1_554
Na0 O9 2.804681 1_555
Na0 O14 2.817810 1_454
Na0 O17 2.818091 1_555
Na0 O13 2.840187 1_555
Na0 O11 2.840336 1_555
Na1 O1 2.718734 1_455
Na1 O0 2.719115 1_566
Na1 O5 2.727716 1_555
Na1 O4 2.728154 1_566
Na1 O3 2.750539 1_555
Na1 O3 2.750547 1_455
Na1 O7 2.804389 1_565
Na1 O8 2.804740 1_556
Na1 O15 2.817820 1_465
Na1 O16 2.818103 1_556
Na1 O12 2.840135 1_555
Na1 O10 2.840375 1_565
La0 O0 2.673693 1_456
La0 O9 2.682329 1_555
La0 O4 2.682900 1_556
La0 O17 2.685617 1_455
La0 O3 2.710699 1_445
La0 O12 2.712466 1_555
La0 O7 2.720791 1_455
La0 O6 2.724095 1_555
La0 O15 2.729894 1_455
La0 O14 2.733296 1_455
La0 O10 2.753647 1_455
La0 O10 2.753925 1_555
La1 O1 2.673727 1_455
La1 O8 2.682231 1_555
La1 O5 2.682980 1_555
La1 O16 2.685524 1_455
La1 O2 2.710668 1_455
La1 O13 2.712464 1_565
La1 O6 2.720648 1_454
La1 O7 2.724218 1_565
La1 O14 2.729834 1_454
La1 O15 2.733436 1_465
La1 O11 2.753600 1_455
La1 O11 2.753971 1_555
La2 O1 2.673696 1_555
La2 O6 2.682471 1_555
La2 O5 2.683071 1_555
La2 O14 2.685698 1_555
La2 O3 2.710980 1_555
La2 O10 2.712317 1_555
La2 O8 2.720564 1_656
La2 O9 2.724353 1_555
La2 O16 2.729727 1_556
La2 O17 2.733522 1_555
La2 O12 2.753485 1_655
La2 O12 2.754073 1_555
La3 O0 2.673811 1_555
La3 O7 2.682360 1_555
La3 O4 2.683073 1_555
La3 O15 2.685636 1_555
La3 O2 2.710994 1_555
La3 O11 2.712316 1_545
La3 O9 2.720534 1_655
La3 O8 2.724345 1_545
La3 O17 2.729592 1_555
La3 O16 2.733651 1_545
La3 O13 2.753608 1_655
La3 O13 2.753949 1_555
Mn0 O10 1.910071 1_555
Mn0 O13 1.910370 1_555
Mn0 O15 1.930990 1_455
Mn0 O17 1.931036 1_555
Mn0 O9 1.939586 1_555
Mn0 O7 1.939800 1_555
Mn1 O3 1.890264 1_555
Mn1 O11 1.921987 1_555
Mn1 O5 1.926239 1_555
Mn1 O1 1.934789 1_555
Mn1 O15 1.968073 1_565
Mn1 O7 1.987075 1_565
Mn2 O2 1.890027 1_555
Mn2 O12 1.922106 1_655
Mn2 O5 1.926558 1_655
Mn2 O1 1.935185 1_555
Mn2 O17 1.968455 1_555
Mn2 O9 1.987683 1_655
Mn3 O11 1.910022 1_555
Mn3 O12 1.910387 1_554
Mn3 O16 1.931006 1_555
Mn3 O14 1.931050 1_454
Mn3 O8 1.939601 1_555
Mn3 O6 1.939827 1_554
Mn4 O2 1.890204 1_555
Mn4 O10 1.921960 1_554
Mn4 O4 1.926254 1_555
Mn4 O0 1.934856 1_555
Mn4 O14 1.968115 1_554
Mn4 O6 1.987106 1_554
Mn5 O3 1.889996 1_545
Mn5 O13 1.922103 1_656
Mn5 O4 1.926577 1_656
Mn5 O0 1.935153 1_556
Mn5 O16 1.968343 1_546
Mn5 O8 1.987580 1_646
