# generated using pymatgen
data_Tb2In3Cu
_symmetry_space_group_name_H-M   'P 1'
_cell_length_a   4.72026304
_cell_length_b   4.72026304
_cell_length_c   7.50472800
_cell_angle_alpha   90.00000000
_cell_angle_beta   90.00000000
_cell_angle_gamma   120.00001451
_symmetry_Int_Tables_number   1
_chemical_formula_structural   Tb2In3Cu
_chemical_formula_sum   'Tb2 In3 Cu1'
_cell_volume   144.80979044
_cell_formula_units_Z   1
loop_
 _symmetry_equiv_pos_site_id
 _symmetry_equiv_pos_as_xyz
  1  'x, y, z'
loop_
 _atom_site_type_symbol
 _atom_site_label
 _atom_site_symmetry_multiplicity
 _atom_site_fract_x
 _atom_site_fract_y
 _atom_site_fract_z
 _atom_site_occupancy
  Tb  Tb0  1  0.00000000  0.00000000  0.72525600  1
  Tb  Tb1  1  0.00000000  0.00000000  0.26339300  1
  In  In0  1  0.33333300  0.66666700  0.48512500  1
  In  In1  1  0.33333300  0.66666700  0.05273300  1
  In  In2  1  0.66666700  0.33333300  0.93283000  1
  Cu  Cu0  1  0.66666700  0.33333300  0.54066300  1
loop_
_geom_bond_atom_site_label_1
_geom_bond_atom_site_label_2
_geom_bond_distance
_geom_bond_site_symmetry_2
Tb0 Tb1 3.466156 1_555
Tb0 Tb1 4.038572 1_556
In0 Tb1 3.193113 1_565
In0 Tb1 3.193116 1_665
In0 Tb1 3.193116 1_555
In0 In1 3.244984 1_555
In0 Tb0 3.267197 1_565
In0 Tb0 3.267200 1_665
In0 Tb0 3.267200 1_555
In1 In2 2.869957 1_564
In1 In2 2.869957 1_454
In1 In2 2.869966 1_554
In1 Tb1 3.150609 1_565
In1 Tb1 3.150612 1_665
In1 Tb1 3.150612 1_555
In1 Tb0 3.669724 1_564
In1 Tb0 3.669726 1_664
In1 Tb0 3.669726 1_554
In2 Tb0 3.139052 1_655
In2 Tb0 3.139055 1_555
In2 Tb0 3.139055 1_665
In2 Tb1 3.685274 1_656
In2 Tb1 3.685276 1_666
In2 Tb1 3.685276 1_556
Cu0 In0 2.756930 1_545
Cu0 In0 2.756930 1_655
Cu0 In0 2.756939 1_555
Cu0 In2 2.943107 1_555
Cu0 Tb0 3.057133 1_655
Cu0 Tb0 3.057136 1_555
Cu0 Tb0 3.057136 1_665
Cu0 Tb1 3.428823 1_655
Cu0 Tb1 3.428826 1_555
Cu0 Tb1 3.428826 1_665
