# generated using pymatgen
data_Ho(ZnP)3
_symmetry_space_group_name_H-M   'P 1'
_cell_length_a   3.96290437
_cell_length_b   3.96290437
_cell_length_c   19.74686058
_cell_angle_alpha   90.00000000
_cell_angle_beta   90.00000000
_cell_angle_gamma   120.00001921
_symmetry_Int_Tables_number   1
_chemical_formula_structural   Ho(ZnP)3
_chemical_formula_sum   'Ho2 Zn6 P6'
_cell_volume   268.56894455
_cell_formula_units_Z   2
loop_
 _symmetry_equiv_pos_site_id
 _symmetry_equiv_pos_as_xyz
  1  'x, y, z'
loop_
 _atom_site_type_symbol
 _atom_site_label
 _atom_site_symmetry_multiplicity
 _atom_site_fract_x
 _atom_site_fract_y
 _atom_site_fract_z
 _atom_site_occupancy
  Ho  Ho0  1  -0.00000000  -0.00000000  0.00000000  1
  Ho  Ho1  1  -0.00000000  -0.00000000  0.50000000  1
  Zn  Zn0  1  0.33333300  0.66666700  0.75000000  1
  Zn  Zn1  1  0.66666700  0.33333300  0.25000000  1
  Zn  Zn2  1  0.33333300  0.66666700  0.12854352  1
  Zn  Zn3  1  0.66666700  0.33333300  0.87145648  1
  Zn  Zn4  1  0.66666700  0.33333300  0.62854352  1
  Zn  Zn5  1  0.33333300  0.66666700  0.37145648  1
  P  P0  1  0.33333300  0.66666700  0.58385070  1
  P  P1  1  0.66666700  0.33333300  0.41614930  1
  P  P2  1  0.66666700  0.33333300  0.08385070  1
  P  P3  1  0.33333300  0.66666700  0.91614930  1
  P  P4  1  0.33333300  0.66666700  0.25000000  1
  P  P5  1  0.66666700  0.33333300  0.75000000  1
loop_
_geom_bond_atom_site_label_1
_geom_bond_atom_site_label_2
_geom_bond_distance
_geom_bond_site_symmetry_2
Ho0 P3 2.824269 1_544
Ho0 P2 2.824269 1_455
Ho0 P3 2.824271 1_554
Ho0 P3 2.824271 1_444
Ho0 P2 2.824271 1_555
Ho0 P2 2.824271 1_445
Ho1 P0 2.824269 1_545
Ho1 P1 2.824269 1_455
Ho1 P0 2.824271 1_445
Ho1 P0 2.824271 1_555
Ho1 P1 2.824271 1_445
Ho1 P1 2.824271 1_555
P0 Zn4 2.452293 1_455
P0 Zn4 2.452293 1_565
P0 Zn4 2.452300 1_555
P1 Zn5 2.452293 1_545
P1 Zn5 2.452293 1_655
P1 Zn5 2.452300 1_555
P2 Zn2 2.452293 1_545
P2 Zn2 2.452293 1_655
P2 Zn2 2.452300 1_555
P3 Zn3 2.452293 1_455
P3 Zn3 2.452293 1_565
P3 Zn3 2.452300 1_555
P4 Zn1 2.287981 1_455
P4 Zn1 2.287981 1_565
P4 Zn1 2.287989 1_555
P4 Zn5 2.398384 1_555
P4 Zn2 2.398384 1_555
P5 Zn0 2.287981 1_545
P5 Zn0 2.287981 1_655
P5 Zn0 2.287989 1_555
P5 Zn3 2.398384 1_555
P5 Zn4 2.398384 1_555
