# generated using pymatgen
data_Y2OsC2
_symmetry_space_group_name_H-M   'P 1'
_cell_length_a   5.13230385
_cell_length_b   6.44423235
_cell_length_c   9.80172679
_cell_angle_alpha   90.00000000
_cell_angle_beta   90.00000000
_cell_angle_gamma   90.00000000
_symmetry_Int_Tables_number   1
_chemical_formula_structural   Y2OsC2
_chemical_formula_sum   'Y8 Os4 C8'
_cell_volume   324.17994474
_cell_formula_units_Z   4
loop_
 _symmetry_equiv_pos_site_id
 _symmetry_equiv_pos_as_xyz
  1  'x, y, z'
loop_
 _atom_site_type_symbol
 _atom_site_label
 _atom_site_symmetry_multiplicity
 _atom_site_fract_x
 _atom_site_fract_y
 _atom_site_fract_z
 _atom_site_occupancy
  Y  Y0  1  0.25000000  0.68418146  0.55216689  1
  Y  Y1  1  0.75000000  0.31581854  0.44783311  1
  Y  Y2  1  0.75000000  0.81581854  0.05216689  1
  Y  Y3  1  0.25000000  0.18418146  0.94783311  1
  Y  Y4  1  0.25000000  0.52699049  0.21941735  1
  Y  Y5  1  0.75000000  0.47300951  0.78058265  1
  Y  Y6  1  0.75000000  0.97300951  0.71941735  1
  Y  Y7  1  0.25000000  0.02699049  0.28058265  1
  Os  Os0  1  0.25000000  0.72588498  0.86377742  1
  Os  Os1  1  0.75000000  0.27411502  0.13622258  1
  Os  Os2  1  0.75000000  0.77411502  0.36377742  1
  Os  Os3  1  0.25000000  0.22588498  0.63622258  1
  C  C0  1  0.25000000  0.46227630  0.75811197  1
  C  C1  1  0.75000000  0.53772370  0.24188803  1
  C  C2  1  0.75000000  0.03772370  0.25811197  1
  C  C3  1  0.25000000  0.96227630  0.74188803  1
  C  C4  1  0.25000000  0.82248335  0.05096766  1
  C  C5  1  0.75000000  0.17751665  0.94903234  1
  C  C6  1  0.75000000  0.67751665  0.55096766  1
  C  C7  1  0.25000000  0.32248335  0.44903234  1
loop_
_geom_bond_atom_site_label_1
_geom_bond_atom_site_label_2
_geom_bond_distance
_geom_bond_site_symmetry_2
C0 Os3 1.935975 1_555
C0 Os0 1.989586 1_555
C0 Y0 2.473811 1_555
C0 Y5 2.576515 1_455
C0 Y5 2.576515 1_555
C0 Y3 2.582585 1_555
C1 Os2 1.935975 1_555
C1 Os1 1.989586 1_555
C1 Y1 2.473811 1_555
C1 Y4 2.576515 1_555
C1 Y4 2.576515 1_655
C1 Y2 2.582585 1_555
C2 Os1 1.935975 1_555
C2 Os2 1.989586 1_545
C2 Y2 2.473811 1_545
C2 Y7 2.576515 1_655
C2 Y7 2.576515 1_555
C2 Y1 2.582585 1_555
C3 Os0 1.935975 1_555
C3 Os3 1.989586 1_565
C3 Y3 2.473811 1_565
C3 Y6 2.576515 1_455
C3 Y6 2.576515 1_555
C3 Y0 2.582585 1_555
C4 Os0 1.937512 1_554
C4 Y4 2.520356 1_555
C4 Y3 2.540640 1_564
C4 Y2 2.566538 1_455
C4 Y2 2.566538 1_555
C4 Y7 2.608092 1_565
C5 Os1 1.937512 1_556
C5 Y5 2.520356 1_555
C5 Y2 2.540640 1_546
C5 Y3 2.566538 1_555
C5 Y3 2.566538 1_655
C5 Y6 2.608092 1_545
C6 Os2 1.937512 1_555
C6 Y6 2.520356 1_555
C6 Y1 2.540640 1_555
C6 Y0 2.566538 1_655
C6 Y0 2.566538 1_555
C6 Y5 2.608092 1_555
C7 Os3 1.937512 1_555
C7 Y7 2.520356 1_555
C7 Y0 2.540640 1_555
C7 Y1 2.566538 1_555
C7 Y1 2.566538 1_455
C7 Y4 2.608092 1_555
