# generated using pymatgen
data_TeWS
_symmetry_space_group_name_H-M   'P 1'
_cell_length_a   3.36069677
_cell_length_b   3.36069677
_cell_length_c   38.39031700
_cell_angle_alpha   90.00000000
_cell_angle_beta   90.00000000
_cell_angle_gamma   120.00001517
_symmetry_Int_Tables_number   1
_chemical_formula_structural   TeWS
_chemical_formula_sum   'Te4 W4 S4'
_cell_volume   375.50084688
_cell_formula_units_Z   4
loop_
 _symmetry_equiv_pos_site_id
 _symmetry_equiv_pos_as_xyz
  1  'x, y, z'
loop_
 _atom_site_type_symbol
 _atom_site_label
 _atom_site_symmetry_multiplicity
 _atom_site_fract_x
 _atom_site_fract_y
 _atom_site_fract_z
 _atom_site_occupancy
  Te  Te0  1  0.33333300  0.66666700  0.33132900  1
  Te  Te1  1  0.33333300  0.66666700  0.70706400  1
  Te  Te2  1  0.33333300  0.66666700  0.23225000  1
  Te  Te3  1  0.33333300  0.66666700  0.60801400  1
  W  W0  1  0.33333300  0.66666700  0.09391000  1
  W  W1  1  0.33333300  0.66666700  0.46967200  1
  W  W2  1  0.66666700  0.33333300  0.28180500  1
  W  W3  1  0.66666700  0.33333300  0.65755700  1
  S  S0  1  0.66666700  0.33333300  0.05437100  1
  S  S1  1  0.66666700  0.33333300  0.43013100  1
  S  S2  1  0.66666700  0.33333300  0.13345600  1
  S  S3  1  0.66666700  0.33333300  0.50918900  1
loop_
_geom_bond_atom_site_label_1
_geom_bond_atom_site_label_2
_geom_bond_distance
_geom_bond_site_symmetry_2
Te0 W2 2.716519 1_455
Te0 W2 2.716519 1_565
Te0 W2 2.716523 1_555
Te1 W3 2.716062 1_455
Te1 W3 2.716062 1_565
Te1 W3 2.716066 1_555
Te2 W2 2.717352 1_455
Te2 W2 2.717352 1_565
Te2 W2 2.717356 1_555
Te3 W3 2.717029 1_455
Te3 W3 2.717029 1_565
Te3 W3 2.717034 1_555
S0 W0 2.463497 1_545
S0 W0 2.463497 1_655
S0 W0 2.463502 1_555
S1 W1 2.463544 1_545
S1 W1 2.463544 1_655
S1 W1 2.463549 1_555
S2 W0 2.463663 1_545
S2 W0 2.463663 1_655
S2 W0 2.463668 1_555
S3 W1 2.462977 1_545
S3 W1 2.462977 1_655
S3 W1 2.462982 1_555
