# generated using pymatgen
data_AsS
_symmetry_space_group_name_H-M   'P 1'
_cell_length_a   7.61096700
_cell_length_b   10.73528600
_cell_length_c   18.94664700
_cell_angle_alpha   90.00000000
_cell_angle_beta   90.00000000
_cell_angle_gamma   90.00000000
_symmetry_Int_Tables_number   1
_chemical_formula_structural   AsS
_chemical_formula_sum   'As32 S32'
_cell_volume   1548.05298687
_cell_formula_units_Z   32
loop_
 _symmetry_equiv_pos_site_id
 _symmetry_equiv_pos_as_xyz
  1  'x, y, z'
loop_
 _atom_site_type_symbol
 _atom_site_label
 _atom_site_symmetry_multiplicity
 _atom_site_fract_x
 _atom_site_fract_y
 _atom_site_fract_z
 _atom_site_occupancy
  As  As0  1  0.87986600  0.65409800  0.86726100  1
  As  As1  1  0.12013400  0.34590200  0.36726100  1
  As  As2  1  0.87986600  0.84590200  0.36726100  1
  As  As3  1  0.12013400  0.15409800  0.86726100  1
  As  As4  1  0.61428900  0.66196200  0.54987300  1
  As  As5  1  0.38571100  0.33803800  0.04987300  1
  As  As6  1  0.61428900  0.83803800  0.04987300  1
  As  As7  1  0.38571100  0.16196200  0.54987300  1
  As  As8  1  0.37657200  0.86319400  0.66808300  1
  As  As9  1  0.62342800  0.13680600  0.16808300  1
  As  As10  1  0.37657200  0.63680600  0.16808300  1
  As  As11  1  0.62342800  0.36319400  0.66808300  1
  As  As12  1  0.11790600  0.86088700  0.75381700  1
  As  As13  1  0.88209400  0.13911300  0.25381700  1
  As  As14  1  0.11790600  0.63911300  0.25381700  1
  As  As15  1  0.88209400  0.36088700  0.75381700  1
  As  As16  1  0.62896600  0.87496800  0.75785600  1
  As  As17  1  0.37103400  0.12503200  0.25785600  1
  As  As18  1  0.62896600  0.62503200  0.25785600  1
  As  As19  1  0.37103400  0.37496800  0.75785600  1
  As  As20  1  0.86966300  0.87903800  0.66231100  1
  As  As21  1  0.13033700  0.12096200  0.16231100  1
  As  As22  1  0.86966300  0.62096200  0.16231100  1
  As  As23  1  0.13033700  0.37903800  0.66231100  1
  As  As24  1  0.38595100  0.85440900  0.42448400  1
  As  As25  1  0.61404900  0.14559100  0.92448400  1
  As  As26  1  0.38595100  0.64559100  0.92448400  1
  As  As27  1  0.61404900  0.35440900  0.42448400  1
  As  As28  1  0.10921400  0.64905800  0.48800900  1
  As  As29  1  0.89078600  0.35094200  0.98800900  1
  As  As30  1  0.10921400  0.85094200  0.98800900  1
  As  As31  1  0.89078600  0.14905800  0.48800900  1
  S  S0  1  0.88205900  0.85612100  0.90403800  1
  S  S1  1  0.11794100  0.14387900  0.40403800  1
  S  S2  1  0.88205900  0.64387900  0.40403800  1
  S  S3  1  0.11794100  0.35612100  0.90403800  1
  S  S4  1  0.13555400  0.85822000  0.49889100  1
  S  S5  1  0.86444600  0.14178000  0.99889100  1
  S  S6  1  0.13555400  0.64178000  0.99889100  1
  S  S7  1  0.86444600  0.35822000  0.49889100  1
  S  S8  1  0.60941300  0.86246000  0.51000300  1
  S  S9  1  0.39058700  0.13754000  0.01000300  1
  S  S10  1  0.60941300  0.63754000  0.01000300  1
  S  S11  1  0.39058700  0.36246000  0.51000300  1
  S  S12  1  0.86195900  0.68014200  0.62037500  1
  S  S13  1  0.13804100  0.31985800  0.12037500  1
  S  S14  1  0.86195900  0.81985800  0.12037500  1
  S  S15  1  0.13804100  0.18014200  0.62037500  1
  S  S16  1  0.10962800  0.65722100  0.78604900  1
  S  S17  1  0.89037200  0.34277900  0.28604900  1
  S  S18  1  0.10962800  0.84277900  0.28604900  1
  S  S19  1  0.89037200  0.15722100  0.78604900  1
  S  S20  1  0.38514600  0.66188800  0.63116300  1
  S  S21  1  0.61485400  0.33811200  0.13116300  1
  S  S22  1  0.38514600  0.83811200  0.13116300  1
  S  S23  1  0.61485400  0.16188800  0.63116300  1
  S  S24  1  0.63542600  0.67306100  0.79442300  1
  S  S25  1  0.36457400  0.32693900  0.29442300  1
  S  S26  1  0.63542600  0.82693900  0.29442300  1
  S  S27  1  0.36457400  0.17306100  0.79442300  1
  S  S28  1  0.35942300  0.64467400  0.41382300  1
  S  S29  1  0.64057700  0.35532600  0.91382300  1
  S  S30  1  0.35942300  0.85532600  0.91382300  1
  S  S31  1  0.64057700  0.14467400  0.41382300  1
loop_
_geom_bond_atom_site_label_1
_geom_bond_atom_site_label_2
_geom_bond_distance
_geom_bond_site_symmetry_2
As0 S0 2.278024 1_555
As0 S24 2.325322 1_555
As0 S16 2.329527 1_655
As1 S1 2.278024 1_555
As1 S25 2.325322 1_555
As1 S17 2.329527 1_455
As2 S2 2.278024 1_555
As2 S26 2.325322 1_555
As2 S18 2.329527 1_655
As3 S3 2.278024 1_555
As3 S27 2.325322 1_555
As3 S19 2.329527 1_455
As4 S8 2.281414 1_555
As4 S12 2.318544 1_555
As4 S20 2.326729 1_555
As5 S9 2.281414 1_555
As5 S13 2.318544 1_555
As5 S21 2.326729 1_555
As6 S10 2.281414 1_555
As6 S14 2.318544 1_555
As6 S22 2.326729 1_555
As7 S11 2.281414 1_555
As7 S15 2.318544 1_555
As7 S23 2.326729 1_555
As8 S20 2.272406 1_555
As9 S21 2.272406 1_555
As10 S22 2.272406 1_555
As11 S23 2.272406 1_555
As12 S16 2.270971 1_555
As13 S17 2.270971 1_555
As14 S18 2.270971 1_555
As15 S19 2.270971 1_555
As16 S24 2.276094 1_555
As17 S25 2.276094 1_555
As18 S26 2.276094 1_555
As19 S27 2.276094 1_555
As20 S12 2.279001 1_555
As21 S13 2.279001 1_555
As22 S14 2.279001 1_555
As23 S15 2.279001 1_555
As24 S28 2.269606 1_555
As24 S8 2.350623 1_555
As24 S4 2.370873 1_555
As25 S29 2.269606 1_555
As25 S9 2.350623 1_556
As25 S5 2.370873 1_555
As26 S30 2.269606 1_555
As26 S10 2.350623 1_556
As26 S6 2.370873 1_555
As27 S31 2.269606 1_555
As27 S11 2.350623 1_555
As27 S7 2.370873 1_555
As28 S4 2.263754 1_555
As28 S2 2.350162 1_455
As28 S28 2.367349 1_555
As29 S5 2.263754 1_555
As29 S3 2.350162 1_655
As29 S29 2.367349 1_555
As30 S6 2.263754 1_555
As30 S0 2.350162 1_455
As30 S30 2.367349 1_555
As31 S7 2.263754 1_555
As31 S1 2.350162 1_655
As31 S31 2.367349 1_555
