# generated using pymatgen
data_EuAl3(BO3)4
_symmetry_space_group_name_H-M   'P 1'
_cell_length_a   5.95263053
_cell_length_b   5.95263053
_cell_length_c   5.95263074
_cell_angle_alpha   104.03237550
_cell_angle_beta   104.03237550
_cell_angle_gamma   104.03237246
_symmetry_Int_Tables_number   1
_chemical_formula_structural   EuAl3(BO3)4
_chemical_formula_sum   'Eu1 Al3 B4 O12'
_cell_volume   188.07954441
_cell_formula_units_Z   1
loop_
 _symmetry_equiv_pos_site_id
 _symmetry_equiv_pos_as_xyz
  1  'x, y, z'
loop_
 _atom_site_type_symbol
 _atom_site_label
 _atom_site_symmetry_multiplicity
 _atom_site_fract_x
 _atom_site_fract_y
 _atom_site_fract_z
 _atom_site_occupancy
  Eu  Eu0  1  0.00000000  0.00000000  0.00000000  1
  Al  Al0  1  0.00000000  0.44338400  0.55661600  1
  Al  Al1  1  0.44338400  0.55661600  0.00000000  1
  Al  Al2  1  0.55661600  0.00000000  0.44338400  1
  B  B0  1  0.50000000  0.50000000  0.50000000  1
  B  B1  1  0.50000000  0.05883500  0.94116500  1
  B  B2  1  0.05883500  0.94116500  0.50000000  1
  B  B3  1  0.94116500  0.50000000  0.05883500  1
  O  O0  1  0.50000000  0.64855700  0.35144300  1
  O  O1  1  0.64855700  0.35144300  0.50000000  1
  O  O2  1  0.35144300  0.50000000  0.64855700  1
  O  O3  1  0.50000000  0.90981300  0.09018700  1
  O  O4  1  0.90981300  0.09018700  0.50000000  1
  O  O5  1  0.09018700  0.50000000  0.90981300  1
  O  O6  1  0.62081500  0.02795000  0.77296600  1
  O  O7  1  0.02795000  0.77296600  0.62081500  1
  O  O8  1  0.77296600  0.62081500  0.02795000  1
  O  O9  1  0.37918500  0.22703400  0.97205000  1
  O  O10  1  0.97205000  0.37918500  0.22703400  1
  O  O11  1  0.22703400  0.97205000  0.37918500  1
loop_
_geom_bond_atom_site_label_1
_geom_bond_atom_site_label_2
_geom_bond_distance
_geom_bond_site_symmetry_2
Eu0 O6 2.400144 1_454
Eu0 O10 2.400144 1_455
Eu0 O7 2.400144 1_544
Eu0 O11 2.400144 1_545
Eu0 O8 2.400144 1_445
Eu0 O9 2.400144 1_554
Al0 O7 1.862792 1_555
Al0 O10 1.862792 1_455
Al0 O2 1.950139 1_555
Al0 O1 1.950139 1_455
Al0 O4 1.960457 1_455
Al0 O5 1.960457 1_555
Al1 O9 1.862792 1_554
Al1 O8 1.862792 1_555
Al1 O2 1.950139 1_554
Al1 O0 1.950139 1_555
Al1 O5 1.960456 1_554
Al1 O3 1.960456 1_555
Al2 O11 1.862792 1_545
Al2 O6 1.862792 1_555
Al2 O0 1.950139 1_545
Al2 O1 1.950139 1_555
Al2 O4 1.960457 1_555
Al2 O3 1.960457 1_545
B0 O1 1.393991 1_555
B0 O0 1.393991 1_555
B0 O2 1.393991 1_555
B1 O9 1.370215 1_555
B1 O6 1.370215 1_555
B1 O3 1.398355 1_546
B2 O7 1.370215 1_555
B2 O11 1.370215 1_555
B2 O4 1.398354 1_465
B3 O8 1.370215 1_555
B3 O10 1.370215 1_555
B3 O5 1.398355 1_654
