# generated using pymatgen
data_Mn3N2
_symmetry_space_group_name_H-M   'P 1'
_cell_length_a   6.35626700
_cell_length_b   6.35626700
_cell_length_c   6.35626700
_cell_angle_alpha   153.97315172
_cell_angle_beta   153.97315172
_cell_angle_gamma   37.13862910
_symmetry_Int_Tables_number   1
_chemical_formula_structural   Mn3N2
_chemical_formula_sum   'Mn3 N2'
_cell_volume   49.37463537
_cell_formula_units_Z   1
loop_
 _symmetry_equiv_pos_site_id
 _symmetry_equiv_pos_as_xyz
  1  'x, y, z'
loop_
 _atom_site_type_symbol
 _atom_site_label
 _atom_site_symmetry_multiplicity
 _atom_site_fract_x
 _atom_site_fract_y
 _atom_site_fract_z
 _atom_site_occupancy
  Mn  Mn0  1  0.66885100  0.66885100  0.00000000  1
  Mn  Mn1  1  0.33114900  0.33114900  0.00000000  1
  Mn  Mn2  1  0.00000000  0.00000000  0.00000000  1
  N  N0  1  0.84006500  0.84006500  0.00000000  1
  N  N1  1  0.15993500  0.15993500  0.00000000  1
loop_
_geom_bond_atom_site_label_1
_geom_bond_atom_site_label_2
_geom_bond_distance
_geom_bond_site_symmetry_2
Mn0 N1 2.027013 1_565
Mn0 N1 2.027013 1_655
Mn0 N1 2.027013 1_666
Mn0 N1 2.027013 1_554
Mn0 N0 2.063250 1_555
Mn1 N0 2.027013 1_444
Mn1 N0 2.027013 1_545
Mn1 N0 2.027013 1_455
Mn1 N0 2.027013 1_556
Mn1 N1 2.063250 1_555
Mn2 N1 1.927330 1_555
Mn2 N0 1.927330 1_445
