# generated using pymatgen
data_Sm6Co2Si3
_symmetry_space_group_name_H-M   'P 1'
_cell_length_a   4.43772200
_cell_length_b   11.56814300
_cell_length_c   11.66126540
_cell_angle_alpha   60.38813375
_cell_angle_beta   90.00000000
_cell_angle_gamma   90.00000000
_symmetry_Int_Tables_number   1
_chemical_formula_structural   Sm6Co2Si3
_chemical_formula_sum   'Sm12 Co4 Si6'
_cell_volume   520.45761417
_cell_formula_units_Z   2
loop_
 _symmetry_equiv_pos_site_id
 _symmetry_equiv_pos_as_xyz
  1  'x, y, z'
loop_
 _atom_site_type_symbol
 _atom_site_label
 _atom_site_symmetry_multiplicity
 _atom_site_fract_x
 _atom_site_fract_y
 _atom_site_fract_z
 _atom_site_occupancy
  Sm  Sm0  1  0.00000000  0.23527400  0.77423500  1
  Sm  Sm1  1  0.00000000  0.76774700  0.00175400  1
  Sm  Sm2  1  0.00000000  0.00001500  0.23076900  1
  Sm  Sm3  1  0.50000000  0.75879100  0.23158300  1
  Sm  Sm4  1  0.50000000  0.23264600  0.01100200  1
  Sm  Sm5  1  0.50000000  0.00726800  0.76593700  1
  Sm  Sm6  1  0.00000000  0.85757800  0.62486300  1
  Sm  Sm7  1  0.00000000  0.62280600  0.51122500  1
  Sm  Sm8  1  0.00000000  0.50946400  0.86618700  1
  Sm  Sm9  1  0.50000000  0.13812100  0.37555200  1
  Sm  Sm10  1  0.50000000  0.38501500  0.47833800  1
  Sm  Sm11  1  0.50000000  0.47650600  0.14063600  1
  Co  Co0  1  0.75028400  0.00014000  0.00047800  1
  Co  Co1  1  0.24971600  0.00014000  0.00047800  1
  Co  Co2  1  0.00000000  0.56204400  0.28538700  1
  Co  Co3  1  0.00000000  0.28957000  0.14847900  1
  Si  Si0  1  0.00000000  0.33698900  0.32743300  1
  Si  Si1  1  0.50000000  0.66602300  0.66685700  1
  Si  Si2  1  0.00000000  0.15121100  0.56081400  1
  Si  Si3  1  0.50000000  0.44003700  0.71177300  1
  Si  Si4  1  0.50000000  0.71396300  0.84555200  1
  Si  Si5  1  0.50000000  0.84864900  0.44066700  1
loop_
_geom_bond_atom_site_label_1
_geom_bond_atom_site_label_2
_geom_bond_distance
_geom_bond_site_symmetry_2
Co0 Co1 2.216340 1_655
Co0 Co1 2.221382 1_555
Co0 Sm1 2.901032 1_645
Co0 Sm2 2.904485 1_655
Co0 Sm0 2.914684 1_654
Co0 Sm5 2.915138 1_554
Co0 Sm4 2.968027 1_555
Co0 Sm3 2.975863 1_545
Co1 Sm1 2.901032 1_545
Co1 Sm2 2.904485 1_555
Co1 Sm0 2.914684 1_554
Co1 Sm5 2.915138 1_554
Co1 Sm4 2.968027 1_555
Co1 Sm3 2.975863 1_545
Co2 Si0 2.399365 1_555
Co2 Sm1 2.970545 1_555
Co2 Sm3 3.014290 1_555
Co2 Sm3 3.014290 1_455
Co2 Sm7 3.042872 1_555
Co2 Sm10 3.102621 1_555
Co2 Sm10 3.102621 1_455
Co2 Sm11 3.225276 1_455
Co2 Sm11 3.225276 1_555
Co3 Si0 2.405627 1_555
Co3 Sm2 2.994033 1_555
Co3 Sm4 2.995055 1_455
Co3 Sm4 2.995055 1_555
Co3 Sm8 3.005311 1_554
Co3 Sm11 3.068007 1_555
Co3 Sm11 3.068007 1_455
Co3 Sm9 3.227977 1_455
Co3 Sm9 3.227977 1_555
Si0 Si2 2.499049 1_555
Si0 Sm11 2.966278 1_555
Si0 Sm11 2.966278 1_455
Si0 Sm9 3.042194 1_455
Si0 Sm9 3.042194 1_555
Si0 Sm10 3.048749 1_555
Si0 Sm10 3.048749 1_455
Si1 Si3 2.399042 1_555
Si1 Si4 2.406629 1_555
Si1 Si5 2.431788 1_555
Si1 Sm6 3.000188 1_655
Si1 Sm6 3.000188 1_555
Si1 Sm7 3.060013 1_655
Si1 Sm7 3.060013 1_555
Si1 Sm8 3.073458 1_655
Si1 Sm8 3.073458 1_555
Si2 Sm5 3.079205 1_555
Si2 Sm5 3.079205 1_455
Si2 Sm0 3.087286 1_555
Si2 Sm6 3.096581 1_545
Si2 Sm9 3.152277 1_455
Si2 Sm9 3.152277 1_555
Si2 Sm10 3.254678 1_455
Si2 Sm10 3.254678 1_555
Si3 Sm0 3.059362 1_655
Si3 Sm0 3.059362 1_555
Si3 Sm10 3.086666 1_555
Si3 Sm4 3.107825 1_556
Si3 Sm7 3.158543 1_555
Si3 Sm7 3.158543 1_655
Si3 Sm8 3.199992 1_555
Si3 Sm8 3.199992 1_655
Si4 Sm5 3.043238 1_565
Si4 Sm1 3.122235 1_556
Si4 Sm1 3.122235 1_656
Si4 Sm8 3.164664 1_655
Si4 Sm8 3.164664 1_555
Si4 Sm11 3.169428 1_556
Si4 Sm6 3.175085 1_555
Si4 Sm6 3.175085 1_655
Si5 Sm9 3.045855 1_565
Si5 Sm3 3.087062 1_555
Si5 Sm2 3.121697 1_565
Si5 Sm2 3.121697 1_665
Si5 Sm6 3.125220 1_555
Si5 Sm6 3.125220 1_655
Si5 Sm7 3.209608 1_555
Si5 Sm7 3.209608 1_655
