# generated using pymatgen
data_Mg3Ti3(AsO4)4
_symmetry_space_group_name_H-M   'P 1'
_cell_length_a   5.02724300
_cell_length_b   8.14016800
_cell_length_c   16.51858644
_cell_angle_alpha   74.86875367
_cell_angle_beta   90.00000000
_cell_angle_gamma   90.00000000
_symmetry_Int_Tables_number   1
_chemical_formula_structural   Mg3Ti3(AsO4)4
_chemical_formula_sum   'Mg6 Ti6 As8 O32'
_cell_volume   652.54748321
_cell_formula_units_Z   2
loop_
 _symmetry_equiv_pos_site_id
 _symmetry_equiv_pos_as_xyz
  1  'x, y, z'
loop_
 _atom_site_type_symbol
 _atom_site_label
 _atom_site_symmetry_multiplicity
 _atom_site_fract_x
 _atom_site_fract_y
 _atom_site_fract_z
 _atom_site_occupancy
  Mg  Mg0  1  0.59028600  0.36100500  0.20806600  1
  Mg  Mg1  1  0.09028600  0.63899500  0.29193400  1
  Mg  Mg2  1  0.40971400  0.63899500  0.79193400  1
  Mg  Mg3  1  0.90971400  0.36100500  0.70806600  1
  Mg  Mg4  1  0.50000000  0.00000000  0.50000000  1
  Mg  Mg5  1  0.00000000  0.00000000  0.00000000  1
  Ti  Ti0  1  0.43137500  0.22796200  0.62218300  1
  Ti  Ti1  1  0.56862500  0.77203800  0.37781700  1
  Ti  Ti2  1  0.93137500  0.77203800  0.87781700  1
  Ti  Ti3  1  0.06862500  0.22796200  0.12218300  1
  Ti  Ti4  1  0.00000000  0.50000000  0.50000000  1
  Ti  Ti5  1  0.50000000  0.50000000  0.00000000  1
  As  As0  1  0.99781000  0.05885400  0.34152800  1
  As  As1  1  0.51292300  0.39492100  0.39522900  1
  As  As2  1  0.01292300  0.60507900  0.10477100  1
  As  As3  1  0.98707700  0.39492100  0.89522900  1
  As  As4  1  0.00219000  0.94114600  0.65847200  1
  As  As5  1  0.48707700  0.60507900  0.60477100  1
  As  As6  1  0.50219000  0.05885400  0.84152800  1
  As  As7  1  0.49781000  0.94114600  0.15847200  1
  O  O0  1  0.43053800  0.78977300  0.25292500  1
  O  O1  1  0.80778300  0.78793500  0.97543300  1
  O  O2  1  0.37242100  0.42812300  0.29557900  1
  O  O3  1  0.38662600  0.12285600  0.18615100  1
  O  O4  1  0.62757900  0.57187700  0.70442100  1
  O  O5  1  0.06946200  0.78977300  0.75292500  1
  O  O6  1  0.87242100  0.57187700  0.20442100  1
  O  O7  1  0.70987000  0.55554700  0.88170200  1
  O  O8  1  0.68261200  0.12913200  0.91378000  1
  O  O9  1  0.56946200  0.21022700  0.74707500  1
  O  O10  1  0.11337400  0.12285600  0.68615100  1
  O  O11  1  0.29013000  0.44445300  0.11829800  1
  O  O12  1  0.29286800  0.59187300  0.41456800  1
  O  O13  1  0.31738800  0.87086800  0.08622000  1
  O  O14  1  0.68352600  0.00474100  0.61955100  1
  O  O15  1  0.18352600  0.99525900  0.88044900  1
  O  O16  1  0.79286800  0.40812700  0.08543200  1
  O  O17  1  0.12757900  0.42812300  0.79557900  1
  O  O18  1  0.18261200  0.87086800  0.58622000  1
  O  O19  1  0.20987000  0.44445300  0.61829800  1
  O  O20  1  0.81647400  0.00474100  0.11955100  1
  O  O21  1  0.31647400  0.99525900  0.38044900  1
  O  O22  1  0.19221700  0.21206500  0.02456700  1
  O  O23  1  0.30778300  0.21206500  0.52456700  1
  O  O24  1  0.70713200  0.40812700  0.58543200  1
  O  O25  1  0.93053800  0.21022700  0.24707500  1
  O  O26  1  0.61337400  0.87714400  0.81384900  1
  O  O27  1  0.81738800  0.12913200  0.41378000  1
  O  O28  1  0.69221700  0.78793500  0.47543300  1
  O  O29  1  0.79013000  0.55554700  0.38170200  1
  O  O30  1  0.20713200  0.59187300  0.91456800  1
  O  O31  1  0.88662600  0.87714400  0.31384900  1
loop_
_geom_bond_atom_site_label_1
_geom_bond_atom_site_label_2
_geom_bond_distance
_geom_bond_site_symmetry_2
Mg0 O2 2.000039 1_555
Mg0 O11 2.100318 1_555
Mg0 O25 2.105861 1_555
Mg0 O16 2.209592 1_555
Mg0 O6 2.215379 1_555
Mg0 O3 2.302986 1_555
Mg1 O6 2.000039 1_455
Mg1 O29 2.100318 1_455
Mg1 O0 2.105861 1_555
Mg1 O12 2.209592 1_555
Mg1 O2 2.215379 1_555
Mg1 O31 2.302986 1_455
Mg2 O4 2.000039 1_555
Mg2 O7 2.100318 1_555
Mg2 O5 2.105861 1_555
Mg2 O30 2.209592 1_555
Mg2 O17 2.215379 1_555
Mg2 O26 2.302986 1_555
Mg3 O17 2.000039 1_655
Mg3 O19 2.100318 1_655
Mg3 O9 2.105861 1_555
Mg3 O24 2.209592 1_555
Mg3 O4 2.215379 1_555
Mg3 O10 2.302986 1_655
Mg4 O28 2.108104 1_545
Mg4 O23 2.108104 1_555
Mg4 O14 2.189158 1_555
Mg4 O21 2.189158 1_545
Mg4 O27 2.213073 1_555
Mg4 O18 2.213073 1_545
Mg5 O1 2.108104 1_444
Mg5 O22 2.108104 1_555
Mg5 O15 2.189158 1_544
Mg5 O20 2.189158 1_455
Mg5 O8 2.213073 1_454
Mg5 O13 2.213073 1_545
As0 O27 1.711975 1_555
As0 O31 1.749978 1_545
As0 O25 1.750240 1_555
As0 O21 1.753279 1_645
As1 O2 1.746216 1_555
As1 O29 1.883906 1_555
As1 O12 2.040486 1_555
As2 O6 1.746216 1_455
As2 O11 1.883906 1_555
As2 O16 2.040486 1_455
As3 O17 1.746216 1_655
As3 O7 1.883906 1_555
As3 O30 2.040486 1_655
As4 O18 1.711975 1_555
As4 O10 1.749978 1_565
As4 O5 1.750240 1_555
As4 O14 1.753279 1_465
As5 O4 1.746216 1_555
As5 O19 1.883906 1_555
As5 O24 2.040486 1_555
As6 O8 1.711975 1_555
As6 O26 1.749978 1_545
As6 O9 1.750240 1_555
As6 O15 1.753279 1_545
As7 O13 1.711975 1_555
As7 O3 1.749978 1_565
As7 O0 1.750240 1_555
As7 O20 1.753279 1_565
O0 Ti1 2.145552 1_555
O1 Ti2 1.764033 1_555
O1 Ti5 2.748789 1_556
O3 Ti3 1.983007 1_555
O5 Ti2 2.145552 1_455
O7 Ti2 2.071400 1_555
O7 Ti5 2.162153 1_556
O9 Ti0 2.145552 1_555
O10 Ti0 1.983007 1_555
O11 Ti3 2.071400 1_555
O11 Ti5 2.162153 1_555
O12 Ti1 1.994090 1_555
O12 Ti4 2.041462 1_555
O14 Ti0 2.225241 1_555
O15 Ti2 2.225241 1_455
O16 Ti3 1.994090 1_655
O16 Ti5 2.041462 1_555
O19 Ti0 2.071400 1_555
O19 Ti4 2.162153 1_555
O20 Ti3 2.225241 1_655
O21 Ti1 2.225241 1_555
O22 Ti3 1.764033 1_555
O22 Ti5 2.748789 1_555
O23 Ti0 1.764033 1_555
O23 Ti4 2.748789 1_555
O24 Ti0 1.994090 1_555
O24 Ti4 2.041462 1_655
O25 Ti3 2.145552 1_655
O26 Ti2 1.983007 1_555
O28 Ti1 1.764033 1_555
O28 Ti4 2.748789 1_655
O29 Ti1 2.071400 1_555
O29 Ti4 2.162153 1_655
O30 Ti2 1.994090 1_455
O30 Ti5 2.041462 1_556
O31 Ti1 1.983007 1_555
