# generated using pymatgen
data_Yb(GaFe)6
_symmetry_space_group_name_H-M   'P 1'
_cell_length_a   6.56234665
_cell_length_b   6.56234665
_cell_length_c   6.56234665
_cell_angle_alpha   135.16004922
_cell_angle_beta   99.33172421
_cell_angle_gamma   97.39855276
_symmetry_Int_Tables_number   1
_chemical_formula_structural   Yb(GaFe)6
_chemical_formula_sum   'Yb1 Ga6 Fe6'
_cell_volume   184.17437888
_cell_formula_units_Z   1
loop_
 _symmetry_equiv_pos_site_id
 _symmetry_equiv_pos_as_xyz
  1  'x, y, z'
loop_
 _atom_site_type_symbol
 _atom_site_label
 _atom_site_symmetry_multiplicity
 _atom_site_fract_x
 _atom_site_fract_y
 _atom_site_fract_z
 _atom_site_occupancy
  Yb  Yb0  1  0.00000000  0.00000000  0.00000000  1
  Ga  Ga0  1  0.32486900  0.00000000  0.32486900  1
  Ga  Ga1  1  0.67513100  0.00000000  0.67513100  1
  Ga  Ga2  1  0.66001600  0.66001600  0.00000000  1
  Ga  Ga3  1  0.33998400  0.33998400  0.00000000  1
  Ga  Ga4  1  0.17718100  0.67718100  0.50000000  1
  Ga  Ga5  1  0.82281900  0.32281900  0.50000000  1
  Fe  Fe0  1  0.75279100  0.50000000  0.25279100  1
  Fe  Fe1  1  0.24720900  0.50000000  0.74720900  1
  Fe  Fe2  1  0.00000000  0.00000000  0.50000000  1
  Fe  Fe3  1  0.00000000  0.50000000  0.00000000  1
  Fe  Fe4  1  0.50000000  0.00000000  0.00000000  1
  Fe  Fe5  1  0.50000000  0.50000000  0.50000000  1
loop_
_geom_bond_atom_site_label_1
_geom_bond_atom_site_label_2
_geom_bond_distance
_geom_bond_site_symmetry_2
Ga0 Yb0 2.759723 1_555
Ga0 Ga1 2.975434 1_555
Ga1 Yb0 2.759723 1_656
Ga2 Ga3 2.772259 1_555
Ga2 Ga5 2.872809 1_554
Ga2 Ga5 2.872809 1_565
Ga2 Yb0 2.945092 1_665
Ga3 Ga4 2.872809 1_555
Ga3 Ga4 2.872809 1_544
Ga3 Yb0 2.945092 1_555
Ga4 Yb0 2.935956 1_555
Ga4 Yb0 2.935956 1_566
Ga5 Yb0 2.935956 1_666
Ga5 Yb0 2.935956 1_655
Fe0 Fe4 2.501294 1_555
Fe0 Fe3 2.501294 1_655
Fe0 Fe5 2.501294 1_555
Fe0 Fe2 2.501294 1_665
Fe0 Ga3 2.555936 1_555
Fe0 Ga2 2.555936 1_555
Fe0 Ga1 2.588317 1_554
Fe0 Ga1 2.588317 1_565
Fe0 Ga5 2.601100 1_555
Fe0 Ga4 2.601100 1_655
Fe0 Yb0 3.267141 1_655
Fe0 Yb0 3.267141 1_666
Fe1 Fe4 2.501294 1_566
Fe1 Fe3 2.501294 1_556
Fe1 Fe5 2.501294 1_555
Fe1 Fe2 2.501294 1_555
Fe1 Ga2 2.555936 1_556
Fe1 Ga3 2.555936 1_556
Fe1 Ga0 2.588317 1_555
Fe1 Ga0 2.588317 1_566
Fe1 Ga4 2.601100 1_555
Fe1 Ga5 2.601100 1_455
Fe1 Yb0 3.267141 1_566
Fe1 Yb0 3.267141 1_555
Fe2 Fe3 2.502831 1_545
Fe2 Fe3 2.502831 1_556
Fe2 Ga4 2.544430 1_545
Fe2 Ga5 2.544430 1_455
Fe2 Ga1 2.580777 1_455
Fe2 Ga0 2.580777 1_555
Fe2 Ga3 2.585308 1_556
Fe2 Ga2 2.585308 1_445
Fe2 Yb0 3.281173 1_556
Fe2 Yb0 3.281173 1_555
Fe3 Ga5 2.544430 1_454
Fe3 Ga4 2.544430 1_555
Fe3 Ga0 2.580777 1_565
Fe3 Ga1 2.580777 1_454
Fe3 Ga3 2.585308 1_555
Fe3 Ga2 2.585308 1_455
Fe3 Yb0 3.281173 1_565
Fe3 Yb0 3.281173 1_555
Fe4 Fe5 2.502831 1_555
Fe4 Fe5 2.502831 1_544
Fe4 Ga5 2.544430 1_555
Fe4 Ga4 2.544430 1_544
Fe4 Ga1 2.580777 1_554
Fe4 Ga0 2.580777 1_555
Fe4 Ga3 2.585308 1_555
Fe4 Ga2 2.585308 1_545
Fe4 Yb0 3.281173 1_655
Fe4 Yb0 3.281173 1_555
Fe5 Ga5 2.544430 1_555
Fe5 Ga4 2.544430 1_555
Fe5 Ga0 2.580777 1_555
Fe5 Ga1 2.580777 1_565
Fe5 Ga2 2.585308 1_556
Fe5 Ga3 2.585308 1_555
Fe5 Yb0 3.281173 1_666
Fe5 Yb0 3.281173 1_555
