# generated using pymatgen
data_Ti2Co
_symmetry_space_group_name_H-M   'P 1'
_cell_length_a   7.89567629
_cell_length_b   7.89567629
_cell_length_c   7.89567629
_cell_angle_alpha   60.00000000
_cell_angle_beta   60.00000000
_cell_angle_gamma   60.00000000
_symmetry_Int_Tables_number   1
_chemical_formula_structural   Ti2Co
_chemical_formula_sum   'Ti16 Co8'
_cell_volume   348.05911124
_cell_formula_units_Z   8
loop_
 _symmetry_equiv_pos_site_id
 _symmetry_equiv_pos_as_xyz
  1  'x, y, z'
loop_
 _atom_site_type_symbol
 _atom_site_label
 _atom_site_symmetry_multiplicity
 _atom_site_fract_x
 _atom_site_fract_y
 _atom_site_fract_z
 _atom_site_occupancy
  Ti  Ti0  1  0.50000000  0.50000000  0.00000000  1
  Ti  Ti1  1  0.50000000  -0.00000000  0.50000000  1
  Ti  Ti2  1  -0.00000000  0.50000000  0.50000000  1
  Ti  Ti3  1  0.50000000  0.50000000  0.50000000  1
  Ti  Ti4  1  0.93829921  0.31170079  0.31170079  1
  Ti  Ti5  1  0.31170079  0.93829921  0.93829921  1
  Ti  Ti6  1  0.31170079  0.93829921  0.31170079  1
  Ti  Ti7  1  0.93829921  0.31170079  0.93829921  1
  Ti  Ti8  1  0.31170079  0.31170079  0.93829921  1
  Ti  Ti9  1  0.93829921  0.93829921  0.31170079  1
  Ti  Ti10  1  0.06170079  0.68829921  0.68829921  1
  Ti  Ti11  1  0.68829921  0.06170079  0.06170079  1
  Ti  Ti12  1  0.68829921  0.06170079  0.68829921  1
  Ti  Ti13  1  0.06170079  0.68829921  0.06170079  1
  Ti  Ti14  1  0.68829921  0.68829921  0.06170079  1
  Ti  Ti15  1  0.06170079  0.06170079  0.68829921  1
  Co  Co0  1  0.28243594  0.28243594  0.65269318  1
  Co  Co1  1  0.28243594  0.65269318  0.28243594  1
  Co  Co2  1  0.65269318  0.28243594  0.28243594  1
  Co  Co3  1  0.28243594  0.28243594  0.28243594  1
  Co  Co4  1  0.71756406  0.71756406  0.34730682  1
  Co  Co5  1  0.71756406  0.34730682  0.71756406  1
  Co  Co6  1  0.34730682  0.71756406  0.71756406  1
  Co  Co7  1  0.71756406  0.71756406  0.71756406  1
loop_
_geom_bond_atom_site_label_1
_geom_bond_atom_site_label_2
_geom_bond_distance
_geom_bond_site_symmetry_2
Co0 Ti3 2.482766 1_555
Co0 Ti1 2.482772 1_555
Co0 Ti2 2.482772 1_555
Co0 Ti8 2.507502 1_555
Co0 Ti5 2.507507 1_545
Co0 Ti7 2.507507 1_455
Co1 Ti3 2.482766 1_555
Co1 Ti0 2.482772 1_555
Co1 Ti2 2.482772 1_555
Co1 Ti6 2.507502 1_555
Co1 Ti9 2.507507 1_455
Co1 Ti5 2.507507 1_554
Co2 Ti3 2.482766 1_555
Co2 Ti1 2.482772 1_555
Co2 Ti0 2.482772 1_555
Co2 Ti4 2.507502 1_555
Co2 Ti7 2.507507 1_554
Co2 Ti9 2.507507 1_545
Co3 Ti0 2.482768 1_555
Co3 Ti1 2.482768 1_555
Co3 Ti2 2.482768 1_555
Co3 Ti4 2.507510 1_455
Co3 Ti8 2.507510 1_554
Co3 Ti6 2.507510 1_545
Co4 Ti3 2.482766 1_555
Co4 Ti2 2.482772 1_655
Co4 Ti1 2.482772 1_565
Co4 Ti14 2.507502 1_555
Co4 Ti13 2.507507 1_655
Co4 Ti11 2.507507 1_565
Co5 Ti3 2.482766 1_555
Co5 Ti2 2.482772 1_655
Co5 Ti0 2.482772 1_556
Co5 Ti12 2.507502 1_555
Co5 Ti15 2.507507 1_655
Co5 Ti11 2.507507 1_556
Co6 Ti3 2.482766 1_555
Co6 Ti1 2.482772 1_565
Co6 Ti0 2.482772 1_556
Co6 Ti10 2.507502 1_555
Co6 Ti15 2.507507 1_565
Co6 Ti13 2.507507 1_556
Co7 Ti1 2.482768 1_565
Co7 Ti0 2.482768 1_556
Co7 Ti2 2.482768 1_655
Co7 Ti14 2.507510 1_556
Co7 Ti10 2.507510 1_655
Co7 Ti12 2.507510 1_565
