# generated using pymatgen
data_RbLa2TaTi2O10
_symmetry_space_group_name_H-M   'P 1'
_cell_length_a   3.87766032
_cell_length_b   3.87766032
_cell_length_c   15.49236371
_cell_angle_alpha   89.61323644
_cell_angle_beta   89.61323644
_cell_angle_gamma   90.06224986
_symmetry_Int_Tables_number   1
_chemical_formula_structural   RbLa2TaTi2O10
_chemical_formula_sum   'Rb1 La2 Ta1 Ti2 O10'
_cell_volume   232.93628275
_cell_formula_units_Z   1
loop_
 _symmetry_equiv_pos_site_id
 _symmetry_equiv_pos_as_xyz
  1  'x, y, z'
loop_
 _atom_site_type_symbol
 _atom_site_label
 _atom_site_symmetry_multiplicity
 _atom_site_fract_x
 _atom_site_fract_y
 _atom_site_fract_z
 _atom_site_occupancy
  Rb  Rb0  1  0.49998000  0.49998000  0.50755000  1
  La  La0  1  0.49324500  0.49324500  0.84251000  1
  La  La1  1  0.49942200  0.49942200  0.13062000  1
  Ta  Ta0  1  0.00030600  0.00030600  0.28430400  1
  Ti  Ti0  1  0.01530000  0.01530000  0.99799300  1
  Ti  Ti1  1  0.99969200  0.99969200  0.70929800  1
  O  O0  1  0.01016300  0.01016300  0.87758200  1
  O  O1  1  0.01185600  0.01185600  0.13157100  1
  O  O2  1  0.50067000  0.99975300  0.74684000  1
  O  O3  1  0.99975300  0.50067000  0.74684000  1
  O  O4  1  0.50228200  0.00315900  0.25391800  1
  O  O5  1  0.00315900  0.50228200  0.25391800  1
  O  O6  1  0.00099800  0.00099800  0.59979500  1
  O  O7  1  0.99808500  0.99808500  0.40025900  1
  O  O8  1  0.52642100  0.05166600  0.00850100  1
  O  O9  1  0.05166600  0.52642100  0.00850100  1
loop_
_geom_bond_atom_site_label_1
_geom_bond_atom_site_label_2
_geom_bond_distance
_geom_bond_site_symmetry_2
La0 O2 2.428433 1_545
La0 O3 2.428433 1_455
La0 O2 2.452584 1_555
La0 O3 2.452584 1_555
La0 O0 2.697793 1_555
La0 O0 2.798407 1_655
La0 O0 2.798407 1_565
La0 O0 2.889879 1_665
La0 O8 3.083356 1_556
La0 O9 3.083356 1_556
La1 O8 2.578160 1_555
La1 O9 2.578160 1_555
La1 O1 2.672181 1_555
La1 O4 2.702349 1_555
La1 O5 2.702349 1_555
La1 O5 2.741346 1_655
La1 O4 2.741346 1_565
La1 O1 2.744298 1_565
La1 O1 2.744298 1_655
La1 O1 2.808758 1_665
La1 O8 2.849226 1_565
La1 O9 2.849226 1_655
O0 Ti0 1.865932 1_555
O1 Ti0 2.069345 1_554
O1 Ta0 2.366437 1_555
O2 Ti1 2.016793 1_555
O2 Ti1 2.031579 1_455
O3 Ti1 2.016793 1_555
O3 Ti1 2.031579 1_545
O4 Ta0 1.990826 1_655
O4 Ta0 1.999518 1_555
O5 Ta0 1.990826 1_565
O5 Ta0 1.999518 1_555
O6 Ti1 1.696407 1_445
O6 Rb0 3.073606 1_555
O6 Rb0 3.093345 1_545
O6 Rb0 3.093345 1_455
O6 Rb0 3.107707 1_445
O7 Ta0 1.796342 1_665
O7 Rb0 3.182661 1_555
O7 Rb0 3.207742 1_565
O7 Rb0 3.207742 1_655
O7 Rb0 3.227571 1_665
O8 Ti0 1.907044 1_654
O8 Ti0 1.994639 1_554
O9 Ti0 1.907044 1_564
O9 Ti0 1.994639 1_554
