# generated using pymatgen
data_Co2OF3
_symmetry_space_group_name_H-M   'P 1'
_cell_length_a   4.71616600
_cell_length_b   5.66701773
_cell_length_c   13.31287893
_cell_angle_alpha   78.46959339
_cell_angle_beta   89.92192500
_cell_angle_gamma   89.69228869
_symmetry_Int_Tables_number   1
_chemical_formula_structural   Co2OF3
_chemical_formula_sum   'Co10 O5 F15'
_cell_volume   348.62225387
_cell_formula_units_Z   5
loop_
 _symmetry_equiv_pos_site_id
 _symmetry_equiv_pos_as_xyz
  1  'x, y, z'
loop_
 _atom_site_type_symbol
 _atom_site_label
 _atom_site_symmetry_multiplicity
 _atom_site_fract_x
 _atom_site_fract_y
 _atom_site_fract_z
 _atom_site_occupancy
  Co  Co0  1  0.51650200  0.51179000  0.00192900  1
  Co  Co1  1  0.49512900  0.69307000  0.40174400  1
  Co  Co2  1  0.54878200  0.27538400  0.59604900  1
  Co  Co3  1  0.45929300  0.09530700  0.21563600  1
  Co  Co4  1  0.51103600  0.90762500  0.79242700  1
  Co  Co5  1  0.98664800  0.20958800  0.40202800  1
  Co  Co6  1  0.03847700  0.39817500  0.81583100  1
  Co  Co7  1  0.97041600  0.59873600  0.19084700  1
  Co  Co8  1  0.99818500  0.79712000  0.60189300  1
  Co  Co9  1  0.98978800  0.00096500  0.99923500  1
  O  O0  1  0.78815200  0.67999800  0.05401900  1
  O  O1  1  0.69683100  0.99449800  0.65464900  1
  O  O2  1  0.71183700  0.37442300  0.45798100  1
  O  O3  1  0.29150100  0.02753100  0.33806900  1
  O  O4  1  0.20459600  0.33128600  0.93839300  1
  F  F0  1  0.79461800  0.27729100  0.25901000  1
  F  F1  1  0.80436200  0.09386400  0.85699400  1
  F  F2  1  0.81010400  0.87724000  0.45839400  1
  F  F3  1  0.81259000  0.47536600  0.66974800  1
  F  F4  1  0.67887000  0.17533100  0.06934500  1
  F  F5  1  0.70012700  0.58113100  0.85816600  1
  F  F6  1  0.68933000  0.78856400  0.25900900  1
  F  F7  1  0.29926700  0.22780800  0.73329700  1
  F  F8  1  0.30583200  0.82503600  0.93456300  1
  F  F9  1  0.29843300  0.41464500  0.14165200  1
  F  F10  1  0.31497200  0.59912900  0.54642000  1
  F  F11  1  0.19133500  0.91706400  0.13927300  1
  F  F12  1  0.20634100  0.11847800  0.53559000  1
  F  F13  1  0.19723200  0.71346900  0.74338700  1
  F  F14  1  0.18941300  0.52008600  0.33441900  1
loop_
_geom_bond_atom_site_label_1
_geom_bond_atom_site_label_2
_geom_bond_distance
_geom_bond_site_symmetry_2
Co0 O0 1.819534 1_555
Co0 F5 2.065398 1_554
Co0 F8 2.071164 1_554
Co0 O4 2.071501 1_554
Co0 F4 2.080751 1_555
Co0 F9 2.100547 1_555
Co1 F2 2.049169 1_555
Co1 F14 2.052584 1_555
Co1 F10 2.074966 1_555
Co1 O2 2.075497 1_555
Co1 F6 2.081345 1_555
Co1 O3 2.138625 1_565
Co2 O1 1.767204 1_545
Co2 O2 1.968062 1_555
Co2 F3 2.063481 1_555
Co2 F12 2.086104 1_555
Co2 F10 2.124645 1_555
Co2 F7 2.143965 1_555
Co3 O3 1.783227 1_555
Co3 F11 2.019548 1_545
Co3 F9 2.023697 1_555
Co3 F6 2.027889 1_545
Co3 F0 2.038646 1_555
Co3 F4 2.171975 1_555
Co4 O1 2.003444 1_555
Co4 F13 2.033326 1_555
Co4 F1 2.036689 1_565
Co4 F7 2.078739 1_565
Co4 F5 2.078864 1_555
Co4 F8 2.093331 1_555
Co5 O2 1.835688 1_555
Co5 F12 2.033220 1_655
Co5 O3 2.046578 1_655
Co5 F14 2.050207 1_655
Co5 F2 2.062461 1_545
Co5 F0 2.073999 1_555
Co6 O4 1.781235 1_555
Co6 F13 2.001694 1_555
Co6 F7 2.014895 1_555
Co6 F1 2.033326 1_455
Co6 F5 2.037725 1_455
Co6 F3 2.183802 1_455
Co7 O0 1.983370 1_555
Co7 F6 2.027237 1_555
Co7 F9 2.040466 1_655
Co7 F0 2.045124 1_555
Co7 F11 2.081907 1_655
Co7 F14 2.139751 1_655
Co8 O1 2.014594 1_555
Co8 F3 2.064803 1_555
Co8 F2 2.072694 1_555
Co8 F13 2.072994 1_655
Co8 F10 2.084865 1_655
Co8 F12 2.105617 1_665
Co9 F1 2.056403 1_555
Co9 O0 2.056955 1_546
Co9 F11 2.061754 1_646
Co9 F8 2.068962 1_645
Co9 F4 2.084983 1_556
Co9 O4 2.144412 1_655
