# generated using pymatgen
data_Ba5Mn(Co2O7)2
_symmetry_space_group_name_H-M   'P 1'
_cell_length_a   5.78992900
_cell_length_b   10.01660700
_cell_length_c   12.08968310
_cell_angle_alpha   89.94737559
_cell_angle_beta   90.00000000
_cell_angle_gamma   90.00000000
_symmetry_Int_Tables_number   1
_chemical_formula_structural   Ba5Mn(Co2O7)2
_chemical_formula_sum   'Ba10 Mn2 Co8 O28'
_cell_volume   701.14623558
_cell_formula_units_Z   2
loop_
 _symmetry_equiv_pos_site_id
 _symmetry_equiv_pos_as_xyz
  1  'x, y, z'
loop_
 _atom_site_type_symbol
 _atom_site_label
 _atom_site_symmetry_multiplicity
 _atom_site_fract_x
 _atom_site_fract_y
 _atom_site_fract_z
 _atom_site_occupancy
  Ba  Ba0  1  0.75000000  0.74864700  0.99881300  1
  Ba  Ba1  1  0.25000000  0.25135300  0.00118700  1
  Ba  Ba2  1  0.75000000  0.08179300  0.57769600  1
  Ba  Ba3  1  0.25000000  0.58482100  0.57849400  1
  Ba  Ba4  1  0.25000000  0.91820700  0.42230400  1
  Ba  Ba5  1  0.75000000  0.41517900  0.42150600  1
  Ba  Ba6  1  0.75000000  0.08666200  0.23040800  1
  Ba  Ba7  1  0.25000000  0.57987100  0.22872100  1
  Ba  Ba8  1  0.25000000  0.91333800  0.76959200  1
  Ba  Ba9  1  0.75000000  0.42012900  0.77127900  1
  Mn  Mn0  1  0.25000000  0.25021000  0.70603000  1
  Mn  Mn1  1  0.75000000  0.74979000  0.29397000  1
  Co  Co0  1  0.75000000  0.08503400  0.86170800  1
  Co  Co1  1  0.25000000  0.58198600  0.86337600  1
  Co  Co2  1  0.25000000  0.91496600  0.13829200  1
  Co  Co3  1  0.75000000  0.41801400  0.13662400  1
  Co  Co4  1  0.75000000  0.74903500  0.70251400  1
  Co  Co5  1  0.25000000  0.25096500  0.29748600  1
  Co  Co6  1  0.75000000  0.75018000  0.50132900  1
  Co  Co7  1  0.25000000  0.24982000  0.49867100  1
  O  O0  1  0.00566700  0.16911600  0.80438800  1
  O  O1  1  0.50419000  0.66762000  0.80752000  1
  O  O2  1  0.49433300  0.16911600  0.80438800  1
  O  O3  1  0.99581000  0.66762000  0.80752000  1
  O  O4  1  0.75000000  0.91737900  0.80818300  1
  O  O5  1  0.25000000  0.41173800  0.80406800  1
  O  O6  1  0.99433300  0.83088400  0.19561200  1
  O  O7  1  0.49581000  0.33238000  0.19248000  1
  O  O8  1  0.50566700  0.83088400  0.19561200  1
  O  O9  1  0.00419000  0.33238000  0.19248000  1
  O  O10  1  0.25000000  0.08262100  0.19181700  1
  O  O11  1  0.75000000  0.58826200  0.19593200  1
  O  O12  1  0.75000000  0.08518700  0.00541900  1
  O  O13  1  0.25000000  0.58148100  0.00741800  1
  O  O14  1  0.25000000  0.91481300  0.99458100  1
  O  O15  1  0.75000000  0.41851900  0.99258200  1
  O  O16  1  0.02527100  0.17537700  0.40018300  1
  O  O17  1  0.52954600  0.67638700  0.39535700  1
  O  O18  1  0.47472900  0.17537700  0.40018300  1
  O  O19  1  0.97045400  0.67638700  0.39535700  1
  O  O20  1  0.75000000  0.89649900  0.39515700  1
  O  O21  1  0.25000000  0.40207100  0.40187700  1
  O  O22  1  0.97472900  0.82462300  0.59981700  1
  O  O23  1  0.47045400  0.32361300  0.60464300  1
  O  O24  1  0.52527100  0.82462300  0.59981700  1
  O  O25  1  0.02954600  0.32361300  0.60464300  1
  O  O26  1  0.25000000  0.10350100  0.60484300  1
  O  O27  1  0.75000000  0.59792900  0.59812300  1
loop_
_geom_bond_atom_site_label_1
_geom_bond_atom_site_label_2
_geom_bond_distance
_geom_bond_site_symmetry_2
Ba0 O1 2.834816 1_555
Ba0 O3 2.834816 1_555
Ba0 O4 2.856711 1_555
Ba0 O11 2.872812 1_556
Ba0 O6 2.888634 1_556
Ba0 O8 2.888634 1_556
Ba0 O15 3.307690 1_555
Ba0 O14 3.339697 1_555
Ba0 O14 3.339697 1_655
Ba0 O13 3.345902 1_556
Ba0 O13 3.345902 1_656
Ba0 O12 3.372008 1_566
Ba1 O7 2.834816 1_555
Ba1 O9 2.834816 1_555
Ba1 O10 2.856711 1_555
Ba1 O5 2.872812 1_554
Ba1 O2 2.888634 1_554
Ba1 O0 2.888634 1_554
Ba1 O13 3.307690 1_555
Ba1 O12 3.339697 1_455
Ba1 O12 3.339697 1_555
Ba1 O15 3.345902 1_454
Ba1 O15 3.345902 1_554
Ba1 O14 3.372008 1_544
Ba2 O16 2.832111 1_655
Ba2 O18 2.832111 1_555
Ba2 O20 2.884868 1_545
Ba2 O22 2.898088 1_545
Ba2 O24 2.898088 1_545
Ba2 O26 2.921634 1_555
Ba2 O26 2.921634 1_655
Ba2 O25 2.931624 1_655
Ba2 O23 2.931624 1_555
Ba2 O4 3.235493 1_545
Ba2 O0 3.236018 1_655
Ba2 O2 3.236018 1_555
Ba3 O21 2.813770 1_555
Ba3 O17 2.891245 1_555
Ba3 O19 2.891245 1_455
Ba3 O24 2.894375 1_555
Ba3 O22 2.894375 1_455
Ba3 O27 2.907650 1_555
Ba3 O27 2.907650 1_455
Ba3 O23 2.928019 1_555
Ba3 O25 2.928019 1_555
Ba3 O5 3.230204 1_555
Ba3 O3 3.244169 1_455
Ba3 O1 3.244169 1_555
Ba4 O24 2.832111 1_555
Ba4 O22 2.832111 1_455
Ba4 O26 2.884868 1_565
Ba4 O18 2.898088 1_565
Ba4 O16 2.898088 1_565
Ba4 O20 2.921634 1_455
Ba4 O20 2.921634 1_555
Ba4 O17 2.931624 1_555
Ba4 O19 2.931624 1_455
Ba4 O10 3.235493 1_565
Ba4 O8 3.236018 1_555
Ba4 O6 3.236018 1_455
Ba5 O27 2.813770 1_555
Ba5 O25 2.891245 1_655
Ba5 O23 2.891245 1_555
Ba5 O16 2.894375 1_655
Ba5 O18 2.894375 1_555
Ba5 O21 2.907650 1_555
Ba5 O21 2.907650 1_655
Ba5 O19 2.928019 1_555
Ba5 O17 2.928019 1_555
Ba5 O11 3.230204 1_555
Ba5 O9 3.244169 1_655
Ba5 O7 3.244169 1_555
Ba6 O12 2.720099 1_555
Ba6 O16 2.747010 1_655
Ba6 O18 2.747010 1_555
Ba6 O20 2.754699 1_545
Ba6 O7 2.903793 1_555
Ba6 O9 2.903793 1_655
Ba6 O10 2.932604 1_555
Ba6 O10 2.932604 1_655
Ba6 O6 2.957063 1_545
Ba6 O8 2.957063 1_545
Ba7 O13 2.675517 1_555
Ba7 O21 2.747230 1_555
Ba7 O17 2.759789 1_555
Ba7 O19 2.759789 1_455
Ba7 O7 2.892242 1_555
Ba7 O9 2.892242 1_555
Ba7 O11 2.923177 1_555
Ba7 O11 2.923177 1_455
Ba7 O8 2.944714 1_555
Ba7 O6 2.944714 1_455
Ba8 O14 2.720099 1_555
Ba8 O24 2.747010 1_555
Ba8 O22 2.747010 1_455
Ba8 O26 2.754699 1_565
Ba8 O3 2.903793 1_455
Ba8 O1 2.903793 1_555
Ba8 O4 2.932604 1_455
Ba8 O4 2.932604 1_555
Ba8 O2 2.957063 1_565
Ba8 O0 2.957063 1_565
Ba9 O15 2.675517 1_555
Ba9 O27 2.747230 1_555
Ba9 O25 2.759789 1_655
Ba9 O23 2.759789 1_555
Ba9 O1 2.892242 1_555
Ba9 O3 2.892242 1_555
Ba9 O5 2.923177 1_555
Ba9 O5 2.923177 1_655
Ba9 O0 2.944714 1_655
Ba9 O2 2.944714 1_555
Mn0 O26 1.912935 1_555
Mn0 O23 1.915880 1_555
Mn0 O25 1.915880 1_555
Mn0 O5 2.006524 1_555
Mn0 O2 2.018249 1_555
Mn0 O0 2.018249 1_555
Mn1 O20 1.912935 1_555
Mn1 O19 1.915880 1_555
Mn1 O17 1.915880 1_555
Mn1 O11 2.006524 1_555
Mn1 O6 2.018249 1_555
Mn1 O8 2.018249 1_555
Co0 O12 1.737423 1_556
Co0 O4 1.800250 1_545
Co0 O0 1.838409 1_655
Co0 O2 1.838409 1_555
Co1 O13 1.741425 1_556
Co1 O3 1.832136 1_455
Co1 O1 1.832136 1_555
Co1 O5 1.850521 1_555
Co2 O14 1.737423 1_554
Co2 O10 1.800250 1_565
Co2 O8 1.838409 1_555
Co2 O6 1.838409 1_455
Co3 O15 1.741425 1_554
Co3 O9 1.832136 1_655
Co3 O7 1.832136 1_555
Co3 O11 1.850521 1_555
Co4 O22 1.950914 1_555
Co4 O24 1.950914 1_555
Co4 O27 1.971594 1_555
Co4 O1 2.073718 1_555
Co4 O3 2.073718 1_555
Co4 O4 2.116451 1_555
Co5 O18 1.950914 1_555
Co5 O16 1.950914 1_555
Co5 O21 1.971594 1_555
Co5 O9 2.073718 1_555
Co5 O7 2.073718 1_555
Co5 O10 2.116451 1_555
Co6 O22 1.915312 1_555
Co6 O24 1.915312 1_555
Co6 O27 1.921419 1_555
Co6 O20 1.947352 1_555
Co6 O19 1.954152 1_555
Co6 O17 1.954152 1_555
Co7 O18 1.915312 1_555
Co7 O16 1.915312 1_555
Co7 O21 1.921419 1_555
Co7 O26 1.947352 1_555
Co7 O23 1.954152 1_555
Co7 O25 1.954152 1_555
