# generated using pymatgen
data_Tm3(GeRh)2
_symmetry_space_group_name_H-M   'P 1'
_cell_length_a   5.54360700
_cell_length_b   7.76675300
_cell_length_c   13.08765300
_cell_angle_alpha   90.00000000
_cell_angle_beta   90.00000000
_cell_angle_gamma   90.00000000
_symmetry_Int_Tables_number   1
_chemical_formula_structural   Tm3(GeRh)2
_chemical_formula_sum   'Tm12 Ge8 Rh8'
_cell_volume   563.49971422
_cell_formula_units_Z   4
loop_
 _symmetry_equiv_pos_site_id
 _symmetry_equiv_pos_as_xyz
  1  'x, y, z'
loop_
 _atom_site_type_symbol
 _atom_site_label
 _atom_site_symmetry_multiplicity
 _atom_site_fract_x
 _atom_site_fract_y
 _atom_site_fract_z
 _atom_site_occupancy
  Tm  Tm0  1  0.62702600  0.25372400  0.25000000  1
  Tm  Tm1  1  0.37297400  0.74627600  0.75000000  1
  Tm  Tm2  1  0.37297400  0.75372400  0.25000000  1
  Tm  Tm3  1  0.62702600  0.24627600  0.75000000  1
  Tm  Tm4  1  0.14756400  0.39434200  0.10016200  1
  Tm  Tm5  1  0.85243600  0.60565800  0.89983800  1
  Tm  Tm6  1  0.85243600  0.60565800  0.60016200  1
  Tm  Tm7  1  0.85243600  0.89434200  0.39983800  1
  Tm  Tm8  1  0.14756400  0.39434200  0.39983800  1
  Tm  Tm9  1  0.14756400  0.10565800  0.60016200  1
  Tm  Tm10  1  0.14756400  0.10565800  0.89983800  1
  Tm  Tm11  1  0.85243600  0.89434200  0.10016200  1
  Ge  Ge0  1  0.12063100  0.10974400  0.25000000  1
  Ge  Ge1  1  0.87936900  0.89025600  0.75000000  1
  Ge  Ge2  1  0.87936900  0.60974400  0.25000000  1
  Ge  Ge3  1  0.12063100  0.39025600  0.75000000  1
  Ge  Ge4  1  0.66106600  0.25000000  0.00000000  1
  Ge  Ge5  1  0.33893400  0.75000000  0.00000000  1
  Ge  Ge6  1  0.33893400  0.75000000  0.50000000  1
  Ge  Ge7  1  0.66106600  0.25000000  0.50000000  1
  Rh  Rh0  1  0.37213300  0.04014900  0.09382200  1
  Rh  Rh1  1  0.62786700  0.95985100  0.90617800  1
  Rh  Rh2  1  0.62786700  0.95985100  0.59382200  1
  Rh  Rh3  1  0.62786700  0.54014900  0.40617800  1
  Rh  Rh4  1  0.37213300  0.04014900  0.40617800  1
  Rh  Rh5  1  0.37213300  0.45985100  0.59382200  1
  Rh  Rh6  1  0.37213300  0.45985100  0.90617800  1
  Rh  Rh7  1  0.62786700  0.54014900  0.09382200  1
loop_
_geom_bond_atom_site_label_1
_geom_bond_atom_site_label_2
_geom_bond_distance
_geom_bond_site_symmetry_2
Ge0 Rh0 2.532586 1_555
Ge0 Rh4 2.532586 1_555
Ge0 Tm0 2.956031 1_455
Ge0 Tm8 2.958682 1_555
Ge0 Tm4 2.958682 1_555
Ge0 Tm7 2.975727 1_445
Ge0 Tm11 2.975727 1_445
Ge0 Tm0 3.021784 1_555
Ge0 Tm2 3.098835 1_545
Ge1 Rh1 2.532586 1_555
Ge1 Rh2 2.532586 1_555
Ge1 Tm1 2.956031 1_655
Ge1 Tm5 2.958682 1_555
Ge1 Tm6 2.958682 1_555
Ge1 Tm10 2.975727 1_665
Ge1 Tm9 2.975727 1_665
Ge1 Tm1 3.021784 1_555
Ge1 Tm3 3.098835 1_565
Ge2 Rh3 2.532586 1_555
Ge2 Rh7 2.532586 1_555
Ge2 Tm2 2.956031 1_655
Ge2 Tm7 2.958682 1_555
Ge2 Tm11 2.958682 1_555
Ge2 Tm8 2.975727 1_655
Ge2 Tm4 2.975727 1_655
Ge2 Tm2 3.021784 1_555
Ge2 Tm0 3.098835 1_555
Ge3 Rh6 2.532586 1_555
Ge3 Rh5 2.532586 1_555
Ge3 Tm3 2.956031 1_455
Ge3 Tm10 2.958682 1_555
Ge3 Tm9 2.958682 1_555
Ge3 Tm5 2.975727 1_455
Ge3 Tm6 2.975727 1_455
Ge3 Tm3 3.021784 1_555
Ge3 Tm1 3.098835 1_555
Ge4 Rh7 2.572930 1_555
Ge4 Rh1 2.572930 1_544
Ge4 Rh0 2.594176 1_555
Ge4 Rh6 2.594176 1_554
Ge4 Tm4 3.201371 1_655
Ge4 Tm10 3.201371 1_654
Ge4 Tm5 3.236392 1_554
Ge4 Tm11 3.236392 1_545
Ge4 Tm0 3.277478 1_555
Ge4 Tm3 3.277478 1_554
Ge4 Tm4 3.328461 1_555
Ge4 Tm10 3.328461 1_554
Ge5 Rh0 2.572930 1_565
Ge5 Rh6 2.572930 1_554
Ge5 Rh7 2.594176 1_555
Ge5 Rh1 2.594176 1_554
Ge5 Tm11 3.201371 1_455
Ge5 Tm5 3.201371 1_454
Ge5 Tm10 3.236392 1_564
Ge5 Tm4 3.236392 1_555
Ge5 Tm2 3.277478 1_555
Ge5 Tm1 3.277478 1_554
Ge5 Tm11 3.328461 1_555
Ge5 Tm5 3.328461 1_554
Ge6 Rh4 2.572930 1_565
Ge6 Rh5 2.572930 1_555
Ge6 Rh2 2.594176 1_555
Ge6 Rh3 2.594176 1_555
Ge6 Tm6 3.201371 1_455
Ge6 Tm7 3.201371 1_455
Ge6 Tm9 3.236392 1_565
Ge6 Tm8 3.236392 1_555
Ge6 Tm2 3.277478 1_555
Ge6 Tm1 3.277478 1_555
Ge6 Tm6 3.328461 1_555
Ge6 Tm7 3.328461 1_555
Ge7 Rh3 2.572930 1_555
Ge7 Rh2 2.572930 1_545
Ge7 Rh5 2.594176 1_555
Ge7 Rh4 2.594176 1_555
Ge7 Tm9 3.201371 1_655
Ge7 Tm8 3.201371 1_655
Ge7 Tm6 3.236392 1_555
Ge7 Tm7 3.236392 1_545
Ge7 Tm3 3.277478 1_555
Ge7 Tm0 3.277478 1_555
Ge7 Tm9 3.328461 1_555
Ge7 Tm8 3.328461 1_555
Rh0 Tm10 2.873009 1_554
Rh0 Tm11 2.894619 1_545
Rh0 Tm0 2.987668 1_555
Rh0 Tm4 3.020651 1_555
Rh0 Tm2 3.021057 1_545
Rh0 Tm11 3.096685 1_445
Rh1 Tm11 2.873009 1_556
Rh1 Tm10 2.894619 1_565
Rh1 Tm1 2.987668 1_555
Rh1 Tm5 3.020651 1_555
Rh1 Tm3 3.021057 1_565
Rh1 Tm10 3.096685 1_665
Rh2 Tm7 2.873009 1_555
Rh2 Tm9 2.894619 1_565
Rh2 Tm1 2.987668 1_555
Rh2 Tm6 3.020651 1_555
Rh2 Tm3 3.021057 1_565
Rh2 Tm9 3.096685 1_665
Rh3 Tm6 2.873009 1_555
Rh3 Tm8 2.894619 1_555
Rh3 Tm2 2.987668 1_555
Rh3 Tm7 3.020651 1_555
Rh3 Tm0 3.021057 1_555
Rh3 Tm8 3.096685 1_655
Rh4 Tm9 2.873009 1_555
Rh4 Tm7 2.894619 1_545
Rh4 Tm0 2.987668 1_555
Rh4 Tm8 3.020651 1_555
Rh4 Tm2 3.021057 1_545
Rh4 Tm7 3.096685 1_445
Rh5 Tm8 2.873009 1_555
Rh5 Tm6 2.894619 1_555
Rh5 Tm3 2.987668 1_555
Rh5 Tm9 3.020651 1_555
Rh5 Tm1 3.021057 1_555
Rh5 Tm6 3.096685 1_455
Rh6 Tm4 2.873009 1_556
Rh6 Tm5 2.894619 1_555
Rh6 Tm3 2.987668 1_555
Rh6 Tm10 3.020651 1_555
Rh6 Tm1 3.021057 1_555
Rh6 Tm5 3.096685 1_455
Rh7 Tm5 2.873009 1_554
Rh7 Tm4 2.894619 1_555
Rh7 Tm2 2.987668 1_555
Rh7 Tm11 3.020651 1_555
Rh7 Tm0 3.021057 1_555
Rh7 Tm4 3.096685 1_655
