# generated using pymatgen
data_LiMg3(WO4)3
_symmetry_space_group_name_H-M   'P 1'
_cell_length_a   5.23808000
_cell_length_b   10.72291000
_cell_length_c   17.32878500
_cell_angle_alpha   90.00000000
_cell_angle_beta   90.00000000
_cell_angle_gamma   90.00000000
_symmetry_Int_Tables_number   1
_chemical_formula_structural   LiMg3(WO4)3
_chemical_formula_sum   'Li4 Mg12 W12 O48'
_cell_volume   973.31384549
_cell_formula_units_Z   4
loop_
 _symmetry_equiv_pos_site_id
 _symmetry_equiv_pos_as_xyz
  1  'x, y, z'
loop_
 _atom_site_type_symbol
 _atom_site_label
 _atom_site_symmetry_multiplicity
 _atom_site_fract_x
 _atom_site_fract_y
 _atom_site_fract_z
 _atom_site_occupancy
  Li  Li0  1  0.27743900  0.25000000  0.69513700  1
  Li  Li1  1  0.72256100  0.75000000  0.30486300  1
  Li  Li2  1  0.22256100  0.75000000  0.19513700  1
  Li  Li3  1  0.77743900  0.25000000  0.80486300  1
  Mg  Mg0  1  0.10215800  0.25000000  0.25103100  1
  Mg  Mg1  1  0.89784200  0.75000000  0.74896900  1
  Mg  Mg2  1  0.39784200  0.75000000  0.75103100  1
  Mg  Mg3  1  0.60215800  0.25000000  0.24896900  1
  Mg  Mg4  1  0.24205100  0.07038900  0.52761900  1
  Mg  Mg5  1  0.75794900  0.92961100  0.47238100  1
  Mg  Mg6  1  0.25794900  0.92961100  0.02761900  1
  Mg  Mg7  1  0.75794900  0.57038900  0.47238100  1
  Mg  Mg8  1  0.74205100  0.07038900  0.97238100  1
  Mg  Mg9  1  0.24205100  0.42961100  0.52761900  1
  Mg  Mg10  1  0.74205100  0.42961100  0.97238100  1
  Mg  Mg11  1  0.25794900  0.57038900  0.02761900  1
  W  W0  1  0.28269300  0.25000000  0.05494100  1
  W  W1  1  0.71730700  0.75000000  0.94505900  1
  W  W2  1  0.21730700  0.75000000  0.55494100  1
  W  W3  1  0.78269300  0.25000000  0.44505900  1
  W  W4  1  0.27794800  0.53609400  0.33124100  1
  W  W5  1  0.72205200  0.46390600  0.66875900  1
  W  W6  1  0.22205200  0.46390600  0.83124100  1
  W  W7  1  0.72205200  0.03609400  0.66875900  1
  W  W8  1  0.77794800  0.53609400  0.16875900  1
  W  W9  1  0.27794800  0.96390600  0.33124100  1
  W  W10  1  0.77794800  0.96390600  0.16875900  1
  W  W11  1  0.22205200  0.03609400  0.83124100  1
  O  O0  1  0.35464200  0.12282300  0.29337000  1
  O  O1  1  0.64535800  0.87717700  0.70663000  1
  O  O2  1  0.14535800  0.87717700  0.79337000  1
  O  O3  1  0.64535800  0.62282300  0.70663000  1
  O  O4  1  0.85464200  0.12282300  0.20663000  1
  O  O5  1  0.35464200  0.37717700  0.29337000  1
  O  O6  1  0.85464200  0.37717700  0.20663000  1
  O  O7  1  0.14535800  0.62282300  0.79337000  1
  O  O8  1  0.01646200  0.61256700  0.27516700  1
  O  O9  1  0.98353800  0.38743300  0.72483300  1
  O  O10  1  0.48353800  0.38743300  0.77516700  1
  O  O11  1  0.98353800  0.11256700  0.72483300  1
  O  O12  1  0.51646200  0.61256700  0.22483300  1
  O  O13  1  0.01646200  0.88743300  0.27516700  1
  O  O14  1  0.51646200  0.88743300  0.22483300  1
  O  O15  1  0.48353800  0.11256700  0.77516700  1
  O  O16  1  0.06917000  0.25000000  0.50672200  1
  O  O17  1  0.93083000  0.75000000  0.49327800  1
  O  O18  1  0.43083000  0.75000000  0.00672200  1
  O  O19  1  0.56917000  0.25000000  0.99327800  1
  O  O20  1  0.08525500  0.11519400  0.03443200  1
  O  O21  1  0.91474500  0.88480600  0.96556800  1
  O  O22  1  0.41474500  0.88480600  0.53443200  1
  O  O23  1  0.91474500  0.61519400  0.96556800  1
  O  O24  1  0.58525500  0.11519400  0.46556800  1
  O  O25  1  0.08525500  0.38480600  0.03443200  1
  O  O26  1  0.58525500  0.38480600  0.46556800  1
  O  O27  1  0.41474500  0.61519400  0.53443200  1
  O  O28  1  0.35330700  0.25000000  0.15731700  1
  O  O29  1  0.64669300  0.75000000  0.84268300  1
  O  O30  1  0.14669300  0.75000000  0.65731700  1
  O  O31  1  0.85330700  0.25000000  0.34268300  1
  O  O32  1  0.08436300  0.00603000  0.42187200  1
  O  O33  1  0.91563700  0.99397000  0.57812800  1
  O  O34  1  0.41563700  0.99397000  0.92187200  1
  O  O35  1  0.91563700  0.50603000  0.57812800  1
  O  O36  1  0.58436300  0.00603000  0.07812800  1
  O  O37  1  0.08436300  0.49397000  0.42187200  1
  O  O38  1  0.58436300  0.49397000  0.07812800  1
  O  O39  1  0.41563700  0.50603000  0.92187200  1
  O  O40  1  0.04648100  0.61644200  0.12127000  1
  O  O41  1  0.95351900  0.38355800  0.87873000  1
  O  O42  1  0.45351900  0.38355800  0.62127000  1
  O  O43  1  0.95351900  0.11644200  0.87873000  1
  O  O44  1  0.54648100  0.61644200  0.37873000  1
  O  O45  1  0.04648100  0.88355800  0.12127000  1
  O  O46  1  0.54648100  0.88355800  0.37873000  1
  O  O47  1  0.45351900  0.11644200  0.62127000  1
loop_
_geom_bond_atom_site_label_1
_geom_bond_atom_site_label_2
_geom_bond_distance
_geom_bond_site_symmetry_2
Li0 O47 2.130760 1_555
Li0 O42 2.130760 1_555
Li0 O9 2.192381 1_455
Li0 O11 2.192381 1_455
Li0 O15 2.293572 1_555
Li0 O10 2.293572 1_555
Li1 O46 2.130760 1_555
Li1 O44 2.130760 1_555
Li1 O8 2.192381 1_655
Li1 O13 2.192381 1_655
Li1 O14 2.293572 1_555
Li1 O12 2.293572 1_555
Li2 O45 2.130760 1_555
Li2 O40 2.130760 1_555
Li2 O14 2.192381 1_555
Li2 O12 2.192381 1_555
Li2 O8 2.293572 1_555
Li2 O13 2.293572 1_555
Li3 O41 2.130760 1_555
Li3 O43 2.130760 1_555
Li3 O10 2.192381 1_555
Li3 O15 2.192381 1_555
Li3 O11 2.293572 1_555
Li3 O9 2.293572 1_555
Mg0 O6 2.032888 1_455
Mg0 O4 2.032888 1_455
Mg0 O0 2.036438 1_555
Mg0 O5 2.036438 1_555
Mg0 O31 2.054642 1_455
Mg0 O28 2.089941 1_555
Mg1 O2 2.032888 1_655
Mg1 O7 2.032888 1_655
Mg1 O1 2.036438 1_555
Mg1 O3 2.036438 1_555
Mg1 O30 2.054642 1_655
Mg1 O29 2.089941 1_555
Mg2 O3 2.032888 1_555
Mg2 O1 2.032888 1_555
Mg2 O7 2.036438 1_555
Mg2 O2 2.036438 1_555
Mg2 O29 2.054642 1_555
Mg2 O30 2.089941 1_555
Mg3 O0 2.032888 1_555
Mg3 O5 2.032888 1_555
Mg3 O6 2.036438 1_555
Mg3 O4 2.036438 1_555
Mg3 O28 2.054642 1_555
Mg3 O31 2.089941 1_555
Mg4 O47 2.025956 1_555
Mg4 O33 2.088279 1_445
Mg4 O32 2.125192 1_555
Mg4 O24 2.149153 1_555
Mg4 O16 2.158812 1_555
Mg4 O22 2.189126 1_545
Mg5 O46 2.025956 1_555
Mg5 O32 2.088279 1_665
Mg5 O33 2.125192 1_555
Mg5 O22 2.149153 1_555
Mg5 O17 2.158812 1_555
Mg5 O24 2.189126 1_565
Mg6 O45 2.025956 1_555
Mg6 O36 2.088279 1_565
Mg6 O34 2.125192 1_554
Mg6 O21 2.149153 1_454
Mg6 O18 2.158812 1_555
Mg6 O20 2.189126 1_565
Mg7 O44 2.025956 1_555
Mg7 O37 2.088279 1_655
Mg7 O35 2.125192 1_555
Mg7 O27 2.149153 1_555
Mg7 O17 2.158812 1_555
Mg7 O26 2.189126 1_555
Mg8 O43 2.025956 1_555
Mg8 O34 2.088279 1_545
Mg8 O36 2.125192 1_556
Mg8 O20 2.149153 1_656
Mg8 O19 2.158812 1_555
Mg8 O21 2.189126 1_545
Mg9 O42 2.025956 1_555
Mg9 O35 2.088279 1_455
Mg9 O37 2.125192 1_555
Mg9 O26 2.149153 1_555
Mg9 O16 2.158812 1_555
Mg9 O27 2.189126 1_555
Mg10 O41 2.025956 1_555
Mg10 O39 2.088279 1_555
Mg10 O38 2.125192 1_556
Mg10 O25 2.149153 1_656
Mg10 O19 2.158812 1_555
Mg10 O23 2.189126 1_555
Mg11 O40 2.025956 1_555
Mg11 O38 2.088279 1_555
Mg11 O39 2.125192 1_554
Mg11 O23 2.149153 1_454
Mg11 O18 2.158812 1_555
Mg11 O25 2.189126 1_555
O0 W9 1.869721 1_545
O1 W7 1.869721 1_565
O2 W11 1.869721 1_565
O3 W5 1.869721 1_555
O4 W10 1.869721 1_545
O5 W4 1.869721 1_555
O6 W8 1.869721 1_555
O7 W6 1.869721 1_555
O8 W4 1.868863 1_555
O8 W8 2.373469 1_455
O9 W5 1.868863 1_555
O9 W6 2.373469 1_655
O10 W6 1.868863 1_555
O10 W5 2.373469 1_555
O11 W7 1.868863 1_555
O11 W11 2.373469 1_655
O12 W8 1.868863 1_555
O12 W4 2.373469 1_555
O13 W9 1.868863 1_555
O13 W10 2.373469 1_455
O14 W10 1.868863 1_555
O14 W9 2.373469 1_555
O15 W11 1.868863 1_555
O15 W7 2.373469 1_555
O16 W3 1.842161 1_455
O17 W2 1.842161 1_655
O18 W1 1.842161 1_554
O19 W0 1.842161 1_556
O20 W0 1.812560 1_555
O21 W1 1.812560 1_555
O22 W2 1.812560 1_555
O23 W1 1.812560 1_555
O24 W3 1.812560 1_555
O25 W0 1.812560 1_555
O26 W3 1.812560 1_555
O27 W2 1.812560 1_555
O28 W0 1.812201 1_555
O29 W1 1.812201 1_555
O30 W2 1.812201 1_555
O31 W3 1.812201 1_555
O32 W9 1.923226 1_545
O33 W7 1.923226 1_565
O34 W11 1.923226 1_565
O35 W5 1.923226 1_555
O36 W10 1.923226 1_545
O37 W4 1.923226 1_555
O38 W8 1.923226 1_555
O39 W6 1.923226 1_555
O40 W8 1.843371 1_455
O41 W6 1.843371 1_655
O42 W5 1.843371 1_555
O43 W11 1.843371 1_655
O44 W4 1.843371 1_555
O45 W10 1.843371 1_455
O46 W9 1.843371 1_555
O47 W7 1.843371 1_555
