# generated using pymatgen
data_Ho2Si2O7
_symmetry_space_group_name_H-M   'P 1'
_cell_length_a   6.55790475
_cell_length_b   6.58078074
_cell_length_c   11.94625571
_cell_angle_alpha   94.26528690
_cell_angle_beta   91.43934441
_cell_angle_gamma   92.11186294
_symmetry_Int_Tables_number   1
_chemical_formula_structural   Ho2Si2O7
_chemical_formula_sum   'Ho8 Si8 O28'
_cell_volume   513.57630656
_cell_formula_units_Z   4
loop_
 _symmetry_equiv_pos_site_id
 _symmetry_equiv_pos_as_xyz
  1  'x, y, z'
loop_
 _atom_site_type_symbol
 _atom_site_label
 _atom_site_symmetry_multiplicity
 _atom_site_fract_x
 _atom_site_fract_y
 _atom_site_fract_z
 _atom_site_occupancy
  Ho  Ho0  1  0.67410993  0.17363089  0.89034960  1
  Ho  Ho1  1  0.32587253  0.82637798  0.10965151  1
  Ho  Ho2  1  0.36886083  0.21429431  0.63398646  1
  Ho  Ho3  1  0.63114139  0.78572779  0.36601057  1
  Ho  Ho4  1  0.88265744  0.91068402  0.64309509  1
  Ho  Ho5  1  0.11734149  0.08931454  0.35690412  1
  Ho  Ho6  1  0.95004844  0.67297403  0.88551011  1
  Ho  Ho7  1  0.04995548  0.32702492  0.11448823  1
  Si  Si0  1  0.14336299  0.62381231  0.37810160  1
  Si  Si1  1  0.85663836  0.37618583  0.62190110  1
  Si  Si2  1  0.37737909  0.72311079  0.59429167  1
  Si  Si3  1  0.62261857  0.27689440  0.40570819  1
  Si  Si4  1  0.48694263  0.66503777  0.82543059  1
  Si  Si5  1  0.51305749  0.33496412  0.17456883  1
  Si  Si6  1  0.15595113  0.14846554  0.88474737  1
  Si  Si7  1  0.84404819  0.85152832  0.11525205  1
  O  O0  1  0.00187533  0.98448941  0.81394891  1
  O  O1  1  0.99812913  0.01550390  0.18605093  1
  O  O2  1  0.00068446  0.33385129  0.91763465  1
  O  O3  1  -0.00068047  0.66614399  0.08236822  1
  O  O4  1  0.35087617  0.21067383  0.81485882  1
  O  O5  1  0.64911723  0.78932542  0.18513685  1
  O  O6  1  0.23012597  0.08295963  0.00577945  1
  O  O7  1  0.76989039  0.91703283  0.99421899  1
  O  O8  1  0.07405452  0.41277176  0.30914026  1
  O  O9  1  0.92594823  0.58722503  0.69086341  1
  O  O10  1  0.96106292  0.77064765  0.41997306  1
  O  O11  1  0.03893533  0.22935122  0.58002557  1
  O  O12  1  0.28872152  0.78102671  0.31149694  1
  O  O13  1  0.71128499  0.21897338  0.68850989  1
  O  O14  1  0.28381920  0.57199097  0.48855162  1
  O  O15  1  0.71617584  0.42800467  0.51145282  1
  O  O16  1  0.35304204  0.48780278  0.12478683  1
  O  O17  1  0.64695499  0.51219511  0.87521183  1
  O  O18  1  0.38545030  0.13569527  0.21234721  1
  O  O19  1  0.61455102  0.86430347  0.78765038  1
  O  O20  1  0.70109601  0.29481848  0.09319780  1
  O  O21  1  0.29890503  0.70518303  0.90680179  1
  O  O22  1  0.59937640  0.43493509  0.30535948  1
  O  O23  1  0.40062155  0.56506468  0.69463974  1
  O  O24  1  0.41325528  0.17308724  0.44747756  1
  O  O25  1  0.58674257  0.82691174  0.55251943  1
  O  O26  1  0.77420601  0.09714984  0.37729035  1
  O  O27  1  0.22579204  0.90285401  0.62271008  1
loop_
_geom_bond_atom_site_label_1
_geom_bond_atom_site_label_2
_geom_bond_distance
_geom_bond_site_symmetry_2
Ho0 O17 2.261865 1_555
Ho0 O7 2.266354 1_545
Ho0 O4 2.311008 1_555
Ho0 O19 2.312431 1_545
Ho0 O2 2.356264 1_655
Ho0 O13 2.468539 1_555
Ho0 O20 2.494031 1_556
Ho0 O0 2.670057 1_645
Ho1 O16 2.261943 1_555
Ho1 O6 2.266222 1_565
Ho1 O5 2.311059 1_555
Ho1 O18 2.312371 1_565
Ho1 O3 2.356173 1_555
Ho1 O12 2.468599 1_555
Ho1 O21 2.494056 1_554
Ho1 O1 2.669884 1_465
Ho2 O4 2.168769 1_555
Ho2 O27 2.215811 1_545
Ho2 O11 2.249856 1_555
Ho2 O24 2.251928 1_555
Ho2 O13 2.320840 1_555
Ho2 O23 2.367495 1_555
Ho3 O5 2.168769 1_555
Ho3 O26 2.215691 1_565
Ho3 O10 2.249852 1_555
Ho3 O25 2.251924 1_555
Ho3 O12 2.320777 1_555
Ho3 O22 2.367630 1_555
Ho4 O0 2.181163 1_655
Ho4 O25 2.228793 1_555
Ho4 O9 2.270312 1_555
Ho4 O27 2.271512 1_655
Ho4 O13 2.389202 1_565
Ho4 O11 2.476120 1_665
Ho4 O19 2.521514 1_555
Ho4 O10 2.820774 1_555
Ho5 O1 2.181149 1_455
Ho5 O24 2.228776 1_555
Ho5 O8 2.270280 1_555
Ho5 O26 2.271521 1_455
Ho5 O12 2.389202 1_545
Ho5 O10 2.476117 1_445
Ho5 O18 2.521539 1_555
Ho5 O11 2.820769 1_555
Ho6 O17 2.213311 1_555
Ho6 O21 2.295760 1_655
Ho6 O0 2.296267 1_655
Ho6 O2 2.326716 1_655
Ho6 O9 2.351639 1_555
Ho6 O7 2.359787 1_555
Ho6 O3 2.369729 1_656
Ho7 O16 2.213269 1_555
Ho7 O20 2.295777 1_455
Ho7 O1 2.296308 1_455
Ho7 O3 2.326680 1_555
Ho7 O8 2.351698 1_555
Ho7 O6 2.359859 1_555
Ho7 O2 2.369673 1_554
O0 Si6 1.625319 1_565
O1 Si7 1.625339 1_545
O2 Si6 1.649196 1_555
O3 Si7 1.649200 1_455
O4 Si6 1.601437 1_555
O5 Si7 1.601433 1_555
O6 Si6 1.608058 1_554
O7 Si7 1.608033 1_556
O8 Si0 1.605788 1_555
O9 Si1 1.605788 1_555
O10 Si0 1.629861 1_655
O11 Si1 1.629856 1_455
O12 Si0 1.643178 1_555
O13 Si1 1.643177 1_555
O14 Si2 1.640230 1_555
O14 Si0 1.653703 1_555
O15 Si3 1.640229 1_555
O15 Si1 1.653704 1_555
O16 Si5 1.613037 1_555
O17 Si4 1.613038 1_555
O18 Si5 1.627798 1_555
O19 Si4 1.627793 1_555
O20 Si5 1.606672 1_555
O21 Si4 1.606668 1_555
O22 Si3 1.652259 1_555
O22 Si5 1.723295 1_555
O23 Si2 1.652277 1_555
O23 Si4 1.723306 1_555
O24 Si3 1.617634 1_555
O25 Si2 1.617631 1_555
O26 Si3 1.595782 1_555
O27 Si2 1.595775 1_555
