# generated using pymatgen
data_NaAl2H18S4N4ClO18
_symmetry_space_group_name_H-M   'P 1'
_cell_length_a   11.40924209
_cell_length_b   14.19624310
_cell_length_c   14.19624310
_cell_angle_alpha   80.70744926
_cell_angle_beta   66.30673369
_cell_angle_gamma   66.30673369
_symmetry_Int_Tables_number   1
_chemical_formula_structural   NaAl2H18S4N4ClO18
_chemical_formula_sum   'Na4 Al8 H72 S16 N16 Cl4 O72'
_cell_volume   1928.05491570
_cell_formula_units_Z   4
loop_
 _symmetry_equiv_pos_site_id
 _symmetry_equiv_pos_as_xyz
  1  'x, y, z'
loop_
 _atom_site_type_symbol
 _atom_site_label
 _atom_site_symmetry_multiplicity
 _atom_site_fract_x
 _atom_site_fract_y
 _atom_site_fract_z
 _atom_site_occupancy
  Na  Na0  1  0.12500000  0.75000000  0.25000000  1
  Na  Na1  1  0.62500000  0.75000000  0.25000000  1
  Na  Na2  1  0.37500000  0.25000000  0.75000000  1
  Na  Na3  1  0.87500000  0.25000000  0.75000000  1
  Al  Al0  1  0.42768180  0.25000000  0.14463640  1
  Al  Al1  1  0.32231820  0.85536360  0.75000000  1
  Al  Al2  1  0.17768180  0.75000000  0.64463640  1
  Al  Al3  1  0.07231820  0.35536360  0.25000000  1
  Al  Al4  1  0.57231820  0.75000000  0.85536360  1
  Al  Al5  1  0.67768180  0.14463640  0.25000000  1
  Al  Al6  1  0.82231820  0.25000000  0.35536360  1
  Al  Al7  1  0.92768180  0.64463640  0.75000000  1
  H  H0  1  0.89449318  0.51685704  0.41357213  1
  H  H1  1  0.32492234  0.58642787  0.48314296  1
  H  H2  1  0.91135022  0.48314296  0.91357213  1
  H  H3  1  0.80806530  0.08642787  0.51685704  1
  H  H4  1  0.10550682  0.48314296  0.58642787  1
  H  H5  1  0.67507766  0.41357213  0.51685704  1
  H  H6  1  0.08864978  0.51685704  0.08642787  1
  H  H7  1  0.19193470  0.91357213  0.48314296  1
  H  H8  1  0.39449318  0.91357213  0.01685704  1
  H  H9  1  0.82492234  0.98314296  0.08642787  1
  H  H10  1  0.41135022  0.41357213  0.98314296  1
  H  H11  1  0.30806530  0.01685704  0.58642787  1
  H  H12  1  0.60550682  0.08642787  0.98314296  1
  H  H13  1  0.17507766  0.01685704  0.91357213  1
  H  H14  1  0.58864978  0.58642787  0.01685704  1
  H  H15  1  0.69193470  0.98314296  0.41357213  1
  H  H16  1  0.90644051  0.63295329  0.39404313  1
  H  H17  1  0.43343693  0.60595687  0.36704671  1
  H  H18  1  0.03939380  0.36704671  0.89404313  1
  H  H19  1  0.80048364  0.10595687  0.63295329  1
  H  H20  1  0.09355949  0.36704671  0.60595687  1
  H  H21  1  0.56656307  0.39404313  0.63295329  1
  H  H22  1  0.96060620  0.63295329  0.10595687  1
  H  H23  1  0.19951636  0.89404313  0.36704671  1
  H  H24  1  0.40644051  0.89404313  0.13295329  1
  H  H25  1  0.93343693  0.86704671  0.10595687  1
  H  H26  1  0.53939380  0.39404313  0.86704671  1
  H  H27  1  0.30048364  0.13295329  0.60595687  1
  H  H28  1  0.59355949  0.10595687  0.86704671  1
  H  H29  1  0.06656307  0.13295329  0.89404313  1
  H  H30  1  0.46060620  0.60595687  0.13295329  1
  H  H31  1  0.69951636  0.86704671  0.39404313  1
  H  H32  1  0.75000826  0.62431007  0.46356240  1
  H  H33  1  0.33788073  0.53643760  0.37568993  1
  H  H34  1  0.87431833  0.37568993  0.96356240  1
  H  H35  1  0.71357066  0.03643760  0.62431007  1
  H  H36  1  0.24999174  0.37568993  0.53643760  1
  H  H37  1  0.66211927  0.46356240  0.62431007  1
  H  H38  1  0.12568167  0.62431007  0.03643760  1
  H  H39  1  0.28642934  0.96356240  0.37568993  1
  H  H40  1  0.25000826  0.96356240  0.12431007  1
  H  H41  1  0.83788073  0.87568993  0.03643760  1
  H  H42  1  0.37431833  0.46356240  0.87568993  1
  H  H43  1  0.21357066  0.12431007  0.53643760  1
  H  H44  1  0.74999174  0.03643760  0.87568993  1
  H  H45  1  0.16211927  0.12431007  0.96356240  1
  H  H46  1  0.62568167  0.53643760  0.12431007  1
  H  H47  1  0.78642934  0.87568993  0.46356240  1
  H  H48  1  0.87135806  0.58101719  0.51389501  1
  H  H49  1  0.46627027  0.48610499  0.41898281  1
  H  H50  1  0.95237526  0.41898281  0.01389501  1
  H  H51  1  0.88525308  0.98610499  0.58101719  1
  H  H52  1  0.12864194  0.41898281  0.48610499  1
  H  H53  1  0.53372973  0.51389501  0.58101719  1
  H  H54  1  0.04762474  0.58101719  0.98610499  1
  H  H55  1  0.11474692  0.01389501  0.41898281  1
  H  H56  1  0.37135806  0.01389501  0.08101719  1
  H  H57  1  0.96627027  0.91898281  0.98610499  1
  H  H58  1  0.45237526  0.51389501  0.91898281  1
  H  H59  1  0.38525308  0.08101719  0.48610499  1
  H  H60  1  0.62864194  0.98610499  0.91898281  1
  H  H61  1  0.03372973  0.08101719  0.01389501  1
  H  H62  1  0.54762474  0.48610499  0.08101719  1
  H  H63  1  0.61474692  0.91898281  0.51389501  1
  H  H64  1  0.25000000  0.20862207  0.29137793  1
  H  H65  1  0.25000000  0.70862207  0.79137793  1
  H  H66  1  0.95862207  0.79137793  0.79137793  1
  H  H67  1  0.04137793  0.20862207  0.20862207  1
  H  H68  1  0.75000000  0.79137793  0.70862207  1
  H  H69  1  0.75000000  0.29137793  0.20862207  1
  H  H70  1  0.45862207  0.29137793  0.29137793  1
  H  H71  1  0.54137793  0.70862207  0.70862207  1
  S  S0  1  0.26267834  0.47545979  0.22378090  1
  S  S1  1  0.46191903  0.77621910  0.52454021  1
  S  S2  1  0.23813813  0.52454021  0.72378090  1
  S  S3  1  0.98645924  0.27621910  0.47545979  1
  S  S4  1  0.73732166  0.52454021  0.77621910  1
  S  S5  1  0.53808097  0.22378090  0.47545979  1
  S  S6  1  0.76186187  0.47545979  0.27621910  1
  S  S7  1  0.01354076  0.72378090  0.52454021  1
  S  S8  1  0.76267834  0.72378090  0.97545979  1
  S  S9  1  0.96191903  0.02454021  0.27621910  1
  S  S10  1  0.73813813  0.22378090  0.02454021  1
  S  S11  1  0.48645924  0.97545979  0.77621910  1
  S  S12  1  0.23732166  0.27621910  0.02454021  1
  S  S13  1  0.03808097  0.97545979  0.72378090  1
  S  S14  1  0.26186187  0.77621910  0.97545979  1
  S  S15  1  0.51354076  0.02454021  0.22378090  1
  N  N0  1  0.85587077  0.58850919  0.44608214  1
  N  N1  1  0.39046209  0.55391786  0.41149081  1
  N  N2  1  0.94437995  0.41149081  0.94608214  1
  N  N3  1  0.80195291  0.05391786  0.58850919  1
  N  N4  1  0.14412923  0.41149081  0.55391786  1
  N  N5  1  0.60953791  0.44608214  0.58850919  1
  N  N6  1  0.05562005  0.58850919  0.05391786  1
  N  N7  1  0.19804709  0.94608214  0.41149081  1
  N  N8  1  0.35587077  0.94608214  0.08850919  1
  N  N9  1  0.89046209  0.91149081  0.05391786  1
  N  N10  1  0.44437995  0.44608214  0.91149081  1
  N  N11  1  0.30195291  0.08850919  0.55391786  1
  N  N12  1  0.64412923  0.05391786  0.91149081  1
  N  N13  1  0.10953791  0.08850919  0.94608214  1
  N  N14  1  0.55562005  0.55391786  0.08850919  1
  N  N15  1  0.69804709  0.91149081  0.44608214  1
  Cl  Cl0  1  0.87500000  0.75000000  0.25000000  1
  Cl  Cl1  1  0.37500000  0.75000000  0.25000000  1
  Cl  Cl2  1  0.12500000  0.25000000  0.75000000  1
  Cl  Cl3  1  0.62500000  0.25000000  0.75000000  1
  O  O0  1  0.37279789  0.39791015  0.13877201  1
  O  O1  1  0.40948005  0.86122799  0.60208985  1
  O  O2  1  0.27070804  0.60208985  0.63877201  1
  O  O3  1  0.01156990  0.36122799  0.39791015  1
  O  O4  1  0.62720211  0.60208985  0.86122799  1
  O  O5  1  0.59051995  0.13877201  0.39791015  1
  O  O6  1  0.72929196  0.39791015  0.36122799  1
  O  O7  1  0.98843010  0.63877201  0.60208985  1
  O  O8  1  0.87279789  0.63877201  0.89791015  1
  O  O9  1  0.90948005  0.10208985  0.36122799  1
  O  O10  1  0.77070804  0.13877201  0.10208985  1
  O  O11  1  0.51156990  0.89791015  0.86122799  1
  O  O12  1  0.12720211  0.36122799  0.10208985  1
  O  O13  1  0.09051995  0.89791015  0.63877201  1
  O  O14  1  0.22929196  0.86122799  0.89791015  1
  O  O15  1  0.48843010  0.10208985  0.13877201  1
  O  O16  1  0.29439731  0.44837366  0.31777894  1
  O  O17  1  0.56054990  0.68222106  0.55162634  1
  O  O18  1  0.24277097  0.55162634  0.81777894  1
  O  O19  1  0.11217624  0.18222106  0.44837366  1
  O  O20  1  0.70560269  0.55162634  0.68222106  1
  O  O21  1  0.43945010  0.31777894  0.44837366  1
  O  O22  1  0.75722903  0.44837366  0.18222106  1
  O  O23  1  0.88782376  0.81777894  0.55162634  1
  O  O24  1  0.79439731  0.81777894  0.94837366  1
  O  O25  1  0.06054990  0.05162634  0.18222106  1
  O  O26  1  0.74277097  0.31777894  0.05162634  1
  O  O27  1  0.61217624  0.94837366  0.68222106  1
  O  O28  1  0.20560269  0.18222106  0.05162634  1
  O  O29  1  0.93945010  0.94837366  0.81777894  1
  O  O30  1  0.25722903  0.68222106  0.94837366  1
  O  O31  1  0.38782376  0.05162634  0.31777894  1
  O  O32  1  0.12583214  0.46971417  0.24322886  1
  O  O33  1  0.33877516  0.75677114  0.53028583  1
  O  O34  1  0.09554630  0.53028583  0.74322886  1
  O  O35  1  0.86906099  0.25677114  0.46971417  1
  O  O36  1  0.87416786  0.53028583  0.75677114  1
  O  O37  1  0.66122484  0.24322886  0.46971417  1
  O  O38  1  0.90445370  0.46971417  0.25677114  1
  O  O39  1  0.13093901  0.74322886  0.53028583  1
  O  O40  1  0.62583214  0.74322886  0.96971417  1
  O  O41  1  0.83877516  0.03028583  0.25677114  1
  O  O42  1  0.59554630  0.24322886  0.03028583  1
  O  O43  1  0.36906099  0.96971417  0.75677114  1
  O  O44  1  0.37416786  0.25677114  0.03028583  1
  O  O45  1  0.16122484  0.96971417  0.74322886  1
  O  O46  1  0.40445370  0.75677114  0.96971417  1
  O  O47  1  0.63093901  0.03028583  0.24322886  1
  O  O48  1  0.25985525  0.57727856  0.18328998  1
  O  O49  1  0.52042379  0.81671002  0.42272144  1
  O  O50  1  0.33713381  0.42272144  0.68328998  1
  O  O51  1  0.94314523  0.31671002  0.57727856  1
  O  O52  1  0.74014475  0.42272144  0.81671002  1
  O  O53  1  0.47957621  0.18328998  0.57727856  1
  O  O54  1  0.66286619  0.57727856  0.31671002  1
  O  O55  1  0.05685477  0.68328998  0.42272144  1
  O  O56  1  0.75985525  0.68328998  0.07727856  1
  O  O57  1  0.02042379  0.92272144  0.31671002  1
  O  O58  1  0.83713381  0.18328998  0.92272144  1
  O  O59  1  0.44314523  0.07727856  0.81671002  1
  O  O60  1  0.24014475  0.31671002  0.92272144  1
  O  O61  1  0.97957621  0.07727856  0.68328998  1
  O  O62  1  0.16286619  0.81671002  0.07727856  1
  O  O63  1  0.55685477  0.92272144  0.18328998  1
  O  O64  1  0.25000000  0.26186328  0.23813672  1
  O  O65  1  0.25000000  0.76186328  0.73813672  1
  O  O66  1  0.01186328  0.73813672  0.73813672  1
  O  O67  1  0.98813672  0.26186328  0.26186328  1
  O  O68  1  0.75000000  0.73813672  0.76186328  1
  O  O69  1  0.75000000  0.23813672  0.26186328  1
  O  O70  1  0.51186328  0.23813672  0.23813672  1
  O  O71  1  0.48813672  0.76186328  0.76186328  1
loop_
_geom_bond_atom_site_label_1
_geom_bond_atom_site_label_2
_geom_bond_distance
_geom_bond_site_symmetry_2
Na0 O57 2.413157 1_555
Na0 O62 2.413157 1_555
Na0 O55 2.413157 1_555
Na0 O48 2.413157 1_555
Na1 O49 2.413157 1_555
Na1 O54 2.413157 1_555
Na1 O63 2.413157 1_555
Na1 O56 2.413157 1_555
Na2 O53 2.413157 1_555
Na2 O50 2.413157 1_555
Na2 O59 2.413157 1_555
Na2 O60 2.413157 1_555
Na3 O61 2.413157 1_555
Na3 O58 2.413157 1_555
Na3 O51 2.413157 1_555
Na3 O52 2.413157 1_555
Al0 O70 1.880178 1_555
Al0 O64 1.880178 1_555
Al0 O42 1.927764 1_555
Al0 O44 1.927764 1_555
Al0 O15 1.933079 1_555
Al0 O0 1.933079 1_555
Al1 O65 1.880178 1_555
Al1 O71 1.880178 1_555
Al1 O43 1.927764 1_555
Al1 O45 1.927764 1_555
Al1 O1 1.933079 1_555
Al1 O14 1.933079 1_555
Al2 O65 1.880178 1_555
Al2 O66 1.880178 1_555
Al2 O39 1.927764 1_555
Al2 O33 1.927764 1_555
Al2 O13 1.933079 1_555
Al2 O2 1.933079 1_555
Al3 O67 1.880178 1_455
Al3 O64 1.880178 1_555
Al3 O38 1.927764 1_455
Al3 O32 1.927764 1_555
Al3 O3 1.933079 1_555
Al3 O12 1.933079 1_555
Al4 O71 1.880178 1_555
Al4 O68 1.880178 1_555
Al4 O46 1.927764 1_555
Al4 O40 1.927764 1_555
Al4 O11 1.933079 1_555
Al4 O4 1.933079 1_555
Al5 O69 1.880178 1_555
Al5 O70 1.880178 1_555
Al5 O47 1.927764 1_555
Al5 O41 1.927764 1_555
Al5 O5 1.933079 1_555
Al5 O10 1.933079 1_555
Al6 O69 1.880178 1_555
Al6 O67 1.880178 1_555
Al6 O35 1.927764 1_555
Al6 O37 1.927764 1_555
Al6 O9 1.933079 1_555
Al6 O6 1.933079 1_555
Al7 O66 1.880178 1_655
Al7 O68 1.880178 1_555
Al7 O34 1.927764 1_655
Al7 O36 1.927764 1_555
Al7 O7 1.933079 1_555
Al7 O8 1.933079 1_555
H0 N0 1.034306 1_555
H1 N1 1.034306 1_555
H2 N2 1.034306 1_555
H3 N3 1.034306 1_555
H4 N4 1.034306 1_555
H5 N5 1.034306 1_555
H6 N6 1.034306 1_555
H7 N7 1.034306 1_555
H8 N8 1.034306 1_555
H9 N9 1.034306 1_555
H10 N10 1.034306 1_555
H11 N11 1.034306 1_555
H12 N12 1.034306 1_555
H13 N13 1.034306 1_555
H14 N14 1.034306 1_555
H15 N15 1.034306 1_555
H16 N0 1.037404 1_555
H17 N1 1.037404 1_555
H18 N2 1.037404 1_455
H19 N3 1.037404 1_555
H20 N4 1.037404 1_555
H21 N5 1.037404 1_555
H22 N6 1.037404 1_655
H23 N7 1.037404 1_555
H24 N8 1.037404 1_555
H25 N9 1.037404 1_555
H26 N10 1.037404 1_555
H27 N11 1.037404 1_555
H28 N12 1.037404 1_555
H29 N13 1.037404 1_555
H30 N14 1.037404 1_555
H31 N15 1.037404 1_555
H32 N0 1.041729 1_555
H33 N1 1.041729 1_555
H34 N2 1.041729 1_555
H35 N3 1.041729 1_555
H36 N4 1.041729 1_555
H37 N5 1.041729 1_555
H38 N6 1.041729 1_555
H39 N7 1.041729 1_555
H40 N8 1.041729 1_555
H41 N9 1.041729 1_555
H42 N10 1.041729 1_555
H43 N11 1.041729 1_555
H44 N12 1.041729 1_555
H45 N13 1.041729 1_555
H46 N14 1.041729 1_555
H47 N15 1.041729 1_555
H48 N0 1.028514 1_555
H49 N1 1.028515 1_555
H50 N2 1.028515 1_554
H51 N3 1.028515 1_565
H52 N4 1.028514 1_555
H53 N5 1.028515 1_555
H54 N6 1.028515 1_556
H55 N7 1.028515 1_545
H56 N8 1.028514 1_545
H57 N9 1.028515 1_556
H58 N10 1.028515 1_555
H59 N11 1.028515 1_555
H60 N12 1.028514 1_565
H61 N13 1.028515 1_554
H62 N14 1.028515 1_555
H63 N15 1.028515 1_555
H64 O64 0.978801 1_555
H65 O65 0.978801 1_555
H66 O66 0.978801 1_655
H67 O67 0.978801 1_455
H68 O68 0.978801 1_555
H69 O69 0.978801 1_555
H70 O70 0.978801 1_555
H71 O71 0.978801 1_555
Cl0 Na1 2.852311 1_555
Cl0 Na0 2.852311 1_655
Cl1 Na0 2.852311 1_555
Cl1 Na1 2.852311 1_555
Cl2 Na2 2.852311 1_555
Cl2 Na3 2.852311 1_455
Cl3 Na2 2.852311 1_555
Cl3 Na3 2.852311 1_555
O0 S0 1.531595 1_555
O1 S1 1.531595 1_555
O2 S2 1.531595 1_555
O3 S3 1.531595 1_455
O4 S4 1.531595 1_555
O5 S5 1.531595 1_555
O6 S6 1.531595 1_555
O7 S7 1.531595 1_655
O8 S8 1.531595 1_555
O9 S9 1.531595 1_555
O10 S10 1.531595 1_555
O11 S11 1.531595 1_555
O12 S12 1.531595 1_555
O13 S13 1.531595 1_555
O14 S14 1.531595 1_555
O15 S15 1.531595 1_555
O16 S0 1.473111 1_555
O17 S1 1.473111 1_555
O18 S2 1.473111 1_555
O19 S3 1.473111 1_455
O20 S4 1.473111 1_555
O21 S5 1.473111 1_555
O22 S6 1.473111 1_555
O23 S7 1.473111 1_655
O24 S8 1.473111 1_555
O25 S9 1.473111 1_455
O26 S10 1.473111 1_555
O27 S11 1.473111 1_555
O28 S12 1.473111 1_555
O29 S13 1.473111 1_655
O30 S14 1.473111 1_555
O31 S15 1.473111 1_555
O32 S0 1.506391 1_555
O33 S1 1.506391 1_555
O34 S2 1.506391 1_555
O35 S3 1.506391 1_555
O36 S4 1.506391 1_555
O37 S5 1.506391 1_555
O38 S6 1.506391 1_555
O39 S7 1.506391 1_555
O40 S8 1.506391 1_555
O41 S9 1.506391 1_555
O42 S10 1.506391 1_555
O43 S11 1.506391 1_555
O44 S12 1.506391 1_555
O45 S13 1.506391 1_555
O46 S14 1.506391 1_555
O47 S15 1.506391 1_555
O48 S0 1.459416 1_555
O49 S1 1.459416 1_555
O50 S2 1.459416 1_555
O51 S3 1.459416 1_555
O52 S4 1.459416 1_555
O53 S5 1.459416 1_555
O54 S6 1.459416 1_555
O55 S7 1.459416 1_555
O56 S8 1.459416 1_554
O57 S9 1.459416 1_465
O58 S10 1.459416 1_556
O59 S11 1.459416 1_545
O60 S12 1.459416 1_556
O61 S13 1.459416 1_645
O62 S14 1.459416 1_554
O63 S15 1.459416 1_565
