# generated using pymatgen
data_Sr4La2Mg(RuO6)2
_symmetry_space_group_name_H-M   'P 1'
_cell_length_a   3.89101396
_cell_length_b   3.89101469
_cell_length_c   41.35624544
_cell_angle_alpha   106.38024680
_cell_angle_beta   106.38025044
_cell_angle_gamma   89.97226858
_symmetry_Int_Tables_number   1
_chemical_formula_structural   Sr4La2Mg(RuO6)2
_chemical_formula_sum   'Sr8 La4 Mg2 Ru4 O24'
_cell_volume   574.20775906
_cell_formula_units_Z   2
loop_
 _symmetry_equiv_pos_site_id
 _symmetry_equiv_pos_as_xyz
  1  'x, y, z'
loop_
 _atom_site_type_symbol
 _atom_site_label
 _atom_site_symmetry_multiplicity
 _atom_site_fract_x
 _atom_site_fract_y
 _atom_site_fract_z
 _atom_site_occupancy
  Sr  Sr0  1  0.35328121  0.35328121  0.95091916  1
  Sr  Sr1  1  0.35599530  0.35599530  0.45228214  1
  Sr  Sr2  1  0.64671879  0.64671879  0.54908084  1
  Sr  Sr3  1  0.35465595  0.35465595  0.28487563  1
  Sr  Sr4  1  0.64744882  0.64744882  0.38264640  1
  Sr  Sr5  1  0.35255118  0.35255118  0.11735360  1
  Sr  Sr6  1  0.64534405  0.64534405  0.21512437  1
  Sr  Sr7  1  0.64400470  0.64400470  0.04771786  1
  La  La0  1  0.35959076  0.35959076  0.78728219  1
  La  La1  1  0.64328349  0.64328349  0.87801686  1
  La  La2  1  0.35671651  0.35671651  0.62198314  1
  La  La3  1  0.64040924  0.64040924  0.71271781  1
  Mg  Mg0  1  0.99853860  0.99853860  0.83307647  1
  Mg  Mg1  1  0.00146140  0.00146140  0.66692353  1
  Ru  Ru0  1  0.00083869  0.00083869  0.33369624  1
  Ru  Ru1  1  0.99916131  0.99916131  0.16630376  1
  Ru  Ru2  1  0.99696176  0.99696176  0.99874067  1
  Ru  Ru3  1  0.00303824  0.00303824  0.50125933  1
  O  O0  1  0.99757347  0.49670255  0.83262179  1
  O  O1  1  0.15136314  0.15136314  0.88917059  1
  O  O2  1  0.00242653  0.50329745  0.66737821  1
  O  O3  1  0.17688011  0.17688011  0.72609494  1
  O  O4  1  0.49670255  0.99757347  0.83262179  1
  O  O5  1  0.00093788  0.50144708  0.50075068  1
  O  O6  1  0.16870505  0.16870505  0.55611320  1
  O  O7  1  0.83129495  0.83129495  0.94388680  1
  O  O8  1  0.50329745  0.00242653  0.66737821  1
  O  O9  1  0.00089030  0.50083526  0.33369186  1
  O  O10  1  0.16320711  0.16320711  0.38776035  1
  O  O11  1  0.82311989  0.82311989  0.77390506  1
  O  O12  1  0.50144708  0.00093788  0.50075068  1
  O  O13  1  0.99910970  0.49916474  0.16630814  1
  O  O14  1  0.16173514  0.16173514  0.22042345  1
  O  O15  1  0.84863686  0.84863686  0.61082941  1
  O  O16  1  0.50083526  0.00089030  0.33369186  1
  O  O17  1  0.99906212  0.49855292  0.99924932  1
  O  O18  1  0.16013402  0.16013402  0.05297980  1
  O  O19  1  0.83986598  0.83986598  0.44702020  1
  O  O20  1  0.49916474  0.99910970  0.16630814  1
  O  O21  1  0.83826486  0.83826486  0.27957655  1
  O  O22  1  0.49855292  0.99906212  0.99924932  1
  O  O23  1  0.83679289  0.83679289  0.11223965  1
loop_
_geom_bond_atom_site_label_1
_geom_bond_atom_site_label_2
_geom_bond_distance
_geom_bond_site_symmetry_2
La0 O3 2.320624 1_555
La0 O0 2.590271 1_455
La0 O4 2.590271 1_545
La0 O0 2.602798 1_555
La0 O4 2.602798 1_555
La0 O11 2.778886 1_445
La0 O11 2.797164 1_455
La0 O11 2.797164 1_545
La0 O11 2.817926 1_555
La1 O7 2.498748 1_555
La1 O0 2.570064 1_555
La1 O4 2.570064 1_555
La1 O0 2.626665 1_455
La1 O4 2.626665 1_545
La1 O1 2.646602 1_665
La1 O1 2.786526 1_655
La1 O1 2.786526 1_565
La1 O1 2.922261 1_555
La2 O6 2.498748 1_555
La2 O2 2.570064 1_555
La2 O8 2.570064 1_555
La2 O2 2.626665 1_655
La2 O8 2.626665 1_565
La2 O15 2.646602 1_445
La2 O15 2.786526 1_455
La2 O15 2.786526 1_545
La2 O15 2.922261 1_555
La3 O11 2.320624 1_555
La3 O2 2.590271 1_655
La3 O8 2.590271 1_565
La3 O2 2.602798 1_555
La3 O8 2.602798 1_555
La3 O3 2.778886 1_665
La3 O3 2.797164 1_655
La3 O3 2.797164 1_565
La3 O3 2.817926 1_555
Mg0 O4 1.943741 1_655
Mg0 O0 1.943741 1_565
Mg0 O4 1.947427 1_555
Mg0 O0 1.947427 1_555
Mg0 O1 2.129108 1_665
Mg0 O11 2.244191 1_555
Mg1 O8 1.943741 1_455
Mg1 O2 1.943741 1_545
Mg1 O8 1.947427 1_555
Mg1 O2 1.947427 1_555
Mg1 O15 2.129108 1_445
Mg1 O3 2.244191 1_555
O1 Sr0 2.343762 1_555
O5 Ru3 1.945341 1_555
O5 Ru3 1.945867 1_565
O5 Sr2 2.670198 1_455
O5 Sr2 2.675786 1_555
O5 Sr1 2.675838 1_455
O5 Sr1 2.677345 1_555
O6 Ru3 2.080431 1_555
O6 Sr2 2.759895 1_555
O6 Sr2 2.763602 1_455
O6 Sr2 2.763602 1_545
O6 Sr2 2.769950 1_445
O7 Ru2 2.080431 1_555
O7 Sr0 2.759895 1_555
O7 Sr0 2.763602 1_655
O7 Sr0 2.763602 1_565
O7 Sr0 2.769950 1_665
O9 Ru0 1.945470 1_565
O9 Ru0 1.945545 1_555
O9 Sr3 2.685619 1_455
O9 Sr3 2.685711 1_555
O9 Sr4 2.688984 1_555
O9 Sr4 2.689584 1_455
O10 Ru0 2.050467 1_555
O10 Sr1 2.447091 1_555
O10 Sr4 2.756454 1_555
O10 Sr4 2.757527 1_455
O10 Sr4 2.757527 1_545
O10 Sr4 2.761255 1_445
O12 Ru3 1.945341 1_555
O12 Ru3 1.945867 1_655
O12 Sr2 2.670198 1_545
O12 Sr2 2.675786 1_555
O12 Sr1 2.675839 1_545
O12 Sr1 2.677345 1_555
O13 Ru1 1.945470 1_545
O13 Ru1 1.945545 1_555
O13 Sr6 2.685619 1_655
O13 Sr6 2.685711 1_555
O13 Sr5 2.688984 1_555
O13 Sr5 2.689584 1_655
O14 Ru1 2.052575 1_445
O14 Sr3 2.444450 1_555
O14 Sr6 2.756528 1_555
O14 Sr6 2.758030 1_455
O14 Sr6 2.758030 1_545
O14 Sr6 2.762186 1_445
O15 Sr2 2.343762 1_555
O16 Ru0 1.945469 1_655
O16 Ru0 1.945545 1_555
O16 Sr3 2.685619 1_545
O16 Sr3 2.685711 1_555
O16 Sr4 2.688984 1_555
O16 Sr4 2.689584 1_545
O17 Ru2 1.945341 1_555
O17 Ru2 1.945867 1_545
O17 Sr0 2.670198 1_655
O17 Sr0 2.675786 1_555
O17 Sr7 2.675838 1_656
O17 Sr7 2.677345 1_556
O18 Ru2 2.057107 1_444
O18 Sr5 2.441478 1_555
O18 Sr7 2.757252 1_555
O18 Sr7 2.757927 1_455
O18 Sr7 2.757927 1_545
O18 Sr7 2.761258 1_445
O19 Ru3 2.057107 1_665
O19 Sr4 2.441478 1_555
O19 Sr1 2.757252 1_555
O19 Sr1 2.757927 1_655
O19 Sr1 2.757927 1_565
O19 Sr1 2.761258 1_665
O20 Ru1 1.945469 1_455
O20 Ru1 1.945545 1_555
O20 Sr6 2.685619 1_565
O20 Sr6 2.685711 1_555
O20 Sr5 2.688984 1_555
O20 Sr5 2.689584 1_565
O21 Ru0 2.052575 1_665
O21 Sr6 2.444450 1_555
O21 Sr3 2.756528 1_555
O21 Sr3 2.758030 1_655
O21 Sr3 2.758030 1_565
O21 Sr3 2.762186 1_665
O22 Ru2 1.945341 1_555
O22 Ru2 1.945867 1_455
O22 Sr0 2.670198 1_565
O22 Sr0 2.675786 1_555
O22 Sr7 2.675839 1_566
O22 Sr7 2.677345 1_556
O23 Ru1 2.050467 1_555
O23 Sr7 2.447091 1_555
O23 Sr5 2.756454 1_555
O23 Sr5 2.757527 1_655
O23 Sr5 2.757527 1_565
O23 Sr5 2.761255 1_665
