# generated using pymatgen
data_MgAg6Mo10O33
_symmetry_space_group_name_H-M   'P 1'
_cell_length_a   7.73696481
_cell_length_b   8.85355948
_cell_length_c   11.64363060
_cell_angle_alpha   77.17685844
_cell_angle_beta   79.27015595
_cell_angle_gamma   75.99379944
_symmetry_Int_Tables_number   1
_chemical_formula_structural   MgAg6Mo10O33
_chemical_formula_sum   'Mg1 Ag6 Mo10 O33'
_cell_volume   747.13903718
_cell_formula_units_Z   1
loop_
 _symmetry_equiv_pos_site_id
 _symmetry_equiv_pos_as_xyz
  1  'x, y, z'
loop_
 _atom_site_type_symbol
 _atom_site_label
 _atom_site_symmetry_multiplicity
 _atom_site_fract_x
 _atom_site_fract_y
 _atom_site_fract_z
 _atom_site_occupancy
  Mg  Mg0  1  0.38336370  0.21067636  0.76759781  1
  Ag  Ag0  1  0.32623315  0.02437432  0.25798778  1
  Ag  Ag1  1  0.70504284  0.90889349  0.74201795  1
  Ag  Ag2  1  0.20512609  0.43669214  0.19293118  1
  Ag  Ag3  1  0.96746425  0.41083263  0.72693620  1
  Ag  Ag4  1  0.51757148  0.57939767  0.25437673  1
  Ag  Ag5  1  0.35082162  0.55278948  0.83129707  1
  Mo  Mo0  1  0.44829699  0.21182490  0.47719550  1
  Mo  Mo1  1  0.56270039  0.77613670  0.52541651  1
  Mo  Mo2  1  0.94608283  0.21546799  0.47825198  1
  Mo  Mo3  1  0.06112480  0.78438122  0.51451875  1
  Mo  Mo4  1  0.87029896  0.80345351  0.04670237  1
  Mo  Mo5  1  0.11473290  0.18689784  0.97773389  1
  Mo  Mo6  1  0.65405840  0.21264571  0.98094281  1
  Mo  Mo7  1  0.29442511  0.82509009  0.00696682  1
  Mo  Mo8  1  0.80036521  0.01188713  0.31536131  1
  Mo  Mo9  1  0.20622837  0.97473355  0.67686070  1
  O  O0  1  0.03716583  0.97609479  0.00612935  1
  O  O1  1  0.11609381  0.68116478  0.05817758  1
  O  O2  1  0.85679430  0.29864558  0.95169636  1
  O  O3  1  0.67402559  0.00369934  0.05619076  1
  O  O4  1  0.34768524  0.03104614  0.92904883  1
  O  O5  1  0.47370233  0.33282659  0.05414260  1
  O  O6  1  0.47352814  0.69177710  0.94291663  1
  O  O7  1  0.75324041  0.65861912  0.12769003  1
  O  O8  1  0.20694799  0.35665264  0.86551064  1
  O  O9  1  0.14869244  0.20717506  0.11744119  1
  O  O10  1  0.84542561  0.80683622  0.89935453  1
  O  O11  1  0.34745756  0.82014602  0.14997929  1
  O  O12  1  0.60536158  0.21855652  0.83507550  1
  O  O13  1  0.76711451  0.17937786  0.20533774  1
  O  O14  1  0.21510478  0.82814467  0.80856543  1
  O  O15  1  0.86366971  0.85633259  0.23362092  1
  O  O16  1  0.14679763  0.15267252  0.75286631  1
  O  O17  1  0.41725978  0.35767447  0.34745278  1
  O  O18  1  0.58415249  0.64797069  0.66213156  1
  O  O19  1  0.99536489  0.34556488  0.34505802  1
  O  O20  1  0.02688065  0.65011207  0.64832427  1
  O  O21  1  0.02255612  0.00605934  0.37210164  1
  O  O22  1  0.97837533  0.99491059  0.60666242  1
  O  O23  1  0.54046204  0.00793197  0.38239398  1
  O  O24  1  0.47315893  0.99280851  0.62390299  1
  O  O25  1  0.16301096  0.66942296  0.40867236  1
  O  O26  1  0.85608307  0.33836168  0.58179665  1
  O  O27  1  0.58749967  0.65474386  0.42242565  1
  O  O28  1  0.42152158  0.31866903  0.59347922  1
  O  O29  1  0.71743714  0.17195421  0.45416532  1
  O  O30  1  0.29269270  0.83045771  0.54121118  1
  O  O31  1  0.80253413  0.82857793  0.48989376  1
  O  O32  1  0.21159898  0.16196281  0.50348914  1
loop_
_geom_bond_atom_site_label_1
_geom_bond_atom_site_label_2
_geom_bond_distance
_geom_bond_site_symmetry_2
Mg0 O8 2.013403 1_555
Mg0 O12 2.038899 1_555
Mg0 O28 2.040808 1_555
Mg0 O16 2.062556 1_555
Mg0 O4 2.198090 1_555
Mg0 O24 2.711781 1_545
Ag0 O23 2.355909 1_555
Ag0 O11 2.380482 1_545
Ag0 O9 2.401978 1_555
Ag0 O21 2.497682 1_555
Ag1 O10 2.209825 1_555
Ag1 O24 2.341388 1_555
Ag1 O22 2.557701 1_555
Ag2 O19 2.313301 1_455
Ag2 O1 2.407168 1_555
Ag2 O5 2.501866 1_555
Ag2 O17 2.530875 1_555
Ag2 O9 2.541191 1_555
Ag3 O20 2.234072 1_655
Ag3 O26 2.302490 1_555
Ag3 O16 2.356908 1_655
Ag3 O8 2.570232 1_655
Ag3 O2 2.644239 1_555
Ag4 O17 2.260600 1_555
Ag4 O7 2.269537 1_555
Ag4 O27 2.390538 1_555
Ag4 O11 2.416772 1_555
Ag5 O8 2.208334 1_555
Ag5 O14 2.386172 1_555
Ag5 O6 2.416498 1_555
Ag5 O18 2.554295 1_555
Mo0 O17 1.768140 1_555
Mo0 O28 1.772056 1_555
Mo0 O32 1.940344 1_555
Mo0 O29 2.002722 1_555
Mo0 O23 2.225738 1_555
Mo0 O24 2.277386 1_545
Mo1 O27 1.736828 1_555
Mo1 O18 1.747736 1_555
Mo1 O31 1.968716 1_555
Mo1 O30 2.009748 1_555
Mo1 O23 2.330919 1_565
Mo1 O24 2.347818 1_555
Mo2 O26 1.739316 1_555
Mo2 O19 1.754061 1_555
Mo2 O29 1.979674 1_555
Mo2 O32 2.054943 1_655
Mo2 O22 2.172097 1_545
Mo2 O21 2.351371 1_655
Mo3 O25 1.727100 1_555
Mo3 O20 1.757073 1_555
Mo3 O31 2.005742 1_455
Mo3 O30 2.022465 1_555
Mo3 O22 2.255991 1_455
Mo3 O21 2.268682 1_565
Mo4 O7 1.749623 1_555
Mo4 O10 1.754644 1_554
Mo4 O1 1.959671 1_655
Mo4 O3 2.045152 1_565
Mo4 O0 2.152633 1_655
Mo4 O15 2.314664 1_555
Mo5 O9 1.749007 1_556
Mo5 O8 1.943052 1_555
Mo5 O0 2.036454 1_546
Mo5 O2 2.046908 1_455
Mo5 O4 2.058325 1_555
Mo6 O5 1.745496 1_556
Mo6 O12 1.794050 1_555
Mo6 O3 1.845624 1_556
Mo6 O2 1.849380 1_555
Mo7 O6 1.756048 1_554
Mo7 O11 1.776646 1_555
Mo7 O4 1.951418 1_564
Mo7 O1 2.022469 1_555
Mo7 O0 2.112474 1_555
Mo7 O14 2.491206 1_554
Mo8 O13 1.732370 1_555
Mo8 O15 1.767535 1_545
Mo8 O21 1.938870 1_655
Mo8 O23 2.022751 1_555
Mo8 O29 2.285275 1_555
Mo8 O31 2.302074 1_545
Mo9 O14 1.775782 1_555
Mo9 O16 1.895569 1_565
Mo9 O22 2.031518 1_455
Mo9 O24 2.076778 1_555
Mo9 O30 2.159238 1_555
Mo9 O32 2.311130 1_565
