# generated using pymatgen
data_Li4V3Sn3(TeO8)2
_symmetry_space_group_name_H-M   'P 1'
_cell_length_a   6.25868757
_cell_length_b   10.96093318
_cell_length_c   10.13266374
_cell_angle_alpha   89.73637684
_cell_angle_beta   89.68139085
_cell_angle_gamma   90.25802241
_symmetry_Int_Tables_number   1
_chemical_formula_structural   Li4V3Sn3(TeO8)2
_chemical_formula_sum   'Li8 V6 Sn6 Te4 O32'
_cell_volume   695.08620103
_cell_formula_units_Z   2
loop_
 _symmetry_equiv_pos_site_id
 _symmetry_equiv_pos_as_xyz
  1  'x, y, z'
loop_
 _atom_site_type_symbol
 _atom_site_label
 _atom_site_symmetry_multiplicity
 _atom_site_fract_x
 _atom_site_fract_y
 _atom_site_fract_z
 _atom_site_occupancy
  Li  Li0  1  0.50253200  0.16835300  0.90431300  1
  Li  Li1  1  0.00256100  0.66836200  0.90428300  1
  Li  Li2  1  0.98931600  0.00295600  0.98809500  1
  Li  Li3  1  0.48926400  0.50293600  0.98806800  1
  Li  Li4  1  0.99405100  0.99958400  0.49795600  1
  Li  Li5  1  0.49388500  0.49948600  0.49795900  1
  Li  Li6  1  0.50010800  0.83323500  0.39970100  1
  Li  Li7  1  0.00007200  0.33323200  0.39967500  1
  V  V0  1  0.25070700  0.58508800  0.21234900  1
  V  V1  1  0.74756100  0.91259900  0.71469400  1
  V  V2  1  0.24742200  0.41246500  0.71464700  1
  V  V3  1  0.75058800  0.08516100  0.21240000  1
  V  V4  1  0.50276000  0.66895200  0.71222300  1
  V  V5  1  0.00289700  0.16891700  0.71225500  1
  Sn  Sn0  1  0.25079300  0.91358500  0.71347000  1
  Sn  Sn1  1  0.75072400  0.41355300  0.71351100  1
  Sn  Sn2  1  0.49944300  0.33301300  0.21485900  1
  Sn  Sn3  1  0.99949700  0.83302300  0.21488200  1
  Sn  Sn4  1  0.24907900  0.08559600  0.21289400  1
  Sn  Sn5  1  0.74906100  0.58557300  0.21289500  1
  Te  Te0  1  0.51010300  0.15582500  0.49725300  1
  Te  Te1  1  0.01011400  0.65578700  0.49721800  1
  Te  Te2  1  0.50711800  0.83200600  0.97838700  1
  Te  Te3  1  0.00700300  0.33190300  0.97855200  1
  O  O0  1  0.26465000  0.24307800  0.33055400  1
  O  O1  1  0.76471000  0.74305700  0.33058200  1
  O  O2  1  0.49759000  0.16863900  0.10450700  1
  O  O3  1  0.99760700  0.66860600  0.10452900  1
  O  O4  1  0.00075100  0.99977600  0.31758000  1
  O  O5  1  0.50077600  0.49975200  0.31754900  1
  O  O6  1  0.99436500  0.99431600  0.80673200  1
  O  O7  1  0.49430300  0.49423000  0.80664400  1
  O  O8  1  0.22622500  0.92721200  0.09772500  1
  O  O9  1  0.72623300  0.42720100  0.09774900  1
  O  O10  1  0.75153200  0.07237400  0.59588900  1
  O  O11  1  0.25143400  0.57221400  0.59583100  1
  O  O12  1  0.50480700  0.84175800  0.60860600  1
  O  O13  1  0.00472900  0.34167900  0.60856200  1
  O  O14  1  0.72769700  0.76762900  0.84456000  1
  O  O15  1  0.22766800  0.26754700  0.84454300  1
  O  O16  1  0.50193400  0.34011700  0.60184700  1
  O  O17  1  0.00189400  0.84034800  0.60184100  1
  O  O18  1  0.24960500  0.07527000  0.59511600  1
  O  O19  1  0.74947900  0.57511100  0.59504900  1
  O  O20  1  0.73203000  0.23904900  0.32636700  1
  O  O21  1  0.23193900  0.73901600  0.32637600  1
  O  O22  1  0.50288600  0.01947200  0.33610500  1
  O  O23  1  0.00283000  0.51952800  0.33628100  1
  O  O24  1  0.49919400  0.97991100  0.84426200  1
  O  O25  1  0.99914100  0.47984300  0.84417500  1
  O  O26  1  0.28076800  0.76197400  0.84721300  1
  O  O27  1  0.78069100  0.26191700  0.84723800  1
  O  O28  1  0.76955400  0.92936100  0.10534200  1
  O  O29  1  0.26948000  0.42936800  0.10540900  1
  O  O30  1  0.49354600  0.64986500  0.09920600  1
  O  O31  1  0.99358800  0.14989700  0.09916500  1
loop_
_geom_bond_atom_site_label_1
_geom_bond_atom_site_label_2
_geom_bond_distance
_geom_bond_site_symmetry_2
Li0 O2 2.028579 1_556
Li0 O27 2.093858 1_555
Li0 O15 2.128540 1_555
Li0 O24 2.155989 1_545
Li1 O3 2.029104 1_456
Li1 O26 2.094348 1_555
Li1 O14 2.128814 1_455
Li1 O25 2.156968 1_455
Li2 O6 1.840667 1_545
Li2 O31 1.969267 1_556
Li2 O28 1.979121 1_546
Li2 O8 2.035358 1_646
Li3 O7 1.841324 1_555
Li3 O30 1.969556 1_556
Li3 O29 1.979663 1_556
Li3 O9 2.035876 1_556
Li4 O4 1.827929 1_655
Li4 O10 1.981559 1_565
Li4 O17 2.034998 1_655
Li4 O18 2.056380 1_665
Li5 O5 1.828291 1_555
Li5 O11 1.980647 1_555
Li5 O16 2.036301 1_555
Li5 O19 2.055963 1_555
Li6 O1 2.053840 1_555
Li6 O21 2.107330 1_555
Li6 O12 2.119616 1_555
Li6 O22 2.137764 1_565
Li7 O0 2.053598 1_555
Li7 O20 2.106443 1_455
Li7 O13 2.119388 1_555
Li7 O23 2.137773 1_555
O0 Sn4 2.104559 1_555
O0 Sn2 2.112489 1_555
O0 Te0 2.480908 1_555
O1 Sn5 2.104755 1_555
O1 Sn3 2.112647 1_555
O1 Te1 2.480353 1_655
O2 Sn4 2.100677 1_555
O2 Sn2 2.124854 1_555
O2 V3 2.136063 1_555
O3 Sn5 2.100681 1_555
O3 Sn3 2.125262 1_555
O3 V0 2.136347 1_655
O4 Sn4 2.094019 1_565
O4 Sn3 2.107397 1_455
O4 V3 2.117949 1_465
O5 Sn5 2.093664 1_555
O5 Sn2 2.107224 1_555
O5 V0 2.117376 1_555
O6 V1 2.017236 1_555
O6 Sn0 2.062854 1_655
O6 V5 2.136241 1_665
O7 V2 2.017644 1_555
O7 Sn1 2.061968 1_555
O7 V4 2.137166 1_555
O8 Sn4 2.101038 1_565
O8 Sn3 2.108434 1_455
O8 Te2 2.376198 1_554
O9 Sn5 2.100788 1_555
O9 Sn2 2.108423 1_555
O9 Te3 2.375354 1_654
O10 Te0 2.034603 1_555
O10 V1 2.120530 1_545
O10 V5 2.236556 1_655
O11 Te1 2.034581 1_555
O11 V2 2.120359 1_555
O11 V4 2.237535 1_555
O12 V1 2.020398 1_555
O12 Sn0 2.067963 1_555
O12 V4 2.161363 1_555
O13 V2 2.019863 1_555
O13 Sn1 2.068560 1_455
O13 V5 2.161314 1_555
O14 Te2 2.058969 1_555
O14 V1 2.061339 1_555
O14 V4 2.229458 1_555
O15 Te3 2.060459 1_555
O15 V2 2.061058 1_555
O15 V5 2.228249 1_555
O16 Sn1 2.090296 1_555
O16 V2 2.114723 1_555
O16 Te0 2.286110 1_555
O17 Sn0 2.089774 1_555
O17 V1 2.113765 1_455
O17 Te1 2.288868 1_555
O18 Te0 2.093331 1_555
O18 Sn0 2.135335 1_545
O18 V5 2.202651 1_555
O19 Te1 2.094395 1_655
O19 Sn1 2.134798 1_555
O19 V4 2.203893 1_555
O20 V3 2.051919 1_555
O20 Sn2 2.116009 1_555
O20 Te0 2.388907 1_555
O21 V0 2.052701 1_555
O21 Sn3 2.115534 1_455
O21 Te1 2.388239 1_555
O22 V3 2.110216 1_555
O22 Sn4 2.152063 1_555
O22 Te0 2.219152 1_555
O23 V0 2.111896 1_555
O23 Sn5 2.152628 1_455
O23 Te1 2.216884 1_555
O24 Te2 2.111604 1_555
O24 V1 2.163526 1_555
O24 Sn0 2.173349 1_555
O25 Te3 2.113521 1_655
O25 V2 2.163146 1_655
O25 Sn1 2.172492 1_555
O26 Te2 2.093632 1_555
O26 Sn0 2.148994 1_555
O26 V4 2.201211 1_555
O27 Te3 2.094195 1_655
O27 Sn1 2.149098 1_555
O27 V5 2.201898 1_655
O28 V3 2.030904 1_565
O28 Sn3 2.106842 1_555
O28 Te2 2.347696 1_554
O29 V0 2.029450 1_555
O29 Sn2 2.106540 1_555
O29 Te3 2.347874 1_554
O30 V0 2.022823 1_555
O30 Sn5 2.098622 1_555
O30 Te2 2.338056 1_554
O31 V3 2.023944 1_555
O31 Sn4 2.098764 1_655
O31 Te3 2.335683 1_654
