# generated using pymatgen
data_CeSi3Pt
_symmetry_space_group_name_H-M   'P 1'
_cell_length_a   5.70078650
_cell_length_b   5.70078650
_cell_length_c   5.70078650
_cell_angle_alpha   135.50223121
_cell_angle_beta   135.50223121
_cell_angle_gamma   64.75083956
_symmetry_Int_Tables_number   1
_chemical_formula_structural   CeSi3Pt
_chemical_formula_sum   'Ce1 Si3 Pt1'
_cell_volume   89.72739665
_cell_formula_units_Z   1
loop_
 _symmetry_equiv_pos_site_id
 _symmetry_equiv_pos_as_xyz
  1  'x, y, z'
loop_
 _atom_site_type_symbol
 _atom_site_label
 _atom_site_symmetry_multiplicity
 _atom_site_fract_x
 _atom_site_fract_y
 _atom_site_fract_z
 _atom_site_occupancy
  Ce  Ce0  1  0.60046875  0.60046875  0.00000000  1
  Si  Si0  1  0.86429234  0.36429234  0.50000000  1
  Si  Si1  1  0.36429234  0.86429234  0.50000000  1
  Si  Si2  1  1.00028791  1.00028791  0.00000000  1
  Pt  Pt0  1  0.25075665  0.25075665  0.00000000  1
loop_
_geom_bond_atom_site_label_1
_geom_bond_atom_site_label_2
_geom_bond_distance
_geom_bond_site_symmetry_2
Ce0 Si1 3.135462 1_544
Ce0 Si1 3.135462 1_555
Ce0 Si0 3.135462 1_454
Ce0 Si0 3.135462 1_555
Ce0 Si2 3.201369 1_444
Ce0 Si2 3.201369 1_455
Ce0 Si2 3.201369 1_545
Ce0 Si2 3.201369 1_556
Ce0 Si0 3.333600 1_554
Ce0 Si1 3.333600 1_554
Ce0 Si1 3.333600 1_655
Ce0 Si0 3.333600 1_565
Ce0 Pt0 3.367478 1_555
Ce0 Pt0 3.378234 1_655
Ce0 Pt0 3.378234 1_666
Ce0 Pt0 3.378234 1_565
Ce0 Pt0 3.378234 1_554
Pt0 Si2 2.411835 1_445
Pt0 Si0 2.419571 1_555
Pt0 Si1 2.419571 1_544
Pt0 Si1 2.419571 1_555
Pt0 Si0 2.419571 1_454
