# generated using pymatgen
data_Rb(GeAs)3
_symmetry_space_group_name_H-M   'P 1'
_cell_length_a   3.89190400
_cell_length_b   10.29390500
_cell_length_c   19.44275600
_cell_angle_alpha   90.00000000
_cell_angle_beta   90.00000000
_cell_angle_gamma   90.00000000
_symmetry_Int_Tables_number   1
_chemical_formula_structural   Rb(GeAs)3
_chemical_formula_sum   'Rb4 Ge12 As12'
_cell_volume   778.93299580
_cell_formula_units_Z   4
loop_
 _symmetry_equiv_pos_site_id
 _symmetry_equiv_pos_as_xyz
  1  'x, y, z'
loop_
 _atom_site_type_symbol
 _atom_site_label
 _atom_site_symmetry_multiplicity
 _atom_site_fract_x
 _atom_site_fract_y
 _atom_site_fract_z
 _atom_site_occupancy
  Rb  Rb0  1  0.25000000  0.21903200  0.54018100  1
  Rb  Rb1  1  0.25000000  0.71903200  0.95981900  1
  Rb  Rb2  1  0.75000000  0.78096800  0.45981900  1
  Rb  Rb3  1  0.75000000  0.28096800  0.04018100  1
  Ge  Ge0  1  0.25000000  0.29565000  0.83879300  1
  Ge  Ge1  1  0.25000000  0.79565000  0.66120700  1
  Ge  Ge2  1  0.75000000  0.70435000  0.16120700  1
  Ge  Ge3  1  0.75000000  0.20435000  0.33879300  1
  Ge  Ge4  1  0.25000000  0.42386600  0.24360300  1
  Ge  Ge5  1  0.25000000  0.92386600  0.25639700  1
  Ge  Ge6  1  0.75000000  0.57613400  0.75639700  1
  Ge  Ge7  1  0.75000000  0.07613400  0.74360300  1
  Ge  Ge8  1  0.25000000  0.52550700  0.36565000  1
  Ge  Ge9  1  0.25000000  0.02550700  0.13435000  1
  Ge  Ge10  1  0.75000000  0.47449300  0.63435000  1
  Ge  Ge11  1  0.75000000  0.97449300  0.86565000  1
  As  As0  1  0.25000000  0.05911400  0.36413300  1
  As  As1  1  0.25000000  0.55911400  0.13586700  1
  As  As2  1  0.75000000  0.94088600  0.63586700  1
  As  As3  1  0.75000000  0.44088600  0.86413300  1
  As  As4  1  0.25000000  0.10658300  0.91528900  1
  As  As5  1  0.25000000  0.60658300  0.58471100  1
  As  As6  1  0.75000000  0.89341700  0.08471100  1
  As  As7  1  0.75000000  0.39341700  0.41528900  1
  As  As8  1  0.25000000  0.22486800  0.71809600  1
  As  As9  1  0.25000000  0.72486800  0.78190400  1
  As  As10  1  0.75000000  0.77513200  0.28190400  1
  As  As11  1  0.75000000  0.27513200  0.21809600  1
loop_
_geom_bond_atom_site_label_1
_geom_bond_atom_site_label_2
_geom_bond_distance
_geom_bond_site_symmetry_2
Ge4 Ge8 2.593358 1_555
Ge5 Ge9 2.593358 1_565
Ge8 Rb2 3.748896 1_555
Ge8 Rb2 3.748896 1_455
Ge9 Rb3 3.748896 1_555
Ge9 Rb3 3.748896 1_455
Ge10 Ge6 2.593358 1_555
Ge10 Rb0 3.748896 1_655
Ge10 Rb0 3.748896 1_555
Ge11 Ge7 2.593358 1_565
Ge11 Rb1 3.748896 1_555
Ge11 Rb1 3.748896 1_655
As0 Ge3 2.502923 1_555
As0 Ge3 2.502923 1_455
As0 Ge5 2.515156 1_545
As0 Rb0 3.798140 1_555
As0 Rb2 3.930112 1_545
As0 Rb2 3.930112 1_445
As1 Ge2 2.502923 1_455
As1 Ge2 2.502923 1_555
As1 Ge4 2.515156 1_555
As1 Rb1 3.798140 1_554
As1 Rb3 3.930112 1_555
As1 Rb3 3.930112 1_455
As2 Ge1 2.502923 1_555
As2 Ge1 2.502923 1_655
As2 Ge7 2.515156 1_565
As2 Rb2 3.798140 1_555
As2 Rb0 3.930112 1_665
As2 Rb0 3.930112 1_565
As3 Ge0 2.502923 1_555
As3 Ge0 2.502923 1_655
As3 Ge6 2.515156 1_555
As3 Rb3 3.798140 1_556
As3 Rb1 3.930112 1_555
As3 Rb1 3.930112 1_655
As4 Ge0 2.449466 1_555
As4 Ge11 2.562621 1_445
As4 Ge11 2.562621 1_545
As4 Rb3 3.592422 1_456
As4 Rb3 3.592422 1_556
As5 Ge1 2.449466 1_555
As5 Ge10 2.562621 1_455
As5 Ge10 2.562621 1_555
As5 Rb2 3.592422 1_555
As5 Rb2 3.592422 1_455
As6 Ge2 2.449466 1_555
As6 Ge9 2.562621 1_565
As6 Ge9 2.562621 1_665
As6 Rb1 3.592422 1_654
As6 Rb1 3.592422 1_554
As7 Ge3 2.449466 1_555
As7 Ge8 2.562621 1_655
As7 Ge8 2.562621 1_555
As7 Rb0 3.592422 1_555
As7 Rb0 3.592422 1_655
As8 Ge0 2.457195 1_555
As8 Ge7 2.525232 1_555
As8 Ge7 2.525232 1_455
As8 Rb0 3.459680 1_555
As9 Ge1 2.457195 1_555
As9 Ge6 2.525232 1_555
As9 Ge6 2.525232 1_455
As9 Rb1 3.459680 1_555
As10 Ge2 2.457195 1_555
As10 Ge5 2.525232 1_555
As10 Ge5 2.525232 1_655
As10 Rb2 3.459680 1_555
As11 Ge3 2.457195 1_555
As11 Ge4 2.525232 1_655
As11 Ge4 2.525232 1_555
As11 Rb3 3.459680 1_555
