# generated using pymatgen
data_Li2FeCoO4
_symmetry_space_group_name_H-M   'P 1'
_cell_length_a   5.75900692
_cell_length_b   5.75900692
_cell_length_c   5.79793937
_cell_angle_alpha   60.69100233
_cell_angle_beta   60.69100233
_cell_angle_gamma   90.12304102
_symmetry_Int_Tables_number   1
_chemical_formula_structural   Li2FeCoO4
_chemical_formula_sum   'Li4 Fe2 Co2 O8'
_cell_volume   138.62720097
_cell_formula_units_Z   2
loop_
 _symmetry_equiv_pos_site_id
 _symmetry_equiv_pos_as_xyz
  1  'x, y, z'
loop_
 _atom_site_type_symbol
 _atom_site_label
 _atom_site_symmetry_multiplicity
 _atom_site_fract_x
 _atom_site_fract_y
 _atom_site_fract_z
 _atom_site_occupancy
  Li  Li0  1  0.50000000  0.50000000  0.50000000  1
  Li  Li1  1  0.50000000  0.00000000  0.00000000  1
  Li  Li2  1  0.00000000  0.50000000  0.50000000  1
  Li  Li3  1  0.50000000  0.50000000  0.00000000  1
  Fe  Fe0  1  0.50000000  0.00000000  0.50000000  1
  Fe  Fe1  1  0.00000000  0.50000000  0.00000000  1
  Co  Co0  1  0.00000000  0.00000000  0.50000000  1
  Co  Co1  1  0.00000000  0.00000000  0.00000000  1
  O  O0  1  0.78223500  0.76836800  0.96823500  1
  O  O1  1  0.74794500  0.22574300  0.50293900  1
  O  O2  1  0.22574300  0.74794500  0.00293900  1
  O  O3  1  0.76836800  0.78223500  0.46823500  1
  O  O4  1  0.23163200  0.21776500  0.53176500  1
  O  O5  1  0.77425700  0.25205500  0.99706100  1
  O  O6  1  0.25205500  0.77425700  0.49706100  1
  O  O7  1  0.21776500  0.23163200  0.03176500  1
loop_
_geom_bond_atom_site_label_1
_geom_bond_atom_site_label_2
_geom_bond_distance
_geom_bond_site_symmetry_2
Li0 O3 2.117062 1_555
Li0 O4 2.117062 1_555
Li0 O6 2.130974 1_555
Li0 O1 2.130974 1_555
Li0 O0 2.225771 1_554
Li0 O7 2.225771 1_556
Li1 O1 2.080770 1_554
Li1 O6 2.080770 1_545
Li1 O7 2.100492 1_555
Li1 O0 2.100492 1_544
Li1 O5 2.131111 1_554
Li1 O2 2.131111 1_545
Li2 O5 2.080770 1_455
Li2 O2 2.080770 1_555
Li2 O4 2.100492 1_555
Li2 O3 2.100492 1_455
Li2 O6 2.131111 1_555
Li2 O1 2.131111 1_455
Li3 O0 2.117062 1_554
Li3 O7 2.117062 1_555
Li3 O5 2.130974 1_554
Li3 O2 2.130974 1_555
Li3 O4 2.225771 1_555
Li3 O3 2.225771 1_554
Fe0 O1 1.940855 1_555
Fe0 O6 1.940855 1_545
Fe0 O3 1.987753 1_545
Fe0 O4 1.987753 1_555
Fe0 O2 2.107550 1_546
Fe0 O5 2.107550 1_554
Fe1 O2 1.940855 1_555
Fe1 O5 1.940855 1_454
Fe1 O0 1.987753 1_454
Fe1 O7 1.987753 1_555
Fe1 O6 2.107550 1_554
Fe1 O1 2.107550 1_455
Co0 O6 1.950158 1_545
Co0 O1 1.950158 1_455
Co0 O7 1.958666 1_555
Co0 O0 1.958666 1_445
Co0 O4 1.961036 1_555
Co0 O3 1.961036 1_445
Co1 O5 1.950158 1_454
Co1 O2 1.950158 1_545
Co1 O3 1.958666 1_445
Co1 O4 1.958666 1_554
Co1 O7 1.961036 1_555
Co1 O0 1.961036 1_444
