# generated using pymatgen
data_Ba2NiTeO6
_symmetry_space_group_name_H-M   'P 1'
_cell_length_a   5.88059503
_cell_length_b   5.88062661
_cell_length_c   10.24004859
_cell_angle_alpha   90.00008314
_cell_angle_beta   73.31355495
_cell_angle_gamma   59.99975891
_symmetry_Int_Tables_number   1
_chemical_formula_structural   Ba2NiTeO6
_chemical_formula_sum   'Ba4 Ni2 Te2 O12'
_cell_volume   289.32689960
_cell_formula_units_Z   2
loop_
 _symmetry_equiv_pos_site_id
 _symmetry_equiv_pos_as_xyz
  1  'x, y, z'
loop_
 _atom_site_type_symbol
 _atom_site_label
 _atom_site_symmetry_multiplicity
 _atom_site_fract_x
 _atom_site_fract_y
 _atom_site_fract_z
 _atom_site_occupancy
  Ba  Ba0  1  0.56884800  0.71557600  0.14672800  1
  Ba  Ba1  1  0.43115300  0.28442300  0.85327100  1
  Ba  Ba2  1  0.25209200  0.87395400  0.62186200  1
  Ba  Ba3  1  0.74790700  0.12604700  0.37813800  1
  Ni  Ni0  1  0.18712300  0.40643700  0.21931400  1
  Ni  Ni1  1  0.81287600  0.59356300  0.78069200  1
  Te  Te0  1  0.99999800  0.50000100  0.50000300  1
  Te  Te1  1  0.00000300  0.99999900  0.99999700  1
  O  O0  1  0.07746700  0.72739700  0.11766800  1
  O  O1  1  0.60972800  0.19513600  0.11766800  1
  O  O2  1  0.07746700  0.19513500  0.11766800  1
  O  O3  1  0.92253800  0.80487100  0.88233300  1
  O  O4  1  0.92253800  0.27259200  0.88233300  1
  O  O5  1  0.39026100  0.80487000  0.88233300  1
  O  O6  1  0.76556000  0.84589000  0.62299100  1
  O  O7  1  0.22290000  0.38855000  0.62299100  1
  O  O8  1  0.77710900  0.61144500  0.37700600  1
  O  O9  1  0.23443500  0.15412000  0.37700700  1
  O  O10  1  0.23443500  0.61144400  0.37700700  1
  O  O11  1  0.76556100  0.38855000  0.62299100  1
loop_
_geom_bond_atom_site_label_1
_geom_bond_atom_site_label_2
_geom_bond_distance
_geom_bond_site_symmetry_2
Ba0 O8 2.888561 1_555
Ba0 O9 2.888590 1_565
Ba0 O10 2.888599 1_555
Ba0 O2 2.955697 1_565
Ba0 O2 2.955698 1_655
Ba0 O0 2.955699 1_655
Ba0 O0 2.955702 1_555
Ba0 O1 2.955715 1_555
Ba0 O1 2.955716 1_565
Ba0 O5 3.128918 1_554
Ba0 O4 3.128930 1_554
Ba0 O3 3.128938 1_554
Ba1 O7 2.888554 1_555
Ba1 O6 2.888561 1_545
Ba1 O11 2.888573 1_555
Ba1 O3 2.955698 1_545
Ba1 O4 2.955703 1_455
Ba1 O3 2.955705 1_455
Ba1 O4 2.955706 1_555
Ba1 O5 2.955714 1_545
Ba1 O5 2.955725 1_555
Ba1 O1 3.128902 1_556
Ba1 O0 3.128914 1_556
Ba1 O2 3.128920 1_556
Ba2 O11 2.943875 1_465
Ba2 O6 2.943881 1_455
Ba2 O6 2.943885 1_555
Ba2 O11 2.943885 1_555
Ba2 O7 2.943898 1_565
Ba2 O7 2.943899 1_555
Ba2 O4 2.975536 1_465
Ba2 O5 2.975537 1_555
Ba2 O3 2.975539 1_455
Ba2 O8 2.998378 1_555
Ba2 O10 2.998390 1_555
Ba2 O9 2.998390 1_565
Ba3 O9 2.943881 1_655
Ba3 O10 2.943882 1_555
Ba3 O10 2.943884 1_645
Ba3 O9 2.943890 1_555
Ba3 O8 2.943895 1_555
Ba3 O8 2.943906 1_545
Ba3 O1 2.975554 1_555
Ba3 O2 2.975562 1_655
Ba3 O0 2.975562 1_645
Ba3 O7 2.998330 1_555
Ba3 O11 2.998341 1_555
Ba3 O6 2.998345 1_545
Ni0 O1 2.056683 1_555
Ni0 O2 2.056686 1_555
Ni0 O0 2.056696 1_555
Ni0 O9 2.175253 1_555
Ni0 O8 2.175258 1_455
Ni0 O10 2.175258 1_555
Ni1 O3 2.056709 1_555
Ni1 O4 2.056715 1_555
Ni1 O5 2.056720 1_555
Ni1 O7 2.175333 1_655
Ni1 O6 2.175354 1_555
Ni1 O11 2.175355 1_555
O0 Te1 1.953005 1_554
O1 Te1 1.953007 1_644
O2 Te1 1.952995 1_544
O3 Te1 1.952917 1_655
O4 Te1 1.952919 1_645
O5 Te1 1.952916 1_555
O6 Te0 1.955187 1_555
O7 Te0 1.955184 1_455
O8 Te0 1.955209 1_555
O9 Te0 1.955191 1_455
O10 Te0 1.955191 1_455
O11 Te0 1.955187 1_555
