# generated using pymatgen
data_KSc(SO4)2
_symmetry_space_group_name_H-M   'P 1'
_cell_length_a   5.04417475
_cell_length_b   5.04417475
_cell_length_c   8.18278592
_cell_angle_alpha   86.06231549
_cell_angle_beta   86.06231549
_cell_angle_gamma   64.30788345
_symmetry_Int_Tables_number   1
_chemical_formula_structural   KSc(SO4)2
_chemical_formula_sum   'K1 Sc1 S2 O8'
_cell_volume   186.99875931
_cell_formula_units_Z   1
loop_
 _symmetry_equiv_pos_site_id
 _symmetry_equiv_pos_as_xyz
  1  'x, y, z'
loop_
 _atom_site_type_symbol
 _atom_site_label
 _atom_site_symmetry_multiplicity
 _atom_site_fract_x
 _atom_site_fract_y
 _atom_site_fract_z
 _atom_site_occupancy
  K  K0  1  0.00000000  0.00000000  0.50000000  1
  Sc  Sc0  1  0.00000000  0.00000000  0.00000000  1
  S  S0  1  0.36947000  0.36947000  0.79752200  1
  S  S1  1  0.63053000  0.63053000  0.20247800  1
  O  O0  1  0.31353200  0.31353200  0.63380200  1
  O  O1  1  0.68646800  0.68646800  0.36619800  1
  O  O2  1  0.69540900  0.24349800  0.81966100  1
  O  O3  1  0.30459100  0.75650200  0.18033900  1
  O  O4  1  0.75650200  0.30459100  0.18033900  1
  O  O5  1  0.24349800  0.69540900  0.81966100  1
  O  O6  1  0.24015000  0.24015000  0.93109700  1
  O  O7  1  0.75985000  0.75985000  0.06890300  1
loop_
_geom_bond_atom_site_label_1
_geom_bond_atom_site_label_2
_geom_bond_distance
_geom_bond_site_symmetry_2
K0 O0 2.974126 1_555
K0 O1 2.974126 1_445
K0 O4 2.994023 1_455
K0 O3 2.994023 1_545
K0 O5 2.994023 1_545
K0 O2 2.994023 1_455
K0 O0 3.264783 1_545
K0 O0 3.264783 1_455
K0 O1 3.264783 1_455
K0 O1 3.264783 1_545
O0 S0 1.458373 1_555
O1 S1 1.458373 1_555
O2 S0 1.502962 1_555
O2 Sc0 2.114942 1_656
O3 S1 1.502962 1_555
O3 Sc0 2.114942 1_565
O4 S1 1.502962 1_555
O4 Sc0 2.114942 1_655
O5 S0 1.502962 1_555
O5 Sc0 2.114942 1_566
O6 S0 1.489566 1_555
O6 Sc0 2.082641 1_556
O7 S1 1.489566 1_555
O7 Sc0 2.082641 1_665
