# generated using pymatgen
data_CsCoF4
_symmetry_space_group_name_H-M   'P 1'
_cell_length_a   11.08279347
_cell_length_b   11.08279347
_cell_length_c   11.08279347
_cell_angle_alpha   111.04555308
_cell_angle_beta   111.04555308
_cell_angle_gamma   106.36645983
_symmetry_Int_Tables_number   1
_chemical_formula_structural   CsCoF4
_chemical_formula_sum   'Cs10 Co10 F40'
_cell_volume   1045.62258401
_cell_formula_units_Z   10
loop_
 _symmetry_equiv_pos_site_id
 _symmetry_equiv_pos_as_xyz
  1  'x, y, z'
loop_
 _atom_site_type_symbol
 _atom_site_label
 _atom_site_symmetry_multiplicity
 _atom_site_fract_x
 _atom_site_fract_y
 _atom_site_fract_z
 _atom_site_occupancy
  Cs  Cs0  1  0.75000000  0.75000000  0.00000000  1
  Cs  Cs1  1  0.25000000  0.25000000  0.00000000  1
  Cs  Cs2  1  0.83196300  0.00800800  0.49317400  1
  Cs  Cs3  1  0.51483400  0.33878900  0.50682600  1
  Cs  Cs4  1  0.01483400  0.50800800  0.17604500  1
  Cs  Cs5  1  0.33196300  0.83878900  0.82395500  1
  Cs  Cs6  1  0.66121100  0.16803700  0.17604500  1
  Cs  Cs7  1  0.99199200  0.48516600  0.82395500  1
  Cs  Cs8  1  0.16121100  0.98516600  0.49317400  1
  Cs  Cs9  1  0.49199200  0.66803700  0.50682600  1
  Co  Co0  1  0.00000000  0.50000000  0.50000000  1
  Co  Co1  1  0.50000000  0.00000000  0.50000000  1
  Co  Co2  1  0.70892900  0.57652400  0.28695600  1
  Co  Co3  1  0.28956800  0.42197300  0.71304400  1
  Co  Co4  1  0.78956800  0.07652400  0.86759500  1
  Co  Co5  1  0.20892900  0.92197300  0.13240500  1
  Co  Co6  1  0.57802700  0.29107100  0.86759500  1
  Co  Co7  1  0.42347600  0.71043200  0.13240500  1
  Co  Co8  1  0.07802700  0.21043200  0.28695600  1
  Co  Co9  1  0.92347600  0.79107100  0.71304400  1
  F  F0  1  0.15340000  0.50243100  0.65806200  1
  F  F1  1  0.84437000  0.49533800  0.34193800  1
  F  F2  1  0.34437000  0.00243100  0.34903200  1
  F  F3  1  0.65340000  0.99533800  0.65096800  1
  F  F4  1  0.50466200  0.84660000  0.34903200  1
  F  F5  1  0.49756900  0.15563000  0.65096800  1
  F  F6  1  0.00466200  0.65563000  0.65806200  1
  F  F7  1  0.99756900  0.34660000  0.34193800  1
  F  F8  1  0.35066600  0.56381400  0.91954300  1
  F  F9  1  0.64427100  0.43112300  0.08045700  1
  F  F10  1  0.14427100  0.06381400  0.21314800  1
  F  F11  1  0.85066600  0.93112300  0.78685200  1
  F  F12  1  0.56887700  0.64933400  0.21314800  1
  F  F13  1  0.43618600  0.35572900  0.78685200  1
  F  F14  1  0.06887700  0.85572900  0.91954300  1
  F  F15  1  0.93618600  0.14933400  0.08045700  1
  F  F16  1  0.55787400  0.84687200  0.12866900  1
  F  F17  1  0.71820300  0.42920400  0.87133100  1
  F  F18  1  0.21820300  0.34687200  0.28899800  1
  F  F19  1  0.05787400  0.92920400  0.71100200  1
  F  F20  1  0.57079600  0.44212600  0.28899800  1
  F  F21  1  0.15312800  0.28179700  0.71100200  1
  F  F22  1  0.07079600  0.78179700  0.12866900  1
  F  F23  1  0.65312800  0.94212600  0.87133100  1
  F  F24  1  0.43928300  0.15108100  0.86428000  1
  F  F25  1  0.28680100  0.57500400  0.13572000  1
  F  F26  1  0.78680100  0.65108100  0.71179800  1
  F  F27  1  0.93928300  0.07500400  0.28820200  1
  F  F28  1  0.42499600  0.56071700  0.71179800  1
  F  F29  1  0.84891900  0.71319900  0.28820200  1
  F  F30  1  0.92499600  0.21319900  0.86428000  1
  F  F31  1  0.34891900  0.06071700  0.13572000  1
  F  F32  1  0.77923100  0.72076900  0.50000000  1
  F  F33  1  0.22076900  0.27923100  0.50000000  1
  F  F34  1  0.72076900  0.22076900  0.94153700  1
  F  F35  1  0.27923100  0.77923100  0.05846300  1
  F  F36  1  0.63744900  0.13744900  0.50000000  1
  F  F37  1  0.13744900  0.63744900  0.50000000  1
  F  F38  1  0.86255100  0.36255100  0.50000000  1
  F  F39  1  0.36255100  0.86255100  0.50000000  1
loop_
_geom_bond_atom_site_label_1
_geom_bond_atom_site_label_2
_geom_bond_distance
_geom_bond_site_symmetry_2
Cs0 F23 3.176409 1_554
Cs0 F16 3.176409 1_555
Cs0 F17 3.176420 1_554
Cs0 F22 3.176420 1_655
Cs0 F29 3.200477 1_555
Cs0 F26 3.200477 1_554
Cs0 F27 3.200483 1_565
Cs0 F28 3.200483 1_554
Cs1 F21 3.176409 1_554
Cs1 F18 3.176409 1_555
Cs1 F20 3.176416 1_555
Cs1 F19 3.176416 1_544
Cs1 F24 3.200477 1_554
Cs1 F31 3.200477 1_555
Cs1 F25 3.200487 1_555
Cs1 F30 3.200487 1_454
Cs2 F36 2.914282 1_555
Cs2 F4 3.006465 1_545
Cs2 F3 3.082169 1_545
Cs2 F32 3.104452 1_545
Cs2 F27 3.127420 1_555
Cs2 F21 3.191424 1_655
Cs2 F29 3.345579 1_545
Cs2 F19 3.356332 1_645
Cs2 F16 3.418173 1_545
Cs2 F30 3.473579 1_555
Cs3 F36 2.914282 1_555
Cs3 F5 3.006465 1_555
Cs3 F2 3.082178 1_555
Cs3 F33 3.104452 1_555
Cs3 F26 3.127416 1_555
Cs3 F20 3.191428 1_555
Cs3 F28 3.345587 1_555
Cs3 F18 3.356324 1_555
Cs3 F17 3.418176 1_555
Cs3 F31 3.473576 1_555
Cs4 F37 2.914282 1_555
Cs4 F7 3.006464 1_455
Cs4 F1 3.082169 1_455
Cs4 F34 3.104453 1_454
Cs4 F25 3.127416 1_555
Cs4 F22 3.191424 1_555
Cs4 F30 3.345575 1_454
Cs4 F17 3.356320 1_454
Cs4 F18 3.418173 1_555
Cs4 F29 3.473576 1_455
Cs5 F37 2.914282 1_555
Cs5 F6 3.006465 1_555
Cs5 F0 3.082178 1_555
Cs5 F35 3.104463 1_556
Cs5 F24 3.127416 1_565
Cs5 F23 3.191424 1_555
Cs5 F31 3.345579 1_566
Cs5 F16 3.356324 1_556
Cs5 F19 3.418165 1_555
Cs5 F28 3.473569 1_555
Cs6 F38 2.914282 1_555
Cs6 F1 3.006465 1_555
Cs6 F7 3.082178 1_555
Cs6 F34 3.104463 1_554
Cs6 F31 3.127416 1_555
Cs6 F16 3.191424 1_545
Cs6 F24 3.345579 1_554
Cs6 F23 3.356324 1_544
Cs6 F20 3.418165 1_555
Cs6 F27 3.473569 1_555
Cs7 F38 2.914282 1_555
Cs7 F0 3.006464 1_655
Cs7 F6 3.082169 1_655
Cs7 F35 3.104453 1_656
Cs7 F30 3.127416 1_555
Cs7 F17 3.191424 1_555
Cs7 F25 3.345575 1_656
Cs7 F22 3.356320 1_656
Cs7 F21 3.418173 1_655
Cs7 F26 3.473576 1_555
Cs8 F39 2.914282 1_555
Cs8 F2 3.006465 1_565
Cs8 F5 3.082178 1_565
Cs8 F33 3.104452 1_565
Cs8 F29 3.127416 1_455
Cs8 F19 3.191428 1_555
Cs8 F27 3.345587 1_465
Cs8 F21 3.356324 1_565
Cs8 F22 3.418176 1_555
Cs8 F24 3.473576 1_565
Cs9 F39 2.914282 1_555
Cs9 F3 3.006465 1_555
Cs9 F4 3.082169 1_555
Cs9 F32 3.104452 1_555
Cs9 F28 3.127420 1_555
Cs9 F18 3.191424 1_555
Cs9 F26 3.345579 1_555
Cs9 F20 3.356332 1_555
Cs9 F23 3.418173 1_555
Cs9 F25 3.473579 1_555
Co0 F37 1.825722 1_555
Co0 F38 1.825722 1_455
Co0 F6 1.939339 1_555
Co0 F1 1.939339 1_455
Co0 F0 1.939345 1_555
Co0 F7 1.939345 1_455
Co1 F36 1.825722 1_555
Co1 F39 1.825722 1_545
Co1 F2 1.939332 1_555
Co1 F5 1.939332 1_555
Co1 F4 1.939339 1_545
Co1 F3 1.939339 1_545
Co2 F20 1.823954 1_555
Co2 F29 1.829452 1_555
Co2 F9 1.967360 1_555
Co2 F1 1.982947 1_555
Co2 F12 1.999383 1_555
Co2 F32 2.000850 1_555
Co3 F21 1.823961 1_555
Co3 F28 1.829445 1_555
Co3 F8 1.967360 1_555
Co3 F0 1.982939 1_555
Co3 F13 1.999383 1_555
Co3 F33 2.000850 1_555
Co4 F23 1.823961 1_545
Co4 F30 1.829445 1_555
Co4 F11 1.967360 1_545
Co4 F3 1.982947 1_545
Co4 F15 1.999383 1_556
Co4 F34 2.000847 1_555
Co5 F22 1.823955 1_555
Co5 F31 1.829452 1_565
Co5 F10 1.967360 1_565
Co5 F2 1.982950 1_565
Co5 F14 1.999383 1_554
Co5 F35 2.000847 1_555
Co6 F17 1.823955 1_555
Co6 F24 1.829452 1_555
Co6 F13 1.967360 1_555
Co6 F5 1.982950 1_555
Co6 F9 1.999383 1_556
Co6 F34 2.000847 1_555
Co7 F16 1.823961 1_555
Co7 F25 1.829445 1_555
Co7 F12 1.967360 1_555
Co7 F4 1.982947 1_555
Co7 F8 1.999383 1_554
Co7 F35 2.000847 1_555
Co8 F18 1.823961 1_555
Co8 F27 1.829445 1_455
Co8 F15 1.967360 1_455
Co8 F7 1.982939 1_455
Co8 F10 1.999383 1_555
Co8 F33 2.000850 1_555
Co9 F19 1.823954 1_655
Co9 F26 1.829452 1_555
Co9 F14 1.967360 1_655
Co9 F6 1.982947 1_655
Co9 F11 1.999383 1_555
Co9 F32 2.000850 1_555
