# generated using pymatgen
data_SrNdMn2O6
_symmetry_space_group_name_H-M   'P 1'
_cell_length_a   5.55101121
_cell_length_b   5.55101121
_cell_length_c   5.55101121
_cell_angle_alpha   121.05034065
_cell_angle_beta   121.05034065
_cell_angle_gamma   88.19018469
_symmetry_Int_Tables_number   1
_chemical_formula_structural   SrNdMn2O6
_chemical_formula_sum   'Sr1 Nd1 Mn2 O6'
_cell_volume   118.96413465
_cell_formula_units_Z   1
loop_
 _symmetry_equiv_pos_site_id
 _symmetry_equiv_pos_as_xyz
  1  'x, y, z'
loop_
 _atom_site_type_symbol
 _atom_site_label
 _atom_site_symmetry_multiplicity
 _atom_site_fract_x
 _atom_site_fract_y
 _atom_site_fract_z
 _atom_site_occupancy
  Sr  Sr0  1  0.00000000  0.00000000  0.00000000  1
  Nd  Nd0  1  0.50000000  0.50000000  0.00000000  1
  Mn  Mn0  1  0.75000000  0.25000000  0.50000000  1
  Mn  Mn1  1  0.25000000  0.75000000  0.50000000  1
  O  O0  1  0.50000000  0.00000000  0.50000000  1
  O  O1  1  0.00000000  0.50000000  0.50000000  1
  O  O2  1  0.46322500  0.06038700  0.00000000  1
  O  O3  1  0.06038700  0.46322500  0.00000000  1
  O  O4  1  0.53677500  0.53677500  0.59716200  1
  O  O5  1  0.93961300  0.93961300  0.40283800  1
loop_
_geom_bond_atom_site_label_1
_geom_bond_atom_site_label_2
_geom_bond_distance
_geom_bond_site_symmetry_2
Nd0 O5 2.455236 1_555
Nd0 O3 2.455236 1_555
Nd0 O2 2.455236 1_555
Nd0 O4 2.455236 1_554
Nd0 O1 2.731326 1_655
Nd0 O0 2.731326 1_554
Nd0 O1 2.731326 1_554
Nd0 O0 2.731326 1_565
Mn0 O2 1.969717 1_555
Mn0 O3 1.969717 1_656
Mn0 O5 1.969717 1_545
Mn0 O4 1.969717 1_555
Mn0 O1 1.993329 1_655
Mn0 O0 1.993329 1_555
Mn1 O3 1.969717 1_555
Mn1 O4 1.969717 1_555
Mn1 O5 1.969717 1_455
Mn1 O2 1.969717 1_566
Mn1 O1 1.993329 1_555
Mn1 O0 1.993329 1_565
O0 Sr0 2.731326 1_555
O0 Sr0 2.731326 1_656
O1 Sr0 2.731326 1_555
O1 Sr0 2.731326 1_566
O2 Sr0 2.603601 1_555
O2 Sr0 2.987901 1_655
O3 Sr0 2.603601 1_555
O3 Sr0 2.987901 1_565
O4 Sr0 2.603601 1_666
O4 Sr0 2.987901 1_555
O5 Sr0 2.603601 1_665
O5 Sr0 2.987901 1_666
