# generated using pymatgen
data_Rb3RuF12
_symmetry_space_group_name_H-M   'P 1'
_cell_length_a   7.98499687
_cell_length_b   7.98499687
_cell_length_c   7.41182285
_cell_angle_alpha   79.12878461
_cell_angle_beta   79.12878461
_cell_angle_gamma   127.16397252
_symmetry_Int_Tables_number   1
_chemical_formula_structural   Rb3RuF12
_chemical_formula_sum   'Rb3 Ru1 F12'
_cell_volume   341.09197745
_cell_formula_units_Z   1
loop_
 _symmetry_equiv_pos_site_id
 _symmetry_equiv_pos_as_xyz
  1  'x, y, z'
loop_
 _atom_site_type_symbol
 _atom_site_label
 _atom_site_symmetry_multiplicity
 _atom_site_fract_x
 _atom_site_fract_y
 _atom_site_fract_z
 _atom_site_occupancy
  Rb  Rb0  1  0.50000000  0.50000000  0.50000000  1
  Rb  Rb1  1  0.00000000  0.50000000  0.00000000  1
  Rb  Rb2  1  0.50000000  0.00000000  0.00000000  1
  Ru  Ru0  1  0.00000000  0.00000000  0.00000000  1
  F  F0  1  0.38075900  0.25165400  0.23968700  1
  F  F1  1  0.61924100  0.74834600  0.76031300  1
  F  F2  1  0.15889800  0.53176800  0.29598200  1
  F  F3  1  0.74834600  0.61924100  0.76031300  1
  F  F4  1  0.84110200  0.46823200  0.70401800  1
  F  F5  1  0.25165400  0.38075900  0.23968700  1
  F  F6  1  0.23145500  0.04158900  0.81209100  1
  F  F7  1  0.46823200  0.84110200  0.70401800  1
  F  F8  1  0.76854500  0.95841100  0.18790900  1
  F  F9  1  0.53176800  0.15889800  0.29598200  1
  F  F10  1  0.95841100  0.76854500  0.18790900  1
  F  F11  1  0.04158900  0.23145500  0.81209100  1
loop_
_geom_bond_atom_site_label_1
_geom_bond_atom_site_label_2
_geom_bond_distance
_geom_bond_site_symmetry_2
F0 F9 1.824520 1_555
F0 F5 1.846496 1_555
F0 Rb0 2.901121 1_555
F0 Rb2 3.334762 1_555
F1 F7 1.824520 1_555
F1 F3 1.846496 1_555
F1 Rb0 2.901121 1_555
F1 Rb2 3.334762 1_566
F2 F5 1.824520 1_555
F2 Rb1 2.712524 1_555
F2 Rb2 2.925520 1_565
F3 F4 1.824520 1_555
F3 Rb0 2.901121 1_555
F3 Rb1 3.334762 1_656
F4 Rb1 2.712524 1_656
F4 Rb2 2.925520 1_556
F5 Rb0 2.901121 1_555
F5 Rb1 3.334762 1_555
F6 Ru0 1.891777 1_556
F6 Rb2 2.908713 1_556
F6 Rb0 2.966370 1_555
F7 Rb2 2.712524 1_566
F7 Rb1 2.925520 1_556
F8 Ru0 1.891777 1_665
F8 Rb2 2.908713 1_565
F8 Rb0 2.966370 1_555
F9 Rb2 2.712524 1_555
F9 Rb1 2.925520 1_655
F10 Ru0 1.891777 1_665
F10 Rb1 2.908713 1_655
F10 Rb0 2.966370 1_555
F11 Ru0 1.891777 1_556
F11 Rb1 2.908713 1_556
F11 Rb0 2.966370 1_555
