# generated using pymatgen
data_Cu4MoW3O16
_symmetry_space_group_name_H-M   'P 1'
_cell_length_a   4.97144480
_cell_length_b   7.09111091
_cell_length_c   8.13615843
_cell_angle_alpha   77.17564015
_cell_angle_beta   85.54087762
_cell_angle_gamma   90.06980099
_symmetry_Int_Tables_number   1
_chemical_formula_structural   Cu4MoW3O16
_chemical_formula_sum   'Cu4 Mo1 W3 O16'
_cell_volume   278.77281065
_cell_formula_units_Z   1
loop_
 _symmetry_equiv_pos_site_id
 _symmetry_equiv_pos_as_xyz
  1  'x, y, z'
loop_
 _atom_site_type_symbol
 _atom_site_label
 _atom_site_symmetry_multiplicity
 _atom_site_fract_x
 _atom_site_fract_y
 _atom_site_fract_z
 _atom_site_occupancy
  Cu  Cu0  1  0.25351100  0.91934000  0.42230900  1
  Cu  Cu1  1  0.25499100  0.41783000  0.92497600  1
  Cu  Cu2  1  0.74448500  0.08093100  0.57570900  1
  Cu  Cu3  1  0.74534700  0.58150900  0.07495600  1
  Mo  Mo0  1  0.25227000  0.92199600  0.90479300  1
  W  W0  1  0.25394900  0.42247100  0.40889100  1
  W  W1  1  0.74518100  0.07562600  0.09253700  1
  W  W2  1  0.74632900  0.57740900  0.59096100  1
  O  O0  1  0.42970900  0.66843000  0.45430900  1
  O  O1  1  0.43011500  0.16833600  0.95424700  1
  O  O2  1  0.56966600  0.33165200  0.54609700  1
  O  O3  1  0.57202600  0.83285300  0.04511600  1
  O  O4  1  0.42829300  0.94848100  0.70001000  1
  O  O5  1  0.42835100  0.44971400  0.19958600  1
  O  O6  1  0.57167300  0.05189700  0.30197200  1
  O  O7  1  0.57095900  0.55119300  0.80019800  1
  O  O8  1  0.05224100  0.93671600  0.15339000  1
  O  O9  1  0.05501200  0.43544800  0.65091100  1
  O  O10  1  0.94888400  0.06366200  0.84869500  1
  O  O11  1  0.94463200  0.56408300  0.34957900  1
  O  O12  1  0.09403300  0.17260000  0.44436600  1
  O  O13  1  0.09396900  0.67335700  0.94515200  1
  O  O14  1  0.90705200  0.82708000  0.55614600  1
  O  O15  1  0.90732200  0.32738600  0.05509400  1
loop_
_geom_bond_atom_site_label_1
_geom_bond_atom_site_label_2
_geom_bond_distance
_geom_bond_site_symmetry_2
Cu0 O6 1.921205 1_565
Cu0 O0 1.958154 1_555
Cu0 O14 1.992432 1_455
Cu0 O12 2.002611 1_565
Cu0 O8 2.454513 1_555
Cu0 O4 2.532746 1_555
Cu1 O7 1.927346 1_555
Cu1 O1 1.947736 1_555
Cu1 O15 1.982644 1_456
Cu1 O13 2.016469 1_555
Cu1 O9 2.489484 1_555
Cu1 O5 2.511786 1_556
Cu2 O4 1.924429 1_545
Cu2 O2 1.954598 1_555
Cu2 O12 1.996105 1_655
Cu2 O14 2.007374 1_545
Cu2 O10 2.492223 1_555
Cu2 O6 2.498282 1_555
Cu3 O5 1.926766 1_555
Cu3 O3 1.955043 1_555
Cu3 O13 1.987627 1_654
Cu3 O15 2.008575 1_555
Cu3 O11 2.492229 1_555
Cu3 O7 2.511857 1_554
Mo0 O4 1.791946 1_555
Mo0 O10 1.843785 1_465
Mo0 O13 1.880215 1_555
Mo0 O3 2.047999 1_556
Mo0 O1 2.087722 1_565
Mo0 O8 2.207265 1_556
O0 W2 2.021494 1_555
O0 W0 2.067514 1_555
O1 W1 2.024781 1_556
O2 W0 2.019964 1_555
O2 W2 2.066417 1_555
O3 W1 2.048524 1_565
O5 W0 1.820171 1_555
O6 W1 1.822026 1_555
O7 W2 1.822391 1_555
O8 W1 1.857524 1_465
O9 W2 1.873089 1_455
O9 W0 2.154494 1_555
O10 W1 2.175150 1_556
O11 W0 1.873493 1_655
O11 W2 2.149273 1_555
O12 W0 1.894389 1_555
O14 W2 1.895227 1_555
O15 W1 1.909603 1_555
