# generated using pymatgen
data_MgVCr2Fe3(PO4)6
_symmetry_space_group_name_H-M   'P 1'
_cell_length_a   8.92336452
_cell_length_b   8.74601507
_cell_length_c   8.71230696
_cell_angle_alpha   59.57997947
_cell_angle_beta   57.54328307
_cell_angle_gamma   58.40296751
_symmetry_Int_Tables_number   1
_chemical_formula_structural   MgVCr2Fe3(PO4)6
_chemical_formula_sum   'Mg1 V1 Cr2 Fe3 P6 O24'
_cell_volume   464.08024622
_cell_formula_units_Z   1
loop_
 _symmetry_equiv_pos_site_id
 _symmetry_equiv_pos_as_xyz
  1  'x, y, z'
loop_
 _atom_site_type_symbol
 _atom_site_label
 _atom_site_symmetry_multiplicity
 _atom_site_fract_x
 _atom_site_fract_y
 _atom_site_fract_z
 _atom_site_occupancy
  Mg  Mg0  1  0.25509900  0.63531600  0.24649800  1
  V  V0  1  0.57318600  0.13820400  0.13944300  1
  Cr  Cr0  1  0.99778600  0.00691200  0.99215600  1
  Cr  Cr1  1  0.50283600  0.50575100  0.50583300  1
  Fe  Fe0  1  0.05678900  0.64608900  0.65401000  1
  Fe  Fe1  1  0.44698500  0.86507800  0.84506400  1
  Fe  Fe2  1  0.93269000  0.34972100  0.36046700  1
  P  P0  1  0.24220300  0.23936500  0.54757500  1
  P  P1  1  0.26033000  0.95169400  0.25213600  1
  P  P2  1  0.24297500  0.53691300  0.96111600  1
  P  P3  1  0.73081400  0.45888000  0.05652900  1
  P  P4  1  0.74103800  0.05185500  0.74597800  1
  P  P5  1  0.77990500  0.74844900  0.43708900  1
  O  O0  1  0.07653400  0.10678000  0.31557000  1
  O  O1  1  0.06204900  0.49489500  0.10926800  1
  O  O2  1  0.06752800  0.29206300  0.51448900  1
  O  O3  1  0.22961800  0.08565800  0.74955900  1
  O  O4  1  0.42940300  0.16888700  0.39318500  1
  O  O5  1  0.25333800  0.41892100  0.53707000  1
  O  O6  1  0.24667300  0.92065700  0.09676900  1
  O  O7  1  0.27527500  0.74432200  0.40628800  1
  O  O8  1  0.53364200  0.60472600  0.04351200  1
  O  O9  1  0.26562300  0.56806300  0.75699800  1
  O  O10  1  0.76360500  0.26492000  0.05874700  1
  O  O11  1  0.56122600  0.01321000  0.81880100  1
  O  O12  1  0.43789500  0.97920100  0.19736700  1
  O  O13  1  0.22030000  0.72298500  0.97653800  1
  O  O14  1  0.72143000  0.44362300  0.24705300  1
  O  O15  1  0.41970300  0.38314900  0.00121700  1
  O  O16  1  0.72108700  0.24893300  0.58832800  1
  O  O17  1  0.76232300  0.06333100  0.90449300  1
  O  O18  1  0.75433200  0.58758800  0.43715500  1
  O  O19  1  0.61723600  0.80646200  0.61354500  1
  O  O20  1  0.78247600  0.91251800  0.24446200  1
  O  O21  1  0.97477000  0.69236200  0.44283500  1
  O  O22  1  0.89127800  0.52547600  0.88164100  1
  O  O23  1  0.92001800  0.89516800  0.67121600  1
loop_
_geom_bond_atom_site_label_1
_geom_bond_atom_site_label_2
_geom_bond_distance
_geom_bond_site_symmetry_2
Mg0 O21 2.096684 1_455
Mg0 O8 2.107458 1_555
Mg0 O6 2.132433 1_555
Mg0 O7 2.161548 1_555
Mg0 O13 2.219073 1_554
Mg0 O5 2.264393 1_555
Cr0 O20 2.120436 1_546
Cr0 O3 2.132376 1_655
Cr0 O10 2.208753 1_556
Cr0 O13 2.238951 1_645
Cr0 O17 2.344320 1_555
Cr0 O6 2.460265 1_646
Cr1 O14 2.143102 1_555
Cr1 O9 2.143179 1_555
Cr1 O16 2.153660 1_555
Cr1 O7 2.201602 1_555
Cr1 O18 2.390595 1_555
Cr1 O5 2.553340 1_555
Fe0 O22 1.896672 1_455
Fe0 O23 1.898932 1_455
Fe0 O21 2.113116 1_455
Fe0 O5 2.131189 1_555
Fe0 O7 2.135032 1_555
Fe0 O9 2.141360 1_555
Fe1 O19 1.892450 1_555
Fe1 O11 1.898276 1_565
Fe1 O6 2.049891 1_556
Fe1 O3 2.088521 1_565
Fe1 O8 2.091708 1_556
Fe1 O13 2.377799 1_555
Fe2 O1 1.935088 1_655
Fe2 O0 1.939088 1_655
Fe2 O2 1.978525 1_655
Fe2 O18 2.025859 1_555
Fe2 O16 2.057203 1_555
Fe2 O14 2.181692 1_555
O0 P1 1.513347 1_545
O1 P2 1.520618 1_554
O2 P0 1.523135 1_555
O3 P0 1.570659 1_555
O4 P0 1.525982 1_555
O4 V0 1.949591 1_555
O5 P0 1.578798 1_555
O6 P1 1.582591 1_555
O7 P1 1.607182 1_555
O8 P3 1.565722 1_555
O9 P2 1.568080 1_555
O10 P3 1.554484 1_555
O10 V0 2.124099 1_555
O11 P4 1.532893 1_555
O12 P1 1.505931 1_555
O12 V0 2.010140 1_565
O13 P2 1.598307 1_555
O14 P3 1.555094 1_555
O15 P2 1.520125 1_554
O15 V0 1.999650 1_555
O16 P4 1.559687 1_555
O17 P4 1.547669 1_555
O17 V0 1.989612 1_556
O18 P5 1.538468 1_555
O19 P5 1.533246 1_555
O20 P5 1.559019 1_555
O20 V0 2.088877 1_565
O21 P5 1.562525 1_555
O22 P3 1.531223 1_556
O23 P4 1.531949 1_565
