# generated using pymatgen
data_CsErMnSe3
_symmetry_space_group_name_H-M   'P 1'
_cell_length_a   8.36436218
_cell_length_b   8.36436218
_cell_length_c   11.01124000
_cell_angle_alpha   90.00000000
_cell_angle_beta   90.00000000
_cell_angle_gamma   150.73170650
_symmetry_Int_Tables_number   1
_chemical_formula_structural   CsErMnSe3
_chemical_formula_sum   'Cs2 Er2 Mn2 Se6'
_cell_volume   376.63592073
_cell_formula_units_Z   2
loop_
 _symmetry_equiv_pos_site_id
 _symmetry_equiv_pos_as_xyz
  1  'x, y, z'
loop_
 _atom_site_type_symbol
 _atom_site_label
 _atom_site_symmetry_multiplicity
 _atom_site_fract_x
 _atom_site_fract_y
 _atom_site_fract_z
 _atom_site_occupancy
  Cs  Cs0  1  0.25728800  0.74271200  0.25000000  1
  Cs  Cs1  1  0.74271200  0.25728800  0.75000000  1
  Er  Er0  1  0.00000000  0.00000000  0.00000000  1
  Er  Er1  1  0.00000000  0.00000000  0.50000000  1
  Mn  Mn0  1  0.53720500  0.46279500  0.25000000  1
  Mn  Mn1  1  0.46279500  0.53720500  0.75000000  1
  Se  Se0  1  0.61493000  0.38507000  0.05513400  1
  Se  Se1  1  0.38507000  0.61493000  0.94486600  1
  Se  Se2  1  0.38507000  0.61493000  0.55513400  1
  Se  Se3  1  0.61493000  0.38507000  0.44486600  1
  Se  Se4  1  0.94583900  0.05416100  0.25000000  1
  Se  Se5  1  0.05416100  0.94583900  0.75000000  1
loop_
_geom_bond_atom_site_label_1
_geom_bond_atom_site_label_2
_geom_bond_distance
_geom_bond_site_symmetry_2
Cs0 Se4 3.712109 1_455
Cs0 Se4 3.712109 1_565
Cs0 Se3 3.791991 1_455
Cs0 Se3 3.791991 1_565
Cs0 Se0 3.791991 1_455
Cs0 Se0 3.791991 1_565
Cs0 Se1 3.945472 1_554
Cs0 Se2 3.945472 1_555
Cs1 Se5 3.712109 1_545
Cs1 Se5 3.712109 1_655
Cs1 Se2 3.791991 1_545
Cs1 Se1 3.791991 1_545
Cs1 Se1 3.791991 1_655
Cs1 Se2 3.791991 1_655
Cs1 Se0 3.945472 1_556
Cs1 Se3 3.945472 1_555
Er0 Se0 2.880076 1_445
Er0 Se0 2.880076 1_555
Er0 Se1 2.880076 1_554
Er0 Se1 2.880076 1_444
Er0 Se5 2.889028 1_544
Er0 Se4 2.889028 1_455
Er1 Se3 2.880076 1_445
Er1 Se2 2.880076 1_555
Er1 Se2 2.880076 1_445
Er1 Se3 2.880076 1_555
Er1 Se5 2.889028 1_545
Er1 Se4 2.889028 1_455
Mn0 Se3 2.487330 1_555
Mn0 Se0 2.487330 1_555
Mn0 Se4 2.579286 1_455
Mn0 Se4 2.579286 1_565
Mn1 Se1 2.487330 1_555
Mn1 Se2 2.487330 1_555
Mn1 Se5 2.579286 1_545
Mn1 Se5 2.579286 1_655
