# generated using pymatgen
data_Li3ScCl6
_symmetry_space_group_name_H-M   'P 1'
_cell_length_a   7.01517668
_cell_length_b   7.01517668
_cell_length_c   7.01517668
_cell_angle_alpha   60.00000000
_cell_angle_beta   60.00000000
_cell_angle_gamma   60.00000000
_symmetry_Int_Tables_number   1
_chemical_formula_structural   Li3ScCl6
_chemical_formula_sum   'Li3 Sc1 Cl6'
_cell_volume   244.11858383
_cell_formula_units_Z   1
loop_
 _symmetry_equiv_pos_site_id
 _symmetry_equiv_pos_as_xyz
  1  'x, y, z'
loop_
 _atom_site_type_symbol
 _atom_site_label
 _atom_site_symmetry_multiplicity
 _atom_site_fract_x
 _atom_site_fract_y
 _atom_site_fract_z
 _atom_site_occupancy
  Li  Li0  1  0.75000000  0.75000000  0.75000000  1
  Li  Li1  1  0.25000000  0.25000000  0.25000000  1
  Li  Li2  1  0.50000000  0.50000000  0.50000000  1
  Sc  Sc0  1  0.00000000  0.00000000  0.00000000  1
  Cl  Cl0  1  0.75091800  0.24908200  0.24908200  1
  Cl  Cl1  1  0.24908200  0.24908200  0.75091800  1
  Cl  Cl2  1  0.24908200  0.75091800  0.75091800  1
  Cl  Cl3  1  0.24908200  0.75091800  0.24908200  1
  Cl  Cl4  1  0.75091800  0.24908200  0.75091800  1
  Cl  Cl5  1  0.75091800  0.75091800  0.24908200  1
loop_
_geom_bond_atom_site_label_1
_geom_bond_atom_site_label_2
_geom_bond_distance
_geom_bond_site_symmetry_2
Cl0 Sc0 2.471132 1_655
Cl0 Li2 2.489347 1_555
Cl1 Sc0 2.471132 1_556
Cl1 Li2 2.489347 1_555
Cl2 Sc0 2.471132 1_566
Cl2 Li2 2.489347 1_555
Cl3 Sc0 2.471132 1_565
Cl3 Li2 2.489347 1_555
Cl4 Sc0 2.471132 1_656
Cl4 Li2 2.489347 1_555
Cl5 Sc0 2.471132 1_665
Cl5 Li2 2.489347 1_555
