# generated using pymatgen
data_MgMn2P2O9
_symmetry_space_group_name_H-M   'P 1'
_cell_length_a   6.39264900
_cell_length_b   7.24599100
_cell_length_c   14.35715100
_cell_angle_alpha   90.00000000
_cell_angle_beta   90.00000000
_cell_angle_gamma   90.00000000
_symmetry_Int_Tables_number   1
_chemical_formula_structural   MgMn2P2O9
_chemical_formula_sum   'Mg4 Mn8 P8 O36'
_cell_volume   665.03869870
_cell_formula_units_Z   4
loop_
 _symmetry_equiv_pos_site_id
 _symmetry_equiv_pos_as_xyz
  1  'x, y, z'
loop_
 _atom_site_type_symbol
 _atom_site_label
 _atom_site_symmetry_multiplicity
 _atom_site_fract_x
 _atom_site_fract_y
 _atom_site_fract_z
 _atom_site_occupancy
  Mg  Mg0  1  0.25000000  0.90543400  0.77287400  1
  Mg  Mg1  1  0.25000000  0.59456600  0.27287400  1
  Mg  Mg2  1  0.75000000  0.40543400  0.72712600  1
  Mg  Mg3  1  0.75000000  0.09456600  0.22712600  1
  Mn  Mn0  1  0.25000000  0.35307600  0.88099800  1
  Mn  Mn1  1  0.75000000  0.64692400  0.11900200  1
  Mn  Mn2  1  0.75000000  0.85307600  0.61900200  1
  Mn  Mn3  1  0.25000000  0.14692400  0.38099800  1
  Mn  Mn4  1  0.00000000  0.00000000  0.00000000  1
  Mn  Mn5  1  0.00000000  0.50000000  0.50000000  1
  Mn  Mn6  1  0.50000000  0.50000000  0.50000000  1
  Mn  Mn7  1  0.50000000  0.00000000  0.00000000  1
  P  P0  1  0.75000000  0.36879700  0.92844200  1
  P  P1  1  0.25000000  0.63120300  0.07155800  1
  P  P2  1  0.25000000  0.86879700  0.57155800  1
  P  P3  1  0.75000000  0.13120300  0.42844200  1
  P  P4  1  0.25000000  0.38743900  0.69969900  1
  P  P5  1  0.25000000  0.11256100  0.19969900  1
  P  P6  1  0.75000000  0.88743900  0.80030100  1
  P  P7  1  0.75000000  0.61256100  0.30030100  1
  O  O0  1  0.54279700  0.60938600  0.35633400  1
  O  O1  1  0.04279700  0.39061400  0.64366600  1
  O  O2  1  0.45720300  0.10938600  0.14366600  1
  O  O3  1  0.95720300  0.89061400  0.85633400  1
  O  O4  1  0.45720300  0.39061400  0.64366600  1
  O  O5  1  0.95720300  0.60938600  0.35633400  1
  O  O6  1  0.54279700  0.89061400  0.85633400  1
  O  O7  1  0.04279700  0.10938600  0.14366600  1
  O  O8  1  0.75000000  0.32201800  0.47825600  1
  O  O9  1  0.25000000  0.67798200  0.52174400  1
  O  O10  1  0.25000000  0.82201800  0.02174400  1
  O  O11  1  0.75000000  0.17798200  0.97825600  1
  O  O12  1  0.25000000  0.12884100  0.95002500  1
  O  O13  1  0.75000000  0.87115900  0.04997500  1
  O  O14  1  0.75000000  0.62884100  0.54997500  1
  O  O15  1  0.25000000  0.37115900  0.45002500  1
  O  O16  1  0.25000000  0.20720800  0.76345600  1
  O  O17  1  0.75000000  0.79279200  0.23654400  1
  O  O18  1  0.75000000  0.70720800  0.73654400  1
  O  O19  1  0.25000000  0.29279200  0.26345600  1
  O  O20  1  0.93398000  0.12107100  0.35882400  1
  O  O21  1  0.43398000  0.87892900  0.64117600  1
  O  O22  1  0.06602000  0.62107100  0.14117600  1
  O  O23  1  0.56602000  0.37892900  0.85882400  1
  O  O24  1  0.06602000  0.87892900  0.64117600  1
  O  O25  1  0.56602000  0.12107100  0.35882400  1
  O  O26  1  0.93398000  0.37892900  0.85882400  1
  O  O27  1  0.43398000  0.62107100  0.14117600  1
  O  O28  1  0.25000000  0.48138300  0.99793300  1
  O  O29  1  0.75000000  0.04625700  0.72625000  1
  O  O30  1  0.75000000  0.45374300  0.22625000  1
  O  O31  1  0.25000000  0.54625700  0.77375000  1
  O  O32  1  0.25000000  0.01861700  0.49793300  1
  O  O33  1  0.75000000  0.98138300  0.50206700  1
  O  O34  1  0.75000000  0.51861700  0.00206700  1
  O  O35  1  0.25000000  0.95374300  0.27375000  1
loop_
_geom_bond_atom_site_label_1
_geom_bond_atom_site_label_2
_geom_bond_distance
_geom_bond_site_symmetry_2
Mg0 O16 2.190828 1_565
Mg0 O6 2.225033 1_555
Mg0 O3 2.225033 1_455
Mg0 O21 2.235016 1_555
Mg0 O24 2.235016 1_555
Mg0 O31 2.602624 1_555
Mg1 O19 2.190828 1_555
Mg1 O0 2.225033 1_555
Mg1 O5 2.225033 1_455
Mg1 O22 2.235016 1_555
Mg1 O27 2.235016 1_555
Mg1 O35 2.602624 1_555
Mg2 O18 2.190828 1_555
Mg2 O4 2.225033 1_555
Mg2 O1 2.225033 1_655
Mg2 O26 2.235016 1_555
Mg2 O23 2.235016 1_555
Mg2 O29 2.602624 1_555
Mg3 O17 2.190828 1_545
Mg3 O2 2.225033 1_555
Mg3 O7 2.225033 1_655
Mg3 O20 2.235016 1_555
Mg3 O25 2.235016 1_555
Mg3 O30 2.602624 1_555
Mn0 O12 1.903190 1_555
Mn0 O28 1.919091 1_555
Mn0 O16 1.991243 1_555
Mn0 O23 2.053697 1_555
Mn0 O26 2.053697 1_455
Mn0 O31 2.080941 1_555
Mn1 O13 1.903190 1_555
Mn1 O34 1.919091 1_555
Mn1 O17 1.991243 1_555
Mn1 O22 2.053697 1_655
Mn1 O27 2.053697 1_555
Mn1 O30 2.080941 1_555
Mn2 O14 1.903190 1_555
Mn2 O33 1.919091 1_555
Mn2 O18 1.991243 1_555
Mn2 O24 2.053697 1_655
Mn2 O21 2.053697 1_555
Mn2 O29 2.080941 1_565
Mn3 O15 1.903190 1_555
Mn3 O32 1.919091 1_555
Mn3 O19 1.991243 1_555
Mn3 O20 2.053697 1_455
Mn3 O25 2.053697 1_555
Mn3 O35 2.080941 1_545
Mn4 O13 1.985069 1_445
Mn4 O12 1.985069 1_554
Mn4 O11 2.077208 1_454
Mn4 O10 2.077208 1_545
Mn4 O3 2.226554 1_444
Mn4 O7 2.226554 1_555
Mn5 O15 1.985069 1_555
Mn5 O14 1.985069 1_455
Mn5 O8 2.077208 1_455
Mn5 O9 2.077208 1_555
Mn5 O1 2.226554 1_555
Mn5 O5 2.226554 1_455
Mn6 O15 1.985069 1_555
Mn6 O14 1.985069 1_555
Mn6 O9 2.077208 1_555
Mn6 O8 2.077208 1_555
Mn6 O4 2.226554 1_555
Mn6 O0 2.226554 1_555
Mn7 O13 1.985069 1_545
Mn7 O12 1.985069 1_554
Mn7 O11 2.077208 1_554
Mn7 O10 2.077208 1_545
Mn7 O6 2.226554 1_544
Mn7 O2 2.226554 1_555
O0 P7 1.549906 1_555
O1 P4 1.549906 1_555
O2 P5 1.549906 1_555
O3 P6 1.549906 1_555
O4 P4 1.549906 1_555
O5 P7 1.549906 1_555
O6 P6 1.549906 1_555
O7 P5 1.549906 1_555
O8 P3 1.556662 1_555
O9 P2 1.556662 1_555
O10 P1 1.556662 1_555
O11 P0 1.556662 1_555
O16 P4 1.594808 1_555
O17 P7 1.594808 1_555
O18 P6 1.594808 1_555
O19 P5 1.594808 1_555
O20 P3 1.545212 1_555
O21 P2 1.545212 1_555
O22 P1 1.545212 1_555
O23 P0 1.545212 1_555
O24 P2 1.545212 1_555
O25 P3 1.545212 1_555
O26 P0 1.545212 1_555
O27 P1 1.545212 1_555
O28 P1 1.515209 1_556
O29 P6 1.566729 1_545
O30 P7 1.566729 1_555
O31 P4 1.566729 1_555
O32 P2 1.515209 1_545
O33 P3 1.515209 1_565
O34 P0 1.515209 1_554
O35 P5 1.566729 1_565
