# generated using pymatgen
data_ZnCr(SiO3)2
_symmetry_space_group_name_H-M   'P 1'
_cell_length_a   5.35195609
_cell_length_b   6.94484232
_cell_length_c   6.94527085
_cell_angle_alpha   87.99761420
_cell_angle_beta   74.75962352
_cell_angle_gamma   74.76264854
_symmetry_Int_Tables_number   1
_chemical_formula_structural   ZnCr(SiO3)2
_chemical_formula_sum   'Zn2 Cr2 Si4 O12'
_cell_volume   240.14909579
_cell_formula_units_Z   2
loop_
 _symmetry_equiv_pos_site_id
 _symmetry_equiv_pos_as_xyz
  1  'x, y, z'
loop_
 _atom_site_type_symbol
 _atom_site_label
 _atom_site_symmetry_multiplicity
 _atom_site_fract_x
 _atom_site_fract_y
 _atom_site_fract_z
 _atom_site_occupancy
  Zn  Zn0  1  0.74998100  0.24137600  0.75862700  1
  Zn  Zn1  1  0.24993800  0.75857100  0.24136300  1
  Cr  Cr0  1  0.75010800  0.89891000  0.10099500  1
  Cr  Cr1  1  0.24985100  0.10122000  0.89884700  1
  Si  Si0  1  0.22782300  0.21738100  0.38499000  1
  Si  Si1  1  0.27226400  0.61501900  0.78263700  1
  Si  Si2  1  0.72783100  0.38495300  0.21740500  1
  Si  Si3  1  0.77226000  0.78264100  0.61503800  1
  O  O0  1  0.47329600  0.32286700  0.37532100  1
  O  O1  1  0.02677300  0.62472500  0.67708200  1
  O  O2  1  0.52678200  0.67706800  0.62474700  1
  O  O3  1  0.97329800  0.37530000  0.32289600  1
  O  O4  1  0.12068200  0.15053200  0.61173800  1
  O  O5  1  0.37927600  0.38822900  0.84948200  1
  O  O6  1  0.87922900  0.84950100  0.38823000  1
  O  O7  1  0.62067000  0.61170400  0.15053800  1
  O  O8  1  0.84824000  0.21490300  0.03185200  1
  O  O9  1  0.65176400  0.96820700  0.78510700  1
  O  O10  1  0.34821700  0.03179400  0.21494000  1
  O  O11  1  0.15171600  0.78510100  0.96816700  1
loop_
_geom_bond_atom_site_label_1
_geom_bond_atom_site_label_2
_geom_bond_distance
_geom_bond_site_symmetry_2
Cr0 O11 2.052107 1_654
Cr0 O10 2.053556 1_565
Cr0 O6 2.264358 1_555
Cr0 O7 2.264894 1_555
Cr0 O8 2.392060 1_565
Cr0 O9 2.392094 1_554
Cr1 O8 2.052242 1_456
Cr1 O9 2.053643 1_545
Cr1 O5 2.263502 1_555
Cr1 O4 2.263622 1_555
Cr1 O11 2.393051 1_545
Cr1 O10 2.393620 1_556
O0 Si0 1.650221 1_555
O0 Si2 1.653714 1_555
O1 Si1 1.650635 1_555
O1 Si3 1.653544 1_455
O2 Si3 1.650588 1_555
O2 Si1 1.653453 1_555
O3 Si2 1.650297 1_555
O3 Si0 1.653757 1_655
O4 Si0 1.624345 1_555
O4 Zn0 1.922994 1_455
O5 Si1 1.624431 1_555
O5 Zn0 1.922956 1_555
O6 Si3 1.624573 1_555
O6 Zn1 1.923033 1_655
O7 Si2 1.624387 1_555
O7 Zn1 1.923083 1_555
O8 Si2 1.655436 1_555
O8 Zn0 2.088243 1_554
O9 Si3 1.655576 1_555
O9 Zn0 2.087619 1_565
O10 Si0 1.655595 1_555
O10 Zn1 2.088143 1_545
O11 Si1 1.655464 1_555
O11 Zn1 2.087951 1_556
