# generated using pymatgen
data_V3Pb3N5
_symmetry_space_group_name_H-M   'P 1'
_cell_length_a   5.98085292
_cell_length_b   7.71237807
_cell_length_c   8.66161002
_cell_angle_alpha   106.37857426
_cell_angle_beta   97.24280192
_cell_angle_gamma   102.32773202
_symmetry_Int_Tables_number   1
_chemical_formula_structural   V3Pb3N5
_chemical_formula_sum   'V6 Pb6 N10'
_cell_volume   367.00903571
_cell_formula_units_Z   2
loop_
 _symmetry_equiv_pos_site_id
 _symmetry_equiv_pos_as_xyz
  1  'x, y, z'
loop_
 _atom_site_type_symbol
 _atom_site_label
 _atom_site_symmetry_multiplicity
 _atom_site_fract_x
 _atom_site_fract_y
 _atom_site_fract_z
 _atom_site_occupancy
  V  V0  1  0.94542600  0.31466800  0.97850500  1
  V  V1  1  0.05457400  0.68533200  0.02149500  1
  V  V2  1  0.67809400  0.99054100  0.60747500  1
  V  V3  1  0.32190600  0.00945900  0.39252500  1
  V  V4  1  0.08450500  0.92317300  0.71124300  1
  V  V5  1  0.91549500  0.07682700  0.28875700  1
  Pb  Pb0  1  0.77422300  0.47402500  0.56700300  1
  Pb  Pb1  1  0.22577700  0.52597500  0.43299700  1
  Pb  Pb2  1  0.53307500  0.81829100  0.87216700  1
  Pb  Pb3  1  0.46692500  0.18170900  0.12783300  1
  Pb  Pb4  1  0.62711700  0.66180200  0.22699600  1
  Pb  Pb5  1  0.37288300  0.33819800  0.77300400  1
  N  N0  1  0.94163600  0.13548500  0.77499100  1
  N  N1  1  0.05836400  0.86451500  0.22500900  1
  N  N2  1  0.80401000  0.79273100  0.56053100  1
  N  N3  1  0.19599000  0.20726900  0.43946900  1
  N  N4  1  0.78442600  0.49534200  0.97169100  1
  N  N5  1  0.21557400  0.50465800  0.02830900  1
  N  N6  1  0.33088400  0.93915100  0.58641300  1
  N  N7  1  0.66911600  0.06084900  0.41358700  1
  N  N8  1  0.10068700  0.79954700  0.86090300  1
  N  N9  1  0.89931300  0.20045300  0.13909700  1
loop_
_geom_bond_atom_site_label_1
_geom_bond_atom_site_label_2
_geom_bond_distance
_geom_bond_site_symmetry_2
N0 V2 1.896191 1_545
N0 V0 1.902704 1_555
N0 V4 1.980583 1_645
N0 Pb5 2.720559 1_655
N1 V3 1.896191 1_565
N1 V1 1.902704 1_555
N1 V5 1.980583 1_465
N1 Pb4 2.720559 1_455
N2 V2 1.810480 1_555
N2 V4 1.875371 1_655
N2 Pb0 2.443316 1_555
N2 Pb4 2.759155 1_555
N3 V3 1.810480 1_555
N3 V5 1.875371 1_455
N3 Pb1 2.443316 1_555
N3 Pb5 2.759155 1_555
N4 V1 1.844047 1_656
N4 V0 1.864757 1_555
N4 Pb4 2.619678 1_556
N4 Pb5 2.640216 1_555
N5 V0 1.844047 1_454
N5 V1 1.864757 1_555
N5 Pb5 2.619678 1_554
N5 Pb4 2.640216 1_555
N6 V3 1.902760 1_565
N6 V4 1.937769 1_555
N6 V2 2.003731 1_555
N7 V2 1.902760 1_545
N7 V5 1.937769 1_555
N7 V3 2.003731 1_555
N8 V4 1.817587 1_555
N8 V1 1.863019 1_556
N8 Pb2 2.546932 1_555
N9 V5 1.817587 1_555
N9 V0 1.863019 1_554
N9 Pb3 2.546932 1_555
