# generated using pymatgen
data_Zn2FeWO6
_symmetry_space_group_name_H-M   'P 1'
_cell_length_a   5.26655878
_cell_length_b   7.98431164
_cell_length_c   5.30538960
_cell_angle_alpha   88.36713515
_cell_angle_beta   90.06171702
_cell_angle_gamma   89.99395221
_symmetry_Int_Tables_number   1
_chemical_formula_structural   Zn2FeWO6
_chemical_formula_sum   'Zn4 Fe2 W2 O12'
_cell_volume   223.00009746
_cell_formula_units_Z   2
loop_
 _symmetry_equiv_pos_site_id
 _symmetry_equiv_pos_as_xyz
  1  'x, y, z'
loop_
 _atom_site_type_symbol
 _atom_site_label
 _atom_site_symmetry_multiplicity
 _atom_site_fract_x
 _atom_site_fract_y
 _atom_site_fract_z
 _atom_site_occupancy
  Zn  Zn0  1  0.02124900  0.26145400  0.01660100  1
  Zn  Zn1  1  0.52145300  0.23858100  0.48348700  1
  Zn  Zn2  1  0.97875300  0.73854500  0.98340100  1
  Zn  Zn3  1  0.47854600  0.76141800  0.51651200  1
  Fe  Fe0  1  0.50000000  0.50001500  0.99999200  1
  Fe  Fe1  1  0.99999700  0.99999500  0.50000400  1
  W  W0  1  0.00000200  0.49999800  0.50000000  1
  W  W1  1  0.49999800  0.00000300  0.00000100  1
  O  O0  1  0.31018500  0.41273300  0.64638000  1
  O  O1  1  0.80977600  0.08737000  0.85387700  1
  O  O2  1  0.68981400  0.58726700  0.35362000  1
  O  O3  1  0.19022500  0.91262800  0.14612400  1
  O  O4  1  0.16738600  0.55065800  0.17925400  1
  O  O5  1  0.66748800  0.94935600  0.32116000  1
  O  O6  1  0.83261500  0.44934100  0.82074600  1
  O  O7  1  0.33251100  0.05064100  0.67884200  1
  O  O8  1  0.39729700  0.22718500  0.11547900  1
  O  O9  1  0.89740800  0.27279200  0.38451800  1
  O  O10  1  0.10259200  0.72720800  0.61548400  1
  O  O11  1  0.60270400  0.77281100  0.88452000  1
loop_
_geom_bond_atom_site_label_1
_geom_bond_atom_site_label_2
_geom_bond_distance
_geom_bond_site_symmetry_2
Fe0 O4 2.040079 1_556
Fe0 O6 2.040095 1_555
Fe0 O2 2.252803 1_556
Fe0 O0 2.252814 1_555
Fe0 O11 2.310165 1_555
Fe0 O8 2.310437 1_556
Fe1 O5 2.036866 1_555
Fe1 O7 2.036885 1_665
Fe1 O1 2.256904 1_565
Fe1 O3 2.256930 1_655
Fe1 O10 2.309557 1_655
Fe1 O9 2.309632 1_565
O0 W0 1.929612 1_555
O0 Zn1 1.997132 1_555
O1 W1 1.929099 1_556
O1 Zn0 1.996070 1_656
O2 W0 1.929645 1_655
O2 Zn3 1.997124 1_555
O3 W1 1.929097 1_565
O3 Zn2 1.996059 1_454
O4 W0 1.949492 1_555
O4 Zn2 2.055648 1_454
O5 W1 1.949929 1_565
O5 Zn3 2.056674 1_555
O6 W0 1.949495 1_655
O6 Zn0 2.055656 1_656
O7 W1 1.949909 1_556
O7 Zn1 2.056693 1_555
O8 W1 2.005478 1_555
O8 Zn1 2.062810 1_555
O8 Zn0 2.064418 1_555
O9 W0 2.005256 1_655
O9 Zn0 2.063120 1_655
O9 Zn1 2.065150 1_555
O10 W0 2.005283 1_555
O10 Zn2 2.063116 1_455
O10 Zn3 2.065148 1_555
O11 W1 2.005563 1_566
O11 Zn3 2.062811 1_555
O11 Zn2 2.064424 1_555
