# generated using pymatgen
data_MoPb
_symmetry_space_group_name_H-M   'P 1'
_cell_length_a   4.12912400
_cell_length_b   4.12912400
_cell_length_c   5.61654254
_cell_angle_alpha   111.56681201
_cell_angle_beta   111.56681201
_cell_angle_gamma   90.00000000
_symmetry_Int_Tables_number   1
_chemical_formula_structural   MoPb
_chemical_formula_sum   'Mo2 Pb2'
_cell_volume   81.80413926
_cell_formula_units_Z   2
loop_
 _symmetry_equiv_pos_site_id
 _symmetry_equiv_pos_as_xyz
  1  'x, y, z'
loop_
 _atom_site_type_symbol
 _atom_site_label
 _atom_site_symmetry_multiplicity
 _atom_site_fract_x
 _atom_site_fract_y
 _atom_site_fract_z
 _atom_site_occupancy
  Mo  Mo0  1  0.25000000  0.75000000  0.50000000  1
  Mo  Mo1  1  0.00000000  0.00000000  0.00000000  1
  Pb  Pb0  1  0.75000000  0.25000000  0.50000000  1
  Pb  Pb1  1  0.50000000  0.50000000  0.00000000  1
loop_
_geom_bond_atom_site_label_1
_geom_bond_atom_site_label_2
_geom_bond_distance
_geom_bond_site_symmetry_2
Mo0 Pb0 2.919732 1_455
Mo0 Pb0 2.919732 1_555
Mo0 Pb0 2.919732 1_565
Mo0 Pb0 2.919732 1_465
Mo0 Mo1 3.165059 1_555
Mo0 Pb1 3.165059 1_566
Mo0 Mo1 3.165059 1_666
Mo0 Pb1 3.165059 1_455
Mo0 Pb1 3.165059 1_555
Mo0 Mo1 3.165059 1_566
Mo0 Pb1 3.165059 1_556
Mo0 Mo1 3.165059 1_565
Mo1 Pb1 2.919732 1_445
Mo1 Pb1 2.919732 1_555
Mo1 Pb1 2.919732 1_455
Mo1 Pb1 2.919732 1_545
Mo1 Pb0 3.165059 1_444
Mo1 Pb0 3.165059 1_555
Mo1 Pb0 3.165059 1_455
Mo1 Pb0 3.165059 1_454
Pb0 Pb1 3.165059 1_656
Pb0 Pb1 3.165059 1_545
Pb0 Pb1 3.165059 1_555
Pb0 Pb1 3.165059 1_556
