# generated using pymatgen
data_Ba2Na2Zr2Si6O23
_symmetry_space_group_name_H-M   'P 1'
_cell_length_a   12.47889598
_cell_length_b   13.33338368
_cell_length_c   13.37125659
_cell_angle_alpha   103.72311648
_cell_angle_beta   90.00000000
_cell_angle_gamma   90.00000000
_symmetry_Int_Tables_number   1
_chemical_formula_structural   Ba2Na2Zr2Si6O23
_chemical_formula_sum   'Ba8 Na8 Zr8 Si24 O92'
_cell_volume   2161.27870938
_cell_formula_units_Z   4
loop_
 _symmetry_equiv_pos_site_id
 _symmetry_equiv_pos_as_xyz
  1  'x, y, z'
loop_
 _atom_site_type_symbol
 _atom_site_label
 _atom_site_symmetry_multiplicity
 _atom_site_fract_x
 _atom_site_fract_y
 _atom_site_fract_z
 _atom_site_occupancy
  Ba  Ba0  1  0.45968770  0.97657582  0.31860892  1
  Ba  Ba1  1  0.53869445  0.31787971  0.97707506  1
  Ba  Ba2  1  0.96130555  0.81787971  0.47707506  1
  Ba  Ba3  1  0.04031230  0.47657582  0.81860892  1
  Ba  Ba4  1  0.54031230  0.02342418  0.68139108  1
  Ba  Ba5  1  0.46130555  0.68212029  0.02292494  1
  Ba  Ba6  1  0.03869445  0.18212029  0.52292494  1
  Ba  Ba7  1  0.95968770  0.52342418  0.18139108  1
  Na  Na0  1  0.75057550  0.54522025  0.95371967  1
  Na  Na1  1  0.25057550  0.95477975  0.54628033  1
  Na  Na2  1  0.24942450  0.45477975  0.04628033  1
  Na  Na3  1  0.74942450  0.04522025  0.45371967  1
  Na  Na4  1  0.39828079  0.38049958  0.44951779  1
  Na  Na5  1  0.10171921  0.88049958  0.94951779  1
  Na  Na6  1  0.60171921  0.61950042  0.55048221  1
  Na  Na7  1  0.89828079  0.11950042  0.05048221  1
  Zr  Zr0  1  0.73566167  0.79270812  0.20944941  1
  Zr  Zr1  1  0.26433833  0.20729188  0.79055059  1
  Zr  Zr2  1  0.23566167  0.70729188  0.29055059  1
  Zr  Zr3  1  0.76433833  0.29270812  0.70944941  1
  Zr  Zr4  1  0.24575111  0.20820146  0.28618309  1
  Zr  Zr5  1  0.74575111  0.29179854  0.21381691  1
  Zr  Zr6  1  0.75424889  0.79179854  0.71381691  1
  Zr  Zr7  1  0.25424889  0.70820146  0.78618309  1
  Si  Si0  1  0.52203626  0.69057433  0.30898960  1
  Si  Si1  1  0.47796374  0.30942567  0.69101040  1
  Si  Si2  1  0.02203626  0.80942567  0.19101040  1
  Si  Si3  1  0.97796374  0.19057433  0.80898960  1
  Si  Si4  1  0.49806882  0.17491130  0.17457393  1
  Si  Si5  1  0.00193118  0.67491130  0.67457393  1
  Si  Si6  1  0.50193118  0.82508870  0.82542607  1
  Si  Si7  1  0.99806882  0.32508870  0.32542607  1
  Si  Si8  1  0.68961070  0.02807077  0.15991081  1
  Si  Si9  1  0.30814713  0.15545728  0.02396552  1
  Si  Si10  1  0.19185287  0.65545728  0.52396552  1
  Si  Si11  1  0.81038930  0.52807077  0.65991081  1
  Si  Si12  1  0.31038930  0.97192923  0.84008919  1
  Si  Si13  1  0.69185287  0.84454272  0.97603448  1
  Si  Si14  1  0.80814713  0.34454272  0.47603448  1
  Si  Si15  1  0.18961070  0.47192923  0.34008919  1
  Si  Si16  1  0.33251369  0.18140904  0.53652980  1
  Si  Si17  1  0.66740103  0.53764898  0.17980064  1
  Si  Si18  1  0.83259897  0.03764898  0.67980064  1
  Si  Si19  1  0.16748631  0.68140904  0.03652980  1
  Si  Si20  1  0.66748631  0.81859096  0.46347020  1
  Si  Si21  1  0.33259897  0.46235102  0.82019936  1
  Si  Si22  1  0.16740103  0.96235102  0.32019936  1
  Si  Si23  1  0.83251369  0.31859096  0.96347020  1
  O  O0  1  0.42867195  0.26998713  0.57331325  1
  O  O1  1  0.56888679  0.57336491  0.26395204  1
  O  O2  1  0.93111321  0.07336491  0.76395204  1
  O  O3  1  0.07132805  0.76998713  0.07331325  1
  O  O4  1  0.57132805  0.73001287  0.42668675  1
  O  O5  1  0.43111321  0.42663509  0.73604796  1
  O  O6  1  0.06888679  0.92663509  0.23604796  1
  O  O7  1  0.92867195  0.23001287  0.92668675  1
  O  O8  1  0.39316469  0.87940647  0.12028858  1
  O  O9  1  0.60683531  0.12059353  0.87971142  1
  O  O10  1  0.89316469  0.62059353  0.37971142  1
  O  O11  1  0.10683531  0.37940647  0.62028858  1
  O  O12  1  0.41273459  0.18732890  0.26728103  1
  O  O13  1  0.58415570  0.26635001  0.18025209  1
  O  O14  1  0.91584430  0.76635001  0.68025209  1
  O  O15  1  0.08726541  0.68732890  0.76728103  1
  O  O16  1  0.58726541  0.81267110  0.73271897  1
  O  O17  1  0.41584430  0.73364999  0.81974791  1
  O  O18  1  0.08415570  0.23364999  0.31974791  1
  O  O19  1  0.91273459  0.31267110  0.23271897  1
  O  O20  1  0.22787378  0.18379841  0.12344721  1
  O  O21  1  0.76816981  0.12784011  0.18441675  1
  O  O22  1  0.73183019  0.62784011  0.68441675  1
  O  O23  1  0.27212622  0.68379841  0.62344721  1
  O  O24  1  0.77212622  0.81620159  0.87655279  1
  O  O25  1  0.23183019  0.87215989  0.81558325  1
  O  O26  1  0.26816981  0.37215989  0.31558325  1
  O  O27  1  0.72787378  0.31620159  0.37655279  1
  O  O28  1  0.71577203  0.96323164  0.04097502  1
  O  O29  1  0.28422797  0.03676836  0.95902498  1
  O  O30  1  0.21577203  0.53676836  0.45902498  1
  O  O31  1  0.78422797  0.46323164  0.54097502  1
  O  O32  1  0.89659731  0.64180677  0.91581145  1
  O  O33  1  0.10211451  0.91626942  0.63974906  1
  O  O34  1  0.39788549  0.41626942  0.13974906  1
  O  O35  1  0.60340269  0.14180677  0.41581145  1
  O  O36  1  0.10340269  0.35819323  0.08418855  1
  O  O37  1  0.89788549  0.08373058  0.36025094  1
  O  O38  1  0.60211451  0.58373058  0.86025094  1
  O  O39  1  0.39659731  0.85819323  0.58418855  1
  O  O40  1  0.56466276  0.76631952  0.23746725  1
  O  O41  1  0.43533724  0.23368048  0.76253275  1
  O  O42  1  0.06466276  0.73368048  0.26253275  1
  O  O43  1  0.93533724  0.26631952  0.73746725  1
  O  O44  1  0.69480819  0.95062235  0.23736168  1
  O  O45  1  0.30545902  0.23426981  0.94794325  1
  O  O46  1  0.19454098  0.73426981  0.44794325  1
  O  O47  1  0.80519181  0.45062235  0.73736168  1
  O  O48  1  0.30519181  0.04937765  0.76263832  1
  O  O49  1  0.69454098  0.76573019  0.05205675  1
  O  O50  1  0.80545902  0.26573019  0.55205675  1
  O  O51  1  0.19480819  0.54937765  0.26263832  1
  O  O52  1  0.23328386  0.05354348  0.28540004  1
  O  O53  1  0.77265655  0.27924185  0.05550672  1
  O  O54  1  0.72734345  0.77924185  0.55550672  1
  O  O55  1  0.26671614  0.55354348  0.78540004  1
  O  O56  1  0.76671614  0.94645652  0.71459996  1
  O  O57  1  0.22734345  0.72075815  0.94449328  1
  O  O58  1  0.27265655  0.22075815  0.44449328  1
  O  O59  1  0.73328386  0.44645652  0.21459996  1
  O  O60  1  0.38673831  0.06712666  0.50751605  1
  O  O61  1  0.61469012  0.50668755  0.06460251  1
  O  O62  1  0.88530988  0.00668755  0.56460251  1
  O  O63  1  0.11326169  0.56712666  0.00751605  1
  O  O64  1  0.61326169  0.93287334  0.49248395  1
  O  O65  1  0.38530988  0.49331245  0.93539749  1
  O  O66  1  0.11469012  0.99331245  0.43539749  1
  O  O67  1  0.88673831  0.43287334  0.99248395  1
  O  O68  1  0.56172810  0.06487720  0.16775247  1
  O  O69  1  0.43447367  0.16377785  0.06411138  1
  O  O70  1  0.06552633  0.66377785  0.56411138  1
  O  O71  1  0.93827190  0.56487720  0.66775247  1
  O  O72  1  0.43827190  0.93512280  0.83224753  1
  O  O73  1  0.56552633  0.83622215  0.93588862  1
  O  O74  1  0.93447367  0.33622215  0.43588862  1
  O  O75  1  0.06172810  0.43512280  0.33224753  1
  O  O76  1  0.89342134  0.81163526  0.18688200  1
  O  O77  1  0.10657866  0.18836474  0.81311800  1
  O  O78  1  0.39342134  0.68836474  0.31311800  1
  O  O79  1  0.60657866  0.31163526  0.68688200  1
  O  O80  1  0.24330550  0.18546839  0.62832279  1
  O  O81  1  0.75521743  0.63087612  0.18494014  1
  O  O82  1  0.74478257  0.13087612  0.68494014  1
  O  O83  1  0.25669450  0.68546839  0.12832279  1
  O  O84  1  0.75669450  0.81453161  0.37167721  1
  O  O85  1  0.24478257  0.36912388  0.81505986  1
  O  O86  1  0.25521743  0.86912388  0.31505986  1
  O  O87  1  0.74330550  0.31453161  0.87167721  1
  O  O88  1  0.58617339  0.45069005  0.40814912  1
  O  O89  1  0.91382661  0.95069005  0.90814912  1
  O  O90  1  0.41382661  0.54930995  0.59185088  1
  O  O91  1  0.08617339  0.04930995  0.09185088  1
loop_
_geom_bond_atom_site_label_1
_geom_bond_atom_site_label_2
_geom_bond_distance
_geom_bond_site_symmetry_2
Ba0 O60 2.686957 1_565
Ba0 O8 2.787403 1_555
Ba0 O68 2.864130 1_565
Ba0 O35 2.898379 1_565
Ba0 O86 2.921146 1_555
Ba0 O40 3.051108 1_555
Ba0 O52 3.073874 1_565
Ba0 O12 3.102542 1_565
Ba0 O44 3.119329 1_555
Ba0 O64 3.171801 1_555
Ba1 O61 2.684905 1_556
Ba1 O9 2.777156 1_555
Ba1 O34 2.861112 1_556
Ba1 O69 2.898652 1_556
Ba1 O87 2.911652 1_555
Ba1 O13 3.010007 1_556
Ba1 O41 3.102469 1_555
Ba1 O45 3.107992 1_555
Ba1 O65 3.172405 1_555
Ba1 O53 3.185212 1_556
Ba2 O62 2.684905 1_565
Ba2 O10 2.777156 1_555
Ba2 O33 2.861112 1_655
Ba2 O70 2.898652 1_655
Ba2 O84 2.911652 1_555
Ba2 O14 3.010007 1_555
Ba2 O42 3.102469 1_655
Ba2 O46 3.107992 1_655
Ba2 O66 3.172405 1_655
Ba2 O54 3.185212 1_555
Ba3 O63 2.686957 1_556
Ba3 O11 2.787403 1_555
Ba3 O71 2.864130 1_455
Ba3 O32 2.898379 1_455
Ba3 O85 2.921146 1_555
Ba3 O43 3.051108 1_455
Ba3 O55 3.073874 1_555
Ba3 O15 3.102542 1_555
Ba3 O47 3.119329 1_455
Ba3 O67 3.171801 1_455
Ba4 O64 2.686957 1_545
Ba4 O9 2.787403 1_555
Ba4 O72 2.864130 1_545
Ba4 O39 2.898379 1_545
Ba4 O82 2.921146 1_555
Ba4 O41 3.051108 1_555
Ba4 O56 3.073874 1_545
Ba4 O16 3.102542 1_545
Ba4 O48 3.119329 1_555
Ba4 O60 3.171801 1_555
Ba5 O65 2.684905 1_554
Ba5 O8 2.777156 1_555
Ba5 O38 2.861112 1_554
Ba5 O73 2.898652 1_554
Ba5 O83 2.911652 1_555
Ba5 O17 3.010007 1_554
Ba5 O40 3.102469 1_555
Ba5 O49 3.107992 1_555
Ba5 O61 3.172405 1_555
Ba5 O57 3.185212 1_554
Ba6 O66 2.684905 1_545
Ba6 O11 2.777156 1_555
Ba6 O37 2.861112 1_455
Ba6 O74 2.898652 1_455
Ba6 O80 2.911652 1_555
Ba6 O18 3.010007 1_555
Ba6 O43 3.102469 1_455
Ba6 O50 3.107992 1_455
Ba6 O62 3.172405 1_455
Ba6 O58 3.185212 1_555
Ba7 O67 2.686957 1_554
Ba7 O10 2.787403 1_555
Ba7 O75 2.864130 1_655
Ba7 O36 2.898379 1_655
Ba7 O81 2.921146 1_555
Ba7 O42 3.051108 1_655
Ba7 O59 3.073874 1_555
Ba7 O19 3.102542 1_555
Ba7 O51 3.119329 1_655
Ba7 O63 3.171801 1_655
Na0 O32 2.354892 1_555
Na0 O38 2.358464 1_555
Na0 O61 2.387258 1_556
Na0 O67 2.401687 1_555
Na1 O39 2.354892 1_555
Na1 O33 2.358464 1_555
Na1 O66 2.387258 1_555
Na1 O60 2.401687 1_565
Na2 O36 2.354892 1_555
Na2 O34 2.358464 1_555
Na2 O65 2.387258 1_554
Na2 O63 2.401687 1_555
Na3 O35 2.354892 1_555
Na3 O37 2.358464 1_555
Na3 O62 2.387258 1_555
Na3 O64 2.401687 1_545
Na4 O26 2.400275 1_555
Na4 O0 2.492453 1_555
Na4 O90 2.587165 1_555
Na4 O88 2.631547 1_555
Na4 O58 2.632603 1_555
Na5 O25 2.400275 1_555
Na5 O3 2.492453 1_556
Na5 O91 2.587165 1_566
Na5 O89 2.631547 1_455
Na5 O57 2.632603 1_555
Na6 O22 2.400275 1_555
Na6 O4 2.492453 1_555
Na6 O88 2.587165 1_555
Na6 O90 2.631547 1_555
Na6 O54 2.632603 1_555
Na7 O21 2.400275 1_555
Na7 O7 2.492453 1_554
Na7 O89 2.587165 1_544
Na7 O91 2.631547 1_655
Na7 O53 2.632603 1_555
O0 Si1 1.654976 1_555
O0 Si16 1.673633 1_555
O1 Si0 1.643250 1_555
O1 Si17 1.658295 1_555
O2 Si3 1.643250 1_555
O2 Si18 1.658295 1_555
O3 Si2 1.654976 1_555
O3 Si19 1.673633 1_555
O4 Si0 1.654976 1_555
O4 Si20 1.673633 1_555
O5 Si1 1.643250 1_555
O5 Si21 1.658295 1_555
O6 Si2 1.643250 1_555
O6 Si22 1.658295 1_555
O7 Si3 1.654976 1_555
O7 Si23 1.673633 1_555
O12 Si4 1.612647 1_555
O12 Zr4 2.109515 1_555
O13 Si4 1.613170 1_555
O13 Zr5 2.076225 1_555
O14 Si5 1.613170 1_655
O14 Zr6 2.076225 1_555
O15 Si5 1.612647 1_555
O15 Zr7 2.109515 1_555
O16 Si6 1.612647 1_555
O16 Zr6 2.109515 1_555
O17 Si6 1.613170 1_555
O17 Zr7 2.076225 1_555
O18 Si7 1.613170 1_455
O18 Zr4 2.076225 1_555
O19 Si7 1.612647 1_555
O19 Zr5 2.109515 1_555
O20 Si9 1.636207 1_555
O20 Zr4 2.134155 1_555
O21 Si8 1.622099 1_555
O21 Zr5 2.145735 1_555
O22 Si11 1.622099 1_555
O22 Zr6 2.145735 1_555
O23 Si10 1.636207 1_555
O23 Zr7 2.134155 1_555
O24 Si13 1.636207 1_555
O24 Zr6 2.134155 1_555
O25 Si12 1.622099 1_555
O25 Zr7 2.145735 1_555
O26 Si15 1.622099 1_555
O26 Zr4 2.145735 1_555
O27 Si14 1.636207 1_555
O27 Zr5 2.134155 1_555
O28 Si13 1.641798 1_554
O28 Si8 1.652508 1_565
O29 Si9 1.641798 1_556
O29 Si12 1.652508 1_545
O30 Si10 1.641798 1_555
O30 Si15 1.652508 1_555
O31 Si14 1.641798 1_555
O31 Si11 1.652508 1_555
O40 Si0 1.635781 1_555
O40 Zr0 2.209100 1_555
O41 Si1 1.635781 1_555
O41 Zr1 2.209100 1_555
O42 Si2 1.635781 1_555
O42 Zr2 2.209100 1_555
O43 Si3 1.635781 1_555
O43 Zr3 2.209100 1_555
O44 Si8 1.628027 1_565
O44 Zr0 2.111780 1_555
O45 Si9 1.626499 1_556
O45 Zr1 2.112488 1_555
O46 Si10 1.626499 1_555
O46 Zr2 2.112488 1_555
O47 Si11 1.628027 1_555
O47 Zr3 2.111780 1_555
O48 Si12 1.628027 1_545
O48 Zr1 2.111780 1_555
O49 Si13 1.626499 1_554
O49 Zr0 2.112488 1_555
O50 Si14 1.626499 1_555
O50 Zr3 2.112488 1_555
O51 Si15 1.628027 1_555
O51 Zr2 2.111780 1_555
O52 Si22 1.624591 1_545
O52 Zr4 2.065523 1_555
O53 Si23 1.629119 1_554
O53 Zr5 2.110326 1_555
O54 Si20 1.629119 1_555
O54 Zr6 2.110326 1_555
O55 Si21 1.624591 1_555
O55 Zr7 2.065523 1_555
O56 Si18 1.624591 1_565
O56 Zr6 2.065523 1_555
O57 Si19 1.629119 1_556
O57 Zr7 2.110326 1_555
O58 Si16 1.629119 1_555
O58 Zr4 2.110326 1_555
O59 Si17 1.624591 1_555
O59 Zr5 2.065523 1_555
O60 Si16 1.627815 1_555
O61 Si17 1.635250 1_555
O62 Si18 1.635250 1_555
O63 Si19 1.627815 1_555
O64 Si20 1.627815 1_555
O65 Si21 1.635250 1_555
O66 Si22 1.635250 1_555
O67 Si23 1.627815 1_555
O68 Si4 1.651774 1_555
O68 Si8 1.665564 1_555
O69 Si4 1.652090 1_555
O69 Si9 1.660510 1_555
O70 Si5 1.652090 1_555
O70 Si10 1.660510 1_555
O71 Si5 1.651774 1_655
O71 Si11 1.665564 1_555
O72 Si6 1.651774 1_555
O72 Si12 1.665564 1_555
O73 Si6 1.652090 1_555
O73 Si13 1.660510 1_555
O74 Si7 1.652090 1_555
O74 Si14 1.660510 1_555
O75 Si7 1.651774 1_455
O75 Si15 1.665564 1_555
O76 Si2 1.606432 1_655
O76 Zr0 2.016562 1_555
O77 Si3 1.606432 1_455
O77 Zr1 2.016562 1_555
O78 Si0 1.606432 1_555
O78 Zr2 2.016562 1_555
O79 Si1 1.606432 1_555
O79 Zr3 2.016562 1_555
O80 Si16 1.648378 1_555
O80 Zr1 2.135291 1_555
O81 Si17 1.646273 1_555
O81 Zr0 2.118350 1_555
O82 Si18 1.646273 1_555
O82 Zr3 2.118350 1_555
O83 Si19 1.648378 1_555
O83 Zr2 2.135291 1_555
O84 Si20 1.648378 1_555
O84 Zr0 2.135291 1_555
O85 Si21 1.646273 1_555
O85 Zr1 2.118350 1_555
O86 Si22 1.646273 1_555
O86 Zr2 2.118350 1_555
O87 Si23 1.648378 1_555
O87 Zr3 2.135291 1_555
