# generated using pymatgen
data_SbO2
_symmetry_space_group_name_H-M   'P 1'
_cell_length_a   7.48546067
_cell_length_b   7.48546067
_cell_length_c   7.48546067
_cell_angle_alpha   60.00000000
_cell_angle_beta   60.00000000
_cell_angle_gamma   60.00000000
_symmetry_Int_Tables_number   1
_chemical_formula_structural   SbO2
_chemical_formula_sum   'Sb8 O16'
_cell_volume   296.57913943
_cell_formula_units_Z   8
loop_
 _symmetry_equiv_pos_site_id
 _symmetry_equiv_pos_as_xyz
  1  'x, y, z'
loop_
 _atom_site_type_symbol
 _atom_site_label
 _atom_site_symmetry_multiplicity
 _atom_site_fract_x
 _atom_site_fract_y
 _atom_site_fract_z
 _atom_site_occupancy
  Sb  Sb0  1  0.62500000  0.62500000  0.12500000  1
  Sb  Sb1  1  0.62500000  0.12500000  0.62500000  1
  Sb  Sb2  1  0.12500000  0.62500000  0.62500000  1
  Sb  Sb3  1  0.62500000  0.62500000  0.62500000  1
  Sb  Sb4  1  0.12500000  0.12500000  0.62500000  1
  Sb  Sb5  1  0.12500000  0.62500000  0.12500000  1
  Sb  Sb6  1  0.62500000  0.12500000  0.12500000  1
  Sb  Sb7  1  0.12500000  0.12500000  0.12500000  1
  O  O0  1  0.25000000  0.25000000  0.25000000  1
  O  O1  1  0.00000000  0.00000000  0.00000000  1
  O  O2  1  0.75000000  0.75000000  0.75000000  1
  O  O3  1  0.50000000  0.50000000  0.50000000  1
  O  O4  1  0.27077600  0.72922400  0.27077600  1
  O  O5  1  0.52077600  0.97922400  0.52077600  1
  O  O6  1  0.27077600  0.27077600  0.72922400  1
  O  O7  1  0.72922400  0.27077600  0.27077600  1
  O  O8  1  0.72922400  0.27077600  0.72922400  1
  O  O9  1  0.97922400  0.52077600  0.52077600  1
  O  O10  1  0.52077600  0.97922400  0.97922400  1
  O  O11  1  0.97922400  0.52077600  0.97922400  1
  O  O12  1  0.52077600  0.52077600  0.97922400  1
  O  O13  1  0.97922400  0.97922400  0.52077600  1
  O  O14  1  0.72922400  0.72922400  0.27077600  1
  O  O15  1  0.27077600  0.72922400  0.72922400  1
loop_
_geom_bond_atom_site_label_1
_geom_bond_atom_site_label_2
_geom_bond_distance
_geom_bond_site_symmetry_2
O0 Sb4 2.291945 1_555
O0 Sb6 2.291945 1_555
O0 Sb7 2.291945 1_555
O0 Sb5 2.291945 1_555
O1 Sb7 2.291945 1_555
O1 Sb4 2.291945 1_554
O1 Sb5 2.291945 1_545
O1 Sb6 2.291945 1_455
O2 Sb0 2.291945 1_556
O2 Sb2 2.291945 1_655
O2 Sb3 2.291945 1_555
O2 Sb1 2.291945 1_565
O3 Sb1 2.291945 1_555
O3 Sb3 2.291945 1_555
O3 Sb0 2.291945 1_555
O3 Sb2 2.291945 1_555
O4 Sb0 2.172400 1_555
O4 Sb2 2.172400 1_555
O4 Sb7 2.425581 1_565
O4 Sb5 2.425581 1_555
O5 Sb3 2.172400 1_555
O5 Sb1 2.172400 1_565
O5 Sb6 2.425581 1_565
O5 Sb4 2.425581 1_565
O6 Sb2 2.172400 1_555
O6 Sb1 2.172400 1_555
O6 Sb4 2.425581 1_555
O6 Sb7 2.425581 1_556
O7 Sb0 2.172400 1_555
O7 Sb1 2.172400 1_555
O7 Sb6 2.425581 1_555
O7 Sb7 2.425581 1_655
O8 Sb3 2.172400 1_555
O8 Sb1 2.172400 1_555
O8 Sb4 2.425581 1_655
O8 Sb6 2.425581 1_556
O9 Sb3 2.172400 1_555
O9 Sb2 2.172400 1_655
O9 Sb4 2.425581 1_655
O9 Sb5 2.425581 1_655
O10 Sb1 2.172400 1_565
O10 Sb0 2.172400 1_556
O10 Sb7 2.425581 1_566
O10 Sb6 2.425581 1_566
O11 Sb2 2.172400 1_655
O11 Sb0 2.172400 1_556
O11 Sb5 2.425581 1_656
O11 Sb7 2.425581 1_656
O12 Sb3 2.172400 1_555
O12 Sb0 2.172400 1_556
O12 Sb5 2.425581 1_556
O12 Sb6 2.425581 1_556
O13 Sb2 2.172400 1_655
O13 Sb1 2.172400 1_565
O13 Sb4 2.425581 1_665
O13 Sb7 2.425581 1_665
O14 Sb3 2.172400 1_555
O14 Sb0 2.172400 1_555
O14 Sb5 2.425581 1_655
O14 Sb6 2.425581 1_565
O15 Sb3 2.172400 1_555
O15 Sb2 2.172400 1_555
O15 Sb5 2.425581 1_556
O15 Sb4 2.425581 1_565
