# generated using pymatgen
data_K4NiP6O25
_symmetry_space_group_name_H-M   'P 1'
_cell_length_a   13.13379347
_cell_length_b   12.54262370
_cell_length_c   7.36166741
_cell_angle_alpha   77.80322693
_cell_angle_beta   68.97635437
_cell_angle_gamma   33.22041870
_symmetry_Int_Tables_number   1
_chemical_formula_structural   K4NiP6O25
_chemical_formula_sum   'K4 Ni1 P6 O25'
_cell_volume   610.73418456
_cell_formula_units_Z   1
loop_
 _symmetry_equiv_pos_site_id
 _symmetry_equiv_pos_as_xyz
  1  'x, y, z'
loop_
 _atom_site_type_symbol
 _atom_site_label
 _atom_site_symmetry_multiplicity
 _atom_site_fract_x
 _atom_site_fract_y
 _atom_site_fract_z
 _atom_site_occupancy
  K  K0  1  0.52881200  0.97118800  0.52881200  1
  K  K1  1  0.02881200  0.47118800  0.02881200  1
  K  K2  1  0.72372000  0.50024200  0.49975800  1
  K  K3  1  0.49975800  0.27628000  0.72372000  1
  Ni  Ni0  1  0.99600900  0.00399100  0.99600900  1
  P  P0  1  0.50507300  0.96225900  0.03774100  1
  P  P1  1  0.03774100  0.49492700  0.50507300  1
  P  P2  1  0.61849200  0.63996700  0.02294300  1
  P  P3  1  0.02294300  0.71859900  0.61849200  1
  P  P4  1  0.36003300  0.38150800  0.28140100  1
  P  P5  1  0.28140100  0.97705700  0.36003300  1
  O  O0  1  0.58583400  0.79264700  0.92245700  1
  O  O1  1  0.92245700  0.69906300  0.58583400  1
  O  O2  1  0.20735300  0.41416600  0.30093700  1
  O  O3  1  0.30093700  0.07754300  0.20735300  1
  O  O4  1  0.42261200  0.78105100  0.21894900  1
  O  O5  1  0.21894900  0.57738800  0.42261200  1
  O  O6  1  0.44284500  0.10162700  0.89837300  1
  O  O7  1  0.89837300  0.55715500  0.44284500  1
  O  O8  1  0.64581200  0.86638600  0.13361400  1
  O  O9  1  0.13361400  0.35418800  0.64581200  1
  O  O10  1  0.61068900  0.57450700  0.88754600  1
  O  O11  1  0.88754600  0.92725700  0.61068900  1
  O  O12  1  0.42549300  0.38931100  0.07274300  1
  O  O13  1  0.07274300  0.11245400  0.42549300  1
  O  O14  1  0.79461500  0.48495100  0.08962100  1
  O  O15  1  0.08962100  0.63081300  0.79461500  1
  O  O16  1  0.51504900  0.20538500  0.36918700  1
  O  O17  1  0.36918700  0.91037900  0.51504900  1
  O  O18  1  0.09745200  0.06974900  0.93025100  1
  O  O19  1  0.93025100  0.90254800  0.09745200  1
  O  O20  1  0.25539500  0.74460500  0.92199700  1
  O  O21  1  0.92199700  0.07800300  0.25539500  1
  O  O22  1  0.07748500  0.92251500  0.74151800  1
  O  O23  1  0.74151800  0.25848200  0.07748500  1
  O  O24  1  0.51673600  0.48326400  0.51673600  1
loop_
_geom_bond_atom_site_label_1
_geom_bond_atom_site_label_2
_geom_bond_distance
_geom_bond_site_symmetry_2
K0 O8 2.753530 1_555
K0 O9 2.753530 1_565
K0 O17 2.801360 1_555
K0 O16 2.801360 1_565
K0 O7 2.817645 1_555
K0 O6 2.817645 1_565
K0 O0 3.159511 1_555
K0 O1 3.159515 1_555
K1 O9 2.753530 1_554
K1 O8 2.753530 1_455
K1 O15 2.801360 1_554
K1 O14 2.801360 1_455
K1 O6 2.817645 1_554
K1 O7 2.817645 1_455
K1 O2 3.159505 1_555
K1 O3 3.159511 1_555
K2 O10 2.643929 1_555
K2 O13 2.643931 1_655
K2 O7 2.805460 1_555
K2 O17 2.819334 1_555
K2 O14 2.819334 1_555
K2 O24 2.857389 1_555
K3 O11 2.643930 1_545
K3 O12 2.643936 1_556
K3 O6 2.805460 1_555
K3 O16 2.819334 1_555
K3 O15 2.819334 1_555
K3 O24 2.857389 1_555
Ni0 O22 1.800057 1_645
Ni0 O23 1.800057 1_556
Ni0 O20 1.833111 1_645
Ni0 O21 1.833111 1_556
Ni0 O18 1.974033 1_655
Ni0 O19 1.974033 1_546
O0 P2 1.628875 1_556
O0 P0 1.647004 1_556
O1 P3 1.628875 1_655
O1 P1 1.647015 1_655
O2 P4 1.628875 1_555
O2 P1 1.647008 1_555
O3 P5 1.628875 1_545
O3 P0 1.647012 1_545
O4 P5 1.621853 1_555
O4 P2 1.621857 1_555
O5 P3 1.621857 1_555
O5 P4 1.621861 1_555
O6 P0 1.493234 1_546
O7 P1 1.493234 1_655
O8 P0 1.489747 1_555
O9 P1 1.489747 1_555
O10 P2 1.495989 1_556
O11 P3 1.495971 1_655
O12 P4 1.495978 1_555
O13 P5 1.495969 1_545
O14 P2 1.502825 1_555
O15 P3 1.502825 1_555
O16 P4 1.502829 1_555
O17 P5 1.502832 1_555
