# generated using pymatgen
data_CaLaFeBiO6
_symmetry_space_group_name_H-M   'P 1'
_cell_length_a   5.90127200
_cell_length_b   5.69356687
_cell_length_c   8.21716239
_cell_angle_alpha   89.23546540
_cell_angle_beta   90.00194199
_cell_angle_gamma   89.99764475
_symmetry_Int_Tables_number   1
_chemical_formula_structural   CaLaFeBiO6
_chemical_formula_sum   'Ca2 La2 Fe2 Bi2 O12'
_cell_volume   276.06621633
_cell_formula_units_Z   2
loop_
 _symmetry_equiv_pos_site_id
 _symmetry_equiv_pos_as_xyz
  1  'x, y, z'
loop_
 _atom_site_type_symbol
 _atom_site_label
 _atom_site_symmetry_multiplicity
 _atom_site_fract_x
 _atom_site_fract_y
 _atom_site_fract_z
 _atom_site_occupancy
  Ca  Ca0  1  0.55563500  0.52010600  0.25119100  1
  Ca  Ca1  1  0.94436100  0.02011400  0.75118100  1
  La  La0  1  0.05429500  0.98307100  0.24892900  1
  La  La1  1  0.44570900  0.48307500  0.74891800  1
  Fe  Fe0  1  0.50192700  0.99856000  0.00047400  1
  Fe  Fe1  1  0.99804300  0.49856600  0.50048100  1
  Bi  Bi0  1  0.50301100  0.99993700  0.49860500  1
  Bi  Bi1  1  0.99699600  0.49994000  0.99860700  1
  O  O0  1  0.04332100  0.61640600  0.73602600  1
  O  O1  1  0.21358800  0.18504700  0.93847400  1
  O  O2  1  0.19078800  0.21358600  0.55899300  1
  O  O3  1  0.30923500  0.71356900  0.05899400  1
  O  O4  1  0.28641300  0.68506400  0.43847700  1
  O  O5  1  0.45668600  0.11642100  0.23602900  1
  O  O6  1  0.54809700  0.88775000  0.76373700  1
  O  O7  1  0.71648800  0.31212800  0.56362100  1
  O  O8  1  0.69180200  0.28338200  0.93995600  1
  O  O9  1  0.80819700  0.78335800  0.43994800  1
  O  O10  1  0.78351200  0.81215700  0.06362100  1
  O  O11  1  0.95189500  0.38776100  0.26373800  1
loop_
_geom_bond_atom_site_label_1
_geom_bond_atom_site_label_2
_geom_bond_distance
_geom_bond_site_symmetry_2
Ca0 O5 2.376324 1_555
Ca0 O3 2.403152 1_555
Ca0 O4 2.411066 1_555
Ca0 O11 2.458551 1_555
Ca0 O10 2.623137 1_555
Ca0 O9 2.633580 1_555
Ca0 O7 2.968638 1_555
Ca0 O8 3.015786 1_554
Ca1 O0 2.376418 1_645
Ca1 O2 2.403343 1_655
Ca1 O1 2.411048 1_655
Ca1 O6 2.458675 1_545
Ca1 O7 2.622822 1_555
Ca1 O8 2.633701 1_555
Ca1 O10 2.968742 1_546
Ca1 O9 3.015834 1_545
La0 O11 2.386705 1_465
La0 O9 2.412159 1_455
La0 O10 2.420449 1_455
La0 O5 2.494897 1_565
La0 O4 2.666512 1_555
La0 O3 2.667892 1_555
La0 O1 2.938697 1_564
La0 O2 2.991996 1_565
La1 O6 2.386656 1_555
La1 O8 2.412069 1_555
La1 O7 2.420468 1_555
La1 O0 2.494778 1_555
La1 O1 2.666760 1_555
La1 O2 2.667748 1_555
La1 O4 2.938546 1_555
La1 O3 2.992014 1_556
Fe0 O8 2.027621 1_564
Fe0 O3 2.033849 1_555
Fe0 O10 2.035185 1_555
Fe0 O1 2.065819 1_564
Fe0 O6 2.071054 1_554
Fe0 O5 2.074317 1_565
Fe1 O9 2.027327 1_555
Fe1 O2 2.033866 1_655
Fe1 O7 2.035230 1_555
Fe1 O4 2.066110 1_655
Fe1 O11 2.071064 1_555
Fe1 O0 2.074218 1_655
Bi0 O9 2.238785 1_555
Bi0 O7 2.248866 1_565
Bi0 O4 2.261782 1_555
Bi0 O5 2.265327 1_565
Bi0 O2 2.266442 1_565
Bi0 O6 2.277726 1_555
Bi1 O8 2.238801 1_555
Bi1 O10 2.248941 1_556
Bi1 O1 2.261798 1_655
Bi1 O0 2.265361 1_655
Bi1 O3 2.266510 1_656
Bi1 O11 2.277740 1_556
