# generated using pymatgen
data_Ca3Mn3(AsO4)4
_symmetry_space_group_name_H-M   'P 1'
_cell_length_a   5.24923600
_cell_length_b   9.28126100
_cell_length_c   17.66268476
_cell_angle_alpha   63.00349168
_cell_angle_beta   90.00000000
_cell_angle_gamma   90.00000000
_symmetry_Int_Tables_number   1
_chemical_formula_structural   Ca3Mn3(AsO4)4
_chemical_formula_sum   'Ca6 Mn6 As8 O32'
_cell_volume   766.75068147
_cell_formula_units_Z   2
loop_
 _symmetry_equiv_pos_site_id
 _symmetry_equiv_pos_as_xyz
  1  'x, y, z'
loop_
 _atom_site_type_symbol
 _atom_site_label
 _atom_site_symmetry_multiplicity
 _atom_site_fract_x
 _atom_site_fract_y
 _atom_site_fract_z
 _atom_site_occupancy
  Ca  Ca0  1  0.53966300  0.31450800  0.23012000  1
  Ca  Ca1  1  0.03966300  0.68549200  0.26988000  1
  Ca  Ca2  1  0.46033700  0.68549200  0.76988000  1
  Ca  Ca3  1  0.96033700  0.31450800  0.73012000  1
  Ca  Ca4  1  0.50000000  0.00000000  0.50000000  1
  Ca  Ca5  1  0.00000000  0.00000000  0.00000000  1
  Mn  Mn0  1  0.48409500  0.19216700  0.62241200  1
  Mn  Mn1  1  0.51590500  0.80783300  0.37758800  1
  Mn  Mn2  1  0.98409500  0.80783300  0.87758800  1
  Mn  Mn3  1  0.01590500  0.19216700  0.12241200  1
  Mn  Mn4  1  0.00000000  0.50000000  0.50000000  1
  Mn  Mn5  1  0.50000000  0.50000000  0.00000000  1
  As  As0  1  0.00606500  0.03832600  0.34294300  1
  As  As1  1  0.49227600  0.43673000  0.40092000  1
  As  As2  1  0.99227600  0.56327000  0.09908000  1
  As  As3  1  0.00772400  0.43673000  0.90092000  1
  As  As4  1  0.99393500  0.96167400  0.65705700  1
  As  As5  1  0.50772400  0.56327000  0.59908000  1
  As  As6  1  0.49393500  0.03832600  0.84294300  1
  As  As7  1  0.50606500  0.96167400  0.15705700  1
  O  O0  1  0.44106900  0.81469600  0.25914200  1
  O  O1  1  0.94646400  0.74368900  0.01029800  1
  O  O2  1  0.38466300  0.43649800  0.31027600  1
  O  O3  1  0.41599000  0.14949500  0.14786100  1
  O  O4  1  0.61533700  0.56350200  0.68972400  1
  O  O5  1  0.05893100  0.81469600  0.75914200  1
  O  O6  1  0.88466300  0.56350200  0.18972400  1
  O  O7  1  0.69884000  0.50615400  0.89375200  1
  O  O8  1  0.66191200  0.09234700  0.90771700  1
  O  O9  1  0.55893100  0.18530400  0.74085800  1
  O  O10  1  0.08401000  0.14949500  0.64786100  1
  O  O11  1  0.30116000  0.49384600  0.10624800  1
  O  O12  1  0.30626000  0.57932100  0.41536700  1
  O  O13  1  0.33808800  0.90765300  0.09228300  1
  O  O14  1  0.66576300  0.96650900  0.64093900  1
  O  O15  1  0.16576300  0.03349100  0.85906100  1
  O  O16  1  0.80626000  0.42067900  0.08463300  1
  O  O17  1  0.11533700  0.43649800  0.81027600  1
  O  O18  1  0.16191200  0.90765300  0.59228300  1
  O  O19  1  0.19884000  0.49384600  0.60624800  1
  O  O20  1  0.83423700  0.96650900  0.14093900  1
  O  O21  1  0.33423700  0.03349100  0.35906100  1
  O  O22  1  0.05353600  0.25631100  0.98970200  1
  O  O23  1  0.44646400  0.25631100  0.48970200  1
  O  O24  1  0.69374000  0.42067900  0.58463300  1
  O  O25  1  0.94106900  0.18530400  0.24085800  1
  O  O26  1  0.58401000  0.85050500  0.85213900  1
  O  O27  1  0.83808800  0.09234700  0.40771700  1
  O  O28  1  0.55353600  0.74368900  0.51029800  1
  O  O29  1  0.80116000  0.50615400  0.39375200  1
  O  O30  1  0.19374000  0.57932100  0.91536700  1
  O  O31  1  0.91599000  0.85050500  0.35213900  1
loop_
_geom_bond_atom_site_label_1
_geom_bond_atom_site_label_2
_geom_bond_distance
_geom_bond_site_symmetry_2
Ca0 O2 2.324567 1_555
Ca0 O25 2.388990 1_555
Ca0 O11 2.412183 1_555
Ca0 O3 2.626436 1_555
Ca0 O16 2.689580 1_555
Ca0 O6 2.762680 1_555
Ca0 O21 2.785577 1_555
Ca1 O6 2.324567 1_455
Ca1 O0 2.388990 1_555
Ca1 O29 2.412183 1_455
Ca1 O31 2.626436 1_455
Ca1 O12 2.689580 1_555
Ca1 O2 2.762680 1_555
Ca1 O20 2.785577 1_455
Ca2 O4 2.324567 1_555
Ca2 O5 2.388990 1_555
Ca2 O7 2.412183 1_555
Ca2 O26 2.626436 1_555
Ca2 O30 2.689580 1_555
Ca2 O17 2.762680 1_555
Ca2 O14 2.785577 1_555
Ca3 O17 2.324567 1_655
Ca3 O9 2.388990 1_555
Ca3 O19 2.412183 1_655
Ca3 O10 2.626436 1_655
Ca3 O24 2.689580 1_555
Ca3 O4 2.762680 1_555
Ca3 O15 2.785577 1_655
Ca4 O18 2.296224 1_545
Ca4 O27 2.296224 1_555
Ca4 O28 2.319125 1_545
Ca4 O23 2.319125 1_555
Ca4 O21 2.519556 1_555
Ca4 O14 2.519556 1_545
Ca5 O13 2.296224 1_545
Ca5 O8 2.296224 1_454
Ca5 O1 2.319125 1_445
Ca5 O22 2.319125 1_554
Ca5 O20 2.519556 1_445
Ca5 O15 2.519556 1_554
Mn0 O9 2.100992 1_555
Mn0 O10 2.146595 1_555
Mn0 O23 2.149636 1_555
Mn0 O14 2.186487 1_545
Mn0 O24 2.206717 1_555
Mn1 O0 2.100992 1_555
Mn1 O31 2.146595 1_555
Mn1 O28 2.149636 1_555
Mn1 O21 2.186487 1_565
Mn1 O12 2.206717 1_555
Mn2 O5 2.100992 1_655
Mn2 O26 2.146595 1_555
Mn2 O1 2.149636 1_556
Mn2 O15 2.186487 1_665
Mn2 O30 2.206717 1_655
Mn3 O25 2.100992 1_455
Mn3 O3 2.146595 1_555
Mn3 O22 2.149636 1_554
Mn3 O20 2.186487 1_445
Mn3 O16 2.206717 1_455
Mn4 O24 2.088519 1_455
Mn4 O12 2.088519 1_555
Mn4 O19 2.125348 1_555
Mn4 O29 2.125348 1_455
Mn5 O30 2.088519 1_554
Mn5 O16 2.088519 1_555
Mn5 O11 2.125348 1_555
Mn5 O7 2.125348 1_554
As0 O27 1.690731 1_455
As0 O25 1.730712 1_455
As0 O31 1.741174 1_445
As0 O21 1.743271 1_555
As1 O2 1.698671 1_555
As1 O23 1.713744 1_555
As1 O29 1.728033 1_555
As1 O12 1.754022 1_555
As2 O6 1.698671 1_555
As2 O1 1.713744 1_555
As2 O11 1.728033 1_655
As2 O16 1.754022 1_555
As3 O17 1.698671 1_555
As3 O22 1.713744 1_555
As3 O7 1.728033 1_455
As3 O30 1.754022 1_555
As4 O18 1.690731 1_655
As4 O5 1.730712 1_655
As4 O10 1.741174 1_665
As4 O14 1.743271 1_555
As5 O4 1.698671 1_555
As5 O28 1.713744 1_555
As5 O19 1.728033 1_555
As5 O24 1.754022 1_555
As6 O8 1.690731 1_555
As6 O9 1.730712 1_555
As6 O26 1.741174 1_545
As6 O15 1.743271 1_555
As7 O13 1.690731 1_555
As7 O0 1.730712 1_555
As7 O3 1.741174 1_565
As7 O20 1.743271 1_555
