# generated using pymatgen
data_Dy2(InSn)3
_symmetry_space_group_name_H-M   'P 1'
_cell_length_a   4.67376400
_cell_length_b   4.68533100
_cell_length_c   9.33713300
_cell_angle_alpha   90.00000000
_cell_angle_beta   90.00000000
_cell_angle_gamma   90.00000000
_symmetry_Int_Tables_number   1
_chemical_formula_structural   Dy2(InSn)3
_chemical_formula_sum   'Dy2 In3 Sn3'
_cell_volume   204.46576492
_cell_formula_units_Z   1
loop_
 _symmetry_equiv_pos_site_id
 _symmetry_equiv_pos_as_xyz
  1  'x, y, z'
loop_
 _atom_site_type_symbol
 _atom_site_label
 _atom_site_symmetry_multiplicity
 _atom_site_fract_x
 _atom_site_fract_y
 _atom_site_fract_z
 _atom_site_occupancy
  Dy  Dy0  1  0.00000000  0.00000000  0.24835400  1
  Dy  Dy1  1  0.00000000  0.00000000  0.75164600  1
  In  In0  1  0.50000000  0.50000000  0.25077400  1
  In  In1  1  0.50000000  0.50000000  0.74922600  1
  In  In2  1  0.00000000  0.50000000  0.50000000  1
  Sn  Sn0  1  0.00000000  0.50000000  0.00000000  1
  Sn  Sn1  1  0.50000000  0.00000000  0.50000000  1
  Sn  Sn2  1  0.50000000  0.00000000  0.00000000  1
loop_
_geom_bond_atom_site_label_1
_geom_bond_atom_site_label_2
_geom_bond_distance
_geom_bond_site_symmetry_2
Dy0 Sn2 3.292170 1_455
Dy0 Sn2 3.292170 1_555
Dy0 Sn0 3.296277 1_545
Dy0 Sn0 3.296277 1_555
Dy0 In0 3.309019 1_555
Dy0 In0 3.309019 1_455
Dy0 In0 3.309019 1_545
Dy0 In0 3.309019 1_445
Dy0 Sn1 3.313892 1_455
Dy0 Sn1 3.313892 1_555
Dy0 In2 3.317973 1_555
Dy0 In2 3.317973 1_545
Dy1 Sn2 3.292170 1_456
Dy1 Sn2 3.292170 1_556
Dy1 Sn0 3.296277 1_546
Dy1 Sn0 3.296277 1_556
Dy1 In1 3.309019 1_545
Dy1 In1 3.309019 1_555
Dy1 In1 3.309019 1_455
Dy1 In1 3.309019 1_445
Dy1 Sn1 3.313892 1_555
Dy1 Sn1 3.313892 1_455
Dy1 In2 3.317973 1_555
Dy1 In2 3.317973 1_545
In0 In2 3.297910 1_555
In0 In2 3.297910 1_655
In0 Sn1 3.302010 1_555
In0 Sn1 3.302010 1_565
In0 Sn0 3.308124 1_555
In0 Sn0 3.308124 1_655
In0 Sn2 3.312212 1_565
In0 Sn2 3.312212 1_555
In1 In2 3.297910 1_555
In1 In2 3.297910 1_655
In1 Sn1 3.302010 1_565
In1 Sn1 3.302010 1_555
In1 Sn0 3.308124 1_656
In1 Sn0 3.308124 1_556
In1 Sn2 3.312212 1_566
In1 Sn2 3.312212 1_556
In2 Sn1 3.308942 1_465
In2 Sn1 3.308942 1_555
In2 Sn1 3.308942 1_565
In2 Sn1 3.308942 1_455
Sn0 Sn2 3.308942 1_565
Sn0 Sn2 3.308942 1_555
Sn0 Sn2 3.308942 1_465
Sn0 Sn2 3.308942 1_455
