# generated using pymatgen
data_Cs3BrO
_symmetry_space_group_name_H-M   'P 1'
_cell_length_a   7.84126571
_cell_length_b   7.84126571
_cell_length_c   7.12849225
_cell_angle_alpha   90.00000000
_cell_angle_beta   90.00000000
_cell_angle_gamma   119.99999874
_symmetry_Int_Tables_number   1
_chemical_formula_structural   Cs3BrO
_chemical_formula_sum   'Cs6 Br2 O2'
_cell_volume   379.57767417
_cell_formula_units_Z   2
loop_
 _symmetry_equiv_pos_site_id
 _symmetry_equiv_pos_as_xyz
  1  'x, y, z'
loop_
 _atom_site_type_symbol
 _atom_site_label
 _atom_site_symmetry_multiplicity
 _atom_site_fract_x
 _atom_site_fract_y
 _atom_site_fract_z
 _atom_site_occupancy
  Cs  Cs0  1  0.16013974  0.32027849  0.25000000  1
  Cs  Cs1  1  0.83986026  0.67972151  0.75000000  1
  Cs  Cs2  1  0.67972151  0.83986026  0.25000000  1
  Cs  Cs3  1  0.32027849  0.16013974  0.75000000  1
  Cs  Cs4  1  0.16013974  0.83986026  0.25000000  1
  Cs  Cs5  1  0.83986026  0.16013974  0.75000000  1
  Br  Br0  1  0.33333300  0.66666700  0.75000000  1
  Br  Br1  1  0.66666700  0.33333300  0.25000000  1
  O  O0  1  0.00000000  0.00000000  -0.00000000  1
  O  O1  1  0.00000000  0.00000000  0.50000000  1
loop_
_geom_bond_atom_site_label_1
_geom_bond_atom_site_label_2
_geom_bond_distance
_geom_bond_site_symmetry_2
Cs0 O0 2.811809 1_555
Cs0 O1 2.811809 1_555
Cs1 O1 2.811809 1_665
Cs1 O0 2.811809 1_666
Cs2 O1 2.811809 1_665
Cs2 O0 2.811809 1_665
Cs3 O0 2.811809 1_556
Cs3 O1 2.811809 1_555
Cs4 O1 2.811814 1_565
Cs4 O0 2.811814 1_565
Cs5 O1 2.811814 1_655
Cs5 O0 2.811814 1_656
Br0 Cs3 3.921635 1_565
Br0 Cs1 3.921635 1_455
Br0 Cs3 3.921635 1_555
Br0 Cs1 3.921635 1_555
Br0 Cs5 3.921635 1_565
Br0 Cs5 3.921635 1_455
Br0 Cs4 4.270455 1_555
Br0 Cs4 4.270455 1_556
Br0 Cs0 4.270462 1_555
Br0 Cs0 4.270462 1_556
Br0 Cs2 4.270462 1_555
Br0 Cs2 4.270462 1_556
Br1 Cs0 3.921635 1_655
Br1 Cs2 3.921635 1_545
Br1 Cs2 3.921635 1_555
Br1 Cs0 3.921635 1_555
Br1 Cs4 3.921635 1_545
Br1 Cs4 3.921635 1_655
Br1 Cs5 4.270455 1_554
Br1 Cs5 4.270455 1_555
Br1 Cs1 4.270462 1_555
Br1 Cs3 4.270462 1_554
Br1 Cs1 4.270462 1_554
Br1 Cs3 4.270462 1_555
