# generated using pymatgen
data_LaCrSe3
_symmetry_space_group_name_H-M   'P 1'
_cell_length_a   3.99881852
_cell_length_b   8.23863144
_cell_length_c   13.83227110
_cell_angle_alpha   90.00000000
_cell_angle_beta   90.00000000
_cell_angle_gamma   90.00000000
_symmetry_Int_Tables_number   1
_chemical_formula_structural   LaCrSe3
_chemical_formula_sum   'La4 Cr4 Se12'
_cell_volume   455.70129402
_cell_formula_units_Z   4
loop_
 _symmetry_equiv_pos_site_id
 _symmetry_equiv_pos_as_xyz
  1  'x, y, z'
loop_
 _atom_site_type_symbol
 _atom_site_label
 _atom_site_symmetry_multiplicity
 _atom_site_fract_x
 _atom_site_fract_y
 _atom_site_fract_z
 _atom_site_occupancy
  La  La0  1  0.25000000  0.09278270  0.82839501  1
  La  La1  1  0.25000000  0.59278270  0.67160499  1
  La  La2  1  0.75000000  0.90721730  0.17160499  1
  La  La3  1  0.75000000  0.40721730  0.32839501  1
  Cr  Cr0  1  0.25000000  0.33941968  0.05174244  1
  Cr  Cr1  1  0.25000000  0.83941968  0.44825756  1
  Cr  Cr2  1  0.75000000  0.66058032  0.94825756  1
  Cr  Cr3  1  0.75000000  0.16058032  0.55174244  1
  Se  Se0  1  0.25000000  0.19224020  0.21140441  1
  Se  Se1  1  0.25000000  0.69224020  0.28859559  1
  Se  Se2  1  0.75000000  0.80775980  0.78859559  1
  Se  Se3  1  0.75000000  0.30775980  0.71140441  1
  Se  Se4  1  0.25000000  0.33976577  0.49493853  1
  Se  Se5  1  0.25000000  0.83976577  0.00506147  1
  Se  Se6  1  0.75000000  0.66023423  0.50506147  1
  Se  Se7  1  0.75000000  0.16023423  0.99493853  1
  Se  Se8  1  0.25000000  0.48689293  0.89308554  1
  Se  Se9  1  0.25000000  0.98689293  0.60691446  1
  Se  Se10  1  0.75000000  0.51310707  0.10691446  1
  Se  Se11  1  0.75000000  0.01310707  0.39308554  1
loop_
_geom_bond_atom_site_label_1
_geom_bond_atom_site_label_2
_geom_bond_distance
_geom_bond_site_symmetry_2
La0 Se7 3.100543 1_555
La0 Se7 3.100543 1_455
La0 Se3 3.123013 1_555
La0 Se3 3.123013 1_455
La0 Se2 3.132849 1_445
La0 Se2 3.132849 1_545
La0 Se9 3.185369 1_545
La0 Se5 3.211986 1_546
La0 Se8 3.367973 1_555
La1 Se6 3.100543 1_555
La1 Se6 3.100543 1_455
La1 Se2 3.123013 1_455
La1 Se2 3.123013 1_555
La1 Se3 3.132849 1_455
La1 Se3 3.132849 1_555
La1 Se8 3.185369 1_555
La1 Se4 3.211986 1_555
La1 Se9 3.367973 1_555
La2 Se5 3.100543 1_655
La2 Se5 3.100543 1_555
La2 Se1 3.123013 1_555
La2 Se1 3.123013 1_655
La2 Se0 3.132849 1_665
La2 Se0 3.132849 1_565
La2 Se11 3.185369 1_565
La2 Se7 3.211986 1_564
La2 Se10 3.367973 1_555
La3 Se4 3.100543 1_555
La3 Se4 3.100543 1_655
La3 Se0 3.123013 1_555
La3 Se0 3.123013 1_655
La3 Se1 3.132849 1_555
La3 Se1 3.132849 1_655
La3 Se10 3.185369 1_555
La3 Se6 3.211986 1_555
La3 Se11 3.367973 1_555
Cr0 Se8 2.508461 1_554
Cr0 Se0 2.519467 1_555
Cr0 Se10 2.574422 1_455
Cr0 Se10 2.574422 1_555
Cr0 Se7 2.606587 1_554
Cr0 Se7 2.606587 1_454
Cr1 Se9 2.508461 1_555
Cr1 Se1 2.519467 1_555
Cr1 Se11 2.574422 1_565
Cr1 Se11 2.574422 1_465
Cr1 Se6 2.606587 1_555
Cr1 Se6 2.606587 1_455
Cr2 Se10 2.508461 1_556
Cr2 Se2 2.519467 1_555
Cr2 Se8 2.574422 1_655
Cr2 Se8 2.574422 1_555
Cr2 Se5 2.606587 1_656
Cr2 Se5 2.606587 1_556
Cr3 Se11 2.508461 1_555
Cr3 Se3 2.519467 1_555
Cr3 Se9 2.574422 1_545
Cr3 Se9 2.574422 1_645
Cr3 Se4 2.606587 1_555
Cr3 Se4 2.606587 1_655
