# generated using pymatgen
data_Mg2Si
_symmetry_space_group_name_H-M   'P 1'
_cell_length_a   5.74667700
_cell_length_b   5.86908717
_cell_length_c   7.99707643
_cell_angle_alpha   100.78722861
_cell_angle_beta   108.71548709
_cell_angle_gamma   102.63956875
_symmetry_Int_Tables_number   1
_chemical_formula_structural   Mg2Si
_chemical_formula_sum   'Mg8 Si4'
_cell_volume   239.40900477
_cell_formula_units_Z   4
loop_
 _symmetry_equiv_pos_site_id
 _symmetry_equiv_pos_as_xyz
  1  'x, y, z'
loop_
 _atom_site_type_symbol
 _atom_site_label
 _atom_site_symmetry_multiplicity
 _atom_site_fract_x
 _atom_site_fract_y
 _atom_site_fract_z
 _atom_site_occupancy
  Mg  Mg0  1  0.39705800  0.75163600  0.54893600  1
  Mg  Mg1  1  0.45170400  0.62598100  0.16579200  1
  Mg  Mg2  1  0.07512600  0.63893400  0.78415200  1
  Mg  Mg3  1  0.60294200  0.24836400  0.45106400  1
  Mg  Mg4  1  0.54829600  0.37401900  0.83420800  1
  Mg  Mg5  1  0.92487400  0.36106600  0.21584800  1
  Mg  Mg6  1  0.03426500  0.86979700  0.18796200  1
  Mg  Mg7  1  0.96573500  0.13020300  0.81203800  1
  Si  Si0  1  0.39790100  0.12077600  0.07419400  1
  Si  Si1  1  0.12586900  0.20935300  0.51772000  1
  Si  Si2  1  0.87413100  0.79064700  0.48228000  1
  Si  Si3  1  0.60209900  0.87922400  0.92580600  1
loop_
_geom_bond_atom_site_label_1
_geom_bond_atom_site_label_2
_geom_bond_distance
_geom_bond_site_symmetry_2
Mg0 Si3 2.742731 1_555
Mg0 Si2 2.926034 1_555
Mg0 Si2 2.947196 1_455
Mg0 Si1 3.146888 1_555
Mg1 Si2 2.710652 1_555
Mg1 Si0 2.839783 1_555
Mg1 Si3 2.865202 1_554
Mg1 Si0 3.179502 1_565
Mg2 Si2 2.723993 1_455
Mg2 Si3 2.788268 1_555
Mg2 Si0 3.050581 1_566
Mg2 Si1 3.113057 1_555
Mg3 Si0 2.742731 1_555
Mg3 Si1 2.926034 1_555
Mg3 Si1 2.947196 1_655
Mg3 Si2 3.146888 1_555
Mg4 Si1 2.710652 1_555
Mg4 Si3 2.839783 1_555
Mg4 Si0 2.865202 1_556
Mg4 Si3 3.179502 1_545
Mg5 Si1 2.723993 1_655
Mg5 Si0 2.788268 1_555
Mg5 Si3 3.050581 1_544
Mg5 Si2 3.113057 1_555
Mg6 Si3 2.707103 1_454
Mg6 Si0 2.781909 1_565
Mg6 Si1 2.808161 1_565
Mg6 Si2 2.866117 1_455
Mg7 Si0 2.707103 1_656
Mg7 Si3 2.781909 1_545
Mg7 Si2 2.808161 1_545
Mg7 Si1 2.866117 1_655
Si0 Si3 2.405614 1_544
Si1 Si2 2.476374 1_445
