# generated using pymatgen
data_SrFe4(CuO4)3
_symmetry_space_group_name_H-M   'P 1'
_cell_length_a   6.47676834
_cell_length_b   6.47721231
_cell_length_c   6.45692550
_cell_angle_alpha   70.59118368
_cell_angle_beta   70.58359459
_cell_angle_gamma   109.52676046
_symmetry_Int_Tables_number   1
_chemical_formula_structural   SrFe4(CuO4)3
_chemical_formula_sum   'Sr1 Fe4 Cu3 O12'
_cell_volume   208.67964928
_cell_formula_units_Z   1
loop_
 _symmetry_equiv_pos_site_id
 _symmetry_equiv_pos_as_xyz
  1  'x, y, z'
loop_
 _atom_site_type_symbol
 _atom_site_label
 _atom_site_symmetry_multiplicity
 _atom_site_fract_x
 _atom_site_fract_y
 _atom_site_fract_z
 _atom_site_occupancy
  Sr  Sr0  1  0.00000000  0.00000000  0.00000000  1
  Fe  Fe0  1  0.99999800  0.50000000  0.00000100  1
  Fe  Fe1  1  0.49999900  0.49999900  0.50000000  1
  Fe  Fe2  1  0.50000100  0.00000200  0.99999900  1
  Fe  Fe3  1  0.00000300  0.00000100  0.49999900  1
  Cu  Cu0  1  0.49999900  0.99999900  0.50000200  1
  Cu  Cu1  1  0.50000200  0.50000000  0.99999900  1
  Cu  Cu2  1  0.00000000  0.49999800  0.49999800  1
  O  O0  1  0.83026800  0.51425400  0.31460800  1
  O  O1  1  0.16973000  0.48574400  0.68539300  1
  O  O2  1  0.82833900  0.14505000  0.68652900  1
  O  O3  1  0.17166100  0.85495000  0.31347100  1
  O  O4  1  0.68398400  0.16973400  0.14486500  1
  O  O5  1  0.31601500  0.83026600  0.85513700  1
  O  O6  1  0.31671000  0.17167300  0.51486400  1
  O  O7  1  0.68329100  0.82832800  0.48513400  1
  O  O8  1  0.48574900  0.31602900  0.82884500  1
  O  O9  1  0.51425100  0.68397100  0.17115500  1
  O  O10  1  0.85493100  0.68328600  0.83157800  1
  O  O11  1  0.14506800  0.31671400  0.16842100  1
loop_
_geom_bond_atom_site_label_1
_geom_bond_atom_site_label_2
_geom_bond_distance
_geom_bond_site_symmetry_2
Fe0 O10 2.010418 1_554
Fe0 O11 2.010424 1_655
Fe0 O0 2.012792 1_555
Fe0 O1 2.012808 1_654
Fe0 O4 2.027469 1_555
Fe0 O5 2.027478 1_654
Fe1 O6 2.010469 1_555
Fe1 O7 2.010484 1_555
Fe1 O9 2.012849 1_555
Fe1 O8 2.012852 1_555
Fe1 O0 2.027113 1_555
Fe1 O1 2.027114 1_555
Fe2 O2 2.010115 1_555
Fe2 O3 2.010123 1_546
Fe2 O4 2.013040 1_556
Fe2 O5 2.013042 1_545
Fe2 O8 2.027462 1_555
Fe2 O9 2.027479 1_546
Fe3 O3 2.032096 1_545
Fe3 O2 2.032112 1_455
Fe3 O10 2.032233 1_445
Fe3 O11 2.032233 1_555
Fe3 O6 2.032316 1_555
Fe3 O7 2.032345 1_445
Cu0 O5 1.875864 1_555
Cu0 O4 1.875874 1_565
Cu0 O6 1.879510 1_565
Cu0 O7 1.879511 1_555
Cu1 O8 1.875980 1_555
Cu1 O9 1.875990 1_556
Cu1 O10 1.879351 1_555
Cu1 O11 1.879378 1_556
Cu2 O0 1.875969 1_455
Cu2 O1 1.875984 1_555
Cu2 O2 1.879647 1_455
Cu2 O3 1.879668 1_555
O0 Sr0 2.681323 1_665
O1 Sr0 2.681314 1_556
O2 Sr0 2.673246 1_656
O3 Sr0 2.673246 1_565
O4 Sr0 2.680989 1_655
O5 Sr0 2.680981 1_566
O6 Sr0 2.672962 1_556
O7 Sr0 2.672952 1_665
O8 Sr0 2.681252 1_556
O9 Sr0 2.681252 1_665
O10 Sr0 2.673444 1_666
O11 Sr0 2.673437 1_555
