# generated using pymatgen
data_CrP2W
_symmetry_space_group_name_H-M   'P 1'
_cell_length_a   3.17193881
_cell_length_b   5.50980409
_cell_length_c   6.08220181
_cell_angle_alpha   90.00000000
_cell_angle_beta   90.00000000
_cell_angle_gamma   90.00000000
_symmetry_Int_Tables_number   1
_chemical_formula_structural   CrP2W
_chemical_formula_sum   'Cr2 P4 W2'
_cell_volume   106.29718999
_cell_formula_units_Z   2
loop_
 _symmetry_equiv_pos_site_id
 _symmetry_equiv_pos_as_xyz
  1  'x, y, z'
loop_
 _atom_site_type_symbol
 _atom_site_label
 _atom_site_symmetry_multiplicity
 _atom_site_fract_x
 _atom_site_fract_y
 _atom_site_fract_z
 _atom_site_occupancy
  Cr  Cr0  1  0.50000000  0.48813151  0.06508172  1
  Cr  Cr1  1  0.50000000  0.98813151  0.93491828  1
  P  P0  1  0.50000000  0.31928212  0.70164785  1
  P  P1  1  0.50000000  0.81928212  0.29835215  1
  P  P2  1  -0.00000000  0.68657387  0.83433051  1
  P  P3  1  0.00000000  0.18657387  0.16566949  1
  W  W0  1  0.00000000  0.50601350  0.44256411  1
  W  W1  1  0.00000000  0.00601350  0.55743589  1
loop_
_geom_bond_atom_site_label_1
_geom_bond_atom_site_label_2
_geom_bond_distance
_geom_bond_site_symmetry_2
Cr0 P1 2.311290 1_555
Cr0 P3 2.377026 1_555
Cr0 P3 2.377026 1_655
Cr0 P2 2.383384 1_554
Cr0 P2 2.383384 1_654
Cr0 P0 2.398275 1_554
Cr0 W0 2.792181 1_655
Cr0 W0 2.792181 1_555
Cr1 P0 2.311290 1_565
Cr1 P2 2.377026 1_655
Cr1 P2 2.377026 1_555
Cr1 P3 2.383384 1_566
Cr1 P3 2.383384 1_666
Cr1 P1 2.398275 1_556
Cr1 W1 2.792181 1_665
Cr1 W1 2.792181 1_565
P0 W0 2.461094 1_555
P0 W0 2.461094 1_655
P0 W1 2.502777 1_655
P0 W1 2.502777 1_555
P1 W1 2.461094 1_665
P1 W1 2.461094 1_565
P1 W0 2.502777 1_655
P1 W0 2.502777 1_555
P2 W1 2.435994 1_565
P2 W0 2.582146 1_555
P3 W0 2.435994 1_555
P3 W1 2.582146 1_555
