# generated using pymatgen
data_K2Mn(BH4)4
_symmetry_space_group_name_H-M   'P 1'
_cell_length_a   8.24041700
_cell_length_b   10.26233200
_cell_length_c   14.06180735
_cell_angle_alpha   90.00000000
_cell_angle_beta   115.21671966
_cell_angle_gamma   90.00000000
_symmetry_Int_Tables_number   1
_chemical_formula_structural   K2Mn(BH4)4
_chemical_formula_sum   'K8 Mn4 B16 H64'
_cell_volume   1075.82668303
_cell_formula_units_Z   4
loop_
 _symmetry_equiv_pos_site_id
 _symmetry_equiv_pos_as_xyz
  1  'x, y, z'
loop_
 _atom_site_type_symbol
 _atom_site_label
 _atom_site_symmetry_multiplicity
 _atom_site_fract_x
 _atom_site_fract_y
 _atom_site_fract_z
 _atom_site_occupancy
  K  K0  1  0.28564600  0.14337000  0.06111600  1
  K  K1  1  0.28564600  0.35663000  0.56111600  1
  K  K2  1  0.71435400  0.85663000  0.93888400  1
  K  K3  1  0.71435400  0.64337000  0.43888400  1
  K  K4  1  0.01750200  0.98548000  0.70485800  1
  K  K5  1  0.01750200  0.51452000  0.20485800  1
  K  K6  1  0.98249800  0.01452000  0.29514200  1
  K  K7  1  0.98249800  0.48548000  0.79514200  1
  Mn  Mn0  1  0.64539700  0.28749200  0.91732000  1
  Mn  Mn1  1  0.64539700  0.21250800  0.41732000  1
  Mn  Mn2  1  0.35460300  0.71250800  0.08268000  1
  Mn  Mn3  1  0.35460300  0.78749200  0.58268000  1
  B  B0  1  0.14700200  0.82729900  0.13377000  1
  B  B1  1  0.14700200  0.67270100  0.63377000  1
  B  B2  1  0.85299800  0.17270100  0.86623000  1
  B  B3  1  0.85299800  0.32729900  0.36623000  1
  B  B4  1  0.30529900  0.22541000  0.30838000  1
  B  B5  1  0.30529900  0.27459000  0.80838000  1
  B  B6  1  0.69470100  0.77459000  0.69162000  1
  B  B7  1  0.69470100  0.72541000  0.19162000  1
  B  B8  1  0.71294400  0.15142800  0.07229900  1
  B  B9  1  0.71294400  0.34857200  0.57229900  1
  B  B10  1  0.28705600  0.84857200  0.92770100  1
  B  B11  1  0.28705600  0.65142800  0.42770100  1
  B  B12  1  0.70892100  0.99151700  0.42118500  1
  B  B13  1  0.70892100  0.50848300  0.92118500  1
  B  B14  1  0.29107900  0.00848300  0.57881500  1
  B  B15  1  0.29107900  0.49151700  0.07881500  1
  H  H0  1  0.09572700  0.77546400  0.04566600  1
  H  H1  1  0.09572700  0.72453600  0.54566600  1
  H  H2  1  0.90427300  0.22453600  0.95433400  1
  H  H3  1  0.90427300  0.27546400  0.45433400  1
  H  H4  1  0.27568500  0.76614400  0.19915300  1
  H  H5  1  0.27568500  0.73385600  0.69915300  1
  H  H6  1  0.72431500  0.23385600  0.80084700  1
  H  H7  1  0.72431500  0.26614400  0.30084700  1
  H  H8  1  0.02324500  0.81902300  0.15941300  1
  H  H9  1  0.02324500  0.68097700  0.65941300  1
  H  H10  1  0.97675500  0.18097700  0.84058700  1
  H  H11  1  0.97675500  0.31902300  0.34058700  1
  H  H12  1  0.19231400  0.93930100  0.13100300  1
  H  H13  1  0.19231400  0.56069900  0.63100300  1
  H  H14  1  0.80768600  0.06069900  0.86899700  1
  H  H15  1  0.80768600  0.43930100  0.36899700  1
  H  H16  1  0.17789000  0.24428200  0.22299400  1
  H  H17  1  0.17789000  0.25571800  0.72299400  1
  H  H18  1  0.82211000  0.75571800  0.77700600  1
  H  H19  1  0.82211000  0.74428200  0.27700600  1
  H  H20  1  0.28753700  0.28848600  0.37643400  1
  H  H21  1  0.28753700  0.21151400  0.87643400  1
  H  H22  1  0.71246300  0.71151400  0.62356600  1
  H  H23  1  0.71246300  0.78848600  0.12356600  1
  H  H24  1  0.43750500  0.26883800  0.29523900  1
  H  H25  1  0.43750500  0.23116200  0.79523900  1
  H  H26  1  0.56249500  0.73116200  0.70476100  1
  H  H27  1  0.56249500  0.76883800  0.20476100  1
  H  H28  1  0.32381600  0.10959700  0.32975000  1
  H  H29  1  0.32381600  0.39040300  0.82975000  1
  H  H30  1  0.67618400  0.89040300  0.67025000  1
  H  H31  1  0.67618400  0.60959700  0.17025000  1
  H  H32  1  0.57984800  0.13344400  0.98737000  1
  H  H33  1  0.57984800  0.36655600  0.48737000  1
  H  H34  1  0.42015200  0.86655600  0.01263000  1
  H  H35  1  0.42015200  0.63344400  0.51263000  1
  H  H36  1  0.82812100  0.07188500  0.08040300  1
  H  H37  1  0.82812100  0.42811500  0.58040300  1
  H  H38  1  0.17187900  0.92811500  0.91959700  1
  H  H39  1  0.17187900  0.57188500  0.41959700  1
  H  H40  1  0.66552100  0.14482800  0.14320100  1
  H  H41  1  0.66552100  0.35517200  0.64320100  1
  H  H42  1  0.33447900  0.85517200  0.85679900  1
  H  H43  1  0.33447900  0.64482800  0.35679900  1
  H  H44  1  0.77569000  0.26268700  0.07482200  1
  H  H45  1  0.77569000  0.23731300  0.57482200  1
  H  H46  1  0.22431000  0.73731300  0.92517800  1
  H  H47  1  0.22431000  0.76268700  0.42517800  1
  H  H48  1  0.66106200  0.05536200  0.33846400  1
  H  H49  1  0.66106200  0.44463800  0.83846400  1
  H  H50  1  0.33893800  0.94463800  0.66153600  1
  H  H51  1  0.33893800  0.55536200  0.16153600  1
  H  H52  1  0.62280000  0.02758900  0.47054600  1
  H  H53  1  0.62280000  0.47241100  0.97054600  1
  H  H54  1  0.37720000  0.97241100  0.52945400  1
  H  H55  1  0.37720000  0.52758900  0.02945400  1
  H  H56  1  0.86935200  0.00554000  0.47397700  1
  H  H57  1  0.86935200  0.49446000  0.97397700  1
  H  H58  1  0.13064800  0.99446000  0.52602300  1
  H  H59  1  0.13064800  0.50554000  0.02602300  1
  H  H60  1  0.66614500  0.88083000  0.39134800  1
  H  H61  1  0.66614500  0.61917000  0.89134800  1
  H  H62  1  0.33385500  0.11917000  0.60865200  1
  H  H63  1  0.33385500  0.38083000  0.10865200  1
loop_
_geom_bond_atom_site_label_1
_geom_bond_atom_site_label_2
_geom_bond_distance
_geom_bond_site_symmetry_2
B0 H12 1.214264 1_555
B0 H8 1.220895 1_555
B0 H4 1.238102 1_555
B0 H0 1.245124 1_555
B1 H13 1.214264 1_555
B1 H9 1.220895 1_555
B1 H5 1.238102 1_555
B1 H1 1.245124 1_555
B2 H14 1.214264 1_555
B2 H10 1.220895 1_555
B2 H6 1.238102 1_555
B2 H2 1.245124 1_555
B3 H15 1.214264 1_555
B3 H11 1.220895 1_555
B3 H7 1.238102 1_555
B3 H3 1.245124 1_555
B4 H20 1.214724 1_555
B4 H28 1.219456 1_555
B4 H16 1.227722 1_555
B4 H24 1.261415 1_555
B5 H21 1.214724 1_555
B5 H29 1.219456 1_555
B5 H17 1.227722 1_555
B5 H25 1.261415 1_555
B6 H22 1.214724 1_555
B6 H30 1.219456 1_555
B6 H18 1.227722 1_555
B6 H26 1.261415 1_555
B7 H23 1.214724 1_555
B7 H31 1.219456 1_555
B7 H19 1.227722 1_555
B7 H27 1.261415 1_555
B8 H40 1.217915 1_555
B8 H36 1.219824 1_555
B8 H32 1.243835 1_554
B8 H44 1.247648 1_555
B9 H41 1.217915 1_555
B9 H37 1.219824 1_555
B9 H33 1.243835 1_555
B9 H45 1.247648 1_555
B10 H42 1.217915 1_555
B10 H38 1.219824 1_555
B10 H34 1.243835 1_556
B10 H46 1.247648 1_555
B11 H43 1.217915 1_555
B11 H39 1.219824 1_555
B11 H35 1.243835 1_555
B11 H47 1.247648 1_555
B12 H60 1.210186 1_555
B12 H56 1.217903 1_565
B12 H52 1.241845 1_565
B12 H48 1.243777 1_565
B13 H61 1.210186 1_555
B13 H57 1.217903 1_555
B13 H53 1.241845 1_555
B13 H49 1.243777 1_555
B14 H62 1.210186 1_555
B14 H58 1.217903 1_545
B14 H54 1.241845 1_545
B14 H50 1.243777 1_545
B15 H63 1.210186 1_555
B15 H59 1.217903 1_555
B15 H55 1.241845 1_555
B15 H51 1.243777 1_555
H0 Mn2 2.071948 1_555
H0 K2 2.967146 1_454
H1 Mn3 2.071948 1_555
H1 K3 2.967146 1_455
H2 Mn0 2.071948 1_555
H2 K0 2.967146 1_656
H3 Mn1 2.071948 1_555
H3 K1 2.967146 1_655
H4 Mn2 2.077475 1_555
H5 Mn3 2.077475 1_555
H6 Mn0 2.077475 1_555
H7 Mn1 2.077475 1_555
H8 K6 2.885585 1_465
H9 K7 2.885585 1_455
H10 K4 2.885585 1_645
H11 K5 2.885585 1_655
H12 K0 2.566530 1_565
H13 K1 2.566530 1_555
H14 K2 2.566530 1_545
H15 K3 2.566530 1_555
H16 K0 2.960527 1_555
H16 K5 3.035732 1_555
H17 K1 2.960527 1_555
H17 K4 3.035732 1_545
H18 K2 2.960527 1_555
H18 K7 3.035732 1_555
H19 K3 2.960527 1_555
H19 K6 3.035732 1_565
H20 K1 2.695920 1_555
H21 K0 2.695920 1_556
H22 K3 2.695920 1_555
H23 K2 2.695920 1_554
H24 Mn1 1.926150 1_555
H25 Mn0 1.926150 1_555
H26 Mn3 1.926150 1_555
H27 Mn2 1.926150 1_555
H28 K6 2.816607 1_455
H29 K7 2.816607 1_455
H30 K4 2.816607 1_655
H31 K5 2.816607 1_655
H32 Mn0 2.052957 1_555
H33 Mn1 2.052957 1_555
H34 Mn2 2.052957 1_555
H35 Mn3 2.052957 1_555
H36 K6 2.794605 1_555
H36 K2 2.851163 1_544
H37 K7 2.794605 1_555
H37 K3 2.851163 1_555
H38 K4 2.794605 1_555
H38 K0 2.851163 1_566
H39 K5 2.794605 1_555
H39 K1 2.851163 1_555
H40 K0 2.837732 1_555
H40 K6 2.901820 1_555
H41 K1 2.837732 1_555
H41 K7 2.901820 1_555
H42 K2 2.837732 1_555
H42 K4 2.901820 1_555
H43 K3 2.837732 1_555
H43 K5 2.901820 1_555
H44 Mn0 2.023992 1_554
H45 Mn1 2.023992 1_555
H46 Mn2 2.023992 1_556
H47 Mn3 2.023992 1_555
H48 Mn1 1.992221 1_555
H48 K6 2.989593 1_555
H49 Mn0 1.992221 1_555
H49 K7 2.989593 1_555
H50 Mn3 1.992221 1_555
H50 K4 2.989593 1_555
H51 Mn2 1.992221 1_555
H51 K5 2.989593 1_555
H52 Mn1 2.077228 1_555
H53 Mn0 2.077228 1_555
H54 Mn3 2.077228 1_555
H55 Mn2 2.077228 1_555
H56 K4 2.948891 1_645
H56 K6 3.033085 1_555
H57 K5 2.948891 1_656
H57 K7 3.033085 1_555
H58 K6 2.948891 1_465
H58 K4 3.033085 1_555
H59 K7 2.948891 1_454
H59 K5 3.033085 1_555
H60 K3 2.513327 1_555
H61 K2 2.513327 1_555
H62 K1 2.513327 1_555
H63 K0 2.513327 1_555
