# generated using pymatgen
data_Ca4MgB4(CO9)2
_symmetry_space_group_name_H-M   'P 1'
_cell_length_a   10.08135182
_cell_length_b   10.08135182
_cell_length_c   4.57072239
_cell_angle_alpha   77.04475917
_cell_angle_beta   77.04475917
_cell_angle_gamma   46.62749626
_symmetry_Int_Tables_number   1
_chemical_formula_structural   Ca4MgB4(CO9)2
_chemical_formula_sum   'Ca4 Mg1 B4 C2 O18'
_cell_volume   327.45903091
_cell_formula_units_Z   1
loop_
 _symmetry_equiv_pos_site_id
 _symmetry_equiv_pos_as_xyz
  1  'x, y, z'
loop_
 _atom_site_type_symbol
 _atom_site_label
 _atom_site_symmetry_multiplicity
 _atom_site_fract_x
 _atom_site_fract_y
 _atom_site_fract_z
 _atom_site_occupancy
  Ca  Ca0  1  0.39172200  0.92331300  0.85405200  1
  Ca  Ca1  1  0.92331300  0.39172200  0.85405200  1
  Ca  Ca2  1  0.60827800  0.07668700  0.14594800  1
  Ca  Ca3  1  0.07668700  0.60827800  0.14594800  1
  Mg  Mg0  1  0.00000000  0.00000000  0.00000000  1
  B  B0  1  0.25805100  0.74194900  0.50000000  1
  B  B1  1  0.74194900  0.25805100  0.50000000  1
  B  B2  1  0.09651700  0.09651700  0.44259400  1
  B  B3  1  0.90348300  0.90348300  0.55740600  1
  C  C0  1  0.69395100  0.69395100  0.36905300  1
  C  C1  1  0.30604900  0.30604900  0.63094700  1
  O  O0  1  0.09731800  0.09731800  0.13228400  1
  O  O1  1  0.90268200  0.90268200  0.86771600  1
  O  O2  1  0.20403000  0.90063200  0.62386100  1
  O  O3  1  0.90063200  0.20403000  0.62386100  1
  O  O4  1  0.79597000  0.09936800  0.37613900  1
  O  O5  1  0.09936800  0.79597000  0.37613900  1
  O  O6  1  0.39790600  0.69342500  0.24836500  1
  O  O7  1  0.69342500  0.39790600  0.24836500  1
  O  O8  1  0.60209400  0.30657500  0.75163500  1
  O  O9  1  0.30657500  0.60209400  0.75163500  1
  O  O10  1  0.57237000  0.85447800  0.23009900  1
  O  O11  1  0.85447800  0.57237000  0.23009900  1
  O  O12  1  0.42763000  0.14552200  0.76990100  1
  O  O13  1  0.14552200  0.42763000  0.76990100  1
  O  O14  1  0.16722500  0.16722500  0.51108700  1
  O  O15  1  0.83277500  0.83277500  0.48891300  1
  O  O16  1  0.65680500  0.65680500  0.64499000  1
  O  O17  1  0.34319500  0.34319500  0.35501000  1
loop_
_geom_bond_atom_site_label_1
_geom_bond_atom_site_label_2
_geom_bond_distance
_geom_bond_site_symmetry_2
Ca0 O16 2.327649 1_555
Ca0 O0 2.379159 1_566
Ca0 O14 2.417607 1_565
Ca0 O10 2.425998 1_556
Ca0 O12 2.441797 1_565
Ca0 O2 2.516830 1_555
Ca0 O6 2.569515 1_556
Ca1 O16 2.327649 1_555
Ca1 O0 2.379159 1_656
Ca1 O14 2.417607 1_655
Ca1 O11 2.425998 1_556
Ca1 O13 2.441797 1_655
Ca1 O3 2.516830 1_555
Ca1 O7 2.569515 1_556
Ca2 O17 2.327649 1_555
Ca2 O1 2.379159 1_544
Ca2 O15 2.417607 1_545
Ca2 O12 2.425998 1_554
Ca2 O10 2.441797 1_545
Ca2 O4 2.516830 1_555
Ca2 O8 2.569515 1_554
Ca3 O17 2.327649 1_555
Ca3 O1 2.379159 1_454
Ca3 O15 2.417607 1_455
Ca3 O13 2.425998 1_554
Ca3 O11 2.441797 1_455
Ca3 O5 2.516830 1_555
Ca3 O9 2.569515 1_554
Mg0 O0 2.035851 1_555
Mg0 O1 2.035851 1_444
Mg0 O2 2.132287 1_544
Mg0 O3 2.132287 1_454
Mg0 O5 2.132287 1_545
Mg0 O4 2.132287 1_455
B0 O6 1.458736 1_555
B0 O9 1.458736 1_555
B0 O5 1.499166 1_555
B0 O2 1.499166 1_555
B1 O8 1.458736 1_555
B1 O7 1.458736 1_555
B1 O4 1.499166 1_555
B1 O3 1.499166 1_555
B2 O0 1.414793 1_555
B2 O14 1.418554 1_555
B2 O3 1.578044 1_455
B2 O2 1.578044 1_545
B3 O1 1.414793 1_555
B3 O15 1.418554 1_555
B3 O4 1.578044 1_565
B3 O5 1.578044 1_655
C0 O16 1.280720 1_555
C0 O10 1.299418 1_555
C0 O11 1.299418 1_555
C1 O17 1.280720 1_555
C1 O13 1.299418 1_555
C1 O12 1.299418 1_555
