# generated using pymatgen
data_Mg14MnZnO16
_symmetry_space_group_name_H-M   'P 1'
_cell_length_a   4.28514900
_cell_length_b   8.54747800
_cell_length_c   8.57158700
_cell_angle_alpha   90.00000000
_cell_angle_beta   90.00000000
_cell_angle_gamma   90.00000000
_symmetry_Int_Tables_number   1
_chemical_formula_structural   Mg14MnZnO16
_chemical_formula_sum   'Mg14 Mn1 Zn1 O16'
_cell_volume   313.95337541
_cell_formula_units_Z   1
loop_
 _symmetry_equiv_pos_site_id
 _symmetry_equiv_pos_as_xyz
  1  'x, y, z'
loop_
 _atom_site_type_symbol
 _atom_site_label
 _atom_site_symmetry_multiplicity
 _atom_site_fract_x
 _atom_site_fract_y
 _atom_site_fract_z
 _atom_site_occupancy
  Mg  Mg0  1  0.00000000  0.00000000  0.50000000  1
  Mg  Mg1  1  0.00000000  0.50000000  0.50000000  1
  Mg  Mg2  1  0.50000000  0.74716800  0.00000000  1
  Mg  Mg3  1  0.50000000  0.25283200  0.00000000  1
  Mg  Mg4  1  0.50000000  0.75018600  0.50000000  1
  Mg  Mg5  1  0.50000000  0.24981400  0.50000000  1
  Mg  Mg6  1  0.50000000  0.00000000  0.74807700  1
  Mg  Mg7  1  0.50000000  0.50000000  0.74969400  1
  Mg  Mg8  1  0.50000000  0.00000000  0.25192300  1
  Mg  Mg9  1  0.50000000  0.50000000  0.25030600  1
  Mg  Mg10  1  0.00000000  0.74865000  0.74896200  1
  Mg  Mg11  1  0.00000000  0.25135000  0.74896200  1
  Mg  Mg12  1  0.00000000  0.74865000  0.25103800  1
  Mg  Mg13  1  0.00000000  0.25135000  0.25103800  1
  Mn  Mn0  1  0.00000000  0.00000000  0.00000000  1
  Zn  Zn0  1  0.00000000  0.50000000  0.00000000  1
  O  O0  1  0.00000000  0.00000000  0.74234200  1
  O  O1  1  0.00000000  0.50000000  0.74433200  1
  O  O2  1  0.00000000  0.00000000  0.25765800  1
  O  O3  1  0.00000000  0.50000000  0.25566800  1
  O  O4  1  0.50000000  0.75000100  0.75115700  1
  O  O5  1  0.50000000  0.24999900  0.75115700  1
  O  O6  1  0.50000000  0.75000100  0.24884300  1
  O  O7  1  0.50000000  0.24999900  0.24884300  1
  O  O8  1  0.50000000  0.00000000  0.00000000  1
  O  O9  1  0.50000000  0.50000000  0.00000000  1
  O  O10  1  0.50000000  0.00000000  0.50000000  1
  O  O11  1  0.50000000  0.50000000  0.50000000  1
  O  O12  1  0.00000000  0.74522400  0.00000000  1
  O  O13  1  0.00000000  0.25477600  0.00000000  1
  O  O14  1  0.00000000  0.74980000  0.50000000  1
  O  O15  1  0.00000000  0.25020000  0.50000000  1
loop_
_geom_bond_atom_site_label_1
_geom_bond_atom_site_label_2
_geom_bond_distance
_geom_bond_site_symmetry_2
Mg0 O0 2.077256 1_555
Mg0 O2 2.077256 1_555
Mg0 O15 2.138579 1_555
Mg0 O14 2.138579 1_545
Mg0 O10 2.142574 1_555
Mg0 O10 2.142574 1_455
Mg1 O1 2.094313 1_555
Mg1 O3 2.094313 1_555
Mg1 O14 2.135160 1_555
Mg1 O15 2.135160 1_555
Mg1 O11 2.142574 1_455
Mg1 O11 2.142574 1_555
Mg2 O9 2.112663 1_555
Mg2 O6 2.133117 1_555
Mg2 O4 2.133117 1_554
Mg2 O12 2.142639 1_655
Mg2 O12 2.142639 1_555
Mg2 O8 2.161076 1_565
Mg3 O9 2.112663 1_555
Mg3 O7 2.133117 1_555
Mg3 O5 2.133117 1_554
Mg3 O13 2.142639 1_655
Mg3 O13 2.142639 1_555
Mg3 O8 2.161076 1_555
Mg4 O10 2.135280 1_565
Mg4 O11 2.138459 1_555
Mg4 O14 2.142577 1_555
Mg4 O14 2.142577 1_655
Mg4 O6 2.152815 1_555
Mg4 O4 2.152815 1_555
Mg5 O10 2.135280 1_555
Mg5 O11 2.138459 1_555
Mg5 O15 2.142577 1_655
Mg5 O15 2.142577 1_555
Mg5 O7 2.152815 1_555
Mg5 O5 2.152815 1_555
Mg6 O10 2.126414 1_555
Mg6 O4 2.137024 1_545
Mg6 O5 2.137024 1_555
Mg6 O0 2.143138 1_655
Mg6 O0 2.143138 1_555
Mg6 O8 2.159380 1_556
Mg7 O5 2.136915 1_555
Mg7 O4 2.136915 1_555
Mg7 O11 2.140274 1_555
Mg7 O1 2.143067 1_555
Mg7 O1 2.143067 1_655
Mg7 O9 2.145520 1_556
Mg8 O10 2.126414 1_555
Mg8 O6 2.137024 1_545
Mg8 O7 2.137024 1_555
Mg8 O2 2.143138 1_655
Mg8 O2 2.143138 1_555
Mg8 O8 2.159380 1_555
Mg9 O7 2.136915 1_555
Mg9 O6 2.136915 1_555
Mg9 O11 2.140274 1_555
Mg9 O3 2.143067 1_655
Mg9 O3 2.143067 1_555
Mg9 O9 2.145520 1_555
Mg10 O1 2.125701 1_555
Mg10 O14 2.134022 1_555
Mg10 O4 2.142688 1_555
Mg10 O4 2.142688 1_455
Mg10 O0 2.149158 1_565
Mg10 O12 2.151993 1_556
Mg11 O1 2.125701 1_555
Mg11 O15 2.134022 1_555
Mg11 O5 2.142688 1_455
Mg11 O5 2.142688 1_555
Mg11 O0 2.149158 1_555
Mg11 O13 2.151993 1_556
Mg12 O3 2.125701 1_555
Mg12 O14 2.134022 1_555
Mg12 O6 2.142688 1_455
Mg12 O6 2.142688 1_555
Mg12 O2 2.149158 1_565
Mg12 O12 2.151993 1_555
Mg13 O3 2.125701 1_555
Mg13 O15 2.134022 1_555
Mg13 O7 2.142688 1_455
Mg13 O7 2.142688 1_555
Mg13 O2 2.149158 1_555
Mg13 O13 2.151993 1_555
Mn0 O8 2.142574 1_455
Mn0 O8 2.142574 1_555
Mn0 O12 2.177692 1_545
Mn0 O13 2.177692 1_555
Mn0 O2 2.208538 1_555
Mn0 O0 2.208538 1_554
O1 Zn0 2.191481 1_556
O3 Zn0 2.191481 1_555
O9 Zn0 2.142574 1_655
O9 Zn0 2.142574 1_555
O12 Zn0 2.096047 1_555
O13 Zn0 2.096047 1_555
