# generated using pymatgen
data_Nb2As
_symmetry_space_group_name_H-M   'P 1'
_cell_length_a   3.53991300
_cell_length_b   14.31065800
_cell_length_c   18.61888600
_cell_angle_alpha   90.00000000
_cell_angle_beta   90.00000000
_cell_angle_gamma   90.00000000
_symmetry_Int_Tables_number   1
_chemical_formula_structural   Nb2As
_chemical_formula_sum   'Nb36 As18'
_cell_volume   943.20454398
_cell_formula_units_Z   18
loop_
 _symmetry_equiv_pos_site_id
 _symmetry_equiv_pos_as_xyz
  1  'x, y, z'
loop_
 _atom_site_type_symbol
 _atom_site_label
 _atom_site_symmetry_multiplicity
 _atom_site_fract_x
 _atom_site_fract_y
 _atom_site_fract_z
 _atom_site_occupancy
  Nb  Nb0  1  0.00000000  0.00000000  0.50000000  1
  Nb  Nb1  1  0.00000000  0.00000000  0.00000000  1
  Nb  Nb2  1  0.50000000  0.50000000  0.50000000  1
  Nb  Nb3  1  0.50000000  0.50000000  0.00000000  1
  Nb  Nb4  1  0.00000000  0.11979100  0.25000000  1
  Nb  Nb5  1  0.00000000  0.88020900  0.75000000  1
  Nb  Nb6  1  0.00000000  0.38027200  0.25000000  1
  Nb  Nb7  1  0.00000000  0.61972800  0.75000000  1
  Nb  Nb8  1  0.00000000  0.88771300  0.25000000  1
  Nb  Nb9  1  0.00000000  0.11228700  0.75000000  1
  Nb  Nb10  1  0.50000000  0.55514800  0.25000000  1
  Nb  Nb11  1  0.50000000  0.44485200  0.75000000  1
  Nb  Nb12  1  0.00000000  0.33972400  0.43665200  1
  Nb  Nb13  1  0.00000000  0.66027600  0.56334800  1
  Nb  Nb14  1  0.00000000  0.33972400  0.06334800  1
  Nb  Nb15  1  0.00000000  0.66027600  0.93665200  1
  Nb  Nb16  1  0.00000000  0.56823100  0.38042800  1
  Nb  Nb17  1  0.00000000  0.43176900  0.61957200  1
  Nb  Nb18  1  0.00000000  0.56823100  0.11957200  1
  Nb  Nb19  1  0.00000000  0.43176900  0.88042800  1
  Nb  Nb20  1  0.50000000  0.15705500  0.49854300  1
  Nb  Nb21  1  0.50000000  0.84294500  0.50145700  1
  Nb  Nb22  1  0.50000000  0.15705500  0.00145700  1
  Nb  Nb23  1  0.50000000  0.84294500  0.99854300  1
  Nb  Nb24  1  0.50000000  0.00309700  0.34907400  1
  Nb  Nb25  1  0.50000000  0.99690300  0.65092600  1
  Nb  Nb26  1  0.50000000  0.00309700  0.15092600  1
  Nb  Nb27  1  0.50000000  0.99690300  0.84907400  1
  Nb  Nb28  1  0.50000000  0.24056500  0.33312100  1
  Nb  Nb29  1  0.50000000  0.75943500  0.66687900  1
  Nb  Nb30  1  0.50000000  0.24056500  0.16687900  1
  Nb  Nb31  1  0.50000000  0.75943500  0.83312100  1
  Nb  Nb32  1  0.50000000  0.23827300  0.83553700  1
  Nb  Nb33  1  0.50000000  0.76172700  0.16446300  1
  Nb  Nb34  1  0.50000000  0.23827300  0.66446300  1
  Nb  Nb35  1  0.50000000  0.76172700  0.33553700  1
  As  As0  1  0.00000000  0.68521400  0.25000000  1
  As  As1  1  0.00000000  0.31478600  0.75000000  1
  As  As2  1  0.00000000  0.13405700  0.39516600  1
  As  As3  1  0.00000000  0.86594300  0.60483400  1
  As  As4  1  0.00000000  0.13405700  0.10483400  1
  As  As5  1  0.00000000  0.86594300  0.89516600  1
  As  As6  1  0.00000000  0.12779600  0.89502500  1
  As  As7  1  0.00000000  0.87220400  0.10497500  1
  As  As8  1  0.00000000  0.12779600  0.60497500  1
  As  As9  1  0.00000000  0.87220400  0.39502500  1
  As  As10  1  0.50000000  0.42956500  0.35680000  1
  As  As11  1  0.50000000  0.57043500  0.64320000  1
  As  As12  1  0.50000000  0.42956500  0.14320000  1
  As  As13  1  0.50000000  0.57043500  0.85680000  1
  As  As14  1  0.50000000  0.32722800  0.95513800  1
  As  As15  1  0.50000000  0.67277200  0.04486200  1
  As  As16  1  0.50000000  0.32722800  0.54486200  1
  As  As17  1  0.50000000  0.67277200  0.45513800  1
loop_
_geom_bond_atom_site_label_1
_geom_bond_atom_site_label_2
_geom_bond_distance
_geom_bond_site_symmetry_2
As0 Nb10 2.568520 1_455
As0 Nb10 2.568520 1_555
As0 Nb35 2.620697 1_455
As0 Nb35 2.620697 1_555
As0 Nb33 2.620697 1_555
As0 Nb33 2.620697 1_455
As0 Nb8 2.897894 1_555
As0 Nb16 2.949554 1_555
As0 Nb18 2.949554 1_555
As1 Nb11 2.568520 1_455
As1 Nb11 2.568520 1_555
As1 Nb34 2.620697 1_555
As1 Nb32 2.620697 1_455
As1 Nb32 2.620697 1_555
As1 Nb34 2.620697 1_455
As1 Nb9 2.897894 1_555
As1 Nb17 2.949554 1_555
As1 Nb19 2.949554 1_555
As2 Nb28 2.605847 1_455
As2 Nb28 2.605847 1_555
As2 Nb20 2.635485 1_555
As2 Nb20 2.635485 1_455
As2 Nb4 2.710529 1_555
As2 Nb24 2.716903 1_455
As2 Nb24 2.716903 1_555
As2 Nb0 2.736843 1_555
As2 Nb12 3.042900 1_555
As3 Nb29 2.605847 1_555
As3 Nb29 2.605847 1_455
As3 Nb21 2.635485 1_555
As3 Nb21 2.635485 1_455
As3 Nb5 2.710529 1_555
As3 Nb25 2.716903 1_455
As3 Nb25 2.716903 1_555
As3 Nb0 2.736843 1_565
As3 Nb13 3.042900 1_555
As4 Nb30 2.605847 1_455
As4 Nb30 2.605847 1_555
As4 Nb22 2.635485 1_455
As4 Nb22 2.635485 1_555
As4 Nb4 2.710529 1_555
As4 Nb26 2.716903 1_455
As4 Nb26 2.716903 1_555
As4 Nb1 2.736843 1_555
As4 Nb14 3.042900 1_555
As5 Nb31 2.605847 1_555
As5 Nb31 2.605847 1_455
As5 Nb23 2.635485 1_555
As5 Nb23 2.635485 1_455
As5 Nb5 2.710529 1_555
As5 Nb27 2.716903 1_455
As5 Nb27 2.716903 1_555
As5 Nb1 2.736843 1_566
As5 Nb15 3.042900 1_555
As6 Nb32 2.618985 1_555
As6 Nb32 2.618985 1_455
As6 Nb1 2.676717 1_556
As6 Nb22 2.689793 1_456
As6 Nb22 2.689793 1_556
As6 Nb9 2.709310 1_555
As6 Nb27 2.715413 1_445
As6 Nb27 2.715413 1_545
As7 Nb33 2.618985 1_455
As7 Nb33 2.618985 1_555
As7 Nb1 2.676717 1_565
As7 Nb23 2.689793 1_454
As7 Nb23 2.689793 1_554
As7 Nb8 2.709310 1_555
As7 Nb26 2.715413 1_465
As7 Nb26 2.715413 1_565
As8 Nb34 2.618985 1_555
As8 Nb34 2.618985 1_455
As8 Nb0 2.676717 1_555
As8 Nb20 2.689793 1_455
As8 Nb20 2.689793 1_555
As8 Nb9 2.709310 1_555
As8 Nb25 2.715413 1_545
As8 Nb25 2.715413 1_445
As9 Nb35 2.618985 1_555
As9 Nb35 2.618985 1_455
As9 Nb0 2.676717 1_565
As9 Nb21 2.689793 1_555
As9 Nb21 2.689793 1_455
As9 Nb8 2.709310 1_555
As9 Nb24 2.715413 1_565
As9 Nb24 2.715413 1_465
As10 Nb12 2.645027 1_555
As10 Nb12 2.645027 1_655
As10 Nb10 2.680291 1_555
As10 Nb16 2.695205 1_555
As10 Nb16 2.695205 1_655
As10 Nb28 2.740411 1_555
As10 Nb6 2.753993 1_555
As10 Nb6 2.753993 1_655
As10 Nb2 2.850396 1_555
As11 Nb13 2.645027 1_555
As11 Nb13 2.645027 1_655
As11 Nb11 2.680291 1_555
As11 Nb17 2.695205 1_655
As11 Nb17 2.695205 1_555
As11 Nb29 2.740411 1_555
As11 Nb7 2.753993 1_555
As11 Nb7 2.753993 1_655
As11 Nb2 2.850396 1_555
As12 Nb14 2.645027 1_555
As12 Nb14 2.645027 1_655
As12 Nb10 2.680291 1_555
As12 Nb18 2.695205 1_555
As12 Nb18 2.695205 1_655
As12 Nb30 2.740411 1_555
As12 Nb6 2.753993 1_555
As12 Nb6 2.753993 1_655
As12 Nb3 2.850396 1_555
As13 Nb15 2.645027 1_655
As13 Nb15 2.645027 1_555
As13 Nb11 2.680291 1_555
As13 Nb19 2.695205 1_555
As13 Nb19 2.695205 1_655
As13 Nb31 2.740411 1_555
As13 Nb7 2.753993 1_555
As13 Nb7 2.753993 1_655
As13 Nb3 2.850396 1_556
As14 Nb32 2.565023 1_555
As14 Nb22 2.583481 1_556
As14 Nb3 2.609762 1_556
As14 Nb14 2.687739 1_656
As14 Nb14 2.687739 1_556
As14 Nb19 2.702932 1_655
As14 Nb19 2.702932 1_555
As15 Nb33 2.565023 1_555
As15 Nb23 2.583481 1_554
As15 Nb3 2.609762 1_555
As15 Nb15 2.687739 1_554
As15 Nb15 2.687739 1_654
As15 Nb18 2.702932 1_555
As15 Nb18 2.702932 1_655
As16 Nb34 2.565023 1_555
As16 Nb20 2.583481 1_555
As16 Nb2 2.609762 1_555
As16 Nb12 2.687739 1_555
As16 Nb12 2.687739 1_655
As16 Nb17 2.702932 1_655
As16 Nb17 2.702932 1_555
As17 Nb35 2.565023 1_555
As17 Nb21 2.583481 1_555
As17 Nb2 2.609762 1_555
As17 Nb13 2.687739 1_655
As17 Nb13 2.687739 1_555
As17 Nb16 2.702932 1_555
As17 Nb16 2.702932 1_655
