# generated using pymatgen
data_U2ReB6
_symmetry_space_group_name_H-M   'P 1'
_cell_length_a   3.63981900
_cell_length_b   9.26765900
_cell_length_c   11.35240900
_cell_angle_alpha   90.00000000
_cell_angle_beta   90.00000000
_cell_angle_gamma   90.00000000
_symmetry_Int_Tables_number   1
_chemical_formula_structural   U2ReB6
_chemical_formula_sum   'U8 Re4 B24'
_cell_volume   382.94628675
_cell_formula_units_Z   4
loop_
 _symmetry_equiv_pos_site_id
 _symmetry_equiv_pos_as_xyz
  1  'x, y, z'
loop_
 _atom_site_type_symbol
 _atom_site_label
 _atom_site_symmetry_multiplicity
 _atom_site_fract_x
 _atom_site_fract_y
 _atom_site_fract_z
 _atom_site_occupancy
  U  U0  1  0.00000000  0.33551200  0.40772200  1
  U  U1  1  0.00000000  0.66448800  0.59227800  1
  U  U2  1  0.00000000  0.83551200  0.09227800  1
  U  U3  1  0.00000000  0.16448800  0.90772200  1
  U  U4  1  0.00000000  0.95590900  0.39521000  1
  U  U5  1  0.00000000  0.04409100  0.60479000  1
  U  U6  1  0.00000000  0.45590900  0.10479000  1
  U  U7  1  0.00000000  0.54409100  0.89521000  1
  Re  Re0  1  0.00000000  0.64306800  0.32005900  1
  Re  Re1  1  0.00000000  0.35693200  0.67994100  1
  Re  Re2  1  0.00000000  0.14306800  0.17994100  1
  Re  Re3  1  0.00000000  0.85693200  0.82005900  1
  B  B0  1  0.50000000  0.54933300  0.43298600  1
  B  B1  1  0.50000000  0.45066700  0.56701400  1
  B  B2  1  0.50000000  0.04933300  0.06701400  1
  B  B3  1  0.50000000  0.95066700  0.93298600  1
  B  B4  1  0.50000000  0.74213600  0.42345300  1
  B  B5  1  0.50000000  0.25786400  0.57654700  1
  B  B6  1  0.50000000  0.24213600  0.07654700  1
  B  B7  1  0.50000000  0.75786400  0.92345300  1
  B  B8  1  0.50000000  0.80235500  0.27236100  1
  B  B9  1  0.50000000  0.19764500  0.72763900  1
  B  B10  1  0.50000000  0.30235500  0.22763900  1
  B  B11  1  0.50000000  0.69764500  0.77236100  1
  B  B12  1  0.50000000  0.64325800  0.18779400  1
  B  B13  1  0.50000000  0.35674200  0.81220600  1
  B  B14  1  0.50000000  0.14325800  0.31220600  1
  B  B15  1  0.50000000  0.85674200  0.68779400  1
  B  B16  1  0.50000000  0.98395800  0.21857100  1
  B  B17  1  0.50000000  0.01604200  0.78142900  1
  B  B18  1  0.50000000  0.48395800  0.28142900  1
  B  B19  1  0.50000000  0.51604200  0.71857100  1
  B  B20  1  0.50000000  0.64298900  0.03912800  1
  B  B21  1  0.50000000  0.35701100  0.96087200  1
  B  B22  1  0.50000000  0.14298900  0.46087200  1
  B  B23  1  0.50000000  0.85701100  0.53912800  1
loop_
_geom_bond_atom_site_label_1
_geom_bond_atom_site_label_2
_geom_bond_distance
_geom_bond_site_symmetry_2
U4 U5 2.515682 1_565
U6 U7 2.515682 1_554
Re0 U6 2.996806 1_555
Re0 U0 3.019063 1_555
Re0 U4 3.022221 1_555
Re0 U1 3.096711 1_555
Re0 U2 3.141270 1_555
Re1 U7 2.996806 1_555
Re1 U1 3.019063 1_555
Re1 U5 3.022221 1_555
Re1 U0 3.096711 1_555
Re1 U3 3.141270 1_555
Re2 U4 2.996806 1_545
Re2 U2 3.019063 1_545
Re2 U6 3.022221 1_555
Re2 U3 3.096711 1_554
Re2 U0 3.141270 1_555
Re3 U5 2.996806 1_565
Re3 U3 3.019063 1_565
Re3 U7 3.022221 1_555
Re3 U2 3.096711 1_556
Re3 U1 3.141270 1_555
B0 B1 1.775167 1_555
B0 B4 1.790107 1_555
B0 B18 1.824097 1_555
B0 Re0 2.389608 1_555
B0 Re0 2.389608 1_655
B0 U0 2.705762 1_655
B0 U0 2.705762 1_555
B0 U1 2.778695 1_555
B0 U1 2.778695 1_655
B1 B5 1.790107 1_555
B1 B19 1.824097 1_555
B1 Re1 2.389608 1_555
B1 Re1 2.389608 1_655
B1 U1 2.705762 1_655
B1 U1 2.705762 1_555
B1 U0 2.778695 1_655
B1 U0 2.778695 1_555
B2 B3 1.775167 1_544
B2 B6 1.790107 1_555
B2 Re2 2.389608 1_655
B2 Re2 2.389608 1_555
B2 U2 2.705762 1_545
B2 U2 2.705762 1_645
B2 U3 2.778695 1_654
B2 U3 2.778695 1_554
B3 B7 1.790107 1_555
B3 Re3 2.389608 1_555
B3 Re3 2.389608 1_655
B3 U3 2.705762 1_565
B3 U3 2.705762 1_665
B3 U2 2.778695 1_656
B3 U2 2.778695 1_556
B4 B8 1.803767 1_555
B4 Re0 2.352184 1_655
B4 Re0 2.352184 1_555
B4 U4 2.709230 1_555
B4 U4 2.709230 1_655
B4 U1 2.739189 1_555
B4 U1 2.739189 1_655
B5 B9 1.803767 1_555
B5 Re1 2.352184 1_555
B5 Re1 2.352184 1_655
B5 U5 2.709230 1_655
B5 U5 2.709230 1_555
B5 U0 2.739189 1_655
B5 U0 2.739189 1_555
B6 Re2 2.352184 1_555
B6 Re2 2.352184 1_655
B6 U6 2.709230 1_555
B6 U6 2.709230 1_655
B6 U3 2.739189 1_654
B6 U3 2.739189 1_554
B7 Re3 2.352184 1_555
B7 Re3 2.352184 1_655
B7 U7 2.709230 1_655
B7 U7 2.709230 1_555
B7 U2 2.739189 1_656
B7 U2 2.739189 1_556
B8 Re0 2.405098 1_655
B8 Re0 2.405098 1_555
B8 U4 2.698563 1_555
B8 U4 2.698563 1_655
B8 U2 2.754264 1_555
B8 U2 2.754264 1_655
B9 Re1 2.405098 1_555
B9 Re1 2.405098 1_655
B9 U5 2.698563 1_655
B9 U5 2.698563 1_555
B9 U3 2.754264 1_555
B9 U3 2.754264 1_655
B10 B14 1.759460 1_555
B10 B18 1.790389 1_555
B10 B6 1.803767 1_555
B10 Re2 2.405098 1_555
B10 Re2 2.405098 1_655
B10 U6 2.698563 1_655
B10 U6 2.698563 1_555
B10 U0 2.754264 1_655
B10 U0 2.754264 1_555
B11 B15 1.759460 1_555
B11 B19 1.790389 1_555
B11 B7 1.803767 1_555
B11 Re3 2.405098 1_555
B11 Re3 2.405098 1_655
B11 U7 2.698563 1_655
B11 U7 2.698563 1_555
B11 U1 2.754264 1_655
B11 U1 2.754264 1_555
B12 B20 1.687719 1_555
B12 B8 1.759460 1_555
B12 B18 1.819205 1_555
B12 Re0 2.359376 1_655
B12 Re0 2.359376 1_555
B12 U6 2.686016 1_655
B12 U6 2.686016 1_555
B12 U2 2.768117 1_555
B12 U2 2.768117 1_655
B13 B21 1.687719 1_555
B13 B9 1.759460 1_555
B13 B19 1.819205 1_555
B13 Re1 2.359376 1_555
B13 Re1 2.359376 1_655
B13 U7 2.686016 1_655
B13 U7 2.686016 1_555
B13 U3 2.768117 1_655
B13 U3 2.768117 1_555
B14 B22 1.687719 1_555
B14 B16 1.819205 1_545
B14 Re2 2.359376 1_555
B14 Re2 2.359376 1_655
B14 U4 2.686016 1_545
B14 U4 2.686016 1_645
B14 U0 2.768117 1_655
B14 U0 2.768117 1_555
B15 B23 1.687719 1_555
B15 B17 1.819205 1_565
B15 Re3 2.359376 1_655
B15 Re3 2.359376 1_555
B15 U5 2.686016 1_565
B15 U5 2.686016 1_665
B15 U1 2.768117 1_555
B15 U1 2.768117 1_655
B16 B8 1.790389 1_555
B16 B2 1.824097 1_565
B16 Re2 2.383017 1_565
B16 Re2 2.383017 1_665
B16 U2 2.694500 1_555
B16 U2 2.694500 1_655
B16 U4 2.720438 1_555
B16 U4 2.720438 1_655
B17 B9 1.790389 1_555
B17 B3 1.824097 1_545
B17 Re3 2.383017 1_545
B17 Re3 2.383017 1_645
B17 U3 2.694500 1_555
B17 U3 2.694500 1_655
B17 U5 2.720438 1_555
B17 U5 2.720438 1_655
B18 Re0 2.383017 1_555
B18 Re0 2.383017 1_655
B18 U0 2.694500 1_555
B18 U0 2.694500 1_655
B18 U6 2.720438 1_655
B18 U6 2.720438 1_555
B19 Re1 2.383017 1_555
B19 Re1 2.383017 1_655
B19 U1 2.694500 1_655
B19 U1 2.694500 1_555
B19 U7 2.720438 1_655
B19 U7 2.720438 1_555
B20 B7 1.690529 1_554
B20 U7 2.611799 1_554
B20 U7 2.611799 1_654
B20 U2 2.619092 1_555
B20 U2 2.619092 1_655
B20 U6 2.621787 1_555
B20 U6 2.621787 1_655
B21 B6 1.690529 1_556
B21 U6 2.611799 1_556
B21 U6 2.611799 1_656
B21 U3 2.619092 1_655
B21 U3 2.619092 1_555
B21 U7 2.621787 1_655
B21 U7 2.621787 1_555
B22 B5 1.690529 1_555
B22 U5 2.611799 1_555
B22 U5 2.611799 1_655
B22 U0 2.619092 1_555
B22 U0 2.619092 1_655
B22 U4 2.621787 1_645
B22 U4 2.621787 1_545
B23 B4 1.690529 1_555
B23 U4 2.611799 1_555
B23 U4 2.611799 1_655
B23 U1 2.619092 1_655
B23 U1 2.619092 1_555
B23 U5 2.621787 1_565
B23 U5 2.621787 1_665
