# generated using pymatgen
data_Mg14SnBi
_symmetry_space_group_name_H-M   'P 1'
_cell_length_a   6.41541507
_cell_length_b   6.71165983
_cell_length_c   10.35561726
_cell_angle_alpha   90.00000000
_cell_angle_beta   90.00000000
_cell_angle_gamma   121.53965725
_symmetry_Int_Tables_number   1
_chemical_formula_structural   Mg14SnBi
_chemical_formula_sum   'Mg14 Sn1 Bi1'
_cell_volume   380.02496250
_cell_formula_units_Z   1
loop_
 _symmetry_equiv_pos_site_id
 _symmetry_equiv_pos_as_xyz
  1  'x, y, z'
loop_
 _atom_site_type_symbol
 _atom_site_label
 _atom_site_symmetry_multiplicity
 _atom_site_fract_x
 _atom_site_fract_y
 _atom_site_fract_z
 _atom_site_occupancy
  Mg  Mg0  1  0.16866605  0.33433253  0.62500000  1
  Mg  Mg1  1  0.16872537  0.83436219  0.62500000  1
  Mg  Mg2  1  0.66810511  0.33385175  0.12500000  1
  Mg  Mg3  1  0.66724719  0.33360542  0.62500000  1
  Mg  Mg4  1  0.66810511  0.83425235  0.12500000  1
  Mg  Mg5  1  0.66724719  0.83364077  0.62500000  1
  Mg  Mg6  1  0.33376788  0.16917577  0.37765147  1
  Mg  Mg7  1  0.33376788  0.16917577  0.87234853  1
  Mg  Mg8  1  0.33376788  0.66459311  0.37765147  1
  Mg  Mg9  1  0.33376788  0.66459311  0.87234853  1
  Mg  Mg10  1  0.83308035  0.16654068  0.37537628  1
  Mg  Mg11  1  0.83308035  0.16654068  0.87462372  1
  Mg  Mg12  1  0.83045316  0.66522708  0.37817231  1
  Mg  Mg13  1  0.83045316  0.66522708  0.87182769  1
  Sn  Sn0  1  0.16526944  0.33263422  0.12500000  1
  Bi  Bi0  1  0.16449602  0.83224751  0.12500000  1
loop_
_geom_bond_atom_site_label_1
_geom_bond_atom_site_label_2
_geom_bond_distance
_geom_bond_site_symmetry_2
Mg0 Mg10 3.170028 1_455
Mg0 Mg11 3.170028 1_455
Mg0 Mg6 3.184327 1_555
Mg0 Mg7 3.184327 1_555
Mg0 Mg9 3.184334 1_555
Mg0 Mg8 3.184334 1_555
Mg0 Mg5 3.201160 1_555
Mg0 Mg3 3.201160 1_555
Mg0 Mg5 3.214260 1_445
Mg0 Mg3 3.214260 1_455
Mg0 Mg1 3.355830 1_555
Mg0 Mg1 3.355830 1_545
Mg1 Mg12 3.155051 1_455
Mg1 Mg13 3.155051 1_455
Mg1 Mg8 3.200401 1_555
Mg1 Mg9 3.200401 1_555
Mg1 Mg7 3.200408 1_565
Mg1 Mg6 3.200408 1_565
Mg1 Mg3 3.200759 1_565
Mg1 Mg5 3.200760 1_555
Mg1 Mg3 3.214660 1_455
Mg1 Mg5 3.214661 1_455
Mg2 Sn0 3.193798 1_655
Mg2 Sn0 3.221633 1_555
Mg3 Mg7 3.144190 1_555
Mg3 Mg6 3.144190 1_555
Mg3 Mg5 3.355593 1_545
Mg3 Mg5 3.356067 1_555
Mg4 Sn0 3.193797 1_665
Mg4 Sn0 3.221632 1_555
Mg5 Mg9 3.144190 1_555
Mg5 Mg8 3.144190 1_555
Mg6 Sn0 3.233907 1_555
Mg7 Sn0 3.233907 1_556
Mg8 Sn0 3.233913 1_555
Mg9 Sn0 3.233913 1_556
Mg10 Sn0 3.165695 1_655
Mg10 Mg3 3.212382 1_555
Mg10 Mg5 3.212389 1_545
Mg11 Sn0 3.165695 1_656
Mg11 Mg3 3.212382 1_555
Mg11 Mg5 3.212389 1_545
Mg12 Mg5 3.185200 1_555
Mg12 Mg3 3.185207 1_555
Mg13 Mg5 3.185200 1_555
Mg13 Mg3 3.185207 1_555
Bi0 Mg2 3.191613 1_455
Bi0 Mg4 3.191613 1_455
Bi0 Mg13 3.195236 1_454
Bi0 Mg12 3.195236 1_455
Bi0 Mg2 3.223843 1_565
Bi0 Mg4 3.223843 1_555
Bi0 Mg8 3.251027 1_555
Bi0 Mg9 3.251027 1_554
Bi0 Mg6 3.251034 1_565
Bi0 Mg7 3.251034 1_564
Bi0 Sn0 3.355833 1_565
Bi0 Sn0 3.355833 1_555
