# generated using pymatgen
data_CeUO4
_symmetry_space_group_name_H-M   'P 1'
_cell_length_a   6.65149160
_cell_length_b   6.65149160
_cell_length_c   6.65149155
_cell_angle_alpha   33.71579032
_cell_angle_beta   33.71579032
_cell_angle_gamma   33.71578399
_symmetry_Int_Tables_number   1
_chemical_formula_structural   CeUO4
_chemical_formula_sum   'Ce1 U1 O4'
_cell_volume   80.78202393
_cell_formula_units_Z   1
loop_
 _symmetry_equiv_pos_site_id
 _symmetry_equiv_pos_as_xyz
  1  'x, y, z'
loop_
 _atom_site_type_symbol
 _atom_site_label
 _atom_site_symmetry_multiplicity
 _atom_site_fract_x
 _atom_site_fract_y
 _atom_site_fract_z
 _atom_site_occupancy
  Ce  Ce0  1  -0.00000000  -0.00000000  0.00000000  1
  U  U0  1  0.50000000  0.50000000  0.50000000  1
  O  O0  1  0.61841947  0.61841947  0.61841947  1
  O  O1  1  0.13157218  0.13157218  0.13157218  1
  O  O2  1  0.86842782  0.86842782  0.86842782  1
  O  O3  1  0.38158053  0.38158053  0.38158053  1
loop_
_geom_bond_atom_site_label_1
_geom_bond_atom_site_label_2
_geom_bond_distance
_geom_bond_site_symmetry_2
Ce0 O0 2.404985 1_454
Ce0 O3 2.404985 1_545
Ce0 O3 2.404985 1_455
Ce0 O0 2.404985 1_544
Ce0 O3 2.404986 1_554
Ce0 O0 2.404986 1_445
Ce0 O2 2.473879 1_444
Ce0 O1 2.473879 1_555
O0 U0 2.226576 1_555
O1 U0 2.323020 1_455
O1 U0 2.323020 1_545
O1 U0 2.323021 1_554
O2 U0 2.323020 1_655
O2 U0 2.323020 1_565
O2 U0 2.323021 1_556
O3 U0 2.226576 1_555
