# generated using pymatgen
data_SrMg2
_symmetry_space_group_name_H-M   'P 1'
_cell_length_a   6.51099847
_cell_length_b   6.51099847
_cell_length_c   6.51099787
_cell_angle_alpha   58.45435214
_cell_angle_beta   58.45435214
_cell_angle_gamma   58.45435351
_symmetry_Int_Tables_number   1
_chemical_formula_structural   SrMg2
_chemical_formula_sum   'Sr2 Mg4'
_cell_volume   188.27377576
_cell_formula_units_Z   2
loop_
 _symmetry_equiv_pos_site_id
 _symmetry_equiv_pos_as_xyz
  1  'x, y, z'
loop_
 _atom_site_type_symbol
 _atom_site_label
 _atom_site_symmetry_multiplicity
 _atom_site_fract_x
 _atom_site_fract_y
 _atom_site_fract_z
 _atom_site_occupancy
  Sr  Sr0  1  0.12473700  0.12473700  0.12473700  1
  Sr  Sr1  1  0.87526300  0.87526300  0.87526300  1
  Mg  Mg0  1  0.00000000  0.50000000  0.50000000  1
  Mg  Mg1  1  0.50000000  0.00000000  0.50000000  1
  Mg  Mg2  1  0.50000000  0.50000000  0.50000000  1
  Mg  Mg3  1  0.50000000  0.50000000  0.00000000  1
loop_
_geom_bond_atom_site_label_1
_geom_bond_atom_site_label_2
_geom_bond_distance
_geom_bond_site_symmetry_2
Sr0 Sr1 3.912312 1_445
Sr0 Sr1 3.912313 1_544
Sr0 Sr1 3.912313 1_454
Sr0 Sr1 4.024612 1_444
Mg0 Mg3 3.179149 1_456
Mg0 Mg3 3.179149 1_555
Mg0 Mg1 3.179149 1_555
Mg0 Mg1 3.179149 1_465
Mg0 Mg2 3.255499 1_555
Mg0 Mg2 3.255499 1_455
Mg0 Sr1 3.762494 1_454
Mg0 Sr0 3.762494 1_556
Mg0 Sr1 3.762494 1_445
Mg0 Sr0 3.762494 1_565
Mg0 Sr1 3.833182 1_455
Mg0 Sr0 3.833182 1_555
Mg1 Mg3 3.179149 1_546
Mg1 Mg3 3.179149 1_555
Mg1 Mg2 3.255499 1_545
Mg1 Mg2 3.255499 1_555
Mg1 Sr1 3.762494 1_544
Mg1 Sr0 3.762494 1_556
Mg1 Sr1 3.762494 1_445
Mg1 Sr0 3.762494 1_655
Mg1 Sr1 3.833182 1_545
Mg1 Sr0 3.833182 1_555
Mg2 Mg3 3.255499 1_556
Mg2 Mg3 3.255499 1_555
Mg2 Sr0 3.732765 1_556
Mg2 Sr1 3.732765 1_554
Mg2 Sr1 3.732765 1_455
Mg2 Sr1 3.732765 1_545
Mg2 Sr0 3.732765 1_565
Mg2 Sr0 3.732765 1_655
Mg3 Sr1 3.762494 1_544
Mg3 Sr1 3.762494 1_454
Mg3 Sr0 3.762494 1_565
Mg3 Sr0 3.762494 1_655
Mg3 Sr0 3.833182 1_555
Mg3 Sr1 3.833182 1_554
