# generated using pymatgen
data_VTe2
_symmetry_space_group_name_H-M   'P 1'
_cell_length_a   3.65583836
_cell_length_b   3.65583836
_cell_length_c   6.95375000
_cell_angle_alpha   90.00000000
_cell_angle_beta   90.00000000
_cell_angle_gamma   120.00000658
_symmetry_Int_Tables_number   1
_chemical_formula_structural   VTe2
_chemical_formula_sum   'V1 Te2'
_cell_volume   80.48661220
_cell_formula_units_Z   1
loop_
 _symmetry_equiv_pos_site_id
 _symmetry_equiv_pos_as_xyz
  1  'x, y, z'
loop_
 _atom_site_type_symbol
 _atom_site_label
 _atom_site_symmetry_multiplicity
 _atom_site_fract_x
 _atom_site_fract_y
 _atom_site_fract_z
 _atom_site_occupancy
  V  V0  1  0.00000000  0.00000000  0.00000000  1
  Te  Te0  1  0.66666700  0.33333300  0.75422500  1
  Te  Te1  1  0.33333300  0.66666700  0.24577500  1
loop_
_geom_bond_atom_site_label_1
_geom_bond_atom_site_label_2
_geom_bond_distance
_geom_bond_site_symmetry_2
Te0 V0 2.715865 1_656
Te0 V0 2.715867 1_666
Te0 V0 2.715867 1_556
Te1 V0 2.715865 1_565
Te1 V0 2.715867 1_555
Te1 V0 2.715867 1_665
