# generated using pymatgen
data_Li9Mn2Co5O16
_symmetry_space_group_name_H-M   'P 1'
_cell_length_a   2.95435000
_cell_length_b   9.86317432
_cell_length_c   10.32660493
_cell_angle_alpha   106.77271268
_cell_angle_beta   97.65982790
_cell_angle_gamma   88.73882657
_symmetry_Int_Tables_number   1
_chemical_formula_structural   Li9Mn2Co5O16
_chemical_formula_sum   'Li9 Mn2 Co5 O16'
_cell_volume   285.49437780
_cell_formula_units_Z   1
loop_
 _symmetry_equiv_pos_site_id
 _symmetry_equiv_pos_as_xyz
  1  'x, y, z'
loop_
 _atom_site_type_symbol
 _atom_site_label
 _atom_site_symmetry_multiplicity
 _atom_site_fract_x
 _atom_site_fract_y
 _atom_site_fract_z
 _atom_site_occupancy
  Li  Li0  1  0.45131900  0.68534600  0.88728300  1
  Li  Li1  1  0.94841600  0.19519800  0.88129100  1
  Li  Li2  1  0.05158400  0.80480200  0.11870900  1
  Li  Li3  1  0.54868100  0.31465400  0.11271700  1
  Li  Li4  1  0.69047500  0.94143700  0.37525100  1
  Li  Li5  1  0.19316300  0.43647100  0.37616900  1
  Li  Li6  1  0.30952500  0.05856300  0.62474900  1
  Li  Li7  1  0.80683700  0.56352900  0.62383100  1
  Li  Li8  1  0.00000000  0.50000000  0.00000000  1
  Mn  Mn0  1  0.38733500  0.37719700  0.75657400  1
  Mn  Mn1  1  0.61266500  0.62280300  0.24342600  1
  Co  Co0  1  0.87765100  0.87213700  0.74957800  1
  Co  Co1  1  0.50000000  0.00000000  0.00000000  1
  Co  Co2  1  0.12234900  0.12786300  0.25042200  1
  Co  Co3  1  0.24490100  0.74745700  0.50114400  1
  Co  Co4  1  0.75509900  0.25254300  0.49885600  1
  O  O0  1  0.90165500  0.51122000  0.80290700  1
  O  O1  1  0.40853700  0.02269900  0.81757800  1
  O  O2  1  0.53880200  0.65787100  0.07778400  1
  O  O3  1  0.02954200  0.15207700  0.06888400  1
  O  O4  1  0.13883900  0.76330900  0.31539300  1
  O  O5  1  0.65118000  0.27451100  0.31906000  1
  O  O6  1  0.81842700  0.89810600  0.56574000  1
  O  O7  1  0.32093900  0.39451600  0.56507800  1
  O  O8  1  0.97045800  0.84792300  0.93111600  1
  O  O9  1  0.46119800  0.34212900  0.92221600  1
  O  O10  1  0.59146300  0.97730100  0.18242200  1
  O  O11  1  0.09834500  0.48878000  0.19709300  1
  O  O12  1  0.18157300  0.10189400  0.43426000  1
  O  O13  1  0.67906100  0.60548400  0.43492200  1
  O  O14  1  0.86116100  0.23669100  0.68460700  1
  O  O15  1  0.34882000  0.72548900  0.68094000  1
loop_
_geom_bond_atom_site_label_1
_geom_bond_atom_site_label_2
_geom_bond_distance
_geom_bond_site_symmetry_2
Li0 O2 2.044328 1_556
Li0 O8 2.108698 1_455
Li0 O8 2.152382 1_555
Li0 O0 2.196283 1_555
Li0 O15 2.257987 1_555
Li0 O0 2.286423 1_455
Li1 O9 2.016822 1_555
Li1 O9 2.036253 1_655
Li1 O3 2.082866 1_656
Li1 O1 2.160094 1_655
Li1 O14 2.166735 1_555
Li1 O1 2.250608 1_555
Li2 O2 2.016822 1_555
Li2 O2 2.036253 1_455
Li2 O8 2.082866 1_454
Li2 O10 2.160094 1_455
Li2 O4 2.166735 1_555
Li2 O10 2.250608 1_555
Li3 O9 2.044328 1_554
Li3 O3 2.108698 1_655
Li3 O3 2.152382 1_555
Li3 O11 2.196283 1_555
Li3 O5 2.257987 1_555
Li3 O11 2.286423 1_655
Li4 O12 2.071189 1_665
Li4 O10 2.102984 1_555
Li4 O6 2.115401 1_555
Li4 O4 2.170826 1_655
Li4 O12 2.172401 1_565
Li4 O4 2.314200 1_555
Li5 O11 2.042197 1_555
Li5 O5 2.074721 1_555
Li5 O7 2.093331 1_555
Li5 O13 2.120645 1_555
Li5 O5 2.186462 1_455
Li5 O13 2.237040 1_455
Li6 O6 2.071189 1_445
Li6 O1 2.102984 1_555
Li6 O12 2.115401 1_555
Li6 O14 2.170826 1_455
Li6 O6 2.172401 1_545
Li6 O14 2.314200 1_555
Li7 O0 2.042197 1_555
Li7 O15 2.074721 1_555
Li7 O13 2.093331 1_555
Li7 O7 2.120645 1_555
Li7 O15 2.186462 1_655
Li7 O7 2.237040 1_655
Li8 O11 2.051841 1_555
Li8 O0 2.051841 1_454
Li8 O2 2.098287 1_455
Li8 O9 2.098287 1_554
Li8 O2 2.156394 1_555
Li8 O9 2.156394 1_454
Mn0 O9 1.825313 1_555
Mn0 O0 1.941562 1_455
Mn0 O0 1.953131 1_555
Mn0 O14 2.007471 1_555
Mn0 O7 2.016992 1_555
Mn0 O14 2.020337 1_455
Mn1 O2 1.825313 1_555
Mn1 O11 1.941562 1_655
Mn1 O11 1.953131 1_555
Mn1 O4 2.007471 1_555
Mn1 O13 2.016992 1_555
Mn1 O4 2.020337 1_655
Co0 O8 1.940387 1_555
Co0 O6 1.972397 1_555
Co0 O15 2.028511 1_655
Co0 O1 2.046012 1_565
Co0 O15 2.061071 1_555
Co0 O1 2.089355 1_665
Co1 O10 1.943424 1_545
Co1 O1 1.943424 1_554
Co1 O3 2.060021 1_555
Co1 O8 2.060021 1_544
Co1 O3 2.096239 1_655
Co1 O8 2.096239 1_444
Co2 O3 1.940387 1_555
Co2 O12 1.972397 1_555
Co2 O5 2.028511 1_455
Co2 O10 2.046012 1_545
Co2 O5 2.061071 1_555
Co2 O10 2.089355 1_445
Co3 O15 1.914621 1_555
Co3 O13 1.917240 1_555
Co3 O6 1.951888 1_455
Co3 O4 1.952624 1_555
Co3 O13 2.113921 1_455
Co3 O6 2.182027 1_555
Co4 O5 1.914621 1_555
Co4 O7 1.917240 1_555
Co4 O12 1.951888 1_655
Co4 O14 1.952624 1_555
Co4 O7 2.113921 1_655
Co4 O12 2.182027 1_555
