# generated using pymatgen
data_KMg14B
_symmetry_space_group_name_H-M   'P 1'
_cell_length_a   6.59843157
_cell_length_b   6.31497962
_cell_length_c   10.24526501
_cell_angle_alpha   90.00000000
_cell_angle_beta   90.00000000
_cell_angle_gamma   118.58887338
_symmetry_Int_Tables_number   1
_chemical_formula_structural   KMg14B
_chemical_formula_sum   'K1 Mg14 B1'
_cell_volume   374.85899258
_cell_formula_units_Z   1
loop_
 _symmetry_equiv_pos_site_id
 _symmetry_equiv_pos_as_xyz
  1  'x, y, z'
loop_
 _atom_site_type_symbol
 _atom_site_label
 _atom_site_symmetry_multiplicity
 _atom_site_fract_x
 _atom_site_fract_y
 _atom_site_fract_z
 _atom_site_occupancy
  K  K0  1  0.11547541  0.30773721  0.12500000  1
  Mg  Mg0  1  0.17189677  0.33594789  0.62500000  1
  Mg  Mg1  1  0.15838503  0.82919202  0.62500000  1
  Mg  Mg2  1  0.61468108  0.30342224  0.12500000  1
  Mg  Mg3  1  0.66058942  0.33648853  0.62500000  1
  Mg  Mg4  1  0.61468108  0.81125784  0.12500000  1
  Mg  Mg5  1  0.66058942  0.82409989  0.62500000  1
  Mg  Mg6  1  0.33638008  0.15599755  0.37473122  1
  Mg  Mg7  1  0.33638008  0.15599755  0.87526878  1
  Mg  Mg8  1  0.33638008  0.68038353  0.37473122  1
  Mg  Mg9  1  0.33638008  0.68038353  0.87526878  1
  Mg  Mg10  1  0.82023388  0.16011744  0.39281810  1
  Mg  Mg11  1  0.82023388  0.16011744  0.85718190  1
  Mg  Mg12  1  0.85583901  0.67792001  0.34844385  1
  Mg  Mg13  1  0.85583901  0.67792001  0.90155615  1
  B  B0  1  0.30603568  0.90301734  0.12500000  1
loop_
_geom_bond_atom_site_label_1
_geom_bond_atom_site_label_2
_geom_bond_distance
_geom_bond_site_symmetry_2
K0 Mg11 3.233417 1_454
K0 Mg10 3.233417 1_455
K0 Mg4 3.291505 1_445
K0 Mg2 3.291505 1_455
K0 Mg6 3.305430 1_555
K0 Mg7 3.305430 1_554
K0 Mg8 3.305436 1_555
K0 Mg9 3.305436 1_554
K0 Mg4 3.307100 1_555
K0 Mg2 3.307100 1_555
Mg0 Mg10 3.132086 1_455
Mg0 Mg11 3.132086 1_455
Mg0 Mg1 3.158460 1_545
Mg0 Mg1 3.158460 1_555
Mg0 Mg7 3.197520 1_555
Mg0 Mg6 3.197520 1_555
Mg0 Mg9 3.197527 1_555
Mg0 Mg8 3.197527 1_555
Mg0 Mg5 3.222972 1_555
Mg0 Mg3 3.222973 1_555
Mg0 Mg5 3.375461 1_445
Mg0 Mg3 3.375462 1_455
Mg1 Mg9 3.145352 1_555
Mg1 Mg8 3.145352 1_555
Mg1 Mg7 3.145358 1_565
Mg1 Mg6 3.145358 1_565
Mg1 Mg3 3.269404 1_455
Mg1 Mg5 3.269405 1_455
Mg1 Mg3 3.329268 1_565
Mg1 Mg5 3.329269 1_555
Mg1 Mg13 3.331796 1_455
Mg1 Mg12 3.331796 1_455
Mg2 Mg6 3.024729 1_555
Mg2 Mg7 3.024729 1_554
Mg3 Mg5 3.079256 1_555
Mg3 Mg7 3.180643 1_555
Mg3 Mg6 3.180643 1_555
Mg3 Mg5 3.235724 1_545
Mg4 Mg8 3.024729 1_555
Mg4 Mg9 3.024729 1_554
Mg5 Mg9 3.180643 1_555
Mg5 Mg8 3.180643 1_555
Mg6 Mg8 3.003493 1_545
Mg6 Mg8 3.311487 1_555
Mg7 Mg9 3.003493 1_545
Mg7 Mg9 3.311487 1_555
Mg10 Mg3 3.021845 1_555
Mg10 Mg5 3.021851 1_545
Mg10 Mg8 3.185702 1_545
Mg10 Mg6 3.185702 1_555
Mg10 Mg12 3.196714 1_545
Mg10 Mg12 3.196715 1_555
Mg10 Mg2 3.370771 1_555
Mg10 Mg4 3.370777 1_545
Mg10 Mg8 3.423300 1_655
Mg10 Mg6 3.423300 1_655
Mg11 Mg3 3.021845 1_555
Mg11 Mg5 3.021851 1_545
Mg11 Mg9 3.185702 1_545
Mg11 Mg7 3.185702 1_555
Mg11 Mg13 3.196714 1_545
Mg11 Mg13 3.196715 1_555
Mg11 Mg2 3.370771 1_556
Mg11 Mg4 3.370777 1_546
Mg11 Mg9 3.423300 1_655
Mg11 Mg7 3.423300 1_655
Mg12 Mg4 3.124753 1_555
Mg12 Mg2 3.124760 1_555
Mg12 Mg6 3.174846 1_665
Mg12 Mg8 3.174846 1_655
Mg12 Mg5 3.417352 1_555
Mg12 Mg3 3.417357 1_555
Mg12 Mg6 3.445627 1_555
Mg12 Mg8 3.445627 1_555
Mg13 Mg4 3.124753 1_556
Mg13 Mg2 3.124760 1_556
Mg13 Mg7 3.174846 1_665
Mg13 Mg9 3.174846 1_655
Mg13 Mg5 3.417352 1_555
Mg13 Mg3 3.417357 1_555
Mg13 Mg7 3.445627 1_555
Mg13 Mg9 3.445627 1_555
B0 Mg2 2.369141 1_565
B0 Mg4 2.369142 1_555
B0 Mg8 2.971931 1_555
B0 Mg9 2.971931 1_554
B0 Mg7 2.971938 1_564
B0 Mg6 2.971938 1_565
B0 K0 3.344960 1_555
B0 K0 3.344961 1_565
