# generated using pymatgen
data_Sm2Ge5Pt3
_symmetry_space_group_name_H-M   'P 1'
_cell_length_a   8.46652193
_cell_length_b   8.46652193
_cell_length_c   8.46652193
_cell_angle_alpha   136.15596091
_cell_angle_beta   105.31231653
_cell_angle_gamma   90.84179673
_symmetry_Int_Tables_number   1
_chemical_formula_structural   Sm2Ge5Pt3
_chemical_formula_sum   'Sm4 Ge10 Pt6'
_cell_volume   385.88327515
_cell_formula_units_Z   2
loop_
 _symmetry_equiv_pos_site_id
 _symmetry_equiv_pos_as_xyz
  1  'x, y, z'
loop_
 _atom_site_type_symbol
 _atom_site_label
 _atom_site_symmetry_multiplicity
 _atom_site_fract_x
 _atom_site_fract_y
 _atom_site_fract_z
 _atom_site_occupancy
  Sm  Sm0  1  0.59868700  0.36918200  0.22950500  1
  Sm  Sm1  1  0.40131300  0.63081800  0.77049500  1
  Sm  Sm2  1  0.13967700  0.86918200  0.27049500  1
  Sm  Sm3  1  0.86032300  0.13081800  0.72950500  1
  Ge  Ge0  1  0.50000000  0.25000000  0.75000000  1
  Ge  Ge1  1  0.50000000  0.75000000  0.25000000  1
  Ge  Ge2  1  0.22794300  0.47794300  0.25000000  1
  Ge  Ge3  1  0.77205700  0.02205700  0.25000000  1
  Ge  Ge4  1  0.77205700  0.52205700  0.75000000  1
  Ge  Ge5  1  0.22794300  0.97794300  0.75000000  1
  Ge  Ge6  1  0.95000600  0.60489300  0.34511300  1
  Ge  Ge7  1  0.04999400  0.39510700  0.65488700  1
  Ge  Ge8  1  0.25977900  0.10489300  0.15488700  1
  Ge  Ge9  1  0.74022100  0.89510700  0.84511300  1
  Pt  Pt0  1  0.00000000  0.75000000  0.75000000  1
  Pt  Pt1  1  0.00000000  0.25000000  0.25000000  1
  Pt  Pt2  1  0.52748700  0.13869400  0.38879200  1
  Pt  Pt3  1  0.47251300  0.86130600  0.61120800  1
  Pt  Pt4  1  0.74990200  0.63869400  0.11120800  1
  Pt  Pt5  1  0.25009800  0.36130600  0.88879200  1
loop_
_geom_bond_atom_site_label_1
_geom_bond_atom_site_label_2
_geom_bond_distance
_geom_bond_site_symmetry_2
Ge0 Pt3 2.553409 1_545
Ge0 Pt5 2.553409 1_555
Ge0 Pt4 2.553409 1_556
Ge0 Pt2 2.553413 1_555
Ge0 Sm3 3.236115 1_555
Ge0 Sm0 3.236115 1_556
Ge0 Sm2 3.236115 1_545
Ge0 Sm1 3.236115 1_555
Ge1 Pt2 2.553409 1_565
Ge1 Pt4 2.553409 1_555
Ge1 Pt5 2.553409 1_554
Ge1 Pt3 2.553413 1_555
Ge1 Sm0 3.236115 1_555
Ge1 Sm3 3.236115 1_565
Ge1 Sm2 3.236115 1_555
Ge1 Sm1 3.236115 1_554
Ge2 Pt3 2.512968 1_555
Ge2 Pt5 2.512972 1_554
Ge2 Ge8 2.677262 1_555
Ge2 Ge6 2.677264 1_455
Ge2 Pt1 2.709146 1_555
Ge2 Sm2 3.297412 1_555
Ge2 Sm0 3.297412 1_555
Ge2 Sm1 3.398512 1_555
Ge2 Sm3 3.398512 1_454
Ge3 Pt2 2.512964 1_555
Ge3 Pt4 2.512972 1_545
Ge3 Ge7 2.677264 1_655
Ge3 Ge9 2.677266 1_544
Ge3 Pt1 2.709146 1_655
Ge3 Sm3 3.297412 1_555
Ge3 Sm1 3.297412 1_544
Ge3 Sm0 3.398512 1_555
Ge3 Sm2 3.398512 1_645
Ge4 Pt2 2.512968 1_555
Ge4 Pt4 2.512972 1_556
Ge4 Ge9 2.677262 1_555
Ge4 Ge7 2.677264 1_655
Ge4 Pt0 2.709146 1_655
Ge4 Sm1 3.297412 1_555
Ge4 Sm3 3.297412 1_555
Ge4 Sm2 3.398512 1_656
Ge4 Sm0 3.398512 1_555
Ge5 Pt3 2.512964 1_555
Ge5 Pt5 2.512972 1_565
Ge5 Ge6 2.677264 1_455
Ge5 Ge8 2.677266 1_566
Ge5 Pt0 2.709146 1_555
Ge5 Sm2 3.297412 1_555
Ge5 Sm0 3.297412 1_566
Ge5 Sm3 3.398512 1_465
Ge5 Sm1 3.398512 1_555
Ge6 Pt4 2.435918 1_555
Ge6 Pt0 2.565757 1_655
Ge6 Pt1 2.565757 1_655
Ge6 Sm0 3.042749 1_555
Ge6 Sm2 3.233280 1_655
Ge6 Sm3 3.390648 1_565
Ge6 Sm3 3.390648 1_554
Ge7 Pt5 2.435918 1_555
Ge7 Pt0 2.565757 1_555
Ge7 Pt1 2.565757 1_555
Ge7 Sm1 3.042749 1_555
Ge7 Sm3 3.233280 1_455
Ge7 Sm2 3.390648 1_556
Ge7 Sm2 3.390648 1_545
Ge8 Pt2 2.435930 1_555
Ge8 Pt1 2.565749 1_555
Ge8 Pt0 2.565753 1_544
Ge8 Sm2 3.042746 1_545
Ge8 Sm0 3.233287 1_555
Ge8 Sm1 3.390647 1_555
Ge8 Sm1 3.390653 1_544
Ge9 Pt3 2.435930 1_555
Ge9 Pt0 2.565749 1_655
Ge9 Pt1 2.565753 1_666
Ge9 Sm3 3.042746 1_565
Ge9 Sm1 3.233287 1_555
Ge9 Sm0 3.390647 1_555
Ge9 Sm0 3.390653 1_566
Pt0 Sm2 3.554540 1_556
Pt0 Sm1 3.554540 1_555
Pt0 Sm0 3.554540 1_455
Pt0 Sm3 3.554540 1_465
Pt1 Sm1 3.554540 1_555
Pt1 Sm2 3.554540 1_545
Pt1 Sm0 3.554540 1_455
Pt1 Sm3 3.554540 1_454
Pt2 Sm0 3.190792 1_555
Pt2 Sm1 3.387723 1_544
Pt2 Sm1 3.387729 1_555
Pt2 Sm2 3.425930 1_545
Pt2 Sm3 3.500891 1_555
Pt3 Sm1 3.190792 1_555
Pt3 Sm0 3.387723 1_566
Pt3 Sm0 3.387729 1_555
Pt3 Sm3 3.425930 1_565
Pt3 Sm2 3.500891 1_555
Pt4 Sm2 3.190795 1_655
Pt4 Sm3 3.387724 1_554
Pt4 Sm3 3.387724 1_565
Pt4 Sm0 3.425923 1_555
Pt4 Sm1 3.500896 1_554
Pt5 Sm3 3.190795 1_455
Pt5 Sm2 3.387724 1_545
Pt5 Sm2 3.387724 1_556
Pt5 Sm1 3.425923 1_555
Pt5 Sm0 3.500896 1_556
