# generated using pymatgen
data_NaMg14BO16
_symmetry_space_group_name_H-M   'P 1'
_cell_length_a   8.70366435
_cell_length_b   8.27159227
_cell_length_c   4.31067173
_cell_angle_alpha   90.00000000
_cell_angle_beta   90.00000000
_cell_angle_gamma   90.00000000
_symmetry_Int_Tables_number   1
_chemical_formula_structural   NaMg14BO16
_chemical_formula_sum   'Na1 Mg14 B1 O16'
_cell_volume   310.33889145
_cell_formula_units_Z   1
loop_
 _symmetry_equiv_pos_site_id
 _symmetry_equiv_pos_as_xyz
  1  'x, y, z'
loop_
 _atom_site_type_symbol
 _atom_site_label
 _atom_site_symmetry_multiplicity
 _atom_site_fract_x
 _atom_site_fract_y
 _atom_site_fract_z
 _atom_site_occupancy
  Na  Na0  1  -0.00000000  0.00000000  0.00000000  1
  Mg  Mg0  1  0.50000000  -0.00000000  0.00000000  1
  Mg  Mg1  1  0.50000000  0.50000000  0.00000000  1
  Mg  Mg2  1  -0.00000000  0.25806096  0.50000000  1
  Mg  Mg3  1  -0.00000000  0.74193904  0.50000000  1
  Mg  Mg4  1  0.50000000  0.24962576  0.50000000  1
  Mg  Mg5  1  0.50000000  0.75037424  0.50000000  1
  Mg  Mg6  1  0.24592084  -0.00000000  0.50000000  1
  Mg  Mg7  1  0.24692383  0.50000000  0.50000000  1
  Mg  Mg8  1  0.75407916  0.00000000  0.50000000  1
  Mg  Mg9  1  0.75307617  0.50000000  0.50000000  1
  Mg  Mg10  1  0.25841123  0.25377340  -0.00000000  1
  Mg  Mg11  1  0.25841123  0.74622660  0.00000000  1
  Mg  Mg12  1  0.74158877  0.25377340  -0.00000000  1
  Mg  Mg13  1  0.74158877  0.74622660  0.00000000  1
  B  B0  1  -0.00000000  0.50000000  0.00000000  1
  O  O0  1  0.25811984  -0.00000000  -0.00000000  1
  O  O1  1  0.26193019  0.50000000  0.00000000  1
  O  O2  1  0.74188016  0.00000000  0.00000000  1
  O  O3  1  0.73806981  0.50000000  -0.00000000  1
  O  O4  1  0.24508259  0.25018077  0.50000000  1
  O  O5  1  0.24508259  0.74981923  0.50000000  1
  O  O6  1  0.75491741  0.25018077  0.50000000  1
  O  O7  1  0.75491741  0.74981923  0.50000000  1
  O  O8  1  -0.00000000  -0.00000000  0.50000000  1
  O  O9  1  -0.00000000  0.50000000  0.50000000  1
  O  O10  1  0.50000000  0.00000000  0.50000000  1
  O  O11  1  0.50000000  0.50000000  0.50000000  1
  O  O12  1  -0.00000000  0.33008656  0.00000000  1
  O  O13  1  -0.00000000  0.66991344  -0.00000000  1
  O  O14  1  0.50000000  0.24998348  -0.00000000  1
  O  O15  1  0.50000000  0.75001652  0.00000000  1
loop_
_geom_bond_atom_site_label_1
_geom_bond_atom_site_label_2
_geom_bond_distance
_geom_bond_site_symmetry_2
Na0 O8 2.155336 1_555
Na0 O8 2.155336 1_554
Na0 O0 2.246588 1_555
Na0 O2 2.246588 1_455
Na0 O13 2.730341 1_545
Na0 O12 2.730341 1_555
Mg0 O15 2.067761 1_545
Mg0 O14 2.067761 1_555
Mg0 O0 2.105244 1_555
Mg0 O2 2.105244 1_555
Mg0 O10 2.155336 1_555
Mg0 O10 2.155336 1_554
Mg1 O14 2.068035 1_555
Mg1 O15 2.068035 1_555
Mg1 O1 2.072080 1_555
Mg1 O3 2.072080 1_555
Mg1 O11 2.155336 1_554
Mg1 O11 2.155336 1_555
Mg2 O9 2.001221 1_555
Mg2 O4 2.134112 1_555
Mg2 O6 2.134112 1_455
Mg2 O8 2.134575 1_555
Mg2 O12 2.236160 1_556
Mg2 O12 2.236160 1_555
Mg3 O9 2.001221 1_555
Mg3 O5 2.134112 1_555
Mg3 O7 2.134112 1_455
Mg3 O8 2.134575 1_565
Mg3 O13 2.236160 1_555
Mg3 O13 2.236160 1_556
Mg4 O10 2.064803 1_555
Mg4 O11 2.070994 1_555
Mg4 O14 2.155338 1_555
Mg4 O14 2.155338 1_556
Mg4 O4 2.218720 1_555
Mg4 O6 2.218720 1_555
Mg5 O10 2.064803 1_565
Mg5 O11 2.070994 1_555
Mg5 O15 2.155338 1_556
Mg5 O15 2.155338 1_555
Mg5 O5 2.218720 1_555
Mg5 O7 2.218720 1_555
Mg6 O5 2.069406 1_545
Mg6 O4 2.069406 1_555
Mg6 O8 2.140412 1_555
Mg6 O0 2.157949 1_555
Mg6 O0 2.157949 1_556
Mg6 O10 2.211420 1_555
Mg7 O4 2.066465 1_555
Mg7 O5 2.066465 1_555
Mg7 O9 2.149142 1_555
Mg7 O1 2.159290 1_555
Mg7 O1 2.159290 1_556
Mg7 O11 2.202690 1_555
Mg8 O7 2.069406 1_545
Mg8 O6 2.069406 1_555
Mg8 O8 2.140412 1_655
Mg8 O2 2.157949 1_556
Mg8 O2 2.157949 1_555
Mg8 O10 2.211420 1_555
Mg9 O6 2.066465 1_555
Mg9 O7 2.066465 1_555
Mg9 O9 2.149142 1_655
Mg9 O3 2.159290 1_556
Mg9 O3 2.159290 1_555
Mg9 O11 2.202690 1_555
Mg10 O1 2.036916 1_555
Mg10 O0 2.099112 1_555
Mg10 O14 2.102941 1_555
Mg10 O4 2.158660 1_554
Mg10 O4 2.158660 1_555
Mg10 O12 2.336025 1_555
Mg11 O1 2.036916 1_555
Mg11 O0 2.099112 1_565
Mg11 O15 2.102941 1_555
Mg11 O5 2.158660 1_554
Mg11 O5 2.158660 1_555
Mg11 O13 2.336025 1_555
Mg12 O3 2.036916 1_555
Mg12 O2 2.099112 1_555
Mg12 O14 2.102941 1_555
Mg12 O6 2.158660 1_555
Mg12 O6 2.158660 1_554
Mg12 O12 2.336025 1_655
Mg13 O3 2.036916 1_555
Mg13 O2 2.099112 1_565
Mg13 O15 2.102941 1_555
Mg13 O7 2.158660 1_555
Mg13 O7 2.158660 1_554
Mg13 O13 2.336025 1_655
B0 O13 1.405455 1_555
B0 O12 1.405455 1_555
B0 O9 2.155336 1_555
B0 O9 2.155336 1_554
