# generated using pymatgen
data_Sb2H3C3SCl6O5F3
_symmetry_space_group_name_H-M   'P 1'
_cell_length_a   7.09494500
_cell_length_b   9.97987258
_cell_length_c   14.43278623
_cell_angle_alpha   90.37088309
_cell_angle_beta   90.04418030
_cell_angle_gamma   105.33855276
_symmetry_Int_Tables_number   1
_chemical_formula_structural   Sb2H3C3SCl6O5F3
_chemical_formula_sum   'Sb4 H6 C6 S2 Cl12 O10 F6'
_cell_volume   985.51152203
_cell_formula_units_Z   2
loop_
 _symmetry_equiv_pos_site_id
 _symmetry_equiv_pos_as_xyz
  1  'x, y, z'
loop_
 _atom_site_type_symbol
 _atom_site_label
 _atom_site_symmetry_multiplicity
 _atom_site_fract_x
 _atom_site_fract_y
 _atom_site_fract_z
 _atom_site_occupancy
  Sb  Sb0  1  0.65759600  0.27285100  0.86311600  1
  Sb  Sb1  1  0.34135300  0.72692200  0.36325100  1
  Sb  Sb2  1  0.34240400  0.72714900  0.13688400  1
  Sb  Sb3  1  0.65864700  0.27307800  0.63674900  1
  H  H0  1  0.30177100  0.57100500  0.75144200  1
  H  H1  1  0.69822900  0.42899500  0.24855800  1
  H  H2  1  0.07221800  0.58502600  0.69346700  1
  H  H3  1  0.92778200  0.41497400  0.30653300  1
  H  H4  1  0.85809600  0.66475000  0.19578500  1
  H  H5  1  0.14190400  0.33525000  0.80421500  1
  C  C0  1  0.91530400  0.92125000  0.74990900  1
  C  C1  1  0.08469600  0.07875000  0.25009100  1
  C  C2  1  0.14827200  0.52485100  0.73492300  1
  C  C3  1  0.85172800  0.47514900  0.26507700  1
  C  C4  1  0.06431000  0.39729900  0.76508400  1
  C  C5  1  0.93569000  0.60270100  0.23491600  1
  S  S0  1  0.67846800  0.97344200  0.74963200  1
  S  S1  1  0.32153200  0.02655800  0.25036800  1
  Cl  Cl0  1  0.64309500  0.50275000  0.88471600  1
  Cl  Cl1  1  0.35626500  0.49755600  0.38453500  1
  Cl  Cl2  1  0.35690500  0.49725000  0.11528400  1
  Cl  Cl3  1  0.64373500  0.50244400  0.61546500  1
  Cl  Cl4  1  0.39616200  0.16758600  0.95871800  1
  Cl  Cl5  1  0.60247000  0.83323700  0.45951700  1
  Cl  Cl6  1  0.60383800  0.83241400  0.04128200  1
  Cl  Cl7  1  0.39753000  0.16676300  0.54048300  1
  Cl  Cl8  1  0.90725800  0.28325900  0.97127300  1
  Cl  Cl9  1  0.08907900  0.71702800  0.46931200  1
  Cl  Cl10  1  0.09274200  0.71674100  0.02872700  1
  Cl  Cl11  1  0.91092100  0.28297200  0.53068800  1
  O  O0  1  0.49561100  0.23657200  0.74938100  1
  O  O1  1  0.50438900  0.76342800  0.25061900  1
  O  O2  1  0.86710000  0.32947700  0.75215200  1
  O  O3  1  0.13290000  0.67052300  0.24784800  1
  O  O4  1  0.69564500  0.05977400  0.83587500  1
  O  O5  1  0.30389000  0.94110900  0.33614500  1
  O  O6  1  0.30435500  0.94022600  0.16412500  1
  O  O7  1  0.69611000  0.05889100  0.66385500  1
  O  O8  1  0.52413400  0.84730500  0.74957100  1
  O  O9  1  0.47586600  0.15269500  0.25042900  1
  F  F0  1  0.92169600  0.84511000  0.82596200  1
  F  F1  1  0.07756900  0.15589300  0.32643300  1
  F  F2  1  0.07830400  0.15489000  0.17403800  1
  F  F3  1  0.92243100  0.84410700  0.67356700  1
  F  F4  1  0.06855800  0.03440400  0.75016200  1
  F  F5  1  0.93144200  0.96559600  0.24983800  1
loop_
_geom_bond_atom_site_label_1
_geom_bond_atom_site_label_2
_geom_bond_distance
_geom_bond_site_symmetry_2
C0 F4 1.344570 1_665
C0 F0 1.346573 1_555
C0 F3 1.348700 1_555
C1 F5 1.344570 1_445
C1 F2 1.346573 1_555
C1 F1 1.348700 1_555
C2 H2 1.088760 1_555
C2 H0 1.089891 1_555
C2 C4 1.330851 1_555
C3 H3 1.088760 1_555
C3 H1 1.089891 1_555
C3 C5 1.330851 1_555
C4 H5 1.090828 1_555
C4 O2 1.395580 1_455
C5 H4 1.090828 1_555
C5 O3 1.395580 1_655
Cl0 Sb0 2.342551 1_555
Cl1 Sb1 2.341464 1_555
Cl2 Sb2 2.342551 1_555
Cl3 Sb3 2.341464 1_555
Cl4 Sb0 2.332338 1_555
Cl5 Sb1 2.329236 1_555
Cl6 Sb2 2.332338 1_555
Cl7 Sb3 2.329236 1_555
Cl8 Sb0 2.341254 1_555
Cl9 Sb1 2.338649 1_555
Cl10 Sb2 2.341254 1_555
Cl11 Sb3 2.338649 1_555
O0 Sb3 1.975077 1_555
O0 Sb0 1.978823 1_555
O1 Sb1 1.975077 1_555
O1 Sb2 1.978823 1_555
O2 Sb0 2.159782 1_555
O2 Sb3 2.195901 1_555
O3 Sb2 2.159782 1_555
O3 Sb1 2.195901 1_555
O4 S0 1.495611 1_545
O4 Sb0 2.245533 1_555
O5 S1 1.494312 1_565
O5 Sb1 2.259226 1_555
O6 S1 1.495611 1_565
O6 Sb2 2.245533 1_555
O7 S0 1.494312 1_545
O7 Sb3 2.259226 1_555
O8 S0 1.433320 1_555
O9 S1 1.433320 1_555
