# generated using pymatgen
data_ZnCuO2
_symmetry_space_group_name_H-M   'P 1'
_cell_length_a   2.94529600
_cell_length_b   8.09852127
_cell_length_c   8.18453892
_cell_angle_alpha   90.91948998
_cell_angle_beta   99.19849086
_cell_angle_gamma   93.60041570
_symmetry_Int_Tables_number   1
_chemical_formula_structural   ZnCuO2
_chemical_formula_sum   'Zn4 Cu4 O8'
_cell_volume   192.26380552
_cell_formula_units_Z   4
loop_
 _symmetry_equiv_pos_site_id
 _symmetry_equiv_pos_as_xyz
  1  'x, y, z'
loop_
 _atom_site_type_symbol
 _atom_site_label
 _atom_site_symmetry_multiplicity
 _atom_site_fract_x
 _atom_site_fract_y
 _atom_site_fract_z
 _atom_site_occupancy
  Zn  Zn0  1  0.65845400  0.92570300  0.23869600  1
  Zn  Zn1  1  0.38464200  0.09437800  0.78788300  1
  Zn  Zn2  1  0.17968600  0.29624400  0.12535300  1
  Zn  Zn3  1  0.83389700  0.72691000  0.90220500  1
  Cu  Cu0  1  0.20578700  0.81593300  0.57685500  1
  Cu  Cu1  1  0.23094400  0.60239200  0.27618600  1
  Cu  Cu2  1  0.75528500  0.41900100  0.75898500  1
  Cu  Cu3  1  0.82278300  0.20478700  0.44870800  1
  O  O0  1  0.40083900  0.26285400  0.59660700  1
  O  O1  1  0.27940900  0.58385000  0.80157900  1
  O  O2  1  0.73756200  0.43291800  0.23071500  1
  O  O3  1  0.62963300  0.75644300  0.42794100  1
  O  O4  1  0.79044100  0.90544900  0.72801600  1
  O  O5  1  0.07632300  0.79890200  0.12433400  1
  O  O6  1  0.23849800  0.11397600  0.29969400  1
  O  O7  1  0.96820800  0.22092800  0.90185900  1
loop_
_geom_bond_atom_site_label_1
_geom_bond_atom_site_label_2
_geom_bond_distance
_geom_bond_site_symmetry_2
Cu0 O3 1.953056 1_455
Cu0 O3 1.954245 1_555
Cu0 O4 2.029567 1_455
Cu0 O4 2.038308 1_555
Cu1 O2 1.922005 1_455
Cu1 O3 1.943709 1_555
Cu1 O5 2.063559 1_555
Cu1 O2 2.160340 1_555
Cu2 O0 1.947266 1_555
Cu2 O1 1.959853 1_655
Cu2 O1 2.060244 1_555
Cu2 O7 2.070243 1_555
Cu3 O0 1.940856 1_555
Cu3 O0 1.951246 1_655
Cu3 O6 2.022179 1_655
Cu3 O6 2.032493 1_555
Cu3 O2 2.584662 1_555
O0 Zn1 2.097366 1_555
O1 Zn3 1.997352 1_555
O1 Zn3 2.061107 1_455
O2 Zn2 1.989099 1_555
O2 Zn2 2.043001 1_655
O3 Zn0 2.093031 1_555
O4 Zn3 2.042199 1_555
O4 Zn1 2.098206 1_565
O4 Zn1 2.238177 1_665
O5 Zn3 1.911448 1_454
O5 Zn0 1.985333 1_455
O5 Zn0 2.026139 1_555
O6 Zn2 2.065337 1_555
O6 Zn0 2.124575 1_545
O6 Zn0 2.206449 1_445
O7 Zn2 1.912634 1_656
O7 Zn1 1.979366 1_655
O7 Zn1 2.027364 1_555
