# generated using pymatgen
data_Bi2XeF12
_symmetry_space_group_name_H-M   'P 1'
_cell_length_a   8.28977700
_cell_length_b   10.05518500
_cell_length_c   14.59193000
_cell_angle_alpha   90.00000000
_cell_angle_beta   90.00000000
_cell_angle_gamma   90.00000000
_symmetry_Int_Tables_number   1
_chemical_formula_structural   Bi2XeF12
_chemical_formula_sum   'Bi8 Xe4 F48'
_cell_volume   1216.31384682
_cell_formula_units_Z   4
loop_
 _symmetry_equiv_pos_site_id
 _symmetry_equiv_pos_as_xyz
  1  'x, y, z'
loop_
 _atom_site_type_symbol
 _atom_site_label
 _atom_site_symmetry_multiplicity
 _atom_site_fract_x
 _atom_site_fract_y
 _atom_site_fract_z
 _atom_site_occupancy
  Bi  Bi0  1  0.60286400  0.60366400  0.58402900  1
  Bi  Bi1  1  0.89713600  0.39633600  0.08402900  1
  Bi  Bi2  1  0.10286400  0.89633600  0.41597100  1
  Bi  Bi3  1  0.39713600  0.10366400  0.91597100  1
  Bi  Bi4  1  0.89900700  0.83719900  0.75752100  1
  Bi  Bi5  1  0.60099300  0.16280100  0.25752100  1
  Bi  Bi6  1  0.39900700  0.66280100  0.24247900  1
  Bi  Bi7  1  0.10099300  0.33719900  0.74247900  1
  Xe  Xe0  1  0.60409100  0.09996000  0.59662400  1
  Xe  Xe1  1  0.89590900  0.90003900  0.09662400  1
  Xe  Xe2  1  0.10409100  0.40003900  0.40337600  1
  Xe  Xe3  1  0.39590900  0.59996100  0.90337600  1
  F  F0  1  0.40587500  0.52184400  0.52493000  1
  F  F1  1  0.09412500  0.47815600  0.02493000  1
  F  F2  1  0.90587500  0.97815600  0.47507000  1
  F  F3  1  0.59412500  0.02184400  0.97507000  1
  F  F4  1  0.81883100  0.70119900  0.65356300  1
  F  F5  1  0.68116900  0.29880100  0.15356300  1
  F  F6  1  0.31883100  0.79880100  0.34643700  1
  F  F7  1  0.18116900  0.20119900  0.84643700  1
  F  F8  1  0.59837900  0.77623200  0.51215800  1
  F  F9  1  0.90162100  0.22376800  0.01215800  1
  F  F10  1  0.09837900  0.72376800  0.48784200  1
  F  F11  1  0.40162100  0.27623200  0.98784200  1
  F  F12  1  0.76708900  0.52700900  0.49581600  1
  F  F13  1  0.73291100  0.47299100  0.99581600  1
  F  F14  1  0.26708900  0.97299100  0.50418400  1
  F  F15  1  0.23291100  0.02700900  0.00418400  1
  F  F16  1  0.07345000  0.70883100  0.79575600  1
  F  F17  1  0.42655000  0.29116900  0.29575600  1
  F  F18  1  0.57345000  0.79116900  0.20424400  1
  F  F19  1  0.92655000  0.20883100  0.70424400  1
  F  F20  1  0.94050800  0.97615900  0.85420600  1
  F  F21  1  0.55949200  0.02384100  0.35420600  1
  F  F22  1  0.44050800  0.52384100  0.14579400  1
  F  F23  1  0.05949200  0.47615900  0.64579400  1
  F  F24  1  0.73161800  0.74968300  0.83799500  1
  F  F25  1  0.76838200  0.25031700  0.33799500  1
  F  F26  1  0.23161800  0.75031700  0.16200500  1
  F  F27  1  0.26838200  0.24968300  0.66200500  1
  F  F28  1  0.04232900  0.92252300  0.66339300  1
  F  F29  1  0.45767100  0.07747700  0.16339300  1
  F  F30  1  0.54232900  0.57747700  0.33660700  1
  F  F31  1  0.95767100  0.42252300  0.83660700  1
  F  F32  1  0.70291900  0.95827900  0.70251700  1
  F  F33  1  0.79708100  0.04172100  0.20251700  1
  F  F34  1  0.20291900  0.54172100  0.29748300  1
  F  F35  1  0.29708100  0.45827900  0.79748300  1
  F  F36  1  0.64426400  0.44781300  0.66908400  1
  F  F37  1  0.85573600  0.55218700  0.16908400  1
  F  F38  1  0.14426400  0.05218700  0.33091600  1
  F  F39  1  0.35573600  0.94781300  0.83091600  1
  F  F40  1  0.50772800  0.22660700  0.50677900  1
  F  F41  1  0.99227200  0.77339300  0.00677900  1
  F  F42  1  0.00772800  0.27339300  0.49322100  1
  F  F43  1  0.49227200  0.72660700  0.99322100  1
  F  F44  1  0.47604700  0.69346600  0.68576300  1
  F  F45  1  0.02395300  0.30653400  0.18576300  1
  F  F46  1  0.97604700  0.80653400  0.31423700  1
  F  F47  1  0.52395300  0.19346600  0.81423700  1
loop_
_geom_bond_atom_site_label_1
_geom_bond_atom_site_label_2
_geom_bond_distance
_geom_bond_site_symmetry_2
Bi0 F0 2.021685 1_555
Bi0 F12 2.025922 1_555
Bi0 F8 2.027846 1_555
Bi0 F36 2.028297 1_555
Bi0 F44 2.030835 1_555
Bi0 F4 2.279597 1_555
Bi1 F1 2.021685 1_655
Bi1 F13 2.025922 1_554
Bi1 F9 2.027846 1_555
Bi1 F37 2.028297 1_555
Bi1 F45 2.030835 1_655
Bi1 F5 2.279597 1_555
Bi2 F2 2.021685 1_455
Bi2 F14 2.025922 1_555
Bi2 F10 2.027846 1_555
Bi2 F38 2.028297 1_565
Bi2 F46 2.030835 1_455
Bi2 F6 2.279597 1_555
Bi3 F3 2.021685 1_555
Bi3 F15 2.025922 1_556
Bi3 F11 2.027846 1_555
Bi3 F39 2.028297 1_545
Bi3 F47 2.030835 1_555
Bi3 F7 2.279597 1_555
Bi4 F28 2.008532 1_655
Bi4 F20 2.015226 1_555
Bi4 F16 2.017061 1_655
Bi4 F24 2.019598 1_555
Bi4 F4 2.147778 1_555
Bi4 F32 2.183755 1_555
Bi5 F29 2.008532 1_555
Bi5 F21 2.015226 1_555
Bi5 F17 2.017061 1_555
Bi5 F25 2.019598 1_555
Bi5 F5 2.147778 1_555
Bi5 F33 2.183755 1_555
Bi6 F30 2.008532 1_555
Bi6 F22 2.015226 1_555
Bi6 F18 2.017061 1_555
Bi6 F26 2.019598 1_555
Bi6 F6 2.147778 1_555
Bi6 F34 2.183755 1_555
Bi7 F31 2.008532 1_455
Bi7 F23 2.015226 1_555
Bi7 F19 2.017061 1_455
Bi7 F27 2.019598 1_555
Bi7 F7 2.147778 1_555
Bi7 F35 2.183755 1_555
F32 Xe0 2.255737 1_565
F33 Xe1 2.255743 1_545
F34 Xe2 2.255743 1_555
F35 Xe3 2.255743 1_555
F40 Xe0 1.994637 1_555
F41 Xe1 1.994630 1_555
F42 Xe2 1.994630 1_555
F43 Xe3 1.994630 1_555
