# generated using pymatgen
data_Rb2ScSi4O10F
_symmetry_space_group_name_H-M   'P 1'
_cell_length_a   9.12125026
_cell_length_b   9.12125026
_cell_length_c   9.12125026
_cell_angle_alpha   102.38589694
_cell_angle_beta   102.38589694
_cell_angle_gamma   124.82069767
_symmetry_Int_Tables_number   1
_chemical_formula_structural   Rb2ScSi4O10F
_chemical_formula_sum   'Rb4 Sc2 Si8 O20 F2'
_cell_volume   552.14178303
_cell_formula_units_Z   2
loop_
 _symmetry_equiv_pos_site_id
 _symmetry_equiv_pos_as_xyz
  1  'x, y, z'
loop_
 _atom_site_type_symbol
 _atom_site_label
 _atom_site_symmetry_multiplicity
 _atom_site_fract_x
 _atom_site_fract_y
 _atom_site_fract_z
 _atom_site_occupancy
  Rb  Rb0  1  0.31164100  0.30750100  0.61914200  1
  Rb  Rb1  1  0.68835900  0.69249900  0.38085800  1
  Rb  Rb2  1  0.69249900  0.31164100  0.00414000  1
  Rb  Rb3  1  0.30750100  0.68835900  0.99586000  1
  Sc  Sc0  1  0.24262300  0.24262300  0.00000000  1
  Sc  Sc1  1  0.75737700  0.75737700  0.00000000  1
  Si  Si0  1  0.87688100  0.18230100  0.67856200  1
  Si  Si1  1  0.50373900  0.19831800  0.32143800  1
  Si  Si2  1  0.19831800  0.87688100  0.69458000  1
  Si  Si3  1  0.18230100  0.50373900  0.30542000  1
  Si  Si4  1  0.12311900  0.81769900  0.32143800  1
  Si  Si5  1  0.49626100  0.80168200  0.67856200  1
  Si  Si6  1  0.80168200  0.12311900  0.30542000  1
  Si  Si7  1  0.81769900  0.49626100  0.69458000  1
  O  O0  1  0.68003300  0.96205500  0.64208800  1
  O  O1  1  0.31996700  0.03794500  0.35791200  1
  O  O2  1  0.03794500  0.68003300  0.71797800  1
  O  O3  1  0.96205500  0.31996700  0.28202200  1
  O  O4  1  0.07433900  0.25744900  0.81571200  1
  O  O5  1  0.44173600  0.25862700  0.18428800  1
  O  O6  1  0.25862700  0.07433900  0.81689000  1
  O  O7  1  0.25744900  0.44173600  0.18311000  1
  O  O8  1  0.92566100  0.74255100  0.18428800  1
  O  O9  1  0.55826400  0.74137300  0.81571200  1
  O  O10  1  0.74137300  0.92566100  0.18311000  1
  O  O11  1  0.74255100  0.55826400  0.81689000  1
  O  O12  1  0.89604200  0.16519100  0.50022800  1
  O  O13  1  0.66496300  0.39581500  0.49977200  1
  O  O14  1  0.39581500  0.89604200  0.73085100  1
  O  O15  1  0.16519100  0.66496300  0.26914900  1
  O  O16  1  0.10395800  0.83480900  0.49977200  1
  O  O17  1  0.33503700  0.60418500  0.50022800  1
  O  O18  1  0.60418500  0.10395800  0.26914900  1
  O  O19  1  0.83480900  0.33503700  0.73085100  1
  F  F0  1  0.00000000  0.00000000  0.00000000  1
  F  F1  1  0.50000000  0.50000000  0.00000000  1
loop_
_geom_bond_atom_site_label_1
_geom_bond_atom_site_label_2
_geom_bond_distance
_geom_bond_site_symmetry_2
O0 Si5 1.645599 1_555
O0 Si0 1.645602 1_565
O0 Rb1 3.083188 1_555
O1 Si1 1.645599 1_555
O1 Si4 1.645602 1_545
O1 Rb0 3.083188 1_555
O2 Si2 1.645600 1_555
O2 Si7 1.645602 1_455
O2 Rb3 3.083188 1_555
O3 Si6 1.645600 1_555
O3 Si3 1.645602 1_655
O3 Rb2 3.083188 1_555
O4 Si0 1.591966 1_455
O4 Sc0 2.104197 1_556
O4 Rb3 2.975818 1_555
O4 Rb0 2.999276 1_555
O5 Si1 1.591976 1_555
O5 Sc0 2.104191 1_555
O5 Rb2 2.975825 1_555
O5 Rb1 2.999275 1_555
O6 Si2 1.591962 1_545
O6 Sc0 2.104197 1_556
O6 Rb0 2.975818 1_555
O6 Rb2 2.999276 1_556
O7 Si3 1.591970 1_555
O7 Sc0 2.104191 1_555
O7 Rb1 2.975817 1_555
O7 Rb3 2.999283 1_554
O8 Si4 1.591966 1_655
O8 Sc1 2.104197 1_555
O8 Rb2 2.975818 1_555
O8 Rb1 2.999276 1_555
O9 Si5 1.591976 1_555
O9 Sc1 2.104191 1_556
O9 Rb3 2.975825 1_555
O9 Rb0 2.999275 1_555
O10 Si6 1.591962 1_565
O10 Sc1 2.104197 1_555
O10 Rb1 2.975818 1_555
O10 Rb3 2.999276 1_554
O11 Si7 1.591970 1_555
O11 Sc1 2.104191 1_556
O11 Rb0 2.975817 1_555
O11 Rb2 2.999283 1_556
O12 Si6 1.649121 1_555
O12 Si0 1.656812 1_555
O12 Rb0 3.040417 1_655
O12 Rb1 3.337255 1_545
O13 Si7 1.649124 1_555
O13 Si1 1.656819 1_555
O13 Rb1 3.040408 1_555
O13 Rb0 3.337253 1_555
O14 Si5 1.649107 1_555
O14 Si2 1.656830 1_555
O14 Rb2 3.040417 1_566
O14 Rb3 3.337256 1_555
O15 Si4 1.649122 1_555
O15 Si3 1.656812 1_555
O15 Rb3 3.040417 1_554
O15 Rb2 3.337255 1_455
O16 Si2 1.649121 1_555
O16 Si4 1.656812 1_555
O16 Rb1 3.040417 1_455
O16 Rb0 3.337255 1_565
O17 Si3 1.649124 1_555
O17 Si5 1.656819 1_555
O17 Rb0 3.040408 1_555
O17 Rb1 3.337253 1_555
O18 Si1 1.649107 1_555
O18 Si6 1.656830 1_555
O18 Rb3 3.040417 1_544
O18 Rb2 3.337256 1_555
O19 Si0 1.649122 1_555
O19 Si7 1.656812 1_555
O19 Rb2 3.040417 1_556
O19 Rb3 3.337255 1_655
F0 Sc0 2.049863 1_555
F0 Sc1 2.049863 1_445
F1 Sc1 2.174516 1_555
F1 Sc0 2.174516 1_555
F1 Rb1 3.079056 1_555
F1 Rb0 3.079056 1_554
F1 Rb2 3.079056 1_555
F1 Rb3 3.079056 1_554
