# generated using pymatgen
data_Tb(AlSi)2
_symmetry_space_group_name_H-M   'P 1'
_cell_length_a   4.17878993
_cell_length_b   4.17878912
_cell_length_c   6.62183915
_cell_angle_alpha   90.00000000
_cell_angle_beta   90.00000000
_cell_angle_gamma   119.99999844
_symmetry_Int_Tables_number   1
_chemical_formula_structural   Tb(AlSi)2
_chemical_formula_sum   'Tb1 Al2 Si2'
_cell_volume   100.14061639
_cell_formula_units_Z   1
loop_
 _symmetry_equiv_pos_site_id
 _symmetry_equiv_pos_as_xyz
  1  'x, y, z'
loop_
 _atom_site_type_symbol
 _atom_site_label
 _atom_site_symmetry_multiplicity
 _atom_site_fract_x
 _atom_site_fract_y
 _atom_site_fract_z
 _atom_site_occupancy
  Tb  Tb0  1  -0.00000000  -0.00000000  0.00000000  1
  Al  Al0  1  0.66666700  0.33333300  0.35712717  1
  Al  Al1  1  0.33333300  0.66666700  0.64287283  1
  Si  Si0  1  0.66666700  0.33333300  0.73790499  1
  Si  Si1  1  0.33333300  0.66666700  0.26209501  1
loop_
_geom_bond_atom_site_label_1
_geom_bond_atom_site_label_2
_geom_bond_distance
_geom_bond_site_symmetry_2
Al0 Si1 2.493341 1_545
Al0 Si1 2.493342 1_655
Al0 Si1 2.493349 1_555
Al0 Si0 2.521449 1_555
Al1 Si0 2.493341 1_565
Al1 Si0 2.493342 1_455
Al1 Si0 2.493349 1_555
Al1 Si1 2.521449 1_555
Si0 Tb0 2.972017 1_656
Si0 Tb0 2.972020 1_666
Si0 Tb0 2.972020 1_556
Si1 Tb0 2.972017 1_565
Si1 Tb0 2.972020 1_555
Si1 Tb0 2.972020 1_665
