# generated using pymatgen
data_YMg14CoO16
_symmetry_space_group_name_H-M   'P 1'
_cell_length_a   4.33214700
_cell_length_b   8.64134300
_cell_length_c   8.68316200
_cell_angle_alpha   90.00000000
_cell_angle_beta   90.00000000
_cell_angle_gamma   90.00000000
_symmetry_Int_Tables_number   1
_chemical_formula_structural   YMg14CoO16
_chemical_formula_sum   'Y1 Mg14 Co1 O16'
_cell_volume   325.05910284
_cell_formula_units_Z   1
loop_
 _symmetry_equiv_pos_site_id
 _symmetry_equiv_pos_as_xyz
  1  'x, y, z'
loop_
 _atom_site_type_symbol
 _atom_site_label
 _atom_site_symmetry_multiplicity
 _atom_site_fract_x
 _atom_site_fract_y
 _atom_site_fract_z
 _atom_site_occupancy
  Y  Y0  1  0.00000000  0.00000000  0.00000000  1
  Mg  Mg0  1  0.00000000  0.50000000  0.00000000  1
  Mg  Mg1  1  0.00000000  0.50000000  0.50000000  1
  Mg  Mg2  1  0.50000000  0.00000000  0.26920200  1
  Mg  Mg3  1  0.50000000  0.00000000  0.73079800  1
  Mg  Mg4  1  0.50000000  0.50000000  0.25425800  1
  Mg  Mg5  1  0.50000000  0.50000000  0.74574200  1
  Mg  Mg6  1  0.50000000  0.26209400  0.00000000  1
  Mg  Mg7  1  0.50000000  0.24709800  0.50000000  1
  Mg  Mg8  1  0.50000000  0.73790600  0.00000000  1
  Mg  Mg9  1  0.50000000  0.75290200  0.50000000  1
  Mg  Mg10  1  0.00000000  0.25320300  0.26216800  1
  Mg  Mg11  1  0.00000000  0.25320300  0.73783200  1
  Mg  Mg12  1  0.00000000  0.74679700  0.26216800  1
  Mg  Mg13  1  0.00000000  0.74679700  0.73783200  1
  Co  Co0  1  0.00000000  0.00000000  0.50000000  1
  O  O0  1  0.00000000  0.26070700  0.00000000  1
  O  O1  1  0.00000000  0.26592600  0.50000000  1
  O  O2  1  0.00000000  0.73929300  0.00000000  1
  O  O3  1  0.00000000  0.73407400  0.50000000  1
  O  O4  1  0.50000000  0.24924700  0.24893200  1
  O  O5  1  0.50000000  0.24924700  0.75106800  1
  O  O6  1  0.50000000  0.75075300  0.24893200  1
  O  O7  1  0.50000000  0.75075300  0.75106800  1
  O  O8  1  0.50000000  0.00000000  0.00000000  1
  O  O9  1  0.50000000  0.00000000  0.50000000  1
  O  O10  1  0.50000000  0.50000000  0.00000000  1
  O  O11  1  0.50000000  0.50000000  0.50000000  1
  O  O12  1  0.00000000  0.00000000  0.25130500  1
  O  O13  1  0.00000000  0.00000000  0.74869500  1
  O  O14  1  0.00000000  0.50000000  0.24848600  1
  O  O15  1  0.00000000  0.50000000  0.75151400  1
loop_
_geom_bond_atom_site_label_1
_geom_bond_atom_site_label_2
_geom_bond_distance
_geom_bond_site_symmetry_2
Mg0 O2 2.067813 1_555
Mg0 O0 2.067813 1_555
Mg0 O14 2.157644 1_555
Mg0 O15 2.157644 1_554
Mg0 O10 2.166073 1_455
Mg0 O10 2.166073 1_555
Mg1 O3 2.022714 1_555
Mg1 O1 2.022714 1_555
Mg1 O11 2.166073 1_555
Mg1 O11 2.166073 1_455
Mg1 O15 2.183937 1_555
Mg1 O14 2.183937 1_555
Mg2 O9 2.004056 1_555
Mg2 O6 2.161008 1_545
Mg2 O4 2.161008 1_555
Mg2 O12 2.171641 1_655
Mg2 O12 2.171641 1_555
Mg2 O8 2.337525 1_555
Mg3 O9 2.004056 1_555
Mg3 O5 2.161008 1_555
Mg3 O7 2.161008 1_545
Mg3 O13 2.171641 1_655
Mg3 O13 2.171641 1_555
Mg3 O8 2.337525 1_556
Mg4 O11 2.133818 1_555
Mg4 O14 2.166653 1_555
Mg4 O14 2.166653 1_655
Mg4 O4 2.167336 1_555
Mg4 O6 2.167336 1_555
Mg4 O10 2.207763 1_555
Mg5 O11 2.133818 1_555
Mg5 O15 2.166653 1_655
Mg5 O15 2.166653 1_555
Mg5 O5 2.167336 1_555
Mg5 O7 2.167336 1_555
Mg5 O10 2.207763 1_556
Mg6 O10 2.055827 1_555
Mg6 O4 2.164366 1_555
Mg6 O5 2.164366 1_554
Mg6 O0 2.166107 1_655
Mg6 O0 2.166107 1_555
Mg6 O8 2.264844 1_555
Mg7 O9 2.135259 1_555
Mg7 O1 2.172175 1_655
Mg7 O1 2.172175 1_555
Mg7 O5 2.180143 1_555
Mg7 O4 2.180143 1_555
Mg7 O11 2.185413 1_555
Mg8 O10 2.055827 1_555
Mg8 O6 2.164366 1_555
Mg8 O7 2.164366 1_554
Mg8 O2 2.166107 1_555
Mg8 O2 2.166107 1_655
Mg8 O8 2.264844 1_565
Mg9 O9 2.135259 1_565
Mg9 O3 2.172175 1_655
Mg9 O3 2.172175 1_555
Mg9 O7 2.180143 1_555
Mg9 O6 2.180143 1_555
Mg9 O11 2.185413 1_555
Mg10 O1 2.068058 1_555
Mg10 O14 2.135964 1_555
Mg10 O4 2.169390 1_455
Mg10 O4 2.169390 1_555
Mg10 O12 2.190046 1_555
Mg10 O0 2.277371 1_555
Mg11 O1 2.068058 1_555
Mg11 O15 2.135964 1_555
Mg11 O5 2.169390 1_555
Mg11 O5 2.169390 1_455
Mg11 O13 2.190046 1_555
Mg11 O0 2.277371 1_556
Mg12 O3 2.068058 1_555
Mg12 O14 2.135964 1_555
Mg12 O6 2.169390 1_455
Mg12 O6 2.169390 1_555
Mg12 O12 2.190046 1_565
Mg12 O2 2.277371 1_555
Mg13 O3 2.068058 1_555
Mg13 O15 2.135964 1_555
Mg13 O7 2.169390 1_455
Mg13 O7 2.169390 1_555
Mg13 O13 2.190046 1_565
Mg13 O2 2.277371 1_556
Co0 O12 2.159459 1_555
Co0 O13 2.159459 1_555
Co0 O9 2.166073 1_455
Co0 O9 2.166073 1_555
Co0 O3 2.297958 1_545
Co0 O1 2.297958 1_555
O0 Y0 2.252859 1_555
O2 Y0 2.252859 1_565
O8 Y0 2.166073 1_555
O8 Y0 2.166073 1_655
O12 Y0 2.182122 1_555
O13 Y0 2.182122 1_556
