# generated using pymatgen
data_Ba3Ta5O15
_symmetry_space_group_name_H-M   'P 1'
_cell_length_a   12.66428738
_cell_length_b   12.66428738
_cell_length_c   3.99099453
_cell_angle_alpha   90.00000000
_cell_angle_beta   90.00000000
_cell_angle_gamma   90.00000000
_symmetry_Int_Tables_number   1
_chemical_formula_structural   Ba3Ta5O15
_chemical_formula_sum   'Ba6 Ta10 O30'
_cell_volume   640.09236450
_cell_formula_units_Z   2
loop_
 _symmetry_equiv_pos_site_id
 _symmetry_equiv_pos_as_xyz
  1  'x, y, z'
loop_
 _atom_site_type_symbol
 _atom_site_label
 _atom_site_symmetry_multiplicity
 _atom_site_fract_x
 _atom_site_fract_y
 _atom_site_fract_z
 _atom_site_occupancy
  Ba  Ba0  1  0.00000000  0.00000000  0.00000000  1
  Ba  Ba1  1  0.50000000  0.50000000  0.00000000  1
  Ba  Ba2  1  0.66933270  0.16933270  -0.00000000  1
  Ba  Ba3  1  0.16933270  0.33066730  0.00000000  1
  Ba  Ba4  1  0.83066730  0.66933270  -0.00000000  1
  Ba  Ba5  1  0.33066730  0.83066730  0.00000000  1
  Ta  Ta0  1  0.07650675  0.78673821  0.50000000  1
  Ta  Ta1  1  0.21326179  0.07650675  0.50000000  1
  Ta  Ta2  1  0.00000000  0.50000000  0.50000000  1
  Ta  Ta3  1  0.50000000  0.00000000  0.50000000  1
  Ta  Ta4  1  0.92349325  0.21326179  0.50000000  1
  Ta  Ta5  1  0.78673821  0.92349325  0.50000000  1
  Ta  Ta6  1  0.28673821  0.57650675  0.50000000  1
  Ta  Ta7  1  0.71326179  0.42349325  0.50000000  1
  Ta  Ta8  1  0.57650675  0.71326179  0.50000000  1
  Ta  Ta9  1  0.42349325  0.28673821  0.50000000  1
  O  O0  1  0.35901156  0.43164827  0.50000000  1
  O  O1  1  0.64098844  0.56835173  0.50000000  1
  O  O2  1  0.56835173  0.35901156  0.50000000  1
  O  O3  1  0.43164827  0.64098844  0.50000000  1
  O  O4  1  0.93164827  0.85901156  0.50000000  1
  O  O5  1  0.85901156  0.06835173  0.50000000  1
  O  O6  1  0.14098844  0.93164827  0.50000000  1
  O  O7  1  0.06835173  0.14098844  0.50000000  1
  O  O8  1  0.15619780  0.49363140  0.50000000  1
  O  O9  1  0.84380220  0.50636860  0.50000000  1
  O  O10  1  0.50636860  0.15619780  0.50000000  1
  O  O11  1  0.49363140  0.84380220  0.50000000  1
  O  O12  1  0.99363140  0.65619780  0.50000000  1
  O  O13  1  0.65619780  0.00636860  0.50000000  1
  O  O14  1  0.34380220  0.99363140  0.50000000  1
  O  O15  1  0.00636860  0.34380220  0.50000000  1
  O  O16  1  0.50000000  0.00000000  0.00000000  1
  O  O17  1  0.00000000  0.50000000  0.00000000  1
  O  O18  1  0.78167098  0.28167098  0.50000000  1
  O  O19  1  0.28167098  0.21832902  0.50000000  1
  O  O20  1  0.71832902  0.78167098  0.50000000  1
  O  O21  1  0.21832902  0.71832902  0.50000000  1
  O  O22  1  0.20852767  0.07796898  -0.00000000  1
  O  O23  1  0.07796898  0.79147233  0.00000000  1
  O  O24  1  0.92203102  0.20852767  -0.00000000  1
  O  O25  1  0.79147233  0.92203102  0.00000000  1
  O  O26  1  0.29147233  0.57796898  0.00000000  1
  O  O27  1  0.70852767  0.42203102  -0.00000000  1
  O  O28  1  0.57796898  0.70852767  -0.00000000  1
  O  O29  1  0.42203102  0.29147233  0.00000000  1
loop_
_geom_bond_atom_site_label_1
_geom_bond_atom_site_label_2
_geom_bond_distance
_geom_bond_site_symmetry_2
Ba0 O7 2.814142 1_555
Ba0 O7 2.814142 1_554
Ba0 O5 2.814142 1_455
Ba0 O5 2.814142 1_454
Ba0 O6 2.814142 1_545
Ba0 O4 2.814142 1_444
Ba0 O4 2.814142 1_445
Ba0 O6 2.814142 1_544
Ba0 O22 2.819417 1_555
Ba0 O24 2.819417 1_455
Ba0 O25 2.819417 1_445
Ba0 O23 2.819417 1_545
Ba1 O3 2.814142 1_554
Ba1 O0 2.814142 1_555
Ba1 O0 2.814142 1_554
Ba1 O3 2.814142 1_555
Ba1 O1 2.814142 1_555
Ba1 O2 2.814142 1_554
Ba1 O1 2.814142 1_554
Ba1 O2 2.814142 1_555
Ba1 O26 2.819417 1_555
Ba1 O29 2.819417 1_555
Ba1 O28 2.819417 1_555
Ba1 O27 2.819417 1_555
Ba2 O18 2.833738 1_554
Ba2 O18 2.833738 1_555
Ba2 O13 2.875596 1_555
Ba2 O13 2.875596 1_554
Ba2 O10 2.875596 1_554
Ba2 O10 2.875596 1_555
Ba3 O19 2.833738 1_555
Ba3 O19 2.833738 1_554
Ba3 O15 2.875596 1_555
Ba3 O15 2.875596 1_554
Ba3 O8 2.875596 1_555
Ba3 O8 2.875596 1_554
Ba4 O20 2.833738 1_555
Ba4 O20 2.833738 1_554
Ba4 O12 2.875596 1_554
Ba4 O12 2.875596 1_555
Ba4 O9 2.875596 1_555
Ba4 O9 2.875596 1_554
Ba5 O21 2.833738 1_555
Ba5 O21 2.833738 1_554
Ba5 O14 2.875596 1_554
Ba5 O11 2.875596 1_554
Ba5 O11 2.875596 1_555
Ba5 O14 2.875596 1_555
O0 Ta9 2.008670 1_555
O0 Ta6 2.050184 1_555
O1 Ta8 2.008670 1_555
O1 Ta7 2.050184 1_555
O2 Ta7 2.008670 1_555
O2 Ta9 2.050184 1_555
O3 Ta6 2.008670 1_555
O3 Ta8 2.050184 1_555
O4 Ta5 2.008670 1_555
O4 Ta0 2.050184 1_655
O5 Ta4 2.008670 1_555
O5 Ta5 2.050184 1_545
O6 Ta0 2.008670 1_555
O6 Ta1 2.050184 1_565
O7 Ta1 2.008670 1_555
O7 Ta4 2.050184 1_455
O8 Ta6 1.958225 1_555
O8 Ta2 1.979777 1_555
O9 Ta7 1.958225 1_555
O9 Ta2 1.979777 1_655
O10 Ta9 1.958225 1_555
O10 Ta3 1.979777 1_555
O11 Ta8 1.958225 1_555
O11 Ta3 1.979777 1_565
O12 Ta0 1.958225 1_655
O12 Ta2 1.979777 1_655
O13 Ta5 1.958225 1_545
O13 Ta3 1.979777 1_555
O14 Ta1 1.958225 1_565
O14 Ta3 1.979777 1_565
O15 Ta4 1.958225 1_455
O15 Ta2 1.979777 1_555
O16 Ta3 1.995497 1_554
O16 Ta3 1.995497 1_555
O17 Ta2 1.995497 1_555
O17 Ta2 1.995497 1_554
O18 Ta7 1.994108 1_555
O18 Ta4 1.994108 1_555
O19 Ta9 1.994108 1_555
O19 Ta1 1.994108 1_555
O20 Ta5 1.994108 1_555
O20 Ta8 1.994108 1_555
O21 Ta6 1.994108 1_555
O21 Ta0 1.994108 1_555
O22 Ta1 1.996484 1_555
O22 Ta1 1.996484 1_554
O23 Ta0 1.996484 1_554
O23 Ta0 1.996484 1_555
O24 Ta4 1.996484 1_555
O24 Ta4 1.996484 1_554
O25 Ta5 1.996484 1_554
O25 Ta5 1.996484 1_555
O26 Ta6 1.996484 1_554
O26 Ta6 1.996484 1_555
O27 Ta7 1.996484 1_555
O27 Ta7 1.996484 1_554
O28 Ta8 1.996484 1_554
O28 Ta8 1.996484 1_555
O29 Ta9 1.996484 1_555
O29 Ta9 1.996484 1_554
