# generated using pymatgen
data_Na2Mg2(Si2O5)3
_symmetry_space_group_name_H-M   'P 1'
_cell_length_a   11.43694215
_cell_length_b   11.43694215
_cell_length_c   10.32022100
_cell_angle_alpha   90.00000000
_cell_angle_beta   90.00000000
_cell_angle_gamma   101.90639339
_symmetry_Int_Tables_number   1
_chemical_formula_structural   Na2Mg2(Si2O5)3
_chemical_formula_sum   'Na8 Mg8 Si24 O60'
_cell_volume   1320.88025640
_cell_formula_units_Z   4
loop_
 _symmetry_equiv_pos_site_id
 _symmetry_equiv_pos_as_xyz
  1  'x, y, z'
loop_
 _atom_site_type_symbol
 _atom_site_label
 _atom_site_symmetry_multiplicity
 _atom_site_fract_x
 _atom_site_fract_y
 _atom_site_fract_z
 _atom_site_occupancy
  Na  Na0  1  0.98085000  0.51915000  0.75000000  1
  Na  Na1  1  0.51915000  0.98085000  0.25000000  1
  Na  Na2  1  0.01915000  0.48085000  0.25000000  1
  Na  Na3  1  0.48085000  0.01915000  0.75000000  1
  Na  Na4  1  0.90847500  0.09152500  0.76080000  1
  Na  Na5  1  0.59152500  0.40847500  0.26080000  1
  Na  Na6  1  0.09152500  0.90847500  0.23920000  1
  Na  Na7  1  0.40847500  0.59152500  0.73920000  1
  Mg  Mg0  1  0.66070100  0.83929900  0.75000000  1
  Mg  Mg1  1  0.83929900  0.66070100  0.25000000  1
  Mg  Mg2  1  0.33929900  0.16070100  0.25000000  1
  Mg  Mg3  1  0.16070100  0.33929900  0.75000000  1
  Mg  Mg4  1  0.74865500  0.74865500  0.50000000  1
  Mg  Mg5  1  0.75134500  0.75134500  0.00000000  1
  Mg  Mg6  1  0.25134500  0.25134500  0.50000000  1
  Mg  Mg7  1  0.24865500  0.24865500  0.00000000  1
  Si  Si0  1  0.69558000  0.07946700  0.95972500  1
  Si  Si1  1  0.80442000  0.42053300  0.45972500  1
  Si  Si2  1  0.07946700  0.69558000  0.04027500  1
  Si  Si3  1  0.42053300  0.80442000  0.54027500  1
  Si  Si4  1  0.30442000  0.92053300  0.04027500  1
  Si  Si5  1  0.19558000  0.57946700  0.54027500  1
  Si  Si6  1  0.92053300  0.30442000  0.95972500  1
  Si  Si7  1  0.57946700  0.19558000  0.45972500  1
  Si  Si8  1  0.81444800  0.96392300  0.18959600  1
  Si  Si9  1  0.68555200  0.53607700  0.68959600  1
  Si  Si10  1  0.96392300  0.81444800  0.81040400  1
  Si  Si11  1  0.53607700  0.68555200  0.31040400  1
  Si  Si12  1  0.18555200  0.03607700  0.81040400  1
  Si  Si13  1  0.31444800  0.46392300  0.31040400  1
  Si  Si14  1  0.03607700  0.18555200  0.18959600  1
  Si  Si15  1  0.46392300  0.31444800  0.68959600  1
  Si  Si16  1  0.75764900  0.02143600  0.48633200  1
  Si  Si17  1  0.74235100  0.47856400  0.98633200  1
  Si  Si18  1  0.02143600  0.75764900  0.51366800  1
  Si  Si19  1  0.47856400  0.74235100  0.01366800  1
  Si  Si20  1  0.24235100  0.97856400  0.51366800  1
  Si  Si21  1  0.25764900  0.52143600  0.01366800  1
  Si  Si22  1  0.97856400  0.24235100  0.48633200  1
  Si  Si23  1  0.52143600  0.25764900  0.98633200  1
  O  O0  1  0.18159700  0.81840300  0.05998800  1
  O  O1  1  0.31840300  0.68159700  0.55998800  1
  O  O2  1  0.81840300  0.18159700  0.94001200  1
  O  O3  1  0.68159700  0.31840300  0.44001200  1
  O  O4  1  0.05250200  0.94749800  0.82185800  1
  O  O5  1  0.44749800  0.55250200  0.32185800  1
  O  O6  1  0.94749800  0.05250200  0.17814200  1
  O  O7  1  0.55250200  0.44749800  0.67814200  1
  O  O8  1  0.12010400  0.87989600  0.47562200  1
  O  O9  1  0.37989600  0.62010400  0.97562200  1
  O  O10  1  0.87989600  0.12010400  0.52437800  1
  O  O11  1  0.62010400  0.37989600  0.02437800  1
  O  O12  1  0.67010400  0.00533300  0.82896500  1
  O  O13  1  0.82989600  0.49466700  0.32896500  1
  O  O14  1  0.00533300  0.67010400  0.17103500  1
  O  O15  1  0.49466700  0.82989600  0.67103500  1
  O  O16  1  0.32989600  0.99466700  0.17103500  1
  O  O17  1  0.17010400  0.50533300  0.67103500  1
  O  O18  1  0.99466700  0.32989600  0.82896500  1
  O  O19  1  0.50533300  0.17010400  0.32896500  1
  O  O20  1  0.71599600  0.00224700  0.09048900  1
  O  O21  1  0.78400400  0.49775300  0.59048900  1
  O  O22  1  0.00224700  0.71599600  0.90951100  1
  O  O23  1  0.49775300  0.78400400  0.40951100  1
  O  O24  1  0.24034700  0.01801200  0.66669600  1
  O  O25  1  0.28400400  0.99775300  0.90951100  1
  O  O26  1  0.99775300  0.28400400  0.09048900  1
  O  O27  1  0.50224700  0.21599600  0.59048900  1
  O  O28  1  0.82797100  0.83022400  0.15828700  1
  O  O29  1  0.67202900  0.66977600  0.65828700  1
  O  O30  1  0.83022400  0.82797100  0.84171300  1
  O  O31  1  0.66977600  0.67202900  0.34171300  1
  O  O32  1  0.17202900  0.16977600  0.84171300  1
  O  O33  1  0.32797100  0.33022400  0.34171300  1
  O  O34  1  0.16977600  0.17202900  0.15828700  1
  O  O35  1  0.33022400  0.32797100  0.65828700  1
  O  O36  1  0.75965300  0.98198800  0.33330400  1
  O  O37  1  0.74034700  0.51801200  0.83330400  1
  O  O38  1  0.98198800  0.75965300  0.66669600  1
  O  O39  1  0.51801200  0.74034700  0.16669600  1
  O  O40  1  0.58424700  0.14238800  0.00276400  1
  O  O41  1  0.91575300  0.35761200  0.50276400  1
  O  O42  1  0.14238800  0.58424700  0.99723600  1
  O  O43  1  0.35761200  0.91575300  0.49723600  1
  O  O44  1  0.41575300  0.85761200  0.99723600  1
  O  O45  1  0.08424700  0.64238800  0.49723600  1
  O  O46  1  0.85761200  0.41575300  0.00276400  1
  O  O47  1  0.64238800  0.08424700  0.50276400  1
  O  O48  1  0.40672300  0.24965600  0.07729400  1
  O  O49  1  0.09327700  0.25034400  0.57729400  1
  O  O50  1  0.24965600  0.40672300  0.92270600  1
  O  O51  1  0.25034400  0.09327700  0.42270600  1
  O  O52  1  0.59327700  0.75034400  0.92270600  1
  O  O53  1  0.90672300  0.74965600  0.42270600  1
  O  O54  1  0.75034400  0.59327700  0.07729400  1
  O  O55  1  0.74965600  0.90672300  0.57729400  1
  O  O56  1  0.48198800  0.25965300  0.83330400  1
  O  O57  1  0.01801200  0.24034700  0.33330400  1
  O  O58  1  0.25965300  0.48198800  0.16669600  1
  O  O59  1  0.21599600  0.50224700  0.40951100  1
loop_
_geom_bond_atom_site_label_1
_geom_bond_atom_site_label_2
_geom_bond_distance
_geom_bond_site_symmetry_2
Na0 O17 2.348453 1_655
Na0 O18 2.348453 1_555
Na0 O22 2.758789 1_655
Na0 O21 2.758789 1_555
Na0 O38 2.879308 1_555
Na0 O37 2.879308 1_555
Na1 O19 2.348453 1_565
Na1 O16 2.348453 1_555
Na1 O20 2.758789 1_565
Na1 O23 2.758789 1_555
Na1 O36 2.879308 1_555
Na1 O39 2.879308 1_555
Na2 O14 2.348453 1_555
Na2 O13 2.348453 1_455
Na2 O59 2.758789 1_555
Na2 O26 2.758789 1_455
Na2 O58 2.879308 1_555
Na2 O57 2.879308 1_555
Na3 O12 2.348453 1_555
Na3 O15 2.348453 1_545
Na3 O25 2.758789 1_545
Na3 O27 2.758789 1_555
Na3 O56 2.879308 1_555
Na3 O24 2.879308 1_555
Na4 O2 2.445602 1_555
Na4 O10 2.492187 1_555
Na4 O4 2.635032 1_645
Na4 O18 2.791071 1_555
Na4 O12 2.791071 1_555
Na5 O3 2.445602 1_555
Na5 O11 2.492187 1_555
Na5 O5 2.635032 1_555
Na5 O13 2.791071 1_555
Na5 O19 2.791071 1_555
Na6 O0 2.445602 1_555
Na6 O8 2.492187 1_555
Na6 O6 2.635032 1_465
Na6 O16 2.791071 1_555
Na6 O14 2.791071 1_555
Na7 O1 2.445602 1_555
Na7 O9 2.492187 1_555
Na7 O7 2.635032 1_555
Na7 O15 2.791071 1_555
Na7 O17 2.791071 1_555
Mg0 O12 2.048737 1_565
Mg0 O15 2.048737 1_555
Mg0 O52 2.117260 1_555
Mg0 O55 2.117260 1_555
Mg0 O30 2.185254 1_555
Mg0 O29 2.185254 1_555
Mg1 O14 2.048737 1_655
Mg1 O13 2.048737 1_555
Mg1 O53 2.117260 1_555
Mg1 O54 2.117260 1_555
Mg1 O28 2.185254 1_555
Mg1 O31 2.185254 1_555
Mg2 O16 2.048737 1_545
Mg2 O19 2.048737 1_555
Mg2 O51 2.117260 1_555
Mg2 O48 2.117260 1_555
Mg2 O33 2.185254 1_555
Mg2 O34 2.185254 1_555
Mg3 O18 2.048737 1_455
Mg3 O17 2.048737 1_555
Mg3 O49 2.117260 1_555
Mg3 O50 2.117260 1_555
Mg3 O35 2.185254 1_555
Mg3 O32 2.185254 1_555
Mg4 O55 1.973853 1_555
Mg4 O53 1.973853 1_555
Mg4 O29 1.980947 1_555
Mg4 O31 1.980947 1_555
Mg5 O54 1.973853 1_555
Mg5 O52 1.973853 1_554
Mg5 O28 1.980947 1_555
Mg5 O30 1.980947 1_554
Mg6 O49 1.973853 1_555
Mg6 O51 1.973853 1_555
Mg6 O35 1.980947 1_555
Mg6 O33 1.980947 1_555
Mg7 O48 1.973853 1_555
Mg7 O50 1.973853 1_554
Mg7 O34 1.980947 1_555
Mg7 O32 1.980947 1_554
O0 Si2 1.643759 1_555
O0 Si4 1.643759 1_555
O1 Si3 1.643759 1_555
O1 Si5 1.643759 1_555
O2 Si0 1.643759 1_555
O2 Si6 1.643759 1_555
O3 Si1 1.643759 1_555
O3 Si7 1.643759 1_555
O4 Si12 1.649157 1_565
O4 Si10 1.649157 1_455
O5 Si13 1.649157 1_555
O5 Si11 1.649157 1_555
O6 Si14 1.649157 1_655
O6 Si8 1.649157 1_545
O7 Si15 1.649157 1_555
O7 Si9 1.649157 1_555
O8 Si18 1.652679 1_555
O8 Si20 1.652679 1_555
O9 Si21 1.652679 1_556
O9 Si19 1.652679 1_556
O10 Si16 1.652679 1_555
O10 Si22 1.652679 1_555
O11 Si23 1.652679 1_554
O11 Si17 1.652679 1_554
O12 Si0 1.588368 1_555
O13 Si1 1.588368 1_555
O14 Si2 1.588368 1_555
O15 Si3 1.588368 1_555
O16 Si4 1.588368 1_555
O17 Si5 1.588368 1_555
O18 Si6 1.588368 1_555
O19 Si7 1.588368 1_555
O20 Si8 1.646130 1_545
O20 Si0 1.655527 1_554
O21 Si9 1.646130 1_555
O21 Si1 1.655527 1_555
O22 Si10 1.646130 1_455
O22 Si2 1.655527 1_556
O23 Si11 1.646130 1_555
O23 Si3 1.655527 1_555
O24 Si12 1.639644 1_555
O24 Si20 1.643921 1_545
O25 Si12 1.646130 1_565
O25 Si4 1.655527 1_556
O26 Si14 1.646130 1_655
O26 Si6 1.655527 1_554
O27 Si15 1.646130 1_555
O27 Si7 1.655527 1_555
O28 Si8 1.601274 1_555
O29 Si9 1.601274 1_555
O30 Si10 1.601274 1_555
O31 Si11 1.601274 1_555
O32 Si12 1.601274 1_555
O33 Si13 1.601274 1_555
O34 Si14 1.601274 1_555
O35 Si15 1.601274 1_555
O36 Si8 1.639644 1_555
O36 Si16 1.643921 1_565
O37 Si9 1.639644 1_555
O37 Si17 1.643921 1_555
O38 Si10 1.639644 1_555
O38 Si18 1.643921 1_655
O39 Si11 1.639644 1_555
O39 Si19 1.643921 1_555
O40 Si23 1.635021 1_554
O40 Si0 1.647591 1_554
O41 Si22 1.635021 1_555
O41 Si1 1.647591 1_555
O42 Si21 1.635021 1_556
O42 Si2 1.647591 1_556
O43 Si20 1.635021 1_555
O43 Si3 1.647591 1_555
O44 Si19 1.635021 1_556
O44 Si4 1.647591 1_556
O45 Si18 1.635021 1_555
O45 Si5 1.647591 1_555
O46 Si17 1.635021 1_554
O46 Si6 1.647591 1_554
O47 Si16 1.635021 1_555
O47 Si7 1.647591 1_555
O48 Si23 1.600428 1_554
O49 Si22 1.600428 1_455
O50 Si21 1.600428 1_556
O51 Si20 1.600428 1_545
O52 Si19 1.600428 1_556
O53 Si18 1.600428 1_655
O54 Si17 1.600428 1_554
O55 Si16 1.600428 1_565
O56 Si15 1.639644 1_555
O56 Si23 1.643921 1_555
O57 Si14 1.639644 1_555
O57 Si22 1.643921 1_455
O58 Si13 1.639644 1_555
O58 Si21 1.643921 1_555
O59 Si13 1.646130 1_555
O59 Si5 1.655527 1_555
