# generated using pymatgen
data_Ba13Ca2Re9(ClO15)3
_symmetry_space_group_name_H-M   'P 1'
_cell_length_a   7.88862140
_cell_length_b   19.00000815
_cell_length_c   18.99977044
_cell_angle_alpha   120.00048747
_cell_angle_beta   89.99995199
_cell_angle_gamma   90.00172080
_symmetry_Int_Tables_number   1
_chemical_formula_structural   Ba13Ca2Re9(ClO15)3
_chemical_formula_sum   'Ba26 Ca4 Re18 Cl6 O90'
_cell_volume   2466.21964326
_cell_formula_units_Z   2
loop_
 _symmetry_equiv_pos_site_id
 _symmetry_equiv_pos_as_xyz
  1  'x, y, z'
loop_
 _atom_site_type_symbol
 _atom_site_label
 _atom_site_symmetry_multiplicity
 _atom_site_fract_x
 _atom_site_fract_y
 _atom_site_fract_z
 _atom_site_occupancy
  Ba  Ba0  1  0.76735035  0.08889892  0.17564563  1
  Ba  Ba1  1  0.76645275  0.75189046  0.50748227  1
  Ba  Ba2  1  0.76677036  0.41961977  0.84105996  1
  Ba  Ba3  1  0.76739274  0.42007198  0.57775441  1
  Ba  Ba4  1  0.76651641  0.08892905  0.91478025  1
  Ba  Ba5  1  0.76670423  0.75477096  0.24703171  1
  Ba  Ba6  1  0.76732533  0.49100578  0.24657725  1
  Ba  Ba7  1  0.76646255  0.15918271  0.57773472  1
  Ba  Ba8  1  0.76672520  0.82560621  0.91190476  1
  Ba  Ba9  1  0.26755380  0.91180046  0.82523769  1
  Ba  Ba10  1  0.26727347  0.57777435  0.15896372  1
  Ba  Ba11  1  0.26750309  0.24645942  0.49101919  1
  Ba  Ba12  1  0.26745273  0.57789095  0.42018432  1
  Ba  Ba13  1  0.26753300  0.24676221  0.75486508  1
  Ba  Ba14  1  0.26725375  0.91452283  0.08890880  1
  Ba  Ba15  1  0.26734478  0.17567335  0.08878382  1
  Ba  Ba16  1  0.26757152  0.84141896  0.41989520  1
  Ba  Ba17  1  0.26723902  0.50771385  0.75214760  1
  Ba  Ba18  1  0.51484627  0.33291720  0.00135140  1
  Ba  Ba19  1  0.51476095  0.00175767  0.33377185  1
  Ba  Ba20  1  0.51482311  0.66530816  0.66490788  1
  Ba  Ba21  1  0.51023649  0.99997831  0.66665485  1
  Ba  Ba22  1  0.51031442  0.66667858  0.00002320  1
  Ba  Ba23  1  0.51456879  0.33334241  0.33335963  1
  Ba  Ba24  1  0.01037192  -0.00001088  0.66667543  1
  Ba  Ba25  1  0.01020208  0.66665618  0.00000669  1
  Ca  Ca0  1  0.02410001  0.33333062  0.33334608  1
  Ca  Ca1  1  0.02362789  0.33263158  0.99884898  1
  Ca  Ca2  1  0.02356726  0.99954134  0.33401215  1
  Ca  Ca3  1  0.02356506  0.66781155  0.66713156  1
  Re  Re0  1  0.20035064  0.13155018  0.26249254  1
  Re  Re1  1  0.20591776  0.79357238  0.59423266  1
  Re  Re2  1  0.20585313  0.46046525  0.92792380  1
  Re  Re3  1  0.20035043  0.46416281  0.53502494  1
  Re  Re4  1  0.20584325  0.13393402  0.87301314  1
  Re  Re5  1  0.20557807  0.80078001  0.20616757  1
  Re  Re6  1  0.20028988  0.40422281  0.20249647  1
  Re  Re7  1  0.20579360  0.07239877  0.53262768  1
  Re  Re8  1  0.20556493  0.73869404  0.86588665  1
  Re  Re9  1  0.71802554  0.86920654  0.74150357  1
  Re  Re10  1  0.71799274  0.53586833  0.07523286  1
  Re  Re11  1  0.72301627  0.20461731  0.40812247  1
  Re  Re12  1  0.72284069  0.53681992  0.46194345  1
  Re  Re13  1  0.71821027  0.20551378  0.79735895  1
  Re  Re14  1  0.71794986  0.87268595  0.13080392  1
  Re  Re15  1  0.72286109  0.25846977  0.12987843  1
  Re  Re16  1  0.71794308  0.92518649  0.46106828  1
  Re  Re17  1  0.71807955  0.59139779  0.79396855  1
  Cl  Cl0  1  0.05131730  0.99977883  0.00013211  1
  Cl  Cl1  1  0.05130154  0.66654032  0.33296283  1
  Cl  Cl2  1  0.05129248  0.33369858  0.66689928  1
  Cl  Cl3  1  0.54900935  0.99998835  0.00050022  1
  Cl  Cl4  1  0.54898659  0.66616490  0.33282217  1
  Cl  Cl5  1  0.54901489  0.33383481  0.66664661  1
  O  O0  1  0.06275398  0.70474790  0.55129776  1
  O  O1  1  0.06251803  0.37155218  0.88446906  1
  O  O2  1  0.06075682  0.04186673  0.21775345  1
  O  O3  1  0.06071928  0.50923259  0.62482112  1
  O  O4  1  0.06272276  0.17991642  0.96194713  1
  O  O5  1  0.06240600  0.84630223  0.29516958  1
  O  O6  1  0.06244465  0.78217982  0.82037757  1
  O  O7  1  0.06072785  0.44892846  0.15743639  1
  O  O8  1  0.06266817  0.11532781  0.48671928  1
  O  O9  1  0.06014116  0.17723980  0.21833998  1
  O  O10  1  0.06606713  0.83801743  0.54901744  1
  O  O11  1  0.06609214  0.50497257  0.88264924  1
  O  O12  1  0.06014302  0.44832094  0.29219660  1
  O  O13  1  0.06599704  0.11761779  0.62229658  1
  O  O14  1  0.06607150  0.78396841  0.95560118  1
  O  O15  1  0.06016564  0.37447603  0.48943852  1
  O  O16  1  0.06607890  0.04435327  0.82866807  1
  O  O17  1  0.06605069  0.71107486  0.16173434  1
  O  O18  1  0.57179601  0.29152709  0.44953548  1
  O  O19  1  0.57232637  0.95783242  0.78487212  1
  O  O20  1  0.57198496  0.62449214  0.11840083  1
  O  O21  1  0.57188237  0.49133139  0.37518780  1
  O  O22  1  0.57221040  0.16037838  0.70880644  1
  O  O23  1  0.57198291  0.82722897  0.04217631  1
  O  O24  1  0.57186112  0.21719881  0.17531085  1
  O  O25  1  0.57224979  0.88175007  0.50628157  1
  O  O26  1  0.57198573  0.54829724  0.83945816  1
  O  O27  1  0.56971533  0.82389508  0.78298382  1
  O  O28  1  0.56919280  0.49095121  0.11747206  1
  O  O29  1  0.57234119  0.15911332  0.44950364  1
  O  O30  1  0.56925302  0.54923342  0.70687023  1
  O  O31  1  0.57237093  0.21722334  0.04296135  1
  O  O32  1  0.56961275  0.88366195  0.37422850  1
  O  O33  1  0.57239622  0.62367448  0.50756651  1
  O  O34  1  0.56951139  0.29248151  0.84279840  1
  O  O35  1  0.56924768  0.95980936  0.17571566  1
  O  O36  1  0.24199514  0.76741533  0.67601539  1
  O  O37  1  0.24052989  0.43419504  0.00978987  1
  O  O38  1  0.24165889  0.10514154  0.34331037  1
  O  O39  1  0.24169136  0.57154201  0.56154373  1
  O  O40  1  0.24200160  0.24196756  0.89926357  1
  O  O41  1  0.24044887  0.90900756  0.23250478  1
  O  O42  1  0.24044699  0.65681824  0.75767110  1
  O  O43  1  0.24166249  0.32336060  0.09513070  1
  O  O44  1  0.24191910  0.99059741  0.42467450  1
  O  O45  1  0.24016853  0.23970585  0.34348701  1
  O  O46  1  0.25410798  0.89987288  0.67468929  1
  O  O47  1  0.25421212  0.56666706  0.00838063  1
  O  O48  1  0.24013212  0.32320833  0.22955279  1
  O  O49  1  0.25405150  0.99195428  0.55847932  1
  O  O50  1  0.25411428  0.65826918  0.89158639  1
  O  O51  1  0.24017016  0.43712342  0.42697974  1
  O  O52  1  0.25409252  0.10816096  0.76681444  1
  O  O53  1  0.25411291  0.77507895  0.10004712  1
  O  O54  1  0.77611761  0.23329142  0.33043094  1
  O  O55  1  0.75542738  0.89256055  0.65849195  1
  O  O56  1  0.75525453  0.55922480  0.99229541  1
  O  O57  1  0.77611750  0.43042658  0.43340282  1
  O  O58  1  0.75533664  0.09933492  0.77410284  1
  O  O59  1  0.75527578  0.76637056  0.10742926  1
  O  O60  1  0.77613199  0.33628328  0.23621764  1
  O  O61  1  0.75537818  0.00812001  0.56737768  1
  O  O62  1  0.75526720  0.67441211  0.90032195  1
  O  O63  1  0.77844206  0.76296120  0.66534830  1
  O  O64  1  0.77757677  0.42969478  0.99921040  1
  O  O65  1  0.77499444  0.09866860  0.32993442  1
  O  O66  1  0.77761680  0.66748727  0.76385532  1
  O  O67  1  0.77502493  0.33684823  0.10208612  1
  O  O68  1  0.77839147  0.00129536  0.43094959  1
  O  O69  1  0.77504292  0.56457969  0.56807102  1
  O  O70  1  0.77838069  0.23573376  0.90369954  1
  O  O71  1  0.77761792  0.90283021  0.23696944  1
  O  O72  1  0.37794010  0.09906028  0.19705530  1
  O  O73  1  0.38235606  0.75973185  0.52814452  1
  O  O74  1  0.38182653  0.42662623  0.86176679  1
  O  O75  1  0.37796006  0.43134723  0.56760674  1
  O  O76  1  0.38233369  0.10177336  0.90694718  1
  O  O77  1  0.38172474  0.76851131  0.24006643  1
  O  O78  1  0.37792701  0.46963699  0.23534554  1
  O  O79  1  0.38223465  0.13847205  0.56485532  1
  O  O80  1  0.38176131  0.80488124  0.89817739  1
  O  O81  1  0.88725483  0.24081503  0.48085440  1
  O  O82  1  0.88754456  0.90690687  0.81134423  1
  O  O83  1  0.88772974  0.57352500  0.14473501  1
  O  O84  1  0.88724520  0.57335843  0.42588249  1
  O  O85  1  0.88736279  0.23779620  0.75977376  1
  O  O86  1  0.88776655  0.90454174  0.09314274  1
  O  O87  1  0.88723760  0.18586944  0.09329649  1
  O  O88  1  0.88748585  0.85529405  0.42887680  1
  O  O89  1  0.88775945  0.52198089  0.76217518  1
loop_
_geom_bond_atom_site_label_1
_geom_bond_atom_site_label_2
_geom_bond_distance
_geom_bond_site_symmetry_2
Ba0 O9 2.729155 1_655
Ba0 O2 2.740605 1_655
Ba0 O65 2.843826 1_555
Ba0 O54 2.848127 1_555
Ba0 O24 2.887273 1_555
Ba0 O35 2.908779 1_545
Ba0 O72 3.092066 1_555
Ba0 O87 3.101562 1_555
Ba0 O86 3.184086 1_545
Ba0 Cl3 3.357439 1_545
Ba0 Cl0 3.655015 1_645
Ba1 O10 2.755961 1_655
Ba1 O0 2.775717 1_655
Ba1 O55 2.777501 1_555
Ba1 O33 2.877803 1_555
Ba1 O63 2.901513 1_555
Ba1 O25 2.914065 1_555
Ba1 O73 3.049379 1_555
Ba1 O84 3.091785 1_555
Ba1 O88 3.152169 1_555
Ba1 Cl4 3.347088 1_555
Ba1 Cl1 3.646475 1_655
Ba2 O11 2.747373 1_655
Ba2 O56 2.771057 1_555
Ba2 O1 2.776831 1_655
Ba2 O34 2.887449 1_555
Ba2 O26 2.900698 1_555
Ba2 O64 2.915074 1_555
Ba2 O74 3.056396 1_555
Ba2 O89 3.139218 1_555
Ba2 O85 3.144759 1_555
Ba2 Cl5 3.344744 1_555
Ba2 Cl2 3.640125 1_655
Ba3 O15 2.728863 1_655
Ba3 O3 2.740194 1_655
Ba3 O69 2.842749 1_555
Ba3 O57 2.846953 1_555
Ba3 O18 2.886250 1_555
Ba3 O30 2.909211 1_555
Ba3 O75 3.092270 1_555
Ba3 O81 3.100527 1_555
Ba3 O89 3.184905 1_555
Ba3 Cl5 3.357392 1_555
Ba3 Cl2 3.654788 1_655
Ba4 O16 2.755536 1_655
Ba4 O4 2.775281 1_655
Ba4 O58 2.778380 1_555
Ba4 O31 2.877897 1_556
Ba4 O70 2.901801 1_555
Ba4 O19 2.914590 1_545
Ba4 O76 3.050089 1_555
Ba4 O87 3.091295 1_556
Ba4 O82 3.152439 1_545
Ba4 Cl3 3.347294 1_546
Ba4 Cl0 3.646051 1_646
Ba5 O17 2.747121 1_655
Ba5 O59 2.770665 1_555
Ba5 O5 2.776958 1_655
Ba5 O32 2.887363 1_555
Ba5 O20 2.899948 1_555
Ba5 O71 2.914696 1_555
Ba5 O77 3.056694 1_555
Ba5 O83 3.139260 1_555
Ba5 O88 3.145434 1_555
Ba5 Cl4 3.344382 1_555
Ba5 Cl1 3.640538 1_655
Ba6 O12 2.729075 1_655
Ba6 O7 2.740581 1_655
Ba6 O67 2.842233 1_555
Ba6 O60 2.847271 1_555
Ba6 O21 2.886698 1_555
Ba6 O28 2.908172 1_555
Ba6 O78 3.091879 1_555
Ba6 O84 3.101369 1_555
Ba6 O83 3.184063 1_555
Ba6 Cl4 3.357730 1_555
Ba6 Cl1 3.655275 1_655
Ba7 O13 2.755476 1_655
Ba7 O8 2.775574 1_655
Ba7 O61 2.778408 1_555
Ba7 O29 2.877096 1_555
Ba7 O68 2.901642 1_555
Ba7 O22 2.914427 1_555
Ba7 O79 3.050491 1_555
Ba7 O81 3.091397 1_555
Ba7 O85 3.152295 1_555
Ba7 Cl5 3.347002 1_555
Ba7 Cl2 3.646276 1_655
Ba8 O14 2.747438 1_655
Ba8 O62 2.770690 1_555
Ba8 O6 2.777081 1_655
Ba8 O27 2.887327 1_555
Ba8 O23 2.900165 1_556
Ba8 O66 2.914548 1_555
Ba8 O80 3.056578 1_555
Ba8 O86 3.139111 1_556
Ba8 O82 3.145847 1_555
Ba8 Cl3 3.344245 1_556
Ba8 Cl0 3.640557 1_656
Ba9 O46 2.756115 1_555
Ba9 O27 2.788399 1_555
Ba9 O19 2.793587 1_555
Ba9 O36 2.797637 1_555
Ba9 O6 2.909336 1_555
Ba9 O16 2.951147 1_565
Ba9 O82 3.006704 1_455
Ba9 O80 3.110390 1_555
Ba9 O76 3.264125 1_565
Ba9 Cl0 3.345367 1_556
Ba9 Cl3 3.639498 1_556
Ba10 O47 2.763499 1_555
Ba10 O28 2.777617 1_555
Ba10 O37 2.790620 1_555
Ba10 O20 2.800689 1_555
Ba10 O7 2.928726 1_555
Ba10 O17 2.967163 1_555
Ba10 O83 3.003708 1_455
Ba10 O78 3.173540 1_555
Ba10 O77 3.276952 1_555
Ba10 Cl1 3.331789 1_555
Ba10 Cl4 3.622557 1_555
Ba11 O45 2.749639 1_555
Ba11 O38 2.755276 1_555
Ba11 O18 2.791311 1_555
Ba11 O29 2.801853 1_555
Ba11 O8 2.936236 1_555
Ba11 O15 2.943733 1_555
Ba11 O81 3.004310 1_455
Ba11 O79 3.142520 1_555
Ba11 O75 3.178831 1_555
Ba11 Cl2 3.359236 1_555
Ba11 Cl5 3.644522 1_555
Ba12 O51 2.749851 1_555
Ba12 O39 2.755602 1_555
Ba12 O21 2.792353 1_555
Ba12 O33 2.802780 1_555
Ba12 O0 2.935735 1_555
Ba12 O12 2.943060 1_555
Ba12 O84 3.004051 1_455
Ba12 O73 3.143053 1_555
Ba12 O78 3.178061 1_555
Ba12 Cl1 3.358905 1_555
Ba12 Cl4 3.644771 1_555
Ba13 O52 2.756009 1_555
Ba13 O34 2.787342 1_555
Ba13 O22 2.792902 1_555
Ba13 O40 2.797463 1_555
Ba13 O1 2.909054 1_555
Ba13 O13 2.951597 1_555
Ba13 O85 3.007938 1_455
Ba13 O74 3.110568 1_555
Ba13 O79 3.264552 1_555
Ba13 Cl2 3.345527 1_555
Ba13 Cl5 3.640027 1_555
Ba14 O53 2.763280 1_555
Ba14 O35 2.777902 1_555
Ba14 O41 2.790191 1_555
Ba14 O23 2.800987 1_555
Ba14 O2 2.928751 1_565
Ba14 O14 2.967132 1_554
Ba14 O86 3.003245 1_455
Ba14 O72 3.173841 1_565
Ba14 O80 3.277007 1_554
Ba14 Cl0 3.332154 1_555
Ba14 Cl3 3.622996 1_555
Ba15 O48 2.749514 1_555
Ba15 O43 2.755214 1_555
Ba15 O24 2.792603 1_555
Ba15 O31 2.803280 1_555
Ba15 O4 2.934937 1_554
Ba15 O9 2.942540 1_555
Ba15 O87 3.003238 1_455
Ba15 O76 3.143150 1_554
Ba15 O72 3.179066 1_555
Ba15 Cl0 3.358664 1_545
Ba15 Cl3 3.646126 1_545
Ba16 O49 2.755700 1_555
Ba16 O32 2.787565 1_555
Ba16 O25 2.792858 1_555
Ba16 O44 2.797432 1_555
Ba16 O5 2.909245 1_555
Ba16 O10 2.950961 1_555
Ba16 O88 3.007290 1_455
Ba16 O77 3.109779 1_555
Ba16 O73 3.263606 1_555
Ba16 Cl1 3.345234 1_555
Ba16 Cl4 3.639311 1_555
Ba17 O50 2.762920 1_555
Ba17 O30 2.777963 1_555
Ba17 O42 2.790019 1_555
Ba17 O26 2.801172 1_555
Ba17 O3 2.928686 1_555
Ba17 O11 2.966078 1_555
Ba17 O89 3.003273 1_455
Ba17 O75 3.174026 1_555
Ba17 O74 3.276812 1_555
Ba17 Cl2 3.331871 1_555
Ba17 Cl5 3.623243 1_555
Ba18 O31 2.720456 1_555
Ba18 O28 2.728093 1_555
Ba18 O34 2.745316 1_554
Ba18 O67 2.781786 1_555
Ba18 O70 2.783537 1_554
Ba18 O64 2.784405 1_554
Ba18 O40 2.833547 1_554
Ba18 O37 2.846592 1_555
Ba18 O43 2.859273 1_555
Ba19 O29 2.721351 1_555
Ba19 O35 2.728497 1_545
Ba19 O32 2.745477 1_545
Ba19 O65 2.782820 1_555
Ba19 O68 2.783955 1_555
Ba19 O71 2.785424 1_545
Ba19 O44 2.833149 1_545
Ba19 O41 2.845914 1_545
Ba19 O38 2.859544 1_555
Ba20 O33 2.721036 1_555
Ba20 O30 2.728059 1_555
Ba20 O27 2.745830 1_555
Ba20 O69 2.782224 1_555
Ba20 O63 2.784160 1_555
Ba20 O66 2.784934 1_555
Ba20 O36 2.833941 1_555
Ba20 O42 2.846309 1_555
Ba20 O39 2.859057 1_555
Ba21 O61 2.759223 1_565
Ba21 O55 2.759416 1_555
Ba21 O58 2.759649 1_565
Ba21 O19 2.779349 1_555
Ba21 O25 2.779414 1_555
Ba21 O22 2.779825 1_565
Ba21 O46 2.830806 1_555
Ba21 O52 2.831594 1_565
Ba21 O49 2.831679 1_555
Ba22 O59 2.760575 1_555
Ba22 O62 2.760838 1_554
Ba22 O56 2.761123 1_554
Ba22 O23 2.782115 1_555
Ba22 O20 2.782203 1_555
Ba22 O26 2.782220 1_554
Ba22 O47 2.831809 1_555
Ba22 O53 2.832740 1_555
Ba22 O50 2.832978 1_554
Ba23 O18 2.731483 1_555
Ba23 O21 2.731491 1_555
Ba23 O24 2.732154 1_555
Ba23 O57 2.786778 1_555
Ba23 O54 2.787163 1_555
Ba23 O60 2.787520 1_555
Ba23 O45 2.868793 1_555
Ba23 O51 2.868888 1_555
Ba23 O48 2.869528 1_555
Ba24 O46 2.761952 1_545
Ba24 O52 2.762221 1_555
Ba24 O49 2.762357 1_545
Ba24 O10 2.789543 1_545
Ba24 O16 2.789661 1_555
Ba24 O13 2.789793 1_555
Ba24 O55 2.813822 1_445
Ba24 O61 2.814440 1_455
Ba24 O58 2.814977 1_455
Ba25 O47 2.764466 1_555
Ba25 O50 2.764572 1_554
Ba25 O53 2.764583 1_555
Ba25 O11 2.784515 1_554
Ba25 O14 2.784729 1_554
Ba25 O17 2.784786 1_555
Ba25 O62 2.816469 1_454
Ba25 O59 2.816492 1_455
Ba25 O56 2.816648 1_454
Ca0 O45 2.539626 1_555
Ca0 O51 2.539815 1_555
Ca0 O48 2.539879 1_555
Ca0 O15 2.677510 1_555
Ca0 O9 2.677791 1_555
Ca0 O12 2.678371 1_555
Ca0 O54 2.708740 1_455
Ca0 O57 2.708747 1_455
Ca0 O60 2.709001 1_455
Ca1 O40 2.501159 1_555
Ca1 O37 2.508657 1_556
Ca1 O43 2.580332 1_556
Ca1 O1 2.640227 1_555
Ca1 O4 2.640370 1_555
Ca1 O70 2.659336 1_455
Ca1 O64 2.675103 1_455
Ca1 O7 2.718277 1_556
Ca1 O67 2.746404 1_456
Ca2 O44 2.501168 1_555
Ca2 O41 2.507638 1_555
Ca2 O38 2.581108 1_565
Ca2 O5 2.639490 1_555
Ca2 O8 2.640070 1_565
Ca2 O68 2.659446 1_465
Ca2 O71 2.674350 1_455
Ca2 O2 2.718148 1_565
Ca2 O65 2.746731 1_465
Ca3 O36 2.501885 1_555
Ca3 O42 2.507855 1_555
Ca3 O39 2.581049 1_555
Ca3 O6 2.639415 1_555
Ca3 O0 2.641248 1_555
Ca3 O63 2.658955 1_455
Ca3 O66 2.674500 1_455
Ca3 O3 2.718128 1_555
Ca3 O69 2.746119 1_455
O0 Re1 1.847236 1_555
O1 Re2 1.849101 1_555
O2 Re0 1.841248 1_555
O3 Re3 1.842943 1_555
O4 Re4 1.848496 1_555
O5 Re5 1.849508 1_555
O6 Re8 1.849180 1_555
O7 Re6 1.842233 1_555
O8 Re7 1.847270 1_555
O9 Re0 1.846352 1_555
O10 Re1 1.842216 1_555
O11 Re2 1.843396 1_555
O12 Re6 1.844165 1_555
O13 Re7 1.842057 1_555
O14 Re8 1.841231 1_555
O15 Re3 1.844137 1_555
O16 Re4 1.840718 1_555
O17 Re5 1.841238 1_555
O18 Re11 1.862719 1_555
O19 Re9 1.856900 1_555
O20 Re10 1.858422 1_555
O21 Re12 1.859415 1_555
O22 Re13 1.857347 1_555
O23 Re14 1.858210 1_555
O24 Re15 1.858967 1_555
O25 Re16 1.857124 1_555
O26 Re17 1.858374 1_555
O27 Re9 1.846502 1_555
O28 Re10 1.853407 1_555
O29 Re11 1.859616 1_555
O30 Re17 1.852801 1_555
O31 Re15 1.859138 1_555
O32 Re16 1.847194 1_555
O33 Re12 1.858168 1_555
O34 Re13 1.850746 1_555
O35 Re14 1.852549 1_555
O36 Re1 1.874756 1_555
O37 Re2 1.876097 1_554
O38 Re0 1.867155 1_555
O39 Re3 1.869397 1_555
O40 Re4 1.876068 1_555
O41 Re5 1.877633 1_555
O42 Re8 1.877401 1_555
O43 Re6 1.869268 1_555
O44 Re7 1.875077 1_565
O45 Re0 1.878097 1_555
O46 Re1 1.863600 1_555
O47 Re2 1.862611 1_554
O48 Re6 1.877164 1_555
O49 Re7 1.863627 1_565
O50 Re8 1.861800 1_555
O51 Re3 1.876723 1_555
O52 Re4 1.862233 1_555
O53 Re5 1.861661 1_555
O54 Re11 1.858877 1_555
O55 Re9 1.863159 1_555
O56 Re10 1.861654 1_556
O57 Re12 1.860351 1_555
O58 Re13 1.859981 1_555
O59 Re14 1.862049 1_555
O60 Re15 1.859394 1_555
O61 Re16 1.862024 1_545
O62 Re17 1.862736 1_555
O63 Re9 1.864110 1_555
O64 Re10 1.860901 1_556
O65 Re11 1.853867 1_555
O66 Re17 1.861480 1_555
O67 Re15 1.858009 1_555
O68 Re16 1.863721 1_545
O69 Re12 1.857441 1_555
O70 Re13 1.864688 1_555
O71 Re14 1.860926 1_555
O72 Re0 1.766921 1_555
O73 Re1 1.766363 1_555
O74 Re2 1.764168 1_555
O75 Re3 1.766654 1_555
O76 Re4 1.766779 1_555
O77 Re5 1.765369 1_555
O78 Re6 1.766950 1_555
O79 Re7 1.766197 1_555
O80 Re8 1.765830 1_555
O81 Re11 1.763741 1_555
O82 Re9 1.763980 1_555
O83 Re10 1.761737 1_555
O84 Re12 1.763238 1_555
O85 Re13 1.762018 1_555
O86 Re14 1.762382 1_555
O87 Re15 1.763132 1_555
O88 Re16 1.764719 1_555
O89 Re17 1.760545 1_555
