# generated using pymatgen
data_Ba6Nd2Fe4O15
_symmetry_space_group_name_H-M   'P 1'
_cell_length_a   11.94448049
_cell_length_b   11.94448049
_cell_length_c   7.17301712
_cell_angle_alpha   89.83867884
_cell_angle_beta   89.83867884
_cell_angle_gamma   119.52526922
_symmetry_Int_Tables_number   1
_chemical_formula_structural   Ba6Nd2Fe4O15
_chemical_formula_sum   'Ba12 Nd4 Fe8 O30'
_cell_volume   890.46727425
_cell_formula_units_Z   2
loop_
 _symmetry_equiv_pos_site_id
 _symmetry_equiv_pos_as_xyz
  1  'x, y, z'
loop_
 _atom_site_type_symbol
 _atom_site_label
 _atom_site_symmetry_multiplicity
 _atom_site_fract_x
 _atom_site_fract_y
 _atom_site_fract_z
 _atom_site_occupancy
  Ba  Ba0  1  0.33284700  0.66542000  0.98064500  1
  Ba  Ba1  1  0.66542000  0.33284700  0.48064500  1
  Ba  Ba2  1  0.34785000  0.17396300  0.16373000  1
  Ba  Ba3  1  0.82798400  0.65247300  0.16501600  1
  Ba  Ba4  1  0.82814700  0.17739500  0.16539900  1
  Ba  Ba5  1  0.65247300  0.82798400  0.66501600  1
  Ba  Ba6  1  0.17396300  0.34785000  0.66373000  1
  Ba  Ba7  1  0.17739500  0.82814700  0.66539900  1
  Ba  Ba8  1  0.95462800  0.47858200  0.83134000  1
  Ba  Ba9  1  0.47858200  0.95462800  0.33134000  1
  Ba  Ba10  1  0.99883900  0.00007500  0.50601600  1
  Ba  Ba11  1  0.00007500  0.99883900  0.00601600  1
  Nd  Nd0  1  0.52207000  0.04335300  0.83335900  1
  Nd  Nd1  1  0.52113700  0.48001200  0.83970100  1
  Nd  Nd2  1  0.04335300  0.52207000  0.33335900  1
  Nd  Nd3  1  0.48001200  0.52113700  0.33970100  1
  Fe  Fe0  1  0.66624300  0.33699700  0.02750000  1
  Fe  Fe1  1  0.33699700  0.66624300  0.52750000  1
  Fe  Fe2  1  0.18158000  0.82384800  0.16736800  1
  Fe  Fe3  1  0.64141000  0.81798500  0.15894400  1
  Fe  Fe4  1  0.18367700  0.35676000  0.17265400  1
  Fe  Fe5  1  0.82384800  0.18158000  0.66736800  1
  Fe  Fe6  1  0.35676000  0.18367700  0.67265400  1
  Fe  Fe7  1  0.81798500  0.64141000  0.65894400  1
  O  O0  1  0.80392000  0.90173600  0.26847000  1
  O  O1  1  0.10336100  0.19116200  0.27205900  1
  O  O2  1  0.10450900  0.91115400  0.27492300  1
  O  O3  1  0.19116200  0.10336100  0.77205900  1
  O  O4  1  0.90173600  0.80392000  0.76847000  1
  O  O5  1  0.91115400  0.10450900  0.77492300  1
  O  O6  1  0.73980200  0.24141800  0.84261800  1
  O  O7  1  0.49750800  0.25574900  0.84762900  1
  O  O8  1  0.73778700  0.50274900  0.84102200  1
  O  O9  1  0.24141800  0.73980200  0.34261800  1
  O  O10  1  0.50274900  0.73778700  0.34102200  1
  O  O11  1  0.25574900  0.49750800  0.34762900  1
  O  O12  1  0.41910800  0.58170700  0.67326100  1
  O  O13  1  0.17466000  0.58381000  0.66168600  1
  O  O14  1  0.41601300  0.82644600  0.68004200  1
  O  O15  1  0.58170700  0.41910800  0.17326100  1
  O  O16  1  0.82644600  0.41601300  0.18004200  1
  O  O17  1  0.58381000  0.17466000  0.16168600  1
  O  O18  1  0.67158800  0.06280200  0.55059700  1
  O  O19  1  0.39807000  0.33647500  0.53451300  1
  O  O20  1  0.92997100  0.60825300  0.50789900  1
  O  O21  1  0.39560500  0.06678000  0.55655700  1
  O  O22  1  0.93400200  0.32358700  0.50878400  1
  O  O23  1  0.66463700  0.60245800  0.52855600  1
  O  O24  1  0.32358700  0.93400200  0.00878400  1
  O  O25  1  0.60245800  0.66463700  0.02855600  1
  O  O26  1  0.06678000  0.39560500  0.05655700  1
  O  O27  1  0.60825300  0.92997100  0.00789900  1
  O  O28  1  0.06280200  0.67158800  0.05059700  1
  O  O29  1  0.33647500  0.39807000  0.03451300  1
loop_
_geom_bond_atom_site_label_1
_geom_bond_atom_site_label_2
_geom_bond_distance
_geom_bond_site_symmetry_2
Ba0 O14 2.723403 1_555
Ba0 O12 2.817433 1_555
Ba0 O13 2.824239 1_555
Ba0 O9 3.110753 1_556
Ba0 O10 3.140214 1_556
Ba0 O11 3.152178 1_556
Ba0 O29 3.237012 1_556
Ba0 O25 3.244200 1_556
Ba0 O27 3.256761 1_556
Ba0 O26 3.266248 1_556
Ba0 O24 3.270772 1_556
Ba0 O28 3.299495 1_556
Ba1 O16 2.723403 1_555
Ba1 O15 2.817433 1_555
Ba1 O17 2.824239 1_555
Ba1 O6 3.110753 1_555
Ba1 O8 3.140214 1_555
Ba1 O7 3.152178 1_555
Ba1 O19 3.237012 1_555
Ba1 O23 3.244200 1_555
Ba1 O20 3.256761 1_555
Ba1 O21 3.266248 1_555
Ba1 O22 3.270772 1_555
Ba1 O18 3.299495 1_555
Ba2 O7 2.744890 1_554
Ba2 O17 2.814323 1_555
Ba2 O15 2.884763 1_555
Ba2 O29 2.896247 1_555
Ba2 O24 2.955583 1_545
Ba2 O1 3.123065 1_555
Ba2 O2 3.149352 1_545
Ba2 O19 3.176766 1_555
Ba2 O3 3.254893 1_554
Ba2 O21 3.257703 1_555
Ba3 O8 2.810432 1_554
Ba3 O16 2.817140 1_555
Ba3 O28 2.819100 1_655
Ba3 O15 2.888418 1_555
Ba3 O20 2.907893 1_555
Ba3 O25 2.938628 1_555
Ba3 O23 3.126884 1_555
Ba3 O0 3.217517 1_555
Ba3 O4 3.244291 1_554
Ba3 O2 3.323795 1_655
Ba4 O6 2.803237 1_554
Ba4 O26 2.860259 1_655
Ba4 O16 2.862456 1_555
Ba4 O17 2.902717 1_555
Ba4 O22 2.929231 1_555
Ba4 O27 3.048594 1_545
Ba4 O18 3.229803 1_555
Ba4 O5 3.230290 1_554
Ba4 O0 3.243080 1_545
Ba4 O1 3.301625 1_655
Ba5 O10 2.810432 1_555
Ba5 O14 2.817140 1_555
Ba5 O18 2.819100 1_565
Ba5 O12 2.888418 1_555
Ba5 O27 2.907893 1_556
Ba5 O23 2.938628 1_555
Ba5 O25 3.126884 1_556
Ba5 O4 3.217517 1_555
Ba5 O0 3.244291 1_555
Ba5 O5 3.323795 1_565
Ba6 O11 2.744890 1_555
Ba6 O13 2.814323 1_555
Ba6 O12 2.884763 1_555
Ba6 O19 2.896247 1_555
Ba6 O22 2.955583 1_455
Ba6 O3 3.123065 1_555
Ba6 O5 3.149352 1_455
Ba6 O29 3.176766 1_556
Ba6 O1 3.254893 1_555
Ba6 O26 3.257703 1_556
Ba7 O9 2.803237 1_555
Ba7 O21 2.860259 1_565
Ba7 O14 2.862456 1_555
Ba7 O13 2.902717 1_555
Ba7 O24 2.929231 1_556
Ba7 O20 3.048594 1_455
Ba7 O28 3.229803 1_556
Ba7 O2 3.230290 1_555
Ba7 O4 3.243080 1_455
Ba7 O3 3.301625 1_565
Ba8 O28 2.560007 1_656
Ba8 O13 2.585641 1_655
Ba8 O26 2.588126 1_656
Ba8 O6 2.729243 1_555
Ba8 O8 2.744544 1_555
Ba8 O16 2.828260 1_556
Ba8 O20 2.881235 1_555
Ba8 O22 2.901573 1_555
Ba9 O18 2.560007 1_565
Ba9 O17 2.585641 1_565
Ba9 O21 2.588126 1_565
Ba9 O9 2.729243 1_555
Ba9 O10 2.744544 1_555
Ba9 O14 2.828260 1_555
Ba9 O27 2.881235 1_555
Ba9 O24 2.901573 1_555
Ba10 O1 2.596640 1_655
Ba10 O2 2.605445 1_645
Ba10 O0 2.653642 1_545
Ba10 O4 2.768277 1_545
Ba10 O5 2.768283 1_555
Ba10 O3 2.772277 1_655
Ba11 O3 2.596640 1_564
Ba11 O5 2.605445 1_464
Ba11 O4 2.653642 1_454
Ba11 O0 2.768277 1_455
Ba11 O2 2.768283 1_555
Ba11 O1 2.772277 1_565
Nd0 O24 2.414931 1_546
Nd0 O27 2.415163 1_546
Nd0 O6 2.510507 1_555
Nd0 O14 2.513107 1_545
Nd0 O21 2.594743 1_555
Nd0 O18 2.631600 1_555
Nd0 O7 2.695848 1_555
Nd0 O17 2.727778 1_556
Nd1 O25 2.356848 1_556
Nd1 O29 2.371266 1_556
Nd1 O12 2.417658 1_555
Nd1 O8 2.465336 1_555
Nd1 O7 2.551911 1_555
Nd1 O15 2.701110 1_556
Nd1 O19 2.729059 1_555
Nd1 O23 2.747252 1_555
Nd2 O22 2.414931 1_455
Nd2 O20 2.415163 1_455
Nd2 O9 2.510507 1_555
Nd2 O16 2.513107 1_455
Nd2 O26 2.594743 1_555
Nd2 O28 2.631600 1_555
Nd2 O11 2.695848 1_555
Nd2 O13 2.727778 1_555
Nd3 O23 2.356848 1_555
Nd3 O19 2.371266 1_555
Nd3 O15 2.417658 1_555
Nd3 O10 2.465336 1_555
Nd3 O11 2.551911 1_555
Nd3 O12 2.701110 1_555
Nd3 O29 2.729059 1_555
Nd3 O25 2.747252 1_555
Fe0 O17 1.938600 1_555
Fe0 O16 1.996805 1_555
Fe0 O15 2.012601 1_555
Fe0 O8 2.179514 1_554
Fe0 O7 2.182296 1_554
Fe0 O6 2.196506 1_554
Fe1 O13 1.938600 1_555
Fe1 O14 1.996805 1_555
Fe1 O12 2.012601 1_555
Fe1 O10 2.179514 1_555
Fe1 O11 2.182296 1_555
Fe1 O9 2.196506 1_555
Fe2 O2 1.864634 1_555
Fe2 O28 1.869256 1_555
Fe2 O24 1.919186 1_555
Fe2 O9 1.950385 1_555
Fe3 O0 1.866801 1_555
Fe3 O25 1.902196 1_555
Fe3 O27 1.906911 1_555
Fe3 O10 1.945133 1_555
Fe4 O1 1.859868 1_555
Fe4 O26 1.871166 1_555
Fe4 O29 1.912004 1_555
Fe4 O11 1.932407 1_555
Fe5 O5 1.864634 1_555
Fe5 O18 1.869256 1_555
Fe5 O22 1.919186 1_555
Fe5 O6 1.950385 1_555
Fe6 O3 1.859868 1_555
Fe6 O21 1.871166 1_555
Fe6 O19 1.912004 1_555
Fe6 O7 1.932407 1_555
Fe7 O4 1.866801 1_555
Fe7 O23 1.902196 1_555
Fe7 O20 1.906911 1_555
Fe7 O8 1.945133 1_555
