# generated using pymatgen
data_MgP4H24(NO)8
_symmetry_space_group_name_H-M   'P 1'
_cell_length_a   8.06370798
_cell_length_b   10.18438775
_cell_length_c   7.00278605
_cell_angle_alpha   81.43191227
_cell_angle_beta   116.34663469
_cell_angle_gamma   91.38530832
_symmetry_Int_Tables_number   1
_chemical_formula_structural   MgP4H24(NO)8
_chemical_formula_sum   'Mg1 P4 H24 N8 O8'
_cell_volume   509.03560930
_cell_formula_units_Z   1
loop_
 _symmetry_equiv_pos_site_id
 _symmetry_equiv_pos_as_xyz
  1  'x, y, z'
loop_
 _atom_site_type_symbol
 _atom_site_label
 _atom_site_symmetry_multiplicity
 _atom_site_fract_x
 _atom_site_fract_y
 _atom_site_fract_z
 _atom_site_occupancy
  Mg  Mg0  1  0.99449131  0.59176615  0.41117389  1
  P  P0  1  0.87142177  0.43175188  0.81541520  1
  P  P1  1  0.14090679  0.02594310  0.65300591  1
  P  P2  1  0.12661938  0.48501850  0.08819284  1
  P  P3  1  0.86433808  0.08314242  0.37230781  1
  H  H0  1  0.97105849  0.21526220  0.82670612  1
  H  H1  1  0.01948246  0.82244147  0.64214232  1
  H  H2  1  0.08764402  0.70258420  0.12033293  1
  H  H3  1  0.90295745  0.30751013  0.30047992  1
  H  H4  1  0.84385080  0.21530734  0.96113695  1
  H  H5  1  0.19359671  0.82011851  0.58772457  1
  H  H6  1  0.17068153  0.69948814  0.93456093  1
  H  H7  1  0.80980962  0.27651381  0.47274671  1
  H  H8  1  0.33538125  0.36863947  0.84508246  1
  H  H9  1  0.72033162  0.96222521  0.69526310  1
  H  H10  1  0.63327140  0.63293277  0.18345537  1
  H  H11  1  0.31798699  0.09575689  0.36405691  1
  H  H12  1  0.29091769  0.39182186  0.58062719  1
  H  H13  1  0.75849728  0.97800458  0.95798520  1
  H  H14  1  0.65581835  0.55151849  0.41797814  1
  H  H15  1  0.27466610  0.08521892  0.09949316  1
  H  H16  1  0.51430748  0.39414310  0.77607584  1
  H  H17  1  0.53998123  0.96873052  0.75658425  1
  H  H18  1  0.47913685  0.50891575  0.18660164  1
  H  H19  1  0.49910847  0.08265830  0.30447849  1
  H  H20  1  0.39083233  0.24833610  0.73513328  1
  H  H21  1  0.69063700  0.83306605  0.86119942  1
  H  H22  1  0.46127143  0.65361263  0.25828941  1
  H  H23  1  0.35601569  0.22345255  0.20697544  1
  N  N0  1  0.86950209  0.26772017  0.83989375  1
  N  N1  1  0.15110131  0.85656987  0.68937467  1
  N  N2  1  0.16254416  0.64844137  0.06830259  1
  N  N3  1  0.81897718  0.24647632  0.34476573  1
  N  N4  1  0.38415146  0.34987630  0.73643889  1
  N  N5  1  0.67785278  0.93470962  0.81726838  1
  N  N6  1  0.55769032  0.58714312  0.26185514  1
  N  N7  1  0.36215465  0.12077543  0.24393567  1
  O  O0  1  0.89916512  0.48201532  0.61248156  1
  O  O1  1  0.12743286  0.07376296  0.84146190  1
  O  O2  1  0.10550150  0.44893858  0.29896662  1
  O  O3  1  0.86690900  0.05786331  0.16548312  1
  O  O4  1  0.70053017  0.48630676  0.82064234  1
  O  O5  1  0.30994765  0.07057837  0.61662001  1
  O  O6  1  0.28806675  0.41323877  0.07894436  1
  O  O7  1  0.72845344  0.01064069  0.44465586  1
loop_
_geom_bond_atom_site_label_1
_geom_bond_atom_site_label_2
_geom_bond_distance
_geom_bond_site_symmetry_2
Mg0 O0 2.068404 1_555
Mg0 O2 2.135994 1_655
H0 N0 1.033232 1_555
H1 N1 1.030279 1_555
H2 N2 1.035804 1_555
H3 N3 1.024577 1_555
H4 N0 1.031546 1_555
H5 N1 1.031186 1_555
H6 N2 1.029344 1_556
H7 N3 1.021693 1_555
H8 N4 1.040447 1_555
H9 N5 1.053376 1_555
H10 N6 1.047523 1_555
H11 N7 1.047389 1_555
H12 N4 1.042485 1_555
H13 N5 1.065438 1_555
H13 O3 1.651474 1_566
H14 N6 1.039650 1_555
H15 N7 1.056111 1_555
H15 O1 1.685276 1_554
H16 N4 1.066611 1_555
H16 O4 1.684200 1_555
H17 N5 1.045010 1_555
H18 N6 1.057397 1_555
H19 N7 1.051737 1_555
H20 N4 1.038435 1_555
H21 N5 1.029068 1_555
H22 N6 1.032745 1_555
H23 N7 1.036060 1_555
N0 P0 1.654140 1_555
N1 P1 1.704256 1_565
N2 P2 1.678346 1_555
N3 P3 1.676091 1_555
O0 P0 1.546450 1_555
O1 P1 1.520521 1_555
O2 P2 1.549538 1_555
O3 P3 1.517380 1_555
O4 P0 1.515530 1_555
O5 P1 1.540587 1_555
O6 P2 1.538966 1_555
O7 P3 1.531236 1_555
