# generated using pymatgen
data_Sc11Ru4
_symmetry_space_group_name_H-M   'P 1'
_cell_length_a   9.44578638
_cell_length_b   9.44578638
_cell_length_c   9.44578638
_cell_angle_alpha   60.00000000
_cell_angle_beta   60.00000000
_cell_angle_gamma   60.00000000
_symmetry_Int_Tables_number   1
_chemical_formula_structural   Sc11Ru4
_chemical_formula_sum   'Sc22 Ru8'
_cell_volume   595.93564167
_cell_formula_units_Z   2
loop_
 _symmetry_equiv_pos_site_id
 _symmetry_equiv_pos_as_xyz
  1  'x, y, z'
loop_
 _atom_site_type_symbol
 _atom_site_label
 _atom_site_symmetry_multiplicity
 _atom_site_fract_x
 _atom_site_fract_y
 _atom_site_fract_z
 _atom_site_occupancy
  Sc  Sc0  1  0.80235296  0.19764704  0.19764704  1
  Sc  Sc1  1  0.80235296  0.19764704  0.80235296  1
  Sc  Sc2  1  0.80235296  0.80235296  0.19764704  1
  Sc  Sc3  1  0.19764704  0.80235296  0.80235296  1
  Sc  Sc4  1  0.19764704  0.80235296  0.19764704  1
  Sc  Sc5  1  0.19764704  0.19764704  0.80235296  1
  Sc  Sc6  1  0.84934370  0.38355077  0.38355077  1
  Sc  Sc7  1  0.38355077  0.84934370  0.38355077  1
  Sc  Sc8  1  0.38355077  0.38355077  0.84934370  1
  Sc  Sc9  1  0.38355077  0.38355077  0.38355077  1
  Sc  Sc10  1  0.15065630  0.61644923  0.61644923  1
  Sc  Sc11  1  0.61644923  0.15065630  0.61644923  1
  Sc  Sc12  1  0.61644923  0.61644923  0.15065630  1
  Sc  Sc13  1  0.61644923  0.61644923  0.61644923  1
  Sc  Sc14  1  0.53193516  0.15602228  0.15602228  1
  Sc  Sc15  1  0.15602228  0.53193516  0.15602228  1
  Sc  Sc16  1  0.15602228  0.15602228  0.53193516  1
  Sc  Sc17  1  0.15602228  0.15602228  0.15602228  1
  Sc  Sc18  1  0.46806484  0.84397772  0.84397772  1
  Sc  Sc19  1  0.84397772  0.46806484  0.84397772  1
  Sc  Sc20  1  0.84397772  0.84397772  0.46806484  1
  Sc  Sc21  1  0.84397772  0.84397772  0.84397772  1
  Ru  Ru0  1  0.00000000  -0.00000000  -0.00000000  1
  Ru  Ru1  1  0.50000000  0.50000000  0.50000000  1
  Ru  Ru2  1  0.50000000  -0.00000000  -0.00000000  1
  Ru  Ru3  1  0.50000000  -0.00000000  0.50000000  1
  Ru  Ru4  1  0.50000000  0.50000000  -0.00000000  1
  Ru  Ru5  1  0.00000000  0.50000000  0.50000000  1
  Ru  Ru6  1  0.00000000  0.50000000  -0.00000000  1
  Ru  Ru7  1  0.00000000  -0.00000000  0.50000000  1
loop_
_geom_bond_atom_site_label_1
_geom_bond_atom_site_label_2
_geom_bond_distance
_geom_bond_site_symmetry_2
Sc0 Sc14 2.999477 1_555
Sc0 Sc20 2.999488 1_545
Sc0 Sc19 2.999488 1_554
Sc0 Sc17 2.999495 1_655
Sc0 Sc6 3.317613 1_555
Sc0 Sc9 3.317638 1_555
Sc0 Sc11 3.317645 1_555
Sc0 Sc12 3.317645 1_555
Sc1 Sc19 2.999477 1_555
Sc1 Sc16 2.999488 1_655
Sc1 Sc14 2.999488 1_556
Sc1 Sc21 2.999495 1_545
Sc1 Sc11 3.317613 1_555
Sc1 Sc13 3.317638 1_555
Sc1 Sc8 3.317645 1_555
Sc1 Sc6 3.317645 1_555
Sc2 Sc20 2.999477 1_555
Sc2 Sc21 2.999495 1_554
Sc2 Sc7 3.317645 1_555
Sc2 Sc6 3.317645 1_555
Sc3 Sc8 3.317645 1_555
Sc3 Sc7 3.317645 1_555
Sc4 Sc7 3.317613 1_555
Sc4 Sc9 3.317638 1_555
Sc5 Sc8 3.317613 1_555
Sc5 Sc9 3.317638 1_555
Sc10 Sc8 3.111088 1_555
Sc10 Sc7 3.111088 1_555
Sc10 Sc9 3.111141 1_555
Sc10 Sc21 3.130009 1_455
Sc10 Sc20 3.130041 1_455
Sc10 Sc19 3.130041 1_455
Sc10 Sc3 3.317613 1_555
Sc10 Sc5 3.317645 1_555
Sc10 Sc4 3.317645 1_555
Sc11 Sc8 3.111088 1_555
Sc11 Sc6 3.111088 1_555
Sc11 Sc9 3.111141 1_555
Sc11 Sc21 3.130009 1_545
Sc11 Sc20 3.130041 1_545
Sc11 Sc18 3.130041 1_545
Sc11 Sc5 3.317645 1_555
Sc12 Sc7 3.111088 1_555
Sc12 Sc6 3.111088 1_555
Sc12 Sc9 3.111141 1_555
Sc12 Sc21 3.130009 1_554
Sc12 Sc18 3.130041 1_554
Sc12 Sc19 3.130041 1_554
Sc12 Sc2 3.317613 1_555
Sc12 Sc4 3.317645 1_555
Sc13 Sc6 3.111141 1_555
Sc13 Sc8 3.111141 1_555
Sc13 Sc7 3.111141 1_555
Sc13 Sc19 3.129995 1_555
Sc13 Sc18 3.129995 1_555
Sc13 Sc20 3.129995 1_555
Sc13 Sc2 3.317638 1_555
Sc13 Sc3 3.317638 1_555
Sc14 Sc2 2.999488 1_545
Sc14 Sc9 3.129995 1_555
Sc14 Sc7 3.130041 1_545
Sc14 Sc8 3.130041 1_554
Sc15 Sc4 2.999477 1_555
Sc15 Sc3 2.999488 1_554
Sc15 Sc2 2.999488 1_455
Sc15 Sc9 3.129995 1_555
Sc15 Sc6 3.130041 1_455
Sc15 Sc8 3.130041 1_554
Sc16 Sc5 2.999477 1_555
Sc16 Sc3 2.999488 1_545
Sc16 Sc9 3.129995 1_555
Sc16 Sc7 3.130041 1_545
Sc16 Sc6 3.130041 1_455
Sc17 Sc4 2.999495 1_545
Sc17 Sc5 2.999495 1_554
Sc17 Sc8 3.130009 1_554
Sc17 Sc7 3.130009 1_545
Sc17 Sc6 3.130009 1_455
Sc18 Sc3 2.999477 1_555
Sc18 Sc5 2.999488 1_565
Sc18 Sc4 2.999488 1_556
Sc19 Sc5 2.999488 1_655
Sc20 Sc4 2.999488 1_655
Sc21 Sc3 2.999495 1_655
Ru0 Sc3 2.640240 1_544
Ru0 Sc5 2.640240 1_554
Ru0 Sc0 2.640240 1_455
Ru0 Sc1 2.640240 1_454
Ru0 Sc2 2.640240 1_445
Ru0 Sc4 2.640240 1_545
Ru1 Sc8 2.694297 1_555
Ru1 Sc7 2.694297 1_555
Ru1 Sc6 2.694297 1_555
Ru1 Sc10 2.694297 1_555
Ru1 Sc12 2.694297 1_555
Ru1 Sc11 2.694297 1_555
Ru1 Sc13 2.694327 1_555
Ru1 Sc9 2.694327 1_555
Ru2 Sc21 2.737863 1_544
Ru2 Sc17 2.737863 1_555
Ru2 Sc18 2.737876 1_544
Ru2 Sc14 2.737876 1_555
Ru2 Sc8 2.963994 1_554
Ru2 Sc12 2.963994 1_545
Ru2 Sc11 2.963994 1_554
Ru2 Sc7 2.963994 1_545
Ru3 Sc16 2.737859 1_555
Ru3 Sc20 2.737859 1_545
Ru3 Sc14 2.737859 1_555
Ru3 Sc18 2.737859 1_545
Ru3 Sc9 2.963992 1_555
Ru3 Sc13 2.963992 1_545
Ru3 Sc11 2.964024 1_555
Ru3 Sc7 2.964024 1_545
Ru4 Sc15 2.737859 1_555
Ru4 Sc14 2.737859 1_555
Ru4 Sc19 2.737859 1_554
Ru4 Sc18 2.737859 1_554
Ru4 Sc9 2.963992 1_555
Ru4 Sc13 2.963992 1_554
Ru4 Sc12 2.964024 1_555
Ru4 Sc8 2.964024 1_554
Ru5 Sc16 2.737859 1_555
Ru5 Sc15 2.737859 1_555
Ru5 Sc20 2.737859 1_455
Ru5 Sc19 2.737859 1_455
Ru5 Sc9 2.963992 1_555
Ru5 Sc13 2.963992 1_455
Ru5 Sc10 2.964024 1_555
Ru5 Sc6 2.964024 1_455
Ru6 Sc17 2.737863 1_555
Ru6 Sc21 2.737863 1_454
Ru6 Sc19 2.737876 1_454
Ru6 Sc15 2.737876 1_555
Ru6 Sc12 2.963994 1_455
Ru6 Sc10 2.963994 1_554
Ru6 Sc8 2.963994 1_554
Ru6 Sc6 2.963994 1_455
Ru7 Sc17 2.737863 1_555
Ru7 Sc21 2.737863 1_445
Ru7 Sc20 2.737876 1_445
Ru7 Sc16 2.737876 1_555
Ru7 Sc6 2.963994 1_455
Ru7 Sc10 2.963994 1_545
Ru7 Sc7 2.963994 1_545
Ru7 Sc11 2.963994 1_455
