# generated using pymatgen
data_K2Na6V5(MoO8)3
_symmetry_space_group_name_H-M   'P 1'
_cell_length_a   7.74685400
_cell_length_b   7.74646000
_cell_length_c   7.74956262
_cell_angle_alpha   89.96294417
_cell_angle_beta   90.00000000
_cell_angle_gamma   90.00000000
_symmetry_Int_Tables_number   1
_chemical_formula_structural   K2Na6V5(MoO8)3
_chemical_formula_sum   'K2 Na6 V5 Mo3 O24'
_cell_volume   465.05653874
_cell_formula_units_Z   1
loop_
 _symmetry_equiv_pos_site_id
 _symmetry_equiv_pos_as_xyz
  1  'x, y, z'
loop_
 _atom_site_type_symbol
 _atom_site_label
 _atom_site_symmetry_multiplicity
 _atom_site_fract_x
 _atom_site_fract_y
 _atom_site_fract_z
 _atom_site_occupancy
  K  K0  1  0.74819200  0.25924800  0.25175200  1
  K  K1  1  0.74819200  0.74075200  0.74824800  1
  Na  Na0  1  0.74648800  0.73363000  0.25353800  1
  Na  Na1  1  0.25331900  0.73384300  0.25356800  1
  Na  Na2  1  0.25321800  0.26640500  0.25355000  1
  Na  Na3  1  0.25321800  0.73359500  0.74645000  1
  Na  Na4  1  0.74648800  0.26637000  0.74646200  1
  Na  Na5  1  0.25331900  0.26615700  0.74643200  1
  V  V0  1  0.00007800  0.50000000  0.00000000  1
  V  V1  1  0.49546700  0.50000000  0.00000000  1
  V  V2  1  0.49803300  0.00000000  0.50000000  1
  V  V3  1  0.00358000  0.50000000  0.50000000  1
  V  V4  1  0.49911000  0.50000000  0.50000000  1
  Mo  Mo0  1  0.00083300  0.00000000  0.00000000  1
  Mo  Mo1  1  0.49798100  0.00000000  0.00000000  1
  Mo  Mo2  1  0.00175000  0.00000000  0.50000000  1
  O  O0  1  0.00305700  0.99967700  0.24795200  1
  O  O1  1  0.49662600  0.99916900  0.24507200  1
  O  O2  1  0.00498500  0.50251700  0.24242300  1
  O  O3  1  0.49526500  0.50222200  0.25458500  1
  O  O4  1  0.00305700  0.00032300  0.75204800  1
  O  O5  1  0.49662600  0.00083100  0.75492800  1
  O  O6  1  0.00498500  0.49748300  0.75757700  1
  O  O7  1  0.49526500  0.49777800  0.74541500  1
  O  O8  1  0.00339800  0.75432000  0.00080400  1
  O  O9  1  0.49605300  0.75077300  0.00143400  1
  O  O10  1  0.00339800  0.24568000  0.99919600  1
  O  O11  1  0.49605300  0.24922700  0.99856600  1
  O  O12  1  0.00419200  0.75167100  0.49816400  1
  O  O13  1  0.49559000  0.75458200  0.49824400  1
  O  O14  1  0.00419200  0.24832900  0.50183600  1
  O  O15  1  0.49559000  0.24541800  0.50175600  1
  O  O16  1  0.75163200  0.00000000  0.00000000  1
  O  O17  1  0.24784700  0.00000000  0.00000000  1
  O  O18  1  0.75714500  0.50000000  0.00000000  1
  O  O19  1  0.24687700  0.50000000  0.00000000  1
  O  O20  1  0.75543400  0.00000000  0.50000000  1
  O  O21  1  0.24639900  0.00000000  0.50000000  1
  O  O22  1  0.74715500  0.50000000  0.50000000  1
  O  O23  1  0.24991500  0.50000000  0.50000000  1
loop_
_geom_bond_atom_site_label_1
_geom_bond_atom_site_label_2
_geom_bond_distance
_geom_bond_site_symmetry_2
K0 O22 2.680279 1_555
K0 O18 2.698984 1_555
K0 O3 2.717052 1_555
K0 O2 2.741123 1_655
K0 O15 2.755749 1_555
K0 O11 2.769712 1_554
K0 O14 2.774168 1_655
K0 O20 2.780700 1_555
K0 O10 2.783997 1_654
K0 O16 2.800918 1_555
K0 O1 2.803532 1_545
K0 O0 2.818217 1_645
K1 O22 2.680279 1_555
K1 O18 2.698984 1_556
K1 O7 2.717052 1_555
K1 O6 2.741123 1_655
K1 O13 2.755749 1_555
K1 O9 2.769712 1_556
K1 O12 2.774168 1_655
K1 O20 2.780700 1_565
K1 O8 2.783997 1_656
K1 O16 2.800918 1_566
K1 O5 2.803532 1_565
K1 O4 2.818217 1_665
Na0 O22 2.630389 1_555
Na0 O3 2.645956 1_555
Na0 O18 2.673440 1_555
Na0 O2 2.687560 1_655
Na0 O13 2.720440 1_555
Na0 O9 2.756474 1_555
Na0 O12 2.756686 1_655
Na0 O8 2.796852 1_655
Na0 O20 2.813471 1_565
Na0 O1 2.825251 1_555
Na0 O16 2.848603 1_565
Na0 O0 2.863516 1_655
Na1 O3 2.594692 1_555
Na1 O2 2.630552 1_555
Na1 O23 2.631482 1_555
Na1 O13 2.672834 1_555
Na1 O19 2.673921 1_555
Na1 O12 2.708706 1_555
Na1 O9 2.714904 1_555
Na1 O8 2.758657 1_555
Na1 O1 2.789495 1_555
Na1 O21 2.811759 1_565
Na1 O0 2.828623 1_555
Na1 O17 2.847606 1_565
Na2 O3 2.617842 1_555
Na2 O23 2.631954 1_555
Na2 O2 2.655299 1_555
Na2 O19 2.670780 1_555
Na2 O15 2.692822 1_555
Na2 O14 2.728212 1_555
Na2 O11 2.731597 1_554
Na2 O10 2.767130 1_554
Na2 O1 2.801001 1_545
Na2 O21 2.811436 1_555
Na2 O0 2.833172 1_545
Na2 O17 2.850729 1_555
Na3 O7 2.617842 1_555
Na3 O23 2.631954 1_555
Na3 O6 2.655299 1_555
Na3 O19 2.670780 1_556
Na3 O13 2.692822 1_555
Na3 O12 2.728212 1_555
Na3 O9 2.731597 1_556
Na3 O8 2.767130 1_556
Na3 O5 2.801001 1_565
Na3 O21 2.811436 1_565
Na3 O4 2.833172 1_565
Na3 O17 2.850729 1_566
Na4 O22 2.630389 1_555
Na4 O7 2.645956 1_555
Na4 O18 2.673440 1_556
Na4 O6 2.687560 1_655
Na4 O15 2.720440 1_555
Na4 O11 2.756474 1_555
Na4 O14 2.756686 1_655
Na4 O10 2.796852 1_655
Na4 O20 2.813471 1_555
Na4 O5 2.825251 1_555
Na4 O16 2.848603 1_556
Na4 O4 2.863516 1_655
Na5 O7 2.594692 1_555
Na5 O6 2.630552 1_555
Na5 O23 2.631482 1_555
Na5 O15 2.672834 1_555
Na5 O19 2.673921 1_556
Na5 O14 2.708706 1_555
Na5 O11 2.714904 1_555
Na5 O10 2.758657 1_555
Na5 O5 2.789495 1_555
Na5 O21 2.811759 1_555
Na5 O4 2.828623 1_555
Na5 O17 2.847606 1_556
Mo0 O10 1.903260 1_554
Mo0 O8 1.903260 1_545
Mo0 O17 1.913581 1_555
Mo0 O4 1.921597 1_554
Mo0 O0 1.921597 1_545
Mo0 O16 1.930524 1_455
Mo1 O5 1.899237 1_554
Mo1 O1 1.899237 1_545
Mo1 O9 1.930710 1_545
Mo1 O11 1.930710 1_554
Mo1 O17 1.937752 1_555
Mo1 O16 1.964997 1_555
Mo2 O21 1.895260 1_555
Mo2 O20 1.908174 1_455
Mo2 O14 1.923826 1_555
Mo2 O12 1.923826 1_545
Mo2 O0 1.953291 1_545
Mo2 O4 1.953291 1_555
O1 V2 1.975625 1_565
O2 V0 1.879171 1_555
O2 V3 1.996221 1_555
O3 V4 1.902159 1_555
O3 V1 1.973009 1_555
O5 V2 1.975625 1_555
O6 V0 1.879171 1_556
O6 V3 1.996221 1_555
O7 V4 1.902159 1_555
O7 V1 1.973009 1_556
O8 V0 1.970261 1_555
O9 V1 1.942647 1_555
O10 V0 1.970261 1_556
O11 V1 1.942647 1_556
O12 V3 1.949608 1_555
O13 V2 1.901272 1_565
O13 V4 1.972336 1_555
O14 V3 1.949608 1_555
O15 V2 1.901272 1_555
O15 V4 1.972336 1_555
O18 V0 1.881966 1_655
O18 V1 2.027181 1_555
O19 V0 1.911916 1_555
O19 V1 1.925790 1_555
O20 V2 1.994048 1_555
O21 V2 1.949372 1_555
O22 V4 1.921568 1_555
O22 V3 1.986487 1_655
O23 V3 1.908321 1_555
O23 V4 1.930477 1_555
