# generated using pymatgen
data_K3Mg4(Si2O7)2
_symmetry_space_group_name_H-M   'P 1'
_cell_length_a   5.12391090
_cell_length_b   5.12597608
_cell_length_c   13.27973104
_cell_angle_alpha   89.99504514
_cell_angle_beta   90.00879627
_cell_angle_gamma   119.99914362
_symmetry_Int_Tables_number   1
_chemical_formula_structural   K3Mg4(Si2O7)2
_chemical_formula_sum   'K3 Mg4 Si4 O14'
_cell_volume   302.06596721
_cell_formula_units_Z   1
loop_
 _symmetry_equiv_pos_site_id
 _symmetry_equiv_pos_as_xyz
  1  'x, y, z'
loop_
 _atom_site_type_symbol
 _atom_site_label
 _atom_site_symmetry_multiplicity
 _atom_site_fract_x
 _atom_site_fract_y
 _atom_site_fract_z
 _atom_site_occupancy
  K  K0  1  0.33062700  0.65567700  0.75006600  1
  K  K1  1  0.66900100  0.32468400  0.75005600  1
  K  K2  1  0.68016100  0.33913900  0.24982700  1
  Mg  Mg0  1  0.33450800  0.66575600  0.49323800  1
  Mg  Mg1  1  0.66726600  0.33299300  0.50075900  1
  Mg  Mg2  1  0.66728500  0.33292100  0.99940600  1
  Mg  Mg3  1  0.33459100  0.66584300  0.00694300  1
  Si  Si0  1  0.99953100  0.99551400  0.62075400  1
  Si  Si1  1  0.00381300  0.00091600  0.37612100  1
  Si  Si2  1  0.00377400  0.00108000  0.12386500  1
  Si  Si3  1  0.99958700  0.99561300  0.87922600  1
  O  O0  1  0.31130800  0.99570900  0.90909500  1
  O  O1  1  0.68806300  0.68528200  0.90879400  1
  O  O2  1  0.00025200  0.30706500  0.90947700  1
  O  O3  1  0.69887200  0.00599000  0.08762400  1
  O  O4  1  0.31315100  0.30512100  0.08822800  1
  O  O5  1  0.99742100  0.69085900  0.08775200  1
  O  O6  1  0.69909200  0.00595700  0.41236700  1
  O  O7  1  0.31292900  0.30493600  0.41175600  1
  O  O8  1  0.99742300  0.69115700  0.41220500  1
  O  O9  1  0.31119400  0.99570600  0.59088900  1
  O  O10  1  0.68811000  0.68534500  0.59119800  1
  O  O11  1  0.00017400  0.30699500  0.59048900  1
  O  O12  1  0.00086900  0.99676800  0.74998100  1
  O  O13  1  0.00099800  0.00097300  0.24988400  1
loop_
_geom_bond_atom_site_label_1
_geom_bond_atom_site_label_2
_geom_bond_distance
_geom_bond_site_symmetry_2
K0 O2 2.741500 1_555
K0 O11 2.743279 1_555
K0 O1 2.746152 1_555
K0 O10 2.748055 1_555
K0 O0 2.771467 1_555
K0 O9 2.772907 1_555
K0 O12 2.925071 1_545
K0 O12 2.974348 1_655
K0 O12 2.977592 1_555
K1 O2 2.742829 1_655
K1 O11 2.744610 1_655
K1 O0 2.751961 1_545
K1 O9 2.753272 1_545
K1 O1 2.773070 1_555
K1 O10 2.774199 1_555
K1 O12 2.928340 1_645
K1 O12 2.964979 1_545
K1 O12 2.983640 1_655
K2 O5 2.755937 1_555
K2 O8 2.759486 1_555
K2 O3 2.780228 1_555
K2 O6 2.783936 1_555
K2 O4 2.800532 1_555
K2 O7 2.804780 1_555
K2 O13 2.925219 1_655
K2 O13 2.938521 1_665
K2 O13 3.013776 1_555
Mg0 O8 2.093424 1_455
Mg0 O7 2.097556 1_555
Mg0 O6 2.104013 1_565
Mg0 O9 2.181495 1_555
Mg0 O10 2.191452 1_555
Mg0 O11 2.198744 1_555
Mg1 O7 2.110045 1_555
Mg1 O6 2.118599 1_555
Mg1 O8 2.123650 1_555
Mg1 O10 2.126836 1_555
Mg1 O11 2.138699 1_655
Mg1 O9 2.143943 1_545
Mg2 O4 2.108615 1_556
Mg2 O3 2.116106 1_556
Mg2 O5 2.121430 1_556
Mg2 O1 2.128141 1_555
Mg2 O2 2.140393 1_655
Mg2 O0 2.144776 1_545
Mg3 O5 2.091616 1_455
Mg3 O4 2.095907 1_555
Mg3 O3 2.101746 1_565
Mg3 O0 2.182440 1_554
Mg3 O1 2.193010 1_554
Mg3 O2 2.200348 1_554
O0 Si3 1.645448 1_455
O1 Si3 1.641203 1_555
O2 Si3 1.644647 1_445
O3 Si2 1.646844 1_655
O4 Si2 1.641774 1_555
O5 Si2 1.645631 1_665
O6 Si1 1.646446 1_655
O7 Si1 1.640997 1_555
O8 Si1 1.643089 1_665
O9 Si0 1.645026 1_455
O10 Si0 1.640454 1_555
O11 Si0 1.644824 1_445
O12 Si0 1.716112 1_455
O12 Si3 1.716351 1_455
O13 Si2 1.673559 1_555
O13 Si1 1.676455 1_555
