# generated using pymatgen
data_MgTiPO5
_symmetry_space_group_name_H-M   'P 1'
_cell_length_a   5.32820663
_cell_length_b   5.32820663
_cell_length_c   7.06271725
_cell_angle_alpha   76.16685635
_cell_angle_beta   76.16685635
_cell_angle_gamma   102.11789891
_symmetry_Int_Tables_number   1
_chemical_formula_structural   MgTiPO5
_chemical_formula_sum   'Mg2 Ti2 P2 O10'
_cell_volume   181.30248414
_cell_formula_units_Z   2
loop_
 _symmetry_equiv_pos_site_id
 _symmetry_equiv_pos_as_xyz
  1  'x, y, z'
loop_
 _atom_site_type_symbol
 _atom_site_label
 _atom_site_symmetry_multiplicity
 _atom_site_fract_x
 _atom_site_fract_y
 _atom_site_fract_z
 _atom_site_occupancy
  Mg  Mg0  1  0.83298900  0.16701100  0.75000000  1
  Mg  Mg1  1  0.16701100  0.83298900  0.25000000  1
  Ti  Ti0  1  0.50000000  0.50000000  0.50000000  1
  Ti  Ti1  1  0.50000000  0.50000000  0.00000000  1
  P  P0  1  0.16840200  0.83159800  0.75000000  1
  P  P1  1  0.83159800  0.16840200  0.25000000  1
  O  O0  1  0.38420300  0.83302400  0.85997200  1
  O  O1  1  0.16697600  0.61579700  0.64002800  1
  O  O2  1  0.61579700  0.16697600  0.14002800  1
  O  O3  1  0.83302400  0.38420300  0.35997200  1
  O  O4  1  0.79393500  0.87797500  0.40393500  1
  O  O5  1  0.12202500  0.20606500  0.09606500  1
  O  O6  1  0.20606500  0.12202500  0.59606500  1
  O  O7  1  0.87797500  0.79393500  0.90393500  1
  O  O8  1  0.41173800  0.58826200  0.25000000  1
  O  O9  1  0.58826200  0.41173800  0.75000000  1
loop_
_geom_bond_atom_site_label_1
_geom_bond_atom_site_label_2
_geom_bond_distance
_geom_bond_site_symmetry_2
Mg0 O9 2.028416 1_555
Mg0 O7 2.117102 1_545
Mg0 O6 2.117102 1_655
Mg0 O1 2.480397 1_655
Mg0 O0 2.480397 1_545
Mg0 O2 2.720778 1_556
Mg0 O3 2.720778 1_555
Mg1 O8 2.028416 1_555
Mg1 O5 2.117102 1_565
Mg1 O4 2.117102 1_455
Mg1 O2 2.480397 1_565
Mg1 O3 2.480397 1_455
Mg1 O1 2.720778 1_555
Mg1 O0 2.720778 1_554
O0 P0 1.533509 1_555
O0 Ti1 2.102285 1_556
O1 P0 1.533509 1_555
O1 Ti0 2.102285 1_555
O2 P1 1.533509 1_555
O2 Ti1 2.102285 1_555
O3 P1 1.533509 1_555
O3 Ti0 2.102285 1_555
O4 P1 1.605515 1_565
O4 Ti0 2.117377 1_555
O5 P1 1.605515 1_455
O5 Ti1 2.117377 1_555
O6 P0 1.605515 1_545
O6 Ti0 2.117377 1_555
O7 P0 1.605515 1_655
O7 Ti1 2.117377 1_556
O8 Ti0 1.911230 1_555
O8 Ti1 1.911230 1_555
O9 Ti0 1.911230 1_555
O9 Ti1 1.911230 1_556
