# generated using pymatgen
data_Sr2CoN2
_symmetry_space_group_name_H-M   'P 1'
_cell_length_a   8.43239313
_cell_length_b   16.58662200
_cell_length_c   11.56932179
_cell_angle_alpha   90.00000000
_cell_angle_beta   100.29712606
_cell_angle_gamma   90.00000000
_symmetry_Int_Tables_number   1
_chemical_formula_structural   Sr2CoN2
_chemical_formula_sum   'Sr32 Co16 N32'
_cell_volume   1592.08044673
_cell_formula_units_Z   16
loop_
 _symmetry_equiv_pos_site_id
 _symmetry_equiv_pos_as_xyz
  1  'x, y, z'
loop_
 _atom_site_type_symbol
 _atom_site_label
 _atom_site_symmetry_multiplicity
 _atom_site_fract_x
 _atom_site_fract_y
 _atom_site_fract_z
 _atom_site_occupancy
  Sr  Sr0  1  0.16140800  0.75000000  0.74044900  1
  Sr  Sr1  1  0.83859200  0.25000000  0.25955100  1
  Sr  Sr2  1  0.57543100  0.75000000  0.15255900  1
  Sr  Sr3  1  0.42456900  0.25000000  0.84744100  1
  Sr  Sr4  1  0.94965400  0.58947200  0.75750600  1
  Sr  Sr5  1  0.05034700  0.08947200  0.24249400  1
  Sr  Sr6  1  0.05034700  0.41052800  0.24249400  1
  Sr  Sr7  1  0.94965400  0.91052800  0.75750600  1
  Sr  Sr8  1  0.64240400  0.39221800  0.40775300  1
  Sr  Sr9  1  0.35759600  0.89221800  0.59224700  1
  Sr  Sr10  1  0.35759600  0.60778200  0.59224700  1
  Sr  Sr11  1  0.64240400  0.10778200  0.40775300  1
  Sr  Sr12  1  0.77957700  0.25000000  0.66964600  1
  Sr  Sr13  1  0.22042300  0.75000000  0.33035400  1
  Sr  Sr14  1  0.31670700  0.56023800  0.04423100  1
  Sr  Sr15  1  0.68329300  0.06023800  0.95576900  1
  Sr  Sr16  1  0.68329300  0.43976200  0.95576900  1
  Sr  Sr17  1  0.31670700  0.93976200  0.04423100  1
  Sr  Sr18  1  0.00000000  0.50000000  0.50000000  1
  Sr  Sr19  1  0.00000000  0.00000000  0.50000000  1
  Sr  Sr20  1  0.40914100  0.35114500  0.12052500  1
  Sr  Sr21  1  0.59085900  0.85114500  0.87947500  1
  Sr  Sr22  1  0.59085900  0.64885500  0.87947500  1
  Sr  Sr23  1  0.40914100  0.14885500  0.12052500  1
  Sr  Sr24  1  0.08663500  0.36705100  0.85243800  1
  Sr  Sr25  1  0.91336500  0.86705100  0.14756200  1
  Sr  Sr26  1  0.91336500  0.63294900  0.14756200  1
  Sr  Sr27  1  0.08663500  0.13294900  0.85243800  1
  Sr  Sr28  1  0.69454200  0.63328700  0.42632700  1
  Sr  Sr29  1  0.30545800  0.13328700  0.57367300  1
  Sr  Sr30  1  0.30545800  0.36671300  0.57367300  1
  Sr  Sr31  1  0.69454200  0.86671300  0.42632700  1
  Co  Co0  1  0.91962000  0.75000000  0.92487000  1
  Co  Co1  1  0.08038000  0.25000000  0.07513000  1
  Co  Co2  1  0.64466600  0.51492300  0.19998700  1
  Co  Co3  1  0.35533400  0.01492300  0.80001300  1
  Co  Co4  1  0.35533400  0.48507700  0.80001300  1
  Co  Co5  1  0.64466600  0.98507700  0.19998700  1
  Co  Co6  1  0.02542100  0.25000000  0.51742800  1
  Co  Co7  1  0.97457900  0.75000000  0.48257200  1
  Co  Co8  1  0.65626300  0.46380000  0.68272400  1
  Co  Co9  1  0.34373700  0.96380000  0.31727600  1
  Co  Co10  1  0.34373700  0.53620000  0.31727600  1
  Co  Co11  1  0.65626300  0.03620000  0.68272400  1
  Co  Co12  1  0.64132200  0.75000000  0.67468200  1
  Co  Co13  1  0.35867800  0.25000000  0.32531800  1
  Co  Co14  1  0.80917600  0.25000000  0.99269700  1
  Co  Co15  1  0.19082400  0.75000000  0.00730300  1
  N  N0  1  0.55911100  0.25000000  0.30415100  1
  N  N1  1  0.44088900  0.75000000  0.69584900  1
  N  N2  1  0.81710100  0.75000000  0.77735900  1
  N  N3  1  0.18289900  0.25000000  0.22264100  1
  N  N4  1  0.46228800  0.48392700  0.23767600  1
  N  N5  1  0.53771200  0.98392700  0.76232400  1
  N  N6  1  0.53771200  0.51607300  0.76232400  1
  N  N7  1  0.46228800  0.01607300  0.23767600  1
  N  N8  1  0.37159900  0.42079700  0.92497900  1
  N  N9  1  0.62840100  0.92079700  0.07502100  1
  N  N10  1  0.62840100  0.57920300  0.07502100  1
  N  N11  1  0.37159900  0.07920300  0.92497900  1
  N  N12  1  0.82383300  0.50688600  0.30434100  1
  N  N13  1  0.17616700  0.00688600  0.69565900  1
  N  N14  1  0.17616700  0.49311400  0.69565900  1
  N  N15  1  0.82383300  0.99311400  0.30434100  1
  N  N16  1  0.61943300  0.37193800  0.61838600  1
  N  N17  1  0.38056700  0.87193800  0.38161400  1
  N  N18  1  0.38056700  0.62806200  0.38161400  1
  N  N19  1  0.61943300  0.12806200  0.61838600  1
  N  N20  1  0.07894500  0.66206300  0.96250000  1
  N  N21  1  0.92105500  0.16206300  0.03750000  1
  N  N22  1  0.92105500  0.33793700  0.03750000  1
  N  N23  1  0.07894500  0.83793700  0.96250000  1
  N  N24  1  0.76585200  0.75000000  0.01953300  1
  N  N25  1  0.23414800  0.25000000  0.98046700  1
  N  N26  1  0.99089100  0.34060300  0.43946500  1
  N  N27  1  0.00910900  0.84060300  0.56053500  1
  N  N28  1  0.00910900  0.65939700  0.56053500  1
  N  N29  1  0.99089100  0.15939700  0.43946500  1
  N  N30  1  0.85962000  0.75000000  0.33070300  1
  N  N31  1  0.14038000  0.25000000  0.66929700  1
loop_
_geom_bond_atom_site_label_1
_geom_bond_atom_site_label_2
_geom_bond_distance
_geom_bond_site_symmetry_2
Co0 N2 1.769853 1_555
Co0 N24 1.840752 1_556
Co0 N20 1.978092 1_655
Co0 N23 1.978092 1_655
Co1 N3 1.769853 1_555
Co1 N25 1.840752 1_554
Co1 N22 1.978092 1_455
Co1 N21 1.978092 1_455
Co2 N4 1.749075 1_555
Co2 N12 1.762328 1_555
Co2 N10 1.781834 1_555
Co3 N5 1.749075 1_545
Co3 N13 1.762328 1_555
Co3 N11 1.781834 1_555
Co4 N6 1.749075 1_555
Co4 N14 1.762328 1_555
Co4 N8 1.781834 1_555
Co5 N7 1.749075 1_565
Co5 N15 1.762328 1_555
Co5 N9 1.781834 1_555
Co6 N29 1.750102 1_455
Co6 N26 1.750102 1_455
Co6 N31 1.848759 1_555
Co7 N28 1.750102 1_655
Co7 N27 1.750102 1_655
Co7 N30 1.848759 1_555
Co8 N16 1.699841 1_555
Co8 N6 1.711227 1_555
Co8 Sr4 3.232485 1_555
Co9 N17 1.699841 1_555
Co9 N7 1.711227 1_565
Co9 Sr5 3.232479 1_565
Co10 N18 1.699841 1_555
Co10 N4 1.711227 1_555
Co10 Sr6 3.232479 1_555
Co11 N19 1.699841 1_555
Co11 N5 1.711227 1_545
Co11 Sr7 3.232485 1_545
Co12 N2 1.725880 1_555
Co12 N1 1.750565 1_555
Co13 N3 1.725880 1_555
Co13 N0 1.750565 1_555
Co14 N21 1.763894 1_556
Co14 N22 1.763894 1_556
Co14 Sr3 3.375460 1_555
Co15 N20 1.763894 1_554
Co15 N23 1.763894 1_554
Co15 Sr2 3.375460 1_555
N0 Sr1 2.500998 1_555
N0 Sr11 2.682067 1_555
N0 Sr8 2.682067 1_555
N0 Sr20 2.822496 1_555
N0 Sr23 2.822496 1_555
N1 Sr0 2.500998 1_555
N1 Sr10 2.682067 1_555
N1 Sr9 2.682067 1_555
N1 Sr21 2.822496 1_555
N1 Sr22 2.822496 1_555
N2 Sr7 2.912629 1_555
N2 Sr4 2.912629 1_555
N2 Sr22 2.942036 1_555
N2 Sr21 2.942036 1_555
N3 Sr6 2.912626 1_555
N3 Sr5 2.912626 1_555
N3 Sr20 2.942036 1_555
N3 Sr23 2.942036 1_555
N4 Sr20 2.582881 1_555
N4 Sr14 2.671264 1_555
N4 Sr8 2.724700 1_555
N5 Sr21 2.582881 1_555
N5 Sr15 2.671264 1_565
N5 Sr9 2.724700 1_555
N6 Sr22 2.582881 1_555
N6 Sr16 2.671264 1_555
N6 Sr10 2.724700 1_555
N7 Sr23 2.582881 1_555
N7 Sr17 2.671264 1_545
N7 Sr11 2.724700 1_555
N8 Sr20 2.509389 1_556
N8 Sr24 2.559716 1_555
N8 Sr16 2.607532 1_555
N8 Sr14 2.774046 1_556
N8 Sr3 3.028705 1_555
N9 Sr21 2.509389 1_554
N9 Sr25 2.559716 1_555
N9 Sr17 2.607532 1_555
N9 Sr15 2.774046 1_564
N9 Sr2 3.028705 1_555
N10 Sr22 2.509389 1_554
N10 Sr26 2.559716 1_555
N10 Sr14 2.607532 1_555
N10 Sr16 2.774046 1_554
N10 Sr2 3.028705 1_555
N11 Sr23 2.509389 1_556
N11 Sr27 2.559716 1_555
N11 Sr15 2.607532 1_555
N11 Sr17 2.774046 1_546
N11 Sr3 3.028705 1_555
N12 Sr18 2.478243 1_655
N12 Sr6 2.683898 1_655
N12 Sr8 2.836145 1_555
N12 Sr28 2.850618 1_555
N12 Sr26 2.953239 1_555
N13 Sr19 2.478243 1_555
N13 Sr7 2.683891 1_445
N13 Sr9 2.836145 1_545
N13 Sr29 2.850618 1_555
N13 Sr27 2.953239 1_555
N14 Sr18 2.478243 1_555
N14 Sr4 2.683891 1_455
N14 Sr10 2.836145 1_555
N14 Sr30 2.850618 1_555
N14 Sr24 2.953239 1_555
N15 Sr19 2.478243 1_665
N15 Sr5 2.683898 1_665
N15 Sr11 2.836145 1_565
N15 Sr31 2.850618 1_555
N15 Sr25 2.953239 1_555
N16 Sr12 2.445329 1_555
N16 Sr8 2.501561 1_555
N16 Sr30 2.606732 1_555
N17 Sr13 2.445329 1_555
N17 Sr9 2.501561 1_555
N17 Sr31 2.606732 1_555
N18 Sr13 2.445329 1_555
N18 Sr10 2.501561 1_555
N18 Sr28 2.606732 1_555
N19 Sr12 2.445329 1_555
N19 Sr11 2.501561 1_555
N19 Sr29 2.606732 1_555
N20 Sr14 2.662421 1_556
N20 Sr4 2.708989 1_455
N20 Sr26 2.799189 1_456
N21 Sr15 2.662421 1_554
N21 Sr5 2.708991 1_655
N21 Sr27 2.799189 1_654
N22 Sr16 2.662421 1_554
N22 Sr6 2.708991 1_655
N22 Sr24 2.799189 1_654
N23 Sr17 2.662421 1_556
N23 Sr7 2.708989 1_455
N23 Sr25 2.799189 1_456
N24 Sr2 2.414611 1_555
N24 Sr21 2.600530 1_554
N24 Sr22 2.600530 1_554
N24 Sr25 2.617612 1_555
N24 Sr26 2.617612 1_555
N25 Sr3 2.414611 1_555
N25 Sr20 2.600530 1_556
N25 Sr23 2.600530 1_556
N25 Sr27 2.617612 1_555
N25 Sr24 2.617612 1_555
N26 Sr6 2.682912 1_655
N26 Sr1 2.698999 1_555
N26 Sr18 2.732607 1_655
N26 Sr30 2.856926 1_655
N26 Sr8 3.019496 1_555
N27 Sr7 2.682909 1_455
N27 Sr0 2.698999 1_555
N27 Sr19 2.732607 1_565
N27 Sr31 2.856926 1_455
N27 Sr9 3.019496 1_555
N28 Sr4 2.682909 1_455
N28 Sr0 2.698999 1_555
N28 Sr18 2.732607 1_555
N28 Sr28 2.856926 1_455
N28 Sr10 3.019496 1_555
N29 Sr5 2.682912 1_655
N29 Sr1 2.698999 1_555
N29 Sr19 2.732607 1_655
N29 Sr29 2.856926 1_655
N29 Sr11 3.019496 1_555
N30 Sr28 2.731253 1_555
N30 Sr31 2.731253 1_555
N30 Sr2 2.867879 1_555
N30 Sr26 2.967729 1_555
N30 Sr25 2.967729 1_555
N30 Sr13 3.043157 1_655
N31 Sr29 2.731253 1_555
N31 Sr30 2.731253 1_555
N31 Sr3 2.867879 1_555
N31 Sr27 2.967729 1_555
N31 Sr24 2.967729 1_555
N31 Sr12 3.043157 1_455
