# generated using pymatgen
data_Sr2AlV2GaO7
_symmetry_space_group_name_H-M   'P 1'
_cell_length_a   11.73479031
_cell_length_b   11.73479031
_cell_length_c   5.58243318
_cell_angle_alpha   76.53000868
_cell_angle_beta   76.53000868
_cell_angle_gamma   140.01379653
_symmetry_Int_Tables_number   1
_chemical_formula_structural   Sr2AlV2GaO7
_chemical_formula_sum   'Sr4 Al2 V4 Ga2 O14'
_cell_volume   361.60885465
_cell_formula_units_Z   2
loop_
 _symmetry_equiv_pos_site_id
 _symmetry_equiv_pos_as_xyz
  1  'x, y, z'
loop_
 _atom_site_type_symbol
 _atom_site_label
 _atom_site_symmetry_multiplicity
 _atom_site_fract_x
 _atom_site_fract_y
 _atom_site_fract_z
 _atom_site_occupancy
  Sr  Sr0  1  0.89423200  0.69118200  0.96526500  1
  Sr  Sr1  1  0.12154400  0.31200000  0.03504900  1
  Sr  Sr2  1  0.31200000  0.12154400  0.03504900  1
  Sr  Sr3  1  0.69118200  0.89423200  0.96526500  1
  Al  Al0  1  0.39840200  0.93540500  0.01216800  1
  Al  Al1  1  0.93540500  0.39840200  0.01216800  1
  V  V0  1  0.07779100  0.44686200  0.48297200  1
  V  V1  1  0.44686200  0.07779100  0.48297200  1
  V  V2  1  0.55696500  0.91646600  0.52179300  1
  V  V3  1  0.91646600  0.55696500  0.52179300  1
  Ga  Ga0  1  0.33744400  0.33744400  0.44078900  1
  Ga  Ga1  1  0.67772200  0.67772200  0.61143300  1
  O  O0  1  0.16908600  0.79480500  0.98582400  1
  O  O1  1  0.39348500  0.39348500  0.72662500  1
  O  O2  1  0.26535100  0.88386100  0.36517400  1
  O  O3  1  0.71998500  0.87386500  0.43097400  1
  O  O4  1  0.38763500  0.77155700  0.02814900  1
  O  O5  1  0.22208400  0.59798900  0.67856600  1
  O  O6  1  0.62634000  0.62634000  0.00127300  1
  O  O7  1  0.79480500  0.16908600  0.98582400  1
  O  O8  1  0.88386100  0.26535100  0.36517400  1
  O  O9  1  0.13382500  0.28554200  0.50705900  1
  O  O10  1  0.28554200  0.13382500  0.50705900  1
  O  O11  1  0.87386500  0.71998500  0.43097400  1
  O  O12  1  0.59798900  0.22208400  0.67856600  1
  O  O13  1  0.77155700  0.38763500  0.02814900  1
loop_
_geom_bond_atom_site_label_1
_geom_bond_atom_site_label_2
_geom_bond_distance
_geom_bond_site_symmetry_2
Al0 O12 1.801744 1_564
Al0 O2 1.803087 1_555
Al0 O4 1.806474 1_555
Al0 O0 1.865191 1_554
Al1 O5 1.801744 1_654
Al1 O8 1.803087 1_555
Al1 O13 1.806474 1_555
Al1 O7 1.865191 1_554
Ga0 O10 1.862870 1_555
Ga0 O9 1.862870 1_555
Ga0 O6 1.908918 1_555
Ga0 O1 1.930308 1_555
Ga1 O3 1.869859 1_555
Ga1 O11 1.869859 1_555
Ga1 O1 1.901907 1_555
Ga1 O6 1.919235 1_556
O0 V1 2.083190 1_565
O0 V3 2.197397 1_456
O0 Sr0 2.474289 1_455
O0 Sr2 2.905363 1_566
O1 Sr1 2.461638 1_556
O1 Sr2 2.461638 1_556
O2 V1 2.017424 1_565
O2 V3 2.223662 1_455
O2 Sr2 2.504198 1_565
O3 V2 2.301798 1_555
O3 Sr1 2.500402 1_665
O3 Sr3 2.678425 1_554
O3 Sr3 3.008947 1_555
O4 V0 2.036487 1_555
O4 V2 2.190049 1_554
O4 Sr3 2.491589 1_554
O5 V0 2.089557 1_555
O5 V2 2.131769 1_555
O5 Sr1 2.518413 1_556
O6 Sr0 2.543771 1_554
O6 Sr3 2.543771 1_554
O7 V0 2.083190 1_655
O7 V2 2.197397 1_546
O7 Sr3 2.474289 1_545
O7 Sr1 2.905363 1_656
O8 V0 2.017424 1_655
O8 V2 2.223662 1_545
O8 Sr1 2.504198 1_655
O9 V0 2.421612 1_555
O9 Sr3 2.529253 1_445
O9 Sr1 2.631454 1_555
O9 Sr1 3.016910 1_556
O10 V1 2.421612 1_555
O10 Sr0 2.529253 1_445
O10 Sr2 2.631454 1_555
O10 Sr2 3.016910 1_556
O11 V3 2.301798 1_555
O11 Sr2 2.500402 1_665
O11 Sr0 2.678425 1_554
O11 Sr0 3.008947 1_555
O12 V1 2.089557 1_555
O12 V3 2.131769 1_555
O12 Sr2 2.518413 1_556
O13 V1 2.036487 1_555
O13 V3 2.190049 1_554
O13 Sr0 2.491589 1_554
