# generated using pymatgen
data_Yb(Al5Fe)2
_symmetry_space_group_name_H-M   'P 1'
_cell_length_a   6.77209756
_cell_length_b   6.77209756
_cell_length_c   8.98420700
_cell_angle_alpha   90.00000000
_cell_angle_beta   90.00000000
_cell_angle_gamma   97.26446591
_symmetry_Int_Tables_number   1
_chemical_formula_structural   Yb(Al5Fe)2
_chemical_formula_sum   'Yb2 Al20 Fe4'
_cell_volume   408.72013956
_cell_formula_units_Z   2
loop_
 _symmetry_equiv_pos_site_id
 _symmetry_equiv_pos_as_xyz
  1  'x, y, z'
loop_
 _atom_site_type_symbol
 _atom_site_label
 _atom_site_symmetry_multiplicity
 _atom_site_fract_x
 _atom_site_fract_y
 _atom_site_fract_z
 _atom_site_occupancy
  Yb  Yb0  1  0.87750500  0.12249500  0.25000000  1
  Yb  Yb1  1  0.12249500  0.87750500  0.75000000  1
  Al  Al0  1  0.22706000  0.22706000  0.50000000  1
  Al  Al1  1  0.77294000  0.77294000  0.00000000  1
  Al  Al2  1  0.77294000  0.77294000  0.50000000  1
  Al  Al3  1  0.22706000  0.22706000  0.00000000  1
  Al  Al4  1  0.37445500  0.62554500  0.54673200  1
  Al  Al5  1  0.62554500  0.37445500  0.04673200  1
  Al  Al6  1  0.58555000  0.86778000  0.75000000  1
  Al  Al7  1  0.41445000  0.13222000  0.25000000  1
  Al  Al8  1  0.86778000  0.58555000  0.25000000  1
  Al  Al9  1  0.13222000  0.41445000  0.75000000  1
  Al  Al10  1  0.47444400  0.22024100  0.75000000  1
  Al  Al11  1  0.52555600  0.77975900  0.25000000  1
  Al  Al12  1  0.22024100  0.47444400  0.25000000  1
  Al  Al13  1  0.77975900  0.52555600  0.75000000  1
  Al  Al14  1  0.15801700  0.84198300  0.40337900  1
  Al  Al15  1  0.84198300  0.15801700  0.90337900  1
  Al  Al16  1  0.84198300  0.15801700  0.59662100  1
  Al  Al17  1  0.15801700  0.84198300  0.09662100  1
  Al  Al18  1  0.37445500  0.62554500  0.95326800  1
  Al  Al19  1  0.62554500  0.37445500  0.45326800  1
  Fe  Fe0  1  0.00000000  0.50000000  0.50000000  1
  Fe  Fe1  1  0.00000000  0.50000000  0.00000000  1
  Fe  Fe2  1  0.50000000  0.00000000  0.50000000  1
  Fe  Fe3  1  0.50000000  0.00000000  0.00000000  1
loop_
_geom_bond_atom_site_label_1
_geom_bond_atom_site_label_2
_geom_bond_distance
_geom_bond_site_symmetry_2
Al0 Fe2 2.549455 1_555
Al0 Fe0 2.549455 1_555
Al0 Al9 2.696998 1_555
Al0 Al7 2.696998 1_555
Al0 Al16 2.732087 1_455
Al0 Al14 2.732087 1_545
Al0 Al4 2.788142 1_555
Al0 Al19 2.788142 1_555
Al0 Al10 2.805905 1_555
Al0 Al12 2.805905 1_555
Al0 Yb0 3.275056 1_455
Al0 Yb1 3.275056 1_545
Al1 Fe3 2.549455 1_565
Al1 Fe1 2.549455 1_655
Al1 Al6 2.696998 1_554
Al1 Al8 2.696998 1_555
Al1 Al17 2.732087 1_655
Al1 Al15 2.732087 1_564
Al1 Al18 2.788142 1_554
Al1 Al5 2.788142 1_555
Al1 Al13 2.805905 1_554
Al1 Al11 2.805905 1_555
Al1 Yb1 3.275056 1_654
Al1 Yb0 3.275056 1_565
Al2 Fe0 2.549455 1_655
Al2 Fe2 2.549455 1_565
Al2 Al6 2.696998 1_555
Al2 Al8 2.696998 1_555
Al2 Al4 2.788142 1_555
Al2 Yb1 3.275056 1_655
Al2 Yb0 3.275056 1_565
Al3 Fe1 2.549455 1_555
Al3 Fe3 2.549455 1_555
Al3 Al9 2.696998 1_554
Al3 Al7 2.696998 1_555
Al3 Al5 2.788142 1_555
Al3 Yb0 3.275056 1_455
Al3 Yb1 3.275056 1_544
Al4 Fe2 2.604686 1_565
Al4 Fe0 2.604686 1_555
Al4 Al9 2.734339 1_555
Al4 Al6 2.734339 1_555
Al4 Yb1 3.145508 1_555
Al5 Fe3 2.604686 1_555
Al5 Fe1 2.604686 1_655
Al5 Al7 2.734339 1_555
Al5 Al8 2.734339 1_555
Al5 Yb0 3.145508 1_555
Al6 Fe2 2.512637 1_565
Al6 Fe3 2.512637 1_566
Al6 Yb1 3.144860 1_555
Al6 Yb1 3.628504 1_655
Al7 Fe3 2.512637 1_555
Al7 Fe2 2.512637 1_555
Al7 Yb0 3.144860 1_555
Al7 Yb0 3.628504 1_455
Al8 Fe0 2.512637 1_655
Al8 Fe1 2.512637 1_655
Al8 Yb0 3.144860 1_555
Al8 Yb0 3.628504 1_565
Al9 Fe1 2.512637 1_556
Al9 Fe0 2.512637 1_555
Al9 Yb1 3.144860 1_555
Al9 Yb1 3.628504 1_545
Al10 Al6 2.591838 1_545
Al10 Fe3 2.713768 1_556
Al10 Fe2 2.713768 1_555
Al10 Al13 2.732942 1_555
Al10 Al9 2.805666 1_555
Al10 Al3 2.805905 1_556
Al10 Al15 2.921787 1_555
Al10 Al16 2.921787 1_555
Al10 Al5 2.995751 1_556
Al10 Al19 2.995751 1_555
Al10 Yb1 3.109492 1_545
Al11 Al7 2.591838 1_565
Al11 Fe2 2.713768 1_565
Al11 Fe3 2.713768 1_565
Al11 Al12 2.732942 1_555
Al11 Al8 2.805666 1_555
Al11 Al2 2.805905 1_555
Al11 Al14 2.921787 1_555
Al11 Al17 2.921787 1_555
Al11 Al4 2.995751 1_555
Al11 Al18 2.995751 1_554
Al11 Yb0 3.109492 1_565
Al12 Al8 2.591838 1_455
Al12 Fe1 2.713768 1_555
Al12 Fe0 2.713768 1_555
Al12 Al7 2.805666 1_555
Al12 Al3 2.805905 1_555
Al12 Al17 2.921787 1_555
Al12 Al14 2.921787 1_555
Al12 Al4 2.995751 1_555
Al12 Al18 2.995751 1_554
Al12 Yb0 3.109492 1_455
Al13 Al9 2.591838 1_655
Al13 Fe1 2.713768 1_656
Al13 Fe0 2.713768 1_655
Al13 Al6 2.805666 1_555
Al13 Al2 2.805905 1_555
Al13 Al16 2.921787 1_555
Al13 Al15 2.921787 1_555
Al13 Al5 2.995751 1_556
Al13 Al19 2.995751 1_555
Al13 Yb1 3.109492 1_655
Al14 Al4 2.549280 1_555
Al14 Fe2 2.575944 1_565
Al14 Fe0 2.575944 1_555
Al14 Al2 2.732087 1_455
Al14 Al17 2.755977 1_555
Al14 Al7 2.813294 1_565
Al14 Al8 2.813294 1_455
Al14 Yb1 3.134977 1_555
Al14 Yb0 3.166838 1_465
Al15 Al5 2.549280 1_556
Al15 Fe3 2.575944 1_556
Al15 Fe1 2.575944 1_656
Al15 Al3 2.732087 1_656
Al15 Al16 2.755977 1_555
Al15 Al6 2.813294 1_545
Al15 Al9 2.813294 1_655
Al15 Yb0 3.134977 1_556
Al15 Yb1 3.166838 1_645
Al16 Al19 2.549280 1_555
Al16 Fe2 2.575944 1_555
Al16 Fe0 2.575944 1_655
Al16 Al2 2.732087 1_545
Al16 Al6 2.813294 1_545
Al16 Al9 2.813294 1_655
Al16 Yb0 3.134977 1_555
Al16 Yb1 3.166838 1_645
Al17 Al18 2.549280 1_554
Al17 Fe1 2.575944 1_555
Al17 Fe3 2.575944 1_565
Al17 Al3 2.732087 1_565
Al17 Al7 2.813294 1_565
Al17 Al8 2.813294 1_455
Al17 Yb1 3.134977 1_554
Al17 Yb0 3.166838 1_465
Al18 Fe1 2.604686 1_556
Al18 Fe3 2.604686 1_566
Al18 Al5 2.686835 1_556
Al18 Al9 2.734339 1_555
Al18 Al6 2.734339 1_555
Al18 Al3 2.788142 1_556
Al18 Yb1 3.145508 1_555
Al19 Fe0 2.604686 1_655
Al19 Fe2 2.604686 1_555
Al19 Al4 2.686835 1_555
Al19 Al7 2.734339 1_555
Al19 Al8 2.734339 1_555
Al19 Al2 2.788142 1_555
Al19 Yb0 3.145508 1_555
Fe0 Yb1 3.425239 1_555
Fe0 Yb0 3.425239 1_455
Fe1 Yb1 3.425239 1_554
Fe1 Yb0 3.425239 1_455
Fe2 Yb1 3.425239 1_545
Fe2 Yb0 3.425239 1_555
Fe3 Yb1 3.425239 1_544
Fe3 Yb0 3.425239 1_555
