# generated using pymatgen
data_SmAgSn
_symmetry_space_group_name_H-M   'P 1'
_cell_length_a   4.87662377
_cell_length_b   4.87662377
_cell_length_c   7.60547800
_cell_angle_alpha   90.00000000
_cell_angle_beta   90.00000000
_cell_angle_gamma   119.99999684
_symmetry_Int_Tables_number   1
_chemical_formula_structural   SmAgSn
_chemical_formula_sum   'Sm2 Ag2 Sn2'
_cell_volume   156.63747073
_cell_formula_units_Z   2
loop_
 _symmetry_equiv_pos_site_id
 _symmetry_equiv_pos_as_xyz
  1  'x, y, z'
loop_
 _atom_site_type_symbol
 _atom_site_label
 _atom_site_symmetry_multiplicity
 _atom_site_fract_x
 _atom_site_fract_y
 _atom_site_fract_z
 _atom_site_occupancy
  Sm  Sm0  1  0.00000000  0.00000000  0.27021200  1
  Sm  Sm1  1  0.00000000  0.00000000  0.72978800  1
  Ag  Ag0  1  0.33333300  0.66666700  0.47965600  1
  Ag  Ag1  1  0.66666700  0.33333300  0.52034400  1
  Sn  Sn0  1  0.66666700  0.33333300  0.94318700  1
  Sn  Sn1  1  0.33333300  0.66666700  0.05681300  1
loop_
_geom_bond_atom_site_label_1
_geom_bond_atom_site_label_2
_geom_bond_distance
_geom_bond_site_symmetry_2
Sm0 Sn1 3.249811 1_545
Sm0 Sn1 3.249815 1_555
Sm0 Sn1 3.249815 1_445
Sm0 Sn0 3.756755 1_454
Sm0 Sn0 3.756758 1_444
Sm0 Sn0 3.756758 1_554
Sm1 Sn0 3.249811 1_455
Sm1 Sn0 3.249815 1_445
Sm1 Sn0 3.249815 1_555
Sm1 Sn1 3.756755 1_546
Sm1 Sn1 3.756758 1_446
Sm1 Sn1 3.756758 1_556
Ag0 Ag1 2.832472 1_455
Ag0 Ag1 2.832472 1_565
Ag0 Ag1 2.832480 1_555
Ag0 Sn1 3.215923 1_555
Ag0 Sm0 3.234894 1_565
Ag0 Sm0 3.234897 1_665
Ag0 Sm0 3.234897 1_555
Ag0 Sm1 3.397964 1_565
Ag0 Sm1 3.397968 1_665
Ag0 Sm1 3.397968 1_555
Ag1 Sn0 3.215923 1_555
Ag1 Sm1 3.234894 1_655
Ag1 Sm1 3.234897 1_555
Ag1 Sm1 3.234897 1_665
Ag1 Sm0 3.397964 1_655
Ag1 Sm0 3.397968 1_555
Ag1 Sm0 3.397968 1_665
Sn0 Sn1 2.945156 1_546
Sn0 Sn1 2.945156 1_656
Sn0 Sn1 2.945164 1_556
