# generated using pymatgen
data_Ca2Y2Si4C3O23
_symmetry_space_group_name_H-M   'P 1'
_cell_length_a   9.78570700
_cell_length_b   9.78570700
_cell_length_c   9.84382700
_cell_angle_alpha   90.00000000
_cell_angle_beta   90.00000000
_cell_angle_gamma   93.13919297
_symmetry_Int_Tables_number   1
_chemical_formula_structural   Ca2Y2Si4C3O23
_chemical_formula_sum   'Ca4 Y4 Si8 C6 O46'
_cell_volume   941.23098605
_cell_formula_units_Z   2
loop_
 _symmetry_equiv_pos_site_id
 _symmetry_equiv_pos_as_xyz
  1  'x, y, z'
loop_
 _atom_site_type_symbol
 _atom_site_label
 _atom_site_symmetry_multiplicity
 _atom_site_fract_x
 _atom_site_fract_y
 _atom_site_fract_z
 _atom_site_occupancy
  Ca  Ca0  1  0.17957000  0.51769000  0.40414300  1
  Ca  Ca1  1  0.82043000  0.48231000  0.90414300  1
  Ca  Ca2  1  0.48231000  0.82043000  0.90414300  1
  Ca  Ca3  1  0.51769000  0.17957000  0.40414300  1
  Y  Y0  1  0.81466800  0.46982100  0.48249400  1
  Y  Y1  1  0.18533200  0.53017900  0.98249400  1
  Y  Y2  1  0.53017900  0.18533200  0.98249400  1
  Y  Y3  1  0.46982100  0.81466800  0.48249400  1
  Si  Si0  1  0.99233600  0.21153900  0.03095800  1
  Si  Si1  1  0.00766400  0.78846100  0.53095800  1
  Si  Si2  1  0.78846100  0.00766400  0.53095800  1
  Si  Si3  1  0.21153900  0.99233600  0.03095800  1
  Si  Si4  1  0.98168400  0.20102000  0.34829400  1
  Si  Si5  1  0.01831600  0.79898000  0.84829400  1
  Si  Si6  1  0.79898000  0.01831600  0.84829400  1
  Si  Si7  1  0.20102000  0.98168400  0.34829400  1
  C  C0  1  0.71736600  0.41333000  0.19982000  1
  C  C1  1  0.28263400  0.58667000  0.69982000  1
  C  C2  1  0.58667000  0.28263400  0.69982000  1
  C  C3  1  0.41333000  0.71736600  0.19982000  1
  C  C4  1  0.34026500  0.34026500  0.13368500  1
  C  C5  1  0.65973500  0.65973500  0.63368500  1
  O  O0  1  0.94139500  0.18606600  0.18777300  1
  O  O1  1  0.05860500  0.81393400  0.68777300  1
  O  O2  1  0.81393400  0.05860500  0.68777300  1
  O  O3  1  0.18606600  0.94139500  0.18777300  1
  O  O4  1  0.98642800  0.62746400  0.49435800  1
  O  O5  1  0.01357200  0.37253600  0.99435800  1
  O  O6  1  0.37253600  0.01357200  0.99435800  1
  O  O7  1  0.62746400  0.98642800  0.49435800  1
  O  O8  1  0.13326400  0.13326400  0.00719500  1
  O  O9  1  0.86673600  0.86673600  0.50719500  1
  O  O10  1  0.12331100  0.12331100  0.37575400  1
  O  O11  1  0.87668900  0.87668900  0.87575400  1
  O  O12  1  0.35999600  0.35999600  0.00326500  1
  O  O13  1  0.64000400  0.64000400  0.50326500  1
  O  O14  1  0.67868800  0.35054400  0.31131200  1
  O  O15  1  0.32131200  0.64945600  0.81131200  1
  O  O16  1  0.64945600  0.32131200  0.81131200  1
  O  O17  1  0.35054400  0.67868800  0.31131200  1
  O  O18  1  0.25086700  0.40920500  0.19556700  1
  O  O19  1  0.74913300  0.59079500  0.69556700  1
  O  O20  1  0.59079500  0.74913300  0.69556700  1
  O  O21  1  0.40920500  0.25086700  0.19556700  1
  O  O22  1  0.99494300  0.36026900  0.39481300  1
  O  O23  1  0.00505700  0.63973100  0.89481300  1
  O  O24  1  0.63973100  0.00505700  0.89481300  1
  O  O25  1  0.36026900  0.99494300  0.39481300  1
  O  O26  1  0.08864400  0.61718900  0.17991800  1
  O  O27  1  0.91135600  0.38281100  0.67991800  1
  O  O28  1  0.38281100  0.91135600  0.67991800  1
  O  O29  1  0.61718900  0.08864400  0.17991800  1
  O  O30  1  0.15598200  0.15598200  0.68359000  1
  O  O31  1  0.84401800  0.84401800  0.18359000  1
  O  O32  1  0.68173700  0.36598500  0.08145100  1
  O  O33  1  0.31826300  0.63401500  0.58145100  1
  O  O34  1  0.63401500  0.31826300  0.58145100  1
  O  O35  1  0.36598500  0.68173700  0.08145100  1
  O  O36  1  0.79328100  0.52333200  0.21320000  1
  O  O37  1  0.20671900  0.47666800  0.71320000  1
  O  O38  1  0.47666800  0.20671900  0.71320000  1
  O  O39  1  0.52333200  0.79328100  0.21320000  1
  O  O40  1  0.12988300  0.85483100  0.43511400  1
  O  O41  1  0.87011700  0.14516900  0.93511400  1
  O  O42  1  0.14516900  0.87011700  0.93511400  1
  O  O43  1  0.85483100  0.12988300  0.43511400  1
  O  O44  1  0.33315200  0.33315200  0.46938000  1
  O  O45  1  0.66684800  0.66684800  0.96938000  1
loop_
_geom_bond_atom_site_label_1
_geom_bond_atom_site_label_2
_geom_bond_distance
_geom_bond_site_symmetry_2
Ca0 O22 2.311030 1_455
Ca0 O4 2.395240 1_455
Ca0 O17 2.414075 1_555
Ca0 O18 2.431145 1_555
Ca0 O33 2.452544 1_555
Ca0 O44 2.495880 1_555
Ca0 O26 2.589689 1_555
Ca1 O23 2.311030 1_655
Ca1 O5 2.395240 1_655
Ca1 O16 2.414075 1_555
Ca1 O19 2.431145 1_555
Ca1 O32 2.452544 1_556
Ca1 O45 2.495880 1_555
Ca1 O27 2.589689 1_555
Ca2 O24 2.311030 1_565
Ca2 O6 2.395240 1_565
Ca2 O15 2.414075 1_555
Ca2 O20 2.431145 1_555
Ca2 O35 2.452544 1_556
Ca2 O45 2.495880 1_555
Ca2 O28 2.589689 1_555
Ca3 O25 2.311030 1_545
Ca3 O7 2.395240 1_545
Ca3 O14 2.414075 1_555
Ca3 O21 2.431145 1_555
Ca3 O34 2.452544 1_555
Ca3 O44 2.495880 1_555
Ca3 O29 2.589689 1_555
C0 O36 1.280772 1_555
C0 O32 1.294689 1_555
C0 O14 1.303765 1_555
C1 O37 1.280772 1_555
C1 O33 1.294689 1_555
C1 O15 1.303765 1_555
C2 O38 1.280772 1_555
C2 O34 1.294689 1_555
C2 O16 1.303765 1_555
C3 O39 1.280772 1_555
C3 O35 1.294689 1_555
C3 O17 1.303765 1_555
C4 O18 1.286913 1_555
C4 O21 1.286913 1_555
C4 O12 1.310993 1_555
C5 O20 1.286913 1_555
C5 O19 1.286913 1_555
C5 O13 1.310993 1_555
O0 Si4 1.633211 1_555
O0 Si0 1.637042 1_555
O1 Si5 1.633211 1_555
O1 Si1 1.637042 1_555
O2 Si6 1.633211 1_555
O2 Si2 1.637042 1_555
O3 Si7 1.633211 1_555
O3 Si3 1.637042 1_555
O4 Si1 1.618405 1_655
O4 Y0 2.221371 1_555
O5 Si0 1.618405 1_456
O5 Y1 2.221371 1_555
O6 Si3 1.618405 1_546
O6 Y2 2.221371 1_555
O7 Si2 1.618405 1_565
O7 Y3 2.221371 1_555
O8 Si0 1.630642 1_455
O8 Si3 1.630642 1_545
O9 Si2 1.630642 1_565
O9 Si1 1.630642 1_655
O10 Si7 1.639371 1_545
O10 Si4 1.639371 1_455
O11 Si5 1.639371 1_655
O11 Si6 1.639371 1_565
O12 Y1 2.459347 1_554
O12 Y2 2.459347 1_554
O13 Y0 2.459347 1_555
O13 Y3 2.459347 1_555
O14 Y0 2.408826 1_555
O15 Y1 2.408826 1_555
O16 Y2 2.408826 1_555
O17 Y3 2.408826 1_555
O18 Y1 2.509015 1_554
O19 Y0 2.509015 1_555
O20 Y3 2.509015 1_555
O21 Y2 2.509015 1_554
O22 Si4 1.622616 1_555
O22 Y0 2.283308 1_555
O23 Si5 1.622616 1_555
O23 Y1 2.283308 1_555
O24 Si6 1.622616 1_555
O24 Y2 2.283308 1_555
O25 Si7 1.622616 1_555
O25 Y3 2.283308 1_555
O26 Y1 2.342063 1_554
O27 Y0 2.342063 1_555
O28 Y3 2.342063 1_555
O29 Y2 2.342063 1_554
O32 Y2 2.446736 1_554
O33 Y3 2.446736 1_555
O34 Y0 2.446736 1_555
O35 Y1 2.446736 1_554
O36 Y0 2.712414 1_555
O37 Y1 2.712414 1_555
O38 Y2 2.712414 1_555
O39 Y3 2.712414 1_555
O40 Si1 1.630122 1_555
O40 Si7 1.631349 1_555
O41 Si0 1.630122 1_556
O41 Si6 1.631349 1_555
O42 Si3 1.630122 1_556
O42 Si5 1.631349 1_555
O43 Si2 1.630122 1_555
O43 Si4 1.631349 1_555
