# generated using pymatgen
data_Be3Si3(MoO6)2
_symmetry_space_group_name_H-M   'P 1'
_cell_length_a   7.78422100
_cell_length_b   8.16688100
_cell_length_c   16.27923844
_cell_angle_alpha   59.94867505
_cell_angle_beta   90.00000000
_cell_angle_gamma   90.00000000
_symmetry_Int_Tables_number   1
_chemical_formula_structural   Be3Si3(MoO6)2
_chemical_formula_sum   'Be12 Si12 Mo8 O48'
_cell_volume   895.80041250
_cell_formula_units_Z   4
loop_
 _symmetry_equiv_pos_site_id
 _symmetry_equiv_pos_as_xyz
  1  'x, y, z'
loop_
 _atom_site_type_symbol
 _atom_site_label
 _atom_site_symmetry_multiplicity
 _atom_site_fract_x
 _atom_site_fract_y
 _atom_site_fract_z
 _atom_site_occupancy
  Be  Be0  1  0.85407500  0.80696000  0.76190800  1
  Be  Be1  1  0.65013700  0.17826500  0.40117600  1
  Be  Be2  1  0.15013700  0.82173500  0.09882400  1
  Be  Be3  1  0.34986300  0.82173500  0.59882400  1
  Be  Be4  1  0.84986300  0.17826500  0.90117600  1
  Be  Be5  1  0.14664100  0.47567900  0.41278700  1
  Be  Be6  1  0.64664100  0.52432100  0.08721300  1
  Be  Be7  1  0.85335900  0.52432100  0.58721300  1
  Be  Be8  1  0.35335900  0.47567900  0.91278700  1
  Be  Be9  1  0.64592500  0.80696000  0.26190800  1
  Be  Be10  1  0.14592500  0.19304000  0.23809200  1
  Be  Be11  1  0.35407500  0.19304000  0.73809200  1
  Si  Si0  1  0.23338300  0.80384100  0.76491200  1
  Si  Si1  1  0.73338300  0.19615900  0.73508800  1
  Si  Si2  1  0.76661700  0.19615900  0.23508800  1
  Si  Si3  1  0.26661700  0.80384100  0.26491200  1
  Si  Si4  1  0.72946200  0.47175100  0.91680900  1
  Si  Si5  1  0.22946200  0.52824900  0.58319100  1
  Si  Si6  1  0.27053800  0.52824900  0.08319100  1
  Si  Si7  1  0.77053800  0.47175100  0.41680900  1
  Si  Si8  1  0.23270100  0.16435100  0.90210100  1
  Si  Si9  1  0.73270100  0.83564900  0.59789900  1
  Si  Si10  1  0.76729900  0.83564900  0.09789900  1
  Si  Si11  1  0.26729900  0.16435100  0.40210100  1
  Mo  Mo0  1  0.45307200  0.16315700  0.08899900  1
  Mo  Mo1  1  0.04692800  0.16315700  0.58899900  1
  Mo  Mo2  1  0.54692800  0.83684300  0.91100100  1
  Mo  Mo3  1  0.95307200  0.83684300  0.41100100  1
  Mo  Mo4  1  0.55493500  0.82791000  0.42372500  1
  Mo  Mo5  1  0.05493500  0.17209000  0.07627500  1
  Mo  Mo6  1  0.44506500  0.17209000  0.57627500  1
  Mo  Mo7  1  0.94506500  0.82791000  0.92372500  1
  O  O0  1  0.13200700  0.70671300  0.03987000  1
  O  O1  1  0.04335400  0.78162600  0.81414200  1
  O  O2  1  0.54335400  0.21837400  0.68585800  1
  O  O3  1  0.95664600  0.21837400  0.18585800  1
  O  O4  1  0.45664600  0.78162600  0.31414200  1
  O  O5  1  0.54002300  0.36970800  0.95223200  1
  O  O6  1  0.04002300  0.63029200  0.54776800  1
  O  O7  1  0.45997700  0.63029200  0.04776800  1
  O  O8  1  0.95997700  0.36970800  0.45223200  1
  O  O9  1  0.03809100  0.09811800  0.88985300  1
  O  O10  1  0.53809100  0.90188200  0.61014700  1
  O  O11  1  0.96190900  0.90188200  0.11014700  1
  O  O12  1  0.13282200  0.07503900  0.35513400  1
  O  O13  1  0.63282200  0.92496100  0.14486600  1
  O  O14  1  0.86717800  0.92496100  0.64486600  1
  O  O15  1  0.36717800  0.07503900  0.85513400  1
  O  O16  1  0.63200700  0.29328700  0.46013000  1
  O  O17  1  0.46190900  0.09811800  0.38985300  1
  O  O18  1  0.36799300  0.70671300  0.53987000  1
  O  O19  1  0.86799300  0.29328700  0.96013000  1
  O  O20  1  0.75694900  0.94736400  0.47727900  1
  O  O21  1  0.62807900  0.29169100  0.14545700  1
  O  O22  1  0.87192100  0.29169100  0.64545700  1
  O  O23  1  0.37192100  0.70830900  0.85454300  1
  O  O24  1  0.73990100  0.26374600  0.81114300  1
  O  O25  1  0.23990100  0.73625400  0.68885700  1
  O  O26  1  0.26009900  0.73625400  0.18885700  1
  O  O27  1  0.76009900  0.26374600  0.31114300  1
  O  O28  1  0.74471100  0.62615400  0.80764500  1
  O  O29  1  0.24471100  0.37384600  0.69235500  1
  O  O30  1  0.25528900  0.37384600  0.19235500  1
  O  O31  1  0.75528900  0.62615400  0.30764500  1
  O  O32  1  0.24519500  0.38325900  0.86848400  1
  O  O33  1  0.74519500  0.61674100  0.63151600  1
  O  O34  1  0.75480500  0.61674100  0.13151600  1
  O  O35  1  0.25480500  0.38325900  0.36848400  1
  O  O36  1  0.76175400  0.95639900  0.80086400  1
  O  O37  1  0.26175400  0.04360100  0.69913600  1
  O  O38  1  0.23824600  0.04360100  0.19913600  1
  O  O39  1  0.73824600  0.95639900  0.30086400  1
  O  O40  1  0.74615500  0.60032800  0.97320500  1
  O  O41  1  0.24615500  0.39967200  0.52679500  1
  O  O42  1  0.25384500  0.39967200  0.02679500  1
  O  O43  1  0.75384500  0.60032800  0.47320500  1
  O  O44  1  0.74305100  0.94736400  0.97727900  1
  O  O45  1  0.24305100  0.05263600  0.52272100  1
  O  O46  1  0.25694900  0.05263600  0.02272100  1
  O  O47  1  0.12807900  0.70830900  0.35454300  1
loop_
_geom_bond_atom_site_label_1
_geom_bond_atom_site_label_2
_geom_bond_distance
_geom_bond_site_symmetry_2
Be0 O28 1.535700 1_555
Be0 O14 1.652410 1_555
Be0 O1 1.661487 1_655
Be0 O36 1.784183 1_555
Be1 O27 1.530830 1_555
Be1 O16 1.651165 1_555
Be1 O17 1.652299 1_555
Be1 O20 1.855352 1_545
Be2 O26 1.530830 1_555
Be2 O0 1.651165 1_555
Be2 O11 1.652299 1_455
Be2 O46 1.855352 1_565
Be3 O25 1.530830 1_555
Be3 O18 1.651165 1_555
Be3 O10 1.652299 1_555
Be3 O45 1.855352 1_565
Be4 O24 1.530830 1_555
Be4 O19 1.651165 1_555
Be4 O9 1.652299 1_655
Be4 O44 1.855352 1_545
Be5 O35 1.531006 1_555
Be5 O8 1.648045 1_455
Be5 O47 1.650815 1_555
Be5 O41 1.810007 1_555
Be6 O34 1.531006 1_555
Be6 O7 1.648045 1_555
Be6 O21 1.650815 1_555
Be6 O40 1.810007 1_554
Be7 O33 1.531006 1_555
Be7 O6 1.648045 1_655
Be7 O22 1.650815 1_555
Be7 O43 1.810007 1_555
Be8 O32 1.531006 1_555
Be8 O5 1.648045 1_555
Be8 O23 1.650815 1_555
Be8 O42 1.810007 1_556
Be9 O31 1.535700 1_555
Be9 O13 1.652410 1_555
Be9 O4 1.661487 1_555
Be9 O39 1.784183 1_555
Be10 O30 1.535700 1_555
Be10 O12 1.652410 1_555
Be10 O3 1.661487 1_455
Be10 O38 1.784183 1_555
Be11 O29 1.535700 1_555
Be11 O15 1.652410 1_555
Be11 O2 1.661487 1_555
Be11 O37 1.784183 1_555
Mo0 O5 2.121136 1_554
Mo0 O21 2.183754 1_555
Mo0 O13 2.190261 1_545
Mo0 O42 2.280900 1_555
Mo0 O38 2.282782 1_555
Mo0 O46 2.298901 1_555
Mo1 O8 2.121136 1_455
Mo1 O22 2.183754 1_455
Mo1 O14 2.190261 1_445
Mo1 O41 2.280900 1_555
Mo1 O37 2.282782 1_555
Mo1 O45 2.298901 1_555
Mo2 O7 2.121136 1_556
Mo2 O23 2.183754 1_555
Mo2 O15 2.190261 1_565
Mo2 O40 2.280900 1_555
Mo2 O36 2.282782 1_555
Mo2 O44 2.298901 1_555
Mo3 O6 2.121136 1_655
Mo3 O47 2.183754 1_655
Mo3 O12 2.190261 1_665
Mo3 O43 2.280900 1_555
Mo3 O39 2.282782 1_555
Mo3 O20 2.298901 1_555
Mo4 O17 2.116479 1_565
Mo4 O4 2.141501 1_555
Mo4 O18 2.190406 1_555
Mo4 O43 2.236363 1_555
Mo4 O39 2.244007 1_555
Mo4 O20 2.244205 1_555
Mo5 O11 2.116479 1_445
Mo5 O3 2.141501 1_455
Mo5 O19 2.190406 1_454
Mo5 O42 2.236363 1_555
Mo5 O38 2.244007 1_555
Mo5 O46 2.244205 1_555
Mo6 O10 2.116479 1_545
Mo6 O2 2.141501 1_555
Mo6 O16 2.190406 1_555
Mo6 O41 2.236363 1_555
Mo6 O37 2.244007 1_555
Mo6 O45 2.244205 1_555
Mo7 O9 2.116479 1_665
Mo7 O1 2.141501 1_655
Mo7 O0 2.190406 1_656
Mo7 O40 2.236363 1_555
Mo7 O36 2.244007 1_555
Mo7 O44 2.244205 1_555
O0 Si6 1.659827 1_555
O1 Si0 1.648542 1_555
O2 Si1 1.648542 1_555
O3 Si2 1.648542 1_555
O4 Si3 1.648542 1_555
O5 Si4 1.649326 1_555
O6 Si5 1.649326 1_555
O7 Si6 1.649326 1_555
O8 Si7 1.649326 1_555
O9 Si8 1.653859 1_555
O10 Si9 1.653859 1_555
O11 Si10 1.653859 1_555
O12 Si11 1.664620 1_555
O13 Si10 1.664620 1_555
O14 Si9 1.664620 1_555
O15 Si8 1.664620 1_555
O16 Si7 1.659827 1_555
O17 Si11 1.653859 1_555
O18 Si5 1.659827 1_555
O19 Si4 1.659827 1_555
O20 Si9 1.711569 1_555
O21 Si2 1.661490 1_555
O22 Si1 1.661490 1_555
O23 Si0 1.661490 1_555
O24 Si1 1.588916 1_555
O25 Si0 1.588916 1_555
O26 Si3 1.588916 1_555
O27 Si2 1.588916 1_555
O28 Si4 1.586791 1_555
O29 Si5 1.586791 1_555
O30 Si6 1.586791 1_555
O31 Si7 1.586791 1_555
O32 Si8 1.589106 1_555
O33 Si9 1.589106 1_555
O34 Si10 1.589106 1_555
O35 Si11 1.589106 1_555
O36 Si1 1.711586 1_565
O37 Si0 1.711586 1_545
O38 Si3 1.711586 1_545
O39 Si2 1.711586 1_565
O40 Si4 1.711130 1_555
O41 Si5 1.711130 1_555
O42 Si6 1.711130 1_555
O43 Si7 1.711130 1_555
O44 Si10 1.711569 1_556
O45 Si11 1.711569 1_555
O46 Si8 1.711569 1_554
O47 Si3 1.661490 1_555
