# generated using pymatgen
data_SrZrCdH8(C4O11)2
_symmetry_space_group_name_H-M   'P 1'
_cell_length_a   9.15986958
_cell_length_b   9.15986958
_cell_length_c   9.17998380
_cell_angle_alpha   76.81835649
_cell_angle_beta   76.81835649
_cell_angle_gamma   122.71515978
_symmetry_Int_Tables_number   1
_chemical_formula_structural   SrZrCdH8(C4O11)2
_chemical_formula_sum   'Sr1 Zr1 Cd1 H8 C8 O22'
_cell_volume   570.01515825
_cell_formula_units_Z   1
loop_
 _symmetry_equiv_pos_site_id
 _symmetry_equiv_pos_as_xyz
  1  'x, y, z'
loop_
 _atom_site_type_symbol
 _atom_site_label
 _atom_site_symmetry_multiplicity
 _atom_site_fract_x
 _atom_site_fract_y
 _atom_site_fract_z
 _atom_site_occupancy
  Sr  Sr0  1  0.49878300  0.50121700  0.00000000  1
  Zr  Zr0  1  0.25028100  0.74971900  0.50000000  1
  Cd  Cd0  1  0.99982700  0.00017300  0.00000000  1
  H  H0  1  0.48599200  0.26842200  0.78050200  1
  H  H1  1  0.05166800  0.26953400  0.21788100  1
  H  H2  1  0.73046600  0.94833200  0.78211900  1
  H  H3  1  0.73157800  0.51400800  0.21949800  1
  H  H4  1  0.71225200  0.42547100  0.71325400  1
  H  H5  1  0.14066600  0.42732500  0.28605000  1
  H  H6  1  0.57267500  0.85933400  0.71395000  1
  H  H7  1  0.57452900  0.28774800  0.28674600  1
  C  C0  1  0.21407800  0.44467300  0.77012500  1
  C  C1  1  0.21527700  0.98413600  0.23023600  1
  C  C2  1  0.55532700  0.78592200  0.22987500  1
  C  C3  1  0.01586400  0.78472300  0.76976400  1
  C  C4  1  0.04970500  0.32474000  0.72342600  1
  C  C5  1  0.04958900  0.77346200  0.27521500  1
  C  C6  1  0.67526000  0.95029500  0.27657400  1
  C  C7  1  0.22653800  0.95041100  0.72478500  1
  O  O0  1  0.23755600  0.36266300  0.87999300  1
  O  O1  1  0.24112800  0.11749700  0.12232900  1
  O  O2  1  0.63733700  0.76244400  0.12000700  1
  O  O3  1  0.88250300  0.75887200  0.87767100  1
  O  O4  1  0.74902100  0.25097900  0.50000000  1
  O  O5  1  0.94030400  0.14433800  0.79575300  1
  O  O6  1  0.94287200  0.73654200  0.20146000  1
  O  O7  1  0.85566200  0.05969600  0.20424700  1
  O  O8  1  0.26345800  0.05712800  0.79854000  1
  O  O9  1  0.58817000  0.38442500  0.78552200  1
  O  O10  1  0.17258000  0.38127300  0.20820100  1
  O  O11  1  0.61872700  0.82742000  0.79179900  1
  O  O12  1  0.61557500  0.41183000  0.21447800  1
  O  O13  1  0.31488000  0.62748200  0.68840500  1
  O  O14  1  0.31665200  0.00295000  0.31177700  1
  O  O15  1  0.37251800  0.68512000  0.31159500  1
  O  O16  1  0.99705000  0.68334800  0.68822300  1
  O  O17  1  0.03968600  0.42574500  0.61164800  1
  O  O18  1  0.03833400  0.65191000  0.38783800  1
  O  O19  1  0.57425500  0.96031400  0.38835200  1
  O  O20  1  0.34809000  0.96166600  0.61216200  1
  O  O21  1  0.50028700  0.49971300  0.50000000  1
loop_
_geom_bond_atom_site_label_1
_geom_bond_atom_site_label_2
_geom_bond_distance
_geom_bond_site_symmetry_2
Cd0 O7 2.381574 1_555
Cd0 O5 2.381574 1_554
Cd0 O8 2.384364 1_654
Cd0 O6 2.384364 1_545
Cd0 O0 2.530302 1_654
Cd0 O2 2.530302 1_545
Cd0 O1 2.533031 1_655
Cd0 O3 2.533031 1_544
H0 O9 0.987008 1_555
H1 O10 0.985106 1_555
H2 O11 0.985106 1_555
H3 O12 0.987008 1_555
H4 O9 0.976589 1_555
H5 O10 0.974488 1_555
H6 O11 0.974488 1_555
H7 O12 0.976589 1_555
C0 O0 1.247316 1_555
C0 O13 1.288105 1_555
C1 O1 1.248211 1_565
C1 O14 1.286528 1_565
C2 O2 1.247316 1_555
C2 O15 1.288105 1_555
C3 O3 1.248211 1_455
C3 O16 1.286528 1_455
C4 O5 1.257730 1_455
C4 O17 1.272428 1_555
C5 O6 1.255897 1_455
C5 O18 1.273383 1_555
C6 O7 1.257730 1_565
C6 O19 1.272428 1_555
C7 O8 1.255897 1_565
C7 O20 1.273383 1_555
O0 Sr0 2.665943 1_556
O1 Sr0 2.685063 1_555
O2 Sr0 2.665943 1_555
O3 Sr0 2.685063 1_556
O9 Sr0 2.619860 1_556
O10 Sr0 2.584049 1_555
O11 Sr0 2.584049 1_556
O12 Sr0 2.619860 1_555
O13 Zr0 2.212431 1_555
O14 Zr0 2.214551 1_545
O15 Zr0 2.212431 1_555
O16 Zr0 2.214551 1_655
O17 Zr0 2.258622 1_555
O18 Zr0 2.254818 1_555
O19 Zr0 2.258622 1_555
O20 Zr0 2.254818 1_555
