# generated using pymatgen
data_Cs2O3
_symmetry_space_group_name_H-M   'P 1'
_cell_length_a   4.64198800
_cell_length_b   4.64198800
_cell_length_c   4.64198800
_cell_angle_alpha   90.00000000
_cell_angle_beta   90.00000000
_cell_angle_gamma   90.00000000
_symmetry_Int_Tables_number   1
_chemical_formula_structural   Cs2O3
_chemical_formula_sum   'Cs2 O3'
_cell_volume   100.02580156
_cell_formula_units_Z   1
loop_
 _symmetry_equiv_pos_site_id
 _symmetry_equiv_pos_as_xyz
  1  'x, y, z'
loop_
 _atom_site_type_symbol
 _atom_site_label
 _atom_site_symmetry_multiplicity
 _atom_site_fract_x
 _atom_site_fract_y
 _atom_site_fract_z
 _atom_site_occupancy
  Cs  Cs0  1  0.00000000  0.00000000  0.00000000  1
  Cs  Cs1  1  0.50000000  0.50000000  0.50000000  1
  O  O0  1  0.50000000  0.50000000  0.00000000  1
  O  O1  1  0.50000000  0.00000000  0.50000000  1
  O  O2  1  0.00000000  0.50000000  0.50000000  1
loop_
_geom_bond_atom_site_label_1
_geom_bond_atom_site_label_2
_geom_bond_distance
_geom_bond_site_symmetry_2
Cs0 O0 3.282381 1_445
Cs0 O1 3.282381 1_554
Cs0 O0 3.282381 1_545
Cs0 O2 3.282381 1_554
Cs0 O2 3.282381 1_555
Cs0 O0 3.282381 1_455
Cs0 O2 3.282381 1_544
Cs0 O2 3.282381 1_545
Cs0 O1 3.282381 1_455
Cs0 O1 3.282381 1_454
Cs0 O1 3.282381 1_555
Cs0 O0 3.282381 1_555
Cs1 O2 2.320994 1_555
Cs1 O1 2.320994 1_565
Cs1 O0 2.320994 1_556
Cs1 O2 2.320994 1_655
Cs1 O1 2.320994 1_555
Cs1 O0 2.320994 1_555
