# generated using pymatgen
data_BaSrTbSnO6
_symmetry_space_group_name_H-M   'P 1'
_cell_length_a   6.07910261
_cell_length_b   6.07910261
_cell_length_c   6.07910261
_cell_angle_alpha   60.00000000
_cell_angle_beta   60.00000000
_cell_angle_gamma   60.00000000
_symmetry_Int_Tables_number   1
_chemical_formula_structural   BaSrTbSnO6
_chemical_formula_sum   'Ba1 Sr1 Tb1 Sn1 O6'
_cell_volume   158.85592741
_cell_formula_units_Z   1
loop_
 _symmetry_equiv_pos_site_id
 _symmetry_equiv_pos_as_xyz
  1  'x, y, z'
loop_
 _atom_site_type_symbol
 _atom_site_label
 _atom_site_symmetry_multiplicity
 _atom_site_fract_x
 _atom_site_fract_y
 _atom_site_fract_z
 _atom_site_occupancy
  Ba  Ba0  1  0.75000000  0.75000000  0.75000000  1
  Sr  Sr0  1  0.25000000  0.25000000  0.25000000  1
  Tb  Tb0  1  0.50000000  0.50000000  0.50000000  1
  Sn  Sn0  1  -0.00000000  0.00000000  0.00000000  1
  O  O0  1  0.75934395  0.24065605  0.24065605  1
  O  O1  1  0.24065605  0.75934395  0.75934395  1
  O  O2  1  0.75934395  0.24065605  0.75934395  1
  O  O3  1  0.24065605  0.75934395  0.24065605  1
  O  O4  1  0.75934395  0.75934395  0.24065605  1
  O  O5  1  0.24065605  0.24065605  0.75934395  1
loop_
_geom_bond_atom_site_label_1
_geom_bond_atom_site_label_2
_geom_bond_distance
_geom_bond_site_symmetry_2
Ba0 O5 3.040613 1_655
Ba0 O2 3.040613 1_555
Ba0 O1 3.040613 1_555
Ba0 O3 3.040613 1_655
Ba0 O4 3.040613 1_555
Ba0 O0 3.040613 1_565
Ba0 O5 3.040613 1_565
Ba0 O3 3.040613 1_556
Ba0 O0 3.040613 1_556
Ba0 O1 3.040613 1_655
Ba0 O2 3.040613 1_565
Ba0 O4 3.040613 1_556
O0 Sn0 2.068956 1_655
O0 Tb0 2.229619 1_555
O0 Sr0 3.040613 1_655
O0 Sr0 3.040613 1_555
O1 Sn0 2.068956 1_566
O1 Tb0 2.229619 1_555
O1 Sr0 3.040613 1_556
O1 Sr0 3.040613 1_565
O2 Sn0 2.068956 1_656
O2 Tb0 2.229619 1_555
O2 Sr0 3.040613 1_556
O2 Sr0 3.040613 1_655
O3 Sn0 2.068956 1_565
O3 Tb0 2.229619 1_555
O3 Sr0 3.040613 1_565
O3 Sr0 3.040613 1_555
O4 Sn0 2.068956 1_665
O4 Tb0 2.229619 1_555
O4 Sr0 3.040613 1_655
O4 Sr0 3.040613 1_565
O5 Sn0 2.068956 1_556
O5 Tb0 2.229619 1_555
O5 Sr0 3.040613 1_556
O5 Sr0 3.040613 1_555
