# generated using pymatgen
data_Li9Mn2Co5O16
_symmetry_space_group_name_H-M   'P 1'
_cell_length_a   5.86416900
_cell_length_b   5.91899648
_cell_length_c   9.73943522
_cell_angle_alpha   79.42615003
_cell_angle_beta   80.24452346
_cell_angle_gamma   60.44829589
_symmetry_Int_Tables_number   1
_chemical_formula_structural   Li9Mn2Co5O16
_chemical_formula_sum   'Li9 Mn2 Co5 O16'
_cell_volume   287.85040439
_cell_formula_units_Z   1
loop_
 _symmetry_equiv_pos_site_id
 _symmetry_equiv_pos_as_xyz
  1  'x, y, z'
loop_
 _atom_site_type_symbol
 _atom_site_label
 _atom_site_symmetry_multiplicity
 _atom_site_fract_x
 _atom_site_fract_y
 _atom_site_fract_z
 _atom_site_occupancy
  Li  Li0  1  0.87404300  0.88006800  0.75286300  1
  Li  Li1  1  0.25292900  0.74609600  0.50041600  1
  Li  Li2  1  0.62632000  0.62164600  0.24412600  1
  Li  Li3  1  0.99789600  0.49980800  0.00240200  1
  Li  Li4  1  0.37145600  0.38440600  0.75925000  1
  Li  Li5  1  0.74999100  0.25071800  0.49983100  1
  Li  Li6  1  0.12589500  0.11823300  0.24530100  1
  Li  Li7  1  0.49770000  0.99959400  0.99853100  1
  Li  Li8  1  0.49776500  0.50274900  0.99931800  1
  Mn  Mn0  1  0.99930100  0.00508000  0.99866900  1
  Mn  Mn1  1  0.74828700  0.74564400  0.50020000  1
  Co  Co0  1  0.86181700  0.38639900  0.75792300  1
  Co  Co1  1  0.61993300  0.12887000  0.24249500  1
  Co  Co2  1  0.37690600  0.87568600  0.75225300  1
  Co  Co3  1  0.25368300  0.24659700  0.50048800  1
  Co  Co4  1  0.13575700  0.62050400  0.24430700  1
  O  O0  1  0.71469900  0.18694400  0.87446800  1
  O  O1  1  0.09126000  0.06796500  0.62911900  1
  O  O2  1  0.46076900  0.92700500  0.38413000  1
  O  O3  1  0.82367000  0.82337800  0.11857100  1
  O  O4  1  0.18087400  0.72802300  0.87657600  1
  O  O5  1  0.57963900  0.56052900  0.61947100  1
  O  O6  1  0.93597600  0.46289100  0.37997200  1
  O  O7  1  0.31953200  0.30853200  0.13981400  1
  O  O8  1  0.04521200  0.55873300  0.61957200  1
  O  O9  1  0.43142200  0.42031500  0.37572700  1
  O  O10  1  0.82085900  0.28319700  0.11932300  1
  O  O11  1  0.16938000  0.19352900  0.88307000  1
  O  O12  1  0.57034800  0.02836000  0.61867200  1
  O  O13  1  0.91974700  0.92421900  0.37831500  1
  O  O14  1  0.28176000  0.81581700  0.12500000  1
  O  O15  1  0.66518100  0.69846100  0.85982700  1
loop_
_geom_bond_atom_site_label_1
_geom_bond_atom_site_label_2
_geom_bond_distance
_geom_bond_site_symmetry_2
Li0 O15 2.048464 1_555
Li0 O4 2.058795 1_655
Li0 O0 2.077359 1_565
Li0 O12 2.115661 1_565
Li0 O1 2.167305 1_665
Li0 O8 2.211723 1_655
Li1 O2 2.071062 1_555
Li1 O5 2.105040 1_555
Li1 O8 2.107493 1_555
Li1 O13 2.153721 1_455
Li1 O9 2.174029 1_555
Li1 O1 2.188992 1_565
Li2 O6 2.146075 1_555
Li2 O3 2.146637 1_555
Li2 O9 2.157694 1_555
Li2 O14 2.182668 1_555
Li2 O2 2.189427 1_555
Li2 O10 2.227433 1_555
Li3 O11 2.056068 1_654
Li3 O10 2.096400 1_555
Li3 O3 2.113136 1_555
Li3 O7 2.196203 1_655
Li3 O4 2.203272 1_654
Li3 O15 2.274529 1_554
Li4 O11 2.114544 1_555
Li4 O5 2.145176 1_555
Li4 O0 2.154132 1_555
Li4 O4 2.206666 1_555
Li4 O8 2.234963 1_555
Li4 O12 2.401956 1_555
Li5 O5 2.073917 1_555
Li5 O9 2.104443 1_555
Li5 O6 2.123908 1_555
Li5 O12 2.139400 1_555
Li5 O13 2.160751 1_545
Li5 O1 2.231460 1_655
Li6 O7 2.013765 1_555
Li6 O14 2.050669 1_545
Li6 O10 2.059070 1_455
Li6 O13 2.179702 1_445
Li6 O2 2.260821 1_545
Li6 O6 2.316948 1_455
Li7 O11 2.090218 1_565
Li7 O3 2.109943 1_556
Li7 O14 2.154623 1_556
Li7 O15 2.161890 1_555
Li7 O0 2.165213 1_565
Li7 O7 2.209183 1_566
Li8 O15 2.060030 1_555
Li8 O4 2.093785 1_555
Li8 O10 2.099739 1_556
Li8 O7 2.099890 1_556
Li8 O14 2.127980 1_556
Li8 O0 2.134321 1_555
Mn0 O11 1.939708 1_655
Mn0 O10 1.944167 1_556
Mn0 O4 1.949667 1_645
Mn0 O3 1.950707 1_546
Mn0 O0 1.959982 1_555
Mn0 O14 1.966437 1_646
Mn1 O2 1.920484 1_555
Mn1 O13 1.928916 1_555
Mn1 O5 1.934031 1_555
Mn1 O12 1.949010 1_565
Mn1 O6 1.961879 1_555
Mn1 O8 1.980218 1_655
Co0 O0 1.899334 1_555
Co0 O15 1.977483 1_555
Co0 O8 2.024682 1_655
Co0 O5 2.045122 1_555
Co0 O11 2.060375 1_655
Co0 O1 2.175036 1_655
Co1 O7 1.895534 1_555
Co1 O10 1.960184 1_555
Co1 O2 2.064102 1_545
Co1 O3 2.082074 1_545
Co1 O9 2.082301 1_555
Co1 O13 2.099421 1_545
Co2 O15 1.871760 1_555
Co2 O4 1.918987 1_555
Co2 O1 1.959263 1_565
Co2 O12 1.968658 1_565
Co2 O11 2.177034 1_565
Co2 O5 2.177687 1_555
Co3 O1 1.922891 1_555
Co3 O9 1.946674 1_555
Co3 O12 2.062617 1_555
Co3 O6 2.079568 1_455
Co3 O8 2.081113 1_555
Co3 O2 2.095658 1_545
Co4 O14 1.888366 1_555
Co4 O7 1.990464 1_555
Co4 O6 2.022329 1_455
Co4 O9 2.053630 1_555
Co4 O3 2.083985 1_455
Co4 O13 2.143430 1_455
