# generated using pymatgen
data_Sr8PbN6
_symmetry_space_group_name_H-M   'P 1'
_cell_length_a   16.87827393
_cell_length_b   16.05675513
_cell_length_c   4.98539730
_cell_angle_alpha   91.63528682
_cell_angle_beta   89.22223535
_cell_angle_gamma   118.40255098
_symmetry_Int_Tables_number   1
_chemical_formula_structural   Sr8PbN6
_chemical_formula_sum   'Sr24 Pb3 N18'
_cell_volume   1187.97533856
_cell_formula_units_Z   3
loop_
 _symmetry_equiv_pos_site_id
 _symmetry_equiv_pos_as_xyz
  1  'x, y, z'
loop_
 _atom_site_type_symbol
 _atom_site_label
 _atom_site_symmetry_multiplicity
 _atom_site_fract_x
 _atom_site_fract_y
 _atom_site_fract_z
 _atom_site_occupancy
  Sr  Sr0  1  0.00000000  0.64915200  0.45118800  1
  Sr  Sr1  1  0.54543500  0.01032900  0.49357100  1
  Sr  Sr2  1  0.45456500  0.46489400  0.49357100  1
  Sr  Sr3  1  0.00000000  0.79849700  0.97329700  1
  Sr  Sr4  1  0.86574600  0.10128900  0.40731800  1
  Sr  Sr5  1  0.13425400  0.23554300  0.40731800  1
  Sr  Sr6  1  0.20320800  0.64607600  0.98707300  1
  Sr  Sr7  1  0.44802800  0.80991400  0.00339700  1
  Sr  Sr8  1  0.24501400  0.38884400  0.90894800  1
  Sr  Sr9  1  0.79679200  0.44286900  0.98707300  1
  Sr  Sr10  1  0.75498600  0.14383000  0.90894800  1
  Sr  Sr11  1  0.55197200  0.36188500  0.00339700  1
  Sr  Sr12  1  0.66660700  0.64971800  0.03244500  1
  Sr  Sr13  1  0.00000000  0.48419800  0.89281800  1
  Sr  Sr14  1  0.33339300  0.98311100  0.03244500  1
  Sr  Sr15  1  0.86431300  0.85088800  0.49795300  1
  Sr  Sr16  1  0.00000000  0.27211400  0.92357200  1
  Sr  Sr17  1  0.13568700  0.98657600  0.49795300  1
  Sr  Sr18  1  0.58423700  0.74719300  0.51837100  1
  Sr  Sr19  1  0.14177200  0.46465800  0.43504100  1
  Sr  Sr20  1  0.26249900  0.81466700  0.51001500  1
  Sr  Sr21  1  0.41576300  0.16295600  0.51837100  1
  Sr  Sr22  1  0.73750100  0.55216600  0.51001500  1
  Sr  Sr23  1  0.85822800  0.32288500  0.43504100  1
  Pb  Pb0  1  0.00000000  0.05777400  0.91323700  1
  Pb  Pb1  1  0.36623500  0.58858400  0.25890100  1
  Pb  Pb2  1  0.63376500  0.22234900  0.25890100  1
  N  N0  1  0.00000000  0.27601300  0.42457500  1
  N  N1  1  0.28039300  0.99293400  0.53313400  1
  N  N2  1  0.71960700  0.71254100  0.53313400  1
  N  N3  1  0.50287900  0.60829100  0.18027500  1
  N  N4  1  0.13383600  0.45439100  0.93451900  1
  N  N5  1  0.30918500  0.81917100  0.00693000  1
  N  N6  1  0.49712100  0.10541300  0.18027500  1
  N  N7  1  0.69081500  0.50998600  0.00693000  1
  N  N8  1  0.86616400  0.32055600  0.93451900  1
  N  N9  1  0.12170700  0.20525700  0.90575200  1
  N  N10  1  0.00000000  0.82377700  0.47545600  1
  N  N11  1  0.87829300  0.08355000  0.90575200  1
  N  N12  1  0.13132800  0.62463500  0.49476300  1
  N  N13  1  0.50658300  0.84359600  0.50164400  1
  N  N14  1  0.29254900  0.43458000  0.41415900  1
  N  N15  1  0.86867200  0.49330700  0.49476300  1
  N  N16  1  0.70745100  0.14203100  0.41415900  1
  N  N17  1  0.49341700  0.33701300  0.50164400  1
loop_
_geom_bond_atom_site_label_1
_geom_bond_atom_site_label_2
_geom_bond_distance
_geom_bond_site_symmetry_2
N0 Sr16 2.490271 1_555
N0 Sr16 2.496697 1_554
N0 Sr5 2.637542 1_555
N0 Sr4 2.637542 1_455
N0 Sr23 2.828882 1_455
N0 Sr19 2.828893 1_555
N1 Sr17 2.404131 1_555
N1 Sr21 2.598395 1_565
N1 Sr14 2.665879 1_555
N1 Sr14 2.690468 1_556
N1 Sr20 2.730837 1_555
N2 Sr15 2.404124 1_555
N2 Sr18 2.598395 1_555
N2 Sr12 2.665879 1_555
N2 Sr12 2.690468 1_556
N2 Sr22 2.730869 1_555
N3 Pb1 2.204798 1_555
N3 Sr18 2.575986 1_555
N3 Sr2 2.605852 1_555
N3 Sr12 2.616528 1_555
N4 Sr19 2.497245 1_556
N4 Sr19 2.497812 1_555
N4 Sr13 2.534154 1_555
N4 Sr8 2.551441 1_555
N4 Sr16 2.715952 1_555
N4 Sr6 2.728851 1_555
N5 Sr7 2.417471 1_555
N5 Sr14 2.464034 1_555
N5 Sr6 2.488710 1_554
N5 Sr20 2.598424 1_554
N5 Sr20 2.611338 1_555
N6 Pb2 2.204793 1_555
N6 Sr21 2.575977 1_555
N6 Sr1 2.605864 1_555
N6 Sr14 2.616532 1_545
N7 Sr11 2.417479 1_555
N7 Sr12 2.464034 1_555
N7 Sr9 2.488697 1_554
N7 Sr22 2.598419 1_554
N7 Sr22 2.611335 1_555
N8 Sr23 2.497245 1_556
N8 Sr23 2.497810 1_555
N8 Sr13 2.534145 1_655
N8 Sr10 2.551453 1_555
N8 Sr16 2.715963 1_655
N8 Sr9 2.728851 1_555
N9 Pb0 2.281275 1_555
N9 Sr5 2.526037 1_556
N9 Sr5 2.532336 1_555
N9 Sr8 2.680130 1_555
N9 Sr16 2.732679 1_555
N10 Sr3 2.524696 1_554
N10 Sr3 2.526315 1_555
N10 Sr15 2.526970 1_455
N10 Sr17 2.526980 1_555
N10 Sr0 2.803068 1_555
N11 Pb0 2.281275 1_655
N11 Sr4 2.526037 1_556
N11 Sr4 2.532336 1_555
N11 Sr10 2.680130 1_555
N11 Sr16 2.732679 1_655
N12 Sr0 2.442029 1_555
N12 Sr19 2.665275 1_555
N12 Sr6 2.692500 1_555
N12 Sr6 2.750558 1_554
N12 Sr20 2.789708 1_555
N12 Sr13 3.052402 1_555
N13 Sr1 2.436039 1_565
N13 Sr18 2.461959 1_555
N13 Sr7 2.630738 1_555
N13 Sr7 2.651046 1_556
N14 Pb1 2.327667 1_555
N14 Sr2 2.573631 1_555
N14 Sr8 2.599395 1_555
N14 Sr8 2.629737 1_554
N14 Sr19 2.807052 1_555
N14 Sr5 3.037490 1_555
N15 Sr0 2.442029 1_655
N15 Sr23 2.665291 1_555
N15 Sr9 2.692498 1_555
N15 Sr9 2.750557 1_554
N15 Sr22 2.789685 1_555
N15 Sr13 3.052402 1_655
N16 Pb2 2.327667 1_555
N16 Sr1 2.573631 1_555
N16 Sr10 2.599395 1_555
N16 Sr10 2.629737 1_554
N16 Sr23 2.807042 1_555
N16 Sr4 3.037490 1_555
N17 Sr2 2.436039 1_555
N17 Sr21 2.461959 1_555
N17 Sr11 2.630738 1_555
N17 Sr11 2.651047 1_556
