# generated using pymatgen
data_Ho6Al7Cu16
_symmetry_space_group_name_H-M   'P 1'
_cell_length_a   8.70515623
_cell_length_b   8.70515623
_cell_length_c   8.70515623
_cell_angle_alpha   60.00000000
_cell_angle_beta   60.00000000
_cell_angle_gamma   60.00000000
_symmetry_Int_Tables_number   1
_chemical_formula_structural   Ho6Al7Cu16
_chemical_formula_sum   'Ho6 Al7 Cu16'
_cell_volume   466.46032555
_cell_formula_units_Z   1
loop_
 _symmetry_equiv_pos_site_id
 _symmetry_equiv_pos_as_xyz
  1  'x, y, z'
loop_
 _atom_site_type_symbol
 _atom_site_label
 _atom_site_symmetry_multiplicity
 _atom_site_fract_x
 _atom_site_fract_y
 _atom_site_fract_z
 _atom_site_occupancy
  Ho  Ho0  1  0.70953900  0.29046100  0.29046100  1
  Ho  Ho1  1  0.70953900  0.29046100  0.70953900  1
  Ho  Ho2  1  0.70953900  0.70953900  0.29046100  1
  Ho  Ho3  1  0.29046100  0.70953900  0.70953900  1
  Ho  Ho4  1  0.29046100  0.70953900  0.29046100  1
  Ho  Ho5  1  0.29046100  0.29046100  0.70953900  1
  Al  Al0  1  0.00000000  0.00000000  0.00000000  1
  Al  Al1  1  0.50000000  0.00000000  0.00000000  1
  Al  Al2  1  0.50000000  0.00000000  0.50000000  1
  Al  Al3  1  0.50000000  0.50000000  0.00000000  1
  Al  Al4  1  0.00000000  0.50000000  0.50000000  1
  Al  Al5  1  0.00000000  0.50000000  0.00000000  1
  Al  Al6  1  0.00000000  0.00000000  0.50000000  1
  Cu  Cu0  1  0.63815200  0.12061600  0.12061600  1
  Cu  Cu1  1  0.12061600  0.63815200  0.12061600  1
  Cu  Cu2  1  0.12061600  0.12061600  0.63815200  1
  Cu  Cu3  1  0.12061600  0.12061600  0.12061600  1
  Cu  Cu4  1  0.36184800  0.87938400  0.87938400  1
  Cu  Cu5  1  0.87938400  0.36184800  0.87938400  1
  Cu  Cu6  1  0.87938400  0.87938400  0.36184800  1
  Cu  Cu7  1  0.87938400  0.87938400  0.87938400  1
  Cu  Cu8  1  0.01836800  0.32721100  0.32721100  1
  Cu  Cu9  1  0.32721100  0.01836800  0.32721100  1
  Cu  Cu10  1  0.32721100  0.32721100  0.01836800  1
  Cu  Cu11  1  0.32721100  0.32721100  0.32721100  1
  Cu  Cu12  1  0.98163200  0.67278900  0.67278900  1
  Cu  Cu13  1  0.67278900  0.98163200  0.67278900  1
  Cu  Cu14  1  0.67278900  0.67278900  0.98163200  1
  Cu  Cu15  1  0.67278900  0.67278900  0.67278900  1
loop_
_geom_bond_atom_site_label_1
_geom_bond_atom_site_label_2
_geom_bond_distance
_geom_bond_site_symmetry_2
Al0 Cu4 2.571918 1_544
Al0 Cu3 2.571918 1_555
Al0 Cu6 2.571918 1_445
Al0 Cu5 2.571918 1_454
Al0 Cu0 2.571918 1_455
Al0 Cu1 2.571918 1_545
Al0 Cu2 2.571918 1_554
Al0 Cu7 2.571918 1_444
Al1 Cu10 2.516354 1_555
Al1 Cu9 2.516354 1_555
Al1 Cu13 2.516354 1_544
Al1 Cu14 2.516354 1_544
Al1 Cu7 2.697999 1_544
Al1 Cu0 2.697999 1_555
Al1 Cu3 2.697999 1_555
Al1 Cu4 2.697999 1_544
Al1 Ho2 3.117785 1_545
Al1 Ho1 3.117785 1_554
Al1 Ho4 3.117785 1_545
Al1 Ho5 3.117785 1_554
Al2 Cu13 2.516346 1_545
Al2 Cu9 2.516346 1_555
Al2 Cu15 2.516351 1_545
Al2 Cu11 2.516351 1_555
Al2 Cu4 2.697999 1_545
Al2 Cu6 2.697999 1_545
Al2 Cu2 2.697999 1_555
Al2 Cu0 2.697999 1_555
Al2 Ho0 3.117785 1_555
Al2 Ho5 3.117785 1_555
Al2 Ho3 3.117785 1_545
Al2 Ho2 3.117785 1_545
Al3 Cu14 2.516346 1_554
Al3 Cu10 2.516346 1_555
Al3 Cu15 2.516351 1_554
Al3 Cu11 2.516351 1_555
Al3 Cu5 2.697999 1_554
Al3 Cu4 2.697999 1_554
Al3 Cu0 2.697999 1_555
Al3 Cu1 2.697999 1_555
Al3 Ho0 3.117785 1_555
Al3 Ho4 3.117785 1_555
Al3 Ho1 3.117785 1_554
Al3 Ho3 3.117785 1_554
Al4 Cu12 2.516346 1_455
Al4 Cu8 2.516346 1_555
Al4 Cu15 2.516351 1_455
Al4 Cu11 2.516351 1_555
Al4 Cu5 2.697999 1_455
Al4 Cu6 2.697999 1_455
Al4 Cu1 2.697999 1_555
Al4 Cu2 2.697999 1_555
Al4 Ho4 3.117785 1_555
Al4 Ho5 3.117785 1_555
Al4 Ho1 3.117785 1_455
Al4 Ho2 3.117785 1_455
Al5 Cu10 2.516354 1_555
Al5 Cu8 2.516354 1_555
Al5 Cu12 2.516354 1_454
Al5 Cu14 2.516354 1_454
Al5 Cu7 2.697999 1_454
Al5 Cu1 2.697999 1_555
Al5 Cu3 2.697999 1_555
Al5 Cu5 2.697999 1_454
Al5 Ho3 3.117785 1_554
Al5 Ho2 3.117785 1_455
Al5 Ho5 3.117785 1_554
Al5 Ho0 3.117785 1_455
Al6 Cu8 2.516354 1_555
Al6 Cu9 2.516354 1_555
Al6 Cu13 2.516354 1_445
Al6 Cu12 2.516354 1_445
Al6 Cu7 2.697999 1_445
Al6 Cu2 2.697999 1_555
Al6 Cu3 2.697999 1_555
Al6 Cu6 2.697999 1_445
Al6 Ho1 3.117785 1_455
Al6 Ho3 3.117785 1_545
Al6 Ho4 3.117785 1_545
Al6 Ho0 3.117785 1_455
Cu0 Cu10 2.700714 1_555
Cu0 Cu9 2.700714 1_555
Cu0 Cu11 2.700719 1_555
Cu0 Ho0 2.963432 1_555
Cu0 Ho2 2.963432 1_545
Cu0 Ho1 2.963432 1_554
Cu1 Cu10 2.700714 1_555
Cu1 Cu8 2.700714 1_555
Cu1 Cu11 2.700719 1_555
Cu1 Ho4 2.963432 1_555
Cu1 Ho3 2.963432 1_554
Cu1 Ho2 2.963432 1_455
Cu2 Cu8 2.700714 1_555
Cu2 Cu9 2.700714 1_555
Cu2 Ho5 2.963432 1_555
Cu2 Ho3 2.963432 1_545
Cu2 Ho1 2.963432 1_455
Cu3 Cu8 2.700722 1_555
Cu3 Cu9 2.700722 1_555
Cu3 Ho4 2.963432 1_545
Cu3 Ho5 2.963432 1_554
Cu3 Ho0 2.963432 1_455
Cu4 Ho4 2.963432 1_556
Cu4 Ho5 2.963432 1_565
Cu4 Ho3 2.963432 1_555
Cu5 Ho5 2.963432 1_655
Cu5 Ho0 2.963432 1_556
Cu5 Ho1 2.963432 1_555
Cu6 Ho0 2.963432 1_565
Cu6 Ho4 2.963432 1_655
Cu6 Ho2 2.963432 1_555
Cu7 Ho3 2.963432 1_655
Cu7 Ho2 2.963432 1_556
Cu7 Ho1 2.963432 1_565
Cu8 Cu9 2.688527 1_555
Cu8 Ho2 3.042144 1_455
Cu8 Ho1 3.042144 1_455
Cu8 Ho0 3.042150 1_455
Cu9 Ho3 3.042144 1_545
Cu9 Ho2 3.042144 1_545
Cu9 Ho4 3.042150 1_545
Cu10 Cu11 2.688527 1_555
Cu10 Cu9 2.688527 1_555
Cu10 Cu8 2.688527 1_555
Cu10 Cu3 2.700722 1_555
Cu10 Ho1 3.042144 1_554
Cu10 Ho3 3.042144 1_554
Cu10 Ho5 3.042150 1_554
Cu11 Cu9 2.688527 1_555
Cu11 Cu8 2.688527 1_555
Cu11 Cu2 2.700719 1_555
Cu11 Ho0 3.042141 1_555
Cu11 Ho4 3.042141 1_555
Cu11 Ho5 3.042141 1_555
Cu12 Cu13 2.688527 1_555
Cu12 Cu15 2.688527 1_555
Cu12 Cu14 2.688527 1_555
Cu12 Cu5 2.700714 1_555
Cu12 Cu6 2.700714 1_555
Cu12 Cu7 2.700722 1_555
Cu12 Ho4 3.042144 1_655
Cu12 Ho5 3.042144 1_655
Cu12 Ho3 3.042150 1_655
Cu13 Cu15 2.688527 1_555
Cu13 Cu14 2.688527 1_555
Cu13 Cu6 2.700714 1_555
Cu13 Cu4 2.700714 1_555
Cu13 Cu7 2.700722 1_555
Cu13 Ho0 3.042144 1_565
Cu13 Ho5 3.042144 1_565
Cu13 Ho1 3.042150 1_565
Cu14 Cu15 2.688527 1_555
Cu14 Cu5 2.700714 1_555
Cu14 Cu4 2.700714 1_555
Cu14 Cu7 2.700722 1_555
Cu14 Ho0 3.042144 1_556
Cu14 Ho4 3.042144 1_556
Cu14 Ho2 3.042150 1_556
Cu15 Cu5 2.700719 1_555
Cu15 Cu6 2.700719 1_555
Cu15 Cu4 2.700719 1_555
Cu15 Ho2 3.042141 1_555
Cu15 Ho1 3.042141 1_555
Cu15 Ho3 3.042141 1_555
