# generated using pymatgen
data_YbZnIn
_symmetry_space_group_name_H-M   'P 1'
_cell_length_a   4.58789927
_cell_length_b   4.58789927
_cell_length_c   3.53568197
_cell_angle_alpha   90.00000000
_cell_angle_beta   90.00000000
_cell_angle_gamma   119.99999404
_symmetry_Int_Tables_number   1
_chemical_formula_structural   YbZnIn
_chemical_formula_sum   'Yb1 Zn1 In1'
_cell_volume   64.45128792
_cell_formula_units_Z   1
loop_
 _symmetry_equiv_pos_site_id
 _symmetry_equiv_pos_as_xyz
  1  'x, y, z'
loop_
 _atom_site_type_symbol
 _atom_site_label
 _atom_site_symmetry_multiplicity
 _atom_site_fract_x
 _atom_site_fract_y
 _atom_site_fract_z
 _atom_site_occupancy
  Yb  Yb0  1  0.33333300  0.66666700  0.00000000  1
  Zn  Zn0  1  0.00000000  0.00000000  0.50000000  1
  In  In0  1  0.66666700  0.33333300  0.50000000  1
loop_
_geom_bond_atom_site_label_1
_geom_bond_atom_site_label_2
_geom_bond_distance
_geom_bond_site_symmetry_2
Yb0 Zn0 3.184575 1_564
Yb0 Zn0 3.184575 1_565
Yb0 Zn0 3.184579 1_554
Yb0 Zn0 3.184579 1_555
Yb0 Zn0 3.184579 1_665
Yb0 Zn0 3.184579 1_664
In0 Zn0 2.648822 1_655
In0 Zn0 2.648826 1_555
In0 Zn0 2.648826 1_665
In0 Yb0 3.184576 1_655
In0 Yb0 3.184576 1_656
In0 Yb0 3.184576 1_545
In0 Yb0 3.184576 1_546
In0 Yb0 3.184582 1_555
In0 Yb0 3.184582 1_556
