# generated using pymatgen
data_KLaC4O11
_symmetry_space_group_name_H-M   'P 1'
_cell_length_a   6.60751600
_cell_length_b   7.76567771
_cell_length_c   12.31352096
_cell_angle_alpha   106.86100130
_cell_angle_beta   100.94420607
_cell_angle_gamma   98.85069216
_symmetry_Int_Tables_number   1
_chemical_formula_structural   KLaC4O11
_chemical_formula_sum   'K2 La2 C8 O22'
_cell_volume   578.80821867
_cell_formula_units_Z   2
loop_
 _symmetry_equiv_pos_site_id
 _symmetry_equiv_pos_as_xyz
  1  'x, y, z'
loop_
 _atom_site_type_symbol
 _atom_site_label
 _atom_site_symmetry_multiplicity
 _atom_site_fract_x
 _atom_site_fract_y
 _atom_site_fract_z
 _atom_site_occupancy
  K  K0  1  0.30510000  0.09326500  0.32555400  1
  K  K1  1  0.69490000  0.90673500  0.67444600  1
  La  La0  1  0.17794800  0.65605900  0.21406200  1
  La  La1  1  0.82205200  0.34394100  0.78593800  1
  C  C0  1  0.67358300  0.73906500  0.24306300  1
  C  C1  1  0.32641700  0.26093500  0.75693700  1
  C  C2  1  0.65282400  0.54554300  0.22426000  1
  C  C3  1  0.34717600  0.45445700  0.77574000  1
  C  C4  1  0.54662600  0.93202300  0.96999900  1
  C  C5  1  0.45337400  0.06797700  0.03000100  1
  C  C6  1  0.01180800  0.60052000  0.50291000  1
  C  C7  1  0.98819200  0.39948000  0.49709000  1
  O  O0  1  0.50978100  0.80533400  0.25291700  1
  O  O1  1  0.49021900  0.19466600  0.74708300  1
  O  O2  1  0.46821800  0.46801200  0.22605700  1
  O  O3  1  0.53178200  0.53198800  0.77394300  1
  O  O4  1  0.85472500  0.81005700  0.24868000  1
  O  O5  1  0.14527500  0.18994300  0.75132000  1
  O  O6  1  0.81989200  0.48336900  0.21202200  1
  O  O7  1  0.18010800  0.51663100  0.78797800  1
  O  O8  1  0.45115600  0.76465600  0.01487700  1
  O  O9  1  0.54884400  0.23534400  0.98512300  1
  O  O10  1  0.71156800  0.00070400  0.88099000  1
  O  O11  1  0.28843200  0.99929600  0.11901000  1
  O  O12  1  0.09944100  0.72697400  0.40683800  1
  O  O13  1  0.90055900  0.27302600  0.59316200  1
  O  O14  1  0.94149100  0.62039200  0.60268900  1
  O  O15  1  0.05850900  0.37960800  0.39731100  1
  O  O16  1  0.80439200  0.03335300  0.34618200  1
  O  O17  1  0.19560800  0.96664700  0.65381800  1
  O  O18  1  0.02097100  0.73842700  0.94648900  1
  O  O19  1  0.97902900  0.26157300  0.05351100  1
  O  O20  1  0.12914800  0.33504900  0.08039500  1
  O  O21  1  0.87085200  0.66495100  0.91960500  1
loop_
_geom_bond_atom_site_label_1
_geom_bond_atom_site_label_2
_geom_bond_distance
_geom_bond_site_symmetry_2
K0 O11 2.409403 1_545
K0 O0 2.803279 1_545
K0 O15 2.983606 1_555
K0 O16 3.337770 1_455
K0 O16 3.374553 1_555
K1 O10 2.409403 1_565
K1 O1 2.803279 1_565
K1 O14 2.983606 1_555
K1 O17 3.337770 1_655
K1 O17 3.374553 1_555
La0 O0 2.208613 1_555
La0 O12 2.450344 1_555
La0 O20 2.489640 1_555
La0 O6 2.525456 1_455
La0 O2 2.590818 1_555
La0 O4 2.647451 1_455
La1 O1 2.208613 1_555
La1 O13 2.450344 1_555
La1 O21 2.489640 1_555
La1 O7 2.525456 1_655
La1 O3 2.590818 1_555
La1 O5 2.647451 1_655
C0 O4 1.218475 1_555
C0 O0 1.279072 1_555
C1 O5 1.218475 1_555
C1 O1 1.279072 1_555
C2 O2 1.281739 1_555
C2 O6 1.288177 1_555
C3 O3 1.281739 1_555
C3 O7 1.288177 1_555
C4 C5 1.400262 1_566
C4 O8 1.639905 1_556
C4 O10 1.813090 1_565
C5 O9 1.639905 1_554
C5 O11 1.813090 1_545
C6 O14 1.370420 1_455
C6 C7 1.524058 1_455
C6 O12 1.859592 1_555
C6 O15 1.936558 1_555
C7 O15 1.370420 1_655
C7 O13 1.859592 1_555
C7 O14 1.936558 1_555
O16 O4 1.918414 1_545
O17 O5 1.918414 1_565
O18 O21 1.005304 1_455
O19 O20 1.005304 1_655
