# generated using pymatgen
data_TaMn2N3
_symmetry_space_group_name_H-M   'P 1'
_cell_length_a   5.47440042
_cell_length_b   9.47464778
_cell_length_c   10.42969785
_cell_angle_alpha   90.00000391
_cell_angle_beta   87.57534958
_cell_angle_gamma   149.92378197
_symmetry_Int_Tables_number   1
_chemical_formula_structural   TaMn2N3
_chemical_formula_sum   'Ta4 Mn8 N12'
_cell_volume   270.13914137
_cell_formula_units_Z   4
loop_
 _symmetry_equiv_pos_site_id
 _symmetry_equiv_pos_as_xyz
  1  'x, y, z'
loop_
 _atom_site_type_symbol
 _atom_site_label
 _atom_site_symmetry_multiplicity
 _atom_site_fract_x
 _atom_site_fract_y
 _atom_site_fract_z
 _atom_site_occupancy
  Ta  Ta0  1  0.64864048  0.34045944  0.64155663  1
  Ta  Ta1  1  0.35135952  0.69181896  0.85844337  1
  Ta  Ta2  1  0.35135952  0.65954056  0.35844337  1
  Ta  Ta3  1  0.64864048  0.30818104  0.14155663  1
  Mn  Mn0  1  0.51803806  0.07401007  0.82302561  1
  Mn  Mn1  1  0.48196194  0.55597201  0.67697439  1
  Mn  Mn2  1  0.48196194  0.92598993  0.17697439  1
  Mn  Mn3  1  0.51803806  0.44402799  0.32302561  1
  Mn  Mn4  1  0.72351064  0.97029112  0.59350889  1
  Mn  Mn5  1  0.27648936  0.24678048  0.90649111  1
  Mn  Mn6  1  0.27648936  0.02970888  0.40649111  1
  Mn  Mn7  1  0.72351064  0.75321952  0.09350889  1
  N  N0  1  1.00000000  0.66020839  0.75000000  1
  N  N1  1  0.00000000  0.33979161  0.25000000  1
  N  N2  1  0.78853864  0.19994646  0.63735273  1
  N  N3  1  0.21146136  0.41140782  0.86264727  1
  N  N4  1  0.21146136  0.80005354  0.36264727  1
  N  N5  1  0.78853864  0.58859218  0.13735273  1
  N  N6  1  0.36060552  0.09010693  0.98319728  1
  N  N7  1  0.63939448  0.72950240  0.51680272  1
  N  N8  1  0.63939448  0.90989307  0.01680272  1
  N  N9  1  0.36060552  0.27049760  0.48319728  1
  N  N10  1  1.00000000  0.00431146  0.75000000  1
  N  N11  1  0.00000000  0.99568854  0.25000000  1
loop_
_geom_bond_atom_site_label_1
_geom_bond_atom_site_label_2
_geom_bond_distance
_geom_bond_site_symmetry_2
Mn0 N6 1.913746 1_555
Mn0 N3 1.982536 1_655
Mn0 N2 2.016426 1_555
Mn0 N0 2.221130 1_445
Mn0 N10 2.449548 1_455
Mn1 N7 1.913751 1_555
Mn1 N2 1.982536 1_455
Mn1 N3 2.016426 1_555
Mn1 N0 2.221131 1_555
Mn1 N10 2.449548 1_565
Mn2 N8 1.913746 1_555
Mn2 N5 1.982536 1_455
Mn2 N4 2.016426 1_555
Mn2 N1 2.221130 1_665
Mn2 N11 2.449548 1_655
Mn3 N9 1.913751 1_555
Mn3 N4 1.982536 1_655
Mn3 N5 2.016426 1_555
Mn3 N1 2.221131 1_555
Mn3 N11 2.449548 1_545
Mn4 N2 1.934825 1_565
Mn4 N9 2.017283 1_665
Mn4 N7 2.066346 1_555
Mn4 N10 2.103209 1_565
Mn4 N0 2.509320 1_455
Mn5 N3 1.934825 1_555
Mn5 N8 2.017282 1_446
Mn5 N6 2.066355 1_555
Mn5 N10 2.103209 1_455
Mn5 N0 2.509320 1_555
Mn6 N4 1.934825 1_545
Mn6 N7 2.017283 1_445
Mn6 N9 2.066346 1_555
Mn6 N11 2.103209 1_545
Mn6 N1 2.509320 1_655
Mn7 N5 1.934825 1_555
Mn7 N6 2.017282 1_664
Mn7 N8 2.066355 1_555
Mn7 N11 2.103209 1_655
Mn7 N1 2.509320 1_555
N0 Ta0 2.062948 1_555
N0 Ta1 2.062948 1_655
N1 Ta2 2.062948 1_555
N1 Ta3 2.062948 1_455
N2 Ta0 2.030429 1_555
N3 Ta1 2.030429 1_555
N4 Ta2 2.030429 1_555
N5 Ta3 2.030429 1_555
N6 Ta3 2.016198 1_556
N7 Ta2 2.016195 1_555
N8 Ta1 2.016198 1_554
N9 Ta0 2.016195 1_555
N10 Ta0 2.029475 1_655
N10 Ta1 2.029475 1_545
N11 Ta2 2.029475 1_455
N11 Ta3 2.029475 1_565
