# generated using pymatgen
data_NiGeMo
_symmetry_space_group_name_H-M   'P 1'
_cell_length_a   4.83078872
_cell_length_b   4.83078872
_cell_length_c   7.85104500
_cell_angle_alpha   90.00000000
_cell_angle_beta   90.00000000
_cell_angle_gamma   116.71047247
_symmetry_Int_Tables_number   1
_chemical_formula_structural   NiGeMo
_chemical_formula_sum   'Ni4 Ge4 Mo4'
_cell_volume   163.66494198
_cell_formula_units_Z   4
loop_
 _symmetry_equiv_pos_site_id
 _symmetry_equiv_pos_as_xyz
  1  'x, y, z'
loop_
 _atom_site_type_symbol
 _atom_site_label
 _atom_site_symmetry_multiplicity
 _atom_site_fract_x
 _atom_site_fract_y
 _atom_site_fract_z
 _atom_site_occupancy
  Ni  Ni0  1  0.85363900  0.14636100  0.00000000  1
  Ni  Ni1  1  0.17831800  0.36064800  0.50000000  1
  Ni  Ni2  1  0.63935200  0.82168200  0.50000000  1
  Ni  Ni3  1  0.16688700  0.83311300  0.50000000  1
  Ge  Ge0  1  0.98260300  0.01739700  0.27548400  1
  Ge  Ge1  1  0.98260300  0.01739700  0.72451600  1
  Ge  Ge2  1  0.84474200  0.64063100  0.00000000  1
  Ge  Ge3  1  0.35936900  0.15525800  0.00000000  1
  Mo  Mo0  1  0.33907800  0.66092200  0.19197000  1
  Mo  Mo1  1  0.65697800  0.34302200  0.31961400  1
  Mo  Mo2  1  0.65697800  0.34302200  0.68038600  1
  Mo  Mo3  1  0.33907800  0.66092200  0.80803000  1
loop_
_geom_bond_atom_site_label_1
_geom_bond_atom_site_label_2
_geom_bond_distance
_geom_bond_site_symmetry_2
Ni1 Ni3 2.307727 1_555
Ni1 Ni2 2.336962 1_555
Ni1 Ni3 2.524071 1_545
Ni1 Ni2 2.731996 1_445
Ni2 Ni3 2.307727 1_555
Ni2 Ni3 2.524071 1_655
Ge0 Ni1 2.311093 1_655
Ge0 Ni2 2.311093 1_545
Ge0 Ni3 2.324769 1_645
Ge0 Ni0 2.408948 1_555
Ge0 Mo1 2.700604 1_555
Ge0 Ge3 2.710057 1_655
Ge0 Ge2 2.710057 1_545
Ge0 Mo0 2.871772 1_655
Ge0 Mo0 2.871772 1_545
Ge0 Mo1 2.932692 1_655
Ge0 Mo1 2.932692 1_545
Ge0 Mo0 3.004449 1_645
Ge1 Ni2 2.311093 1_545
Ge1 Ni1 2.311093 1_655
Ge1 Ni3 2.324769 1_645
Ge1 Ni0 2.408948 1_556
Ge1 Mo2 2.700604 1_555
Ge1 Ge3 2.710057 1_656
Ge1 Ge2 2.710057 1_546
Ge1 Mo3 2.871772 1_655
Ge1 Mo3 2.871772 1_545
Ge1 Mo2 2.932692 1_655
Ge1 Mo2 2.932692 1_545
Ge1 Mo3 3.004449 1_645
Ge2 Ni0 2.407339 1_555
Ge2 Ni0 2.424060 1_565
Ge2 Ge3 2.460335 1_555
Ge2 Ge3 2.608623 1_665
Ge2 Mo3 2.788087 1_654
Ge2 Mo0 2.788087 1_655
Ge2 Mo2 2.830899 1_554
Ge2 Mo1 2.830899 1_555
Ge2 Mo0 2.909203 1_555
Ge2 Mo3 2.909203 1_554
Ge3 Ni0 2.407339 1_555
Ge3 Ni0 2.424060 1_455
Ge3 Mo3 2.788087 1_544
Ge3 Mo0 2.788087 1_545
Ge3 Mo2 2.830899 1_554
Ge3 Mo1 2.830899 1_555
Ge3 Mo0 2.909203 1_555
Ge3 Mo3 2.909203 1_554
Mo0 Ni1 2.746452 1_555
Mo0 Ni2 2.746452 1_555
Mo0 Mo1 2.800213 1_555
Mo0 Ni3 2.802554 1_555
Mo0 Ni0 2.951182 1_565
Mo0 Ni0 2.951182 1_455
Mo0 Mo3 3.014330 1_554
Mo0 Mo1 3.109859 1_565
Mo0 Mo1 3.109859 1_455
Mo1 Ni1 2.745301 1_555
Mo1 Ni2 2.745301 1_555
Mo1 Mo2 2.832437 1_555
Mo1 Ni2 2.857080 1_545
Mo1 Ni1 2.857080 1_655
Mo1 Ni3 2.904462 1_545
Mo1 Ni3 2.904462 1_655
Mo1 Ni0 2.985477 1_555
Mo2 Ni1 2.745301 1_555
Mo2 Ni2 2.745301 1_555
Mo2 Mo3 2.800213 1_555
Mo2 Ni2 2.857080 1_545
Mo2 Ni1 2.857080 1_655
Mo2 Ni3 2.904462 1_545
Mo2 Ni3 2.904462 1_655
Mo2 Ni0 2.985477 1_556
Mo2 Mo3 3.109859 1_545
Mo2 Mo3 3.109859 1_655
Mo3 Ni1 2.746452 1_555
Mo3 Ni2 2.746452 1_555
Mo3 Ni3 2.802554 1_555
Mo3 Ni0 2.951182 1_456
Mo3 Ni0 2.951182 1_566
