# generated using pymatgen
data_Fe3CuAs2
_symmetry_space_group_name_H-M   'P 1'
_cell_length_a   3.65560300
_cell_length_b   3.65560300
_cell_length_c   5.98420000
_cell_angle_alpha   90.00000000
_cell_angle_beta   90.00000000
_cell_angle_gamma   90.00000000
_symmetry_Int_Tables_number   1
_chemical_formula_structural   Fe3CuAs2
_chemical_formula_sum   'Fe3 Cu1 As2'
_cell_volume   79.96945752
_cell_formula_units_Z   1
loop_
 _symmetry_equiv_pos_site_id
 _symmetry_equiv_pos_as_xyz
  1  'x, y, z'
loop_
 _atom_site_type_symbol
 _atom_site_label
 _atom_site_symmetry_multiplicity
 _atom_site_fract_x
 _atom_site_fract_y
 _atom_site_fract_z
 _atom_site_occupancy
  Fe  Fe0  1  0.50000000  0.00000000  0.31812000  1
  Fe  Fe1  1  0.00000000  0.50000000  0.68188000  1
  Fe  Fe2  1  0.00000000  0.00000000  0.00000000  1
  Cu  Cu0  1  0.50000000  0.50000000  0.00000000  1
  As  As0  1  0.50000000  0.00000000  0.71623200  1
  As  As1  1  0.00000000  0.50000000  0.28376800  1
loop_
_geom_bond_atom_site_label_1
_geom_bond_atom_site_label_2
_geom_bond_distance
_geom_bond_site_symmetry_2
Fe0 Fe2 2.639111 1_555
Fe0 Fe2 2.639111 1_655
Fe1 Fe2 2.639111 1_556
Fe1 Fe2 2.639111 1_566
Cu0 Fe2 2.584902 1_555
Cu0 Fe2 2.584902 1_565
Cu0 Fe2 2.584902 1_655
Cu0 Fe2 2.584902 1_665
Cu0 Fe1 2.639111 1_654
Cu0 Fe1 2.639111 1_554
Cu0 Fe0 2.639111 1_565
Cu0 Fe0 2.639111 1_555
As0 Fe0 2.382382 1_555
As0 Fe2 2.494892 1_556
As0 Fe2 2.494892 1_656
As0 Cu0 2.494892 1_546
As0 Cu0 2.494892 1_556
As0 Fe1 2.593063 1_555
As0 Fe1 2.593063 1_655
As0 Fe1 2.593063 1_545
As0 Fe1 2.593063 1_645
As1 Fe1 2.382382 1_555
As1 Fe2 2.494892 1_555
As1 Cu0 2.494892 1_455
As1 Cu0 2.494892 1_555
As1 Fe2 2.494892 1_565
As1 Fe0 2.593063 1_565
As1 Fe0 2.593063 1_465
As1 Fe0 2.593063 1_555
As1 Fe0 2.593063 1_455
