# generated using pymatgen
data_Na2LaH2C5O11
_symmetry_space_group_name_H-M   'P 1'
_cell_length_a   11.82148500
_cell_length_b   7.91006900
_cell_length_c   13.16656057
_cell_angle_alpha   64.76249504
_cell_angle_beta   90.00000000
_cell_angle_gamma   90.00000000
_symmetry_Int_Tables_number   1
_chemical_formula_structural   Na2LaH2C5O11
_chemical_formula_sum   'Na8 La4 H8 C20 O44'
_cell_volume   1113.66953195
_cell_formula_units_Z   4
loop_
 _symmetry_equiv_pos_site_id
 _symmetry_equiv_pos_as_xyz
  1  'x, y, z'
loop_
 _atom_site_type_symbol
 _atom_site_label
 _atom_site_symmetry_multiplicity
 _atom_site_fract_x
 _atom_site_fract_y
 _atom_site_fract_z
 _atom_site_occupancy
  Na  Na0  1  0.79344600  0.78339500  0.57470600  1
  Na  Na1  1  0.70655400  0.78339500  0.07470600  1
  Na  Na2  1  0.20655400  0.21660500  0.42529400  1
  Na  Na3  1  0.29344600  0.21660500  0.92529400  1
  Na  Na4  1  0.18864300  0.22082900  0.16637100  1
  Na  Na5  1  0.31135700  0.22082900  0.66637100  1
  Na  Na6  1  0.81135700  0.77917100  0.83362900  1
  Na  Na7  1  0.68864300  0.77917100  0.33362900  1
  La  La0  1  0.81456100  0.29593900  0.82589800  1
  La  La1  1  0.68543900  0.29593900  0.32589800  1
  La  La2  1  0.18543900  0.70406100  0.17410200  1
  La  La3  1  0.31456100  0.70406100  0.67410200  1
  H  H0  1  0.93385400  0.79966100  0.37098700  1
  H  H1  1  0.56614600  0.79966100  0.87098700  1
  H  H2  1  0.06614600  0.20033900  0.62901300  1
  H  H3  1  0.43385400  0.20033900  0.12901300  1
  H  H4  1  0.90086400  0.99572100  0.36218400  1
  H  H5  1  0.59913600  0.99572100  0.86218400  1
  H  H6  1  0.09913600  0.00427900  0.63781600  1
  H  H7  1  0.40086400  0.00427900  0.13781600  1
  C  C0  1  0.02610900  0.08241800  0.01004100  1
  C  C1  1  0.47389100  0.08241800  0.51004100  1
  C  C2  1  0.97389100  0.91758200  0.98995900  1
  C  C3  1  0.52610900  0.91758200  0.48995900  1
  C  C4  1  0.07837400  0.41333500  0.73890600  1
  C  C5  1  0.42162600  0.41333500  0.23890600  1
  C  C6  1  0.92162600  0.58666500  0.26109400  1
  C  C7  1  0.57837400  0.58666500  0.76109400  1
  C  C8  1  0.03128300  0.60553900  0.72723200  1
  C  C9  1  0.46871700  0.60553900  0.22723200  1
  C  C10  1  0.96871700  0.39446100  0.27276800  1
  C  C11  1  0.53128300  0.39446100  0.77276800  1
  C  C12  1  0.75788300  0.38817700  0.55114000  1
  C  C13  1  0.74211700  0.38817700  0.05114000  1
  C  C14  1  0.24211700  0.61182300  0.44886000  1
  C  C15  1  0.25788300  0.61182300  0.94886000  1
  C  C16  1  0.77851300  0.17462000  0.60153300  1
  C  C17  1  0.72148700  0.17462000  0.10153300  1
  C  C18  1  0.22148700  0.82538000  0.39846700  1
  C  C19  1  0.27851300  0.82538000  0.89846700  1
  O  O0  1  0.97714100  0.23822700  0.96629200  1
  O  O1  1  0.52285900  0.23822700  0.46629200  1
  O  O2  1  0.02285900  0.76177300  0.03370800  1
  O  O3  1  0.47714100  0.76177300  0.53370800  1
  O  O4  1  0.11600400  0.04656400  0.06948400  1
  O  O5  1  0.38399600  0.04656400  0.56948400  1
  O  O6  1  0.88399600  0.95343600  0.93051600  1
  O  O7  1  0.61600400  0.95343600  0.43051600  1
  O  O8  1  0.00650700  0.29754400  0.73428700  1
  O  O9  1  0.49349300  0.29754400  0.23428700  1
  O  O10  1  0.99349300  0.70245600  0.26571300  1
  O  O11  1  0.50650700  0.70245600  0.76571300  1
  O  O12  1  0.18425900  0.38909300  0.74951700  1
  O  O13  1  0.31574100  0.38909300  0.24951700  1
  O  O14  1  0.81574100  0.61090700  0.25048300  1
  O  O15  1  0.68425900  0.61090700  0.75048300  1
  O  O16  1  0.92614000  0.61339500  0.74554600  1
  O  O17  1  0.57386000  0.61339500  0.24554600  1
  O  O18  1  0.07386000  0.38660500  0.25445400  1
  O  O19  1  0.42614000  0.38660500  0.75445400  1
  O  O20  1  0.10063500  0.73995200  0.69822500  1
  O  O21  1  0.39936500  0.73995200  0.19822500  1
  O  O22  1  0.89936500  0.26004800  0.30177500  1
  O  O23  1  0.60063500  0.26004800  0.80177500  1
  O  O24  1  0.78240900  0.47015700  0.61247000  1
  O  O25  1  0.71759100  0.47015700  0.11247000  1
  O  O26  1  0.21759100  0.52984300  0.38753000  1
  O  O27  1  0.28240900  0.52984300  0.88753000  1
  O  O28  1  0.71955600  0.46567600  0.45236700  1
  O  O29  1  0.78044400  0.46567600  0.95236700  1
  O  O30  1  0.28044400  0.53432400  0.54763300  1
  O  O31  1  0.21955600  0.53432400  0.04763300  1
  O  O32  1  0.79670900  0.09316300  0.70644200  1
  O  O33  1  0.70329100  0.09316300  0.20644200  1
  O  O34  1  0.20329100  0.90683700  0.29355800  1
  O  O35  1  0.29670900  0.90683700  0.79355800  1
  O  O36  1  0.77630200  0.09995100  0.53347100  1
  O  O37  1  0.72369800  0.09995100  0.03347100  1
  O  O38  1  0.22369800  0.90004900  0.46652900  1
  O  O39  1  0.27630200  0.90004900  0.96652900  1
  O  O40  1  0.88392800  0.86159500  0.40413200  1
  O  O41  1  0.61607200  0.86159500  0.90413200  1
  O  O42  1  0.11607200  0.13840500  0.59586800  1
  O  O43  1  0.38392800  0.13840500  0.09586800  1
loop_
_geom_bond_atom_site_label_1
_geom_bond_atom_site_label_2
_geom_bond_distance
_geom_bond_site_symmetry_2
Na0 O24 2.313624 1_555
Na0 O40 2.320783 1_555
Na0 O36 2.333769 1_565
Na0 O15 2.488219 1_555
Na0 O16 2.597927 1_555
Na0 O7 2.763315 1_555
Na1 O25 2.313624 1_555
Na1 O41 2.320783 1_554
Na1 O37 2.333769 1_565
Na1 O14 2.488219 1_555
Na1 O17 2.597927 1_555
Na1 O6 2.763315 1_554
Na2 O26 2.313624 1_555
Na2 O42 2.320783 1_555
Na2 O38 2.333769 1_545
Na2 O13 2.488219 1_555
Na2 O18 2.597927 1_555
Na2 O5 2.763315 1_555
Na3 O27 2.313624 1_555
Na3 O43 2.320783 1_556
Na3 O39 2.333769 1_545
Na3 O12 2.488219 1_555
Na3 O19 2.597927 1_555
Na3 O4 2.763315 1_556
Na4 O31 2.328306 1_555
Na4 O34 2.335876 1_545
Na4 O4 2.400899 1_555
Na4 O18 2.490493 1_555
Na4 O13 2.543613 1_555
Na4 O43 2.670641 1_555
Na5 O30 2.328306 1_555
Na5 O35 2.335876 1_545
Na5 O5 2.400899 1_555
Na5 O19 2.490493 1_555
Na5 O12 2.543613 1_555
Na5 O42 2.670641 1_555
Na6 O29 2.328306 1_555
Na6 O32 2.335876 1_565
Na6 O6 2.400899 1_555
Na6 O16 2.490493 1_555
Na6 O15 2.543613 1_555
Na6 O41 2.670641 1_555
Na7 O28 2.328306 1_555
Na7 O33 2.335876 1_565
Na7 O7 2.400899 1_555
Na7 O17 2.490493 1_555
Na7 O14 2.543613 1_555
Na7 O40 2.670641 1_555
La0 O8 2.567251 1_655
La0 O0 2.568973 1_555
La0 O24 2.576432 1_555
La0 O29 2.577705 1_555
La0 O23 2.579501 1_555
La0 O6 2.593980 1_545
La0 O16 2.626652 1_555
La0 O32 2.691154 1_555
La0 O37 2.722777 1_556
La0 O15 2.730618 1_555
La1 O9 2.567251 1_555
La1 O1 2.568973 1_555
La1 O25 2.576432 1_555
La1 O28 2.577705 1_555
La1 O22 2.579501 1_555
La1 O7 2.593980 1_545
La1 O17 2.626652 1_555
La1 O33 2.691154 1_555
La1 O36 2.722777 1_555
La1 O14 2.730618 1_555
La2 O10 2.567251 1_455
La2 O2 2.568973 1_555
La2 O26 2.576432 1_555
La2 O31 2.577705 1_555
La2 O21 2.579501 1_555
La2 O4 2.593980 1_565
La2 O18 2.626652 1_555
La2 O34 2.691154 1_555
La2 O39 2.722777 1_554
La2 O13 2.730618 1_555
La3 O11 2.567251 1_555
La3 O3 2.568973 1_555
La3 O27 2.576432 1_555
La3 O30 2.577705 1_555
La3 O20 2.579501 1_555
La3 O5 2.593980 1_565
La3 O19 2.626652 1_555
La3 O35 2.691154 1_555
La3 O38 2.722777 1_555
La3 O12 2.730618 1_555
H0 O40 0.980358 1_555
H1 O41 0.980358 1_555
H2 O42 0.980358 1_555
H3 O43 0.980358 1_555
H4 O40 0.985421 1_555
H5 O41 0.985421 1_555
H6 O42 0.985421 1_555
H7 O43 0.985421 1_555
C0 O0 1.257168 1_454
C0 O4 1.277898 1_555
C1 O1 1.257168 1_555
C1 O5 1.277898 1_555
C2 O2 1.257168 1_656
C2 O6 1.277898 1_555
C3 O3 1.257168 1_555
C3 O7 1.277898 1_555
C4 O12 1.265007 1_555
C4 O8 1.269597 1_555
C5 O13 1.265007 1_555
C5 O9 1.269597 1_555
C6 O14 1.265007 1_555
C6 O10 1.269597 1_555
C7 O15 1.265007 1_555
C7 O11 1.269597 1_555
C8 O20 1.265767 1_555
C8 O16 1.272674 1_455
C9 O21 1.265767 1_555
C9 O17 1.272674 1_555
C10 O22 1.265767 1_555
C10 O18 1.272674 1_655
C11 O23 1.265767 1_555
C11 O19 1.272674 1_555
C12 O28 1.261961 1_555
C12 O24 1.266162 1_555
C13 O29 1.261961 1_554
C13 O25 1.266162 1_555
C14 O30 1.261961 1_555
C14 O26 1.266162 1_555
C15 O31 1.261961 1_556
C15 O27 1.266162 1_555
C16 O36 1.266475 1_555
C16 O32 1.269034 1_555
C17 O37 1.266475 1_555
C17 O33 1.269034 1_555
C18 O38 1.266475 1_555
C18 O34 1.269034 1_555
C19 O39 1.266475 1_555
C19 O35 1.269034 1_555
