# generated using pymatgen
data_SrInCu3Se4
_symmetry_space_group_name_H-M   'P 1'
_cell_length_a   6.21887700
_cell_length_b   6.21887700
_cell_length_c   6.21887700
_cell_angle_alpha   90.00000000
_cell_angle_beta   90.00000000
_cell_angle_gamma   90.00000000
_symmetry_Int_Tables_number   1
_chemical_formula_structural   SrInCu3Se4
_chemical_formula_sum   'Sr1 In1 Cu3 Se4'
_cell_volume   240.51153031
_cell_formula_units_Z   1
loop_
 _symmetry_equiv_pos_site_id
 _symmetry_equiv_pos_as_xyz
  1  'x, y, z'
loop_
 _atom_site_type_symbol
 _atom_site_label
 _atom_site_symmetry_multiplicity
 _atom_site_fract_x
 _atom_site_fract_y
 _atom_site_fract_z
 _atom_site_occupancy
  Sr  Sr0  1  0.50000000  0.50000000  0.50000000  1
  In  In0  1  0.00000000  0.00000000  0.00000000  1
  Cu  Cu0  1  0.00000000  0.50000000  0.00000000  1
  Cu  Cu1  1  0.00000000  0.00000000  0.50000000  1
  Cu  Cu2  1  0.50000000  0.00000000  0.00000000  1
  Se  Se0  1  0.23474100  0.23474100  0.23474100  1
  Se  Se1  1  0.76525900  0.76525900  0.23474100  1
  Se  Se2  1  0.23474100  0.76525900  0.76525900  1
  Se  Se3  1  0.76525900  0.23474100  0.76525900  1
loop_
_geom_bond_atom_site_label_1
_geom_bond_atom_site_label_2
_geom_bond_distance
_geom_bond_site_symmetry_2
In0 Se0 2.528492 1_555
In0 Se2 2.528492 1_544
In0 Se1 2.528492 1_445
In0 Se3 2.528492 1_454
Cu0 Se1 2.642613 1_455
Cu0 Se2 2.642613 1_554
Cu0 Se0 2.642613 1_555
Cu0 Se3 2.642613 1_454
Cu1 Se2 2.642613 1_545
Cu1 Se3 2.642613 1_455
Cu1 Se0 2.642613 1_555
Cu1 Se1 2.642613 1_445
Cu2 Se1 2.642613 1_545
Cu2 Se3 2.642613 1_554
Cu2 Se0 2.642613 1_555
Cu2 Se2 2.642613 1_544
Se0 Sr0 2.857214 1_555
Se1 Sr0 2.857214 1_555
Se2 Sr0 2.857214 1_555
Se3 Sr0 2.857214 1_555
