# generated using pymatgen
data_K2CoC4S4N4O3
_symmetry_space_group_name_H-M   'P 1'
_cell_length_a   5.73429600
_cell_length_b   12.55026400
_cell_length_c   12.88874600
_cell_angle_alpha   90.00000000
_cell_angle_beta   90.00000000
_cell_angle_gamma   90.00000000
_symmetry_Int_Tables_number   1
_chemical_formula_structural   K2CoC4S4N4O3
_chemical_formula_sum   'K4 Co2 C8 S8 N8 O6'
_cell_volume   927.56346382
_cell_formula_units_Z   2
loop_
 _symmetry_equiv_pos_site_id
 _symmetry_equiv_pos_as_xyz
  1  'x, y, z'
loop_
 _atom_site_type_symbol
 _atom_site_label
 _atom_site_symmetry_multiplicity
 _atom_site_fract_x
 _atom_site_fract_y
 _atom_site_fract_z
 _atom_site_occupancy
  K  K0  1  0.21582400  0.65181600  0.13752500  1
  K  K1  1  0.21582400  0.34818400  0.86247500  1
  K  K2  1  0.78417600  0.84818400  0.63752500  1
  K  K3  1  0.78417600  0.15181600  0.36247500  1
  Co  Co0  1  0.25119600  0.50000000  0.50000000  1
  Co  Co1  1  0.74880400  0.00000000  0.00000000  1
  C  C0  1  0.92938700  0.66332100  0.38528900  1
  C  C1  1  0.92938700  0.33667900  0.61471100  1
  C  C2  1  0.07061300  0.83667900  0.88528900  1
  C  C3  1  0.07061300  0.16332100  0.11471100  1
  C  C4  1  0.43712300  0.92297900  0.18173300  1
  C  C5  1  0.43712300  0.07702100  0.81826700  1
  C  C6  1  0.56287700  0.57702100  0.68173300  1
  C  C7  1  0.56287700  0.42297900  0.31826700  1
  S  S0  1  0.74638600  0.73951300  0.31320300  1
  S  S1  1  0.74638600  0.26048700  0.68679700  1
  S  S2  1  0.25361400  0.76048700  0.81320300  1
  S  S3  1  0.25361400  0.23951300  0.18679700  1
  S  S4  1  0.26147500  0.88822600  0.27319000  1
  S  S5  1  0.26147500  0.11177400  0.72681000  1
  S  S6  1  0.73852500  0.61177400  0.77319000  1
  S  S7  1  0.73852500  0.38822600  0.22681000  1
  N  N0  1  0.05401000  0.60960000  0.43556700  1
  N  N1  1  0.05401000  0.39040000  0.56443300  1
  N  N2  1  0.94599000  0.89040000  0.93556700  1
  N  N3  1  0.94599000  0.10960000  0.06443300  1
  N  N4  1  0.56738100  0.94824600  0.11425200  1
  N  N5  1  0.56738100  0.05175400  0.88574800  1
  N  N6  1  0.43261900  0.55175400  0.61425200  1
  N  N7  1  0.43261900  0.44824600  0.38574800  1
  O  O0  1  0.76040200  0.69656100  0.20137600  1
  O  O1  1  0.76040200  0.30343900  0.79862400  1
  O  O2  1  0.23959800  0.80343900  0.70137600  1
  O  O3  1  0.23959800  0.19656100  0.29862400  1
  O  O4  1  0.84259300  0.00000000  0.50000000  1
  O  O5  1  0.15740700  0.50000000  0.00000000  1
loop_
_geom_bond_atom_site_label_1
_geom_bond_atom_site_label_2
_geom_bond_distance
_geom_bond_site_symmetry_2
K0 O5 2.623803 1_555
K0 O0 2.795116 1_455
K0 O0 3.277852 1_555
K0 S4 3.453852 1_555
K1 O5 2.623803 1_556
K1 O1 2.795116 1_455
K1 O1 3.277852 1_555
K1 S5 3.453852 1_555
K2 O4 2.623803 1_565
K2 O2 2.795116 1_655
K2 O2 3.277852 1_555
K2 S6 3.453852 1_555
K3 O4 2.623803 1_555
K3 O3 2.795116 1_655
K3 O3 3.277852 1_555
K3 S7 3.453852 1_555
Co0 N6 1.916409 1_555
Co0 N7 1.916409 1_555
Co0 N1 1.964745 1_555
Co0 N0 1.964745 1_555
Co1 N4 1.916409 1_545
Co1 N5 1.916409 1_554
Co1 N3 1.964745 1_555
Co1 N2 1.964745 1_544
C0 N0 1.176938 1_655
C0 S0 1.696703 1_555
C1 N1 1.176938 1_655
C1 S1 1.696703 1_555
C2 N2 1.176938 1_455
C2 S2 1.696703 1_555
C3 N3 1.176938 1_455
C3 S3 1.696703 1_555
C4 N4 1.189509 1_555
C4 S4 1.610656 1_555
C5 N5 1.189509 1_555
C5 S5 1.610656 1_555
C6 N6 1.189509 1_555
C6 S6 1.610656 1_555
C7 N7 1.189509 1_555
C7 S7 1.610656 1_555
O0 S0 1.540915 1_555
O1 S1 1.540915 1_555
O2 S2 1.540915 1_555
O3 S3 1.540915 1_555
