# generated using pymatgen
data_CaY5(MoO6)2
_symmetry_space_group_name_H-M   'P 1'
_cell_length_a   6.09114391
_cell_length_b   6.60597619
_cell_length_c   8.91653361
_cell_angle_alpha   107.78849248
_cell_angle_beta   89.34804985
_cell_angle_gamma   117.96647503
_symmetry_Int_Tables_number   1
_chemical_formula_structural   CaY5(MoO6)2
_chemical_formula_sum   'Ca1 Y5 Mo2 O12'
_cell_volume   298.00155066
_cell_formula_units_Z   1
loop_
 _symmetry_equiv_pos_site_id
 _symmetry_equiv_pos_as_xyz
  1  'x, y, z'
loop_
 _atom_site_type_symbol
 _atom_site_label
 _atom_site_symmetry_multiplicity
 _atom_site_fract_x
 _atom_site_fract_y
 _atom_site_fract_z
 _atom_site_occupancy
  Ca  Ca0  1  0.26434300  0.51507200  0.03783600  1
  Y  Y0  1  0.48696100  0.98109200  0.43300900  1
  Y  Y1  1  0.15034300  0.30017800  0.70580900  1
  Y  Y2  1  0.81337700  0.62344000  0.26208000  1
  Y  Y3  1  0.80089600  0.60586600  0.66273100  1
  Y  Y4  1  0.18492400  0.37240600  0.36093600  1
  Mo  Mo0  1  0.74163500  0.98106400  0.00722300  1
  Mo  Mo1  1  0.24990900  0.97809100  0.00137400  1
  O  O0  1  0.02703800  0.04030600  0.84588900  1
  O  O1  1  0.97630700  0.93373200  0.16939900  1
  O  O2  1  0.45554900  0.91222000  0.16886100  1
  O  O3  1  0.52172900  0.05961100  0.88339700  1
  O  O4  1  0.59792900  0.71160900  0.45575700  1
  O  O5  1  0.88228700  0.28032400  0.53360700  1
  O  O6  1  0.39148900  0.27804600  0.52789300  1
  O  O7  1  0.41284200  0.34125900  0.15830600  1
  O  O8  1  0.05977200  0.61060700  0.85813700  1
  O  O9  1  0.53299900  0.59816600  0.84508900  1
  O  O10  1  0.94168700  0.35482700  0.16357600  1
  O  O11  1  0.10173200  0.71652700  0.46373200  1
loop_
_geom_bond_atom_site_label_1
_geom_bond_atom_site_label_2
_geom_bond_distance
_geom_bond_site_symmetry_2
Ca0 O2 2.212851 1_555
Ca0 O10 2.227982 1_455
Ca0 O7 2.245041 1_555
Ca0 O9 2.367028 1_554
Ca0 O8 2.432938 1_554
Ca0 O0 2.716536 1_554
Mo0 O3 2.077991 1_564
Mo0 O10 2.153679 1_565
Mo0 O0 2.212164 1_664
Mo0 O9 2.212596 1_554
Mo0 O2 2.218264 1_555
Mo0 O1 2.230371 1_555
Mo1 O3 1.899514 1_564
Mo1 O8 2.089975 1_554
Mo1 O7 2.108521 1_565
Mo1 O0 2.201856 1_564
Mo1 O1 2.204825 1_455
Mo1 O2 2.222477 1_555
O0 Y1 2.269524 1_555
O0 Y3 2.506107 1_445
O1 Y2 2.231105 1_555
O1 Y4 2.549669 1_665
O2 Y0 2.250519 1_555
O4 Y0 2.240408 1_555
O4 Y2 2.257091 1_555
O4 Y4 2.380816 1_555
O4 Y3 2.659287 1_555
O5 Y1 2.184921 1_655
O5 Y0 2.238709 1_545
O5 Y4 2.365281 1_655
O5 Y3 2.381225 1_555
O6 Y1 2.168463 1_555
O6 Y0 2.224142 1_545
O6 Y4 2.352241 1_555
O6 Y3 2.401314 1_555
O7 Y2 2.239471 1_555
O7 Y4 2.284233 1_555
O8 Y3 2.346501 1_455
O8 Y1 2.386766 1_555
O9 Y1 2.262481 1_555
O9 Y3 2.285069 1_555
O10 Y2 2.205395 1_555
O10 Y4 2.253548 1_655
O11 Y0 2.251019 1_555
O11 Y2 2.253740 1_455
O11 Y4 2.461975 1_555
O11 Y3 2.550063 1_455
