# generated using pymatgen
data_KSr2I5
_symmetry_space_group_name_H-M   'P 1'
_cell_length_a   9.07794784
_cell_length_b   9.98575942
_cell_length_c   14.51094956
_cell_angle_alpha   90.01460752
_cell_angle_beta   90.00000000
_cell_angle_gamma   90.00000000
_symmetry_Int_Tables_number   1
_chemical_formula_structural   KSr2I5
_chemical_formula_sum   'K4 Sr8 I20'
_cell_volume   1315.42048335
_cell_formula_units_Z   4
loop_
 _symmetry_equiv_pos_site_id
 _symmetry_equiv_pos_as_xyz
  1  'x, y, z'
loop_
 _atom_site_type_symbol
 _atom_site_label
 _atom_site_symmetry_multiplicity
 _atom_site_fract_x
 _atom_site_fract_y
 _atom_site_fract_z
 _atom_site_occupancy
  K  K0  1  0.03507297  0.50445043  0.32574618  1
  K  K1  1  0.96492703  0.49554957  0.67425382  1
  K  K2  1  0.53507297  0.49554957  0.17425382  1
  K  K3  1  0.46492703  0.50445043  0.82574618  1
  Sr  Sr0  1  0.02091605  0.00332992  0.32008056  1
  Sr  Sr1  1  0.97908395  0.99667008  0.67991944  1
  Sr  Sr2  1  0.52091605  0.99667008  0.17991944  1
  Sr  Sr3  1  0.47908395  0.00332992  0.82008056  1
  Sr  Sr4  1  0.07359787  0.25111986  0.00548773  1
  Sr  Sr5  1  0.92640213  0.74888014  0.99451227  1
  Sr  Sr6  1  0.57359787  0.74888014  0.49451227  1
  Sr  Sr7  1  0.42640213  0.25111986  0.50548773  1
  I  I0  1  0.16937725  0.53966769  0.09188337  1
  I  I1  1  0.83062275  0.46033231  0.90811663  1
  I  I2  1  0.66937725  0.46033231  0.40811663  1
  I  I3  1  0.33062275  0.53966769  0.59188337  1
  I  I4  1  0.83053168  0.22411300  0.18138844  1
  I  I5  1  0.16946832  0.77588700  0.81861156  1
  I  I6  1  0.33053168  0.77588700  0.31861156  1
  I  I7  1  0.66946832  0.22411300  0.68138844  1
  I  I8  1  0.30493705  0.23291055  0.28357721  1
  I  I9  1  0.69506295  0.76708945  0.71642279  1
  I  I10  1  0.80493705  0.76708945  0.21642279  1
  I  I11  1  0.19506295  0.23291055  0.78357721  1
  I  I12  1  0.45788077  0.22065466  0.00348018  1
  I  I13  1  0.54211923  0.77934534  0.99651982  1
  I  I14  1  0.95788077  0.77934534  0.49651982  1
  I  I15  1  0.04211923  0.22065466  0.50348018  1
  I  I16  1  0.65896414  0.04150209  0.40012019  1
  I  I17  1  0.34103586  0.95849791  0.59987981  1
  I  I18  1  0.15896414  0.95849791  0.09987981  1
  I  I19  1  0.84103586  0.04150209  0.90012019  1
loop_
_geom_bond_atom_site_label_1
_geom_bond_atom_site_label_2
_geom_bond_distance
_geom_bond_site_symmetry_2
I0 Sr4 3.260086 1_555
I0 Sr5 3.350766 1_454
I0 K2 3.555824 1_555
I0 K0 3.623130 1_555
I1 Sr5 3.260086 1_555
I1 Sr4 3.350766 1_656
I1 K3 3.555824 1_555
I1 K1 3.623130 1_555
I2 Sr6 3.260086 1_555
I2 Sr7 3.350766 1_555
I2 K0 3.555824 1_655
I2 K2 3.623130 1_555
I3 Sr7 3.260086 1_555
I3 Sr6 3.350766 1_555
I3 K1 3.555824 1_455
I3 K3 3.623130 1_555
I4 Sr4 3.384833 1_655
I4 Sr0 3.449681 1_655
I4 Sr2 3.613672 1_545
I4 K2 3.814662 1_555
I4 K0 3.958455 1_655
I5 Sr5 3.384833 1_455
I5 Sr1 3.449681 1_455
I5 Sr3 3.613672 1_565
I5 K3 3.814662 1_555
I5 K1 3.958455 1_455
I6 Sr6 3.384833 1_555
I6 Sr2 3.449681 1_555
I6 Sr0 3.613672 1_565
I6 K0 3.814662 1_555
I6 K2 3.958455 1_555
I7 Sr7 3.384833 1_555
I7 Sr3 3.449681 1_555
I7 Sr1 3.613672 1_545
I7 K1 3.814662 1_555
I7 K3 3.958455 1_555
I8 Sr7 3.408499 1_555
I8 Sr2 3.416128 1_545
I8 Sr0 3.490659 1_555
I8 K0 3.705074 1_555
I8 K2 3.709668 1_555
I9 Sr6 3.408499 1_555
I9 Sr3 3.416128 1_565
I9 Sr1 3.490659 1_555
I9 K1 3.705074 1_555
I9 K3 3.709668 1_555
I10 Sr5 3.408499 1_554
I10 Sr0 3.416128 1_665
I10 Sr2 3.490659 1_555
I10 K2 3.705074 1_555
I10 K0 3.709668 1_655
I11 Sr4 3.408499 1_556
I11 Sr1 3.416128 1_445
I11 Sr3 3.490659 1_555
I11 K3 3.705074 1_555
I11 K1 3.709668 1_455
I12 Sr3 3.438924 1_554
I12 Sr2 3.447918 1_545
I12 Sr4 3.501860 1_555
I12 K2 3.763470 1_555
I12 K3 3.832832 1_554
I13 Sr2 3.438924 1_556
I13 Sr3 3.447918 1_565
I13 Sr5 3.501860 1_555
I13 K3 3.763470 1_555
I13 K2 3.832832 1_556
I14 Sr1 3.438924 1_555
I14 Sr0 3.447918 1_665
I14 Sr6 3.501860 1_555
I14 K0 3.763470 1_655
I14 K1 3.832832 1_555
I15 Sr0 3.438924 1_555
I15 Sr1 3.447918 1_445
I15 Sr7 3.501860 1_555
I15 K1 3.763470 1_455
I15 K0 3.832832 1_555
I16 Sr6 3.319203 1_545
I16 Sr7 3.342861 1_555
I16 Sr2 3.461252 1_545
I16 Sr0 3.505766 1_655
I17 Sr7 3.319203 1_565
I17 Sr6 3.342861 1_555
I17 Sr3 3.461252 1_565
I17 Sr1 3.505766 1_455
I18 Sr4 3.319203 1_565
I18 Sr5 3.342861 1_454
I18 Sr0 3.461252 1_565
I18 Sr2 3.505766 1_555
I19 Sr5 3.319203 1_545
I19 Sr4 3.342861 1_656
I19 Sr1 3.461252 1_545
I19 Sr3 3.505766 1_555
