# generated using pymatgen
data_Mg2TiCr3S8
_symmetry_space_group_name_H-M   'P 1'
_cell_length_a   7.23206404
_cell_length_b   7.23304608
_cell_length_c   7.23261480
_cell_angle_alpha   60.47898748
_cell_angle_beta   60.47721825
_cell_angle_gamma   60.47721474
_symmetry_Int_Tables_number   1
_chemical_formula_structural   Mg2TiCr3S8
_chemical_formula_sum   'Mg2 Ti1 Cr3 S8'
_cell_volume   270.41391942
_cell_formula_units_Z   1
loop_
 _symmetry_equiv_pos_site_id
 _symmetry_equiv_pos_as_xyz
  1  'x, y, z'
loop_
 _atom_site_type_symbol
 _atom_site_label
 _atom_site_symmetry_multiplicity
 _atom_site_fract_x
 _atom_site_fract_y
 _atom_site_fract_z
 _atom_site_occupancy
  Mg  Mg0  1  0.87533425  0.87534331  0.87535111  1
  Mg  Mg1  1  0.12466812  0.12466089  0.12464181  1
  Ti  Ti0  1  0.50000103  0.50001587  0.49998422  1
  Cr  Cr0  1  0.50000185  0.49999314  0.00000154  1
  Cr  Cr1  1  0.99999988  0.50000182  0.50000349  1
  Cr  Cr2  1  0.49998498  0.99999436  0.50001394  1
  S  S0  1  0.73659294  0.73657432  0.73658272  1
  S  S1  1  0.25916529  0.25915209  0.71392707  1
  S  S2  1  0.25917612  0.71391876  0.25914893  1
  S  S3  1  0.71389096  0.25919144  0.25918225  1
  S  S4  1  0.74081599  0.28608832  0.74084021  1
  S  S5  1  0.28611274  0.74079333  0.74081996  1
  S  S6  1  0.26340819  0.26341251  0.26342730  1
  S  S7  1  0.74085167  0.74085485  0.28607646  1
loop_
_geom_bond_atom_site_label_1
_geom_bond_atom_site_label_2
_geom_bond_distance
_geom_bond_site_symmetry_2
Mg0 S7 2.440084 1_556
Mg0 S5 2.440168 1_655
Mg0 S4 2.440346 1_565
Mg0 S0 2.449367 1_555
Mg1 S1 2.440021 1_554
Mg1 S3 2.440161 1_455
Mg1 S2 2.440329 1_545
Mg1 S6 2.449358 1_555
Cr0 S3 2.434186 1_555
Cr0 S5 2.434191 1_554
Cr0 S4 2.434227 1_554
Cr0 S2 2.434255 1_555
Cr0 S0 2.438374 1_554
Cr0 S6 2.438388 1_555
Cr1 S7 2.434172 1_555
Cr1 S1 2.434246 1_655
Cr1 S2 2.434331 1_655
Cr1 S4 2.434352 1_555
Cr1 S0 2.438273 1_555
Cr1 S6 2.438340 1_655
Cr2 S1 2.434269 1_565
Cr2 S5 2.434293 1_555
Cr2 S7 2.434297 1_555
Cr2 S3 2.434438 1_565
Cr2 S6 2.438274 1_565
Cr2 S0 2.438339 1_555
S1 Ti0 2.478090 1_555
S2 Ti0 2.477816 1_555
S3 Ti0 2.477768 1_555
S4 Ti0 2.477861 1_555
S5 Ti0 2.477698 1_555
S7 Ti0 2.478055 1_555
