# generated using pymatgen
data_Mn3(Al2Si)2
_symmetry_space_group_name_H-M   'P 1'
_cell_length_a   4.53942774
_cell_length_b   4.53942774
_cell_length_c   12.96196151
_cell_angle_alpha   85.06295284
_cell_angle_beta   85.06295284
_cell_angle_gamma   119.64949950
_symmetry_Int_Tables_number   1
_chemical_formula_structural   Mn3(Al2Si)2
_chemical_formula_sum   'Mn6 Al8 Si4'
_cell_volume   228.69981574
_cell_formula_units_Z   2
loop_
 _symmetry_equiv_pos_site_id
 _symmetry_equiv_pos_as_xyz
  1  'x, y, z'
loop_
 _atom_site_type_symbol
 _atom_site_label
 _atom_site_symmetry_multiplicity
 _atom_site_fract_x
 _atom_site_fract_y
 _atom_site_fract_z
 _atom_site_occupancy
  Mn  Mn0  1  0.12448900  0.37551100  0.25000000  1
  Mn  Mn1  1  0.45915800  0.70939800  0.58332400  1
  Mn  Mn2  1  0.79060200  0.04084200  0.91667600  1
  Mn  Mn3  1  0.20203800  0.95028700  0.08842100  1
  Mn  Mn4  1  0.54971300  0.29796200  0.41157900  1
  Mn  Mn5  1  0.87750500  0.62249500  0.75000000  1
  Al  Al0  1  0.13079500  0.03954000  0.58159000  1
  Al  Al1  1  0.46046000  0.36920500  0.91841000  1
  Al  Al2  1  0.87849700  0.28966400  0.08253800  1
  Al  Al3  1  0.21033600  0.62150300  0.41746200  1
  Al  Al4  1  0.54397700  0.95602300  0.75000000  1
  Al  Al5  1  0.53735000  0.62923100  0.08583300  1
  Al  Al6  1  0.87076900  0.96265000  0.41416700  1
  Al  Al7  1  0.20509900  0.29490100  0.75000000  1
  Si  Si0  1  0.45521800  0.04478200  0.25000000  1
  Si  Si1  1  0.78606100  0.37921000  0.58257300  1
  Si  Si2  1  0.12079000  0.71393900  0.91742700  1
  Si  Si3  1  0.79714200  0.70285800  0.25000000  1
loop_
_geom_bond_atom_site_label_1
_geom_bond_atom_site_label_2
_geom_bond_distance
_geom_bond_site_symmetry_2
Mn0 Si3 2.569215 1_455
Mn0 Si0 2.595759 1_555
Mn0 Si0 2.640322 1_455
Mn0 Si0 2.640322 1_565
Mn0 Si3 2.653777 1_445
Mn0 Si3 2.653777 1_555
Mn1 Si1 2.578656 1_555
Mn1 Si1 2.641116 1_565
Mn1 Si1 2.656900 1_455
Mn2 Si2 2.578656 1_645
Mn2 Si2 2.641116 1_545
Mn2 Si2 2.656900 1_655
Mn3 Si3 2.432331 1_455
Mn3 Si0 2.443867 1_565
Mn3 Si2 2.521531 1_554
Mn4 Si3 2.432331 1_555
Mn4 Si0 2.443867 1_555
Mn4 Si1 2.521531 1_555
Mn5 Si1 2.493123 1_555
Mn5 Si2 2.493123 1_655
Al0 Mn5 2.524725 1_445
Al0 Al6 2.527493 1_445
Al0 Al7 2.529444 1_555
Al0 Mn4 2.544644 1_555
Al0 Mn1 2.584265 1_545
Al0 Si1 2.587976 1_555
Al0 Si1 2.604451 1_445
Al0 Mn1 2.646083 1_555
Al0 Mn1 2.646446 1_445
Al0 Si1 2.685852 1_455
Al1 Mn5 2.524725 1_555
Al1 Al5 2.527493 1_556
Al1 Al7 2.529444 1_555
Al1 Mn3 2.544644 1_546
Al1 Mn2 2.584265 1_555
Al1 Si2 2.587976 1_545
Al1 Si2 2.604451 1_655
Al1 Mn2 2.646083 1_455
Al1 Mn2 2.646446 1_565
Al1 Si2 2.685852 1_555
Al2 Mn2 2.485312 1_554
Al2 Mn0 2.498543 1_655
Al2 Si2 2.507768 1_654
Al2 Si0 2.528412 1_555
Al2 Al5 2.600210 1_545
Al2 Mn3 2.602675 1_645
Al2 Al5 2.606708 1_655
Al2 Mn3 2.618582 1_655
Al2 Mn3 2.658496 1_545
Al2 Al5 2.671659 1_555
Al3 Mn1 2.485312 1_555
Al3 Mn0 2.498543 1_555
Al3 Si1 2.507768 1_455
Al3 Si0 2.528412 1_565
Al3 Al6 2.600210 1_555
Al3 Mn4 2.602675 1_555
Al3 Al6 2.606708 1_445
Al3 Mn4 2.618582 1_455
Al3 Mn4 2.658496 1_565
Al3 Al6 2.671659 1_455
Al4 Mn2 2.490413 1_565
Al4 Mn1 2.490413 1_555
Al4 Si2 2.528033 1_555
Al4 Si1 2.528033 1_565
Al4 Al7 2.608725 1_665
Al4 Al7 2.608725 1_555
Al4 Mn5 2.617727 1_555
Al4 Mn5 2.629337 1_565
Al4 Mn5 2.629337 1_455
Al4 Al7 2.659717 1_565
Al5 Mn0 2.474495 1_555
Al5 Si3 2.488960 1_555
Al5 Mn2 2.521131 1_564
Al5 Mn3 2.576136 1_555
Al5 Mn3 2.627613 1_655
Al5 Mn3 2.673727 1_545
Al6 Mn0 2.474495 1_665
Al6 Si3 2.488960 1_555
Al6 Mn1 2.521131 1_555
Al6 Mn4 2.576136 1_565
Al6 Mn4 2.627613 1_555
Al6 Mn4 2.673727 1_665
Al7 Mn1 2.502485 1_555
Al7 Mn2 2.502485 1_455
Al7 Mn5 2.571154 1_455
Al7 Mn5 2.652788 1_555
Al7 Mn5 2.652788 1_445
Si0 Si3 2.597221 1_445
Si0 Si3 2.597221 1_555
Si0 Si3 2.683624 1_545
