# generated using pymatgen
data_SrLiAs
_symmetry_space_group_name_H-M   'P 1'
_cell_length_a   4.51600108
_cell_length_b   7.66087184
_cell_length_c   8.04936726
_cell_angle_alpha   90.00000000
_cell_angle_beta   90.00000000
_cell_angle_gamma   90.00000000
_symmetry_Int_Tables_number   1
_chemical_formula_structural   SrLiAs
_chemical_formula_sum   'Sr4 Li4 As4'
_cell_volume   278.47997871
_cell_formula_units_Z   4
loop_
 _symmetry_equiv_pos_site_id
 _symmetry_equiv_pos_as_xyz
  1  'x, y, z'
loop_
 _atom_site_type_symbol
 _atom_site_label
 _atom_site_symmetry_multiplicity
 _atom_site_fract_x
 _atom_site_fract_y
 _atom_site_fract_z
 _atom_site_occupancy
  Sr  Sr0  1  0.25000000  0.00723127  0.29440534  1
  Sr  Sr1  1  0.25000000  0.50723127  0.20559466  1
  Sr  Sr2  1  0.75000000  0.99276873  0.70559466  1
  Sr  Sr3  1  0.75000000  0.49276873  0.79440534  1
  Li  Li0  1  0.25000000  0.15785875  0.92831883  1
  Li  Li1  1  0.25000000  0.65785875  0.57168117  1
  Li  Li2  1  0.75000000  0.84214125  0.07168117  1
  Li  Li3  1  0.75000000  0.34214125  0.42831883  1
  As  As0  1  0.25000000  0.27637497  0.59454441  1
  As  As1  1  0.25000000  0.77637497  0.90545559  1
  As  As2  1  0.75000000  0.72362503  0.40545559  1
  As  As3  1  0.75000000  0.22362503  0.09454441  1
loop_
_geom_bond_atom_site_label_1
_geom_bond_atom_site_label_2
_geom_bond_distance
_geom_bond_site_symmetry_2
As0 Li3 2.672579 1_555
As0 Li3 2.672579 1_455
As0 Li0 2.835941 1_555
As0 Li1 2.928287 1_555
As0 Sr0 3.176168 1_555
As0 Sr3 3.230300 1_455
As0 Sr3 3.230300 1_555
As0 Sr2 3.258542 1_545
As0 Sr2 3.258542 1_445
As1 Li2 2.672579 1_456
As1 Li2 2.672579 1_556
As1 Li1 2.835941 1_555
As1 Li0 2.928287 1_565
As1 Sr1 3.176168 1_556
As1 Sr2 3.230300 1_455
As1 Sr2 3.230300 1_555
As1 Sr3 3.258542 1_455
As1 Sr3 3.258542 1_555
As2 Li1 2.672579 1_655
As2 Li1 2.672579 1_555
As2 Li2 2.835941 1_555
As2 Li3 2.928287 1_555
As2 Sr2 3.176168 1_555
As2 Sr1 3.230300 1_555
As2 Sr1 3.230300 1_655
As2 Sr0 3.258542 1_665
As2 Sr0 3.258542 1_565
As3 Li0 2.672579 1_654
As3 Li0 2.672579 1_554
As3 Li3 2.835941 1_555
As3 Li2 2.928287 1_545
As3 Sr3 3.176168 1_554
As3 Sr0 3.230300 1_655
As3 Sr0 3.230300 1_555
As3 Sr1 3.258542 1_555
As3 Sr1 3.258542 1_655
