# generated using pymatgen
data_CsSO4
_symmetry_space_group_name_H-M   'P 1'
_cell_length_a   7.94649039
_cell_length_b   7.97405450
_cell_length_c   8.29715700
_cell_angle_alpha   90.00000000
_cell_angle_beta   90.00000000
_cell_angle_gamma   111.66724275
_symmetry_Int_Tables_number   1
_chemical_formula_structural   CsSO4
_chemical_formula_sum   'Cs4 S4 O16'
_cell_volume   488.60767135
_cell_formula_units_Z   4
loop_
 _symmetry_equiv_pos_site_id
 _symmetry_equiv_pos_as_xyz
  1  'x, y, z'
loop_
 _atom_site_type_symbol
 _atom_site_label
 _atom_site_symmetry_multiplicity
 _atom_site_fract_x
 _atom_site_fract_y
 _atom_site_fract_z
 _atom_site_occupancy
  Cs  Cs0  1  0.28783100  0.77901400  0.37615600  1
  Cs  Cs1  1  0.21216900  0.22098600  0.87615600  1
  Cs  Cs2  1  0.71216900  0.22098600  0.62384400  1
  Cs  Cs3  1  0.78783100  0.77901400  0.12384400  1
  S  S0  1  0.22857700  0.25194000  0.36708900  1
  S  S1  1  0.27142300  0.74806000  0.86708900  1
  S  S2  1  0.77142300  0.74806000  0.63291100  1
  S  S3  1  0.72857700  0.25194000  0.13291100  1
  O  O0  1  0.09539500  0.32865700  0.43262700  1
  O  O1  1  0.40460500  0.67134300  0.93262700  1
  O  O2  1  0.90460500  0.67134300  0.56737300  1
  O  O3  1  0.59539500  0.32865700  0.06737300  1
  O  O4  1  0.36244100  0.40911000  0.27984400  1
  O  O5  1  0.13755900  0.59089000  0.77984400  1
  O  O6  1  0.63755900  0.59089000  0.72015600  1
  O  O7  1  0.86244100  0.40911000  0.22015600  1
  O  O8  1  0.68906500  0.80766400  0.49579900  1
  O  O9  1  0.81093500  0.19233600  0.99579900  1
  O  O10  1  0.31093500  0.19233600  0.50420100  1
  O  O11  1  0.18906500  0.80766400  0.00420100  1
  O  O12  1  0.13851600  0.10223500  0.25494100  1
  O  O13  1  0.36148400  0.89776500  0.75494100  1
  O  O14  1  0.86148400  0.89776500  0.74505900  1
  O  O15  1  0.63851600  0.10223500  0.24505900  1
loop_
_geom_bond_atom_site_label_1
_geom_bond_atom_site_label_2
_geom_bond_distance
_geom_bond_site_symmetry_2
Cs0 O15 3.207509 1_565
Cs0 O11 3.213256 1_555
Cs0 O2 3.255374 1_455
Cs0 O8 3.265833 1_555
Cs0 O13 3.272218 1_555
Cs0 O4 3.313882 1_555
Cs0 O12 3.364594 1_565
Cs0 O0 3.376287 1_555
Cs0 O10 3.402681 1_565
Cs1 O14 3.207509 1_445
Cs1 O10 3.213256 1_555
Cs1 O3 3.255374 1_556
Cs1 O9 3.265833 1_455
Cs1 O12 3.272218 1_556
Cs1 O5 3.313882 1_555
Cs1 O13 3.364594 1_545
Cs1 O1 3.376287 1_555
Cs1 O11 3.402681 1_546
Cs2 O13 3.207509 1_545
Cs2 O9 3.213256 1_555
Cs2 O0 3.255374 1_655
Cs2 O10 3.265833 1_555
Cs2 O15 3.272218 1_555
Cs2 O6 3.313882 1_555
Cs2 O14 3.364594 1_545
Cs2 O2 3.376287 1_555
Cs2 O8 3.402681 1_545
Cs3 O12 3.207509 1_665
Cs3 O8 3.213256 1_555
Cs3 O1 3.255374 1_554
Cs3 O11 3.265833 1_655
Cs3 O14 3.272218 1_554
Cs3 O7 3.313882 1_555
Cs3 O15 3.364594 1_565
Cs3 O3 3.376287 1_555
Cs3 O9 3.402681 1_564
O0 S0 1.506012 1_555
O1 S1 1.506012 1_555
O2 S2 1.506012 1_555
O3 S3 1.506012 1_555
O4 S0 1.497274 1_555
O5 S1 1.497274 1_555
O6 S2 1.497274 1_555
O7 S3 1.497274 1_555
O8 S2 1.475848 1_555
O9 S3 1.475848 1_556
O10 S0 1.475848 1_555
O11 S1 1.475848 1_554
O12 S0 1.473844 1_555
O13 S1 1.473844 1_555
O14 S2 1.473844 1_555
O15 S3 1.473844 1_555
