# generated using pymatgen
data_Na(CoO2)2
_symmetry_space_group_name_H-M   'P 1'
_cell_length_a   2.98498543
_cell_length_b   5.09287276
_cell_length_c   5.94013391
_cell_angle_alpha   109.30807652
_cell_angle_beta   92.56069154
_cell_angle_gamma   86.31372565
_symmetry_Int_Tables_number   1
_chemical_formula_structural   Na(CoO2)2
_chemical_formula_sum   'Na1 Co2 O4'
_cell_volume   85.02105070
_cell_formula_units_Z   1
loop_
 _symmetry_equiv_pos_site_id
 _symmetry_equiv_pos_as_xyz
  1  'x, y, z'
loop_
 _atom_site_type_symbol
 _atom_site_label
 _atom_site_symmetry_multiplicity
 _atom_site_fract_x
 _atom_site_fract_y
 _atom_site_fract_z
 _atom_site_occupancy
  Na  Na0  1  0.99841000  0.84400200  0.49802900  1
  Co  Co0  1  0.48653200  0.49393200  0.98141000  1
  Co  Co1  1  0.00442500  0.01168200  0.02074400  1
  O  O0  1  0.93138700  0.41493900  0.17776500  1
  O  O1  1  0.49780100  0.88162700  0.18625700  1
  O  O2  1  0.05396800  0.59616400  0.80559400  1
  O  O3  1  0.49097700  0.10015300  0.82120000  1
loop_
_geom_bond_atom_site_label_1
_geom_bond_atom_site_label_2
_geom_bond_distance
_geom_bond_site_symmetry_2
Na0 O1 2.376981 1_555
Na0 O0 2.388992 1_555
Na0 O3 2.426345 1_665
Na0 O3 2.455791 1_565
Na0 O1 2.491325 1_655
Na0 O2 2.535644 1_655
Co0 O2 1.783711 1_555
Co0 O0 1.840862 1_556
Co0 O3 1.913986 1_555
Co0 O1 1.948441 1_556
Co0 O0 2.199315 1_456
Co0 O2 2.204939 1_655
Co1 O1 1.936509 1_545
Co1 O0 1.956829 1_455
Co1 O3 2.014700 1_454
Co1 O3 2.075684 1_554
Co1 O2 2.078842 1_544
Co1 O1 2.093937 1_445
