# generated using pymatgen
data_Mg7Co
_symmetry_space_group_name_H-M   'P 1'
_cell_length_a   6.16128000
_cell_length_b   6.16128000
_cell_length_c   4.90475300
_cell_angle_alpha   90.00000000
_cell_angle_beta   90.00000000
_cell_angle_gamma   120.00000000
_symmetry_Int_Tables_number   1
_chemical_formula_structural   Mg7Co
_chemical_formula_sum   'Mg7 Co1'
_cell_volume   161.24626540
_cell_formula_units_Z   1
loop_
 _symmetry_equiv_pos_site_id
 _symmetry_equiv_pos_as_xyz
  1  'x, y, z'
loop_
 _atom_site_type_symbol
 _atom_site_label
 _atom_site_symmetry_multiplicity
 _atom_site_fract_x
 _atom_site_fract_y
 _atom_site_fract_z
 _atom_site_occupancy
  Mg  Mg0  1  0.00053100  0.50026600  0.50000000  1
  Mg  Mg1  1  0.49973400  0.50026600  0.50000000  1
  Mg  Mg2  1  0.49973400  0.99946900  0.50000000  1
  Mg  Mg3  1  0.15631900  0.31263700  0.00000000  1
  Mg  Mg4  1  0.15631900  0.84368100  0.00000000  1
  Mg  Mg5  1  0.68736300  0.84368100  0.00000000  1
  Mg  Mg6  1  0.66666700  0.33333300  0.00000000  1
  Co  Co0  1  0.00000000  0.00000000  0.50000000  1
loop_
_geom_bond_atom_site_label_1
_geom_bond_atom_site_label_2
_geom_bond_distance
_geom_bond_site_symmetry_2
Mg0 Mg6 3.031118 1_456
Mg0 Mg6 3.031118 1_455
Mg0 Mg4 3.062918 1_555
Mg0 Mg4 3.062918 1_556
Mg0 Mg3 3.062925 1_555
Mg0 Mg3 3.062925 1_556
Mg0 Mg2 3.075729 1_555
Mg0 Mg1 3.075729 1_555
Mg0 Mg2 3.085551 1_445
Mg0 Mg1 3.085551 1_455
Mg1 Mg6 3.031125 1_556
Mg1 Mg6 3.031125 1_555
Mg1 Mg3 3.062919 1_556
Mg1 Mg3 3.062919 1_555
Mg1 Mg5 3.062919 1_556
Mg1 Mg5 3.062919 1_555
Mg1 Mg2 3.075729 1_555
Mg1 Mg2 3.085551 1_545
Mg2 Mg6 3.031118 1_565
Mg2 Mg6 3.031118 1_566
Mg2 Mg4 3.062918 1_555
Mg2 Mg4 3.062918 1_556
Mg2 Mg5 3.062925 1_556
Mg2 Mg5 3.062925 1_555
Mg3 Mg6 3.082619 1_555
Mg3 Mg6 3.082619 1_455
Mg4 Mg6 3.082619 1_455
Mg4 Mg6 3.082619 1_565
Mg5 Mg6 3.082619 1_555
Mg5 Mg6 3.082619 1_565
Co0 Mg5 2.965967 1_446
Co0 Mg3 2.965967 1_556
Co0 Mg5 2.965967 1_445
Co0 Mg3 2.965967 1_555
Co0 Mg4 2.965970 1_545
Co0 Mg4 2.965970 1_546
Co0 Mg2 3.080638 1_545
Co0 Mg0 3.080638 1_545
Co0 Mg1 3.080641 1_445
Co0 Mg1 3.080641 1_555
Co0 Mg0 3.080644 1_555
Co0 Mg2 3.080644 1_445
