# generated using pymatgen
data_Li2AlB5(H19N3)2
_symmetry_space_group_name_H-M   'P 1'
_cell_length_a   7.79445385
_cell_length_b   7.79445385
_cell_length_c   15.90444700
_cell_angle_alpha   90.00000000
_cell_angle_beta   90.00000000
_cell_angle_gamma   119.99999873
_symmetry_Int_Tables_number   1
_chemical_formula_structural   Li2AlB5(H19N3)2
_chemical_formula_sum   'Li4 Al2 B10 H76 N12'
_cell_volume   836.79791709
_cell_formula_units_Z   2
loop_
 _symmetry_equiv_pos_site_id
 _symmetry_equiv_pos_as_xyz
  1  'x, y, z'
loop_
 _atom_site_type_symbol
 _atom_site_label
 _atom_site_symmetry_multiplicity
 _atom_site_fract_x
 _atom_site_fract_y
 _atom_site_fract_z
 _atom_site_occupancy
  Li  Li0  1  0.66666700  0.33333300  0.71526200  1
  Li  Li1  1  0.66666700  0.33333300  0.21526200  1
  Li  Li2  1  0.33333300  0.66666700  0.28473800  1
  Li  Li3  1  0.33333300  0.66666700  0.78473800  1
  Al  Al0  1  0.00000000  0.00000000  0.50000000  1
  Al  Al1  1  0.00000000  0.00000000  0.00000000  1
  B  B0  1  0.00000000  0.37681400  0.75000000  1
  B  B1  1  0.37681400  0.00000000  0.75000000  1
  B  B2  1  0.62318600  0.62318600  0.75000000  1
  B  B3  1  0.00000000  0.62318600  0.25000000  1
  B  B4  1  0.62318600  0.00000000  0.25000000  1
  B  B5  1  0.37681400  0.37681400  0.25000000  1
  B  B6  1  0.66666700  0.33333300  0.54582400  1
  B  B7  1  0.66666700  0.33333300  0.04582400  1
  B  B8  1  0.33333300  0.66666700  0.45417600  1
  B  B9  1  0.33333300  0.66666700  0.95417600  1
  H  H0  1  0.24577100  0.13265900  0.36985800  1
  H  H1  1  0.88688900  0.75422900  0.36985800  1
  H  H2  1  0.86734100  0.11311100  0.36985800  1
  H  H3  1  0.24577100  0.11311100  0.86985800  1
  H  H4  1  0.86734100  0.75422900  0.86985800  1
  H  H5  1  0.88688900  0.13265900  0.86985800  1
  H  H6  1  0.75422900  0.86734100  0.63014200  1
  H  H7  1  0.11311100  0.24577100  0.63014200  1
  H  H8  1  0.13265900  0.88688900  0.63014200  1
  H  H9  1  0.75422900  0.88688900  0.13014200  1
  H  H10  1  0.13265900  0.24577100  0.13014200  1
  H  H11  1  0.11311100  0.86734100  0.13014200  1
  H  H12  1  0.37465600  0.15905000  0.45483700  1
  H  H13  1  0.78439400  0.62534400  0.45483700  1
  H  H14  1  0.84095000  0.21560600  0.45483700  1
  H  H15  1  0.37465600  0.21560600  0.95483700  1
  H  H16  1  0.84095000  0.62534400  0.95483700  1
  H  H17  1  0.78439400  0.15905000  0.95483700  1
  H  H18  1  0.62534400  0.84095000  0.54516300  1
  H  H19  1  0.21560600  0.37465600  0.54516300  1
  H  H20  1  0.15905000  0.78439400  0.54516300  1
  H  H21  1  0.62534400  0.78439400  0.04516300  1
  H  H22  1  0.15905000  0.37465600  0.04516300  1
  H  H23  1  0.21560600  0.84095000  0.04516300  1
  H  H24  1  0.24682400  0.94101300  0.41272200  1
  H  H25  1  0.69418900  0.75317600  0.41272200  1
  H  H26  1  0.05898700  0.30581100  0.41272200  1
  H  H27  1  0.24682400  0.30581100  0.91272200  1
  H  H28  1  0.05898700  0.75317600  0.91272200  1
  H  H29  1  0.69418900  0.94101300  0.91272200  1
  H  H30  1  0.75317600  0.05898700  0.58727800  1
  H  H31  1  0.30581100  0.24682400  0.58727800  1
  H  H32  1  0.94101300  0.69418900  0.58727800  1
  H  H33  1  0.75317600  0.69418900  0.08727800  1
  H  H34  1  0.94101300  0.24682400  0.08727800  1
  H  H35  1  0.30581100  0.05898700  0.08727800  1
  H  H36  1  0.10303200  0.51835600  0.70406900  1
  H  H37  1  0.41532500  0.89696800  0.70406900  1
  H  H38  1  0.48164400  0.58467500  0.70406900  1
  H  H39  1  0.10303200  0.58467500  0.20406900  1
  H  H40  1  0.48164400  0.89696800  0.20406900  1
  H  H41  1  0.41532500  0.51835600  0.20406900  1
  H  H42  1  0.89696800  0.48164400  0.29593100  1
  H  H43  1  0.58467500  0.10303200  0.29593100  1
  H  H44  1  0.51835600  0.41532500  0.29593100  1
  H  H45  1  0.89696800  0.41532500  0.79593100  1
  H  H46  1  0.51835600  0.10303200  0.79593100  1
  H  H47  1  0.58467500  0.48164400  0.79593100  1
  H  H48  1  0.89414400  0.23170000  0.70642500  1
  H  H49  1  0.33755600  0.10585600  0.70642500  1
  H  H50  1  0.76830000  0.66244400  0.70642500  1
  H  H51  1  0.89414400  0.66244400  0.20642500  1
  H  H52  1  0.76830000  0.10585600  0.20642500  1
  H  H53  1  0.33755600  0.23170000  0.20642500  1
  H  H54  1  0.10585600  0.76830000  0.29357500  1
  H  H55  1  0.66244400  0.89414400  0.29357500  1
  H  H56  1  0.23170000  0.33755600  0.29357500  1
  H  H57  1  0.10585600  0.33755600  0.79357500  1
  H  H58  1  0.23170000  0.89414400  0.79357500  1
  H  H59  1  0.66244400  0.76830000  0.79357500  1
  H  H60  1  0.66666700  0.33333300  0.46843400  1
  H  H61  1  0.66666700  0.33333300  0.96843400  1
  H  H62  1  0.33333300  0.66666700  0.53156600  1
  H  H63  1  0.33333300  0.66666700  0.03156600  1
  H  H64  1  0.53876800  0.17060300  0.57156500  1
  H  H65  1  0.63183500  0.46123200  0.57156500  1
  H  H66  1  0.82939700  0.36816500  0.57156500  1
  H  H67  1  0.53876800  0.36816500  0.07156500  1
  H  H68  1  0.82939700  0.46123200  0.07156500  1
  H  H69  1  0.63183500  0.17060300  0.07156500  1
  H  H70  1  0.46123200  0.82939700  0.42843500  1
  H  H71  1  0.36816500  0.53876800  0.42843500  1
  H  H72  1  0.17060300  0.63183500  0.42843500  1
  H  H73  1  0.46123200  0.63183500  0.92843500  1
  H  H74  1  0.17060300  0.53876800  0.92843500  1
  H  H75  1  0.36816500  0.82939700  0.92843500  1
  N  N0  1  0.24010700  0.06616200  0.42672900  1
  N  N1  1  0.82605500  0.75989300  0.42672900  1
  N  N2  1  0.93383800  0.17394500  0.42672900  1
  N  N3  1  0.24010700  0.17394500  0.92672900  1
  N  N4  1  0.93383800  0.75989300  0.92672900  1
  N  N5  1  0.82605500  0.06616200  0.92672900  1
  N  N6  1  0.75989300  0.93383800  0.57327100  1
  N  N7  1  0.17394500  0.24010700  0.57327100  1
  N  N8  1  0.06616200  0.82605500  0.57327100  1
  N  N9  1  0.75989300  0.82605500  0.07327100  1
  N  N10  1  0.06616200  0.24010700  0.07327100  1
  N  N11  1  0.17394500  0.93383800  0.07327100  1
loop_
_geom_bond_atom_site_label_1
_geom_bond_atom_site_label_2
_geom_bond_distance
_geom_bond_site_symmetry_2
Al0 N8 2.039937 1_545
Al0 N2 2.039937 1_455
Al0 N6 2.039937 1_445
Al0 N0 2.039937 1_555
Al0 N1 2.039937 1_445
Al0 N7 2.039937 1_555
Al1 N5 2.039937 1_454
Al1 N11 2.039937 1_545
Al1 N4 2.039937 1_444
Al1 N10 2.039937 1_555
Al1 N3 2.039937 1_554
Al1 N9 2.039937 1_445
B0 H57 1.227672 1_555
B0 H48 1.227672 1_455
B0 H36 1.228710 1_555
B0 H45 1.228715 1_455
B1 H49 1.227672 1_555
B1 H58 1.227672 1_545
B1 H46 1.228710 1_555
B1 H37 1.228715 1_545
B2 H50 1.227672 1_555
B2 H59 1.227672 1_555
B2 H38 1.228709 1_555
B2 H47 1.228709 1_555
B3 H51 1.227672 1_455
B3 H54 1.227672 1_555
B3 H42 1.228710 1_455
B3 H39 1.228715 1_555
B4 H55 1.227672 1_545
B4 H52 1.227672 1_555
B4 H40 1.228710 1_545
B4 H43 1.228715 1_555
B5 H56 1.227672 1_555
B5 H53 1.227672 1_555
B5 H41 1.228709 1_555
B5 H44 1.228709 1_555
B6 H66 1.227098 1_555
B6 H64 1.227100 1_555
B6 H65 1.227105 1_555
B6 H60 1.230845 1_555
B7 H69 1.227098 1_555
B7 H68 1.227100 1_555
B7 H67 1.227105 1_555
B7 H61 1.230845 1_554
B8 H72 1.227098 1_555
B8 H70 1.227100 1_555
B8 H71 1.227105 1_555
B8 H62 1.230845 1_555
B9 H75 1.227098 1_555
B9 H74 1.227100 1_555
B9 H73 1.227105 1_555
B9 H63 1.230845 1_556
H0 N0 1.032392 1_555
H1 N1 1.032396 1_555
H2 N2 1.032394 1_555
H3 N3 1.032396 1_555
H4 N4 1.032392 1_555
H5 N5 1.032394 1_555
H6 N6 1.032392 1_555
H7 N7 1.032396 1_555
H8 N8 1.032394 1_555
H9 N9 1.032396 1_555
H10 N10 1.032392 1_555
H11 N11 1.032394 1_555
H12 N0 1.031789 1_555
H13 N1 1.031789 1_555
H14 N2 1.031789 1_555
H15 N3 1.031789 1_555
H16 N4 1.031789 1_555
H17 N5 1.031789 1_555
H18 N6 1.031789 1_555
H19 N7 1.031789 1_555
H20 N8 1.031789 1_555
H21 N9 1.031789 1_555
H22 N10 1.031789 1_555
H23 N11 1.031789 1_555
H24 N0 1.027121 1_565
H25 N1 1.027121 1_555
H26 N2 1.027121 1_455
H27 N3 1.027121 1_555
H28 N4 1.027121 1_455
H29 N5 1.027121 1_565
H30 N6 1.027121 1_545
H31 N7 1.027121 1_555
H32 N8 1.027121 1_655
H33 N9 1.027121 1_555
H34 N10 1.027121 1_655
H35 N11 1.027121 1_545
H36 Li3 2.032140 1_555
H37 Li3 2.032138 1_555
H38 Li3 2.032149 1_555
H39 Li2 2.032138 1_555
H40 Li2 2.032140 1_555
H41 Li2 2.032149 1_555
H42 Li1 2.032140 1_555
H43 Li1 2.032138 1_555
H44 Li1 2.032149 1_555
H45 Li0 2.032138 1_555
H46 Li0 2.032140 1_555
H47 Li0 2.032149 1_555
H48 Li0 2.279386 1_555
H49 Li0 2.279392 1_555
H50 Li0 2.279394 1_555
H51 Li1 2.279392 1_555
H52 Li1 2.279386 1_555
H53 Li1 2.279394 1_555
H54 Li2 2.279386 1_555
H55 Li2 2.279392 1_555
H56 Li2 2.279394 1_555
H57 Li3 2.279392 1_555
H58 Li3 2.279386 1_555
H59 Li3 2.279394 1_555
