# generated using pymatgen
data_SmGe5
_symmetry_space_group_name_H-M   'P 1'
_cell_length_a   4.02164200
_cell_length_b   6.19267760
_cell_length_c   6.19267760
_cell_angle_alpha   60.04891940
_cell_angle_beta   71.05202634
_cell_angle_gamma   71.05202634
_symmetry_Int_Tables_number   1
_chemical_formula_structural   SmGe5
_chemical_formula_sum   'Sm1 Ge5'
_cell_volume   123.87670398
_cell_formula_units_Z   1
loop_
 _symmetry_equiv_pos_site_id
 _symmetry_equiv_pos_as_xyz
  1  'x, y, z'
loop_
 _atom_site_type_symbol
 _atom_site_label
 _atom_site_symmetry_multiplicity
 _atom_site_fract_x
 _atom_site_fract_y
 _atom_site_fract_z
 _atom_site_occupancy
  Sm  Sm0  1  0.00000000  0.00000000  0.00000000  1
  Ge  Ge0  1  0.66990600  0.53808800  0.12209900  1
  Ge  Ge1  1  0.33009400  0.46191200  0.87790100  1
  Ge  Ge2  1  0.33009300  0.87790100  0.46191300  1
  Ge  Ge3  1  0.66990700  0.12209900  0.53808700  1
  Ge  Ge4  1  0.00000000  0.50000000  0.50000000  1
loop_
_geom_bond_atom_site_label_1
_geom_bond_atom_site_label_2
_geom_bond_distance
_geom_bond_site_symmetry_2
Ge0 Ge3 2.577987 1_555
Ge0 Ge1 2.617268 1_554
Ge0 Ge1 2.617274 1_654
Ge0 Ge4 2.925335 1_555
Ge0 Ge4 2.925338 1_655
Ge0 Sm0 3.189177 1_565
Ge0 Sm0 3.189179 1_665
Ge0 Sm0 3.525454 1_655
Ge1 Ge2 2.577987 1_555
Ge1 Ge4 2.925335 1_655
Ge1 Ge4 2.925338 1_555
Ge1 Sm0 3.189177 1_656
Ge1 Sm0 3.189179 1_556
Ge1 Sm0 3.525454 1_566
Ge2 Ge3 2.617266 1_465
Ge2 Ge3 2.617266 1_565
Ge2 Ge4 2.925338 1_555
Ge2 Ge4 2.925338 1_655
Ge2 Sm0 3.189182 1_565
Ge2 Sm0 3.189182 1_665
Ge2 Sm0 3.525448 1_566
Ge3 Ge4 2.925338 1_555
Ge3 Ge4 2.925338 1_655
Ge3 Sm0 3.189182 1_556
Ge3 Sm0 3.189182 1_656
Ge3 Sm0 3.525448 1_655
Ge4 Sm0 3.098628 1_556
Ge4 Sm0 3.098628 1_565
