# generated using pymatgen
data_Rb2TbO3
_symmetry_space_group_name_H-M   'P 1'
_cell_length_a   6.73727116
_cell_length_b   6.73727116
_cell_length_c   6.39543300
_cell_angle_alpha   90.00000000
_cell_angle_beta   90.00000000
_cell_angle_gamma   112.95296132
_symmetry_Int_Tables_number   1
_chemical_formula_structural   Rb2TbO3
_chemical_formula_sum   'Rb4 Tb2 O6'
_cell_volume   267.31003516
_cell_formula_units_Z   2
loop_
 _symmetry_equiv_pos_site_id
 _symmetry_equiv_pos_as_xyz
  1  'x, y, z'
loop_
 _atom_site_type_symbol
 _atom_site_label
 _atom_site_symmetry_multiplicity
 _atom_site_fract_x
 _atom_site_fract_y
 _atom_site_fract_z
 _atom_site_occupancy
  Rb  Rb0  1  0.52547900  0.19834800  0.76767800  1
  Rb  Rb1  1  0.19834800  0.52547900  0.76767800  1
  Rb  Rb2  1  0.47452100  0.80165200  0.26767800  1
  Rb  Rb3  1  0.80165200  0.47452100  0.26767800  1
  Tb  Tb0  1  0.09558200  0.09558200  0.22943600  1
  Tb  Tb1  1  0.90441800  0.90441800  0.72943600  1
  O  O0  1  0.62951500  0.62951500  0.63828500  1
  O  O1  1  0.37048500  0.37048500  0.13828500  1
  O  O2  1  0.09437700  0.84327700  0.99846200  1
  O  O3  1  0.90562300  0.15672300  0.49846200  1
  O  O4  1  0.84327700  0.09437700  0.99846200  1
  O  O5  1  0.15672300  0.90562300  0.49846200  1
loop_
_geom_bond_atom_site_label_1
_geom_bond_atom_site_label_2
_geom_bond_distance
_geom_bond_site_symmetry_2
O0 Tb1 2.127185 1_555
O0 Rb1 2.833093 1_555
O0 Rb0 2.833093 1_555
O0 Rb3 2.999629 1_555
O0 Rb2 2.999629 1_555
O1 Tb0 2.127185 1_555
O1 Rb3 2.833093 1_555
O1 Rb2 2.833093 1_555
O1 Rb0 2.999629 1_554
O1 Rb1 2.999629 1_554
O2 Tb0 2.249631 1_566
O2 Tb1 2.275744 1_455
O2 Rb1 2.902271 1_555
O2 Rb3 3.033919 1_456
O2 Rb2 3.187895 1_556
O2 Rb0 3.304214 1_565
O3 Tb1 2.249631 1_545
O3 Tb0 2.275744 1_655
O3 Rb3 2.902271 1_555
O3 Rb1 3.033919 1_655
O3 Rb0 3.187895 1_555
O3 Rb2 3.304214 1_545
O4 Tb0 2.249631 1_656
O4 Tb1 2.275744 1_545
O4 Rb0 2.902271 1_555
O4 Rb2 3.033919 1_546
O4 Rb3 3.187895 1_556
O4 Rb1 3.304214 1_655
O5 Tb1 2.249631 1_455
O5 Tb0 2.275744 1_565
O5 Rb2 2.902271 1_555
O5 Rb0 3.033919 1_565
O5 Rb1 3.187895 1_555
O5 Rb3 3.304214 1_455
