# generated using pymatgen
data_CaAl3PSO14
_symmetry_space_group_name_H-M   'P 1'
_cell_length_a   6.84947699
_cell_length_b   6.84947699
_cell_length_c   6.84947614
_cell_angle_alpha   61.00442018
_cell_angle_beta   61.00442018
_cell_angle_gamma   61.00442047
_symmetry_Int_Tables_number   1
_chemical_formula_structural   CaAl3PSO14
_chemical_formula_sum   'Ca1 Al3 P1 S1 O14'
_cell_volume   232.36625672
_cell_formula_units_Z   1
loop_
 _symmetry_equiv_pos_site_id
 _symmetry_equiv_pos_as_xyz
  1  'x, y, z'
loop_
 _atom_site_type_symbol
 _atom_site_label
 _atom_site_symmetry_multiplicity
 _atom_site_fract_x
 _atom_site_fract_y
 _atom_site_fract_z
 _atom_site_occupancy
  Ca  Ca0  1  0.00021200  0.00021200  0.00021200  1
  Al  Al0  1  0.99797400  0.99797400  0.50112400  1
  Al  Al1  1  0.50112400  0.99797400  0.99797400  1
  Al  Al2  1  0.99797400  0.50112400  0.99797400  1
  P  P0  1  0.68589000  0.68589000  0.68589000  1
  S  S0  1  0.31479900  0.31479900  0.31479900  1
  O  O0  1  0.83967200  0.83967200  0.47753600  1
  O  O1  1  0.47753600  0.83967200  0.83967200  1
  O  O2  1  0.83967200  0.47753600  0.83967200  1
  O  O3  1  0.16492500  0.16492500  0.51488300  1
  O  O4  1  0.51488300  0.16492500  0.16492500  1
  O  O5  1  0.16492500  0.51488300  0.16492500  1
  O  O6  1  0.59310400  0.59310400  0.59310400  1
  O  O7  1  0.40127600  0.40127600  0.40127600  1
  O  O8  1  0.75236300  0.75236300  0.09260400  1
  O  O9  1  0.09260400  0.75236300  0.75236300  1
  O  O10  1  0.75236300  0.09260400  0.75236300  1
  O  O11  1  0.24927100  0.24927100  0.91016100  1
  O  O12  1  0.91016100  0.24927100  0.24927100  1
  O  O13  1  0.24927100  0.91016100  0.24927100  1
loop_
_geom_bond_atom_site_label_1
_geom_bond_atom_site_label_2
_geom_bond_distance
_geom_bond_site_symmetry_2
Ca0 O10 2.622090 1_454
Ca0 O9 2.622090 1_544
Ca0 O8 2.622090 1_445
Ca0 O12 2.642338 1_455
Ca0 O13 2.642338 1_545
Ca0 O11 2.642338 1_554
Ca0 O0 2.703493 1_445
Ca0 O1 2.703493 1_544
Ca0 O2 2.703493 1_454
Ca0 O3 2.749246 1_554
Ca0 O4 2.749247 1_455
Ca0 O5 2.749247 1_545
Al0 O12 1.850373 1_565
Al0 O13 1.850373 1_655
Al0 O9 1.851804 1_655
Al0 O10 1.851804 1_565
Al0 O0 1.963907 1_555
Al0 O3 2.025068 1_665
Al1 O13 1.850373 1_556
Al1 O11 1.850373 1_565
Al1 O10 1.851804 1_565
Al1 O8 1.851804 1_556
Al1 O1 1.963907 1_555
Al1 O4 2.025068 1_566
Al2 O12 1.850373 1_556
Al2 O11 1.850373 1_655
Al2 O9 1.851804 1_655
Al2 O8 1.851804 1_556
Al2 O2 1.963907 1_555
Al2 O5 2.025068 1_656
O0 P0 1.554541 1_555
O1 P0 1.554541 1_555
O2 P0 1.554541 1_555
O3 S0 1.509843 1_555
O4 S0 1.509843 1_555
O5 S0 1.509843 1_555
O6 P0 1.544816 1_555
O7 S0 1.439776 1_555
