# generated using pymatgen
data_MoCl2O3
_symmetry_space_group_name_H-M   'P 1'
_cell_length_a   7.39447900
_cell_length_b   9.49270300
_cell_length_c   15.64084900
_cell_angle_alpha   90.00000000
_cell_angle_beta   90.00000000
_cell_angle_gamma   90.00000000
_symmetry_Int_Tables_number   1
_chemical_formula_structural   MoCl2O3
_chemical_formula_sum   'Mo8 Cl16 O24'
_cell_volume   1097.88738867
_cell_formula_units_Z   8
loop_
 _symmetry_equiv_pos_site_id
 _symmetry_equiv_pos_as_xyz
  1  'x, y, z'
loop_
 _atom_site_type_symbol
 _atom_site_label
 _atom_site_symmetry_multiplicity
 _atom_site_fract_x
 _atom_site_fract_y
 _atom_site_fract_z
 _atom_site_occupancy
  Mo  Mo0  1  0.20665000  0.25000000  0.29568100  1
  Mo  Mo1  1  0.29335000  0.25000000  0.79568100  1
  Mo  Mo2  1  0.79335000  0.75000000  0.70431900  1
  Mo  Mo3  1  0.70665000  0.75000000  0.20431900  1
  Mo  Mo4  1  0.20053100  0.25000000  0.04472600  1
  Mo  Mo5  1  0.29946900  0.25000000  0.54472600  1
  Mo  Mo6  1  0.79946900  0.75000000  0.95527400  1
  Mo  Mo7  1  0.70053100  0.75000000  0.45527400  1
  Cl  Cl0  1  0.28057200  0.48784700  0.31551700  1
  Cl  Cl1  1  0.21942800  0.01215300  0.81551700  1
  Cl  Cl2  1  0.71942800  0.98784700  0.68448300  1
  Cl  Cl3  1  0.78057200  0.51215300  0.18448300  1
  Cl  Cl4  1  0.71942800  0.51215300  0.68448300  1
  Cl  Cl5  1  0.78057200  0.98784700  0.18448300  1
  Cl  Cl6  1  0.28057200  0.01215300  0.31551700  1
  Cl  Cl7  1  0.21942800  0.48784700  0.81551700  1
  Cl  Cl8  1  0.27415000  0.48750000  0.06666600  1
  Cl  Cl9  1  0.22585000  0.01250000  0.56666600  1
  Cl  Cl10  1  0.72585000  0.98750000  0.93333400  1
  Cl  Cl11  1  0.77415000  0.51250000  0.43333400  1
  Cl  Cl12  1  0.72585000  0.51250000  0.93333400  1
  Cl  Cl13  1  0.77415000  0.98750000  0.43333400  1
  Cl  Cl14  1  0.27415000  0.01250000  0.06666600  1
  Cl  Cl15  1  0.22585000  0.48750000  0.56666600  1
  O  O0  1  0.50547300  0.25000000  0.30699000  1
  O  O1  1  0.99452700  0.25000000  0.80699000  1
  O  O2  1  0.49452700  0.75000000  0.69301000  1
  O  O3  1  0.00547300  0.75000000  0.19301000  1
  O  O4  1  0.49882600  0.25000000  0.06463300  1
  O  O5  1  0.00117400  0.25000000  0.56463300  1
  O  O6  1  0.50117400  0.75000000  0.93536700  1
  O  O7  1  0.99882600  0.75000000  0.43536700  1
  O  O8  1  0.97715300  0.25000000  0.31086100  1
  O  O9  1  0.52284700  0.25000000  0.81086100  1
  O  O10  1  0.02284700  0.75000000  0.68913900  1
  O  O11  1  0.47715300  0.75000000  0.18913900  1
  O  O12  1  0.96972200  0.25000000  0.05430300  1
  O  O13  1  0.53027800  0.25000000  0.55430300  1
  O  O14  1  0.03027800  0.75000000  0.94569700  1
  O  O15  1  0.46972200  0.75000000  0.44569700  1
  O  O16  1  0.23769700  0.25000000  0.18152700  1
  O  O17  1  0.26230300  0.25000000  0.68152700  1
  O  O18  1  0.76230300  0.75000000  0.81847300  1
  O  O19  1  0.73769700  0.75000000  0.31847300  1
  O  O20  1  0.24083300  0.25000000  0.93143000  1
  O  O21  1  0.25916700  0.25000000  0.43143000  1
  O  O22  1  0.75916700  0.75000000  0.06857000  1
  O  O23  1  0.74083300  0.75000000  0.56857000  1
loop_
_geom_bond_atom_site_label_1
_geom_bond_atom_site_label_2
_geom_bond_distance
_geom_bond_site_symmetry_2
Mo0 O8 1.713539 1_455
Mo0 O16 1.800165 1_555
Mo0 O21 2.158451 1_555
Mo0 O0 2.216709 1_555
Mo1 O9 1.713539 1_555
Mo1 O17 1.800165 1_555
Mo1 O20 2.158451 1_555
Mo1 O1 2.216709 1_455
Mo2 O10 1.713539 1_655
Mo2 O18 1.800165 1_555
Mo2 O23 2.158451 1_555
Mo2 O2 2.216709 1_555
Mo3 O11 1.713539 1_555
Mo3 O19 1.800165 1_555
Mo3 O22 2.158451 1_555
Mo3 O3 2.216709 1_655
Mo4 O12 1.713273 1_455
Mo4 O20 1.796930 1_554
Mo4 O16 2.157261 1_555
Mo4 O4 2.227604 1_555
Mo5 O13 1.713273 1_555
Mo5 O21 1.796930 1_555
Mo5 O17 2.157261 1_555
Mo5 O5 2.227604 1_555
Mo6 O14 1.713273 1_655
Mo6 O22 1.796930 1_556
Mo6 O18 2.157261 1_555
Mo6 O6 2.227604 1_555
Mo7 O15 1.713273 1_555
Mo7 O23 1.796930 1_555
Mo7 O19 2.157261 1_555
Mo7 O7 2.227604 1_555
Cl0 Mo0 2.343663 1_555
Cl1 Mo1 2.343663 1_555
Cl2 Mo2 2.343663 1_555
Cl3 Mo3 2.343663 1_555
Cl4 Mo2 2.343663 1_555
Cl5 Mo3 2.343663 1_555
Cl6 Mo0 2.343663 1_555
Cl7 Mo1 2.343663 1_555
Cl8 Mo4 2.344557 1_555
Cl9 Mo5 2.344557 1_555
Cl10 Mo6 2.344557 1_555
Cl11 Mo7 2.344557 1_555
Cl12 Mo6 2.344557 1_555
Cl13 Mo7 2.344557 1_555
Cl14 Mo4 2.344557 1_555
Cl15 Mo5 2.344557 1_555
