# generated using pymatgen
data_Ni3W3C
_symmetry_space_group_name_H-M   'P 1'
_cell_length_a   7.83970703
_cell_length_b   7.83970703
_cell_length_c   7.83970703
_cell_angle_alpha   60.00000000
_cell_angle_beta   60.00000000
_cell_angle_gamma   60.00000000
_symmetry_Int_Tables_number   1
_chemical_formula_structural   Ni3W3C
_chemical_formula_sum   'Ni12 W12 C4'
_cell_volume   340.70970270
_cell_formula_units_Z   4
loop_
 _symmetry_equiv_pos_site_id
 _symmetry_equiv_pos_as_xyz
  1  'x, y, z'
loop_
 _atom_site_type_symbol
 _atom_site_label
 _atom_site_symmetry_multiplicity
 _atom_site_fract_x
 _atom_site_fract_y
 _atom_site_fract_z
 _atom_site_occupancy
  Ni  Ni0  1  0.62500000  0.12500000  0.12500000  1
  Ni  Ni1  1  0.12500000  0.62500000  0.12500000  1
  Ni  Ni2  1  0.12500000  0.12500000  0.62500000  1
  Ni  Ni3  1  0.12500000  0.12500000  0.12500000  1
  Ni  Ni4  1  0.25458100  0.91514000  0.91514000  1
  Ni  Ni5  1  0.91514000  0.25458100  0.91514000  1
  Ni  Ni6  1  0.91514000  0.91514000  0.25458100  1
  Ni  Ni7  1  0.91514000  0.91514000  0.91514000  1
  Ni  Ni8  1  0.99541900  0.33486000  0.33486000  1
  Ni  Ni9  1  0.33486000  0.99541900  0.33486000  1
  Ni  Ni10  1  0.33486000  0.33486000  0.99541900  1
  Ni  Ni11  1  0.33486000  0.33486000  0.33486000  1
  W  W0  1  0.70696200  0.70696200  0.29303800  1
  W  W1  1  0.29303800  0.29303800  0.70696200  1
  W  W2  1  0.70696200  0.29303800  0.70696200  1
  W  W3  1  0.29303800  0.70696200  0.29303800  1
  W  W4  1  0.29303800  0.70696200  0.70696200  1
  W  W5  1  0.70696200  0.29303800  0.29303800  1
  W  W6  1  0.54303800  0.54303800  0.95696200  1
  W  W7  1  0.95696200  0.95696200  0.54303800  1
  W  W8  1  0.54303800  0.95696200  0.54303800  1
  W  W9  1  0.95696200  0.54303800  0.95696200  1
  W  W10  1  0.95696200  0.54303800  0.54303800  1
  W  W11  1  0.54303800  0.95696200  0.95696200  1
  C  C0  1  0.12500000  0.62500000  0.62500000  1
  C  C1  1  0.62500000  0.12500000  0.62500000  1
  C  C2  1  0.62500000  0.62500000  0.12500000  1
  C  C3  1  0.62500000  0.62500000  0.62500000  1
loop_
_geom_bond_atom_site_label_1
_geom_bond_atom_site_label_2
_geom_bond_distance
_geom_bond_site_symmetry_2
Ni0 Ni7 2.410341 1_544
Ni0 Ni11 2.410341 1_555
Ni0 Ni6 2.410345 1_545
Ni0 Ni10 2.410345 1_554
Ni0 Ni9 2.410345 1_545
Ni0 Ni5 2.410345 1_554
Ni0 W2 2.704114 1_554
Ni0 W0 2.704114 1_545
Ni0 W6 2.704114 1_554
Ni0 W11 2.704114 1_544
Ni0 W8 2.704114 1_545
Ni0 W5 2.704114 1_555
Ni1 Ni11 2.410341 1_555
Ni1 Ni7 2.410341 1_454
Ni1 Ni6 2.410345 1_455
Ni1 Ni4 2.410345 1_554
Ni1 Ni10 2.410345 1_554
Ni1 Ni8 2.410345 1_455
Ni1 W3 2.704114 1_555
Ni1 W0 2.704114 1_455
Ni1 W6 2.704114 1_554
Ni1 W10 2.704114 1_455
Ni1 W4 2.704114 1_554
Ni1 W9 2.704114 1_454
Ni2 Ni7 2.410341 1_445
Ni2 Ni5 2.410345 1_455
Ni2 Ni4 2.410345 1_545
Ni2 Ni9 2.410345 1_545
Ni2 Ni8 2.410345 1_455
Ni2 W2 2.704114 1_455
Ni2 W7 2.704114 1_445
Ni2 W1 2.704114 1_555
Ni2 W4 2.704114 1_545
Ni2 W8 2.704114 1_545
Ni2 W10 2.704114 1_455
Ni3 Ni8 2.410339 1_455
Ni3 Ni9 2.410339 1_545
Ni3 Ni5 2.410339 1_454
Ni3 Ni4 2.410339 1_544
Ni3 Ni6 2.410339 1_445
Ni3 W5 2.704114 1_455
Ni3 W3 2.704114 1_545
Ni3 W7 2.704114 1_445
Ni3 W11 2.704114 1_544
Ni3 W1 2.704114 1_554
Ni3 W9 2.704114 1_454
Ni4 W11 2.630480 1_555
Ni4 W8 2.630485 1_555
Ni4 W6 2.630485 1_555
Ni4 Ni6 2.661118 1_456
Ni4 Ni5 2.661118 1_465
Ni4 Ni7 2.661118 1_455
Ni4 W3 2.664126 1_556
Ni4 W1 2.664126 1_565
Ni4 W4 2.664132 1_555
Ni5 W9 2.630480 1_555
Ni5 W10 2.630485 1_555
Ni5 W6 2.630485 1_555
Ni5 Ni6 2.661118 1_546
Ni5 Ni7 2.661118 1_545
Ni5 W1 2.664126 1_655
Ni5 W5 2.664126 1_556
Ni5 W2 2.664132 1_555
Ni6 W7 2.630480 1_555
Ni6 W10 2.630485 1_555
Ni6 W8 2.630485 1_555
Ni6 Ni7 2.661118 1_554
Ni6 W3 2.664126 1_655
Ni6 W5 2.664126 1_565
Ni6 W0 2.664132 1_555
Ni7 W7 2.630488 1_555
Ni7 W11 2.630488 1_555
Ni7 W9 2.630488 1_555
Ni7 W2 2.664129 1_565
Ni7 W0 2.664129 1_556
Ni7 W4 2.664129 1_655
Ni8 W5 2.630480 1_555
Ni8 W2 2.630485 1_555
Ni8 W0 2.630485 1_555
Ni8 Ni9 2.661118 1_645
Ni8 W7 2.664126 1_545
Ni8 W9 2.664126 1_554
Ni8 W10 2.664132 1_555
Ni9 W3 2.630480 1_555
Ni9 W0 2.630485 1_555
Ni9 W4 2.630485 1_555
Ni9 W11 2.664126 1_554
Ni9 W7 2.664126 1_455
Ni9 W8 2.664132 1_555
Ni10 Ni3 2.410339 1_556
Ni10 W1 2.630480 1_555
Ni10 W2 2.630485 1_555
Ni10 W4 2.630485 1_555
Ni10 Ni11 2.661118 1_556
Ni10 Ni9 2.661118 1_546
Ni10 Ni8 2.661118 1_456
Ni10 W9 2.664126 1_455
Ni10 W11 2.664126 1_545
Ni10 W6 2.664132 1_555
Ni11 Ni2 2.410341 1_555
Ni11 W3 2.630488 1_555
Ni11 W1 2.630488 1_555
Ni11 W5 2.630488 1_555
Ni11 Ni9 2.661118 1_545
Ni11 Ni8 2.661118 1_455
Ni11 W6 2.664129 1_554
Ni11 W10 2.664129 1_455
Ni11 W8 2.664129 1_545
C0 W3 2.160341 1_555
C0 W9 2.160341 1_455
C0 W4 2.160341 1_555
C0 W1 2.160341 1_555
C0 W10 2.160341 1_455
C0 W7 2.160341 1_455
C1 W7 2.160341 1_545
C1 W1 2.160341 1_555
C1 W2 2.160341 1_555
C1 W11 2.160341 1_545
C1 W8 2.160341 1_545
C1 W5 2.160341 1_555
C2 W3 2.160341 1_555
C2 W6 2.160341 1_554
C2 W9 2.160341 1_554
C2 W5 2.160341 1_555
C2 W0 2.160341 1_555
C2 W11 2.160341 1_554
C3 W4 2.160341 1_555
C3 W8 2.160341 1_555
C3 W2 2.160341 1_555
C3 W6 2.160341 1_555
C3 W0 2.160341 1_555
C3 W10 2.160341 1_555
