# generated using pymatgen
data_Y4S3N2
_symmetry_space_group_name_H-M   'P 1'
_cell_length_a   6.65552142
_cell_length_b   11.54542302
_cell_length_c   9.83181878
_cell_angle_alpha   90.00000000
_cell_angle_beta   90.00000000
_cell_angle_gamma   90.00000000
_symmetry_Int_Tables_number   1
_chemical_formula_structural   Y4S3N2
_chemical_formula_sum   'Y16 S12 N8'
_cell_volume   755.48492092
_cell_formula_units_Z   4
loop_
 _symmetry_equiv_pos_site_id
 _symmetry_equiv_pos_as_xyz
  1  'x, y, z'
loop_
 _atom_site_type_symbol
 _atom_site_label
 _atom_site_symmetry_multiplicity
 _atom_site_fract_x
 _atom_site_fract_y
 _atom_site_fract_z
 _atom_site_occupancy
  Y  Y0  1  0.61980734  0.25000000  0.86412920  1
  Y  Y1  1  0.11980734  0.25000000  0.63587080  1
  Y  Y2  1  0.38019266  0.75000000  0.13587080  1
  Y  Y3  1  0.88019266  0.75000000  0.36412920  1
  Y  Y4  1  0.72064045  0.25000000  0.43963664  1
  Y  Y5  1  0.22064045  0.25000000  0.06036336  1
  Y  Y6  1  0.27935955  0.75000000  0.56036336  1
  Y  Y7  1  0.77935955  0.75000000  0.93963664  1
  Y  Y8  1  0.67585917  0.47225899  0.11610209  1
  Y  Y9  1  0.17585917  0.02774101  0.38389791  1
  Y  Y10  1  0.32414083  0.97225899  0.88389791  1
  Y  Y11  1  0.82414083  0.52774101  0.61610209  1
  Y  Y12  1  0.32414083  0.52774101  0.88389791  1
  Y  Y13  1  0.82414083  0.97225899  0.61610209  1
  Y  Y14  1  0.67585917  0.02774101  0.11610209  1
  Y  Y15  1  0.17585917  0.47225899  0.38389791  1
  S  S0  1  0.83973503  0.25000000  0.17402722  1
  S  S1  1  0.33973503  0.25000000  0.32597278  1
  S  S2  1  0.16026497  0.75000000  0.82597278  1
  S  S3  1  0.66026497  0.75000000  0.67402722  1
  S  S4  1  0.54628293  0.59242115  0.35115064  1
  S  S5  1  0.04628293  0.90757885  0.14884936  1
  S  S6  1  0.45371707  0.09242115  0.64884936  1
  S  S7  1  0.95371707  0.40757885  0.85115064  1
  S  S8  1  0.45371707  0.40757885  0.64884936  1
  S  S9  1  0.95371707  0.09242115  0.85115064  1
  S  S10  1  0.54628293  0.90757885  0.35115064  1
  S  S11  1  0.04628293  0.59242115  0.14884936  1
  N  N0  1  0.55540925  0.62334938  0.00837964  1
  N  N1  1  0.05540925  0.87665062  0.49162036  1
  N  N2  1  0.44459075  0.12334938  0.99162036  1
  N  N3  1  0.94459075  0.37665062  0.50837964  1
  N  N4  1  0.44459075  0.37665062  0.99162036  1
  N  N5  1  0.94459075  0.12334938  0.50837964  1
  N  N6  1  0.55540925  0.87665062  0.00837964  1
  N  N7  1  0.05540925  0.62334938  0.49162036  1
loop_
_geom_bond_atom_site_label_1
_geom_bond_atom_site_label_2
_geom_bond_distance
_geom_bond_site_symmetry_2
S0 Y4 2.729067 1_555
S0 Y5 2.770507 1_655
S0 Y14 2.845814 1_555
S0 Y8 2.845814 1_555
S1 Y5 2.729067 1_555
S1 Y4 2.770507 1_555
S1 Y9 2.845814 1_555
S1 Y15 2.845814 1_555
S2 Y6 2.729067 1_555
S2 Y7 2.770507 1_455
S2 Y12 2.845814 1_555
S2 Y10 2.845814 1_555
S3 Y7 2.729067 1_555
S3 Y6 2.770507 1_555
S3 Y13 2.845814 1_555
S3 Y11 2.845814 1_555
S4 Y8 2.830001 1_555
S4 Y15 2.847164 1_555
S4 Y3 2.874891 1_555
S4 Y2 3.001969 1_555
S4 Y6 3.270614 1_555
S4 Y11 3.280748 1_555
S5 Y9 2.830001 1_565
S5 Y14 2.847164 1_465
S5 Y2 2.874891 1_555
S5 Y3 3.001969 1_455
S5 Y7 3.270614 1_454
S5 Y10 3.280748 1_554
S6 Y10 2.830001 1_545
S6 Y13 2.847164 1_545
S6 Y1 2.874891 1_555
S6 Y0 3.001969 1_555
S6 Y4 3.270614 1_555
S6 Y9 3.280748 1_555
S7 Y11 2.830001 1_555
S7 Y12 2.847164 1_655
S7 Y0 2.874891 1_555
S7 Y1 3.001969 1_655
S7 Y5 3.270614 1_656
S7 Y8 3.280748 1_556
S8 Y12 2.830001 1_555
S8 Y11 2.847164 1_555
S8 Y1 2.874891 1_555
S8 Y0 3.001969 1_555
S8 Y4 3.270614 1_555
S8 Y15 3.280748 1_555
S9 Y13 2.830001 1_545
S9 Y10 2.847164 1_645
S9 Y0 2.874891 1_555
S9 Y1 3.001969 1_655
S9 Y5 3.270614 1_656
S9 Y14 3.280748 1_556
S10 Y14 2.830001 1_565
S10 Y9 2.847164 1_565
S10 Y3 2.874891 1_555
S10 Y2 3.001969 1_555
S10 Y6 3.270614 1_555
S10 Y13 3.280748 1_555
S11 Y15 2.830001 1_555
S11 Y8 2.847164 1_455
S11 Y2 2.874891 1_555
S11 Y3 3.001969 1_455
S11 Y7 3.270614 1_454
S11 Y12 3.280748 1_554
N0 Y8 2.192556 1_555
N0 Y7 2.194661 1_554
N0 Y2 2.251498 1_555
N0 Y12 2.255110 1_554
N1 Y9 2.192556 1_565
N1 Y6 2.194661 1_555
N1 Y3 2.251498 1_455
N1 Y13 2.255110 1_455
N2 Y10 2.192556 1_545
N2 Y5 2.194661 1_556
N2 Y0 2.251498 1_555
N2 Y14 2.255110 1_556
N3 Y11 2.192556 1_555
N3 Y4 2.194661 1_555
N3 Y1 2.251498 1_655
N3 Y15 2.255110 1_655
N4 Y12 2.192556 1_555
N4 Y5 2.194661 1_556
N4 Y0 2.251498 1_555
N4 Y8 2.255110 1_556
N5 Y13 2.192556 1_545
N5 Y4 2.194661 1_555
N5 Y1 2.251498 1_655
N5 Y9 2.255110 1_655
N6 Y14 2.192556 1_565
N6 Y7 2.194661 1_554
N6 Y2 2.251498 1_555
N6 Y10 2.255110 1_554
N7 Y15 2.192556 1_555
N7 Y6 2.194661 1_555
N7 Y3 2.251498 1_455
N7 Y11 2.255110 1_455
