# generated using pymatgen
data_Nd3ErFe34
_symmetry_space_group_name_H-M   'P 1'
_cell_length_a   6.41110672
_cell_length_b   6.41110672
_cell_length_c   12.80930101
_cell_angle_alpha   83.01692719
_cell_angle_beta   83.01692719
_cell_angle_gamma   82.85460355
_symmetry_Int_Tables_number   1
_chemical_formula_structural   Nd3ErFe34
_chemical_formula_sum   'Nd3 Er1 Fe34'
_cell_volume   515.48966580
_cell_formula_units_Z   1
loop_
 _symmetry_equiv_pos_site_id
 _symmetry_equiv_pos_as_xyz
  1  'x, y, z'
loop_
 _atom_site_type_symbol
 _atom_site_label
 _atom_site_symmetry_multiplicity
 _atom_site_fract_x
 _atom_site_fract_y
 _atom_site_fract_z
 _atom_site_occupancy
  Nd  Nd0  1  0.65748600  0.65748600  0.83045500  1
  Nd  Nd1  1  0.34234900  0.34234900  0.17299800  1
  Nd  Nd2  1  0.34154000  0.34154000  0.67097900  1
  Er  Er0  1  0.65737900  0.65737900  0.32929400  1
  Fe  Fe0  1  0.90253100  0.90253100  0.44998200  1
  Fe  Fe1  1  0.90603200  0.90603200  0.95117000  1
  Fe  Fe2  1  0.09790600  0.09790600  0.04654000  1
  Fe  Fe3  1  0.09658700  0.09658700  0.54687300  1
  Fe  Fe4  1  0.99891200  0.99891200  0.24860100  1
  Fe  Fe5  1  0.00013200  0.00013200  0.75033500  1
  Fe  Fe6  1  0.99805600  0.50120000  0.00200800  1
  Fe  Fe7  1  0.99966800  0.50143400  0.49818400  1
  Fe  Fe8  1  0.50143400  0.99966800  0.49818400  1
  Fe  Fe9  1  0.50120000  0.99805600  0.00200800  1
  Fe  Fe10  1  0.28565400  0.71126500  0.00440400  1
  Fe  Fe11  1  0.29246100  0.70896800  0.49828500  1
  Fe  Fe12  1  0.72147900  0.98951900  0.14301300  1
  Fe  Fe13  1  0.71020700  0.00058300  0.64450100  1
  Fe  Fe14  1  0.99817000  0.28884800  0.35518800  1
  Fe  Fe15  1  0.99804100  0.29049400  0.85562900  1
  Fe  Fe16  1  0.28884800  0.99817000  0.35518800  1
  Fe  Fe17  1  0.29049400  0.99804100  0.85562900  1
  Fe  Fe18  1  0.98951900  0.72147900  0.14301300  1
  Fe  Fe19  1  0.00058300  0.71020700  0.64450100  1
  Fe  Fe20  1  0.71126500  0.28565400  0.00440400  1
  Fe  Fe21  1  0.70896800  0.29246100  0.49828500  1
  Fe  Fe22  1  0.84771100  0.34269000  0.17187100  1
  Fe  Fe23  1  0.84564200  0.34191300  0.67063600  1
  Fe  Fe24  1  0.34526900  0.34526900  0.42069600  1
  Fe  Fe25  1  0.34116500  0.34116500  0.92472300  1
  Fe  Fe26  1  0.34269000  0.84771100  0.17187100  1
  Fe  Fe27  1  0.34191300  0.84564200  0.67063600  1
  Fe  Fe28  1  0.15187900  0.65952100  0.32656200  1
  Fe  Fe29  1  0.15364700  0.65637000  0.83097300  1
  Fe  Fe30  1  0.65987800  0.65987800  0.07969800  1
  Fe  Fe31  1  0.65741400  0.65741400  0.57514500  1
  Fe  Fe32  1  0.65952100  0.15187900  0.32656200  1
  Fe  Fe33  1  0.65637000  0.15364700  0.83097300  1
loop_
_geom_bond_atom_site_label_1
_geom_bond_atom_site_label_2
_geom_bond_distance
_geom_bond_site_symmetry_2
Er0 Fe11 3.003118 1_555
Er0 Fe21 3.003118 1_555
Er0 Fe0 3.021005 1_555
Er0 Fe18 3.023340 1_555
Er0 Fe12 3.023340 1_555
Er0 Fe14 3.027760 1_555
Er0 Fe16 3.027760 1_555
Er0 Fe24 3.038966 1_555
Er0 Fe26 3.066587 1_555
Er0 Fe22 3.066587 1_555
Er0 Fe31 3.149234 1_555
Er0 Fe28 3.167949 1_655
Er0 Fe32 3.167949 1_565
Er0 Fe30 3.193343 1_555
Er0 Fe28 3.243560 1_555
Er0 Fe32 3.243560 1_555
Er0 Fe7 3.252374 1_555
Er0 Fe8 3.252374 1_555
Er0 Fe4 3.278599 1_555
Fe0 Fe3 2.402485 1_665
Fe0 Fe7 2.586617 1_555
Fe0 Fe8 2.586617 1_555
Fe0 Fe4 2.595679 1_555
Fe0 Fe28 2.616653 1_655
Fe0 Fe32 2.616653 1_565
Fe0 Fe31 2.626516 1_555
Fe0 Fe16 2.729469 1_655
Fe0 Fe14 2.729469 1_565
Fe0 Fe13 2.750421 1_565
Fe0 Fe19 2.750421 1_655
Fe0 Fe11 2.754967 1_655
Fe0 Fe21 2.754967 1_565
Fe1 Fe2 2.371923 1_666
Fe1 Fe5 2.584909 1_665
Fe1 Fe6 2.609572 1_556
Fe1 Fe9 2.609572 1_556
Fe1 Fe29 2.612536 1_655
Fe1 Fe33 2.612536 1_565
Fe1 Fe30 2.654709 1_556
Fe1 Fe12 2.679628 1_556
Fe1 Fe18 2.679628 1_556
Fe1 Fe15 2.715466 1_565
Fe1 Fe17 2.715466 1_655
Fe1 Fe20 2.718086 1_566
Fe1 Fe10 2.718086 1_656
Fe1 Nd0 3.049433 1_555
Fe2 Fe25 2.592473 1_554
Fe2 Fe6 2.595903 1_455
Fe2 Fe9 2.595903 1_545
Fe2 Fe4 2.608841 1_445
Fe2 Fe22 2.640694 1_455
Fe2 Fe26 2.640694 1_545
Fe2 Fe20 2.703637 1_455
Fe2 Nd1 3.062887 1_555
Fe3 Fe8 2.609823 1_545
Fe3 Fe7 2.609823 1_455
Fe3 Fe5 2.620781 1_555
Fe3 Nd2 3.047494 1_555
Fe4 Nd1 3.286777 1_665
Fe5 Nd2 3.274881 1_555
Fe5 Nd0 3.287664 1_445
Fe6 Nd0 3.269132 1_554
Fe6 Nd1 3.283369 1_655
Fe7 Nd2 3.289792 1_655
Fe8 Nd2 3.289792 1_565
Fe9 Nd0 3.269132 1_554
Fe9 Nd1 3.283369 1_565
Fe10 Fe6 2.419899 1_455
Fe10 Fe9 2.428835 1_555
Fe10 Fe18 2.436975 1_455
Fe10 Fe17 2.482099 1_554
Fe10 Fe26 2.495419 1_555
Fe10 Fe29 2.548853 1_554
Fe10 Fe30 2.661500 1_555
Fe10 Fe25 2.662481 1_554
Fe10 Fe2 2.703637 1_565
Fe10 Nd1 3.020742 1_555
Fe10 Nd0 3.075248 1_554
Fe11 Fe8 2.426622 1_555
Fe11 Fe7 2.432332 1_455
Fe11 Fe16 2.443627 1_555
Fe11 Fe19 2.481384 1_555
Fe11 Fe27 2.540056 1_555
Fe11 Fe28 2.544399 1_555
Fe11 Fe24 2.612383 1_555
Fe11 Fe31 2.615640 1_555
Fe11 Fe3 2.747645 1_565
Fe11 Nd2 3.042879 1_555
Fe12 Fe18 2.274069 1_555
Fe12 Fe4 2.372319 1_555
Fe12 Fe9 2.415909 1_555
Fe12 Fe20 2.436975 1_565
Fe12 Fe30 2.445875 1_555
Fe12 Fe22 2.578832 1_565
Fe12 Fe32 2.652212 1_565
Fe12 Fe26 2.666431 1_555
Fe12 Fe2 2.705046 1_665
Fe12 Nd1 3.128701 1_565
Fe13 Fe5 2.429639 1_655
Fe13 Fe8 2.432861 1_545
Fe13 Fe19 2.463569 1_645
Fe13 Fe21 2.481384 1_555
Fe13 Fe23 2.525107 1_555
Fe13 Fe31 2.545161 1_545
Fe13 Fe27 2.642796 1_545
Fe13 Fe33 2.659437 1_555
Fe13 Fe3 2.741852 1_655
Fe13 Nd2 3.029805 1_555
Fe13 Nd0 3.056385 1_545
Fe14 Fe7 2.413961 1_555
Fe14 Fe4 2.435685 1_545
Fe14 Fe21 2.443627 1_555
Fe14 Fe16 2.466131 1_645
Fe14 Fe32 2.522985 1_555
Fe14 Fe24 2.552438 1_655
Fe14 Fe22 2.614254 1_555
Fe14 Fe28 2.652508 1_655
Fe14 Fe3 2.719100 1_655
Fe14 Nd1 3.028928 1_655
Fe15 Fe5 2.425801 1_655
Fe15 Fe6 2.440582 1_556
Fe15 Fe17 2.481190 1_645
Fe15 Fe20 2.482099 1_556
Fe15 Fe33 2.526144 1_555
Fe15 Fe25 2.539502 1_655
Fe15 Fe29 2.631072 1_655
Fe15 Fe23 2.640328 1_555
Fe15 Fe2 2.713749 1_656
Fe15 Nd0 3.019183 1_555
Fe15 Nd2 3.045609 1_655
Fe16 Fe8 2.413961 1_555
Fe16 Fe4 2.435685 1_455
Fe16 Fe28 2.522985 1_555
Fe16 Fe24 2.552438 1_565
Fe16 Fe26 2.614254 1_555
Fe16 Fe32 2.652508 1_565
Fe16 Fe3 2.719100 1_565
Fe16 Nd1 3.028928 1_565
Fe17 Fe5 2.425801 1_565
Fe17 Fe9 2.440582 1_556
Fe17 Fe29 2.526144 1_555
Fe17 Fe25 2.539502 1_565
Fe17 Fe33 2.631072 1_565
Fe17 Fe27 2.640328 1_555
Fe17 Fe2 2.713749 1_566
Fe17 Nd0 3.019183 1_555
Fe17 Nd2 3.045609 1_565
Fe18 Fe4 2.372319 1_555
Fe18 Fe6 2.415909 1_555
Fe18 Fe30 2.445875 1_555
Fe18 Fe26 2.578832 1_655
Fe18 Fe28 2.652212 1_655
Fe18 Fe22 2.666431 1_555
Fe18 Fe2 2.705046 1_665
Fe18 Nd1 3.128701 1_655
Fe19 Fe5 2.429639 1_565
Fe19 Fe7 2.432861 1_455
Fe19 Fe27 2.525107 1_555
Fe19 Fe31 2.545161 1_455
Fe19 Fe23 2.642796 1_455
Fe19 Fe29 2.659437 1_555
Fe19 Fe3 2.741852 1_565
Fe19 Nd2 3.029805 1_555
Fe19 Nd0 3.056385 1_455
Fe20 Fe9 2.419899 1_545
Fe20 Fe6 2.428835 1_555
Fe20 Fe22 2.495419 1_555
Fe20 Fe33 2.548853 1_554
Fe20 Fe30 2.661500 1_555
Fe20 Fe25 2.662481 1_554
Fe20 Nd1 3.020742 1_555
Fe20 Nd0 3.075248 1_554
Fe21 Fe7 2.426622 1_555
Fe21 Fe8 2.432332 1_545
Fe21 Fe23 2.540056 1_555
Fe21 Fe32 2.544399 1_555
Fe21 Fe24 2.612383 1_555
Fe21 Fe31 2.615640 1_555
Fe21 Fe3 2.747645 1_655
Fe21 Nd2 3.042879 1_555
Fe22 Fe6 2.427362 1_555
Fe22 Fe4 2.436539 1_545
Fe22 Fe32 2.464732 1_555
Fe22 Fe30 2.476302 1_555
Fe22 Nd1 3.172692 1_655
Fe22 Nd1 3.238478 1_555
Fe23 Fe5 2.446747 1_655
Fe23 Fe7 2.464184 1_555
Fe23 Fe31 2.488742 1_555
Fe23 Fe33 2.510581 1_555
Fe23 Fe3 2.632856 1_655
Fe23 Nd0 3.088485 1_555
Fe23 Nd2 3.179495 1_655
Fe23 Nd2 3.231618 1_555
Fe24 Fe8 2.460052 1_545
Fe24 Fe7 2.460052 1_455
Fe24 Fe32 2.490295 1_555
Fe24 Fe28 2.490295 1_555
Fe24 Fe3 2.659930 1_555
Fe24 Nd1 3.177511 1_555
Fe24 Nd2 3.200333 1_555
Fe25 Fe9 2.455085 1_546
Fe25 Fe6 2.455085 1_456
Fe25 Fe29 2.475409 1_555
Fe25 Fe33 2.475409 1_555
Fe25 Nd0 3.084745 1_555
Fe25 Nd1 3.182095 1_556
Fe25 Nd2 3.249701 1_555
Fe26 Fe9 2.427362 1_555
Fe26 Fe4 2.436539 1_455
Fe26 Fe28 2.464732 1_555
Fe26 Fe30 2.476302 1_555
Fe26 Nd1 3.172692 1_565
Fe26 Nd1 3.238478 1_555
Fe27 Fe5 2.446747 1_565
Fe27 Fe8 2.464184 1_555
Fe27 Fe31 2.488742 1_555
Fe27 Fe29 2.510581 1_555
Fe27 Fe3 2.632856 1_565
Fe27 Nd0 3.088485 1_555
Fe27 Nd2 3.179495 1_565
Fe27 Nd2 3.231618 1_555
Fe28 Fe4 2.423295 1_455
Fe28 Fe7 2.448452 1_455
Fe28 Nd1 3.044014 1_555
Fe29 Fe6 2.443357 1_456
Fe29 Fe5 2.459019 1_565
Fe29 Nd2 3.086389 1_555
Fe29 Nd0 3.180871 1_455
Fe29 Nd0 3.230262 1_555
Fe30 Fe9 2.428726 1_555
Fe30 Fe6 2.428726 1_555
Fe30 Nd1 3.092630 1_555
Fe30 Nd0 3.196438 1_554
Fe31 Fe7 2.440152 1_555
Fe31 Fe8 2.440152 1_555
Fe31 Nd2 3.085499 1_555
Fe31 Nd0 3.270455 1_555
Fe32 Fe4 2.423295 1_545
Fe32 Fe8 2.448452 1_545
Fe32 Nd1 3.044014 1_555
Fe33 Fe9 2.443357 1_546
Fe33 Fe5 2.459019 1_655
Fe33 Nd2 3.086389 1_555
Fe33 Nd0 3.180871 1_545
Fe33 Nd0 3.230262 1_555
