# generated using pymatgen
data_LaCeAl2O6
_symmetry_space_group_name_H-M   'P 1'
_cell_length_a   5.38443252
_cell_length_b   5.38443252
_cell_length_c   5.38443281
_cell_angle_alpha   60.09763848
_cell_angle_beta   60.09763848
_cell_angle_gamma   60.09762702
_symmetry_Int_Tables_number   1
_chemical_formula_structural   LaCeAl2O6
_chemical_formula_sum   'La1 Ce1 Al2 O6'
_cell_volume   110.62786966
_cell_formula_units_Z   1
loop_
 _symmetry_equiv_pos_site_id
 _symmetry_equiv_pos_as_xyz
  1  'x, y, z'
loop_
 _atom_site_type_symbol
 _atom_site_label
 _atom_site_symmetry_multiplicity
 _atom_site_fract_x
 _atom_site_fract_y
 _atom_site_fract_z
 _atom_site_occupancy
  La  La0  1  0.00000000  0.00000000  0.00000000  1
  Ce  Ce0  1  0.50000000  0.50000000  0.50000000  1
  Al  Al0  1  0.74994200  0.74994200  0.74994200  1
  Al  Al1  1  0.25005800  0.25005800  0.25005800  1
  O  O0  1  0.97313800  0.02686200  0.50000000  1
  O  O1  1  0.50000000  0.97313800  0.02686200  1
  O  O2  1  0.02686200  0.50000000  0.97313800  1
  O  O3  1  0.00000000  0.52575300  0.47424700  1
  O  O4  1  0.47424700  0.00000000  0.52575300  1
  O  O5  1  0.52575300  0.47424700  0.00000000  1
loop_
_geom_bond_atom_site_label_1
_geom_bond_atom_site_label_2
_geom_bond_distance
_geom_bond_site_symmetry_2
La0 O5 2.557318 1_455
La0 O3 2.557319 1_545
La0 O4 2.557319 1_554
La0 O1 2.696110 1_545
La0 O2 2.696110 1_544
La0 O2 2.696110 1_554
La0 O1 2.696110 1_445
La0 O0 2.696110 1_455
La0 O0 2.696110 1_454
La0 O5 2.835058 1_545
La0 O3 2.835058 1_554
La0 O4 2.835058 1_455
Ce0 O0 2.551338 1_555
Ce0 O2 2.551339 1_555
Ce0 O1 2.551339 1_555
Ce0 O4 2.695795 1_565
Ce0 O3 2.695795 1_555
Ce0 O3 2.695795 1_655
Ce0 O4 2.695795 1_555
Ce0 O5 2.695796 1_556
Ce0 O5 2.695796 1_555
Ce0 O0 2.841038 1_465
Ce0 O2 2.841039 1_654
Ce0 O1 2.841039 1_546
Al0 O4 1.909704 1_565
Al0 O3 1.909704 1_655
Al0 O5 1.909705 1_556
Al0 O2 1.911027 1_655
Al0 O1 1.911027 1_556
Al0 O0 1.911028 1_565
Al1 O3 1.909704 1_555
Al1 O4 1.909704 1_555
Al1 O5 1.909705 1_555
Al1 O1 1.911027 1_545
Al1 O2 1.911027 1_554
Al1 O0 1.911028 1_455
