# generated using pymatgen
data_Cs3Cu5O4
_symmetry_space_group_name_H-M   'P 1'
_cell_length_a   7.53500383
_cell_length_b   10.32922916
_cell_length_c   14.77656313
_cell_angle_alpha   73.77864207
_cell_angle_beta   90.00000000
_cell_angle_gamma   90.00000000
_symmetry_Int_Tables_number   1
_chemical_formula_structural   Cs3Cu5O4
_chemical_formula_sum   'Cs12 Cu20 O16'
_cell_volume   1104.28667230
_cell_formula_units_Z   4
loop_
 _symmetry_equiv_pos_site_id
 _symmetry_equiv_pos_as_xyz
  1  'x, y, z'
loop_
 _atom_site_type_symbol
 _atom_site_label
 _atom_site_symmetry_multiplicity
 _atom_site_fract_x
 _atom_site_fract_y
 _atom_site_fract_z
 _atom_site_occupancy
  Cs  Cs0  1  0.09005552  0.32108772  0.10874214  1
  Cs  Cs1  1  0.59005552  0.67891228  0.39125786  1
  Cs  Cs2  1  0.90994448  0.67891228  0.89125786  1
  Cs  Cs3  1  0.40994448  0.32108772  0.60874214  1
  Cs  Cs4  1  0.70167324  0.27567409  0.91833120  1
  Cs  Cs5  1  0.20167324  0.72432591  0.58166880  1
  Cs  Cs6  1  0.29832676  0.72432591  0.08166880  1
  Cs  Cs7  1  0.79832676  0.27567409  0.41833120  1
  Cs  Cs8  1  0.17146565  0.10415182  0.90633881  1
  Cs  Cs9  1  0.67146565  0.89584818  0.59366119  1
  Cs  Cs10  1  0.82853435  0.89584818  0.09366119  1
  Cs  Cs11  1  0.32853435  0.10415182  0.40633881  1
  Cu  Cu0  1  0.07710031  0.06628991  0.62792040  1
  Cu  Cu1  1  0.04408642  0.43016932  0.76769692  1
  Cu  Cu2  1  0.95591358  0.56983068  0.23230308  1
  Cu  Cu3  1  0.45591358  0.43016932  0.26769692  1
  Cu  Cu4  1  0.67650183  0.06393315  0.25978918  1
  Cu  Cu5  1  0.17650183  0.93606685  0.24021082  1
  Cu  Cu6  1  0.32349817  0.93606685  0.74021082  1
  Cu  Cu7  1  0.82349817  0.06393315  0.75978918  1
  Cu  Cu8  1  0.79556302  0.52933026  0.62696936  1
  Cu  Cu9  1  0.29556302  0.47066974  0.87303064  1
  Cu  Cu10  1  0.20443698  0.47066974  0.37303064  1
  Cu  Cu11  1  0.70443698  0.52933026  0.12696936  1
  Cu  Cu12  1  0.93474994  0.29446580  0.64309797  1
  Cu  Cu13  1  0.43474994  0.70553420  0.85690203  1
  Cu  Cu14  1  0.06525006  0.70553420  0.35690203  1
  Cu  Cu15  1  0.56525006  0.29446580  0.14309797  1
  Cu  Cu16  1  0.92289969  0.93371009  0.37207960  1
  Cu  Cu17  1  0.42289969  0.06628991  0.12792040  1
  Cu  Cu18  1  0.54408642  0.56983068  0.73230308  1
  Cu  Cu19  1  0.57710031  0.93371009  0.87207960  1
  O  O0  1  0.42532172  0.39942366  0.39367009  1
  O  O1  1  0.92532172  0.60057634  0.10632991  1
  O  O2  1  0.57467828  0.60057634  0.60632991  1
  O  O3  1  0.07467828  0.39942366  0.89367009  1
  O  O4  1  0.29661147  0.00448125  0.61447471  1
  O  O5  1  0.79661147  0.99551875  0.88552529  1
  O  O6  1  0.70338853  0.99551875  0.38552529  1
  O  O7  1  0.20338853  0.00448125  0.11447471  1
  O  O8  1  0.85091475  0.13328544  0.63159544  1
  O  O9  1  0.35091475  0.86671456  0.86840456  1
  O  O10  1  0.14908525  0.86671456  0.36840456  1
  O  O11  1  0.64908525  0.13328544  0.13159544  1
  O  O12  1  0.52215816  0.53976557  0.85960790  1
  O  O13  1  0.02215816  0.46023443  0.64039210  1
  O  O14  1  0.47784184  0.46023443  0.14039210  1
  O  O15  1  0.97784184  0.53976557  0.35960790  1
loop_
_geom_bond_atom_site_label_1
_geom_bond_atom_site_label_2
_geom_bond_distance
_geom_bond_site_symmetry_2
Cs0 O3 3.054718 1_554
Cs0 O1 3.133486 1_455
Cs0 O14 3.346335 1_555
Cs0 O7 3.358054 1_555
Cs1 O2 3.054718 1_555
Cs1 O0 3.133486 1_555
Cs1 O15 3.346335 1_555
Cs1 O6 3.358054 1_555
Cs2 O1 3.054718 1_556
Cs2 O3 3.133486 1_655
Cs2 O12 3.346335 1_555
Cs2 O5 3.358054 1_555
Cs3 O0 3.054718 1_555
Cs3 O2 3.133486 1_555
Cs3 O13 3.346335 1_555
Cs3 O4 3.358054 1_555
Cs4 O12 2.949809 1_555
Cs4 O3 3.066901 1_655
Cs4 O11 3.108289 1_556
Cs4 O5 3.147138 1_545
Cs5 O13 2.949809 1_555
Cs5 O2 3.066901 1_555
Cs5 O10 3.108289 1_555
Cs5 O4 3.147138 1_565
Cs6 O14 2.949809 1_555
Cs6 O1 3.066901 1_455
Cs6 O9 3.108289 1_554
Cs6 O7 3.147138 1_565
Cs7 O15 2.949809 1_555
Cs7 O0 3.066901 1_555
Cs7 O8 3.108289 1_555
Cs7 O6 3.147138 1_545
Cs8 O7 2.967770 1_556
Cs8 O9 2.987566 1_545
Cs8 O5 3.086171 1_445
Cs8 O3 3.090308 1_555
Cs9 O6 2.967770 1_555
Cs9 O8 2.987566 1_565
Cs9 O4 3.086171 1_565
Cs9 O2 3.090308 1_555
Cs10 O5 2.967770 1_554
Cs10 O11 2.987566 1_565
Cs10 O7 3.086171 1_665
Cs10 O1 3.090308 1_555
Cs11 O4 2.967770 1_555
Cs11 O10 2.987566 1_545
Cs11 O6 3.086171 1_545
Cs11 O0 3.090308 1_555
Cu0 O4 1.803806 1_555
Cu0 O8 1.845940 1_455
Cu1 O3 1.813480 1_555
Cu1 O13 1.826472 1_555
Cu2 O1 1.813480 1_555
Cu2 O15 1.826472 1_555
Cu3 O0 1.813480 1_555
Cu3 O14 1.826472 1_555
Cu4 O6 1.805228 1_545
Cu4 O11 1.840092 1_555
Cu5 O7 1.805228 1_565
Cu5 O10 1.840092 1_555
Cu6 O4 1.805228 1_565
Cu6 O9 1.840092 1_555
Cu7 O5 1.805228 1_545
Cu7 O8 1.840092 1_555
Cu8 O2 1.810887 1_555
Cu8 O13 1.839790 1_655
Cu9 O3 1.810887 1_555
Cu9 O12 1.839790 1_555
Cu10 O0 1.810887 1_555
Cu10 O15 1.839790 1_455
Cu11 O1 1.810887 1_555
Cu11 O14 1.839790 1_555
Cu12 O13 1.824547 1_655
Cu12 O8 1.832435 1_555
Cu13 O12 1.824547 1_555
Cu13 O9 1.832435 1_555
Cu14 O15 1.824547 1_455
Cu14 O10 1.832435 1_555
Cu15 O14 1.824547 1_555
Cu15 O11 1.832435 1_555
Cu16 O6 1.803806 1_555
Cu16 O10 1.845940 1_655
Cu17 O7 1.803806 1_555
Cu17 O11 1.845940 1_555
Cu18 O2 1.813480 1_555
Cu18 O12 1.826472 1_555
Cu19 O5 1.803806 1_555
Cu19 O9 1.845940 1_555
