# generated using pymatgen
data_H19C6S2(NO2)5
_symmetry_space_group_name_H-M   'P 1'
_cell_length_a   7.01357200
_cell_length_b   11.20455534
_cell_length_c   12.26378831
_cell_angle_alpha   81.25986389
_cell_angle_beta   83.32705813
_cell_angle_gamma   86.46022152
_symmetry_Int_Tables_number   1
_chemical_formula_structural   H19C6S2(NO2)5
_chemical_formula_sum   'H38 C12 S4 N10 O20'
_cell_volume   945.13846726
_cell_formula_units_Z   2
loop_
 _symmetry_equiv_pos_site_id
 _symmetry_equiv_pos_as_xyz
  1  'x, y, z'
loop_
 _atom_site_type_symbol
 _atom_site_label
 _atom_site_symmetry_multiplicity
 _atom_site_fract_x
 _atom_site_fract_y
 _atom_site_fract_z
 _atom_site_occupancy
  H  H0  1  0.50000000  0.50000000  0.50000000  1
  H  H1  1  0.00000000  0.00000000  0.50000000  1
  H  H2  1  0.89673200  0.64228100  0.32399800  1
  H  H3  1  0.10326800  0.35771900  0.67600200  1
  H  H4  1  0.11269700  0.83755700  0.07523600  1
  H  H5  1  0.88730300  0.16244300  0.92476400  1
  H  H6  1  0.40301300  0.65505100  0.90409300  1
  H  H7  1  0.59698700  0.34494900  0.09590700  1
  H  H8  1  0.37610400  0.67654500  0.75802500  1
  H  H9  1  0.62389600  0.32345500  0.24197500  1
  H  H10  1  0.65442800  0.67905200  0.29196400  1
  H  H11  1  0.34557200  0.32094800  0.70803600  1
  H  H12  1  0.86406300  0.78019500  0.66940500  1
  H  H13  1  0.13593700  0.21980500  0.33059500  1
  H  H14  1  0.97331100  0.85154000  0.31256100  1
  H  H15  1  0.02668900  0.14846000  0.68743900  1
  H  H16  1  0.81284400  0.58886500  0.20787100  1
  H  H17  1  0.18715600  0.41113500  0.79212900  1
  H  H18  1  0.16497800  0.73187600  0.19508500  1
  H  H19  1  0.83502200  0.26812400  0.80491500  1
  H  H20  1  0.91272100  0.95856500  0.19603100  1
  H  H21  1  0.08727900  0.04143500  0.80396900  1
  H  H22  1  0.68968300  0.91864300  0.78586000  1
  H  H23  1  0.31031700  0.08135700  0.21414000  1
  H  H24  1  0.72513100  0.88879100  0.29403800  1
  H  H25  1  0.27486900  0.11120900  0.70596200  1
  H  H26  1  0.64348700  0.74294800  0.62368500  1
  H  H27  1  0.35651300  0.25705200  0.37631500  1
  H  H28  1  0.79793000  0.62482300  0.68704100  1
  H  H29  1  0.20207000  0.37517700  0.31295900  1
  H  H30  1  0.53335100  0.55675800  0.81566300  1
  H  H31  1  0.46664900  0.44324200  0.18433700  1
  H  H32  1  0.47797900  0.88470600  0.72930100  1
  H  H33  1  0.52202100  0.11529400  0.27069900  1
  H  H34  1  0.07147500  0.67883700  0.08251000  1
  H  H35  1  0.92852500  0.32116300  0.91749000  1
  H  H36  1  0.48016300  0.86886900  0.87714900  1
  H  H37  1  0.51983700  0.13113100  0.12285100  1
  C  C0  1  0.56666300  0.86086200  0.79812100  1
  C  C1  1  0.43333700  0.13913800  0.20187900  1
  C  C2  1  0.80302700  0.66283200  0.25731900  1
  C  C3  1  0.19697300  0.33716800  0.74268100  1
  C  C4  1  0.86960800  0.87659500  0.25178000  1
  C  C5  1  0.13039200  0.12340500  0.74822000  1
  C  C6  1  0.47532500  0.64877200  0.82101400  1
  C  C7  1  0.52467500  0.35122800  0.17898600  1
  C  C8  1  0.74527700  0.71892000  0.68581600  1
  C  C9  1  0.25472300  0.28108000  0.31418400  1
  C  C10  1  0.06957700  0.75463000  0.12944000  1
  C  C11  1  0.93042300  0.24537000  0.87056000  1
  S  S0  1  0.69787200  0.82659900  0.07615800  1
  S  S1  1  0.30212800  0.17340100  0.92384200  1
  S  S2  1  0.81784600  0.68831900  0.90303100  1
  S  S3  1  0.18215400  0.31168100  0.09696900  1
  N  N0  1  0.69464000  0.71073300  0.01589200  1
  N  N1  1  0.30536000  0.28926700  0.98410800  1
  N  N2  1  0.87194300  0.77493400  0.18492400  1
  N  N3  1  0.12805700  0.22506600  0.81507600  1
  N  N4  1  0.27115400  0.90826000  0.50742200  1
  N  N5  1  0.72884600  0.09174000  0.49257800  1
  N  N6  1  0.75429200  0.40263700  0.54005800  1
  N  N7  1  0.24570800  0.59736300  0.45994200  1
  N  N8  1  0.63724500  0.73270000  0.79649300  1
  N  N9  1  0.36275500  0.26730000  0.20350700  1
  O  O0  1  0.78620300  0.93189900  0.01314500  1
  O  O1  1  0.21379700  0.06810100  0.98685500  1
  O  O2  1  0.97192200  0.76743600  0.86192300  1
  O  O3  1  0.02807800  0.23256400  0.13807700  1
  O  O4  1  0.51903100  0.83801700  0.14426500  1
  O  O5  1  0.48096900  0.16198300  0.85573500  1
  O  O6  1  0.69383900  0.41185100  0.63858400  1
  O  O7  1  0.30616100  0.58814900  0.36141600  1
  O  O8  1  0.22434100  0.88708500  0.60964900  1
  O  O9  1  0.77565900  0.11291500  0.39035100  1
  O  O10  1  0.64676700  0.45014200  0.46058300  1
  O  O11  1  0.35323300  0.54985800  0.53941700  1
  O  O12  1  0.84396300  0.56013900  0.90186000  1
  O  O13  1  0.15603700  0.43986100  0.09814000  1
  O  O14  1  0.14744300  0.97178300  0.44398100  1
  O  O15  1  0.85255700  0.02821700  0.55601900  1
  O  O16  1  0.90992700  0.35179800  0.51084800  1
  O  O17  1  0.09007300  0.64820200  0.48915200  1
  O  O18  1  0.42617200  0.87425900  0.45989100  1
  O  O19  1  0.57382800  0.12574100  0.54010900  1
loop_
_geom_bond_atom_site_label_1
_geom_bond_atom_site_label_2
_geom_bond_distance
_geom_bond_site_symmetry_2
H0 O11 1.225053 1_555
H0 O10 1.225053 1_555
H1 O15 1.225492 1_455
H1 O14 1.225492 1_545
C0 H22 1.093358 1_555
C0 H36 1.094748 1_555
C0 H32 1.097056 1_555
C0 N8 1.492040 1_555
C1 H23 1.093358 1_555
C1 H37 1.094748 1_555
C1 H33 1.097056 1_555
C1 N9 1.492040 1_555
C2 H16 1.093311 1_555
C2 H10 1.094038 1_555
C2 H2 1.096642 1_555
C2 N2 1.495285 1_555
C3 H17 1.093311 1_555
C3 H11 1.094038 1_555
C3 H3 1.096642 1_555
C3 N3 1.495285 1_555
C4 H24 1.093804 1_555
C4 H20 1.094446 1_555
C4 H14 1.095735 1_555
C4 N2 1.499464 1_555
C5 H25 1.093804 1_555
C5 H21 1.094446 1_555
C5 H15 1.095735 1_555
C5 N3 1.499464 1_555
C6 H30 1.093337 1_555
C6 H6 1.094320 1_555
C6 H8 1.096801 1_555
C6 N8 1.493644 1_555
C7 H31 1.093337 1_555
C7 H7 1.094320 1_555
C7 H9 1.096801 1_555
C7 N9 1.493644 1_555
C8 H12 1.093443 1_555
C8 H28 1.093881 1_555
C8 H26 1.096850 1_555
C8 N8 1.500161 1_555
C9 H13 1.093443 1_555
C9 H29 1.093881 1_555
C9 H27 1.096850 1_555
C9 N9 1.500161 1_555
C10 H4 1.094054 1_555
C10 H34 1.094519 1_555
C10 H18 1.096612 1_555
C10 N2 1.491642 1_455
C11 H5 1.094054 1_555
C11 H35 1.094519 1_555
C11 H19 1.096612 1_555
C11 N3 1.491642 1_655
N0 S2 1.589461 1_554
N0 S0 1.591002 1_555
N1 S3 1.589461 1_556
N1 S1 1.591002 1_555
N2 S0 1.913473 1_555
N3 S1 1.913473 1_555
N4 O18 1.239372 1_555
N4 O8 1.248755 1_555
N4 O14 1.333070 1_555
N5 O19 1.239372 1_555
N5 O9 1.248755 1_555
N5 O15 1.333070 1_555
N6 O16 1.240427 1_555
N6 O6 1.250545 1_555
N6 O10 1.328758 1_555
N7 O17 1.240427 1_555
N7 O7 1.250545 1_555
N7 O11 1.328758 1_555
N8 S2 1.915251 1_555
N9 S3 1.915251 1_555
O0 S0 1.440456 1_555
O1 S1 1.440456 1_555
O2 S2 1.436522 1_555
O3 S3 1.436522 1_555
O4 S0 1.434047 1_555
O5 S1 1.434047 1_555
O12 S2 1.438611 1_555
O13 S3 1.438611 1_555
