# generated using pymatgen
data_Ca4MgZnAs4(H2O5)4
_symmetry_space_group_name_H-M   'P 1'
_cell_length_a   5.65874379
_cell_length_b   5.96367306
_cell_length_c   13.19864251
_cell_angle_alpha   92.10901864
_cell_angle_beta   81.70132996
_cell_angle_gamma   109.52456816
_symmetry_Int_Tables_number   1
_chemical_formula_structural   Ca4MgZnAs4(H2O5)4
_chemical_formula_sum   'Ca4 Mg1 Zn1 As4 H8 O20'
_cell_volume   415.37429377
_cell_formula_units_Z   1
loop_
 _symmetry_equiv_pos_site_id
 _symmetry_equiv_pos_as_xyz
  1  'x, y, z'
loop_
 _atom_site_type_symbol
 _atom_site_label
 _atom_site_symmetry_multiplicity
 _atom_site_fract_x
 _atom_site_fract_y
 _atom_site_fract_z
 _atom_site_occupancy
  Ca  Ca0  1  0.23216400  0.58765000  0.11854100  1
  Ca  Ca1  1  0.73055000  0.08801900  0.61912800  1
  Ca  Ca2  1  0.26945000  0.91198100  0.38087200  1
  Ca  Ca3  1  0.76783600  0.41235000  0.88145900  1
  Mg  Mg0  1  0.50000000  0.50000000  0.50000000  1
  Zn  Zn0  1  0.00000000  0.00000000  0.00000000  1
  As  As0  1  0.95045900  0.28450400  0.37727100  1
  As  As1  1  0.44873100  0.78348600  0.87699900  1
  As  As2  1  0.55126900  0.21651400  0.12300100  1
  As  As3  1  0.04954100  0.71549600  0.62272900  1
  H  H0  1  0.72729200  0.81250300  0.34687400  1
  H  H1  1  0.22851600  0.31211200  0.84719100  1
  H  H2  1  0.77148400  0.68788800  0.15280900  1
  H  H3  1  0.27270800  0.18749700  0.65312600  1
  H  H4  1  0.54101600  0.57453800  0.30223000  1
  H  H5  1  0.04161000  0.07290400  0.80214000  1
  H  H6  1  0.95839000  0.92709600  0.19786000  1
  H  H7  1  0.45898400  0.42546200  0.69777000  1
  O  O0  1  0.64080000  0.22332900  0.43572300  1
  O  O1  1  0.13750700  0.71838600  0.93433900  1
  O  O2  1  0.86249300  0.28161400  0.06566100  1
  O  O3  1  0.35920000  0.77667100  0.56427700  1
  O  O4  1  0.05837500  0.53657400  0.30390300  1
  O  O5  1  0.55762700  0.03579400  0.80391200  1
  O  O6  1  0.44237300  0.96420600  0.19608800  1
  O  O7  1  0.94162500  0.46342600  0.69609700  1
  O  O8  1  0.55951700  0.67986700  0.36448900  1
  O  O9  1  0.05835000  0.18137500  0.86371300  1
  O  O10  1  0.94165000  0.81862500  0.13628700  1
  O  O11  1  0.44048300  0.32013300  0.63551100  1
  O  O12  1  0.12688000  0.28135700  0.47436600  1
  O  O13  1  0.61953600  0.77771200  0.97595600  1
  O  O14  1  0.38046400  0.22228800  0.02404400  1
  O  O15  1  0.87312000  0.71864300  0.52563400  1
  O  O16  1  0.96777500  0.03587800  0.30863100  1
  O  O17  1  0.46847800  0.53536900  0.80839100  1
  O  O18  1  0.53152200  0.46463100  0.19160900  1
  O  O19  1  0.03222500  0.96412200  0.69136900  1
loop_
_geom_bond_atom_site_label_1
_geom_bond_atom_site_label_2
_geom_bond_distance
_geom_bond_site_symmetry_2
Ca0 O18 2.385849 1_555
Ca0 O6 2.429458 1_555
Ca0 O2 2.443316 1_455
Ca0 O10 2.456324 1_455
Ca0 O4 2.491084 1_555
Ca0 O13 2.633790 1_554
Ca0 O1 2.756843 1_554
Ca0 O14 2.779837 1_555
Ca1 O19 2.394597 1_645
Ca1 O7 2.422059 1_555
Ca1 O11 2.459961 1_555
Ca1 O3 2.473800 1_545
Ca1 O5 2.483149 1_555
Ca1 O12 2.684513 1_655
Ca1 O0 2.746173 1_555
Ca1 O15 2.779669 1_545
Ca2 O16 2.394597 1_465
Ca2 O4 2.422059 1_555
Ca2 O8 2.459961 1_555
Ca2 O0 2.473800 1_565
Ca2 O6 2.483149 1_555
Ca2 O15 2.684513 1_455
Ca2 O3 2.746173 1_555
Ca2 O12 2.779669 1_565
Ca3 O17 2.385849 1_555
Ca3 O5 2.429458 1_555
Ca3 O1 2.443316 1_655
Ca3 O9 2.456324 1_655
Ca3 O7 2.491084 1_555
Ca3 O14 2.633790 1_556
Ca3 O2 2.756843 1_556
Ca3 O13 2.779837 1_555
Mg0 O11 2.046666 1_555
Mg0 O8 2.046666 1_555
Mg0 O15 2.146197 1_555
Mg0 O12 2.146197 1_555
Mg0 O3 2.158132 1_555
Mg0 O0 2.158132 1_555
As0 O4 1.700960 1_655
As0 O16 1.732468 1_555
As0 O0 1.732613 1_555
As0 O12 1.738649 1_655
As1 O5 1.699945 1_565
As1 O17 1.733391 1_555
As1 O1 1.733478 1_555
As1 O13 1.741048 1_555
As2 O6 1.699945 1_545
As2 O18 1.733391 1_555
As2 O2 1.733478 1_555
As2 O14 1.741048 1_555
As3 O7 1.700960 1_455
As3 O19 1.732468 1_555
As3 O3 1.732613 1_555
As3 O15 1.738649 1_455
H0 O8 1.014365 1_555
H0 O16 1.587675 1_565
H1 O9 1.016238 1_555
H1 O17 1.587389 1_555
H2 O10 1.016238 1_555
H2 O18 1.587389 1_555
H3 O11 1.014365 1_555
H3 O19 1.587675 1_545
H4 O8 1.011762 1_555
H4 O18 1.578894 1_555
H5 O9 1.015112 1_555
H5 O19 1.578221 1_545
H6 O10 1.015112 1_555
H6 O16 1.578221 1_565
H7 O11 1.011762 1_555
H7 O17 1.578894 1_555
O1 Zn0 2.179175 1_566
O2 Zn0 2.179175 1_655
O9 Zn0 2.061004 1_556
O10 Zn0 2.061004 1_665
O13 Zn0 2.179862 1_666
O14 Zn0 2.179862 1_555
