# generated using pymatgen
data_CoH3S2N5O6
_symmetry_space_group_name_H-M   'P 1'
_cell_length_a   7.50038600
_cell_length_b   12.56421700
_cell_length_c   18.01889600
_cell_angle_alpha   90.00000000
_cell_angle_beta   90.00000000
_cell_angle_gamma   90.00000000
_symmetry_Int_Tables_number   1
_chemical_formula_structural   CoH3S2N5O6
_chemical_formula_sum   'Co4 H12 S8 N20 O24'
_cell_volume   1698.03728365
_cell_formula_units_Z   4
loop_
 _symmetry_equiv_pos_site_id
 _symmetry_equiv_pos_as_xyz
  1  'x, y, z'
loop_
 _atom_site_type_symbol
 _atom_site_label
 _atom_site_symmetry_multiplicity
 _atom_site_fract_x
 _atom_site_fract_y
 _atom_site_fract_z
 _atom_site_occupancy
  Co  Co0  1  0.48255500  0.14656000  0.14652100  1
  Co  Co1  1  0.01744500  0.85344000  0.64652100  1
  Co  Co2  1  0.51744500  0.64656000  0.35347900  1
  Co  Co3  1  0.98255500  0.35344000  0.85347900  1
  H  H0  1  0.05100600  0.24867100  0.43901700  1
  H  H1  1  0.44899400  0.75132900  0.93901700  1
  H  H2  1  0.94899400  0.74867100  0.06098300  1
  H  H3  1  0.55100600  0.25132900  0.56098300  1
  H  H4  1  0.02505900  0.31859300  0.23959300  1
  H  H5  1  0.47494100  0.68140700  0.73959300  1
  H  H6  1  0.97494100  0.81859300  0.26040700  1
  H  H7  1  0.52505900  0.18140700  0.76040700  1
  H  H8  1  0.49047600  0.07425200  0.36512600  1
  H  H9  1  0.00952400  0.92574800  0.86512600  1
  H  H10  1  0.50952400  0.57425200  0.13487400  1
  H  H11  1  0.99047600  0.42574800  0.63487400  1
  S  S0  1  0.08912600  0.04572000  0.03982600  1
  S  S1  1  0.41087400  0.95428000  0.53982600  1
  S  S2  1  0.91087400  0.54572000  0.46017400  1
  S  S3  1  0.58912600  0.45428000  0.96017400  1
  S  S4  1  0.00479900  0.16190100  0.65655700  1
  S  S5  1  0.49520100  0.83809900  0.15655700  1
  S  S6  1  0.99520100  0.66190100  0.84344300  1
  S  S7  1  0.50479900  0.33809900  0.34344300  1
  N  N0  1  0.40819700  0.26766400  0.12726600  1
  N  N1  1  0.09180300  0.73233600  0.62726600  1
  N  N2  1  0.59180300  0.76766400  0.37273400  1
  N  N3  1  0.90819700  0.23233600  0.87273400  1
  N  N4  1  0.66179600  0.15404700  0.19678300  1
  N  N5  1  0.83820400  0.84595300  0.69678300  1
  N  N6  1  0.33820400  0.65404700  0.30321700  1
  N  N7  1  0.16179600  0.34595300  0.80321700  1
  N  N8  1  0.08338600  0.51643300  0.12764700  1
  N  N9  1  0.41661400  0.48356700  0.62764700  1
  N  N10  1  0.91661400  0.01643300  0.37235300  1
  N  N11  1  0.58338600  0.98356700  0.87235300  1
  N  N12  1  0.32727200  0.08252800  0.19129800  1
  N  N13  1  0.17272800  0.91747200  0.69129800  1
  N  N14  1  0.67272800  0.58252800  0.30870200  1
  N  N15  1  0.82727200  0.41747200  0.80870200  1
  N  N16  1  0.52817500  0.08593800  0.06794800  1
  N  N17  1  0.97182500  0.91406200  0.56794800  1
  N  N18  1  0.47182500  0.58593800  0.43205200  1
  N  N19  1  0.02817500  0.41406200  0.93205200  1
  O  O0  1  0.30586900  0.03668500  0.50601900  1
  O  O1  1  0.19413100  0.96331500  0.00601900  1
  O  O2  1  0.69413100  0.53668500  0.99398100  1
  O  O3  1  0.80586900  0.46331500  0.49398100  1
  O  O4  1  0.02400200  0.52178500  0.39820900  1
  O  O5  1  0.47599800  0.47821500  0.89820900  1
  O  O6  1  0.97599800  0.02178500  0.10179100  1
  O  O7  1  0.52400200  0.97821500  0.60179100  1
  O  O8  1  0.09640400  0.15218400  0.01091900  1
  O  O9  1  0.40359600  0.84781600  0.51091900  1
  O  O10  1  0.90359600  0.65218400  0.48908100  1
  O  O11  1  0.59640400  0.34781600  0.98908100  1
  O  O12  1  0.40495300  0.36956900  0.27909700  1
  O  O13  1  0.09504700  0.63043100  0.77909700  1
  O  O14  1  0.59504700  0.86956900  0.22090300  1
  O  O15  1  0.90495300  0.13043100  0.72090300  1
  O  O16  1  0.41650000  0.32720300  0.41373000  1
  O  O17  1  0.08350000  0.67279700  0.91373000  1
  O  O18  1  0.58350000  0.82720300  0.08627000  1
  O  O19  1  0.91650000  0.17279700  0.58627000  1
  O  O20  1  0.19241100  0.18273700  0.66286000  1
  O  O21  1  0.30758900  0.81726300  0.16286000  1
  O  O22  1  0.80758900  0.68273700  0.83714000  1
  O  O23  1  0.69241100  0.31726300  0.33714000  1
loop_
_geom_bond_atom_site_label_1
_geom_bond_atom_site_label_2
_geom_bond_distance
_geom_bond_site_symmetry_2
Co0 N4 1.623708 1_555
Co0 N12 1.629326 1_555
Co0 N16 1.643686 1_555
Co0 N0 1.657292 1_555
Co1 N5 1.623708 1_455
Co1 N13 1.629326 1_555
Co1 N17 1.643686 1_455
Co1 N1 1.657292 1_555
Co2 N6 1.623708 1_555
Co2 N14 1.629326 1_555
Co2 N18 1.643686 1_555
Co2 N2 1.657292 1_555
Co3 N7 1.623708 1_655
Co3 N15 1.629326 1_555
Co3 N19 1.643686 1_655
Co3 N3 1.657292 1_555
O0 S1 1.436426 1_545
O1 S0 1.436426 1_565
O2 S3 1.436426 1_555
O3 S2 1.436426 1_555
O4 S2 1.434244 1_455
O5 S3 1.434244 1_555
O6 S0 1.434244 1_655
O7 S1 1.434244 1_555
O8 S0 1.436510 1_555
O9 S1 1.436510 1_555
O10 S2 1.436510 1_555
O11 S3 1.436510 1_555
O12 S7 1.435784 1_555
O13 S6 1.435784 1_455
O14 S5 1.435784 1_555
O15 S4 1.435784 1_655
O16 S7 1.435743 1_555
O17 S6 1.435743 1_455
O18 S5 1.435743 1_555
O19 S4 1.435743 1_655
O20 S4 1.435806 1_555
O21 S5 1.435806 1_555
O22 S6 1.435806 1_555
O23 S7 1.435806 1_555
