# generated using pymatgen
data_Ba3(NbN2)2
_symmetry_space_group_name_H-M   'P 1'
_cell_length_a   10.05631680
_cell_length_b   8.64662876
_cell_length_c   6.24882460
_cell_angle_alpha   89.99999898
_cell_angle_beta   70.90294205
_cell_angle_gamma   115.46187384
_symmetry_Int_Tables_number   1
_chemical_formula_structural   Ba3(NbN2)2
_chemical_formula_sum   'Ba6 Nb4 N8'
_cell_volume   457.23852158
_cell_formula_units_Z   2
loop_
 _symmetry_equiv_pos_site_id
 _symmetry_equiv_pos_as_xyz
  1  'x, y, z'
loop_
 _atom_site_type_symbol
 _atom_site_label
 _atom_site_symmetry_multiplicity
 _atom_site_fract_x
 _atom_site_fract_y
 _atom_site_fract_z
 _atom_site_occupancy
  Ba  Ba0  1  0.27780800  0.98402500  0.08843300  1
  Ba  Ba1  1  0.72219200  0.70621700  0.41156700  1
  Ba  Ba2  1  0.72219200  0.01597500  0.91156700  1
  Ba  Ba3  1  0.27780800  0.29378300  0.58843300  1
  Ba  Ba4  1  0.00000000  0.71967600  0.75000000  1
  Ba  Ba5  1  0.00000000  0.28032400  0.25000000  1
  Nb  Nb0  1  0.57103600  0.17753300  0.52377100  1
  Nb  Nb1  1  0.42896400  0.60649600  0.97622900  1
  Nb  Nb2  1  0.42896400  0.82246700  0.47622900  1
  Nb  Nb3  1  0.57103600  0.39350400  0.02377100  1
  N  N0  1  0.33869200  0.98814900  0.61359900  1
  N  N1  1  0.66130800  0.64945700  0.88640100  1
  N  N2  1  0.66130800  0.01185100  0.38640100  1
  N  N3  1  0.33869200  0.35054300  0.11359900  1
  N  N4  1  0.59609800  0.22279500  0.82050900  1
  N  N5  1  0.40390200  0.62669700  0.67949100  1
  N  N6  1  0.40390200  0.77720500  0.17949100  1
  N  N7  1  0.59609800  0.37330300  0.32050900  1
loop_
_geom_bond_atom_site_label_1
_geom_bond_atom_site_label_2
_geom_bond_distance
_geom_bond_site_symmetry_2
Ba0 N6 2.748013 1_555
Ba0 N0 2.823587 1_554
Ba0 N4 2.849949 1_564
Ba0 N3 2.972830 1_565
Ba1 N7 2.748013 1_555
Ba1 N1 2.823587 1_555
Ba1 N5 2.849949 1_555
Ba1 N2 2.972830 1_565
Ba2 N4 2.748013 1_555
Ba2 N2 2.823587 1_556
Ba2 N6 2.849949 1_546
Ba2 N1 2.972830 1_545
Ba3 N5 2.748013 1_555
Ba3 N3 2.823587 1_555
Ba3 N7 2.849949 1_555
Ba3 N0 2.972830 1_545
Ba4 N0 3.003038 1_555
Ba4 N1 3.003038 1_455
Ba5 N2 3.003038 1_455
Ba5 N3 3.003038 1_555
N0 Nb2 2.054649 1_555
N0 Nb0 2.075563 1_565
N1 Nb3 2.054641 1_556
N1 Nb1 2.075560 1_555
N2 Nb0 2.054649 1_555
N2 Nb2 2.075563 1_545
N3 Nb1 2.054641 1_554
N3 Nb3 2.075560 1_555
N4 Nb0 1.968747 1_555
N4 Nb3 1.991467 1_556
N5 Nb1 1.968748 1_555
N5 Nb2 1.991460 1_555
N6 Nb2 1.968747 1_555
N6 Nb1 1.991467 1_554
N7 Nb3 1.968748 1_555
N7 Nb0 1.991460 1_555
