# generated using pymatgen
data_P3Pb5O12
_symmetry_space_group_name_H-M   'P 1'
_cell_length_a   9.95804617
_cell_length_b   9.95804617
_cell_length_c   7.41161300
_cell_angle_alpha   90.00000000
_cell_angle_beta   90.00000000
_cell_angle_gamma   120.00000110
_symmetry_Int_Tables_number   1
_chemical_formula_structural   P3Pb5O12
_chemical_formula_sum   'P6 Pb10 O24'
_cell_volume   636.49006921
_cell_formula_units_Z   2
loop_
 _symmetry_equiv_pos_site_id
 _symmetry_equiv_pos_as_xyz
  1  'x, y, z'
loop_
 _atom_site_type_symbol
 _atom_site_label
 _atom_site_symmetry_multiplicity
 _atom_site_fract_x
 _atom_site_fract_y
 _atom_site_fract_z
 _atom_site_occupancy
  P  P0  1  0.39957900  0.02531000  0.75000000  1
  P  P1  1  0.60042100  0.97469000  0.25000000  1
  P  P2  1  0.97469000  0.37426900  0.75000000  1
  P  P3  1  0.02531000  0.62573100  0.25000000  1
  P  P4  1  0.62573100  0.60042100  0.75000000  1
  P  P5  1  0.37426900  0.39957900  0.25000000  1
  Pb  Pb0  1  0.24089600  0.23866500  0.75000000  1
  Pb  Pb1  1  0.75910400  0.76133500  0.25000000  1
  Pb  Pb2  1  0.76133500  0.00223100  0.75000000  1
  Pb  Pb3  1  0.23866500  0.99776900  0.25000000  1
  Pb  Pb4  1  0.99776900  0.75910400  0.75000000  1
  Pb  Pb5  1  0.00223100  0.24089600  0.25000000  1
  Pb  Pb6  1  0.33333300  0.66666700  0.50080900  1
  Pb  Pb7  1  0.66666700  0.33333300  0.49919100  1
  Pb  Pb8  1  0.66666700  0.33333300  0.00080900  1
  Pb  Pb9  1  0.33333300  0.66666700  0.99919100  1
  O  O0  1  0.34854400  0.08196000  0.58060200  1
  O  O1  1  0.65145600  0.91804000  0.41939800  1
  O  O2  1  0.91804000  0.26658400  0.58060200  1
  O  O3  1  0.65145600  0.91804000  0.08060200  1
  O  O4  1  0.08196000  0.73341600  0.41939800  1
  O  O5  1  0.34854400  0.08196000  0.91939800  1
  O  O6  1  0.73341600  0.65145600  0.58060200  1
  O  O7  1  0.08196000  0.73341600  0.08060200  1
  O  O8  1  0.26658400  0.34854400  0.41939800  1
  O  O9  1  0.91804000  0.26658400  0.91939800  1
  O  O10  1  0.26658400  0.34854400  0.08060200  1
  O  O11  1  0.73341600  0.65145600  0.91939800  1
  O  O12  1  0.15385500  0.48042900  0.75000000  1
  O  O13  1  0.84614500  0.51957100  0.25000000  1
  O  O14  1  0.51957100  0.67342600  0.75000000  1
  O  O15  1  0.48042900  0.32657400  0.25000000  1
  O  O16  1  0.32657400  0.84614500  0.75000000  1
  O  O17  1  0.67342600  0.15385500  0.25000000  1
  O  O18  1  0.58085400  0.10804500  0.75000000  1
  O  O19  1  0.41914600  0.89195500  0.25000000  1
  O  O20  1  0.89195500  0.47280800  0.75000000  1
  O  O21  1  0.10804500  0.52719200  0.25000000  1
  O  O22  1  0.52719200  0.41914600  0.75000000  1
  O  O23  1  0.47280800  0.58085400  0.25000000  1
loop_
_geom_bond_atom_site_label_1
_geom_bond_atom_site_label_2
_geom_bond_distance
_geom_bond_site_symmetry_2
O0 P0 1.561895 1_555
O0 Pb0 2.614053 1_555
O0 Pb3 2.643239 1_545
O1 P1 1.561895 1_555
O1 Pb1 2.614053 1_555
O1 Pb2 2.643239 1_565
O2 P2 1.561895 1_555
O2 Pb2 2.614053 1_555
O2 Pb5 2.643239 1_655
O3 P1 1.561895 1_555
O3 Pb1 2.614053 1_555
O3 Pb2 2.643239 1_564
O4 P3 1.561895 1_555
O4 Pb3 2.614053 1_555
O4 Pb4 2.643239 1_455
O5 P0 1.561895 1_555
O5 Pb0 2.614053 1_555
O5 Pb3 2.643239 1_546
O6 P4 1.561895 1_555
O6 Pb4 2.614053 1_555
O6 Pb1 2.643239 1_555
O7 P3 1.561895 1_555
O7 Pb3 2.614053 1_555
O7 Pb4 2.643239 1_454
O8 P5 1.561895 1_555
O8 Pb5 2.614053 1_555
O8 Pb0 2.643239 1_555
O9 P2 1.561895 1_555
O9 Pb2 2.614053 1_555
O9 Pb5 2.643239 1_656
O10 P5 1.561895 1_555
O10 Pb5 2.614053 1_555
O10 Pb0 2.643239 1_554
O11 P4 1.561895 1_555
O11 Pb4 2.614053 1_555
O11 Pb1 2.643239 1_556
O12 P2 1.553898 1_455
O12 Pb6 2.594258 1_555
O12 Pb9 2.594258 1_555
O13 P3 1.553898 1_655
O13 Pb8 2.594258 1_555
O13 Pb7 2.594258 1_555
O14 P4 1.553898 1_555
O14 Pb9 2.594261 1_555
O14 Pb6 2.594261 1_555
O15 P5 1.553898 1_555
O15 Pb8 2.594261 1_555
O15 Pb7 2.594261 1_555
O16 P0 1.553898 1_565
O16 Pb6 2.594254 1_555
O16 Pb9 2.594254 1_555
O17 P1 1.553898 1_545
O17 Pb8 2.594254 1_555
O17 Pb7 2.594254 1_555
O18 P0 1.565281 1_555
O18 Pb2 2.496818 1_555
O18 Pb7 2.702151 1_555
O18 Pb8 2.702151 1_556
O19 P1 1.565281 1_555
O19 Pb3 2.496818 1_555
O19 Pb9 2.702151 1_554
O19 Pb6 2.702151 1_555
O20 P2 1.565272 1_555
O20 Pb4 2.496827 1_555
O20 Pb7 2.702151 1_555
O20 Pb8 2.702151 1_556
O21 P3 1.565272 1_555
O21 Pb5 2.496827 1_555
O21 Pb6 2.702151 1_555
O21 Pb9 2.702151 1_554
O22 P4 1.565280 1_555
O22 Pb0 2.496826 1_555
O22 Pb7 2.702151 1_555
O22 Pb8 2.702151 1_556
O23 P5 1.565280 1_555
O23 Pb1 2.496826 1_555
O23 Pb6 2.702151 1_555
O23 Pb9 2.702151 1_554
