# generated using pymatgen
data_Mg2Nb2TeO8
_symmetry_space_group_name_H-M   'P 1'
_cell_length_a   5.21450000
_cell_length_b   6.16744105
_cell_length_c   11.42600899
_cell_angle_alpha   101.95547903
_cell_angle_beta   96.17732964
_cell_angle_gamma   89.79350981
_symmetry_Int_Tables_number   1
_chemical_formula_structural   Mg2Nb2TeO8
_chemical_formula_sum   'Mg4 Nb4 Te2 O16'
_cell_volume   357.33785704
_cell_formula_units_Z   2
loop_
 _symmetry_equiv_pos_site_id
 _symmetry_equiv_pos_as_xyz
  1  'x, y, z'
loop_
 _atom_site_type_symbol
 _atom_site_label
 _atom_site_symmetry_multiplicity
 _atom_site_fract_x
 _atom_site_fract_y
 _atom_site_fract_z
 _atom_site_occupancy
  Mg  Mg0  1  0.75908900  0.39821100  0.53278500  1
  Mg  Mg1  1  0.74873000  0.87584200  0.45498900  1
  Mg  Mg2  1  0.24091100  0.60178900  0.46721500  1
  Mg  Mg3  1  0.25127000  0.12415800  0.54501100  1
  Nb  Nb0  1  0.70017800  0.33564000  0.26032900  1
  Nb  Nb1  1  0.77986700  0.97545700  0.71996700  1
  Nb  Nb2  1  0.29982200  0.66436000  0.73967100  1
  Nb  Nb3  1  0.22013300  0.02454300  0.28003300  1
  Te  Te0  1  0.82465000  0.66105600  0.02022900  1
  Te  Te1  1  0.17535000  0.33894400  0.97977100  1
  O  O0  1  0.00915600  0.23906900  0.19059700  1
  O  O1  1  0.48590000  0.96016700  0.80690400  1
  O  O2  1  0.99084400  0.76093100  0.80940300  1
  O  O3  1  0.51410000  0.03983300  0.19309600  1
  O  O4  1  0.54228300  0.49151800  0.15079600  1
  O  O5  1  0.96341600  0.22430900  0.82661300  1
  O  O6  1  0.45771700  0.50848200  0.84920400  1
  O  O7  1  0.03658400  0.77569100  0.17338700  1
  O  O8  1  0.42680300  0.31954200  0.38927800  1
  O  O9  1  0.05671800  0.88331500  0.60125900  1
  O  O10  1  0.36706900  0.85877500  0.40101100  1
  O  O11  1  0.13901700  0.43415800  0.60450500  1
  O  O12  1  0.63293100  0.14122500  0.59898900  1
  O  O13  1  0.86098300  0.56584200  0.39549500  1
  O  O14  1  0.94328200  0.11668500  0.39874100  1
  O  O15  1  0.57319700  0.68045800  0.61072200  1
loop_
_geom_bond_atom_site_label_1
_geom_bond_atom_site_label_2
_geom_bond_distance
_geom_bond_site_symmetry_2
Mg0 O12 2.031838 1_555
Mg0 O11 2.055258 1_655
Mg0 O15 2.072239 1_555
Mg0 O13 2.160359 1_555
Mg0 O8 2.234130 1_555
Mg0 O14 2.342180 1_555
Mg1 O13 1.999805 1_555
Mg1 O10 2.015614 1_555
Mg1 O14 2.048244 1_565
Mg1 O9 2.183009 1_655
Mg1 O12 2.200375 1_565
Mg1 O15 2.589014 1_555
Mg2 O10 2.031838 1_555
Mg2 O13 2.055258 1_455
Mg2 O8 2.072239 1_555
Mg2 O11 2.160359 1_555
Mg2 O15 2.234130 1_555
Mg2 O9 2.342180 1_555
Mg3 O11 1.999805 1_555
Mg3 O12 2.015614 1_555
Mg3 O9 2.048244 1_545
Mg3 O14 2.183009 1_455
Mg3 O10 2.200375 1_545
Mg3 O8 2.589014 1_555
Nb0 O4 1.854576 1_555
Nb0 O0 1.912632 1_655
Nb0 O13 1.981278 1_555
Nb0 O3 2.032649 1_555
Nb0 O8 2.174031 1_555
Nb0 O14 2.524415 1_555
Nb1 O1 1.926896 1_555
Nb1 O5 1.934224 1_565
Nb1 O12 1.973562 1_565
Nb1 O2 2.076735 1_555
Nb1 O9 2.083962 1_655
Nb1 O15 2.193946 1_555
Nb2 O6 1.854576 1_555
Nb2 O2 1.912632 1_455
Nb2 O11 1.981278 1_555
Nb2 O1 2.032649 1_555
Nb2 O15 2.174031 1_555
Nb2 O9 2.524415 1_555
Nb3 O3 1.926896 1_555
Nb3 O7 1.934224 1_545
Nb3 O10 1.973562 1_545
Nb3 O0 2.076735 1_555
Nb3 O14 2.083962 1_455
Nb3 O8 2.193946 1_555
O4 Te0 2.572361 1_555
O4 Te1 2.609898 1_554
O5 Te1 1.964800 1_655
O6 Te1 2.572361 1_555
O6 Te0 2.609898 1_556
O7 Te0 1.964800 1_455
