# generated using pymatgen
data_Mg2TiFe3S8
_symmetry_space_group_name_H-M   'P 1'
_cell_length_a   7.14252824
_cell_length_b   6.96344466
_cell_length_c   7.13538936
_cell_angle_alpha   59.18336092
_cell_angle_beta   59.86244039
_cell_angle_gamma   59.14501130
_symmetry_Int_Tables_number   1
_chemical_formula_structural   Mg2TiFe3S8
_chemical_formula_sum   'Mg2 Ti1 Fe3 S8'
_cell_volume   247.47607487
_cell_formula_units_Z   1
loop_
 _symmetry_equiv_pos_site_id
 _symmetry_equiv_pos_as_xyz
  1  'x, y, z'
loop_
 _atom_site_type_symbol
 _atom_site_label
 _atom_site_symmetry_multiplicity
 _atom_site_fract_x
 _atom_site_fract_y
 _atom_site_fract_z
 _atom_site_occupancy
  Mg  Mg0  1  0.87431100  0.87698300  0.87375400  1
  Mg  Mg1  1  0.12572300  0.12300800  0.12622200  1
  Ti  Ti0  1  0.50000100  0.00000000  0.49999800  1
  Fe  Fe0  1  0.50005500  0.50001900  0.49993700  1
  Fe  Fe1  1  0.50003900  0.49998400  0.00001900  1
  Fe  Fe2  1  0.99992600  0.50001700  0.50002700  1
  S  S0  1  0.74471900  0.71934800  0.74479600  1
  S  S1  1  0.25442600  0.28123900  0.70927600  1
  S  S2  1  0.26955100  0.69215000  0.26947800  1
  S  S3  1  0.70912400  0.28132000  0.25446100  1
  S  S4  1  0.73038200  0.30778300  0.73059400  1
  S  S5  1  0.29092400  0.71863700  0.74553900  1
  S  S6  1  0.25524700  0.28067900  0.25522700  1
  S  S7  1  0.74557700  0.71882700  0.29067200  1
loop_
_geom_bond_atom_site_label_1
_geom_bond_atom_site_label_2
_geom_bond_distance
_geom_bond_site_symmetry_2
Mg0 S0 2.416752 1_555
Mg0 S5 2.416980 1_655
Mg0 S7 2.417308 1_556
Mg0 S4 2.418870 1_565
Mg1 S6 2.416842 1_555
Mg1 S3 2.416894 1_455
Mg1 S1 2.417481 1_554
Mg1 S2 2.419195 1_545
Fe0 S3 2.321862 1_555
Fe0 S5 2.322118 1_555
Fe0 S7 2.325230 1_555
Fe0 S1 2.325640 1_555
Fe0 S2 2.325878 1_555
Fe0 S4 2.325883 1_555
Fe1 S4 2.322815 1_554
Fe1 S2 2.322843 1_555
Fe1 S0 2.322978 1_554
Fe1 S6 2.323263 1_555
Fe1 S3 2.324359 1_555
Fe1 S5 2.324722 1_554
Fe2 S0 2.320827 1_555
Fe2 S6 2.321069 1_655
Fe2 S7 2.325349 1_555
Fe2 S1 2.325666 1_655
Fe2 S2 2.326267 1_655
Fe2 S4 2.326271 1_555
S0 Ti0 2.447435 1_565
S1 Ti0 2.446326 1_555
S3 Ti0 2.448496 1_555
S5 Ti0 2.448503 1_565
S6 Ti0 2.447490 1_555
S7 Ti0 2.446210 1_565
