# generated using pymatgen
data_Na6Ga5Si7H15O32
_symmetry_space_group_name_H-M   'P 1'
_cell_length_a   8.88151400
_cell_length_b   9.29193282
_cell_length_c   9.34373581
_cell_angle_alpha   90.57890416
_cell_angle_beta   91.12555790
_cell_angle_gamma   90.87632926
_symmetry_Int_Tables_number   1
_chemical_formula_structural   Na6Ga5Si7H15O32
_chemical_formula_sum   'Na6 Ga5 Si7 H15 O32'
_cell_volume   770.82446563
_cell_formula_units_Z   1
loop_
 _symmetry_equiv_pos_site_id
 _symmetry_equiv_pos_as_xyz
  1  'x, y, z'
loop_
 _atom_site_type_symbol
 _atom_site_label
 _atom_site_symmetry_multiplicity
 _atom_site_fract_x
 _atom_site_fract_y
 _atom_site_fract_z
 _atom_site_occupancy
  Na  Na0  1  0.35127500  0.38033800  0.37596700  1
  Na  Na1  1  0.34833000  0.63961500  0.61920700  1
  Na  Na2  1  0.62498700  0.65549800  0.34492200  1
  Na  Na3  1  0.59430400  0.31297000  0.66516600  1
  Na  Na4  1  0.88181800  0.15940000  0.14517400  1
  Na  Na5  1  0.02601100  0.95504400  0.94655600  1
  Ga  Ga0  1  0.03454800  0.26067200  0.50739100  1
  Ga  Ga1  1  0.35359200  0.96626200  0.80128000  1
  Ga  Ga2  1  0.45906600  0.00405300  0.23302900  1
  Ga  Ga3  1  0.75245500  0.49761000  0.00129700  1
  Ga  Ga4  1  0.76563000  0.99688000  0.49581000  1
  Si  Si0  1  0.00099400  0.50187600  0.74563100  1
  Si  Si1  1  0.24840200  0.49333800  0.99610500  1
  Si  Si2  1  0.25119200  0.99160800  0.50092000  1
  Si  Si3  1  0.48167000  0.24597300  0.99511200  1
  Si  Si4  1  0.49289500  0.73750400  0.00723000  1
  Si  Si5  1  0.02057000  0.49815100  0.25006600  1
  Si  Si6  1  0.01096300  0.73594200  0.49355900  1
  H  H0  1  0.17124700  0.11962400  0.18989700  1
  H  H1  1  0.33266300  0.68182400  0.31521600  1
  H  H2  1  0.32113600  0.32454500  0.68364600  1
  H  H3  1  0.60119200  0.27879600  0.26888700  1
  H  H4  1  0.58232700  0.77950500  0.78196600  1
  H  H5  1  0.78092300  0.22925800  0.39671500  1
  H  H6  1  0.72275600  0.72947500  0.61253100  1
  H  H7  1  0.73125300  0.39287700  0.28030900  1
  H  H8  1  0.72152900  0.61497700  0.72976700  1
  H  H9  1  0.78140200  0.78502200  0.09679000  1
  H  H10  1  0.76793800  0.21507100  0.89740700  1
  H  H11  1  0.71901200  0.91881600  0.25650000  1
  H  H12  1  0.74041200  0.07289900  0.73364700  1
  H  H13  1  0.93198500  0.82458600  0.18347400  1
  H  H14  1  0.92243000  0.20622800  0.82164300  1
  O  O0  1  0.08436600  0.37693200  0.35703100  1
  O  O1  1  0.04507800  0.62487100  0.62581900  1
  O  O2  1  0.11156800  0.11173800  0.10246000  1
  O  O3  1  0.20323100  0.85137800  0.83744000  1
  O  O4  1  0.14388400  0.54302500  0.13019800  1
  O  O5  1  0.14114600  0.46624400  0.85461600  1
  O  O6  1  0.14765100  0.84491400  0.45728100  1
  O  O7  1  0.13739700  0.10853800  0.57193500  1
  O  O8  1  0.32007100  0.06467300  0.35579700  1
  O  O9  1  0.38903600  0.94591700  0.60473300  1
  O  O10  1  0.34766000  0.35503200  0.04392200  1
  O  O11  1  0.37394100  0.61383500  0.95525300  1
  O  O12  1  0.38816200  0.61728900  0.37709300  1
  O  O13  1  0.36416800  0.39011700  0.61469700  1
  O  O14  1  0.43025800  0.84339900  0.12689400  1
  O  O15  1  0.43622000  0.14134400  0.86364300  1
  O  O16  1  0.54062800  0.16440000  0.14284900  1
  O  O17  1  0.54154500  0.83563600  0.86574600  1
  O  O18  1  0.65323500  0.34543300  0.34139300  1
  O  O19  1  0.65031800  0.66477600  0.66271300  1
  O  O20  1  0.64922900  0.65796400  0.06709400  1
  O  O21  1  0.63356700  0.34061600  0.94268500  1
  O  O22  1  0.64456800  0.94034400  0.33321900  1
  O  O23  1  0.67844600  0.08023600  0.64544100  1
  O  O24  1  0.85633200  0.82334400  0.52853600  1
  O  O25  1  0.86516400  0.15788000  0.40937100  1
  O  O26  1  0.86366500  0.44224900  0.16459300  1
  O  O27  1  0.85718600  0.55466300  0.84139200  1
  O  O28  1  0.84794900  0.86795600  0.13061200  1
  O  O29  1  0.85382900  0.14898200  0.88104500  1
  O  O30  1  0.97082700  0.64262600  0.34357300  1
  O  O31  1  0.94796900  0.35440900  0.66011000  1
loop_
_geom_bond_atom_site_label_1
_geom_bond_atom_site_label_2
_geom_bond_distance
_geom_bond_site_symmetry_2
Na0 O12 2.220901 1_555
Na0 O13 2.232181 1_555
Na0 O0 2.373385 1_555
Na1 O12 2.304379 1_555
Na1 O13 2.324736 1_555
Na1 O1 2.696678 1_555
Na1 O19 2.711031 1_555
Na1 O9 2.868400 1_555
Na2 O12 2.155158 1_555
Na2 O20 2.609378 1_555
Na3 O13 2.219861 1_555
Na3 O23 2.305612 1_555
Na3 O21 2.619131 1_555
Na4 O2 2.138982 1_655
Na4 O26 2.640246 1_555
Na5 O3 2.129400 1_555
Na5 O2 2.167759 1_566
Na5 O29 2.455703 1_465
Na5 O28 2.491844 1_456
Ga0 O7 1.797640 1_555
Ga0 O0 1.837677 1_555
Ga0 O31 1.850578 1_455
Ga0 O25 1.974469 1_455
Ga1 O3 1.737380 1_555
Ga1 O15 1.858027 1_565
Ga1 O9 1.877504 1_555
Ga1 O17 2.158679 1_555
Ga2 O8 1.794700 1_555
Ga2 O14 1.796043 1_545
Ga2 O16 1.863059 1_555
Ga2 O22 1.980312 1_545
Ga3 O27 1.853144 1_554
Ga3 O21 1.859278 1_554
Ga3 O20 1.866550 1_555
Ga3 O26 1.881606 1_555
Ga4 O23 1.786954 1_565
Ga4 O24 1.839178 1_555
Ga4 O22 1.908525 1_555
Ga4 O25 1.919331 1_565
H0 O2 0.966629 1_555
H1 O12 0.970399 1_555
H2 O13 0.970996 1_555
H3 O18 1.013154 1_555
H3 O16 1.654825 1_555
H4 O17 1.012272 1_555
H5 O25 1.013382 1_555
H6 O19 1.000449 1_555
H6 O24 1.674196 1_555
H7 O18 1.005742 1_555
H7 O26 1.675110 1_555
H8 O19 1.002953 1_555
H8 O27 1.684238 1_555
H9 O28 1.008393 1_555
H9 O20 1.669450 1_555
H10 O29 0.999714 1_555
H10 O21 1.736816 1_555
H11 O22 1.005385 1_555
H12 O23 0.985525 1_555
H13 O28 0.980903 1_555
H14 O29 0.985684 1_555
O0 Si5 1.615132 1_555
O1 Si6 1.644627 1_555
O1 Si0 1.655922 1_555
O4 Si5 1.634457 1_555
O4 Si1 1.640671 1_554
O5 Si1 1.629436 1_555
O5 Si0 1.632686 1_555
O6 Si6 1.612287 1_555
O6 Si2 1.674988 1_555
O7 Si2 1.639394 1_545
O8 Si2 1.646925 1_545
O9 Si2 1.611688 1_555
O10 Si1 1.630679 1_554
O10 Si3 1.643289 1_554
O11 Si4 1.613677 1_556
O11 Si1 1.621623 1_555
O14 Si4 1.595868 1_555
O15 Si3 1.600471 1_555
O16 Si3 1.661068 1_554
O17 Si4 1.673483 1_556
O20 Si4 1.672194 1_555
O21 Si3 1.682772 1_555
O24 Si6 1.642823 1_655
O26 Si5 1.665947 1_655
O27 Si0 1.651576 1_655
O30 Si5 1.664429 1_655
O30 Si6 1.670113 1_655
O31 Si0 1.637458 1_655
