# generated using pymatgen
data_BaZnGe
_symmetry_space_group_name_H-M   'P 1'
_cell_length_a   4.43410097
_cell_length_b   4.43410136
_cell_length_c   9.80786870
_cell_angle_alpha   90.00000000
_cell_angle_beta   90.00000000
_cell_angle_gamma   119.99998928
_symmetry_Int_Tables_number   1
_chemical_formula_structural   BaZnGe
_chemical_formula_sum   'Ba2 Zn2 Ge2'
_cell_volume   167.00001748
_cell_formula_units_Z   2
loop_
 _symmetry_equiv_pos_site_id
 _symmetry_equiv_pos_as_xyz
  1  'x, y, z'
loop_
 _atom_site_type_symbol
 _atom_site_label
 _atom_site_symmetry_multiplicity
 _atom_site_fract_x
 _atom_site_fract_y
 _atom_site_fract_z
 _atom_site_occupancy
  Ba  Ba0  1  0.00000000  0.00000000  0.50000000  1
  Ba  Ba1  1  0.00000000  0.00000000  0.00000000  1
  Zn  Zn0  1  0.66666700  0.33333300  0.25000000  1
  Zn  Zn1  1  0.33333300  0.66666700  0.75000000  1
  Ge  Ge0  1  0.33333300  0.66666700  0.25000000  1
  Ge  Ge1  1  0.66666700  0.33333300  0.75000000  1
loop_
_geom_bond_atom_site_label_1
_geom_bond_atom_site_label_2
_geom_bond_distance
_geom_bond_site_symmetry_2
Ba0 Ge1 3.544839 1_455
Ba0 Ge0 3.544839 1_545
Ba0 Zn1 3.544839 1_545
Ba0 Zn0 3.544839 1_455
Ba0 Ge0 3.544842 1_445
Ba0 Ge1 3.544842 1_555
Ba0 Zn0 3.544842 1_555
Ba0 Zn1 3.544842 1_445
Ba0 Ge0 3.544842 1_555
Ba0 Zn1 3.544842 1_555
Ba0 Ge1 3.544842 1_445
Ba0 Zn0 3.544842 1_445
Ba1 Ge1 3.544839 1_454
Ba1 Ge0 3.544839 1_545
Ba1 Zn1 3.544839 1_544
Ba1 Zn0 3.544839 1_455
Ba1 Ge0 3.544842 1_445
Ba1 Zn1 3.544842 1_444
Ba1 Ge1 3.544842 1_554
Ba1 Zn0 3.544842 1_555
Ba1 Ge0 3.544842 1_555
Ba1 Ge1 3.544842 1_444
Ba1 Zn0 3.544842 1_445
Ba1 Zn1 3.544842 1_554
Ge0 Zn0 2.560027 1_455
Ge0 Zn0 2.560027 1_565
Ge0 Zn0 2.560034 1_555
Ge1 Zn1 2.560027 1_655
Ge1 Zn1 2.560027 1_545
Ge1 Zn1 2.560034 1_555
