# generated using pymatgen
data_AlPO4
_symmetry_space_group_name_H-M   'P 1'
_cell_length_a   4.85190701
_cell_length_b   8.73709687
_cell_length_c   10.85471774
_cell_angle_alpha   89.77248519
_cell_angle_beta   90.00000000
_cell_angle_gamma   90.00000000
_symmetry_Int_Tables_number   1
_chemical_formula_structural   AlPO4
_chemical_formula_sum   'Al6 P6 O24'
_cell_volume   460.14502460
_cell_formula_units_Z   6
loop_
 _symmetry_equiv_pos_site_id
 _symmetry_equiv_pos_as_xyz
  1  'x, y, z'
loop_
 _atom_site_type_symbol
 _atom_site_label
 _atom_site_symmetry_multiplicity
 _atom_site_fract_x
 _atom_site_fract_y
 _atom_site_fract_z
 _atom_site_occupancy
  Al  Al0  1  0.46406783  0.75000000  0.50000000  1
  Al  Al1  1  0.53593217  0.25000000  0.50000000  1
  Al  Al2  1  0.74128069  0.51511661  0.83435915  1
  Al  Al3  1  0.74128069  0.98488339  0.16564085  1
  Al  Al4  1  0.25871931  0.48488339  0.16564085  1
  Al  Al5  1  0.25871931  0.01511661  0.83435915  1
  P  P0  1  0.03585828  0.75000000  0.00000000  1
  P  P1  1  0.96414172  0.25000000  0.00000000  1
  P  P2  1  0.76391270  0.51485436  0.33325220  1
  P  P3  1  0.76391270  0.98514564  0.66674780  1
  P  P4  1  0.23608730  0.48514564  0.66674780  1
  P  P5  1  0.23608730  0.01485436  0.33325220  1
  O  O0  1  0.06507666  0.52950276  0.29604841  1
  O  O1  1  0.06507666  0.97049724  0.70395159  1
  O  O2  1  0.93492334  0.47049724  0.70395159  1
  O  O3  1  0.93492334  0.02950276  0.29604841  1
  O  O4  1  0.59657573  0.47464559  0.21809947  1
  O  O5  1  0.59657573  0.02535441  0.78190053  1
  O  O6  1  0.40342427  0.52535441  0.78190053  1
  O  O7  1  0.40342427  0.97464559  0.21809947  1
  O  O8  1  0.85249452  0.68635143  0.89814729  1
  O  O9  1  0.85249452  0.81364857  0.10185271  1
  O  O10  1  0.14750548  0.31364857  0.10185271  1
  O  O11  1  0.14750548  0.18635143  0.89814729  1
  O  O12  1  0.66784573  0.66669830  0.38648461  1
  O  O13  1  0.66784573  0.83330170  0.61351539  1
  O  O14  1  0.33215427  0.33330170  0.61351539  1
  O  O15  1  0.33215427  0.16669830  0.38648461  1
  O  O16  1  0.77944066  0.37451583  0.94663686  1
  O  O17  1  0.77944066  0.12548417  0.05336314  1
  O  O18  1  0.22055934  0.62548417  0.05336314  1
  O  O19  1  0.22055934  0.87451583  0.94663686  1
  O  O20  1  0.73711479  0.38880429  0.42956056  1
  O  O21  1  0.73711479  0.11119571  0.57043944  1
  O  O22  1  0.26288521  0.61119571  0.57043944  1
  O  O23  1  0.26288521  0.88880429  0.42956056  1
loop_
_geom_bond_atom_site_label_1
_geom_bond_atom_site_label_2
_geom_bond_distance
_geom_bond_site_symmetry_2
Al0 O22 1.732285 1_555
Al0 O23 1.732285 1_555
Al0 O13 1.741450 1_555
Al0 O12 1.741450 1_555
Al1 O20 1.732285 1_555
Al1 O21 1.732285 1_555
Al1 O14 1.741450 1_555
Al1 O15 1.741450 1_555
Al2 O16 1.736892 1_555
Al2 O8 1.736985 1_555
Al2 O6 1.737519 1_555
Al2 O2 1.744372 1_555
Al3 O17 1.736892 1_565
Al3 O9 1.736985 1_555
Al3 O7 1.737519 1_555
Al3 O3 1.744372 1_565
Al4 O18 1.736892 1_555
Al4 O10 1.736985 1_555
Al4 O4 1.737519 1_555
Al4 O0 1.744372 1_555
Al5 O19 1.736892 1_545
Al5 O11 1.736985 1_555
Al5 O5 1.737519 1_555
Al5 O1 1.744372 1_545
O0 P2 1.521255 1_455
O1 P3 1.521255 1_455
O2 P4 1.521255 1_655
O3 P5 1.521255 1_655
O4 P2 1.532471 1_555
O5 P3 1.532471 1_545
O6 P4 1.532471 1_555
O7 P5 1.532471 1_565
O8 P0 1.525762 1_656
O9 P0 1.525762 1_655
O10 P1 1.525762 1_455
O11 P1 1.525762 1_456
O12 P2 1.522265 1_555
O13 P3 1.522265 1_555
O14 P4 1.522265 1_555
O15 P5 1.522265 1_555
O16 P1 1.522218 1_556
O17 P1 1.522218 1_555
O18 P0 1.522218 1_555
O19 P0 1.522218 1_556
O20 P2 1.521023 1_555
O21 P3 1.521023 1_545
O22 P4 1.521023 1_555
O23 P5 1.521023 1_565
