# generated using pymatgen
data_Cr3N2
_symmetry_space_group_name_H-M   'P 1'
_cell_length_a   4.77598900
_cell_length_b   5.17852200
_cell_length_c   7.41674200
_cell_angle_alpha   90.00000000
_cell_angle_beta   90.00000000
_cell_angle_gamma   90.00000000
_symmetry_Int_Tables_number   1
_chemical_formula_structural   Cr3N2
_chemical_formula_sum   'Cr12 N8'
_cell_volume   183.43504699
_cell_formula_units_Z   4
loop_
 _symmetry_equiv_pos_site_id
 _symmetry_equiv_pos_as_xyz
  1  'x, y, z'
loop_
 _atom_site_type_symbol
 _atom_site_label
 _atom_site_symmetry_multiplicity
 _atom_site_fract_x
 _atom_site_fract_y
 _atom_site_fract_z
 _atom_site_occupancy
  Cr  Cr0  1  0.38805500  0.60268100  0.83547700  1
  Cr  Cr1  1  0.11194500  0.10268100  0.66452300  1
  Cr  Cr2  1  0.11194500  0.39731900  0.33547700  1
  Cr  Cr3  1  0.38805500  0.89731900  0.16452300  1
  Cr  Cr4  1  0.61194500  0.39731900  0.16452300  1
  Cr  Cr5  1  0.88805500  0.89731900  0.33547700  1
  Cr  Cr6  1  0.88805500  0.60268100  0.66452300  1
  Cr  Cr7  1  0.61194500  0.10268100  0.83547700  1
  Cr  Cr8  1  0.93082600  0.75000000  0.00000000  1
  Cr  Cr9  1  0.56917400  0.25000000  0.50000000  1
  Cr  Cr10  1  0.06917400  0.25000000  0.00000000  1
  Cr  Cr11  1  0.43082600  0.75000000  0.50000000  1
  N  N0  1  0.25115400  0.54700200  0.10775200  1
  N  N1  1  0.24884600  0.04700200  0.39224800  1
  N  N2  1  0.24884600  0.45299800  0.60775200  1
  N  N3  1  0.25115400  0.95299800  0.89224800  1
  N  N4  1  0.74884600  0.45299800  0.89224800  1
  N  N5  1  0.75115400  0.95299800  0.60775200  1
  N  N6  1  0.75115400  0.54700200  0.39224800  1
  N  N7  1  0.74884600  0.04700200  0.10775200  1
loop_
_geom_bond_atom_site_label_1
_geom_bond_atom_site_label_2
_geom_bond_distance
_geom_bond_site_symmetry_2
Cr0 N4 1.935798 1_555
Cr0 N2 1.973708 1_555
Cr0 N3 1.973788 1_555
Cr0 N0 2.142100 1_556
Cr1 N5 1.935798 1_445
Cr1 N3 1.973708 1_545
Cr1 N2 1.973788 1_555
Cr1 N1 2.142100 1_555
Cr2 N6 1.935798 1_455
Cr2 N0 1.973708 1_555
Cr2 N1 1.973788 1_555
Cr2 N2 2.142100 1_555
Cr3 N7 1.935798 1_565
Cr3 N1 1.973708 1_565
Cr3 N0 1.973788 1_555
Cr3 N3 2.142100 1_554
Cr4 N0 1.935798 1_555
Cr4 N6 1.973708 1_555
Cr4 N7 1.973788 1_555
Cr4 N4 2.142100 1_554
Cr5 N1 1.935798 1_665
Cr5 N7 1.973708 1_565
Cr5 N6 1.973788 1_555
Cr5 N5 2.142100 1_555
Cr6 N2 1.935798 1_655
Cr6 N4 1.973708 1_555
Cr6 N5 1.973788 1_555
Cr6 N6 2.142100 1_555
Cr7 N3 1.935798 1_545
Cr7 N5 1.973708 1_545
Cr7 N4 1.973788 1_555
Cr7 N7 2.142100 1_556
Cr8 N7 1.938970 1_565
Cr8 N4 1.938970 1_554
Cr8 N0 2.020964 1_655
Cr8 N3 2.020964 1_654
Cr9 N5 1.938970 1_545
Cr9 N6 1.938970 1_555
Cr9 N2 2.020964 1_555
Cr9 N1 2.020964 1_555
Cr10 N0 1.938970 1_555
Cr10 N3 1.938970 1_544
Cr10 N4 2.020964 1_454
Cr10 N7 2.020964 1_455
Cr11 N1 1.938970 1_565
Cr11 N2 1.938970 1_555
Cr11 N5 2.020964 1_555
Cr11 N6 2.020964 1_555
