# generated using pymatgen
data_AlCuSnS4
_symmetry_space_group_name_H-M   'P 1'
_cell_length_a   7.26668078
_cell_length_b   7.26668078
_cell_length_c   7.26668078
_cell_angle_alpha   120.48247029
_cell_angle_beta   119.41434051
_cell_angle_gamma   90.09187288
_symmetry_Int_Tables_number   1
_chemical_formula_structural   AlCuSnS4
_chemical_formula_sum   'Al2 Cu2 Sn2 S8'
_cell_volume   271.50893178
_cell_formula_units_Z   2
loop_
 _symmetry_equiv_pos_site_id
 _symmetry_equiv_pos_as_xyz
  1  'x, y, z'
loop_
 _atom_site_type_symbol
 _atom_site_label
 _atom_site_symmetry_multiplicity
 _atom_site_fract_x
 _atom_site_fract_y
 _atom_site_fract_z
 _atom_site_occupancy
  Al  Al0  1  0.00000000  0.00000000  0.50000000  1
  Al  Al1  1  0.00000000  0.50000000  0.00000000  1
  Cu  Cu0  1  0.37981400  0.62981400  0.75000000  1
  Cu  Cu1  1  0.62018600  0.37018600  0.25000000  1
  Sn  Sn0  1  0.00000000  0.00000000  0.00000000  1
  Sn  Sn1  1  0.50000000  0.00000000  0.50000000  1
  S  S0  1  0.23827000  0.73767900  0.99940900  1
  S  S1  1  0.23827000  0.23886100  0.50059100  1
  S  S2  1  0.22781700  0.74940700  0.47841000  1
  S  S3  1  0.77099700  0.74940700  0.02159000  1
  S  S4  1  0.76173000  0.26232100  0.00059100  1
  S  S5  1  0.76173000  0.76113900  0.49940900  1
  S  S6  1  0.77218300  0.25059300  0.52159000  1
  S  S7  1  0.22900300  0.25059300  0.97841000  1
loop_
_geom_bond_atom_site_label_1
_geom_bond_atom_site_label_2
_geom_bond_distance
_geom_bond_site_symmetry_2
Al0 S5 2.446654 1_445
Al0 S1 2.446654 1_555
Al0 S3 2.460916 1_445
Al0 S7 2.460916 1_555
Al0 S6 2.460916 1_455
Al0 S2 2.460916 1_545
Al1 S4 2.446654 1_455
Al1 S0 2.446654 1_554
Al1 S7 2.460916 1_554
Al1 S3 2.460916 1_455
Al1 S6 2.460916 1_454
Al1 S2 2.460916 1_555
Cu0 S1 2.312871 1_555
Cu0 S0 2.312871 1_555
Cu0 S2 2.339261 1_555
Cu0 S3 2.339261 1_556
Cu1 S5 2.312871 1_555
Cu1 S4 2.312871 1_555
Cu1 S6 2.339261 1_555
Cu1 S7 2.339261 1_554
S0 Sn1 2.577027 1_566
S0 Sn0 2.577027 1_566
S1 Sn0 2.577027 1_555
S1 Sn1 2.577027 1_555
S2 Sn1 2.578051 1_565
S3 Sn0 2.578051 1_665
S4 Sn1 2.577027 1_554
S4 Sn0 2.577027 1_655
S5 Sn1 2.577027 1_565
S5 Sn0 2.577027 1_666
S6 Sn1 2.578051 1_555
S7 Sn0 2.578051 1_556
