# generated using pymatgen
data_Ca5(OsN2)2
_symmetry_space_group_name_H-M   'P 1'
_cell_length_a   8.29859000
_cell_length_b   8.29859000
_cell_length_c   12.21314900
_cell_angle_alpha   90.00000000
_cell_angle_beta   90.00000000
_cell_angle_gamma   90.00000000
_symmetry_Int_Tables_number   1
_chemical_formula_structural   Ca5(OsN2)2
_chemical_formula_sum   'Ca20 Os8 N16'
_cell_volume   841.07799793
_cell_formula_units_Z   4
loop_
 _symmetry_equiv_pos_site_id
 _symmetry_equiv_pos_as_xyz
  1  'x, y, z'
loop_
 _atom_site_type_symbol
 _atom_site_label
 _atom_site_symmetry_multiplicity
 _atom_site_fract_x
 _atom_site_fract_y
 _atom_site_fract_z
 _atom_site_occupancy
  Ca  Ca0  1  0.75000000  0.75000000  0.33298400  1
  Ca  Ca1  1  0.75000000  0.75000000  0.83298400  1
  Ca  Ca2  1  0.25000000  0.25000000  0.66701600  1
  Ca  Ca3  1  0.25000000  0.25000000  0.16701600  1
  Ca  Ca4  1  0.13215500  0.57224100  0.40123900  1
  Ca  Ca5  1  0.36784500  0.57224100  0.90123900  1
  Ca  Ca6  1  0.13215500  0.92775900  0.90123900  1
  Ca  Ca7  1  0.36784500  0.92775900  0.40123900  1
  Ca  Ca8  1  0.57224100  0.13215500  0.90123900  1
  Ca  Ca9  1  0.92775900  0.13215500  0.40123900  1
  Ca  Ca10  1  0.57224100  0.36784500  0.40123900  1
  Ca  Ca11  1  0.92775900  0.36784500  0.90123900  1
  Ca  Ca12  1  0.86784500  0.42775900  0.59876100  1
  Ca  Ca13  1  0.63215500  0.42775900  0.09876100  1
  Ca  Ca14  1  0.86784500  0.07224100  0.09876100  1
  Ca  Ca15  1  0.63215500  0.07224100  0.59876100  1
  Ca  Ca16  1  0.42775900  0.86784500  0.09876100  1
  Ca  Ca17  1  0.07224100  0.86784500  0.59876100  1
  Ca  Ca18  1  0.42775900  0.63215500  0.59876100  1
  Ca  Ca19  1  0.07224100  0.63215500  0.09876100  1
  Os  Os0  1  0.09541200  0.90458800  0.25000000  1
  Os  Os1  1  0.40458800  0.90458800  0.75000000  1
  Os  Os2  1  0.09541200  0.59541200  0.75000000  1
  Os  Os3  1  0.40458800  0.59541200  0.25000000  1
  Os  Os4  1  0.90458800  0.09541200  0.75000000  1
  Os  Os5  1  0.59541200  0.09541200  0.25000000  1
  Os  Os6  1  0.90458800  0.40458800  0.25000000  1
  Os  Os7  1  0.59541200  0.40458800  0.75000000  1
  N  N0  1  0.64128700  0.05378700  0.39726100  1
  N  N1  1  0.85871300  0.05378700  0.89726100  1
  N  N2  1  0.64128700  0.44621300  0.89726100  1
  N  N3  1  0.85871300  0.44621300  0.39726100  1
  N  N4  1  0.05378700  0.64128700  0.89726100  1
  N  N5  1  0.44621300  0.64128700  0.39726100  1
  N  N6  1  0.05378700  0.85871300  0.39726100  1
  N  N7  1  0.44621300  0.85871300  0.89726100  1
  N  N8  1  0.35871300  0.94621300  0.60273900  1
  N  N9  1  0.14128700  0.94621300  0.10273900  1
  N  N10  1  0.35871300  0.55378700  0.10273900  1
  N  N11  1  0.14128700  0.55378700  0.60273900  1
  N  N12  1  0.94621300  0.35871300  0.10273900  1
  N  N13  1  0.55378700  0.35871300  0.60273900  1
  N  N14  1  0.94621300  0.14128700  0.60273900  1
  N  N15  1  0.55378700  0.14128700  0.10273900  1
loop_
_geom_bond_atom_site_label_1
_geom_bond_atom_site_label_2
_geom_bond_distance
_geom_bond_site_symmetry_2
Ca0 N6 2.790273 1_655
Ca0 N0 2.790273 1_565
Ca0 N3 2.790273 1_555
Ca0 N5 2.790273 1_555
Ca1 N1 2.790273 1_565
Ca1 N4 2.790273 1_655
Ca1 N7 2.790273 1_555
Ca1 N2 2.790273 1_555
Ca2 N11 2.790273 1_555
Ca2 N8 2.790273 1_545
Ca2 N13 2.790273 1_555
Ca2 N14 2.790273 1_455
Ca3 N15 2.790273 1_555
Ca3 N12 2.790273 1_455
Ca3 N9 2.790273 1_545
Ca3 N10 2.790273 1_555
Ca4 N6 2.465143 1_555
Ca4 N11 2.466874 1_555
Ca4 N3 2.499073 1_455
Ca4 N5 2.668923 1_555
Ca5 N7 2.465143 1_555
Ca5 N10 2.466874 1_556
Ca5 N2 2.499073 1_555
Ca5 N4 2.668923 1_555
Ca6 N4 2.465143 1_555
Ca6 N9 2.466874 1_556
Ca6 N1 2.499073 1_465
Ca6 N7 2.668923 1_555
Ca7 N5 2.465143 1_555
Ca7 N8 2.466874 1_555
Ca7 N0 2.499073 1_565
Ca7 N6 2.668923 1_555
Ca8 N1 2.465143 1_555
Ca8 N15 2.466874 1_556
Ca8 N7 2.499073 1_545
Ca8 N2 2.668923 1_555
Ca9 N0 2.465143 1_555
Ca9 N14 2.466874 1_555
Ca9 N6 2.499073 1_645
Ca9 N3 2.668923 1_555
Ca10 N3 2.465143 1_555
Ca10 N13 2.466874 1_555
Ca10 N5 2.499073 1_555
Ca10 N0 2.668923 1_555
Ca11 N2 2.465143 1_555
Ca11 N12 2.466874 1_556
Ca11 N4 2.499073 1_655
Ca11 N1 2.668923 1_555
Ca12 N14 2.465143 1_555
Ca12 N3 2.466874 1_555
Ca12 N11 2.499073 1_655
Ca12 N13 2.668923 1_555
Ca13 N15 2.465143 1_555
Ca13 N2 2.466874 1_554
Ca13 N10 2.499073 1_555
Ca13 N12 2.668923 1_555
Ca14 N12 2.465143 1_555
Ca14 N1 2.466874 1_554
Ca14 N9 2.499073 1_645
Ca14 N15 2.668923 1_555
Ca15 N13 2.465143 1_555
Ca15 N0 2.466874 1_555
Ca15 N8 2.499073 1_545
Ca15 N14 2.668923 1_555
Ca16 N9 2.465143 1_555
Ca16 N7 2.466874 1_554
Ca16 N15 2.499073 1_565
Ca16 N10 2.668923 1_555
Ca17 N8 2.465143 1_555
Ca17 N6 2.466874 1_555
Ca17 N14 2.499073 1_465
Ca17 N11 2.668923 1_555
Ca18 N11 2.465143 1_555
Ca18 N5 2.466874 1_555
Ca18 N13 2.499073 1_555
Ca18 N8 2.668923 1_555
Ca19 N10 2.465143 1_555
Ca19 N4 2.466874 1_554
Ca19 N12 2.499073 1_455
Ca19 N9 2.668923 1_555
N0 Os5 1.870542 1_555
N1 Os4 1.870542 1_555
N2 Os7 1.870542 1_555
N3 Os6 1.870542 1_555
N4 Os2 1.870542 1_555
N5 Os3 1.870542 1_555
N6 Os0 1.870542 1_555
N7 Os1 1.870542 1_555
N8 Os1 1.870542 1_555
N9 Os0 1.870542 1_555
N10 Os3 1.870542 1_555
N11 Os2 1.870542 1_555
N12 Os6 1.870542 1_555
N13 Os7 1.870542 1_555
N14 Os4 1.870542 1_555
N15 Os5 1.870542 1_555
