# generated using pymatgen
data_BaV2(P2O7)2
_symmetry_space_group_name_H-M   'P 1'
_cell_length_a   7.59337531
_cell_length_b   7.59337531
_cell_length_c   9.94840188
_cell_angle_alpha   80.60776657
_cell_angle_beta   80.60776657
_cell_angle_gamma   89.41832445
_symmetry_Int_Tables_number   1
_chemical_formula_structural   BaV2(P2O7)2
_chemical_formula_sum   'Ba2 V4 P8 O28'
_cell_volume   558.26190887
_cell_formula_units_Z   2
loop_
 _symmetry_equiv_pos_site_id
 _symmetry_equiv_pos_as_xyz
  1  'x, y, z'
loop_
 _atom_site_type_symbol
 _atom_site_label
 _atom_site_symmetry_multiplicity
 _atom_site_fract_x
 _atom_site_fract_y
 _atom_site_fract_z
 _atom_site_occupancy
  Ba  Ba0  1  0.00000000  0.50000000  0.00000000  1
  Ba  Ba1  1  0.50000000  0.00000000  0.50000000  1
  V  V0  1  0.00000000  0.00000000  0.50000000  1
  V  V1  1  0.00000000  0.00000000  0.00000000  1
  V  V2  1  0.54475000  0.45525000  0.75000000  1
  V  V3  1  0.45525000  0.54475000  0.25000000  1
  P  P0  1  0.17885500  0.25944600  0.70271600  1
  P  P1  1  0.74055400  0.82114500  0.79728400  1
  P  P2  1  0.82114500  0.74055400  0.29728400  1
  P  P3  1  0.25944600  0.17885500  0.20271600  1
  P  P4  1  0.24904100  0.62433200  0.55470600  1
  P  P5  1  0.37566800  0.75095900  0.94529400  1
  P  P6  1  0.75095900  0.37566800  0.44529400  1
  P  P7  1  0.62433200  0.24904100  0.05470600  1
  O  O0  1  0.05560900  0.21456700  0.84191300  1
  O  O1  1  0.78543300  0.94439100  0.65808700  1
  O  O2  1  0.94439100  0.78543300  0.15808700  1
  O  O3  1  0.21456700  0.05560900  0.34191300  1
  O  O4  1  0.37878600  0.26001300  0.70849500  1
  O  O5  1  0.73998700  0.62121400  0.79150500  1
  O  O6  1  0.62121400  0.73998700  0.29150500  1
  O  O7  1  0.26001300  0.37878600  0.20849500  1
  O  O8  1  0.14467900  0.14656200  0.59603400  1
  O  O9  1  0.85343800  0.85532100  0.90396600  1
  O  O10  1  0.85532100  0.85343800  0.40396600  1
  O  O11  1  0.14656200  0.14467900  0.09603400  1
  O  O12  1  0.12634200  0.46590600  0.65330400  1
  O  O13  1  0.53409400  0.87365800  0.84669600  1
  O  O14  1  0.59151300  0.27069500  0.90603700  1
  O  O15  1  0.72930500  0.40848700  0.59396300  1
  O  O16  1  0.40848700  0.72930500  0.09396300  1
  O  O17  1  0.27069500  0.59151300  0.40603700  1
  O  O18  1  0.63376300  0.42780400  0.10866400  1
  O  O19  1  0.57219600  0.36623700  0.39133600  1
  O  O20  1  0.36623700  0.57219600  0.89133600  1
  O  O21  1  0.42780400  0.63376300  0.60866400  1
  O  O22  1  0.79378100  0.14605200  0.07651200  1
  O  O23  1  0.85394800  0.20621900  0.42348800  1
  O  O24  1  0.20621900  0.85394800  0.92348800  1
  O  O25  1  0.14605200  0.79378100  0.57651200  1
  O  O26  1  0.46590600  0.12634200  0.15330400  1
  O  O27  1  0.87365800  0.53409400  0.34669600  1
loop_
_geom_bond_atom_site_label_1
_geom_bond_atom_site_label_2
_geom_bond_distance
_geom_bond_site_symmetry_2
Ba0 O20 2.838891 1_554
Ba0 O18 2.838891 1_455
Ba0 O2 2.868199 1_455
Ba0 O0 2.868199 1_554
Ba0 O11 2.979213 1_555
Ba0 O9 2.979213 1_454
Ba0 O24 3.046909 1_554
Ba0 O22 3.046909 1_455
Ba0 O7 3.118369 1_555
Ba0 O5 3.118369 1_454
Ba1 O19 2.838891 1_555
Ba1 O21 2.838891 1_545
Ba1 O1 2.868199 1_545
Ba1 O3 2.868199 1_555
Ba1 O8 2.979213 1_555
Ba1 O10 2.979213 1_545
Ba1 O23 3.046909 1_555
Ba1 O25 3.046909 1_545
Ba1 O6 3.118369 1_545
Ba1 O4 3.118369 1_555
O0 P0 1.529399 1_555
O0 V1 2.065720 1_556
O1 P1 1.529399 1_555
O1 V0 2.065720 1_665
O2 P2 1.529399 1_555
O2 V1 2.065720 1_665
O3 P3 1.529399 1_555
O3 V0 2.065720 1_555
O4 P0 1.528662 1_555
O4 V2 2.089033 1_555
O5 P1 1.528662 1_555
O5 V2 2.089033 1_555
O6 P2 1.528662 1_555
O6 V3 2.089033 1_555
O7 P3 1.528662 1_555
O7 V3 2.089033 1_555
O8 P0 1.523092 1_555
O8 V0 2.018082 1_555
O9 P1 1.523092 1_555
O9 V1 2.018082 1_666
O10 P2 1.523092 1_555
O10 V0 2.018082 1_665
O11 P3 1.523092 1_555
O11 V1 2.018082 1_555
O12 P4 1.617633 1_555
O12 P0 1.630390 1_555
O13 P5 1.617633 1_555
O13 P1 1.630390 1_555
O14 P7 1.522081 1_556
O14 V2 1.989843 1_555
O15 P6 1.522081 1_555
O15 V2 1.989843 1_555
O16 P5 1.522081 1_554
O16 V3 1.989843 1_555
O17 P4 1.522081 1_555
O17 V3 1.989843 1_555
O18 P7 1.545378 1_555
O18 V3 2.089027 1_555
O19 P6 1.545378 1_555
O19 V3 2.089027 1_555
O20 P5 1.545378 1_555
O20 V2 2.089027 1_555
O21 P4 1.545378 1_555
O21 V2 2.089027 1_555
O22 P7 1.526273 1_555
O22 V1 2.027955 1_655
O23 P6 1.526273 1_555
O23 V0 2.027955 1_655
O24 P5 1.526273 1_555
O24 V1 2.027955 1_566
O25 P4 1.526273 1_555
O25 V0 2.027955 1_565
O26 P7 1.617633 1_555
O26 P3 1.630390 1_555
O27 P6 1.617633 1_555
O27 P2 1.630390 1_555
