# generated using pymatgen
data_Zn3Cr3(AsO4)4
_symmetry_space_group_name_H-M   'P 1'
_cell_length_a   5.25985600
_cell_length_b   8.80333600
_cell_length_c   16.06430719
_cell_angle_alpha   68.47746672
_cell_angle_beta   90.00000000
_cell_angle_gamma   90.00000000
_symmetry_Int_Tables_number   1
_chemical_formula_structural   Zn3Cr3(AsO4)4
_chemical_formula_sum   'Zn6 Cr6 As8 O32'
_cell_volume   691.98027748
_cell_formula_units_Z   2
loop_
 _symmetry_equiv_pos_site_id
 _symmetry_equiv_pos_as_xyz
  1  'x, y, z'
loop_
 _atom_site_type_symbol
 _atom_site_label
 _atom_site_symmetry_multiplicity
 _atom_site_fract_x
 _atom_site_fract_y
 _atom_site_fract_z
 _atom_site_occupancy
  Zn  Zn0  1  0.52614100  0.27432900  0.23095600  1
  Zn  Zn1  1  0.02614100  0.72567100  0.26904400  1
  Zn  Zn2  1  0.47385900  0.72567100  0.76904400  1
  Zn  Zn3  1  0.97385900  0.27432900  0.73095600  1
  Zn  Zn4  1  0.50000000  0.00000000  0.50000000  1
  Zn  Zn5  1  0.00000000  0.00000000  0.00000000  1
  Cr  Cr0  1  0.50846400  0.21048200  0.62117300  1
  Cr  Cr1  1  0.49153600  0.78951800  0.37882700  1
  Cr  Cr2  1  0.00846400  0.78951800  0.87882700  1
  Cr  Cr3  1  0.99153600  0.21048200  0.12117300  1
  Cr  Cr4  1  0.00000000  0.50000000  0.50000000  1
  Cr  Cr5  1  0.50000000  0.50000000  0.00000000  1
  As  As0  1  0.98468800  0.03628700  0.35050600  1
  As  As1  1  0.50158800  0.41553700  0.39584800  1
  As  As2  1  0.00158800  0.58446300  0.10415200  1
  As  As3  1  0.99841200  0.41553700  0.89584800  1
  As  As4  1  0.01531200  0.96371300  0.64949400  1
  As  As5  1  0.49841200  0.58446300  0.60415200  1
  As  As6  1  0.51531200  0.03628700  0.85050600  1
  As  As7  1  0.48468800  0.96371300  0.14949400  1
  O  O0  1  0.39241700  0.81404800  0.25178000  1
  O  O1  1  0.94335800  0.75768600  0.00990600  1
  O  O2  1  0.40628500  0.39642200  0.29988200  1
  O  O3  1  0.39244500  0.15331100  0.15394800  1
  O  O4  1  0.59371500  0.60357800  0.70011800  1
  O  O5  1  0.10758300  0.81404800  0.75178000  1
  O  O6  1  0.90628500  0.60357800  0.20011800  1
  O  O7  1  0.70031300  0.49849700  0.89154400  1
  O  O8  1  0.68299400  0.08328200  0.92719000  1
  O  O9  1  0.60758300  0.18595200  0.74822000  1
  O  O10  1  0.10755500  0.15331100  0.65394800  1
  O  O11  1  0.29968700  0.50150300  0.10845600  1
  O  O12  1  0.29875300  0.56351400  0.41128800  1
  O  O13  1  0.31700600  0.91671800  0.07281000  1
  O  O14  1  0.68898500  0.96870500  0.63705000  1
  O  O15  1  0.18898500  0.03129500  0.86295000  1
  O  O16  1  0.79875300  0.43648600  0.08871200  1
  O  O17  1  0.09371500  0.39642200  0.79988200  1
  O  O18  1  0.18299400  0.91671800  0.57281000  1
  O  O19  1  0.20031300  0.50150300  0.60845600  1
  O  O20  1  0.81101500  0.96870500  0.13705000  1
  O  O21  1  0.31101500  0.03129500  0.36295000  1
  O  O22  1  0.05664200  0.24231400  0.99009400  1
  O  O23  1  0.44335800  0.24231400  0.49009400  1
  O  O24  1  0.70124700  0.43648600  0.58871200  1
  O  O25  1  0.89241700  0.18595200  0.24822000  1
  O  O26  1  0.60755500  0.84668900  0.84605200  1
  O  O27  1  0.81700600  0.08328200  0.42719000  1
  O  O28  1  0.55664200  0.75768600  0.50990600  1
  O  O29  1  0.79968700  0.49849700  0.39154400  1
  O  O30  1  0.20124700  0.56351400  0.91128800  1
  O  O31  1  0.89244500  0.84668900  0.34605200  1
loop_
_geom_bond_atom_site_label_1
_geom_bond_atom_site_label_2
_geom_bond_distance
_geom_bond_site_symmetry_2
Cr0 O9 2.039712 1_555
Cr0 O23 2.048606 1_555
Cr0 O24 2.120698 1_555
Cr0 O10 2.186961 1_555
Cr0 O14 2.258005 1_545
Cr1 O0 2.039712 1_555
Cr1 O28 2.048606 1_555
Cr1 O12 2.120698 1_555
Cr1 O31 2.186961 1_555
Cr1 O21 2.258005 1_565
Cr2 O5 2.039712 1_555
Cr2 O1 2.048606 1_456
Cr2 O30 2.120698 1_555
Cr2 O26 2.186961 1_455
Cr2 O15 2.258005 1_565
Cr3 O25 2.039712 1_555
Cr3 O22 2.048606 1_654
Cr3 O16 2.120698 1_555
Cr3 O3 2.186961 1_655
Cr3 O20 2.258005 1_545
Cr4 O29 2.040271 1_455
Cr4 O19 2.040271 1_555
Cr4 O12 2.056251 1_555
Cr4 O24 2.056251 1_455
Cr5 O7 2.040271 1_554
Cr5 O11 2.040271 1_555
Cr5 O16 2.056251 1_555
Cr5 O30 2.056251 1_554
As0 O27 1.685382 1_555
As0 O21 1.726728 1_655
As0 O25 1.755834 1_555
As0 O31 1.764661 1_545
As1 O2 1.687174 1_555
As1 O29 1.720348 1_555
As1 O23 1.737074 1_555
As1 O12 1.770266 1_555
As2 O6 1.687174 1_455
As2 O11 1.720348 1_555
As2 O1 1.737074 1_455
As2 O16 1.770266 1_455
As3 O17 1.687174 1_655
As3 O7 1.720348 1_555
As3 O22 1.737074 1_655
As3 O30 1.770266 1_655
As4 O18 1.685382 1_555
As4 O14 1.726728 1_455
As4 O5 1.755834 1_555
As4 O10 1.764661 1_565
As5 O4 1.687174 1_555
As5 O19 1.720348 1_555
As5 O28 1.737074 1_555
As5 O24 1.770266 1_555
As6 O8 1.685382 1_555
As6 O15 1.726728 1_555
As6 O9 1.755834 1_555
As6 O26 1.764661 1_545
As7 O13 1.685382 1_555
As7 O20 1.726728 1_555
As7 O0 1.755834 1_555
As7 O3 1.764661 1_565
O0 Zn1 2.058040 1_555
O1 Zn5 2.101293 1_665
O2 Zn0 1.910995 1_555
O3 Zn0 2.031478 1_555
O4 Zn2 1.910995 1_555
O5 Zn2 2.058040 1_555
O6 Zn1 1.910995 1_655
O8 Zn5 2.014107 1_656
O9 Zn3 2.058040 1_555
O10 Zn3 2.031478 1_455
O13 Zn5 2.014107 1_565
O14 Zn4 2.337961 1_565
O15 Zn5 2.337961 1_556
O17 Zn3 1.910995 1_455
O18 Zn4 2.014107 1_565
O20 Zn5 2.337961 1_665
O21 Zn4 2.337961 1_555
O22 Zn5 2.101293 1_556
O23 Zn4 2.101293 1_555
O25 Zn0 2.058040 1_555
O26 Zn2 2.031478 1_555
O27 Zn4 2.014107 1_555
O28 Zn4 2.101293 1_565
O31 Zn1 2.031478 1_655
