# generated using pymatgen
data_NaLa(SnO3)2
_symmetry_space_group_name_H-M   'P 1'
_cell_length_a   5.76054485
_cell_length_b   5.76054485
_cell_length_c   5.76054485
_cell_angle_alpha   60.00000000
_cell_angle_beta   60.00000000
_cell_angle_gamma   60.00000000
_symmetry_Int_Tables_number   1
_chemical_formula_structural   NaLa(SnO3)2
_chemical_formula_sum   'Na1 La1 Sn2 O6'
_cell_volume   135.16856090
_cell_formula_units_Z   1
loop_
 _symmetry_equiv_pos_site_id
 _symmetry_equiv_pos_as_xyz
  1  'x, y, z'
loop_
 _atom_site_type_symbol
 _atom_site_label
 _atom_site_symmetry_multiplicity
 _atom_site_fract_x
 _atom_site_fract_y
 _atom_site_fract_z
 _atom_site_occupancy
  Na  Na0  1  0.50000000  0.50000000  0.50000000  1
  La  La0  1  0.00000000  0.00000000  0.00000000  1
  Sn  Sn0  1  0.25000000  0.25000000  0.25000000  1
  Sn  Sn1  1  0.75000000  0.75000000  0.75000000  1
  O  O0  1  0.00000000  0.00000000  0.50000000  1
  O  O1  1  0.50000000  0.50000000  0.00000000  1
  O  O2  1  0.00000000  0.50000000  0.50000000  1
  O  O3  1  0.50000000  0.00000000  0.00000000  1
  O  O4  1  0.00000000  0.50000000  0.00000000  1
  O  O5  1  0.50000000  0.00000000  0.50000000  1
loop_
_geom_bond_atom_site_label_1
_geom_bond_atom_site_label_2
_geom_bond_distance
_geom_bond_site_symmetry_2
Na0 O5 2.880272 1_565
Na0 O3 2.880272 1_556
Na0 O3 2.880272 1_565
Na0 O2 2.880272 1_555
Na0 O1 2.880272 1_555
Na0 O0 2.880272 1_655
Na0 O4 2.880272 1_655
Na0 O4 2.880272 1_556
Na0 O1 2.880272 1_556
Na0 O0 2.880272 1_565
Na0 O5 2.880272 1_555
Na0 O2 2.880272 1_655
La0 O4 2.880272 1_545
La0 O3 2.880272 1_555
La0 O3 2.880272 1_455
La0 O0 2.880272 1_555
La0 O0 2.880272 1_554
La0 O1 2.880272 1_545
La0 O2 2.880272 1_545
La0 O1 2.880272 1_455
La0 O5 2.880272 1_455
La0 O4 2.880272 1_555
La0 O5 2.880272 1_554
La0 O2 2.880272 1_554
O0 Sn1 2.036660 1_445
O0 Sn0 2.036660 1_555
O1 Sn1 2.036660 1_554
O1 Sn0 2.036660 1_555
O2 Sn1 2.036660 1_455
O2 Sn0 2.036660 1_555
O3 Sn1 2.036660 1_544
O3 Sn0 2.036660 1_555
O4 Sn1 2.036660 1_454
O4 Sn0 2.036660 1_555
O5 Sn1 2.036660 1_545
O5 Sn0 2.036660 1_555
