# generated using pymatgen
data_MgSi2
_symmetry_space_group_name_H-M   'P 1'
_cell_length_a   3.63430900
_cell_length_b   5.99358336
_cell_length_c   10.57994131
_cell_angle_alpha   84.90370787
_cell_angle_beta   86.33245198
_cell_angle_gamma   73.14029768
_symmetry_Int_Tables_number   1
_chemical_formula_structural   MgSi2
_chemical_formula_sum   'Mg4 Si8'
_cell_volume   219.50395699
_cell_formula_units_Z   4
loop_
 _symmetry_equiv_pos_site_id
 _symmetry_equiv_pos_as_xyz
  1  'x, y, z'
loop_
 _atom_site_type_symbol
 _atom_site_label
 _atom_site_symmetry_multiplicity
 _atom_site_fract_x
 _atom_site_fract_y
 _atom_site_fract_z
 _atom_site_occupancy
  Mg  Mg0  1  0.66810600  0.50500200  0.90438600  1
  Mg  Mg1  1  0.31798800  0.12720700  0.08307600  1
  Mg  Mg2  1  0.65965300  0.58488900  0.41505100  1
  Mg  Mg3  1  0.99747300  0.81762500  0.64117800  1
  Si  Si0  1  0.62711800  0.46466300  0.16929700  1
  Si  Si1  1  0.97882900  0.88915900  0.91406600  1
  Si  Si2  1  0.68670300  0.41363400  0.65973300  1
  Si  Si3  1  0.99067600  0.93393200  0.33475000  1
  Si  Si4  1  0.38798700  0.12180800  0.82444200  1
  Si  Si5  1  0.01590700  0.73570100  0.14085700  1
  Si  Si6  1  0.37226200  0.20224200  0.33863900  1
  Si  Si7  1  0.29740700  0.20405600  0.57451500  1
loop_
_geom_bond_atom_site_label_1
_geom_bond_atom_site_label_2
_geom_bond_distance
_geom_bond_site_symmetry_2
Mg0 Si2 2.685577 1_555
Mg0 Si0 2.789821 1_556
Mg0 Si1 2.855175 1_555
Mg0 Si1 2.872377 1_455
Mg0 Si4 2.972906 1_555
Mg0 Si4 3.067844 1_655
Mg1 Si4 2.734078 1_554
Mg1 Si6 2.808495 1_555
Mg1 Si0 2.821717 1_555
Mg1 Si5 2.870327 1_545
Mg1 Si0 2.883790 1_455
Mg1 Si1 2.916789 1_444
Mg1 Si5 2.967252 1_645
Mg1 Si1 2.986192 1_544
Mg1 Si3 3.113359 1_445
Mg2 Si2 2.695675 1_555
Mg2 Si3 2.749362 1_555
Mg2 Si0 2.777618 1_555
Mg2 Si3 2.829764 1_455
Mg2 Si6 2.971731 1_555
Mg2 Si6 3.039222 1_655
Mg2 Si7 3.189972 1_655
Mg2 Si7 3.250293 1_555
Mg3 Si7 2.850595 1_665
Mg3 Si2 2.938739 1_655
Mg3 Si2 2.941194 1_555
Mg3 Si1 2.949919 1_555
Mg3 Si7 2.975942 1_565
Mg3 Si4 3.118628 1_565
Mg3 Si3 3.255120 1_555
Si0 Si5 2.359941 1_555
Si0 Si5 2.432330 1_655
Si0 Si6 2.583361 1_555
Si1 Si4 2.396488 1_565
Si1 Si4 2.417046 1_665
Si1 Si5 2.489740 1_656
Si2 Si7 2.375895 1_655
Si2 Si7 2.405769 1_555
Si2 Si4 2.755447 1_555
Si3 Si6 2.354254 1_565
Si3 Si6 2.413235 1_665
Si3 Si5 2.444159 1_655
Si4 Si7 2.669999 1_555
Si6 Si7 2.493625 1_555
