# generated using pymatgen
data_Tm2Cu(B2O5)2
_symmetry_space_group_name_H-M   'P 1'
_cell_length_a   7.24172100
_cell_length_b   4.57939700
_cell_length_c   9.32540605
_cell_angle_alpha   89.73860655
_cell_angle_beta   90.00000000
_cell_angle_gamma   90.00000000
_symmetry_Int_Tables_number   1
_chemical_formula_structural   Tm2Cu(B2O5)2
_chemical_formula_sum   'Tm4 Cu2 B8 O20'
_cell_volume   309.25256859
_cell_formula_units_Z   2
loop_
 _symmetry_equiv_pos_site_id
 _symmetry_equiv_pos_as_xyz
  1  'x, y, z'
loop_
 _atom_site_type_symbol
 _atom_site_label
 _atom_site_symmetry_multiplicity
 _atom_site_fract_x
 _atom_site_fract_y
 _atom_site_fract_z
 _atom_site_occupancy
  Tm  Tm0  1  0.39669000  0.00285700  0.83525000  1
  Tm  Tm1  1  0.89669000  0.99714300  0.66475000  1
  Tm  Tm2  1  0.10331000  0.00285700  0.33525000  1
  Tm  Tm3  1  0.60331000  0.99714300  0.16475000  1
  Cu  Cu0  1  0.00000000  0.00000000  0.00000000  1
  Cu  Cu1  1  0.50000000  0.00000000  0.50000000  1
  B  B0  1  0.26928400  0.53905300  0.07959100  1
  B  B1  1  0.76928400  0.46094700  0.42040900  1
  B  B2  1  0.73071600  0.46094700  0.92040900  1
  B  B3  1  0.23071600  0.53905300  0.57959100  1
  B  B4  1  0.59807900  0.52849700  0.66328800  1
  B  B5  1  0.09807900  0.47150300  0.83671200  1
  B  B6  1  0.90192100  0.52849700  0.16328800  1
  B  B7  1  0.40192100  0.47150300  0.33671200  1
  O  O0  1  0.16354400  0.34048500  0.69801900  1
  O  O1  1  0.66354400  0.65951500  0.80198100  1
  O  O2  1  0.10993400  0.77199500  0.54095500  1
  O  O3  1  0.60993400  0.22800500  0.95904500  1
  O  O4  1  0.89006600  0.22800500  0.45904500  1
  O  O5  1  0.39006600  0.77199500  0.04095500  1
  O  O6  1  0.91038400  0.21346600  0.16735500  1
  O  O7  1  0.41038400  0.78653400  0.33264500  1
  O  O8  1  0.08961600  0.78653400  0.83264500  1
  O  O9  1  0.58961600  0.21346600  0.66735500  1
  O  O10  1  0.08870900  0.67753800  0.13849200  1
  O  O11  1  0.58870900  0.32246200  0.36150800  1
  O  O12  1  0.91129100  0.32246200  0.86150800  1
  O  O13  1  0.41129100  0.67753800  0.63849200  1
  O  O14  1  0.77667700  0.64207300  0.04903500  1
  O  O15  1  0.27667700  0.35792700  0.45096500  1
  O  O16  1  0.22332300  0.35792700  0.95096500  1
  O  O17  1  0.72332300  0.64207300  0.54903500  1
  O  O18  1  0.83645600  0.65951500  0.30198100  1
  O  O19  1  0.33645600  0.34048500  0.19801900  1
loop_
_geom_bond_atom_site_label_1
_geom_bond_atom_site_label_2
_geom_bond_distance
_geom_bond_site_symmetry_2
Cu0 O6 1.956099 1_455
Cu0 O8 1.956099 1_544
Cu0 O10 2.060056 1_545
Cu0 O12 2.060056 1_454
Cu0 O14 2.346135 1_445
Cu0 O16 2.346135 1_554
Cu1 O9 1.956099 1_555
Cu1 O7 1.956099 1_545
Cu1 O11 2.060056 1_555
Cu1 O13 2.060056 1_545
Cu1 O17 2.346135 1_545
Cu1 O15 2.346135 1_555
B0 O5 1.424526 1_555
B0 O16 1.498872 1_554
B0 O19 1.507980 1_555
B0 O10 1.554694 1_555
B1 O4 1.424526 1_555
B1 O17 1.498872 1_555
B1 O18 1.507980 1_555
B1 O11 1.554694 1_555
B2 O3 1.424526 1_555
B2 O14 1.498872 1_556
B2 O1 1.507980 1_555
B2 O12 1.554694 1_555
B3 O2 1.424526 1_555
B3 O15 1.498872 1_555
B3 O0 1.507980 1_555
B3 O13 1.554694 1_555
B4 O9 1.444278 1_555
B4 O17 1.491063 1_555
B4 O1 1.504863 1_555
B4 O13 1.532177 1_555
B5 O8 1.444278 1_555
B5 O16 1.491063 1_555
B5 O0 1.504863 1_555
B5 O12 1.532177 1_455
B6 O6 1.444278 1_555
B6 O14 1.491063 1_555
B6 O18 1.504863 1_555
B6 O10 1.532177 1_655
B7 O7 1.444278 1_555
B7 O15 1.491063 1_555
B7 O19 1.504863 1_555
B7 O11 1.532177 1_555
O0 Tm1 2.511437 1_445
O0 Tm0 2.619316 1_555
O1 Tm0 2.511437 1_565
O1 Tm1 2.619316 1_555
O2 Tm2 2.186617 1_565
O2 Tm1 2.188917 1_455
O3 Tm3 2.186617 1_546
O3 Tm0 2.188917 1_555
O4 Tm1 2.186617 1_545
O4 Tm2 2.188917 1_655
O5 Tm0 2.186617 1_564
O5 Tm3 2.188917 1_555
O6 Tm2 2.306453 1_655
O6 Tm3 2.434583 1_545
O7 Tm3 2.306453 1_555
O7 Tm2 2.434583 1_565
O8 Tm1 2.306453 1_455
O8 Tm0 2.434583 1_565
O9 Tm0 2.306453 1_555
O9 Tm1 2.434583 1_545
O10 Tm2 2.371116 1_565
O11 Tm3 2.371116 1_545
O12 Tm1 2.371116 1_545
O13 Tm0 2.371116 1_565
O14 Tm3 2.323910 1_555
O15 Tm2 2.323910 1_555
O16 Tm0 2.323910 1_555
O17 Tm1 2.323910 1_555
O18 Tm2 2.511437 1_665
O18 Tm3 2.619316 1_555
O19 Tm3 2.511437 1_545
O19 Tm2 2.619316 1_555
