# generated using pymatgen
data_Ba2Sr6Co5Cu3O20
_symmetry_space_group_name_H-M   'P 1'
_cell_length_a   11.12485927
_cell_length_b   11.16540635
_cell_length_c   17.95578413
_cell_angle_alpha   108.09159644
_cell_angle_beta   107.83188705
_cell_angle_gamma   90.31697368
_symmetry_Int_Tables_number   1
_chemical_formula_structural   Ba2Sr6Co5Cu3O20
_chemical_formula_sum   'Ba8 Sr24 Co20 Cu12 O80'
_cell_volume   2005.71804835
_cell_formula_units_Z   4
loop_
 _symmetry_equiv_pos_site_id
 _symmetry_equiv_pos_as_xyz
  1  'x, y, z'
loop_
 _atom_site_type_symbol
 _atom_site_label
 _atom_site_symmetry_multiplicity
 _atom_site_fract_x
 _atom_site_fract_y
 _atom_site_fract_z
 _atom_site_occupancy
  Ba  Ba0  1  0.30856500  0.06129800  0.11737600  1
  Ba  Ba1  1  0.31049700  0.56081900  0.11795700  1
  Ba  Ba2  1  0.80768500  0.05582200  0.11915500  1
  Ba  Ba3  1  0.80720700  0.55792700  0.11558700  1
  Ba  Ba4  1  0.18773300  0.94048500  0.87525300  1
  Ba  Ba5  1  0.05197000  0.80113500  0.11385200  1
  Ba  Ba6  1  0.55748800  0.30912700  0.11567200  1
  Ba  Ba7  1  0.93165700  0.68361500  0.87481900  1
  Sr  Sr0  1  0.30423000  0.05824600  0.61469500  1
  Sr  Sr1  1  0.30931900  0.56045600  0.61170900  1
  Sr  Sr2  1  0.80459300  0.05783800  0.61043300  1
  Sr  Sr3  1  0.80386400  0.55714400  0.60978700  1
  Sr  Sr4  1  0.19653800  0.44159300  0.39192700  1
  Sr  Sr5  1  0.19305300  0.44046000  0.88457800  1
  Sr  Sr6  1  0.19875800  0.93883700  0.39319700  1
  Sr  Sr7  1  0.69555700  0.44206100  0.39052700  1
  Sr  Sr8  1  0.69509300  0.43646100  0.88451300  1
  Sr  Sr9  1  0.69074600  0.94310700  0.39009000  1
  Sr  Sr10  1  0.68837100  0.93932800  0.88468200  1
  Sr  Sr11  1  0.06159800  0.30154400  0.11087900  1
  Sr  Sr12  1  0.05261700  0.30441300  0.61333900  1
  Sr  Sr13  1  0.05492700  0.80344400  0.61043100  1
  Sr  Sr14  1  0.56221200  0.30532300  0.61319100  1
  Sr  Sr15  1  0.55857700  0.81031600  0.11276000  1
  Sr  Sr16  1  0.55740300  0.80294600  0.61114000  1
  Sr  Sr17  1  0.44597100  0.20021200  0.39184600  1
  Sr  Sr18  1  0.44402600  0.19619600  0.88459100  1
  Sr  Sr19  1  0.44927300  0.70169400  0.39300800  1
  Sr  Sr20  1  0.44296100  0.69842500  0.88406400  1
  Sr  Sr21  1  0.94698800  0.19617400  0.39186000  1
  Sr  Sr22  1  0.94520300  0.19159700  0.88423600  1
  Sr  Sr23  1  0.94183000  0.70214000  0.39449900  1
  Co  Co0  1  0.99152900  0.99461100  0.98385900  1
  Co  Co1  1  0.99610700  0.00096300  0.49950400  1
  Co  Co2  1  0.99441300  0.48786800  0.98492500  1
  Co  Co3  1  0.00309400  0.50426400  0.50648700  1
  Co  Co4  1  0.49402200  0.99635000  0.98970300  1
  Co  Co5  1  0.50315100  0.00052500  0.50256500  1
  Co  Co6  1  0.49542300  0.49266100  0.98216500  1
  Co  Co7  1  0.50344500  0.49779600  0.49733500  1
  Co  Co8  1  0.24467800  0.24598900  0.99172500  1
  Co  Co9  1  0.25723300  0.25469700  0.50897200  1
  Co  Co10  1  0.24739500  0.74684600  0.99302800  1
  Co  Co11  1  0.25591900  0.75328600  0.50442700  1
  Co  Co12  1  0.74710700  0.24212600  0.98887700  1
  Co  Co13  1  0.75084000  0.24925300  0.49845500  1
  Co  Co14  1  0.73881500  0.74282500  0.98775000  1
  Co  Co15  1  0.75533600  0.75433500  0.50836800  1
  Co  Co16  1  0.11950300  0.09369200  0.25850500  1
  Co  Co17  1  0.11546400  0.59344200  0.25672700  1
  Co  Co18  1  0.62028600  0.60429000  0.25998400  1
  Co  Co19  1  0.87177300  0.40738200  0.25600700  1
  Cu  Cu0  1  0.11284500  0.10397200  0.74482300  1
  Cu  Cu1  1  0.11776400  0.59453800  0.74711100  1
  Cu  Cu2  1  0.61926000  0.10070200  0.25654300  1
  Cu  Cu3  1  0.61484800  0.09884500  0.74764700  1
  Cu  Cu4  1  0.60957000  0.59749500  0.74758600  1
  Cu  Cu5  1  0.36093000  0.40514700  0.25509400  1
  Cu  Cu6  1  0.36399400  0.40128300  0.74747500  1
  Cu  Cu7  1  0.36787100  0.90265100  0.25405600  1
  Cu  Cu8  1  0.36773000  0.89964600  0.74590800  1
  Cu  Cu9  1  0.86362000  0.39149900  0.74550100  1
  Cu  Cu10  1  0.86167500  0.89353000  0.25759300  1
  Cu  Cu11  1  0.85695000  0.90485300  0.74474600  1
  O  O0  1  0.11718200  0.11546400  0.49722700  1
  O  O1  1  0.11665000  0.12064200  0.99167700  1
  O  O2  1  0.11648600  0.61417900  0.49622200  1
  O  O3  1  0.11284000  0.61195200  0.99195300  1
  O  O4  1  0.61497100  0.11881400  0.49683600  1
  O  O5  1  0.61526600  0.11367700  0.99215400  1
  O  O6  1  0.62125300  0.62194400  0.49841800  1
  O  O7  1  0.61556000  0.62377300  0.99260000  1
  O  O8  1  0.13173800  0.36747700  0.99728800  1
  O  O9  1  0.13883900  0.36856700  0.50788100  1
  O  O10  1  0.11733000  0.87244800  0.99733600  1
  O  O11  1  0.13613400  0.86554600  0.50539500  1
  O  O12  1  0.62896100  0.37080500  0.99555800  1
  O  O13  1  0.63622900  0.37172000  0.50521800  1
  O  O14  1  0.62185500  0.86892800  0.99927900  1
  O  O15  1  0.63396700  0.87134700  0.50587500  1
  O  O16  1  0.36396200  0.13272100  0.49644000  1
  O  O17  1  0.36728400  0.13222500  0.99056900  1
  O  O18  1  0.36594700  0.63220900  0.49620100  1
  O  O19  1  0.36645100  0.63502900  0.99301900  1
  O  O20  1  0.86603200  0.12776600  0.49652600  1
  O  O21  1  0.87439800  0.11113000  0.99367300  1
  O  O22  1  0.86633500  0.62532100  0.49478800  1
  O  O23  1  0.86102300  0.61626900  0.98990100  1
  O  O24  1  0.38256100  0.39075800  0.99731500  1
  O  O25  1  0.38853100  0.38915600  0.50903300  1
  O  O26  1  0.37893300  0.88518700  0.99727000  1
  O  O27  1  0.38489300  0.89003100  0.50881200  1
  O  O28  1  0.88767800  0.37399700  0.99763200  1
  O  O29  1  0.88854300  0.38467800  0.50631000  1
  O  O30  1  0.86128700  0.86436100  0.99680500  1
  O  O31  1  0.88286800  0.88272900  0.50907100  1
  O  O32  1  0.08605400  0.10667600  0.15762400  1
  O  O33  1  0.06977600  0.08782000  0.63355900  1
  O  O34  1  0.07961400  0.58578700  0.15050000  1
  O  O35  1  0.07927800  0.58956900  0.63740400  1
  O  O36  1  0.57352900  0.08004000  0.14413900  1
  O  O37  1  0.57512000  0.08698000  0.63691400  1
  O  O38  1  0.58165600  0.60581700  0.15664800  1
  O  O39  1  0.57906500  0.58655900  0.63831700  1
  O  O40  1  0.44076000  0.41713000  0.36905000  1
  O  O41  1  0.44083900  0.41824100  0.85954100  1
  O  O42  1  0.43673700  0.91355500  0.36595300  1
  O  O43  1  0.43781000  0.91500400  0.85783300  1
  O  O44  1  0.94451800  0.39767000  0.35851800  1
  O  O45  1  0.93910200  0.40763200  0.85821100  1
  O  O46  1  0.93824100  0.91465100  0.36970800  1
  O  O47  1  0.92365700  0.91947800  0.85857500  1
  O  O48  1  0.31928200  0.31157300  0.13974700  1
  O  O49  1  0.32769000  0.29953600  0.63764000  1
  O  O50  1  0.32752200  0.81387000  0.13884300  1
  O  O51  1  0.32908200  0.79873000  0.63546300  1
  O  O52  1  0.84010700  0.31298300  0.14840700  1
  O  O53  1  0.81829400  0.29619700  0.63412900  1
  O  O54  1  0.81811500  0.81172200  0.14502900  1
  O  O55  1  0.82235400  0.79862000  0.63281500  1
  O  O56  1  0.19781700  0.20865300  0.35818000  1
  O  O57  1  0.18684100  0.19765400  0.85782600  1
  O  O58  1  0.19782600  0.70229000  0.36021900  1
  O  O59  1  0.18727300  0.68796500  0.86021700  1
  O  O60  1  0.69570100  0.20097800  0.36765000  1
  O  O61  1  0.69000500  0.19261900  0.85941900  1
  O  O62  1  0.69206700  0.70644000  0.36547900  1
  O  O63  1  0.67103600  0.69434000  0.86046300  1
  O  O64  1  0.46325900  0.05216300  0.26262600  1
  O  O65  1  0.45402500  0.05569700  0.74892200  1
  O  O66  1  0.46278600  0.55248100  0.26256000  1
  O  O67  1  0.44624200  0.55457200  0.74661900  1
  O  O68  1  0.96804600  0.04731600  0.26264700  1
  O  O69  1  0.95297000  0.05109200  0.74696400  1
  O  O70  1  0.95193800  0.56545600  0.26333200  1
  O  O71  1  0.95672100  0.52710200  0.73572800  1
  O  O72  1  0.19238300  0.44185200  0.25412600  1
  O  O73  1  0.20242300  0.44147300  0.74767800  1
  O  O74  1  0.20434700  0.95482700  0.25916000  1
  O  O75  1  0.20828000  0.96035700  0.73531000  1
  O  O76  1  0.70631600  0.45446300  0.25973000  1
  O  O77  1  0.70652700  0.45416700  0.75010600  1
  O  O78  1  0.70240900  0.94723400  0.25401900  1
  O  O79  1  0.69548100  0.94457100  0.74707200  1
loop_
_geom_bond_atom_site_label_1
_geom_bond_atom_site_label_2
_geom_bond_distance
_geom_bond_site_symmetry_2
Ba0 O64 2.681863 1_555
Ba0 O48 2.693362 1_555
Ba0 O26 2.747279 1_544
Ba0 O32 2.790825 1_555
Ba0 O10 2.817317 1_544
Ba0 O36 2.833153 1_555
Ba0 O1 2.843366 1_554
Ba0 O17 2.874604 1_554
Ba0 O50 2.905723 1_545
Ba1 O66 2.660512 1_555
Ba1 O50 2.729832 1_555
Ba1 O24 2.732496 1_554
Ba1 O8 2.778154 1_554
Ba1 O34 2.800453 1_555
Ba1 O3 2.837116 1_554
Ba1 O19 2.847930 1_554
Ba1 O38 2.884078 1_555
Ba1 O48 2.926293 1_555
Ba2 O68 2.677461 1_555
Ba2 O52 2.754312 1_555
Ba2 O30 2.766132 1_544
Ba2 O14 2.774669 1_544
Ba2 O36 2.776384 1_555
Ba2 O21 2.809268 1_554
Ba2 O5 2.853129 1_554
Ba2 O54 2.900763 1_545
Ba2 O32 2.969286 1_655
Ba3 O70 2.623212 1_555
Ba3 O54 2.711216 1_555
Ba3 O12 2.735387 1_554
Ba3 O23 2.759004 1_554
Ba3 O28 2.825760 1_554
Ba3 O38 2.833502 1_555
Ba3 O7 2.846922 1_554
Ba3 O34 2.894573 1_655
Ba3 O52 2.973362 1_555
Ba4 O75 2.667033 1_555
Ba4 O1 2.731321 1_565
Ba4 O17 2.743542 1_565
Ba4 O59 2.747482 1_555
Ba4 O26 2.776015 1_555
Ba4 O10 2.841652 1_555
Ba4 O47 2.861004 1_455
Ba4 O43 2.899163 1_555
Ba4 O57 2.983183 1_565
Ba5 O74 2.665357 1_555
Ba5 O34 2.678785 1_555
Ba5 O10 2.738543 1_554
Ba5 O30 2.760963 1_454
Ba5 O3 2.786274 1_554
Ba5 O23 2.815885 1_454
Ba5 O54 2.819570 1_455
Ba5 O50 2.954963 1_555
Ba5 O32 3.246175 1_565
Ba6 O76 2.608798 1_555
Ba6 O36 2.756250 1_555
Ba6 O17 2.777004 1_554
Ba6 O12 2.779333 1_554
Ba6 O24 2.797135 1_554
Ba6 O48 2.811624 1_555
Ba6 O5 2.824364 1_554
Ba6 O52 3.013907 1_555
Ba6 O38 3.153190 1_555
Ba7 O71 2.662764 1_555
Ba7 O23 2.721362 1_555
Ba7 O47 2.737171 1_555
Ba7 O3 2.755588 1_655
Ba7 O30 2.793842 1_555
Ba7 O10 2.799930 1_655
Ba7 O63 2.837679 1_555
Ba7 O59 2.936104 1_655
Ba7 O45 3.006398 1_555
Ba7 O77 3.283532 1_555
Co0 O21 1.854344 1_565
Co0 O1 1.916608 1_665
Co0 O10 1.973932 1_655
Co0 O47 2.028566 1_555
Co0 O30 2.159007 1_555
Co1 O0 1.870160 1_655
Co1 O31 1.901119 1_545
Co1 O20 2.030681 1_555
Co1 O46 2.110479 1_545
Co1 O33 2.177000 1_655
Co1 O11 2.179092 1_645
Co2 O28 1.846049 1_555
Co2 O3 1.854872 1_655
Co2 O8 2.047064 1_655
Co2 O45 2.056325 1_555
Co2 O23 2.071379 1_555
Co2 O34 2.678906 1_656
Co3 O29 1.839266 1_455
Co3 O2 1.843141 1_555
Co3 O22 2.046748 1_455
Co3 O35 2.128775 1_555
Co3 O9 2.145331 1_555
Co3 O44 2.422265 1_455
Co4 O26 1.841733 1_555
Co4 O5 1.856248 1_565
Co4 O14 2.025016 1_555
Co4 O17 2.076587 1_565
Co4 O43 2.138639 1_555
Co4 O36 2.494893 1_566
Co5 O27 1.850353 1_545
Co5 O4 1.856614 1_555
Co5 O15 2.055541 1_545
Co5 O16 2.147153 1_555
Co5 O37 2.180487 1_555
Co5 O42 2.215541 1_545
Co6 O24 1.825003 1_555
Co6 O7 1.902378 1_555
Co6 O41 1.986560 1_555
Co6 O12 2.030453 1_555
Co6 O19 2.151168 1_555
Co7 O25 1.858862 1_555
Co7 O6 1.893948 1_555
Co7 O13 2.049989 1_555
Co7 O40 2.079463 1_555
Co7 O18 2.148921 1_555
Co7 O39 2.286147 1_555
Co8 O8 1.854773 1_555
Co8 O17 1.869346 1_555
Co8 O1 1.990929 1_555
Co8 O57 2.174530 1_555
Co8 O24 2.180202 1_555
Co8 O48 2.392220 1_556
Co9 O16 1.818356 1_555
Co9 O9 1.835714 1_555
Co9 O25 2.088341 1_555
Co9 O49 2.090664 1_555
Co9 O0 2.111182 1_555
Co9 O56 2.463304 1_555
Co10 O19 1.825174 1_555
Co10 O10 2.022377 1_555
Co10 O26 2.089670 1_555
Co10 O3 2.109236 1_555
Co10 O59 2.147333 1_555
Co10 O50 2.357126 1_556
Co11 O18 1.831036 1_555
Co11 O11 1.834754 1_555
Co11 O27 2.056203 1_555
Co11 O2 2.128730 1_555
Co11 O51 2.130012 1_555
Co11 O58 2.345643 1_555
Co12 O12 1.953613 1_555
Co12 O21 2.044129 1_555
Co12 O5 2.072098 1_555
Co12 O28 2.078083 1_555
Co12 O61 2.099094 1_555
Co12 O52 2.582632 1_556
Co13 O20 1.870996 1_555
Co13 O13 1.876488 1_555
Co13 O4 2.080649 1_555
Co13 O29 2.088695 1_555
Co13 O60 2.123895 1_555
Co13 O53 2.203536 1_555
Co14 O30 1.852318 1_555
Co14 O14 1.929387 1_555
Co14 O7 1.944110 1_555
Co14 O23 1.967120 1_555
Co14 O63 2.063219 1_555
Co14 O54 2.542201 1_556
Co15 O15 1.884359 1_555
Co15 O22 1.909259 1_555
Co15 O31 2.005866 1_555
Co15 O55 2.020619 1_555
Co15 O6 2.022471 1_555
Co15 O62 2.324180 1_555
Co16 O32 1.786482 1_555
Co16 O68 1.789884 1_455
Co16 O56 1.793231 1_555
Co16 O74 1.820924 1_545
Co17 O34 1.799158 1_555
Co17 O58 1.819891 1_555
Co17 O70 1.889464 1_455
Co17 O72 1.894889 1_555
Co18 O38 1.777398 1_555
Co18 O62 1.802326 1_555
Co18 O66 1.860615 1_555
Co18 O76 1.931368 1_555
Co19 O44 1.807585 1_555
Co19 O52 1.811661 1_555
Co19 O70 1.922057 1_555
Co19 O76 1.932142 1_555
Cu0 O33 1.855383 1_555
Cu0 O57 1.881001 1_555
Cu0 O69 1.886215 1_455
Cu0 O75 1.920275 1_545
Cu1 O35 1.866043 1_555
Cu1 O71 1.866466 1_455
Cu1 O59 1.877281 1_555
Cu1 O73 1.957208 1_555
Cu2 O64 1.860114 1_555
Cu2 O36 1.861783 1_555
Cu2 O60 1.876152 1_555
Cu2 O78 1.946508 1_545
Cu3 O65 1.859037 1_555
Cu3 O37 1.861121 1_555
Cu3 O61 1.865670 1_555
Cu3 O79 1.945150 1_545
Cu4 O39 1.850006 1_555
Cu4 O67 1.870121 1_555
Cu4 O63 1.877920 1_555
Cu4 O77 1.939249 1_555
Cu5 O48 1.912820 1_555
Cu5 O72 1.917572 1_555
Cu5 O40 1.925913 1_555
Cu5 O66 1.938429 1_555
Cu6 O73 1.855840 1_555
Cu6 O49 1.859779 1_555
Cu6 O41 1.877175 1_555
Cu6 O67 1.942789 1_555
Cu7 O42 1.882272 1_555
Cu7 O50 1.901715 1_555
Cu7 O64 1.912432 1_565
Cu7 O74 1.933360 1_555
Cu8 O51 1.863300 1_555
Cu8 O43 1.871099 1_555
Cu8 O75 1.878555 1_555
Cu8 O65 1.962534 1_565
Cu9 O53 1.854861 1_555
Cu9 O45 1.887971 1_555
Cu9 O77 1.901781 1_555
Cu9 O71 1.911781 1_555
Cu10 O54 1.844705 1_555
Cu10 O78 1.862526 1_555
Cu10 O46 1.867220 1_555
Cu10 O68 2.042530 1_565
Cu11 O79 1.862373 1_555
Cu11 O47 1.901917 1_555
Cu11 O55 1.906567 1_555
Cu11 O69 1.929510 1_565
O0 Sr21 2.619222 1_455
O0 Sr6 2.640482 1_545
O0 Sr0 2.711199 1_555
O0 Sr12 2.741461 1_555
O1 Sr22 2.588376 1_455
O1 Sr11 2.677222 1_556
O2 Sr4 2.610089 1_555
O2 Sr23 2.652872 1_455
O2 Sr1 2.706328 1_555
O2 Sr13 2.706431 1_555
O3 Sr5 2.638117 1_555
O4 Sr17 2.612844 1_555
O4 Sr9 2.627865 1_545
O4 Sr14 2.666166 1_555
O4 Sr2 2.705024 1_555
O5 Sr10 2.611606 1_545
O5 Sr18 2.660723 1_555
O6 Sr19 2.623653 1_555
O6 Sr16 2.653563 1_555
O6 Sr7 2.655716 1_555
O6 Sr3 2.660117 1_555
O7 Sr20 2.629536 1_555
O7 Sr15 2.730643 1_556
O7 Sr8 2.734002 1_555
O8 Sr5 2.662452 1_555
O8 Sr22 2.680031 1_455
O8 Sr11 2.685470 1_556
O9 Sr12 2.639328 1_555
O9 Sr1 2.640414 1_555
O9 Sr4 2.697930 1_555
O9 Sr21 2.709460 1_455
O11 Sr13 2.588969 1_555
O11 Sr23 2.651447 1_455
O11 Sr0 2.657666 1_565
O11 Sr6 2.662863 1_555
O12 Sr8 2.618124 1_555
O12 Sr18 2.652568 1_555
O13 Sr3 2.586130 1_555
O13 Sr14 2.617246 1_555
O13 Sr7 2.669210 1_555
O13 Sr17 2.680712 1_555
O14 Sr15 2.603347 1_556
O14 Sr20 2.618257 1_555
O14 Sr10 2.707421 1_555
O15 Sr16 2.599357 1_555
O15 Sr2 2.609470 1_565
O15 Sr19 2.634294 1_555
O15 Sr9 2.682628 1_555
O16 Sr17 2.616890 1_555
O16 Sr6 2.622516 1_545
O16 Sr14 2.754102 1_555
O16 Sr0 2.756150 1_555
O17 Sr18 2.586995 1_555
O18 Sr19 2.613680 1_555
O18 Sr4 2.628072 1_555
O18 Sr1 2.677121 1_555
O18 Sr16 2.692477 1_555
O19 Sr20 2.631760 1_555
O19 Sr5 2.694078 1_555
O19 Sr15 2.747230 1_556
O20 Sr21 2.616689 1_555
O20 Sr9 2.632841 1_545
O20 Sr2 2.664970 1_555
O20 Sr12 2.705003 1_655
O21 Sr10 2.633734 1_545
O21 Sr22 2.706592 1_555
O21 Sr11 2.788205 1_656
O22 Sr23 2.561525 1_555
O22 Sr7 2.588561 1_555
O22 Sr3 2.678721 1_555
O22 Sr13 2.718410 1_655
O23 Sr8 2.545408 1_555
O24 Sr5 2.635769 1_555
O24 Sr18 2.723369 1_555
O25 Sr1 2.580180 1_555
O25 Sr14 2.646005 1_555
O25 Sr4 2.711846 1_555
O25 Sr17 2.714392 1_555
O26 Sr20 2.694114 1_555
O26 Sr15 2.747750 1_556
O27 Sr0 2.606386 1_565
O27 Sr16 2.641050 1_555
O27 Sr6 2.641361 1_555
O27 Sr19 2.733452 1_555
O28 Sr22 2.634385 1_555
O28 Sr11 2.676240 1_656
O28 Sr8 2.726413 1_555
O29 Sr12 2.601451 1_655
O29 Sr3 2.630155 1_555
O29 Sr21 2.687555 1_555
O29 Sr7 2.729626 1_555
O30 Sr10 2.673357 1_555
O31 Sr13 2.577935 1_655
O31 Sr2 2.583197 1_565
O31 Sr23 2.644417 1_555
O31 Sr9 2.775017 1_555
O32 Sr11 2.552146 1_555
O33 Sr12 2.554338 1_555
O33 Sr0 2.740068 1_555
O33 Sr2 2.853103 1_455
O33 Sr13 3.068341 1_545
O34 Sr11 3.020255 1_555
O35 Sr13 2.579848 1_555
O35 Sr1 2.739909 1_555
O35 Sr3 2.951340 1_455
O35 Sr12 3.077076 1_555
O36 Sr15 2.880613 1_545
O37 Sr14 2.599372 1_555
O37 Sr2 2.739626 1_555
O37 Sr0 2.918461 1_555
O37 Sr16 3.055519 1_545
O38 Sr15 2.626891 1_555
O39 Sr16 2.607711 1_555
O39 Sr3 2.704405 1_555
O39 Sr1 2.888647 1_555
O39 Sr14 3.026686 1_555
O40 Sr17 2.576744 1_555
O40 Sr7 2.741563 1_555
O40 Sr4 2.871782 1_555
O40 Sr19 3.067885 1_555
O41 Sr18 2.652151 1_555
O41 Sr8 2.720899 1_555
O41 Sr5 2.925694 1_555
O41 Sr20 3.019671 1_555
O42 Sr19 2.554793 1_555
O42 Sr9 2.726304 1_555
O42 Sr6 2.836169 1_555
O42 Sr17 3.084433 1_565
O43 Sr20 2.600993 1_555
O43 Sr10 2.676447 1_555
O43 Sr18 3.022125 1_565
O44 Sr21 2.499568 1_555
O44 Sr4 2.689429 1_655
O44 Sr7 3.010014 1_555
O45 Sr22 2.593018 1_555
O45 Sr5 2.720599 1_655
O45 Sr8 2.897576 1_555
O46 Sr23 2.544788 1_555
O46 Sr6 2.796860 1_655
O46 Sr9 2.893165 1_555
O46 Sr21 3.040482 1_565
O47 Sr10 2.795296 1_555
O47 Sr22 2.925059 1_565
O48 Sr11 2.747638 1_555
O49 Sr0 2.594809 1_555
O49 Sr14 2.778693 1_555
O49 Sr12 2.959169 1_555
O49 Sr1 3.088125 1_555
O50 Sr15 2.748643 1_555
O51 Sr1 2.557239 1_555
O51 Sr16 2.708433 1_555
O51 Sr13 2.946827 1_555
O51 Sr0 3.037829 1_565
O52 Sr11 2.740235 1_655
O53 Sr2 2.557283 1_555
O53 Sr12 2.749153 1_655
O53 Sr14 2.763848 1_555
O53 Sr3 3.075528 1_555
O54 Sr15 2.764390 1_555
O55 Sr3 2.594617 1_555
O55 Sr13 2.739996 1_655
O55 Sr16 2.855255 1_555
O55 Sr2 3.042612 1_565
O56 Sr4 2.481689 1_555
O56 Sr17 2.647987 1_555
O56 Sr21 3.041912 1_455
O57 Sr5 2.598844 1_555
O57 Sr18 2.753294 1_555
O57 Sr22 2.873056 1_455
O58 Sr6 2.520118 1_555
O58 Sr19 2.676866 1_555
O58 Sr4 3.135417 1_555
O59 Sr20 2.739970 1_555
O59 Sr5 2.927092 1_555
O60 Sr7 2.593875 1_555
O60 Sr21 2.697909 1_555
O60 Sr17 2.940845 1_555
O60 Sr9 3.031130 1_545
O61 Sr8 2.615248 1_555
O61 Sr22 2.736341 1_555
O61 Sr18 2.905464 1_555
O61 Sr10 3.000912 1_545
O62 Sr9 2.541136 1_555
O62 Sr23 2.669194 1_555
O62 Sr19 2.893994 1_555
O62 Sr7 3.119716 1_555
O63 Sr10 2.629196 1_555
O63 Sr20 2.695807 1_555
O63 Sr8 3.042795 1_555
O64 Sr17 2.459221 1_555
O65 Sr0 2.483943 1_555
O65 Sr18 2.490392 1_555
O66 Sr19 2.465640 1_555
O67 Sr1 2.456164 1_555
O67 Sr20 2.503148 1_555
O68 Sr21 2.478408 1_555
O69 Sr22 2.504859 1_555
O69 Sr2 2.525477 1_555
O70 Sr23 2.412563 1_555
O71 Sr3 2.498058 1_555
O71 Sr12 3.197088 1_655
O72 Sr4 2.461468 1_555
O72 Sr11 2.523311 1_555
O73 Sr12 2.480921 1_555
O73 Sr5 2.495529 1_555
O74 Sr6 2.487273 1_555
O75 Sr13 2.488392 1_555
O75 Sr0 3.146026 1_565
O76 Sr7 2.433764 1_555
O77 Sr8 2.522645 1_555
O77 Sr14 2.529623 1_555
O78 Sr9 2.500499 1_555
O78 Sr15 2.531771 1_555
O79 Sr16 2.469261 1_555
O79 Sr10 2.514854 1_555
