# generated using pymatgen
data_Ag5TePO4
_symmetry_space_group_name_H-M   'P 1'
_cell_length_a   7.14488500
_cell_length_b   7.14488500
_cell_length_c   7.39966500
_cell_angle_alpha   90.00000000
_cell_angle_beta   90.00000000
_cell_angle_gamma   90.00000000
_symmetry_Int_Tables_number   1
_chemical_formula_structural   Ag5TePO4
_chemical_formula_sum   'Ag10 Te2 P2 O8'
_cell_volume   377.74832277
_cell_formula_units_Z   2
loop_
 _symmetry_equiv_pos_site_id
 _symmetry_equiv_pos_as_xyz
  1  'x, y, z'
loop_
 _atom_site_type_symbol
 _atom_site_label
 _atom_site_symmetry_multiplicity
 _atom_site_fract_x
 _atom_site_fract_y
 _atom_site_fract_z
 _atom_site_occupancy
  Ag  Ag0  1  0.77240900  0.72759100  0.20032000  1
  Ag  Ag1  1  0.22759100  0.72759100  0.20032000  1
  Ag  Ag2  1  0.77240900  0.27240900  0.20032000  1
  Ag  Ag3  1  0.22759100  0.27240900  0.20032000  1
  Ag  Ag4  1  0.72759100  0.77240900  0.79968000  1
  Ag  Ag5  1  0.27240900  0.77240900  0.79968000  1
  Ag  Ag6  1  0.72759100  0.22759100  0.79968000  1
  Ag  Ag7  1  0.27240900  0.22759100  0.79968000  1
  Ag  Ag8  1  0.00000000  0.50000000  0.46176000  1
  Ag  Ag9  1  0.50000000  0.00000000  0.53824000  1
  Te  Te0  1  0.00000000  0.50000000  0.00545100  1
  Te  Te1  1  0.50000000  0.00000000  0.99454900  1
  P  P0  1  0.50000000  0.50000000  0.50000000  1
  P  P1  1  0.00000000  0.00000000  0.50000000  1
  O  O0  1  0.50000000  0.31959300  0.38053500  1
  O  O1  1  0.50000000  0.68040700  0.38053500  1
  O  O2  1  0.81959300  0.00000000  0.38053500  1
  O  O3  1  0.18040700  0.00000000  0.38053500  1
  O  O4  1  0.00000000  0.18040700  0.61946500  1
  O  O5  1  0.00000000  0.81959300  0.61946500  1
  O  O6  1  0.68040700  0.50000000  0.61946500  1
  O  O7  1  0.31959300  0.50000000  0.61946500  1
loop_
_geom_bond_atom_site_label_1
_geom_bond_atom_site_label_2
_geom_bond_distance
_geom_bond_site_symmetry_2
Ag0 O1 2.383309 1_555
Ag0 O2 2.383309 1_565
Ag0 Te0 2.714358 1_655
Ag0 Te1 3.145605 1_564
Ag1 O1 2.383309 1_555
Ag1 O3 2.383309 1_565
Ag1 Te0 2.714358 1_555
Ag1 Te1 3.145605 1_564
Ag2 O0 2.383309 1_555
Ag2 O2 2.383309 1_555
Ag2 Te0 2.714358 1_655
Ag2 Te1 3.145605 1_554
Ag3 O3 2.383309 1_555
Ag3 O0 2.383309 1_555
Ag3 Te0 2.714358 1_555
Ag3 Te1 3.145605 1_554
Ag4 O5 2.383309 1_655
Ag4 O6 2.383309 1_555
Ag4 Te1 2.714358 1_565
Ag4 Te0 3.145605 1_656
Ag5 O5 2.383309 1_555
Ag5 O7 2.383309 1_555
Ag5 Te1 2.714358 1_565
Ag5 Te0 3.145605 1_556
Ag6 O4 2.383309 1_655
Ag6 O6 2.383309 1_555
Ag6 Te1 2.714358 1_555
Ag6 Te0 3.145605 1_656
Ag7 O7 2.383309 1_555
Ag7 O4 2.383309 1_555
Ag7 Te1 2.714358 1_555
Ag7 Te0 3.145605 1_556
Ag8 O6 2.564366 1_455
Ag8 O7 2.564366 1_555
Ag8 O4 2.564366 1_555
Ag8 O5 2.564366 1_555
Ag9 O0 2.564366 1_555
Ag9 O1 2.564366 1_545
Ag9 O2 2.564366 1_555
Ag9 O3 2.564366 1_555
O0 P0 1.562993 1_555
O1 P0 1.562993 1_555
O2 P1 1.562993 1_655
O3 P1 1.562993 1_555
O4 P1 1.562993 1_555
O5 P1 1.562993 1_565
O6 P0 1.562993 1_555
O7 P0 1.562993 1_555
