# generated using pymatgen
data_Nd18Mn49Ni20
_symmetry_space_group_name_H-M   'P 1'
_cell_length_a   8.79716220
_cell_length_b   8.79716220
_cell_length_c   21.53326200
_cell_angle_alpha   90.00000000
_cell_angle_beta   90.00000000
_cell_angle_gamma   120.00000148
_symmetry_Int_Tables_number   1
_chemical_formula_structural   Nd18Mn49Ni20
_chemical_formula_sum   'Nd18 Mn49 Ni20'
_cell_volume   1443.19710292
_cell_formula_units_Z   1
loop_
 _symmetry_equiv_pos_site_id
 _symmetry_equiv_pos_as_xyz
  1  'x, y, z'
loop_
 _atom_site_type_symbol
 _atom_site_label
 _atom_site_symmetry_multiplicity
 _atom_site_fract_x
 _atom_site_fract_y
 _atom_site_fract_z
 _atom_site_occupancy
  Nd  Nd0  1  0.46983400  0.53016600  0.23487200  1
  Nd  Nd1  1  0.80358500  0.19641500  0.90188700  1
  Nd  Nd2  1  0.13650900  0.86349100  0.56826100  1
  Nd  Nd3  1  0.19641500  0.39282900  0.09811300  1
  Nd  Nd4  1  0.53016600  0.06033200  0.76512800  1
  Nd  Nd5  1  0.86349100  0.72698200  0.43173900  1
  Nd  Nd6  1  0.06033200  0.53016600  0.23487200  1
  Nd  Nd7  1  0.39282900  0.19641500  0.90188700  1
  Nd  Nd8  1  0.72698200  0.86349100  0.56826100  1
  Nd  Nd9  1  0.19641500  0.80358500  0.09811300  1
  Nd  Nd10  1  0.53016600  0.46983400  0.76512800  1
  Nd  Nd11  1  0.86349100  0.13650900  0.43173900  1
  Nd  Nd12  1  0.46983400  0.93966800  0.23487200  1
  Nd  Nd13  1  0.80358500  0.60717100  0.90188700  1
  Nd  Nd14  1  0.13650900  0.27301800  0.56826100  1
  Nd  Nd15  1  0.60717100  0.80358500  0.09811300  1
  Nd  Nd16  1  0.93966800  0.46983400  0.76512800  1
  Nd  Nd17  1  0.27301800  0.13650900  0.43173900  1
  Mn  Mn0  1  0.82714100  0.65428200  0.29308400  1
  Mn  Mn1  1  0.16135100  0.32270300  0.95982900  1
  Mn  Mn2  1  0.49381200  0.98762500  0.62660700  1
  Mn  Mn3  1  0.82714100  0.17285900  0.29308400  1
  Mn  Mn4  1  0.16135100  0.83864900  0.95982900  1
  Mn  Mn5  1  0.49381200  0.50618800  0.62660700  1
  Mn  Mn6  1  0.00000000  0.00000000  0.12086600  1
  Mn  Mn7  1  0.33333300  0.66666700  0.78700200  1
  Mn  Mn8  1  0.66666700  0.33333300  0.45355700  1
  Mn  Mn9  1  0.34571800  0.17285900  0.29308400  1
  Mn  Mn10  1  0.67729700  0.83864900  0.95982900  1
  Mn  Mn11  1  0.01237500  0.50618800  0.62660700  1
  Mn  Mn12  1  0.83864900  0.67729700  0.04017100  1
  Mn  Mn13  1  0.17285900  0.34571800  0.70691600  1
  Mn  Mn14  1  0.50618800  0.01237500  0.37339300  1
  Mn  Mn15  1  0.83864900  0.16135100  0.04017100  1
  Mn  Mn16  1  0.17285900  0.82714100  0.70691600  1
  Mn  Mn17  1  0.50618800  0.49381200  0.37339300  1
  Mn  Mn18  1  0.66666700  0.33333300  0.21299800  1
  Mn  Mn19  1  0.00000000  0.00000000  0.87913400  1
  Mn  Mn20  1  0.33333300  0.66666700  0.54644300  1
  Mn  Mn21  1  0.32270300  0.16135100  0.04017100  1
  Mn  Mn22  1  0.65428200  0.82714100  0.70691600  1
  Mn  Mn23  1  0.98762500  0.49381200  0.37339300  1
  Mn  Mn24  1  0.09680700  0.19361400  0.22560800  1
  Mn  Mn25  1  0.43046800  0.86093600  0.89254300  1
  Mn  Mn26  1  0.76345600  0.52691300  0.55915600  1
  Mn  Mn27  1  0.09680700  0.90319300  0.22560800  1
  Mn  Mn28  1  0.43046800  0.56953200  0.89254300  1
  Mn  Mn29  1  0.76345600  0.23654400  0.55915600  1
  Mn  Mn30  1  0.00000000  0.00000000  0.32267100  1
  Mn  Mn31  1  0.33333300  0.66666700  0.98949700  1
  Mn  Mn32  1  0.66666700  0.33333300  0.65599900  1
  Mn  Mn33  1  0.80638600  0.90319300  0.22560800  1
  Mn  Mn34  1  0.13906400  0.56953200  0.89254300  1
  Mn  Mn35  1  0.47308700  0.23654400  0.55915600  1
  Mn  Mn36  1  0.56953200  0.13906400  0.10745700  1
  Mn  Mn37  1  0.90319300  0.80638600  0.77439200  1
  Mn  Mn38  1  0.23654400  0.47308700  0.44084400  1
  Mn  Mn39  1  0.56953200  0.43046800  0.10745700  1
  Mn  Mn40  1  0.90319300  0.09680700  0.77439200  1
  Mn  Mn41  1  0.23654400  0.76345600  0.44084400  1
  Mn  Mn42  1  0.66666700  0.33333300  0.01050300  1
  Mn  Mn43  1  0.00000000  0.00000000  0.67732900  1
  Mn  Mn44  1  0.33333300  0.66666700  0.34400100  1
  Mn  Mn45  1  0.86093600  0.43046800  0.10745700  1
  Mn  Mn46  1  0.19361400  0.09680700  0.77439200  1
  Mn  Mn47  1  0.52691300  0.76345600  0.44084400  1
  Mn  Mn48  1  0.00000000  0.00000000  0.00000000  1
  Ni  Ni0  1  0.16659400  0.83340600  0.33323800  1
  Ni  Ni1  1  0.50000000  0.50000000  0.00000000  1
  Ni  Ni2  1  0.83340600  0.16659400  0.66676200  1
  Ni  Ni3  1  0.83327100  0.66654100  0.16653300  1
  Ni  Ni4  1  0.16672900  0.33345900  0.83346700  1
  Ni  Ni5  1  0.50000000  0.00000000  0.50000000  1
  Ni  Ni6  1  0.66681200  0.83340600  0.33323800  1
  Ni  Ni7  1  0.00000000  0.50000000  0.00000000  1
  Ni  Ni8  1  0.33318800  0.16659400  0.66676200  1
  Ni  Ni9  1  0.83327100  0.16672900  0.16653300  1
  Ni  Ni10  1  0.16672900  0.83327100  0.83346700  1
  Ni  Ni11  1  0.50000000  0.50000000  0.50000000  1
  Ni  Ni12  1  0.50000000  0.00000000  0.00000000  1
  Ni  Ni13  1  0.83340600  0.66681200  0.66676200  1
  Ni  Ni14  1  0.16659400  0.33318800  0.33323800  1
  Ni  Ni15  1  0.33345900  0.16672900  0.16653300  1
  Ni  Ni16  1  0.66654100  0.83327100  0.83346700  1
  Ni  Ni17  1  0.00000000  0.50000000  0.50000000  1
  Ni  Ni18  1  0.33333300  0.66666700  0.66680300  1
  Ni  Ni19  1  0.66666700  0.33333300  0.33319700  1
loop_
_geom_bond_atom_site_label_1
_geom_bond_atom_site_label_2
_geom_bond_distance
_geom_bond_site_symmetry_2
Nd0 Ni14 3.159590 1_555
Nd0 Ni6 3.159590 1_555
Nd0 Ni3 3.160893 1_555
Nd0 Ni15 3.160893 1_555
Nd1 Ni7 3.157054 1_656
Nd1 Ni12 3.157054 1_556
Nd1 Ni4 3.158853 1_655
Nd1 Ni16 3.158853 1_545
Nd2 Ni5 3.160353 1_565
Nd2 Ni17 3.160353 1_555
Nd2 Ni8 3.160522 1_565
Nd2 Ni13 3.160522 1_455
Nd3 Ni1 3.157053 1_555
Nd3 Ni7 3.157059 1_555
Nd3 Ni9 3.158853 1_455
Nd3 Ni15 3.158853 1_555
Nd4 Ni2 3.159590 1_555
Nd4 Ni8 3.159591 1_555
Nd4 Ni16 3.160886 1_545
Nd4 Ni10 3.160892 1_545
Nd5 Ni11 3.160353 1_555
Nd5 Ni17 3.160353 1_655
Nd5 Ni0 3.160522 1_655
Nd5 Ni6 3.160522 1_555
Nd6 Ni0 3.159590 1_555
Nd6 Ni14 3.159591 1_555
Nd6 Ni3 3.160886 1_455
Nd6 Ni9 3.160892 1_455
Nd7 Ni1 3.157053 1_556
Nd7 Ni12 3.157059 1_556
Nd7 Ni10 3.158853 1_545
Nd7 Ni4 3.158853 1_555
Nd8 Ni11 3.160353 1_555
Nd8 Ni5 3.160353 1_565
Nd8 Ni2 3.160522 1_565
Nd8 Ni13 3.160522 1_555
Nd9 Ni12 3.157054 1_565
Nd9 Ni7 3.157054 1_555
Nd9 Ni15 3.158853 1_565
Nd9 Ni3 3.158853 1_455
Nd10 Ni13 3.159590 1_555
Nd10 Ni8 3.159590 1_555
Nd10 Ni16 3.160893 1_555
Nd10 Ni4 3.160893 1_555
Nd11 Ni17 3.160353 1_655
Nd11 Ni5 3.160353 1_555
Nd11 Ni14 3.160522 1_655
Nd11 Ni6 3.160522 1_545
Nd12 Ni0 3.159590 1_555
Nd12 Ni6 3.159591 1_555
Nd12 Ni15 3.160886 1_565
Nd12 Ni9 3.160892 1_565
Nd13 Ni1 3.157053 1_556
Nd13 Ni7 3.157059 1_656
Nd13 Ni10 3.158853 1_655
Nd13 Ni16 3.158853 1_555
Nd14 Ni11 3.160353 1_555
Nd14 Ni17 3.160353 1_555
Nd14 Ni2 3.160522 1_455
Nd14 Ni8 3.160522 1_555
Nd15 Ni1 3.157053 1_555
Nd15 Ni12 3.157059 1_565
Nd15 Ni9 3.158853 1_565
Nd15 Ni3 3.158853 1_555
Nd16 Ni2 3.159590 1_555
Nd16 Ni13 3.159591 1_555
Nd16 Ni4 3.160886 1_655
Nd16 Ni10 3.160892 1_655
Nd17 Ni11 3.160353 1_555
Nd17 Ni5 3.160353 1_555
Nd17 Ni0 3.160522 1_545
Nd17 Ni14 3.160522 1_555
Mn0 Ni19 2.593251 1_555
Mn0 Mn27 2.709082 1_655
Mn0 Mn33 2.709082 1_555
Mn0 Mn30 2.709834 1_665
Mn0 Ni3 2.726656 1_555
Mn0 Ni0 2.728112 1_655
Mn0 Ni6 2.728112 1_555
Mn0 Mn18 2.992124 1_555
Mn0 Mn17 2.994919 1_555
Mn0 Mn23 2.994925 1_555
Mn0 Nd0 3.035066 1_555
Mn0 Nd6 3.035066 1_655
Mn0 Nd5 3.036633 1_555
Mn1 Mn48 2.606269 1_556
Mn1 Mn31 2.697260 1_555
Mn1 Mn34 2.697851 1_555
Mn1 Mn28 2.697855 1_555
Mn1 Ni7 2.722063 1_556
Mn1 Ni1 2.722070 1_556
Mn1 Ni4 2.722220 1_555
Mn1 Mn15 3.006217 1_456
Mn1 Mn21 3.006229 1_556
Mn1 Mn19 3.010604 1_555
Mn1 Nd3 3.025254 1_556
Mn1 Nd1 3.033155 1_455
Mn1 Nd7 3.033155 1_555
Mn2 Ni18 2.593911 1_555
Mn2 Mn29 2.708728 1_565
Mn2 Mn35 2.708728 1_565
Mn2 Mn32 2.708776 1_565
Mn2 Ni5 2.727891 1_565
Mn2 Ni8 2.729071 1_565
Mn2 Ni2 2.729078 1_565
Mn2 Mn20 2.993148 1_555
Mn2 Mn22 2.994925 1_555
Mn2 Nd4 3.033806 1_565
Mn2 Nd2 3.036204 1_555
Mn2 Nd8 3.036211 1_555
Mn3 Ni19 2.593244 1_555
Mn3 Mn33 2.709082 1_545
Mn3 Mn30 2.709834 1_655
Mn3 Ni9 2.726656 1_555
Mn3 Ni14 2.728112 1_655
Mn3 Ni6 2.728112 1_545
Mn3 Nd12 3.035066 1_545
Mn3 Nd6 3.035066 1_655
Mn3 Nd11 3.036633 1_555
Mn4 Mn48 2.606262 1_566
Mn4 Ni7 2.722071 1_556
Mn4 Ni12 2.722071 1_566
Mn4 Ni10 2.722220 1_555
Mn4 Nd9 3.025257 1_556
Mn4 Nd7 3.033155 1_565
Mn4 Nd13 3.033155 1_455
Mn5 Ni18 2.593911 1_555
Mn5 Ni11 2.727892 1_555
Mn5 Ni8 2.729078 1_555
Mn5 Ni13 2.729078 1_555
Mn5 Nd10 3.033808 1_555
Mn5 Nd14 3.036205 1_555
Mn5 Nd8 3.036205 1_555
Mn6 Ni9 2.724150 1_455
Mn6 Ni3 2.724157 1_445
Mn6 Ni15 2.724157 1_555
Mn6 Nd3 3.032633 1_555
Mn6 Nd15 3.032633 1_445
Mn6 Nd9 3.032640 1_545
Mn7 Ni18 2.588277 1_555
Mn7 Ni4 2.728628 1_555
Mn7 Ni16 2.728628 1_555
Mn7 Ni10 2.728628 1_555
Mn7 Nd16 3.035924 1_455
Mn7 Nd4 3.035924 1_565
Mn7 Nd10 3.035932 1_555
Mn8 Ni19 2.591743 1_555
Mn8 Ni17 2.729340 1_655
Mn8 Ni5 2.729340 1_555
Mn8 Ni11 2.729347 1_555
Mn8 Nd11 3.035609 1_555
Mn8 Nd17 3.035617 1_555
Mn8 Nd5 3.035617 1_555
Mn9 Ni19 2.593251 1_555
Mn9 Ni15 2.726656 1_555
Mn9 Ni0 2.728112 1_545
Mn9 Ni14 2.728112 1_555
Mn9 Nd0 3.035066 1_555
Mn9 Nd12 3.035066 1_545
Mn9 Nd17 3.036633 1_555
Mn10 Mn48 2.606269 1_666
Mn10 Mn31 2.697260 1_555
Mn10 Mn25 2.697851 1_555
Mn10 Mn28 2.697855 1_555
Mn10 Ni12 2.722063 1_566
Mn10 Ni1 2.722070 1_556
Mn10 Ni16 2.722220 1_555
Mn10 Mn15 3.006217 1_566
Mn10 Mn12 3.006229 1_556
Mn10 Mn19 3.010604 1_665
Mn10 Nd15 3.025254 1_556
Mn10 Nd1 3.033155 1_565
Mn10 Nd13 3.033155 1_555
Mn11 Ni18 2.593911 1_555
Mn11 Mn29 2.708728 1_455
Mn11 Mn26 2.708728 1_455
Mn11 Mn32 2.708776 1_455
Mn11 Ni17 2.727891 1_555
Mn11 Ni13 2.729071 1_455
Mn11 Ni2 2.729078 1_455
Mn11 Mn20 2.993148 1_555
Mn11 Mn16 2.994919 1_555
Mn11 Mn13 2.994925 1_555
Mn11 Nd16 3.033806 1_455
Mn11 Nd2 3.036204 1_555
Mn11 Nd14 3.036211 1_555
Mn12 Mn48 2.606269 1_665
Mn12 Mn42 2.697260 1_555
Mn12 Mn45 2.697851 1_555
Mn12 Mn39 2.697855 1_555
Mn12 Ni7 2.722063 1_655
Mn12 Ni1 2.722070 1_555
Mn12 Ni3 2.722220 1_555
Mn12 Mn4 3.006217 1_654
Mn12 Mn6 3.010604 1_665
Mn12 Nd13 3.025254 1_554
Mn12 Nd9 3.033155 1_655
Mn12 Nd15 3.033155 1_555
Mn13 Ni18 2.593251 1_555
Mn13 Mn40 2.709082 1_455
Mn13 Mn46 2.709082 1_555
Mn13 Mn43 2.709834 1_555
Mn13 Ni4 2.726656 1_555
Mn13 Ni2 2.728112 1_455
Mn13 Ni8 2.728112 1_555
Mn13 Mn7 2.992124 1_555
Mn13 Mn5 2.994919 1_555
Mn13 Nd10 3.035066 1_555
Mn13 Nd16 3.035066 1_455
Mn13 Nd14 3.036633 1_555
Mn14 Ni19 2.593911 1_555
Mn14 Mn41 2.708728 1_545
Mn14 Mn47 2.708728 1_545
Mn14 Mn44 2.708776 1_545
Mn14 Ni5 2.727891 1_555
Mn14 Ni6 2.729071 1_545
Mn14 Ni0 2.729078 1_545
Mn14 Mn8 2.993148 1_555
Mn14 Mn3 2.994919 1_555
Mn14 Mn9 2.994925 1_555
Mn14 Nd12 3.033806 1_545
Mn14 Nd11 3.036204 1_555
Mn14 Nd17 3.036211 1_555
Mn15 Mn48 2.606262 1_655
Mn15 Mn42 2.697260 1_555
Mn15 Mn36 2.697858 1_555
Mn15 Mn45 2.697858 1_555
Mn15 Ni12 2.722071 1_555
Mn15 Ni7 2.722071 1_655
Mn15 Ni9 2.722220 1_555
Mn15 Mn6 3.010598 1_655
Mn15 Nd1 3.025257 1_554
Mn15 Nd3 3.033155 1_655
Mn15 Nd15 3.033155 1_545
Mn16 Ni18 2.593244 1_555
Mn16 Mn37 2.709082 1_455
Mn16 Mn46 2.709082 1_565
Mn16 Mn43 2.709834 1_565
Mn16 Ni10 2.726656 1_555
Mn16 Ni8 2.728112 1_565
Mn16 Ni13 2.728112 1_455
Mn16 Mn7 2.992118 1_555
Mn16 Mn2 2.994919 1_555
Mn16 Nd4 3.035066 1_565
Mn16 Nd16 3.035066 1_455
Mn16 Nd2 3.036633 1_555
Mn17 Ni19 2.593911 1_555
Mn17 Mn38 2.708728 1_555
Mn17 Mn47 2.708728 1_555
Mn17 Mn44 2.708791 1_555
Mn17 Ni11 2.727892 1_555
Mn17 Ni14 2.729078 1_555
Mn17 Ni6 2.729078 1_555
Mn17 Mn8 2.993148 1_555
Mn17 Mn9 2.994919 1_555
Mn17 Nd0 3.033808 1_555
Mn17 Nd17 3.036205 1_555
Mn17 Nd5 3.036205 1_555
Mn18 Ni19 2.588277 1_555
Mn18 Mn45 2.712094 1_555
Mn18 Mn36 2.712094 1_555
Mn18 Mn39 2.712098 1_555
Mn18 Ni15 2.728628 1_555
Mn18 Ni3 2.728628 1_555
Mn18 Ni9 2.728628 1_555
Mn18 Mn3 2.992118 1_555
Mn18 Mn9 2.992124 1_555
Mn18 Nd12 3.035924 1_545
Mn18 Nd6 3.035924 1_655
Mn18 Nd0 3.035932 1_555
Mn19 Mn48 2.602639 1_556
Mn19 Mn37 2.694958 1_445
Mn19 Mn46 2.694958 1_555
Mn19 Mn40 2.694958 1_455
Mn19 Ni10 2.724150 1_545
Mn19 Ni16 2.724157 1_445
Mn19 Ni4 2.724157 1_555
Mn19 Mn4 3.010598 1_545
Mn19 Nd13 3.032633 1_445
Mn19 Nd7 3.032633 1_555
Mn19 Nd1 3.032640 1_455
Mn20 Ni18 2.591743 1_555
Mn20 Mn41 2.710272 1_555
Mn20 Mn47 2.710281 1_555
Mn20 Mn38 2.710281 1_555
Mn20 Ni5 2.729340 1_565
Mn20 Ni17 2.729340 1_555
Mn20 Ni11 2.729347 1_555
Mn20 Mn5 2.993148 1_555
Mn20 Nd2 3.035609 1_555
Mn20 Nd14 3.035617 1_555
Mn20 Nd8 3.035617 1_555
Mn21 Mn48 2.606269 1_555
Mn21 Mn42 2.697260 1_555
Mn21 Mn36 2.697851 1_555
Mn21 Mn39 2.697855 1_555
Mn21 Ni12 2.722063 1_555
Mn21 Ni1 2.722070 1_555
Mn21 Ni15 2.722220 1_555
Mn21 Mn4 3.006217 1_544
Mn21 Mn6 3.010604 1_555
Mn21 Nd7 3.025254 1_554
Mn21 Nd9 3.033155 1_545
Mn21 Nd3 3.033155 1_555
Mn22 Ni18 2.593251 1_555
Mn22 Mn40 2.709082 1_565
Mn22 Mn37 2.709082 1_555
Mn22 Mn43 2.709834 1_665
Mn22 Ni16 2.726656 1_555
Mn22 Ni2 2.728112 1_565
Mn22 Ni13 2.728112 1_555
Mn22 Mn7 2.992124 1_555
Mn22 Mn5 2.994919 1_555
Mn22 Nd10 3.035066 1_555
Mn22 Nd4 3.035066 1_565
Mn22 Nd8 3.036633 1_555
Mn23 Ni19 2.593911 1_555
Mn23 Mn41 2.708728 1_655
Mn23 Mn38 2.708728 1_655
Mn23 Mn44 2.708776 1_655
Mn23 Ni17 2.727891 1_655
Mn23 Ni14 2.729071 1_655
Mn23 Ni0 2.729078 1_655
Mn23 Mn8 2.993148 1_555
Mn23 Mn3 2.994919 1_555
Mn23 Nd6 3.033806 1_655
Mn23 Nd11 3.036204 1_555
Mn23 Nd5 3.036211 1_555
Mn24 Ni9 2.549634 1_455
Mn24 Ni15 2.549641 1_555
Mn24 Ni14 2.549923 1_555
Mn24 Mn33 2.554881 1_445
Mn24 Mn27 2.554881 1_545
Mn24 Mn30 2.558174 1_555
Mn24 Mn6 2.694958 1_555
Mn24 Mn3 2.709082 1_455
Mn24 Mn9 2.709082 1_555
Mn24 Nd3 3.136980 1_555
Mn24 Nd0 3.139830 1_555
Mn24 Nd6 3.139830 1_555
Mn25 Ni12 2.544917 1_566
Mn25 Ni16 2.548702 1_555
Mn25 Ni10 2.548710 1_555
Mn25 Mn31 2.559139 1_555
Mn25 Mn34 2.563528 1_555
Mn25 Mn28 2.563528 1_555
Mn25 Mn4 2.697858 1_555
Mn25 Mn7 2.712094 1_555
Mn25 Nd4 3.136140 1_565
Mn25 Nd1 3.136440 1_565
Mn25 Nd7 3.136445 1_565
Mn26 Ni11 2.549808 1_555
Mn26 Ni17 2.549816 1_655
Mn26 Ni13 2.550487 1_555
Mn26 Mn32 2.554155 1_555
Mn26 Mn35 2.554423 1_555
Mn26 Mn29 2.554423 1_555
Mn26 Mn5 2.708728 1_555
Mn26 Mn8 2.710281 1_555
Mn26 Nd5 3.138664 1_555
Mn26 Nd8 3.139837 1_555
Mn26 Nd2 3.139842 1_655
Mn27 Ni15 2.549637 1_565
Mn27 Ni3 2.549637 1_455
Mn27 Ni0 2.549923 1_555
Mn27 Mn33 2.554881 1_455
Mn27 Mn30 2.558174 1_565
Mn27 Mn6 2.694958 1_565
Mn27 Mn9 2.709082 1_565
Mn27 Nd9 3.136983 1_555
Mn27 Nd12 3.139830 1_555
Mn27 Nd6 3.139830 1_555
Mn28 Ni1 2.544917 1_556
Mn28 Ni16 2.548706 1_555
Mn28 Ni4 2.548706 1_555
Mn28 Mn31 2.559143 1_555
Mn28 Mn34 2.563528 1_555
Mn28 Mn7 2.712098 1_555
Mn28 Nd10 3.136140 1_555
Mn28 Nd13 3.136436 1_555
Mn28 Nd7 3.136436 1_555
Mn29 Ni5 2.549811 1_555
Mn29 Ni17 2.549811 1_655
Mn29 Ni2 2.550490 1_555
Mn29 Mn32 2.554146 1_555
Mn29 Mn35 2.554423 1_555
Mn29 Mn8 2.710272 1_555
Mn29 Nd11 3.138668 1_555
Mn29 Nd8 3.139846 1_545
Mn29 Nd14 3.139846 1_655
Mn30 Ni14 2.548593 1_555
Mn30 Ni6 2.548593 1_445
Mn30 Ni0 2.548593 1_545
Mn30 Mn33 2.558174 1_445
Mn30 Mn9 2.709834 1_555
Mn30 Nd17 3.137244 1_555
Mn30 Nd5 3.137244 1_445
Mn30 Nd11 3.137244 1_455
Mn31 Ni7 2.549570 1_556
Mn31 Ni12 2.549570 1_566
Mn31 Ni1 2.549578 1_556
Mn31 Mn34 2.559139 1_555
Mn31 Mn4 2.697260 1_555
Mn31 Nd9 3.134109 1_556
Mn31 Nd15 3.134119 1_556
Mn31 Nd3 3.134119 1_556
Mn32 Ni2 2.551173 1_555
Mn32 Ni13 2.551181 1_555
Mn32 Ni8 2.551181 1_555
Mn32 Mn35 2.554155 1_555
Mn32 Mn5 2.708791 1_555
Mn32 Nd16 3.138141 1_555
Mn32 Nd4 3.138141 1_555
Mn32 Nd10 3.138146 1_555
Mn33 Ni9 2.549634 1_565
Mn33 Ni3 2.549641 1_555
Mn33 Ni6 2.549923 1_555
Mn33 Mn6 2.694958 1_665
Mn33 Nd15 3.136980 1_555
Mn33 Nd0 3.139830 1_555
Mn33 Nd12 3.139830 1_555
Mn34 Ni7 2.544917 1_556
Mn34 Ni4 2.548702 1_555
Mn34 Ni10 2.548710 1_555
Mn34 Mn4 2.697858 1_555
Mn34 Mn7 2.712094 1_555
Mn34 Nd16 3.136140 1_455
Mn34 Nd1 3.136440 1_455
Mn34 Nd13 3.136445 1_455
Mn35 Ni11 2.549808 1_555
Mn35 Ni5 2.549816 1_555
Mn35 Ni8 2.550487 1_555
Mn35 Mn5 2.708728 1_555
Mn35 Mn8 2.710281 1_555
Mn35 Nd17 3.138664 1_555
Mn35 Nd14 3.139837 1_555
Mn35 Nd2 3.139842 1_545
Mn36 Ni12 2.544917 1_555
Mn36 Ni15 2.548702 1_555
Mn36 Ni9 2.548710 1_555
Mn36 Mn42 2.559139 1_555
Mn36 Mn45 2.563528 1_555
Mn36 Mn39 2.563528 1_555
Mn36 Nd12 3.136140 1_545
Mn36 Nd9 3.136440 1_545
Mn36 Nd15 3.136445 1_545
Mn37 Ni10 2.549634 1_655
Mn37 Ni16 2.549641 1_555
Mn37 Ni13 2.549923 1_555
Mn37 Mn46 2.554881 1_665
Mn37 Mn40 2.554881 1_565
Mn37 Mn43 2.558174 1_665
Mn37 Nd13 3.136980 1_555
Mn37 Nd10 3.139830 1_555
Mn37 Nd16 3.139830 1_555
Mn38 Ni11 2.549808 1_555
Mn38 Ni17 2.549816 1_555
Mn38 Ni14 2.550487 1_555
Mn38 Mn44 2.554155 1_555
Mn38 Mn47 2.554423 1_555
Mn38 Mn41 2.554423 1_555
Mn38 Nd14 3.138664 1_555
Mn38 Nd17 3.139837 1_555
Mn38 Nd11 3.139842 1_455
Mn39 Ni1 2.544917 1_555
Mn39 Ni3 2.548706 1_555
Mn39 Ni15 2.548706 1_555
Mn39 Mn42 2.559143 1_555
Mn39 Mn45 2.563528 1_555
Mn39 Nd0 3.136140 1_555
Mn39 Nd15 3.136436 1_555
Mn39 Nd3 3.136436 1_555
Mn40 Ni4 2.549637 1_655
Mn40 Ni16 2.549637 1_545
Mn40 Ni2 2.549923 1_555
Mn40 Mn46 2.554881 1_655
Mn40 Mn43 2.558174 1_655
Mn40 Nd1 3.136983 1_555
Mn40 Nd4 3.139830 1_555
Mn40 Nd16 3.139830 1_555
Mn41 Ni5 2.549811 1_565
Mn41 Ni17 2.549811 1_555
Mn41 Ni0 2.550490 1_555
Mn41 Mn44 2.554146 1_555
Mn41 Mn47 2.554423 1_555
Mn41 Nd2 3.138668 1_555
Mn41 Nd17 3.139846 1_565
Mn41 Nd5 3.139846 1_455
Mn42 Ni12 2.549570 1_555
Mn42 Ni7 2.549570 1_655
Mn42 Ni1 2.549578 1_555
Mn42 Mn45 2.559139 1_555
Mn42 Nd1 3.134109 1_554
Mn42 Nd7 3.134119 1_554
Mn42 Nd13 3.134119 1_554
Mn43 Ni8 2.548593 1_555
Mn43 Ni13 2.548593 1_445
Mn43 Ni2 2.548593 1_455
Mn43 Mn46 2.558174 1_555
Mn43 Nd8 3.137244 1_445
Mn43 Nd14 3.137244 1_555
Mn43 Nd2 3.137244 1_545
Mn44 Ni0 2.551173 1_555
Mn44 Ni6 2.551181 1_555
Mn44 Ni14 2.551181 1_555
Mn44 Mn47 2.554155 1_555
Mn44 Nd12 3.138141 1_555
Mn44 Nd6 3.138141 1_555
Mn44 Nd0 3.138146 1_555
Mn45 Ni7 2.544917 1_655
Mn45 Ni3 2.548702 1_555
Mn45 Ni9 2.548710 1_555
Mn45 Nd6 3.136140 1_655
Mn45 Nd9 3.136440 1_655
Mn45 Nd3 3.136445 1_655
Mn46 Ni10 2.549634 1_545
Mn46 Ni4 2.549641 1_555
Mn46 Ni8 2.549923 1_555
Mn46 Nd7 3.136980 1_555
Mn46 Nd10 3.139830 1_555
Mn46 Nd4 3.139830 1_555
Mn47 Ni11 2.549808 1_555
Mn47 Ni5 2.549816 1_565
Mn47 Ni6 2.550487 1_555
Mn47 Nd8 3.138664 1_555
Mn47 Nd5 3.139837 1_555
Mn47 Nd11 3.139842 1_565
Mn48 Mn6 2.602639 1_555
