# generated using pymatgen
data_LiGeRh2
_symmetry_space_group_name_H-M   'P 1'
_cell_length_a   4.14736918
_cell_length_b   4.14736903
_cell_length_c   4.14737030
_cell_angle_alpha   59.99998990
_cell_angle_beta   59.99999110
_cell_angle_gamma   59.99998817
_symmetry_Int_Tables_number   1
_chemical_formula_structural   LiGeRh2
_chemical_formula_sum   'Li1 Ge1 Rh2'
_cell_volume   50.44325365
_cell_formula_units_Z   1
loop_
 _symmetry_equiv_pos_site_id
 _symmetry_equiv_pos_as_xyz
  1  'x, y, z'
loop_
 _atom_site_type_symbol
 _atom_site_label
 _atom_site_symmetry_multiplicity
 _atom_site_fract_x
 _atom_site_fract_y
 _atom_site_fract_z
 _atom_site_occupancy
  Li  Li0  1  -0.00000000  0.00000000  0.00000000  1
  Ge  Ge0  1  0.50000000  0.50000000  0.50000000  1
  Rh  Rh0  1  0.75000000  0.75000000  0.75000000  1
  Rh  Rh1  1  0.25000000  0.25000000  0.25000000  1
loop_
_geom_bond_atom_site_label_1
_geom_bond_atom_site_label_2
_geom_bond_distance
_geom_bond_site_symmetry_2
Li0 Rh1 2.539734 1_545
Li0 Rh0 2.539734 1_454
Li0 Rh1 2.539734 1_455
Li0 Rh0 2.539734 1_544
Li0 Rh1 2.539735 1_554
Li0 Rh0 2.539735 1_445
Li0 Rh1 2.539735 1_555
Li0 Rh0 2.539735 1_444
Ge0 Rh1 2.539734 1_565
Ge0 Rh0 2.539734 1_545
Ge0 Rh1 2.539734 1_655
Ge0 Rh0 2.539734 1_455
Ge0 Rh0 2.539735 1_555
Ge0 Rh0 2.539735 1_554
Ge0 Rh1 2.539735 1_555
Ge0 Rh1 2.539735 1_556
Ge0 Li0 2.932633 1_665
Ge0 Li0 2.932633 1_556
Ge0 Li0 2.932633 1_565
Ge0 Li0 2.932633 1_566
Ge0 Li0 2.932633 1_656
Ge0 Li0 2.932633 1_655
