# generated using pymatgen
data_Te4MoW3(SeS)2
_symmetry_space_group_name_H-M   'P 1'
_cell_length_a   3.39520407
_cell_length_b   3.39520407
_cell_length_c   38.81539400
_cell_angle_alpha   90.00000000
_cell_angle_beta   90.00000000
_cell_angle_gamma   120.00000143
_symmetry_Int_Tables_number   1
_chemical_formula_structural   Te4MoW3(SeS)2
_chemical_formula_sum   'Te4 Mo1 W3 Se2 S2'
_cell_volume   387.49525685
_cell_formula_units_Z   1
loop_
 _symmetry_equiv_pos_site_id
 _symmetry_equiv_pos_as_xyz
  1  'x, y, z'
loop_
 _atom_site_type_symbol
 _atom_site_label
 _atom_site_symmetry_multiplicity
 _atom_site_fract_x
 _atom_site_fract_y
 _atom_site_fract_z
 _atom_site_occupancy
  Te  Te0  1  0.00000000  0.00000000  0.70620600  1
  Te  Te1  1  0.33333300  0.66666700  0.42129200  1
  Te  Te2  1  0.33333300  0.66666700  0.51776100  1
  Te  Te3  1  0.00000000  0.00000000  0.60915100  1
  Mo  Mo0  1  0.00000000  0.00000000  0.46951300  1
  W  W0  1  0.00000000  0.00000000  0.09393600  1
  W  W1  1  0.33333300  0.66666700  0.28175200  1
  W  W2  1  0.33333300  0.66666700  0.65771300  1
  Se  Se0  1  0.00000000  0.00000000  0.32443900  1
  Se  Se1  1  0.00000000  0.00000000  0.23908800  1
  S  S0  1  0.33333300  0.66666700  0.05510300  1
  S  S1  1  0.33333300  0.66666700  0.13279500  1
loop_
_geom_bond_atom_site_label_1
_geom_bond_atom_site_label_2
_geom_bond_distance
_geom_bond_site_symmetry_2
Te0 W2 2.717613 1_545
Te0 W2 2.717615 1_555
Te0 W2 2.717615 1_445
Te3 W2 2.719469 1_545
Te3 W2 2.719471 1_555
Te3 W2 2.719471 1_445
Mo0 Te1 2.710311 1_545
Mo0 Te1 2.710313 1_555
Mo0 Te1 2.710313 1_445
Mo0 Te2 2.711035 1_545
Mo0 Te2 2.711037 1_445
Mo0 Te2 2.711037 1_555
Se0 W1 2.566675 1_545
Se0 W1 2.566678 1_555
Se0 W1 2.566678 1_445
Se1 W1 2.566099 1_545
Se1 W1 2.566101 1_555
Se1 W1 2.566101 1_445
S0 W0 2.472746 1_565
S0 W0 2.472748 1_555
S0 W0 2.472748 1_665
S1 W0 2.473361 1_565
S1 W0 2.473363 1_555
S1 W0 2.473363 1_665
