# generated using pymatgen
data_Co4(CuO4)3
_symmetry_space_group_name_H-M   'P 1'
_cell_length_a   6.23350912
_cell_length_b   6.22725458
_cell_length_c   6.23386820
_cell_angle_alpha   71.73026451
_cell_angle_beta   109.72398500
_cell_angle_gamma   69.45875428
_symmetry_Int_Tables_number   1
_chemical_formula_structural   Co4(CuO4)3
_chemical_formula_sum   'Co4 Cu3 O12'
_cell_volume   185.94397295
_cell_formula_units_Z   1
loop_
 _symmetry_equiv_pos_site_id
 _symmetry_equiv_pos_as_xyz
  1  'x, y, z'
loop_
 _atom_site_type_symbol
 _atom_site_label
 _atom_site_symmetry_multiplicity
 _atom_site_fract_x
 _atom_site_fract_y
 _atom_site_fract_z
 _atom_site_occupancy
  Co  Co0  1  0.00005000  0.49996800  0.00007600  1
  Co  Co1  1  0.00010100  0.99996900  0.50002900  1
  Co  Co2  1  0.49992800  0.49999500  0.49996300  1
  Co  Co3  1  0.49995800  0.00003300  0.99987200  1
  Cu  Cu0  1  0.50023000  0.99987700  0.50009700  1
  Cu  Cu1  1  0.99986500  0.50016100  0.50002900  1
  Cu  Cu2  1  0.49995500  0.49992600  0.00009900  1
  O  O0  1  0.17923800  0.13706700  0.67364000  1
  O  O1  1  0.82064900  0.86312000  0.32628400  1
  O  O2  1  0.18253100  0.50123800  0.31953800  1
  O  O3  1  0.31408700  0.18348000  0.13428700  1
  O  O4  1  0.86385400  0.29489000  0.19242100  1
  O  O5  1  0.50315100  0.33172600  0.80443600  1
  O  O6  1  0.69149300  0.17191700  0.52487900  1
  O  O7  1  0.13627000  0.70495600  0.80755100  1
  O  O8  1  0.81730100  0.49889400  0.68050100  1
  O  O9  1  0.68598200  0.81646400  0.86572100  1
  O  O10  1  0.49685000  0.66822400  0.19556200  1
  O  O11  1  0.30850800  0.82809400  0.47501500  1
loop_
_geom_bond_atom_site_label_1
_geom_bond_atom_site_label_2
_geom_bond_distance
_geom_bond_site_symmetry_2
Co0 O9 1.889231 1_454
Co0 O3 1.889313 1_555
Co0 O2 1.935749 1_555
Co0 O8 1.936089 1_454
Co0 O4 2.068161 1_455
Co0 O7 2.068549 1_554
Co1 O4 1.835599 1_465
Co1 O7 1.835701 1_555
Co1 O0 1.892011 1_565
Co1 O1 1.892233 1_455
Co1 O11 1.930995 1_555
Co1 O6 1.931534 1_465
Co2 O5 1.847559 1_555
Co2 O10 1.847603 1_555
Co2 O11 1.893966 1_555
Co2 O6 1.894154 1_555
Co2 O2 1.913459 1_555
Co2 O8 1.913982 1_555
Co3 O9 1.916885 1_545
Co3 O3 1.917334 1_556
Co3 O0 1.957373 1_555
Co3 O1 1.958093 1_546
Co3 O5 2.053916 1_555
Co3 O10 2.054658 1_546
Cu0 O6 1.862490 1_565
Cu0 O11 1.863587 1_555
Cu0 O9 1.870453 1_555
Cu0 O3 1.871400 1_565
Cu1 O1 1.845598 1_555
Cu1 O0 1.846274 1_655
Cu1 O8 1.850883 1_555
Cu1 O2 1.851467 1_655
Cu2 O7 1.838889 1_554
Cu2 O4 1.839891 1_555
Cu2 O10 1.840060 1_555
Cu2 O5 1.840661 1_554
