# generated using pymatgen
data_Ta3Co8Si
_symmetry_space_group_name_H-M   'P 1'
_cell_length_a   4.74199377
_cell_length_b   4.74199377
_cell_length_c   7.67875700
_cell_angle_alpha   90.00000000
_cell_angle_beta   90.00000000
_cell_angle_gamma   119.99999675
_symmetry_Int_Tables_number   1
_chemical_formula_structural   Ta3Co8Si
_chemical_formula_sum   'Ta3 Co8 Si1'
_cell_volume   149.53523164
_cell_formula_units_Z   1
loop_
 _symmetry_equiv_pos_site_id
 _symmetry_equiv_pos_as_xyz
  1  'x, y, z'
loop_
 _atom_site_type_symbol
 _atom_site_label
 _atom_site_symmetry_multiplicity
 _atom_site_fract_x
 _atom_site_fract_y
 _atom_site_fract_z
 _atom_site_occupancy
  Ta  Ta0  1  0.66666700  0.33333300  0.55487900  1
  Ta  Ta1  1  0.66666700  0.33333300  0.92759800  1
  Ta  Ta2  1  0.00000000  0.00000000  0.08987300  1
  Co  Co0  1  0.33333300  0.66666700  0.49546800  1
  Co  Co1  1  0.33333300  0.66666700  0.99399800  1
  Co  Co2  1  0.99731700  0.49865900  0.24792400  1
  Co  Co3  1  0.50134100  0.49865900  0.24792400  1
  Co  Co4  1  0.50134100  0.00268300  0.24792400  1
  Co  Co5  1  0.67142700  0.83571400  0.74609400  1
  Co  Co6  1  0.16428600  0.83571400  0.74609400  1
  Co  Co7  1  0.16428600  0.32857300  0.74609400  1
  Si  Si0  1  0.00000000  0.00000000  0.45596300  1
loop_
_geom_bond_atom_site_label_1
_geom_bond_atom_site_label_2
_geom_bond_distance
_geom_bond_site_symmetry_2
Ta0 Ta1 2.862019 1_555
Ta1 Ta2 3.008019 1_656
Ta1 Ta2 3.008023 1_666
Ta1 Ta2 3.008023 1_556
Co0 Co3 2.348896 1_555
Co0 Co4 2.348896 1_565
Co0 Co2 2.348896 1_455
Co0 Co6 2.373072 1_555
Co0 Co5 2.373072 1_555
Co0 Co7 2.373072 1_555
Co0 Si0 2.754543 1_565
Co0 Si0 2.754547 1_665
Co0 Si0 2.754547 1_555
Co0 Ta0 2.775537 1_455
Co0 Ta0 2.775537 1_565
Co0 Ta0 2.775545 1_555
Co1 Co6 2.356153 1_555
Co1 Co5 2.356153 1_555
Co1 Co7 2.356153 1_555
Co1 Co3 2.388728 1_556
Co1 Co2 2.388728 1_456
Co1 Co4 2.388728 1_566
Co1 Ta1 2.784862 1_455
Co1 Ta1 2.784862 1_565
Co1 Ta1 2.784870 1_555
Co1 Ta2 2.835045 1_566
Co1 Ta2 2.835049 1_666
Co1 Ta2 2.835049 1_556
Co2 Co3 2.351915 1_555
Co2 Co4 2.351915 1_555
Co2 Co3 2.390079 1_655
Co2 Co4 2.390079 1_665
Co2 Ta2 2.663578 1_665
Co2 Ta2 2.663582 1_655
Co2 Ta0 2.720190 1_555
Co2 Ta1 2.809623 1_554
Co2 Si0 2.858965 1_665
Co2 Si0 2.858969 1_655
Co3 Co4 2.351915 1_555
Co3 Co4 2.390079 1_565
Co3 Ta2 2.663580 1_555
Co3 Ta2 2.663580 1_665
Co3 Ta0 2.720194 1_555
Co3 Ta1 2.809626 1_554
Co3 Si0 2.858967 1_555
Co3 Si0 2.858967 1_665
Co4 Ta2 2.663578 1_555
Co4 Ta2 2.663582 1_655
Co4 Ta0 2.720190 1_555
Co4 Ta1 2.809623 1_554
Co4 Si0 2.858965 1_555
Co4 Si0 2.858969 1_655
Co5 Co6 2.337134 1_655
Co5 Co7 2.337134 1_665
Co5 Co6 2.404859 1_555
Co5 Co7 2.404860 1_555
Co5 Si0 2.604617 1_665
Co5 Ta1 2.750356 1_565
Co5 Ta1 2.750364 1_555
Co5 Ta0 2.788884 1_565
Co5 Ta0 2.788892 1_555
Co5 Ta2 2.964668 1_666
Co6 Co7 2.337134 1_565
Co6 Co7 2.404859 1_555
Co6 Si0 2.604615 1_565
Co6 Ta1 2.750360 1_565
Co6 Ta1 2.750360 1_455
Co6 Ta0 2.788888 1_455
Co6 Ta0 2.788888 1_565
Co6 Ta2 2.964666 1_566
Co7 Si0 2.604617 1_555
Co7 Ta1 2.750356 1_455
Co7 Ta1 2.750364 1_555
Co7 Ta0 2.788884 1_455
Co7 Ta0 2.788892 1_555
Co7 Ta2 2.964668 1_556
Si0 Ta2 2.811116 1_555
Si0 Ta0 2.841198 1_455
Si0 Ta0 2.841202 1_445
Si0 Ta0 2.841202 1_555
