# generated using pymatgen
data_Mn2Al3Si3O14
_symmetry_space_group_name_H-M   'P 1'
_cell_length_a   5.76076900
_cell_length_b   8.57395800
_cell_length_c   9.96722933
_cell_angle_alpha   71.07271162
_cell_angle_beta   90.00000000
_cell_angle_gamma   90.00000000
_symmetry_Int_Tables_number   1
_chemical_formula_structural   Mn2Al3Si3O14
_chemical_formula_sum   'Mn4 Al6 Si6 O28'
_cell_volume   465.68871332
_cell_formula_units_Z   2
loop_
 _symmetry_equiv_pos_site_id
 _symmetry_equiv_pos_as_xyz
  1  'x, y, z'
loop_
 _atom_site_type_symbol
 _atom_site_label
 _atom_site_symmetry_multiplicity
 _atom_site_fract_x
 _atom_site_fract_y
 _atom_site_fract_z
 _atom_site_occupancy
  Mn  Mn0  1  0.25000000  0.19269100  0.69464900  1
  Mn  Mn1  1  0.75000000  0.80730900  0.30535100  1
  Mn  Mn2  1  0.25000000  0.25679100  0.32186700  1
  Mn  Mn3  1  0.75000000  0.74320900  0.67813300  1
  Al  Al0  1  0.50000000  0.00000000  0.00000000  1
  Al  Al1  1  0.00000000  0.00000000  0.00000000  1
  Al  Al2  1  0.50000000  0.50000000  0.50000000  1
  Al  Al3  1  0.00000000  0.50000000  0.50000000  1
  Al  Al4  1  0.50000000  0.50000000  0.00000000  1
  Al  Al5  1  0.00000000  0.50000000  0.00000000  1
  Si  Si0  1  0.25000000  0.69077800  0.19474500  1
  Si  Si1  1  0.75000000  0.30922200  0.80525500  1
  Si  Si2  1  0.25000000  0.84975500  0.49422200  1
  Si  Si3  1  0.75000000  0.15024500  0.50577800  1
  Si  Si4  1  0.25000000  0.79599900  0.80314000  1
  Si  Si5  1  0.75000000  0.20400100  0.19686000  1
  O  O0  1  0.25000000  0.55330800  0.35636100  1
  O  O1  1  0.75000000  0.44669200  0.64363900  1
  O  O2  1  0.47664900  0.81328600  0.16862800  1
  O  O3  1  0.52335100  0.18671400  0.83137200  1
  O  O4  1  0.97664900  0.18671400  0.83137200  1
  O  O5  1  0.02335100  0.81328600  0.16862800  1
  O  O6  1  0.25000000  0.59375500  0.07898500  1
  O  O7  1  0.75000000  0.40624500  0.92101500  1
  O  O8  1  0.25000000  0.92996800  0.89052100  1
  O  O9  1  0.75000000  0.07003200  0.10947900  1
  O  O10  1  0.25000000  0.09105300  0.06167700  1
  O  O11  1  0.75000000  0.90894700  0.93832300  1
  O  O12  1  0.25000000  0.01166400  0.35938000  1
  O  O13  1  0.75000000  0.98833600  0.64062000  1
  O  O14  1  0.98325300  0.31956200  0.17187600  1
  O  O15  1  0.01674700  0.68043800  0.82812400  1
  O  O16  1  0.48325300  0.68043800  0.82812400  1
  O  O17  1  0.51674700  0.31956200  0.17187600  1
  O  O18  1  0.25000000  0.42964600  0.62106100  1
  O  O19  1  0.75000000  0.57035400  0.37893900  1
  O  O20  1  0.48731800  0.73081500  0.50596000  1
  O  O21  1  0.51268200  0.26918500  0.49404000  1
  O  O22  1  0.98731800  0.26918500  0.49404000  1
  O  O23  1  0.01268200  0.73081500  0.50596000  1
  O  O24  1  0.25000000  0.41241000  0.93046100  1
  O  O25  1  0.75000000  0.58759000  0.06953900  1
  O  O26  1  0.25000000  0.91512600  0.63558600  1
  O  O27  1  0.75000000  0.08487400  0.36441400  1
loop_
_geom_bond_atom_site_label_1
_geom_bond_atom_site_label_2
_geom_bond_distance
_geom_bond_site_symmetry_2
Mn0 O18 1.923236 1_555
Mn0 O4 2.072227 1_455
Mn0 O3 2.072227 1_555
Mn0 O21 2.422269 1_555
Mn0 O22 2.422269 1_455
Mn0 O8 2.456141 1_545
Mn0 O26 2.630405 1_545
Mn1 O19 1.923236 1_555
Mn1 O5 2.072227 1_655
Mn1 O2 2.072227 1_555
Mn1 O23 2.422269 1_655
Mn1 O20 2.422269 1_555
Mn1 O9 2.456141 1_565
Mn1 O27 2.630405 1_565
Mn2 O12 2.011762 1_555
Mn2 O17 2.089028 1_555
Mn2 O14 2.089028 1_455
Mn2 O21 2.316135 1_555
Mn2 O22 2.316135 1_455
Mn2 O0 2.673698 1_555
Mn3 O13 2.011762 1_555
Mn3 O15 2.089028 1_655
Mn3 O16 2.089028 1_555
Mn3 O23 2.316135 1_655
Mn3 O20 2.316135 1_555
Mn3 O1 2.673698 1_555
Al0 O10 1.836541 1_555
Al0 O11 1.836541 1_544
Al0 O3 1.913190 1_554
Al0 O2 1.913190 1_545
Al0 O9 2.012580 1_555
Al0 O8 2.012580 1_544
Al1 O10 1.836541 1_555
Al1 O11 1.836541 1_444
Al1 O4 1.913190 1_454
Al1 O5 1.913190 1_545
Al1 O9 2.012580 1_455
Al1 O8 2.012580 1_544
Al2 O18 1.849815 1_555
Al2 O19 1.849815 1_555
Al2 O1 1.976933 1_555
Al2 O0 1.976933 1_555
Al2 O20 2.000392 1_555
Al2 O21 2.000392 1_555
Al3 O18 1.849815 1_555
Al3 O19 1.849815 1_455
Al3 O1 1.976933 1_455
Al3 O0 1.976933 1_555
Al3 O23 2.000392 1_555
Al3 O22 2.000392 1_455
Al4 O24 1.859093 1_554
Al4 O25 1.859093 1_555
Al4 O17 1.902149 1_555
Al4 O16 1.902149 1_554
Al4 O6 1.936662 1_555
Al4 O7 1.936662 1_554
Al5 O24 1.859093 1_554
Al5 O25 1.859093 1_455
Al5 O15 1.902149 1_554
Al5 O14 1.902149 1_455
Al5 O6 1.936662 1_555
Al5 O7 1.936662 1_454
O0 Si0 1.659034 1_555
O1 Si1 1.659034 1_555
O2 Si0 1.642698 1_555
O3 Si1 1.642698 1_555
O4 Si1 1.642698 1_555
O5 Si0 1.642698 1_555
O6 Si0 1.626637 1_555
O7 Si1 1.626637 1_555
O8 Si4 1.651343 1_555
O9 Si5 1.651343 1_555
O12 Si2 1.588416 1_545
O13 Si3 1.588416 1_565
O14 Si5 1.639889 1_555
O15 Si4 1.639889 1_555
O16 Si4 1.639889 1_555
O17 Si5 1.639889 1_555
O20 Si2 1.686804 1_555
O21 Si3 1.686804 1_555
O22 Si3 1.686804 1_555
O23 Si2 1.686804 1_555
O26 Si4 1.650971 1_555
O26 Si2 1.676835 1_555
O27 Si5 1.650971 1_555
O27 Si3 1.676835 1_555
