# generated using pymatgen
data_NaSrZrVO6
_symmetry_space_group_name_H-M   'P 1'
_cell_length_a   5.64886086
_cell_length_b   5.64886086
_cell_length_c   5.64886086
_cell_angle_alpha   60.00000000
_cell_angle_beta   60.00000000
_cell_angle_gamma   60.00000000
_symmetry_Int_Tables_number   1
_chemical_formula_structural   NaSrZrVO6
_chemical_formula_sum   'Na1 Sr1 Zr1 V1 O6'
_cell_volume   127.45815709
_cell_formula_units_Z   1
loop_
 _symmetry_equiv_pos_site_id
 _symmetry_equiv_pos_as_xyz
  1  'x, y, z'
loop_
 _atom_site_type_symbol
 _atom_site_label
 _atom_site_symmetry_multiplicity
 _atom_site_fract_x
 _atom_site_fract_y
 _atom_site_fract_z
 _atom_site_occupancy
  Na  Na0  1  0.75000000  0.75000000  0.75000000  1
  Sr  Sr0  1  0.25000000  0.25000000  0.25000000  1
  Zr  Zr0  1  0.00000000  0.00000000  0.00000000  1
  V  V0  1  0.50000000  0.50000000  0.50000000  1
  O  O0  1  0.73765468  0.26234532  0.26234532  1
  O  O1  1  0.26234532  0.73765468  0.73765468  1
  O  O2  1  0.73765468  0.26234532  0.73765468  1
  O  O3  1  0.26234532  0.73765468  0.26234532  1
  O  O4  1  0.73765468  0.73765468  0.26234532  1
  O  O5  1  0.26234532  0.26234532  0.73765468  1
loop_
_geom_bond_atom_site_label_1
_geom_bond_atom_site_label_2
_geom_bond_distance
_geom_bond_site_symmetry_2
Na0 O2 2.826152 1_555
Na0 O1 2.826152 1_555
Na0 O4 2.826152 1_555
Na0 O0 2.826152 1_565
Na0 O1 2.826152 1_655
Na0 O5 2.826152 1_655
Na0 O5 2.826152 1_565
Na0 O3 2.826152 1_556
Na0 O0 2.826152 1_556
Na0 O3 2.826152 1_655
Na0 O2 2.826152 1_565
Na0 O4 2.826152 1_556
O0 V0 1.898551 1_555
O0 Zr0 2.095797 1_655
O0 Sr0 2.826152 1_555
O0 Sr0 2.826152 1_655
O1 V0 1.898551 1_555
O1 Zr0 2.095797 1_566
O1 Sr0 2.826152 1_556
O1 Sr0 2.826152 1_565
O2 V0 1.898551 1_555
O2 Zr0 2.095797 1_656
O2 Sr0 2.826152 1_556
O2 Sr0 2.826152 1_655
O3 V0 1.898551 1_555
O3 Zr0 2.095797 1_565
O3 Sr0 2.826152 1_555
O3 Sr0 2.826152 1_565
O4 V0 1.898551 1_555
O4 Zr0 2.095797 1_665
O4 Sr0 2.826152 1_655
O4 Sr0 2.826152 1_565
O5 V0 1.898551 1_555
O5 Zr0 2.095797 1_556
O5 Sr0 2.826152 1_555
O5 Sr0 2.826152 1_556
