# generated using pymatgen
data_SmEuHf4O12
_symmetry_space_group_name_H-M   'P 1'
_cell_length_a   5.69875052
_cell_length_b   5.69875052
_cell_length_c   8.12031159
_cell_angle_alpha   90.00000000
_cell_angle_beta   90.00000000
_cell_angle_gamma   90.45713169
_symmetry_Int_Tables_number   1
_chemical_formula_structural   SmEuHf4O12
_chemical_formula_sum   'Sm1 Eu1 Hf4 O12'
_cell_volume   263.70487675
_cell_formula_units_Z   1
loop_
 _symmetry_equiv_pos_site_id
 _symmetry_equiv_pos_as_xyz
  1  'x, y, z'
loop_
 _atom_site_type_symbol
 _atom_site_label
 _atom_site_symmetry_multiplicity
 _atom_site_fract_x
 _atom_site_fract_y
 _atom_site_fract_z
 _atom_site_occupancy
  Sm  Sm0  1  0.96829643  0.03170357  -0.00000000  1
  Eu  Eu0  1  0.51396738  0.48603262  0.50000000  1
  Hf  Hf0  1  0.48834189  0.98975034  0.25009009  1
  Hf  Hf1  1  0.48834189  0.98975034  0.74990991  1
  Hf  Hf2  1  0.01024966  0.51165811  0.74990991  1
  Hf  Hf3  1  0.01024966  0.51165811  0.25009009  1
  O  O0  1  0.30349953  0.29934500  0.27092916  1
  O  O1  1  0.70065500  0.69650047  0.27092916  1
  O  O2  1  0.70065500  0.69650047  0.72907084  1
  O  O3  1  0.30349953  0.29934500  0.72907084  1
  O  O4  1  0.18379457  0.81620543  0.18914126  1
  O  O5  1  0.78081657  0.21918343  0.27982788  1
  O  O6  1  0.78081657  0.21918343  0.72017212  1
  O  O7  1  0.18379457  0.81620543  0.81085874  1
  O  O8  1  0.57488271  0.00987142  -0.00000000  1
  O  O9  1  0.45976791  0.93635745  0.50000000  1
  O  O10  1  0.99012858  0.42511729  -0.00000000  1
  O  O11  1  0.06364255  0.54023209  0.50000000  1
loop_
_geom_bond_atom_site_label_1
_geom_bond_atom_site_label_2
_geom_bond_distance
_geom_bond_site_symmetry_2
Eu0 O0 2.451557 1_555
Eu0 O3 2.451557 1_555
Eu0 O2 2.451557 1_555
Eu0 O1 2.451557 1_555
Eu0 O11 2.587255 1_555
Eu0 O9 2.587255 1_555
Eu0 O5 2.803296 1_555
Eu0 O6 2.803296 1_555
Eu0 O9 3.145199 1_545
Eu0 O11 3.145199 1_655
Hf0 O4 2.051282 1_555
Hf0 O9 2.058289 1_555
Hf0 O0 2.068972 1_565
Hf0 O1 2.077877 1_555
Hf0 O8 2.092762 1_565
Hf0 O5 2.123928 1_565
Hf1 O7 2.051282 1_555
Hf1 O9 2.058289 1_555
Hf1 O3 2.068972 1_565
Hf1 O2 2.077877 1_555
Hf1 O8 2.092762 1_566
Hf1 O6 2.123928 1_565
Hf2 O7 2.051282 1_555
Hf2 O11 2.058289 1_555
Hf2 O2 2.068972 1_455
Hf2 O3 2.077877 1_555
Hf2 O10 2.092762 1_456
Hf2 O6 2.123928 1_455
Hf3 O4 2.051282 1_555
Hf3 O11 2.058289 1_555
Hf3 O1 2.068972 1_455
Hf3 O0 2.077877 1_555
Hf3 O10 2.092762 1_455
Hf3 O5 2.123928 1_455
O4 Sm0 2.323644 1_465
O5 Sm0 2.732119 1_555
O6 Sm0 2.732119 1_556
O7 Sm0 2.323644 1_466
O8 Sm0 2.244425 1_555
O10 Sm0 2.244425 1_555
