# generated using pymatgen
data_Ca5Cr3O13
_symmetry_space_group_name_H-M   'P 1'
_cell_length_a   6.96198100
_cell_length_b   9.82716000
_cell_length_c   9.95544163
_cell_angle_alpha   61.09120082
_cell_angle_beta   90.00000000
_cell_angle_gamma   90.00000000
_symmetry_Int_Tables_number   1
_chemical_formula_structural   Ca5Cr3O13
_chemical_formula_sum   'Ca10 Cr6 O26'
_cell_volume   596.24276109
_cell_formula_units_Z   2
loop_
 _symmetry_equiv_pos_site_id
 _symmetry_equiv_pos_as_xyz
  1  'x, y, z'
loop_
 _atom_site_type_symbol
 _atom_site_label
 _atom_site_symmetry_multiplicity
 _atom_site_fract_x
 _atom_site_fract_y
 _atom_site_fract_z
 _atom_site_occupancy
  Ca  Ca0  1  0.50083400  0.32359900  0.32696900  1
  Ca  Ca1  1  0.00083400  0.67640100  0.67303100  1
  Ca  Ca2  1  0.49916600  0.67640100  0.67303100  1
  Ca  Ca3  1  0.99916600  0.32359900  0.32696900  1
  Ca  Ca4  1  0.75000000  0.99615300  0.22765700  1
  Ca  Ca5  1  0.75000000  0.21812900  0.80074900  1
  Ca  Ca6  1  0.75000000  0.78493000  0.98238000  1
  Ca  Ca7  1  0.25000000  0.00384700  0.77234300  1
  Ca  Ca8  1  0.25000000  0.78187100  0.19925100  1
  Ca  Ca9  1  0.25000000  0.21507000  0.01762000  1
  Cr  Cr0  1  0.75000000  0.62366600  0.40817400  1
  Cr  Cr1  1  0.75000000  0.41060200  0.96758400  1
  Cr  Cr2  1  0.75000000  0.97234000  0.62122000  1
  Cr  Cr3  1  0.25000000  0.37633400  0.59182600  1
  Cr  Cr4  1  0.25000000  0.58939800  0.03241600  1
  Cr  Cr5  1  0.25000000  0.02766000  0.37878000  1
  O  O0  1  0.75000000  0.49563100  0.34482200  1
  O  O1  1  0.75000000  0.33268900  0.16338000  1
  O  O2  1  0.75000000  0.16630600  0.49192200  1
  O  O3  1  0.25000000  0.50436900  0.65517800  1
  O  O4  1  0.25000000  0.66731100  0.83662000  1
  O  O5  1  0.25000000  0.83369400  0.50807800  1
  O  O6  1  0.75000000  0.53247600  0.60119300  1
  O  O7  1  0.75000000  0.61054900  0.85819200  1
  O  O8  1  0.75000000  0.86296000  0.52649300  1
  O  O9  1  0.25000000  0.46752400  0.39880700  1
  O  O10  1  0.25000000  0.38945100  0.14180800  1
  O  O11  1  0.25000000  0.13704000  0.47350700  1
  O  O12  1  0.55757000  0.73796400  0.34428600  1
  O  O13  1  0.55275500  0.34505100  0.91050600  1
  O  O14  1  0.55584700  0.91126100  0.74344600  1
  O  O15  1  0.05757000  0.26203600  0.65571400  1
  O  O16  1  0.05275500  0.65494900  0.08949400  1
  O  O17  1  0.05584700  0.08873900  0.25655400  1
  O  O18  1  0.44243000  0.26203600  0.65571400  1
  O  O19  1  0.44724500  0.65494900  0.08949400  1
  O  O20  1  0.44415300  0.08873900  0.25655400  1
  O  O21  1  0.94243000  0.73796400  0.34428600  1
  O  O22  1  0.94724500  0.34505100  0.91050600  1
  O  O23  1  0.94415300  0.91126100  0.74344600  1
  O  O24  1  0.75000000  0.99583500  0.00812500  1
  O  O25  1  0.25000000  0.00416500  0.99187500  1
loop_
_geom_bond_atom_site_label_1
_geom_bond_atom_site_label_2
_geom_bond_distance
_geom_bond_site_symmetry_2
Ca0 O1 2.351342 1_555
Ca0 O2 2.375084 1_555
Ca0 O10 2.390186 1_555
Ca0 O11 2.439897 1_555
Ca0 O0 2.487836 1_555
Ca0 O9 2.557242 1_555
Ca0 O20 2.745599 1_555
Ca0 O19 2.981370 1_555
Ca0 O18 3.054215 1_555
Ca1 O4 2.351342 1_555
Ca1 O5 2.375084 1_555
Ca1 O7 2.390186 1_455
Ca1 O8 2.439897 1_455
Ca1 O3 2.487836 1_555
Ca1 O6 2.557242 1_455
Ca1 O23 2.745599 1_455
Ca1 O22 2.981370 1_455
Ca1 O21 3.054215 1_455
Ca2 O4 2.351342 1_555
Ca2 O5 2.375084 1_555
Ca2 O7 2.390186 1_555
Ca2 O8 2.439897 1_555
Ca2 O3 2.487836 1_555
Ca2 O6 2.557242 1_555
Ca2 O14 2.745599 1_555
Ca2 O13 2.981370 1_555
Ca2 O12 3.054215 1_555
Ca3 O1 2.351342 1_555
Ca3 O2 2.375084 1_555
Ca3 O10 2.390186 1_655
Ca3 O11 2.439897 1_655
Ca3 O0 2.487836 1_555
Ca3 O9 2.557242 1_655
Ca3 O17 2.745599 1_655
Ca3 O16 2.981370 1_655
Ca3 O15 3.054215 1_655
Ca4 O24 2.187050 1_555
Ca4 O17 2.386963 1_665
Ca4 O20 2.386963 1_565
Ca4 O12 2.594675 1_555
Ca4 O21 2.594675 1_555
Ca4 O8 2.607532 1_555
Ca5 O24 2.161935 1_546
Ca5 O13 2.439890 1_555
Ca5 O22 2.439890 1_555
Ca5 O15 2.500758 1_655
Ca5 O18 2.500758 1_555
Ca5 O6 2.748832 1_555
Ca6 O24 2.207928 1_556
Ca6 O16 2.427863 1_656
Ca6 O19 2.427863 1_556
Ca6 O23 2.484223 1_555
Ca6 O14 2.484223 1_555
Ca6 O7 2.552183 1_555
Ca7 O25 2.187050 1_555
Ca7 O14 2.386963 1_545
Ca7 O23 2.386963 1_445
Ca7 O18 2.594675 1_555
Ca7 O15 2.594675 1_555
Ca7 O11 2.607532 1_555
Ca8 O25 2.161935 1_564
Ca8 O19 2.439890 1_555
Ca8 O16 2.439890 1_555
Ca8 O21 2.500758 1_455
Ca8 O12 2.500758 1_555
Ca8 O9 2.748832 1_555
Ca9 O25 2.207928 1_554
Ca9 O22 2.427863 1_454
Ca9 O13 2.427863 1_554
Ca9 O20 2.484223 1_555
Ca9 O17 2.484223 1_555
Ca9 O10 2.552183 1_555
Cr0 O0 1.657750 1_555
Cr0 O12 1.664403 1_555
Cr0 O21 1.664403 1_555
Cr0 O6 1.682460 1_555
Cr1 O1 1.715459 1_556
Cr1 O22 1.725540 1_555
Cr1 O13 1.725540 1_555
Cr1 O7 1.725685 1_555
Cr2 O2 1.708229 1_565
Cr2 O23 1.720997 1_555
Cr2 O14 1.720997 1_555
Cr2 O8 1.739195 1_555
Cr3 O3 1.657750 1_555
Cr3 O15 1.664403 1_555
Cr3 O18 1.664403 1_555
Cr3 O9 1.682460 1_555
Cr4 O4 1.715459 1_554
Cr4 O19 1.725540 1_555
Cr4 O16 1.725540 1_555
Cr4 O10 1.725685 1_555
Cr5 O5 1.708229 1_545
Cr5 O20 1.720997 1_555
Cr5 O17 1.720997 1_555
Cr5 O11 1.739195 1_555
