# generated using pymatgen
data_Ca3As4W3O16
_symmetry_space_group_name_H-M   'P 1'
_cell_length_a   5.21454100
_cell_length_b   10.50540200
_cell_length_c   17.60433326
_cell_angle_alpha   59.22077021
_cell_angle_beta   90.00000000
_cell_angle_gamma   90.00000000
_symmetry_Int_Tables_number   1
_chemical_formula_structural   Ca3As4W3O16
_chemical_formula_sum   'Ca6 As8 W6 O32'
_cell_volume   828.54298241
_cell_formula_units_Z   2
loop_
 _symmetry_equiv_pos_site_id
 _symmetry_equiv_pos_as_xyz
  1  'x, y, z'
loop_
 _atom_site_type_symbol
 _atom_site_label
 _atom_site_symmetry_multiplicity
 _atom_site_fract_x
 _atom_site_fract_y
 _atom_site_fract_z
 _atom_site_occupancy
  Ca  Ca0  1  0.02790700  0.72925000  0.26785500  1
  Ca  Ca1  1  0.52790700  0.27075000  0.23214500  1
  Ca  Ca2  1  0.97209300  0.27075000  0.73214500  1
  Ca  Ca3  1  0.47209300  0.72925000  0.76785500  1
  Ca  Ca4  1  0.00000000  0.00000000  0.00000000  1
  Ca  Ca5  1  0.50000000  0.00000000  0.50000000  1
  As  As0  1  0.51066200  0.95409800  0.16457200  1
  As  As1  1  0.88708800  0.59840800  0.11690200  1
  As  As2  1  0.38708800  0.40159200  0.38309800  1
  As  As3  1  0.61291200  0.59840800  0.61690200  1
  As  As4  1  0.48933800  0.04590200  0.83542800  1
  As  As5  1  0.11291200  0.40159200  0.88309800  1
  As  As6  1  0.98933800  0.95409800  0.66457200  1
  As  As7  1  0.01066200  0.04590200  0.33542800  1
  W  W0  1  0.95684300  0.78784400  0.89722900  1
  W  W1  1  0.04315700  0.21215600  0.10277100  1
  W  W2  1  0.45684300  0.21215600  0.60277100  1
  W  W3  1  0.54315700  0.78784400  0.39722900  1
  W  W4  1  0.50000000  0.50000000  0.00000000  1
  W  W5  1  0.00000000  0.50000000  0.50000000  1
  O  O0  1  0.98749700  0.20028900  0.22699000  1
  O  O1  1  0.35255600  0.22107500  0.49094100  1
  O  O2  1  0.82174100  0.66731900  0.18499900  1
  O  O3  1  0.88036800  0.89929800  0.32846000  1
  O  O4  1  0.17825900  0.33268100  0.81500100  1
  O  O5  1  0.51250300  0.20028900  0.72699000  1
  O  O6  1  0.32174100  0.33268100  0.31500100  1
  O  O7  1  0.92500200  0.51561700  0.61083800  1
  O  O8  1  0.17354200  0.90331400  0.60595900  1
  O  O9  1  0.01250300  0.79971100  0.77301000  1
  O  O10  1  0.61963200  0.89929800  0.82846000  1
  O  O11  1  0.07499800  0.48438300  0.38916200  1
  O  O12  1  0.72832000  0.32248500  0.05674300  1
  O  O13  1  0.82645800  0.09668600  0.39404100  1
  O  O14  1  0.16962500  0.00208000  0.86584700  1
  O  O15  1  0.66962500  0.99792000  0.63415300  1
  O  O16  1  0.22832000  0.67751500  0.44325700  1
  O  O17  1  0.67825900  0.66731900  0.68499900  1
  O  O18  1  0.67354200  0.09668600  0.89404100  1
  O  O19  1  0.42500200  0.48438300  0.88916200  1
  O  O20  1  0.33037500  0.00208000  0.36584700  1
  O  O21  1  0.83037500  0.99792000  0.13415300  1
  O  O22  1  0.64744400  0.77892500  0.50905900  1
  O  O23  1  0.85255600  0.77892500  0.00905900  1
  O  O24  1  0.27168000  0.67751500  0.94325700  1
  O  O25  1  0.48749700  0.79971100  0.27301000  1
  O  O26  1  0.11963200  0.10070200  0.67154000  1
  O  O27  1  0.32645800  0.90331400  0.10595900  1
  O  O28  1  0.14744400  0.22107500  0.99094100  1
  O  O29  1  0.57499800  0.51561700  0.11083800  1
  O  O30  1  0.77168000  0.32248500  0.55674300  1
  O  O31  1  0.38036800  0.10070200  0.17154000  1
loop_
_geom_bond_atom_site_label_1
_geom_bond_atom_site_label_2
_geom_bond_distance
_geom_bond_site_symmetry_2
Ca0 O2 2.162845 1_455
Ca0 O11 2.369763 1_555
Ca0 O25 2.523563 1_555
Ca0 O3 2.621483 1_455
Ca0 O21 2.787152 1_455
Ca0 O27 2.925136 1_555
Ca0 O25 2.926770 1_455
Ca0 O16 3.033919 1_555
Ca1 O6 2.162845 1_555
Ca1 O29 2.369763 1_555
Ca1 O0 2.523563 1_555
Ca1 O31 2.621483 1_555
Ca1 O20 2.787152 1_555
Ca1 O13 2.925136 1_555
Ca1 O0 2.926770 1_455
Ca1 O12 3.033919 1_555
Ca2 O4 2.162845 1_655
Ca2 O7 2.369763 1_555
Ca2 O5 2.523563 1_555
Ca2 O26 2.621483 1_655
Ca2 O14 2.787152 1_655
Ca2 O18 2.925136 1_555
Ca2 O5 2.926770 1_655
Ca2 O30 3.033919 1_555
Ca3 O17 2.162845 1_555
Ca3 O19 2.369763 1_555
Ca3 O9 2.523563 1_555
Ca3 O10 2.621483 1_555
Ca3 O15 2.787152 1_555
Ca3 O8 2.925136 1_555
Ca3 O9 2.926770 1_655
Ca3 O24 3.033919 1_555
Ca4 O27 2.338799 1_545
Ca4 O18 2.338799 1_454
Ca4 O28 2.373060 1_554
Ca4 O23 2.373060 1_445
Ca4 O21 2.511481 1_445
Ca4 O14 2.511481 1_554
Ca5 O13 2.338799 1_555
Ca5 O8 2.338799 1_545
Ca5 O1 2.373060 1_555
Ca5 O22 2.373060 1_545
Ca5 O15 2.511481 1_545
Ca5 O20 2.511481 1_555
As0 O27 1.683857 1_555
As0 O21 1.739483 1_555
As0 O31 1.744142 1_565
As0 O25 1.766502 1_555
As1 O2 1.722076 1_555
As1 O29 1.873858 1_555
As1 O23 1.883689 1_555
As2 O6 1.722076 1_555
As2 O11 1.873858 1_555
As2 O1 1.883689 1_555
As3 O17 1.722076 1_555
As3 O7 1.873858 1_555
As3 O22 1.883689 1_555
As4 O18 1.683857 1_555
As4 O14 1.739483 1_555
As4 O10 1.744142 1_545
As4 O5 1.766502 1_555
As5 O4 1.722076 1_555
As5 O19 1.873858 1_555
As5 O28 1.883689 1_555
As6 O8 1.683857 1_655
As6 O15 1.739483 1_555
As6 O26 1.744142 1_665
As6 O9 1.766502 1_655
As7 O13 1.683857 1_455
As7 O20 1.739483 1_555
As7 O3 1.744142 1_445
As7 O0 1.766502 1_455
O0 W1 2.145420 1_655
O1 W2 1.997866 1_555
O3 W3 2.116078 1_555
O5 W2 2.145420 1_555
O7 W5 2.077207 1_655
O9 W0 2.145420 1_455
O10 W0 2.116078 1_555
O11 W5 2.077207 1_555
O12 W1 1.932368 1_655
O12 W4 1.996622 1_555
O14 W0 2.308492 1_445
O15 W2 2.308492 1_565
O16 W3 1.932368 1_555
O16 W5 1.996622 1_555
O19 W4 2.077207 1_556
O20 W3 2.308492 1_545
O21 W1 2.308492 1_665
O22 W3 1.997866 1_555
O23 W0 1.997866 1_554
O24 W0 1.932368 1_455
O24 W4 1.996622 1_556
O25 W3 2.145420 1_555
O26 W2 2.116078 1_555
O28 W1 1.997866 1_556
O29 W4 2.077207 1_555
O30 W2 1.932368 1_555
O30 W5 1.996622 1_655
O31 W1 2.116078 1_555
