# generated using pymatgen
data_PrNdSb2
_symmetry_space_group_name_H-M   'P 1'
_cell_length_a   7.87614209
_cell_length_b   7.87614209
_cell_length_c   7.87614230
_cell_angle_alpha   33.56434252
_cell_angle_beta   33.56434252
_cell_angle_gamma   33.56434307
_symmetry_Int_Tables_number   1
_chemical_formula_structural   PrNdSb2
_chemical_formula_sum   'Pr1 Nd1 Sb2'
_cell_volume   133.02690573
_cell_formula_units_Z   1
loop_
 _symmetry_equiv_pos_site_id
 _symmetry_equiv_pos_as_xyz
  1  'x, y, z'
loop_
 _atom_site_type_symbol
 _atom_site_label
 _atom_site_symmetry_multiplicity
 _atom_site_fract_x
 _atom_site_fract_y
 _atom_site_fract_z
 _atom_site_occupancy
  Pr  Pr0  1  0.50000000  0.50000000  0.50000000  1
  Nd  Nd0  1  -0.00000000  -0.00000000  -0.00000000  1
  Sb  Sb0  1  0.25060254  0.25060254  0.25060254  1
  Sb  Sb1  1  0.74939746  0.74939746  0.74939746  1
loop_
_geom_bond_atom_site_label_1
_geom_bond_atom_site_label_2
_geom_bond_distance
_geom_bond_site_symmetry_2
Pr0 Sb0 3.223598 1_565
Pr0 Sb0 3.223598 1_655
Pr0 Sb1 3.223598 1_545
Pr0 Sb1 3.223598 1_455
Pr0 Sb0 3.223598 1_556
Pr0 Sb1 3.223598 1_554
Nd0 Sb1 3.208101 1_544
Nd0 Sb1 3.208101 1_454
Nd0 Sb0 3.208101 1_455
Nd0 Sb0 3.208101 1_545
Nd0 Sb1 3.208101 1_445
Nd0 Sb0 3.208101 1_554
