# generated using pymatgen
data_Mg3Au
_symmetry_space_group_name_H-M   'P 1'
_cell_length_a   8.02805334
_cell_length_b   8.02805351
_cell_length_c   8.50930735
_cell_angle_alpha   90.00000000
_cell_angle_beta   90.00000000
_cell_angle_gamma   120.00000343
_symmetry_Int_Tables_number   1
_chemical_formula_structural   Mg3Au
_chemical_formula_sum   'Mg18 Au6'
_cell_volume   474.94720342
_cell_formula_units_Z   6
loop_
 _symmetry_equiv_pos_site_id
 _symmetry_equiv_pos_as_xyz
  1  'x, y, z'
loop_
 _atom_site_type_symbol
 _atom_site_label
 _atom_site_symmetry_multiplicity
 _atom_site_fract_x
 _atom_site_fract_y
 _atom_site_fract_z
 _atom_site_occupancy
  Mg  Mg0  1  0.37527138  -0.00000000  0.92592843  1
  Mg  Mg1  1  0.37527138  0.37527138  0.42592843  1
  Mg  Mg2  1  0.00000000  0.62472862  0.42592843  1
  Mg  Mg3  1  -0.00000000  0.37527138  0.92592843  1
  Mg  Mg4  1  0.62472862  0.62472862  0.92592843  1
  Mg  Mg5  1  0.62472862  0.00000000  0.42592843  1
  Mg  Mg6  1  -0.00000000  -0.00000000  0.32445276  1
  Mg  Mg7  1  -0.00000000  -0.00000000  0.82445276  1
  Mg  Mg8  1  0.33333300  0.66666700  0.20615662  1
  Mg  Mg9  1  0.66666700  0.33333300  0.70615662  1
  Mg  Mg10  1  0.33333300  0.66666700  0.70615662  1
  Mg  Mg11  1  0.66666700  0.33333300  0.20615662  1
  Mg  Mg12  1  0.72110526  -0.00000000  0.08274079  1
  Mg  Mg13  1  0.72110526  0.72110526  0.58274079  1
  Mg  Mg14  1  0.00000000  0.27889474  0.58274079  1
  Mg  Mg15  1  -0.00000000  0.72110526  0.08274079  1
  Mg  Mg16  1  0.27889474  0.27889474  0.08274079  1
  Mg  Mg17  1  0.27889474  0.00000000  0.58274079  1
  Au  Au0  1  0.32851290  0.00000000  0.25367578  1
  Au  Au1  1  0.32851290  0.32851290  0.75367578  1
  Au  Au2  1  -0.00000000  0.67148610  0.75367578  1
  Au  Au3  1  0.00000000  0.32851290  0.25367578  1
  Au  Au4  1  0.67148610  0.67148610  0.25367578  1
  Au  Au5  1  0.67148610  -0.00000000  0.75367578  1
loop_
_geom_bond_atom_site_label_1
_geom_bond_atom_site_label_2
_geom_bond_distance
_geom_bond_site_symmetry_2
Au0 Mg6 2.705212 1_555
Au0 Mg8 2.725731 1_545
Au0 Mg11 2.725735 1_555
Au0 Mg5 2.793471 1_555
Au0 Mg0 2.814052 1_554
Au0 Mg17 2.828307 1_555
Au0 Mg15 2.859941 1_545
Au0 Mg16 2.859941 1_555
Au0 Mg2 3.199185 1_545
Au0 Mg1 3.199185 1_555
Au1 Mg7 2.705212 1_555
Au1 Mg9 2.725739 1_555
Au1 Mg10 2.725739 1_555
Au1 Mg4 2.793471 1_555
Au1 Mg1 2.814052 1_555
Au1 Mg16 2.828307 1_556
Au1 Mg14 2.859941 1_555
Au1 Mg17 2.859941 1_555
Au1 Mg3 3.199185 1_555
Au1 Mg0 3.199185 1_555
Au2 Mg7 2.705220 1_565
Au2 Mg10 2.725727 1_555
Au2 Mg9 2.725731 1_455
Au2 Mg3 2.793464 1_555
Au2 Mg2 2.814051 1_555
Au2 Mg15 2.828308 1_556
Au2 Mg17 2.859945 1_565
Au2 Mg13 2.859946 1_455
Au2 Mg0 3.199187 1_565
Au2 Mg4 3.199188 1_455
Au3 Mg6 2.705212 1_555
Au3 Mg11 2.725731 1_455
Au3 Mg8 2.725735 1_555
Au3 Mg2 2.793471 1_555
Au3 Mg3 2.814052 1_554
Au3 Mg14 2.828307 1_555
Au3 Mg12 2.859941 1_455
Au3 Mg16 2.859941 1_555
Au3 Mg5 3.199185 1_455
Au3 Mg1 3.199185 1_555
Au4 Mg6 2.705220 1_665
Au4 Mg8 2.725735 1_555
Au4 Mg11 2.725735 1_555
Au4 Mg1 2.793464 1_555
Au4 Mg4 2.814051 1_554
Au4 Mg13 2.828308 1_555
Au4 Mg15 2.859945 1_655
Au4 Mg12 2.859946 1_565
Au4 Mg2 3.199188 1_655
Au4 Mg5 3.199188 1_565
Au5 Mg7 2.705220 1_655
Au5 Mg9 2.725727 1_555
Au5 Mg10 2.725731 1_545
Au5 Mg0 2.793464 1_555
Au5 Mg5 2.814051 1_555
Au5 Mg12 2.828308 1_556
Au5 Mg14 2.859945 1_655
Au5 Mg13 2.859946 1_545
Au5 Mg3 3.199187 1_655
Au5 Mg4 3.199188 1_545
