# generated using pymatgen
data_Ga3Rh
_symmetry_space_group_name_H-M   'P 1'
_cell_length_a   5.41259855
_cell_length_b   5.41259855
_cell_length_c   4.93813300
_cell_angle_alpha   90.00000000
_cell_angle_beta   90.00000000
_cell_angle_gamma   120.00000669
_symmetry_Int_Tables_number   1
_chemical_formula_structural   Ga3Rh
_chemical_formula_sum   'Ga6 Rh2'
_cell_volume   125.28671389
_cell_formula_units_Z   2
loop_
 _symmetry_equiv_pos_site_id
 _symmetry_equiv_pos_as_xyz
  1  'x, y, z'
loop_
 _atom_site_type_symbol
 _atom_site_label
 _atom_site_symmetry_multiplicity
 _atom_site_fract_x
 _atom_site_fract_y
 _atom_site_fract_z
 _atom_site_occupancy
  Ga  Ga0  1  0.17055600  0.34111200  0.25000000  1
  Ga  Ga1  1  0.65888800  0.82944400  0.25000000  1
  Ga  Ga2  1  0.17055600  0.82944400  0.25000000  1
  Ga  Ga3  1  0.82944400  0.65888800  0.75000000  1
  Ga  Ga4  1  0.34111200  0.17055600  0.75000000  1
  Ga  Ga5  1  0.82944400  0.17055600  0.75000000  1
  Rh  Rh0  1  0.33333300  0.66666700  0.75000000  1
  Rh  Rh1  1  0.66666700  0.33333300  0.25000000  1
loop_
_geom_bond_atom_site_label_1
_geom_bond_atom_site_label_2
_geom_bond_distance
_geom_bond_site_symmetry_2
Ga0 Ga1 2.643145 1_555
Ga0 Ga2 2.643145 1_555
Ga0 Rh1 2.706542 1_455
Ga0 Rh1 2.706548 1_555
Ga0 Ga1 2.769453 1_445
Ga0 Ga2 2.769453 1_545
Ga0 Rh0 2.902591 1_554
Ga0 Rh0 2.902591 1_555
Ga0 Ga5 2.941583 1_454
Ga0 Ga5 2.941583 1_455
Ga0 Ga4 2.941584 1_555
Ga0 Ga4 2.941584 1_554
Ga1 Ga2 2.643145 1_555
Ga1 Rh1 2.706542 1_565
Ga1 Rh1 2.706548 1_555
Ga1 Ga2 2.769453 1_655
Ga1 Rh0 2.902591 1_554
Ga1 Rh0 2.902591 1_555
Ga1 Ga5 2.941583 1_564
Ga1 Ga5 2.941583 1_565
Ga1 Ga3 2.941584 1_555
Ga1 Ga3 2.941584 1_554
Ga2 Rh1 2.706545 1_455
Ga2 Rh1 2.706545 1_565
Ga2 Rh0 2.902588 1_554
Ga2 Rh0 2.902588 1_555
Ga2 Ga4 2.941583 1_565
Ga2 Ga4 2.941583 1_564
Ga2 Ga3 2.941583 1_454
Ga2 Ga3 2.941583 1_455
Ga3 Ga4 2.643145 1_555
Ga3 Ga5 2.643145 1_555
Ga3 Rh0 2.706542 1_655
Ga3 Rh0 2.706548 1_555
Ga3 Ga4 2.769453 1_665
Ga3 Ga5 2.769453 1_565
Ga3 Rh1 2.902591 1_556
Ga3 Rh1 2.902591 1_555
Ga4 Ga5 2.643145 1_555
Ga4 Rh0 2.706542 1_545
Ga4 Rh0 2.706548 1_555
Ga4 Ga5 2.769453 1_455
Ga4 Rh1 2.902591 1_556
Ga4 Rh1 2.902591 1_555
Ga5 Rh0 2.706545 1_545
Ga5 Rh0 2.706545 1_655
Ga5 Rh1 2.902588 1_555
Ga5 Rh1 2.902588 1_556
