# generated using pymatgen
data_KLi(WO3)3
_symmetry_space_group_name_H-M   'P 1'
_cell_length_a   7.62591800
_cell_length_b   7.62840872
_cell_length_c   7.88483005
_cell_angle_alpha   90.00119376
_cell_angle_beta   90.00493401
_cell_angle_gamma   119.73291296
_symmetry_Int_Tables_number   1
_chemical_formula_structural   KLi(WO3)3
_chemical_formula_sum   'K2 Li2 W6 O18'
_cell_volume   398.30119339
_cell_formula_units_Z   2
loop_
 _symmetry_equiv_pos_site_id
 _symmetry_equiv_pos_as_xyz
  1  'x, y, z'
loop_
 _atom_site_type_symbol
 _atom_site_label
 _atom_site_symmetry_multiplicity
 _atom_site_fract_x
 _atom_site_fract_y
 _atom_site_fract_z
 _atom_site_occupancy
  K  K0  1  0.99381700  0.99711900  0.26930200  1
  K  K1  1  0.99724700  0.00325800  0.76734400  1
  Li  Li0  1  0.59138300  0.29882400  0.25072500  1
  Li  Li1  1  0.29565900  0.69782400  0.74910500  1
  W  W0  1  0.99498600  0.49748200  0.49796400  1
  W  W1  1  0.99522300  0.49617100  0.00189300  1
  W  W2  1  0.49729000  0.50303000  0.50195600  1
  W  W3  1  0.49862800  0.50295300  0.99783800  1
  W  W4  1  0.50045400  0.99907100  0.99991000  1
  W  W5  1  0.50132000  0.00014800  0.50002700  1
  O  O0  1  0.99541300  0.49632200  0.74993800  1
  O  O1  1  0.79564600  0.21599900  0.00845600  1
  O  O2  1  0.79838300  0.21613600  0.49209800  1
  O  O3  1  0.79345100  0.57681900  0.49301800  1
  O  O4  1  0.49945800  0.00349200  0.74277300  1
  O  O5  1  0.79665800  0.57980500  0.00582000  1
  O  O6  1  0.42396600  0.20446300  0.01668400  1
  O  O7  1  0.42384400  0.22070800  0.48255300  1
  O  O8  1  0.49766000  0.49545800  0.75722900  1
  O  O9  1  0.49922200  0.50377700  0.24233100  1
  O  O10  1  0.58355000  0.80073100  0.98984900  1
  O  O11  1  0.58356100  0.78462000  0.50920400  1
  O  O12  1  0.20391400  0.42322200  0.50720500  1
  O  O13  1  0.49903300  0.99711400  0.25758800  1
  O  O14  1  0.20136500  0.42052300  0.99436500  1
  O  O15  1  0.20718800  0.78027900  0.98401600  1
  O  O16  1  0.20448000  0.78017800  0.51447700  1
  O  O17  1  0.00236800  0.50447600  0.25011300  1
loop_
_geom_bond_atom_site_label_1
_geom_bond_atom_site_label_2
_geom_bond_distance
_geom_bond_site_symmetry_2
K0 O2 3.250976 1_565
K0 O3 3.296574 1_555
K0 O7 3.307775 1_665
K0 O11 3.311264 1_555
K1 O10 3.253330 1_545
K1 O14 3.292975 1_655
K1 O15 3.328075 1_645
K1 O1 3.329682 1_556
K1 O5 3.377823 1_546
K1 O11 3.414171 1_545
K1 O6 3.443082 1_656
K1 O12 3.456458 1_655
K1 O16 3.469396 1_645
K1 O2 3.476980 1_555
Li0 O9 2.008154 1_555
Li0 O13 2.046544 1_545
Li0 O7 2.138697 1_555
Li0 O6 2.154414 1_555
Li1 O0 2.028371 1_455
Li1 O4 2.064073 1_565
Li1 O15 2.168570 1_555
Li1 O16 2.175724 1_555
O0 W1 1.986623 1_556
O0 W0 1.986802 1_555
O1 W1 1.913225 1_555
O1 W4 2.028637 1_544
O2 W0 1.914278 1_555
O2 W5 2.036725 1_555
O3 W0 1.911140 1_555
O3 W2 2.040012 1_555
O4 W5 1.914328 1_555
O4 W4 2.027839 1_545
O5 W1 1.912902 1_555
O5 W3 2.047288 1_554
O6 W4 1.928510 1_544
O6 W3 2.060356 1_554
O7 W2 1.943930 1_555
O7 W5 2.045721 1_555
O8 W3 1.897925 1_555
O8 W2 2.013656 1_555
O9 W3 1.927793 1_554
O9 W2 2.047141 1_555
O10 W4 1.910000 1_555
O10 W3 2.030818 1_555
O11 W2 1.910119 1_555
O11 W5 2.030900 1_565
O12 W0 1.939063 1_455
O12 W2 2.006655 1_555
O13 W5 1.911703 1_565
O13 W4 2.031793 1_554
O14 W1 1.925524 1_456
O14 W3 2.030040 1_555
O15 W1 1.963407 1_456
O15 W4 2.024950 1_555
O16 W0 1.949972 1_455
O16 W5 2.045785 1_565
O17 W0 1.955046 1_455
O17 W1 1.958075 1_455
