# generated using pymatgen
data_Ca9(MnN4)2
_symmetry_space_group_name_H-M   'P 1'
_cell_length_a   9.62518935
_cell_length_b   4.90732382
_cell_length_c   7.87042953
_cell_angle_alpha   90.00000285
_cell_angle_beta   69.09127193
_cell_angle_gamma   75.23110614
_symmetry_Int_Tables_number   1
_chemical_formula_structural   Ca9(MnN4)2
_chemical_formula_sum   'Ca9 Mn2 N8'
_cell_volume   334.09080139
_cell_formula_units_Z   1
loop_
 _symmetry_equiv_pos_site_id
 _symmetry_equiv_pos_as_xyz
  1  'x, y, z'
loop_
 _atom_site_type_symbol
 _atom_site_label
 _atom_site_symmetry_multiplicity
 _atom_site_fract_x
 _atom_site_fract_y
 _atom_site_fract_z
 _atom_site_occupancy
  Ca  Ca0  1  0.00000000  0.50000000  0.50000000  1
  Ca  Ca1  1  0.07512800  0.96243600  0.76291000  1
  Ca  Ca2  1  0.92487200  0.03756400  0.23709000  1
  Ca  Ca3  1  0.65453500  0.67273300  0.44807600  1
  Ca  Ca4  1  0.34546500  0.32726700  0.55192400  1
  Ca  Ca5  1  0.82614900  0.58692600  0.98642900  1
  Ca  Ca6  1  0.17385100  0.41307400  0.01357100  1
  Ca  Ca7  1  0.38780100  0.80610000  0.17996700  1
  Ca  Ca8  1  0.61219900  0.19390000  0.82003300  1
  Mn  Mn0  1  0.38584700  0.80707700  0.79998100  1
  Mn  Mn1  1  0.61415300  0.19292300  0.20001900  1
  N  N0  1  0.21832200  0.89083900  0.99777400  1
  N  N1  1  0.78167800  0.10916100  0.00222600  1
  N  N2  1  0.36503500  0.81748200  0.59370000  1
  N  N3  1  0.63496500  0.18251800  0.40630000  1
  N  N4  1  0.56863600  0.71568200  0.81147300  1
  N  N5  1  0.43136400  0.28431800  0.18852700  1
  N  N6  1  0.92716300  0.53641800  0.24820800  1
  N  N7  1  0.07283700  0.46358200  0.75179200  1
loop_
_geom_bond_atom_site_label_1
_geom_bond_atom_site_label_2
_geom_bond_distance
_geom_bond_site_symmetry_2
Ca0 N7 2.319133 1_555
Ca0 N6 2.319133 1_455
Ca1 N7 2.455592 1_555
Ca1 N7 2.455597 1_565
Ca1 N2 2.530124 1_555
Ca1 N0 2.647926 1_555
Ca1 N1 2.685117 1_466
Ca2 N6 2.455592 1_555
Ca2 N6 2.455597 1_545
Ca2 N3 2.530124 1_555
Ca2 N1 2.647926 1_555
Ca2 N0 2.685117 1_644
Ca3 N6 2.442663 1_555
Ca3 N3 2.491173 1_555
Ca3 N3 2.491173 1_565
Ca3 N2 2.508795 1_555
Ca3 N4 2.670477 1_555
Ca4 N7 2.442663 1_555
Ca4 N2 2.491173 1_555
Ca4 N2 2.491173 1_545
Ca4 N3 2.508795 1_555
Ca4 N5 2.670477 1_555
Ca5 N7 2.356279 1_655
Ca5 N1 2.483794 1_566
Ca5 N1 2.483798 1_556
Ca5 N6 2.560974 1_556
Ca6 N6 2.356279 1_455
Ca6 N0 2.483794 1_544
Ca6 N0 2.483798 1_554
Ca6 N7 2.560974 1_554
Ca7 N5 2.491894 1_565
Ca7 N5 2.491899 1_555
Ca7 N0 2.492763 1_554
Ca7 N4 2.764205 1_554
Ca8 N4 2.491894 1_545
Ca8 N4 2.491899 1_555
Ca8 N1 2.492763 1_556
Ca8 N5 2.764205 1_556
Mn0 N2 1.704544 1_555
Mn0 N4 1.736670 1_555
Mn0 N0 1.750083 1_555
Mn1 N3 1.704544 1_555
Mn1 N5 1.736670 1_555
Mn1 N1 1.750083 1_555
