# generated using pymatgen
data_Th(PRu)2
_symmetry_space_group_name_H-M   'P 1'
_cell_length_a   4.15430297
_cell_length_b   7.55539389
_cell_length_c   10.47718520
_cell_angle_alpha   90.00000000
_cell_angle_beta   90.00000000
_cell_angle_gamma   90.00000000
_symmetry_Int_Tables_number   1
_chemical_formula_structural   Th(PRu)2
_chemical_formula_sum   'Th4 P8 Ru8'
_cell_volume   328.85155326
_cell_formula_units_Z   4
loop_
 _symmetry_equiv_pos_site_id
 _symmetry_equiv_pos_as_xyz
  1  'x, y, z'
loop_
 _atom_site_type_symbol
 _atom_site_label
 _atom_site_symmetry_multiplicity
 _atom_site_fract_x
 _atom_site_fract_y
 _atom_site_fract_z
 _atom_site_occupancy
  Th  Th0  1  0.25000000  0.76583493  0.16876597  1
  Th  Th1  1  0.75000000  0.23416507  0.83123403  1
  Th  Th2  1  0.25000000  0.26583493  0.33123403  1
  Th  Th3  1  0.75000000  0.73416507  0.66876597  1
  P  P0  1  0.25000000  0.59550185  0.46948792  1
  P  P1  1  0.75000000  0.40449815  0.53051208  1
  P  P2  1  0.25000000  0.09550185  0.03051208  1
  P  P3  1  0.75000000  0.90449815  0.96948792  1
  P  P4  1  0.25000000  0.03038596  0.65879420  1
  P  P5  1  0.75000000  0.96961404  0.34120580  1
  P  P6  1  0.25000000  0.53038596  0.84120580  1
  P  P7  1  0.75000000  0.46961404  0.15879420  1
  Ru  Ru0  1  0.75000000  0.61094673  0.95076657  1
  Ru  Ru1  1  0.25000000  0.38905327  0.04923343  1
  Ru  Ru2  1  0.75000000  0.11094673  0.54923343  1
  Ru  Ru3  1  0.25000000  0.88905327  0.45076657  1
  Ru  Ru4  1  0.25000000  0.36841365  0.63155436  1
  Ru  Ru5  1  0.75000000  0.63158635  0.36844564  1
  Ru  Ru6  1  0.25000000  0.86841365  0.86844564  1
  Ru  Ru7  1  0.75000000  0.13158635  0.13155436  1
loop_
_geom_bond_atom_site_label_1
_geom_bond_atom_site_label_2
_geom_bond_distance
_geom_bond_site_symmetry_2
P0 Ru3 2.226553 1_555
P0 Ru5 2.347254 1_455
P0 Ru5 2.347254 1_555
P0 Ru4 2.413912 1_555
P0 P1 2.608812 1_555
P0 P1 2.608812 1_455
P0 Th2 2.881334 1_555
P0 Th3 3.125916 1_455
P0 Th3 3.125916 1_555
P0 Th0 3.403415 1_555
P1 Ru2 2.226553 1_555
P1 Ru4 2.347254 1_555
P1 Ru4 2.347254 1_655
P1 Ru5 2.413912 1_555
P1 Th3 2.881334 1_555
P1 Th2 3.125916 1_655
P1 Th2 3.125916 1_555
P1 Th1 3.403415 1_555
P2 Ru1 2.226553 1_555
P2 Ru7 2.347254 1_555
P2 Ru7 2.347254 1_455
P2 Ru6 2.413912 1_544
P2 P3 2.608812 1_544
P2 P3 2.608812 1_444
P2 Th0 2.881334 1_545
P2 Th1 3.125916 1_554
P2 Th1 3.125916 1_454
P2 Th2 3.403415 1_555
P3 Ru0 2.226553 1_555
P3 Ru6 2.347254 1_655
P3 Ru6 2.347254 1_555
P3 Ru7 2.413912 1_566
P3 Th1 2.881334 1_565
P3 Th0 3.125916 1_656
P3 Th0 3.125916 1_556
P3 Th3 3.403415 1_555
P4 Ru3 2.427068 1_545
P4 Ru2 2.450037 1_555
P4 Ru2 2.450037 1_455
P4 Ru6 2.514451 1_545
P4 Ru4 2.569829 1_555
P4 Th3 3.055227 1_445
P4 Th3 3.055227 1_545
P4 Th1 3.154224 1_455
P4 Th1 3.154224 1_555
P5 Ru2 2.427068 1_565
P5 Ru3 2.450037 1_555
P5 Ru3 2.450037 1_655
P5 Ru7 2.514451 1_565
P5 Ru5 2.569829 1_555
P5 Th2 3.055227 1_565
P5 Th2 3.055227 1_665
P5 Th0 3.154224 1_555
P5 Th0 3.154224 1_655
P6 Ru1 2.427068 1_556
P6 Ru0 2.450037 1_455
P6 Ru0 2.450037 1_555
P6 Ru4 2.514451 1_555
P6 Ru6 2.569829 1_555
P6 Th1 3.055227 1_555
P6 Th1 3.055227 1_455
P6 Th3 3.154224 1_555
P6 Th3 3.154224 1_455
P7 Ru0 2.427068 1_554
P7 Ru1 2.450037 1_655
P7 Ru1 2.450037 1_555
P7 Ru5 2.514451 1_555
P7 Ru7 2.569829 1_555
P7 Th0 3.055227 1_655
P7 Th0 3.055227 1_555
P7 Th2 3.154224 1_655
P7 Th2 3.154224 1_555
Ru0 Th3 3.097772 1_555
Ru0 Th1 3.110034 1_555
Ru0 Th0 3.301632 1_656
Ru0 Th0 3.301632 1_556
Ru1 Th2 3.097772 1_555
Ru1 Th0 3.110034 1_555
Ru1 Th1 3.301632 1_554
Ru1 Th1 3.301632 1_454
Ru2 Th1 3.097772 1_555
Ru2 Th3 3.110034 1_545
Ru2 Th2 3.301632 1_655
Ru2 Th2 3.301632 1_555
Ru3 Th0 3.097772 1_555
Ru3 Th2 3.110034 1_565
Ru3 Th3 3.301632 1_555
Ru3 Th3 3.301632 1_455
Ru4 Th1 3.117718 1_555
Ru4 Th1 3.117718 1_455
Ru4 Th2 3.240555 1_555
Ru4 Th3 3.478925 1_555
Ru4 Th3 3.478925 1_455
Ru5 Th0 3.117718 1_655
Ru5 Th0 3.117718 1_555
Ru5 Th3 3.240555 1_555
Ru5 Th2 3.478925 1_655
Ru5 Th2 3.478925 1_555
Ru6 Th3 3.117718 1_455
Ru6 Th3 3.117718 1_555
Ru6 Th0 3.240555 1_556
Ru6 Th1 3.478925 1_565
Ru6 Th1 3.478925 1_465
Ru7 Th2 3.117718 1_655
Ru7 Th2 3.117718 1_555
Ru7 Th1 3.240555 1_554
Ru7 Th0 3.478925 1_545
Ru7 Th0 3.478925 1_645
