# generated using pymatgen
data_KUC3O10
_symmetry_space_group_name_H-M   'P 1'
_cell_length_a   19.80489700
_cell_length_b   5.48278200
_cell_length_c   9.90343293
_cell_angle_alpha   64.79343742
_cell_angle_beta   90.00000000
_cell_angle_gamma   90.00000000
_symmetry_Int_Tables_number   1
_chemical_formula_structural   KUC3O10
_chemical_formula_sum   'K4 U4 C12 O40'
_cell_volume   972.97458656
_cell_formula_units_Z   4
loop_
 _symmetry_equiv_pos_site_id
 _symmetry_equiv_pos_as_xyz
  1  'x, y, z'
loop_
 _atom_site_type_symbol
 _atom_site_label
 _atom_site_symmetry_multiplicity
 _atom_site_fract_x
 _atom_site_fract_y
 _atom_site_fract_z
 _atom_site_occupancy
  K  K0  1  0.87931800  0.99100700  0.60689700  1
  K  K1  1  0.62068200  0.99100700  0.10689700  1
  K  K2  1  0.12068200  0.00899300  0.39310300  1
  K  K3  1  0.37931800  0.00899300  0.89310300  1
  U  U0  1  0.83704600  0.95280100  0.01014700  1
  U  U1  1  0.66295400  0.95280100  0.51014700  1
  U  U2  1  0.16295400  0.04719900  0.98985300  1
  U  U3  1  0.33704600  0.04719900  0.48985300  1
  C  C0  1  0.71692500  0.41278100  0.80982000  1
  C  C1  1  0.78307500  0.41278100  0.30982000  1
  C  C2  1  0.28307500  0.58721900  0.19018000  1
  C  C3  1  0.21692500  0.58721900  0.69018000  1
  C  C4  1  0.77624800  0.47961300  0.70183800  1
  C  C5  1  0.72375200  0.47961300  0.20183800  1
  C  C6  1  0.22375200  0.52038700  0.29816200  1
  C  C7  1  0.27624800  0.52038700  0.79816200  1
  C  C8  1  0.99791600  0.14459400  0.93957600  1
  C  C9  1  0.50208400  0.14459400  0.43957600  1
  C  C10  1  0.00208400  0.85540600  0.06042400  1
  C  C11  1  0.49791600  0.85540600  0.56042400  1
  O  O0  1  0.83557800  0.12828600  0.12786600  1
  O  O1  1  0.66442200  0.12828600  0.62786600  1
  O  O2  1  0.16442200  0.87171400  0.87213400  1
  O  O3  1  0.33557800  0.87171400  0.37213400  1
  O  O4  1  0.84316300  0.77600500  0.89168400  1
  O  O5  1  0.65683700  0.77600500  0.39168400  1
  O  O6  1  0.15683700  0.22399500  0.10831600  1
  O  O7  1  0.34316300  0.22399500  0.60831600  1
  O  O8  1  0.72501700  0.21324000  0.93517200  1
  O  O9  1  0.77498300  0.21324000  0.43517200  1
  O  O10  1  0.27498300  0.78676000  0.06482800  1
  O  O11  1  0.22501700  0.78676000  0.56482800  1
  O  O12  1  0.66555900  0.56240100  0.76529300  1
  O  O13  1  0.83444100  0.56240100  0.26529300  1
  O  O14  1  0.33444100  0.43759900  0.23470700  1
  O  O15  1  0.16555900  0.43759900  0.73470700  1
  O  O16  1  0.77001600  0.69000800  0.58026900  1
  O  O17  1  0.72998400  0.69000800  0.08026900  1
  O  O18  1  0.22998400  0.30999200  0.41973100  1
  O  O19  1  0.27001600  0.30999200  0.91973100  1
  O  O20  1  0.82749800  0.32802900  0.74211600  1
  O  O21  1  0.67250200  0.32802900  0.24211600  1
  O  O22  1  0.17250200  0.67197100  0.25788400  1
  O  O23  1  0.32749800  0.67197100  0.75788400  1
  O  O24  1  0.93925300  0.23405500  0.89427600  1
  O  O25  1  0.56074700  0.23405500  0.39427600  1
  O  O26  1  0.06074700  0.76594500  0.10572400  1
  O  O27  1  0.43925300  0.76594500  0.60572400  1
  O  O28  1  0.94654000  0.73360500  0.10526700  1
  O  O29  1  0.55346000  0.73360500  0.60526700  1
  O  O30  1  0.05346000  0.26639500  0.89473300  1
  O  O31  1  0.44654000  0.26639500  0.39473300  1
  O  O32  1  0.53664200  0.95028100  0.85715200  1
  O  O33  1  0.96335800  0.95028100  0.35715200  1
  O  O34  1  0.46335800  0.04971900  0.14284800  1
  O  O35  1  0.03664200  0.04971900  0.64284800  1
  O  O36  1  0.54538100  0.70463600  0.92496400  1
  O  O37  1  0.95461900  0.70463600  0.42496400  1
  O  O38  1  0.45461900  0.29536400  0.07503600  1
  O  O39  1  0.04538100  0.29536400  0.57503600  1
loop_
_geom_bond_atom_site_label_1
_geom_bond_atom_site_label_2
_geom_bond_distance
_geom_bond_site_symmetry_2
K0 O9 2.623292 1_565
K0 O4 2.650462 1_555
K0 O16 2.801741 1_555
K0 O20 2.892862 1_565
K0 O33 3.067227 1_555
K0 O35 3.167985 1_665
K0 O37 3.216405 1_555
K1 O8 2.623292 1_564
K1 O5 2.650462 1_555
K1 O17 2.801741 1_555
K1 O21 2.892862 1_565
K1 O32 3.067227 1_554
K1 O34 3.167985 1_565
K1 O36 3.216405 1_554
K2 O11 2.623292 1_545
K2 O6 2.650462 1_555
K2 O18 2.801741 1_555
K2 O22 2.892862 1_545
K2 O35 3.067227 1_555
K2 O33 3.167985 1_445
K2 O39 3.216405 1_555
K3 O10 2.623292 1_546
K3 O7 2.650462 1_555
K3 O19 2.801741 1_555
K3 O23 2.892862 1_545
K3 O34 3.067227 1_556
K3 O32 3.167985 1_545
K3 O38 3.216405 1_556
C0 O12 1.262608 1_555
C0 O8 1.267630 1_555
C1 O13 1.262608 1_555
C1 O9 1.267630 1_555
C2 O14 1.262608 1_555
C2 O10 1.267630 1_555
C3 O15 1.262608 1_555
C3 O11 1.267630 1_555
C4 O20 1.264000 1_555
C4 O16 1.269827 1_555
C5 O21 1.264000 1_555
C5 O17 1.269827 1_555
C6 O22 1.264000 1_555
C6 O18 1.269827 1_555
C7 O23 1.264000 1_555
C7 O19 1.269827 1_555
C8 O30 1.265178 1_655
C8 O24 1.266584 1_555
C9 O31 1.265178 1_555
C9 O25 1.266584 1_555
C10 O28 1.265178 1_455
C10 O26 1.266584 1_555
C11 O29 1.265178 1_555
C11 O27 1.266584 1_555
O0 U0 1.800314 1_545
O1 U1 1.800314 1_545
O2 U2 1.800314 1_565
O3 U3 1.800314 1_565
O4 U0 1.816397 1_556
O5 U1 1.816397 1_555
O6 U2 1.816397 1_554
O7 U3 1.816397 1_555
O24 U0 2.506967 1_546
O25 U1 2.506967 1_545
O26 U2 2.506967 1_564
O27 U3 2.506967 1_565
O28 U0 2.463715 1_555
O29 U1 2.463715 1_555
O30 U2 2.463715 1_555
O31 U3 2.463715 1_555
O32 O36 1.234695 1_555
O33 O37 1.234695 1_555
O34 O38 1.234695 1_555
O35 O39 1.234695 1_555
