# generated using pymatgen
data_Li6NiO4
_symmetry_space_group_name_H-M   'P 1'
_cell_length_a   4.66485601
_cell_length_b   9.33491089
_cell_length_c   9.33114068
_cell_angle_alpha   90.68976764
_cell_angle_beta   89.99411514
_cell_angle_gamma   89.99685817
_symmetry_Int_Tables_number   1
_chemical_formula_structural   Li6NiO4
_chemical_formula_sum   'Li24 Ni4 O16'
_cell_volume   406.30454559
_cell_formula_units_Z   4
loop_
 _symmetry_equiv_pos_site_id
 _symmetry_equiv_pos_as_xyz
  1  'x, y, z'
loop_
 _atom_site_type_symbol
 _atom_site_label
 _atom_site_symmetry_multiplicity
 _atom_site_fract_x
 _atom_site_fract_y
 _atom_site_fract_z
 _atom_site_occupancy
  Li  Li0  1  0.70023500  0.25174600  0.99830500  1
  Li  Li1  1  0.70021500  0.74825500  0.50172100  1
  Li  Li2  1  0.20040600  0.25232300  0.99772400  1
  Li  Li3  1  0.20040600  0.74769100  0.50230900  1
  Li  Li4  1  0.30160300  0.75248700  0.00239900  1
  Li  Li5  1  0.30152000  0.24751700  0.49756400  1
  Li  Li6  1  0.80144600  0.75188100  0.00182300  1
  Li  Li7  1  0.80154100  0.24812200  0.49814000  1
  Li  Li8  1  0.74796900  0.28170800  0.24903800  1
  Li  Li9  1  0.74861800  0.78171000  0.75210200  1
  Li  Li10  1  0.74864400  0.49786500  0.46827500  1
  Li  Li11  1  0.74819400  0.00107000  0.96839800  1
  Li  Li12  1  0.74855900  0.50210900  0.03165400  1
  Li  Li13  1  0.74819800  0.99895400  0.53166500  1
  Li  Li14  1  0.74795500  0.71835500  0.25096000  1
  Li  Li15  1  0.74867600  0.21819000  0.74787300  1
  Li  Li16  1  0.24841600  0.28161900  0.74715000  1
  Li  Li17  1  0.25256600  0.78163800  0.25184800  1
  Li  Li18  1  0.24839000  0.50287100  0.96820700  1
  Li  Li19  1  0.25277700  0.99809800  0.46826500  1
  Li  Li20  1  0.24834500  0.49708600  0.53168100  1
  Li  Li21  1  0.25278300  0.00192300  0.03182200  1
  Li  Li22  1  0.24844700  0.71833000  0.75282600  1
  Li  Li23  1  0.25252800  0.21848200  0.24814900  1
  Ni  Ni0  1  0.76542100  0.00013500  0.25006400  1
  Ni  Ni1  1  0.23905400  0.50019100  0.24996800  1
  Ni  Ni2  1  0.23890800  0.99992200  0.75012500  1
  Ni  Ni3  1  0.74083300  0.50001900  0.74995500  1
  O  O0  1  0.96043500  0.13464800  0.11541600  1
  O  O1  1  0.96250000  0.62944900  0.62059500  1
  O  O2  1  0.96253300  0.37050200  0.87938100  1
  O  O3  1  0.96046000  0.86531500  0.38459100  1
  O  O4  1  0.46295000  0.13131100  0.87937600  1
  O  O5  1  0.46289400  0.62925700  0.38141100  1
  O  O6  1  0.46280600  0.37083600  0.11858700  1
  O  O7  1  0.46286700  0.86870800  0.62070200  1
  O  O8  1  0.04057500  0.63448800  0.11767300  1
  O  O9  1  0.04071800  0.13210500  0.61556600  1
  O  O10  1  0.04062200  0.86781300  0.88455000  1
  O  O11  1  0.04071400  0.36566300  0.38218900  1
  O  O12  1  0.53830500  0.87109900  0.12119600  1
  O  O13  1  0.54028200  0.36556900  0.61563300  1
  O  O14  1  0.54037600  0.63435700  0.88430300  1
  O  O15  1  0.53830600  0.12894600  0.37882700  1
loop_
_geom_bond_atom_site_label_1
_geom_bond_atom_site_label_2
_geom_bond_distance
_geom_bond_site_symmetry_2
Li0 O4 1.921210 1_555
Li0 O6 1.921421 1_556
Li0 O0 1.972617 1_556
Li0 O2 1.996750 1_555
Li1 O5 1.920994 1_555
Li1 O7 1.921551 1_555
Li1 O3 1.972583 1_555
Li1 O1 1.996778 1_555
Li2 O0 1.922178 1_456
Li2 O2 1.922813 1_455
Li2 O6 1.991115 1_556
Li2 O4 1.991257 1_555
Li3 O3 1.922036 1_455
Li3 O1 1.922873 1_455
Li3 O5 1.990928 1_555
Li3 O7 1.991491 1_555
Li4 O14 1.908234 1_554
Li4 O12 1.909139 1_555
Li4 O10 1.969526 1_554
Li4 O8 1.970131 1_555
Li5 O13 1.907848 1_555
Li5 O15 1.908623 1_555
Li5 O9 1.970195 1_555
Li5 O11 1.970851 1_555
Li6 O10 1.908374 1_654
Li6 O8 1.908524 1_655
Li6 O14 1.964872 1_554
Li6 O12 1.988915 1_555
Li7 O9 1.909723 1_655
Li7 O11 1.909928 1_655
Li7 O13 1.964669 1_555
Li7 O15 1.988875 1_555
Li8 O6 1.992006 1_555
Li8 O11 1.999953 1_655
Li8 O0 2.092819 1_555
Li8 O15 2.120923 1_555
Li9 O7 1.990963 1_555
Li9 O10 2.001370 1_655
Li9 O14 2.097193 1_555
Li9 O1 2.116383 1_555
Li10 O5 1.990522 1_555
Li10 O11 2.000070 1_655
Li10 O13 2.097931 1_555
Li10 O1 2.117202 1_555
Li11 O4 1.990750 1_555
Li11 O10 1.999140 1_645
Li11 O0 2.091959 1_556
Li11 O12 2.122498 1_546
Li12 O6 1.990088 1_555
Li12 O8 2.000869 1_655
Li12 O14 2.097302 1_554
Li12 O2 2.117091 1_554
Li13 O7 1.991085 1_555
Li13 O9 1.999215 1_665
Li13 O3 2.092481 1_555
Li13 O15 2.122946 1_565
Li14 O5 1.991463 1_555
Li14 O8 1.999789 1_655
Li14 O3 2.092542 1_555
Li14 O12 2.120688 1_555
Li15 O4 1.990912 1_555
Li15 O9 2.000386 1_655
Li15 O13 2.097947 1_555
Li15 O2 2.116842 1_555
Li16 O2 1.991040 1_455
Li16 O13 1.999202 1_555
Li16 O9 2.086482 1_555
Li16 O4 2.129403 1_555
Li17 O3 1.994340 1_455
Li17 O12 1.996171 1_555
Li17 O8 2.095547 1_555
Li17 O5 2.118764 1_555
Li18 O2 1.991921 1_455
Li18 O14 1.999461 1_555
Li18 O8 2.086341 1_556
Li18 O6 2.128472 1_556
Li19 O3 1.995636 1_455
Li19 O15 1.996754 1_565
Li19 O9 2.095429 1_565
Li19 O7 2.117579 1_555
Li20 O1 1.991980 1_455
Li20 O13 1.999680 1_555
Li20 O11 2.085247 1_555
Li20 O5 2.128754 1_555
Li21 O0 1.994913 1_455
Li21 O12 1.996365 1_545
Li21 O10 2.096243 1_544
Li21 O4 2.117717 1_554
Li22 O1 1.991463 1_455
Li22 O14 1.999370 1_555
Li22 O10 2.087135 1_555
Li22 O7 2.128982 1_555
Li23 O0 1.995037 1_455
Li23 O15 1.996846 1_555
Li23 O11 2.094410 1_555
Li23 O6 2.118437 1_555
Ni0 O15 1.994177 1_555
Ni0 O12 1.996216 1_545
Ni0 O0 2.005178 1_555
Ni0 O3 2.006388 1_545
Ni1 O8 1.997537 1_555
Ni1 O11 1.998121 1_555
Ni1 O5 2.002763 1_555
Ni1 O6 2.003604 1_555
Ni2 O10 1.996728 1_555
Ni2 O9 1.997804 1_565
Ni2 O7 2.003552 1_555
Ni2 O4 2.003986 1_565
Ni3 O14 1.995084 1_555
Ni3 O13 1.995974 1_555
Ni3 O1 2.005260 1_555
Ni3 O2 2.006269 1_555
