# generated using pymatgen
data_Li17La12Zr8O48
_symmetry_space_group_name_H-M   'P 1'
_cell_length_a   11.35238556
_cell_length_b   11.35238556
_cell_length_c   11.35238556
_cell_angle_alpha   108.37175958
_cell_angle_beta   108.37175958
_cell_angle_gamma   111.69325546
_symmetry_Int_Tables_number   1
_chemical_formula_structural   Li17La12Zr8O48
_chemical_formula_sum   'Li17 La12 Zr8 O48'
_cell_volume   1124.98628161
_cell_formula_units_Z   1
loop_
 _symmetry_equiv_pos_site_id
 _symmetry_equiv_pos_as_xyz
  1  'x, y, z'
loop_
 _atom_site_type_symbol
 _atom_site_label
 _atom_site_symmetry_multiplicity
 _atom_site_fract_x
 _atom_site_fract_y
 _atom_site_fract_z
 _atom_site_occupancy
  Li  Li0  1  0.50000000  0.50000000  0.00000000  1
  Li  Li1  1  0.66279400  0.40222200  0.91204600  1
  Li  Li2  1  0.15091900  0.23426600  0.24478900  1
  Li  Li3  1  0.65756100  0.39899900  0.41821200  1
  Li  Li4  1  0.15607700  0.74006600  0.25433200  1
  Li  Li5  1  0.09825500  0.84392300  0.58398800  1
  Li  Li6  1  0.60100100  0.01921200  0.25856200  1
  Li  Li7  1  0.09387100  0.84908100  0.08334800  1
  Li  Li8  1  0.59777800  0.50982400  0.26057200  1
  Li  Li9  1  0.98947700  0.90612900  0.75521100  1
  Li  Li10  1  0.49017600  0.75074800  0.08795400  1
  Li  Li11  1  0.48573300  0.90174500  0.74566800  1
  Li  Li12  1  0.98078800  0.23935000  0.58178800  1
  Li  Li13  1  0.76065000  0.34243900  0.74143800  1
  Li  Li14  1  0.25993400  0.51426700  0.41601200  1
  Li  Li15  1  0.24925200  0.33720600  0.73942800  1
  Li  Li16  1  0.76573400  0.01052300  0.91665200  1
  La  La0  1  0.24701000  0.24701000  0.00000000  1
  La  La1  1  0.75299000  0.75299000  0.00000000  1
  La  La2  1  0.49983900  0.99983900  0.50000000  1
  La  La3  1  0.00016100  0.50016100  0.50000000  1
  La  La4  1  0.26379700  0.87594000  0.88915000  1
  La  La5  1  0.76311900  0.87387100  0.38757300  1
  La  La6  1  0.12406000  0.01321000  0.38785700  1
  La  La7  1  0.62445400  0.23688100  0.11075200  1
  La  La8  1  0.48629800  0.37554600  0.61242700  1
  La  La9  1  0.98679000  0.37464700  0.11085000  1
  La  La10  1  0.12612900  0.51370200  0.88924800  1
  La  La11  1  0.62535300  0.73620300  0.61214300  1
  Zr  Zr0  1  0.37668100  0.12914400  0.75678500  1
  Zr  Zr1  1  0.87445100  0.12361000  0.24996400  1
  Zr  Zr2  1  0.37551400  0.12554900  0.24915900  1
  Zr  Zr3  1  0.87085600  0.62764200  0.24753700  1
  Zr  Zr4  1  0.87364500  0.62448600  0.75003600  1
  Zr  Zr5  1  0.37235800  0.61989500  0.24321500  1
  Zr  Zr6  1  0.38010500  0.62331900  0.75246300  1
  Zr  Zr7  1  0.87639000  0.12635500  0.75084100  1
  O  O0  1  0.19466100  0.02657500  0.78279400  1
  O  O1  1  0.69326400  0.91287700  0.16890500  1
  O  O2  1  0.27726300  0.94500900  0.28194500  1
  O  O3  1  0.77675000  0.49497600  0.33294700  1
  O  O4  1  0.55619700  0.22325000  0.71822500  1
  O  O5  1  0.05499100  0.33693600  0.33225400  1
  O  O6  1  0.47564100  0.30673600  0.21961300  1
  O  O7  1  0.97342500  0.75621900  0.16808600  1
  O  O8  1  0.74397200  0.52435900  0.83109500  1
  O  O9  1  0.24378100  0.41186600  0.21720600  1
  O  O10  1  0.16202800  0.44380300  0.66705300  1
  O  O11  1  0.66306400  0.99531800  0.71805500  1
  O  O12  1  0.00468200  0.72273700  0.66774600  1
  O  O13  1  0.50502400  0.83797200  0.28177500  1
  O  O14  1  0.58813400  0.80533900  0.83191400  1
  O  O15  1  0.08712300  0.25602800  0.78038700  1
  O  O16  1  0.89671900  0.44591200  0.66077900  1
  O  O17  1  0.39857900  0.73909900  0.45033700  1
  O  O18  1  0.69176800  0.64316900  0.15783400  1
  O  O19  1  0.19764500  0.03639700  0.04970800  1
  O  O20  1  0.85206400  0.80235500  0.83875300  1
  O  O21  1  0.35683100  0.51466500  0.04859900  1
  O  O22  1  0.05175800  0.60142100  0.34052000  1
  O  O23  1  0.55408800  0.21486800  0.45080700  1
  O  O24  1  0.28876200  0.94824200  0.54966300  1
  O  O25  1  0.78513200  0.23594000  0.33922100  1
  O  O26  1  0.98668900  0.14793600  0.95029200  1
  O  O27  1  0.48533500  0.53393400  0.84216600  1
  O  O28  1  0.46606600  0.30823200  0.95140100  1
  O  O29  1  0.96360300  0.01331100  0.16124700  1
  O  O30  1  0.76406000  0.10328100  0.54919300  1
  O  O31  1  0.26090100  0.71123800  0.65948000  1
  O  O32  1  0.07927600  0.70951500  0.92230100  1
  O  O33  1  0.57843300  0.65829200  0.37158200  1
  O  O34  1  0.96004900  0.82968300  0.42373500  1
  O  O35  1  0.46027000  0.03621700  0.13032200  1
  O  O36  1  0.67005200  0.53973000  0.57594700  1
  O  O37  1  0.17031700  0.59405200  0.13036600  1
  O  O38  1  0.79314900  0.42156700  0.07985900  1
  O  O39  1  0.29048500  0.21278600  0.36976100  1
  O  O40  1  0.28671000  0.20685100  0.62841800  1
  O  O41  1  0.78721400  0.15697500  0.07769900  1
  O  O42  1  0.90589500  0.32994800  0.86967800  1
  O  O43  1  0.40594800  0.53631400  0.57626500  1
  O  O44  1  0.46368600  0.03995100  0.86963400  1
  O  O45  1  0.96378300  0.09410500  0.42405300  1
  O  O46  1  0.84302500  0.92072400  0.63023900  1
  O  O47  1  0.34170800  0.71329000  0.92014100  1
loop_
_geom_bond_atom_site_label_1
_geom_bond_atom_site_label_2
_geom_bond_distance
_geom_bond_site_symmetry_2
Li0 O21 1.918626 1_555
Li0 O28 1.918626 1_554
Li0 O18 1.918626 1_555
Li0 O27 1.918626 1_554
Li1 O38 1.893770 1_556
Li1 O8 2.002190 1_555
Li1 O4 2.029716 1_555
Li1 O28 2.343860 1_555
Li2 O39 1.915554 1_555
Li2 O9 2.075848 1_555
Li2 O5 2.102576 1_555
Li2 O29 2.235872 1_455
Li3 O36 1.910007 1_555
Li3 O3 2.086974 1_555
Li3 O6 2.102974 1_555
Li3 O23 2.198308 1_555
Li4 O37 1.904032 1_555
Li4 O2 2.075119 1_555
Li4 O7 2.099125 1_455
Li4 O22 2.271642 1_555
Li5 O34 1.904024 1_455
Li5 O12 2.075128 1_555
Li5 O0 2.099132 1_565
Li5 O24 2.271635 1_555
Li6 O35 1.910014 1_555
Li6 O13 2.086962 1_545
Li6 O1 2.102967 1_545
Li6 O25 2.198319 1_555
Li7 O32 1.915556 1_554
Li7 O7 2.075855 1_455
Li7 O2 2.102564 1_555
Li7 O19 2.235879 1_565
Li8 O33 1.893770 1_555
Li8 O6 2.002190 1_555
Li8 O3 2.029709 1_555
Li8 O18 2.343860 1_555
Li9 O46 1.915561 1_555
Li9 O0 2.075860 1_665
Li9 O12 2.102567 1_655
Li9 O20 2.235872 1_555
Li10 O47 1.893770 1_554
Li10 O1 2.002190 1_555
Li10 O13 2.029721 1_555
Li10 O21 2.343860 1_555
Li11 O44 1.904024 1_565
Li11 O11 2.075128 1_555
Li11 O14 2.099139 1_555
Li11 O31 2.271635 1_555
Li12 O45 1.910007 1_555
Li12 O10 2.086957 1_655
Li12 O15 2.102977 1_655
Li12 O30 2.198329 1_555
Li13 O42 1.910014 1_555
Li13 O4 2.086960 1_555
Li13 O8 2.102967 1_555
Li13 O16 2.198324 1_555
Li14 O43 1.904030 1_555
Li14 O5 2.075121 1_555
Li14 O9 2.099139 1_555
Li14 O17 2.271638 1_555
Li15 O40 1.893770 1_555
Li15 O15 2.002190 1_555
Li15 O10 2.029716 1_555
Li15 O27 2.343860 1_555
Li16 O41 1.915561 1_556
Li16 O14 2.075855 1_545
Li16 O11 2.102567 1_545
Li16 O26 2.235868 1_555
La0 O26 2.531495 1_454
La0 O19 2.531496 1_555
La0 O9 2.604381 1_555
La0 O0 2.604386 1_554
La0 O28 2.607774 1_554
La0 O21 2.607774 1_555
La0 O15 2.639407 1_554
La0 O6 2.639407 1_555
La1 O20 2.531492 1_554
La1 O29 2.531495 1_565
La1 O14 2.604379 1_554
La1 O7 2.604386 1_555
La1 O27 2.607774 1_554
La1 O18 2.607774 1_555
La1 O8 2.639407 1_554
La1 O1 2.639407 1_555
La2 O24 2.534761 1_555
La2 O17 2.534761 1_555
La2 O30 2.571920 1_565
La2 O23 2.571931 1_565
La2 O13 2.611471 1_555
La2 O4 2.611477 1_565
La2 O2 2.612083 1_555
La2 O11 2.612083 1_555
La3 O31 2.534761 1_555
La3 O22 2.534761 1_555
La3 O16 2.571920 1_455
La3 O25 2.571924 1_455
La3 O10 2.611477 1_555
La3 O3 2.611484 1_455
La3 O5 2.612083 1_555
La3 O12 2.612083 1_555
La4 O47 2.395038 1_555
La4 O35 2.406578 1_566
La4 O32 2.473563 1_555
La4 O44 2.473582 1_565
La4 O0 2.587379 1_565
La4 O12 2.607079 1_555
La4 O19 2.643032 1_566
La4 O31 2.668819 1_555
La5 O34 2.408018 1_555
La5 O46 2.416465 1_555
La5 O33 2.470818 1_555
La5 O45 2.480704 1_565
La5 O1 2.588219 1_555
La5 O13 2.604589 1_555
La5 O30 2.665353 1_565
La5 O18 2.666780 1_555
La6 O40 2.395038 1_555
La6 O45 2.406578 1_455
La6 O39 2.473563 1_555
La6 O34 2.473582 1_445
La6 O7 2.587379 1_445
La6 O2 2.607079 1_545
La6 O29 2.643040 1_455
La6 O24 2.668819 1_545
La7 O44 2.408018 1_554
La7 O41 2.416465 1_555
La7 O38 2.470818 1_555
La7 O35 2.480704 1_555
La7 O6 2.588219 1_555
La7 O3 2.604585 1_555
La7 O25 2.665348 1_555
La7 O28 2.666780 1_554
La8 O43 2.408018 1_555
La8 O39 2.416465 1_555
La8 O40 2.470818 1_555
La8 O36 2.480704 1_555
La8 O8 2.588219 1_555
La8 O4 2.604578 1_555
La8 O23 2.665346 1_555
La8 O27 2.666780 1_555
La9 O38 2.395038 1_555
La9 O42 2.406578 1_554
La9 O41 2.473563 1_555
La9 O37 2.473582 1_655
La9 O9 2.587383 1_655
La9 O5 2.607079 1_655
La9 O26 2.643040 1_554
La9 O22 2.668819 1_655
La10 O37 2.408018 1_556
La10 O32 2.416465 1_555
La10 O47 2.470818 1_555
La10 O42 2.480704 1_455
La10 O15 2.588219 1_555
La10 O10 2.604578 1_555
La10 O16 2.665353 1_455
La10 O21 2.666780 1_556
La11 O33 2.395038 1_555
La11 O36 2.406578 1_555
La11 O46 2.473563 1_555
La11 O43 2.473582 1_555
La11 O14 2.587372 1_555
La11 O11 2.607079 1_555
La11 O20 2.643045 1_555
La11 O17 2.668819 1_555
O0 Zr0 2.129656 1_555
O1 Zr1 2.140606 1_565
O2 Zr2 2.153103 1_565
O3 Zr3 2.175714 1_555
O4 Zr0 2.175714 1_555
O5 Zr1 2.153101 1_455
O6 Zr2 2.140603 1_555
O7 Zr3 2.129649 1_555
O8 Zr4 2.140594 1_555
O9 Zr5 2.129653 1_555
O10 Zr6 2.175721 1_555
O11 Zr7 2.153103 1_565
O12 Zr4 2.153112 1_455
O13 Zr5 2.175723 1_555
O14 Zr6 2.129656 1_555
O15 Zr7 2.140603 1_455
O16 Zr4 2.114256 1_555
O17 Zr5 2.168840 1_555
O18 Zr3 2.067484 1_555
O19 Zr2 2.095479 1_555
O20 Zr4 2.095472 1_555
O21 Zr5 2.067494 1_555
O22 Zr3 2.168849 1_455
O23 Zr2 2.114251 1_555
O24 Zr0 2.168842 1_565
O25 Zr1 2.114268 1_555
O26 Zr7 2.095484 1_555
O27 Zr6 2.067484 1_555
O28 Zr0 2.067491 1_555
O29 Zr1 2.095479 1_555
O30 Zr7 2.114253 1_555
O31 Zr6 2.168849 1_555
O32 Zr4 2.114738 1_455
O33 Zr5 2.117382 1_555
O34 Zr3 2.097966 1_555
O35 Zr2 2.109852 1_555
O36 Zr4 2.109857 1_555
O37 Zr5 2.097969 1_555
O38 Zr3 2.117385 1_555
O39 Zr2 2.114743 1_555
O40 Zr0 2.117377 1_555
O41 Zr1 2.114733 1_555
O42 Zr7 2.109852 1_555
O43 Zr6 2.097966 1_555
O44 Zr0 2.097973 1_555
O45 Zr1 2.109862 1_555
O46 Zr7 2.114743 1_565
O47 Zr6 2.117385 1_555
