# generated using pymatgen
data_MgSi2
_symmetry_space_group_name_H-M   'P 1'
_cell_length_a   5.11142116
_cell_length_b   5.11142116
_cell_length_c   12.42860645
_cell_angle_alpha   75.78127196
_cell_angle_beta   75.78127196
_cell_angle_gamma   40.44387294
_symmetry_Int_Tables_number   1
_chemical_formula_structural   MgSi2
_chemical_formula_sum   'Mg4 Si8'
_cell_volume   203.30069866
_cell_formula_units_Z   4
loop_
 _symmetry_equiv_pos_site_id
 _symmetry_equiv_pos_as_xyz
  1  'x, y, z'
loop_
 _atom_site_type_symbol
 _atom_site_label
 _atom_site_symmetry_multiplicity
 _atom_site_fract_x
 _atom_site_fract_y
 _atom_site_fract_z
 _atom_site_occupancy
  Mg  Mg0  1  0.84543200  0.84543200  0.94603700  1
  Mg  Mg1  1  0.83772300  0.83772300  0.19047900  1
  Mg  Mg2  1  0.16024500  0.16024500  0.37574200  1
  Mg  Mg3  1  0.48993000  0.48993000  0.55950300  1
  Si  Si0  1  0.54768200  0.54768200  0.03510200  1
  Si  Si1  1  0.14468000  0.14468000  0.87146700  1
  Si  Si2  1  0.80097800  0.80097800  0.72977900  1
  Si  Si3  1  0.46844100  0.46844100  0.31546900  1
  Si  Si4  1  0.52635100  0.52635100  0.76655900  1
  Si  Si5  1  0.13020100  0.13020100  0.14545900  1
  Si  Si6  1  0.84071300  0.84071300  0.45101500  1
  Si  Si7  1  0.19540400  0.19540400  0.61328900  1
loop_
_geom_bond_atom_site_label_1
_geom_bond_atom_site_label_2
_geom_bond_distance
_geom_bond_site_symmetry_2
Mg0 Si1 2.776059 1_665
Mg0 Si0 2.779961 1_556
Mg0 Si2 2.829501 1_555
Mg0 Si1 2.936572 1_655
Mg0 Si1 2.936572 1_565
Mg0 Si4 3.013753 1_655
Mg0 Si4 3.013753 1_565
Mg0 Si0 3.038971 1_566
Mg0 Si0 3.038971 1_656
Mg1 Si5 2.713474 1_665
Mg1 Si5 2.825010 1_565
Mg1 Si5 2.825010 1_655
Mg1 Si3 2.850779 1_655
Mg1 Si3 2.850779 1_565
Mg1 Si0 2.978444 1_655
Mg1 Si0 2.978444 1_565
Mg1 Mg2 3.044605 1_655
Mg1 Mg2 3.044605 1_565
Mg2 Si3 2.790990 1_545
Mg2 Si3 2.790990 1_455
Mg2 Si6 2.800299 1_455
Mg2 Si6 2.800299 1_545
Mg2 Si3 2.853462 1_555
Mg2 Si5 2.950676 1_555
Mg2 Si6 2.961304 1_445
Mg2 Mg3 3.008912 1_455
Mg2 Mg3 3.008912 1_545
Mg2 Si7 3.058035 1_555
Mg3 Si4 2.686118 1_555
Mg3 Si7 2.727721 1_555
Mg3 Si6 2.828241 1_455
Mg3 Si6 2.828241 1_545
Mg3 Si7 2.853648 1_565
Mg3 Si7 2.853648 1_655
Mg3 Si2 2.979513 1_545
Mg3 Si2 2.979513 1_455
Mg3 Si3 3.093365 1_555
Si0 Si5 2.489543 1_655
Si0 Si5 2.489543 1_565
Si0 Si1 2.670739 1_564
Si0 Si1 2.670739 1_654
Si1 Si4 2.623908 1_455
Si1 Si4 2.623908 1_545
Si1 Si2 2.662402 1_545
Si1 Si2 2.662402 1_455
Si2 Si4 2.553169 1_555
Si2 Si7 2.647827 1_565
Si2 Si7 2.647827 1_655
Si2 Si4 2.919230 1_655
Si2 Si4 2.919230 1_565
Si3 Si6 2.525920 1_545
Si3 Si6 2.525920 1_455
Si3 Si5 2.877089 1_565
Si3 Si5 2.877089 1_655
Si4 Si7 2.786207 1_565
Si4 Si7 2.786207 1_655
Si6 Si7 2.767751 1_565
Si6 Si7 2.767751 1_655
