# generated using pymatgen
data_RbNaMg14O15
_symmetry_space_group_name_H-M   'P 1'
_cell_length_a   4.21256800
_cell_length_b   8.37666900
_cell_length_c   10.41061500
_cell_angle_alpha   90.00000000
_cell_angle_beta   90.00000000
_cell_angle_gamma   90.00000000
_symmetry_Int_Tables_number   1
_chemical_formula_structural   RbNaMg14O15
_chemical_formula_sum   'Rb1 Na1 Mg14 O15'
_cell_volume   367.36236743
_cell_formula_units_Z   1
loop_
 _symmetry_equiv_pos_site_id
 _symmetry_equiv_pos_as_xyz
  1  'x, y, z'
loop_
 _atom_site_type_symbol
 _atom_site_label
 _atom_site_symmetry_multiplicity
 _atom_site_fract_x
 _atom_site_fract_y
 _atom_site_fract_z
 _atom_site_occupancy
  Rb  Rb0  1  0.00000000  0.50000000  0.44639400  1
  Na  Na0  1  0.00000000  0.00000000  0.02017200  1
  Mg  Mg0  1  0.00000000  0.50000000  0.98182300  1
  Mg  Mg1  1  0.00000000  0.00000000  0.48124900  1
  Mg  Mg2  1  0.50000000  0.75978400  0.98503100  1
  Mg  Mg3  1  0.50000000  0.24021600  0.98503100  1
  Mg  Mg4  1  0.50000000  0.75474300  0.56998000  1
  Mg  Mg5  1  0.50000000  0.24525700  0.56998000  1
  Mg  Mg6  1  0.50000000  0.00000000  0.78344200  1
  Mg  Mg7  1  0.50000000  0.50000000  0.76851000  1
  Mg  Mg8  1  0.50000000  0.00000000  0.27311100  1
  Mg  Mg9  1  0.50000000  0.50000000  0.17541100  1
  Mg  Mg10  1  0.00000000  0.72854900  0.76884900  1
  Mg  Mg11  1  0.00000000  0.27145100  0.76884900  1
  Mg  Mg12  1  0.00000000  0.75100000  0.18643900  1
  Mg  Mg13  1  0.00000000  0.24900000  0.18643900  1
  O  O0  1  0.00000000  0.50000000  0.78732200  1
  O  O1  1  0.00000000  0.00000000  0.26016500  1
  O  O2  1  0.00000000  0.50000000  0.18658900  1
  O  O3  1  0.50000000  0.76612500  0.76972300  1
  O  O4  1  0.50000000  0.23387500  0.76972300  1
  O  O5  1  0.50000000  0.75123300  0.19850100  1
  O  O6  1  0.50000000  0.24876700  0.19850100  1
  O  O7  1  0.50000000  0.00000000  0.96570100  1
  O  O8  1  0.50000000  0.50000000  0.97926600  1
  O  O9  1  0.50000000  0.00000000  0.47391500  1
  O  O10  1  0.50000000  0.50000000  0.57745900  1
  O  O11  1  0.00000000  0.74419800  0.98216100  1
  O  O12  1  0.00000000  0.25580200  0.98216100  1
  O  O13  1  0.00000000  0.79833900  0.58405400  1
  O  O14  1  0.00000000  0.20166100  0.58405400  1
loop_
_geom_bond_atom_site_label_1
_geom_bond_atom_site_label_2
_geom_bond_distance
_geom_bond_site_symmetry_2
Na0 O12 2.179002 1_554
Na0 O11 2.179002 1_544
Na0 O7 2.181286 1_554
Na0 O7 2.181286 1_454
Na0 O1 2.498475 1_555
Mg0 O0 2.024875 1_555
Mg0 O11 2.045569 1_555
Mg0 O12 2.045569 1_555
Mg0 O8 2.106452 1_555
Mg0 O8 2.106452 1_455
Mg0 O2 2.131740 1_556
Mg1 O13 1.999755 1_545
Mg1 O14 1.999755 1_555
Mg1 O9 2.107667 1_455
Mg1 O9 2.107667 1_555
Mg1 O1 2.301620 1_555
Mg2 O7 2.022248 1_565
Mg2 O11 2.110538 1_555
Mg2 O11 2.110538 1_655
Mg2 O8 2.176952 1_555
Mg2 O5 2.223508 1_556
Mg2 O3 2.242118 1_555
Mg3 O7 2.022248 1_555
Mg3 O12 2.110538 1_655
Mg3 O12 2.110538 1_555
Mg3 O8 2.176952 1_555
Mg3 O6 2.223508 1_556
Mg3 O4 2.242118 1_555
Mg4 O3 2.081632 1_555
Mg4 O10 2.135318 1_555
Mg4 O13 2.142723 1_555
Mg4 O13 2.142723 1_655
Mg4 O9 2.284929 1_565
Mg5 O4 2.081632 1_555
Mg5 O10 2.135318 1_555
Mg5 O14 2.142723 1_555
Mg5 O14 2.142723 1_655
Mg5 O9 2.284929 1_555
Mg6 O7 1.897428 1_555
Mg6 O4 1.964293 1_555
Mg6 O3 1.964293 1_545
Mg7 O10 1.988958 1_555
Mg7 O0 2.115369 1_555
Mg7 O0 2.115369 1_655
Mg7 O8 2.194100 1_555
Mg7 O3 2.229277 1_555
Mg7 O4 2.229277 1_555
Mg8 O9 2.090493 1_555
Mg8 O1 2.110592 1_555
Mg8 O1 2.110592 1_655
Mg8 O5 2.223894 1_545
Mg8 O6 2.223894 1_555
Mg9 O8 2.041990 1_554
Mg9 O2 2.109496 1_655
Mg9 O2 2.109496 1_555
Mg9 O5 2.118180 1_555
Mg9 O6 2.118180 1_555
Mg10 O0 1.924114 1_555
Mg10 O13 2.010693 1_555
Mg10 O3 2.129692 1_555
Mg10 O3 2.129692 1_455
Mg10 O11 2.224575 1_555
Mg11 O0 1.924114 1_555
Mg11 O14 2.010693 1_555
Mg11 O4 2.129692 1_455
Mg11 O4 2.129692 1_555
Mg11 O12 2.224575 1_555
Mg12 O2 2.102544 1_555
Mg12 O5 2.110025 1_555
Mg12 O5 2.110025 1_455
Mg12 O11 2.127423 1_554
Mg12 O1 2.222528 1_565
Mg13 O2 2.102544 1_555
Mg13 O6 2.110025 1_555
Mg13 O6 2.110025 1_455
Mg13 O12 2.127423 1_554
Mg13 O1 2.222528 1_555
O2 Rb0 2.704730 1_555
O10 Rb0 2.509622 1_655
O10 Rb0 2.509622 1_555
O13 Rb0 2.880848 1_555
O14 Rb0 2.880848 1_555
