# generated using pymatgen
data_Mo3S4
_symmetry_space_group_name_H-M   'P 1'
_cell_length_a   3.85441067
_cell_length_b   14.48699190
_cell_length_c   12.22470342
_cell_angle_alpha   138.23643974
_cell_angle_beta   102.56991712
_cell_angle_gamma   94.56256127
_symmetry_Int_Tables_number   1
_chemical_formula_structural   Mo3S4
_chemical_formula_sum   'Mo6 S8'
_cell_volume   411.90278311
_cell_formula_units_Z   2
loop_
 _symmetry_equiv_pos_site_id
 _symmetry_equiv_pos_as_xyz
  1  'x, y, z'
loop_
 _atom_site_type_symbol
 _atom_site_label
 _atom_site_symmetry_multiplicity
 _atom_site_fract_x
 _atom_site_fract_y
 _atom_site_fract_z
 _atom_site_occupancy
  Mo  Mo0  1  0.94015900  0.80282600  0.11752200  1
  Mo  Mo1  1  0.39442800  0.37582100  0.40755100  1
  Mo  Mo2  1  0.56214500  0.88118000  0.30994100  1
  Mo  Mo3  1  0.05984100  0.19717400  0.88247800  1
  Mo  Mo4  1  0.60557200  0.62417900  0.59244900  1
  Mo  Mo5  1  0.43785500  0.11882000  0.69005900  1
  S  S0  1  0.20056500  0.26546800  0.13193700  1
  S  S1  1  0.90722800  0.32091000  0.45211100  1
  S  S2  1  0.19684000  0.32046100  0.84008200  1
  S  S3  1  0.79943500  0.73453200  0.86806300  1
  S  S4  1  0.09277200  0.67909000  0.54788900  1
  S  S5  1  0.80316000  0.67953900  0.15991800  1
  S  S6  1  0.79314500  0.94236500  0.57455900  1
  S  S7  1  0.20685500  0.05763500  0.42544100  1
loop_
_geom_bond_atom_site_label_1
_geom_bond_atom_site_label_2
_geom_bond_distance
_geom_bond_site_symmetry_2
Mo0 S5 2.255537 1_555
Mo0 S3 2.294898 1_554
Mo0 Mo2 2.387123 1_655
Mo0 S7 2.415711 1_665
Mo0 Mo2 2.591564 1_555
Mo1 S0 2.268247 1_555
Mo1 S1 2.294388 1_555
Mo1 S1 2.304336 1_455
Mo1 Mo4 2.306087 1_555
Mo2 S5 2.437393 1_555
Mo2 S6 2.527081 1_555
Mo2 S7 2.533323 1_565
Mo2 S7 2.604057 1_665
Mo2 S5 2.961071 1_455
Mo3 S2 2.255537 1_555
Mo3 S0 2.294898 1_556
Mo3 Mo5 2.387123 1_455
Mo3 S6 2.415711 1_445
Mo3 Mo5 2.591564 1_555
Mo4 S3 2.268247 1_555
Mo4 S4 2.294388 1_555
Mo4 S4 2.304336 1_655
Mo5 S2 2.437393 1_555
Mo5 S7 2.527081 1_555
Mo5 S6 2.533323 1_545
Mo5 S6 2.604057 1_445
Mo5 S2 2.961071 1_655
