# generated using pymatgen
data_Ca2CoAs2(HO4)2
_symmetry_space_group_name_H-M   'P 1'
_cell_length_a   6.05065728
_cell_length_b   5.53221769
_cell_length_c   12.64515700
_cell_angle_alpha   90.00000000
_cell_angle_beta   90.00000000
_cell_angle_gamma   110.05426514
_symmetry_Int_Tables_number   1
_chemical_formula_structural   Ca2CoAs2(HO4)2
_chemical_formula_sum   'Ca4 Co2 As4 H4 O16'
_cell_volume   397.61423850
_cell_formula_units_Z   2
loop_
 _symmetry_equiv_pos_site_id
 _symmetry_equiv_pos_as_xyz
  1  'x, y, z'
loop_
 _atom_site_type_symbol
 _atom_site_label
 _atom_site_symmetry_multiplicity
 _atom_site_fract_x
 _atom_site_fract_y
 _atom_site_fract_z
 _atom_site_occupancy
  Ca  Ca0  1  0.58719800  0.03532100  0.81989100  1
  Ca  Ca1  1  0.41280200  0.96467900  0.31989100  1
  Ca  Ca2  1  0.54822600  0.48681500  0.56641300  1
  Ca  Ca3  1  0.45177400  0.51318500  0.06641300  1
  Co  Co0  1  0.06559500  0.78576100  0.98358300  1
  Co  Co1  1  0.93440500  0.21423900  0.48358300  1
  As  As0  1  0.20766000  0.81040400  0.57832200  1
  As  As1  1  0.79234000  0.18959600  0.07832200  1
  As  As2  1  0.76205200  0.64981600  0.32805100  1
  As  As3  1  0.23794800  0.35018400  0.82805100  1
  H  H0  1  0.78122400  0.23865000  0.58530200  1
  H  H1  1  0.21877600  0.76135000  0.08530200  1
  H  H2  1  0.94729900  0.57646400  0.70120500  1
  H  H3  1  0.05270100  0.42353600  0.20120500  1
  O  O0  1  0.73290600  0.86242000  0.42632400  1
  O  O1  1  0.26709400  0.13758000  0.92632400  1
  O  O2  1  0.80083900  0.42486800  0.98697700  1
  O  O3  1  0.19916100  0.57513200  0.48697700  1
  O  O4  1  0.42932200  0.81598000  0.66133100  1
  O  O5  1  0.57067800  0.18402000  0.16133100  1
  O  O6  1  0.94147100  0.72290200  0.65537100  1
  O  O7  1  0.05852900  0.27709800  0.15537100  1
  O  O8  1  0.77001400  0.91304800  0.01073600  1
  O  O9  1  0.22998600  0.08695200  0.51073600  1
  O  O10  1  0.32513000  0.64276200  0.89452800  1
  O  O11  1  0.67487000  0.35723800  0.39452800  1
  O  O12  1  0.96607000  0.28253600  0.77422900  1
  O  O13  1  0.03393000  0.71746400  0.27422900  1
  O  O14  1  0.55097400  0.66536500  0.23973800  1
  O  O15  1  0.44902600  0.33463500  0.73973800  1
loop_
_geom_bond_atom_site_label_1
_geom_bond_atom_site_label_2
_geom_bond_distance
_geom_bond_site_symmetry_2
Ca0 O12 2.304097 1_555
Ca0 O15 2.327564 1_555
Ca0 O4 2.368560 1_545
Ca0 O10 2.399956 1_545
Ca0 O1 2.575692 1_555
Ca0 O8 2.831637 1_546
Ca0 O2 2.978049 1_555
Ca1 O13 2.304097 1_555
Ca1 O14 2.327564 1_555
Ca1 O5 2.368560 1_565
Ca1 O11 2.399956 1_565
Ca1 O0 2.575692 1_555
Ca1 O9 2.831637 1_565
Ca1 O3 2.978049 1_555
Ca2 H0 2.292778 1_555
Ca2 O15 2.350774 1_555
Ca2 O4 2.484513 1_555
Ca2 O9 2.485089 1_555
Ca2 O11 2.490369 1_555
Ca2 O3 2.533036 1_555
Ca2 O6 2.549788 1_555
Ca2 O0 2.666840 1_555
Ca3 H1 2.292778 1_555
Ca3 O14 2.350774 1_555
Ca3 O5 2.484513 1_555
Ca3 O8 2.485089 1_555
Ca3 O10 2.490369 1_554
Ca3 O2 2.533036 1_554
Ca3 O7 2.549788 1_555
Ca3 O1 2.666840 1_554
Co0 H1 1.617890 1_556
Co0 O1 2.042425 1_565
Co0 O2 2.088241 1_455
Co0 O8 2.162421 1_456
Co0 O10 2.282981 1_555
Co1 H0 1.617890 1_555
Co1 O0 2.042425 1_545
Co1 O3 2.088241 1_655
Co1 O9 2.162421 1_655
Co1 O11 2.282981 1_555
As0 O4 1.695048 1_555
As0 O9 1.716851 1_565
As0 O3 1.727724 1_555
As0 O6 1.800824 1_455
As1 O5 1.695048 1_555
As1 O8 1.716851 1_545
As1 O2 1.727724 1_554
As1 O7 1.800824 1_655
As2 O13 1.699175 1_655
As2 O14 1.720748 1_555
As2 O11 1.737586 1_555
As2 O0 1.760960 1_555
As3 O12 1.699175 1_455
As3 O15 1.720748 1_555
As3 O10 1.737586 1_555
As3 O1 1.760960 1_555
H2 O6 1.006505 1_555
H3 O7 1.006505 1_555
