# generated using pymatgen
data_Sr3Ta2Ti6O21
_symmetry_space_group_name_H-M   'P 1'
_cell_length_a   8.97255872
_cell_length_b   8.97255872
_cell_length_c   11.66724400
_cell_angle_alpha   90.00000000
_cell_angle_beta   90.00000000
_cell_angle_gamma   120.00000533
_symmetry_Int_Tables_number   1
_chemical_formula_structural   Sr3Ta2Ti6O21
_chemical_formula_sum   'Sr6 Ta4 Ti12 O42'
_cell_volume   813.45120637
_cell_formula_units_Z   2
loop_
 _symmetry_equiv_pos_site_id
 _symmetry_equiv_pos_as_xyz
  1  'x, y, z'
loop_
 _atom_site_type_symbol
 _atom_site_label
 _atom_site_symmetry_multiplicity
 _atom_site_fract_x
 _atom_site_fract_y
 _atom_site_fract_z
 _atom_site_occupancy
  Sr  Sr0  1  0.59784200  0.00000000  0.75000000  1
  Sr  Sr1  1  0.40215800  0.00000000  0.25000000  1
  Sr  Sr2  1  0.00000000  0.59784200  0.75000000  1
  Sr  Sr3  1  0.00000000  0.40215800  0.25000000  1
  Sr  Sr4  1  0.40215800  0.40215800  0.75000000  1
  Sr  Sr5  1  0.59784200  0.59784200  0.25000000  1
  Ta  Ta0  1  0.33333300  0.66666700  0.50000000  1
  Ta  Ta1  1  0.66666700  0.33333300  0.50000000  1
  Ta  Ta2  1  0.66666700  0.33333300  0.00000000  1
  Ta  Ta3  1  0.33333300  0.66666700  0.00000000  1
  Ti  Ti0  1  0.23957000  0.00000000  0.59569500  1
  Ti  Ti1  1  0.76043000  0.00000000  0.40430500  1
  Ti  Ti2  1  0.00000000  0.23957000  0.59569500  1
  Ti  Ti3  1  0.76043000  0.00000000  0.09569500  1
  Ti  Ti4  1  0.00000000  0.23957000  0.90430500  1
  Ti  Ti5  1  0.00000000  0.76043000  0.40430500  1
  Ti  Ti6  1  0.23957000  0.00000000  0.90430500  1
  Ti  Ti7  1  0.00000000  0.76043000  0.09569500  1
  Ti  Ti8  1  0.76043000  0.76043000  0.59569500  1
  Ti  Ti9  1  0.23957000  0.23957000  0.40430500  1
  Ti  Ti10  1  0.23957000  0.23957000  0.09569500  1
  Ti  Ti11  1  0.76043000  0.76043000  0.90430500  1
  O  O0  1  0.16463500  0.48438900  0.60429900  1
  O  O1  1  0.83536500  0.51561100  0.39570100  1
  O  O2  1  0.51561100  0.68024600  0.60429900  1
  O  O3  1  0.83536500  0.51561100  0.10429900  1
  O  O4  1  0.48438900  0.16463500  0.89570100  1
  O  O5  1  0.48438900  0.31975400  0.39570100  1
  O  O6  1  0.16463500  0.48438900  0.89570100  1
  O  O7  1  0.51561100  0.83536500  0.10429900  1
  O  O8  1  0.31975400  0.83536500  0.60429900  1
  O  O9  1  0.48438900  0.31975400  0.10429900  1
  O  O10  1  0.68024600  0.51561100  0.89570100  1
  O  O11  1  0.68024600  0.16463500  0.39570100  1
  O  O12  1  0.51561100  0.68024600  0.89570100  1
  O  O13  1  0.31975400  0.48438900  0.10429900  1
  O  O14  1  0.51561100  0.83536500  0.39570100  1
  O  O15  1  0.48438900  0.16463500  0.60429900  1
  O  O16  1  0.68024600  0.16463500  0.10429900  1
  O  O17  1  0.31975400  0.48438900  0.39570100  1
  O  O18  1  0.31975400  0.83536500  0.89570100  1
  O  O19  1  0.68024600  0.51561100  0.60429900  1
  O  O20  1  0.83536500  0.31975400  0.89570100  1
  O  O21  1  0.16463500  0.68024600  0.10429900  1
  O  O22  1  0.16463500  0.68024600  0.39570100  1
  O  O23  1  0.83536500  0.31975400  0.60429900  1
  O  O24  1  0.20951800  0.00000000  0.07528600  1
  O  O25  1  0.79048200  0.00000000  0.92471400  1
  O  O26  1  0.00000000  0.20951800  0.07528600  1
  O  O27  1  0.79048200  0.00000000  0.57528600  1
  O  O28  1  0.00000000  0.20951800  0.42471400  1
  O  O29  1  0.00000000  0.79048200  0.92471400  1
  O  O30  1  0.20951800  0.00000000  0.42471400  1
  O  O31  1  0.00000000  0.79048200  0.57528600  1
  O  O32  1  0.79048200  0.79048200  0.07528600  1
  O  O33  1  0.20951800  0.20951800  0.92471400  1
  O  O34  1  0.20951800  0.20951800  0.57528600  1
  O  O35  1  0.79048200  0.79048200  0.42471400  1
  O  O36  1  0.19770300  0.00000000  0.75000000  1
  O  O37  1  0.80229700  0.00000000  0.25000000  1
  O  O38  1  0.00000000  0.19770300  0.75000000  1
  O  O39  1  0.00000000  0.80229700  0.25000000  1
  O  O40  1  0.80229700  0.80229700  0.75000000  1
  O  O41  1  0.19770300  0.19770300  0.25000000  1
loop_
_geom_bond_atom_site_label_1
_geom_bond_atom_site_label_2
_geom_bond_distance
_geom_bond_site_symmetry_2
O0 Ti2 1.942314 1_555
O0 Ta0 1.992794 1_555
O0 Sr2 2.758959 1_555
O0 Sr4 3.090072 1_555
O1 Ti5 1.942314 1_655
O1 Ta1 1.992794 1_555
O1 Sr3 2.758959 1_655
O1 Sr5 3.090072 1_555
O2 Ti8 1.942314 1_555
O2 Ta0 1.992797 1_555
O2 Sr4 2.758959 1_555
O2 Sr0 3.090072 1_565
O3 Ti7 1.942314 1_655
O3 Ta2 1.992794 1_555
O3 Sr3 2.758959 1_655
O3 Sr5 3.090072 1_555
O4 Ti6 1.942314 1_555
O4 Ta2 1.992794 1_556
O4 Sr0 2.758959 1_555
O4 Sr4 3.090072 1_555
O5 Ti9 1.942314 1_555
O5 Ta1 1.992797 1_555
O5 Sr5 2.758959 1_555
O5 Sr1 3.090072 1_555
O6 Ti4 1.942314 1_555
O6 Ta3 1.992794 1_556
O6 Sr2 2.758959 1_555
O6 Sr4 3.090072 1_555
O7 Ti3 1.942314 1_565
O7 Ta3 1.992794 1_555
O7 Sr1 2.758959 1_565
O7 Sr5 3.090072 1_555
O8 Ti0 1.942314 1_565
O8 Ta0 1.992790 1_555
O8 Sr0 2.758959 1_565
O8 Sr2 3.090072 1_555
O9 Ti10 1.942314 1_555
O9 Ta2 1.992797 1_555
O9 Sr5 2.758959 1_555
O9 Sr1 3.090072 1_555
O10 Ti11 1.942314 1_555
O10 Ta2 1.992797 1_556
O10 Sr4 2.758959 1_555
O10 Sr2 3.090072 1_655
O11 Ti1 1.942314 1_555
O11 Ta1 1.992790 1_555
O11 Sr1 2.758959 1_555
O11 Sr3 3.090072 1_655
O12 Ti11 1.942314 1_555
O12 Ta3 1.992797 1_556
O12 Sr4 2.758959 1_555
O12 Sr0 3.090072 1_565
O13 Ti10 1.942314 1_555
O13 Ta3 1.992797 1_555
O13 Sr5 2.758959 1_555
O13 Sr3 3.090072 1_555
O14 Ti1 1.942314 1_565
O14 Ta0 1.992794 1_555
O14 Sr1 2.758959 1_565
O14 Sr5 3.090072 1_555
O15 Ti0 1.942314 1_555
O15 Ta1 1.992794 1_555
O15 Sr0 2.758959 1_555
O15 Sr4 3.090072 1_555
O16 Ti3 1.942314 1_555
O16 Ta2 1.992790 1_555
O16 Sr1 2.758959 1_555
O16 Sr3 3.090072 1_655
O17 Ti9 1.942314 1_555
O17 Ta0 1.992797 1_555
O17 Sr5 2.758959 1_555
O17 Sr3 3.090072 1_555
O18 Ti6 1.942314 1_565
O18 Ta3 1.992790 1_556
O18 Sr0 2.758959 1_565
O18 Sr2 3.090072 1_555
O19 Ti8 1.942314 1_555
O19 Ta1 1.992797 1_555
O19 Sr4 2.758959 1_555
O19 Sr2 3.090072 1_655
O20 Ti4 1.942314 1_655
O20 Ta2 1.992790 1_556
O20 Sr2 2.758959 1_655
O20 Sr0 3.090072 1_555
O21 Ti7 1.942314 1_555
O21 Ta3 1.992790 1_555
O21 Sr3 2.758959 1_555
O21 Sr1 3.090072 1_565
O22 Ti5 1.942314 1_555
O22 Ta0 1.992790 1_555
O22 Sr3 2.758959 1_555
O22 Sr1 3.090072 1_565
O23 Ti2 1.942314 1_655
O23 Ta1 1.992790 1_555
O23 Sr2 2.758959 1_655
O23 Sr0 3.090072 1_555
O24 Ti6 2.013018 1_554
O24 Ti7 2.042152 1_545
O24 Ti10 2.042152 1_555
O24 Sr1 2.672606 1_555
O25 Ti3 2.013018 1_556
O25 Ti4 2.042152 1_655
O25 Ti11 2.042152 1_545
O25 Sr0 2.672606 1_555
O26 Ti4 2.013018 1_554
O26 Ti3 2.042152 1_455
O26 Ti10 2.042152 1_555
O26 Sr3 2.672606 1_555
O27 Ti1 2.013018 1_555
O27 Ti2 2.042152 1_655
O27 Ti8 2.042152 1_545
O27 Sr0 2.672606 1_555
O28 Ti2 2.013018 1_555
O28 Ti1 2.042152 1_455
O28 Ti9 2.042152 1_555
O28 Sr3 2.672606 1_555
O29 Ti7 2.013018 1_556
O29 Ti6 2.042152 1_565
O29 Ti11 2.042152 1_455
O29 Sr2 2.672606 1_555
O30 Ti0 2.013018 1_555
O30 Ti5 2.042152 1_545
O30 Ti9 2.042152 1_555
O30 Sr1 2.672606 1_555
O31 Ti5 2.013018 1_555
O31 Ti0 2.042152 1_565
O31 Ti8 2.042152 1_455
O31 Sr2 2.672606 1_555
O32 Ti11 2.013018 1_554
O32 Ti7 2.042152 1_655
O32 Ti3 2.042152 1_565
O32 Sr5 2.672606 1_555
O33 Ti10 2.013018 1_556
O33 Ti6 2.042152 1_555
O33 Ti4 2.042152 1_555
O33 Sr4 2.672606 1_555
O34 Ti9 2.013018 1_555
O34 Ti0 2.042152 1_555
O34 Ti2 2.042152 1_555
O34 Sr4 2.672606 1_555
O35 Ti8 2.013018 1_555
O35 Ti5 2.042152 1_655
O35 Ti1 2.042152 1_565
O35 Sr5 2.672606 1_555
O36 Ti0 1.839089 1_555
O36 Ti6 1.839089 1_555
O36 Sr4 3.125101 1_555
O36 Sr2 3.125101 1_545
O37 Ti3 1.839089 1_555
O37 Ti1 1.839089 1_555
O37 Sr5 3.125101 1_545
O37 Sr3 3.125101 1_655
O38 Ti2 1.839089 1_555
O38 Ti4 1.839089 1_555
O38 Sr4 3.125101 1_555
O38 Sr0 3.125101 1_455
O39 Ti7 1.839089 1_555
O39 Ti5 1.839089 1_555
O39 Sr5 3.125101 1_455
O39 Sr1 3.125101 1_565
O40 Ti11 1.839089 1_555
O40 Ti8 1.839089 1_555
O40 Sr0 3.125101 1_565
O40 Sr2 3.125101 1_655
O41 Ti10 1.839089 1_555
O41 Ti9 1.839089 1_555
O41 Sr3 3.125101 1_555
O41 Sr1 3.125101 1_555
