# generated using pymatgen
data_CaIn4Ni
_symmetry_space_group_name_H-M   'P 1'
_cell_length_a   8.54118732
_cell_length_b   8.54118732
_cell_length_c   7.14105800
_cell_angle_alpha   90.00000000
_cell_angle_beta   90.00000000
_cell_angle_gamma   150.66525708
_symmetry_Int_Tables_number   1
_chemical_formula_structural   CaIn4Ni
_chemical_formula_sum   'Ca2 In8 Ni2'
_cell_volume   255.22099129
_cell_formula_units_Z   2
loop_
 _symmetry_equiv_pos_site_id
 _symmetry_equiv_pos_as_xyz
  1  'x, y, z'
loop_
 _atom_site_type_symbol
 _atom_site_label
 _atom_site_symmetry_multiplicity
 _atom_site_fract_x
 _atom_site_fract_y
 _atom_site_fract_z
 _atom_site_occupancy
  Ca  Ca0  1  0.62417700  0.37582300  0.25000000  1
  Ca  Ca1  1  0.37582300  0.62417700  0.75000000  1
  In  In0  1  0.18768400  0.81231600  0.95749800  1
  In  In1  1  0.43137600  0.56862400  0.25000000  1
  In  In2  1  0.81231600  0.18768400  0.45749800  1
  In  In3  1  0.00035400  0.99834400  0.50003500  1
  In  In4  1  0.57499000  0.42501000  0.75000000  1
  In  In5  1  0.81781800  0.18218200  0.04601800  1
  In  In6  1  0.18768400  0.81231600  0.54250200  1
  In  In7  1  0.99964600  0.00165600  0.00003500  1
  Ni  Ni0  1  0.27588500  0.72411500  0.25000000  1
  Ni  Ni1  1  0.72411500  0.27588500  0.75000000  1
loop_
_geom_bond_atom_site_label_1
_geom_bond_atom_site_label_2
_geom_bond_distance
_geom_bond_site_symmetry_2
Ca0 In6 3.184595 1_545
Ca0 In6 3.184595 1_655
Ca0 In0 3.184595 1_654
Ca0 In0 3.184595 1_544
Ca0 In1 3.186171 1_555
Ca0 Ni0 3.310993 1_545
Ca0 Ni0 3.310993 1_655
Ca0 In2 3.444165 1_555
Ca0 In3 3.463580 1_655
Ca0 In3 3.467095 1_545
Ca0 In7 3.482948 1_455
Ca0 In7 3.486444 1_565
Ca0 In5 3.515986 1_555
Ca0 In4 3.661885 1_555
Ca0 In4 3.661885 1_554
Ca1 In5 3.172473 1_566
Ca1 In5 3.172473 1_456
Ca1 In2 3.184595 1_455
Ca1 In2 3.184595 1_565
Ca1 In4 3.291373 1_555
Ca1 Ni1 3.310993 1_455
Ca1 Ni1 3.310993 1_565
Ca1 In0 3.444165 1_555
Ca1 In6 3.444165 1_555
Ca1 In7 3.463580 1_456
Ca1 In7 3.467095 1_566
Ca1 In3 3.482948 1_655
Ca1 In3 3.486444 1_545
Ca1 In1 3.686665 1_555
Ca1 In1 3.686665 1_556
In0 Ni0 2.547062 1_556
In0 Ni1 2.689848 1_455
In0 Ni1 2.689848 1_565
In0 In6 2.963511 1_555
In0 In5 3.114754 1_566
In0 In5 3.114754 1_456
In0 In7 3.132979 1_466
In0 In4 3.215767 1_455
In0 In4 3.215767 1_565
In1 Ni0 2.569597 1_555
In1 In7 3.016625 1_455
In1 In7 3.020660 1_565
In1 In3 3.029381 1_655
In1 In3 3.033399 1_545
In1 In5 3.212595 1_565
In1 In5 3.212595 1_455
In1 In2 3.277815 1_565
In1 In2 3.277815 1_455
In2 Ni1 2.547062 1_555
In2 Ni0 2.689848 1_545
In2 Ni0 2.689848 1_655
In2 In5 2.939809 1_555
In2 In6 3.047585 1_545
In2 In6 3.047585 1_655
In2 In3 3.132979 1_645
In3 In4 3.057157 1_455
In3 In4 3.061139 1_565
In3 In6 3.099871 1_555
In4 Ni1 2.464394 1_555
In4 In7 3.070883 1_456
In4 In7 3.074847 1_566
In4 In6 3.215767 1_655
In4 In6 3.215767 1_545
In5 Ni1 2.620376 1_554
In5 Ni0 2.698009 1_545
In5 Ni0 2.698009 1_655
In5 In7 3.012030 1_555
In6 Ni0 2.547062 1_555
In6 Ni1 2.689848 1_455
In6 Ni1 2.689848 1_565
