# generated using pymatgen
data_CeMgZr7O16
_symmetry_space_group_name_H-M   'P 1'
_cell_length_a   5.67328854
_cell_length_b   7.16422111
_cell_length_c   7.72599055
_cell_angle_alpha   90.00000000
_cell_angle_beta   90.00000000
_cell_angle_gamma   90.00000000
_symmetry_Int_Tables_number   1
_chemical_formula_structural   CeMgZr7O16
_chemical_formula_sum   'Ce1 Mg1 Zr7 O16'
_cell_volume   314.02051805
_cell_formula_units_Z   1
loop_
 _symmetry_equiv_pos_site_id
 _symmetry_equiv_pos_as_xyz
  1  'x, y, z'
loop_
 _atom_site_type_symbol
 _atom_site_label
 _atom_site_symmetry_multiplicity
 _atom_site_fract_x
 _atom_site_fract_y
 _atom_site_fract_z
 _atom_site_occupancy
  Ce  Ce0  1  0.02397783  0.00000000  0.00000000  1
  Mg  Mg0  1  0.37044045  0.50000000  0.00000000  1
  Zr  Zr0  1  0.52106868  0.23213343  0.28364683  1
  Zr  Zr1  1  0.97033564  0.00000000  0.50000000  1
  Zr  Zr2  1  0.52106868  0.23213343  0.71635317  1
  Zr  Zr3  1  0.88692030  0.50000000  0.00000000  1
  Zr  Zr4  1  0.52106868  0.76786657  0.28364683  1
  Zr  Zr5  1  0.03108787  0.50000000  0.50000000  1
  Zr  Zr6  1  0.52106868  0.76786657  0.71635317  1
  O  O0  1  0.13455995  0.29596733  0.00000000  1
  O  O1  1  0.32088909  0.00000000  0.21938293  1
  O  O2  1  0.80048130  0.00000000  0.25875393  1
  O  O3  1  0.61296023  0.28325341  0.00000000  1
  O  O4  1  0.23054814  0.23160795  0.50000000  1
  O  O5  1  0.32088909  0.00000000  0.78061707  1
  O  O6  1  0.80048130  0.00000000  0.74124607  1
  O  O7  1  0.74790331  0.26079219  0.50000000  1
  O  O8  1  0.13455995  0.70403267  0.00000000  1
  O  O9  1  0.37034508  0.50000000  0.27443629  1
  O  O10  1  0.84879448  0.50000000  0.26775795  1
  O  O11  1  0.61296023  0.71674659  0.00000000  1
  O  O12  1  0.23054814  0.76839205  0.50000000  1
  O  O13  1  0.37034508  0.50000000  0.72556371  1
  O  O14  1  0.84879448  0.50000000  0.73224205  1
  O  O15  1  0.74790331  0.73920781  0.50000000  1
loop_
_geom_bond_atom_site_label_1
_geom_bond_atom_site_label_2
_geom_bond_distance
_geom_bond_site_symmetry_2
Ce0 O8 2.211239 1_545
Ce0 O0 2.211239 1_555
Ce0 O2 2.367329 1_455
Ce0 O6 2.367329 1_454
Ce0 O5 2.389618 1_554
Ce0 O1 2.389618 1_555
Mg0 O0 1.981791 1_555
Mg0 O8 1.981791 1_555
Mg0 O3 2.074683 1_555
Mg0 O11 2.074683 1_555
Mg0 O13 2.120292 1_554
Mg0 O9 2.120292 1_555
O0 Zr3 2.027437 1_455
O1 Zr0 2.074133 1_555
O1 Zr4 2.074133 1_545
O2 Zr1 2.098233 1_555
O2 Zr0 2.305550 1_555
O2 Zr4 2.305550 1_545
O3 Zr3 2.197034 1_555
O3 Zr2 2.282186 1_554
O3 Zr0 2.282186 1_555
O4 Zr1 2.220944 1_455
O4 Zr5 2.231086 1_555
O4 Zr0 2.347478 1_555
O4 Zr2 2.347478 1_555
O5 Zr6 2.074133 1_545
O5 Zr2 2.074133 1_555
O6 Zr1 2.098233 1_555
O6 Zr2 2.305550 1_555
O6 Zr6 2.305550 1_545
O7 Zr0 2.119509 1_555
O7 Zr2 2.119509 1_555
O7 Zr1 2.254610 1_555
O7 Zr5 2.349047 1_655
O8 Zr3 2.027437 1_455
O9 Zr0 2.102149 1_555
O9 Zr4 2.102149 1_555
O9 Zr5 2.596440 1_555
O10 Zr5 2.071011 1_655
O10 Zr3 2.079973 1_555
O10 Zr4 2.674841 1_555
O10 Zr0 2.674841 1_555
O11 Zr3 2.197034 1_555
O11 Zr4 2.282186 1_555
O11 Zr6 2.282186 1_554
O12 Zr1 2.220944 1_465
O12 Zr5 2.231086 1_555
O12 Zr6 2.347478 1_555
O12 Zr4 2.347478 1_555
O13 Zr6 2.102149 1_555
O13 Zr2 2.102149 1_555
O13 Zr5 2.596440 1_555
O14 Zr5 2.071011 1_655
O14 Zr3 2.079973 1_556
O14 Zr6 2.674841 1_555
O14 Zr2 2.674841 1_555
O15 Zr6 2.119509 1_555
O15 Zr4 2.119509 1_555
O15 Zr1 2.254610 1_565
O15 Zr5 2.349047 1_655
