# generated using pymatgen
data_LiCu3
_symmetry_space_group_name_H-M   'P 1'
_cell_length_a   3.59246704
_cell_length_b   3.59246704
_cell_length_c   3.59246704
_cell_angle_alpha   90.00000000
_cell_angle_beta   90.00000000
_cell_angle_gamma   90.00000000
_symmetry_Int_Tables_number   1
_chemical_formula_structural   LiCu3
_chemical_formula_sum   'Li1 Cu3'
_cell_volume   46.36373094
_cell_formula_units_Z   1
loop_
 _symmetry_equiv_pos_site_id
 _symmetry_equiv_pos_as_xyz
  1  'x, y, z'
loop_
 _atom_site_type_symbol
 _atom_site_label
 _atom_site_symmetry_multiplicity
 _atom_site_fract_x
 _atom_site_fract_y
 _atom_site_fract_z
 _atom_site_occupancy
  Li  Li0  1  -0.00000000  -0.00000000  -0.00000000  1
  Cu  Cu0  1  0.50000000  0.00000000  0.50000000  1
  Cu  Cu1  1  0.00000000  0.50000000  0.50000000  1
  Cu  Cu2  1  0.50000000  0.50000000  -0.00000000  1
loop_
_geom_bond_atom_site_label_1
_geom_bond_atom_site_label_2
_geom_bond_distance
_geom_bond_site_symmetry_2
Cu0 Li0 2.540258 1_556
Cu0 Li0 2.540258 1_555
Cu0 Li0 2.540258 1_656
Cu0 Li0 2.540258 1_655
Cu1 Li0 2.540258 1_566
Cu1 Li0 2.540258 1_556
Cu1 Li0 2.540258 1_565
Cu1 Li0 2.540258 1_555
Cu2 Li0 2.540258 1_565
Cu2 Li0 2.540258 1_555
Cu2 Li0 2.540258 1_655
Cu2 Li0 2.540258 1_665
