# generated using pymatgen
data_LiLa2TiO6
_symmetry_space_group_name_H-M   'P 1'
_cell_length_a   5.68031900
_cell_length_b   5.60349400
_cell_length_c   9.62973666
_cell_angle_alpha   54.86913140
_cell_angle_beta   90.00000000
_cell_angle_gamma   90.00000000
_symmetry_Int_Tables_number   1
_chemical_formula_structural   LiLa2TiO6
_chemical_formula_sum   'Li2 La4 Ti2 O12'
_cell_volume   250.67688814
_cell_formula_units_Z   2
loop_
 _symmetry_equiv_pos_site_id
 _symmetry_equiv_pos_as_xyz
  1  'x, y, z'
loop_
 _atom_site_type_symbol
 _atom_site_label
 _atom_site_symmetry_multiplicity
 _atom_site_fract_x
 _atom_site_fract_y
 _atom_site_fract_z
 _atom_site_occupancy
  Li  Li0  1  0.00000000  0.00000000  0.00000000  1
  Li  Li1  1  0.50000000  0.00000000  0.50000000  1
  La  La0  1  0.45257300  0.23660500  0.75204300  1
  La  La1  1  0.54742700  0.76339500  0.24795700  1
  La  La2  1  0.95257300  0.76339500  0.74795700  1
  La  La3  1  0.04742700  0.23660500  0.25204300  1
  Ti  Ti0  1  0.00000000  0.50000000  0.50000000  1
  Ti  Ti1  1  0.50000000  0.50000000  0.00000000  1
  O  O0  1  0.69676900  0.82722000  0.95348100  1
  O  O1  1  0.30323100  0.17278000  0.04651900  1
  O  O2  1  0.19676900  0.17278000  0.54651900  1
  O  O3  1  0.80323100  0.82722000  0.45348100  1
  O  O4  1  0.21796900  0.74277800  0.95104800  1
  O  O5  1  0.78203100  0.25722200  0.04895200  1
  O  O6  1  0.71796900  0.25722200  0.54895200  1
  O  O7  1  0.28203100  0.74277800  0.45104800  1
  O  O8  1  0.02477300  0.34980000  0.74022900  1
  O  O9  1  0.97522700  0.65020000  0.25977100  1
  O  O10  1  0.52477300  0.65020000  0.75977100  1
  O  O11  1  0.47522700  0.34980000  0.24022900  1
loop_
_geom_bond_atom_site_label_1
_geom_bond_atom_site_label_2
_geom_bond_distance
_geom_bond_site_symmetry_2
Li0 O9 2.115734 1_445
Li0 O8 2.115734 1_554
Li0 O1 2.145696 1_555
Li0 O0 2.145696 1_444
Li0 O5 2.148166 1_455
Li0 O4 2.148166 1_544
Li1 O10 2.115734 1_545
Li1 O11 2.115734 1_555
Li1 O3 2.145696 1_545
Li1 O2 2.145696 1_555
Li1 O6 2.148166 1_555
Li1 O7 2.148166 1_545
La0 O10 2.396538 1_555
La0 O0 2.414113 1_545
La0 O6 2.418840 1_555
La0 O8 2.497461 1_555
La0 O2 2.640245 1_555
La0 O4 2.646216 1_545
La0 O1 2.778790 1_556
La0 O7 2.814771 1_555
La1 O11 2.396538 1_555
La1 O1 2.414113 1_565
La1 O7 2.418840 1_555
La1 O9 2.497461 1_555
La1 O3 2.640245 1_555
La1 O5 2.646216 1_565
La1 O0 2.778790 1_554
La1 O6 2.814771 1_555
La2 O8 2.396538 1_655
La2 O2 2.414113 1_665
La2 O4 2.418840 1_655
La2 O10 2.497461 1_555
La2 O0 2.640245 1_555
La2 O6 2.646216 1_565
La2 O3 2.778790 1_555
La2 O5 2.814771 1_556
La3 O9 2.396538 1_455
La3 O3 2.414113 1_445
La3 O5 2.418840 1_455
La3 O11 2.497461 1_555
La3 O1 2.640245 1_555
La3 O7 2.646216 1_545
La3 O2 2.778790 1_555
La3 O4 2.814771 1_554
O0 Ti1 1.966375 1_556
O1 Ti1 1.966375 1_555
O2 Ti0 1.966375 1_555
O3 Ti0 1.966375 1_655
O4 Ti1 1.975183 1_556
O5 Ti1 1.975183 1_555
O6 Ti0 1.975183 1_655
O7 Ti0 1.975183 1_555
O8 Ti0 1.959316 1_555
O9 Ti0 1.959316 1_655
O10 Ti1 1.959316 1_556
O11 Ti1 1.959316 1_555
