# generated using pymatgen
data_CaMg14Cd
_symmetry_space_group_name_H-M   'P 1'
_cell_length_a   6.45258566
_cell_length_b   6.45258512
_cell_length_c   10.49860202
_cell_angle_alpha   90.00000000
_cell_angle_beta   90.00000000
_cell_angle_gamma   120.00000276
_symmetry_Int_Tables_number   1
_chemical_formula_structural   CaMg14Cd
_chemical_formula_sum   'Ca1 Mg14 Cd1'
_cell_volume   378.55554630
_cell_formula_units_Z   1
loop_
 _symmetry_equiv_pos_site_id
 _symmetry_equiv_pos_as_xyz
  1  'x, y, z'
loop_
 _atom_site_type_symbol
 _atom_site_label
 _atom_site_symmetry_multiplicity
 _atom_site_fract_x
 _atom_site_fract_y
 _atom_site_fract_z
 _atom_site_occupancy
  Ca  Ca0  1  0.16666700  0.33333300  0.12500000  1
  Mg  Mg0  1  0.17534976  0.83767438  0.12500000  1
  Mg  Mg1  1  0.16348396  0.83174148  0.62500000  1
  Mg  Mg2  1  0.66232562  0.32465024  0.12500000  1
  Mg  Mg3  1  0.66825852  0.33651604  0.62500000  1
  Mg  Mg4  1  0.66232562  0.83767438  0.12500000  1
  Mg  Mg5  1  0.66825852  0.83174148  0.62500000  1
  Mg  Mg6  1  0.33461706  0.16538294  0.38268737  1
  Mg  Mg7  1  0.33461706  0.16538294  0.86731263  1
  Mg  Mg8  1  0.33461706  0.66923511  0.38268737  1
  Mg  Mg9  1  0.33461706  0.66923511  0.86731263  1
  Mg  Mg10  1  0.83076489  0.16538294  0.38268737  1
  Mg  Mg11  1  0.83076489  0.16538294  0.86731263  1
  Mg  Mg12  1  0.83333300  0.66666700  0.37077279  1
  Mg  Mg13  1  0.83333300  0.66666700  0.87922721  1
  Cd  Cd0  1  0.16666700  0.33333300  0.62500000  1
loop_
_geom_bond_atom_site_label_1
_geom_bond_atom_site_label_2
_geom_bond_distance
_geom_bond_site_symmetry_2
Ca0 Mg0 3.226657 1_555
Ca0 Mg4 3.226657 1_555
Ca0 Mg4 3.226657 1_445
Ca0 Mg0 3.226657 1_545
Ca0 Mg2 3.226658 1_455
Ca0 Mg2 3.226658 1_555
Ca0 Mg7 3.292758 1_554
Ca0 Mg6 3.292758 1_555
Ca0 Mg9 3.292764 1_554
Ca0 Mg8 3.292764 1_555
Ca0 Mg11 3.292764 1_454
Ca0 Mg10 3.292764 1_455
Mg0 Mg2 3.142253 1_565
Mg0 Mg4 3.142253 1_555
Mg0 Mg13 3.211009 1_454
Mg0 Mg12 3.211009 1_455
Mg0 Mg9 3.267008 1_554
Mg0 Mg8 3.267008 1_555
Mg0 Mg7 3.267014 1_564
Mg0 Mg6 3.267014 1_565
Mg0 Mg2 3.310332 1_455
Mg0 Mg4 3.310332 1_455
Mg1 Mg8 3.154117 1_555
Mg1 Mg9 3.154117 1_555
Mg1 Mg6 3.154124 1_565
Mg1 Mg7 3.154124 1_565
Mg1 Mg3 3.195484 1_455
Mg1 Mg5 3.195485 1_455
Mg1 Mg12 3.244602 1_455
Mg1 Mg13 3.244602 1_455
Mg1 Mg3 3.257101 1_565
Mg1 Mg5 3.257101 1_555
Mg2 Mg4 3.142253 1_545
Mg2 Mg7 3.267014 1_554
Mg2 Mg6 3.267014 1_555
Mg2 Mg4 3.310332 1_555
Mg3 Mg6 3.154124 1_555
Mg3 Mg7 3.154124 1_555
Mg3 Mg5 3.195484 1_555
Mg3 Mg5 3.257101 1_545
Mg4 Mg9 3.267014 1_554
Mg4 Mg8 3.267014 1_555
Mg5 Mg8 3.154124 1_555
Mg5 Mg9 3.154124 1_555
Mg6 Mg8 3.201436 1_545
Mg6 Mg8 3.251149 1_555
Mg7 Mg9 3.201436 1_545
Mg7 Mg9 3.251149 1_555
Mg10 Mg3 3.154117 1_555
Mg10 Mg5 3.154124 1_545
Mg10 Mg8 3.201436 1_545
Mg10 Mg6 3.201436 1_555
Mg10 Mg12 3.228748 1_545
Mg10 Mg12 3.228748 1_555
Mg10 Mg8 3.251149 1_655
Mg10 Mg6 3.251149 1_655
Mg10 Mg2 3.267008 1_555
Mg10 Mg4 3.267014 1_545
Mg11 Mg3 3.154117 1_555
Mg11 Mg5 3.154124 1_545
Mg11 Mg9 3.201436 1_545
Mg11 Mg7 3.201436 1_555
Mg11 Mg13 3.228748 1_545
Mg11 Mg13 3.228748 1_555
Mg11 Mg9 3.251149 1_655
Mg11 Mg7 3.251149 1_655
Mg11 Mg2 3.267008 1_556
Mg11 Mg4 3.267014 1_546
Mg12 Mg4 3.211002 1_555
Mg12 Mg2 3.211009 1_555
Mg12 Mg6 3.228748 1_555
Mg12 Mg6 3.228748 1_665
Mg12 Mg8 3.228749 1_555
Mg12 Mg8 3.228749 1_655
Mg12 Mg5 3.244596 1_555
Mg12 Mg3 3.244602 1_555
Mg13 Mg4 3.211002 1_556
Mg13 Mg2 3.211009 1_556
Mg13 Mg7 3.228748 1_555
Mg13 Mg7 3.228748 1_665
Mg13 Mg9 3.228749 1_555
Mg13 Mg9 3.228749 1_655
Mg13 Mg5 3.244596 1_555
Mg13 Mg3 3.244602 1_555
Cd0 Mg6 3.161478 1_555
Cd0 Mg7 3.161478 1_555
Cd0 Mg8 3.161485 1_555
Cd0 Mg9 3.161485 1_555
Cd0 Mg10 3.161485 1_455
Cd0 Mg11 3.161485 1_455
Cd0 Mg5 3.226342 1_445
Cd0 Mg1 3.226342 1_545
Cd0 Mg1 3.226342 1_555
Cd0 Mg5 3.226342 1_555
Cd0 Mg3 3.226342 1_455
Cd0 Mg3 3.226342 1_555
