# generated using pymatgen
data_Ni(ClO6)2
_symmetry_space_group_name_H-M   'P 1'
_cell_length_a   9.63219000
_cell_length_b   9.63219000
_cell_length_c   9.63219000
_cell_angle_alpha   90.00000000
_cell_angle_beta   90.00000000
_cell_angle_gamma   90.00000000
_symmetry_Int_Tables_number   1
_chemical_formula_structural   Ni(ClO6)2
_chemical_formula_sum   'Ni4 Cl8 O48'
_cell_volume   893.66576700
_cell_formula_units_Z   4
loop_
 _symmetry_equiv_pos_site_id
 _symmetry_equiv_pos_as_xyz
  1  'x, y, z'
loop_
 _atom_site_type_symbol
 _atom_site_label
 _atom_site_symmetry_multiplicity
 _atom_site_fract_x
 _atom_site_fract_y
 _atom_site_fract_z
 _atom_site_occupancy
  Ni  Ni0  1  0.00000000  0.00000000  0.00000000  1
  Ni  Ni1  1  0.50000000  0.00000000  0.50000000  1
  Ni  Ni2  1  0.00000000  0.50000000  0.50000000  1
  Ni  Ni3  1  0.50000000  0.50000000  0.00000000  1
  Cl  Cl0  1  0.25332800  0.25332800  0.25332800  1
  Cl  Cl1  1  0.74667200  0.74667200  0.74667200  1
  Cl  Cl2  1  0.24667200  0.74667200  0.75332800  1
  Cl  Cl3  1  0.74667200  0.75332800  0.24667200  1
  Cl  Cl4  1  0.75332800  0.25332800  0.24667200  1
  Cl  Cl5  1  0.25332800  0.24667200  0.75332800  1
  Cl  Cl6  1  0.75332800  0.24667200  0.74667200  1
  Cl  Cl7  1  0.24667200  0.75332800  0.25332800  1
  O  O0  1  0.14054200  0.33887000  0.18681800  1
  O  O1  1  0.85945800  0.66113000  0.81318200  1
  O  O2  1  0.35945800  0.66113000  0.68681800  1
  O  O3  1  0.85945800  0.83887000  0.31318200  1
  O  O4  1  0.18681800  0.14054200  0.33887000  1
  O  O5  1  0.64054200  0.33887000  0.31318200  1
  O  O6  1  0.14054200  0.16113000  0.68681800  1
  O  O7  1  0.81318200  0.85945800  0.66113000  1
  O  O8  1  0.64054200  0.16113000  0.81318200  1
  O  O9  1  0.68681800  0.35945800  0.66113000  1
  O  O10  1  0.35945800  0.83887000  0.18681800  1
  O  O11  1  0.31318200  0.64054200  0.33887000  1
  O  O12  1  0.31318200  0.85945800  0.83887000  1
  O  O13  1  0.68681800  0.14054200  0.16113000  1
  O  O14  1  0.81318200  0.64054200  0.16113000  1
  O  O15  1  0.18681800  0.35945800  0.83887000  1
  O  O16  1  0.33887000  0.18681800  0.14054200  1
  O  O17  1  0.66113000  0.81318200  0.85945800  1
  O  O18  1  0.83887000  0.31318200  0.85945800  1
  O  O19  1  0.16113000  0.68681800  0.14054200  1
  O  O20  1  0.16113000  0.81318200  0.64054200  1
  O  O21  1  0.83887000  0.18681800  0.35945800  1
  O  O22  1  0.66113000  0.68681800  0.35945800  1
  O  O23  1  0.33887000  0.31318200  0.64054200  1
  O  O24  1  0.19005600  0.45090400  0.46547600  1
  O  O25  1  0.80994400  0.54909600  0.53452400  1
  O  O26  1  0.30994400  0.54909600  0.96547600  1
  O  O27  1  0.80994400  0.95090400  0.03452400  1
  O  O28  1  0.46547600  0.19005600  0.45090400  1
  O  O29  1  0.69005600  0.45090400  0.03452400  1
  O  O30  1  0.19005600  0.04909600  0.96547600  1
  O  O31  1  0.53452400  0.80994400  0.54909600  1
  O  O32  1  0.69005600  0.04909600  0.53452400  1
  O  O33  1  0.96547600  0.30994400  0.54909600  1
  O  O34  1  0.30994400  0.95090400  0.46547600  1
  O  O35  1  0.03452400  0.69005600  0.45090400  1
  O  O36  1  0.03452400  0.80994400  0.95090400  1
  O  O37  1  0.96547600  0.19005600  0.04909600  1
  O  O38  1  0.53452400  0.69005600  0.04909600  1
  O  O39  1  0.46547600  0.30994400  0.95090400  1
  O  O40  1  0.45090400  0.46547600  0.19005600  1
  O  O41  1  0.54909600  0.53452400  0.80994400  1
  O  O42  1  0.95090400  0.03452400  0.80994400  1
  O  O43  1  0.04909600  0.96547600  0.19005600  1
  O  O44  1  0.04909600  0.53452400  0.69005600  1
  O  O45  1  0.95090400  0.46547600  0.30994400  1
  O  O46  1  0.54909600  0.96547600  0.30994400  1
  O  O47  1  0.45090400  0.03452400  0.69005600  1
loop_
_geom_bond_atom_site_label_1
_geom_bond_atom_site_label_2
_geom_bond_distance
_geom_bond_site_symmetry_2
Ni0 O43 1.919771 1_545
Ni0 O30 1.919771 1_554
Ni0 O27 1.919771 1_445
Ni0 O37 1.919771 1_455
Ni0 O36 1.919771 1_544
Ni0 O42 1.919771 1_454
Ni1 O47 1.919771 1_555
Ni1 O28 1.919771 1_555
Ni1 O34 1.919771 1_545
Ni1 O32 1.919771 1_555
Ni1 O46 1.919771 1_545
Ni1 O31 1.919771 1_545
Ni2 O35 1.919771 1_555
Ni2 O33 1.919771 1_455
Ni2 O24 1.919771 1_555
Ni2 O25 1.919771 1_455
Ni2 O45 1.919771 1_455
Ni2 O44 1.919771 1_555
Ni3 O40 1.919771 1_555
Ni3 O39 1.919771 1_554
Ni3 O41 1.919771 1_554
Ni3 O38 1.919771 1_555
Ni3 O29 1.919771 1_555
Ni3 O26 1.919771 1_554
Cl0 O16 1.506497 1_555
Cl0 O0 1.506497 1_555
Cl0 O4 1.506497 1_555
Cl1 O7 1.506497 1_555
Cl1 O17 1.506497 1_555
Cl1 O1 1.506497 1_555
Cl2 O2 1.506497 1_555
Cl2 O20 1.506497 1_555
Cl2 O12 1.506497 1_555
Cl3 O22 1.506497 1_555
Cl3 O14 1.506497 1_555
Cl3 O3 1.506497 1_555
Cl4 O21 1.506497 1_555
Cl4 O13 1.506497 1_555
Cl4 O5 1.506497 1_555
Cl5 O6 1.506497 1_555
Cl5 O15 1.506497 1_555
Cl5 O23 1.506497 1_555
Cl6 O9 1.506497 1_555
Cl6 O8 1.506497 1_555
Cl6 O18 1.506497 1_555
Cl7 O19 1.506497 1_555
Cl7 O10 1.506497 1_555
Cl7 O11 1.506497 1_555
