# generated using pymatgen
data_LiMn2P2(H2O5)2
_symmetry_space_group_name_H-M   'P 1'
_cell_length_a   5.08915830
_cell_length_b   5.48487128
_cell_length_c   7.69106166
_cell_angle_alpha   103.58144008
_cell_angle_beta   104.39579640
_cell_angle_gamma   99.42514947
_symmetry_Int_Tables_number   1
_chemical_formula_structural   LiMn2P2(H2O5)2
_chemical_formula_sum   'Li1 Mn2 P2 H4 O10'
_cell_volume   196.42151464
_cell_formula_units_Z   1
loop_
 _symmetry_equiv_pos_site_id
 _symmetry_equiv_pos_as_xyz
  1  'x, y, z'
loop_
 _atom_site_type_symbol
 _atom_site_label
 _atom_site_symmetry_multiplicity
 _atom_site_fract_x
 _atom_site_fract_y
 _atom_site_fract_z
 _atom_site_occupancy
  Li  Li0  1  0.09477700  0.38385000  0.92016100  1
  Mn  Mn0  1  0.99067100  0.49315300  0.49742200  1
  Mn  Mn1  1  0.51270200  0.00538300  0.00284900  1
  P  P0  1  0.41882800  0.56870300  0.25363800  1
  P  P1  1  0.57708300  0.44252800  0.74836200  1
  H  H0  1  0.88211000  0.94277300  0.30042900  1
  H  H1  1  0.07174800  0.13453000  0.21956600  1
  H  H2  1  0.11907300  0.02496000  0.68063300  1
  H  H3  1  0.92511400  0.85304700  0.77430000  1
  O  O0  1  0.33065800  0.71581600  0.10978200  1
  O  O1  1  0.29274500  0.63646400  0.41752200  1
  O  O2  1  0.68829000  0.30248200  0.89288300  1
  O  O3  1  0.68709600  0.35069400  0.57799900  1
  O  O4  1  0.74519400  0.64560900  0.33472400  1
  O  O5  1  0.30859900  0.27549000  0.14412000  1
  O  O6  1  0.24627600  0.35999900  0.68430000  1
  O  O7  1  0.67595800  0.73807800  0.83131800  1
  O  O8  1  0.10826600  0.88323600  0.73992900  1
  O  O9  1  0.89981300  0.10570500  0.26292000  1
loop_
_geom_bond_atom_site_label_1
_geom_bond_atom_site_label_2
_geom_bond_distance
_geom_bond_site_symmetry_2
Li0 O2 1.990091 1_455
Li0 O0 2.012388 1_556
Li0 O5 2.065171 1_556
Li0 O6 2.125854 1_555
Mn0 O1 1.913014 1_655
Mn0 O3 1.920823 1_555
Mn0 O4 1.970274 1_555
Mn0 O6 2.041028 1_655
Mn0 O9 2.333699 1_555
Mn0 O8 2.359239 1_655
Mn1 O0 2.137198 1_545
Mn1 O7 2.148449 1_544
Mn1 O2 2.171497 1_554
Mn1 O5 2.182542 1_555
Mn1 O9 2.313759 1_555
Mn1 O8 2.369981 1_544
H0 O9 0.998801 1_565
H1 O9 1.013081 1_455
H1 O5 1.625004 1_555
H2 O8 0.990063 1_545
H3 O8 1.028891 1_655
H3 O7 1.530440 1_555
O0 P0 1.538690 1_555
O1 P0 1.548810 1_555
O2 P1 1.541552 1_555
O3 P1 1.559214 1_555
O4 P0 1.567635 1_555
O5 P0 1.563316 1_555
O6 P1 1.585920 1_555
O7 P1 1.541281 1_555
