# generated using pymatgen
data_Pr2Fe17H3
_symmetry_space_group_name_H-M   'P 1'
_cell_length_a   6.49190398
_cell_length_b   6.49190398
_cell_length_c   6.49190353
_cell_angle_alpha   84.61520338
_cell_angle_beta   84.61520338
_cell_angle_gamma   84.61521220
_symmetry_Int_Tables_number   1
_chemical_formula_structural   Pr2Fe17H3
_chemical_formula_sum   'Pr2 Fe17 H3'
_cell_volume   270.19068844
_cell_formula_units_Z   1
loop_
 _symmetry_equiv_pos_site_id
 _symmetry_equiv_pos_as_xyz
  1  'x, y, z'
loop_
 _atom_site_type_symbol
 _atom_site_label
 _atom_site_symmetry_multiplicity
 _atom_site_fract_x
 _atom_site_fract_y
 _atom_site_fract_z
 _atom_site_occupancy
  Pr  Pr0  1  0.65556500  0.65556500  0.65556500  1
  Pr  Pr1  1  0.34443500  0.34443500  0.34443500  1
  Fe  Fe0  1  0.00000000  0.00000000  0.50000000  1
  Fe  Fe1  1  0.50000000  0.00000000  0.00000000  1
  Fe  Fe2  1  0.00000000  0.50000000  0.00000000  1
  Fe  Fe3  1  0.71789400  0.28210600  0.00000000  1
  Fe  Fe4  1  0.00000000  0.71789400  0.28210600  1
  Fe  Fe5  1  0.28210600  0.00000000  0.71789400  1
  Fe  Fe6  1  0.00000000  0.28210600  0.71789400  1
  Fe  Fe7  1  0.71789400  0.00000000  0.28210600  1
  Fe  Fe8  1  0.28210600  0.71789400  0.00000000  1
  Fe  Fe9  1  0.34016200  0.34016200  0.84906300  1
  Fe  Fe10  1  0.84906300  0.34016200  0.34016200  1
  Fe  Fe11  1  0.34016200  0.84906300  0.34016200  1
  Fe  Fe12  1  0.65983800  0.65983800  0.15093700  1
  Fe  Fe13  1  0.15093700  0.65983800  0.65983800  1
  Fe  Fe14  1  0.65983800  0.15093700  0.65983800  1
  Fe  Fe15  1  0.90259200  0.90259200  0.90259200  1
  Fe  Fe16  1  0.09740800  0.09740800  0.09740800  1
  H  H0  1  0.50000000  0.50000000  0.00000000  1
  H  H1  1  0.00000000  0.50000000  0.50000000  1
  H  H2  1  0.50000000  0.00000000  0.50000000  1
loop_
_geom_bond_atom_site_label_1
_geom_bond_atom_site_label_2
_geom_bond_distance
_geom_bond_site_symmetry_2
Fe0 Fe6 2.416860 1_555
Fe0 Fe5 2.416860 1_555
Fe0 Fe7 2.416860 1_455
Fe0 Fe4 2.416860 1_545
Fe0 Fe11 2.503613 1_545
Fe0 Fe10 2.503613 1_455
Fe0 Fe14 2.503613 1_455
Fe0 Fe13 2.503613 1_545
Fe0 Fe15 2.661816 1_445
Fe0 Fe16 2.661816 1_555
Fe0 Pr1 3.333227 1_555
Fe0 Pr0 3.333227 1_445
Fe1 Fe3 2.416860 1_555
Fe1 Fe8 2.416860 1_545
Fe1 Fe7 2.416860 1_555
Fe1 Fe5 2.416860 1_554
Fe1 Fe11 2.503613 1_545
Fe1 Fe14 2.503613 1_554
Fe1 Fe9 2.503613 1_554
Fe1 Fe12 2.503613 1_545
Fe1 Fe15 2.661817 1_544
Fe1 Fe16 2.661817 1_555
Fe1 Pr1 3.333227 1_555
Fe1 Pr0 3.333227 1_544
Fe2 Fe8 2.416860 1_555
Fe2 Fe3 2.416860 1_455
Fe2 Fe4 2.416860 1_555
Fe2 Fe6 2.416860 1_554
Fe2 Fe9 2.503613 1_554
Fe2 Pr1 3.333227 1_555
Fe2 Pr0 3.333227 1_454
Fe3 H0 1.904293 1_555
Fe4 H1 1.904293 1_555
Fe5 H2 1.904293 1_555
Fe6 H1 1.904293 1_555
Fe7 H2 1.904293 1_555
Fe8 H0 1.904293 1_555
Fe9 H0 1.922849 1_556
Fe10 H1 1.922849 1_655
Fe10 Fe2 2.503613 1_655
Fe10 Fe16 2.660607 1_655
Fe11 H2 1.922849 1_565
Fe11 Fe16 2.660607 1_565
Fe12 H0 1.922849 1_555
Fe12 Fe2 2.503613 1_655
Fe12 Fe15 2.660607 1_554
Fe13 H1 1.922849 1_555
Fe13 Fe2 2.503613 1_556
Fe13 Fe15 2.660607 1_455
Fe14 H2 1.922849 1_555
Fe14 Fe15 2.660607 1_545
Fe15 Fe16 2.387308 1_666
Fe15 Fe2 2.661817 1_656
Fe15 Fe6 2.739231 1_665
Fe15 Fe5 2.739231 1_665
Fe15 Fe7 2.739231 1_566
Fe15 Fe4 2.739231 1_656
Fe15 Fe3 2.739231 1_566
Fe15 Fe8 2.739231 1_656
Fe15 Pr0 3.027111 1_555
Fe16 Fe9 2.660607 1_554
Fe16 Fe2 2.661817 1_555
Fe16 Fe4 2.739231 1_545
Fe16 Fe7 2.739231 1_455
Fe16 Fe6 2.739231 1_554
Fe16 Fe5 2.739231 1_554
Fe16 Fe8 2.739231 1_545
Fe16 Fe3 2.739231 1_455
Fe16 Pr1 3.027111 1_555
H0 Pr1 2.526553 1_555
H0 Pr0 2.526553 1_554
H1 Pr1 2.526553 1_555
H1 Pr0 2.526553 1_455
H2 Pr1 2.526553 1_555
H2 Pr0 2.526553 1_545
