# generated using pymatgen
data_DyGePd
_symmetry_space_group_name_H-M   'P 1'
_cell_length_a   4.34638247
_cell_length_b   7.48464677
_cell_length_c   13.89918713
_cell_angle_alpha   90.00000000
_cell_angle_beta   90.00000000
_cell_angle_gamma   90.00000000
_symmetry_Int_Tables_number   1
_chemical_formula_structural   DyGePd
_chemical_formula_sum   'Dy8 Ge8 Pd8'
_cell_volume   452.15636788
_cell_formula_units_Z   8
loop_
 _symmetry_equiv_pos_site_id
 _symmetry_equiv_pos_as_xyz
  1  'x, y, z'
loop_
 _atom_site_type_symbol
 _atom_site_label
 _atom_site_symmetry_multiplicity
 _atom_site_fract_x
 _atom_site_fract_y
 _atom_site_fract_z
 _atom_site_occupancy
  Dy  Dy0  1  0.25000000  0.78741995  0.49855120  1
  Dy  Dy1  1  0.25000000  0.78741995  0.00144880  1
  Dy  Dy2  1  0.75000000  0.21258005  0.50144880  1
  Dy  Dy3  1  0.75000000  0.21258005  0.99855120  1
  Dy  Dy4  1  0.25000000  0.70913456  0.75000000  1
  Dy  Dy5  1  0.75000000  0.29086544  0.25000000  1
  Dy  Dy6  1  0.25000000  0.70319903  0.25000000  1
  Dy  Dy7  1  0.75000000  0.29680097  0.75000000  1
  Ge  Ge0  1  0.25000000  0.40845467  0.39481774  1
  Ge  Ge1  1  0.25000000  0.40845467  0.10518226  1
  Ge  Ge2  1  0.75000000  0.59154533  0.60518226  1
  Ge  Ge3  1  0.75000000  0.59154533  0.89481774  1
  Ge  Ge4  1  0.25000000  0.09090222  0.84689824  1
  Ge  Ge5  1  0.25000000  0.09090222  0.65310176  1
  Ge  Ge6  1  0.75000000  0.90909778  0.15310176  1
  Ge  Ge7  1  0.75000000  0.90909778  0.34689824  1
  Pd  Pd0  1  0.25000000  0.07657512  0.35882652  1
  Pd  Pd1  1  0.25000000  0.07657512  0.14117348  1
  Pd  Pd2  1  0.75000000  0.92342488  0.64117348  1
  Pd  Pd3  1  0.75000000  0.92342488  0.85882652  1
  Pd  Pd4  1  0.25000000  0.41754247  0.90448352  1
  Pd  Pd5  1  0.25000000  0.41754247  0.59551648  1
  Pd  Pd6  1  0.75000000  0.58245753  0.09551648  1
  Pd  Pd7  1  0.75000000  0.58245753  0.40448352  1
loop_
_geom_bond_atom_site_label_1
_geom_bond_atom_site_label_2
_geom_bond_distance
_geom_bond_site_symmetry_2
Dy0 Pd0 2.907828 1_565
Dy0 Pd7 2.964051 1_455
Dy0 Pd7 2.964051 1_555
Dy0 Ge2 3.011419 1_555
Dy0 Ge2 3.011419 1_455
Dy0 Pd5 3.079034 1_555
Dy0 Pd2 3.112656 1_555
Dy0 Pd2 3.112656 1_455
Dy0 Ge5 3.126335 1_565
Dy0 Ge7 3.161520 1_555
Dy0 Ge7 3.161520 1_455
Dy0 Ge0 3.181840 1_555
Dy1 Pd1 2.907828 1_565
Dy1 Pd6 2.964051 1_455
Dy1 Pd6 2.964051 1_555
Dy1 Ge3 3.011419 1_454
Dy1 Ge3 3.011419 1_554
Dy1 Pd4 3.079034 1_554
Dy1 Pd3 3.112656 1_454
Dy1 Pd3 3.112656 1_554
Dy1 Ge4 3.126335 1_564
Dy1 Ge6 3.161520 1_455
Dy1 Ge6 3.161520 1_555
Dy1 Ge1 3.181840 1_555
Dy2 Pd2 2.907828 1_545
Dy2 Pd5 2.964051 1_655
Dy2 Pd5 2.964051 1_555
Dy2 Ge0 3.011419 1_655
Dy2 Ge0 3.011419 1_555
Dy2 Pd7 3.079034 1_555
Dy2 Pd0 3.112656 1_555
Dy2 Pd0 3.112656 1_655
Dy2 Ge7 3.126335 1_545
Dy2 Ge5 3.161520 1_555
Dy2 Ge5 3.161520 1_655
Dy2 Ge2 3.181840 1_555
Dy3 Pd3 2.907828 1_545
Dy3 Pd4 2.964051 1_555
Dy3 Pd4 2.964051 1_655
Dy3 Ge1 3.011419 1_556
Dy3 Ge1 3.011419 1_656
Dy3 Pd6 3.079034 1_556
Dy3 Pd1 3.112656 1_556
Dy3 Pd1 3.112656 1_656
Dy3 Ge6 3.126335 1_546
Dy3 Ge4 3.161520 1_655
Dy3 Ge4 3.161520 1_555
Dy3 Ge3 3.181840 1_555
Dy4 Pd4 3.061633 1_555
Dy4 Pd5 3.061633 1_555
Dy4 Ge3 3.090133 1_555
Dy4 Ge3 3.090133 1_455
Dy4 Ge2 3.090133 1_455
Dy4 Ge2 3.090133 1_555
Dy4 Pd3 3.095670 1_455
Dy4 Pd2 3.095670 1_555
Dy4 Pd3 3.095670 1_555
Dy4 Pd2 3.095670 1_455
Dy4 Ge5 3.158892 1_565
Dy4 Ge4 3.158892 1_565
Dy5 Pd6 3.061633 1_555
Dy5 Pd7 3.061633 1_555
Dy5 Ge0 3.090133 1_655
Dy5 Ge0 3.090133 1_555
Dy5 Ge1 3.090133 1_655
Dy5 Ge1 3.090133 1_555
Dy5 Pd0 3.095670 1_655
Dy5 Pd0 3.095670 1_555
Dy5 Pd1 3.095670 1_655
Dy5 Pd1 3.095670 1_555
Dy5 Ge7 3.158892 1_545
Dy5 Ge6 3.158892 1_545
Dy6 Ge7 2.985226 1_555
Dy6 Ge6 2.985226 1_455
Dy6 Ge7 2.985226 1_455
Dy6 Ge6 2.985226 1_555
Dy6 Ge1 2.986344 1_555
Dy6 Ge0 2.986344 1_555
Dy6 Pd0 3.177685 1_565
Dy6 Pd1 3.177685 1_565
Dy6 Pd6 3.185890 1_555
Dy6 Pd7 3.185890 1_455
Dy6 Pd7 3.185890 1_555
Dy6 Pd6 3.185890 1_455
Dy7 Ge4 2.985226 1_555
Dy7 Ge4 2.985226 1_655
Dy7 Ge5 2.985226 1_655
Dy7 Ge5 2.985226 1_555
Dy7 Ge3 2.986344 1_555
Dy7 Ge2 2.986344 1_555
Dy7 Pd2 3.177685 1_545
Dy7 Pd3 3.177685 1_545
Dy7 Pd4 3.185890 1_655
Dy7 Pd5 3.185890 1_655
Dy7 Pd4 3.185890 1_555
Dy7 Pd5 3.185890 1_555
Ge0 Pd0 2.533873 1_555
Ge0 Pd7 2.537109 1_455
Ge0 Pd7 2.537109 1_555
Ge0 Pd5 2.790378 1_555
Ge1 Pd1 2.533873 1_555
Ge1 Pd6 2.537109 1_455
Ge1 Pd6 2.537109 1_555
Ge1 Pd4 2.790378 1_554
Ge2 Pd2 2.533873 1_555
Ge2 Pd5 2.537109 1_555
Ge2 Pd5 2.537109 1_655
Ge2 Pd7 2.790378 1_555
Ge3 Pd3 2.533873 1_555
Ge3 Pd4 2.537109 1_655
Ge3 Pd4 2.537109 1_555
Ge3 Pd6 2.790378 1_556
Ge4 Pd3 2.514266 1_545
Ge4 Pd3 2.514266 1_445
Ge4 Pd4 2.572471 1_555
Ge4 Ge5 2.693614 1_555
Ge5 Pd2 2.514266 1_445
Ge5 Pd2 2.514266 1_545
Ge5 Pd5 2.572471 1_555
Ge6 Pd1 2.514266 1_565
Ge6 Pd1 2.514266 1_665
Ge6 Pd6 2.572471 1_555
Ge6 Ge7 2.693614 1_555
Ge7 Pd0 2.514266 1_565
Ge7 Pd0 2.514266 1_665
Ge7 Pd7 2.572471 1_555
Pd0 Pd1 3.025200 1_555
Pd2 Pd3 3.025200 1_555
