# generated using pymatgen
data_Tm3Tl
_symmetry_space_group_name_H-M   'P 1'
_cell_length_a   6.73122550
_cell_length_b   6.73122640
_cell_length_c   5.55450311
_cell_angle_alpha   90.00000000
_cell_angle_beta   90.00000000
_cell_angle_gamma   119.99995289
_symmetry_Int_Tables_number   1
_chemical_formula_structural   Tm3Tl
_chemical_formula_sum   'Tm6 Tl2'
_cell_volume   217.95377207
_cell_formula_units_Z   2
loop_
 _symmetry_equiv_pos_site_id
 _symmetry_equiv_pos_as_xyz
  1  'x, y, z'
loop_
 _atom_site_type_symbol
 _atom_site_label
 _atom_site_symmetry_multiplicity
 _atom_site_fract_x
 _atom_site_fract_y
 _atom_site_fract_z
 _atom_site_occupancy
  Tm  Tm0  1  0.16945140  0.33890280  0.25000000  1
  Tm  Tm1  1  0.66109720  0.83054860  0.25000000  1
  Tm  Tm2  1  0.16945040  0.83054860  0.25000000  1
  Tm  Tm3  1  0.83054860  0.66109720  0.75000000  1
  Tm  Tm4  1  0.33890280  0.16945140  0.75000000  1
  Tm  Tm5  1  0.83054960  0.16945140  0.75000000  1
  Tl  Tl0  1  0.33333300  0.66666700  0.75000000  1
  Tl  Tl1  1  0.66666700  0.33333300  0.25000000  1
loop_
_geom_bond_atom_site_label_1
_geom_bond_atom_site_label_2
_geom_bond_distance
_geom_bond_site_symmetry_2
Tm0 Tm1 3.309381 1_555
Tm0 Tm2 3.309383 1_555
Tm0 Tm5 3.408243 1_455
Tm0 Tm5 3.408243 1_454
Tm0 Tm4 3.408245 1_554
Tm0 Tm4 3.408245 1_555
Tm0 Tm2 3.421844 1_545
Tm0 Tm1 3.421849 1_445
Tm1 Tm2 3.309385 1_555
Tm1 Tm3 3.408245 1_554
Tm1 Tm3 3.408245 1_555
Tm1 Tm5 3.408246 1_565
Tm1 Tm5 3.408246 1_564
Tm1 Tm2 3.421840 1_655
Tm2 Tm3 3.408243 1_455
Tm2 Tm3 3.408243 1_454
Tm2 Tm4 3.408246 1_565
Tm2 Tm4 3.408246 1_564
Tm3 Tm4 3.309381 1_555
Tm3 Tm5 3.309383 1_555
Tm3 Tm5 3.421844 1_565
Tm3 Tm4 3.421849 1_665
Tm4 Tm5 3.309385 1_555
Tm4 Tm5 3.421840 1_455
Tl0 Tm3 3.365766 1_455
Tl0 Tm4 3.365766 1_565
Tl0 Tm5 3.365768 1_455
Tl0 Tm3 3.365773 1_555
Tl0 Tm4 3.365773 1_555
Tl0 Tm5 3.365775 1_565
Tl0 Tm2 3.371023 1_556
Tl0 Tm2 3.371023 1_555
Tl0 Tm1 3.371024 1_556
Tl0 Tm1 3.371024 1_555
Tl0 Tm0 3.371024 1_555
Tl0 Tm0 3.371024 1_556
Tl1 Tm0 3.365766 1_655
Tl1 Tm1 3.365766 1_545
Tl1 Tm2 3.365768 1_655
Tl1 Tm0 3.365773 1_555
Tl1 Tm1 3.365773 1_555
Tl1 Tm2 3.365775 1_545
Tl1 Tm5 3.371023 1_554
Tl1 Tm5 3.371023 1_555
Tl1 Tm4 3.371024 1_555
Tl1 Tm4 3.371024 1_554
Tl1 Tm3 3.371024 1_554
Tl1 Tm3 3.371024 1_555
