# generated using pymatgen
data_LiMnPO4
_symmetry_space_group_name_H-M   'P 1'
_cell_length_a   4.90192600
_cell_length_b   7.92596400
_cell_length_c   17.35440600
_cell_angle_alpha   90.00000000
_cell_angle_beta   90.00000000
_cell_angle_gamma   90.00000000
_symmetry_Int_Tables_number   1
_chemical_formula_structural   LiMnPO4
_chemical_formula_sum   'Li8 Mn8 P8 O32'
_cell_volume   674.26186833
_cell_formula_units_Z   8
loop_
 _symmetry_equiv_pos_site_id
 _symmetry_equiv_pos_as_xyz
  1  'x, y, z'
loop_
 _atom_site_type_symbol
 _atom_site_label
 _atom_site_symmetry_multiplicity
 _atom_site_fract_x
 _atom_site_fract_y
 _atom_site_fract_z
 _atom_site_occupancy
  Li  Li0  1  0.71391300  0.01839400  0.44394900  1
  Li  Li1  1  0.24170600  0.16965300  0.85630400  1
  Li  Li2  1  0.74170600  0.33034700  0.35630400  1
  Li  Li3  1  0.21391300  0.48160600  0.94394900  1
  Li  Li4  1  0.71391300  0.51839400  0.05605100  1
  Li  Li5  1  0.24170600  0.66965300  0.64369600  1
  Li  Li6  1  0.74170600  0.83034700  0.14369600  1
  Li  Li7  1  0.21391300  0.98160600  0.55605100  1
  Mn  Mn0  1  0.28170300  0.07607300  0.25681400  1
  Mn  Mn1  1  0.27724300  0.15081100  0.05247000  1
  Mn  Mn2  1  0.77724300  0.34918900  0.55247000  1
  Mn  Mn3  1  0.78170300  0.42392700  0.75681400  1
  Mn  Mn4  1  0.28170300  0.57607300  0.24318600  1
  Mn  Mn5  1  0.27724300  0.65081100  0.44753000  1
  Mn  Mn6  1  0.77724300  0.84918900  0.94753000  1
  Mn  Mn7  1  0.78170300  0.92392700  0.74318600  1
  P  P0  1  0.71420500  0.21366500  0.17535600  1
  P  P1  1  0.21744500  0.24033800  0.43126000  1
  P  P2  1  0.71744500  0.25966200  0.93126000  1
  P  P3  1  0.21420500  0.28633500  0.67535600  1
  P  P4  1  0.71420500  0.71366500  0.32464400  1
  P  P5  1  0.21744500  0.74033800  0.06874000  1
  P  P6  1  0.71744500  0.75966200  0.56874000  1
  P  P7  1  0.21420500  0.78633500  0.82464400  1
  O  O0  1  0.55577800  0.05189200  0.14697300  1
  O  O1  1  0.07601900  0.08891600  0.46795300  1
  O  O2  1  0.58942800  0.09365600  0.96553900  1
  O  O3  1  0.09734000  0.13343100  0.63291500  1
  O  O4  1  0.02935500  0.18890700  0.16483100  1
  O  O5  1  0.53068800  0.24073700  0.44667400  1
  O  O6  1  0.64352800  0.22317600  0.26235500  1
  O  O7  1  0.14737100  0.24044000  0.34316500  1
  O  O8  1  0.64737100  0.25956000  0.84316500  1
  O  O9  1  0.14352800  0.27682400  0.76235500  1
  O  O10  1  0.03068800  0.25926300  0.94667400  1
  O  O11  1  0.52935500  0.31109300  0.66483100  1
  O  O12  1  0.59734000  0.36656900  0.13291500  1
  O  O13  1  0.08942800  0.40634400  0.46553900  1
  O  O14  1  0.57601900  0.41108400  0.96795300  1
  O  O15  1  0.05577800  0.44810800  0.64697300  1
  O  O16  1  0.55577800  0.55189200  0.35302700  1
  O  O17  1  0.07601900  0.58891600  0.03204700  1
  O  O18  1  0.58942800  0.59365600  0.53446100  1
  O  O19  1  0.09734000  0.63343100  0.86708500  1
  O  O20  1  0.02935500  0.68890700  0.33516900  1
  O  O21  1  0.53068800  0.74073700  0.05332600  1
  O  O22  1  0.64352800  0.72317600  0.23764500  1
  O  O23  1  0.14737100  0.74044000  0.15683500  1
  O  O24  1  0.64737100  0.75956000  0.65683500  1
  O  O25  1  0.14352800  0.77682400  0.73764500  1
  O  O26  1  0.03068800  0.75926300  0.55332600  1
  O  O27  1  0.52935500  0.81109300  0.83516900  1
  O  O28  1  0.59734000  0.86656900  0.36708500  1
  O  O29  1  0.08942800  0.90634400  0.03446100  1
  O  O30  1  0.57601900  0.91108400  0.53204700  1
  O  O31  1  0.05577800  0.94810800  0.85302700  1
loop_
_geom_bond_atom_site_label_1
_geom_bond_atom_site_label_2
_geom_bond_distance
_geom_bond_site_symmetry_2
Li0 O30 1.875583 1_545
Li0 O28 1.885199 1_545
Li0 O1 1.907000 1_655
Li0 O5 1.978525 1_555
Li1 O9 1.900381 1_555
Li1 O31 1.979212 1_545
Li1 O10 2.008492 1_555
Li1 O8 2.124637 1_555
Li2 O6 1.900381 1_555
Li2 O16 1.979212 1_555
Li2 O5 2.008492 1_555
Li2 O7 2.124637 1_655
Li3 O17 1.875583 1_556
Li3 O19 1.885199 1_555
Li3 O14 1.907000 1_555
Li3 O10 1.978525 1_555
Li4 O14 1.875583 1_554
Li4 O12 1.885199 1_555
Li4 O17 1.907000 1_655
Li4 O21 1.978525 1_555
Li5 O25 1.900381 1_555
Li5 O15 1.979212 1_555
Li5 O26 2.008492 1_555
Li5 O24 2.124637 1_555
Li6 O22 1.900381 1_555
Li6 O0 1.979212 1_565
Li6 O21 2.008492 1_555
Li6 O23 2.124637 1_655
Li7 O1 1.875583 1_565
Li7 O3 1.885199 1_565
Li7 O30 1.907000 1_555
Li7 O26 1.978525 1_555
Mn0 O7 2.092013 1_555
Mn0 O6 2.124722 1_555
Mn0 O4 2.208655 1_555
Mn0 O0 2.339959 1_555
Mn1 O29 2.167884 1_545
Mn1 O2 2.196142 1_554
Mn1 O0 2.273466 1_555
Mn1 O4 2.317336 1_555
Mn1 O10 2.360208 1_554
Mn1 O12 2.708410 1_555
Mn2 O18 2.167884 1_555
Mn2 O13 2.196142 1_655
Mn2 O15 2.273466 1_655
Mn2 O11 2.317336 1_555
Mn2 O5 2.360208 1_555
Mn2 O3 2.708410 1_655
Mn3 O8 2.092013 1_555
Mn3 O9 2.124722 1_655
Mn3 O11 2.208655 1_555
Mn3 O15 2.339959 1_655
Mn4 O23 2.092013 1_555
Mn4 O22 2.124722 1_555
Mn4 O20 2.208655 1_555
Mn4 O16 2.339959 1_555
Mn5 O13 2.167884 1_555
Mn5 O18 2.196142 1_555
Mn5 O16 2.273466 1_555
Mn5 O20 2.317336 1_555
Mn5 O26 2.360208 1_555
Mn5 O28 2.708410 1_555
Mn6 O2 2.167884 1_565
Mn6 O29 2.196142 1_656
Mn6 O31 2.273466 1_655
Mn6 O27 2.317336 1_555
Mn6 O21 2.360208 1_556
Mn6 O19 2.708410 1_655
Mn7 O24 2.092013 1_555
Mn7 O25 2.124722 1_655
Mn7 O27 2.208655 1_555
Mn7 O31 2.339959 1_655
O0 P0 1.577905 1_555
O1 P1 1.525287 1_555
O2 P2 1.574455 1_555
O3 P3 1.529507 1_555
O4 P0 1.567931 1_455
O5 P1 1.558624 1_555
O6 P0 1.550889 1_555
O7 P1 1.566950 1_555
O8 P2 1.566950 1_555
O9 P3 1.550889 1_555
O10 P2 1.558624 1_455
O11 P3 1.567931 1_555
O12 P0 1.529507 1_555
O13 P1 1.574455 1_555
O14 P2 1.525287 1_555
O15 P3 1.577905 1_555
O16 P4 1.577905 1_555
O17 P5 1.525287 1_555
O18 P6 1.574455 1_555
O19 P7 1.529507 1_555
O20 P4 1.567931 1_455
O21 P5 1.558624 1_555
O22 P4 1.550889 1_555
O23 P5 1.566950 1_555
O24 P6 1.566950 1_555
O25 P7 1.550889 1_555
O26 P6 1.558624 1_455
O27 P7 1.567931 1_555
O28 P4 1.529507 1_555
O29 P5 1.574455 1_555
O30 P6 1.525287 1_555
O31 P7 1.577905 1_555
