# generated using pymatgen
data_Ho3Al2(Ni3H4)2
_symmetry_space_group_name_H-M   'P 1'
_cell_length_a   7.84505230
_cell_length_b   7.84505230
_cell_length_c   7.84505230
_cell_angle_alpha   108.93896872
_cell_angle_beta   108.93896872
_cell_angle_gamma   110.54105058
_symmetry_Int_Tables_number   1
_chemical_formula_structural   Ho3Al2(Ni3H4)2
_chemical_formula_sum   'Ho6 Al4 Ni12 H16'
_cell_volume   371.57956325
_cell_formula_units_Z   2
loop_
 _symmetry_equiv_pos_site_id
 _symmetry_equiv_pos_as_xyz
  1  'x, y, z'
loop_
 _atom_site_type_symbol
 _atom_site_label
 _atom_site_symmetry_multiplicity
 _atom_site_fract_x
 _atom_site_fract_y
 _atom_site_fract_z
 _atom_site_occupancy
  Ho  Ho0  1  0.70779700  0.70779700  0.00000000  1
  Ho  Ho1  1  0.00000000  0.26980500  0.26980500  1
  Ho  Ho2  1  0.26980500  0.00000000  0.26980500  1
  Ho  Ho3  1  0.29220300  0.29220300  0.00000000  1
  Ho  Ho4  1  0.00000000  0.73019500  0.73019500  1
  Ho  Ho5  1  0.73019500  0.00000000  0.73019500  1
  Al  Al0  1  0.00000000  0.00000000  0.50000000  1
  Al  Al1  1  0.50000000  0.00000000  0.00000000  1
  Al  Al2  1  0.00000000  0.50000000  0.00000000  1
  Al  Al3  1  0.50000000  0.50000000  0.50000000  1
  Ni  Ni0  1  0.32642500  0.32642500  0.65284900  1
  Ni  Ni1  1  0.99589900  0.65609200  0.33980700  1
  Ni  Ni2  1  0.65609200  0.99589900  0.33980700  1
  Ni  Ni3  1  0.32642500  0.67357500  0.00000000  1
  Ni  Ni4  1  0.68371500  0.34390800  0.33980700  1
  Ni  Ni5  1  0.34390800  0.00410100  0.66019300  1
  Ni  Ni6  1  0.67357500  0.32642500  0.00000000  1
  Ni  Ni7  1  0.00410100  0.34390800  0.66019300  1
  Ni  Ni8  1  0.34390800  0.68371500  0.33980700  1
  Ni  Ni9  1  0.67357500  0.67357500  0.34715100  1
  Ni  Ni10  1  0.31628500  0.65609200  0.66019300  1
  Ni  Ni11  1  0.65609200  0.31628500  0.66019300  1
  H  H0  1  0.01123900  0.01123900  0.76042900  1
  H  H1  1  0.74918900  0.98876100  0.00000000  1
  H  H2  1  0.98876100  0.74918900  0.00000000  1
  H  H3  1  0.25081100  0.25081100  0.23957100  1
  H  H4  1  0.98876100  0.98876100  0.23957100  1
  H  H5  1  0.25081100  0.01123900  0.00000000  1
  H  H6  1  0.01123900  0.25081100  0.00000000  1
  H  H7  1  0.74918900  0.74918900  0.76042900  1
  H  H8  1  0.72379400  0.50000000  0.22379400  1
  H  H9  1  0.75000000  0.25000000  0.50000000  1
  H  H10  1  0.50000000  0.27620600  0.77620600  1
  H  H11  1  0.27620600  0.50000000  0.77620600  1
  H  H12  1  0.50000000  0.72379400  0.22379400  1
  H  H13  1  0.25000000  0.75000000  0.50000000  1
  H  H14  1  0.00000000  0.50000000  0.50000000  1
  H  H15  1  0.50000000  0.00000000  0.50000000  1
loop_
_geom_bond_atom_site_label_1
_geom_bond_atom_site_label_2
_geom_bond_distance
_geom_bond_site_symmetry_2
Al0 H0 1.987561 1_555
Al0 H4 1.987561 1_445
Al0 Ni0 2.442329 1_555
Al0 Ni9 2.442329 1_445
Al0 Ni7 2.563472 1_555
Al0 Ni5 2.563472 1_555
Al0 Ni1 2.563472 1_445
Al0 Ni2 2.563472 1_445
Al1 H5 1.987554 1_555
Al1 H1 1.987554 1_545
Al1 Ni6 2.442327 1_555
Al1 Ni3 2.442327 1_545
Al1 Ni2 2.563472 1_545
Al1 Ni4 2.563472 1_555
Al1 Ni10 2.563472 1_544
Al1 Ni5 2.563472 1_554
Al2 H6 1.987554 1_555
Al2 H2 1.987554 1_455
Al2 Ni3 2.442327 1_555
Al2 Ni6 2.442327 1_455
Al2 Ni1 2.563472 1_455
Al2 Ni8 2.563472 1_555
Al2 Ni11 2.563472 1_454
Al2 Ni7 2.563472 1_554
Al3 H7 1.987557 1_555
Al3 H3 1.987557 1_555
Al3 Ni9 2.442320 1_555
Al3 Ni0 2.442320 1_555
Al3 Ni10 2.563472 1_555
Al3 Ni11 2.563472 1_555
Al3 Ni8 2.563472 1_555
Al3 Ni4 2.563472 1_555
H0 Ho4 2.106120 1_545
H0 Ho5 2.106120 1_455
H0 Ho3 2.112239 1_556
H1 Ho1 2.106122 1_665
H1 Ho5 2.106122 1_564
H1 Ho0 2.112241 1_555
H2 Ho2 2.106122 1_665
H2 Ho4 2.106122 1_654
H2 Ho0 2.112241 1_555
H3 Ho2 2.106125 1_555
H3 Ho1 2.106125 1_555
H3 Ho3 2.112233 1_555
H4 Ho1 2.106120 1_665
H4 Ho2 2.106120 1_665
H4 Ho0 2.112239 1_555
H5 Ho2 2.106122 1_555
H5 Ho4 2.106122 1_544
H5 Ho3 2.112241 1_555
H6 Ho1 2.106122 1_555
H6 Ho5 2.106122 1_454
H6 Ho3 2.112241 1_555
H7 Ho4 2.106125 1_655
H7 Ho5 2.106125 1_565
H7 Ho0 2.112233 1_556
H8 Ni6 1.647582 1_555
H8 Ni9 1.647585 1_555
H8 Ni4 1.750920 1_555
H8 Ni1 1.750920 1_555
H9 Ni11 1.684675 1_555
H9 Ni7 1.684675 1_655
H9 Ni2 1.684675 1_545
H9 Ni4 1.684675 1_555
H10 Ni6 1.647582 1_556
H10 Ni0 1.647585 1_555
H10 Ni5 1.750920 1_555
H10 Ni11 1.750920 1_555
H11 Ni3 1.647582 1_556
H11 Ni0 1.647585 1_555
H11 Ni7 1.750920 1_555
H11 Ni10 1.750920 1_555
H12 Ni3 1.647582 1_555
H12 Ni9 1.647585 1_555
H12 Ni8 1.750920 1_555
H12 Ni2 1.750920 1_555
H13 Ni10 1.684675 1_555
H13 Ni5 1.684675 1_565
H13 Ni1 1.684675 1_455
H13 Ni8 1.684675 1_555
H14 Ni7 2.019964 1_555
H14 Ni10 2.019964 1_555
H14 Ni4 2.019964 1_455
H14 Ni1 2.019964 1_455
H14 Ho4 2.098939 1_555
H14 Ho1 2.098939 1_555
H15 Ni5 2.019964 1_555
H15 Ni11 2.019964 1_555
H15 Ni8 2.019964 1_545
H15 Ni2 2.019964 1_545
H15 Ho5 2.098939 1_555
H15 Ho2 2.098939 1_555
