# generated using pymatgen
data_Na6NiO4
_symmetry_space_group_name_H-M   'P 1'
_cell_length_a   7.46002200
_cell_length_b   9.29038636
_cell_length_c   9.28979584
_cell_angle_alpha   107.95003700
_cell_angle_beta   90.00197871
_cell_angle_gamma   90.00099796
_symmetry_Int_Tables_number   1
_chemical_formula_structural   Na6NiO4
_chemical_formula_sum   'Na24 Ni4 O16'
_cell_volume   612.50444869
_cell_formula_units_Z   4
loop_
 _symmetry_equiv_pos_site_id
 _symmetry_equiv_pos_as_xyz
  1  'x, y, z'
loop_
 _atom_site_type_symbol
 _atom_site_label
 _atom_site_symmetry_multiplicity
 _atom_site_fract_x
 _atom_site_fract_y
 _atom_site_fract_z
 _atom_site_occupancy
  Na  Na0  1  0.25005700  0.20240300  0.45240900  1
  Na  Na1  1  0.25005600  0.70388100  0.95386400  1
  Na  Na2  1  0.25005700  0.95332300  0.20328600  1
  Na  Na3  1  0.25002600  0.45281500  0.70287000  1
  Na  Na4  1  0.75000000  0.79614600  0.54768400  1
  Na  Na5  1  0.75000200  0.29766000  0.04623000  1
  Na  Na6  1  0.74997600  0.04795500  0.79592500  1
  Na  Na7  1  0.75002500  0.54597800  0.29793300  1
  Na  Na8  1  0.53804600  0.35509600  0.39392700  1
  Na  Na9  1  0.53613300  0.85687100  0.89290600  1
  Na  Na10  1  0.96233200  0.35523300  0.39379000  1
  Na  Na11  1  0.96413300  0.85699600  0.89284900  1
  Na  Na12  1  0.53768500  0.14384300  0.60530700  1
  Na  Na13  1  0.53585700  0.64273800  0.10699500  1
  Na  Na14  1  0.96196900  0.14403900  0.60512300  1
  Na  Na15  1  0.96397500  0.64294300  0.10688500  1
  Na  Na16  1  0.03712900  0.85743300  0.39439700  1
  Na  Na17  1  0.03795600  0.35691900  0.89284800  1
  Na  Na18  1  0.46272300  0.85721700  0.39446800  1
  Na  Na19  1  0.46182200  0.35680000  0.89296000  1
  Na  Na20  1  0.03823100  0.64296900  0.60692400  1
  Na  Na21  1  0.03741400  0.14457700  0.10719500  1
  Na  Na22  1  0.46217500  0.64272900  0.60698300  1
  Na  Na23  1  0.46289400  0.14444900  0.10730000  1
  Ni  Ni0  1  0.74964800  0.50227700  0.75232100  1
  Ni  Ni1  1  0.25008900  0.50226100  0.25305200  1
  Ni  Ni2  1  0.74978800  0.99731900  0.24728800  1
  Ni  Ni3  1  0.24990400  0.00245500  0.75185400  1
  O  O0  1  0.25009600  0.96559300  0.96249300  1
  O  O1  1  0.25015700  0.46355000  0.46155300  1
  O  O2  1  0.99248200  0.08874600  0.33856000  1
  O  O3  1  0.99742500  0.58888700  0.83884000  1
  O  O4  1  0.50762200  0.08865700  0.33867200  1
  O  O5  1  0.50268500  0.58878900  0.83893700  1
  O  O6  1  0.24987800  0.21139500  0.71350400  1
  O  O7  1  0.24996000  0.71256100  0.21570800  1
  O  O8  1  0.74996300  0.78709900  0.28573900  1
  O  O9  1  0.74989100  0.28962400  0.78172100  1
  O  O10  1  0.00703900  0.91050600  0.66052000  1
  O  O11  1  0.00719000  0.41065500  0.16052600  1
  O  O12  1  0.49277300  0.91036600  0.66058200  1
  O  O13  1  0.49283300  0.41054500  0.16061000  1
  O  O14  1  0.75011100  0.03583000  0.03700800  1
  O  O15  1  0.75015300  0.53169400  0.53963200  1
loop_
_geom_bond_atom_site_label_1
_geom_bond_atom_site_label_2
_geom_bond_distance
_geom_bond_site_symmetry_2
Na0 O4 2.288456 1_555
Na0 O2 2.288495 1_455
Na0 O6 2.401090 1_555
Na0 O1 2.401338 1_555
Na1 O3 2.265202 1_455
Na1 O5 2.265285 1_555
Na1 O0 2.407909 1_555
Na1 O7 2.408847 1_556
Na2 O0 2.274636 1_554
Na2 O7 2.274987 1_555
Na2 O4 2.424797 1_565
Na2 O2 2.424883 1_465
Na3 O1 2.274502 1_555
Na3 O6 2.275272 1_555
Na3 O3 2.400130 1_455
Na3 O5 2.400363 1_555
Na4 O10 2.284247 1_655
Na4 O12 2.285277 1_555
Na4 O8 2.408840 1_555
Na4 O15 2.434849 1_555
Na5 O13 2.285356 1_555
Na5 O11 2.285453 1_655
Na5 O14 2.407479 1_555
Na5 O9 2.435262 1_554
Na6 O14 2.276851 1_556
Na6 O9 2.289309 1_555
Na6 O10 2.429122 1_645
Na6 O12 2.430115 1_545
Na7 O8 2.277570 1_555
Na7 O15 2.289715 1_555
Na7 O11 2.429308 1_655
Na7 O13 2.429441 1_555
Na8 O1 2.373254 1_555
Na8 O15 2.378785 1_555
Na8 O4 2.378869 1_555
Na8 O13 2.401088 1_555
Na9 O0 2.364133 1_555
Na9 O12 2.381331 1_555
Na9 O14 2.394224 1_566
Na9 O5 2.397280 1_555
Na10 O1 2.372486 1_655
Na10 O15 2.379043 1_555
Na10 O2 2.379145 1_555
Na10 O11 2.400135 1_655
Na11 O0 2.363239 1_655
Na11 O10 2.381004 1_655
Na11 O14 2.394120 1_566
Na11 O3 2.397375 1_555
Na12 O6 2.371780 1_555
Na12 O9 2.378624 1_555
Na12 O4 2.380295 1_555
Na12 O12 2.401542 1_545
Na13 O7 2.363463 1_555
Na13 O13 2.380478 1_555
Na13 O8 2.394622 1_555
Na13 O5 2.396709 1_554
Na14 O6 2.372728 1_655
Na14 O9 2.378325 1_555
Na14 O2 2.379876 1_555
Na14 O10 2.402774 1_645
Na15 O7 2.364051 1_655
Na15 O11 2.381651 1_655
Na15 O8 2.394135 1_555
Na15 O3 2.396716 1_554
Na16 O8 2.372432 1_455
Na16 O10 2.377838 1_555
Na16 O2 2.384374 1_465
Na16 O7 2.389782 1_555
Na17 O3 2.377804 1_455
Na17 O9 2.382576 1_455
Na17 O6 2.390582 1_555
Na17 O11 2.391719 1_556
Na18 O8 2.372950 1_555
Na18 O12 2.377630 1_555
Na18 O4 2.385585 1_565
Na18 O7 2.388982 1_555
Na19 O5 2.378373 1_555
Na19 O9 2.382912 1_555
Na19 O6 2.390740 1_555
Na19 O13 2.391613 1_556
Na20 O3 2.377823 1_455
Na20 O15 2.383169 1_455
Na20 O1 2.390490 1_555
Na20 O10 2.391048 1_555
Na21 O14 2.373461 1_455
Na21 O11 2.377408 1_555
Na21 O2 2.385002 1_455
Na21 O0 2.389945 1_544
Na22 O5 2.377220 1_555
Na22 O15 2.381852 1_555
Na22 O1 2.389870 1_555
Na22 O12 2.391512 1_555
Na23 O14 2.372689 1_555
Na23 O13 2.377381 1_555
Na23 O4 2.384654 1_555
Na23 O0 2.390138 1_544
Ni0 O5 2.071043 1_555
Ni0 O9 2.076124 1_555
Ni0 O3 2.076375 1_555
Ni0 O15 2.076409 1_555
Ni1 O13 2.071696 1_555
Ni1 O11 2.072564 1_555
Ni1 O1 2.076153 1_555
Ni1 O7 2.086945 1_555
Ni2 O4 2.064114 1_565
Ni2 O2 2.067425 1_565
Ni2 O8 2.090909 1_555
Ni2 O14 2.091604 1_565
Ni3 O10 2.070089 1_545
Ni3 O12 2.070402 1_545
Ni3 O6 2.078745 1_555
Ni3 O0 2.087911 1_545
