# generated using pymatgen
data_TiNi
_symmetry_space_group_name_H-M   'P 1'
_cell_length_a   7.18206583
_cell_length_b   7.18206583
_cell_length_c   7.18206583
_cell_angle_alpha   129.61724790
_cell_angle_beta   129.61724790
_cell_angle_gamma   74.01940248
_symmetry_Int_Tables_number   1
_chemical_formula_structural   TiNi
_chemical_formula_sum   'Ti8 Ni8'
_cell_volume   214.38407203
_cell_formula_units_Z   8
loop_
 _symmetry_equiv_pos_site_id
 _symmetry_equiv_pos_as_xyz
  1  'x, y, z'
loop_
 _atom_site_type_symbol
 _atom_site_label
 _atom_site_symmetry_multiplicity
 _atom_site_fract_x
 _atom_site_fract_y
 _atom_site_fract_z
 _atom_site_occupancy
  Ti  Ti0  1  0.72900253  0.72900253  -0.00000000  1
  Ti  Ti1  1  0.27099747  0.27099747  0.00000000  1
  Ti  Ti2  1  0.75000000  0.25000000  0.50000000  1
  Ti  Ti3  1  0.25000000  0.75000000  0.50000000  1
  Ti  Ti4  1  -0.00000000  0.50000000  0.50000000  1
  Ti  Ti5  1  0.50000000  -0.00000000  0.50000000  1
  Ti  Ti6  1  0.50000000  0.50000000  0.00000000  1
  Ti  Ti7  1  -0.00000000  -0.00000000  0.00000000  1
  Ni  Ni0  1  0.09442579  0.09442579  0.44743592  1
  Ni  Ni1  1  0.64699087  0.64699087  0.55256408  1
  Ni  Ni2  1  0.09442579  0.64699087  0.00000000  1
  Ni  Ni3  1  0.64699087  0.09442579  -0.00000000  1
  Ni  Ni4  1  0.90557421  0.90557421  0.55256408  1
  Ni  Ni5  1  0.35300913  0.35300913  0.44743592  1
  Ni  Ni6  1  0.90557421  0.35300913  0.00000000  1
  Ni  Ni7  1  0.35300913  0.90557421  0.00000000  1
loop_
_geom_bond_atom_site_label_1
_geom_bond_atom_site_label_2
_geom_bond_distance
_geom_bond_site_symmetry_2
Ti0 Ti6 2.626714 1_555
Ti1 Ti6 2.626714 1_555
Ti4 Ti6 3.056997 1_556
Ti4 Ti6 3.056997 1_455
Ti5 Ti6 3.056997 1_556
Ti5 Ti6 3.056997 1_545
Ni0 Ti7 2.437444 1_555
Ni0 Ti0 2.526601 1_445
Ni0 Ti3 2.577058 1_545
Ni0 Ti2 2.577058 1_455
Ni0 Ti4 2.631270 1_555
Ni0 Ti5 2.631270 1_555
Ni0 Ti1 2.648539 1_556
Ni0 Ni2 2.735617 1_545
Ni0 Ni3 2.735617 1_455
Ni0 Ni4 2.806147 1_445
Ni0 Ti6 2.811766 1_556
Ni0 Ni5 2.966013 1_555
Ni1 Ti7 2.437437 1_666
Ni1 Ti0 2.526609 1_556
Ni1 Ti3 2.577064 1_555
Ni1 Ti2 2.577064 1_555
Ni1 Ti5 2.631264 1_565
Ni1 Ti4 2.631264 1_655
Ni1 Ti1 2.648544 1_555
Ni1 Ni3 2.735617 1_566
Ni1 Ni2 2.735617 1_656
Ni1 Ni5 2.806169 1_555
Ni1 Ti6 2.811760 1_555
Ni1 Ni4 2.966013 1_555
Ni2 Ti7 2.437437 1_565
Ni2 Ti0 2.526602 1_455
Ni2 Ti3 2.577062 1_555
Ni2 Ti2 2.577062 1_454
Ni2 Ti5 2.631267 1_565
Ni2 Ti4 2.631267 1_554
Ni2 Ti1 2.648545 1_555
Ni2 Ni6 2.806159 1_455
Ni2 Ti6 2.811767 1_555
Ni2 Ni7 2.966013 1_555
Ni3 Ti7 2.437437 1_655
Ni3 Ti0 2.526602 1_545
Ni3 Ti2 2.577062 1_555
Ni3 Ti3 2.577062 1_544
Ni3 Ti5 2.631267 1_554
Ni3 Ti4 2.631267 1_655
Ni3 Ti1 2.648545 1_555
Ni3 Ni7 2.806159 1_545
Ni3 Ti6 2.811767 1_555
Ni3 Ni6 2.966013 1_555
Ni4 Ti7 2.437444 1_666
Ni4 Ti1 2.526601 1_666
Ni4 Ti2 2.577058 1_565
Ni4 Ti3 2.577058 1_655
Ni4 Ti5 2.631270 1_565
Ni4 Ti4 2.631270 1_655
Ni4 Ti0 2.648539 1_555
Ni4 Ni6 2.735617 1_566
Ni4 Ni7 2.735617 1_656
Ni4 Ti6 2.811766 1_555
Ni5 Ti7 2.437437 1_555
Ni5 Ti1 2.526609 1_555
Ni5 Ti3 2.577064 1_555
Ni5 Ti2 2.577064 1_555
Ni5 Ti5 2.631264 1_555
Ni5 Ti4 2.631264 1_555
Ni5 Ti0 2.648544 1_556
Ni5 Ni6 2.735617 1_455
Ni5 Ni7 2.735617 1_545
Ni5 Ti6 2.811760 1_556
Ni6 Ti7 2.437437 1_655
Ni6 Ti1 2.526602 1_655
Ni6 Ti3 2.577062 1_655
Ni6 Ti2 2.577062 1_554
Ni6 Ti4 2.631267 1_655
Ni6 Ti5 2.631267 1_554
Ni6 Ti0 2.648545 1_555
Ni6 Ti6 2.811767 1_555
Ni7 Ti7 2.437437 1_565
Ni7 Ti1 2.526602 1_565
Ni7 Ti3 2.577062 1_554
Ni7 Ti2 2.577062 1_565
Ni7 Ti5 2.631267 1_565
Ni7 Ti4 2.631267 1_554
Ni7 Ti0 2.648545 1_555
Ni7 Ti6 2.811767 1_555
