# generated using pymatgen
data_Zn2Ni9O13
_symmetry_space_group_name_H-M   'P 1'
_cell_length_a   5.09577011
_cell_length_b   5.09577011
_cell_length_c   16.41991918
_cell_angle_alpha   81.41483861
_cell_angle_beta   81.41483861
_cell_angle_gamma   33.16885676
_symmetry_Int_Tables_number   1
_chemical_formula_structural   Zn2Ni9O13
_chemical_formula_sum   'Zn2 Ni9 O13'
_cell_volume   230.42567134
_cell_formula_units_Z   1
loop_
 _symmetry_equiv_pos_site_id
 _symmetry_equiv_pos_as_xyz
  1  'x, y, z'
loop_
 _atom_site_type_symbol
 _atom_site_label
 _atom_site_symmetry_multiplicity
 _atom_site_fract_x
 _atom_site_fract_y
 _atom_site_fract_z
 _atom_site_occupancy
  Zn  Zn0  1  0.78383000  0.78383000  0.22911000  1
  Zn  Zn1  1  0.21617000  0.21617000  0.77089000  1
  Ni  Ni0  1  0.50000000  0.50000000  0.50000000  1
  Ni  Ni1  1  0.35354600  0.35354600  0.04103000  1
  Ni  Ni2  1  0.64645400  0.64645400  0.95897000  1
  Ni  Ni3  1  0.24922600  0.24922600  0.41873400  1
  Ni  Ni4  1  0.75077400  0.75077400  0.58126600  1
  Ni  Ni5  1  0.06367900  0.06367900  0.12361400  1
  Ni  Ni6  1  0.93632100  0.93632100  0.87638600  1
  Ni  Ni7  1  0.00649400  0.00649400  0.33454300  1
  Ni  Ni8  1  0.99350600  0.99350600  0.66545700  1
  O  O0  1  0.00000000  0.00000000  0.00000000  1
  O  O1  1  0.13912600  0.13912600  0.22897600  1
  O  O2  1  0.86087400  0.86087400  0.77102400  1
  O  O3  1  0.70393100  0.70393100  0.07005700  1
  O  O4  1  0.29606900  0.29606900  0.92994300  1
  O  O5  1  0.41608600  0.41608600  0.14702600  1
  O  O6  1  0.58391400  0.58391400  0.85297400  1
  O  O7  1  0.37343600  0.37343600  0.31066300  1
  O  O8  1  0.62656400  0.62656400  0.68933700  1
  O  O9  1  0.61578500  0.61578500  0.38845300  1
  O  O10  1  0.38421500  0.38421500  0.61154700  1
  O  O11  1  0.87125600  0.87125600  0.46272000  1
  O  O12  1  0.12874400  0.12874400  0.53728000  1
loop_
_geom_bond_atom_site_label_1
_geom_bond_atom_site_label_2
_geom_bond_distance
_geom_bond_site_symmetry_2
Ni0 O10 1.997116 1_555
Ni0 O9 1.997116 1_555
Ni0 O12 2.076379 1_655
Ni0 O12 2.076379 1_565
Ni0 O11 2.076379 1_545
Ni0 O11 2.076379 1_455
Ni1 O5 1.932228 1_555
Ni1 O4 1.990303 1_554
Ni1 O3 2.064293 1_455
Ni1 O3 2.064293 1_545
Ni1 O0 2.077376 1_565
Ni1 O0 2.077376 1_655
Ni2 O6 1.932228 1_555
Ni2 O3 1.990303 1_556
Ni2 O4 2.064293 1_565
Ni2 O4 2.064293 1_655
Ni2 O0 2.077376 1_656
Ni2 O0 2.077376 1_566
Ni3 O7 1.987504 1_555
Ni3 O9 2.064809 1_545
Ni3 O9 2.064809 1_455
Ni3 O11 2.079911 1_455
Ni3 O11 2.079911 1_545
Ni3 O12 2.111926 1_555
Ni4 O8 1.987504 1_555
Ni4 O10 2.064809 1_565
Ni4 O10 2.064809 1_655
Ni4 O12 2.079911 1_565
Ni4 O12 2.079911 1_655
Ni4 O11 2.111926 1_555
Ni5 O1 1.983244 1_555
Ni5 O5 2.041794 1_455
Ni5 O5 2.041794 1_545
Ni5 O3 2.095290 1_545
Ni5 O3 2.095290 1_455
Ni5 O0 2.213586 1_555
Ni6 O2 1.983244 1_555
Ni6 O6 2.041794 1_655
Ni6 O6 2.041794 1_565
Ni6 O4 2.095290 1_655
Ni6 O4 2.095290 1_565
Ni6 O0 2.213586 1_666
Ni7 O1 1.995855 1_555
Ni7 O7 2.029063 1_455
Ni7 O7 2.029063 1_545
Ni7 O9 2.081590 1_545
Ni7 O9 2.081590 1_455
Ni7 O11 2.304000 1_445
Ni8 O2 1.995855 1_555
Ni8 O8 2.029063 1_655
Ni8 O8 2.029063 1_565
Ni8 O10 2.081590 1_565
Ni8 O10 2.081590 1_655
Ni8 O12 2.304000 1_665
O1 Zn0 2.028347 1_455
O1 Zn0 2.028347 1_545
O2 Zn1 2.028347 1_655
O2 Zn1 2.028347 1_565
O5 Zn0 2.249112 1_545
O5 Zn0 2.249112 1_455
O6 Zn1 2.249112 1_565
O6 Zn1 2.249112 1_655
O7 Zn0 2.244952 1_455
O7 Zn0 2.244952 1_545
O8 Zn1 2.244952 1_655
O8 Zn1 2.244952 1_565
