# generated using pymatgen
data_Na2Pt(ClO)6
_symmetry_space_group_name_H-M   'P 1'
_cell_length_a   6.68956700
_cell_length_b   7.58172570
_cell_length_c   7.97588480
_cell_angle_alpha   101.49111193
_cell_angle_beta   109.37231100
_cell_angle_gamma   108.56075075
_symmetry_Int_Tables_number   1
_chemical_formula_structural   Na2Pt(ClO)6
_chemical_formula_sum   'Na2 Pt1 Cl6 O6'
_cell_volume   340.11233149
_cell_formula_units_Z   1
loop_
 _symmetry_equiv_pos_site_id
 _symmetry_equiv_pos_as_xyz
  1  'x, y, z'
loop_
 _atom_site_type_symbol
 _atom_site_label
 _atom_site_symmetry_multiplicity
 _atom_site_fract_x
 _atom_site_fract_y
 _atom_site_fract_z
 _atom_site_occupancy
  Na  Na0  1  0.55704100  0.24229300  0.52068500  1
  Na  Na1  1  0.44295900  0.75770700  0.47931500  1
  Pt  Pt0  1  0.00000000  0.00000000  0.00000000  1
  Cl  Cl0  1  0.29413700  0.87307700  0.07220000  1
  Cl  Cl1  1  0.70586300  0.12692300  0.92780000  1
  Cl  Cl2  1  0.94609100  0.90440300  0.68409400  1
  Cl  Cl3  1  0.05390900  0.09559700  0.31590600  1
  Cl  Cl4  1  0.71135500  0.68788500  0.93299500  1
  Cl  Cl5  1  0.28864500  0.31211500  0.06700500  1
  O  O0  1  0.46097400  0.95331100  0.29226200  1
  O  O1  1  0.53902600  0.04668900  0.70773800  1
  O  O2  1  0.78120700  0.52733200  0.36689900  1
  O  O3  1  0.21879300  0.47266800  0.63310100  1
  O  O4  1  0.07680200  0.44981400  0.70262900  1
  O  O5  1  0.92319800  0.55018600  0.29737100  1
loop_
_geom_bond_atom_site_label_1
_geom_bond_atom_site_label_2
_geom_bond_distance
_geom_bond_site_symmetry_2
Na0 O0 2.295451 1_545
Na0 O1 2.307966 1_555
Na0 O2 2.938843 1_555
Na0 O4 2.988479 1_655
Na1 O1 2.295451 1_565
Na1 O0 2.307966 1_555
Na1 O3 2.938843 1_555
Na1 O5 2.988479 1_455
Cl0 O0 1.593474 1_555
Cl0 Pt0 2.409102 1_565
Cl1 O1 1.593474 1_555
Cl1 Pt0 2.409102 1_656
Cl2 Pt0 2.346718 1_666
Cl2 Na1 2.911873 1_555
Cl3 Pt0 2.346718 1_555
Cl3 Na0 2.911873 1_555
Cl4 Pt0 2.348700 1_666
Cl5 Pt0 2.348700 1_555
O2 O5 1.233989 1_555
O3 O4 1.233989 1_555
