# generated using pymatgen
data_NaLiMg30O31
_symmetry_space_group_name_H-M   'P 1'
_cell_length_a   8.55543900
_cell_length_b   8.55543900
_cell_length_c   8.52506900
_cell_angle_alpha   90.00000000
_cell_angle_beta   90.00000000
_cell_angle_gamma   90.00000000
_symmetry_Int_Tables_number   1
_chemical_formula_structural   NaLiMg30O31
_chemical_formula_sum   'Na1 Li1 Mg30 O31'
_cell_volume   623.99699901
_cell_formula_units_Z   1
loop_
 _symmetry_equiv_pos_site_id
 _symmetry_equiv_pos_as_xyz
  1  'x, y, z'
loop_
 _atom_site_type_symbol
 _atom_site_label
 _atom_site_symmetry_multiplicity
 _atom_site_fract_x
 _atom_site_fract_y
 _atom_site_fract_z
 _atom_site_occupancy
  Na  Na0  1  0.50000000  0.50000000  0.99890900  1
  Li  Li0  1  0.00000000  0.00000000  0.97732700  1
  Mg  Mg0  1  0.50000000  0.00000000  0.99640500  1
  Mg  Mg1  1  0.00000000  0.50000000  0.99640500  1
  Mg  Mg2  1  0.00000000  0.00000000  0.52084800  1
  Mg  Mg3  1  0.50000000  0.00000000  0.50278100  1
  Mg  Mg4  1  0.00000000  0.50000000  0.50278100  1
  Mg  Mg5  1  0.50000000  0.50000000  0.50078000  1
  Mg  Mg6  1  0.24816100  0.24816100  0.00030200  1
  Mg  Mg7  1  0.75183900  0.24816100  0.00030200  1
  Mg  Mg8  1  0.24816100  0.75183900  0.00030200  1
  Mg  Mg9  1  0.75183900  0.75183900  0.00030200  1
  Mg  Mg10  1  0.24976800  0.24976800  0.49998700  1
  Mg  Mg11  1  0.75023200  0.24976800  0.49998700  1
  Mg  Mg12  1  0.24976800  0.75023200  0.49998700  1
  Mg  Mg13  1  0.75023200  0.75023200  0.49998700  1
  Mg  Mg14  1  0.27034200  0.00000000  0.24583200  1
  Mg  Mg15  1  0.72965800  0.00000000  0.24583200  1
  Mg  Mg16  1  0.25379600  0.50000000  0.24734300  1
  Mg  Mg17  1  0.74620400  0.50000000  0.24734300  1
  Mg  Mg18  1  0.24859900  0.00000000  0.75693800  1
  Mg  Mg19  1  0.75140100  0.00000000  0.75693800  1
  Mg  Mg20  1  0.25218200  0.50000000  0.75263600  1
  Mg  Mg21  1  0.74781800  0.50000000  0.75263600  1
  Mg  Mg22  1  0.00000000  0.27034200  0.24583200  1
  Mg  Mg23  1  0.50000000  0.25379600  0.24734300  1
  Mg  Mg24  1  0.00000000  0.72965800  0.24583200  1
  Mg  Mg25  1  0.50000000  0.74620400  0.24734300  1
  Mg  Mg26  1  0.00000000  0.24859900  0.75693800  1
  Mg  Mg27  1  0.50000000  0.25218200  0.75263600  1
  Mg  Mg28  1  0.00000000  0.75140100  0.75693800  1
  Mg  Mg29  1  0.50000000  0.74781800  0.75263600  1
  O  O0  1  0.50000000  0.00000000  0.25475600  1
  O  O1  1  0.00000000  0.50000000  0.25475600  1
  O  O2  1  0.50000000  0.50000000  0.26303300  1
  O  O3  1  0.00000000  0.00000000  0.74994100  1
  O  O4  1  0.50000000  0.00000000  0.74622900  1
  O  O5  1  0.00000000  0.50000000  0.74622900  1
  O  O6  1  0.50000000  0.50000000  0.73647300  1
  O  O7  1  0.24454400  0.24454400  0.25050500  1
  O  O8  1  0.75545600  0.24454400  0.25050500  1
  O  O9  1  0.24454400  0.75545600  0.25050500  1
  O  O10  1  0.75545600  0.75545600  0.25050500  1
  O  O11  1  0.24847100  0.24847100  0.74929500  1
  O  O12  1  0.75152900  0.24847100  0.74929500  1
  O  O13  1  0.24847100  0.75152900  0.74929500  1
  O  O14  1  0.75152900  0.75152900  0.74929500  1
  O  O15  1  0.24968300  0.00000000  0.00539100  1
  O  O16  1  0.75031700  0.00000000  0.00539100  1
  O  O17  1  0.23673900  0.50000000  0.00166100  1
  O  O18  1  0.76326100  0.50000000  0.00166100  1
  O  O19  1  0.24271000  0.00000000  0.49240600  1
  O  O20  1  0.75729000  0.00000000  0.49240600  1
  O  O21  1  0.24643200  0.50000000  0.49829100  1
  O  O22  1  0.75356800  0.50000000  0.49829100  1
  O  O23  1  0.00000000  0.24968300  0.00539100  1
  O  O24  1  0.50000000  0.23673900  0.00166100  1
  O  O25  1  0.00000000  0.75031700  0.00539100  1
  O  O26  1  0.50000000  0.76326100  0.00166100  1
  O  O27  1  0.00000000  0.24271000  0.49240600  1
  O  O28  1  0.50000000  0.24643200  0.49829100  1
  O  O29  1  0.00000000  0.75729000  0.49240600  1
  O  O30  1  0.50000000  0.75356800  0.49829100  1
loop_
_geom_bond_atom_site_label_1
_geom_bond_atom_site_label_2
_geom_bond_distance
_geom_bond_site_symmetry_2
Na0 O6 2.237285 1_555
Na0 O2 2.251675 1_556
Na0 O26 2.252436 1_556
Na0 O17 2.252436 1_556
Na0 O18 2.252436 1_556
Na0 O24 2.252436 1_556
Li0 O3 1.938481 1_555
Li0 O25 2.149504 1_546
Li0 O23 2.149504 1_556
Li0 O16 2.149504 1_456
Li0 O15 2.149504 1_556
Mg0 O26 2.025902 1_546
Mg0 O24 2.025902 1_556
Mg0 O4 2.132768 1_555
Mg0 O15 2.142942 1_556
Mg0 O16 2.142942 1_556
Mg0 O0 2.202460 1_556
Mg1 O18 2.025902 1_456
Mg1 O17 2.025902 1_556
Mg1 O5 2.132768 1_555
Mg1 O23 2.142942 1_556
Mg1 O25 2.142942 1_556
Mg1 O1 2.202460 1_556
Mg2 O3 1.953034 1_555
Mg2 O29 2.090599 1_545
Mg2 O20 2.090599 1_455
Mg2 O19 2.090599 1_555
Mg2 O27 2.090599 1_555
Mg3 O4 2.075411 1_555
Mg3 O30 2.108681 1_545
Mg3 O28 2.108681 1_555
Mg3 O0 2.114430 1_555
Mg3 O19 2.203005 1_555
Mg3 O20 2.203005 1_555
Mg4 O5 2.075411 1_555
Mg4 O22 2.108681 1_455
Mg4 O21 2.108681 1_555
Mg4 O1 2.114430 1_555
Mg4 O27 2.203005 1_555
Mg4 O29 2.203005 1_555
Mg5 O6 2.009299 1_555
Mg5 O2 2.026810 1_555
Mg5 O30 2.169489 1_555
Mg5 O21 2.169489 1_555
Mg5 O28 2.169489 1_555
Mg5 O22 2.169489 1_555
Mg6 O15 2.123609 1_555
Mg6 O23 2.123609 1_555
Mg6 O7 2.133447 1_555
Mg6 O11 2.139855 1_554
Mg6 O17 2.156839 1_555
Mg6 O24 2.156839 1_555
Mg7 O23 2.123609 1_655
Mg7 O16 2.123609 1_555
Mg7 O8 2.133447 1_555
Mg7 O12 2.139855 1_554
Mg7 O18 2.156839 1_555
Mg7 O24 2.156839 1_555
Mg8 O25 2.123609 1_555
Mg8 O15 2.123609 1_565
Mg8 O9 2.133447 1_555
Mg8 O13 2.139855 1_554
Mg8 O26 2.156839 1_555
Mg8 O17 2.156839 1_555
Mg9 O25 2.123609 1_655
Mg9 O16 2.123609 1_565
Mg9 O10 2.133447 1_555
Mg9 O14 2.139855 1_554
Mg9 O18 2.156839 1_555
Mg9 O26 2.156839 1_555
Mg10 O11 2.125426 1_555
Mg10 O7 2.127790 1_555
Mg10 O27 2.138705 1_555
Mg10 O19 2.138705 1_555
Mg10 O28 2.141084 1_555
Mg10 O21 2.141084 1_555
Mg11 O12 2.125426 1_555
Mg11 O8 2.127790 1_555
Mg11 O27 2.138705 1_655
Mg11 O20 2.138705 1_555
Mg11 O28 2.141084 1_555
Mg11 O22 2.141084 1_555
Mg12 O13 2.125426 1_555
Mg12 O9 2.127790 1_555
Mg12 O29 2.138705 1_555
Mg12 O19 2.138705 1_565
Mg12 O30 2.141084 1_555
Mg12 O21 2.141084 1_555
Mg13 O14 2.125426 1_555
Mg13 O10 2.127790 1_555
Mg13 O29 2.138705 1_655
Mg13 O20 2.138705 1_565
Mg13 O22 2.141084 1_555
Mg13 O30 2.141084 1_555
Mg14 O0 1.966297 1_555
Mg14 O15 2.057382 1_555
Mg14 O9 2.104168 1_545
Mg14 O7 2.104168 1_555
Mg14 O19 2.115312 1_555
Mg15 O0 1.966297 1_555
Mg15 O16 2.057382 1_555
Mg15 O10 2.104168 1_545
Mg15 O8 2.104168 1_555
Mg15 O20 2.115312 1_555
Mg16 O17 2.099534 1_555
Mg16 O2 2.110626 1_555
Mg16 O21 2.140276 1_555
Mg16 O1 2.172256 1_555
Mg16 O9 2.187137 1_555
Mg16 O7 2.187137 1_555
Mg17 O18 2.099534 1_555
Mg17 O2 2.110626 1_555
Mg17 O22 2.140276 1_555
Mg17 O1 2.172256 1_655
Mg17 O8 2.187137 1_555
Mg17 O10 2.187137 1_555
Mg18 O15 2.118099 1_556
Mg18 O13 2.126777 1_545
Mg18 O11 2.126777 1_555
Mg18 O3 2.127710 1_555
Mg18 O4 2.152783 1_555
Mg18 O19 2.255716 1_555
Mg19 O16 2.118099 1_556
Mg19 O14 2.126777 1_545
Mg19 O12 2.126777 1_555
Mg19 O3 2.127710 1_655
Mg19 O4 2.152783 1_555
Mg19 O20 2.255716 1_555
Mg20 O6 2.124665 1_555
Mg20 O17 2.127063 1_556
Mg20 O11 2.152364 1_555
Mg20 O13 2.152364 1_555
Mg20 O5 2.158219 1_555
Mg20 O21 2.168867 1_555
Mg21 O6 2.124665 1_555
Mg21 O18 2.127063 1_556
Mg21 O14 2.152364 1_555
Mg21 O12 2.152364 1_555
Mg21 O5 2.158219 1_655
Mg21 O22 2.168867 1_555
Mg22 O1 1.966297 1_555
Mg22 O23 2.057382 1_555
Mg22 O8 2.104168 1_455
Mg22 O7 2.104168 1_555
Mg22 O27 2.115312 1_555
Mg23 O24 2.099534 1_555
Mg23 O2 2.110626 1_555
Mg23 O28 2.140276 1_555
Mg23 O0 2.172256 1_555
Mg23 O7 2.187137 1_555
Mg23 O8 2.187137 1_555
Mg24 O1 1.966297 1_555
Mg24 O25 2.057382 1_555
Mg24 O10 2.104168 1_455
Mg24 O9 2.104168 1_555
Mg24 O29 2.115312 1_555
Mg25 O26 2.099534 1_555
Mg25 O2 2.110626 1_555
Mg25 O30 2.140276 1_555
Mg25 O0 2.172256 1_565
Mg25 O9 2.187137 1_555
Mg25 O10 2.187137 1_555
Mg26 O23 2.118099 1_556
Mg26 O11 2.126777 1_555
Mg26 O12 2.126777 1_455
Mg26 O3 2.127710 1_555
Mg26 O5 2.152783 1_555
Mg26 O27 2.255716 1_555
Mg27 O6 2.124665 1_555
Mg27 O24 2.127063 1_556
Mg27 O11 2.152364 1_555
Mg27 O12 2.152364 1_555
Mg27 O4 2.158219 1_555
Mg27 O28 2.168867 1_555
Mg28 O25 2.118099 1_556
Mg28 O14 2.126777 1_455
Mg28 O13 2.126777 1_555
Mg28 O3 2.127710 1_565
Mg28 O5 2.152783 1_555
Mg28 O29 2.255716 1_555
Mg29 O6 2.124665 1_555
Mg29 O26 2.127063 1_556
Mg29 O14 2.152364 1_555
Mg29 O13 2.152364 1_555
Mg29 O4 2.158219 1_565
Mg29 O30 2.168867 1_555
