# generated using pymatgen
data_Ca13Nb3(Si2O9)4
_symmetry_space_group_name_H-M   'P 1'
_cell_length_a   7.38245300
_cell_length_b   10.53635992
_cell_length_c   10.99268440
_cell_angle_alpha   89.95388314
_cell_angle_beta   109.37917694
_cell_angle_gamma   90.17987005
_symmetry_Int_Tables_number   1
_chemical_formula_structural   Ca13Nb3(Si2O9)4
_chemical_formula_sum   'Ca13 Nb3 Si8 O36'
_cell_volume   806.60826854
_cell_formula_units_Z   1
loop_
 _symmetry_equiv_pos_site_id
 _symmetry_equiv_pos_as_xyz
  1  'x, y, z'
loop_
 _atom_site_type_symbol
 _atom_site_label
 _atom_site_symmetry_multiplicity
 _atom_site_fract_x
 _atom_site_fract_y
 _atom_site_fract_z
 _atom_site_occupancy
  Ca  Ca0  1  0.03244000  0.90781300  0.06744000  1
  Ca  Ca1  1  0.96220700  0.41982500  0.92488500  1
  Ca  Ca2  1  0.96389200  0.10196000  0.43333900  1
  Ca  Ca3  1  0.03374800  0.59764700  0.57227800  1
  Ca  Ca4  1  0.46167000  0.10312200  0.43406900  1
  Ca  Ca5  1  0.52769700  0.58798500  0.55699400  1
  Ca  Ca6  1  0.34531100  0.62803200  0.18824500  1
  Ca  Ca7  1  0.67720700  0.12550500  0.83023100  1
  Ca  Ca8  1  0.53212600  0.90602200  0.06142500  1
  Ca  Ca9  1  0.47587300  0.40661600  0.94021500  1
  Ca  Ca10  1  0.16739000  0.38609800  0.33291800  1
  Ca  Ca11  1  0.64971300  0.38029000  0.31268500  1
  Ca  Ca12  1  0.32592400  0.88871500  0.67080400  1
  Nb  Nb0  1  0.84308400  0.89170000  0.68593500  1
  Nb  Nb1  1  0.85031400  0.61571100  0.19207700  1
  Nb  Nb2  1  0.15910400  0.11997000  0.81990600  1
  Si  Si0  1  0.22781500  0.81390900  0.38913900  1
  Si  Si1  1  0.77694600  0.31498100  0.62171200  1
  Si  Si2  1  0.65718800  0.83431800  0.37192300  1
  Si  Si3  1  0.34365000  0.31450800  0.62960100  1
  Si  Si4  1  0.77247700  0.19648000  0.11288700  1
  Si  Si5  1  0.22810100  0.69581400  0.88208900  1
  Si  Si6  1  0.33839100  0.18077200  0.12204500  1
  Si  Si7  1  0.65658900  0.68639600  0.87512300  1
  O  O0  1  0.20731900  0.96079300  0.42645200  1
  O  O1  1  0.81279900  0.46558000  0.61304800  1
  O  O2  1  0.61062500  0.52659500  0.12896400  1
  O  O3  1  0.38964500  0.02323800  0.85386200  1
  O  O4  1  0.24757700  0.77344500  0.01402400  1
  O  O5  1  0.76945500  0.28111700  0.98661200  1
  O  O6  1  0.90779500  0.24199000  0.25466600  1
  O  O7  1  0.07168200  0.75342300  0.74909000  1
  O  O8  1  0.25462200  0.72799600  0.51795500  1
  O  O9  1  0.74763800  0.23960000  0.48758300  1
  O  O10  1  0.02596400  0.52307400  0.13284100  1
  O  O11  1  0.95126400  0.99374400  0.85181300  1
  O  O12  1  0.06995700  0.76434800  0.25391000  1
  O  O13  1  0.93095000  0.24832800  0.75010600  1
  O  O14  1  0.33891200  0.24296100  0.25662200  1
  O  O15  1  0.69463800  0.75916400  0.75331000  1
  O  O16  1  0.43056700  0.79560200  0.35479600  1
  O  O17  1  0.57943900  0.28974400  0.66184700  1
  O  O18  1  0.67916000  0.76230800  0.24560800  1
  O  O19  1  0.32350600  0.26433200  0.76627900  1
  O  O20  1  0.78768800  0.77769400  0.51560200  1
  O  O21  1  0.23818800  0.22735000  0.50441600  1
  O  O22  1  0.43792800  0.50449000  0.36025600  1
  O  O23  1  0.61334200  0.98913200  0.64039600  1
  O  O24  1  0.92213400  0.53516200  0.35459600  1
  O  O25  1  0.03960000  0.00658300  0.65117700  1
  O  O26  1  0.77717800  0.74868400  0.01596600  1
  O  O27  1  0.19674700  0.24323900  0.98455600  1
  O  O28  1  0.55150700  0.23048100  0.11633500  1
  O  O29  1  0.42955800  0.73234300  0.84931100  1
  O  O30  1  0.78495300  0.04721700  0.07435000  1
  O  O31  1  0.21027100  0.54436000  0.90048500  1
  O  O32  1  0.68189400  0.98550200  0.36673500  1
  O  O33  1  0.29188000  0.46258200  0.59885000  1
  O  O34  1  0.31212000  0.02831100  0.11646700  1
  O  O35  1  0.67264200  0.53529300  0.86314900  1
loop_
_geom_bond_atom_site_label_1
_geom_bond_atom_site_label_2
_geom_bond_distance
_geom_bond_site_symmetry_2
Ca0 O34 2.326290 1_565
Ca0 O4 2.346485 1_555
Ca0 O30 2.368640 1_465
Ca0 O11 2.419621 1_454
Ca0 O26 2.440602 1_455
Ca0 O12 2.486809 1_555
Ca1 O5 2.290709 1_555
Ca1 O31 2.336178 1_655
Ca1 O35 2.358538 1_555
Ca1 O10 2.432592 1_656
Ca1 O27 2.480838 1_655
Ca1 O13 2.591995 1_555
Ca2 O32 2.312922 1_545
Ca2 O21 2.321924 1_655
Ca2 O0 2.356868 1_645
Ca2 O9 2.378058 1_555
Ca2 O6 2.380205 1_555
Ca2 O25 2.483533 1_655
Ca3 O1 2.295140 1_455
Ca3 O33 2.321414 1_555
Ca3 O24 2.351390 1_455
Ca3 O8 2.352122 1_555
Ca3 O7 2.488190 1_555
Ca3 O20 2.560343 1_455
Ca4 O32 2.353644 1_545
Ca4 O14 2.372280 1_555
Ca4 O0 2.379069 1_545
Ca4 O21 2.427985 1_555
Ca4 O9 2.455383 1_555
Ca4 O23 2.481765 1_545
Ca5 O22 2.222286 1_555
Ca5 O33 2.346152 1_555
Ca5 O1 2.372358 1_555
Ca5 O8 2.422400 1_555
Ca5 O15 2.767000 1_555
Ca5 O20 2.905239 1_555
Ca6 O22 2.209271 1_555
Ca6 O4 2.370866 1_555
Ca6 O16 2.469593 1_555
Ca6 O10 2.486731 1_555
Ca6 O2 2.502926 1_555
Ca6 O18 2.724292 1_555
Ca6 O12 2.776677 1_555
Ca7 O5 2.308192 1_555
Ca7 O11 2.403240 1_545
Ca7 O23 2.447295 1_545
Ca7 O17 2.461252 1_555
Ca7 O3 2.467074 1_555
Ca7 O13 2.652820 1_555
Ca7 O30 2.664283 1_556
Ca7 O19 2.873355 1_555
Ca8 O34 2.308857 1_565
Ca8 O30 2.350332 1_565
Ca8 O4 2.427331 1_555
Ca8 O18 2.473315 1_555
Ca8 O3 2.499728 1_564
Ca8 O26 2.625036 1_555
Ca8 O29 2.861007 1_554
Ca9 O35 2.338476 1_555
Ca9 O2 2.349309 1_556
Ca9 O31 2.364387 1_555
Ca9 O19 2.394848 1_555
Ca9 O5 2.447317 1_555
Ca9 O28 2.605261 1_556
Ca9 O27 2.844284 1_555
Ca10 O22 2.285160 1_555
Ca10 O14 2.302198 1_555
Ca10 O6 2.368118 1_455
Ca10 O21 2.443651 1_555
Ca10 O24 2.471149 1_455
Ca10 O10 2.547688 1_555
Ca10 O33 2.873319 1_555
Ca11 O22 2.233155 1_555
Ca11 O9 2.344388 1_555
Ca11 O2 2.479782 1_555
Ca11 O24 2.507062 1_555
Ca11 O28 2.575977 1_555
Ca11 O14 2.603891 1_555
Ca11 O6 2.643024 1_555
Ca12 O8 2.319448 1_555
Ca12 O3 2.377353 1_565
Ca12 O25 2.402145 1_565
Ca12 O29 2.481292 1_555
Ca12 O23 2.487857 1_555
Ca12 O0 2.645474 1_555
Ca12 O7 2.710833 1_555
Ca12 O15 2.911722 1_555
Nb0 O23 1.904660 1_555
Nb0 O25 2.017920 1_665
Nb0 O11 2.037178 1_555
Nb0 O15 2.055957 1_555
Nb0 O20 2.146731 1_555
Nb0 O7 2.165401 1_655
Nb1 O24 1.888074 1_555
Nb1 O10 1.904609 1_655
Nb1 O2 1.915722 1_555
Nb1 O12 2.190495 1_655
Nb1 O18 2.199030 1_555
Nb1 O26 2.304129 1_555
Nb2 O3 1.914013 1_555
Nb2 O13 2.099939 1_455
Nb2 O25 2.134676 1_555
Nb2 O11 2.142358 1_445
Nb2 O19 2.143813 1_555
Nb2 O27 2.169735 1_555
O0 Si0 1.621712 1_555
O1 Si1 1.615797 1_555
O4 Si5 1.629701 1_554
O5 Si4 1.643213 1_556
O6 Si4 1.619217 1_555
O7 Si5 1.649837 1_555
O8 Si0 1.636096 1_555
O9 Si1 1.625022 1_555
O12 Si0 1.639612 1_555
O13 Si1 1.648134 1_555
O14 Si6 1.617295 1_555
O15 Si7 1.645119 1_555
O16 Si2 1.669625 1_555
O16 Si0 1.672452 1_555
O17 Si1 1.677993 1_555
O17 Si3 1.678390 1_555
O18 Si2 1.637669 1_555
O19 Si3 1.644839 1_555
O20 Si2 1.664617 1_555
O21 Si3 1.621642 1_555
O26 Si7 1.644254 1_554
O27 Si6 1.662766 1_556
O28 Si6 1.677468 1_555
O28 Si4 1.683937 1_555
O29 Si7 1.677282 1_555
O29 Si5 1.685729 1_555
O30 Si4 1.639868 1_555
O31 Si5 1.618808 1_555
O32 Si2 1.605887 1_555
O33 Si3 1.616043 1_555
O34 Si6 1.616216 1_555
O35 Si7 1.605599 1_555
