# generated using pymatgen
data_Li3MnCoO5
_symmetry_space_group_name_H-M   'P 1'
_cell_length_a   4.97615482
_cell_length_b   7.79880714
_cell_length_c   5.14688234
_cell_angle_alpha   108.92116070
_cell_angle_beta   80.35280775
_cell_angle_gamma   77.79764616
_symmetry_Int_Tables_number   1
_chemical_formula_structural   Li3MnCoO5
_chemical_formula_sum   'Li6 Mn2 Co2 O10'
_cell_volume   178.55523519
_cell_formula_units_Z   2
loop_
 _symmetry_equiv_pos_site_id
 _symmetry_equiv_pos_as_xyz
  1  'x, y, z'
loop_
 _atom_site_type_symbol
 _atom_site_label
 _atom_site_symmetry_multiplicity
 _atom_site_fract_x
 _atom_site_fract_y
 _atom_site_fract_z
 _atom_site_occupancy
  Li  Li0  1  0.30000000  0.90000000  0.40000000  1
  Li  Li1  1  0.69675700  0.11174000  0.60080700  1
  Li  Li2  1  0.09112300  0.30914900  0.81402300  1
  Li  Li3  1  0.50887700  0.49085100  0.98597700  1
  Li  Li4  1  0.90324300  0.68826000  0.19919300  1
  Li  Li5  1  0.80000000  0.40000000  0.40000000  1
  Mn  Mn0  1  0.99872300  0.00232800  0.00138900  1
  Mn  Mn1  1  0.60127700  0.79767200  0.79861100  1
  Co  Co0  1  0.39313900  0.21307900  0.21185200  1
  Co  Co1  1  0.20686100  0.58692100  0.58814800  1
  O  O0  1  0.25668700  0.76516400  0.98759000  1
  O  O1  1  0.66717000  0.94643200  0.16759200  1
  O  O2  1  0.06443800  0.13634300  0.35760600  1
  O  O3  1  0.42909500  0.34888100  0.59211000  1
  O  O4  1  0.84557700  0.57186700  0.79948600  1
  O  O5  1  0.34331300  0.03483600  0.81241000  1
  O  O6  1  0.75442300  0.22813300  0.00051400  1
  O  O7  1  0.17090500  0.45111900  0.20789000  1
  O  O8  1  0.53556200  0.66365700  0.44239400  1
  O  O9  1  0.93283000  0.85356800  0.63240800  1
loop_
_geom_bond_atom_site_label_1
_geom_bond_atom_site_label_2
_geom_bond_distance
_geom_bond_site_symmetry_2
Li0 O8 2.062091 1_555
Li0 O2 2.062091 1_565
Li0 O5 2.111716 1_565
Li0 O0 2.111716 1_554
Li0 O9 2.174473 1_455
Li0 O1 2.174473 1_555
Li1 O3 2.056391 1_555
Li1 O6 2.058022 1_556
Li1 O2 2.118439 1_655
Li1 O9 2.176449 1_545
Li1 O5 2.206066 1_555
Li1 O1 2.231892 1_545
Li2 O3 2.008734 1_555
Li2 O6 2.104644 1_456
Li2 O7 2.119650 1_556
Li2 O4 2.183638 1_455
Li2 O5 2.236445 1_555
Li2 O2 2.340788 1_555
Li3 O7 2.008734 1_556
Li3 O4 2.104644 1_555
Li3 O3 2.119650 1_555
Li3 O6 2.183638 1_556
Li3 O0 2.236445 1_555
Li3 O8 2.340788 1_556
Li4 O7 2.056391 1_655
Li4 O4 2.058022 1_554
Li4 O8 2.118439 1_555
Li4 O1 2.176449 1_555
Li4 O0 2.206066 1_654
Li4 O9 2.231892 1_555
Li5 O2 2.115695 1_655
Li5 O8 2.115695 1_555
Li5 O3 2.120890 1_555
Li5 O7 2.120890 1_655
Li5 O4 2.138473 1_555
Li5 O6 2.138473 1_555
Mn0 O2 1.913993 1_655
Mn0 O6 1.918602 1_555
Mn0 O1 1.927865 1_545
Mn0 O5 1.932701 1_654
Mn0 O0 1.988576 1_644
Mn0 O9 2.000172 1_544
Mn1 O8 1.913993 1_555
Mn1 O4 1.918602 1_555
Mn1 O9 1.927865 1_555
Mn1 O0 1.932701 1_555
Mn1 O5 1.988576 1_565
Mn1 O1 2.000172 1_556
Co0 O7 1.958047 1_555
Co0 O3 1.958901 1_555
Co0 O2 1.972311 1_555
Co0 O6 1.986372 1_555
Co0 O1 2.150751 1_545
Co0 O5 2.164160 1_554
Co1 O3 1.958047 1_555
Co1 O7 1.958901 1_555
Co1 O8 1.972311 1_555
Co1 O4 1.986372 1_455
Co1 O9 2.150751 1_455
Co1 O0 2.164160 1_555
