# generated using pymatgen
data_NaCaTiFe3O8
_symmetry_space_group_name_H-M   'P 1'
_cell_length_a   3.01166600
_cell_length_b   9.29997700
_cell_length_c   10.90831000
_cell_angle_alpha   90.00000000
_cell_angle_beta   90.00000000
_cell_angle_gamma   90.00000000
_symmetry_Int_Tables_number   1
_chemical_formula_structural   NaCaTiFe3O8
_chemical_formula_sum   'Na2 Ca2 Ti2 Fe6 O16'
_cell_volume   305.52457740
_cell_formula_units_Z   2
loop_
 _symmetry_equiv_pos_site_id
 _symmetry_equiv_pos_as_xyz
  1  'x, y, z'
loop_
 _atom_site_type_symbol
 _atom_site_label
 _atom_site_symmetry_multiplicity
 _atom_site_fract_x
 _atom_site_fract_y
 _atom_site_fract_z
 _atom_site_occupancy
  Na  Na0  1  0.75000000  0.25759500  0.84576100  1
  Na  Na1  1  0.25000000  0.24240500  0.34576100  1
  Ca  Ca0  1  0.75000000  0.75819600  0.65761300  1
  Ca  Ca1  1  0.25000000  0.74180400  0.15761300  1
  Ti  Ti0  1  0.75000000  0.41147400  0.10285200  1
  Ti  Ti1  1  0.25000000  0.08852600  0.60285200  1
  Fe  Fe0  1  0.75000000  0.43367800  0.61169000  1
  Fe  Fe1  1  0.75000000  0.94014400  0.89152500  1
  Fe  Fe2  1  0.25000000  0.55985600  0.39152500  1
  Fe  Fe3  1  0.25000000  0.06632200  0.11169000  1
  Fe  Fe4  1  0.75000000  0.91798000  0.39358500  1
  Fe  Fe5  1  0.25000000  0.58202000  0.89358500  1
  O  O0  1  0.75000000  0.11629000  0.48704400  1
  O  O1  1  0.75000000  0.61410300  0.02521600  1
  O  O2  1  0.25000000  0.88589700  0.52521600  1
  O  O3  1  0.25000000  0.38371000  0.98704400  1
  O  O4  1  0.75000000  0.02592000  0.71043200  1
  O  O5  1  0.75000000  0.52359900  0.78527300  1
  O  O6  1  0.25000000  0.97640100  0.28527300  1
  O  O7  1  0.25000000  0.47408000  0.21043200  1
  O  O8  1  0.75000000  0.42289200  0.42786200  1
  O  O9  1  0.75000000  0.91498900  0.07628900  1
  O  O10  1  0.25000000  0.58501100  0.57628900  1
  O  O11  1  0.25000000  0.07710800  0.92786200  1
  O  O12  1  0.75000000  0.21143100  0.14976200  1
  O  O13  1  0.75000000  0.70458900  0.33509600  1
  O  O14  1  0.25000000  0.79541100  0.83509600  1
  O  O15  1  0.25000000  0.28856900  0.64976200  1
loop_
_geom_bond_atom_site_label_1
_geom_bond_atom_site_label_2
_geom_bond_distance
_geom_bond_site_symmetry_2
Na0 O11 2.426324 1_555
Na0 O11 2.426324 1_655
Na0 O3 2.453226 1_555
Na0 O3 2.453226 1_655
Na0 O5 2.560313 1_555
Na0 O4 2.611777 1_555
Na0 O15 2.630899 1_555
Na0 O15 2.630899 1_655
Na1 O8 2.426324 1_555
Na1 O8 2.426324 1_455
Na1 O0 2.453226 1_455
Na1 O0 2.453226 1_555
Na1 O6 2.560313 1_545
Na1 O7 2.611777 1_555
Na1 O12 2.630899 1_555
Na1 O12 2.630899 1_455
Ca0 O10 2.376674 1_555
Ca0 O10 2.376674 1_655
Ca0 O2 2.400783 1_555
Ca0 O2 2.400783 1_655
Ca0 O14 2.477008 1_555
Ca0 O14 2.477008 1_655
Ca0 O4 2.555622 1_565
Ca0 O5 2.588287 1_555
Ca1 O9 2.376674 1_455
Ca1 O9 2.376674 1_555
Ca1 O1 2.400783 1_455
Ca1 O1 2.400783 1_555
Ca1 O13 2.477008 1_455
Ca1 O13 2.477008 1_555
Ca1 O7 2.555622 1_555
Ca1 O6 2.588287 1_555
Fe0 O8 2.007760 1_555
Fe0 O15 2.064264 1_655
Fe0 O15 2.064264 1_555
Fe0 O5 2.069944 1_555
Fe0 O10 2.097001 1_655
Fe0 O10 2.097001 1_555
Fe1 O11 2.011745 1_565
Fe1 O11 2.011745 1_665
Fe1 O9 2.028995 1_556
Fe1 O14 2.111441 1_655
Fe1 O14 2.111441 1_555
Fe1 O4 2.130405 1_565
Fe2 O8 2.011745 1_555
Fe2 O8 2.011745 1_455
Fe2 O10 2.028995 1_555
Fe2 O13 2.111441 1_555
Fe2 O13 2.111441 1_455
Fe2 O7 2.130405 1_555
Fe3 O11 2.007760 1_554
Fe3 O12 2.064264 1_555
Fe3 O12 2.064264 1_455
Fe3 O6 2.069944 1_545
Fe3 O9 2.097001 1_545
Fe3 O9 2.097001 1_445
Fe4 O6 1.989640 1_555
Fe4 O6 1.989640 1_655
Fe4 O13 2.084569 1_555
Fe4 O2 2.101972 1_655
Fe4 O2 2.101972 1_555
Fe4 O0 2.107297 1_565
Fe5 O5 1.989640 1_555
Fe5 O5 1.989640 1_455
Fe5 O14 2.084569 1_555
Fe5 O1 2.101972 1_556
Fe5 O1 2.101972 1_456
Fe5 O3 2.107297 1_555
O0 Ti1 1.982436 1_655
O0 Ti1 1.982436 1_555
O1 Ti0 2.065995 1_555
O2 Ti1 2.065995 1_565
O3 Ti0 1.982436 1_456
O3 Ti0 1.982436 1_556
O4 Ti1 1.995913 1_555
O4 Ti1 1.995913 1_655
O7 Ti0 1.995913 1_455
O7 Ti0 1.995913 1_555
O12 Ti0 1.929486 1_555
O15 Ti1 1.929486 1_555
