# generated using pymatgen
data_Dy3Os
_symmetry_space_group_name_H-M   'P 1'
_cell_length_a   6.33116012
_cell_length_b   7.36204162
_cell_length_c   9.02258357
_cell_angle_alpha   90.00000000
_cell_angle_beta   90.00000000
_cell_angle_gamma   90.00000000
_symmetry_Int_Tables_number   1
_chemical_formula_structural   Dy3Os
_chemical_formula_sum   'Dy12 Os4'
_cell_volume   420.54500492
_cell_formula_units_Z   4
loop_
 _symmetry_equiv_pos_site_id
 _symmetry_equiv_pos_as_xyz
  1  'x, y, z'
loop_
 _atom_site_type_symbol
 _atom_site_label
 _atom_site_symmetry_multiplicity
 _atom_site_fract_x
 _atom_site_fract_y
 _atom_site_fract_z
 _atom_site_occupancy
  Dy  Dy0  1  0.33043541  0.67325903  0.06350932  1
  Dy  Dy1  1  0.16956459  0.17325903  0.43649068  1
  Dy  Dy2  1  0.66956459  0.32674097  0.56350932  1
  Dy  Dy3  1  0.83043541  0.82674097  0.93649068  1
  Dy  Dy4  1  0.66956459  0.32674097  0.93649068  1
  Dy  Dy5  1  0.83043541  0.82674097  0.56350932  1
  Dy  Dy6  1  0.33043541  0.67325903  0.43649068  1
  Dy  Dy7  1  0.16956459  0.17325903  0.06350932  1
  Dy  Dy8  1  0.87194754  0.54174938  0.25000000  1
  Dy  Dy9  1  0.62805246  0.04174938  0.25000000  1
  Dy  Dy10  1  0.12805246  0.45825062  0.75000000  1
  Dy  Dy11  1  0.37194754  0.95825062  0.75000000  1
  Os  Os0  1  0.03545286  0.88416113  0.25000000  1
  Os  Os1  1  0.46454714  0.38416113  0.25000000  1
  Os  Os2  1  0.96454714  0.11583887  0.75000000  1
  Os  Os3  1  0.53545286  0.61583887  0.75000000  1
loop_
_geom_bond_atom_site_label_1
_geom_bond_atom_site_label_2
_geom_bond_distance
_geom_bond_site_symmetry_2
Dy0 Os1 2.842895 1_555
Dy0 Os0 2.954637 1_555
Dy0 Os3 3.140834 1_554
Dy1 Os0 2.842895 1_545
Dy1 Os1 2.954637 1_555
Dy1 Os2 3.140834 1_455
Dy2 Os3 2.842895 1_555
Dy2 Os2 2.954637 1_555
Dy2 Os1 3.140834 1_555
Dy3 Os2 2.842895 1_565
Dy3 Os3 2.954637 1_555
Dy3 Os0 3.140834 1_656
Dy4 Os3 2.842895 1_555
Dy4 Os2 2.954637 1_555
Dy4 Os1 3.140834 1_556
Dy5 Os2 2.842895 1_565
Dy5 Os3 2.954637 1_555
Dy5 Os0 3.140834 1_655
Dy6 Os1 2.842895 1_555
Dy6 Os0 2.954637 1_555
Dy6 Os3 3.140834 1_555
Dy7 Os0 2.842895 1_545
Dy7 Os1 2.954637 1_555
Dy7 Os2 3.140834 1_454
Dy8 Os0 2.725120 1_655
Dy8 Os1 2.828228 1_555
Dy9 Os1 2.725120 1_555
Dy9 Os0 2.828228 1_645
Dy10 Os2 2.725120 1_455
Dy10 Os3 2.828228 1_555
Dy11 Os3 2.725120 1_555
Dy11 Os2 2.828228 1_465
