# generated using pymatgen
data_Er2B4C
_symmetry_space_group_name_H-M   'P 1'
_cell_length_a   3.24853600
_cell_length_b   5.20600095
_cell_length_c   5.20600095
_cell_angle_alpha   78.13453103
_cell_angle_beta   71.82024267
_cell_angle_gamma   71.82024267
_symmetry_Int_Tables_number   1
_chemical_formula_structural   Er2B4C
_chemical_formula_sum   'Er2 B4 C1'
_cell_volume   78.89905735
_cell_formula_units_Z   1
loop_
 _symmetry_equiv_pos_site_id
 _symmetry_equiv_pos_as_xyz
  1  'x, y, z'
loop_
 _atom_site_type_symbol
 _atom_site_label
 _atom_site_symmetry_multiplicity
 _atom_site_fract_x
 _atom_site_fract_y
 _atom_site_fract_z
 _atom_site_occupancy
  Er  Er0  1  0.26669324  0.23330676  0.23330676  1
  Er  Er1  1  0.73330676  0.76669324  0.76669324  1
  B  B0  1  0.50000000  0.36595231  0.63404769  1
  B  B1  1  0.50000000  0.63404769  0.36595231  1
  B  B2  1  -0.00000000  0.77271011  0.22728989  1
  B  B3  1  0.00000000  0.22728989  0.77271011  1
  C  C0  1  -0.00000000  0.00000000  0.00000000  1
loop_
_geom_bond_atom_site_label_1
_geom_bond_atom_site_label_2
_geom_bond_distance
_geom_bond_site_symmetry_2
B0 B1 1.759237 1_555
B0 B3 1.861764 1_655
B0 B3 1.861764 1_555
B0 Er0 2.703598 1_655
B0 Er1 2.703598 1_455
B0 Er1 2.703598 1_555
B0 Er0 2.703598 1_555
B0 Er0 2.957923 1_556
B0 Er1 2.957923 1_545
B1 B2 1.861764 1_655
B1 B2 1.861764 1_555
B1 Er1 2.703598 1_455
B1 Er0 2.703598 1_655
B1 Er1 2.703598 1_555
B1 Er0 2.703598 1_555
B1 Er1 2.957923 1_554
B1 Er0 2.957923 1_565
B2 C0 1.491472 1_565
B3 C0 1.491472 1_556
C0 Er1 2.370858 1_544
C0 Er0 2.370858 1_455
C0 Er1 2.370859 1_444
C0 Er0 2.370859 1_555
