# generated using pymatgen
data_Te2MoW3(Se2S)2
_symmetry_space_group_name_H-M   'P 1'
_cell_length_a   3.34338582
_cell_length_b   3.34338582
_cell_length_c   38.05266800
_cell_angle_alpha   90.00000000
_cell_angle_beta   90.00000000
_cell_angle_gamma   119.99999639
_symmetry_Int_Tables_number   1
_chemical_formula_structural   Te2MoW3(Se2S)2
_chemical_formula_sum   'Te2 Mo1 W3 Se4 S2'
_cell_volume   368.37381454
_cell_formula_units_Z   1
loop_
 _symmetry_equiv_pos_site_id
 _symmetry_equiv_pos_as_xyz
  1  'x, y, z'
loop_
 _atom_site_type_symbol
 _atom_site_label
 _atom_site_symmetry_multiplicity
 _atom_site_fract_x
 _atom_site_fract_y
 _atom_site_fract_z
 _atom_site_occupancy
  Te  Te0  1  0.33333300  0.66666700  0.70763200  1
  Te  Te1  1  0.33333300  0.66666700  0.60745300  1
  Mo  Mo0  1  0.66666700  0.33333300  0.28181500  1
  W  W0  1  0.33333300  0.66666700  0.09390900  1
  W  W1  1  0.33333300  0.66666700  0.46966000  1
  W  W2  1  0.66666700  0.33333300  0.65757100  1
  Se  Se0  1  0.33333300  0.66666700  0.32555300  1
  Se  Se1  1  0.66666700  0.33333300  0.04995900  1
  Se  Se2  1  0.66666700  0.33333300  0.13785600  1
  Se  Se3  1  0.33333300  0.66666700  0.23802900  1
  S  S0  1  0.66666700  0.33333300  0.42965700  1
  S  S1  1  0.66666700  0.33333300  0.50965200  1
loop_
_geom_bond_atom_site_label_1
_geom_bond_atom_site_label_2
_geom_bond_distance
_geom_bond_site_symmetry_2
Te0 W2 2.711996 1_455
Te0 W2 2.711996 1_565
Te0 W2 2.712000 1_555
Te1 W2 2.713520 1_455
Te1 W2 2.713520 1_565
Te1 W2 2.713524 1_555
Mo0 Se0 2.548749 1_545
Mo0 Se0 2.548749 1_655
Mo0 Se0 2.548753 1_555
Mo0 Se3 2.549942 1_655
Mo0 Se3 2.549942 1_545
Mo0 Se3 2.549947 1_555
Se1 W0 2.554024 1_655
Se1 W0 2.554024 1_545
Se1 W0 2.554029 1_555
Se2 W0 2.553950 1_545
Se2 W0 2.553950 1_655
Se2 W0 2.553954 1_555
S0 W1 2.458297 1_545
S0 W1 2.458297 1_655
S0 W1 2.458302 1_555
S1 W1 2.458038 1_545
S1 W1 2.458038 1_655
S1 W1 2.458043 1_555
