# generated using pymatgen
data_K3NaAl12Si12(HO6)8
_symmetry_space_group_name_H-M   'P 1'
_cell_length_a   9.03912567
_cell_length_b   10.40993532
_cell_length_c   20.01550039
_cell_angle_alpha   84.37773274
_cell_angle_beta   90.00013195
_cell_angle_gamma   89.99998792
_symmetry_Int_Tables_number   1
_chemical_formula_structural   K3NaAl12Si12(HO6)8
_chemical_formula_sum   'K6 Na2 Al24 Si24 H16 O96'
_cell_volume   1874.33255852
_cell_formula_units_Z   2
loop_
 _symmetry_equiv_pos_site_id
 _symmetry_equiv_pos_as_xyz
  1  'x, y, z'
loop_
 _atom_site_type_symbol
 _atom_site_label
 _atom_site_symmetry_multiplicity
 _atom_site_fract_x
 _atom_site_fract_y
 _atom_site_fract_z
 _atom_site_occupancy
  K  K0  1  0.09521028  0.00207879  0.75035933  1
  K  K1  1  0.90479514  0.99793002  0.24963562  1
  K  K2  1  0.60470118  0.24999948  0.74999906  1
  K  K3  1  0.09521704  0.49792975  0.74963294  1
  K  K4  1  0.90478742  0.50207067  0.25036065  1
  K  K5  1  0.39531227  0.75000057  0.25000055  1
  Na  Na0  1  0.43291206  0.25001001  0.24999966  1
  Na  Na1  1  0.56708725  0.75001121  0.75000881  1
  Al  Al0  1  0.58426876  0.37371789  0.00058728  1
  Al  Al1  1  0.58425961  0.12627828  0.49940739  1
  Al  Al2  1  0.41604011  0.12690166  0.99927234  1
  Al  Al3  1  0.41603834  0.37309629  0.50071825  1
  Al  Al4  1  0.26125877  0.23405693  0.86258922  1
  Al  Al5  1  0.08599945  0.12434587  0.99921867  1
  Al  Al6  1  0.26125324  0.26594072  0.63740139  1
  Al  Al7  1  0.08599060  0.37565135  0.50077803  1
  Al  Al8  1  0.73915346  0.26770670  0.13792948  1
  Al  Al9  1  0.91406235  0.37616238  0.00142174  1
  Al  Al10  1  0.73914666  0.23228622  0.36206755  1
  Al  Al11  1  0.91405423  0.12383678  0.49857773  1
  Al  Al12  1  0.58397160  0.87309387  0.00071659  1
  Al  Al13  1  0.58396486  0.62690420  0.49927210  1
  Al  Al14  1  0.41575444  0.62627316  0.99940467  1
  Al  Al15  1  0.41573852  0.87372021  0.50058603  1
  Al  Al16  1  0.26085507  0.73228445  0.86206722  1
  Al  Al17  1  0.08595594  0.62383204  0.99857658  1
  Al  Al18  1  0.26085437  0.76770780  0.63792714  1
  Al  Al19  1  0.08594190  0.87616198  0.50142123  1
  Al  Al20  1  0.73875604  0.76593985  0.13740018  1
  Al  Al21  1  0.91401436  0.87564601  0.00077571  1
  Al  Al22  1  0.73874447  0.73405864  0.36258912  1
  Al  Al23  1  0.91400274  0.62434962  0.49921951  1
  Si  Si0  1  0.75593687  0.47635222  0.86388620  1
  Si  Si1  1  0.43116916  0.49300247  0.86163587  1
  Si  Si2  1  0.75592713  0.02364539  0.63611051  1
  Si  Si3  1  0.43116091  0.00699390  0.63835697  1
  Si  Si4  1  0.24437703  0.02566667  0.13639101  1
  Si  Si5  1  0.57012779  0.00889489  0.13803114  1
  Si  Si6  1  0.24436783  0.47433129  0.36360426  1
  Si  Si7  1  0.57012245  0.49109924  0.36195729  1
  Si  Si8  1  0.92932125  0.23052425  0.86346642  1
  Si  Si9  1  0.92931319  0.26947342  0.63653029  1
  Si  Si10  1  0.07054955  0.26967502  0.13764813  1
  Si  Si11  1  0.07053734  0.23032135  0.36234977  1
  Si  Si12  1  0.75563548  0.97433044  0.86360234  1
  Si  Si13  1  0.42988110  0.99109755  0.86195691  1
  Si  Si14  1  0.75562949  0.52566775  0.63639083  1
  Si  Si15  1  0.42987681  0.50889727  0.63803088  1
  Si  Si16  1  0.24407944  0.52364360  0.13610993  1
  Si  Si17  1  0.56884482  0.50699229  0.13835699  1
  Si  Si18  1  0.24406740  0.97635458  0.36388621  1
  Si  Si19  1  0.56883319  0.99300419  0.36163552  1
  Si  Si20  1  0.92946455  0.73031972  0.86234784  1
  Si  Si21  1  0.92945642  0.76967726  0.63764789  1
  Si  Si22  1  0.07069378  0.76947128  0.13652881  1
  Si  Si23  1  0.07068261  0.73052628  0.36346617  1
  H  H0  1  0.14653046  0.43660036  0.93346538  1
  H  H1  1  0.14651339  0.06338081  0.56654522  1
  H  H2  1  0.85447030  0.06130967  0.06802462  1
  H  H3  1  0.85446743  0.43869787  0.43196505  1
  H  H4  1  0.65861800  0.18054324  0.94650004  1
  H  H5  1  0.65861287  0.31944656  0.55349925  1
  H  H6  1  0.34273356  0.31908002  0.05445135  1
  H  H7  1  0.34273215  0.18091023  0.44554787  1
  H  H8  1  0.14553896  0.93868931  0.93196555  1
  H  H9  1  0.14553048  0.56131027  0.56802545  1
  H  H10  1  0.85349962  0.56337905  0.06655376  1
  H  H11  1  0.85347744  0.93660975  0.43346441  1
  H  H12  1  0.65728894  0.68091006  0.94554775  1
  H  H13  1  0.65726669  0.81908769  0.55445165  1
  H  H14  1  0.34140428  0.81943740  0.05349945  1
  H  H15  1  0.34139170  0.68055167  0.44649079  1
  O  O0  1  0.39246044  0.13545261  0.82826843  1
  O  O1  1  0.30156050  0.39730394  0.84100859  1
  O  O2  1  0.59354204  0.45242721  0.83083455  1
  O  O3  1  0.05708377  0.47769472  0.94869938  1
  O  O4  1  0.75127486  0.45011564  0.94533311  1
  O  O5  1  0.44850508  0.48389512  0.94447532  1
  O  O6  1  0.39245856  0.36454240  0.67172130  1
  O  O7  1  0.30155022  0.10269388  0.65898074  1
  O  O8  1  0.59353136  0.04757043  0.66916061  1
  O  O9  1  0.05707158  0.02229738  0.55130096  1
  O  O10  1  0.75126472  0.04987594  0.55466324  1
  O  O11  1  0.44849624  0.01609740  0.55551760  1
  O  O12  1  0.60294012  0.36172520  0.17310099  1
  O  O13  1  0.69950120  0.10467595  0.15892206  1
  O  O14  1  0.40725705  0.04973890  0.16977585  1
  O  O15  1  0.94301947  0.02107464  0.05131412  1
  O  O16  1  0.24960596  0.05155071  0.05494970  1
  O  O17  1  0.55190343  0.01705007  0.05525795  1
  O  O18  1  0.60293081  0.13827211  0.32689501  1
  O  O19  1  0.69949434  0.39531664  0.34106685  1
  O  O20  1  0.40724575  0.45025462  0.33021721  1
  O  O21  1  0.94301390  0.47892660  0.44867802  1
  O  O22  1  0.24959942  0.44844731  0.44504532  1
  O  O23  1  0.55190582  0.48294286  0.44473086  1
  O  O24  1  0.86628534  0.37349965  0.83113571  1
  O  O25  1  0.80690290  0.12404806  0.84053391  1
  O  O26  1  0.08530127  0.20728678  0.82799617  1
  O  O27  1  0.56590477  0.22790437  0.94961989  1
  O  O28  1  0.25019579  0.19184236  0.94987583  1
  O  O29  1  0.93997629  0.23040375  0.94558430  1
  O  O30  1  0.86627392  0.12650036  0.66886112  1
  O  O31  1  0.80689923  0.37595129  0.65946290  1
  O  O32  1  0.08529924  0.29270576  0.67199660  1
  O  O33  1  0.56589571  0.27209191  0.55037645  1
  O  O34  1  0.25019103  0.30815564  0.55011581  1
  O  O35  1  0.93996452  0.26959437  0.55441175  1
  O  O36  1  0.13103535  0.12564780  0.16921581  1
  O  O37  1  0.19542894  0.37396800  0.16054257  1
  O  O38  1  0.91456819  0.29614380  0.17257894  1
  O  O39  1  0.43543157  0.27227948  0.05018788  1
  O  O40  1  0.74950508  0.31030335  0.05073602  1
  O  O41  1  0.05894828  0.26977902  0.05540987  1
  O  O42  1  0.13102125  0.37434979  0.33078349  1
  O  O43  1  0.19542048  0.12603103  0.33945701  1
  O  O44  1  0.91455950  0.20384916  0.32741710  1
  O  O45  1  0.43542818  0.22771556  0.44980441  1
  O  O46  1  0.74949764  0.18969662  0.44926223  1
  O  O47  1  0.05893639  0.23021720  0.44458783  1
  O  O48  1  0.39707420  0.63827254  0.82689600  1
  O  O49  1  0.30050833  0.89531464  0.84106776  1
  O  O50  1  0.59275695  0.95025264  0.83021507  1
  O  O51  1  0.05699096  0.97891920  0.94867821  1
  O  O52  1  0.75040284  0.94844376  0.94504298  1
  O  O53  1  0.44810182  0.98294199  0.94472996  1
  O  O54  1  0.39706552  0.86172650  0.67310077  1
  O  O55  1  0.30050106  0.60467640  0.65892151  1
  O  O56  1  0.59274909  0.54974076  0.66977408  1
  O  O57  1  0.05698038  0.52107398  0.55132036  1
  O  O58  1  0.75040041  0.55155437  0.55494977  1
  O  O59  1  0.44809814  0.51705673  0.55525696  1
  O  O60  1  0.60754966  0.86453989  0.17172025  1
  O  O61  1  0.69845636  0.60269265  0.15898045  1
  O  O62  1  0.40647475  0.54756468  0.16916161  1
  O  O63  1  0.94293775  0.52229778  0.05130103  1
  O  O64  1  0.24874441  0.54987529  0.05466293  1
  O  O65  1  0.55151266  0.51609606  0.05551735  1
  O  O66  1  0.60754242  0.63545465  0.32826855  1
  O  O67  1  0.69844106  0.89730405  0.34100914  1
  O  O68  1  0.40646095  0.95242802  0.33083419  1
  O  O69  1  0.94292586  0.97770134  0.44869832  1
  O  O70  1  0.24873158  0.95011705  0.44533299  1
  O  O71  1  0.55149906  0.98390122  0.44447477  1
  O  O72  1  0.86898386  0.87434978  0.83078229  1
  O  O73  1  0.80457973  0.62602996  0.83945556  1
  O  O74  1  0.08544367  0.70384770  0.82741635  1
  O  O75  1  0.56458888  0.72771124  0.94980281  1
  O  O76  1  0.25051249  0.68968946  0.94926054  1
  O  O77  1  0.94107094  0.73021146  0.94458571  1
  O  O78  1  0.86897197  0.62564932  0.66921420  1
  O  O79  1  0.80457827  0.87397040  0.66054325  1
  O  O80  1  0.08544072  0.79614475  0.67257635  1
  O  O81  1  0.56457121  0.77228110  0.55018769  1
  O  O82  1  0.25050142  0.81030083  0.55073295  1
  O  O83  1  0.94105453  0.76978189  0.55540929  1
  O  O84  1  0.13373497  0.62649945  0.16886120  1
  O  O85  1  0.19310717  0.87595025  0.15945940  1
  O  O86  1  0.91471008  0.79270626  0.17199659  1
  O  O87  1  0.43412152  0.77208410  0.05037164  1
  O  O88  1  0.74981725  0.80815470  0.05011480  1
  O  O89  1  0.06004321  0.76959206  0.05441054  1
  O  O90  1  0.13371814  0.87350190  0.33113643  1
  O  O91  1  0.19310152  0.62404996  0.34053553  1
  O  O92  1  0.91470169  0.70729281  0.32799523  1
  O  O93  1  0.43410629  0.72790724  0.44961793  1
  O  O94  1  0.74980708  0.69184431  0.44987553  1
  O  O95  1  0.06002530  0.73040585  0.44558425  1
loop_
_geom_bond_atom_site_label_1
_geom_bond_atom_site_label_2
_geom_bond_distance
_geom_bond_site_symmetry_2
K0 O7 2.746929 1_555
K0 O49 2.753148 1_545
K0 O26 2.763429 1_555
K0 O80 2.771514 1_545
K0 O72 2.849795 1_445
K0 O30 2.864761 1_455
K1 O67 2.746988 1_555
K1 O13 2.753122 1_565
K1 O86 2.763594 1_555
K1 O44 2.771365 1_565
K1 O36 2.849804 1_665
K1 O90 2.864728 1_655
K2 O0 2.681536 1_555
K2 O6 2.681618 1_555
K2 O2 2.781469 1_555
K2 O8 2.781522 1_555
K2 O25 2.806750 1_555
K2 O31 2.806751 1_555
K3 O1 2.746943 1_555
K3 O55 2.753044 1_555
K3 O32 2.763563 1_555
K3 O74 2.771382 1_555
K3 O78 2.849826 1_455
K3 O24 2.864819 1_455
K4 O61 2.746911 1_555
K4 O19 2.753060 1_555
K4 O92 2.763523 1_555
K4 O38 2.771440 1_555
K4 O42 2.849802 1_655
K4 O84 2.864882 1_655
K5 O66 2.681443 1_555
K5 O60 2.681602 1_555
K5 O68 2.781439 1_555
K5 O62 2.781585 1_555
K5 O91 2.806807 1_555
K5 O85 2.806838 1_555
Na0 O12 2.394335 1_555
Na0 O18 2.394337 1_555
Na0 O20 2.762758 1_555
Na0 O14 2.763055 1_555
Na0 O37 3.004403 1_555
Na0 O43 3.004548 1_555
Na1 O48 2.394215 1_555
Na1 O54 2.394406 1_555
Na1 O50 2.762585 1_555
Na1 O56 2.763198 1_555
Na1 O73 3.004439 1_555
Na1 O79 3.004559 1_555
Al0 O40 1.882626 1_555
Al0 O27 1.917209 1_554
Al0 O39 1.924906 1_555
Al0 O65 1.952567 1_555
Al0 O5 1.957146 1_554
Al0 O4 1.990509 1_554
Al1 O46 1.882618 1_555
Al1 O33 1.917231 1_555
Al1 O45 1.924882 1_555
Al1 O71 1.952596 1_545
Al1 O11 1.957150 1_555
Al1 O10 1.990532 1_555
Al2 O28 1.884364 1_555
Al2 O39 1.913578 1_556
Al2 O27 1.929640 1_555
Al2 O17 1.954611 1_556
Al2 O53 1.960148 1_545
Al2 O16 1.987259 1_556
Al3 O34 1.884399 1_555
Al3 O45 1.913582 1_555
Al3 O33 1.929652 1_555
Al3 O23 1.954629 1_555
Al3 O59 1.960105 1_555
Al3 O22 1.987241 1_555
Al4 O1 1.750254 1_555
Al4 O0 1.752189 1_555
Al4 O28 1.762098 1_555
Al4 O26 1.767646 1_555
Al5 O28 1.880413 1_555
Al5 O51 1.919370 1_545
Al5 O15 1.921895 1_456
Al5 O16 1.959578 1_556
Al5 O29 1.970111 1_455
Al5 O41 1.987563 1_556
Al6 O7 1.750239 1_555
Al6 O6 1.752184 1_555
Al6 O34 1.762078 1_555
Al6 O32 1.767628 1_555
Al7 O34 1.880386 1_555
Al7 O57 1.919360 1_555
Al7 O21 1.921938 1_455
Al7 O22 1.959618 1_555
Al7 O35 1.970121 1_455
Al7 O47 1.987561 1_555
Al8 O13 1.745157 1_555
Al8 O40 1.760553 1_555
Al8 O12 1.761950 1_555
Al8 O38 1.767186 1_555
Al9 O40 1.877294 1_555
Al9 O63 1.917463 1_555
Al9 O3 1.919240 1_654
Al9 O4 1.961842 1_554
Al9 O41 1.968451 1_655
Al9 O29 1.984570 1_554
Al10 O19 1.745177 1_555
Al10 O46 1.760564 1_555
Al10 O18 1.761946 1_555
Al10 O44 1.767182 1_555
Al11 O46 1.877299 1_555
Al11 O69 1.917460 1_545
Al11 O9 1.919257 1_655
Al11 O10 1.961853 1_555
Al11 O47 1.968434 1_655
Al11 O35 1.984513 1_555
Al12 O88 1.884385 1_555
Al12 O75 1.913592 1_554
Al12 O87 1.929608 1_555
Al12 O53 1.954639 1_554
Al12 O17 1.960114 1_565
Al12 O52 1.987196 1_554
Al13 O94 1.884351 1_555
Al13 O81 1.913573 1_555
Al13 O93 1.929616 1_555
Al13 O59 1.954604 1_555
Al13 O23 1.960144 1_555
Al13 O58 1.987264 1_555
Al14 O76 1.882626 1_555
Al14 O87 1.917184 1_556
Al14 O75 1.924899 1_555
Al14 O5 1.952550 1_555
Al14 O65 1.957122 1_556
Al14 O64 1.990579 1_556
Al15 O82 1.882632 1_555
Al15 O93 1.917216 1_555
Al15 O81 1.924888 1_555
Al15 O11 1.952580 1_565
Al15 O71 1.957145 1_555
Al15 O70 1.990496 1_555
Al16 O49 1.745174 1_555
Al16 O76 1.760543 1_555
Al16 O48 1.761943 1_555
Al16 O74 1.767170 1_555
Al17 O76 1.877300 1_555
Al17 O3 1.917450 1_555
Al17 O63 1.919251 1_456
Al17 O64 1.961837 1_556
Al17 O77 1.968452 1_455
Al17 O89 1.984536 1_556
Al18 O55 1.745158 1_555
Al18 O82 1.760561 1_555
Al18 O54 1.761955 1_555
Al18 O80 1.767178 1_555
Al19 O82 1.877288 1_555
Al19 O9 1.917462 1_565
Al19 O69 1.919246 1_455
Al19 O70 1.961863 1_555
Al19 O83 1.968446 1_455
Al19 O95 1.984545 1_555
Al20 O61 1.750251 1_555
Al20 O60 1.752183 1_555
Al20 O88 1.762074 1_555
Al20 O86 1.767638 1_555
Al21 O88 1.880364 1_555
Al21 O15 1.919358 1_565
Al21 O51 1.921905 1_654
Al21 O52 1.959639 1_554
Al21 O89 1.970129 1_655
Al21 O77 1.987565 1_554
Al22 O67 1.750239 1_555
Al22 O66 1.752185 1_555
Al22 O94 1.762093 1_555
Al22 O92 1.767645 1_555
Al23 O94 1.880409 1_555
Al23 O21 1.919354 1_555
Al23 O57 1.921954 1_655
Al23 O58 1.959546 1_555
Al23 O95 1.970111 1_655
Al23 O83 1.987537 1_555
H0 O3 0.977365 1_555
H1 O9 0.977347 1_555
H2 O15 0.977447 1_555
H3 O21 0.977414 1_555
H4 O27 0.977409 1_555
H5 O33 0.977412 1_555
H6 O39 0.977177 1_555
H7 O45 0.977168 1_555
H8 O51 0.977430 1_555
H9 O57 0.977417 1_555
H10 O63 0.977370 1_555
H11 O69 0.977362 1_555
H12 O75 0.977173 1_555
H13 O81 0.977190 1_555
H14 O87 0.977417 1_555
H15 O93 0.977407 1_555
O0 Si13 1.621335 1_545
O1 Si1 1.617411 1_555
O2 Si0 1.639117 1_555
O2 Si1 1.662433 1_555
O4 Si0 1.626864 1_555
O5 Si1 1.658900 1_555
O6 Si15 1.621343 1_555
O7 Si3 1.617413 1_555
O8 Si2 1.639114 1_555
O8 Si3 1.662433 1_555
O10 Si2 1.626866 1_555
O11 Si3 1.658900 1_555
O12 Si17 1.630750 1_555
O13 Si5 1.618097 1_555
O14 Si4 1.646134 1_555
O14 Si5 1.674764 1_555
O16 Si4 1.626642 1_555
O17 Si5 1.658793 1_555
O18 Si19 1.630739 1_545
O19 Si7 1.618096 1_555
O20 Si6 1.646147 1_555
O20 Si7 1.674773 1_555
O22 Si6 1.626638 1_555
O23 Si7 1.658794 1_555
O24 Si0 1.645757 1_555
O24 Si8 1.664310 1_555
O25 Si12 1.648036 1_545
O25 Si8 1.662350 1_555
O26 Si8 1.607510 1_455
O29 Si8 1.646327 1_555
O30 Si2 1.645764 1_555
O30 Si9 1.664302 1_555
O31 Si14 1.648043 1_555
O31 Si9 1.662338 1_555
O32 Si9 1.607509 1_455
O35 Si9 1.646339 1_555
O36 Si4 1.642718 1_555
O36 Si10 1.661466 1_555
O37 Si16 1.646499 1_555
O37 Si10 1.661435 1_555
O38 Si10 1.609475 1_655
O41 Si10 1.649271 1_555
O42 Si6 1.642709 1_555
O42 Si11 1.661465 1_555
O43 Si18 1.646483 1_545
O43 Si11 1.661429 1_555
O44 Si11 1.609469 1_655
O47 Si11 1.649267 1_555
O48 Si1 1.630749 1_555
O49 Si13 1.618094 1_555
O50 Si12 1.646154 1_555
O50 Si13 1.674784 1_555
O52 Si12 1.626632 1_555
O53 Si13 1.658787 1_555
O54 Si3 1.630752 1_565
O55 Si15 1.618099 1_555
O56 Si14 1.646128 1_555
O56 Si15 1.674760 1_555
O58 Si14 1.626639 1_555
O59 Si15 1.658803 1_555
O60 Si5 1.621341 1_565
O61 Si17 1.617418 1_555
O62 Si16 1.639113 1_555
O62 Si17 1.662428 1_555
O64 Si16 1.626862 1_555
O65 Si17 1.658902 1_555
O66 Si7 1.621340 1_555
O67 Si19 1.617412 1_555
O68 Si18 1.639115 1_555
O68 Si19 1.662428 1_555
O70 Si18 1.626862 1_555
O71 Si19 1.658897 1_555
O72 Si12 1.642708 1_555
O72 Si20 1.661464 1_555
O73 Si0 1.646493 1_555
O73 Si20 1.661431 1_555
O74 Si20 1.609471 1_455
O77 Si20 1.649262 1_555
O78 Si14 1.642711 1_555
O78 Si21 1.661462 1_555
O79 Si2 1.646494 1_565
O79 Si21 1.661436 1_555
O80 Si21 1.609472 1_455
O83 Si21 1.649276 1_555
O84 Si16 1.645765 1_555
O84 Si22 1.664305 1_555
O85 Si4 1.648030 1_565
O85 Si22 1.662327 1_555
O86 Si22 1.607512 1_655
O89 Si22 1.646333 1_555
O90 Si18 1.645754 1_555
O90 Si23 1.664306 1_555
O91 Si6 1.648043 1_555
O91 Si23 1.662343 1_555
O92 Si23 1.607513 1_655
O95 Si23 1.646333 1_555
