# generated using pymatgen
data_TaS3
_symmetry_space_group_name_H-M   'P 1'
_cell_length_a   4.98100258
_cell_length_b   4.98100258
_cell_length_c   5.34236700
_cell_angle_alpha   90.00000000
_cell_angle_beta   90.00000000
_cell_angle_gamma   97.23496205
_symmetry_Int_Tables_number   1
_chemical_formula_structural   TaS3
_chemical_formula_sum   'Ta2 S6'
_cell_volume   131.49086327
_cell_formula_units_Z   2
loop_
 _symmetry_equiv_pos_site_id
 _symmetry_equiv_pos_as_xyz
  1  'x, y, z'
loop_
 _atom_site_type_symbol
 _atom_site_label
 _atom_site_symmetry_multiplicity
 _atom_site_fract_x
 _atom_site_fract_y
 _atom_site_fract_z
 _atom_site_occupancy
  Ta  Ta0  1  0.99745000  0.99745000  0.00000000  1
  Ta  Ta1  1  0.49745000  0.49745000  0.50000000  1
  S  S0  1  0.61867800  0.61867800  0.00000000  1
  S  S1  1  0.11867800  0.11867800  0.50000000  1
  S  S2  1  0.12163600  0.51833700  0.82465700  1
  S  S3  1  0.51833700  0.12163600  0.17534300  1
  S  S4  1  0.62163600  0.01833700  0.67534300  1
  S  S5  1  0.01833700  0.62163600  0.32465700  1
loop_
_geom_bond_atom_site_label_1
_geom_bond_atom_site_label_2
_geom_bond_distance
_geom_bond_site_symmetry_2
S0 Ta0 2.494483 1_555
S0 Ta1 2.787942 1_554
S0 Ta1 2.787942 1_555
S1 Ta1 2.494483 1_555
S1 Ta0 2.787942 1_445
S1 Ta0 2.787942 1_446
S2 Ta1 2.563644 1_555
S2 Ta0 2.706871 1_456
S2 Ta0 2.754545 1_446
S3 Ta1 2.563644 1_555
S3 Ta0 2.706871 1_545
S3 Ta0 2.754545 1_445
S4 Ta0 2.563644 1_546
S4 Ta1 2.706871 1_555
S4 Ta1 2.754545 1_545
S5 Ta0 2.563644 1_455
S5 Ta1 2.706871 1_555
S5 Ta1 2.754545 1_455
