# generated using pymatgen
data_EuAl3Cu2
_symmetry_space_group_name_H-M   'P 1'
_cell_length_a   4.07009126
_cell_length_b   5.41960185
_cell_length_c   5.41991185
_cell_angle_alpha   120.00384232
_cell_angle_beta   90.00000000
_cell_angle_gamma   90.00000000
_symmetry_Int_Tables_number   1
_chemical_formula_structural   EuAl3Cu2
_chemical_formula_sum   'Eu1 Al3 Cu2'
_cell_volume   103.53270675
_cell_formula_units_Z   1
loop_
 _symmetry_equiv_pos_site_id
 _symmetry_equiv_pos_as_xyz
  1  'x, y, z'
loop_
 _atom_site_type_symbol
 _atom_site_label
 _atom_site_symmetry_multiplicity
 _atom_site_fract_x
 _atom_site_fract_y
 _atom_site_fract_z
 _atom_site_occupancy
  Eu  Eu0  1  0.00000000  0.00000000  -0.00000000  1
  Al  Al0  1  0.50000000  0.50000000  0.50000000  1
  Al  Al1  1  0.50000000  -0.00000000  0.50000000  1
  Al  Al2  1  0.50000000  0.50000000  0.00000000  1
  Cu  Cu0  1  -0.00000000  0.66699558  0.33312426  1
  Cu  Cu1  1  -0.00000000  0.33300442  0.66687574  1
loop_
_geom_bond_atom_site_label_1
_geom_bond_atom_site_label_2
_geom_bond_distance
_geom_bond_site_symmetry_2
Al0 Cu0 2.568507 1_555
Al0 Cu1 2.568507 1_655
Al0 Cu0 2.568507 1_655
Al0 Cu1 2.568507 1_555
Al0 Al1 2.709801 1_565
Al0 Al1 2.709801 1_555
Al0 Al2 2.709956 1_556
Al0 Al2 2.709956 1_555
Al0 Eu0 3.388805 1_555
Al0 Eu0 3.388805 1_655
Al0 Eu0 3.388805 1_566
Al0 Eu0 3.388805 1_666
Al1 Cu1 2.565944 1_655
Al1 Cu1 2.565944 1_555
Al1 Cu0 2.565944 1_645
Al1 Cu0 2.565944 1_545
Al1 Al2 2.709721 1_556
Al1 Al2 2.709721 1_545
Al1 Eu0 3.388993 1_656
Al1 Eu0 3.388993 1_555
Al1 Eu0 3.388993 1_556
Al1 Eu0 3.388993 1_655
Al2 Cu1 2.566342 1_654
Al2 Cu1 2.566342 1_554
Al2 Cu0 2.566342 1_555
Al2 Cu0 2.566342 1_655
Al2 Eu0 3.388869 1_665
Al2 Eu0 3.388869 1_565
Al2 Eu0 3.388869 1_555
Al2 Eu0 3.388869 1_655
Cu0 Eu0 3.126634 1_565
Cu0 Eu0 3.130049 1_566
Cu0 Eu0 3.130432 1_555
Cu1 Eu0 3.126634 1_556
Cu1 Eu0 3.130049 1_555
Cu1 Eu0 3.130432 1_566
