# generated using pymatgen
data_BaYCoCuO5
_symmetry_space_group_name_H-M   'P 1'
_cell_length_a   5.51076175
_cell_length_b   5.51076175
_cell_length_c   7.63810900
_cell_angle_alpha   90.00000000
_cell_angle_beta   90.00000000
_cell_angle_gamma   90.00000000
_symmetry_Int_Tables_number   1
_chemical_formula_structural   BaYCoCuO5
_chemical_formula_sum   'Ba2 Y2 Co2 Cu2 O10'
_cell_volume   231.95787513
_cell_formula_units_Z   2
loop_
 _symmetry_equiv_pos_site_id
 _symmetry_equiv_pos_as_xyz
  1  'x, y, z'
loop_
 _atom_site_type_symbol
 _atom_site_label
 _atom_site_symmetry_multiplicity
 _atom_site_fract_x
 _atom_site_fract_y
 _atom_site_fract_z
 _atom_site_occupancy
  Ba  Ba0  1  0.00000000  0.00000000  0.00000000  1
  Ba  Ba1  1  0.50000000  0.50000000  0.00000000  1
  Y  Y0  1  0.00000000  0.00000000  0.50000000  1
  Y  Y1  1  0.50000000  0.50000000  0.50000000  1
  Co  Co0  1  0.00000000  0.50000000  0.74941000  1
  Co  Co1  1  0.50000000  0.00000000  0.25059000  1
  Cu  Cu0  1  0.50000000  0.00000000  0.71345100  1
  Cu  Cu1  1  0.00000000  0.50000000  0.28654900  1
  O  O0  1  0.24757800  0.25242200  0.68669200  1
  O  O1  1  0.75242200  0.74757800  0.68669200  1
  O  O2  1  0.24757800  0.74757800  0.68669200  1
  O  O3  1  0.75242200  0.25242200  0.68669200  1
  O  O4  1  0.25242200  0.24757800  0.31330800  1
  O  O5  1  0.74757800  0.75242200  0.31330800  1
  O  O6  1  0.25242200  0.75242200  0.31330800  1
  O  O7  1  0.74757800  0.24757800  0.31330800  1
  O  O8  1  0.50000000  0.00000000  0.01541500  1
  O  O9  1  0.00000000  0.50000000  0.98458500  1
loop_
_geom_bond_atom_site_label_1
_geom_bond_atom_site_label_2
_geom_bond_distance
_geom_bond_site_symmetry_2
Ba0 O9 2.757895 1_544
Ba0 O8 2.757895 1_455
Ba0 O8 2.757895 1_555
Ba0 O9 2.757895 1_554
Ba0 O4 3.085977 1_555
Ba0 O0 3.085977 1_554
Ba0 O7 3.085977 1_455
Ba0 O2 3.085977 1_544
Ba0 O3 3.085977 1_454
Ba0 O6 3.085977 1_545
Ba0 O5 3.085977 1_445
Ba0 O1 3.085977 1_444
Ba1 O9 2.757895 1_654
Ba1 O8 2.757895 1_555
Ba1 O9 2.757895 1_554
Ba1 O8 2.757895 1_565
Ba1 O1 3.085977 1_554
Ba1 O5 3.085977 1_555
Ba1 O6 3.085977 1_555
Ba1 O3 3.085977 1_554
Ba1 O2 3.085977 1_554
Ba1 O7 3.085977 1_555
Ba1 O0 3.085977 1_554
Ba1 O4 3.085977 1_555
Co0 O9 1.796292 1_555
Co0 O2 1.988052 1_555
Co0 O0 1.988052 1_555
Co0 O1 1.988052 1_455
Co0 O3 1.988052 1_455
Co1 O8 1.796292 1_555
Co1 O7 1.988052 1_555
Co1 O4 1.988052 1_555
Co1 O5 1.988052 1_545
Co1 O6 1.988052 1_545
Cu0 O3 1.977813 1_555
Cu0 O1 1.977813 1_545
Cu0 O0 1.977813 1_555
Cu0 O2 1.977813 1_545
Cu0 O8 2.306434 1_556
Cu1 O6 1.977813 1_555
Cu1 O5 1.977813 1_455
Cu1 O4 1.977813 1_555
Cu1 O7 1.977813 1_455
Cu1 O9 2.306434 1_554
O0 Y1 2.414502 1_555
O0 Y0 2.414502 1_555
O1 Y1 2.414502 1_555
O1 Y0 2.414502 1_665
O2 Y1 2.414502 1_555
O2 Y0 2.414502 1_565
O3 Y1 2.414502 1_555
O3 Y0 2.414502 1_655
O4 Y1 2.414502 1_555
O4 Y0 2.414502 1_555
O5 Y1 2.414502 1_555
O5 Y0 2.414502 1_665
O6 Y1 2.414502 1_555
O6 Y0 2.414502 1_565
O7 Y0 2.414502 1_655
O7 Y1 2.414502 1_555
