# generated using pymatgen
data_LiAl(H3C)4
_symmetry_space_group_name_H-M   'P 1'
_cell_length_a   6.46325185
_cell_length_b   10.78858441
_cell_length_c   11.78505500
_cell_angle_alpha   90.00000000
_cell_angle_beta   90.00000000
_cell_angle_gamma   95.19371607
_symmetry_Int_Tables_number   1
_chemical_formula_structural   LiAl(H3C)4
_chemical_formula_sum   'Li4 Al4 H48 C16'
_cell_volume   818.39019529
_cell_formula_units_Z   4
loop_
 _symmetry_equiv_pos_site_id
 _symmetry_equiv_pos_as_xyz
  1  'x, y, z'
loop_
 _atom_site_type_symbol
 _atom_site_label
 _atom_site_symmetry_multiplicity
 _atom_site_fract_x
 _atom_site_fract_y
 _atom_site_fract_z
 _atom_site_occupancy
  Li  Li0  1  0.09688700  0.25995400  0.94967900  1
  Li  Li1  1  0.59688700  0.75995400  0.55032100  1
  Li  Li2  1  0.90311300  0.74004600  0.05032100  1
  Li  Li3  1  0.40311300  0.24004600  0.44967900  1
  Al  Al0  1  0.43829700  0.24870300  0.81826600  1
  Al  Al1  1  0.93829700  0.74870300  0.68173400  1
  Al  Al2  1  0.56170300  0.75129700  0.18173400  1
  Al  Al3  1  0.06170300  0.25129700  0.31826600  1
  H  H0  1  0.11223400  0.07337300  0.86917600  1
  H  H1  1  0.61223400  0.57337300  0.63082400  1
  H  H2  1  0.88776600  0.92662700  0.13082400  1
  H  H3  1  0.38776600  0.42662700  0.36917600  1
  H  H4  1  0.48786200  0.14837200  0.61882000  1
  H  H5  1  0.98786200  0.64837200  0.88118000  1
  H  H6  1  0.51213800  0.85162800  0.38118000  1
  H  H7  1  0.01213800  0.35162800  0.11882000  1
  H  H8  1  0.80179800  0.16908300  0.85166500  1
  H  H9  1  0.30179800  0.66908300  0.64833500  1
  H  H10  1  0.19820200  0.83091700  0.14833500  1
  H  H11  1  0.69820200  0.33091700  0.35166500  1
  H  H12  1  0.16754800  0.42997200  0.82324200  1
  H  H13  1  0.66754800  0.92997200  0.67675800  1
  H  H14  1  0.83245200  0.57002800  0.17675800  1
  H  H15  1  0.33245200  0.07002800  0.32324200  1
  H  H16  1  0.35600500  0.01943000  0.85263600  1
  H  H17  1  0.85600500  0.51943000  0.64736400  1
  H  H18  1  0.64399500  0.98057000  0.14736400  1
  H  H19  1  0.14399500  0.48057000  0.35263600  1
  H  H20  1  0.49938100  0.31704700  0.60968000  1
  H  H21  1  0.99938100  0.81704700  0.89032000  1
  H  H22  1  0.50061900  0.68295300  0.39032000  1
  H  H23  1  0.00061900  0.18295300  0.10968000  1
  H  H24  1  0.73474200  0.26890200  0.96696300  1
  H  H25  1  0.23474200  0.76890200  0.53303700  1
  H  H26  1  0.26525800  0.73109800  0.03303700  1
  H  H27  1  0.76525800  0.23109800  0.46696300  1
  H  H28  1  0.30895700  0.43701000  0.95347300  1
  H  H29  1  0.80895700  0.93701000  0.54652700  1
  H  H30  1  0.69104300  0.56299000  0.04652700  1
  H  H31  1  0.19104300  0.06299000  0.45347300  1
  H  H32  1  0.29492000  0.08445100  0.98276300  1
  H  H33  1  0.79492000  0.58445100  0.51723700  1
  H  H34  1  0.70508000  0.91554900  0.01723700  1
  H  H35  1  0.20508000  0.41554900  0.48276300  1
  H  H36  1  0.25150200  0.22549400  0.62314100  1
  H  H37  1  0.75150200  0.72549400  0.87685900  1
  H  H38  1  0.74849800  0.77450600  0.37685900  1
  H  H39  1  0.24849800  0.27450600  0.12314100  1
  H  H40  1  0.82546100  0.33637900  0.83424500  1
  H  H41  1  0.32546100  0.83637900  0.66575500  1
  H  H42  1  0.17453900  0.66362100  0.16575500  1
  H  H43  1  0.67453900  0.16362100  0.33424500  1
  H  H44  1  0.43133800  0.48129200  0.82668500  1
  H  H45  1  0.93133800  0.98129200  0.67331500  1
  H  H46  1  0.56866200  0.51870800  0.17331500  1
  H  H47  1  0.06866200  0.01870800  0.32668500  1
  C  C0  1  0.27855300  0.09728500  0.89003900  1
  C  C1  1  0.77855300  0.59728500  0.60996100  1
  C  C2  1  0.72144700  0.90271500  0.10996100  1
  C  C3  1  0.22144700  0.40271500  0.39003900  1
  C  C4  1  0.41713600  0.23243300  0.64737800  1
  C  C5  1  0.91713600  0.73243300  0.85262200  1
  C  C6  1  0.58286400  0.76756700  0.35262200  1
  C  C7  1  0.08286400  0.26756700  0.14737800  1
  C  C8  1  0.73505000  0.25643400  0.87409200  1
  C  C9  1  0.23505000  0.75643400  0.62590800  1
  C  C10  1  0.26495000  0.74356600  0.12590800  1
  C  C11  1  0.76495000  0.24356600  0.37409200  1
  C  C12  1  0.31624700  0.40999000  0.86288900  1
  C  C13  1  0.81624700  0.90999000  0.63711100  1
  C  C14  1  0.68375300  0.59001000  0.13711100  1
  C  C15  1  0.18375300  0.09001000  0.36288900  1
loop_
_geom_bond_atom_site_label_1
_geom_bond_atom_site_label_2
_geom_bond_distance
_geom_bond_site_symmetry_2
Al0 C8 2.022258 1_555
Al0 C4 2.025108 1_555
Al0 C0 2.035851 1_555
Al0 C12 2.043315 1_555
Al1 C9 2.022258 1_655
Al1 C5 2.025108 1_555
Al1 C1 2.035851 1_555
Al1 C13 2.043315 1_555
Al2 C10 2.022258 1_555
Al2 C6 2.025108 1_555
Al2 C2 2.035851 1_555
Al2 C14 2.043315 1_555
Al3 C11 2.022258 1_455
Al3 C7 2.025108 1_555
Al3 C3 2.035851 1_555
Al3 C15 2.043315 1_555
H20 Li3 2.130549 1_555
H21 Li2 2.130549 1_556
H22 Li1 2.130549 1_555
H23 Li0 2.130549 1_554
C0 H16 1.107486 1_555
C0 H32 1.107760 1_555
C0 H0 1.110108 1_555
C1 H17 1.107486 1_555
C1 H33 1.107760 1_555
C1 H1 1.110108 1_555
C2 H18 1.107486 1_555
C2 H34 1.107760 1_555
C2 H2 1.110108 1_555
C3 H19 1.107486 1_555
C3 H35 1.107760 1_555
C3 H3 1.110108 1_555
C4 H36 1.103959 1_555
C4 H4 1.104423 1_555
C4 H20 1.106985 1_555
C5 H37 1.103959 1_555
C5 H5 1.104423 1_555
C5 H21 1.106985 1_555
C6 H38 1.103959 1_555
C6 H6 1.104423 1_555
C6 H22 1.106985 1_555
C7 H39 1.103959 1_555
C7 H7 1.104423 1_555
C7 H23 1.106985 1_555
C8 H40 1.102105 1_555
C8 H24 1.102748 1_555
C8 H8 1.103486 1_555
C9 H41 1.102105 1_555
C9 H25 1.102748 1_555
C9 H9 1.103486 1_555
C10 H42 1.102105 1_555
C10 H26 1.102748 1_555
C10 H10 1.103486 1_555
C11 H43 1.102105 1_555
C11 H27 1.102748 1_555
C11 H11 1.103486 1_555
C12 H44 1.106128 1_555
C12 H12 1.107236 1_555
C12 H28 1.108747 1_555
C13 H45 1.106128 1_555
C13 H13 1.107236 1_555
C13 H29 1.108747 1_555
C14 H46 1.106128 1_555
C14 H14 1.107236 1_555
C14 H30 1.108747 1_555
C15 H47 1.106128 1_555
C15 H15 1.107236 1_555
C15 H31 1.108747 1_555
