# generated using pymatgen
data_BaV6O11
_symmetry_space_group_name_H-M   'P 1'
_cell_length_a   5.93163647
_cell_length_b   5.93163647
_cell_length_c   13.59201100
_cell_angle_alpha   90.00000000
_cell_angle_beta   90.00000000
_cell_angle_gamma   120.00000520
_symmetry_Int_Tables_number   1
_chemical_formula_structural   BaV6O11
_chemical_formula_sum   'Ba2 V12 O22'
_cell_volume   414.15544847
_cell_formula_units_Z   2
loop_
 _symmetry_equiv_pos_site_id
 _symmetry_equiv_pos_as_xyz
  1  'x, y, z'
loop_
 _atom_site_type_symbol
 _atom_site_label
 _atom_site_symmetry_multiplicity
 _atom_site_fract_x
 _atom_site_fract_y
 _atom_site_fract_z
 _atom_site_occupancy
  Ba  Ba0  1  0.33333300  0.66666700  0.25050200  1
  Ba  Ba1  1  0.66666700  0.33333300  0.75050200  1
  V  V0  1  0.49997400  0.99994800  0.50236000  1
  V  V1  1  0.49997400  0.50002600  0.50236000  1
  V  V2  1  0.00005200  0.50002600  0.50236000  1
  V  V3  1  0.50002600  0.00005200  0.00236000  1
  V  V4  1  0.50002600  0.49997400  0.00236000  1
  V  V5  1  0.99994800  0.49997400  0.00236000  1
  V  V6  1  0.33333300  0.66666700  0.75582500  1
  V  V7  1  0.66666700  0.33333300  0.25582500  1
  V  V8  1  0.00000000  0.00000000  0.35608500  1
  V  V9  1  0.00000000  0.00000000  0.85608500  1
  V  V10  1  0.00000000  0.00000000  0.14851700  1
  V  V11  1  0.00000000  0.00000000  0.64851700  1
  O  O0  1  0.17424400  0.34848800  0.42502700  1
  O  O1  1  0.17424400  0.82575600  0.42502700  1
  O  O2  1  0.65151200  0.82575600  0.42502700  1
  O  O3  1  0.82575600  0.65151200  0.92502700  1
  O  O4  1  0.82575600  0.17424400  0.92502700  1
  O  O5  1  0.34848800  0.17424400  0.92502700  1
  O  O6  1  0.17462700  0.34925300  0.07976300  1
  O  O7  1  0.17462700  0.82537300  0.07976300  1
  O  O8  1  0.65074700  0.82537300  0.07976300  1
  O  O9  1  0.82537300  0.65074700  0.57976300  1
  O  O10  1  0.82537300  0.17462700  0.57976300  1
  O  O11  1  0.34925300  0.17462700  0.57976300  1
  O  O12  1  0.14835900  0.29671900  0.75307000  1
  O  O13  1  0.14835900  0.85164100  0.75307000  1
  O  O14  1  0.70328100  0.85164100  0.75307000  1
  O  O15  1  0.85164100  0.70328100  0.25307000  1
  O  O16  1  0.85164100  0.14835900  0.25307000  1
  O  O17  1  0.29671900  0.14835900  0.25307000  1
  O  O18  1  0.33333300  0.66666700  0.91839100  1
  O  O19  1  0.66666700  0.33333300  0.41839100  1
  O  O20  1  0.33333300  0.66666700  0.58579700  1
  O  O21  1  0.66666700  0.33333300  0.08579700  1
loop_
_geom_bond_atom_site_label_1
_geom_bond_atom_site_label_2
_geom_bond_distance
_geom_bond_site_symmetry_2
Ba0 O7 2.836232 1_555
Ba0 O6 2.836237 1_555
Ba0 O8 2.836237 1_555
Ba0 O1 2.880720 1_555
Ba0 O2 2.880723 1_555
Ba0 O0 2.880723 1_555
Ba0 O15 2.971975 1_455
Ba0 O17 2.971975 1_565
Ba0 O16 2.971982 1_565
Ba0 O16 2.971982 1_455
Ba0 O17 2.971987 1_555
Ba0 O15 2.971987 1_555
Ba1 O10 2.836232 1_555
Ba1 O9 2.836237 1_555
Ba1 O11 2.836237 1_555
Ba1 O4 2.880720 1_555
Ba1 O3 2.880723 1_555
Ba1 O5 2.880723 1_555
Ba1 O14 2.971975 1_545
Ba1 O12 2.971975 1_655
Ba1 O13 2.971982 1_655
Ba1 O13 2.971982 1_545
Ba1 O12 2.971987 1_555
Ba1 O14 2.971987 1_555
O0 V1 1.977155 1_555
O0 V2 1.977155 1_555
O0 V8 2.020587 1_555
O1 V2 1.977155 1_555
O1 V0 1.977155 1_555
O1 V8 2.020587 1_565
O2 V1 1.977155 1_555
O2 V0 1.977155 1_555
O2 V8 2.020587 1_665
O3 V4 1.977155 1_556
O3 V5 1.977155 1_556
O3 V9 2.020587 1_665
O4 V3 1.977155 1_556
O4 V5 1.977155 1_556
O4 V9 2.020587 1_655
O5 V4 1.977155 1_556
O5 V3 1.977155 1_556
O5 V9 2.020587 1_555
O6 V4 1.976357 1_555
O6 V5 1.976362 1_455
O6 V10 2.022888 1_555
O7 V5 1.976358 1_455
O7 V3 1.976358 1_565
O7 V10 2.022892 1_565
O8 V4 1.976357 1_555
O8 V3 1.976362 1_565
O8 V10 2.022888 1_665
O9 V1 1.976357 1_555
O9 V2 1.976362 1_655
O9 V11 2.022888 1_665
O10 V0 1.976358 1_545
O10 V2 1.976358 1_655
O10 V11 2.022892 1_655
O11 V1 1.976357 1_555
O11 V0 1.976362 1_545
O11 V11 2.022888 1_555
O12 V6 1.900772 1_555
O12 V9 2.069730 1_555
O12 V11 2.083929 1_555
O13 V6 1.900773 1_555
O13 V9 2.069727 1_565
O13 V11 2.083926 1_565
O14 V6 1.900772 1_555
O14 V9 2.069730 1_665
O14 V11 2.083929 1_665
O15 V7 1.900772 1_555
O15 V8 2.069730 1_665
O15 V10 2.083929 1_665
O16 V7 1.900773 1_555
O16 V8 2.069727 1_655
O16 V10 2.083926 1_655
O17 V7 1.900772 1_555
O17 V8 2.069730 1_555
O17 V10 2.083929 1_555
O18 V3 2.058037 1_566
O18 V5 2.058037 1_456
O18 V4 2.058042 1_556
O18 V6 2.209599 1_555
O19 V2 2.058037 1_655
O19 V0 2.058037 1_545
O19 V1 2.058042 1_555
O19 V7 2.209599 1_555
O20 V0 2.053591 1_555
O20 V2 2.053591 1_555
O20 V1 2.053595 1_555
O20 V6 2.311022 1_555
O21 V5 2.053591 1_555
O21 V3 2.053591 1_555
O21 V4 2.053595 1_555
O21 V7 2.311022 1_555
