# generated using pymatgen
data_Na2CuP4H18N4O15
_symmetry_space_group_name_H-M   'P 1'
_cell_length_a   6.44583584
_cell_length_b   14.72362573
_cell_length_c   19.05499378
_cell_angle_alpha   90.00000000
_cell_angle_beta   90.00000000
_cell_angle_gamma   90.00000000
_symmetry_Int_Tables_number   1
_chemical_formula_structural   Na2CuP4H18N4O15
_chemical_formula_sum   'Na8 Cu4 P16 H72 N16 O60'
_cell_volume   1808.43465786
_cell_formula_units_Z   4
loop_
 _symmetry_equiv_pos_site_id
 _symmetry_equiv_pos_as_xyz
  1  'x, y, z'
loop_
 _atom_site_type_symbol
 _atom_site_label
 _atom_site_symmetry_multiplicity
 _atom_site_fract_x
 _atom_site_fract_y
 _atom_site_fract_z
 _atom_site_occupancy
  Na  Na0  1  0.70427948  0.25000000  0.74816015  1
  Na  Na1  1  0.20427948  0.25000000  0.75183985  1
  Na  Na2  1  0.29572052  0.75000000  0.25183985  1
  Na  Na3  1  0.79572052  0.75000000  0.24816015  1
  Na  Na4  1  0.67104584  0.25000000  0.33679595  1
  Na  Na5  1  0.17104584  0.25000000  0.16320405  1
  Na  Na6  1  0.32895416  0.75000000  0.66320405  1
  Na  Na7  1  0.82895416  0.75000000  0.83679595  1
  Cu  Cu0  1  0.49958021  0.25000000  0.02784099  1
  Cu  Cu1  1  -0.00041979  0.25000000  0.47215901  1
  Cu  Cu2  1  0.50041979  0.75000000  0.97215901  1
  Cu  Cu3  1  0.00041979  0.75000000  0.52784099  1
  P  P0  1  0.54887394  0.06076904  0.10709812  1
  P  P1  1  0.04887394  0.43923096  0.39290188  1
  P  P2  1  0.45112606  0.56076904  0.89290188  1
  P  P3  1  0.95112606  0.93923096  0.60709812  1
  P  P4  1  0.45112606  0.93923096  0.89290188  1
  P  P5  1  0.95112606  0.56076904  0.60709812  1
  P  P6  1  0.54887394  0.43923096  0.10709812  1
  P  P7  1  0.04887394  0.06076904  0.39290188  1
  P  P8  1  0.72482798  0.08124658  0.96167206  1
  P  P9  1  0.22482798  0.41875342  0.53832794  1
  P  P10  1  0.27517202  0.58124658  0.03832794  1
  P  P11  1  0.77517202  0.91875342  0.46167206  1
  P  P12  1  0.27517202  0.91875342  0.03832794  1
  P  P13  1  0.77517202  0.58124658  0.46167206  1
  P  P14  1  0.72482798  0.41875342  0.96167206  1
  P  P15  1  0.22482798  0.08124658  0.53832794  1
  H  H0  1  0.81722361  0.51566383  0.05230527  1
  H  H1  1  0.31722361  0.98433617  0.44769473  1
  H  H2  1  0.18277639  0.01566383  0.94769473  1
  H  H3  1  0.68277639  0.48433617  0.55230527  1
  H  H4  1  0.18277639  0.48433617  0.94769473  1
  H  H5  1  0.68277639  0.01566383  0.55230527  1
  H  H6  1  0.81722361  0.98433617  0.05230527  1
  H  H7  1  0.31722361  0.51566383  0.44769473  1
  H  H8  1  0.71304671  0.02177382  0.37098429  1
  H  H9  1  0.21304671  0.47822618  0.12901571  1
  H  H10  1  0.28695329  0.52177382  0.62901571  1
  H  H11  1  0.78695329  0.97822618  0.87098429  1
  H  H12  1  0.28695329  0.97822618  0.62901571  1
  H  H13  1  0.78695329  0.52177382  0.87098429  1
  H  H14  1  0.71304671  0.47822618  0.37098429  1
  H  H15  1  0.21304671  0.02177382  0.12901571  1
  H  H16  1  0.57898661  0.58653624  0.19360240  1
  H  H17  1  0.07898661  0.91346376  0.30639760  1
  H  H18  1  0.42101339  0.08653624  0.80639760  1
  H  H19  1  0.92101339  0.41346376  0.69360240  1
  H  H20  1  0.42101339  0.41346376  0.80639760  1
  H  H21  1  0.92101339  0.08653624  0.69360240  1
  H  H22  1  0.57898661  0.91346376  0.19360240  1
  H  H23  1  0.07898661  0.58653624  0.30639760  1
  H  H24  1  0.52409905  0.66328175  0.14169445  1
  H  H25  1  0.02409905  0.83671825  0.35830555  1
  H  H26  1  0.47590095  0.16328175  0.85830555  1
  H  H27  1  0.97590095  0.33671825  0.64169445  1
  H  H28  1  0.47590095  0.33671825  0.85830555  1
  H  H29  1  0.97590095  0.16328175  0.64169445  1
  H  H30  1  0.52409905  0.83671825  0.14169445  1
  H  H31  1  0.02409905  0.66328175  0.35830555  1
  H  H32  1  0.54487444  0.69710448  0.37620379  1
  H  H33  1  0.04487444  0.80289552  0.12379621  1
  H  H34  1  0.45512556  0.19710448  0.62379621  1
  H  H35  1  0.95512556  0.30289552  0.87620379  1
  H  H36  1  0.45512556  0.30289552  0.62379621  1
  H  H37  1  0.95512556  0.19710448  0.87620379  1
  H  H38  1  0.54487444  0.80289552  0.37620379  1
  H  H39  1  0.04487444  0.69710448  0.12379621  1
  H  H40  1  0.57580189  0.19689813  0.49499635  1
  H  H41  1  0.07580189  0.30310187  0.00500365  1
  H  H42  1  0.42419811  0.69689813  0.50500365  1
  H  H43  1  0.92419811  0.80310187  0.99499635  1
  H  H44  1  0.42419811  0.80310187  0.50500365  1
  H  H45  1  0.92419811  0.69689813  0.99499635  1
  H  H46  1  0.57580189  0.30310187  0.49499635  1
  H  H47  1  0.07580189  0.19689813  0.00500365  1
  H  H48  1  0.59306509  0.06687119  0.26155413  1
  H  H49  1  0.09306509  0.43312881  0.23844587  1
  H  H50  1  0.40693491  0.56687119  0.73844587  1
  H  H51  1  0.90693491  0.93312881  0.76155413  1
  H  H52  1  0.40693491  0.93312881  0.73844587  1
  H  H53  1  0.90693491  0.56687119  0.76155413  1
  H  H54  1  0.59306509  0.43312881  0.26155413  1
  H  H55  1  0.09306509  0.06687119  0.23844587  1
  H  H56  1  0.91734130  0.06493406  0.18207157  1
  H  H57  1  0.41734130  0.43506594  0.31792843  1
  H  H58  1  0.08265870  0.56493406  0.81792843  1
  H  H59  1  0.58265870  0.93506594  0.68207157  1
  H  H60  1  0.08265870  0.93506594  0.81792843  1
  H  H61  1  0.58265870  0.56493406  0.68207157  1
  H  H62  1  0.91734130  0.43506594  0.18207157  1
  H  H63  1  0.41734130  0.06493406  0.31792843  1
  H  H64  1  0.71882647  0.19854434  0.18967772  1
  H  H65  1  0.21882647  0.30145566  0.31032228  1
  H  H66  1  0.28117353  0.69854434  0.81032228  1
  H  H67  1  0.78117353  0.80145566  0.68967772  1
  H  H68  1  0.28117353  0.80145566  0.81032228  1
  H  H69  1  0.78117353  0.69854434  0.68967772  1
  H  H70  1  0.71882647  0.30145566  0.18967772  1
  H  H71  1  0.21882647  0.19854434  0.31032228  1
  N  N0  1  0.71152643  0.03540807  0.04248445  1
  N  N1  1  0.21152643  0.46459193  0.45751555  1
  N  N2  1  0.28847357  0.53540807  0.95751555  1
  N  N3  1  0.78847357  0.96459193  0.54248445  1
  N  N4  1  0.28847357  0.96459193  0.95751555  1
  N  N5  1  0.78847357  0.53540807  0.54248445  1
  N  N6  1  0.71152643  0.46459193  0.04248445  1
  N  N7  1  0.21152643  0.03540807  0.45751555  1
  N  N8  1  0.83137039  0.00116766  0.40514393  1
  N  N9  1  0.33137039  0.49883234  0.09485607  1
  N  N10  1  0.16862961  0.50116766  0.59485607  1
  N  N11  1  0.66862961  0.99883234  0.90514393  1
  N  N12  1  0.16862961  0.99883234  0.59485607  1
  N  N13  1  0.66862961  0.50116766  0.90514393  1
  N  N14  1  0.83137039  0.49883234  0.40514393  1
  N  N15  1  0.33137039  0.00116766  0.09485607  1
  O  O0  1  0.65151953  0.03259974  0.17581629  1
  O  O1  1  0.15151953  0.46740026  0.32418371  1
  O  O2  1  0.34848047  0.53259974  0.82418371  1
  O  O3  1  0.84848047  0.96740026  0.67581629  1
  O  O4  1  0.34848047  0.96740026  0.82418371  1
  O  O5  1  0.84848047  0.53259974  0.67581629  1
  O  O6  1  0.65151953  0.46740026  0.17581629  1
  O  O7  1  0.15151953  0.03259974  0.32418371  1
  O  O8  1  0.99282215  0.16168508  0.39382344  1
  O  O9  1  0.49282215  0.33831492  0.10617656  1
  O  O10  1  0.00717785  0.66168508  0.60617656  1
  O  O11  1  0.50717785  0.83831492  0.89382344  1
  O  O12  1  0.00717785  0.83831492  0.60617656  1
  O  O13  1  0.50717785  0.66168508  0.89382344  1
  O  O14  1  0.99282215  0.33831492  0.39382344  1
  O  O15  1  0.49282215  0.16168508  0.10617656  1
  O  O16  1  0.55386766  0.15375634  0.95781801  1
  O  O17  1  0.05386766  0.34624366  0.54218199  1
  O  O18  1  0.44613234  0.65375634  0.04218199  1
  O  O19  1  0.94613234  0.84624366  0.45781801  1
  O  O20  1  0.44613234  0.84624366  0.04218199  1
  O  O21  1  0.94613234  0.65375634  0.45781801  1
  O  O22  1  0.55386766  0.34624366  0.95781801  1
  O  O23  1  0.05386766  0.15375634  0.54218199  1
  O  O24  1  0.55373304  0.60986469  0.44661166  1
  O  O25  1  0.05373304  0.89013531  0.05338834  1
  O  O26  1  0.44626696  0.10986469  0.55338834  1
  O  O27  1  0.94626696  0.39013531  0.94661166  1
  O  O28  1  0.44626696  0.39013531  0.55338834  1
  O  O29  1  0.94626696  0.10986469  0.94661166  1
  O  O30  1  0.55373304  0.89013531  0.44661166  1
  O  O31  1  0.05373304  0.60986469  0.05338834  1
  O  O32  1  0.54749406  0.65216056  0.19198622  1
  O  O33  1  0.04749406  0.84783944  0.30801378  1
  O  O34  1  0.45250594  0.15216056  0.80801378  1
  O  O35  1  0.95250594  0.34783944  0.69198622  1
  O  O36  1  0.45250594  0.34783944  0.80801378  1
  O  O37  1  0.95250594  0.15216056  0.69198622  1
  O  O38  1  0.54749406  0.84783944  0.19198622  1
  O  O39  1  0.04749406  0.65216056  0.30801378  1
  O  O40  1  0.95455982  0.25000000  0.84425207  1
  O  O41  1  0.45455982  0.25000000  0.65574793  1
  O  O42  1  0.04544018  0.75000000  0.15574793  1
  O  O43  1  0.54544018  0.75000000  0.34425207  1
  O  O44  1  0.63270561  0.25000000  0.46956233  1
  O  O45  1  0.13270561  0.25000000  0.03043767  1
  O  O46  1  0.36729439  0.75000000  0.53043767  1
  O  O47  1  0.86729439  0.75000000  0.96956233  1
  O  O48  1  0.56346487  0.08393535  0.31097574  1
  O  O49  1  0.06346487  0.41606465  0.18902426  1
  O  O50  1  0.43653513  0.58393535  0.68902426  1
  O  O51  1  0.93653513  0.91606465  0.81097574  1
  O  O52  1  0.43653513  0.91606465  0.68902426  1
  O  O53  1  0.93653513  0.58393535  0.81097574  1
  O  O54  1  0.56346487  0.41606465  0.31097574  1
  O  O55  1  0.06346487  0.08393535  0.18902426  1
  O  O56  1  0.78887398  0.25000000  0.21194996  1
  O  O57  1  0.28887398  0.25000000  0.28805004  1
  O  O58  1  0.21112602  0.75000000  0.78805004  1
  O  O59  1  0.71112602  0.75000000  0.71194996  1
loop_
_geom_bond_atom_site_label_1
_geom_bond_atom_site_label_2
_geom_bond_distance
_geom_bond_site_symmetry_2
Na0 O41 2.385749 1_555
Na0 O35 2.404375 1_555
Na0 O37 2.404375 1_555
Na0 O40 2.440349 1_555
Na0 O34 2.451475 1_555
Na0 O36 2.451475 1_555
Na1 O40 2.385749 1_455
Na1 O36 2.404375 1_555
Na1 O34 2.404375 1_555
Na1 O41 2.440349 1_555
Na1 O37 2.451475 1_455
Na1 O35 2.451475 1_455
Na2 O43 2.385749 1_555
Na2 O33 2.404375 1_555
Na2 O39 2.404375 1_555
Na2 O42 2.440349 1_555
Na2 O32 2.451475 1_555
Na2 O38 2.451475 1_555
Na3 O42 2.385749 1_655
Na3 O32 2.404375 1_555
Na3 O38 2.404375 1_555
Na3 O43 2.440349 1_555
Na3 O39 2.451475 1_655
Na3 O33 2.451475 1_655
Na4 O56 2.497237 1_555
Na4 O44 2.541905 1_555
Na4 O54 2.588692 1_555
Na4 O48 2.588692 1_555
Na4 O57 2.632716 1_555
Na4 O8 2.678360 1_555
Na4 O14 2.678360 1_555
Na5 O57 2.497237 1_555
Na5 O45 2.541905 1_555
Na5 O55 2.588692 1_555
Na5 O49 2.588692 1_555
Na5 O56 2.632716 1_455
Na5 O15 2.678360 1_555
Na5 O9 2.678360 1_555
Na6 O58 2.497237 1_555
Na6 O46 2.541905 1_555
Na6 O52 2.588692 1_555
Na6 O50 2.588692 1_555
Na6 O59 2.632716 1_555
Na6 O12 2.678360 1_555
Na6 O10 2.678360 1_555
Na7 O59 2.497237 1_555
Na7 O47 2.541905 1_555
Na7 O53 2.588692 1_555
Na7 O51 2.588692 1_555
Na7 O58 2.632716 1_655
Na7 O13 2.678360 1_555
Na7 O11 2.678360 1_555
Cu0 O16 1.977579 1_554
Cu0 O22 1.977579 1_554
Cu0 O15 1.980107 1_555
Cu0 O9 1.980107 1_555
Cu0 O45 2.365331 1_555
Cu1 O23 1.977579 1_555
Cu1 O17 1.977579 1_555
Cu1 O8 1.980107 1_455
Cu1 O14 1.980107 1_455
Cu1 O44 2.365331 1_455
Cu2 O18 1.977579 1_556
Cu2 O20 1.977579 1_556
Cu2 O13 1.980107 1_555
Cu2 O11 1.980107 1_555
Cu2 O47 2.365331 1_555
Cu3 O21 1.977579 1_455
Cu3 O19 1.977579 1_455
Cu3 O12 1.980107 1_555
Cu3 O10 1.980107 1_555
Cu3 O46 2.365331 1_555
H0 N6 1.031818 1_555
H1 N7 1.031818 1_565
H2 N4 1.031818 1_545
H3 N5 1.031818 1_555
H4 N2 1.031818 1_555
H5 N3 1.031818 1_545
H6 N0 1.031818 1_565
H7 N1 1.031818 1_555
H8 N8 1.047588 1_555
H9 N9 1.047588 1_555
H10 N10 1.047588 1_555
H11 N11 1.047588 1_555
H12 N12 1.047588 1_555
H13 N13 1.047588 1_555
H14 N14 1.047588 1_555
H15 N15 1.047588 1_555
H16 O32 0.987802 1_555
H17 O33 0.987802 1_555
H18 O34 0.987802 1_555
H19 O35 0.987802 1_555
H20 O36 0.987802 1_555
H21 O37 0.987802 1_555
H22 O38 0.987802 1_555
H23 O39 0.987802 1_555
H24 O32 0.983824 1_555
H25 O33 0.983824 1_555
H26 O34 0.983824 1_555
H27 O35 0.983824 1_555
H28 O36 0.983824 1_555
H29 O37 0.983824 1_555
H30 O38 0.983824 1_555
H31 O39 0.983824 1_555
H32 O43 0.988560 1_555
H33 O42 0.988560 1_555
H34 O41 0.988560 1_555
H35 O40 0.988560 1_555
H36 O41 0.988560 1_555
H37 O40 0.988560 1_555
H38 O43 0.988560 1_555
H39 O42 0.988560 1_555
H40 O44 0.990308 1_555
H41 O45 0.990308 1_555
H42 O46 0.990308 1_555
H43 O47 0.990308 1_555
H44 O46 0.990308 1_555
H45 O47 0.990308 1_555
H46 O44 0.990308 1_555
H47 O45 0.990308 1_555
H48 O48 0.993167 1_555
H49 O49 0.993167 1_555
H50 O50 0.993167 1_555
H51 O51 0.993167 1_555
H52 O52 0.993167 1_555
H53 O53 0.993167 1_555
H54 O54 0.993167 1_555
H55 O55 0.993167 1_555
H56 O55 0.991451 1_655
H57 O54 0.991451 1_555
H58 O53 0.991451 1_455
H59 O52 0.991451 1_555
H60 O51 0.991451 1_455
H61 O50 0.991451 1_555
H62 O49 0.991451 1_655
H63 O48 0.991451 1_555
H64 O56 0.978753 1_555
H65 O57 0.978753 1_555
H66 O58 0.978753 1_555
H67 O59 0.978753 1_555
H68 O58 0.978753 1_555
H69 O59 0.978753 1_555
H70 O56 0.978753 1_555
H71 O57 0.978753 1_555
N0 P0 1.659676 1_555
N0 P8 1.683473 1_554
N1 P1 1.659676 1_555
N1 P9 1.683473 1_555
N2 P2 1.659676 1_555
N2 P10 1.683473 1_556
N3 P3 1.659676 1_555
N3 P11 1.683473 1_555
N4 P4 1.659676 1_555
N4 P12 1.683473 1_556
N5 P5 1.659676 1_555
N5 P13 1.683473 1_555
N6 P6 1.659676 1_555
N6 P14 1.683473 1_554
N7 P7 1.659676 1_555
N7 P15 1.683473 1_555
N8 P11 1.662494 1_545
N8 P7 1.670356 1_655
N9 P10 1.662494 1_555
N9 P6 1.670356 1_555
N10 P9 1.662494 1_555
N10 P5 1.670356 1_455
N11 P8 1.662494 1_565
N11 P4 1.670356 1_555
N12 P15 1.662494 1_565
N12 P3 1.670356 1_455
N13 P14 1.662494 1_555
N13 P2 1.670356 1_555
N14 P13 1.662494 1_555
N14 P1 1.670356 1_655
N15 P12 1.662494 1_545
N15 P0 1.670356 1_555
O0 P0 1.524590 1_555
O1 P1 1.524590 1_555
O2 P2 1.524590 1_555
O3 P3 1.524590 1_555
O4 P4 1.524590 1_555
O5 P5 1.524590 1_555
O6 P6 1.524590 1_555
O7 P7 1.524590 1_555
O8 P7 1.529247 1_655
O9 P6 1.529247 1_555
O10 P5 1.529247 1_455
O11 P4 1.529247 1_555
O12 P3 1.529247 1_455
O13 P2 1.529247 1_555
O14 P1 1.529247 1_655
O15 P0 1.529247 1_555
O16 P8 1.536080 1_555
O17 P9 1.536080 1_555
O18 P10 1.536080 1_555
O19 P11 1.536080 1_555
O20 P12 1.536080 1_555
O21 P13 1.536080 1_555
O22 P14 1.536080 1_555
O23 P15 1.536080 1_555
O24 P13 1.515670 1_555
O25 P12 1.515670 1_555
O26 P15 1.515670 1_555
O27 P14 1.515670 1_555
O28 P9 1.515670 1_555
O29 P8 1.515670 1_555
O30 P11 1.515670 1_555
O31 P10 1.515670 1_555
