# generated using pymatgen
data_Li3Mn(CoO3)2
_symmetry_space_group_name_H-M   'P 1'
_cell_length_a   2.94244500
_cell_length_b   5.08616652
_cell_length_c   7.82126189
_cell_angle_alpha   79.09218139
_cell_angle_beta   81.86272300
_cell_angle_gamma   76.15333937
_symmetry_Int_Tables_number   1
_chemical_formula_structural   Li3Mn(CoO3)2
_chemical_formula_sum   'Li3 Mn1 Co2 O6'
_cell_volume   111.02606847
_cell_formula_units_Z   1
loop_
 _symmetry_equiv_pos_site_id
 _symmetry_equiv_pos_as_xyz
  1  'x, y, z'
loop_
 _atom_site_type_symbol
 _atom_site_label
 _atom_site_symmetry_multiplicity
 _atom_site_fract_x
 _atom_site_fract_y
 _atom_site_fract_z
 _atom_site_occupancy
  Li  Li0  1  0.17167900  0.49590900  0.66536300  1
  Li  Li1  1  0.82832100  0.50409100  0.33463700  1
  Li  Li2  1  0.50000000  0.50000000  0.00000000  1
  Mn  Mn0  1  0.50000000  0.00000000  0.50000000  1
  Co  Co0  1  0.83071900  0.00424100  0.83301100  1
  Co  Co1  1  0.16928100  0.99575900  0.16698900  1
  O  O0  1  0.49718000  0.77402600  0.74969200  1
  O  O1  1  0.19108100  0.76300700  0.41468700  1
  O  O2  1  0.83094400  0.77085400  0.08336800  1
  O  O3  1  0.80891900  0.23699300  0.58531300  1
  O  O4  1  0.50282000  0.22597400  0.25030800  1
  O  O5  1  0.16905600  0.22914600  0.91663200  1
loop_
_geom_bond_atom_site_label_1
_geom_bond_atom_site_label_2
_geom_bond_distance
_geom_bond_site_symmetry_2
Li0 O3 2.107029 1_455
Li0 O3 2.107081 1_555
Li0 O0 2.129247 1_555
Li0 O1 2.165681 1_555
Li0 O5 2.166730 1_555
Li0 O0 2.239121 1_455
Li1 O1 2.107029 1_655
Li1 O1 2.107081 1_555
Li1 O4 2.129247 1_555
Li1 O3 2.165681 1_555
Li1 O2 2.166730 1_555
Li1 O4 2.239121 1_655
Li2 O2 2.105476 1_555
Li2 O5 2.105476 1_554
Li2 O0 2.177541 1_554
Li2 O4 2.177541 1_555
Li2 O2 2.208402 1_455
Li2 O5 2.208402 1_654
Mn0 O3 1.930015 1_555
Mn0 O1 1.930015 1_545
Mn0 O4 2.070122 1_555
Mn0 O0 2.070122 1_545
Mn0 O3 2.186376 1_455
Mn0 O1 2.186376 1_645
Co0 O5 1.933883 1_655
Co0 O0 1.943901 1_545
Co0 O3 2.071129 1_555
Co0 O2 2.088918 1_546
Co0 O5 2.093656 1_555
Co0 O0 2.114062 1_645
Co1 O2 1.933883 1_455
Co1 O4 1.943901 1_565
Co1 O1 2.071129 1_555
Co1 O5 2.088918 1_564
Co1 O2 2.093656 1_555
Co1 O4 2.114062 1_465
