# generated using pymatgen
data_MgSnO3
_symmetry_space_group_name_H-M   'P 1'
_cell_length_a   5.59935241
_cell_length_b   5.59935241
_cell_length_c   5.59935234
_cell_angle_alpha   56.16581344
_cell_angle_beta   56.16581341
_cell_angle_gamma   56.16581038
_symmetry_Int_Tables_number   1
_chemical_formula_structural   MgSnO3
_chemical_formula_sum   'Mg2 Sn2 O6'
_cell_volume   113.11787770
_cell_formula_units_Z   2
loop_
 _symmetry_equiv_pos_site_id
 _symmetry_equiv_pos_as_xyz
  1  'x, y, z'
loop_
 _atom_site_type_symbol
 _atom_site_label
 _atom_site_symmetry_multiplicity
 _atom_site_fract_x
 _atom_site_fract_y
 _atom_site_fract_z
 _atom_site_occupancy
  Mg  Mg0  1  0.35649755  0.35649755  0.35649755  1
  Mg  Mg1  1  0.64350245  0.64350245  0.64350245  1
  Sn  Sn0  1  0.14753151  0.14753151  0.14753151  1
  Sn  Sn1  1  0.85246849  0.85246849  0.85246849  1
  O  O0  1  0.44816865  0.75634124  0.04887097  1
  O  O1  1  0.75634124  0.04887097  0.44816865  1
  O  O2  1  0.95112903  0.55183135  0.24365876  1
  O  O3  1  0.04887097  0.44816865  0.75634124  1
  O  O4  1  0.24365876  0.95112903  0.55183135  1
  O  O5  1  0.55183135  0.24365876  0.95112903  1
loop_
_geom_bond_atom_site_label_1
_geom_bond_atom_site_label_2
_geom_bond_distance
_geom_bond_site_symmetry_2
Mg0 O1 2.060021 1_555
Mg0 O3 2.060021 1_555
Mg0 O0 2.060022 1_555
Mg0 O2 2.193257 1_455
Mg0 O5 2.193257 1_554
Mg0 O4 2.193257 1_545
Mg1 O4 2.060021 1_555
Mg1 O2 2.060021 1_555
Mg1 O5 2.060022 1_555
Mg1 O3 2.193257 1_655
Mg1 O0 2.193257 1_556
Mg1 O1 2.193257 1_565
O0 Sn0 2.035354 1_565
O0 Sn1 2.132925 1_554
O1 Sn0 2.035354 1_655
O1 Sn1 2.132925 1_545
O2 Sn1 2.035354 1_554
O2 Sn0 2.132925 1_655
O3 Sn0 2.035354 1_556
O3 Sn1 2.132925 1_455
O4 Sn1 2.035354 1_455
O4 Sn0 2.132925 1_565
O5 Sn1 2.035354 1_545
O5 Sn0 2.132925 1_556
