# generated using pymatgen
data_PrCo3Ni2
_symmetry_space_group_name_H-M   'P 1'
_cell_length_a   4.97599468
_cell_length_b   4.97599468
_cell_length_c   4.01418800
_cell_angle_alpha   90.00000000
_cell_angle_beta   90.00000000
_cell_angle_gamma   120.00000906
_symmetry_Int_Tables_number   1
_chemical_formula_structural   PrCo3Ni2
_chemical_formula_sum   'Pr1 Co3 Ni2'
_cell_volume   86.07719682
_cell_formula_units_Z   1
loop_
 _symmetry_equiv_pos_site_id
 _symmetry_equiv_pos_as_xyz
  1  'x, y, z'
loop_
 _atom_site_type_symbol
 _atom_site_label
 _atom_site_symmetry_multiplicity
 _atom_site_fract_x
 _atom_site_fract_y
 _atom_site_fract_z
 _atom_site_occupancy
  Pr  Pr0  1  0.00000000  0.00000000  0.00000000  1
  Co  Co0  1  0.50000000  0.50000000  0.50000000  1
  Co  Co1  1  0.50000000  0.00000000  0.50000000  1
  Co  Co2  1  0.00000000  0.50000000  0.50000000  1
  Ni  Ni0  1  0.66666700  0.33333300  0.00000000  1
  Ni  Ni1  1  0.33333300  0.66666700  0.00000000  1
loop_
_geom_bond_atom_site_label_1
_geom_bond_atom_site_label_2
_geom_bond_distance
_geom_bond_site_symmetry_2
Co0 Ni0 2.468160 1_556
Co0 Ni1 2.468160 1_555
Co0 Ni0 2.468160 1_555
Co0 Ni1 2.468160 1_556
Co0 Co1 2.487997 1_555
Co0 Co1 2.487997 1_565
Co0 Co2 2.487997 1_555
Co0 Co2 2.487997 1_655
Co0 Pr0 3.196648 1_666
Co0 Pr0 3.196648 1_555
Co0 Pr0 3.196648 1_556
Co0 Pr0 3.196648 1_665
Co1 Ni1 2.468157 1_545
Co1 Ni0 2.468157 1_555
Co1 Ni0 2.468157 1_556
Co1 Ni1 2.468157 1_546
Co1 Co2 2.487997 1_545
Co1 Co2 2.487997 1_655
Co1 Pr0 3.196648 1_656
Co1 Pr0 3.196648 1_655
Co1 Pr0 3.196648 1_556
Co1 Pr0 3.196648 1_555
Co2 Ni0 2.468157 1_455
Co2 Ni1 2.468157 1_556
Co2 Ni1 2.468157 1_555
Co2 Ni0 2.468157 1_456
Co2 Pr0 3.196648 1_565
Co2 Pr0 3.196648 1_555
Co2 Pr0 3.196648 1_556
Co2 Pr0 3.196648 1_566
Ni0 Ni1 2.872889 1_655
Ni0 Ni1 2.872889 1_545
Ni0 Pr0 2.872889 1_655
Ni0 Pr0 2.872893 1_555
Ni0 Pr0 2.872893 1_665
Ni0 Ni1 2.872898 1_555
Ni1 Pr0 2.872889 1_565
Ni1 Pr0 2.872893 1_555
Ni1 Pr0 2.872893 1_665
