# generated using pymatgen
data_C2N3
_symmetry_space_group_name_H-M   'P 1'
_cell_length_a   3.99897200
_cell_length_b   4.39672474
_cell_length_c   4.39672474
_cell_angle_alpha   119.20879819
_cell_angle_beta   90.00000000
_cell_angle_gamma   90.00000000
_symmetry_Int_Tables_number   1
_chemical_formula_structural   C2N3
_chemical_formula_sum   'C4 N6'
_cell_volume   67.47534548
_cell_formula_units_Z   2
loop_
 _symmetry_equiv_pos_site_id
 _symmetry_equiv_pos_as_xyz
  1  'x, y, z'
loop_
 _atom_site_type_symbol
 _atom_site_label
 _atom_site_symmetry_multiplicity
 _atom_site_fract_x
 _atom_site_fract_y
 _atom_site_fract_z
 _atom_site_occupancy
  C  C0  1  0.49798000  0.00670800  0.66961800  1
  C  C1  1  0.49798000  0.66961800  0.00670800  1
  C  C2  1  0.99798000  0.99329200  0.33038200  1
  C  C3  1  0.99798000  0.33038200  0.99329200  1
  N  N0  1  0.13730500  0.05627300  0.66925700  1
  N  N1  1  0.13730500  0.66925700  0.05627300  1
  N  N2  1  0.63730500  0.94372700  0.33074300  1
  N  N3  1  0.63730500  0.33074300  0.94372700  1
  N  N4  1  0.09143000  0.28994200  0.28994200  1
  N  N5  1  0.59143000  0.71005800  0.71005800  1
loop_
_geom_bond_atom_site_label_1
_geom_bond_atom_site_label_2
_geom_bond_distance
_geom_bond_site_symmetry_2
C0 N5 1.448715 1_545
C0 N3 1.454941 1_555
C0 N0 1.458816 1_555
C0 N2 1.484706 1_545
C1 N5 1.448715 1_554
C1 N2 1.454941 1_555
C1 N1 1.458816 1_555
C1 N3 1.484706 1_554
C2 N4 1.448715 1_665
C2 N1 1.454941 1_655
C2 N2 1.458816 1_555
C2 N0 1.484706 1_665
C3 N4 1.448715 1_656
C3 N0 1.454941 1_655
C3 N3 1.458816 1_555
C3 N1 1.484706 1_656
