# generated using pymatgen
data_CaSnS3
_symmetry_space_group_name_H-M   'P 1'
_cell_length_a   8.60726600
_cell_length_b   8.74571355
_cell_length_c   11.84583591
_cell_angle_alpha   69.62833062
_cell_angle_beta   83.86262972
_cell_angle_gamma   76.54816311
_symmetry_Int_Tables_number   1
_chemical_formula_structural   CaSnS3
_chemical_formula_sum   'Ca6 Sn6 S18'
_cell_volume   812.67988338
_cell_formula_units_Z   6
loop_
 _symmetry_equiv_pos_site_id
 _symmetry_equiv_pos_as_xyz
  1  'x, y, z'
loop_
 _atom_site_type_symbol
 _atom_site_label
 _atom_site_symmetry_multiplicity
 _atom_site_fract_x
 _atom_site_fract_y
 _atom_site_fract_z
 _atom_site_occupancy
  Ca  Ca0  1  0.24556700  0.24567900  0.00094900  1
  Ca  Ca1  1  0.75443300  0.75432100  0.99905100  1
  Ca  Ca2  1  0.39791800  0.73637200  0.36721300  1
  Ca  Ca3  1  0.60208200  0.26362800  0.63278700  1
  Ca  Ca4  1  0.07386400  0.42739200  0.33241400  1
  Ca  Ca5  1  0.92613600  0.57260800  0.66758600  1
  Sn  Sn0  1  0.60664900  0.34080200  0.29812800  1
  Sn  Sn1  1  0.39335100  0.65919800  0.70187200  1
  Sn  Sn2  1  0.73170000  0.23093200  0.00210800  1
  Sn  Sn3  1  0.26830000  0.76906800  0.99789200  1
  Sn  Sn4  1  0.96423200  0.97569400  0.31097200  1
  Sn  Sn5  1  0.03576800  0.02430600  0.68902800  1
  S  S0  1  0.74998100  0.55764000  0.25488600  1
  S  S1  1  0.25001900  0.44236000  0.74511400  1
  S  S2  1  0.38754400  0.39238500  0.43228700  1
  S  S3  1  0.61245600  0.60761500  0.56771300  1
  S  S4  1  0.50083500  0.31674200  0.12463800  1
  S  S5  1  0.49916500  0.68325800  0.87536200  1
  S  S6  1  0.10128300  0.57324700  0.06737300  1
  S  S7  1  0.89871700  0.42675300  0.93262700  1
  S  S8  1  0.40915100  0.85954600  0.11595400  1
  S  S9  1  0.59084900  0.14045400  0.88404600  1
  S  S10  1  0.87183600  0.95422600  0.12978200  1
  S  S11  1  0.12816400  0.04577400  0.87021800  1
  S  S12  1  0.16670900  0.13521600  0.26193300  1
  S  S13  1  0.83329100  0.86478400  0.73806700  1
  S  S14  1  0.07726200  0.69294200  0.42682300  1
  S  S15  1  0.92273800  0.30705800  0.57317700  1
  S  S16  1  0.72991400  0.06226000  0.42742600  1
  S  S17  1  0.27008600  0.93774000  0.57257400  1
loop_
_geom_bond_atom_site_label_1
_geom_bond_atom_site_label_2
_geom_bond_distance
_geom_bond_site_symmetry_2
Ca0 S1 2.919104 1_554
Ca0 S12 2.954460 1_555
Ca0 S4 3.052580 1_555
Ca0 S7 3.082265 1_454
Ca0 S11 3.085049 1_554
Ca0 S6 3.173919 1_555
Ca0 S8 3.199615 1_545
Ca0 S9 3.214308 1_554
Ca1 S0 2.919104 1_556
Ca1 S13 2.954460 1_555
Ca1 S5 3.052580 1_555
Ca1 S6 3.082265 1_656
Ca1 S10 3.085049 1_556
Ca1 S7 3.173919 1_555
Ca1 S9 3.199615 1_565
Ca1 S8 3.214308 1_556
Ca2 S8 2.789849 1_555
Ca2 S14 2.853876 1_555
Ca2 S2 2.854546 1_555
Ca2 S3 2.902976 1_555
Ca2 S17 3.426206 1_555
Ca2 S0 3.432015 1_555
Ca3 S9 2.789849 1_555
Ca3 S15 2.853876 1_555
Ca3 S3 2.854546 1_555
Ca3 S2 2.902976 1_555
Ca3 S16 3.426206 1_555
Ca3 S1 3.432015 1_555
Ca4 S0 2.873011 1_455
Ca4 S12 2.873636 1_555
Ca4 S14 2.914121 1_555
Ca4 S15 2.947485 1_455
Ca4 S6 2.955247 1_555
Ca4 S2 2.971407 1_555
Ca5 S1 2.873011 1_655
Ca5 S13 2.873636 1_555
Ca5 S15 2.914121 1_555
Ca5 S14 2.947485 1_655
Ca5 S7 2.955247 1_555
Ca5 S3 2.971407 1_555
S0 Sn0 2.378615 1_555
S1 Sn1 2.378615 1_555
S2 Sn0 2.397544 1_555
S3 Sn1 2.397544 1_555
S4 Sn0 2.426483 1_555
S4 Sn2 2.463013 1_555
S5 Sn1 2.426483 1_555
S5 Sn3 2.463013 1_555
S6 Sn3 2.363908 1_554
S7 Sn2 2.363908 1_556
S8 Sn3 2.373013 1_554
S9 Sn2 2.373013 1_556
S10 Sn4 2.447354 1_555
S10 Sn2 2.466265 1_565
S11 Sn5 2.447354 1_555
S11 Sn3 2.466265 1_545
S12 Sn4 2.381515 1_445
S13 Sn5 2.381515 1_665
S14 Sn4 2.397577 1_455
S15 Sn5 2.397577 1_655
S16 Sn0 2.439921 1_555
S16 Sn4 2.442462 1_545
S17 Sn1 2.439921 1_555
S17 Sn5 2.442462 1_565
