# generated using pymatgen
data_MgV6(HO3)6
_symmetry_space_group_name_H-M   'P 1'
_cell_length_a   5.31045070
_cell_length_b   9.43794351
_cell_length_c   8.09194700
_cell_angle_alpha   89.33616316
_cell_angle_beta   109.87039504
_cell_angle_gamma   90.66038069
_symmetry_Int_Tables_number   1
_chemical_formula_structural   MgV6(HO3)6
_chemical_formula_sum   'Mg1 V6 H6 O18'
_cell_volume   381.38237279
_cell_formula_units_Z   1
loop_
 _symmetry_equiv_pos_site_id
 _symmetry_equiv_pos_as_xyz
  1  'x, y, z'
loop_
 _atom_site_type_symbol
 _atom_site_label
 _atom_site_symmetry_multiplicity
 _atom_site_fract_x
 _atom_site_fract_y
 _atom_site_fract_z
 _atom_site_occupancy
  Mg  Mg0  1  0.22299780  0.56842056  0.36878963  1
  V  V0  1  0.46222117  0.42065255  0.15726487  1
  V  V1  1  0.52409750  0.92534910  0.83857291  1
  V  V2  1  0.50422426  0.55887313  0.81446195  1
  V  V3  1  0.47962359  0.06051928  0.17461290  1
  V  V4  1  0.89304309  0.24681995  0.03704278  1
  V  V5  1  0.10357459  0.74024390  0.95466466  1
  H  H0  1  0.80437710  0.66230429  0.40701139  1
  H  H1  1  0.22150886  0.14802443  0.61045841  1
  H  H2  1  0.02894200  0.24397612  0.69070722  1
  H  H3  1  0.21667769  0.33124705  0.59942475  1
  H  H4  1  0.94271886  0.75933978  0.30357671  1
  H  H5  1  0.79157398  0.90846826  0.41901472  1
  O  O0  1  0.61588897  0.39723469  0.96893056  1
  O  O1  1  0.38408573  0.89503433  0.03314117  1
  O  O2  1  0.33347705  0.56780416  0.98967898  1
  O  O3  1  0.62705974  0.08942394  0.99221389  1
  O  O4  1  0.15115477  0.39022069  0.19106653  1
  O  O5  1  0.84290871  0.88435067  0.84075773  1
  O  O6  1  0.81219563  0.61103941  0.81207281  1
  O  O7  1  0.16955016  0.10549042  0.17265447  1
  O  O8  1  0.62895466  0.24807420  0.22472450  1
  O  O9  1  0.35483280  0.74341245  0.78425695  1
  O  O10  1  0.96213770  0.25307396  0.85277957  1
  O  O11  1  0.08616823  0.70644689  0.15725352  1
  O  O12  1  0.59846388  0.52742502  0.33435344  1
  O  O13  1  0.35726310  0.01296581  0.65587819  1
  O  O14  1  0.32804232  0.48584973  0.61127437  1
  O  O15  1  0.64744912  0.97955794  0.38009983  1
  O  O16  1  0.10611536  0.24009663  0.58917402  1
  O  O17  1  0.96117158  0.72752568  0.42471058  1
loop_
_geom_bond_atom_site_label_1
_geom_bond_atom_site_label_2
_geom_bond_distance
_geom_bond_site_symmetry_2
Mg0 O14 1.999782 1_555
Mg0 O11 2.068733 1_555
Mg0 O12 2.144981 1_555
Mg0 O4 2.170397 1_555
Mg0 O17 2.210085 1_455
H0 O17 1.000943 1_555
H0 O12 1.646238 1_555
H1 O16 1.047545 1_555
H1 O13 1.452518 1_555
H2 O16 1.036466 1_555
H2 O10 1.474042 1_455
H3 O16 1.024003 1_555
H3 O14 1.559747 1_555
H4 O17 0.994550 1_555
H4 O11 1.693244 1_655
H5 O15 0.989047 1_555
O0 V2 1.927194 1_555
O0 V0 1.973501 1_556
O0 V4 1.990949 1_556
O1 V3 1.906727 1_565
O1 V1 1.973316 1_554
O1 V5 2.021090 1_554
O2 V0 1.892934 1_556
O2 V2 1.928228 1_555
O2 V5 2.004865 1_555
O3 V3 1.907149 1_556
O3 V1 1.950788 1_545
O3 V4 1.987265 1_556
O4 V0 1.783390 1_555
O4 V4 2.024574 1_455
O5 V1 1.735219 1_555
O5 V5 1.939727 1_655
O6 V2 1.708871 1_555
O6 V5 1.997016 1_655
O7 V3 1.700000 1_555
O7 V4 2.013797 1_455
O8 V0 1.849050 1_555
O8 V3 1.921549 1_555
O8 V4 2.392090 1_555
O9 V2 1.900714 1_555
O9 V1 1.913884 1_555
O9 V5 2.220709 1_555
O10 V4 1.652487 1_556
O11 V5 1.699392 1_554
O12 V0 1.704194 1_555
O13 V1 1.659055 1_545
O14 V2 1.737628 1_555
O15 V3 1.766885 1_565
