# generated using pymatgen
data_Al2O3
_symmetry_space_group_name_H-M   'P 1'
_cell_length_a   10.55620658
_cell_length_b   10.39215355
_cell_length_c   10.34260318
_cell_angle_alpha   91.54188151
_cell_angle_beta   89.05824396
_cell_angle_gamma   84.58213811
_symmetry_Int_Tables_number   1
_chemical_formula_structural   Al2O3
_chemical_formula_sum   'Al40 O60'
_cell_volume   1128.91833401
_cell_formula_units_Z   20
loop_
 _symmetry_equiv_pos_site_id
 _symmetry_equiv_pos_as_xyz
  1  'x, y, z'
loop_
 _atom_site_type_symbol
 _atom_site_label
 _atom_site_symmetry_multiplicity
 _atom_site_fract_x
 _atom_site_fract_y
 _atom_site_fract_z
 _atom_site_occupancy
  Al  Al0  1  0.97889400  0.24457400  0.60892100  1
  Al  Al1  1  0.59244000  0.63106600  0.37610800  1
  Al  Al2  1  0.21774500  0.26205400  0.18298200  1
  Al  Al3  1  0.25199300  0.50527300  0.97839400  1
  Al  Al4  1  0.57219800  0.63456200  0.63709500  1
  Al  Al5  1  0.91289800  0.34771000  0.13736900  1
  Al  Al6  1  0.20448100  0.99600700  0.92206200  1
  Al  Al7  1  0.17223600  0.68893100  0.25237700  1
  Al  Al8  1  0.93426600  0.86714000  0.86826700  1
  Al  Al9  1  0.85882300  0.71004100  0.33022900  1
  Al  Al10  1  0.00198300  0.47442500  0.76847200  1
  Al  Al11  1  0.48109300  0.87851800  0.45563400  1
  Al  Al12  1  0.99461600  0.62813900  0.06445600  1
  Al  Al13  1  0.29190700  0.54836900  0.44976200  1
  Al  Al14  1  0.79786000  0.04338800  0.25899900  1
  Al  Al15  1  0.59727400  0.31408500  0.67413800  1
  Al  Al16  1  0.38490600  0.86795000  0.75244200  1
  Al  Al17  1  0.49093500  0.96753600  0.02065800  1
  Al  Al18  1  0.37484600  0.45446200  0.67230500  1
  Al  Al19  1  0.69118700  0.17419500  0.05838900  1
  Al  Al20  1  0.43456500  0.45570200  0.19775100  1
  Al  Al21  1  0.18812100  0.97229800  0.59916500  1
  Al  Al22  1  0.23254500  0.24228600  0.47815300  1
  Al  Al23  1  0.63725500  0.80012900  0.20402600  1
  Al  Al24  1  0.77196200  0.46631800  0.94620100  1
  Al  Al25  1  0.03783400  0.72954700  0.55295300  1
  Al  Al26  1  0.79688000  0.82733000  0.63829300  1
  Al  Al27  1  0.35134400  0.15085800  0.73866400  1
  Al  Al28  1  0.00310800  0.06926700  0.09787600  1
  Al  Al29  1  0.66236000  0.09604400  0.52075200  1
  Al  Al30  1  0.96682100  0.98714500  0.44604600  1
  Al  Al31  1  0.48149300  0.14222600  0.28168400  1
  Al  Al32  1  0.11857400  0.29084300  0.91537200  1
  Al  Al33  1  0.26566800  0.99244000  0.22640700  1
  Al  Al34  1  0.63891500  0.03322900  0.78532000  1
  Al  Al35  1  0.83101400  0.53432300  0.59244000  1
  Al  Al36  1  0.96212500  0.39395000  0.38658300  1
  Al  Al37  1  0.48891000  0.57561700  0.88568000  1
  Al  Al38  1  0.71810000  0.74829800  0.91570700  1
  Al  Al39  1  0.68857000  0.37862200  0.39823100  1
  O  O0  1  0.99776000  0.23417900  0.02323200  1
  O  O1  1  0.58896500  0.08827200  0.95806100  1
  O  O2  1  0.42889500  0.01817400  0.17615700  1
  O  O3  1  0.88394500  0.80570000  0.47869400  1
  O  O4  1  0.75703700  0.89994800  0.83990400  1
  O  O5  1  0.10375700  0.87809100  0.49255500  1
  O  O6  1  0.73560400  0.32682300  0.02543400  1
  O  O7  1  0.06320300  0.35531100  0.23707300  1
  O  O8  1  0.22964800  0.84029300  0.24649300  1
  O  O9  1  0.68075100  0.95801000  0.62051500  1
  O  O10  1  0.29204000  0.39261600  0.52527400  1
  O  O11  1  0.23254100  0.15440000  0.86262500  1
  O  O12  1  0.74073500  0.67781700  0.68788200  1
  O  O13  1  0.04911700  0.30331500  0.75000400  1
  O  O14  1  0.80596600  0.07656700  0.43163500  1
  O  O15  1  0.04029800  0.95804600  0.95687100  1
  O  O16  1  0.39443400  0.29277300  0.22605300  1
  O  O17  1  0.32740800  0.53339400  0.82239900  1
  O  O18  1  0.98000400  0.02825700  0.27079200  1
  O  O19  1  0.43170400  0.28946000  0.71465500  1
  O  O20  1  0.26247500  0.12744300  0.59712700  1
  O  O21  1  0.09480200  0.48005300  0.90370300  1
  O  O22  1  0.41088000  0.58317900  0.56391000  1
  O  O23  1  0.85352900  0.35675900  0.55004300  1
  O  O24  1  0.14762700  0.64276500  0.43695700  1
  O  O25  1  0.60948400  0.83301900  0.03923200  1
  O  O26  1  0.16551400  0.62889400  0.07722500  1
  O  O27  1  0.01160800  0.07798700  0.58928700  1
  O  O28  1  0.99298700  0.70120700  0.22516900  1
  O  O29  1  0.18160300  0.08370400  0.10425900  1
  O  O30  1  0.99838200  0.57995900  0.64108300  1
  O  O31  1  0.83143300  0.07399500  0.08838000  1
  O  O32  1  0.52272500  0.04469300  0.42617000  1
  O  O33  1  0.31269300  0.55661800  0.28050300  1
  O  O34  1  0.56065500  0.47775400  0.73419400  1
  O  O35  1  0.07309400  0.29745300  0.47838500  1
  O  O36  1  0.89197200  0.73086500  0.95931700  1
  O  O37  1  0.89078200  0.50075700  0.06459200  1
  O  O38  1  0.65178700  0.59778100  0.94383900  1
  O  O39  1  0.21303400  0.91703700  0.76090600  1
  O  O40  1  0.71788800  0.65338500  0.26131300  1
  O  O41  1  0.56342900  0.47113000  0.30338000  1
  O  O42  1  0.95906700  0.82558900  0.70398300  1
  O  O43  1  0.61056900  0.27128500  0.50117400  1
  O  O44  1  0.23674100  0.34158400  0.03397000  1
  O  O45  1  0.46941300  0.01762800  0.75586000  1
  O  O46  1  0.25902100  0.14538900  0.33004100  1
  O  O47  1  0.76158500  0.88181500  0.26158900  1
  O  O48  1  0.82708800  0.33978200  0.29174400  1
  O  O49  1  0.67060300  0.52317500  0.50730100  1
  O  O50  1  0.49995800  0.78277300  0.30153700  1
  O  O51  1  0.89908800  0.55884400  0.42109500  1
  O  O52  1  0.42536700  0.51487600  0.03673200  1
  O  O53  1  0.68821700  0.17686700  0.71868600  1
  O  O54  1  0.35898800  0.91056300  0.94453700  1
  O  O55  1  0.58467100  0.74986800  0.51276800  1
  O  O56  1  0.35566800  0.88168800  0.57084800  1
  O  O57  1  0.83776700  0.46484700  0.79004000  1
  O  O58  1  0.64133700  0.15512200  0.22505800  1
  O  O59  1  0.49059200  0.72405400  0.78173200  1
loop_
_geom_bond_atom_site_label_1
_geom_bond_atom_site_label_2
_geom_bond_distance
_geom_bond_site_symmetry_2
Al0 O27 1.738798 1_655
Al0 O13 1.767594 1_655
Al0 O35 1.792347 1_655
Al0 O23 1.804077 1_555
Al1 O40 1.799505 1_555
Al1 O55 1.847133 1_555
Al1 O41 1.859706 1_555
Al1 O49 1.929514 1_555
Al1 O50 1.957808 1_555
Al2 O44 1.785550 1_555
Al2 O7 1.885700 1_555
Al2 O16 1.977699 1_555
Al2 O46 1.998597 1_555
Al2 O29 2.075152 1_555
Al3 O26 1.790480 1_556
Al3 O17 1.830109 1_555
Al3 O44 1.830653 1_556
Al3 O21 1.879421 1_555
Al3 O52 1.947072 1_556
Al4 O55 1.792708 1_555
Al4 O59 1.891108 1_555
Al4 O34 1.949469 1_555
Al4 O12 1.952496 1_555
Al4 O49 1.965839 1_555
Al4 O22 1.987534 1_555
Al5 O37 1.775050 1_555
Al5 O0 1.810723 1_555
Al5 O48 1.830355 1_555
Al5 O7 1.913149 1_655
Al5 O6 2.241541 1_555
Al6 O54 1.803540 1_555
Al6 O11 1.820889 1_565
Al6 O39 1.835001 1_555
Al6 O15 1.845343 1_555
Al6 O29 2.071447 1_566
Al7 O8 1.740465 1_555
Al7 O26 1.904652 1_555
Al7 O28 1.910417 1_455
Al7 O33 1.955604 1_555
Al7 O24 1.999651 1_555
Al8 O42 1.751161 1_555
Al8 O15 1.780979 1_655
Al8 O36 1.808054 1_555
Al8 O4 1.898791 1_555
Al9 O28 1.764768 1_555
Al9 O40 1.801598 1_555
Al9 O3 1.843202 1_555
Al9 O51 1.870620 1_555
Al9 O47 2.119041 1_555
Al10 O21 1.723695 1_555
Al10 O30 1.735420 1_455
Al10 O57 1.756630 1_455
Al10 O13 1.804874 1_555
Al11 O56 1.764036 1_555
Al11 O55 1.766304 1_555
Al11 O32 1.853504 1_565
Al11 O50 1.853799 1_555
Al12 O37 1.796621 1_555
Al12 O28 1.807881 1_555
Al12 O26 1.811765 1_655
Al12 O36 1.838185 1_554
Al12 O21 2.397543 1_654
Al13 O24 1.740983 1_555
Al13 O33 1.766075 1_555
Al13 O22 1.792622 1_555
Al13 O10 1.815896 1_555
Al14 O47 1.757896 1_545
Al14 O14 1.814305 1_555
Al14 O31 1.836213 1_555
Al14 O18 1.920473 1_555
Al14 O58 1.969842 1_555
Al15 O53 1.720100 1_555
Al15 O34 1.799806 1_555
Al15 O43 1.831618 1_555
Al15 O19 1.833582 1_555
Al16 O59 1.814681 1_555
Al16 O39 1.837725 1_555
Al16 O45 1.864581 1_565
Al16 O56 1.915273 1_555
Al16 O54 2.032263 1_555
Al17 O54 1.754173 1_554
Al17 O2 1.774005 1_565
Al17 O25 1.802543 1_555
Al17 O1 1.825152 1_564
Al18 O17 1.778144 1_555
Al18 O19 1.829507 1_555
Al18 O22 1.831282 1_555
Al18 O10 1.893892 1_555
Al18 O34 2.106689 1_555
Al19 O6 1.736696 1_555
Al19 O31 1.764554 1_555
Al19 O1 1.790905 1_554
Al19 O58 1.815468 1_555
Al20 O33 1.774311 1_555
Al20 O41 1.774904 1_555
Al20 O52 1.791688 1_555
Al20 O16 1.813853 1_555
Al21 O5 1.762436 1_555
Al21 O39 1.798593 1_555
Al21 O20 1.859097 1_565
Al21 O56 1.937587 1_555
Al21 O27 2.077144 1_565
Al22 O35 1.726096 1_555
Al22 O20 1.748977 1_555
Al22 O10 1.796371 1_555
Al22 O46 1.813415 1_555
Al23 O47 1.733919 1_555
Al23 O25 1.771044 1_555
Al23 O50 1.778010 1_555
Al23 O40 1.794777 1_555
Al24 O57 1.746752 1_555
Al24 O6 1.754707 1_556
Al24 O38 1.775364 1_555
Al24 O37 1.819981 1_556
Al25 O24 1.815098 1_555
Al25 O5 1.870277 1_555
Al25 O30 1.899182 1_455
Al25 O3 1.919916 1_455
Al25 O42 1.960663 1_455
Al26 O9 1.757087 1_555
Al26 O12 1.798688 1_555
Al26 O42 1.850995 1_555
Al26 O3 1.873789 1_555
Al26 O4 2.218319 1_555
Al27 O19 1.760398 1_555
Al27 O20 1.775175 1_555
Al27 O11 1.775883 1_555
Al27 O45 1.787928 1_555
Al28 O31 1.812611 1_455
Al28 O15 1.849770 1_544
Al28 O18 1.867030 1_455
Al28 O0 1.894897 1_455
Al28 O29 1.906339 1_555
Al29 O14 1.753468 1_555
Al29 O9 1.787085 1_545
Al29 O43 1.868660 1_555
Al29 O32 1.892689 1_555
Al29 O53 2.222597 1_555
Al30 O27 1.827999 1_665
Al30 O5 1.829794 1_655
Al30 O14 1.867312 1_565
Al30 O18 1.879353 1_565
Al30 O3 2.184253 1_555
Al31 O58 1.795143 1_555
Al31 O2 1.800226 1_555
Al31 O16 1.848684 1_555
Al31 O32 1.862656 1_555
Al31 O46 2.390065 1_555
Al32 O0 1.829782 1_456
Al32 O11 1.835804 1_555
Al32 O44 1.865027 1_556
Al32 O13 1.874790 1_555
Al32 O21 1.965823 1_555
Al33 O8 1.678193 1_555
Al33 O29 1.795942 1_565
Al33 O2 1.837284 1_565
Al33 O46 1.888114 1_565
Al34 O53 1.778838 1_555
Al34 O45 1.841400 1_555
Al34 O4 1.879105 1_545
Al34 O9 1.884091 1_545
Al34 O1 1.911601 1_555
Al35 O23 1.877234 1_555
Al35 O12 1.930759 1_555
Al35 O49 1.933067 1_555
Al35 O51 1.933617 1_555
Al35 O30 1.942707 1_555
Al35 O57 2.185762 1_555
Al36 O35 1.773501 1_655
Al36 O51 1.802940 1_555
Al36 O48 1.865148 1_555
Al36 O7 1.876774 1_655
Al36 O23 2.092076 1_555
Al37 O52 1.840559 1_556
Al37 O38 1.863440 1_555
Al37 O59 1.905121 1_555
Al37 O17 1.920908 1_555
Al37 O34 1.947414 1_555
Al38 O38 1.801652 1_555
Al38 O25 1.850045 1_556
Al38 O4 1.856207 1_555
Al38 O36 1.890470 1_555
Al38 O12 2.449756 1_555
Al39 O43 1.806752 1_555
Al39 O48 1.823646 1_555
Al39 O49 1.847467 1_555
Al39 O41 1.866868 1_555
Al39 O23 2.362957 1_555
