# generated using pymatgen
data_Li4TiFe3Sn2(PO4)6
_symmetry_space_group_name_H-M   'P 1'
_cell_length_a   9.32138892
_cell_length_b   9.29250062
_cell_length_c   9.46620144
_cell_angle_alpha   54.92604672
_cell_angle_beta   54.00555718
_cell_angle_gamma   55.73772639
_symmetry_Int_Tables_number   1
_chemical_formula_structural   Li4TiFe3Sn2(PO4)6
_chemical_formula_sum   'Li4 Ti1 Fe3 Sn2 P6 O24'
_cell_volume   510.55132810
_cell_formula_units_Z   1
loop_
 _symmetry_equiv_pos_site_id
 _symmetry_equiv_pos_as_xyz
  1  'x, y, z'
loop_
 _atom_site_type_symbol
 _atom_site_label
 _atom_site_symmetry_multiplicity
 _atom_site_fract_x
 _atom_site_fract_y
 _atom_site_fract_z
 _atom_site_occupancy
  Li  Li0  1  0.79627600  0.13047000  0.40169600  1
  Li  Li1  1  0.29327300  0.91432700  0.62691500  1
  Li  Li2  1  0.64479800  0.29384600  0.89719200  1
  Li  Li3  1  0.88982900  0.64232100  0.30420600  1
  Ti  Ti0  1  0.85069200  0.83922500  0.85651900  1
  Fe  Fe0  1  0.16913700  0.15248100  0.15491700  1
  Fe  Fe1  1  0.33112200  0.35206100  0.31341100  1
  Fe  Fe2  1  0.64552900  0.65381300  0.66256600  1
  Sn  Sn0  1  0.04108800  0.02132300  0.01397400  1
  Sn  Sn1  1  0.45509200  0.50226000  0.46976300  1
  P  P0  1  0.03551800  0.74928400  0.45592500  1
  P  P1  1  0.46252200  0.03734500  0.75254000  1
  P  P2  1  0.23106400  0.55275900  0.95397900  1
  P  P3  1  0.54607200  0.95222800  0.23714000  1
  P  P4  1  0.94943600  0.23642400  0.54361000  1
  P  P5  1  0.74938700  0.44749700  0.04232900  1
  O  O0  1  0.15415200  0.18910600  0.51237100  1
  O  O1  1  0.16790800  0.55492100  0.14700300  1
  O  O2  1  0.09647300  0.90795000  0.26335000  1
  O  O3  1  0.53757300  0.15294400  0.17199400  1
  O  O4  1  0.98592800  0.80333300  0.61003200  1
  O  O5  1  0.20049600  0.55612000  0.46084600  1
  O  O6  1  0.26691700  0.12244100  0.89072300  1
  O  O7  1  0.51387700  0.19581900  0.55403000  1
  O  O8  1  0.20248000  0.39686500  0.97255400  1
  O  O9  1  0.54815800  0.46649500  0.20731600  1
  O  O10  1  0.10801300  0.74757600  0.84735200  1
  O  O11  1  0.38734300  0.95205000  0.22917300  1
  O  O12  1  0.61681800  0.95661500  0.82221400  1
  O  O13  1  0.88573000  0.24988400  0.12390900  1
  O  O14  1  0.43927900  0.53786400  0.83092100  1
  O  O15  1  0.81452200  0.59874500  0.98931300  1
  O  O16  1  0.54617000  0.82772300  0.43480000  1
  O  O17  1  0.74288500  0.85539300  0.09989900  1
  O  O18  1  0.82088800  0.43486000  0.54364300  1
  O  O19  1  0.95075300  0.21048900  0.39599000  1
  O  O20  1  0.44416200  0.89175500  0.73993400  1
  O  O21  1  0.86018000  0.09616500  0.74377200  1
  O  O22  1  0.74926100  0.45023800  0.88011700  1
  O  O23  1  0.86919900  0.74398400  0.46506300  1
loop_
_geom_bond_atom_site_label_1
_geom_bond_atom_site_label_2
_geom_bond_distance
_geom_bond_site_symmetry_2
Li0 O19 1.922823 1_555
Li0 O13 1.988069 1_555
Li0 O7 2.030325 1_555
Li0 O2 2.471986 1_645
Li1 O16 2.004717 1_555
Li1 O0 2.029708 1_565
Li1 O20 2.084577 1_555
Li1 O10 2.190611 1_555
Li2 O3 1.995814 1_556
Li2 O14 2.022841 1_555
Li2 O22 2.055407 1_555
Li2 O21 2.236199 1_555
Li2 O18 2.556712 1_555
Li3 O18 1.981893 1_555
Li3 O1 2.019323 1_655
Li3 O23 2.086281 1_555
Li3 O17 2.279488 1_555
Li3 O16 2.517333 1_555
Fe0 O8 1.972926 1_554
Fe0 O11 2.002631 1_545
Fe0 O19 2.088074 1_455
Fe0 O2 2.216068 1_545
Fe0 O6 2.236020 1_554
Fe0 O13 2.407915 1_455
Fe1 O0 2.108185 1_555
Fe1 O1 2.127109 1_555
Fe1 O3 2.174484 1_555
Fe1 O9 2.244760 1_555
Fe1 O5 2.338888 1_555
Fe2 O23 2.032068 1_555
Fe2 O14 2.038250 1_555
Fe2 O20 2.126185 1_555
Fe2 O22 2.135024 1_555
Fe2 O16 2.185303 1_555
Fe2 O18 2.191716 1_555
O0 P4 1.569575 1_455
O1 P2 1.565296 1_554
O2 P0 1.567384 1_555
O2 Sn0 2.216067 1_565
O3 P3 1.560296 1_545
O4 P0 1.543397 1_655
O4 Ti0 2.026893 1_555
O5 P0 1.571323 1_555
O5 Sn1 2.176963 1_555
O6 P1 1.556525 1_555
O6 Sn0 2.180766 1_556
O7 P1 1.576391 1_555
O7 Sn1 2.278532 1_555
O8 P2 1.512373 1_555
O9 P5 1.577779 1_555
O9 Sn1 2.264105 1_555
O10 P2 1.592013 1_555
O10 Ti0 2.006559 1_455
O11 P3 1.526070 1_555
O12 P1 1.548498 1_565
O12 Ti0 1.948155 1_555
O13 P5 1.574715 1_555
O13 Sn0 2.235336 1_655
O14 P2 1.538959 1_555
O15 P5 1.545275 1_556
O15 Ti0 1.951753 1_555
O16 P3 1.533769 1_555
O17 P3 1.595761 1_555
O17 Ti0 1.961324 1_554
O18 P4 1.532443 1_555
O19 P4 1.540944 1_555
O20 P1 1.531045 1_565
O21 P4 1.584593 1_555
O21 Ti0 2.011418 1_545
O22 P5 1.521724 1_556
O23 P0 1.528679 1_655
