# generated using pymatgen
data_MgAg4Te8(MoO12)2
_symmetry_space_group_name_H-M   'P 1'
_cell_length_a   5.90080566
_cell_length_b   9.51444333
_cell_length_c   12.11802092
_cell_angle_alpha   103.86498600
_cell_angle_beta   89.67521642
_cell_angle_gamma   110.94029950
_symmetry_Int_Tables_number   1
_chemical_formula_structural   MgAg4Te8(MoO12)2
_chemical_formula_sum   'Mg1 Ag4 Te8 Mo2 O24'
_cell_volume   614.48836994
_cell_formula_units_Z   1
loop_
 _symmetry_equiv_pos_site_id
 _symmetry_equiv_pos_as_xyz
  1  'x, y, z'
loop_
 _atom_site_type_symbol
 _atom_site_label
 _atom_site_symmetry_multiplicity
 _atom_site_fract_x
 _atom_site_fract_y
 _atom_site_fract_z
 _atom_site_occupancy
  Mg  Mg0  1  0.76852185  0.59032756  0.24612421  1
  Ag  Ag0  1  0.89802217  0.43153382  0.41558200  1
  Ag  Ag1  1  0.20450528  0.47539274  0.23009908  1
  Ag  Ag2  1  0.04387829  0.58012224  0.74231820  1
  Ag  Ag3  1  0.52235988  0.45197220  0.77279096  1
  Te  Te0  1  0.98486691  0.68540386  0.04220998  1
  Te  Te1  1  0.33885174  0.30787592  0.43557103  1
  Te  Te2  1  0.01011884  0.30041352  0.90918812  1
  Te  Te3  1  0.68578732  0.68975240  0.56094667  1
  Te  Te4  1  0.57921854  0.84590030  0.87998107  1
  Te  Te5  1  0.83641349  0.17511831  0.59320344  1
  Te  Te6  1  0.41117158  0.20601240  0.09639420  1
  Te  Te7  1  0.28085263  0.85246301  0.39229718  1
  Mo  Mo0  1  0.17005557  0.99802752  0.73620649  1
  Mo  Mo1  1  0.86825006  0.99965151  0.24086253  1
  O  O0  1  0.88240768  0.98473964  0.84843600  1
  O  O1  1  0.90387511  0.00973176  0.62469449  1
  O  O2  1  0.16986846  0.04303874  0.14299959  1
  O  O3  1  0.14577119  0.99478043  0.36377263  1
  O  O4  1  0.79394064  0.77317400  0.17034500  1
  O  O5  1  0.01539755  0.22408636  0.35051549  1
  O  O6  1  0.25280582  0.23425007  0.82893984  1
  O  O7  1  0.99867388  0.77192357  0.66273012  1
  O  O8  1  0.80458772  0.49494856  0.07875365  1
  O  O9  1  0.33532130  0.50940548  0.43865578  1
  O  O10  1  0.16907332  0.51626715  0.92196927  1
  O  O11  1  0.67042642  0.48684500  0.57290369  1
  O  O12  1  0.37721932  0.96675644  0.85346792  1
  O  O13  1  0.39889937  0.04623403  0.64172764  1
  O  O14  1  0.69546053  0.05011013  0.15216366  1
  O  O15  1  0.61583932  0.94828357  0.35740812  1
  O  O16  1  0.78758879  0.67642170  0.91580212  1
  O  O17  1  0.18371344  0.29812739  0.58120288  1
  O  O18  1  0.19149840  0.30415033  0.06211822  1
  O  O19  1  0.84970022  0.67111850  0.41910161  1
  O  O20  1  0.48322412  0.69433962  0.73843773  1
  O  O21  1  0.85537629  0.30257806  0.74309317  1
  O  O22  1  0.52193460  0.35960391  0.24094453  1
  O  O23  1  0.15910638  0.69911828  0.25159867  1
loop_
_geom_bond_atom_site_label_1
_geom_bond_atom_site_label_2
_geom_bond_distance
_geom_bond_site_symmetry_2
Mg0 O19 2.046975 1_555
Mg0 O8 2.057532 1_555
Mg0 O4 2.114197 1_555
Mg0 O22 2.142878 1_555
Mg0 O23 2.156696 1_655
Ag0 O5 2.285206 1_655
Ag0 O19 2.386875 1_555
Ag0 O11 2.389640 1_555
Ag0 O9 2.414125 1_655
Ag1 O23 2.193559 1_555
Ag1 O18 2.264277 1_555
Ag1 O22 2.507303 1_555
Ag1 O9 2.557222 1_555
Ag2 O7 2.350721 1_455
Ag2 O20 2.431772 1_555
Ag2 O21 2.474420 1_455
Ag2 O10 2.574337 1_555
Ag2 O16 2.752709 1_455
Ag2 O11 2.763802 1_455
Ag3 O6 2.364771 1_555
Ag3 O16 2.425123 1_555
Ag3 O20 2.527062 1_555
Ag3 O11 2.625771 1_555
Ag3 O21 2.784728 1_555
Mo0 O13 1.770896 1_565
Mo0 O7 1.995125 1_455
Mo0 O12 2.020973 1_555
Mo0 O1 2.127596 1_465
Mo0 O6 2.136332 1_565
Mo0 O0 2.156256 1_455
Mo1 O14 1.742124 1_565
Mo1 O4 2.003014 1_555
Mo1 O15 2.058761 1_555
Mo1 O5 2.099349 1_665
Mo1 O2 2.104750 1_665
Mo1 O3 2.239923 1_655
O0 Te4 1.907049 1_555
O1 Te5 1.875486 1_555
O2 Te6 1.892933 1_555
O3 Te7 1.894009 1_555
O4 Te0 2.099726 1_555
O5 Te1 1.970198 1_555
O6 Te2 1.930776 1_555
O7 Te3 2.018216 1_555
O8 Te0 1.900723 1_555
O9 Te1 1.916404 1_555
O9 Te3 2.386787 1_555
O10 Te2 1.895743 1_555
O10 Te0 2.450060 1_456
O11 Te3 1.940380 1_555
O11 Te1 2.407186 1_555
O12 Te4 2.001827 1_555
O13 Te5 2.565163 1_555
O15 Te7 1.950473 1_555
O16 Te0 1.896114 1_556
O16 Te4 2.461515 1_555
O17 Te5 1.988595 1_455
O17 Te1 1.990098 1_555
O18 Te6 1.944672 1_555
O18 Te2 2.131870 1_554
O19 Te3 1.969560 1_555
O19 Te7 2.583935 1_655
O20 Te4 1.893148 1_555
O20 Te3 2.453545 1_555
O21 Te5 1.905776 1_555
O21 Te2 2.222490 1_655
O22 Te6 1.932477 1_555
O23 Te7 1.903735 1_555
O23 Te0 2.699519 1_455
