# generated using pymatgen
data_Tb7MnI12
_symmetry_space_group_name_H-M   'P 1'
_cell_length_a   9.71159086
_cell_length_b   9.72872552
_cell_length_c   9.68593102
_cell_angle_alpha   106.84551791
_cell_angle_beta   106.98954368
_cell_angle_gamma   107.27063736
_symmetry_Int_Tables_number   1
_chemical_formula_structural   Tb7MnI12
_chemical_formula_sum   'Tb7 Mn1 I12'
_cell_volume   761.39555540
_cell_formula_units_Z   1
loop_
 _symmetry_equiv_pos_site_id
 _symmetry_equiv_pos_as_xyz
  1  'x, y, z'
loop_
 _atom_site_type_symbol
 _atom_site_label
 _atom_site_symmetry_multiplicity
 _atom_site_fract_x
 _atom_site_fract_y
 _atom_site_fract_z
 _atom_site_occupancy
  Tb  Tb0  1  0.90795594  0.70680277  0.97582788  1
  Tb  Tb1  1  0.97696598  0.90611456  0.71084321  1
  Tb  Tb2  1  0.70827541  0.97908397  0.90809513  1
  Tb  Tb3  1  0.09203251  0.29317462  0.02410590  1
  Tb  Tb4  1  0.02301094  0.09387345  0.28913733  1
  Tb  Tb5  1  0.29170577  0.02092591  0.09193433  1
  Tb  Tb6  1  0.50003746  0.50002379  0.50004506  1
  Mn  Mn0  1  -0.00005415  0.00000179  -0.00012736  1
  I  I0  1  0.77104411  0.31911200  0.92403425  1
  I  I1  1  0.92541213  0.77374481  0.31781668  1
  I  I2  1  0.31749634  0.92410234  0.77093515  1
  I  I3  1  0.22905035  0.68095595  0.07597399  1
  I  I4  1  0.07459037  0.22616638  0.68216126  1
  I  I5  1  0.68256428  0.07591666  0.22914506  1
  I  I6  1  0.53658114  0.61483463  0.84192247  1
  I  I7  1  0.84092636  0.53470084  0.61159947  1
  I  I8  1  0.61470847  0.84133351  0.53608554  1
  I  I9  1  0.46340175  0.38514430  0.15812488  1
  I  I10  1  0.15916616  0.46532188  0.38837610  1
  I  I11  1  0.38512868  0.15866585  0.46396367  1
loop_
_geom_bond_atom_site_label_1
_geom_bond_atom_site_label_2
_geom_bond_distance
_geom_bond_site_symmetry_2
Mn0 Tb1 2.598695 1_444
Mn0 Tb4 2.600583 1_555
Mn0 Tb2 2.633730 1_444
Mn0 Tb5 2.634542 1_555
Mn0 Tb3 2.639066 1_555
Mn0 Tb0 2.639907 1_444
I0 Tb3 3.092546 1_656
I0 Tb2 3.128929 1_545
I0 Tb0 3.432395 1_555
I1 Tb4 3.094804 1_665
I1 Tb0 3.127514 1_554
I1 Tb1 3.473181 1_555
I2 Tb5 3.084598 1_566
I2 Tb1 3.127091 1_455
I2 Tb2 3.448205 1_555
I3 Tb0 3.093130 1_454
I3 Tb5 3.128455 1_565
I3 Tb3 3.433038 1_555
I4 Tb1 3.094121 1_445
I4 Tb3 3.127063 1_556
I4 Tb4 3.473078 1_555
I5 Tb2 3.084705 1_544
I5 Tb4 3.126517 1_655
I5 Tb5 3.448916 1_555
I6 Tb6 3.045170 1_555
I6 Tb0 3.188769 1_555
I6 Tb2 3.209258 1_555
I7 Tb6 3.045708 1_555
I7 Tb1 3.183729 1_555
I7 Tb0 3.203184 1_555
I8 Tb6 3.048466 1_555
I8 Tb2 3.189029 1_555
I8 Tb1 3.197574 1_555
I9 Tb6 3.045297 1_555
I9 Tb3 3.188710 1_555
I9 Tb5 3.208945 1_555
I10 Tb6 3.045475 1_555
I10 Tb4 3.184037 1_555
I10 Tb3 3.203331 1_555
I11 Tb6 3.048809 1_555
I11 Tb5 3.189444 1_555
I11 Tb4 3.196439 1_555
