# generated using pymatgen
data_LiNi3OF5
_symmetry_space_group_name_H-M   'P 1'
_cell_length_a   5.13350200
_cell_length_b   5.14463694
_cell_length_c   5.48293709
_cell_angle_alpha   116.67904743
_cell_angle_beta   90.76996690
_cell_angle_gamma   119.45358146
_symmetry_Int_Tables_number   1
_chemical_formula_structural   LiNi3OF5
_chemical_formula_sum   'Li1 Ni3 O1 F5'
_cell_volume   107.43908643
_cell_formula_units_Z   1
loop_
 _symmetry_equiv_pos_site_id
 _symmetry_equiv_pos_as_xyz
  1  'x, y, z'
loop_
 _atom_site_type_symbol
 _atom_site_label
 _atom_site_symmetry_multiplicity
 _atom_site_fract_x
 _atom_site_fract_y
 _atom_site_fract_z
 _atom_site_occupancy
  Li  Li0  1  0.32060900  0.16377400  0.56047400  1
  Ni  Ni0  1  0.69520900  0.33090200  0.97243300  1
  Ni  Ni1  1  0.28277800  0.62776900  0.04895000  1
  Ni  Ni2  1  0.70872000  0.87362300  0.43562500  1
  O  O0  1  0.80265100  0.25601700  0.24937900  1
  F  F0  1  0.51266200  0.45182300  0.75194400  1
  F  F1  1  0.18512900  0.93330000  0.23869800  1
  F  F2  1  0.80549500  0.05313200  0.74820000  1
  F  F3  1  0.19016900  0.74808400  0.74297300  1
  F  F4  1  0.49657900  0.56157800  0.25132300  1
loop_
_geom_bond_atom_site_label_1
_geom_bond_atom_site_label_2
_geom_bond_distance
_geom_bond_site_symmetry_2
Ni0 O0 1.862845 1_556
Ni2 O0 2.455570 1_565
F0 Li0 1.186808 1_555
F0 Ni0 1.986173 1_555
F0 Ni1 2.154622 1_556
F1 Li0 1.509903 1_565
F1 Ni1 1.767706 1_555
F2 Ni2 1.463398 1_545
F2 Ni0 1.763766 1_555
F2 Ni1 2.419193 1_656
F3 Ni1 2.150375 1_556
F3 Ni0 2.484914 1_565
F3 Li0 2.560170 1_565
F4 Ni2 1.256445 1_555
F4 Ni1 1.796081 1_555
F4 Ni0 2.094928 1_554
