# generated using pymatgen
data_Mn2SnSbPd4
_symmetry_space_group_name_H-M   'P 1'
_cell_length_a   7.88611332
_cell_length_b   7.88611332
_cell_length_c   7.88611378
_cell_angle_alpha   33.64612228
_cell_angle_beta   33.64612228
_cell_angle_gamma   33.64612302
_symmetry_Int_Tables_number   1
_chemical_formula_structural   Mn2SnSbPd4
_chemical_formula_sum   'Mn2 Sn1 Sb1 Pd4'
_cell_volume   134.12570550
_cell_formula_units_Z   1
loop_
 _symmetry_equiv_pos_site_id
 _symmetry_equiv_pos_as_xyz
  1  'x, y, z'
loop_
 _atom_site_type_symbol
 _atom_site_label
 _atom_site_symmetry_multiplicity
 _atom_site_fract_x
 _atom_site_fract_y
 _atom_site_fract_z
 _atom_site_occupancy
  Mn  Mn0  1  0.24948400  0.24948400  0.24948400  1
  Mn  Mn1  1  0.75051600  0.75051600  0.75051600  1
  Sn  Sn0  1  0.50000000  0.50000000  0.50000000  1
  Sb  Sb0  1  0.00000000  0.00000000  0.00000000  1
  Pd  Pd0  1  0.62467400  0.62467400  0.62467400  1
  Pd  Pd1  1  0.12505000  0.12505000  0.12505000  1
  Pd  Pd2  1  0.87495000  0.87495000  0.87495000  1
  Pd  Pd3  1  0.37532600  0.37532600  0.37532600  1
loop_
_geom_bond_atom_site_label_1
_geom_bond_atom_site_label_2
_geom_bond_distance
_geom_bond_site_symmetry_2
Mn0 Pd1 2.774644 1_555
Mn0 Pd2 2.790996 1_445
Mn0 Pd2 2.790996 1_454
Mn0 Pd2 2.790996 1_544
Mn0 Pd0 2.795845 1_554
Mn0 Pd0 2.795845 1_545
Mn0 Pd0 2.795845 1_455
Mn0 Pd3 2.806040 1_555
Mn0 Sb0 3.231310 1_565
Mn0 Sb0 3.231310 1_655
Mn0 Sb0 3.231311 1_556
Mn1 Pd2 2.774644 1_555
Mn1 Pd1 2.790996 1_665
Mn1 Pd1 2.790996 1_656
Mn1 Pd1 2.790996 1_566
Mn1 Pd3 2.795845 1_556
Mn1 Pd3 2.795845 1_655
Mn1 Pd3 2.795845 1_565
Mn1 Pd0 2.806040 1_555
Mn1 Sb0 3.231310 1_656
Mn1 Sb0 3.231310 1_566
Mn1 Sb0 3.231311 1_665
Pd0 Sn0 2.779996 1_555
Pd0 Sb0 2.796859 1_665
Pd0 Sb0 2.796859 1_566
Pd0 Sb0 2.796859 1_656
Pd1 Sb0 2.788380 1_555
Pd1 Sn0 2.794063 1_554
Pd1 Sn0 2.794063 1_455
Pd1 Sn0 2.794063 1_545
Pd2 Sb0 2.788380 1_666
Pd2 Sn0 2.794063 1_556
Pd2 Sn0 2.794063 1_655
Pd2 Sn0 2.794063 1_565
Pd3 Sn0 2.779996 1_555
Pd3 Sb0 2.796859 1_556
Pd3 Sb0 2.796859 1_655
Pd3 Sb0 2.796859 1_565
