# generated using pymatgen
data_Mn2SiSe4
_symmetry_space_group_name_H-M   'P 1'
_cell_length_a   6.24729522
_cell_length_b   7.80107733
_cell_length_c   13.35040831
_cell_angle_alpha   90.00000000
_cell_angle_beta   90.00000000
_cell_angle_gamma   90.00000000
_symmetry_Int_Tables_number   1
_chemical_formula_structural   Mn2SiSe4
_chemical_formula_sum   'Mn8 Si4 Se16'
_cell_volume   650.64060133
_cell_formula_units_Z   4
loop_
 _symmetry_equiv_pos_site_id
 _symmetry_equiv_pos_as_xyz
  1  'x, y, z'
loop_
 _atom_site_type_symbol
 _atom_site_label
 _atom_site_symmetry_multiplicity
 _atom_site_fract_x
 _atom_site_fract_y
 _atom_site_fract_z
 _atom_site_occupancy
  Mn  Mn0  1  0.49385565  0.75000000  0.23269278  1
  Mn  Mn1  1  0.99385565  0.25000000  0.26730722  1
  Mn  Mn2  1  0.50614435  0.25000000  0.76730722  1
  Mn  Mn3  1  0.00614435  0.75000000  0.73269278  1
  Mn  Mn4  1  0.50000000  0.50000000  0.50000000  1
  Mn  Mn5  1  0.00000000  0.50000000  -0.00000000  1
  Mn  Mn6  1  0.50000000  -0.00000000  0.50000000  1
  Mn  Mn7  1  0.00000000  -0.00000000  -0.00000000  1
  Si  Si0  1  0.59441608  0.75000000  0.91118337  1
  Si  Si1  1  0.09441608  0.25000000  0.58881663  1
  Si  Si2  1  0.40558392  0.25000000  0.08881663  1
  Si  Si3  1  0.90558392  0.75000000  0.41118337  1
  Se  Se0  1  0.26671365  0.75000000  0.40773230  1
  Se  Se1  1  0.76671365  0.25000000  0.09226770  1
  Se  Se2  1  0.73328635  0.25000000  0.59226770  1
  Se  Se3  1  0.23328635  0.75000000  0.90773230  1
  Se  Se4  1  0.75782004  0.75000000  0.56848314  1
  Se  Se5  1  0.25782004  0.25000000  0.93151686  1
  Se  Se6  1  0.24217996  0.25000000  0.43151686  1
  Se  Se7  1  0.74217996  0.75000000  0.06848314  1
  Se  Se8  1  0.74944879  0.97979545  0.33240514  1
  Se  Se9  1  0.24944879  0.02020455  0.16759486  1
  Se  Se10  1  0.25055121  0.47979545  0.66759486  1
  Se  Se11  1  0.75055121  0.52020455  0.83240514  1
  Se  Se12  1  0.25055121  0.02020455  0.66759486  1
  Se  Se13  1  0.75055121  0.97979545  0.83240514  1
  Se  Se14  1  0.74944879  0.52020455  0.33240514  1
  Se  Se15  1  0.24944879  0.47979545  0.16759486  1
loop_
_geom_bond_atom_site_label_1
_geom_bond_atom_site_label_2
_geom_bond_distance
_geom_bond_site_symmetry_2
Mn0 Se7 2.685653 1_555
Mn0 Se0 2.733951 1_555
Mn0 Se15 2.744059 1_555
Mn0 Se9 2.744059 1_565
Mn0 Se8 2.745061 1_555
Mn0 Se14 2.745061 1_555
Mn1 Se6 2.685653 1_655
Mn1 Se1 2.733951 1_555
Mn1 Se14 2.744059 1_555
Mn1 Se8 2.744059 1_545
Mn1 Se9 2.745061 1_655
Mn1 Se15 2.745061 1_655
Mn2 Se5 2.685653 1_555
Mn2 Se2 2.733951 1_555
Mn2 Se11 2.744059 1_555
Mn2 Se13 2.744059 1_545
Mn2 Se12 2.745061 1_555
Mn2 Se10 2.745061 1_555
Mn3 Se4 2.685653 1_455
Mn3 Se3 2.733951 1_555
Mn3 Se10 2.744059 1_555
Mn3 Se12 2.744059 1_565
Mn3 Se11 2.745061 1_455
Mn3 Se13 2.745061 1_455
Mn4 Se4 2.689561 1_555
Mn4 Se6 2.689561 1_555
Mn4 Se2 2.728544 1_555
Mn4 Se0 2.728544 1_555
Mn4 Se10 2.731230 1_555
Mn4 Se14 2.731230 1_555
Mn5 Se5 2.689561 1_554
Mn5 Se7 2.689561 1_455
Mn5 Se3 2.728544 1_554
Mn5 Se1 2.728544 1_455
Mn5 Se11 2.731230 1_454
Mn5 Se15 2.731230 1_555
Mn6 Se4 2.689561 1_545
Mn6 Se6 2.689561 1_555
Mn6 Se2 2.728544 1_555
Mn6 Se0 2.728544 1_545
Mn6 Se8 2.731230 1_545
Mn6 Se12 2.731230 1_555
Mn7 Se5 2.689561 1_554
Mn7 Se7 2.689561 1_445
Mn7 Se3 2.728544 1_544
Mn7 Se1 2.728544 1_455
Mn7 Se13 2.731230 1_444
Mn7 Se9 2.731230 1_555
Se0 Si3 2.256554 1_455
Se1 Si2 2.256554 1_555
Se2 Si1 2.256554 1_655
Se3 Si0 2.256554 1_555
Se4 Si3 2.293954 1_555
Se5 Si2 2.293954 1_556
Se6 Si1 2.293954 1_555
Se7 Si0 2.293954 1_554
Se8 Si3 2.295902 1_555
Se9 Si2 2.295902 1_555
Se10 Si1 2.295902 1_555
Se11 Si0 2.295902 1_555
Se12 Si1 2.295902 1_555
Se13 Si0 2.295902 1_555
Se14 Si3 2.295902 1_555
Se15 Si2 2.295902 1_555
