# generated using pymatgen
data_Pr5Pb4
_symmetry_space_group_name_H-M   'P 1'
_cell_length_a   8.52442308
_cell_length_b   8.61690930
_cell_length_c   16.23602823
_cell_angle_alpha   90.00000000
_cell_angle_beta   90.00000000
_cell_angle_gamma   90.00028338
_symmetry_Int_Tables_number   1
_chemical_formula_structural   Pr5Pb4
_chemical_formula_sum   'Pr20 Pb16'
_cell_volume   1192.60414845
_cell_formula_units_Z   4
loop_
 _symmetry_equiv_pos_site_id
 _symmetry_equiv_pos_as_xyz
  1  'x, y, z'
loop_
 _atom_site_type_symbol
 _atom_site_label
 _atom_site_symmetry_multiplicity
 _atom_site_fract_x
 _atom_site_fract_y
 _atom_site_fract_z
 _atom_site_occupancy
  Pr  Pr0  1  0.38149414  0.84196515  0.88293721  1
  Pr  Pr1  1  0.88149522  0.65804036  0.61706261  1
  Pr  Pr2  1  0.61847714  0.15804687  0.38268074  1
  Pr  Pr3  1  0.11848707  0.34194881  0.11732013  1
  Pr  Pr4  1  0.61847714  0.15804687  0.11731926  1
  Pr  Pr5  1  0.11848707  0.34194881  0.38267987  1
  Pr  Pr6  1  0.38149414  0.84196515  0.61706279  1
  Pr  Pr7  1  0.88149522  0.65804036  0.88293739  1
  Pr  Pr8  1  0.53433536  0.32407423  0.89788161  1
  Pr  Pr9  1  0.03433165  0.17593087  0.60211802  1
  Pr  Pr10  1  0.46567175  0.67597605  0.39762577  1
  Pr  Pr11  1  0.96566980  0.82402357  0.10237662  1
  Pr  Pr12  1  0.46567175  0.67597605  0.10237423  1
  Pr  Pr13  1  0.96566980  0.82402357  0.39762338  1
  Pr  Pr14  1  0.53433536  0.32407423  0.60211839  1
  Pr  Pr15  1  0.03433165  0.17593087  0.89788198  1
  Pr  Pr16  1  0.21294306  0.50316834  0.75000000  1
  Pr  Pr17  1  0.71294140  0.99683549  0.75000000  1
  Pr  Pr18  1  0.78704603  0.49686757  0.25000000  1
  Pr  Pr19  1  0.28704488  0.00313309  0.25000000  1
  Pb  Pb0  1  0.27587713  0.03114127  0.04436474  1
  Pb  Pb1  1  0.77590859  0.46883819  0.45563813  1
  Pb  Pb2  1  0.72412507  0.96872684  0.54400926  1
  Pb  Pb3  1  0.22412784  0.53128071  0.95599395  1
  Pb  Pb4  1  0.72412507  0.96872684  0.95599074  1
  Pb  Pb5  1  0.22412784  0.53128071  0.54400605  1
  Pb  Pb6  1  0.27587713  0.03114127  0.45563526  1
  Pb  Pb7  1  0.77590859  0.46883819  0.04436187  1
  Pb  Pb8  1  0.58010780  0.62119731  0.75000000  1
  Pb  Pb9  1  0.08010378  0.87880622  0.75000000  1
  Pb  Pb10  1  0.41990152  0.37883972  0.25000000  1
  Pb  Pb11  1  0.91989761  0.12115205  0.25000000  1
  Pb  Pb12  1  0.34173661  0.14435046  0.75000000  1
  Pb  Pb13  1  0.84173429  0.35564942  0.75000000  1
  Pb  Pb14  1  0.65826440  0.85559088  0.25000000  1
  Pb  Pb15  1  0.15827608  0.64442458  0.25000000  1
loop_
_geom_bond_atom_site_label_1
_geom_bond_atom_site_label_2
_geom_bond_distance
_geom_bond_site_symmetry_2
Pb0 Pr0 3.215152 1_544
Pb0 Pr3 3.221164 1_555
Pb0 Pr11 3.326384 1_445
Pb0 Pr4 3.335856 1_555
Pb0 Pr19 3.348765 1_555
Pb0 Pr15 3.384163 1_554
Pb0 Pr12 3.587603 1_545
Pb1 Pr1 3.215149 1_555
Pb1 Pr2 3.221196 1_555
Pb1 Pr10 3.326693 1_555
Pb1 Pr5 3.335681 1_655
Pb1 Pr18 3.348817 1_555
Pb1 Pr14 3.384189 1_555
Pb1 Pr13 3.587632 1_555
Pb2 Pr2 3.214545 1_565
Pb2 Pr1 3.220811 1_555
Pb2 Pr9 3.327223 1_665
Pb2 Pr6 3.336252 1_555
Pb2 Pr17 3.354585 1_555
Pb2 Pr13 3.382780 1_555
Pb2 Pr14 3.589348 1_565
Pb2 Pr10 4.106832 1_555
Pb3 Pr3 3.214544 1_556
Pb3 Pr0 3.220792 1_555
Pb3 Pr8 3.327272 1_555
Pb3 Pr7 3.336286 1_455
Pb3 Pr16 3.354640 1_555
Pb3 Pr12 3.382679 1_556
Pb3 Pr15 3.589390 1_555
Pb3 Pr11 4.106817 1_456
Pb4 Pr4 3.214545 1_566
Pb4 Pr7 3.220811 1_555
Pb4 Pr15 3.327223 1_665
Pb4 Pr0 3.336252 1_555
Pb4 Pr17 3.354585 1_555
Pb4 Pr11 3.382780 1_556
Pb4 Pr8 3.589348 1_565
Pb4 Pr12 4.106832 1_556
Pb5 Pr5 3.214544 1_555
Pb5 Pr6 3.220792 1_555
Pb5 Pr14 3.327272 1_555
Pb5 Pr1 3.336286 1_455
Pb5 Pr16 3.354640 1_555
Pb5 Pr10 3.382679 1_555
Pb5 Pr9 3.589390 1_555
Pb5 Pr13 4.106817 1_455
Pb6 Pr6 3.215152 1_545
Pb6 Pr5 3.221164 1_555
Pb6 Pr13 3.326384 1_445
Pb6 Pr2 3.335856 1_555
Pb6 Pr19 3.348765 1_555
Pb6 Pr9 3.384163 1_555
Pb6 Pr10 3.587603 1_545
Pb7 Pr7 3.215149 1_554
Pb7 Pr4 3.221196 1_555
Pb7 Pr12 3.326693 1_555
Pb7 Pr3 3.335681 1_655
Pb7 Pr18 3.348817 1_555
Pb7 Pr8 3.384189 1_554
Pb7 Pr11 3.587632 1_555
Pb8 Pr16 3.290960 1_555
Pb8 Pr0 3.338257 1_555
Pb8 Pr6 3.338257 1_555
Pb8 Pr7 3.370448 1_555
Pb8 Pr1 3.370448 1_555
Pb8 Pr17 3.429179 1_555
Pb8 Pr14 3.531590 1_555
Pb8 Pr8 3.531590 1_555
Pb9 Pr17 3.290952 1_455
Pb9 Pr7 3.338218 1_455
Pb9 Pr1 3.338218 1_455
Pb9 Pr0 3.370466 1_555
Pb9 Pr6 3.370466 1_555
Pb9 Pr16 3.429203 1_555
Pb9 Pr15 3.531607 1_565
Pb9 Pr9 3.531607 1_565
Pb10 Pb15 3.195496 1_555
Pb10 Pr18 3.290793 1_555
Pb10 Pr2 3.335525 1_555
Pb10 Pr4 3.335525 1_555
Pb10 Pr5 3.367986 1_555
Pb10 Pr3 3.367986 1_555
Pb10 Pr19 3.429801 1_555
Pb10 Pr10 3.528848 1_555
Pb10 Pr12 3.528848 1_555
Pb11 Pb14 3.195380 1_545
Pb11 Pr19 3.290802 1_655
Pb11 Pr5 3.335585 1_655
Pb11 Pr3 3.335585 1_655
Pb11 Pr4 3.368040 1_555
Pb11 Pr2 3.368040 1_555
Pb11 Pr18 3.429869 1_555
Pb11 Pr11 3.528777 1_545
Pb11 Pr13 3.528777 1_545
Pb12 Pb9 3.195274 1_545
Pb12 Pr16 3.281044 1_555
Pb12 Pr8 3.295249 1_555
Pb12 Pr14 3.295249 1_555
Pb12 Pr0 3.400402 1_545
Pb12 Pr6 3.400402 1_545
Pb12 Pr17 3.410078 1_545
Pb12 Pr9 3.564505 1_555
Pb12 Pr15 3.564505 1_555
Pb13 Pb8 3.195274 1_555
Pb13 Pr17 3.281000 1_545
Pb13 Pr15 3.295234 1_655
Pb13 Pr9 3.295234 1_655
Pb13 Pr7 3.400441 1_555
Pb13 Pr1 3.400441 1_555
Pb13 Pr16 3.410110 1_655
Pb13 Pr8 3.564458 1_555
Pb13 Pr14 3.564458 1_555
Pb14 Pr18 3.280242 1_555
Pb14 Pr12 3.291756 1_555
Pb14 Pr10 3.291756 1_555
Pb14 Pr2 3.398252 1_565
Pb14 Pr4 3.398252 1_565
Pb14 Pr19 3.410282 1_565
Pb14 Pr11 3.561672 1_555
Pb14 Pr13 3.561672 1_555
Pb15 Pr19 3.280075 1_565
Pb15 Pr13 3.291730 1_455
Pb15 Pr11 3.291730 1_455
Pb15 Pr5 3.398373 1_555
Pb15 Pr3 3.398373 1_555
Pb15 Pr18 3.410401 1_455
Pb15 Pr12 3.561625 1_555
Pb15 Pr10 3.561625 1_555
