# generated using pymatgen
data_CaTi4O6
_symmetry_space_group_name_H-M   'P 1'
_cell_length_a   5.18795427
_cell_length_b   5.18795427
_cell_length_c   15.13394200
_cell_angle_alpha   90.00000000
_cell_angle_beta   90.00000000
_cell_angle_gamma   145.60071307
_symmetry_Int_Tables_number   1
_chemical_formula_structural   CaTi4O6
_chemical_formula_sum   'Ca2 Ti8 O12'
_cell_volume   230.12273818
_cell_formula_units_Z   2
loop_
 _symmetry_equiv_pos_site_id
 _symmetry_equiv_pos_as_xyz
  1  'x, y, z'
loop_
 _atom_site_type_symbol
 _atom_site_label
 _atom_site_symmetry_multiplicity
 _atom_site_fract_x
 _atom_site_fract_y
 _atom_site_fract_z
 _atom_site_occupancy
  Ca  Ca0  1  0.34630600  0.65369400  0.75000000  1
  Ca  Ca1  1  0.65369400  0.34630600  0.25000000  1
  Ti  Ti0  1  0.14984800  0.85015200  0.03999700  1
  Ti  Ti1  1  0.60169700  0.39830300  0.62663100  1
  Ti  Ti2  1  0.85015200  0.14984800  0.96000300  1
  Ti  Ti3  1  0.39830300  0.60169700  0.37336900  1
  Ti  Ti4  1  0.14984800  0.85015200  0.46000300  1
  Ti  Ti5  1  0.85015200  0.14984800  0.53999700  1
  Ti  Ti6  1  0.39830300  0.60169700  0.12663100  1
  Ti  Ti7  1  0.60169700  0.39830300  0.87336900  1
  O  O0  1  0.50000000  0.50000000  0.50000000  1
  O  O1  1  0.50000000  0.50000000  0.00000000  1
  O  O2  1  0.96398100  0.03601900  0.84609500  1
  O  O3  1  0.03601900  0.96398100  0.15390500  1
  O  O4  1  0.03601900  0.96398100  0.34609500  1
  O  O5  1  0.96398100  0.03601900  0.65390500  1
  O  O6  1  0.23571900  0.76428100  0.90648800  1
  O  O7  1  0.76428100  0.23571900  0.09351200  1
  O  O8  1  0.76428100  0.23571900  0.40648800  1
  O  O9  1  0.23571900  0.76428100  0.59351200  1
  O  O10  1  0.66721000  0.33279000  0.75000000  1
  O  O11  1  0.33279000  0.66721000  0.25000000  1
loop_
_geom_bond_atom_site_label_1
_geom_bond_atom_site_label_2
_geom_bond_distance
_geom_bond_site_symmetry_2
Ca0 O10 2.346209 1_565
Ca0 O10 2.346209 1_455
Ca0 O5 2.414302 1_455
Ca0 O2 2.414302 1_455
Ca0 O2 2.414302 1_565
Ca0 O5 2.414302 1_565
Ca0 O6 2.609645 1_555
Ca0 O9 2.609645 1_555
Ca1 O11 2.346209 1_655
Ca1 O11 2.346209 1_545
Ca1 O4 2.414302 1_655
Ca1 O4 2.414302 1_545
Ca1 O3 2.414302 1_655
Ca1 O3 2.414302 1_545
Ca1 O7 2.609645 1_555
Ca1 O8 2.609645 1_555
O0 Ti3 2.165358 1_555
O0 Ti1 2.165358 1_555
O0 Ti5 2.219433 1_565
O0 Ti5 2.219433 1_455
O0 Ti4 2.219433 1_545
O0 Ti4 2.219433 1_655
O1 Ti6 2.165358 1_555
O1 Ti7 2.165358 1_554
O1 Ti2 2.219433 1_564
O1 Ti2 2.219433 1_454
O1 Ti0 2.219433 1_545
O1 Ti0 2.219433 1_655
O2 Ti2 2.060273 1_555
O2 Ti7 2.094541 1_545
O2 Ti7 2.094541 1_655
O3 Ti0 2.060273 1_555
O3 Ti6 2.094541 1_455
O3 Ti6 2.094541 1_565
O4 Ti4 2.060273 1_555
O4 Ti3 2.094541 1_455
O4 Ti3 2.094541 1_565
O5 Ti5 2.060273 1_555
O5 Ti1 2.094541 1_545
O5 Ti1 2.094541 1_655
O6 Ti2 2.072649 1_565
O6 Ti2 2.072649 1_455
O6 Ti7 2.090295 1_455
O6 Ti7 2.090295 1_565
O6 Ti0 2.192473 1_556
O7 Ti0 2.072649 1_655
O7 Ti0 2.072649 1_545
O7 Ti6 2.090295 1_545
O7 Ti6 2.090295 1_655
O7 Ti2 2.192473 1_554
O8 Ti4 2.072649 1_545
O8 Ti4 2.072649 1_655
O8 Ti3 2.090295 1_545
O8 Ti3 2.090295 1_655
O8 Ti5 2.192473 1_555
O9 Ti5 2.072649 1_565
O9 Ti5 2.072649 1_455
O9 Ti1 2.090295 1_455
O9 Ti1 2.090295 1_565
O9 Ti4 2.192473 1_555
O10 Ti1 1.976759 1_555
O10 Ti7 1.976759 1_555
O11 Ti3 1.976759 1_555
O11 Ti6 1.976759 1_555
