# generated using pymatgen
data_Ca7(MnN3)2
_symmetry_space_group_name_H-M   'P 1'
_cell_length_a   6.80238170
_cell_length_b   11.41903509
_cell_length_c   5.78642652
_cell_angle_alpha   90.00000585
_cell_angle_beta   88.44459665
_cell_angle_gamma   32.92940818
_symmetry_Int_Tables_number   1
_chemical_formula_structural   Ca7(MnN3)2
_chemical_formula_sum   'Ca7 Mn2 N6'
_cell_volume   244.02957924
_cell_formula_units_Z   1
loop_
 _symmetry_equiv_pos_site_id
 _symmetry_equiv_pos_as_xyz
  1  'x, y, z'
loop_
 _atom_site_type_symbol
 _atom_site_label
 _atom_site_symmetry_multiplicity
 _atom_site_fract_x
 _atom_site_fract_y
 _atom_site_fract_z
 _atom_site_occupancy
  Ca  Ca0  1  0.00000000  0.50000000  0.00000000  1
  Ca  Ca1  1  0.00000000  0.34960100  0.50000000  1
  Ca  Ca2  1  0.00000000  0.65039900  0.50000000  1
  Ca  Ca3  1  0.70826600  0.99142500  0.81919400  1
  Ca  Ca4  1  0.70826600  0.30031000  0.81919400  1
  Ca  Ca5  1  0.29173400  0.00857500  0.18080700  1
  Ca  Ca6  1  0.29173400  0.69969000  0.18080700  1
  Mn  Mn0  1  0.37123100  0.81438400  0.63416100  1
  Mn  Mn1  1  0.62876900  0.18561600  0.36583900  1
  N  N0  1  0.40216300  0.95632500  0.75469900  1
  N  N1  1  0.40216300  0.64151200  0.75469900  1
  N  N2  1  0.59783700  0.04367500  0.24530100  1
  N  N3  1  0.59783700  0.35848800  0.24530100  1
  N  N4  1  0.64010800  0.67994600  0.33689600  1
  N  N5  1  0.35989200  0.32005400  0.66310400  1
loop_
_geom_bond_atom_site_label_1
_geom_bond_atom_site_label_2
_geom_bond_distance
_geom_bond_site_symmetry_2
Ca0 N4 2.304828 1_455
Ca0 N5 2.304828 1_554
Ca1 N5 2.395148 1_555
Ca1 N4 2.395148 1_455
Ca1 N2 2.596199 1_555
Ca1 N1 2.596199 1_455
Ca2 N4 2.395148 1_455
Ca2 N5 2.395148 1_555
Ca2 N0 2.596199 1_455
Ca2 N3 2.596199 1_555
Ca3 N5 2.387822 1_565
Ca3 N0 2.465517 1_555
Ca3 N2 2.479256 1_566
Ca3 N1 2.574613 1_655
Ca4 N5 2.387831 1_555
Ca4 N1 2.465507 1_555
Ca4 N3 2.479256 1_556
Ca4 N0 2.574613 1_645
Ca5 N4 2.387820 1_545
Ca5 N2 2.465516 1_555
Ca5 N0 2.479262 1_544
Ca5 N3 2.574613 1_455
Ca6 N4 2.387828 1_555
Ca6 N3 2.465506 1_555
Ca6 N1 2.479261 1_554
Ca6 N2 2.574613 1_465
Mn0 N1 1.933461 1_555
Mn0 N0 1.933471 1_555
Mn0 N4 1.943323 1_555
Mn1 N3 1.933461 1_555
Mn1 N2 1.933471 1_555
Mn1 N5 1.943323 1_555
