# generated using pymatgen
data_Er3FeGe3
_symmetry_space_group_name_H-M   'P 1'
_cell_length_a   5.57730245
_cell_length_b   5.57730245
_cell_length_c   13.49420800
_cell_angle_alpha   90.00000000
_cell_angle_beta   90.00000000
_cell_angle_gamma   137.29549651
_symmetry_Int_Tables_number   1
_chemical_formula_structural   Er3FeGe3
_chemical_formula_sum   'Er6 Fe2 Ge6'
_cell_volume   284.68510262
_cell_formula_units_Z   2
loop_
 _symmetry_equiv_pos_site_id
 _symmetry_equiv_pos_as_xyz
  1  'x, y, z'
loop_
 _atom_site_type_symbol
 _atom_site_label
 _atom_site_symmetry_multiplicity
 _atom_site_fract_x
 _atom_site_fract_y
 _atom_site_fract_z
 _atom_site_occupancy
  Er  Er0  1  0.79206500  0.20793500  0.39960800  1
  Er  Er1  1  0.20793500  0.79206500  0.60039200  1
  Er  Er2  1  0.79206500  0.20793500  0.10039200  1
  Er  Er3  1  0.20793500  0.79206500  0.89960800  1
  Er  Er4  1  0.50649600  0.49350400  0.25000000  1
  Er  Er5  1  0.49350400  0.50649600  0.75000000  1
  Fe  Fe0  1  0.50000000  0.50000000  0.50000000  1
  Fe  Fe1  1  0.50000000  0.50000000  0.00000000  1
  Ge  Ge0  1  0.07458100  0.92541900  0.40794800  1
  Ge  Ge1  1  0.92541900  0.07458100  0.59205200  1
  Ge  Ge2  1  0.07458100  0.92541900  0.09205200  1
  Ge  Ge3  1  0.92541900  0.07458100  0.90794800  1
  Ge  Ge4  1  0.22731900  0.77268100  0.25000000  1
  Ge  Ge5  1  0.77268100  0.22731900  0.75000000  1
loop_
_geom_bond_atom_site_label_1
_geom_bond_atom_site_label_2
_geom_bond_distance
_geom_bond_site_symmetry_2
Er0 Ge0 2.937201 1_645
Er0 Ge4 2.941413 1_545
Er0 Ge4 2.941413 1_655
Er0 Ge1 2.943321 1_555
Er0 Ge0 3.039972 1_655
Er0 Ge0 3.039972 1_545
Er1 Ge1 2.937201 1_465
Er1 Ge5 2.941413 1_565
Er1 Ge5 2.941413 1_455
Er1 Ge0 2.943321 1_555
Er1 Ge1 3.039972 1_565
Er1 Ge1 3.039972 1_455
Er2 Ge2 2.937201 1_645
Er2 Ge4 2.941413 1_545
Er2 Ge4 2.941413 1_655
Er2 Ge3 2.943321 1_554
Er2 Ge2 3.039972 1_655
Er2 Ge2 3.039972 1_545
Er3 Ge3 2.937201 1_465
Er3 Ge5 2.941413 1_565
Er3 Ge5 2.941413 1_455
Er3 Ge2 2.943321 1_556
Er3 Ge3 3.039972 1_455
Er3 Ge3 3.039972 1_565
Er4 Ge4 2.900355 1_555
Er4 Ge0 3.027681 1_545
Er4 Ge2 3.027681 1_545
Er4 Ge0 3.027681 1_655
Er4 Ge2 3.027681 1_655
Er4 Ge4 3.063776 1_545
Er4 Ge4 3.063776 1_655
Er5 Ge5 2.900355 1_555
Er5 Ge3 3.027681 1_455
Er5 Ge1 3.027681 1_455
Er5 Ge1 3.027681 1_565
Er5 Ge3 3.027681 1_565
Er5 Ge5 3.063776 1_455
Er5 Ge5 3.063776 1_565
Fe0 Ge1 2.503411 1_455
Fe0 Ge0 2.503411 1_655
Fe0 Ge1 2.503411 1_565
Fe0 Ge0 2.503411 1_545
Fe1 Ge3 2.503411 1_454
Fe1 Ge2 2.503411 1_655
Fe1 Ge3 2.503411 1_564
Fe1 Ge2 2.503411 1_545
Ge0 Ge4 2.657195 1_555
Ge1 Ge5 2.657195 1_555
Ge2 Ge4 2.657195 1_555
Ge3 Ge5 2.657195 1_555
