# generated using pymatgen
data_CaSn4O9
_symmetry_space_group_name_H-M   'P 1'
_cell_length_a   8.31306200
_cell_length_b   8.31306200
_cell_length_c   5.11389400
_cell_angle_alpha   90.00000000
_cell_angle_beta   90.00000000
_cell_angle_gamma   90.00000000
_symmetry_Int_Tables_number   1
_chemical_formula_structural   CaSn4O9
_chemical_formula_sum   'Ca2 Sn8 O18'
_cell_volume   353.40587172
_cell_formula_units_Z   2
loop_
 _symmetry_equiv_pos_site_id
 _symmetry_equiv_pos_as_xyz
  1  'x, y, z'
loop_
 _atom_site_type_symbol
 _atom_site_label
 _atom_site_symmetry_multiplicity
 _atom_site_fract_x
 _atom_site_fract_y
 _atom_site_fract_z
 _atom_site_occupancy
  Ca  Ca0  1  0.00000000  0.50000000  0.72335300  1
  Ca  Ca1  1  0.50000000  0.00000000  0.27664700  1
  Sn  Sn0  1  0.68722400  0.39144900  0.26851100  1
  Sn  Sn1  1  0.39144900  0.31277600  0.73148900  1
  Sn  Sn2  1  0.89144900  0.81277600  0.26851100  1
  Sn  Sn3  1  0.18722400  0.89144900  0.73148900  1
  Sn  Sn4  1  0.31277600  0.60855100  0.26851100  1
  Sn  Sn5  1  0.10855100  0.18722400  0.26851100  1
  Sn  Sn6  1  0.81277600  0.10855100  0.73148900  1
  Sn  Sn7  1  0.60855100  0.68722400  0.73148900  1
  O  O0  1  0.50000000  0.50000000  0.50000000  1
  O  O1  1  0.00000000  0.00000000  0.50000000  1
  O  O2  1  0.49723400  0.73661900  0.08270500  1
  O  O3  1  0.76338100  0.99723400  0.08270500  1
  O  O4  1  0.23661900  0.00276600  0.08270500  1
  O  O5  1  0.50276600  0.26338100  0.08270500  1
  O  O6  1  0.00276600  0.76338100  0.91729500  1
  O  O7  1  0.73661900  0.50276600  0.91729500  1
  O  O8  1  0.26338100  0.49723400  0.91729500  1
  O  O9  1  0.99723400  0.23661900  0.91729500  1
  O  O10  1  0.21092700  0.39175700  0.42911500  1
  O  O11  1  0.10824300  0.71092700  0.42911500  1
  O  O12  1  0.89175700  0.28907300  0.42911500  1
  O  O13  1  0.78907300  0.60824300  0.42911500  1
  O  O14  1  0.71092700  0.89175700  0.57088500  1
  O  O15  1  0.39175700  0.78907300  0.57088500  1
  O  O16  1  0.60824300  0.21092700  0.57088500  1
  O  O17  1  0.28907300  0.10824300  0.57088500  1
loop_
_geom_bond_atom_site_label_1
_geom_bond_atom_site_label_2
_geom_bond_distance
_geom_bond_site_symmetry_2
Ca0 O7 2.403771 1_455
Ca0 O8 2.403771 1_555
Ca0 O9 2.403771 1_455
Ca0 O6 2.403771 1_555
Ca0 O13 2.479598 1_455
Ca0 O12 2.479598 1_455
Ca0 O11 2.479598 1_555
Ca0 O10 2.479598 1_555
Ca1 O4 2.403771 1_555
Ca1 O3 2.403771 1_545
Ca1 O5 2.403771 1_555
Ca1 O2 2.403771 1_545
Ca1 O15 2.479598 1_545
Ca1 O14 2.479598 1_545
Ca1 O17 2.479598 1_555
Ca1 O16 2.479598 1_555
O0 Sn7 2.153628 1_555
O0 Sn0 2.153628 1_555
O0 Sn1 2.153628 1_555
O0 Sn4 2.153628 1_555
O1 Sn6 2.153628 1_455
O1 Sn2 2.153628 1_445
O1 Sn3 2.153628 1_545
O1 Sn5 2.153628 1_555
O2 Sn7 2.061761 1_554
O2 Sn4 2.094676 1_555
O3 Sn6 2.061761 1_564
O3 Sn2 2.094676 1_555
O4 Sn3 2.061761 1_544
O4 Sn5 2.094676 1_555
O5 Sn1 2.061761 1_554
O5 Sn0 2.094676 1_555
O6 Sn2 2.061761 1_456
O6 Sn3 2.094676 1_555
O7 Sn0 2.061761 1_556
O7 Sn7 2.094676 1_555
O8 Sn4 2.061761 1_556
O8 Sn1 2.094676 1_555
O9 Sn5 2.061761 1_656
O9 Sn6 2.094676 1_555
O10 Sn5 2.071197 1_555
O10 Sn4 2.153931 1_555
O10 Sn1 2.252606 1_555
O11 Sn4 2.071197 1_555
O11 Sn2 2.153931 1_455
O11 Sn3 2.252606 1_555
O12 Sn0 2.071197 1_555
O12 Sn5 2.153931 1_655
O12 Sn6 2.252606 1_555
O13 Sn2 2.071197 1_555
O13 Sn0 2.153931 1_555
O13 Sn7 2.252606 1_555
O14 Sn7 2.071197 1_555
O14 Sn6 2.153931 1_565
O14 Sn2 2.252606 1_555
O15 Sn3 2.071197 1_555
O15 Sn7 2.153931 1_555
O15 Sn4 2.252606 1_555
O16 Sn6 2.071197 1_555
O16 Sn1 2.153931 1_555
O16 Sn0 2.252606 1_555
O17 Sn1 2.071197 1_555
O17 Sn3 2.153931 1_545
O17 Sn5 2.252606 1_555
