# generated using pymatgen
data_Pr2Mn3Cu9P7
_symmetry_space_group_name_H-M   'P 1'
_cell_length_a   9.41219254
_cell_length_b   9.41219254
_cell_length_c   3.78483700
_cell_angle_alpha   90.00000000
_cell_angle_beta   90.00000000
_cell_angle_gamma   120.00000379
_symmetry_Int_Tables_number   1
_chemical_formula_structural   Pr2Mn3Cu9P7
_chemical_formula_sum   'Pr2 Mn3 Cu9 P7'
_cell_volume   290.37511923
_cell_formula_units_Z   1
loop_
 _symmetry_equiv_pos_site_id
 _symmetry_equiv_pos_as_xyz
  1  'x, y, z'
loop_
 _atom_site_type_symbol
 _atom_site_label
 _atom_site_symmetry_multiplicity
 _atom_site_fract_x
 _atom_site_fract_y
 _atom_site_fract_z
 _atom_site_occupancy
  Pr  Pr0  1  0.33333300  0.66666700  0.00000000  1
  Pr  Pr1  1  0.00000000  0.00000000  0.50000000  1
  Mn  Mn0  1  0.75027800  0.53518300  0.50000000  1
  Mn  Mn1  1  0.46481700  0.21509500  0.50000000  1
  Mn  Mn2  1  0.78490500  0.24972200  0.50000000  1
  Cu  Cu0  1  0.71623900  0.76633100  0.00000000  1
  Cu  Cu1  1  0.23366900  0.94990700  0.00000000  1
  Cu  Cu2  1  0.05009300  0.28376100  0.00000000  1
  Cu  Cu3  1  0.94468200  0.48858400  0.00000000  1
  Cu  Cu4  1  0.51141600  0.45609700  0.00000000  1
  Cu  Cu5  1  0.54390300  0.05531800  0.00000000  1
  Cu  Cu6  1  0.09044200  0.71572900  0.50000000  1
  Cu  Cu7  1  0.28427100  0.37471300  0.50000000  1
  Cu  Cu8  1  0.62528700  0.90955800  0.50000000  1
  P  P0  1  0.94194200  0.72972500  0.00000000  1
  P  P1  1  0.27027500  0.21221700  0.00000000  1
  P  P2  1  0.78778300  0.05805800  0.00000000  1
  P  P3  1  0.06465500  0.44140500  0.50000000  1
  P  P4  1  0.55859500  0.62325000  0.50000000  1
  P  P5  1  0.37675000  0.93534500  0.50000000  1
  P  P6  1  0.66666700  0.33333300  0.00000000  1
loop_
_geom_bond_atom_site_label_1
_geom_bond_atom_site_label_2
_geom_bond_distance
_geom_bond_site_symmetry_2
Mn0 P4 2.331853 1_555
Mn0 P6 2.512942 1_555
Mn0 P6 2.512942 1_556
Mn0 P0 2.623964 1_556
Mn0 P0 2.623964 1_555
Mn1 P5 2.331853 1_545
Mn1 P6 2.512942 1_555
Mn1 P6 2.512942 1_556
Mn1 P1 2.623964 1_556
Mn1 P1 2.623964 1_555
Mn2 P3 2.331853 1_655
Mn2 P6 2.512937 1_555
Mn2 P6 2.512937 1_556
Mn2 P2 2.623964 1_556
Mn2 P2 2.623964 1_555
Cu0 P0 2.315934 1_555
Cu0 P4 2.366061 1_554
Cu0 P4 2.366061 1_555
Cu0 P2 2.478677 1_565
Cu0 Cu8 2.699155 1_554
Cu0 Cu8 2.699155 1_555
Cu0 Pr1 3.110877 1_665
Cu0 Pr1 3.110877 1_664
Cu0 Pr0 3.238505 1_555
Cu1 P1 2.315943 1_565
Cu1 P5 2.366058 1_555
Cu1 P5 2.366058 1_554
Cu1 P0 2.478674 1_455
Cu1 Cu6 2.699149 1_555
Cu1 Cu6 2.699149 1_554
Cu1 Pr1 3.110882 1_565
Cu1 Pr1 3.110882 1_564
Cu1 Pr0 3.238487 1_555
Cu2 P2 2.315939 1_455
Cu2 P3 2.366064 1_554
Cu2 P3 2.366064 1_555
Cu2 P1 2.478668 1_555
Cu2 Cu7 2.699149 1_554
Cu2 Cu7 2.699149 1_555
Cu2 Pr1 3.110875 1_554
Cu2 Pr1 3.110875 1_555
Cu2 Pr0 3.238500 1_555
Cu3 P6 2.271307 1_555
Cu3 P0 2.282669 1_555
Cu3 P3 2.356901 1_655
Cu3 P3 2.356901 1_654
Cu3 Cu6 2.664788 1_655
Cu3 Cu6 2.664788 1_654
Cu3 Pr0 3.171658 1_655
Cu4 P6 2.271307 1_555
Cu4 P1 2.282665 1_555
Cu4 P4 2.356906 1_554
Cu4 P4 2.356906 1_555
Cu4 Cu7 2.664789 1_555
Cu4 Cu7 2.664789 1_554
Cu4 Pr0 3.171675 1_555
Cu5 P6 2.271307 1_555
Cu5 P2 2.282660 1_555
Cu5 P5 2.356905 1_544
Cu5 P5 2.356905 1_545
Cu5 Cu8 2.664783 1_545
Cu5 Cu8 2.664783 1_544
Cu5 Pr0 3.171659 1_545
Cu6 P0 2.395062 1_456
Cu6 P0 2.395062 1_455
Cu6 P5 2.442199 1_555
Cu6 P3 2.469596 1_555
Cu6 Mn0 2.774493 1_455
Cu6 Pr0 3.174367 1_555
Cu6 Pr0 3.174367 1_556
Cu6 Pr1 3.187661 1_565
Cu7 P1 2.395062 1_556
Cu7 P1 2.395062 1_555
Cu7 P3 2.442199 1_555
Cu7 P4 2.469595 1_555
Cu7 Mn1 2.774493 1_555
Cu7 Pr0 3.174374 1_555
Cu7 Pr0 3.174374 1_556
Cu7 Pr1 3.187661 1_555
Cu8 P2 2.395062 1_565
Cu8 P2 2.395062 1_566
Cu8 P4 2.442199 1_555
Cu8 P5 2.469596 1_555
Cu8 Mn2 2.774493 1_565
Cu8 Pr0 3.174372 1_555
Cu8 Pr0 3.174372 1_556
Cu8 Pr1 3.187661 1_665
P0 Pr1 2.993505 1_665
P0 Pr1 2.993505 1_664
P1 Pr1 2.993505 1_554
P1 Pr1 2.993505 1_555
P2 Pr1 2.993505 1_655
P2 Pr1 2.993505 1_654
P3 Pr0 3.018265 1_555
P3 Pr0 3.018265 1_556
P4 Pr0 3.018270 1_555
P4 Pr0 3.018270 1_556
P5 Pr0 3.018262 1_556
P5 Pr0 3.018262 1_555
