# generated using pymatgen
data_Li9Mn2Co5O16
_symmetry_space_group_name_H-M   'P 1'
_cell_length_a   5.90245200
_cell_length_b   6.54992062
_cell_length_c   7.73184113
_cell_angle_alpha   86.35808546
_cell_angle_beta   80.39088686
_cell_angle_gamma   76.96331954
_symmetry_Int_Tables_number   1
_chemical_formula_structural   Li9Mn2Co5O16
_chemical_formula_sum   'Li9 Mn2 Co5 O16'
_cell_volume   287.02321993
_cell_formula_units_Z   1
loop_
 _symmetry_equiv_pos_site_id
 _symmetry_equiv_pos_as_xyz
  1  'x, y, z'
loop_
 _atom_site_type_symbol
 _atom_site_label
 _atom_site_symmetry_multiplicity
 _atom_site_fract_x
 _atom_site_fract_y
 _atom_site_fract_z
 _atom_site_occupancy
  Li  Li0  1  0.94044500  0.86209300  0.38478700  1
  Li  Li1  1  0.68534100  0.37646900  0.87337400  1
  Li  Li2  1  0.55378100  0.13912100  0.62066100  1
  Li  Li3  1  0.31330900  0.62248300  0.12178800  1
  Li  Li4  1  0.18901200  0.37622500  0.87770700  1
  Li  Li5  1  0.81205900  0.62235600  0.12819700  1
  Li  Li6  1  0.43698700  0.86909000  0.37563200  1
  Li  Li7  1  0.07034400  0.13417400  0.61871500  1
  Li  Li8  1  0.25081300  0.50002500  0.49977800  1
  Mn  Mn0  1  0.00332200  0.99648300  0.00033900  1
  Mn  Mn1  1  0.49766800  0.00136000  0.99834000  1
  Co  Co0  1  0.74950200  0.49984200  0.49911500  1
  Co  Co1  1  0.61981100  0.25248400  0.25713700  1
  Co  Co2  1  0.37291200  0.74978500  0.73592200  1
  Co  Co3  1  0.12810000  0.25485300  0.26214800  1
  Co  Co4  1  0.88088000  0.74043100  0.74373100  1
  O  O0  1  0.23085200  0.94283800  0.16703700  1
  O  O1  1  0.94612700  0.45612400  0.67997300  1
  O  O2  1  0.84085600  0.20664000  0.43780400  1
  O  O3  1  0.58373100  0.71085300  0.93063900  1
  O  O4  1  0.49627600  0.45315800  0.67065700  1
  O  O5  1  0.09307300  0.70011700  0.93173500  1
  O  O6  1  0.69405500  0.95302400  0.18209000  1
  O  O7  1  0.33804000  0.18869200  0.42421400  1
  O  O8  1  0.66023500  0.78996100  0.56174700  1
  O  O9  1  0.40862000  0.29780200  0.06562300  1
  O  O10  1  0.30474800  0.06090400  0.81782800  1
  O  O11  1  0.00433500  0.55080400  0.32860100  1
  O  O12  1  0.91594900  0.28933900  0.07219500  1
  O  O13  1  0.55301400  0.54049900  0.32150900  1
  O  O14  1  0.15364300  0.81761800  0.57934800  1
  O  O15  1  0.77215500  0.04435400  0.83163200  1
loop_
_geom_bond_atom_site_label_1
_geom_bond_atom_site_label_2
_geom_bond_distance
_geom_bond_site_symmetry_2
Li0 O11 2.049163 1_655
Li0 O14 2.083819 1_655
Li0 O8 2.084624 1_555
Li0 O2 2.246133 1_565
Li0 O6 2.275407 1_555
Li0 O0 2.320526 1_655
Li1 O4 2.045812 1_555
Li1 O1 2.091028 1_555
Li1 O9 2.148165 1_556
Li1 O15 2.151715 1_555
Li1 O12 2.185916 1_556
Li1 O3 2.189656 1_555
Li2 O4 2.058587 1_555
Li2 O10 2.059005 1_555
Li2 O7 2.104889 1_555
Li2 O2 2.127080 1_555
Li2 O15 2.218063 1_555
Li2 O8 2.284957 1_545
Li3 O0 2.082744 1_555
Li3 O5 2.086213 1_554
Li3 O9 2.126889 1_555
Li3 O3 2.141867 1_554
Li3 O13 2.226215 1_555
Li3 O11 2.328218 1_555
Li4 O9 2.070901 1_556
Li4 O10 2.079893 1_555
Li4 O5 2.118354 1_555
Li4 O12 2.163053 1_456
Li4 O1 2.226683 1_455
Li4 O4 2.333761 1_555
Li5 O11 2.040450 1_655
Li5 O13 2.089111 1_555
Li5 O6 2.164913 1_555
Li5 O3 2.169755 1_554
Li5 O12 2.179267 1_555
Li5 O5 2.181674 1_654
Li6 O8 2.075072 1_555
Li6 O7 2.083137 1_565
Li6 O6 2.087495 1_555
Li6 O0 2.146135 1_555
Li6 O13 2.151757 1_555
Li6 O14 2.167735 1_555
Li7 O14 2.050302 1_545
Li7 O2 2.067556 1_455
Li7 O7 2.068505 1_555
Li7 O1 2.126531 1_455
Li7 O10 2.198255 1_555
Li7 O15 2.351759 1_455
Li8 O4 2.079863 1_555
Li8 O7 2.083761 1_555
Li8 O11 2.085048 1_555
Li8 O13 2.120828 1_555
Li8 O14 2.131019 1_555
Li8 O1 2.145677 1_455
Mn0 O12 1.961504 1_465
Mn0 O0 1.973764 1_555
Mn0 O5 1.975656 1_554
Mn0 O15 2.002689 1_464
Mn0 O6 2.171456 1_455
Mn0 O10 2.181655 1_564
Mn1 O10 1.912529 1_555
Mn1 O3 1.937621 1_545
Mn1 O6 1.946652 1_546
Mn1 O15 1.956561 1_555
Mn1 O0 1.962520 1_546
Mn1 O9 1.973220 1_556
Co0 O4 1.891954 1_555
Co0 O11 1.902778 1_655
Co0 O13 1.909869 1_555
Co0 O8 1.924348 1_555
Co0 O1 1.930117 1_555
Co0 O2 1.940809 1_555
Co1 O13 1.918377 1_555
Co1 O6 2.011936 1_545
Co1 O2 2.030306 1_555
Co1 O7 2.033979 1_555
Co1 O9 2.056230 1_555
Co1 O12 2.114324 1_555
Co2 O14 1.879710 1_555
Co2 O4 1.980726 1_555
Co2 O8 2.037839 1_555
Co2 O3 2.076904 1_555
Co2 O10 2.103466 1_565
Co2 O5 2.114528 1_555
Co3 O7 1.870998 1_555
Co3 O11 1.979298 1_555
Co3 O12 2.054344 1_455
Co3 O2 2.058428 1_455
Co3 O9 2.108420 1_555
Co3 O0 2.137303 1_545
Co4 O1 1.894405 1_555
Co4 O14 2.016294 1_655
Co4 O8 2.035775 1_555
Co4 O5 2.039908 1_655
Co4 O15 2.070372 1_565
Co4 O3 2.115111 1_555
