# generated using pymatgen
data_LaMg14B
_symmetry_space_group_name_H-M   'P 1'
_cell_length_a   6.71543486
_cell_length_b   6.03157969
_cell_length_c   10.24192479
_cell_angle_alpha   90.00000000
_cell_angle_beta   90.00000000
_cell_angle_gamma   116.68489205
_symmetry_Int_Tables_number   1
_chemical_formula_structural   LaMg14B
_chemical_formula_sum   'La1 Mg14 B1'
_cell_volume   370.66058701
_cell_formula_units_Z   1
loop_
 _symmetry_equiv_pos_site_id
 _symmetry_equiv_pos_as_xyz
  1  'x, y, z'
loop_
 _atom_site_type_symbol
 _atom_site_label
 _atom_site_symmetry_multiplicity
 _atom_site_fract_x
 _atom_site_fract_y
 _atom_site_fract_z
 _atom_site_occupancy
  La  La0  1  0.10675890  0.30337895  0.12500000  1
  Mg  Mg0  1  0.15705345  0.32852623  0.62500000  1
  Mg  Mg1  1  0.14380949  0.82190424  0.62500000  1
  Mg  Mg2  1  0.58474121  0.27840746  0.12500000  1
  Mg  Mg3  1  0.65333353  0.33118975  0.62500000  1
  Mg  Mg4  1  0.58474121  0.80633275  0.12500000  1
  Mg  Mg5  1  0.65333353  0.82214278  0.62500000  1
  Mg  Mg6  1  0.34638282  0.17209706  0.37920258  1
  Mg  Mg7  1  0.34638282  0.17209706  0.87079742  1
  Mg  Mg8  1  0.34638282  0.67428675  0.37920258  1
  Mg  Mg9  1  0.34638282  0.67428675  0.87079742  1
  Mg  Mg10  1  0.82212763  0.16106432  0.38864266  1
  Mg  Mg11  1  0.82212763  0.16106432  0.86135734  1
  Mg  Mg12  1  0.92024598  0.71012349  0.29575873  1
  Mg  Mg13  1  0.92024598  0.71012349  0.95424127  1
  B  B0  1  0.24595017  0.87297459  0.12500000  1
loop_
_geom_bond_atom_site_label_1
_geom_bond_atom_site_label_2
_geom_bond_distance
_geom_bond_site_symmetry_2
La0 Mg10 3.194970 1_455
La0 Mg11 3.194970 1_454
La0 Mg4 3.280260 1_555
La0 Mg2 3.280261 1_555
La0 Mg7 3.337551 1_554
La0 Mg6 3.337551 1_555
La0 Mg9 3.337557 1_554
La0 Mg8 3.337557 1_555
La0 Mg4 3.440569 1_445
La0 Mg2 3.440569 1_455
La0 Mg13 3.661421 1_444
La0 Mg12 3.661421 1_445
La0 Mg13 3.661431 1_454
La0 Mg12 3.661431 1_455
Mg0 Mg1 3.016837 1_555
Mg0 Mg1 3.016837 1_545
Mg0 Mg10 3.146203 1_455
Mg0 Mg11 3.146203 1_455
Mg0 Mg6 3.149873 1_555
Mg0 Mg7 3.149873 1_555
Mg0 Mg8 3.149879 1_555
Mg0 Mg9 3.149879 1_555
Mg0 Mg5 3.325553 1_555
Mg0 Mg3 3.325553 1_555
Mg0 Mg5 3.389943 1_445
Mg0 Mg3 3.389943 1_455
Mg1 Mg8 3.173127 1_555
Mg1 Mg9 3.173127 1_555
Mg1 Mg6 3.173133 1_565
Mg1 Mg7 3.173133 1_565
Mg1 Mg3 3.294405 1_455
Mg1 Mg5 3.294406 1_455
Mg1 Mg3 3.421029 1_565
Mg1 Mg5 3.421030 1_555
Mg3 Mg5 2.961222 1_555
Mg3 Mg5 3.070357 1_545
Mg3 Mg6 3.119409 1_555
Mg3 Mg7 3.119409 1_555
Mg5 Mg8 3.119410 1_555
Mg5 Mg9 3.119410 1_555
Mg10 Mg3 3.040157 1_555
Mg10 Mg5 3.040163 1_545
Mg10 Mg12 3.216610 1_555
Mg10 Mg12 3.216610 1_545
Mg10 Mg8 3.226714 1_545
Mg10 Mg6 3.226714 1_555
Mg10 Mg2 3.368496 1_555
Mg10 Mg4 3.368501 1_545
Mg10 Mg8 3.492562 1_655
Mg10 Mg6 3.492562 1_655
Mg11 Mg3 3.040157 1_555
Mg11 Mg5 3.040163 1_545
Mg11 Mg13 3.216610 1_555
Mg11 Mg13 3.216610 1_545
Mg11 Mg9 3.226714 1_545
Mg11 Mg7 3.226714 1_555
Mg11 Mg2 3.368496 1_556
Mg11 Mg4 3.368501 1_546
Mg11 Mg9 3.492562 1_655
Mg11 Mg7 3.492562 1_655
B0 Mg2 2.481764 1_565
B0 Mg4 2.481765 1_555
B0 Mg13 2.622568 1_454
B0 Mg12 2.622568 1_455
B0 La0 3.129297 1_555
B0 La0 3.129297 1_565
