# generated using pymatgen
data_Mg6GaBi
_symmetry_space_group_name_H-M   'P 1'
_cell_length_a   5.25441100
_cell_length_b   6.56772400
_cell_length_c   10.83988000
_cell_angle_alpha   90.00000000
_cell_angle_beta   90.00000000
_cell_angle_gamma   90.00000000
_symmetry_Int_Tables_number   1
_chemical_formula_structural   Mg6GaBi
_chemical_formula_sum   'Mg12 Ga2 Bi2'
_cell_volume   374.07906900
_cell_formula_units_Z   2
loop_
 _symmetry_equiv_pos_site_id
 _symmetry_equiv_pos_as_xyz
  1  'x, y, z'
loop_
 _atom_site_type_symbol
 _atom_site_label
 _atom_site_symmetry_multiplicity
 _atom_site_fract_x
 _atom_site_fract_y
 _atom_site_fract_z
 _atom_site_occupancy
  Mg  Mg0  1  0.50000000  0.24923900  0.58415900  1
  Mg  Mg1  1  0.50000000  0.75076100  0.58415900  1
  Mg  Mg2  1  0.00000000  0.25915700  0.41672200  1
  Mg  Mg3  1  0.00000000  0.74084300  0.41672200  1
  Mg  Mg4  1  0.00000000  0.00000000  0.66890800  1
  Mg  Mg5  1  0.00000000  0.00000000  0.16393800  1
  Mg  Mg6  1  0.50000000  0.74923900  0.08415900  1
  Mg  Mg7  1  0.50000000  0.25076100  0.08415900  1
  Mg  Mg8  1  0.00000000  0.75915700  0.91672200  1
  Mg  Mg9  1  0.00000000  0.24084300  0.91672200  1
  Mg  Mg10  1  0.00000000  0.50000000  0.16890800  1
  Mg  Mg11  1  0.00000000  0.50000000  0.66393800  1
  Ga  Ga0  1  0.50000000  0.00000000  0.83242100  1
  Ga  Ga1  1  0.50000000  0.50000000  0.33242100  1
  Bi  Bi0  1  0.50000000  0.00000000  0.33297500  1
  Bi  Bi1  1  0.50000000  0.50000000  0.83297500  1
loop_
_geom_bond_atom_site_label_1
_geom_bond_atom_site_label_2
_geom_bond_distance
_geom_bond_site_symmetry_2
Mg0 Mg2 3.193848 1_555
Mg0 Mg2 3.193848 1_655
Mg0 Mg11 3.219077 1_555
Mg0 Mg11 3.219077 1_655
Mg0 Mg4 3.228887 1_655
Mg0 Mg4 3.228887 1_555
Mg0 Mg1 3.273866 1_545
Mg0 Mg1 3.293858 1_555
Mg1 Mg3 3.193848 1_555
Mg1 Mg3 3.193848 1_655
Mg1 Mg11 3.219077 1_555
Mg1 Mg11 3.219077 1_655
Mg1 Mg4 3.228887 1_565
Mg1 Mg4 3.228887 1_665
Mg2 Mg3 3.163581 1_555
Mg2 Mg4 3.220245 1_555
Mg2 Mg5 3.225750 1_555
Mg2 Mg3 3.404143 1_545
Mg3 Mg4 3.220245 1_565
Mg3 Mg5 3.225750 1_565
Mg4 Mg8 3.117391 1_545
Mg4 Mg9 3.117391 1_555
Mg5 Mg9 3.111807 1_554
Mg5 Mg8 3.111807 1_544
Mg5 Mg7 3.219077 1_455
Mg5 Mg6 3.219077 1_545
Mg5 Mg7 3.219077 1_555
Mg5 Mg6 3.219077 1_445
Mg6 Mg8 3.193848 1_554
Mg6 Mg8 3.193848 1_654
Mg6 Mg7 3.273866 1_555
Mg6 Mg7 3.293858 1_565
Mg7 Mg9 3.193848 1_554
Mg7 Mg9 3.193848 1_654
Mg8 Mg9 3.163581 1_565
Mg8 Mg9 3.404143 1_555
Mg10 Mg3 3.117391 1_555
Mg10 Mg2 3.117391 1_555
Mg10 Mg8 3.220245 1_554
Mg10 Mg9 3.220245 1_554
Mg10 Mg6 3.228887 1_455
Mg10 Mg7 3.228887 1_455
Mg10 Mg6 3.228887 1_555
Mg10 Mg7 3.228887 1_555
Mg10 Mg5 3.284304 1_555
Mg10 Mg5 3.284304 1_565
Mg11 Mg3 3.111807 1_555
Mg11 Mg2 3.111807 1_555
Mg11 Mg8 3.225750 1_555
Mg11 Mg9 3.225750 1_555
Mg11 Mg4 3.284304 1_565
Mg11 Mg4 3.284304 1_555
Ga0 Mg0 3.149878 1_555
Ga0 Mg1 3.149878 1_545
Ga0 Mg4 3.169200 1_655
Ga0 Mg4 3.169200 1_555
Ga0 Mg6 3.187284 1_546
Ga0 Mg7 3.187284 1_556
Ga0 Mg9 3.199894 1_655
Ga0 Mg8 3.199894 1_645
Ga0 Mg8 3.199894 1_545
Ga0 Mg9 3.199894 1_555
Ga1 Mg7 3.149878 1_555
Ga1 Mg6 3.149878 1_555
Ga1 Mg10 3.169200 1_555
Ga1 Mg10 3.169200 1_655
Ga1 Mg0 3.187284 1_555
Ga1 Mg1 3.187284 1_555
Ga1 Mg3 3.199894 1_555
Ga1 Mg3 3.199894 1_655
Ga1 Mg2 3.199894 1_555
Ga1 Mg2 3.199894 1_655
Bi0 Mg6 3.160208 1_545
Bi0 Mg7 3.160208 1_555
Bi0 Mg0 3.176982 1_555
Bi0 Mg1 3.176982 1_545
Bi0 Mg5 3.203074 1_655
Bi0 Mg5 3.203074 1_555
Bi0 Mg2 3.259351 1_555
Bi0 Mg2 3.259351 1_655
Bi0 Mg3 3.259351 1_645
Bi0 Mg3 3.259351 1_545
Bi0 Ga1 3.283867 1_555
Bi0 Ga1 3.283867 1_545
Bi1 Mg1 3.160208 1_555
Bi1 Mg0 3.160208 1_555
Bi1 Mg6 3.176982 1_556
Bi1 Mg7 3.176982 1_556
Bi1 Mg11 3.203074 1_555
Bi1 Mg11 3.203074 1_655
Bi1 Mg8 3.259351 1_655
Bi1 Mg9 3.259351 1_555
Bi1 Mg9 3.259351 1_655
Bi1 Mg8 3.259351 1_555
Bi1 Ga0 3.283867 1_565
Bi1 Ga0 3.283867 1_555
