# generated using pymatgen
data_Ce2Ni12P5
_symmetry_space_group_name_H-M   'P 1'
_cell_length_a   3.66210800
_cell_length_b   10.80768800
_cell_length_c   13.11628815
_cell_angle_alpha   72.07858846
_cell_angle_beta   90.00000000
_cell_angle_gamma   90.00000000
_symmetry_Int_Tables_number   1
_chemical_formula_structural   Ce2Ni12P5
_chemical_formula_sum   'Ce4 Ni24 P10'
_cell_volume   493.94014112
_cell_formula_units_Z   2
loop_
 _symmetry_equiv_pos_site_id
 _symmetry_equiv_pos_as_xyz
  1  'x, y, z'
loop_
 _atom_site_type_symbol
 _atom_site_label
 _atom_site_symmetry_multiplicity
 _atom_site_fract_x
 _atom_site_fract_y
 _atom_site_fract_z
 _atom_site_occupancy
  Ce  Ce0  1  0.25000000  0.27916300  0.68315400  1
  Ce  Ce1  1  0.75000000  0.72083700  0.31684600  1
  Ce  Ce2  1  0.25000000  0.24652600  0.18772400  1
  Ce  Ce3  1  0.75000000  0.75347400  0.81227600  1
  Ni  Ni0  1  0.25000000  0.83792900  0.13869900  1
  Ni  Ni1  1  0.75000000  0.16207100  0.86130100  1
  Ni  Ni2  1  0.25000000  0.28788100  0.43919500  1
  Ni  Ni3  1  0.75000000  0.71211900  0.56080500  1
  Ni  Ni4  1  0.25000000  0.07092600  0.01626500  1
  Ni  Ni5  1  0.75000000  0.92907400  0.98373500  1
  Ni  Ni6  1  0.25000000  0.06549100  0.44693300  1
  Ni  Ni7  1  0.75000000  0.93450900  0.55306700  1
  Ni  Ni8  1  0.25000000  0.59496300  0.69590800  1
  Ni  Ni9  1  0.75000000  0.40503700  0.30409200  1
  Ni  Ni10  1  0.25000000  0.58156100  0.00909800  1
  Ni  Ni11  1  0.75000000  0.41843900  0.99090200  1
  Ni  Ni12  1  0.25000000  0.58050200  0.50819700  1
  Ni  Ni13  1  0.75000000  0.41949800  0.49180300  1
  Ni  Ni14  1  0.25000000  0.29822400  0.91755200  1
  Ni  Ni15  1  0.75000000  0.70177600  0.08244800  1
  Ni  Ni16  1  0.25000000  0.99473800  0.65931600  1
  Ni  Ni17  1  0.75000000  0.00526200  0.34068400  1
  Ni  Ni18  1  0.25000000  0.83943900  0.43747300  1
  Ni  Ni19  1  0.75000000  0.16056100  0.56252700  1
  Ni  Ni20  1  0.25000000  0.98993700  0.84769300  1
  Ni  Ni21  1  0.75000000  0.01006300  0.15230700  1
  Ni  Ni22  1  0.25000000  0.56559500  0.20307500  1
  Ni  Ni23  1  0.75000000  0.43440500  0.79692500  1
  P  P0  1  0.25000000  0.50956700  0.87117300  1
  P  P1  1  0.75000000  0.49043300  0.12882700  1
  P  P2  1  0.25000000  0.79971900  0.98219800  1
  P  P3  1  0.75000000  0.20028100  0.01780200  1
  P  P4  1  0.25000000  0.49617600  0.37720400  1
  P  P5  1  0.75000000  0.50382400  0.62279600  1
  P  P6  1  0.25000000  0.81035500  0.61307200  1
  P  P7  1  0.75000000  0.18964500  0.38692800  1
  P  P8  1  0.25000000  0.95127300  0.25900400  1
  P  P9  1  0.75000000  0.04872700  0.74099600  1
loop_
_geom_bond_atom_site_label_1
_geom_bond_atom_site_label_2
_geom_bond_distance
_geom_bond_site_symmetry_2
Ce0 Ni1 2.931597 1_555
Ce0 Ni1 2.931597 1_455
Ce0 P5 2.948223 1_455
Ce0 P5 2.948223 1_555
Ce0 Ni19 2.957568 1_455
Ce0 Ni19 2.957568 1_555
Ce0 P9 2.994665 1_555
Ce0 P9 2.994665 1_455
Ce0 Ni13 3.099937 1_555
Ce0 Ni13 3.099937 1_455
Ce0 Ni14 3.143938 1_555
Ce0 Ni23 3.152057 1_555
Ce0 Ni23 3.152057 1_455
Ce0 Ni2 3.172111 1_555
Ce0 Ni16 3.184116 1_545
Ce0 Ni20 3.205762 1_545
Ce1 Ni0 2.931597 1_555
Ce1 Ni0 2.931597 1_655
Ce1 P4 2.948223 1_655
Ce1 P4 2.948223 1_555
Ce1 Ni18 2.957568 1_555
Ce1 Ni18 2.957568 1_655
Ce1 P8 2.994665 1_655
Ce1 P8 2.994665 1_555
Ce1 Ni12 3.099937 1_555
Ce1 Ni12 3.099937 1_655
Ce1 Ni15 3.143938 1_555
Ce1 Ni22 3.152057 1_555
Ce1 Ni22 3.152057 1_655
Ce1 Ni3 3.172111 1_555
Ce1 Ni17 3.184116 1_565
Ce1 Ni21 3.205762 1_565
Ce2 P8 3.036537 1_545
Ce2 P3 3.042270 1_455
Ce2 P3 3.042270 1_555
Ce2 P7 3.093376 1_555
Ce2 P7 3.093376 1_455
Ce2 P1 3.105665 1_555
Ce2 P1 3.105665 1_455
Ce3 P9 3.036537 1_565
Ce3 P2 3.042270 1_655
Ce3 P2 3.042270 1_555
Ce3 P6 3.093376 1_655
Ce3 P6 3.093376 1_555
Ce3 P0 3.105665 1_555
Ce3 P0 3.105665 1_655
Ni0 P2 2.214916 1_554
Ni0 P8 2.275991 1_555
Ni1 P3 2.214916 1_556
Ni1 P9 2.275991 1_555
Ni2 P4 2.145338 1_555
Ni2 P7 2.323336 1_455
Ni2 P7 2.323336 1_555
Ni3 P5 2.145338 1_555
Ni3 P6 2.323336 1_655
Ni3 P6 2.323336 1_555
Ni4 P3 2.307595 1_555
Ni4 P3 2.307595 1_455
Ni5 P2 2.307595 1_655
Ni5 P2 2.307595 1_555
Ni6 P7 2.263347 1_555
Ni6 P7 2.263347 1_455
Ni7 P6 2.263347 1_555
Ni7 P6 2.263347 1_655
Ni8 P0 2.197882 1_555
Ni8 P6 2.245660 1_555
Ni8 P5 2.413276 1_555
Ni8 P5 2.413276 1_455
Ni9 P1 2.197882 1_555
Ni9 P7 2.245660 1_555
Ni9 P4 2.413276 1_655
Ni9 P4 2.413276 1_555
Ni10 P0 2.178168 1_554
Ni10 P2 2.274129 1_554
Ni10 P1 2.416000 1_455
Ni10 P1 2.416000 1_555
Ni11 P1 2.178168 1_556
Ni11 P3 2.274129 1_556
Ni11 P0 2.416000 1_555
Ni11 P0 2.416000 1_655
Ni12 P4 2.178595 1_555
Ni12 P5 2.352078 1_555
Ni12 P5 2.352078 1_455
Ni13 P5 2.178595 1_555
Ni13 P4 2.352078 1_655
Ni13 P4 2.352078 1_555
Ni14 P0 2.175357 1_555
Ni14 P3 2.312065 1_556
Ni14 P3 2.312065 1_456
Ni15 P1 2.175357 1_555
Ni15 P2 2.312065 1_554
Ni15 P2 2.312065 1_654
Ni16 P6 2.254515 1_555
Ni16 P9 2.285981 1_565
Ni16 P9 2.285981 1_465
Ni17 P7 2.254515 1_555
Ni17 P8 2.285981 1_645
Ni17 P8 2.285981 1_545
Ni18 P6 2.226661 1_555
Ni18 P8 2.280183 1_555
Ni19 P7 2.226661 1_555
Ni19 P9 2.280183 1_555
Ni20 P2 2.259808 1_555
Ni20 P9 2.273268 1_565
Ni20 P9 2.273268 1_465
Ni21 P3 2.259808 1_555
Ni21 P8 2.273268 1_645
Ni21 P8 2.273268 1_545
Ni22 P4 2.173627 1_555
Ni22 P1 2.334072 1_555
Ni22 P1 2.334072 1_455
Ni23 P5 2.173627 1_555
Ni23 P0 2.334072 1_555
Ni23 P0 2.334072 1_655
