# generated using pymatgen
data_Rb2Ga2Ge3O10
_symmetry_space_group_name_H-M   'P 1'
_cell_length_a   9.52858624
_cell_length_b   9.52858624
_cell_length_c   12.85982817
_cell_angle_alpha   50.13858410
_cell_angle_beta   50.13858410
_cell_angle_gamma   41.52068373
_symmetry_Int_Tables_number   1
_chemical_formula_structural   Rb2Ga2Ge3O10
_chemical_formula_sum   'Rb4 Ga4 Ge6 O20'
_cell_volume   563.56451446
_cell_formula_units_Z   2
loop_
 _symmetry_equiv_pos_site_id
 _symmetry_equiv_pos_as_xyz
  1  'x, y, z'
loop_
 _atom_site_type_symbol
 _atom_site_label
 _atom_site_symmetry_multiplicity
 _atom_site_fract_x
 _atom_site_fract_y
 _atom_site_fract_z
 _atom_site_occupancy
  Rb  Rb0  1  0.62690700  0.84960000  0.13108900  1
  Rb  Rb1  1  0.15040000  0.37309300  0.86891100  1
  Rb  Rb2  1  0.27620800  0.99272800  0.62164100  1
  Rb  Rb3  1  0.00727200  0.72379200  0.37835900  1
  Ga  Ga0  1  0.73070500  0.43966600  0.53731100  1
  Ga  Ga1  1  0.56033400  0.26929500  0.46268900  1
  Ga  Ga2  1  0.26037800  0.47444300  0.06494600  1
  Ga  Ga3  1  0.52555700  0.73962200  0.93505400  1
  Ge  Ge0  1  0.69238600  0.42250100  0.80674700  1
  Ge  Ge1  1  0.57749900  0.30761400  0.19325300  1
  Ge  Ge2  1  0.26486500  0.73513500  0.50000000  1
  Ge  Ge3  1  0.00828600  0.99171400  0.00000000  1
  Ge  Ge4  1  0.76068300  0.98724600  0.70208000  1
  Ge  Ge5  1  0.01275400  0.23931700  0.29792000  1
  O  O0  1  0.00227400  0.30704400  0.40385600  1
  O  O1  1  0.69295600  0.99772600  0.59614400  1
  O  O2  1  0.63319600  0.25698000  0.68383600  1
  O  O3  1  0.74302000  0.36680400  0.31616400  1
  O  O4  1  0.05902800  0.83033800  0.65333200  1
  O  O5  1  0.16966200  0.94097200  0.34666800  1
  O  O6  1  0.49848200  0.70583300  0.46066100  1
  O  O7  1  0.29416700  0.50151800  0.53933900  1
  O  O8  1  0.78976900  0.49020200  0.61885900  1
  O  O9  1  0.50979800  0.21023100  0.38114100  1
  O  O10  1  0.14386600  0.33809200  0.11555400  1
  O  O11  1  0.66190800  0.85613400  0.88444600  1
  O  O12  1  0.40758300  0.53486400  0.86907700  1
  O  O13  1  0.46513600  0.59241700  0.13092300  1
  O  O14  1  0.47576700  0.25660100  0.15350900  1
  O  O15  1  0.74339900  0.52423300  0.84649100  1
  O  O16  1  0.86883700  0.12272700  0.88343900  1
  O  O17  1  0.87727300  0.13116300  0.11656100  1
  O  O18  1  0.03171900  0.73776700  0.11113800  1
  O  O19  1  0.26223300  0.96828100  0.88886200  1
loop_
_geom_bond_atom_site_label_1
_geom_bond_atom_site_label_2
_geom_bond_distance
_geom_bond_site_symmetry_2
Ga0 O2 1.848534 1_555
Ga0 O0 1.851760 1_655
Ga0 O8 1.859589 1_555
Ga0 O6 1.867605 1_555
Ga1 O3 1.848534 1_555
Ga1 O1 1.851760 1_545
Ga1 O9 1.859589 1_555
Ga1 O7 1.867605 1_555
Ga2 O14 1.845135 1_555
Ga2 O18 1.860357 1_555
Ga2 O12 1.861419 1_554
Ga2 O10 1.869203 1_555
Ga3 O15 1.845135 1_555
Ga3 O19 1.860357 1_555
Ga3 O13 1.861419 1_556
Ga3 O11 1.869203 1_555
Ge0 O15 1.759628 1_555
Ge0 O12 1.764724 1_555
Ge0 O8 1.771884 1_555
Ge0 O16 1.811506 1_555
Ge1 O14 1.759628 1_555
Ge1 O13 1.764724 1_555
Ge1 O9 1.771884 1_555
Ge1 O17 1.811506 1_555
Ge2 O7 1.759531 1_555
Ge2 O6 1.759531 1_555
Ge2 O4 1.796942 1_555
Ge2 O5 1.796942 1_555
Ge3 O19 1.764825 1_554
Ge3 O18 1.764825 1_555
Ge3 O17 1.800395 1_465
Ge3 O16 1.800395 1_464
Ge4 O2 1.747473 1_565
Ge4 O11 1.766962 1_555
Ge4 O1 1.771562 1_555
Ge4 O4 1.806197 1_655
Ge5 O3 1.747473 1_455
Ge5 O10 1.766962 1_555
Ge5 O0 1.771562 1_555
Ge5 O5 1.806197 1_545
O0 Rb2 3.246425 1_545
O1 Rb3 3.246425 1_655
O2 Rb1 3.125806 1_555
O3 Rb0 3.125806 1_555
O4 Rb1 3.058898 1_555
O4 Rb2 3.122237 1_555
O5 Rb0 3.058898 1_555
O5 Rb3 3.122237 1_555
O6 Rb2 3.034562 1_555
O6 Rb0 3.123508 1_555
O7 Rb3 3.034562 1_555
O7 Rb1 3.123508 1_555
O8 Rb3 2.946445 1_655
O8 Rb2 3.324089 1_645
O8 Rb2 3.432727 1_555
O9 Rb2 2.946445 1_545
O9 Rb3 3.324089 1_645
O9 Rb3 3.432727 1_555
O10 Rb1 2.932116 1_554
O10 Rb0 3.285765 1_545
O10 Rb0 3.477816 1_455
O11 Rb0 2.932116 1_556
O11 Rb1 3.285765 1_655
O11 Rb1 3.477816 1_565
O12 Rb2 3.139848 1_555
O13 Rb3 3.139848 1_555
O14 Rb0 3.120076 1_545
O15 Rb1 3.120076 1_655
O16 Rb2 3.054536 1_645
O16 Rb0 3.343366 1_546
O17 Rb3 3.054536 1_645
O17 Rb1 3.343366 1_654
O18 Rb0 3.001146 1_455
O18 Rb3 3.211649 1_555
O19 Rb1 3.001146 1_565
O19 Rb2 3.211649 1_555
