# generated using pymatgen
data_Mg6Si5
_symmetry_space_group_name_H-M   'P 1'
_cell_length_a   5.37874100
_cell_length_b   5.84824252
_cell_length_c   14.00118564
_cell_angle_alpha   99.33412947
_cell_angle_beta   97.93091820
_cell_angle_gamma   94.69044250
_symmetry_Int_Tables_number   1
_chemical_formula_structural   Mg6Si5
_chemical_formula_sum   'Mg12 Si10'
_cell_volume   427.98434396
_cell_formula_units_Z   2
loop_
 _symmetry_equiv_pos_site_id
 _symmetry_equiv_pos_as_xyz
  1  'x, y, z'
loop_
 _atom_site_type_symbol
 _atom_site_label
 _atom_site_symmetry_multiplicity
 _atom_site_fract_x
 _atom_site_fract_y
 _atom_site_fract_z
 _atom_site_occupancy
  Mg  Mg0  1  0.86492400  0.56268400  0.08242300  1
  Mg  Mg1  1  0.84769400  0.08036000  0.46876000  1
  Mg  Mg2  1  0.60949900  0.87426100  0.71144500  1
  Mg  Mg3  1  0.75710300  0.45789600  0.33348000  1
  Mg  Mg4  1  0.54984900  0.90739100  0.25733200  1
  Mg  Mg5  1  0.77953700  0.46513800  0.84426300  1
  Mg  Mg6  1  0.41073600  0.32255900  0.60565100  1
  Mg  Mg7  1  0.35218300  0.74169900  0.48352300  1
  Mg  Mg8  1  0.07926400  0.10324200  0.15437500  1
  Mg  Mg9  1  0.79617200  0.00025800  0.94472600  1
  Mg  Mg10  1  0.29549700  0.77504800  0.99268200  1
  Mg  Mg11  1  0.31817600  0.25960100  0.93524800  1
  Si  Si0  1  0.04762200  0.87242200  0.30944600  1
  Si  Si1  1  0.82984300  0.58509200  0.54830000  1
  Si  Si2  1  0.10276700  0.87986800  0.80595300  1
  Si  Si3  1  0.38119000  0.50000000  0.13083600  1
  Si  Si4  1  0.33753400  0.20788100  0.39996400  1
  Si  Si5  1  0.11273300  0.92425900  0.63825700  1
  Si  Si6  1  0.91776200  0.29776100  0.66510200  1
  Si  Si7  1  0.24543000  0.51223100  0.29069400  1
  Si  Si8  1  0.58279500  0.15290100  0.10987200  1
  Si  Si9  1  0.27470200  0.51765900  0.78419000  1
loop_
_geom_bond_atom_site_label_1
_geom_bond_atom_site_label_2
_geom_bond_distance
_geom_bond_site_symmetry_2
Mg0 Si3 2.788358 1_555
Mg0 Si3 2.834162 1_655
Mg0 Si8 2.838786 1_555
Mg1 Si0 2.758014 1_645
Mg1 Si6 2.795999 1_555
Mg1 Si5 2.911973 1_645
Mg1 Si4 2.975220 1_555
Mg1 Si1 2.995340 1_555
Mg1 Si4 3.006285 1_655
Mg1 Si1 3.266377 1_545
Mg2 Si5 2.782874 1_555
Mg2 Si2 2.791799 1_655
Mg2 Si5 3.032375 1_655
Mg2 Si9 3.034875 1_555
Mg2 Si1 3.050251 1_555
Mg2 Si6 3.074244 1_565
Mg2 Si2 3.190076 1_555
Mg3 Si7 2.778173 1_655
Mg3 Si7 2.789984 1_555
Mg3 Si0 2.867439 1_655
Mg3 Si4 2.928969 1_555
Mg3 Si1 2.941902 1_555
Mg4 Si0 2.709520 1_655
Mg4 Si8 2.715973 1_565
Mg4 Si3 2.733221 1_555
Mg4 Si7 2.860472 1_555
Mg4 Si4 2.863494 1_565
Mg4 Si0 2.893699 1_555
Mg5 Si6 2.764146 1_555
Mg5 Si9 2.786575 1_555
Mg5 Si9 2.909208 1_655
Mg5 Si2 3.030318 1_655
Mg6 Si6 2.762012 1_555
Mg6 Si9 2.793223 1_555
Mg6 Si4 2.813504 1_555
Mg6 Si5 2.853033 1_545
Mg6 Si6 2.886194 1_455
Mg6 Si1 2.901245 1_555
Mg7 Si7 2.773198 1_555
Mg7 Si5 2.781510 1_555
Mg7 Si1 2.876368 1_555
Mg7 Si0 2.985935 1_555
Mg7 Si4 3.138829 1_565
Mg7 Si4 3.141772 1_555
Mg7 Si1 3.179097 1_455
Mg8 Si8 2.707374 1_455
Mg8 Si0 2.753235 1_545
Mg8 Si7 2.803830 1_555
Mg8 Si3 2.812365 1_555
Mg8 Si8 2.864189 1_555
Mg9 Si2 2.760575 1_645
Mg9 Si8 2.773245 1_556
Mg10 Si3 2.725066 1_556
Mg10 Si8 2.743897 1_566
Mg10 Si2 2.856842 1_555
Mg10 Si9 3.042482 1_555
Mg11 Si2 2.692148 1_545
Mg11 Si9 2.786063 1_555
Mg11 Si3 2.829787 1_556
Mg11 Si8 2.841268 1_556
Si0 Si7 2.429493 1_555
Si0 Si4 2.456506 1_565
Si1 Si5 2.450130 1_655
Si1 Si6 2.555327 1_555
Si2 Si9 2.371496 1_555
Si2 Si5 2.411076 1_555
Si3 Si8 2.374271 1_555
Si3 Si7 2.440391 1_555
Si4 Si7 2.563693 1_555
Si5 Si6 2.495881 1_465
Si6 Si9 2.477336 1_655
