# generated using pymatgen
data_SrMg
_symmetry_space_group_name_H-M   'P 1'
_cell_length_a   8.50586547
_cell_length_b   8.50586547
_cell_length_c   31.62762600
_cell_angle_alpha   90.00000000
_cell_angle_beta   90.00000000
_cell_angle_gamma   120.00001142
_symmetry_Int_Tables_number   1
_chemical_formula_structural   SrMg
_chemical_formula_sum   'Sr24 Mg24'
_cell_volume   1981.68305225
_cell_formula_units_Z   24
loop_
 _symmetry_equiv_pos_site_id
 _symmetry_equiv_pos_as_xyz
  1  'x, y, z'
loop_
 _atom_site_type_symbol
 _atom_site_label
 _atom_site_symmetry_multiplicity
 _atom_site_fract_x
 _atom_site_fract_y
 _atom_site_fract_z
 _atom_site_occupancy
  Sr  Sr0_0  1  0.33333350  0.16666650  0.36153450  1
  Sr  Sr0_1  1  0.33333350  0.16666650  0.86153450  1
  Sr  Sr0_2  1  0.33333350  0.66666650  0.36153450  1
  Sr  Sr0_3  1  0.33333350  0.66666650  0.86153450  1
  Sr  Sr0_4  1  0.83333350  0.16666650  0.36153450  1
  Sr  Sr0_5  1  0.83333350  0.16666650  0.86153450  1
  Sr  Sr0_6  1  0.83333350  0.66666650  0.36153450  1
  Sr  Sr0_7  1  0.83333350  0.66666650  0.86153450  1
  Sr  Sr1_0  1  0.00000000  0.00000000  0.25000000  1
  Sr  Sr1_1  1  0.00000000  0.00000000  0.75000000  1
  Sr  Sr1_2  1  0.00000000  0.50000000  0.25000000  1
  Sr  Sr1_3  1  0.00000000  0.50000000  0.75000000  1
  Sr  Sr1_4  1  0.50000000  0.00000000  0.25000000  1
  Sr  Sr1_5  1  0.50000000  0.00000000  0.75000000  1
  Sr  Sr1_6  1  0.50000000  0.50000000  0.25000000  1
  Sr  Sr1_7  1  0.50000000  0.50000000  0.75000000  1
  Sr  Sr2_0  1  0.33333350  0.16666650  0.13846550  1
  Sr  Sr2_1  1  0.33333350  0.16666650  0.63846550  1
  Sr  Sr2_2  1  0.33333350  0.66666650  0.13846550  1
  Sr  Sr2_3  1  0.33333350  0.66666650  0.63846550  1
  Sr  Sr2_4  1  0.83333350  0.16666650  0.13846550  1
  Sr  Sr2_5  1  0.83333350  0.16666650  0.63846550  1
  Sr  Sr2_6  1  0.83333350  0.66666650  0.13846550  1
  Sr  Sr2_7  1  0.83333350  0.66666650  0.63846550  1
  Mg  Mg0_0  1  0.33333350  0.16666650  0.00000000  1
  Mg  Mg0_1  1  0.33333350  0.16666650  0.50000000  1
  Mg  Mg0_2  1  0.33333350  0.66666650  0.00000000  1
  Mg  Mg0_3  1  0.33333350  0.66666650  0.50000000  1
  Mg  Mg0_4  1  0.83333350  0.16666650  0.00000000  1
  Mg  Mg0_5  1  0.83333350  0.16666650  0.50000000  1
  Mg  Mg0_6  1  0.83333350  0.66666650  0.00000000  1
  Mg  Mg0_7  1  0.83333350  0.66666650  0.50000000  1
  Mg  Mg1_0  1  0.00000000  0.00000000  0.44422100  1
  Mg  Mg1_1  1  0.00000000  0.00000000  0.94422100  1
  Mg  Mg1_2  1  0.00000000  0.50000000  0.44422100  1
  Mg  Mg1_3  1  0.00000000  0.50000000  0.94422100  1
  Mg  Mg1_4  1  0.50000000  0.00000000  0.44422100  1
  Mg  Mg1_5  1  0.50000000  0.00000000  0.94422100  1
  Mg  Mg1_6  1  0.50000000  0.50000000  0.44422100  1
  Mg  Mg1_7  1  0.50000000  0.50000000  0.94422100  1
  Mg  Mg2_0  1  0.00000000  0.00000000  0.05577900  1
  Mg  Mg2_1  1  0.00000000  0.00000000  0.55577900  1
  Mg  Mg2_2  1  0.00000000  0.50000000  0.05577900  1
  Mg  Mg2_3  1  0.00000000  0.50000000  0.55577900  1
  Mg  Mg2_4  1  0.50000000  0.00000000  0.05577900  1
  Mg  Mg2_5  1  0.50000000  0.00000000  0.55577900  1
  Mg  Mg2_6  1  0.50000000  0.50000000  0.05577900  1
  Mg  Mg2_7  1  0.50000000  0.50000000  0.55577900  1
loop_
_geom_bond_atom_site_label_1
_geom_bond_atom_site_label_2
_geom_bond_distance
_geom_bond_site_symmetry_2
Sr0_0 Sr0_6 4.252932 1_555
Sr0_0 Sr0_6 4.252932 1_445
Sr0_0 Sr0_2 4.252933 1_555
Sr0_0 Sr0_4 4.252933 1_555
Sr0_0 Sr0_2 4.252933 1_545
Sr0_0 Sr0_4 4.252933 1_455
Sr0_0 Sr1_4 4.298011 1_555
Sr0_0 Sr1_0 4.298012 1_555
Sr0_0 Sr1_6 4.298012 1_555
Sr0_1 Sr0_7 4.252932 1_555
Sr0_1 Sr0_7 4.252932 1_445
Sr0_1 Sr0_5 4.252933 1_555
Sr0_1 Sr0_3 4.252933 1_555
Sr0_1 Sr0_3 4.252933 1_545
Sr0_1 Sr0_5 4.252933 1_455
Sr0_1 Sr1_5 4.298011 1_555
Sr0_1 Sr1_7 4.298012 1_555
Sr0_1 Sr1_1 4.298012 1_555
Sr0_2 Sr0_4 4.252932 1_455
Sr0_2 Sr0_4 4.252932 1_565
Sr0_2 Sr0_6 4.252933 1_555
Sr0_2 Sr0_6 4.252933 1_455
Sr0_2 Sr1_6 4.298011 1_555
Sr0_2 Sr1_4 4.298012 1_565
Sr0_2 Sr1_2 4.298012 1_555
Sr0_3 Sr0_5 4.252932 1_565
Sr0_3 Sr0_5 4.252932 1_455
Sr0_3 Sr0_7 4.252933 1_555
Sr0_3 Sr0_7 4.252933 1_455
Sr0_3 Sr1_7 4.298011 1_555
Sr0_3 Sr1_5 4.298012 1_565
Sr0_3 Sr1_3 4.298012 1_555
Sr0_4 Sr0_6 4.252933 1_555
Sr0_4 Sr0_6 4.252933 1_545
Sr0_4 Sr1_0 4.298011 1_655
Sr0_4 Sr1_4 4.298012 1_555
Sr0_4 Sr1_2 4.298012 1_655
Sr0_5 Sr0_7 4.252933 1_545
Sr0_5 Sr0_7 4.252933 1_555
Sr0_5 Sr1_1 4.298011 1_655
Sr0_5 Sr1_3 4.298012 1_655
Sr0_5 Sr1_5 4.298012 1_555
Sr0_6 Sr1_2 4.298011 1_655
Sr0_6 Sr1_6 4.298012 1_555
Sr0_6 Sr1_0 4.298012 1_665
Sr0_7 Sr1_3 4.298011 1_655
Sr0_7 Sr1_1 4.298012 1_665
Sr0_7 Sr1_7 4.298012 1_555
Sr1_0 Sr1_6 4.252932 1_445
Sr1_0 Sr1_6 4.252932 1_555
Sr1_0 Sr1_2 4.252933 1_555
Sr1_0 Sr1_4 4.252933 1_555
Sr1_0 Sr1_2 4.252933 1_545
Sr1_0 Sr1_4 4.252933 1_455
Sr1_0 Sr2_4 4.298011 1_455
Sr1_0 Sr2_0 4.298012 1_555
Sr1_0 Sr2_6 4.298012 1_445
Sr1_1 Sr1_7 4.252932 1_445
Sr1_1 Sr1_7 4.252932 1_555
Sr1_1 Sr1_3 4.252933 1_555
Sr1_1 Sr1_5 4.252933 1_455
Sr1_1 Sr1_5 4.252933 1_555
Sr1_1 Sr1_3 4.252933 1_545
Sr1_1 Sr2_5 4.298011 1_455
Sr1_1 Sr2_1 4.298012 1_555
Sr1_1 Sr2_7 4.298012 1_445
Sr1_2 Sr1_4 4.252932 1_455
Sr1_2 Sr1_4 4.252932 1_565
Sr1_2 Sr1_6 4.252933 1_455
Sr1_2 Sr1_6 4.252933 1_555
Sr1_2 Sr2_6 4.298011 1_455
Sr1_2 Sr2_2 4.298012 1_555
Sr1_2 Sr2_4 4.298012 1_455
Sr1_3 Sr1_5 4.252932 1_455
Sr1_3 Sr1_5 4.252932 1_565
Sr1_3 Sr1_7 4.252933 1_455
Sr1_3 Sr1_7 4.252933 1_555
Sr1_3 Sr2_7 4.298011 1_455
Sr1_3 Sr2_5 4.298012 1_455
Sr1_3 Sr2_3 4.298012 1_555
Sr1_4 Sr1_6 4.252933 1_555
Sr1_4 Sr1_6 4.252933 1_545
Sr1_4 Sr2_0 4.298011 1_555
Sr1_4 Sr2_4 4.298012 1_555
Sr1_4 Sr2_2 4.298012 1_545
Sr1_5 Sr1_7 4.252933 1_555
Sr1_5 Sr1_7 4.252933 1_545
Sr1_5 Sr2_1 4.298011 1_555
Sr1_5 Sr2_5 4.298012 1_555
Sr1_5 Sr2_3 4.298012 1_545
Sr1_6 Sr2_2 4.298011 1_555
Sr1_6 Sr2_0 4.298012 1_555
Sr1_6 Sr2_6 4.298012 1_555
Sr1_7 Sr2_3 4.298011 1_555
Sr1_7 Sr2_7 4.298012 1_555
Sr1_7 Sr2_1 4.298012 1_555
Sr2_0 Sr2_6 4.252932 1_555
Sr2_0 Sr2_6 4.252932 1_445
Sr2_0 Sr2_4 4.252933 1_555
Sr2_0 Sr2_2 4.252933 1_555
Sr2_0 Sr2_4 4.252933 1_455
Sr2_0 Sr2_2 4.252933 1_545
Sr2_1 Sr2_7 4.252932 1_555
Sr2_1 Sr2_7 4.252932 1_445
Sr2_1 Sr2_5 4.252933 1_555
Sr2_1 Sr2_3 4.252933 1_555
Sr2_1 Sr2_3 4.252933 1_545
Sr2_1 Sr2_5 4.252933 1_455
Sr2_2 Sr2_4 4.252932 1_455
Sr2_2 Sr2_4 4.252932 1_565
Sr2_2 Sr2_6 4.252933 1_555
Sr2_2 Sr2_6 4.252933 1_455
Sr2_3 Sr2_5 4.252932 1_565
Sr2_3 Sr2_5 4.252932 1_455
Sr2_3 Sr2_7 4.252933 1_555
Sr2_3 Sr2_7 4.252933 1_455
Sr2_4 Sr2_6 4.252933 1_555
Sr2_4 Sr2_6 4.252933 1_545
Sr2_5 Sr2_7 4.252933 1_545
Sr2_5 Sr2_7 4.252933 1_555
Mg0_0 Mg2_4 3.023472 1_555
Mg0_0 Mg1_5 3.023472 1_554
Mg0_0 Mg2_6 3.023475 1_555
Mg0_0 Mg2_0 3.023475 1_555
Mg0_0 Mg1_1 3.023475 1_554
Mg0_0 Mg1_7 3.023475 1_554
Mg0_1 Mg2_5 3.023472 1_555
Mg0_1 Mg1_4 3.023472 1_555
Mg0_1 Mg2_7 3.023475 1_555
Mg0_1 Mg2_1 3.023475 1_555
Mg0_1 Mg1_6 3.023475 1_555
Mg0_1 Mg1_0 3.023475 1_555
Mg0_2 Mg2_6 3.023472 1_555
Mg0_2 Mg1_7 3.023472 1_554
Mg0_2 Mg2_2 3.023475 1_555
Mg0_2 Mg2_4 3.023475 1_565
Mg0_2 Mg1_3 3.023475 1_554
Mg0_2 Mg1_5 3.023475 1_564
Mg0_3 Mg2_7 3.023472 1_555
Mg0_3 Mg1_6 3.023472 1_555
Mg0_3 Mg2_3 3.023475 1_555
Mg0_3 Mg2_5 3.023475 1_565
Mg0_3 Mg1_2 3.023475 1_555
Mg0_3 Mg1_4 3.023475 1_565
Mg0_4 Mg2_0 3.023472 1_655
Mg0_4 Mg1_1 3.023472 1_654
Mg0_4 Mg2_4 3.023475 1_555
Mg0_4 Mg2_2 3.023475 1_655
Mg0_4 Mg1_3 3.023475 1_654
Mg0_4 Mg1_5 3.023475 1_554
Mg0_5 Mg2_1 3.023472 1_655
Mg0_5 Mg1_0 3.023472 1_655
Mg0_5 Mg2_5 3.023475 1_555
Mg0_5 Mg2_3 3.023475 1_655
Mg0_5 Mg1_2 3.023475 1_655
Mg0_5 Mg1_4 3.023475 1_555
Mg0_6 Mg2_2 3.023472 1_655
Mg0_6 Mg1_3 3.023472 1_654
Mg0_6 Mg2_6 3.023475 1_555
Mg0_6 Mg2_0 3.023475 1_665
Mg0_6 Mg1_7 3.023475 1_554
Mg0_6 Mg1_1 3.023475 1_664
Mg0_7 Mg2_3 3.023472 1_655
Mg0_7 Mg1_2 3.023472 1_655
Mg0_7 Mg2_7 3.023475 1_555
Mg0_7 Mg2_1 3.023475 1_665
Mg0_7 Mg1_6 3.023475 1_555
Mg0_7 Mg1_0 3.023475 1_665
Mg1_0 Sr0_4 3.587240 1_455
Mg1_0 Sr0_6 3.587242 1_445
Mg1_0 Sr0_0 3.587242 1_555
Mg1_1 Sr0_5 3.587240 1_455
Mg1_1 Sr0_1 3.587242 1_555
Mg1_1 Sr0_7 3.587242 1_445
Mg1_2 Sr0_6 3.587240 1_455
Mg1_2 Sr0_4 3.587242 1_455
Mg1_2 Sr0_2 3.587242 1_555
Mg1_3 Sr0_7 3.587240 1_455
Mg1_3 Sr0_3 3.587242 1_555
Mg1_3 Sr0_5 3.587242 1_455
Mg1_4 Sr0_0 3.587240 1_555
Mg1_4 Sr0_4 3.587242 1_555
Mg1_4 Sr0_2 3.587242 1_545
Mg1_5 Sr0_1 3.587240 1_555
Mg1_5 Sr0_5 3.587242 1_555
Mg1_5 Sr0_3 3.587242 1_545
Mg1_6 Sr0_2 3.587240 1_555
Mg1_6 Sr0_6 3.587242 1_555
Mg1_6 Sr0_0 3.587242 1_555
Mg1_7 Sr0_3 3.587240 1_555
Mg1_7 Sr0_7 3.587242 1_555
Mg1_7 Sr0_1 3.587242 1_555
Mg2_0 Sr2_4 3.587240 1_455
Mg2_0 Sr2_0 3.587242 1_555
Mg2_0 Sr2_6 3.587242 1_445
Mg2_1 Sr2_5 3.587240 1_455
Mg2_1 Sr2_1 3.587242 1_555
Mg2_1 Sr2_7 3.587242 1_445
Mg2_2 Sr2_6 3.587240 1_455
Mg2_2 Sr2_4 3.587242 1_455
Mg2_2 Sr2_2 3.587242 1_555
Mg2_3 Sr2_7 3.587240 1_455
Mg2_3 Sr2_5 3.587242 1_455
Mg2_3 Sr2_3 3.587242 1_555
Mg2_4 Sr2_0 3.587240 1_555
Mg2_4 Sr2_4 3.587242 1_555
Mg2_4 Sr2_2 3.587242 1_545
Mg2_5 Sr2_1 3.587240 1_555
Mg2_5 Sr2_5 3.587242 1_555
Mg2_5 Sr2_3 3.587242 1_545
Mg2_6 Sr2_2 3.587240 1_555
Mg2_6 Sr2_6 3.587242 1_555
Mg2_6 Sr2_0 3.587242 1_555
Mg2_7 Sr2_3 3.587240 1_555
Mg2_7 Sr2_7 3.587242 1_555
Mg2_7 Sr2_1 3.587242 1_555
