# generated using pymatgen
data_Y3In5
_symmetry_space_group_name_H-M   'P 1'
_cell_length_a   6.37409343
_cell_length_b   6.37409343
_cell_length_c   10.37057361
_cell_angle_alpha   90.00000000
_cell_angle_beta   90.00000000
_cell_angle_gamma   101.49560751
_symmetry_Int_Tables_number   1
_chemical_formula_structural   Y3In5
_chemical_formula_sum   'Y6 In10'
_cell_volume   412.89450883
_cell_formula_units_Z   2
loop_
 _symmetry_equiv_pos_site_id
 _symmetry_equiv_pos_as_xyz
  1  'x, y, z'
loop_
 _atom_site_type_symbol
 _atom_site_label
 _atom_site_symmetry_multiplicity
 _atom_site_fract_x
 _atom_site_fract_y
 _atom_site_fract_z
 _atom_site_occupancy
  Y  Y0  1  0.62526484  0.62526484  0.25000000  1
  Y  Y1  1  0.37473516  0.37473516  0.75000000  1
  Y  Y2  1  0.79693040  0.20306960  0.50000000  1
  Y  Y3  1  0.79693040  0.20306960  -0.00000000  1
  Y  Y4  1  0.20306960  0.79693040  0.50000000  1
  Y  Y5  1  0.20306960  0.79693040  -0.00000000  1
  In  In0  1  0.00932412  0.00932412  0.25000000  1
  In  In1  1  0.99067588  0.99067588  0.75000000  1
  In  In2  1  0.30940538  0.30940538  0.04619101  1
  In  In3  1  0.69059462  0.69059462  0.95380899  1
  In  In4  1  0.30940538  0.30940538  0.45380899  1
  In  In5  1  0.69059462  0.69059462  0.54619101  1
  In  In6  1  0.07692782  0.50810225  0.25000000  1
  In  In7  1  0.49189775  0.92307218  0.75000000  1
  In  In8  1  0.92307218  0.49189775  0.75000000  1
  In  In9  1  0.50810225  0.07692782  0.25000000  1
loop_
_geom_bond_atom_site_label_1
_geom_bond_atom_site_label_2
_geom_bond_distance
_geom_bond_site_symmetry_2
In0 Y0 3.097908 1_445
In0 In6 3.122069 1_555
In0 In9 3.122069 1_555
In0 In4 3.213457 1_555
In0 In2 3.213457 1_555
In0 Y3 3.278128 1_455
In0 Y2 3.278128 1_455
In0 Y4 3.278128 1_545
In0 Y5 3.278128 1_545
In0 In9 3.307777 1_455
In0 In6 3.307777 1_545
In1 Y1 3.097908 1_665
In1 In8 3.122069 1_555
In1 In7 3.122069 1_555
In1 In5 3.213457 1_555
In1 In3 3.213457 1_555
In1 Y2 3.278128 1_565
In1 Y5 3.278128 1_656
In1 Y4 3.278128 1_655
In1 Y3 3.278128 1_566
In1 In7 3.307777 1_655
In1 In8 3.307777 1_565
In2 In6 3.002550 1_555
In2 In9 3.002550 1_555
In2 Y1 3.116545 1_554
In2 In3 3.220560 1_554
In2 Y3 3.236791 1_455
In2 Y5 3.236791 1_545
In2 Y0 3.310381 1_555
In2 Y5 3.344420 1_555
In2 Y3 3.344420 1_555
In3 In7 3.002550 1_555
In3 In8 3.002550 1_555
In3 Y0 3.116545 1_556
In3 Y3 3.236791 1_566
In3 Y5 3.236791 1_656
In3 Y1 3.310381 1_555
In3 Y3 3.344420 1_556
In3 Y5 3.344420 1_556
In4 In6 3.002550 1_555
In4 In9 3.002550 1_555
In4 Y1 3.116545 1_555
In4 In5 3.220560 1_555
In4 Y2 3.236791 1_455
In4 Y4 3.236791 1_545
In4 Y0 3.310381 1_555
In4 Y4 3.344420 1_555
In4 Y2 3.344420 1_555
In5 In7 3.002550 1_555
In5 In8 3.002550 1_555
In5 Y0 3.116545 1_555
In5 Y4 3.236791 1_655
In5 Y2 3.236791 1_565
In5 Y1 3.310381 1_555
In5 Y4 3.344420 1_555
In5 Y2 3.344420 1_555
In6 Y0 3.114962 1_455
In6 Y5 3.188670 1_555
In6 Y4 3.188670 1_555
In6 Y0 3.425407 1_555
In6 Y2 3.507744 1_455
In6 Y3 3.507744 1_455
In7 Y1 3.114962 1_565
In7 Y4 3.188670 1_555
In7 Y5 3.188670 1_556
In7 Y1 3.425407 1_555
In7 Y3 3.507744 1_566
In7 Y2 3.507744 1_565
In8 Y1 3.114962 1_655
In8 Y3 3.188670 1_556
In8 Y2 3.188670 1_555
In8 Y1 3.425407 1_555
In8 Y4 3.507744 1_655
In8 Y5 3.507744 1_656
In9 Y0 3.114962 1_545
In9 Y3 3.188670 1_555
In9 Y2 3.188670 1_555
In9 Y0 3.425407 1_555
In9 Y4 3.507744 1_545
In9 Y5 3.507744 1_545
