# generated using pymatgen
data_La6Si2NiS14
_symmetry_space_group_name_H-M   'P 1'
_cell_length_a   10.31536017
_cell_length_b   10.31536017
_cell_length_c   5.78470900
_cell_angle_alpha   90.00000000
_cell_angle_beta   90.00000000
_cell_angle_gamma   120.00000106
_symmetry_Int_Tables_number   1
_chemical_formula_structural   La6Si2NiS14
_chemical_formula_sum   'La6 Si2 Ni1 S14'
_cell_volume   533.06594201
_cell_formula_units_Z   1
loop_
 _symmetry_equiv_pos_site_id
 _symmetry_equiv_pos_as_xyz
  1  'x, y, z'
loop_
 _atom_site_type_symbol
 _atom_site_label
 _atom_site_symmetry_multiplicity
 _atom_site_fract_x
 _atom_site_fract_y
 _atom_site_fract_z
 _atom_site_occupancy
  La  La0  1  0.31218000  0.09984400  0.74730500  1
  La  La1  1  0.78766400  0.68782000  0.74730500  1
  La  La2  1  0.90015600  0.21233600  0.74730500  1
  La  La3  1  0.02058200  0.56470600  0.24984500  1
  La  La4  1  0.54412500  0.97941800  0.24984500  1
  La  La5  1  0.43529400  0.45587500  0.24984500  1
  Si  Si0  1  0.00000000  0.00000000  0.16562600  1
  Si  Si1  1  0.33333300  0.66666700  0.66201000  1
  Ni  Ni0  1  0.66666700  0.33333300  0.51242600  1
  S  S0  1  0.00000000  0.00000000  0.52836600  1
  S  S1  1  0.33333300  0.66666700  0.02712100  1
  S  S2  1  0.43011300  0.17862000  0.27755900  1
  S  S3  1  0.74850700  0.56988700  0.27755900  1
  S  S4  1  0.82138000  0.25149300  0.27755900  1
  S  S5  1  0.90274900  0.49039700  0.74067200  1
  S  S6  1  0.58764800  0.09725100  0.74067200  1
  S  S7  1  0.50960300  0.41235200  0.74067200  1
  S  S8  1  0.14374500  0.21852200  0.02488600  1
  S  S9  1  0.07477700  0.85625500  0.02488600  1
  S  S10  1  0.78147800  0.92522300  0.02488600  1
  S  S11  1  0.19210200  0.44820700  0.52273700  1
  S  S12  1  0.25610400  0.80789800  0.52273700  1
  S  S13  1  0.55179300  0.74389600  0.52273700  1
loop_
_geom_bond_atom_site_label_1
_geom_bond_atom_site_label_2
_geom_bond_distance
_geom_bond_site_symmetry_2
La0 S7 2.824124 1_555
La0 S6 2.855277 1_555
La0 S2 2.921585 1_555
La0 S9 2.955637 1_546
La0 S8 3.036914 1_556
La0 S12 3.057688 1_545
La0 S0 3.117395 1_555
La0 S2 3.249681 1_556
La1 S5 2.824124 1_555
La1 S7 2.855277 1_555
La1 S3 2.921585 1_555
La1 S10 2.955637 1_556
La1 S9 3.036914 1_656
La1 S13 3.057697 1_555
La1 S0 3.117395 1_665
La1 S3 3.249681 1_556
La2 S6 2.824124 1_555
La2 S5 2.855277 1_555
La2 S4 2.921585 1_555
La2 S8 2.955637 1_656
La2 S10 3.036914 1_546
La2 S11 3.057691 1_655
La2 S0 3.117395 1_655
La2 S4 3.249681 1_556
La3 S4 2.836869 1_455
La3 S3 2.838183 1_455
La3 S12 2.931365 1_555
La3 S11 3.031952 1_555
La3 S5 3.032301 1_455
La3 S9 3.060938 1_555
La3 S1 3.127459 1_555
La3 S5 3.131894 1_454
La4 S2 2.836877 1_565
La4 S4 2.838178 1_565
La4 S13 2.931356 1_555
La4 S12 3.031966 1_555
La4 S6 3.032301 1_565
La4 S10 3.060929 1_555
La4 S1 3.127463 1_555
La4 S6 3.131894 1_564
La5 S3 2.836867 1_555
La5 S2 2.838173 1_555
La5 S11 2.931373 1_555
La5 S13 3.031968 1_555
La5 S7 3.032298 1_555
La5 S8 3.060935 1_555
La5 S1 3.127477 1_555
La5 S7 3.131891 1_554
Ni0 S6 2.520560 1_555
Ni0 S5 2.520562 1_555
Ni0 S7 2.520569 1_555
Ni0 S4 2.540243 1_555
Ni0 S2 2.540250 1_555
Ni0 S3 2.540252 1_555
S0 Si0 2.098345 1_555
S1 Si1 2.112061 1_554
S8 Si0 2.144806 1_555
S9 Si0 2.144806 1_565
S10 Si0 2.144806 1_665
S11 Si1 2.136989 1_555
S12 Si1 2.136989 1_555
S13 Si1 2.136989 1_555
