# generated using pymatgen
data_CeMg5
_symmetry_space_group_name_H-M   'P 1'
_cell_length_a   6.30397996
_cell_length_b   6.30397964
_cell_length_c   32.35779964
_cell_angle_alpha   90.00000000
_cell_angle_beta   90.00000000
_cell_angle_gamma   120.00070923
_symmetry_Int_Tables_number   1
_chemical_formula_structural   CeMg5
_chemical_formula_sum   'Ce8 Mg40'
_cell_volume   1113.61772658
_cell_formula_units_Z   8
loop_
 _symmetry_equiv_pos_site_id
 _symmetry_equiv_pos_as_xyz
  1  'x, y, z'
loop_
 _atom_site_type_symbol
 _atom_site_label
 _atom_site_symmetry_multiplicity
 _atom_site_fract_x
 _atom_site_fract_y
 _atom_site_fract_z
 _atom_site_occupancy
  Ce  Ce0_0  1  0.33333134  0.16666869  0.00000000  1
  Ce  Ce0_1  1  0.33333134  0.16666869  0.50000000  1
  Ce  Ce0_2  1  0.33333134  0.66666868  0.00000000  1
  Ce  Ce0_3  1  0.33333134  0.66666868  0.50000000  1
  Ce  Ce0_4  1  0.83333134  0.16666869  0.00000000  1
  Ce  Ce0_5  1  0.83333134  0.16666869  0.50000000  1
  Ce  Ce0_6  1  0.83333134  0.66666869  0.00000000  1
  Ce  Ce0_7  1  0.83333134  0.66666869  0.50000000  1
  Mg  Mg0_0  1  0.00000265  0.99999735  0.40921251  1
  Mg  Mg0_1  1  0.00000265  0.99999735  0.90921250  1
  Mg  Mg0_2  1  0.00000265  0.49999736  0.40921251  1
  Mg  Mg0_3  1  0.00000265  0.49999736  0.90921250  1
  Mg  Mg0_4  1  0.50000265  0.99999735  0.40921251  1
  Mg  Mg0_5  1  0.50000265  0.99999735  0.90921250  1
  Mg  Mg0_6  1  0.50000265  0.49999736  0.40921251  1
  Mg  Mg0_7  1  0.50000265  0.49999736  0.90921250  1
  Mg  Mg1_0  1  0.33333118  0.16666881  0.32991042  1
  Mg  Mg1_1  1  0.33333118  0.16666881  0.82991042  1
  Mg  Mg1_2  1  0.33333119  0.66666881  0.32991042  1
  Mg  Mg1_3  1  0.33333119  0.66666881  0.82991042  1
  Mg  Mg1_4  1  0.83333118  0.16666881  0.32991042  1
  Mg  Mg1_5  1  0.83333118  0.16666881  0.82991042  1
  Mg  Mg1_6  1  0.83333118  0.66666881  0.32991042  1
  Mg  Mg1_7  1  0.83333118  0.66666881  0.82991042  1
  Mg  Mg2_0  1  0.00000148  0.99999848  0.25000000  1
  Mg  Mg2_1  1  0.00000148  0.99999848  0.75000000  1
  Mg  Mg2_2  1  0.00000149  0.49999848  0.25000000  1
  Mg  Mg2_3  1  0.00000149  0.49999848  0.75000000  1
  Mg  Mg2_4  1  0.50000148  0.99999848  0.25000000  1
  Mg  Mg2_5  1  0.50000148  0.99999848  0.75000000  1
  Mg  Mg2_6  1  0.50000148  0.49999849  0.25000000  1
  Mg  Mg2_7  1  0.50000148  0.49999849  0.75000000  1
  Mg  Mg3_0  1  0.33333118  0.16666881  0.17008958  1
  Mg  Mg3_1  1  0.33333118  0.16666881  0.67008958  1
  Mg  Mg3_2  1  0.33333119  0.66666881  0.17008958  1
  Mg  Mg3_3  1  0.33333119  0.66666881  0.67008958  1
  Mg  Mg3_4  1  0.83333118  0.16666881  0.17008958  1
  Mg  Mg3_5  1  0.83333118  0.16666881  0.67008958  1
  Mg  Mg3_6  1  0.83333118  0.66666881  0.17008958  1
  Mg  Mg3_7  1  0.83333118  0.66666881  0.67008958  1
  Mg  Mg4_0  1  0.00000265  0.99999735  0.09078749  1
  Mg  Mg4_1  1  0.00000265  0.99999735  0.59078750  1
  Mg  Mg4_2  1  0.00000265  0.49999736  0.09078749  1
  Mg  Mg4_3  1  0.00000265  0.49999736  0.59078750  1
  Mg  Mg4_4  1  0.50000265  0.99999735  0.09078749  1
  Mg  Mg4_5  1  0.50000265  0.99999735  0.59078750  1
  Mg  Mg4_6  1  0.50000265  0.49999736  0.09078749  1
  Mg  Mg4_7  1  0.50000265  0.49999736  0.59078750  1
loop_
_geom_bond_atom_site_label_1
_geom_bond_atom_site_label_2
_geom_bond_distance
_geom_bond_site_symmetry_2
Ce0_0 Ce0_6 3.151956 1_445
Ce0_0 Ce0_6 3.151956 1_555
Ce0_0 Ce0_2 3.151990 1_555
Ce0_0 Ce0_2 3.151990 1_545
Ce0_0 Ce0_4 3.151990 1_555
Ce0_0 Ce0_4 3.151990 1_455
Ce0_0 Mg4_6 3.455651 1_555
Ce0_0 Mg0_7 3.455651 1_554
Ce0_0 Mg4_0 3.455651 1_545
Ce0_0 Mg0_1 3.455651 1_544
Ce0_0 Mg4_4 3.455702 1_545
Ce0_0 Mg0_5 3.455702 1_544
Ce0_1 Ce0_7 3.151956 1_445
Ce0_1 Ce0_7 3.151956 1_555
Ce0_1 Ce0_3 3.151990 1_555
Ce0_1 Ce0_3 3.151990 1_545
Ce0_1 Ce0_5 3.151990 1_555
Ce0_1 Ce0_5 3.151990 1_455
Ce0_1 Mg0_6 3.455651 1_555
Ce0_1 Mg4_7 3.455651 1_555
Ce0_1 Mg0_0 3.455651 1_545
Ce0_1 Mg4_1 3.455651 1_545
Ce0_1 Mg0_4 3.455702 1_545
Ce0_1 Mg4_5 3.455702 1_545
Ce0_2 Ce0_4 3.151956 1_565
Ce0_2 Ce0_4 3.151956 1_455
Ce0_2 Ce0_6 3.151990 1_555
Ce0_2 Ce0_6 3.151990 1_455
Ce0_2 Mg4_4 3.455651 1_555
Ce0_2 Mg0_5 3.455651 1_554
Ce0_2 Mg4_2 3.455651 1_555
Ce0_2 Mg0_3 3.455651 1_554
Ce0_2 Mg4_6 3.455702 1_555
Ce0_2 Mg0_7 3.455702 1_554
Ce0_3 Ce0_5 3.151956 1_565
Ce0_3 Ce0_5 3.151956 1_455
Ce0_3 Ce0_7 3.151990 1_555
Ce0_3 Ce0_7 3.151990 1_455
Ce0_3 Mg0_4 3.455651 1_555
Ce0_3 Mg4_5 3.455651 1_555
Ce0_3 Mg0_2 3.455651 1_555
Ce0_3 Mg4_3 3.455651 1_555
Ce0_3 Mg0_6 3.455702 1_555
Ce0_3 Mg4_7 3.455702 1_555
Ce0_4 Ce0_6 3.151990 1_545
Ce0_4 Ce0_6 3.151990 1_555
Ce0_4 Mg4_2 3.455651 1_655
Ce0_4 Mg0_3 3.455651 1_654
Ce0_4 Mg4_4 3.455651 1_545
Ce0_4 Mg0_5 3.455651 1_544
Ce0_4 Mg4_0 3.455702 1_645
Ce0_4 Mg0_1 3.455702 1_644
Ce0_5 Ce0_7 3.151990 1_545
Ce0_5 Ce0_7 3.151990 1_555
Ce0_5 Mg0_2 3.455651 1_655
Ce0_5 Mg4_3 3.455651 1_655
Ce0_5 Mg0_4 3.455651 1_545
Ce0_5 Mg4_5 3.455651 1_545
Ce0_5 Mg0_0 3.455702 1_645
Ce0_5 Mg4_1 3.455702 1_645
Ce0_6 Mg4_0 3.455651 1_655
Ce0_6 Mg0_1 3.455651 1_654
Ce0_6 Mg4_6 3.455651 1_555
Ce0_6 Mg0_7 3.455651 1_554
Ce0_6 Mg4_2 3.455702 1_655
Ce0_6 Mg0_3 3.455702 1_654
Ce0_7 Mg0_0 3.455651 1_655
Ce0_7 Mg4_1 3.455651 1_655
Ce0_7 Mg0_6 3.455651 1_555
Ce0_7 Mg4_7 3.455651 1_555
Ce0_7 Mg0_2 3.455702 1_655
Ce0_7 Mg4_3 3.455702 1_655
Mg0_0 Mg1_6 3.145807 1_455
Mg0_0 Mg1_0 3.145807 1_565
Mg0_0 Mg1_4 3.145864 1_465
Mg0_0 Mg0_6 3.151956 1_455
Mg0_0 Mg0_6 3.151956 1_565
Mg0_0 Mg0_2 3.151990 1_555
Mg0_0 Mg0_2 3.151990 1_565
Mg0_0 Mg0_4 3.151990 1_555
Mg0_0 Mg0_4 3.151990 1_455
Mg0_1 Mg1_7 3.145807 1_455
Mg0_1 Mg1_1 3.145807 1_565
Mg0_1 Mg1_5 3.145864 1_465
Mg0_1 Mg0_7 3.151956 1_455
Mg0_1 Mg0_7 3.151956 1_565
Mg0_1 Mg0_3 3.151990 1_555
Mg0_1 Mg0_3 3.151990 1_565
Mg0_1 Mg0_5 3.151990 1_555
Mg0_1 Mg0_5 3.151990 1_455
Mg0_2 Mg1_4 3.145807 1_455
Mg0_2 Mg1_2 3.145807 1_555
Mg0_2 Mg1_6 3.145864 1_455
Mg0_2 Mg0_4 3.151956 1_555
Mg0_2 Mg0_4 3.151956 1_445
Mg0_2 Mg0_6 3.151990 1_555
Mg0_2 Mg0_6 3.151990 1_455
Mg0_3 Mg1_5 3.145807 1_455
Mg0_3 Mg1_3 3.145807 1_555
Mg0_3 Mg1_7 3.145864 1_455
Mg0_3 Mg0_5 3.151956 1_555
Mg0_3 Mg0_5 3.151956 1_445
Mg0_3 Mg0_7 3.151990 1_555
Mg0_3 Mg0_7 3.151990 1_455
Mg0_4 Mg1_2 3.145807 1_555
Mg0_4 Mg1_4 3.145807 1_565
Mg0_4 Mg1_0 3.145864 1_565
Mg0_4 Mg0_6 3.151990 1_555
Mg0_4 Mg0_6 3.151990 1_565
Mg0_5 Mg1_3 3.145807 1_555
Mg0_5 Mg1_5 3.145807 1_565
Mg0_5 Mg1_1 3.145864 1_565
Mg0_5 Mg0_7 3.151990 1_555
Mg0_5 Mg0_7 3.151990 1_565
Mg0_6 Mg1_0 3.145807 1_555
Mg0_6 Mg1_6 3.145807 1_555
Mg0_6 Mg1_2 3.145864 1_555
Mg0_7 Mg1_1 3.145807 1_555
Mg0_7 Mg1_7 3.145807 1_555
Mg0_7 Mg1_3 3.145864 1_555
Mg1_0 Mg1_6 3.151956 1_445
Mg1_0 Mg1_6 3.151956 1_555
Mg1_0 Mg1_2 3.151990 1_555
Mg1_0 Mg1_2 3.151990 1_545
Mg1_0 Mg1_4 3.151990 1_555
Mg1_0 Mg1_4 3.151990 1_455
Mg1_0 Mg2_6 3.161888 1_555
Mg1_0 Mg2_0 3.161888 1_545
Mg1_0 Mg2_4 3.161934 1_545
Mg1_1 Mg1_7 3.151956 1_445
Mg1_1 Mg1_7 3.151956 1_555
Mg1_1 Mg1_3 3.151990 1_555
Mg1_1 Mg1_3 3.151990 1_545
Mg1_1 Mg1_5 3.151990 1_555
Mg1_1 Mg1_5 3.151990 1_455
Mg1_1 Mg2_7 3.161888 1_555
Mg1_1 Mg2_1 3.161888 1_545
Mg1_1 Mg2_5 3.161934 1_545
Mg1_2 Mg1_4 3.151956 1_565
Mg1_2 Mg1_4 3.151956 1_455
Mg1_2 Mg1_6 3.151990 1_555
Mg1_2 Mg1_6 3.151990 1_455
Mg1_2 Mg2_4 3.161888 1_555
Mg1_2 Mg2_2 3.161888 1_555
Mg1_2 Mg2_6 3.161934 1_555
Mg1_3 Mg1_5 3.151956 1_565
Mg1_3 Mg1_5 3.151956 1_455
Mg1_3 Mg1_7 3.151990 1_555
Mg1_3 Mg1_7 3.151990 1_455
Mg1_3 Mg2_5 3.161888 1_555
Mg1_3 Mg2_3 3.161888 1_555
Mg1_3 Mg2_7 3.161934 1_555
Mg1_4 Mg1_6 3.151990 1_545
Mg1_4 Mg1_6 3.151990 1_555
Mg1_4 Mg2_2 3.161888 1_655
Mg1_4 Mg2_4 3.161888 1_545
Mg1_4 Mg2_0 3.161934 1_645
Mg1_5 Mg1_7 3.151990 1_545
Mg1_5 Mg1_7 3.151990 1_555
Mg1_5 Mg2_3 3.161888 1_655
Mg1_5 Mg2_5 3.161888 1_545
Mg1_5 Mg2_1 3.161934 1_645
Mg1_6 Mg2_0 3.161888 1_655
Mg1_6 Mg2_6 3.161888 1_555
Mg1_6 Mg2_2 3.161934 1_655
Mg1_7 Mg2_1 3.161888 1_655
Mg1_7 Mg2_7 3.161888 1_555
Mg1_7 Mg2_3 3.161934 1_655
Mg2_0 Mg2_6 3.151956 1_455
Mg2_0 Mg2_6 3.151956 1_565
Mg2_0 Mg2_2 3.151990 1_565
Mg2_0 Mg2_2 3.151990 1_555
Mg2_0 Mg2_4 3.151990 1_555
Mg2_0 Mg2_4 3.151990 1_455
Mg2_0 Mg3_6 3.161888 1_455
Mg2_0 Mg3_0 3.161888 1_565
Mg2_0 Mg3_4 3.161934 1_465
Mg2_1 Mg2_7 3.151956 1_455
Mg2_1 Mg2_7 3.151956 1_565
Mg2_1 Mg2_3 3.151990 1_565
Mg2_1 Mg2_3 3.151990 1_555
Mg2_1 Mg2_5 3.151990 1_555
Mg2_1 Mg2_5 3.151990 1_455
Mg2_1 Mg3_7 3.161888 1_455
Mg2_1 Mg3_1 3.161888 1_565
Mg2_1 Mg3_5 3.161934 1_465
Mg2_2 Mg2_4 3.151956 1_555
Mg2_2 Mg2_4 3.151956 1_445
Mg2_2 Mg2_6 3.151990 1_555
Mg2_2 Mg2_6 3.151990 1_455
Mg2_2 Mg3_4 3.161888 1_455
Mg2_2 Mg3_2 3.161888 1_555
Mg2_2 Mg3_6 3.161934 1_455
Mg2_3 Mg2_5 3.151956 1_555
Mg2_3 Mg2_5 3.151956 1_445
Mg2_3 Mg2_7 3.151990 1_555
Mg2_3 Mg2_7 3.151990 1_455
Mg2_3 Mg3_5 3.161888 1_455
Mg2_3 Mg3_3 3.161888 1_555
Mg2_3 Mg3_7 3.161934 1_455
Mg2_4 Mg2_6 3.151990 1_555
Mg2_4 Mg2_6 3.151990 1_565
Mg2_4 Mg3_2 3.161888 1_555
Mg2_4 Mg3_4 3.161888 1_565
Mg2_4 Mg3_0 3.161934 1_565
Mg2_5 Mg2_7 3.151990 1_555
Mg2_5 Mg2_7 3.151990 1_565
Mg2_5 Mg3_3 3.161888 1_555
Mg2_5 Mg3_5 3.161888 1_565
Mg2_5 Mg3_1 3.161934 1_565
Mg2_6 Mg3_0 3.161888 1_555
Mg2_6 Mg3_6 3.161888 1_555
Mg2_6 Mg3_2 3.161934 1_555
Mg2_7 Mg3_1 3.161888 1_555
Mg2_7 Mg3_7 3.161888 1_555
Mg2_7 Mg3_3 3.161934 1_555
Mg3_0 Mg4_6 3.145807 1_555
Mg3_0 Mg4_0 3.145807 1_545
Mg3_0 Mg4_4 3.145864 1_545
Mg3_0 Mg3_6 3.151956 1_445
Mg3_0 Mg3_6 3.151956 1_555
Mg3_0 Mg3_2 3.151990 1_555
Mg3_0 Mg3_2 3.151990 1_545
Mg3_0 Mg3_4 3.151990 1_555
Mg3_0 Mg3_4 3.151990 1_455
Mg3_1 Mg4_7 3.145807 1_555
Mg3_1 Mg4_1 3.145807 1_545
Mg3_1 Mg4_5 3.145864 1_545
Mg3_1 Mg3_7 3.151956 1_445
Mg3_1 Mg3_7 3.151956 1_555
Mg3_1 Mg3_3 3.151990 1_555
Mg3_1 Mg3_3 3.151990 1_545
Mg3_1 Mg3_5 3.151990 1_555
Mg3_1 Mg3_5 3.151990 1_455
Mg3_2 Mg4_4 3.145807 1_555
Mg3_2 Mg4_2 3.145807 1_555
Mg3_2 Mg4_6 3.145864 1_555
Mg3_2 Mg3_4 3.151956 1_565
Mg3_2 Mg3_4 3.151956 1_455
Mg3_2 Mg3_6 3.151990 1_555
Mg3_2 Mg3_6 3.151990 1_455
Mg3_3 Mg4_5 3.145807 1_555
Mg3_3 Mg4_3 3.145807 1_555
Mg3_3 Mg4_7 3.145864 1_555
Mg3_3 Mg3_5 3.151956 1_565
Mg3_3 Mg3_5 3.151956 1_455
Mg3_3 Mg3_7 3.151990 1_555
Mg3_3 Mg3_7 3.151990 1_455
Mg3_4 Mg4_2 3.145807 1_655
Mg3_4 Mg4_4 3.145807 1_545
Mg3_4 Mg4_0 3.145864 1_645
Mg3_4 Mg3_6 3.151990 1_545
Mg3_4 Mg3_6 3.151990 1_555
Mg3_5 Mg4_3 3.145807 1_655
Mg3_5 Mg4_5 3.145807 1_545
Mg3_5 Mg4_1 3.145864 1_645
Mg3_5 Mg3_7 3.151990 1_545
Mg3_5 Mg3_7 3.151990 1_555
Mg3_6 Mg4_0 3.145807 1_655
Mg3_6 Mg4_6 3.145807 1_555
Mg3_6 Mg4_2 3.145864 1_655
Mg3_7 Mg4_1 3.145807 1_655
Mg3_7 Mg4_7 3.145807 1_555
Mg3_7 Mg4_3 3.145864 1_655
Mg4_0 Mg4_6 3.151956 1_455
Mg4_0 Mg4_6 3.151956 1_565
Mg4_0 Mg4_2 3.151990 1_555
Mg4_0 Mg4_2 3.151990 1_565
Mg4_0 Mg4_4 3.151990 1_555
Mg4_0 Mg4_4 3.151990 1_455
Mg4_1 Mg4_7 3.151956 1_455
Mg4_1 Mg4_7 3.151956 1_565
Mg4_1 Mg4_3 3.151990 1_555
Mg4_1 Mg4_3 3.151990 1_565
Mg4_1 Mg4_5 3.151990 1_555
Mg4_1 Mg4_5 3.151990 1_455
Mg4_2 Mg4_4 3.151956 1_555
Mg4_2 Mg4_4 3.151956 1_445
Mg4_2 Mg4_6 3.151990 1_555
Mg4_2 Mg4_6 3.151990 1_455
Mg4_3 Mg4_5 3.151956 1_555
Mg4_3 Mg4_5 3.151956 1_445
Mg4_3 Mg4_7 3.151990 1_555
Mg4_3 Mg4_7 3.151990 1_455
Mg4_4 Mg4_6 3.151990 1_555
Mg4_4 Mg4_6 3.151990 1_565
Mg4_5 Mg4_7 3.151990 1_555
Mg4_5 Mg4_7 3.151990 1_565
