# generated using pymatgen
data_AcTh
_symmetry_space_group_name_H-M   'P 1'
_cell_length_a   7.48447200
_cell_length_b   7.48448409
_cell_length_c   12.37920600
_cell_angle_alpha   90.00000000
_cell_angle_beta   90.00000000
_cell_angle_gamma   119.99992889
_symmetry_Int_Tables_number   1
_chemical_formula_structural   AcTh
_chemical_formula_sum   'Ac8 Th8'
_cell_volume   600.54667997
_cell_formula_units_Z   8
loop_
 _symmetry_equiv_pos_site_id
 _symmetry_equiv_pos_as_xyz
  1  'x, y, z'
loop_
 _atom_site_type_symbol
 _atom_site_label
 _atom_site_symmetry_multiplicity
 _atom_site_fract_x
 _atom_site_fract_y
 _atom_site_fract_z
 _atom_site_occupancy
  Ac  Ac0_0  1  0.33333250  0.16666700  0.37500000  1
  Ac  Ac0_1  1  0.33333250  0.16666700  0.87500000  1
  Ac  Ac0_2  1  0.33333250  0.66666700  0.37500000  1
  Ac  Ac0_3  1  0.33333250  0.66666700  0.87500000  1
  Ac  Ac0_4  1  0.83333250  0.16666700  0.37500000  1
  Ac  Ac0_5  1  0.83333250  0.16666700  0.87500000  1
  Ac  Ac0_6  1  0.83333250  0.66666700  0.37500000  1
  Ac  Ac0_7  1  0.83333250  0.66666700  0.87500000  1
  Th  Th0_0  1  0.16666650  0.33333350  0.12500050  1
  Th  Th0_1  1  0.16666650  0.33333350  0.62500050  1
  Th  Th0_2  1  0.16666650  0.83333350  0.12500050  1
  Th  Th0_3  1  0.16666650  0.83333350  0.62500050  1
  Th  Th0_4  1  0.66666650  0.33333350  0.12500050  1
  Th  Th0_5  1  0.66666650  0.33333350  0.62500050  1
  Th  Th0_6  1  0.66666650  0.83333350  0.12500050  1
  Th  Th0_7  1  0.66666650  0.83333350  0.62500050  1
loop_
_geom_bond_atom_site_label_1
_geom_bond_atom_site_label_2
_geom_bond_distance
_geom_bond_site_symmetry_2
Ac0_0 Ac0_4 3.742236 1_555
Ac0_0 Ac0_4 3.742236 1_455
Ac0_0 Ac0_2 3.742242 1_555
Ac0_0 Ac0_2 3.742242 1_545
Ac0_0 Ac0_6 3.742243 1_555
Ac0_0 Ac0_6 3.742243 1_445
Ac0_0 Th0_0 3.774367 1_555
Ac0_0 Th0_4 3.774373 1_555
Ac0_0 Th0_2 3.774373 1_545
Ac0_0 Th0_1 3.774378 1_555
Ac0_0 Th0_5 3.774383 1_555
Ac0_0 Th0_3 3.774384 1_545
Ac0_1 Ac0_5 3.742236 1_555
Ac0_1 Ac0_5 3.742236 1_455
Ac0_1 Ac0_3 3.742242 1_545
Ac0_1 Ac0_3 3.742242 1_555
Ac0_1 Ac0_7 3.742243 1_445
Ac0_1 Ac0_7 3.742243 1_555
Ac0_1 Th0_1 3.774367 1_555
Ac0_1 Th0_5 3.774373 1_555
Ac0_1 Th0_3 3.774373 1_545
Ac0_1 Th0_0 3.774378 1_556
Ac0_1 Th0_4 3.774383 1_556
Ac0_1 Th0_2 3.774384 1_546
Ac0_2 Ac0_6 3.742236 1_555
Ac0_2 Ac0_6 3.742236 1_455
Ac0_2 Ac0_4 3.742243 1_565
Ac0_2 Ac0_4 3.742243 1_455
Ac0_2 Th0_2 3.774367 1_555
Ac0_2 Th0_6 3.774373 1_555
Ac0_2 Th0_0 3.774373 1_555
Ac0_2 Th0_3 3.774378 1_555
Ac0_2 Th0_7 3.774383 1_555
Ac0_2 Th0_1 3.774384 1_555
Ac0_3 Ac0_7 3.742236 1_455
Ac0_3 Ac0_7 3.742236 1_555
Ac0_3 Ac0_5 3.742243 1_565
Ac0_3 Ac0_5 3.742243 1_455
Ac0_3 Th0_3 3.774367 1_555
Ac0_3 Th0_7 3.774373 1_555
Ac0_3 Th0_1 3.774373 1_555
Ac0_3 Th0_2 3.774378 1_556
Ac0_3 Th0_6 3.774383 1_556
Ac0_3 Th0_0 3.774384 1_556
Ac0_4 Ac0_6 3.742242 1_545
Ac0_4 Ac0_6 3.742242 1_555
Ac0_4 Th0_4 3.774367 1_555
Ac0_4 Th0_0 3.774373 1_655
Ac0_4 Th0_6 3.774373 1_545
Ac0_4 Th0_5 3.774378 1_555
Ac0_4 Th0_1 3.774383 1_655
Ac0_4 Th0_7 3.774384 1_545
Ac0_5 Ac0_7 3.742242 1_555
Ac0_5 Ac0_7 3.742242 1_545
Ac0_5 Th0_5 3.774367 1_555
Ac0_5 Th0_1 3.774373 1_655
Ac0_5 Th0_7 3.774373 1_545
Ac0_5 Th0_4 3.774378 1_556
Ac0_5 Th0_0 3.774383 1_656
Ac0_5 Th0_6 3.774384 1_546
Ac0_6 Th0_6 3.774367 1_555
Ac0_6 Th0_2 3.774373 1_655
Ac0_6 Th0_4 3.774373 1_555
Ac0_6 Th0_7 3.774378 1_555
Ac0_6 Th0_3 3.774383 1_655
Ac0_6 Th0_5 3.774384 1_555
Ac0_7 Th0_7 3.774367 1_555
Ac0_7 Th0_3 3.774373 1_655
Ac0_7 Th0_5 3.774373 1_555
Ac0_7 Th0_6 3.774378 1_556
Ac0_7 Th0_2 3.774383 1_656
Ac0_7 Th0_4 3.774384 1_556
Th0_0 Th0_4 3.742236 1_555
Th0_0 Th0_4 3.742236 1_455
Th0_0 Th0_2 3.742242 1_555
Th0_0 Th0_2 3.742242 1_545
Th0_0 Th0_6 3.742243 1_555
Th0_0 Th0_6 3.742243 1_445
Th0_1 Th0_5 3.742236 1_555
Th0_1 Th0_5 3.742236 1_455
Th0_1 Th0_3 3.742242 1_555
Th0_1 Th0_3 3.742242 1_545
Th0_1 Th0_7 3.742243 1_555
Th0_1 Th0_7 3.742243 1_445
Th0_2 Th0_6 3.742236 1_455
Th0_2 Th0_6 3.742236 1_555
Th0_2 Th0_4 3.742243 1_455
Th0_2 Th0_4 3.742243 1_565
Th0_3 Th0_7 3.742236 1_455
Th0_3 Th0_7 3.742236 1_555
Th0_3 Th0_5 3.742243 1_455
Th0_3 Th0_5 3.742243 1_565
Th0_4 Th0_6 3.742242 1_555
Th0_4 Th0_6 3.742242 1_545
Th0_5 Th0_7 3.742242 1_555
Th0_5 Th0_7 3.742242 1_545
