# generated using pymatgen
data_LaMn2CdO6
_symmetry_space_group_name_H-M   'P 1'
_cell_length_a   5.56264971
_cell_length_b   9.49067245
_cell_length_c   5.46793996
_cell_angle_alpha   72.02119101
_cell_angle_beta   59.73614893
_cell_angle_gamma   73.07661975
_symmetry_Int_Tables_number   1
_chemical_formula_structural   LaMn2CdO6
_chemical_formula_sum   'La2 Mn4 Cd2 O12'
_cell_volume   233.90473542
_cell_formula_units_Z   2
loop_
 _symmetry_equiv_pos_site_id
 _symmetry_equiv_pos_as_xyz
  1  'x, y, z'
loop_
 _atom_site_type_symbol
 _atom_site_label
 _atom_site_symmetry_multiplicity
 _atom_site_fract_x
 _atom_site_fract_y
 _atom_site_fract_z
 _atom_site_occupancy
  La  La0  1  0.13500900  0.62461600  0.12287100  1
  La  La1  1  0.61235800  0.12430700  0.62550600  1
  Mn  Mn0  1  0.24534300  0.24905100  0.25155400  1
  Mn  Mn1  1  0.98388400  0.00062600  0.00529800  1
  Mn  Mn2  1  0.75353700  0.74901600  0.74685100  1
  Mn  Mn3  1  0.51462400  0.50095800  0.49300900  1
  Cd  Cd0  1  0.36771000  0.87485300  0.37410000  1
  Cd  Cd1  1  0.88647100  0.37422500  0.87435900  1
  O  O0  1  0.89120900  0.37827100  0.45477400  1
  O  O1  1  0.33385200  0.87687600  0.97547900  1
  O  O2  1  0.30260400  0.37575300  0.87090100  1
  O  O3  1  0.77813100  0.87557800  0.37563000  1
  O  O4  1  0.48492200  0.37793400  0.29792600  1
  O  O5  1  0.94603100  0.87897500  0.78418600  1
  O  O6  1  0.18537300  0.12127700  0.62566700  1
  O  O7  1  0.70064000  0.63144500  0.13170000  1
  O  O8  1  0.03484600  0.12799900  0.17635800  1
  O  O9  1  0.57523400  0.61709700  0.69956100  1
  O  O10  1  0.61043900  0.11912800  0.06192200  1
  O  O11  1  0.15777900  0.62201600  0.55234900  1
loop_
_geom_bond_atom_site_label_1
_geom_bond_atom_site_label_2
_geom_bond_distance
_geom_bond_site_symmetry_2
La0 O7 2.374435 1_455
La0 O9 2.376193 1_554
La0 O11 2.407004 1_555
La0 O1 2.656462 1_554
La0 O0 2.710113 1_455
La0 O2 2.788918 1_554
La0 O4 2.833288 1_555
La0 O3 2.835121 1_455
La0 O5 2.843809 1_454
La1 O10 2.366255 1_556
La1 O6 2.383252 1_555
La1 O8 2.394375 1_655
La1 O4 2.670159 1_555
La1 O5 2.734841 1_545
La1 O2 2.777888 1_555
La1 O3 2.782699 1_545
La1 O1 2.816409 1_545
La1 O0 2.900865 1_555
Mn0 O6 1.944920 1_555
Mn0 O0 1.961566 1_455
Mn0 O2 1.972122 1_554
Mn0 O10 1.982147 1_555
Mn0 O8 2.102396 1_555
Mn0 O4 2.194918 1_555
Mn1 O8 1.892447 1_655
Mn1 O1 1.913887 1_644
Mn1 O3 1.946793 1_545
Mn1 O6 1.952190 1_654
Mn1 O10 1.970427 1_555
Mn1 O5 2.024580 1_544
Mn2 O9 1.949210 1_555
Mn2 O5 1.963205 1_555
Mn2 O7 1.969099 1_556
Mn2 O3 1.972885 1_555
Mn2 O11 2.107890 1_655
Mn2 O1 2.197946 1_555
Mn3 O4 1.893994 1_555
Mn3 O11 1.902297 1_555
Mn3 O7 1.918992 1_555
Mn3 O2 1.978966 1_555
Mn3 O9 1.993200 1_555
Mn3 O0 2.019039 1_555
Cd0 O1 2.274312 1_554
Cd0 O5 2.287085 1_455
Cd0 O3 2.289272 1_555
Cd1 O4 2.268182 1_556
Cd1 O0 2.269599 1_555
Cd1 O2 2.309574 1_655
Cd1 O8 2.595692 1_656
