# generated using pymatgen
data_Li4TiCo5O12
_symmetry_space_group_name_H-M   'P 1'
_cell_length_a   4.96299434
_cell_length_b   20.09688407
_cell_length_c   4.98797153
_cell_angle_alpha   89.73143269
_cell_angle_beta   118.83147858
_cell_angle_gamma   89.06377133
_symmetry_Int_Tables_number   1
_chemical_formula_structural   Li4TiCo5O12
_chemical_formula_sum   'Li8 Ti2 Co10 O24'
_cell_volume   435.73119544
_cell_formula_units_Z   2
loop_
 _symmetry_equiv_pos_site_id
 _symmetry_equiv_pos_as_xyz
  1  'x, y, z'
loop_
 _atom_site_type_symbol
 _atom_site_label
 _atom_site_symmetry_multiplicity
 _atom_site_fract_x
 _atom_site_fract_y
 _atom_site_fract_z
 _atom_site_occupancy
  Li  Li0  1  0.64372400  0.37242700  0.14597700  1
  Li  Li1  1  0.64930700  0.87215400  0.15212500  1
  Li  Li2  1  0.84880700  0.12762200  0.34789400  1
  Li  Li3  1  0.85051100  0.62720700  0.36209400  1
  Li  Li4  1  0.14586200  0.37256300  0.64270700  1
  Li  Li5  1  0.15130100  0.87227100  0.65180900  1
  Li  Li6  1  0.35046700  0.12774500  0.84789100  1
  Li  Li7  1  0.36112800  0.62729200  0.85023900  1
  Ti  Ti0  1  0.99987000  0.99997200  0.99989400  1
  Ti  Ti1  1  0.00615400  0.50119500  0.00612000  1
  Co  Co0  1  0.49981600  0.74990500  0.50001800  1
  Co  Co1  1  0.83529800  0.25009800  0.16416900  1
  Co  Co2  1  0.83541700  0.74964400  0.16472000  1
  Co  Co3  1  0.16444700  0.25026200  0.83523700  1
  Co  Co4  1  0.16463900  0.74980800  0.83568700  1
  Co  Co5  1  0.49996700  0.25007300  0.49977100  1
  Co  Co6  1  0.33816800  0.99870100  0.66522500  1
  Co  Co7  1  0.33254900  0.49924100  0.66263300  1
  Co  Co8  1  0.66165200  0.00136700  0.33466500  1
  Co  Co9  1  0.66297000  0.49939100  0.33295000  1
  O  O0  1  0.17011700  0.29724800  0.17124200  1
  O  O1  1  0.16988700  0.79676600  0.17148000  1
  O  O2  1  0.83028600  0.20314500  0.82872600  1
  O  O3  1  0.82921800  0.70268100  0.82807700  1
  O  O4  1  0.32906500  0.05181100  0.31567500  1
  O  O5  1  0.33539300  0.55045900  0.33732000  1
  O  O6  1  0.66211600  0.45182200  0.66026800  1
  O  O7  1  0.67084900  0.94820100  0.68429800  1
  O  O8  1  0.67573800  0.05678200  0.00524700  1
  O  O9  1  0.68634700  0.55560900  0.03409700  1
  O  O10  1  0.96956400  0.44378900  0.31136500  1
  O  O11  1  0.98141800  0.94471400  0.32688300  1
  O  O12  1  0.01855400  0.05535600  0.67317500  1
  O  O13  1  0.03257300  0.55571400  0.68834800  1
  O  O14  1  0.31322500  0.44386600  0.96798100  1
  O  O15  1  0.32422800  0.94326600  0.99461000  1
  O  O16  1  0.50731900  0.20077700  0.17014100  1
  O  O17  1  0.50764200  0.70043600  0.17122700  1
  O  O18  1  0.17167300  0.20072600  0.50661200  1
  O  O19  1  0.17248600  0.70043600  0.50742800  1
  O  O20  1  0.82729100  0.29949700  0.49264300  1
  O  O21  1  0.82813700  0.79926300  0.49312000  1
  O  O22  1  0.49239900  0.29949000  0.82855400  1
  O  O23  1  0.49242100  0.79920700  0.82965800  1
loop_
_geom_bond_atom_site_label_1
_geom_bond_atom_site_label_2
_geom_bond_distance
_geom_bond_site_symmetry_2
Li0 O14 2.011594 1_554
Li0 O22 2.032324 1_554
Li0 O10 2.037819 1_555
Li0 O20 2.093181 1_555
Li1 O15 1.988523 1_554
Li1 O23 2.047947 1_554
Li1 O21 2.074795 1_555
Li1 O11 2.075522 1_555
Li2 O12 2.017688 1_655
Li2 O18 2.053572 1_655
Li2 O16 2.068091 1_555
Li2 O8 2.081482 1_555
Li3 O13 2.011598 1_655
Li3 O9 2.045885 1_555
Li3 O19 2.052907 1_655
Li3 O17 2.076147 1_555
Li4 O10 2.021935 1_455
Li4 O14 2.033869 1_555
Li4 O20 2.039855 1_455
Li4 O22 2.083481 1_555
Li5 O11 2.019165 1_455
Li5 O21 2.053060 1_455
Li5 O23 2.065736 1_555
Li5 O15 2.084108 1_555
Li6 O8 1.986999 1_556
Li6 O16 2.048530 1_556
Li6 O12 2.072455 1_555
Li6 O18 2.076913 1_555
Li7 O9 2.001391 1_556
Li7 O17 2.046249 1_556
Li7 O13 2.048862 1_555
Li7 O19 2.085341 1_555
Co0 O1 1.897556 1_555
Co0 O3 1.898850 1_555
Co0 O19 1.933704 1_555
Co0 O21 1.935673 1_555
Co0 O17 1.937768 1_555
Co0 O23 1.938778 1_555
Co1 O0 1.911968 1_655
Co1 O2 1.914674 1_554
Co1 O16 1.931883 1_555
Co1 O20 1.936062 1_555
Co1 O22 1.966063 1_554
Co1 O18 1.966937 1_655
Co2 O1 1.910799 1_655
Co2 O3 1.917629 1_554
Co2 O17 1.930939 1_555
Co2 O21 1.936521 1_555
Co2 O23 1.966765 1_554
Co2 O19 1.967395 1_655
Co3 O2 1.909912 1_455
Co3 O0 1.916137 1_556
Co3 O22 1.932274 1_555
Co3 O18 1.936507 1_555
Co3 O16 1.965386 1_556
Co3 O20 1.967581 1_455
Co4 O3 1.913261 1_455
Co4 O1 1.915774 1_556
Co4 O23 1.931989 1_555
Co4 O19 1.934527 1_555
Co4 O17 1.965936 1_556
Co4 O21 1.968297 1_455
Co5 O2 1.899974 1_555
Co5 O0 1.900390 1_555
Co5 O20 1.932608 1_555
Co5 O18 1.935322 1_555
Co5 O22 1.936657 1_555
Co5 O16 1.938583 1_555
Co6 O7 1.886268 1_555
Co6 O12 1.953507 1_565
Co6 O15 2.010039 1_555
Co6 O4 2.021441 1_565
Co6 O11 2.087628 1_455
Co6 O8 2.094697 1_566
Co7 O6 1.884514 1_555
Co7 O13 1.910839 1_555
Co7 O14 1.922466 1_555
Co7 O5 1.923437 1_555
Co7 O10 2.144023 1_455
Co7 O9 2.178618 1_556
Co8 O4 1.885441 1_555
Co8 O11 1.953750 1_545
Co8 O8 2.010271 1_555
Co8 O7 2.022195 1_545
Co8 O12 2.088338 1_655
Co8 O15 2.094695 1_544
Co9 O6 1.889884 1_555
Co9 O9 1.915025 1_555
Co9 O5 1.917485 1_555
Co9 O10 1.918110 1_555
Co9 O14 2.146365 1_554
Co9 O13 2.176922 1_655
O4 Ti0 1.955667 1_444
O5 Ti1 1.960625 1_555
O6 Ti1 2.026441 1_656
O7 Ti0 1.954148 1_555
O8 Ti0 1.968171 1_544
O9 Ti1 1.973035 1_655
O10 Ti1 1.984735 1_655
O11 Ti0 2.008040 1_554
O12 Ti0 2.008829 1_445
O13 Ti1 1.979613 1_556
O14 Ti1 1.977485 1_556
O15 Ti0 1.967760 1_455
