# generated using pymatgen
data_Ca2RuN3
_symmetry_space_group_name_H-M   'P 1'
_cell_length_a   6.07496433
_cell_length_b   10.79044285
_cell_length_c   11.84792000
_cell_angle_alpha   90.00000000
_cell_angle_beta   90.00000000
_cell_angle_gamma   27.36360846
_symmetry_Int_Tables_number   1
_chemical_formula_structural   Ca2RuN3
_chemical_formula_sum   'Ca8 Ru4 N12'
_cell_volume   356.97594880
_cell_formula_units_Z   4
loop_
 _symmetry_equiv_pos_site_id
 _symmetry_equiv_pos_as_xyz
  1  'x, y, z'
loop_
 _atom_site_type_symbol
 _atom_site_label
 _atom_site_symmetry_multiplicity
 _atom_site_fract_x
 _atom_site_fract_y
 _atom_site_fract_z
 _atom_site_occupancy
  Ca  Ca0  1  0.00000000  0.45436900  0.64367000  1
  Ca  Ca1  1  0.00000000  0.54563100  0.35633000  1
  Ca  Ca2  1  0.00000000  0.04563100  0.14367000  1
  Ca  Ca3  1  0.00000000  0.95436900  0.85633000  1
  Ca  Ca4  1  0.00000000  0.13700700  0.57643300  1
  Ca  Ca5  1  0.00000000  0.86299300  0.42356700  1
  Ca  Ca6  1  0.00000000  0.36299300  0.07643300  1
  Ca  Ca7  1  0.00000000  0.63700700  0.92356700  1
  Ru  Ru0  1  0.00000000  0.25331700  0.84312300  1
  Ru  Ru1  1  0.00000000  0.74668300  0.15687700  1
  Ru  Ru2  1  0.00000000  0.24668300  0.34312300  1
  Ru  Ru3  1  0.00000000  0.75331700  0.65687700  1
  N  N0  1  0.00000000  0.15469500  0.97364300  1
  N  N1  1  0.00000000  0.84530500  0.02635700  1
  N  N2  1  0.00000000  0.34530500  0.47364300  1
  N  N3  1  0.00000000  0.65469500  0.52635700  1
  N  N4  1  0.00000000  0.42879800  0.86255600  1
  N  N5  1  0.00000000  0.57120200  0.13744400  1
  N  N6  1  0.00000000  0.07120200  0.36255600  1
  N  N7  1  0.00000000  0.92879800  0.63744400  1
  N  N8  1  0.50000000  0.44939300  0.75000000  1
  N  N9  1  0.50000000  0.05060700  0.25000000  1
  N  N10  1  0.50000000  0.55060700  0.25000000  1
  N  N11  1  0.50000000  0.94939300  0.75000000  1
loop_
_geom_bond_atom_site_label_1
_geom_bond_atom_site_label_2
_geom_bond_distance
_geom_bond_site_symmetry_2
Ca0 N2 2.333034 1_555
Ca0 N3 2.569904 1_555
Ca0 N4 2.607981 1_555
Ca0 N7 2.806840 1_455
Ca0 N7 2.806840 1_645
Ca1 N3 2.333034 1_555
Ca1 N2 2.569904 1_555
Ca1 N5 2.607981 1_555
Ca1 N6 2.806840 1_655
Ca1 N6 2.806840 1_465
Ca2 N0 2.333034 1_554
Ca2 N1 2.569904 1_545
Ca2 N6 2.607981 1_555
Ca2 N5 2.806840 1_645
Ca2 N5 2.806840 1_455
Ca3 N1 2.333034 1_556
Ca3 N0 2.569904 1_565
Ca3 N7 2.607981 1_555
Ca3 N4 2.806840 1_465
Ca3 N4 2.806840 1_655
Ca4 N7 2.360091 1_545
Ca4 N2 2.556361 1_555
Ca4 N11 2.575106 1_545
Ca4 N8 2.575106 1_455
Ca4 N6 2.631603 1_555
Ca4 N3 2.860980 1_645
Ca4 N3 2.860980 1_455
Ca5 N6 2.360091 1_565
Ca5 N3 2.556361 1_555
Ca5 N9 2.575106 1_465
Ca5 N10 2.575106 1_555
Ca5 N7 2.631603 1_555
Ca5 N2 2.860980 1_465
Ca5 N2 2.860980 1_655
Ca6 N5 2.360091 1_555
Ca6 N0 2.556361 1_554
Ca6 N10 2.575106 1_455
Ca6 N9 2.575106 1_555
Ca6 N4 2.631603 1_554
Ca6 N1 2.860980 1_455
Ca6 N1 2.860980 1_645
Ca7 N4 2.360091 1_555
Ca7 N1 2.556361 1_556
Ca7 N8 2.575106 1_555
Ca7 N11 2.575106 1_455
Ca7 N5 2.631603 1_556
Ca7 N0 2.860980 1_655
Ca7 N0 2.860980 1_465
N0 Ru0 1.877177 1_555
N1 Ru1 1.877177 1_555
N2 Ru2 1.877177 1_555
N3 Ru3 1.877177 1_555
N4 Ru0 1.907464 1_555
N5 Ru1 1.907464 1_555
N6 Ru2 1.907464 1_555
N7 Ru3 1.907464 1_555
N8 Ru0 1.872181 1_655
N8 Ru3 1.872181 1_555
N9 Ru2 1.872181 1_555
N9 Ru1 1.872181 1_645
N10 Ru1 1.872181 1_555
N10 Ru2 1.872181 1_655
N11 Ru3 1.872181 1_655
N11 Ru0 1.872181 1_565
