# generated using pymatgen
data_Li2Mn3GaO8
_symmetry_space_group_name_H-M   'P 1'
_cell_length_a   5.87792690
_cell_length_b   6.01997309
_cell_length_c   10.14763914
_cell_angle_alpha   90.02503267
_cell_angle_beta   74.15600360
_cell_angle_gamma   120.77348206
_symmetry_Int_Tables_number   1
_chemical_formula_structural   Li2Mn3GaO8
_chemical_formula_sum   'Li4 Mn6 Ga2 O16'
_cell_volume   292.55187984
_cell_formula_units_Z   2
loop_
 _symmetry_equiv_pos_site_id
 _symmetry_equiv_pos_as_xyz
  1  'x, y, z'
loop_
 _atom_site_type_symbol
 _atom_site_label
 _atom_site_symmetry_multiplicity
 _atom_site_fract_x
 _atom_site_fract_y
 _atom_site_fract_z
 _atom_site_occupancy
  Li  Li0  1  0.88421800  0.94066300  0.18115900  1
  Li  Li1  1  0.88451700  0.44495900  0.68095000  1
  Li  Li2  1  0.11553100  0.55505200  0.31909200  1
  Li  Li3  1  0.11577800  0.05929400  0.81884200  1
  Mn  Mn0  1  0.49995800  0.50003100  0.00000700  1
  Mn  Mn1  1  0.49999200  0.99998900  0.00006600  1
  Mn  Mn2  1  0.00002200  0.99996400  0.49994500  1
  Mn  Mn3  1  0.50004600  0.00000100  0.49991900  1
  Mn  Mn4  1  0.49998500  0.49996900  0.49996400  1
  Mn  Mn5  1  0.00002100  0.49999900  0.00008300  1
  Ga  Ga0  1  0.50030700  0.75186100  0.74997900  1
  Ga  Ga1  1  0.49965100  0.24819700  0.25003200  1
  O  O0  1  0.75290900  0.90308700  0.38912200  1
  O  O1  1  0.75243100  0.35036700  0.88945100  1
  O  O2  1  0.24764300  0.64963600  0.11065800  1
  O  O3  1  0.24706700  0.09686600  0.61078300  1
  O  O4  1  0.29401600  0.65378000  0.61171400  1
  O  O5  1  0.29337300  0.13940100  0.11214000  1
  O  O6  1  0.74429400  0.65294400  0.61498300  1
  O  O7  1  0.74651800  0.15003900  0.11452000  1
  O  O8  1  0.74605400  0.09655500  0.61461000  1
  O  O9  1  0.74402200  0.59122100  0.11517000  1
  O  O10  1  0.25350300  0.84996800  0.88558500  1
  O  O11  1  0.25559200  0.34698100  0.38498500  1
  O  O12  1  0.25595800  0.40880500  0.88485500  1
  O  O13  1  0.25402200  0.90351500  0.38529300  1
  O  O14  1  0.70658800  0.86056200  0.88787200  1
  O  O15  1  0.70598300  0.34629500  0.38822000  1
loop_
_geom_bond_atom_site_label_1
_geom_bond_atom_site_label_2
_geom_bond_distance
_geom_bond_site_symmetry_2
Li0 O5 1.960229 1_665
Li0 O0 2.008173 1_555
Li0 O7 2.011134 1_565
Li0 O9 2.019638 1_555
Li1 O4 1.961793 1_655
Li1 O6 2.013238 1_555
Li1 O1 2.013779 1_555
Li1 O8 2.016376 1_555
Li2 O15 1.961994 1_455
Li2 O11 2.012556 1_555
Li2 O2 2.013125 1_555
Li2 O13 2.016040 1_555
Li3 O14 1.960400 1_445
Li3 O3 2.009092 1_555
Li3 O10 2.011474 1_545
Li3 O12 2.020095 1_555
Mn0 O12 1.957696 1_554
Mn0 O9 1.958088 1_555
Mn0 O14 2.007638 1_554
Mn0 O5 2.008117 1_555
Mn0 O2 2.174412 1_555
Mn0 O1 2.175064 1_554
Mn1 O5 1.939262 1_565
Mn1 O14 1.939743 1_554
Mn1 O2 1.949304 1_555
Mn1 O1 1.949521 1_564
Mn1 O7 1.960436 1_565
Mn1 O10 1.960494 1_554
Mn2 O3 1.933495 1_565
Mn2 O0 1.933690 1_455
Mn2 O11 1.953347 1_565
Mn2 O6 1.953721 1_455
Mn2 O13 1.964114 1_555
Mn2 O8 1.964608 1_465
Mn3 O15 1.940764 1_555
Mn3 O4 1.940790 1_545
Mn3 O0 1.946251 1_545
Mn3 O3 1.946816 1_555
Mn3 O13 1.959587 1_545
Mn3 O8 1.960008 1_555
Mn4 O6 1.957948 1_555
Mn4 O11 1.957956 1_555
Mn4 O15 2.000851 1_555
Mn4 O4 2.001395 1_555
Mn4 O3 2.182051 1_555
Mn4 O0 2.182196 1_555
Mn5 O2 1.933451 1_555
Mn5 O1 1.933776 1_454
Mn5 O9 1.953247 1_455
Mn5 O12 1.953415 1_554
Mn5 O7 1.962706 1_455
Mn5 O10 1.962975 1_554
Ga0 O14 1.992511 1_555
Ga0 O4 1.995782 1_555
Ga0 O6 2.021971 1_555
Ga0 O12 2.023602 1_555
Ga0 O8 2.032529 1_565
Ga0 O10 2.032957 1_555
Ga1 O5 1.992501 1_555
Ga1 O15 1.995258 1_555
Ga1 O11 2.021520 1_555
Ga1 O9 2.023407 1_555
Ga1 O13 2.031951 1_545
Ga1 O7 2.032949 1_555
