# generated using pymatgen
data_Li9Mn2Co5O16
_symmetry_space_group_name_H-M   'P 1'
_cell_length_a   2.92044300
_cell_length_b   5.12273933
_cell_length_c   20.22266161
_cell_angle_alpha   93.26071239
_cell_angle_beta   93.49868020
_cell_angle_gamma   105.46768312
_symmetry_Int_Tables_number   1
_chemical_formula_structural   Li9Mn2Co5O16
_chemical_formula_sum   'Li9 Mn2 Co5 O16'
_cell_volume   290.20046164
_cell_formula_units_Z   1
loop_
 _symmetry_equiv_pos_site_id
 _symmetry_equiv_pos_as_xyz
  1  'x, y, z'
loop_
 _atom_site_type_symbol
 _atom_site_label
 _atom_site_symmetry_multiplicity
 _atom_site_fract_x
 _atom_site_fract_y
 _atom_site_fract_z
 _atom_site_occupancy
  Li  Li0  1  0.07605700  0.31920500  0.81611100  1
  Li  Li1  1  0.69112600  0.44227400  0.93963500  1
  Li  Li2  1  0.30887400  0.55772600  0.06036500  1
  Li  Li3  1  0.92394300  0.68079500  0.18388900  1
  Li  Li4  1  0.58721800  0.82234300  0.31977600  1
  Li  Li5  1  0.19204000  0.92014600  0.44477700  1
  Li  Li6  1  0.80796000  0.07985400  0.55522300  1
  Li  Li7  1  0.41278200  0.17765700  0.68022400  1
  Li  Li8  1  0.50000000  0.50000000  0.50000000  1
  Mn  Mn0  1  0.73852900  0.74674700  0.75100700  1
  Mn  Mn1  1  0.26147100  0.25325300  0.24899300  1
  Co  Co0  1  0.37912000  0.87405500  0.87710200  1
  Co  Co1  1  0.00000000  0.00000000  0.00000000  1
  Co  Co2  1  0.62088000  0.12594500  0.12289800  1
  Co  Co3  1  0.87855700  0.36550900  0.38556500  1
  Co  Co4  1  0.12144300  0.63449100  0.61443500  1
  O  O0  1  0.37164900  0.99702100  0.78264500  1
  O  O1  1  0.05804500  0.13785300  0.90924600  1
  O  O2  1  0.64333900  0.26544400  0.03308800  1
  O  O3  1  0.29581400  0.38440400  0.15867700  1
  O  O4  1  0.88753800  0.49679500  0.27455400  1
  O  O5  1  0.50970600  0.62843200  0.40077100  1
  O  O6  1  0.15876700  0.78700300  0.53760800  1
  O  O7  1  0.76317400  0.88180500  0.66545300  1
  O  O8  1  0.70418600  0.61559600  0.84132300  1
  O  O9  1  0.35666100  0.73455600  0.96691200  1
  O  O10  1  0.94195500  0.86214700  0.09075400  1
  O  O11  1  0.62835100  0.00297900  0.21735500  1
  O  O12  1  0.23682600  0.11819500  0.33454700  1
  O  O13  1  0.84123300  0.21299700  0.46239200  1
  O  O14  1  0.49029400  0.37156800  0.59922900  1
  O  O15  1  0.11246200  0.50320500  0.72544600  1
loop_
_geom_bond_atom_site_label_1
_geom_bond_atom_site_label_2
_geom_bond_distance
_geom_bond_site_symmetry_2
Li0 O8 2.059739 1_555
Li0 O15 2.104373 1_555
Li0 O1 2.144354 1_555
Li0 O8 2.145646 1_455
Li0 O0 2.152085 1_545
Li0 O0 2.303485 1_445
Li1 O9 2.062075 1_555
Li1 O1 2.107689 1_555
Li1 O9 2.132335 1_655
Li1 O2 2.138027 1_556
Li1 O1 2.195575 1_655
Li1 O8 2.221364 1_555
Li2 O2 2.062075 1_555
Li2 O10 2.107689 1_555
Li2 O2 2.132335 1_455
Li2 O9 2.138027 1_554
Li2 O10 2.195575 1_455
Li2 O3 2.221364 1_555
Li3 O3 2.059739 1_555
Li3 O4 2.104373 1_555
Li3 O10 2.144354 1_555
Li3 O3 2.145646 1_655
Li3 O11 2.152085 1_565
Li3 O11 2.303485 1_665
Li4 O5 1.957353 1_555
Li4 O12 2.060671 1_565
Li4 O12 2.081115 1_665
Li4 O4 2.256406 1_555
Li4 O11 2.312961 1_565
Li4 O4 2.360870 1_455
Li5 O6 2.032593 1_555
Li5 O13 2.056860 1_465
Li5 O13 2.076468 1_565
Li5 O5 2.138864 1_555
Li5 O5 2.244982 1_455
Li5 O12 2.497517 1_565
Li6 O13 2.032593 1_555
Li6 O6 2.056860 1_645
Li6 O6 2.076468 1_545
Li6 O14 2.138864 1_555
Li6 O14 2.244982 1_655
Li6 O7 2.497517 1_545
Li7 O14 1.957353 1_555
Li7 O7 2.060671 1_545
Li7 O7 2.081115 1_445
Li7 O15 2.256406 1_555
Li7 O0 2.312961 1_545
Li7 O15 2.360870 1_655
Li8 O6 2.116588 1_555
Li8 O13 2.116588 1_555
Li8 O14 2.146531 1_555
Li8 O5 2.146531 1_555
Li8 O13 2.151013 1_455
Li8 O6 2.151013 1_655
Mn0 O7 1.897898 1_555
Mn0 O15 1.933528 1_655
Mn0 O15 1.939406 1_555
Mn0 O8 1.980732 1_555
Mn0 O0 1.980954 1_555
Mn0 O0 1.992418 1_655
Mn1 O12 1.897898 1_555
Mn1 O4 1.933528 1_455
Mn1 O4 1.939406 1_555
Mn1 O3 1.980732 1_555
Mn1 O11 1.980954 1_555
Mn1 O11 1.992418 1_455
Co0 O1 1.943795 1_565
Co0 O8 1.955269 1_555
Co0 O9 1.987646 1_555
Co0 O0 2.045767 1_555
Co0 O8 2.118189 1_455
Co0 O1 2.119827 1_665
Co1 O1 2.004313 1_554
Co1 O10 2.004313 1_445
Co1 O9 2.029477 1_544
Co1 O2 2.029477 1_455
Co1 O9 2.051131 1_444
Co1 O2 2.051131 1_555
Co2 O10 1.943795 1_545
Co2 O3 1.955269 1_555
Co2 O2 1.987646 1_555
Co2 O11 2.045767 1_555
Co2 O3 2.118189 1_655
Co2 O10 2.119827 1_445
Co3 O13 1.774662 1_555
Co3 O5 1.958631 1_555
Co3 O5 1.966131 1_655
Co3 O12 2.110547 1_655
Co3 O12 2.128561 1_555
Co3 O4 2.379555 1_555
Co4 O6 1.774662 1_555
Co4 O14 1.958631 1_555
Co4 O14 1.966131 1_455
Co4 O7 2.110547 1_455
Co4 O7 2.128561 1_555
Co4 O15 2.379555 1_555
