# generated using pymatgen
data_Na3Zr2Si2PO12
_symmetry_space_group_name_H-M   'P 1'
_cell_length_a   9.16184344
_cell_length_b   9.16184344
_cell_length_c   9.26829295
_cell_angle_alpha   60.73008375
_cell_angle_beta   60.73008375
_cell_angle_gamma   60.17515210
_symmetry_Int_Tables_number   1
_chemical_formula_structural   Na3Zr2Si2PO12
_chemical_formula_sum   'Na6 Zr4 Si4 P2 O24'
_cell_volume   556.85207625
_cell_formula_units_Z   2
loop_
 _symmetry_equiv_pos_site_id
 _symmetry_equiv_pos_as_xyz
  1  'x, y, z'
loop_
 _atom_site_type_symbol
 _atom_site_label
 _atom_site_symmetry_multiplicity
 _atom_site_fract_x
 _atom_site_fract_y
 _atom_site_fract_z
 _atom_site_occupancy
  Na  Na0  1  0.38462900  0.61537100  0.00000000  1
  Na  Na1  1  0.60208900  0.39791100  0.50000000  1
  Na  Na2  1  0.24653300  0.08374900  0.56647300  1
  Na  Na3  1  0.91625100  0.75346700  0.43352700  1
  Na  Na4  1  0.00141700  0.47880500  0.23403100  1
  Na  Na5  1  0.52119500  0.99858300  0.76596900  1
  Zr  Zr0  1  0.14333300  0.65580000  0.80658300  1
  Zr  Zr1  1  0.34420000  0.85666700  0.19341700  1
  Zr  Zr2  1  0.85414200  0.34769600  0.69513400  1
  Zr  Zr3  1  0.65230400  0.14585800  0.30486600  1
  Si  Si0  1  0.05292800  0.94707200  0.00000000  1
  Si  Si1  1  0.95200800  0.04799200  0.50000000  1
  Si  Si2  1  0.25179200  0.46466100  0.49220500  1
  Si  Si3  1  0.53533900  0.74820800  0.50779500  1
  P  P0  1  0.74746200  0.53818900  0.01145700  1
  P  P1  1  0.46181100  0.25253800  0.98854300  1
  O  O0  1  0.00644800  0.11190200  0.82571800  1
  O  O1  1  0.88809800  0.99355200  0.17428200  1
  O  O2  1  0.99417900  0.88026100  0.67177000  1
  O  O3  1  0.11973900  0.00582100  0.32823000  1
  O  O4  1  0.28517900  0.41178100  0.98760100  1
  O  O5  1  0.58821900  0.71482100  0.01239900  1
  O  O6  1  0.72271500  0.58422000  0.52258400  1
  O  O7  1  0.41578000  0.27728500  0.47741600  1
  O  O8  1  0.92046700  0.55767000  0.97507700  1
  O  O9  1  0.44233000  0.07953300  0.02492300  1
  O  O10  1  0.06644500  0.43939900  0.53814900  1
  O  O11  1  0.56060100  0.93355500  0.46185100  1
  O  O12  1  0.76134200  0.48384400  0.86870200  1
  O  O13  1  0.51615600  0.23865800  0.13129800  1
  O  O14  1  0.24831700  0.51315300  0.64192200  1
  O  O15  1  0.48684700  0.75168300  0.35807800  1
  O  O16  1  0.07334800  0.75416500  0.00765700  1
  O  O17  1  0.24583500  0.92665200  0.99234300  1
  O  O18  1  0.93230800  0.23462400  0.50400200  1
  O  O19  1  0.76537600  0.06769200  0.49599800  1
  O  O20  1  0.70811200  0.39101200  0.19129700  1
  O  O21  1  0.60898800  0.29188800  0.80870300  1
  O  O22  1  0.26671200  0.63297300  0.30828400  1
  O  O23  1  0.36702700  0.73328800  0.69171600  1
loop_
_geom_bond_atom_site_label_1
_geom_bond_atom_site_label_2
_geom_bond_distance
_geom_bond_site_symmetry_2
Na0 O17 2.457325 1_554
Na0 O16 2.457325 1_555
Na0 O5 2.514974 1_555
Na0 O4 2.514974 1_554
Na0 O22 2.572148 1_555
Na0 O23 2.572148 1_554
Na0 O12 2.834605 1_554
Na0 O13 2.834605 1_555
Na1 O20 2.555745 1_555
Na1 O21 2.555745 1_555
Na1 O7 2.575037 1_555
Na1 O6 2.575037 1_555
Na1 O19 2.635520 1_555
Na1 O18 2.635520 1_555
Na1 O15 2.671227 1_555
Na1 O14 2.671227 1_555
Na2 O0 2.356204 1_555
Na2 O11 2.398191 1_545
Na2 O7 2.506384 1_555
Na2 O23 2.637887 1_545
Na2 O18 2.724498 1_455
Na2 O10 2.765477 1_555
Na3 O1 2.356204 1_555
Na3 O10 2.398191 1_655
Na3 O6 2.506384 1_555
Na3 O22 2.637887 1_655
Na3 O19 2.724498 1_565
Na3 O11 2.765477 1_555
Na4 O18 2.460211 1_455
Na4 O16 2.515300 1_555
Na4 O4 2.515884 1_554
Na4 O8 2.518772 1_454
Na4 O6 2.828464 1_455
Na4 O10 2.977106 1_555
Na5 O19 2.460211 1_565
Na5 O17 2.515300 1_555
Na5 O5 2.515884 1_556
Na5 O9 2.518772 1_566
Na5 O7 2.828464 1_565
Na5 O11 2.977106 1_555
O0 Si0 1.648853 1_546
O0 Zr2 2.043308 1_455
O1 Si0 1.648853 1_655
O1 Zr3 2.043308 1_565
O2 Si1 1.632145 1_565
O2 Zr0 2.004839 1_655
O3 Si1 1.632145 1_455
O3 Zr1 2.004839 1_545
O4 P1 1.549299 1_555
O4 Zr0 2.253025 1_555
O5 P0 1.549299 1_555
O5 Zr1 2.253025 1_555
O6 Si3 1.639003 1_555
O6 Zr2 2.145248 1_555
O7 Si2 1.639003 1_555
O7 Zr3 2.145248 1_555
O8 P0 1.535533 1_556
O8 Zr0 2.179751 1_655
O9 P1 1.535533 1_554
O9 Zr1 2.179751 1_545
O10 Si2 1.644990 1_555
O10 Zr2 2.066163 1_455
O11 Si3 1.644990 1_555
O11 Zr3 2.066163 1_565
O12 P0 1.559271 1_556
O12 Zr2 2.106291 1_555
O13 P1 1.559271 1_554
O13 Zr3 2.106291 1_555
O14 Si2 1.633845 1_555
O14 Zr0 2.055914 1_555
O15 Si3 1.633845 1_555
O15 Zr1 2.055914 1_555
O16 Si0 1.650793 1_555
O16 Zr0 2.143688 1_554
O17 Si0 1.650793 1_556
O17 Zr1 2.143688 1_556
O18 Si1 1.645046 1_555
O18 Zr2 2.130766 1_555
O19 Si1 1.645046 1_555
O19 Zr3 2.130766 1_555
O20 P0 1.557122 1_555
O20 Zr3 2.172193 1_555
O21 P1 1.557122 1_555
O21 Zr2 2.172193 1_555
O22 Si2 1.647360 1_555
O22 Zr1 2.100548 1_555
O23 Si3 1.647360 1_555
O23 Zr0 2.100548 1_555
