# generated using pymatgen
data_Ca2AlMoO5
_symmetry_space_group_name_H-M   'P 1'
_cell_length_a   8.25895965
_cell_length_b   8.25895965
_cell_length_c   5.65364485
_cell_angle_alpha   71.47916136
_cell_angle_beta   71.47916136
_cell_angle_gamma   42.10823781
_symmetry_Int_Tables_number   1
_chemical_formula_structural   Ca2AlMoO5
_chemical_formula_sum   'Ca4 Al2 Mo2 O10'
_cell_volume   243.14297421
_cell_formula_units_Z   2
loop_
 _symmetry_equiv_pos_site_id
 _symmetry_equiv_pos_as_xyz
  1  'x, y, z'
loop_
 _atom_site_type_symbol
 _atom_site_label
 _atom_site_symmetry_multiplicity
 _atom_site_fract_x
 _atom_site_fract_y
 _atom_site_fract_z
 _atom_site_occupancy
  Ca  Ca0  1  0.65610300  0.07455300  0.92172200  1
  Ca  Ca1  1  0.92117300  0.34827000  0.58231300  1
  Ca  Ca2  1  0.34827000  0.92117300  0.08231300  1
  Ca  Ca3  1  0.07455300  0.65610300  0.42172200  1
  Al  Al0  1  0.33359000  0.67103200  0.70749000  1
  Al  Al1  1  0.67103200  0.33359000  0.20749000  1
  Mo  Mo0  1  0.49976800  0.00174200  0.50373200  1
  Mo  Mo1  1  0.00174200  0.49976800  0.00373200  1
  O  O0  1  0.42308000  0.58430500  0.39450300  1
  O  O1  1  0.58430500  0.42308000  0.89450300  1
  O  O2  1  0.72495700  0.07412500  0.32761400  1
  O  O3  1  0.27302800  0.92970100  0.68629900  1
  O  O4  1  0.07412500  0.72495700  0.82761400  1
  O  O5  1  0.92970100  0.27302800  0.18629900  1
  O  O6  1  0.79463200  0.66978200  0.70312500  1
  O  O7  1  0.33246000  0.20700800  0.80433100  1
  O  O8  1  0.20700800  0.33246000  0.30433100  1
  O  O9  1  0.66978200  0.79463200  0.20312500  1
loop_
_geom_bond_atom_site_label_1
_geom_bond_atom_site_label_2
_geom_bond_distance
_geom_bond_site_symmetry_2
Ca0 O7 2.260322 1_555
Ca0 O9 2.297513 1_546
Ca0 O4 2.357418 1_645
Ca0 O1 2.429995 1_555
Ca0 O2 2.531848 1_556
Ca1 O6 2.278336 1_555
Ca1 O8 2.318598 1_655
Ca1 O3 2.372645 1_645
Ca1 O5 2.474404 1_555
Ca1 O1 2.502019 1_555
Ca2 O9 2.278336 1_555
Ca2 O7 2.318598 1_564
Ca2 O5 2.372645 1_465
Ca2 O3 2.474404 1_554
Ca2 O0 2.502019 1_555
Ca3 O8 2.260322 1_555
Ca3 O6 2.297513 1_455
Ca3 O2 2.357418 1_465
Ca3 O0 2.429995 1_555
Ca3 O4 2.531848 1_555
Al0 O4 1.761580 1_555
Al0 O3 1.765917 1_555
Al0 O1 1.822847 1_555
Al0 O0 1.838302 1_555
Al1 O2 1.761580 1_555
Al1 O5 1.765917 1_555
Al1 O0 1.822847 1_555
Al1 O1 1.838302 1_554
Mo0 O7 2.129387 1_555
Mo0 O9 2.133765 1_545
Mo0 O8 2.134014 1_555
Mo0 O6 2.142897 1_545
Mo0 O2 2.214228 1_555
Mo0 O3 2.227381 1_545
Mo1 O8 2.129387 1_555
Mo1 O6 2.133765 1_454
Mo1 O7 2.134014 1_554
Mo1 O9 2.142897 1_455
Mo1 O4 2.214228 1_554
Mo1 O5 2.227381 1_455
