# generated using pymatgen
data_BaZr2Ti3Pb4O15
_symmetry_space_group_name_H-M   'P 1'
_cell_length_a   4.05207500
_cell_length_b   20.01394938
_cell_length_c   4.41651444
_cell_angle_alpha   89.84325354
_cell_angle_beta   90.00000000
_cell_angle_gamma   90.00000000
_symmetry_Int_Tables_number   1
_chemical_formula_structural   BaZr2Ti3Pb4O15
_chemical_formula_sum   'Ba1 Zr2 Ti3 Pb4 O15'
_cell_volume   358.16925338
_cell_formula_units_Z   1
loop_
 _symmetry_equiv_pos_site_id
 _symmetry_equiv_pos_as_xyz
  1  'x, y, z'
loop_
 _atom_site_type_symbol
 _atom_site_label
 _atom_site_symmetry_multiplicity
 _atom_site_fract_x
 _atom_site_fract_y
 _atom_site_fract_z
 _atom_site_occupancy
  Ba  Ba0  1  0.00000000  0.20821800  0.03002900  1
  Zr  Zr0  1  0.50000000  0.10345700  0.52917100  1
  Zr  Zr1  1  0.50000000  0.89387600  0.52119100  1
  Ti  Ti0  1  0.50000000  0.30685600  0.50814900  1
  Ti  Ti1  1  0.50000000  0.50018100  0.51018000  1
  Ti  Ti2  1  0.50000000  0.69305400  0.51191300  1
  Pb  Pb0  1  0.00000000  0.99574900  0.95719600  1
  Pb  Pb1  1  0.00000000  0.40366100  0.94889600  1
  Pb  Pb2  1  0.00000000  0.59586300  0.95509600  1
  Pb  Pb3  1  0.00000000  0.78818600  0.95813600  1
  O  O0  1  0.50000000  0.10761300  0.07503600  1
  O  O1  1  0.50000000  0.30661400  0.10706100  1
  O  O2  1  0.50000000  0.50099700  0.11349500  1
  O  O3  1  0.50000000  0.69495800  0.11459000  1
  O  O4  1  0.50000000  0.89677300  0.07312300  1
  O  O5  1  0.50000000  0.99850400  0.60678100  1
  O  O6  1  0.50000000  0.21115600  0.57104700  1
  O  O7  1  0.50000000  0.40515500  0.61028500  1
  O  O8  1  0.50000000  0.59742300  0.61226900  1
  O  O9  1  0.50000000  0.78887900  0.61265100  1
  O  O10  1  0.00000000  0.10312600  0.60646900  1
  O  O11  1  0.00000000  0.30875800  0.58350800  1
  O  O12  1  0.00000000  0.50178400  0.59901600  1
  O  O13  1  0.00000000  0.69440800  0.60115300  1
  O  O14  1  0.00000000  0.89475000  0.61856000  1
loop_
_geom_bond_atom_site_label_1
_geom_bond_atom_site_label_2
_geom_bond_distance
_geom_bond_site_symmetry_2
Ba0 O11 2.813591 1_554
Ba0 O10 2.818650 1_554
Ba0 O1 2.846463 1_555
Ba0 O1 2.846463 1_455
Ba0 O0 2.862926 1_455
Ba0 O0 2.862926 1_555
Ba0 O6 2.866491 1_554
Ba0 O6 2.866491 1_454
Ba0 O6 3.133425 1_455
Ba0 O6 3.133425 1_555
Ba0 O11 3.170362 1_555
Ba0 O10 3.297875 1_555
O0 Zr0 2.007190 1_555
O0 Zr0 2.412483 1_554
O1 Ti0 1.771431 1_555
O2 Ti1 1.751996 1_555
O3 Ti2 1.755092 1_555
O4 Zr1 1.979589 1_555
O4 Zr1 2.438464 1_554
O5 Zr0 2.127381 1_565
O5 Zr1 2.128882 1_555
O5 Pb0 2.550001 1_555
O5 Pb0 2.550001 1_655
O6 Ti0 1.934622 1_555
O6 Zr0 2.163906 1_555
O7 Ti1 1.951379 1_555
O7 Ti0 2.019605 1_555
O7 Pb1 2.518321 1_655
O7 Pb1 2.518321 1_555
O8 Ti2 1.963422 1_555
O8 Ti1 1.998943 1_555
O8 Pb2 2.529436 1_655
O8 Pb2 2.529436 1_555
O9 Ti2 1.969952 1_555
O9 Zr1 2.138789 1_555
O9 Pb3 2.536354 1_555
O9 Pb3 2.536354 1_655
O10 Zr0 2.054606 1_555
O10 Zr0 2.054606 1_455
O10 Pb0 2.645661 1_545
O11 Ti0 2.053562 1_455
O11 Ti0 2.053562 1_555
O11 Pb1 2.495715 1_555
O12 Ti1 2.063943 1_455
O12 Ti1 2.063943 1_555
O12 Pb2 2.456554 1_555
O12 Pb1 2.495560 1_555
O13 Ti2 2.064209 1_555
O13 Ti2 2.064209 1_455
O13 Pb3 2.454497 1_555
O13 Pb2 2.513280 1_555
O14 Zr1 2.071256 1_455
O14 Zr1 2.071256 1_555
O14 Pb0 2.517806 1_555
O14 Pb3 2.603924 1_555
