# generated using pymatgen
data_CeSe2
_symmetry_space_group_name_H-M   'P 1'
_cell_length_a   4.87128067
_cell_length_b   4.87128067
_cell_length_c   12.06574800
_cell_angle_alpha   90.00000000
_cell_angle_beta   90.00000000
_cell_angle_gamma   120.00000907
_symmetry_Int_Tables_number   1
_chemical_formula_structural   CeSe2
_chemical_formula_sum   'Ce3 Se6'
_cell_volume   247.95401701
_cell_formula_units_Z   3
loop_
 _symmetry_equiv_pos_site_id
 _symmetry_equiv_pos_as_xyz
  1  'x, y, z'
loop_
 _atom_site_type_symbol
 _atom_site_label
 _atom_site_symmetry_multiplicity
 _atom_site_fract_x
 _atom_site_fract_y
 _atom_site_fract_z
 _atom_site_occupancy
  Ce  Ce0  1  0.65702000  0.00001200  0.00001100  1
  Ce  Ce1  1  0.34299100  0.34298000  0.33334500  1
  Ce  Ce2  1  0.99998800  0.65700900  0.66667800  1
  Se  Se0  1  0.32477000  0.33372800  0.08409900  1
  Se  Se1  1  0.00895800  0.67523000  0.41743300  1
  Se  Se2  1  0.66627200  0.99104200  0.75076600  1
  Se  Se3  1  0.99104500  0.66630900  0.91592300  1
  Se  Se4  1  0.33369100  0.32473500  0.58258900  1
  Se  Se5  1  0.67526500  0.00895500  0.24925600  1
loop_
_geom_bond_atom_site_label_1
_geom_bond_atom_site_label_2
_geom_bond_distance
_geom_bond_site_symmetry_2
Ce0 Se0 2.987067 1_555
Ce0 Se3 2.987102 1_444
Ce0 Se0 2.988330 1_545
Ce0 Se3 2.988381 1_554
Ce0 Se3 2.994057 1_544
Ce0 Se0 2.994144 1_655
Ce0 Se2 3.008310 1_544
Ce0 Se5 3.008312 1_555
Ce1 Se1 2.987071 1_655
Ce1 Se5 2.987106 1_565
Ce1 Se1 2.988326 1_555
Ce1 Se5 2.988393 1_555
Ce1 Se5 2.994053 1_455
Ce1 Se1 2.994144 1_545
Ce1 Se4 3.008300 1_555
Ce1 Se0 3.008322 1_555
Ce2 Se2 2.987071 1_545
Ce2 Se4 2.987115 1_655
Ce2 Se2 2.988330 1_655
Ce2 Se4 2.988385 1_555
Ce2 Se4 2.994053 1_665
Ce2 Se2 2.994141 1_555
Ce2 Se1 3.008310 1_655
Ce2 Se3 3.008312 1_555
