# generated using pymatgen
data_Li7Mn2(CoO4)3
_symmetry_space_group_name_H-M   'P 1'
_cell_length_a   2.92088300
_cell_length_b   5.08092200
_cell_length_c   14.56835740
_cell_angle_alpha   88.68609433
_cell_angle_beta   90.00000000
_cell_angle_gamma   90.00000000
_symmetry_Int_Tables_number   1
_chemical_formula_structural   Li7Mn2(CoO4)3
_chemical_formula_sum   'Li7 Mn2 Co3 O12'
_cell_volume   216.14892199
_cell_formula_units_Z   1
loop_
 _symmetry_equiv_pos_site_id
 _symmetry_equiv_pos_as_xyz
  1  'x, y, z'
loop_
 _atom_site_type_symbol
 _atom_site_label
 _atom_site_symmetry_multiplicity
 _atom_site_fract_x
 _atom_site_fract_y
 _atom_site_fract_z
 _atom_site_occupancy
  Li  Li0  1  0.00000000  0.00344800  0.49608800  1
  Li  Li1  1  0.50000000  0.83519000  0.16242900  1
  Li  Li2  1  0.00000000  0.65003200  0.84712700  1
  Li  Li3  1  0.00000000  0.35166000  0.15622400  1
  Li  Li4  1  0.50000000  0.16834900  0.84369800  1
  Li  Li5  1  0.50000000  0.49764200  0.49438000  1
  Li  Li6  1  0.50000000  0.49945500  0.00026300  1
  Mn  Mn0  1  0.00000000  0.00022100  0.00044700  1
  Mn  Mn1  1  0.50000000  0.83192600  0.66646800  1
  Co  Co0  1  0.00000000  0.66897100  0.33207400  1
  Co  Co1  1  0.00000000  0.33242300  0.66767500  1
  Co  Co2  1  0.50000000  0.16871800  0.33216400  1
  O  O0  1  0.00000000  0.98832300  0.25818000  1
  O  O1  1  0.50000000  0.85024100  0.92672000  1
  O  O2  1  0.00000000  0.69331300  0.59128200  1
  O  O3  1  0.00000000  0.30738400  0.92004400  1
  O  O4  1  0.50000000  0.15818000  0.59356800  1
  O  O5  1  0.50000000  0.48588500  0.25640900  1
  O  O6  1  0.00000000  0.96776600  0.74019400  1
  O  O7  1  0.50000000  0.84395700  0.41106600  1
  O  O8  1  0.00000000  0.69308200  0.07866000  1
  O  O9  1  0.00000000  0.34532400  0.41219100  1
  O  O10  1  0.50000000  0.14982300  0.07327900  1
  O  O11  1  0.50000000  0.50868600  0.73937000  1
loop_
_geom_bond_atom_site_label_1
_geom_bond_atom_site_label_2
_geom_bond_distance
_geom_bond_site_symmetry_2
Li0 O2 2.075117 1_545
Li0 O7 2.090410 1_445
Li0 O7 2.090410 1_545
Li0 O9 2.100913 1_555
Li0 O4 2.195204 1_555
Li0 O4 2.195204 1_455
Li1 O10 2.036465 1_565
Li1 O8 2.045473 1_555
Li1 O8 2.045473 1_655
Li1 O0 2.175748 1_555
Li1 O0 2.175748 1_655
Li1 O5 2.216524 1_555
Li2 O3 2.018563 1_555
Li2 O1 2.136891 1_555
Li2 O1 2.136891 1_455
Li2 O6 2.217601 1_555
Li2 O11 2.272612 1_555
Li2 O11 2.272612 1_455
Li3 O8 2.048482 1_555
Li3 O10 2.168311 1_555
Li3 O10 2.168311 1_455
Li3 O5 2.184920 1_455
Li3 O5 2.184920 1_555
Li3 O0 2.342754 1_545
Li4 O3 1.976114 1_555
Li4 O3 1.976114 1_655
Li4 O1 1.996395 1_545
Li4 O11 2.275906 1_555
Li4 O6 2.348561 1_645
Li4 O6 2.348561 1_545
Li5 O9 2.051341 1_555
Li5 O9 2.051341 1_655
Li5 O7 2.114576 1_555
Li5 O4 2.224547 1_555
Li5 O2 2.275647 1_555
Li5 O2 2.275647 1_655
Li6 O10 2.049544 1_555
Li6 O1 2.058392 1_554
Li6 O8 2.111094 1_555
Li6 O8 2.111094 1_655
Li6 O3 2.122106 1_654
Li6 O3 2.122106 1_554
Mn0 O8 1.911042 1_545
Mn0 O3 1.929740 1_554
Mn0 O10 1.968112 1_455
Mn0 O10 1.968112 1_555
Mn0 O1 1.976051 1_544
Mn0 O1 1.976051 1_444
Mn1 O11 1.935283 1_555
Mn1 O4 1.948089 1_565
Mn1 O6 1.948556 1_655
Mn1 O6 1.948556 1_555
Mn1 O2 1.965717 1_555
Mn1 O2 1.965717 1_655
Co0 O0 1.926555 1_555
Co0 O9 1.994594 1_555
Co0 O5 2.064066 1_455
Co0 O5 2.064066 1_555
Co0 O7 2.072341 1_555
Co0 O7 2.072341 1_455
Co1 O11 2.017123 1_555
Co1 O11 2.017123 1_455
Co1 O4 2.031275 1_555
Co1 O4 2.031275 1_455
Co1 O6 2.111689 1_545
Co1 O2 2.123038 1_555
Co2 O5 1.932191 1_555
Co2 O7 1.989242 1_545
Co2 O0 2.044507 1_545
Co2 O0 2.044507 1_645
Co2 O9 2.084535 1_555
Co2 O9 2.084535 1_655
