# generated using pymatgen
data_Sr4Y2GaCu5(PbO4)4
_symmetry_space_group_name_H-M   'P 1'
_cell_length_a   16.26531974
_cell_length_b   16.26531974
_cell_length_c   5.48684308
_cell_angle_alpha   80.95017439
_cell_angle_beta   80.95017439
_cell_angle_gamma   19.33307125
_symmetry_Int_Tables_number   1
_chemical_formula_structural   Sr4Y2GaCu5(PbO4)4
_chemical_formula_sum   'Sr4 Y2 Ga1 Cu5 Pb4 O16'
_cell_volume   474.40945712
_cell_formula_units_Z   1
loop_
 _symmetry_equiv_pos_site_id
 _symmetry_equiv_pos_as_xyz
  1  'x, y, z'
loop_
 _atom_site_type_symbol
 _atom_site_label
 _atom_site_symmetry_multiplicity
 _atom_site_fract_x
 _atom_site_fract_y
 _atom_site_fract_z
 _atom_site_occupancy
  Sr  Sr0  1  0.89040300  0.89040300  0.10701800  1
  Sr  Sr1  1  0.39043500  0.39043500  0.60726900  1
  Sr  Sr2  1  0.60953800  0.60953800  0.39297900  1
  Sr  Sr3  1  0.10946500  0.10946500  0.89354100  1
  Y  Y0  1  0.49852300  0.49852300  0.50185000  1
  Y  Y1  1  0.99850900  0.99850900  0.00142900  1
  Ga  Ga0  1  0.05837200  0.05837200  0.44209400  1
  Cu  Cu0  1  0.74984800  0.74984800  0.24972400  1
  Cu  Cu1  1  0.24984300  0.24984300  0.75202200  1
  Cu  Cu2  1  0.94850900  0.94850900  0.55114300  1
  Cu  Cu3  1  0.44909100  0.44909100  0.05068300  1
  Cu  Cu4  1  0.55278800  0.55278800  0.94747200  1
  Pb  Pb0  1  0.30568800  0.30568800  0.20026500  1
  Pb  Pb1  1  0.80596600  0.80596600  0.69806600  1
  Pb  Pb2  1  0.19367200  0.19367200  0.29821600  1
  Pb  Pb3  1  0.69450400  0.69450400  0.80181600  1
  O  O0  1  0.37347700  0.37347700  0.12167800  1
  O  O1  1  0.87402400  0.87402400  0.62170800  1
  O  O2  1  0.12107900  0.12107900  0.38210000  1
  O  O3  1  0.62588600  0.62588600  0.87854000  1
  O  O4  1  0.20372900  0.70375400  0.29553000  1
  O  O5  1  0.70297200  0.20452300  0.79636000  1
  O  O6  1  0.80298600  0.29028100  0.21046300  1
  O  O7  1  0.28975600  0.80363200  0.69648000  1
  O  O8  1  0.80363200  0.28975600  0.69648000  1
  O  O9  1  0.29028100  0.80298600  0.21046300  1
  O  O10  1  0.20452300  0.70297200  0.79636000  1
  O  O11  1  0.70375400  0.20372900  0.29553000  1
  O  O12  1  0.80761500  0.80761500  0.14299200  1
  O  O13  1  0.30752100  0.30752100  0.64140600  1
  O  O14  1  0.69179500  0.69179500  0.35509200  1
  O  O15  1  0.19181400  0.19181400  0.86322800  1
loop_
_geom_bond_atom_site_label_1
_geom_bond_atom_site_label_2
_geom_bond_distance
_geom_bond_site_symmetry_2
Ga0 O6 1.918562 1_455
Ga0 O9 1.918562 1_545
Ga0 O7 1.919475 1_545
Ga0 O8 1.919475 1_455
Ga0 O2 1.985190 1_555
Cu0 O12 1.851639 1_555
Cu0 O14 1.859208 1_555
Cu1 O13 1.852395 1_555
Cu1 O15 1.863591 1_555
Cu2 O11 1.945436 1_565
Cu2 O4 1.945436 1_655
Cu2 O10 1.946032 1_655
Cu2 O5 1.946032 1_565
Cu2 O1 2.358047 1_555
Cu3 O4 1.938043 1_555
Cu3 O11 1.938043 1_555
Cu3 O10 1.938117 1_554
Cu3 O5 1.938117 1_554
Cu3 O0 2.393783 1_555
Cu4 O8 1.997596 1_555
Cu4 O7 1.997596 1_555
Cu4 O6 1.997770 1_556
Cu4 O9 1.997770 1_556
Cu4 O3 2.314134 1_555
O0 Pb0 2.147714 1_555
O0 Sr0 2.783244 1_455
O0 Sr0 2.783244 1_545
O0 Sr1 2.787888 1_554
O0 Sr1 2.803025 1_555
O1 Pb1 2.155734 1_555
O1 Sr1 2.780149 1_655
O1 Sr1 2.780149 1_565
O1 Sr0 2.788843 1_555
O1 Sr0 2.795145 1_556
O2 Pb2 2.299858 1_555
O2 Sr2 2.755499 1_545
O2 Sr2 2.755499 1_455
O2 Sr3 2.764632 1_554
O2 Sr3 2.771268 1_555
O3 Pb3 2.173426 1_555
O3 Sr3 2.780204 1_565
O3 Sr3 2.780204 1_655
O3 Sr2 2.787463 1_556
O3 Sr2 2.796161 1_555
O4 Y0 2.393256 1_555
O4 Y1 2.406322 1_455
O4 Sr0 2.780405 1_455
O4 Sr1 2.793583 1_555
O5 Y1 2.391310 1_546
O5 Y0 2.405378 1_555
O5 Sr1 2.779256 1_555
O5 Sr0 2.793453 1_546
O6 Y1 2.456284 1_545
O6 Y0 2.471870 1_555
O6 Sr2 2.770869 1_555
O6 Sr3 2.781521 1_654
O7 Y0 2.454177 1_555
O7 Y1 2.474883 1_456
O7 Sr3 2.771016 1_565
O7 Sr2 2.780906 1_555
O8 Y0 2.454177 1_555
O8 Y1 2.474883 1_546
O8 Sr3 2.771016 1_655
O8 Sr2 2.780906 1_555
O9 Y1 2.456284 1_455
O9 Y0 2.471870 1_555
O9 Sr2 2.770869 1_555
O9 Sr3 2.781521 1_564
O10 Y1 2.391310 1_456
O10 Y0 2.405378 1_555
O10 Sr1 2.779256 1_555
O10 Sr0 2.793453 1_456
O11 Y0 2.393256 1_555
O11 Y1 2.406322 1_545
O11 Sr0 2.780405 1_545
O11 Sr1 2.793583 1_555
O12 Pb1 2.450233 1_554
O12 Sr0 2.630641 1_555
O12 Pb0 2.748756 1_565
O12 Pb0 2.748756 1_655
O13 Pb0 2.430543 1_555
O13 Sr1 2.635557 1_555
O13 Pb1 2.748358 1_545
O13 Pb1 2.748358 1_455
O14 Pb3 2.466457 1_555
O14 Sr2 2.612783 1_555
O14 Pb2 2.748509 1_565
O14 Pb2 2.748509 1_655
O15 Pb2 2.396940 1_556
O15 Sr3 2.619443 1_555
O15 Pb3 2.751543 1_545
O15 Pb3 2.751543 1_455
