# generated using pymatgen
data_Na3H5(CO4)2
_symmetry_space_group_name_H-M   'P 1'
_cell_length_a   3.66847600
_cell_length_b   10.49069043
_cell_length_c   10.27161141
_cell_angle_alpha   106.42909805
_cell_angle_beta   79.71331650
_cell_angle_gamma   90.00000000
_symmetry_Int_Tables_number   1
_chemical_formula_structural   Na3H5(CO4)2
_chemical_formula_sum   'Na6 H10 C4 O16'
_cell_volume   372.53238203
_cell_formula_units_Z   2
loop_
 _symmetry_equiv_pos_site_id
 _symmetry_equiv_pos_as_xyz
  1  'x, y, z'
loop_
 _atom_site_type_symbol
 _atom_site_label
 _atom_site_symmetry_multiplicity
 _atom_site_fract_x
 _atom_site_fract_y
 _atom_site_fract_z
 _atom_site_occupancy
  Na  Na0  1  0.24961800  0.75000000  0.00000000  1
  Na  Na1  1  0.74352900  0.25000000  0.00000000  1
  Na  Na2  1  0.67806500  0.93023600  0.29661600  1
  Na  Na3  1  0.97468000  0.56976400  0.70338400  1
  Na  Na4  1  0.32558000  0.08013200  0.69877700  1
  Na  Na5  1  0.02435700  0.41986800  0.30122300  1
  H  H0  1  0.21852000  0.75909300  0.37750700  1
  H  H1  1  0.59602700  0.74090700  0.62249300  1
  H  H2  1  0.77512100  0.24459700  0.62345500  1
  H  H3  1  0.39857600  0.25540300  0.37654500  1
  H  H4  1  0.00756100  0.86711400  0.51269400  1
  H  H5  1  0.52025500  0.63288600  0.48730600  1
  H  H6  1  0.98592600  0.13654600  0.48571900  1
  H  H7  1  0.47164500  0.36345400  0.51428100  1
  H  H8  1  0.98571800  0.50115500  0.01629200  1
  H  H9  1  0.00201000  0.99884500  0.98370800  1
  C  C0  1  0.63579300  0.60688400  0.18925100  1
  C  C1  1  0.82504400  0.89311600  0.81074900  1
  C  C2  1  0.35425200  0.39599600  0.81857600  1
  C  C3  1  0.17282700  0.10400400  0.18142400  1
  O  O0  1  0.67537900  0.70806300  0.14445000  1
  O  O1  1  0.81982900  0.79193700  0.85555000  1
  O  O2  1  0.32426100  0.29305000  0.86274600  1
  O  O3  1  0.18700700  0.20695000  0.13725400  1
  O  O4  1  0.43046400  0.60513600  0.30436200  1
  O  O5  1  0.73482600  0.89486400  0.69563800  1
  O  O6  1  0.54761200  0.39239000  0.69789600  1
  O  O7  1  0.24550800  0.10761000  0.30210400  1
  O  O8  1  0.11971000  0.85416300  0.41510100  1
  O  O9  1  0.53481100  0.64583700  0.58489900  1
  O  O10  1  0.88204200  0.14985200  0.58415900  1
  O  O11  1  0.46620200  0.35014800  0.41584100  1
  O  O12  1  0.81950700  0.49087900  0.11433300  1
  O  O13  1  0.93384000  0.00912100  0.88566700  1
  O  O14  1  0.18461000  0.51075100  0.89467800  1
  O  O15  1  0.07928800  0.98924900  0.10532200  1
loop_
_geom_bond_atom_site_label_1
_geom_bond_atom_site_label_2
_geom_bond_distance
_geom_bond_site_symmetry_2
Na0 O0 2.455899 1_555
Na0 O1 2.455899 1_554
Na0 O14 2.466372 1_554
Na0 O15 2.466372 1_555
Na0 O1 2.466911 1_454
Na0 O0 2.466911 1_455
Na1 O2 2.385755 1_554
Na1 O3 2.385755 1_555
Na1 O3 2.453088 1_655
Na1 O2 2.453088 1_654
Na1 O12 2.506144 1_555
Na1 O13 2.506144 1_554
Na2 O0 2.412523 1_555
Na2 O7 2.427426 1_565
Na2 O8 2.443917 1_555
Na2 O8 2.448799 1_655
Na2 O15 2.462865 1_655
Na3 O1 2.412523 1_555
Na3 O6 2.427424 1_555
Na3 O9 2.443914 1_555
Na3 O9 2.448802 1_655
Na3 O14 2.462866 1_655
Na4 O2 2.386411 1_555
Na4 O10 2.391015 1_555
Na4 O10 2.395777 1_455
Na4 O5 2.445357 1_545
Na4 O13 2.475669 1_455
Na5 O3 2.386411 1_555
Na5 O11 2.391018 1_555
Na5 O11 2.395775 1_455
Na5 O4 2.445357 1_555
Na5 O12 2.475669 1_455
H0 O8 1.003679 1_555
H1 O9 1.003679 1_555
H2 O10 1.010549 1_555
H3 O11 1.010550 1_555
H4 O8 0.984006 1_555
H5 O9 0.984006 1_555
H6 O10 0.984711 1_555
H7 O11 0.984710 1_555
H8 O12 1.113392 1_555
H8 O14 1.359611 1_654
H9 O13 1.113392 1_465
H9 O15 1.359611 1_556
C0 O0 1.269619 1_555
C0 O4 1.288374 1_555
C0 O12 1.346271 1_555
C1 O1 1.269619 1_555
C1 O5 1.288374 1_555
C1 O13 1.346271 1_565
C2 O2 1.282039 1_555
C2 O6 1.304065 1_555
C2 O14 1.319681 1_555
C3 O3 1.282039 1_555
C3 O7 1.304067 1_555
C3 O15 1.319680 1_545
