# generated using pymatgen
data_Yb4Ni2C5
_symmetry_space_group_name_H-M   'P 1'
_cell_length_a   3.52427351
_cell_length_b   3.63323628
_cell_length_c   11.36442585
_cell_angle_alpha   90.00000000
_cell_angle_beta   90.00000000
_cell_angle_gamma   90.00000000
_symmetry_Int_Tables_number   1
_chemical_formula_structural   Yb4Ni2C5
_chemical_formula_sum   'Yb4 Ni2 C5'
_cell_volume   145.51599956
_cell_formula_units_Z   1
loop_
 _symmetry_equiv_pos_site_id
 _symmetry_equiv_pos_as_xyz
  1  'x, y, z'
loop_
 _atom_site_type_symbol
 _atom_site_label
 _atom_site_symmetry_multiplicity
 _atom_site_fract_x
 _atom_site_fract_y
 _atom_site_fract_z
 _atom_site_occupancy
  Yb  Yb0  1  0.50000000  0.50048440  0.20296417  1
  Yb  Yb1  1  0.50000000  0.50048440  0.79703583  1
  Yb  Yb2  1  0.50000000  0.21213595  0.50000000  1
  Yb  Yb3  1  0.00000000  0.99879259  0.00000000  1
  Ni  Ni0  1  0.00000000  0.70099146  0.38419691  1
  Ni  Ni1  1  0.00000000  0.70099146  0.61580309  1
  C  C0  1  0.00000000  0.99874842  0.22813411  1
  C  C1  1  0.00000000  0.99874842  0.77186589  1
  C  C2  1  0.00000000  0.20006200  0.33285340  1
  C  C3  1  0.00000000  0.20006200  0.66714660  1
  C  C4  1  0.50000000  0.48999991  0.00000000  1
loop_
_geom_bond_atom_site_label_1
_geom_bond_atom_site_label_2
_geom_bond_distance
_geom_bond_site_symmetry_2
Ni0 Yb2 2.826960 1_455
Ni0 Yb2 2.826960 1_555
Ni0 Yb2 2.878529 1_465
Ni0 Yb2 2.878529 1_565
Ni1 Yb2 2.826960 1_455
Ni1 Yb2 2.826960 1_555
Ni1 Yb2 2.878529 1_565
Ni1 Yb2 2.878529 1_465
C0 C2 1.396872 1_565
C0 Ni0 2.077467 1_555
C0 Yb0 2.542473 1_455
C0 Yb0 2.542473 1_555
C0 Yb0 2.551471 1_565
C0 Yb0 2.551471 1_465
C0 Yb3 2.592613 1_555
C1 C3 1.396872 1_565
C1 Ni1 2.077467 1_555
C1 Yb1 2.542473 1_555
C1 Yb1 2.542473 1_455
C1 Yb1 2.551471 1_565
C1 Yb1 2.551471 1_465
C1 Yb3 2.592613 1_556
C2 Ni0 1.904811 1_545
C2 Ni0 1.911241 1_555
C2 Yb0 2.544687 1_555
C2 Yb0 2.544687 1_455
C2 Yb2 2.591379 1_555
C2 Yb2 2.591379 1_455
C3 Ni1 1.904811 1_545
C3 Ni1 1.911241 1_555
C3 Yb1 2.544687 1_455
C3 Yb1 2.544687 1_555
C3 Yb2 2.591379 1_455
C3 Yb2 2.591379 1_555
C4 Yb0 2.306886 1_555
C4 Yb1 2.306886 1_554
C4 Yb3 2.508023 1_645
C4 Yb3 2.508023 1_545
C4 Yb3 2.553882 1_555
C4 Yb3 2.553882 1_655
