# generated using pymatgen
data_CaCr2O5
_symmetry_space_group_name_H-M   'P 1'
_cell_length_a   3.62606600
_cell_length_b   4.99192302
_cell_length_c   11.43671204
_cell_angle_alpha   89.99050686
_cell_angle_beta   89.99990250
_cell_angle_gamma   89.99996124
_symmetry_Int_Tables_number   1
_chemical_formula_structural   CaCr2O5
_chemical_formula_sum   'Ca2 Cr4 O10'
_cell_volume   207.01640586
_cell_formula_units_Z   2
loop_
 _symmetry_equiv_pos_site_id
 _symmetry_equiv_pos_as_xyz
  1  'x, y, z'
loop_
 _atom_site_type_symbol
 _atom_site_label
 _atom_site_symmetry_multiplicity
 _atom_site_fract_x
 _atom_site_fract_y
 _atom_site_fract_z
 _atom_site_occupancy
  Ca  Ca0  1  0.74999000  0.86555100  0.24993200  1
  Ca  Ca1  1  0.25000800  0.13446800  0.74992900  1
  Cr  Cr0  1  0.24999900  0.40472500  0.09622600  1
  Cr  Cr1  1  0.75000200  0.59528700  0.90377800  1
  Cr  Cr2  1  0.75000000  0.59532400  0.59618300  1
  Cr  Cr3  1  0.24999800  0.40464000  0.40377600  1
  O  O0  1  0.75000300  0.44604500  0.75004000  1
  O  O1  1  0.24999800  0.55396700  0.25003300  1
  O  O2  1  0.74999800  0.53496000  0.07497400  1
  O  O3  1  0.25000000  0.46500500  0.92500100  1
  O  O4  1  0.74999900  0.53501300  0.42500200  1
  O  O5  1  0.24999900  0.46498900  0.57495400  1
  O  O6  1  0.25000000  0.06890000  0.37129000  1
  O  O7  1  0.75000200  0.93121700  0.62879000  1
  O  O8  1  0.75000000  0.93105800  0.87131900  1
  O  O9  1  0.24999500  0.06885000  0.12877300  1
loop_
_geom_bond_atom_site_label_1
_geom_bond_atom_site_label_2
_geom_bond_distance
_geom_bond_site_symmetry_2
Ca0 O1 2.388780 1_555
Ca0 O1 2.388822 1_655
Ca0 O9 2.497308 1_565
Ca0 O9 2.497331 1_665
Ca0 O6 2.498843 1_565
Ca0 O6 2.498900 1_665
Ca0 O2 2.593899 1_555
Ca0 O4 2.594297 1_555
Ca1 O0 2.388765 1_555
Ca1 O0 2.388791 1_455
Ca1 O7 2.497264 1_545
Ca1 O7 2.497300 1_445
Ca1 O8 2.498991 1_545
Ca1 O8 2.499031 1_445
Ca1 O5 2.593405 1_555
Ca1 O3 2.594734 1_555
Cr0 O9 1.717424 1_555
Cr0 O1 1.910421 1_555
Cr0 O2 1.941329 1_555
Cr0 O2 1.941336 1_455
Cr0 O3 1.981187 1_554
Cr1 O8 1.716699 1_555
Cr1 O0 1.909695 1_555
Cr1 O3 1.941363 1_655
Cr1 O3 1.941376 1_555
Cr1 O2 1.980894 1_556
Cr2 O7 1.717781 1_555
Cr2 O0 1.910793 1_555
Cr2 O5 1.941489 1_655
Cr2 O5 1.941498 1_555
Cr2 O4 1.980811 1_555
Cr3 O6 1.716735 1_555
Cr3 O1 1.909686 1_555
Cr3 O4 1.941549 1_455
Cr3 O4 1.941557 1_555
Cr3 O5 1.980806 1_555
