# generated using pymatgen
data_Sr(MnN)2
_symmetry_space_group_name_H-M   'P 1'
_cell_length_a   5.81547773
_cell_length_b   9.06139564
_cell_length_c   5.88913238
_cell_angle_alpha   90.00000207
_cell_angle_beta   92.50782622
_cell_angle_gamma   38.82396287
_symmetry_Int_Tables_number   1
_chemical_formula_structural   Sr(MnN)2
_chemical_formula_sum   'Sr3 Mn6 N6'
_cell_volume   194.08425440
_cell_formula_units_Z   3
loop_
 _symmetry_equiv_pos_site_id
 _symmetry_equiv_pos_as_xyz
  1  'x, y, z'
loop_
 _atom_site_type_symbol
 _atom_site_label
 _atom_site_symmetry_multiplicity
 _atom_site_fract_x
 _atom_site_fract_y
 _atom_site_fract_z
 _atom_site_occupancy
  Sr  Sr0  1  0.00000000  0.30428888  0.50000000  1
  Sr  Sr1  1  1.00000000  0.69571112  0.50000000  1
  Sr  Sr2  1  -0.00000000  0.50000000  -0.00000000  1
  Mn  Mn0  1  0.67845095  0.01503109  0.90629330  1
  Mn  Mn1  1  0.67845095  0.30651796  0.90629330  1
  Mn  Mn2  1  0.32154905  0.98496891  0.09370670  1
  Mn  Mn3  1  0.32154905  0.69348204  0.09370670  1
  Mn  Mn4  1  0.23091528  0.88454286  0.70124682  1
  Mn  Mn5  1  0.76908472  0.11545714  0.29875318  1
  N  N0  1  0.50173337  0.92287879  0.79564302  1
  N  N1  1  0.50173337  0.57538784  0.79564302  1
  N  N2  1  0.49826663  0.07712121  0.20435698  1
  N  N3  1  0.49826663  0.42461216  0.20435698  1
  N  N4  1  0.66313621  0.16843239  0.66164407  1
  N  N5  1  0.33686379  0.83156761  0.33835593  1
loop_
_geom_bond_atom_site_label_1
_geom_bond_atom_site_label_2
_geom_bond_distance
_geom_bond_site_symmetry_2
Mn0 N0 1.859192 1_545
Mn0 N2 1.933420 1_556
Mn0 N4 1.952386 1_555
Mn1 N1 1.859192 1_555
Mn1 N3 1.933420 1_556
Mn1 N4 1.952380 1_555
Mn2 N2 1.859192 1_565
Mn2 N0 1.933420 1_554
Mn2 N5 1.952386 1_555
Mn3 N3 1.859192 1_555
Mn3 N1 1.933420 1_554
Mn3 N5 1.952380 1_555
Mn4 N0 1.919889 1_555
Mn4 N1 1.919897 1_555
Mn4 N4 2.066921 1_465
Mn4 N5 2.198111 1_555
Mn5 N2 1.919889 1_555
Mn5 N3 1.919897 1_555
Mn5 N5 2.066921 1_645
Mn5 N4 2.198111 1_555
N0 Sr1 2.610099 1_555
N0 Sr2 2.630969 1_656
N0 Sr0 2.707817 1_565
N1 Sr0 2.610099 1_655
N1 Sr2 2.630969 1_656
N1 Sr1 2.707817 1_455
N2 Sr0 2.610099 1_555
N2 Sr2 2.630969 1_555
N2 Sr1 2.707817 1_545
N3 Sr1 2.610099 1_455
N3 Sr2 2.630969 1_555
N3 Sr0 2.707817 1_655
