# generated using pymatgen
data_K4MgCu3F12
_symmetry_space_group_name_H-M   'P 1'
_cell_length_a   6.92835199
_cell_length_b   6.92835199
_cell_length_c   6.92834561
_cell_angle_alpha   109.47341734
_cell_angle_beta   109.46975007
_cell_angle_gamma   109.47053185
_symmetry_Int_Tables_number   1
_chemical_formula_structural   K4MgCu3F12
_chemical_formula_sum   'K4 Mg1 Cu3 F12'
_cell_volume   256.01613651
_cell_formula_units_Z   1
loop_
 _symmetry_equiv_pos_site_id
 _symmetry_equiv_pos_as_xyz
  1  'x, y, z'
loop_
 _atom_site_type_symbol
 _atom_site_label
 _atom_site_symmetry_multiplicity
 _atom_site_fract_x
 _atom_site_fract_y
 _atom_site_fract_z
 _atom_site_occupancy
  K  K0  1  0.50000000  0.50000000  0.50000000  1
  K  K1  1  0.00000000  0.50000000  0.00000000  1
  K  K2  1  0.50000000  0.00000000  0.00000000  1
  K  K3  1  0.00000000  0.00000000  0.50000000  1
  Mg  Mg0  1  0.00000000  0.00000000  0.00000000  1
  Cu  Cu0  1  0.50000000  0.50000000  0.00000000  1
  Cu  Cu1  1  0.00000000  0.50000000  0.50000000  1
  Cu  Cu2  1  0.50000000  0.00000000  0.50000000  1
  F  F0  1  0.24997797  0.50000002  0.74997799  1
  F  F1  1  0.24856818  0.24856818  0.00000000  1
  F  F2  1  1.00000000  0.75143071  0.75143071  1
  F  F3  1  0.00000000  0.24856929  0.24856929  1
  F  F4  1  0.24857053  0.00000002  0.24857055  1
  F  F5  1  0.75143182  0.75143182  0.00000000  1
  F  F6  1  0.75142947  0.99999998  0.75142945  1
  F  F7  1  0.75002203  0.49999998  0.25002201  1
  F  F8  1  0.50000003  0.75000076  0.25000079  1
  F  F9  1  0.49999997  0.24999924  0.74999921  1
  F  F10  1  0.75002119  0.25002119  0.50000000  1
  F  F11  1  0.24997881  0.74997881  0.50000000  1
loop_
_geom_bond_atom_site_label_1
_geom_bond_atom_site_label_2
_geom_bond_distance
_geom_bond_site_symmetry_2
Cu0 F9 1.999994 1_554
Cu0 F8 1.999994 1_555
Cu0 F0 2.000255 1_554
Cu0 F7 2.000255 1_555
Cu0 F1 2.011515 1_555
Cu0 F5 2.011515 1_555
Cu1 F11 1.999890 1_555
Cu1 F10 1.999890 1_455
Cu1 F0 1.999902 1_555
Cu1 F7 1.999902 1_455
Cu1 F3 2.011433 1_555
Cu1 F2 2.011433 1_455
Cu2 F8 1.999982 1_545
Cu2 F9 1.999982 1_555
Cu2 F11 2.000229 1_545
Cu2 F10 2.000229 1_555
Cu2 F4 2.011515 1_555
Cu2 F6 2.011515 1_545
F0 K2 2.828461 1_566
F0 K1 2.828461 1_556
F0 K3 2.828461 1_555
F0 K0 2.828461 1_555
F1 Mg0 1.988605 1_555
F1 K0 2.828495 1_555
F1 K3 2.828495 1_554
F1 K2 2.828499 1_555
F1 K1 2.828499 1_555
F2 Mg0 1.988542 1_666
F2 K0 2.828548 1_555
F2 K3 2.828548 1_665
F2 K1 2.828548 1_656
F2 K2 2.828548 1_666
F3 Mg0 1.988542 1_555
F3 K0 2.828548 1_555
F3 K3 2.828548 1_555
F3 K1 2.828548 1_555
F3 K2 2.828548 1_455
F4 Mg0 1.988642 1_555
F4 K3 2.828484 1_555
F4 K0 2.828484 1_555
F4 K1 2.828484 1_545
F4 K2 2.828484 1_555
F5 Mg0 1.988605 1_665
F5 K0 2.828495 1_554
F5 K3 2.828495 1_665
F5 K2 2.828499 1_565
F5 K1 2.828499 1_655
F6 Mg0 1.988642 1_666
F6 K0 2.828484 1_555
F6 K3 2.828484 1_665
F6 K1 2.828484 1_666
F6 K2 2.828484 1_566
F7 K1 2.828461 1_655
F7 K2 2.828461 1_555
F7 K3 2.828461 1_665
F7 K0 2.828461 1_555
F8 K3 2.828525 1_665
F8 K0 2.828525 1_555
F8 K2 2.828525 1_565
F8 K1 2.828525 1_555
F9 K3 2.828525 1_555
F9 K0 2.828525 1_555
F9 K2 2.828525 1_556
F9 K1 2.828525 1_656
F10 K1 2.828472 1_656
F10 K2 2.828472 1_555
F10 K0 2.828476 1_555
F10 K3 2.828476 1_655
F11 K1 2.828472 1_555
F11 K2 2.828472 1_566
F11 K0 2.828476 1_555
F11 K3 2.828476 1_565
