# generated using pymatgen
data_Mn2V3NiO8
_symmetry_space_group_name_H-M   'P 1'
_cell_length_a   6.16374663
_cell_length_b   6.06229255
_cell_length_c   10.60291151
_cell_angle_alpha   107.64661013
_cell_angle_beta   106.45780429
_cell_angle_gamma   59.84674367
_symmetry_Int_Tables_number   1
_chemical_formula_structural   Mn2V3NiO8
_chemical_formula_sum   'Mn4 V6 Ni2 O16'
_cell_volume   322.30739955
_cell_formula_units_Z   2
loop_
 _symmetry_equiv_pos_site_id
 _symmetry_equiv_pos_as_xyz
  1  'x, y, z'
loop_
 _atom_site_type_symbol
 _atom_site_label
 _atom_site_symmetry_multiplicity
 _atom_site_fract_x
 _atom_site_fract_y
 _atom_site_fract_z
 _atom_site_occupancy
  Mn  Mn0  1  0.11909700  0.12332900  0.37273600  1
  Mn  Mn1  1  0.61859000  0.62307400  0.87227800  1
  Mn  Mn2  1  0.00576700  0.00223900  0.00276400  1
  Mn  Mn3  1  0.50684100  0.50230800  0.50307800  1
  V  V0  1  0.56250600  0.06231700  0.68752200  1
  V  V1  1  0.06231900  0.56262200  0.68744700  1
  V  V2  1  0.06267800  0.06221200  0.68745700  1
  V  V3  1  0.06252900  0.56256900  0.18748100  1
  V  V4  1  0.56232700  0.06265700  0.18742200  1
  V  V5  1  0.56244500  0.56231500  0.18743500  1
  Ni  Ni0  1  0.81224000  0.81289200  0.43746300  1
  Ni  Ni1  1  0.31270300  0.31192300  0.93720000  1
  O  O0  1  0.43694000  0.43711700  0.29543100  1
  O  O1  1  0.93699500  0.93697500  0.79526200  1
  O  O2  1  0.68800400  0.68799800  0.07963200  1
  O  O3  1  0.18810100  0.18799800  0.57985200  1
  O  O4  1  0.66081600  0.22312600  0.07454700  1
  O  O5  1  0.16089600  0.72390800  0.57492400  1
  O  O6  1  0.21068100  0.66505800  0.07901200  1
  O  O7  1  0.71142100  0.16533000  0.57971400  1
  O  O8  1  0.21664200  0.20207700  0.07288000  1
  O  O9  1  0.71780000  0.70198600  0.57324500  1
  O  O10  1  0.46398200  0.90187100  0.30035000  1
  O  O11  1  0.96415500  0.40092700  0.79997200  1
  O  O12  1  0.91427900  0.45975900  0.29590000  1
  O  O13  1  0.41371900  0.95933900  0.79522800  1
  O  O14  1  0.90825900  0.92308800  0.30207500  1
  O  O15  1  0.40726700  0.42298400  0.80169300  1
loop_
_geom_bond_atom_site_label_1
_geom_bond_atom_site_label_2
_geom_bond_distance
_geom_bond_site_symmetry_2
Mn0 O14 2.050736 1_445
Mn0 O12 2.062790 1_455
Mn0 O3 2.067235 1_555
Mn0 O10 2.083989 1_545
Mn1 O15 2.052474 1_555
Mn1 O13 2.063174 1_555
Mn1 O2 2.069580 1_556
Mn1 O11 2.087040 1_555
Mn2 O8 2.048941 1_555
Mn2 O6 2.063200 1_545
Mn2 O1 2.071005 1_444
Mn2 O4 2.081298 1_455
Mn3 O9 2.048596 1_555
Mn3 O7 2.064344 1_555
Mn3 O0 2.072480 1_555
Mn3 O5 2.086604 1_555
Ni0 O14 2.077797 1_555
Ni0 O9 2.078098 1_555
Ni0 O12 2.113188 1_555
Ni0 O7 2.114107 1_565
Ni0 O10 2.134534 1_555
Ni0 O5 2.137960 1_655
Ni1 O15 2.076684 1_555
Ni1 O8 2.079225 1_556
Ni1 O13 2.113217 1_545
Ni1 O6 2.114485 1_556
Ni1 O4 2.135147 1_556
Ni1 O11 2.136330 1_455
O0 V5 2.025925 1_555
O0 V4 2.055443 1_555
O0 V3 2.117103 1_555
O1 V2 2.025308 1_665
O1 V1 2.054291 1_655
O1 V0 2.116726 1_565
O2 V5 2.026729 1_555
O2 V4 2.055545 1_565
O2 V3 2.117274 1_655
O3 V2 2.024928 1_555
O3 V1 2.054696 1_555
O3 V0 2.116032 1_555
O4 V5 1.922232 1_555
O4 V4 2.111412 1_555
O5 V2 1.916939 1_565
O5 V1 2.112694 1_555
O6 V5 2.018821 1_555
O6 V3 2.034928 1_555
O7 V2 2.013740 1_655
O7 V0 2.035258 1_555
O8 V4 2.018948 1_555
O8 V3 2.028121 1_555
O9 V1 2.012529 1_655
O9 V0 2.026803 1_565
O10 V5 1.923925 1_555
O10 V4 2.112745 1_565
O11 V2 1.918581 1_655
O11 V1 2.112911 1_655
O12 V5 2.019374 1_555
O12 V3 2.036339 1_655
O13 V2 2.012922 1_565
O13 V0 2.033659 1_565
O14 V4 2.020545 1_565
O14 V3 2.028293 1_655
O15 V1 2.014632 1_555
O15 V0 2.027659 1_555
