# generated using pymatgen
data_SiO2
_symmetry_space_group_name_H-M   'P 1'
_cell_length_a   18.19348368
_cell_length_b   18.19362334
_cell_length_c   7.61350806
_cell_angle_alpha   89.99999716
_cell_angle_beta   89.99999969
_cell_angle_gamma   120.00025970
_symmetry_Int_Tables_number   1
_chemical_formula_structural   SiO2
_chemical_formula_sum   'Si36 O72'
_cell_volume   2182.47547346
_cell_formula_units_Z   36
loop_
 _symmetry_equiv_pos_site_id
 _symmetry_equiv_pos_as_xyz
  1  'x, y, z'
loop_
 _atom_site_type_symbol
 _atom_site_label
 _atom_site_symmetry_multiplicity
 _atom_site_fract_x
 _atom_site_fract_y
 _atom_site_fract_z
 _atom_site_occupancy
  Si  Si0  1  0.09401618  0.35895219  0.04596426  1
  Si  Si1  1  0.64393927  0.74085209  0.04596255  1
  Si  Si2  1  0.26204223  0.90888049  0.04596293  1
  Si  Si3  1  0.90598521  0.64683928  0.54596746  1
  Si  Si4  1  0.35605871  0.26493601  0.54595899  1
  Si  Si5  1  0.73795693  0.09691262  0.54596258  1
  Si  Si6  1  0.64394130  0.90887722  0.04595890  1
  Si  Si7  1  0.26204311  0.35895574  0.04596268  1
  Si  Si8  1  0.09401493  0.74085411  0.04596765  1
  Si  Si9  1  0.35606070  0.09691284  0.54596244  1
  Si  Si10  1  0.73795775  0.64683835  0.54596285  1
  Si  Si11  1  0.90598377  0.26493609  0.54596448  1
  Si  Si12  1  0.90598520  0.64683925  0.95403255  1
  Si  Si13  1  0.35605868  0.26493599  0.95404098  1
  Si  Si14  1  0.73795691  0.09691261  0.95403735  1
  Si  Si15  1  0.09401617  0.35895220  0.45403574  1
  Si  Si16  1  0.64393928  0.74085210  0.45403745  1
  Si  Si17  1  0.26204223  0.90888050  0.45403706  1
  Si  Si18  1  0.35606070  0.09691284  0.95403760  1
  Si  Si19  1  0.73795778  0.64683837  0.95403716  1
  Si  Si20  1  0.90598377  0.26493613  0.95403553  1
  Si  Si21  1  0.64394131  0.90887723  0.45404112  1
  Si  Si22  1  0.26204310  0.35895572  0.45403729  1
  Si  Si23  1  0.09401493  0.74085411  0.45403236  1
  Si  Si24  1  0.49258492  0.16331799  0.24999999  1
  Si  Si25  1  0.83958365  0.33505587  0.24999998  1
  Si  Si26  1  0.66783758  0.51031327  0.25000000  1
  Si  Si27  1  0.50741626  0.84247707  0.74999999  1
  Si  Si28  1  0.16041382  0.67072936  0.75000002  1
  Si  Si29  1  0.33216322  0.49547495  0.75000001  1
  Si  Si30  1  0.83958614  0.51031542  0.24999998  1
  Si  Si31  1  0.66783678  0.16331174  0.25000004  1
  Si  Si32  1  0.49258372  0.33506076  0.25000004  1
  Si  Si33  1  0.16041635  0.49547225  0.75000002  1
  Si  Si34  1  0.33216256  0.84247598  0.75000004  1
  Si  Si35  1  0.50741510  0.67073312  0.75000004  1
  O  O0  1  -0.00000001  0.27985452  -0.00000007  1
  O  O1  1  0.72304133  0.72593970  0.00000104  1
  O  O2  1  0.27695880  0.00289838  -0.00000096  1
  O  O3  1  0.00000005  0.72593919  0.49999981  1
  O  O4  1  0.27695941  0.27985342  0.50000104  1
  O  O5  1  0.72304063  0.00289397  0.49999874  1
  O  O6  1  0.72304054  0.00289397  0.00000126  1
  O  O7  1  0.27695934  0.27985336  -0.00000107  1
  O  O8  1  0.00000007  0.72593915  0.00000021  1
  O  O9  1  0.27695880  0.00289839  0.50000095  1
  O  O10  1  0.72304126  0.72593965  0.49999897  1
  O  O11  1  -0.00000002  0.27985458  0.50000008  1
  O  O12  1  0.11430586  0.44097231  0.92581796  1
  O  O13  1  0.56191920  0.67912389  0.92582295  1
  O  O14  1  0.32377550  0.88859148  0.92582056  1
  O  O15  1  0.88569507  0.56481962  0.42581712  1
  O  O16  1  0.43808074  0.32666961  0.42582298  1
  O  O17  1  0.67622423  0.11720150  0.42581974  1
  O  O18  1  0.56191932  0.88858888  0.92582300  1
  O  O19  1  0.32377584  0.44097737  0.92581980  1
  O  O20  1  0.11430485  0.67912447  0.92581708  1
  O  O21  1  0.43808076  0.11720466  0.42582301  1
  O  O22  1  0.67622454  0.56481587  0.42582048  1
  O  O23  1  0.88569413  0.32666635  0.42581784  1
  O  O24  1  0.88569509  0.56481961  0.07418284  1
  O  O25  1  0.43808075  0.32666962  0.07417709  1
  O  O26  1  0.67622413  0.11720145  0.07418023  1
  O  O27  1  0.11430590  0.44097228  0.57418206  1
  O  O28  1  0.56191923  0.67912395  0.57417702  1
  O  O29  1  0.32377550  0.88859150  0.57417949  1
  O  O30  1  0.43808076  0.11720465  0.07417701  1
  O  O31  1  0.67622461  0.56481589  0.07417955  1
  O  O32  1  0.88569413  0.32666637  0.07418212  1
  O  O33  1  0.56191933  0.88858893  0.57417693  1
  O  O34  1  0.32377579  0.44097731  0.57418030  1
  O  O35  1  0.11430484  0.67912450  0.57418297  1
  O  O36  1  0.16235255  0.32760007  0.00589874  1
  O  O37  1  0.67529757  0.84054290  0.00589547  1
  O  O38  1  0.16235188  0.84054341  0.00589701  1
  O  O39  1  0.83764802  0.67819143  0.50589713  1
  O  O40  1  0.32470248  0.16524549  0.50589554  1
  O  O41  1  0.83764750  0.16524758  0.50589889  1
  O  O42  1  0.83764803  0.67819139  0.99410282  1
  O  O43  1  0.32470246  0.16524548  0.99410441  1
  O  O44  1  0.83764749  0.16524762  0.99410112  1
  O  O45  1  0.16235259  0.32760018  0.49410110  1
  O  O46  1  0.67529759  0.84054292  0.49410452  1
  O  O47  1  0.16235192  0.84054337  0.49410290  1
  O  O48  1  0.09961639  0.38824114  0.25000000  1
  O  O49  1  0.61465664  0.71716916  0.25000004  1
  O  O50  1  0.28572822  0.90328166  0.25000002  1
  O  O51  1  0.90038364  0.61755243  0.75000001  1
  O  O52  1  0.38534379  0.28862453  0.75000001  1
  O  O53  1  0.71427156  0.10251432  0.74999995  1
  O  O54  1  0.61465589  0.90327980  0.25000004  1
  O  O55  1  0.28572843  0.38824285  0.24999998  1
  O  O56  1  0.09961689  0.71716873  0.25000001  1
  O  O57  1  0.38534361  0.10251339  0.74999998  1
  O  O58  1  0.71427174  0.61755411  0.74999999  1
  O  O59  1  0.90038378  0.28862536  0.74999999  1
  O  O60  1  0.52226775  0.26403067  0.24999999  1
  O  O61  1  0.73886931  0.26402897  0.24999999  1
  O  O62  1  0.73886711  0.48063074  0.25000003  1
  O  O63  1  0.47773223  0.74176282  0.75000000  1
  O  O64  1  0.26113254  0.74176389  0.75000003  1
  O  O65  1  0.26113071  0.52515968  0.75000003  1
  O  O66  1  0.57483717  0.15256506  0.25000003  1
  O  O67  1  0.85033322  0.42806243  0.25000006  1
  O  O68  1  0.57483359  0.42806335  0.24999997  1
  O  O69  1  0.42516641  0.85322975  0.75000000  1
  O  O70  1  0.14966687  0.57772929  0.75000000  1
  O  O71  1  0.42516283  0.57772786  0.74999995  1
loop_
_geom_bond_atom_site_label_1
_geom_bond_atom_site_label_2
_geom_bond_distance
_geom_bond_site_symmetry_2
O0 Si0 1.630220 1_555
O0 Si20 1.630222 1_454
O1 Si1 1.630229 1_555
O1 Si19 1.630274 1_554
O2 Si18 1.630228 1_554
O2 Si2 1.630275 1_545
O3 Si3 1.630225 1_455
O3 Si23 1.630226 1_555
O4 Si4 1.630230 1_555
O4 Si22 1.630290 1_555
O5 Si21 1.630230 1_545
O5 Si5 1.630290 1_555
O6 Si6 1.630229 1_545
O6 Si14 1.630290 1_554
O7 Si13 1.630230 1_554
O7 Si7 1.630290 1_555
O8 Si8 1.630225 1_555
O8 Si12 1.630225 1_454
O9 Si9 1.630228 1_555
O9 Si17 1.630275 1_545
O10 Si16 1.630228 1_555
O10 Si10 1.630274 1_555
O11 Si15 1.630220 1_555
O11 Si11 1.630221 1_455
O12 Si33 1.626943 1_555
O12 Si0 1.627557 1_556
O13 Si35 1.627010 1_555
O13 Si1 1.627509 1_556
O14 Si34 1.626998 1_555
O14 Si2 1.627570 1_556
O15 Si30 1.626959 1_555
O15 Si3 1.627566 1_555
O16 Si32 1.626997 1_555
O16 Si4 1.627537 1_555
O17 Si31 1.626941 1_555
O17 Si5 1.627562 1_555
O18 Si27 1.626998 1_555
O18 Si6 1.627536 1_556
O19 Si29 1.626941 1_555
O19 Si7 1.627563 1_556
O20 Si28 1.626958 1_555
O20 Si8 1.627566 1_556
O21 Si24 1.627011 1_555
O21 Si9 1.627508 1_555
O22 Si26 1.626999 1_555
O22 Si10 1.627571 1_555
O23 Si25 1.626942 1_555
O23 Si11 1.627556 1_555
O24 Si30 1.626959 1_555
O24 Si12 1.627566 1_554
O25 Si32 1.626997 1_555
O25 Si13 1.627538 1_554
O26 Si31 1.626942 1_555
O26 Si14 1.627563 1_554
O27 Si33 1.626943 1_555
O27 Si15 1.627557 1_555
O28 Si35 1.627011 1_555
O28 Si16 1.627508 1_555
O29 Si34 1.626998 1_555
O29 Si17 1.627570 1_555
O30 Si24 1.627011 1_555
O30 Si18 1.627508 1_554
O31 Si26 1.626998 1_555
O31 Si19 1.627571 1_554
O32 Si25 1.626942 1_555
O32 Si20 1.627555 1_554
O33 Si27 1.626999 1_555
O33 Si21 1.627536 1_555
O34 Si29 1.626941 1_555
O34 Si22 1.627563 1_555
O35 Si28 1.626958 1_555
O35 Si23 1.627566 1_555
O36 Si0 1.635033 1_555
O36 Si7 1.635044 1_555
O37 Si6 1.635056 1_555
O37 Si1 1.635057 1_555
O38 Si2 1.635053 1_555
O38 Si8 1.635053 1_555
O39 Si10 1.635052 1_555
O39 Si3 1.635054 1_555
O40 Si4 1.635055 1_555
O40 Si9 1.635058 1_555
O41 Si11 1.635033 1_555
O41 Si5 1.635044 1_555
O42 Si19 1.635052 1_555
O42 Si12 1.635054 1_555
O43 Si13 1.635055 1_555
O43 Si18 1.635058 1_555
O44 Si20 1.635033 1_555
O44 Si14 1.635045 1_555
O45 Si15 1.635032 1_555
O45 Si22 1.635044 1_555
O46 Si21 1.635056 1_555
O46 Si16 1.635057 1_555
O47 Si17 1.635052 1_555
O47 Si23 1.635053 1_555
O48 Si15 1.628858 1_555
O48 Si0 1.628858 1_555
O49 Si16 1.628836 1_555
O49 Si1 1.628836 1_555
O50 Si17 1.628847 1_555
O50 Si2 1.628847 1_555
O51 Si12 1.628821 1_555
O51 Si3 1.628821 1_555
O52 Si13 1.628881 1_555
O52 Si4 1.628881 1_555
O53 Si5 1.628856 1_555
O53 Si14 1.628856 1_555
O54 Si21 1.628882 1_555
O54 Si6 1.628882 1_555
O55 Si7 1.628856 1_555
O55 Si22 1.628856 1_555
O56 Si23 1.628821 1_555
O56 Si8 1.628821 1_555
O57 Si9 1.628837 1_555
O57 Si18 1.628837 1_555
O58 Si10 1.628846 1_555
O58 Si19 1.628846 1_555
O59 Si20 1.628858 1_555
O59 Si11 1.628858 1_555
O60 Si24 1.630809 1_555
O60 Si32 1.630829 1_555
O61 Si25 1.630804 1_555
O61 Si31 1.630874 1_555
O62 Si26 1.630793 1_555
O62 Si30 1.630897 1_555
O63 Si35 1.630807 1_555
O63 Si27 1.630831 1_555
O64 Si34 1.630795 1_555
O64 Si28 1.630894 1_555
O65 Si33 1.630804 1_555
O65 Si29 1.630874 1_555
O66 Si31 1.603193 1_555
O66 Si24 1.603250 1_555
O67 Si30 1.603212 1_555
O67 Si25 1.603311 1_555
O68 Si32 1.603205 1_555
O68 Si26 1.603217 1_555
O69 Si27 1.603204 1_555
O69 Si34 1.603217 1_555
O70 Si28 1.603212 1_555
O70 Si33 1.603310 1_555
O71 Si29 1.603192 1_555
O71 Si35 1.603251 1_555
