# generated using pymatgen
data_V2B2Ir
_symmetry_space_group_name_H-M   'P 1'
_cell_length_a   3.07241900
_cell_length_b   7.21260400
_cell_length_c   9.29341300
_cell_angle_alpha   90.00000000
_cell_angle_beta   90.00000000
_cell_angle_gamma   90.00000000
_symmetry_Int_Tables_number   1
_chemical_formula_structural   V2B2Ir
_chemical_formula_sum   'V8 B8 Ir4'
_cell_volume   205.94334774
_cell_formula_units_Z   4
loop_
 _symmetry_equiv_pos_site_id
 _symmetry_equiv_pos_as_xyz
  1  'x, y, z'
loop_
 _atom_site_type_symbol
 _atom_site_label
 _atom_site_symmetry_multiplicity
 _atom_site_fract_x
 _atom_site_fract_y
 _atom_site_fract_z
 _atom_site_occupancy
  V  V0  1  0.50000000  0.81275900  0.13304200  1
  V  V1  1  0.50000000  0.18724100  0.86695800  1
  V  V2  1  0.00000000  0.68724100  0.63304200  1
  V  V3  1  0.00000000  0.31275900  0.36695800  1
  V  V4  1  0.50000000  0.57418500  0.86084800  1
  V  V5  1  0.50000000  0.42581500  0.13915200  1
  V  V6  1  0.00000000  0.92581500  0.36084800  1
  V  V7  1  0.00000000  0.07418500  0.63915200  1
  B  B0  1  0.50000000  0.11360300  0.45999300  1
  B  B1  1  0.50000000  0.88639700  0.54000700  1
  B  B2  1  0.00000000  0.38639700  0.95999300  1
  B  B3  1  0.00000000  0.61360300  0.04000700  1
  B  B4  1  0.50000000  0.12229800  0.26860900  1
  B  B5  1  0.50000000  0.87770200  0.73139100  1
  B  B6  1  0.00000000  0.37770200  0.76860900  1
  B  B7  1  0.00000000  0.62229800  0.23139100  1
  Ir  Ir0  1  0.50000000  0.62669800  0.39565100  1
  Ir  Ir1  1  0.50000000  0.37330200  0.60434900  1
  Ir  Ir2  1  0.00000000  0.87330200  0.89565100  1
  Ir  Ir3  1  0.00000000  0.12669800  0.10434900  1
loop_
_geom_bond_atom_site_label_1
_geom_bond_atom_site_label_2
_geom_bond_distance
_geom_bond_site_symmetry_2
B0 B4 1.779716 1_555
B0 B1 1.799566 1_545
B0 V6 2.245756 1_645
B0 V6 2.245756 1_545
B0 V3 2.273947 1_655
B0 V3 2.273947 1_555
B0 V7 2.283197 1_555
B0 V7 2.283197 1_655
B0 Ir1 2.303977 1_555
B1 B5 1.779716 1_555
B1 V7 2.245756 1_565
B1 V7 2.245756 1_665
B1 V2 2.273947 1_655
B1 V2 2.273947 1_555
B1 V6 2.283197 1_655
B1 V6 2.283197 1_555
B1 Ir0 2.303977 1_555
B2 B6 1.779716 1_555
B2 B3 1.799566 1_556
B2 V4 2.245756 1_555
B2 V4 2.245756 1_455
B2 V1 2.273947 1_555
B2 V1 2.273947 1_455
B2 V5 2.283197 1_456
B2 V5 2.283197 1_556
B2 Ir3 2.303977 1_556
B3 B7 1.779716 1_555
B3 V5 2.245756 1_555
B3 V5 2.245756 1_455
B3 V0 2.273947 1_555
B3 V0 2.273947 1_455
B3 V4 2.283197 1_554
B3 V4 2.283197 1_454
B3 Ir2 2.303977 1_554
B4 Ir3 2.165931 1_555
B4 Ir3 2.165931 1_655
B4 V3 2.254426 1_555
B4 V3 2.254426 1_655
B4 V6 2.259000 1_545
B4 V6 2.259000 1_645
B4 V5 2.497962 1_555
B4 V0 2.563537 1_545
B5 Ir2 2.165931 1_655
B5 Ir2 2.165931 1_555
B5 V2 2.254426 1_555
B5 V2 2.254426 1_655
B5 V7 2.259000 1_565
B5 V7 2.259000 1_665
B5 V4 2.497962 1_555
B5 V1 2.563537 1_565
B6 Ir1 2.165931 1_555
B6 Ir1 2.165931 1_455
B6 V1 2.254426 1_555
B6 V1 2.254426 1_455
B6 V4 2.259000 1_555
B6 V4 2.259000 1_455
B6 V7 2.497962 1_555
B6 V2 2.563537 1_555
B7 Ir0 2.165931 1_455
B7 Ir0 2.165931 1_555
B7 V0 2.254426 1_555
B7 V0 2.254426 1_455
B7 V5 2.259000 1_555
B7 V5 2.259000 1_455
B7 V6 2.497962 1_555
B7 V3 2.563537 1_555
Ir0 Ir1 2.664960 1_555
Ir0 V6 2.668142 1_655
Ir0 V6 2.668142 1_555
Ir0 V2 2.723568 1_555
Ir0 V2 2.723568 1_655
Ir0 V3 2.749214 1_555
Ir0 V3 2.749214 1_655
Ir0 V0 2.785162 1_555
Ir0 V5 2.789543 1_555
Ir1 V7 2.668142 1_655
Ir1 V7 2.668142 1_555
Ir1 V3 2.723568 1_655
Ir1 V3 2.723568 1_555
Ir1 V2 2.749214 1_555
Ir1 V2 2.749214 1_655
Ir1 V1 2.785162 1_555
Ir1 V4 2.789543 1_555
Ir2 Ir3 2.664960 1_566
Ir2 V4 2.668142 1_555
Ir2 V4 2.668142 1_455
Ir2 V0 2.723568 1_456
Ir2 V0 2.723568 1_556
Ir2 V1 2.749214 1_565
Ir2 V1 2.749214 1_465
Ir2 V2 2.785162 1_555
Ir2 V7 2.789543 1_565
Ir3 V5 2.668142 1_455
Ir3 V5 2.668142 1_555
Ir3 V1 2.723568 1_454
Ir3 V1 2.723568 1_554
Ir3 V0 2.749214 1_445
Ir3 V0 2.749214 1_545
Ir3 V3 2.785162 1_555
Ir3 V6 2.789543 1_545
