# generated using pymatgen
data_CdSb
_symmetry_space_group_name_H-M   'P 1'
_cell_length_a   8.33310615
_cell_length_b   8.64824985
_cell_length_c   6.54114516
_cell_angle_alpha   90.00000000
_cell_angle_beta   90.00000000
_cell_angle_gamma   90.00000000
_symmetry_Int_Tables_number   1
_chemical_formula_structural   CdSb
_chemical_formula_sum   'Cd8 Sb8'
_cell_volume   471.39929544
_cell_formula_units_Z   8
loop_
 _symmetry_equiv_pos_site_id
 _symmetry_equiv_pos_as_xyz
  1  'x, y, z'
loop_
 _atom_site_type_symbol
 _atom_site_label
 _atom_site_symmetry_multiplicity
 _atom_site_fract_x
 _atom_site_fract_y
 _atom_site_fract_z
 _atom_site_occupancy
  Cd  Cd0  1  0.38069125  0.13458219  0.95252694  1
  Cd  Cd1  1  0.88069125  0.36541781  0.04747306  1
  Cd  Cd2  1  0.61930875  0.63458219  0.54747306  1
  Cd  Cd3  1  0.11930875  0.86541781  0.45252694  1
  Cd  Cd4  1  0.61930875  0.86541781  0.04747306  1
  Cd  Cd5  1  0.11930875  0.63458219  0.95252694  1
  Cd  Cd6  1  0.38069125  0.36541781  0.45252694  1
  Cd  Cd7  1  0.88069125  0.13458219  0.54747306  1
  Sb  Sb0  1  0.07515966  0.10230026  0.13868721  1
  Sb  Sb1  1  0.57515966  0.39769974  0.86131279  1
  Sb  Sb2  1  0.92484034  0.60230026  0.36131279  1
  Sb  Sb3  1  0.42484034  0.89769974  0.63868721  1
  Sb  Sb4  1  0.92484034  0.89769974  0.86131279  1
  Sb  Sb5  1  0.42484034  0.60230026  0.13868721  1
  Sb  Sb6  1  0.07515966  0.39769974  0.63868721  1
  Sb  Sb7  1  0.57515966  0.10230026  0.36131279  1
loop_
_geom_bond_atom_site_label_1
_geom_bond_atom_site_label_2
_geom_bond_distance
_geom_bond_site_symmetry_2
Cd0 Sb0 2.836017 1_556
Cd0 Sb1 2.856575 1_555
Cd0 Sb3 2.923434 1_545
Cd0 Cd4 3.123812 1_546
Cd0 Sb7 3.139098 1_556
Cd1 Sb1 2.836017 1_554
Cd1 Sb0 2.856575 1_655
Cd1 Sb2 2.923434 1_555
Cd1 Cd5 3.123812 1_654
Cd1 Sb6 3.139098 1_654
Cd2 Sb2 2.836017 1_555
Cd2 Sb3 2.856575 1_555
Cd2 Sb1 2.923434 1_555
Cd2 Cd6 3.123812 1_555
Cd2 Sb5 3.139098 1_555
Cd3 Sb3 2.836017 1_555
Cd3 Sb2 2.856575 1_455
Cd3 Sb0 2.923434 1_565
Cd3 Cd7 3.123812 1_465
Cd3 Sb4 3.139098 1_455
Cd4 Sb4 2.836017 1_554
Cd4 Sb5 2.856575 1_555
Cd4 Sb7 2.923434 1_565
Cd4 Sb3 3.139098 1_554
Cd5 Sb5 2.836017 1_556
Cd5 Sb4 2.856575 1_455
Cd5 Sb6 2.923434 1_555
Cd5 Sb2 3.139098 1_456
Cd6 Sb6 2.836017 1_555
Cd6 Sb7 2.856575 1_555
Cd6 Sb5 2.923434 1_555
Cd6 Sb1 3.139098 1_555
Cd7 Sb7 2.836017 1_555
Cd7 Sb6 2.856575 1_655
Cd7 Sb4 2.923434 1_545
Cd7 Sb0 3.139098 1_655
Sb0 Sb4 2.826983 1_444
Sb1 Sb5 2.826983 1_556
Sb2 Sb6 2.826983 1_655
Sb3 Sb7 2.826983 1_565
