# generated using pymatgen
data_MgP6(HN3)4
_symmetry_space_group_name_H-M   'P 1'
_cell_length_a   4.87681400
_cell_length_b   4.90308855
_cell_length_c   21.72405500
_cell_angle_alpha   90.00000000
_cell_angle_beta   90.00000000
_cell_angle_gamma   119.82289091
_symmetry_Int_Tables_number   1
_chemical_formula_structural   MgP6(HN3)4
_chemical_formula_sum   'Mg2 P12 H8 N24'
_cell_volume   450.66077840
_cell_formula_units_Z   2
loop_
 _symmetry_equiv_pos_site_id
 _symmetry_equiv_pos_as_xyz
  1  'x, y, z'
loop_
 _atom_site_type_symbol
 _atom_site_label
 _atom_site_symmetry_multiplicity
 _atom_site_fract_x
 _atom_site_fract_y
 _atom_site_fract_z
 _atom_site_occupancy
  Mg  Mg0  1  0.50000000  0.00000000  0.50000000  1
  Mg  Mg1  1  0.00000000  0.00000000  0.00000000  1
  P  P0  1  0.82992300  0.67090800  0.41277900  1
  P  P1  1  0.84098500  0.67090800  0.58722100  1
  P  P2  1  0.34098500  0.67090800  0.91277900  1
  P  P3  1  0.32992300  0.67090800  0.08722100  1
  P  P4  1  0.17007700  0.32909200  0.58722100  1
  P  P5  1  0.15901500  0.32909200  0.41277900  1
  P  P6  1  0.65901500  0.32909200  0.08722100  1
  P  P7  1  0.67007700  0.32909200  0.91277900  1
  P  P8  1  0.90601800  0.00000000  0.28896800  1
  P  P9  1  0.09398200  0.00000000  0.71103200  1
  P  P10  1  0.59398200  0.00000000  0.78896800  1
  P  P11  1  0.40601800  0.00000000  0.21103200  1
  H  H0  1  0.25232300  0.51748300  0.31274500  1
  H  H1  1  0.26516000  0.51748300  0.68725500  1
  H  H2  1  0.76516000  0.51748300  0.81274500  1
  H  H3  1  0.75232300  0.51748300  0.18725500  1
  H  H4  1  0.74767700  0.48251700  0.68725500  1
  H  H5  1  0.73484000  0.48251700  0.31274500  1
  H  H6  1  0.23484000  0.48251700  0.18725500  1
  H  H7  1  0.24767700  0.48251700  0.81274500  1
  N  N0  1  0.12934000  0.30386500  0.33460100  1
  N  N1  1  0.17452500  0.30386500  0.66539900  1
  N  N2  1  0.67452500  0.30386500  0.83460100  1
  N  N3  1  0.62934000  0.30386500  0.16539900  1
  N  N4  1  0.87066000  0.69613500  0.66539900  1
  N  N5  1  0.82547500  0.69613500  0.33460100  1
  N  N6  1  0.32547500  0.69613500  0.16539900  1
  N  N7  1  0.37066000  0.69613500  0.83460100  1
  N  N8  1  0.12761400  0.62921300  0.43410100  1
  N  N9  1  0.50159900  0.62921300  0.56589900  1
  N  N10  1  0.00159900  0.62921300  0.93410100  1
  N  N11  1  0.62761400  0.62921300  0.06589900  1
  N  N12  1  0.87238600  0.37078700  0.56589900  1
  N  N13  1  0.49840100  0.37078700  0.43410100  1
  N  N14  1  0.99840100  0.37078700  0.06589900  1
  N  N15  1  0.37238600  0.37078700  0.93410100  1
  N  N16  1  0.58173400  0.00000000  0.27306000  1
  N  N17  1  0.41826600  0.00000000  0.72694000  1
  N  N18  1  0.91826600  0.00000000  0.77306000  1
  N  N19  1  0.08173400  0.00000000  0.22694000  1
  N  N20  1  0.86985600  0.00000000  0.43736500  1
  N  N21  1  0.13014400  0.00000000  0.56263500  1
  N  N22  1  0.63014400  0.00000000  0.93736500  1
  N  N23  1  0.36985600  0.00000000  0.06263500  1
loop_
_geom_bond_atom_site_label_1
_geom_bond_atom_site_label_2
_geom_bond_distance
_geom_bond_site_symmetry_2
Mg0 N20 2.259396 1_555
Mg0 N21 2.259396 1_555
Mg0 N9 2.317057 1_545
Mg0 N12 2.317057 1_555
Mg0 N13 2.317057 1_555
Mg0 N8 2.317057 1_545
Mg1 N23 2.259396 1_555
Mg1 N22 2.259396 1_454
Mg1 N14 2.317057 1_455
Mg1 N11 2.317057 1_445
Mg1 N15 2.317057 1_554
Mg1 N10 2.317057 1_544
H0 N0 1.028278 1_555
H1 N1 1.028278 1_555
H2 N2 1.028278 1_555
H3 N3 1.028278 1_555
H4 N4 1.028278 1_555
H5 N5 1.028278 1_555
H6 N6 1.028278 1_555
H7 N7 1.028278 1_555
N0 P8 1.665739 1_455
N0 P5 1.703763 1_555
N1 P9 1.665739 1_555
N1 P4 1.703763 1_555
N2 P10 1.665739 1_555
N2 P7 1.703763 1_555
N3 P11 1.665739 1_555
N3 P6 1.703763 1_555
N4 P9 1.665739 1_665
N4 P1 1.703763 1_555
N5 P8 1.665739 1_565
N5 P0 1.703763 1_555
N6 P11 1.665739 1_565
N6 P3 1.703763 1_555
N7 P10 1.665739 1_565
N7 P2 1.703763 1_555
N8 P5 1.620960 1_555
N8 P0 1.630714 1_455
N9 P4 1.620960 1_555
N9 P1 1.630714 1_555
N10 P7 1.620960 1_455
N10 P2 1.630714 1_555
N11 P6 1.620960 1_555
N11 P3 1.630714 1_555
N12 P1 1.620960 1_555
N12 P4 1.630714 1_655
N13 P0 1.620960 1_555
N13 P5 1.630714 1_555
N14 P3 1.620960 1_655
N14 P6 1.630714 1_555
N15 P2 1.620960 1_555
N15 P7 1.630714 1_555
N16 P11 1.596901 1_555
N16 P8 1.618792 1_555
N17 P10 1.596901 1_555
N17 P9 1.618792 1_555
N18 P9 1.596901 1_655
N18 P10 1.618792 1_555
N19 P8 1.596901 1_455
N19 P11 1.618792 1_555
N20 P5 1.616863 1_655
N20 P0 1.616863 1_545
N21 P4 1.616863 1_555
N21 P1 1.616863 1_445
N22 P2 1.616863 1_545
N22 P7 1.616863 1_555
N23 P3 1.616863 1_545
N23 P6 1.616863 1_555
