# generated using pymatgen
data_Pr4In8Ni7
_symmetry_space_group_name_H-M   'P 1'
_cell_length_a   14.11377343
_cell_length_b   14.11377343
_cell_length_c   4.35683100
_cell_angle_alpha   90.00000000
_cell_angle_beta   90.00000000
_cell_angle_gamma   117.15619984
_symmetry_Int_Tables_number   1
_chemical_formula_structural   Pr4In8Ni7
_chemical_formula_sum   'Pr8 In16 Ni14'
_cell_volume   772.20494988
_cell_formula_units_Z   2
loop_
 _symmetry_equiv_pos_site_id
 _symmetry_equiv_pos_as_xyz
  1  'x, y, z'
loop_
 _atom_site_type_symbol
 _atom_site_label
 _atom_site_symmetry_multiplicity
 _atom_site_fract_x
 _atom_site_fract_y
 _atom_site_fract_z
 _atom_site_occupancy
  Pr  Pr0  1  0.18410400  0.18410400  0.00000000  1
  Pr  Pr1  1  0.81589600  0.81589600  0.00000000  1
  Pr  Pr2  1  0.34872100  0.99482500  0.00000000  1
  Pr  Pr3  1  0.65127900  0.00517500  0.00000000  1
  Pr  Pr4  1  0.99482500  0.34872100  0.00000000  1
  Pr  Pr5  1  0.00517500  0.65127900  0.00000000  1
  Pr  Pr6  1  0.60599800  0.39400200  0.50000000  1
  Pr  Pr7  1  0.39400200  0.60599800  0.50000000  1
  In  In0  1  0.18977500  0.81022500  0.50000000  1
  In  In1  1  0.81022500  0.18977500  0.50000000  1
  In  In2  1  0.08654600  0.91345400  0.00000000  1
  In  In3  1  0.91345400  0.08654600  0.00000000  1
  In  In4  1  0.87417700  0.44225200  0.50000000  1
  In  In5  1  0.12582300  0.55774800  0.50000000  1
  In  In6  1  0.44225200  0.87417700  0.50000000  1
  In  In7  1  0.55774800  0.12582300  0.50000000  1
  In  In8  1  0.00000000  0.00000000  0.50000000  1
  In  In9  1  0.50000000  0.50000000  0.00000000  1
  In  In10  1  0.63077500  0.81870500  0.50000000  1
  In  In11  1  0.36922500  0.18129500  0.50000000  1
  In  In12  1  0.81870500  0.63077500  0.50000000  1
  In  In13  1  0.18129500  0.36922500  0.50000000  1
  In  In14  1  0.72282600  0.27717400  0.00000000  1
  In  In15  1  0.27717400  0.72282600  0.00000000  1
  Ni  Ni0  1  0.19022300  0.00060100  0.50000000  1
  Ni  Ni1  1  0.80977700  0.99939900  0.50000000  1
  Ni  Ni2  1  0.00060100  0.19022300  0.50000000  1
  Ni  Ni3  1  0.99939900  0.80977700  0.50000000  1
  Ni  Ni4  1  0.69774700  0.58922000  0.00000000  1
  Ni  Ni5  1  0.30225300  0.41078000  0.00000000  1
  Ni  Ni6  1  0.58922000  0.69774700  0.00000000  1
  Ni  Ni7  1  0.41078000  0.30225300  0.00000000  1
  Ni  Ni8  1  0.62214700  0.62214700  0.50000000  1
  Ni  Ni9  1  0.37785300  0.37785300  0.50000000  1
  Ni  Ni10  1  0.48413200  0.79171100  0.00000000  1
  Ni  Ni11  1  0.51586800  0.20828900  0.00000000  1
  Ni  Ni12  1  0.79171100  0.48413200  0.00000000  1
  Ni  Ni13  1  0.20828900  0.51586800  0.00000000  1
loop_
_geom_bond_atom_site_label_1
_geom_bond_atom_site_label_2
_geom_bond_distance
_geom_bond_site_symmetry_2
In0 Ni3 2.684044 1_455
In0 Ni0 2.684044 1_565
In0 In15 3.029464 1_555
In0 In15 3.029464 1_556
In0 In6 3.252160 1_555
In0 In5 3.252160 1_555
In0 In2 3.305841 1_556
In0 In2 3.305841 1_555
In0 Pr5 3.351241 1_555
In0 Pr5 3.351241 1_556
In0 Pr2 3.351241 1_556
In0 Pr2 3.351241 1_555
In1 Ni1 2.684044 1_545
In1 Ni2 2.684044 1_655
In1 In14 3.029464 1_556
In1 In14 3.029464 1_555
In1 In7 3.252160 1_555
In1 In4 3.252160 1_555
In1 In3 3.305841 1_555
In1 In3 3.305841 1_556
In1 Pr3 3.351241 1_556
In1 Pr3 3.351241 1_555
In1 Pr4 3.351241 1_555
In1 Pr4 3.351241 1_556
In2 Ni3 2.599344 1_455
In2 Ni3 2.599344 1_454
In2 Ni0 2.599344 1_565
In2 Ni0 2.599344 1_564
In2 In8 3.015221 1_565
In2 In8 3.015221 1_564
In2 Pr5 3.336439 1_555
In2 Pr2 3.336439 1_555
In3 Ni1 2.599344 1_545
In3 Ni1 2.599344 1_544
In3 Ni2 2.599344 1_655
In3 Ni2 2.599344 1_654
In3 In8 3.015221 1_655
In3 In8 3.015221 1_654
In3 Pr3 3.336439 1_555
In3 Pr4 3.336439 1_555
In4 Ni12 2.660367 1_555
In4 Ni12 2.660367 1_556
In4 In5 3.160171 1_655
In4 Pr4 3.382234 1_555
In4 Pr4 3.382234 1_556
In4 Pr5 3.447932 1_655
In4 Pr5 3.447932 1_656
In4 Pr6 3.526644 1_555
In5 Ni13 2.660367 1_556
In5 Ni13 2.660367 1_555
In5 Pr5 3.382234 1_555
In5 Pr5 3.382234 1_556
In5 Pr4 3.447932 1_456
In5 Pr4 3.447932 1_455
In5 Pr7 3.526644 1_555
In6 Ni10 2.660367 1_555
In6 Ni10 2.660367 1_556
In6 In7 3.160171 1_565
In6 Pr2 3.382234 1_555
In6 Pr2 3.382234 1_556
In6 Pr3 3.447932 1_566
In6 Pr3 3.447932 1_565
In6 Pr7 3.526644 1_555
In7 Ni11 2.660367 1_555
In7 Ni11 2.660367 1_556
In7 Pr3 3.382234 1_556
In7 Pr3 3.382234 1_555
In7 Pr2 3.447932 1_546
In7 Pr2 3.447932 1_545
In7 Pr6 3.526644 1_555
In8 Ni0 2.680903 1_555
In8 Ni2 2.680903 1_555
In8 Ni3 2.680903 1_445
In8 Ni1 2.680903 1_445
In8 Pr0 3.476448 1_555
In8 Pr0 3.476448 1_556
In8 Pr1 3.476448 1_445
In8 Pr1 3.476448 1_446
In9 Ni7 2.483340 1_555
In9 Ni6 2.483340 1_555
In9 Ni5 2.483340 1_555
In9 Ni4 2.483340 1_555
In9 Ni8 2.824282 1_555
In9 Ni9 2.824282 1_555
In9 Ni8 2.824282 1_554
In9 Ni9 2.824282 1_554
In9 Pr6 3.356299 1_554
In9 Pr7 3.356299 1_554
In9 Pr7 3.356299 1_555
In9 Pr6 3.356299 1_555
In10 Ni1 2.646727 1_555
In10 Ni6 2.662693 1_556
In10 Ni6 2.662693 1_555
In10 Ni8 2.720754 1_555
In10 Ni10 2.907654 1_556
In10 Ni10 2.907654 1_555
In10 In6 3.097459 1_555
In10 Pr7 3.319958 1_555
In10 Pr3 3.325712 1_565
In10 Pr3 3.325712 1_566
In10 Pr1 3.415862 1_556
In10 Pr1 3.415862 1_555
In11 Ni0 2.646727 1_555
In11 Ni7 2.662693 1_556
In11 Ni7 2.662693 1_555
In11 Ni9 2.720754 1_555
In11 Ni11 2.907654 1_556
In11 Ni11 2.907654 1_555
In11 In7 3.097459 1_555
In11 Pr6 3.319958 1_555
In11 Pr2 3.325712 1_546
In11 Pr2 3.325712 1_545
In11 Pr0 3.415862 1_555
In11 Pr0 3.415862 1_556
In12 Ni3 2.646727 1_555
In12 Ni4 2.662693 1_556
In12 Ni4 2.662693 1_555
In12 Ni8 2.720754 1_555
In12 Ni12 2.907654 1_555
In12 Ni12 2.907654 1_556
In12 In4 3.097459 1_555
In12 Pr6 3.319958 1_555
In12 Pr5 3.325712 1_656
In12 Pr5 3.325712 1_655
In12 Pr1 3.415862 1_556
In12 Pr1 3.415862 1_555
In13 Ni2 2.646727 1_555
In13 Ni5 2.662693 1_556
In13 Ni5 2.662693 1_555
In13 Ni9 2.720754 1_555
In13 Ni13 2.907654 1_556
In13 Ni13 2.907654 1_555
In13 In5 3.097459 1_555
In13 Pr7 3.319958 1_555
In13 Pr4 3.325712 1_455
In13 Pr4 3.325712 1_456
In13 Pr0 3.415862 1_555
In13 Pr0 3.415862 1_556
In14 Ni11 2.623913 1_555
In14 Ni12 2.623913 1_555
In14 In7 3.192767 1_554
In14 In7 3.192767 1_555
In14 In4 3.192767 1_554
In14 In4 3.192767 1_555
In14 Pr4 3.495489 1_555
In14 Pr3 3.495489 1_555
In14 Pr6 3.558787 1_555
In14 Pr6 3.558787 1_554
In15 Ni13 2.623913 1_555
In15 Ni10 2.623913 1_555
In15 In5 3.192767 1_555
In15 In5 3.192767 1_554
In15 In6 3.192767 1_555
In15 In6 3.192767 1_554
In15 Pr2 3.495489 1_555
In15 Pr5 3.495489 1_555
In15 Pr7 3.558787 1_554
In15 Pr7 3.558787 1_555
Ni0 Ni3 2.808172 1_445
Ni0 Pr2 3.150047 1_546
Ni0 Pr2 3.150047 1_545
Ni0 Pr0 3.415379 1_555
Ni0 Pr0 3.415379 1_556
Ni1 Ni2 2.808172 1_665
Ni1 Pr3 3.150047 1_565
Ni1 Pr3 3.150047 1_566
Ni1 Pr1 3.415379 1_556
Ni1 Pr1 3.415379 1_555
Ni2 Pr4 3.150047 1_456
Ni2 Pr4 3.150047 1_455
Ni2 Pr0 3.415379 1_555
Ni2 Pr0 3.415379 1_556
Ni3 Pr5 3.150047 1_655
Ni3 Pr5 3.150047 1_656
Ni3 Pr1 3.415379 1_556
Ni3 Pr1 3.415379 1_555
Ni4 Ni8 2.559804 1_555
Ni4 Ni8 2.559804 1_554
Ni4 Ni6 2.614201 1_555
Ni4 Pr1 2.854126 1_555
Ni4 Pr6 3.279776 1_555
Ni4 Pr6 3.279776 1_554
Ni5 Ni9 2.559804 1_555
Ni5 Ni9 2.559804 1_554
Ni5 Ni7 2.614201 1_555
Ni5 Pr0 2.854126 1_555
Ni5 Pr7 3.279776 1_554
Ni5 Pr7 3.279776 1_555
Ni6 Ni8 2.559804 1_555
Ni6 Ni8 2.559804 1_554
Ni6 Pr1 2.854126 1_555
Ni6 Pr7 3.279776 1_554
Ni6 Pr7 3.279776 1_555
Ni7 Ni9 2.559804 1_555
Ni7 Ni9 2.559804 1_554
Ni7 Pr0 2.854126 1_555
Ni7 Pr6 3.279776 1_555
Ni7 Pr6 3.279776 1_554
Ni8 Pr7 3.122551 1_555
Ni8 Pr6 3.122551 1_555
Ni9 Pr6 3.122551 1_555
Ni9 Pr7 3.122551 1_555
Ni10 Ni6 2.398781 1_555
Ni10 Pr3 2.855560 1_565
Ni10 Pr7 3.192220 1_554
Ni10 Pr7 3.192220 1_555
Ni11 Ni7 2.398781 1_555
Ni11 Pr2 2.855560 1_545
Ni11 Pr6 3.192220 1_555
Ni11 Pr6 3.192220 1_554
Ni12 Ni4 2.398781 1_555
Ni12 Pr5 2.855560 1_655
Ni12 Pr6 3.192220 1_555
Ni12 Pr6 3.192220 1_554
Ni13 Ni5 2.398781 1_555
Ni13 Pr4 2.855560 1_455
Ni13 Pr7 3.192220 1_554
Ni13 Pr7 3.192220 1_555
