# generated using pymatgen
data_SrMg5N4
_symmetry_space_group_name_H-M   'P 1'
_cell_length_a   8.38174900
_cell_length_b   6.77205700
_cell_length_c   5.29171400
_cell_angle_alpha   90.00000000
_cell_angle_beta   90.00000000
_cell_angle_gamma   90.00000000
_symmetry_Int_Tables_number   1
_chemical_formula_structural   SrMg5N4
_chemical_formula_sum   'Sr2 Mg10 N8'
_cell_volume   300.36658724
_cell_formula_units_Z   2
loop_
 _symmetry_equiv_pos_site_id
 _symmetry_equiv_pos_as_xyz
  1  'x, y, z'
loop_
 _atom_site_type_symbol
 _atom_site_label
 _atom_site_symmetry_multiplicity
 _atom_site_fract_x
 _atom_site_fract_y
 _atom_site_fract_z
 _atom_site_occupancy
  Sr  Sr0  1  0.75000000  0.25000000  0.71776300  1
  Sr  Sr1  1  0.25000000  0.75000000  0.28223700  1
  Mg  Mg0  1  0.57216100  0.50370200  0.26714800  1
  Mg  Mg1  1  0.92783900  0.50370200  0.26714800  1
  Mg  Mg2  1  0.57216100  0.99629800  0.26714800  1
  Mg  Mg3  1  0.92783900  0.99629800  0.26714800  1
  Mg  Mg4  1  0.42783900  0.49629800  0.73285200  1
  Mg  Mg5  1  0.07216100  0.49629800  0.73285200  1
  Mg  Mg6  1  0.42783900  0.00370200  0.73285200  1
  Mg  Mg7  1  0.07216100  0.00370200  0.73285200  1
  Mg  Mg8  1  0.75000000  0.75000000  0.76903300  1
  Mg  Mg9  1  0.25000000  0.25000000  0.23096700  1
  N  N0  1  0.75000000  0.98960500  0.01017000  1
  N  N1  1  0.75000000  0.51039500  0.01017000  1
  N  N2  1  0.25000000  0.01039500  0.98983000  1
  N  N3  1  0.25000000  0.48960500  0.98983000  1
  N  N4  1  0.52215100  0.75000000  0.52353900  1
  N  N5  1  0.97784900  0.75000000  0.52353900  1
  N  N6  1  0.47784900  0.25000000  0.47646100  1
  N  N7  1  0.02215100  0.25000000  0.47646100  1
loop_
_geom_bond_atom_site_label_1
_geom_bond_atom_site_label_2
_geom_bond_distance
_geom_bond_site_symmetry_2
Mg0 N1 2.018205 1_555
Mg0 N4 2.190549 1_555
Mg0 N6 2.191697 1_555
Mg1 N1 2.018205 1_555
Mg1 N5 2.190549 1_555
Mg1 N7 2.191697 1_655
Mg2 N0 2.018205 1_555
Mg2 N4 2.190549 1_555
Mg2 N6 2.191697 1_565
Mg3 N0 2.018205 1_555
Mg3 N5 2.190549 1_555
Mg3 N7 2.191697 1_665
Mg4 N3 2.018205 1_555
Mg4 N6 2.190549 1_555
Mg4 N4 2.191697 1_555
Mg5 N3 2.018205 1_555
Mg5 N7 2.190549 1_555
Mg5 N5 2.191697 1_455
Mg6 N2 2.018205 1_555
Mg6 N6 2.190549 1_555
Mg6 N4 2.191697 1_545
Mg7 N2 2.018205 1_555
Mg7 N7 2.190549 1_555
Mg7 N5 2.191697 1_445
Mg8 N0 2.064253 1_556
Mg8 N1 2.064253 1_556
Mg8 N4 2.309730 1_555
Mg8 N5 2.309730 1_555
Mg9 N3 2.064253 1_554
Mg9 N2 2.064253 1_554
Mg9 N6 2.309730 1_555
Mg9 N7 2.309730 1_555
N0 Sr0 2.346030 1_564
N1 Sr0 2.346030 1_554
N2 Sr1 2.346030 1_546
N3 Sr1 2.346030 1_556
N4 Sr1 2.614173 1_555
N5 Sr1 2.614173 1_655
N6 Sr0 2.614173 1_555
N7 Sr0 2.614173 1_455
