# generated using pymatgen
data_In3Pt4
_symmetry_space_group_name_H-M   'P 1'
_cell_length_a   7.15486705
_cell_length_b   7.16354236
_cell_length_c   8.89862938
_cell_angle_alpha   108.08655209
_cell_angle_beta   108.31983601
_cell_angle_gamma   103.24992731
_symmetry_Int_Tables_number   1
_chemical_formula_structural   In3Pt4
_chemical_formula_sum   'In9 Pt12'
_cell_volume   383.64833461
_cell_formula_units_Z   3
loop_
 _symmetry_equiv_pos_site_id
 _symmetry_equiv_pos_as_xyz
  1  'x, y, z'
loop_
 _atom_site_type_symbol
 _atom_site_label
 _atom_site_symmetry_multiplicity
 _atom_site_fract_x
 _atom_site_fract_y
 _atom_site_fract_z
 _atom_site_occupancy
  In  In0  1  0.50104181  0.73625184  0.66886991  1
  In  In1  1  0.94279744  0.18164388  0.68964240  1
  In  In2  1  0.47935892  0.25111896  0.30627448  1
  In  In3  1  0.06378460  0.82242830  0.30791651  1
  In  In4  1  0.43781173  0.68296510  0.18832862  1
  In  In5  1  0.53855724  0.29504374  0.83250223  1
  In  In6  1  0.96590519  0.19641910  0.13771047  1
  In  In7  1  0.06035985  0.82386973  0.88251510  1
  In  In8  1  0.99530799  0.49384081  0.50244358  1
  Pt  Pt0  1  0.72884116  0.45377938  0.18190212  1
  Pt  Pt1  1  0.29051398  0.55293483  0.83383878  1
  Pt  Pt2  1  0.74992234  0.75880087  0.99728016  1
  Pt  Pt3  1  0.25026278  0.24837099  0.99761042  1
  Pt  Pt4  1  0.50572833  0.00126916  -0.00196013  1
  Pt  Pt5  1  0.00038842  0.50384900  0.00213286  1
  Pt  Pt6  1  0.24495657  0.26165400  0.49805415  1
  Pt  Pt7  1  0.75899038  0.75468630  0.49680339  1
  Pt  Pt8  1  0.49780579  0.00107573  0.49489773  1
  Pt  Pt9  1  0.78599354  0.04322827  0.32933305  1
  Pt  Pt10  1  0.71297540  0.46404538  0.65720694  1
  Pt  Pt11  1  0.20879554  0.92752461  0.65759723  1
loop_
_geom_bond_atom_site_label_1
_geom_bond_atom_site_label_2
_geom_bond_distance
_geom_bond_site_symmetry_2
In0 Pt10 2.727847 1_555
In0 Pt11 2.743449 1_555
In0 Pt7 2.749248 1_555
In0 Pt8 2.795931 1_565
In0 Pt1 2.797989 1_555
In0 Pt2 2.835677 1_555
In0 Pt4 2.939650 1_566
In0 Pt6 3.067777 1_555
In1 Pt3 2.737320 1_655
In1 Pt7 2.739980 1_545
In1 Pt1 2.784079 1_655
In1 Pt9 2.788681 1_555
In1 Pt8 2.839905 1_555
In1 Pt5 2.843994 1_656
In1 Pt10 2.910110 1_555
In1 Pt11 2.936706 1_645
In1 Pt6 3.203857 1_655
In2 Pt3 2.711612 1_554
In2 Pt10 2.732185 1_555
In2 Pt6 2.740096 1_555
In2 Pt0 2.751439 1_555
In2 Pt8 2.806953 1_555
In2 Pt4 2.862565 1_555
In2 Pt9 2.911649 1_555
In3 Pt11 2.735622 1_555
In3 Pt0 2.746893 1_455
In3 Pt8 2.767224 1_565
In3 Pt5 2.777041 1_555
In3 Pt2 2.781705 1_454
In3 Pt6 2.808756 1_565
In3 Pt9 2.824987 1_465
In4 Pt9 2.741897 1_565
In4 Pt1 2.750403 1_554
In4 Pt7 2.774421 1_555
In4 Pt3 2.783143 1_554
In4 Pt5 2.786753 1_555
In4 Pt8 2.788351 1_565
In4 Pt0 2.935687 1_555
In4 Pt2 3.252090 1_554
In4 Pt4 3.272519 1_565
In5 Pt10 2.675823 1_555
In5 Pt11 2.687068 1_545
In5 Pt0 2.692150 1_556
In5 Pt1 2.839938 1_555
In5 Pt3 2.901594 1_555
In5 Pt4 2.927385 1_556
In5 Pt5 2.937927 1_656
In5 Pt6 2.953789 1_555
In5 Pt2 2.958393 1_555
In5 Pt8 2.963901 1_555
In6 Pt3 2.714339 1_654
In6 Pt9 2.768227 1_555
In6 Pt0 2.798769 1_555
In6 Pt2 2.812501 1_544
In6 Pt5 2.820327 1_655
In6 Pt4 2.928886 1_555
In6 Pt6 3.017281 1_655
In7 Pt3 2.727590 1_565
In7 Pt2 2.727754 1_455
In7 Pt10 2.750135 1_455
In7 Pt11 2.753663 1_555
In7 Pt5 2.814952 1_556
In7 Pt1 2.838609 1_555
In7 Pt4 2.845896 1_566
In8 Pt6 2.706279 1_655
In8 Pt0 2.770483 1_555
In8 Pt11 2.779703 1_655
In8 Pt10 2.785056 1_555
In8 Pt7 2.793947 1_555
In8 Pt1 2.869880 1_655
In8 Pt9 2.877832 1_555
Pt0 Pt4 2.902760 1_555
Pt0 Pt2 3.119261 1_554
Pt1 Pt4 2.868048 1_566
Pt1 Pt2 2.921541 1_555
Pt1 Pt6 2.931407 1_555
Pt2 Pt4 2.731455 1_566
Pt2 Pt5 2.837168 1_656
Pt2 Pt9 2.913828 1_566
Pt3 Pt4 2.820857 1_556
Pt4 Pt9 2.873963 1_555
Pt6 Pt8 2.881921 1_555
Pt6 Pt9 2.927892 1_455
Pt10 Pt6 2.973089 1_555
Pt10 Pt2 2.993304 1_555
Pt11 Pt4 2.901058 1_566
Pt11 Pt6 3.141431 1_565
