# generated using pymatgen
data_Sr2TlCl5
_symmetry_space_group_name_H-M   'P 1'
_cell_length_a   7.88472357
_cell_length_b   8.99148173
_cell_length_c   12.72713879
_cell_angle_alpha   90.04189820
_cell_angle_beta   90.00000000
_cell_angle_gamma   90.00000000
_symmetry_Int_Tables_number   1
_chemical_formula_structural   Sr2TlCl5
_chemical_formula_sum   'Sr8 Tl4 Cl20'
_cell_volume   902.29469198
_cell_formula_units_Z   4
loop_
 _symmetry_equiv_pos_site_id
 _symmetry_equiv_pos_as_xyz
  1  'x, y, z'
loop_
 _atom_site_type_symbol
 _atom_site_label
 _atom_site_symmetry_multiplicity
 _atom_site_fract_x
 _atom_site_fract_y
 _atom_site_fract_z
 _atom_site_occupancy
  Sr  Sr0  1  0.47597626  -0.00137855  0.82227941  1
  Sr  Sr1  1  0.52402374  0.00137855  0.17772059  1
  Sr  Sr2  1  0.97597626  0.00137855  0.67772059  1
  Sr  Sr3  1  0.02402374  -0.00137855  0.32227941  1
  Sr  Sr4  1  0.43239554  0.75078329  0.50575640  1
  Sr  Sr5  1  0.56760446  0.24921671  0.49424360  1
  Sr  Sr6  1  0.93239554  0.24921671  0.99424360  1
  Sr  Sr7  1  0.06760446  0.75078329  0.00575640  1
  Tl  Tl0  1  0.46323829  0.48918107  0.83352149  1
  Tl  Tl1  1  0.53676171  0.51081893  0.16647851  1
  Tl  Tl2  1  0.96323829  0.51081893  0.66647851  1
  Tl  Tl3  1  0.03676171  0.48918107  0.33352149  1
  Cl  Cl0  1  0.33619715  0.46577935  0.59208136  1
  Cl  Cl1  1  0.66380285  0.53422065  0.40791864  1
  Cl  Cl2  1  0.83619715  0.53422065  0.90791864  1
  Cl  Cl3  1  0.16380285  0.46577935  0.09208136  1
  Cl  Cl4  1  0.66914762  0.78671769  0.68307113  1
  Cl  Cl5  1  0.33085238  0.21328231  0.31692887  1
  Cl  Cl6  1  0.16914762  0.21328231  0.81692887  1
  Cl  Cl7  1  0.83085238  0.78671769  0.18307113  1
  Cl  Cl8  1  0.19219120  0.77381133  0.78322368  1
  Cl  Cl9  1  0.80780880  0.22618867  0.21677632  1
  Cl  Cl10  1  0.69219120  0.22618867  0.71677632  1
  Cl  Cl11  1  0.30780880  0.77381133  0.28322368  1
  Cl  Cl12  1  0.04798054  0.78488273  0.50271100  1
  Cl  Cl13  1  0.95201946  0.21511727  0.49728900  1
  Cl  Cl14  1  0.54798054  0.21511727  0.99728900  1
  Cl  Cl15  1  0.45201946  0.78488273  0.00271100  1
  Cl  Cl16  1  0.83915413  0.96132852  0.90038734  1
  Cl  Cl17  1  0.16084587  0.03867148  0.09961266  1
  Cl  Cl18  1  0.33915413  0.03867148  0.59961266  1
  Cl  Cl19  1  0.66084587  0.96132852  0.40038734  1
loop_
_geom_bond_atom_site_label_1
_geom_bond_atom_site_label_2
_geom_bond_distance
_geom_bond_site_symmetry_2
Cl0 Sr4 2.890237 1_555
Cl0 Sr5 2.944100 1_555
Cl0 Tl2 3.115698 1_455
Cl0 Tl0 3.238682 1_555
Cl1 Sr5 2.890237 1_555
Cl1 Sr4 2.944100 1_555
Cl1 Tl3 3.115698 1_655
Cl1 Tl1 3.238682 1_555
Cl2 Sr6 2.890237 1_555
Cl2 Sr7 2.944100 1_656
Cl2 Tl0 3.115698 1_555
Cl2 Tl2 3.238682 1_555
Cl3 Sr7 2.890237 1_555
Cl3 Sr6 2.944100 1_454
Cl3 Tl1 3.115698 1_555
Cl3 Tl3 3.238682 1_555
Cl4 Sr4 2.946307 1_555
Cl4 Sr0 3.013998 1_565
Cl4 Sr2 3.095643 1_565
Cl5 Sr5 2.946307 1_555
Cl5 Sr1 3.013998 1_555
Cl5 Sr3 3.095643 1_555
Cl6 Sr6 2.946307 1_455
Cl6 Sr2 3.013998 1_455
Cl6 Sr0 3.095643 1_555
Cl7 Sr7 2.946307 1_655
Cl7 Sr3 3.013998 1_665
Cl7 Sr1 3.095643 1_565
Cl8 Sr2 2.983308 1_465
Cl8 Sr7 3.005011 1_556
Cl8 Sr0 3.055859 1_565
Cl9 Sr3 2.983308 1_655
Cl9 Sr6 3.005011 1_554
Cl9 Sr1 3.055859 1_555
Cl10 Sr0 2.983308 1_555
Cl10 Sr5 3.005011 1_555
Cl10 Sr2 3.055859 1_555
Cl11 Sr1 2.983308 1_565
Cl11 Sr4 3.005011 1_555
Cl11 Sr3 3.055859 1_565
Cl12 Sr3 3.001484 1_565
Cl12 Sr2 3.011061 1_465
Cl12 Sr4 3.046723 1_555
Cl13 Sr2 3.001484 1_555
Cl13 Sr3 3.011061 1_655
Cl13 Sr5 3.046723 1_555
Cl14 Sr1 3.001484 1_556
Cl14 Sr0 3.011061 1_555
Cl14 Sr6 3.046723 1_555
Cl15 Sr0 3.001484 1_564
Cl15 Sr1 3.011061 1_565
Cl15 Sr7 3.046723 1_555
Cl16 Sr7 2.937782 1_656
Cl16 Sr6 2.943365 1_565
Cl16 Sr0 3.049771 1_565
Cl16 Sr2 3.053857 1_565
Cl17 Sr6 2.937782 1_454
Cl17 Sr7 2.943365 1_545
Cl17 Sr1 3.049771 1_555
Cl17 Sr3 3.053857 1_555
Cl18 Sr5 2.937782 1_555
Cl18 Sr4 2.943365 1_545
Cl18 Sr2 3.049771 1_455
Cl18 Sr0 3.053857 1_555
Cl19 Sr4 2.937782 1_555
Cl19 Sr5 2.943365 1_565
Cl19 Sr3 3.049771 1_665
Cl19 Sr1 3.053857 1_565
