# generated using pymatgen
data_Co2S3(NO6)2
_symmetry_space_group_name_H-M   'P 1'
_cell_length_a   9.90657900
_cell_length_b   9.90657900
_cell_length_c   9.90657900
_cell_angle_alpha   90.00000000
_cell_angle_beta   90.00000000
_cell_angle_gamma   90.00000000
_symmetry_Int_Tables_number   1
_chemical_formula_structural   Co2S3(NO6)2
_chemical_formula_sum   'Co8 S12 N8 O48'
_cell_volume   972.23470917
_cell_formula_units_Z   4
loop_
 _symmetry_equiv_pos_site_id
 _symmetry_equiv_pos_as_xyz
  1  'x, y, z'
loop_
 _atom_site_type_symbol
 _atom_site_label
 _atom_site_symmetry_multiplicity
 _atom_site_fract_x
 _atom_site_fract_y
 _atom_site_fract_z
 _atom_site_occupancy
  Co  Co0  1  0.33686000  0.33686000  0.33686000  1
  Co  Co1  1  0.16314000  0.66314000  0.83686000  1
  Co  Co2  1  0.66314000  0.83686000  0.16314000  1
  Co  Co3  1  0.83686000  0.16314000  0.66314000  1
  Co  Co4  1  0.59965500  0.59965500  0.59965500  1
  Co  Co5  1  0.90034500  0.40034500  0.09965500  1
  Co  Co6  1  0.40034500  0.09965500  0.90034500  1
  Co  Co7  1  0.09965500  0.90034500  0.40034500  1
  S  S0  1  0.01755400  0.21655000  0.37609300  1
  S  S1  1  0.48244600  0.78345000  0.87609300  1
  S  S2  1  0.98244600  0.71655000  0.12390700  1
  S  S3  1  0.37609300  0.01755400  0.21655000  1
  S  S4  1  0.51755400  0.28345000  0.62390700  1
  S  S5  1  0.87609300  0.48244600  0.78345000  1
  S  S6  1  0.12390700  0.98244600  0.71655000  1
  S  S7  1  0.62390700  0.51755400  0.28345000  1
  S  S8  1  0.21655000  0.37609300  0.01755400  1
  S  S9  1  0.71655000  0.12390700  0.98244600  1
  S  S10  1  0.28345000  0.62390700  0.51755400  1
  S  S11  1  0.78345000  0.87609300  0.48244600  1
  N  N0  1  0.04792000  0.04792000  0.04792000  1
  N  N1  1  0.45208000  0.95208000  0.54792000  1
  N  N2  1  0.95208000  0.54792000  0.45208000  1
  N  N3  1  0.54792000  0.45208000  0.95208000  1
  N  N4  1  0.81655700  0.81655700  0.81655700  1
  N  N5  1  0.68344300  0.18344300  0.31655700  1
  N  N6  1  0.18344300  0.31655700  0.68344300  1
  N  N7  1  0.31655700  0.68344300  0.18344300  1
  O  O0  1  0.01116300  0.07276900  0.33217500  1
  O  O1  1  0.48883700  0.92723100  0.83217500  1
  O  O2  1  0.98883700  0.57276900  0.16782500  1
  O  O3  1  0.33217500  0.01116300  0.07276900  1
  O  O4  1  0.51116300  0.42723100  0.66782500  1
  O  O5  1  0.83217500  0.48883700  0.92723100  1
  O  O6  1  0.16782500  0.98883700  0.57276900  1
  O  O7  1  0.66782500  0.51116300  0.42723100  1
  O  O8  1  0.07276900  0.33217500  0.01116300  1
  O  O9  1  0.57276900  0.16782500  0.98883700  1
  O  O10  1  0.42723100  0.66782500  0.51116300  1
  O  O11  1  0.92723100  0.83217500  0.48883700  1
  O  O12  1  0.26650000  0.49659800  0.44024200  1
  O  O13  1  0.23350000  0.50340200  0.94024200  1
  O  O14  1  0.73350000  0.99659800  0.05975800  1
  O  O15  1  0.44024200  0.26650000  0.49659800  1
  O  O16  1  0.76650000  0.00340200  0.55975800  1
  O  O17  1  0.94024200  0.23350000  0.50340200  1
  O  O18  1  0.05975800  0.73350000  0.99659800  1
  O  O19  1  0.55975800  0.76650000  0.00340200  1
  O  O20  1  0.49659800  0.44024200  0.26650000  1
  O  O21  1  0.99659800  0.05975800  0.73350000  1
  O  O22  1  0.00340200  0.55975800  0.76650000  1
  O  O23  1  0.50340200  0.94024200  0.23350000  1
  O  O24  1  0.04141700  0.80450300  0.22708000  1
  O  O25  1  0.45858300  0.19549700  0.72708000  1
  O  O26  1  0.95858300  0.30450300  0.27292000  1
  O  O27  1  0.22708000  0.04141700  0.80450300  1
  O  O28  1  0.54141700  0.69549700  0.77292000  1
  O  O29  1  0.72708000  0.45858300  0.19549700  1
  O  O30  1  0.27292000  0.95858300  0.30450300  1
  O  O31  1  0.77292000  0.54141700  0.69549700  1
  O  O32  1  0.80450300  0.22708000  0.04141700  1
  O  O33  1  0.30450300  0.27292000  0.95858300  1
  O  O34  1  0.69549700  0.77292000  0.54141700  1
  O  O35  1  0.19549700  0.72708000  0.45858300  1
  O  O36  1  0.16088600  0.25358200  0.40050600  1
  O  O37  1  0.33911400  0.74641700  0.90050600  1
  O  O38  1  0.83911400  0.75358300  0.09949400  1
  O  O39  1  0.40050600  0.16088600  0.25358200  1
  O  O40  1  0.66088600  0.24641800  0.59949400  1
  O  O41  1  0.90050600  0.33911400  0.74641700  1
  O  O42  1  0.09949400  0.83911400  0.75358300  1
  O  O43  1  0.59949400  0.66088600  0.24641800  1
  O  O44  1  0.25358200  0.40050600  0.16088600  1
  O  O45  1  0.75358300  0.09949400  0.83911400  1
  O  O46  1  0.24641800  0.59949400  0.66088600  1
  O  O47  1  0.74641700  0.90050600  0.33911400  1
loop_
_geom_bond_atom_site_label_1
_geom_bond_atom_site_label_2
_geom_bond_distance
_geom_bond_site_symmetry_2
Co0 O15 2.009708 1_555
Co0 O12 2.009708 1_555
Co0 O20 2.009708 1_555
Co0 O39 2.029106 1_555
Co0 O36 2.029106 1_555
Co0 O44 2.029106 1_555
Co1 O13 2.009708 1_555
Co1 O18 2.009708 1_555
Co1 O22 2.009708 1_555
Co1 O37 2.029102 1_555
Co1 O42 2.029102 1_555
Co1 O46 2.029106 1_555
Co2 O23 2.009708 1_555
Co2 O14 2.009708 1_555
Co2 O19 2.009708 1_555
Co2 O47 2.029102 1_555
Co2 O38 2.029102 1_555
Co2 O43 2.029106 1_555
Co3 O17 2.009708 1_555
Co3 O21 2.009708 1_555
Co3 O16 2.009708 1_555
Co3 O41 2.029102 1_555
Co3 O45 2.029102 1_555
Co3 O40 2.029106 1_555
Co4 O10 2.035266 1_555
Co4 O7 2.035266 1_555
Co4 O4 2.035266 1_555
Co4 O34 2.044650 1_555
Co4 O31 2.044650 1_555
Co4 O28 2.044650 1_555
Co5 O2 2.035266 1_555
Co5 O8 2.035266 1_655
Co5 O5 2.035266 1_554
Co5 O29 2.044650 1_555
Co5 O32 2.044650 1_555
Co5 O26 2.044650 1_555
Co6 O9 2.035266 1_555
Co6 O3 2.035266 1_556
Co6 O1 2.035266 1_545
Co6 O25 2.044650 1_555
Co6 O27 2.044650 1_555
Co6 O33 2.044650 1_555
Co7 O6 2.035266 1_555
Co7 O0 2.035266 1_565
Co7 O11 2.035266 1_455
Co7 O35 2.044650 1_555
Co7 O24 2.044650 1_555
Co7 O30 2.044650 1_555
O0 S0 1.490689 1_555
O1 S1 1.490689 1_555
O2 S2 1.490689 1_555
O3 S3 1.490689 1_555
O4 S4 1.490689 1_555
O5 S5 1.490689 1_555
O6 S6 1.490689 1_555
O7 S7 1.490689 1_555
O8 S8 1.490689 1_555
O9 S9 1.490689 1_555
O10 S10 1.490689 1_555
O11 S11 1.490689 1_555
O12 S10 1.485063 1_555
O13 S8 1.485063 1_556
O14 S9 1.485063 1_564
O15 S4 1.485063 1_555
O16 S11 1.485063 1_545
O17 S0 1.485063 1_655
O18 S2 1.485063 1_456
O19 S1 1.485063 1_554
O20 S7 1.485063 1_555
O21 S6 1.485063 1_645
O22 S5 1.485063 1_455
O23 S3 1.485063 1_565
O24 S2 1.464633 1_455
O25 S4 1.464633 1_555
O26 S0 1.464633 1_655
O27 S6 1.464633 1_545
O28 S1 1.464633 1_555
O29 S7 1.464633 1_555
O30 S3 1.464633 1_565
O31 S5 1.464633 1_555
O32 S9 1.464633 1_554
O33 S8 1.464633 1_556
O34 S11 1.464633 1_555
O35 S10 1.464633 1_555
O36 S0 1.486364 1_555
O37 S1 1.486367 1_555
O38 S2 1.486367 1_555
O39 S3 1.486364 1_555
O40 S4 1.486364 1_555
O41 S5 1.486367 1_555
O42 S6 1.486367 1_555
O43 S7 1.486364 1_555
O44 S8 1.486364 1_555
O45 S9 1.486367 1_555
O46 S10 1.486364 1_555
O47 S11 1.486367 1_555
