# generated using pymatgen
data_NbCrN2
_symmetry_space_group_name_H-M   'P 1'
_cell_length_a   3.03568500
_cell_length_b   3.03568500
_cell_length_c   9.24196000
_cell_angle_alpha   90.00000000
_cell_angle_beta   90.00000000
_cell_angle_gamma   90.00000000
_symmetry_Int_Tables_number   1
_chemical_formula_structural   NbCrN2
_chemical_formula_sum   'Nb2 Cr2 N4'
_cell_volume   85.16820495
_cell_formula_units_Z   2
loop_
 _symmetry_equiv_pos_site_id
 _symmetry_equiv_pos_as_xyz
  1  'x, y, z'
loop_
 _atom_site_type_symbol
 _atom_site_label
 _atom_site_symmetry_multiplicity
 _atom_site_fract_x
 _atom_site_fract_y
 _atom_site_fract_z
 _atom_site_occupancy
  Nb  Nb0  1  0.00000000  0.50000000  0.67041800  1
  Nb  Nb1  1  0.50000000  0.00000000  0.32958200  1
  Cr  Cr0  1  0.00000000  0.50000000  0.05360300  1
  Cr  Cr1  1  0.50000000  0.00000000  0.94639700  1
  N  N0  1  0.00000000  0.50000000  0.25478800  1
  N  N1  1  0.50000000  0.00000000  0.74521200  1
  N  N2  1  0.00000000  0.00000000  0.50000000  1
  N  N3  1  0.50000000  0.50000000  0.50000000  1
loop_
_geom_bond_atom_site_label_1
_geom_bond_atom_site_label_2
_geom_bond_distance
_geom_bond_site_symmetry_2
Cr0 N0 1.859344 1_555
Cr1 N1 1.859344 1_555
N0 Nb1 2.255107 1_565
N0 Nb1 2.255107 1_455
N0 Nb1 2.255107 1_555
N0 Nb1 2.255107 1_465
N1 Nb0 2.255107 1_545
N1 Nb0 2.255107 1_645
N1 Nb0 2.255107 1_555
N1 Nb0 2.255107 1_655
N2 Nb0 2.187341 1_555
N2 Nb1 2.187341 1_555
N2 Nb0 2.187341 1_545
N2 Nb1 2.187341 1_455
N3 Nb0 2.187341 1_655
N3 Nb0 2.187341 1_555
N3 Nb1 2.187341 1_555
N3 Nb1 2.187341 1_565
