# generated using pymatgen
data_Al2Fe(PO4)3
_symmetry_space_group_name_H-M   'P 1'
_cell_length_a   5.14188000
_cell_length_b   7.17646104
_cell_length_c   15.44200572
_cell_angle_alpha   90.15727974
_cell_angle_beta   90.16390646
_cell_angle_gamma   90.16576888
_symmetry_Int_Tables_number   1
_chemical_formula_structural   Al2Fe(PO4)3
_chemical_formula_sum   'Al4 Fe2 P6 O24'
_cell_volume   569.81087840
_cell_formula_units_Z   2
loop_
 _symmetry_equiv_pos_site_id
 _symmetry_equiv_pos_as_xyz
  1  'x, y, z'
loop_
 _atom_site_type_symbol
 _atom_site_label
 _atom_site_symmetry_multiplicity
 _atom_site_fract_x
 _atom_site_fract_y
 _atom_site_fract_z
 _atom_site_occupancy
  Al  Al0  1  0.79880700  0.24955900  0.06836700  1
  Al  Al1  1  0.79933300  0.25023900  0.39870800  1
  Al  Al2  1  0.80208400  0.24982700  0.73272800  1
  Al  Al3  1  0.20257000  0.74920700  0.26621200  1
  Fe  Fe0  1  0.20056000  0.75049900  0.59955300  1
  Fe  Fe1  1  0.20104100  0.75002800  0.93324700  1
  P  P0  1  0.30016400  0.49641100  0.10377100  1
  P  P1  1  0.30121400  0.49479600  0.42984200  1
  P  P2  1  0.30336400  0.49129400  0.76792600  1
  P  P3  1  0.70172200  0.99905300  0.23331700  1
  P  P4  1  0.69665700  0.00922200  0.56542500  1
  P  P5  1  0.69688100  0.00942500  0.89963700  1
  O  O0  1  0.26340100  0.55568800  0.19908500  1
  O  O1  1  0.26599800  0.54838200  0.52597200  1
  O  O2  1  0.26900300  0.53874800  0.86460600  1
  O  O3  1  0.58247900  0.43341900  0.08872600  1
  O  O4  1  0.58510000  0.43535400  0.41604300  1
  O  O5  1  0.58675000  0.43351400  0.75119600  1
  O  O6  1  0.73914900  0.06287400  0.13912600  1
  O  O7  1  0.74648600  0.06747400  0.47131800  1
  O  O8  1  0.74648900  0.06729800  0.80502600  1
  O  O9  1  0.41860800  0.93423900  0.24635200  1
  O  O10  1  0.40566900  0.96167200  0.57691600  1
  O  O11  1  0.40588900  0.96170600  0.91042300  1
  O  O12  1  0.11862500  0.33192300  0.08163400  1
  O  O13  1  0.12031500  0.33022400  0.40834300  1
  O  O14  1  0.12359000  0.32776200  0.74326600  1
  O  O15  1  0.24042900  0.66860400  0.04779600  1
  O  O16  1  0.24023000  0.66478000  0.37249400  1
  O  O17  1  0.24060100  0.66679800  0.71418100  1
  O  O18  1  0.88469800  0.83427700  0.25313800  1
  O  O19  1  0.85586200  0.83297300  0.58644800  1
  O  O20  1  0.85622900  0.83308200  0.91992200  1
  O  O21  1  0.75985300  0.16511800  0.29328700  1
  O  O22  1  0.76986000  0.17224700  0.62560100  1
  O  O23  1  0.77029100  0.17228400  0.96036800  1
loop_
_geom_bond_atom_site_label_1
_geom_bond_atom_site_label_2
_geom_bond_distance
_geom_bond_site_symmetry_2
Al0 O3 1.756509 1_555
Al0 O12 1.757100 1_655
Al0 O6 1.757976 1_555
Al0 O23 1.761642 1_554
Al1 O21 1.748256 1_555
Al1 O4 1.748750 1_555
Al1 O7 1.749026 1_555
Al1 O13 1.751644 1_655
Al2 O8 1.746907 1_555
Al2 O5 1.747332 1_555
Al2 O14 1.750655 1_655
Al2 O22 1.751236 1_555
Al3 O9 1.756964 1_555
Al3 O18 1.757695 1_455
Al3 O0 1.759972 1_555
Al3 O16 1.761385 1_555
Fe0 O1 1.871930 1_555
Fe0 O10 1.878005 1_555
Fe0 O19 1.880778 1_455
Fe0 O17 1.881721 1_555
Fe1 O15 1.875010 1_556
Fe1 O11 1.880727 1_555
Fe1 O2 1.881748 1_555
Fe1 O20 1.883019 1_455
O0 P0 1.543252 1_555
O1 P1 1.543711 1_555
O2 P2 1.541138 1_555
O3 P0 1.539712 1_555
O4 P1 1.537208 1_555
O5 P2 1.538503 1_555
O6 P3 1.538545 1_545
O7 P4 1.535267 1_555
O8 P5 1.541714 1_555
O9 P3 1.540881 1_555
O10 P4 1.544513 1_565
O11 P5 1.543548 1_565
O12 P0 1.539874 1_555
O13 P1 1.536231 1_555
O14 P2 1.538190 1_555
O15 P0 1.541122 1_555
O16 P1 1.541827 1_555
O17 P2 1.544612 1_555
O18 P3 1.544010 1_555
O19 P4 1.543396 1_565
O20 P5 1.541978 1_565
O21 P3 1.535419 1_545
O22 P4 1.537338 1_555
O23 P5 1.541865 1_555
