# generated using pymatgen
data_Li3MgNi3O8
_symmetry_space_group_name_H-M   'P 1'
_cell_length_a   4.84903957
_cell_length_b   7.53485094
_cell_length_c   7.66781839
_cell_angle_alpha   97.63731853
_cell_angle_beta   100.84439066
_cell_angle_gamma   102.23984863
_symmetry_Int_Tables_number   1
_chemical_formula_structural   Li3MgNi3O8
_chemical_formula_sum   'Li6 Mg2 Ni6 O16'
_cell_volume   264.50656461
_cell_formula_units_Z   2
loop_
 _symmetry_equiv_pos_site_id
 _symmetry_equiv_pos_as_xyz
  1  'x, y, z'
loop_
 _atom_site_type_symbol
 _atom_site_label
 _atom_site_symmetry_multiplicity
 _atom_site_fract_x
 _atom_site_fract_y
 _atom_site_fract_z
 _atom_site_occupancy
  Li  Li0  1  0.99281400  0.88347820  0.61635309  1
  Li  Li1  1  0.99281348  0.38347680  0.11635360  1
  Li  Li2  1  0.50351702  0.50756246  0.99866870  1
  Li  Li3  1  0.50351676  0.00756346  0.49866804  1
  Li  Li4  1  0.50612890  0.74023051  0.76783892  1
  Li  Li5  1  0.50615142  0.24023942  0.26783798  1
  Mg  Mg0  1  0.49744141  0.12526937  0.87503849  1
  Mg  Mg1  1  0.49744572  0.62527234  0.37504162  1
  Ni  Ni0  1  0.99821303  0.75314184  0.24909884  1
  Ni  Ni1  1  0.99819856  0.25314505  0.74910088  1
  Ni  Ni2  1  0.50030490  0.87737801  0.12963718  1
  Ni  Ni3  1  0.50031932  0.37738174  0.62964198  1
  Ni  Ni4  1  0.99745110  0.00236058  0.00312838  1
  Ni  Ni5  1  0.99744334  0.50236341  0.50313403  1
  O  O0  1  0.20625502  0.24120630  0.97947980  1
  O  O1  1  0.20625818  0.74120733  0.47947979  1
  O  O2  1  0.76981353  0.51751715  0.24682129  1
  O  O3  1  0.76981625  0.01752361  0.74682152  1
  O  O4  1  0.25771907  0.15074677  0.64168771  1
  O  O5  1  0.25772829  0.65073317  0.14168344  1
  O  O6  1  0.74167451  0.86547483  0.34935177  1
  O  O7  1  0.74166391  0.36547939  0.84936147  1
  O  O8  1  0.76260202  0.77264112  0.02664452  1
  O  O9  1  0.76258825  0.27265263  0.52665387  1
  O  O10  1  0.25459937  0.47993095  0.74439579  1
  O  O11  1  0.25461449  0.97992043  0.24437691  1
  O  O12  1  0.26071242  0.38826766  0.40875325  1
  O  O13  1  0.26071059  0.88826113  0.90874300  1
  O  O14  1  0.73620406  0.10520935  0.11161602  1
  O  O15  1  0.73620109  0.60521800  0.61162410  1
loop_
_geom_bond_atom_site_label_1
_geom_bond_atom_site_label_2
_geom_bond_distance
_geom_bond_site_symmetry_2
Li0 O3 1.947245 1_565
Li0 O1 1.975350 1_655
Li0 O4 2.109159 1_665
Li0 O6 2.147300 1_555
Li0 O15 2.191395 1_555
Li0 O13 2.361801 1_655
Li1 O2 1.947229 1_555
Li1 O0 1.975342 1_654
Li1 O5 2.109108 1_655
Li1 O7 2.147267 1_554
Li1 O14 2.191420 1_555
Li1 O12 2.361855 1_655
Li2 O10 2.049793 1_555
Li2 O2 2.071254 1_556
Li2 O8 2.081926 1_556
Li2 O7 2.118076 1_555
Li2 O5 2.123510 1_556
Li2 O0 2.177691 1_555
Li3 O11 2.049867 1_545
Li3 O3 2.071257 1_555
Li3 O9 2.081955 1_555
Li3 O6 2.118178 1_545
Li3 O4 2.123617 1_555
Li3 O1 2.177684 1_545
Li4 O10 2.043570 1_555
Li4 O8 2.087625 1_556
Li4 O15 2.091526 1_555
Li4 O13 2.133992 1_555
Li4 O3 2.249576 1_565
Li4 O1 2.408814 1_555
Li5 O11 2.043683 1_545
Li5 O9 2.087619 1_555
Li5 O14 2.091558 1_555
Li5 O12 2.134104 1_555
Li5 O2 2.249432 1_555
Li5 O0 2.408843 1_554
Mg0 O13 1.984632 1_545
Mg0 O7 1.997682 1_555
Mg0 O4 1.998229 1_555
Mg0 O14 2.002696 1_556
Mg0 O3 2.025132 1_555
Mg0 O0 2.039770 1_555
Mg1 O12 1.984635 1_555
Mg1 O6 1.997682 1_555
Mg1 O5 1.998222 1_555
Mg1 O15 2.002698 1_555
Mg1 O2 2.025152 1_555
Mg1 O1 2.039756 1_555
Ni0 O6 1.867651 1_555
Ni0 O5 1.868201 1_655
Ni0 O2 1.878748 1_555
Ni0 O1 1.885870 1_655
Ni0 O11 1.897233 1_655
Ni0 O8 1.908114 1_555
Ni1 O7 1.867668 1_555
Ni1 O4 1.868175 1_655
Ni1 O3 1.878693 1_555
Ni1 O0 1.885886 1_655
Ni1 O10 1.897240 1_655
Ni1 O9 1.908089 1_555
Ni2 O11 1.842388 1_555
Ni2 O8 1.871382 1_555
Ni2 O5 1.881375 1_555
Ni2 O6 1.886513 1_555
Ni2 O13 1.887389 1_554
Ni2 O14 1.887976 1_565
Ni3 O10 1.842591 1_555
Ni3 O9 1.871219 1_555
Ni3 O4 1.881366 1_555
Ni3 O7 1.886484 1_555
Ni3 O12 1.887390 1_555
Ni3 O15 1.887961 1_555
Ni4 O14 1.881157 1_555
Ni4 O13 1.881516 1_644
Ni4 O8 1.910453 1_545
Ni4 O0 1.918346 1_654
Ni4 O11 2.076072 1_645
Ni4 O3 2.095419 1_554
Ni5 O15 1.881168 1_555
Ni5 O12 1.881524 1_655
Ni5 O9 1.910423 1_555
Ni5 O1 1.918367 1_655
Ni5 O10 2.076117 1_655
Ni5 O2 2.095428 1_555
