# generated using pymatgen
data_Pr3Ni3Bi4
_symmetry_space_group_name_H-M   'P 1'
_cell_length_a   8.55658975
_cell_length_b   8.55658795
_cell_length_c   8.55658975
_cell_angle_alpha   109.47122063
_cell_angle_beta   109.47122069
_cell_angle_gamma   109.47122063
_symmetry_Int_Tables_number   1
_chemical_formula_structural   Pr3Ni3Bi4
_chemical_formula_sum   'Pr6 Ni6 Bi8'
_cell_volume   482.25878462
_cell_formula_units_Z   2
loop_
 _symmetry_equiv_pos_site_id
 _symmetry_equiv_pos_as_xyz
  1  'x, y, z'
loop_
 _atom_site_type_symbol
 _atom_site_label
 _atom_site_symmetry_multiplicity
 _atom_site_fract_x
 _atom_site_fract_y
 _atom_site_fract_z
 _atom_site_occupancy
  Pr  Pr0  1  0.12500000  0.87500000  0.25000000  1
  Pr  Pr1  1  0.37500000  0.62500000  0.75000000  1
  Pr  Pr2  1  0.87500000  0.25000000  0.12500000  1
  Pr  Pr3  1  0.62500000  0.75000000  0.37500000  1
  Pr  Pr4  1  0.25000000  0.12500000  0.87500000  1
  Pr  Pr5  1  0.75000000  0.37500000  0.62500000  1
  Ni  Ni0  1  0.62500000  0.37500000  0.25000000  1
  Ni  Ni1  1  0.87500000  0.12500000  0.75000000  1
  Ni  Ni2  1  0.37500000  0.25000000  0.62500000  1
  Ni  Ni3  1  0.12500000  0.75000000  0.87500000  1
  Ni  Ni4  1  0.25000000  0.62500000  0.37500000  1
  Ni  Ni5  1  0.75000000  0.87500000  0.12500000  1
  Bi  Bi0  1  0.35052252  0.35052252  0.35052252  1
  Bi  Bi1  1  0.14947748  0.50000000  -0.00000000  1
  Bi  Bi2  1  0.00000000  0.14947748  0.50000000  1
  Bi  Bi3  1  0.85052252  0.85052252  0.85052252  1
  Bi  Bi4  1  0.50000000  -0.00000000  0.14947748  1
  Bi  Bi5  1  0.64947748  0.50000000  -0.00000000  1
  Bi  Bi6  1  0.50000000  -0.00000000  0.64947748  1
  Bi  Bi7  1  0.00000000  0.64947748  0.50000000  1
loop_
_geom_bond_atom_site_label_1
_geom_bond_atom_site_label_2
_geom_bond_distance
_geom_bond_site_symmetry_2
Ni0 Pr3 3.025211 1_555
Ni0 Pr2 3.025211 1_555
Ni0 Pr4 3.025211 1_554
Ni0 Pr5 3.025211 1_555
Ni1 Pr5 3.025211 1_555
Ni1 Pr3 3.025211 1_545
Ni1 Pr4 3.025211 1_655
Ni1 Pr2 3.025211 1_556
Ni2 Pr1 3.025211 1_555
Ni2 Pr0 3.025211 1_545
Ni2 Pr4 3.025211 1_555
Ni2 Pr5 3.025211 1_555
Ni3 Pr4 3.025211 1_565
Ni3 Pr5 3.025211 1_455
Ni3 Pr1 3.025211 1_555
Ni3 Pr0 3.025211 1_556
Ni4 Pr0 3.025211 1_555
Ni4 Pr2 3.025211 1_455
Ni4 Pr1 3.025211 1_555
Ni4 Pr3 3.025211 1_555
Ni5 Pr2 3.025211 1_565
Ni5 Pr3 3.025211 1_555
Ni5 Pr1 3.025211 1_554
Ni5 Pr0 3.025211 1_655
Bi0 Ni4 2.727355 1_555
Bi0 Ni2 2.727355 1_555
Bi0 Ni0 2.727355 1_555
Bi0 Pr3 3.329636 1_555
Bi0 Pr1 3.329636 1_555
Bi0 Pr5 3.329636 1_555
Bi0 Pr0 3.513543 1_545
Bi0 Pr4 3.513543 1_554
Bi0 Pr2 3.513543 1_455
Bi1 Ni1 2.727355 1_454
Bi1 Ni3 2.727355 1_554
Bi1 Ni4 2.727355 1_555
Bi1 Pr0 3.329636 1_555
Bi1 Pr2 3.329636 1_455
Bi1 Pr5 3.329636 1_454
Bi1 Pr4 3.513543 1_554
Bi1 Pr1 3.513543 1_554
Bi1 Pr3 3.513543 1_555
Bi2 Ni5 2.727355 1_445
Bi2 Ni1 2.727355 1_455
Bi2 Ni2 2.727355 1_555
Bi2 Pr3 3.329636 1_445
Bi2 Pr0 3.329636 1_545
Bi2 Pr4 3.329636 1_555
Bi2 Pr1 3.513543 1_555
Bi2 Pr5 3.513543 1_455
Bi2 Pr2 3.513543 1_455
Bi3 Ni1 2.727355 1_565
Bi3 Ni3 2.727355 1_655
Bi3 Ni5 2.727355 1_556
Bi3 Pr2 3.329636 1_566
Bi3 Pr4 3.329636 1_665
Bi3 Pr0 3.329636 1_656
Bi3 Pr5 3.513543 1_555
Bi3 Pr1 3.513543 1_555
Bi3 Pr3 3.513543 1_555
Bi4 Ni0 2.727355 1_555
Bi4 Ni5 2.727355 1_545
Bi4 Ni3 2.727355 1_544
Bi4 Pr1 3.329636 1_544
Bi4 Pr4 3.329636 1_554
Bi4 Pr2 3.329636 1_555
Bi4 Pr3 3.513543 1_545
Bi4 Pr5 3.513543 1_555
Bi4 Pr0 3.513543 1_545
Bi5 Ni5 2.727355 1_555
Bi5 Ni0 2.727355 1_555
Bi5 Ni2 2.727355 1_554
Bi5 Pr4 3.329636 1_554
Bi5 Pr1 3.329636 1_554
Bi5 Pr3 3.329636 1_555
Bi5 Pr2 3.513543 1_555
Bi5 Pr0 3.513543 1_655
Bi5 Pr5 3.513543 1_554
Bi6 Ni4 2.727355 1_545
Bi6 Ni2 2.727355 1_555
Bi6 Ni1 2.727355 1_555
Bi6 Pr5 3.329636 1_555
Bi6 Pr3 3.329636 1_545
Bi6 Pr0 3.329636 1_545
Bi6 Pr1 3.513543 1_545
Bi6 Pr4 3.513543 1_555
Bi6 Pr2 3.513543 1_556
Bi7 Ni0 2.727355 1_455
Bi7 Ni4 2.727355 1_555
Bi7 Ni3 2.727355 1_555
Bi7 Pr2 3.329636 1_455
Bi7 Pr5 3.329636 1_455
Bi7 Pr1 3.329636 1_555
Bi7 Pr4 3.513543 1_565
Bi7 Pr0 3.513543 1_555
Bi7 Pr3 3.513543 1_455
