# generated using pymatgen
data_Hf9PW4
_symmetry_space_group_name_H-M   'P 1'
_cell_length_a   12.24868666
_cell_length_b   12.24868666
_cell_length_c   15.00140900
_cell_angle_alpha   90.00000000
_cell_angle_beta   90.00000000
_cell_angle_gamma   120.00000356
_symmetry_Int_Tables_number   1
_chemical_formula_structural   Hf9PW4
_chemical_formula_sum   'Hf54 P6 W24'
_cell_volume   1949.13409171
_cell_formula_units_Z   6
loop_
 _symmetry_equiv_pos_site_id
 _symmetry_equiv_pos_as_xyz
  1  'x, y, z'
loop_
 _atom_site_type_symbol
 _atom_site_label
 _atom_site_symmetry_multiplicity
 _atom_site_fract_x
 _atom_site_fract_y
 _atom_site_fract_z
 _atom_site_occupancy
  Hf  Hf0  1  0.54643500  0.69906300  0.65046800  1
  Hf  Hf1  1  0.21310200  0.03239700  0.98380200  1
  Hf  Hf2  1  0.87976800  0.36573000  0.31713500  1
  Hf  Hf3  1  0.68286500  0.56263300  0.51403800  1
  Hf  Hf4  1  0.34953200  0.89596700  0.84737200  1
  Hf  Hf5  1  0.01619800  0.22930000  0.18070500  1
  Hf  Hf6  1  0.81929500  0.83549300  0.78689800  1
  Hf  Hf7  1  0.48596200  0.16882600  0.12023200  1
  Hf  Hf8  1  0.15262800  0.50216000  0.45356500  1
  Hf  Hf9  1  0.45356500  0.30093700  0.34953200  1
  Hf  Hf10  1  0.12023200  0.63427000  0.68286500  1
  Hf  Hf11  1  0.78689800  0.96760300  0.01619800  1
  Hf  Hf12  1  0.31713500  0.43736700  0.48596200  1
  Hf  Hf13  1  0.98380200  0.77070000  0.81929500  1
  Hf  Hf14  1  0.65046800  0.10403300  0.15262800  1
  Hf  Hf15  1  0.18070500  0.16450700  0.21310200  1
  Hf  Hf16  1  0.84737200  0.49784000  0.54643500  1
  Hf  Hf17  1  0.51403800  0.83117400  0.87976800  1
  Hf  Hf18  1  0.31929500  0.03239700  0.48380200  1
  Hf  Hf19  1  0.98596200  0.36573000  0.81713500  1
  Hf  Hf20  1  0.65262800  0.69906300  0.15046800  1
  Hf  Hf21  1  0.18286500  0.16882600  0.62023200  1
  Hf  Hf22  1  0.84953200  0.50216000  0.95356500  1
  Hf  Hf23  1  0.51619800  0.83549300  0.28689800  1
  Hf  Hf24  1  0.04643500  0.89596700  0.34737200  1
  Hf  Hf25  1  0.71310200  0.22930000  0.68070500  1
  Hf  Hf26  1  0.37976800  0.56263300  0.01403800  1
  Hf  Hf27  1  0.68070500  0.96760300  0.51619800  1
  Hf  Hf28  1  0.34737200  0.30093700  0.84953200  1
  Hf  Hf29  1  0.01403800  0.63427000  0.18286500  1
  Hf  Hf30  1  0.81713500  0.83117400  0.37976800  1
  Hf  Hf31  1  0.48380200  0.16450700  0.71310200  1
  Hf  Hf32  1  0.15046800  0.49784000  0.04643500  1
  Hf  Hf33  1  0.95356500  0.10403300  0.65262800  1
  Hf  Hf34  1  0.62023200  0.43736700  0.98596200  1
  Hf  Hf35  1  0.28689800  0.77070000  0.31929500  1
  Hf  Hf36  1  0.95591500  0.83333300  0.58333300  1
  Hf  Hf37  1  0.62258100  0.16666700  0.91666700  1
  Hf  Hf38  1  0.28924800  0.50000000  0.25000000  1
  Hf  Hf39  1  0.08333300  0.70591500  0.45591500  1
  Hf  Hf40  1  0.75000000  0.03924800  0.78924800  1
  Hf  Hf41  1  0.41666700  0.37258100  0.12258100  1
  Hf  Hf42  1  0.21075200  0.96075200  0.71075200  1
  Hf  Hf43  1  0.87741900  0.29408500  0.04408500  1
  Hf  Hf44  1  0.54408500  0.62741900  0.37741900  1
  Hf  Hf45  1  0.04408500  0.16666700  0.41666700  1
  Hf  Hf46  1  0.71075200  0.50000000  0.75000000  1
  Hf  Hf47  1  0.37741900  0.83333300  0.08333300  1
  Hf  Hf48  1  0.91666700  0.29408500  0.54408500  1
  Hf  Hf49  1  0.58333300  0.62741900  0.87741900  1
  Hf  Hf50  1  0.25000000  0.96075200  0.21075200  1
  Hf  Hf51  1  0.78924800  0.03924800  0.28924800  1
  Hf  Hf52  1  0.45591500  0.37258100  0.62258100  1
  Hf  Hf53  1  0.12258100  0.70591500  0.95591500  1
  P  P0  1  0.75000000  0.83333300  0.58333300  1
  P  P1  1  0.41666700  0.16666700  0.91666700  1
  P  P2  1  0.08333300  0.50000000  0.25000000  1
  P  P3  1  0.25000000  0.16666700  0.41666700  1
  P  P4  1  0.91666700  0.50000000  0.75000000  1
  P  P5  1  0.58333300  0.83333300  0.08333300  1
  W  W0  1  0.30612200  0.83333300  0.58333300  1
  W  W1  1  0.97278900  0.16666700  0.91666700  1
  W  W2  1  0.63945500  0.50000000  0.25000000  1
  W  W3  1  0.08333300  0.05612200  0.80612200  1
  W  W4  1  0.75000000  0.38945500  0.13945500  1
  W  W5  1  0.41666700  0.72278900  0.47278900  1
  W  W6  1  0.86054500  0.61054500  0.36054500  1
  W  W7  1  0.52721100  0.94387800  0.69387800  1
  W  W8  1  0.19387800  0.27721100  0.02721100  1
  W  W9  1  0.69387800  0.16666700  0.41666700  1
  W  W10  1  0.36054500  0.50000000  0.75000000  1
  W  W11  1  0.02721100  0.83333300  0.08333300  1
  W  W12  1  0.91666700  0.94387800  0.19387800  1
  W  W13  1  0.58333300  0.27721100  0.52721100  1
  W  W14  1  0.25000000  0.61054500  0.86054500  1
  W  W15  1  0.13945500  0.38945500  0.63945500  1
  W  W16  1  0.80612200  0.72278900  0.97278900  1
  W  W17  1  0.47278900  0.05612200  0.30612200  1
  W  W18  1  0.00000000  0.00000000  0.00000000  1
  W  W19  1  0.66666700  0.33333300  0.33333300  1
  W  W20  1  0.33333300  0.66666700  0.66666700  1
  W  W21  1  0.83333300  0.66666700  0.16666700  1
  W  W22  1  0.50000000  0.00000000  0.50000000  1
  W  W23  1  0.16666700  0.33333300  0.83333300  1
loop_
_geom_bond_atom_site_label_1
_geom_bond_atom_site_label_2
_geom_bond_distance
_geom_bond_site_symmetry_2
Hf0 P0 2.415664 1_555
Hf0 W20 2.448264 1_555
Hf0 W10 2.794125 1_555
Hf0 W5 3.190203 1_555
Hf0 W7 3.190233 1_555
Hf1 P1 2.415664 1_555
Hf1 W18 2.448258 1_556
Hf1 W11 2.794128 1_546
Hf1 W8 3.190218 1_556
Hf1 W3 3.190218 1_555
Hf2 P2 2.415664 1_655
Hf2 W19 2.448246 1_555
Hf2 W9 2.794125 1_555
Hf2 W4 3.190212 1_555
Hf2 W6 3.190227 1_555
Hf3 Hf44 3.011405 1_555
Hf3 W6 3.017565 1_555
Hf3 Hf52 3.053976 1_555
Hf3 W13 3.079857 1_555
Hf3 P0 3.166108 1_555
Hf4 Hf42 3.011408 1_555
Hf4 W7 3.017571 1_555
Hf4 Hf53 3.053982 1_555
Hf4 W14 3.079857 1_555
Hf4 P1 3.166108 1_565
Hf5 W8 3.017578 1_555
Hf5 Hf51 3.053976 1_455
Hf5 W12 3.079859 1_445
Hf5 P2 3.166108 1_555
Hf6 W3 3.017583 1_665
Hf6 W16 3.079845 1_555
Hf6 P0 3.166089 1_555
Hf7 W4 3.017582 1_555
Hf7 W17 3.079832 1_555
Hf7 P1 3.166091 1_554
Hf8 W5 3.017591 1_555
Hf8 W15 3.079837 1_555
Hf8 P2 3.166089 1_555
Hf9 P3 2.415664 1_555
Hf9 W19 2.448264 1_555
Hf9 W2 2.794125 1_555
Hf9 W13 3.190203 1_555
Hf9 W17 3.190233 1_555
Hf10 P4 2.415664 1_455
Hf10 W20 2.448246 1_555
Hf10 W0 2.794125 1_555
Hf10 W14 3.190212 1_555
Hf10 W15 3.190227 1_555
Hf11 P5 2.415664 1_555
Hf11 W18 2.448258 1_665
Hf11 W1 2.794128 1_564
Hf11 W16 3.190218 1_554
Hf11 W12 3.190218 1_555
Hf12 Hf8 2.554487 1_555
Hf12 Hf52 3.011405 1_555
Hf12 W15 3.017565 1_555
Hf12 Hf44 3.053976 1_555
Hf12 W5 3.079857 1_555
Hf12 P3 3.166108 1_555
Hf13 Hf6 2.554487 1_555
Hf13 Hf53 3.011400 1_655
Hf13 W16 3.017578 1_555
Hf13 Hf42 3.053976 1_655
Hf13 W3 3.079859 1_665
Hf13 P4 3.166108 1_555
Hf14 Hf7 2.554473 1_555
Hf14 Hf51 3.011408 1_555
Hf14 W17 3.017571 1_555
Hf14 Hf43 3.053982 1_555
Hf14 W4 3.079857 1_555
Hf14 P5 3.166108 1_545
Hf15 Hf5 2.554487 1_555
Hf15 Hf50 3.011418 1_545
Hf15 W12 3.017583 1_445
Hf15 Hf41 3.053983 1_555
Hf15 W8 3.079845 1_555
Hf15 P3 3.166089 1_555
Hf16 Hf3 2.554487 1_555
Hf16 Hf48 3.011418 1_555
Hf16 W13 3.017591 1_555
Hf16 Hf39 3.053975 1_655
Hf16 W6 3.079837 1_555
Hf16 P4 3.166089 1_555
Hf17 Hf4 2.554473 1_555
Hf17 Hf49 3.011418 1_555
Hf17 W14 3.017582 1_555
Hf17 Hf40 3.053977 1_565
Hf17 W7 3.079832 1_555
Hf17 P5 3.166091 1_556
Hf18 P3 2.415664 1_555
Hf18 W22 2.448258 1_555
Hf18 W0 2.794128 1_545
Hf18 W13 3.190218 1_555
Hf18 W17 3.190218 1_555
Hf19 P4 2.415664 1_555
Hf19 W23 2.448258 1_655
Hf19 W1 2.794126 1_555
Hf19 W15 3.190212 1_655
Hf19 W14 3.190226 1_655
Hf20 P5 2.415664 1_555
Hf20 W21 2.448252 1_555
Hf20 W2 2.794126 1_555
Hf20 W16 3.190203 1_554
Hf20 W12 3.190233 1_555
Hf21 Hf33 2.554485 1_455
Hf21 Hf52 3.011418 1_555
Hf21 W15 3.017589 1_555
Hf21 Hf42 3.053970 1_545
Hf21 W3 3.079834 1_555
Hf21 P3 3.166087 1_555
Hf22 Hf34 2.554487 1_555
Hf22 Hf53 3.011410 1_655
Hf22 W16 3.017591 1_555
Hf22 Hf43 3.053981 1_556
Hf22 W4 3.079837 1_556
Hf22 P4 3.166089 1_555
Hf23 Hf35 2.554487 1_555
Hf23 Hf51 3.011418 1_565
Hf23 W17 3.017583 1_565
Hf23 Hf44 3.053977 1_555
Hf23 W5 3.079845 1_555
Hf23 P5 3.166089 1_555
Hf24 Hf30 2.554485 1_455
Hf24 Hf50 3.011408 1_555
Hf24 W12 3.017571 1_455
Hf24 Hf39 3.053976 1_555
Hf24 W6 3.079857 1_455
Hf24 P3 3.166108 1_565
Hf25 Hf31 2.554487 1_555
Hf25 Hf48 3.011408 1_555
Hf25 W13 3.017578 1_555
Hf25 Hf40 3.053976 1_555
Hf25 W7 3.079859 1_545
Hf25 P4 3.166108 1_555
Hf26 Hf32 2.554487 1_555
Hf26 Hf49 3.011396 1_554
Hf26 W14 3.017565 1_554
Hf26 Hf41 3.053982 1_555
Hf26 W8 3.079857 1_555
Hf26 P5 3.166108 1_555
Hf27 P0 2.415664 1_555
Hf27 W22 2.448258 1_565
Hf27 W9 2.794128 1_565
Hf27 W5 3.190218 1_555
Hf27 W7 3.190218 1_555
Hf28 P1 2.415664 1_555
Hf28 W23 2.448252 1_555
Hf28 W10 2.794126 1_555
Hf28 W8 3.190203 1_556
Hf28 W3 3.190233 1_555
Hf29 P2 2.415664 1_555
Hf29 W21 2.448258 1_455
Hf29 W11 2.794126 1_555
Hf29 W6 3.190212 1_455
Hf29 W4 3.190226 1_455
Hf30 Hf44 3.011418 1_555
Hf30 W6 3.017589 1_555
Hf30 Hf51 3.053970 1_565
Hf30 W12 3.079834 1_555
Hf30 P0 3.166087 1_555
Hf31 Hf42 3.011418 1_545
Hf31 W7 3.017583 1_545
Hf31 Hf52 3.053977 1_555
Hf31 W13 3.079845 1_555
Hf31 P1 3.166089 1_555
Hf32 Hf43 3.011410 1_455
Hf32 W8 3.017591 1_555
Hf32 Hf53 3.053981 1_554
Hf32 W14 3.079837 1_554
Hf32 P2 3.166089 1_555
Hf33 Hf40 3.011408 1_555
Hf33 W3 3.017571 1_655
Hf33 Hf48 3.053976 1_555
Hf33 W15 3.079857 1_655
Hf33 P0 3.166108 1_545
Hf34 Hf41 3.011396 1_556
Hf34 W4 3.017565 1_556
Hf34 Hf49 3.053982 1_555
Hf34 W16 3.079857 1_555
Hf34 P1 3.166108 1_555
Hf35 Hf39 3.011408 1_555
Hf35 W5 3.017578 1_555
Hf35 Hf50 3.053976 1_555
Hf35 W17 3.079859 1_565
Hf35 P2 3.166108 1_555
Hf36 P0 2.522188 1_555
Hf37 P1 2.522176 1_555
Hf38 P2 2.522188 1_555
Hf39 W6 2.769547 1_455
Hf39 Hf8 3.011418 1_555
Hf39 W0 3.045853 1_555
Hf40 W7 2.769556 1_545
Hf40 Hf6 3.011418 1_545
Hf40 W1 3.045863 1_555
Hf41 W8 2.769556 1_555
Hf41 Hf7 3.011418 1_555
Hf41 W2 3.045855 1_555
Hf42 W3 2.769556 1_565
Hf42 W0 3.045863 1_555
Hf43 W4 2.769556 1_555
Hf43 Hf5 3.011400 1_655
Hf43 W1 3.045845 1_554
Hf44 W5 2.769547 1_555
Hf44 W2 3.045863 1_555
Hf45 P3 2.522188 1_555
Hf46 P4 2.522188 1_555
Hf47 P5 2.522176 1_555
Hf48 W15 2.769547 1_655
Hf48 W9 3.045853 1_555
Hf48 Hf8 3.053975 1_655
Hf49 W16 2.769556 1_555
Hf49 W10 3.045855 1_555
Hf49 Hf6 3.053983 1_555
Hf50 W17 2.769556 1_565
Hf50 W11 3.045863 1_555
Hf50 Hf7 3.053977 1_565
Hf51 W12 2.769556 1_545
Hf51 W9 3.045863 1_555
Hf52 W13 2.769547 1_555
Hf52 W10 3.045863 1_555
Hf53 W14 2.769556 1_555
Hf53 W11 3.045845 1_556
