# generated using pymatgen
data_LiMg6Bi
_symmetry_space_group_name_H-M   'P 1'
_cell_length_a   5.11758300
_cell_length_b   6.48967800
_cell_length_c   11.17583000
_cell_angle_alpha   90.00000000
_cell_angle_beta   90.00000000
_cell_angle_gamma   90.00000000
_symmetry_Int_Tables_number   1
_chemical_formula_structural   LiMg6Bi
_chemical_formula_sum   'Li2 Mg12 Bi2'
_cell_volume   371.16569592
_cell_formula_units_Z   2
loop_
 _symmetry_equiv_pos_site_id
 _symmetry_equiv_pos_as_xyz
  1  'x, y, z'
loop_
 _atom_site_type_symbol
 _atom_site_label
 _atom_site_symmetry_multiplicity
 _atom_site_fract_x
 _atom_site_fract_y
 _atom_site_fract_z
 _atom_site_occupancy
  Li  Li0  1  0.00000000  0.00000000  0.83628500  1
  Li  Li1  1  0.00000000  0.50000000  0.33628500  1
  Mg  Mg0  1  0.00000000  0.74091800  0.57877200  1
  Mg  Mg1  1  0.00000000  0.25908200  0.57877200  1
  Mg  Mg2  1  0.00000000  0.00000000  0.33490100  1
  Mg  Mg3  1  0.50000000  0.74940600  0.41616200  1
  Mg  Mg4  1  0.50000000  0.25059400  0.41616200  1
  Mg  Mg5  1  0.50000000  0.00000000  0.16738000  1
  Mg  Mg6  1  0.00000000  0.24091800  0.07877200  1
  Mg  Mg7  1  0.00000000  0.75908200  0.07877200  1
  Mg  Mg8  1  0.00000000  0.50000000  0.83490100  1
  Mg  Mg9  1  0.50000000  0.24940600  0.91616200  1
  Mg  Mg10  1  0.50000000  0.75059400  0.91616200  1
  Mg  Mg11  1  0.50000000  0.50000000  0.66738000  1
  Bi  Bi0  1  0.50000000  0.00000000  0.67156600  1
  Bi  Bi1  1  0.50000000  0.50000000  0.17156600  1
loop_
_geom_bond_atom_site_label_1
_geom_bond_atom_site_label_2
_geom_bond_distance
_geom_bond_site_symmetry_2
Li0 Mg6 3.128663 1_556
Li0 Mg7 3.128663 1_546
Li0 Mg9 3.156591 1_555
Li0 Mg10 3.156591 1_445
Li0 Mg10 3.156591 1_545
Li0 Mg9 3.156591 1_455
Li0 Mg8 3.244876 1_545
Li0 Mg8 3.244876 1_555
Li0 Mg0 3.333077 1_545
Li0 Mg1 3.333077 1_555
Li1 Mg0 3.128663 1_555
Li1 Mg1 3.128663 1_555
Li1 Mg4 3.156591 1_555
Li1 Mg3 3.156591 1_455
Li1 Mg4 3.156591 1_455
Li1 Mg3 3.156591 1_555
Li1 Mg2 3.244876 1_565
Li1 Mg2 3.244876 1_555
Li1 Mg7 3.333077 1_555
Li1 Mg6 3.333077 1_555
Mg0 Mg1 3.126960 1_555
Mg0 Mg3 3.138954 1_455
Mg0 Mg3 3.138954 1_555
Mg0 Mg11 3.157929 1_455
Mg0 Mg11 3.157929 1_555
Mg0 Mg2 3.202359 1_565
Mg0 Mg8 3.261612 1_555
Mg0 Mg1 3.362718 1_565
Mg1 Mg4 3.138954 1_455
Mg1 Mg4 3.138954 1_555
Mg1 Mg11 3.157929 1_555
Mg1 Mg11 3.157929 1_455
Mg1 Mg2 3.202359 1_555
Mg1 Mg8 3.261612 1_555
Mg2 Mg4 3.164954 1_455
Mg2 Mg3 3.164954 1_545
Mg2 Mg3 3.164954 1_445
Mg2 Mg4 3.164954 1_555
Mg2 Mg5 3.170567 1_455
Mg2 Mg5 3.170567 1_555
Mg2 Mg6 3.261612 1_555
Mg2 Mg7 3.261612 1_545
Mg3 Mg5 3.221038 1_565
Mg3 Mg4 3.237129 1_555
Mg3 Mg4 3.252549 1_565
Mg4 Mg5 3.221038 1_555
Mg5 Mg6 3.157929 1_555
Mg5 Mg6 3.157929 1_655
Mg5 Mg7 3.157929 1_645
Mg5 Mg7 3.157929 1_545
Mg5 Mg9 3.240710 1_554
Mg6 Mg7 3.126960 1_545
Mg6 Mg9 3.138954 1_554
Mg6 Mg9 3.138954 1_454
Mg6 Mg8 3.202359 1_554
Mg6 Mg7 3.362718 1_555
Mg7 Mg8 3.202359 1_554
Mg8 Mg9 3.164954 1_455
Mg8 Mg9 3.164954 1_555
Mg10 Mg7 3.138954 1_556
Mg10 Mg7 3.138954 1_656
Mg10 Mg8 3.164954 1_655
Mg10 Mg8 3.164954 1_555
Mg10 Mg11 3.221038 1_555
Mg10 Mg9 3.237129 1_565
Mg10 Mg5 3.240710 1_566
Mg10 Mg9 3.252549 1_555
Mg11 Mg8 3.170567 1_655
Mg11 Mg8 3.170567 1_555
Mg11 Mg9 3.221038 1_555
Mg11 Mg3 3.240710 1_555
Mg11 Mg4 3.240710 1_555
Bi0 Li0 3.152177 1_555
Bi0 Li0 3.152177 1_655
Bi0 Mg9 3.176810 1_555
Bi0 Mg10 3.176810 1_545
Bi0 Mg1 3.232623 1_655
Bi0 Mg1 3.232623 1_555
Bi0 Mg0 3.232623 1_545
Bi0 Mg0 3.232623 1_645
Bi0 Mg11 3.245176 1_555
Bi0 Mg11 3.245176 1_545
Bi0 Mg4 3.285132 1_555
Bi0 Mg3 3.285132 1_545
Bi1 Li1 3.152177 1_555
Bi1 Li1 3.152177 1_655
Bi1 Mg3 3.176810 1_555
Bi1 Mg4 3.176810 1_555
Bi1 Mg7 3.232623 1_655
Bi1 Mg7 3.232623 1_555
Bi1 Mg6 3.232623 1_655
Bi1 Mg6 3.232623 1_555
Bi1 Mg5 3.245176 1_555
Bi1 Mg5 3.245176 1_565
Bi1 Mg9 3.285132 1_554
Bi1 Mg10 3.285132 1_554
