# generated using pymatgen
data_Ca4Al6CrO16
_symmetry_space_group_name_H-M   'P 1'
_cell_length_a   8.09639229
_cell_length_b   8.09639229
_cell_length_c   8.09639229
_cell_angle_alpha   109.84905498
_cell_angle_beta   109.84905498
_cell_angle_gamma   108.71816629
_symmetry_Int_Tables_number   1
_chemical_formula_structural   Ca4Al6CrO16
_chemical_formula_sum   'Ca4 Al6 Cr1 O16'
_cell_volume   408.50422806
_cell_formula_units_Z   1
loop_
 _symmetry_equiv_pos_site_id
 _symmetry_equiv_pos_as_xyz
  1  'x, y, z'
loop_
 _atom_site_type_symbol
 _atom_site_label
 _atom_site_symmetry_multiplicity
 _atom_site_fract_x
 _atom_site_fract_y
 _atom_site_fract_z
 _atom_site_occupancy
  Ca  Ca0  1  0.57942500  0.00643800  0.01856300  1
  Ca  Ca1  1  0.99356200  0.01212600  0.57298700  1
  Ca  Ca2  1  0.98787400  0.56086100  0.98143700  1
  Ca  Ca3  1  0.43913900  0.42057500  0.42701300  1
  Al  Al0  1  0.49173200  0.74746200  0.24636100  1
  Al  Al1  1  0.25000000  0.75000000  0.50000000  1
  Al  Al2  1  0.75462900  0.50826800  0.25573000  1
  Al  Al3  1  0.75000000  0.25000000  0.50000000  1
  Al  Al4  1  0.50110100  0.24537100  0.75363900  1
  Al  Al5  1  0.25253800  0.49889900  0.74427000  1
  Cr  Cr0  1  0.00000000  0.00000000  0.00000000  1
  O  O0  1  0.40569200  0.99720400  0.71445400  1
  O  O1  1  0.70022000  0.30542100  0.30269400  1
  O  O2  1  0.39784800  0.70510800  0.99556200  1
  O  O3  1  0.69457900  0.99727300  0.39479900  1
  O  O4  1  0.00279600  0.71725000  0.40848800  1
  O  O5  1  0.29489200  0.29045400  0.69274100  1
  O  O6  1  0.28275000  0.69123800  0.28554600  1
  O  O7  1  0.00272700  0.39752600  0.69730600  1
  O  O8  1  0.70954600  0.40228700  0.00443800  1
  O  O9  1  0.60247400  0.29978000  0.60520100  1
  O  O10  1  0.30876200  0.59430800  0.59151200  1
  O  O11  1  0.59771300  0.60215200  0.30725900  1
  O  O12  1  0.90625300  0.04462900  0.15429100  1
  O  O13  1  0.95537100  0.10966200  0.86162400  1
  O  O14  1  0.89033800  0.75196200  0.84570900  1
  O  O15  1  0.24803800  0.09374700  0.13837600  1
loop_
_geom_bond_atom_site_label_1
_geom_bond_atom_site_label_2
_geom_bond_distance
_geom_bond_site_symmetry_2
Ca0 O1 2.297674 1_555
Ca0 O2 2.313343 1_544
Ca0 O0 2.345655 1_544
Ca0 O12 2.361064 1_555
Ca1 O3 2.297670 1_545
Ca1 O5 2.313337 1_655
Ca1 O4 2.345661 1_645
Ca1 O13 2.361063 1_555
Ca2 O7 2.297677 1_655
Ca2 O8 2.313332 1_556
Ca2 O6 2.345657 1_656
Ca2 O14 2.361068 1_555
Ca3 O9 2.297670 1_555
Ca3 O11 2.313342 1_555
Ca3 O10 2.345661 1_555
Ca3 O15 2.361063 1_555
Al0 O3 1.763337 1_555
Al0 O11 1.765797 1_555
Al0 O2 1.769257 1_554
Al0 O6 1.771721 1_555
Al1 O6 1.773147 1_555
Al1 O4 1.773147 1_555
Al1 O0 1.773147 1_555
Al1 O10 1.773147 1_555
Al2 O1 1.763337 1_555
Al2 O8 1.765804 1_555
Al2 O11 1.769262 1_555
Al2 O4 1.771721 1_655
Al3 O7 1.755363 1_655
Al3 O1 1.755363 1_555
Al3 O9 1.755363 1_555
Al3 O3 1.755363 1_545
Al4 O9 1.763337 1_555
Al4 O5 1.765804 1_555
Al4 O8 1.769257 1_556
Al4 O0 1.771721 1_545
Al5 O7 1.763337 1_555
Al5 O2 1.765804 1_555
Al5 O5 1.769257 1_555
Al5 O10 1.771721 1_555
Cr0 O14 1.667497 1_444
Cr0 O12 1.667497 1_455
Cr0 O15 1.667497 1_555
Cr0 O13 1.667497 1_454
