# generated using pymatgen
data_Ag(Mo3Se4)2
_symmetry_space_group_name_H-M   'P 1'
_cell_length_a   6.81396171
_cell_length_b   6.81396171
_cell_length_c   6.81396169
_cell_angle_alpha   92.01114156
_cell_angle_beta   92.01114156
_cell_angle_gamma   92.01114029
_symmetry_Int_Tables_number   1
_chemical_formula_structural   Ag(Mo3Se4)2
_chemical_formula_sum   'Ag1 Mo6 Se8'
_cell_volume   315.77405071
_cell_formula_units_Z   1
loop_
 _symmetry_equiv_pos_site_id
 _symmetry_equiv_pos_as_xyz
  1  'x, y, z'
loop_
 _atom_site_type_symbol
 _atom_site_label
 _atom_site_symmetry_multiplicity
 _atom_site_fract_x
 _atom_site_fract_y
 _atom_site_fract_z
 _atom_site_occupancy
  Ag  Ag0  1  0.00000000  0.00000000  0.00000000  1
  Mo  Mo0  1  0.76946300  0.58614400  0.44975700  1
  Mo  Mo1  1  0.44975700  0.76946300  0.58614400  1
  Mo  Mo2  1  0.58614400  0.44975700  0.76946300  1
  Mo  Mo3  1  0.23053700  0.41385600  0.55024300  1
  Mo  Mo4  1  0.55024300  0.23053700  0.41385600  1
  Mo  Mo5  1  0.41385600  0.55024300  0.23053700  1
  Se  Se0  1  0.77783000  0.77783000  0.77783000  1
  Se  Se1  1  0.22217000  0.22217000  0.22217000  1
  Se  Se2  1  0.26341900  0.61752400  0.87255200  1
  Se  Se3  1  0.87255200  0.26341900  0.61752400  1
  Se  Se4  1  0.61752400  0.87255200  0.26341900  1
  Se  Se5  1  0.73658100  0.38247600  0.12744800  1
  Se  Se6  1  0.12744800  0.73658100  0.38247600  1
  Se  Se7  1  0.38247600  0.12744800  0.73658100  1
loop_
_geom_bond_atom_site_label_1
_geom_bond_atom_site_label_2
_geom_bond_distance
_geom_bond_site_symmetry_2
Ag0 Se0 2.528386 1_444
Ag0 Se1 2.528386 1_555
Ag0 Se5 3.323698 1_455
Ag0 Se2 3.323698 1_544
Ag0 Se6 3.323698 1_545
Ag0 Se3 3.323698 1_454
Ag0 Se4 3.323698 1_445
Ag0 Se7 3.323698 1_554
Mo0 Se0 2.547058 1_555
Mo0 Se5 2.555223 1_555
Mo0 Se4 2.591545 1_555
Mo0 Se3 2.620018 1_555
Mo0 Se6 2.673404 1_655
Mo1 Se0 2.547058 1_555
Mo1 Se6 2.555223 1_555
Mo1 Se2 2.591545 1_555
Mo1 Se4 2.620018 1_555
Mo1 Se7 2.673404 1_565
Mo2 Se0 2.547058 1_555
Mo2 Se7 2.555224 1_555
Mo2 Se3 2.591545 1_555
Mo2 Se2 2.620018 1_555
Mo2 Se5 2.673404 1_556
Mo3 Se1 2.547058 1_555
Mo3 Se2 2.555223 1_555
Mo3 Se7 2.591545 1_555
Mo3 Se6 2.620018 1_555
Mo3 Se3 2.673404 1_455
Mo4 Se1 2.547058 1_555
Mo4 Se3 2.555223 1_555
Mo4 Se5 2.591545 1_555
Mo4 Se7 2.620018 1_555
Mo4 Se4 2.673404 1_545
Mo5 Se1 2.547058 1_555
Mo5 Se4 2.555224 1_555
Mo5 Se6 2.591545 1_555
Mo5 Se5 2.620018 1_555
Mo5 Se2 2.673404 1_554
