# generated using pymatgen
data_Th2Si3Ir
_symmetry_space_group_name_H-M   'P 1'
_cell_length_a   7.69265040
_cell_length_b   7.69265040
_cell_length_c   7.69265040
_cell_angle_alpha   148.84442321
_cell_angle_beta   148.12348063
_cell_angle_gamma   45.17418636
_symmetry_Int_Tables_number   1
_chemical_formula_structural   Th2Si3Ir
_chemical_formula_sum   'Th2 Si3 Ir1'
_cell_volume   123.97991877
_cell_formula_units_Z   1
loop_
 _symmetry_equiv_pos_site_id
 _symmetry_equiv_pos_as_xyz
  1  'x, y, z'
loop_
 _atom_site_type_symbol
 _atom_site_label
 _atom_site_symmetry_multiplicity
 _atom_site_fract_x
 _atom_site_fract_y
 _atom_site_fract_z
 _atom_site_occupancy
  Th  Th0  1  0.75205358  0.25205358  0.50000000  1
  Th  Th1  1  0.00109056  0.00109056  0.00000000  1
  Si  Si0  1  0.58434491  0.58434491  0.00000000  1
  Si  Si1  1  0.33099565  0.83099565  0.50000000  1
  Si  Si2  1  0.41668524  0.41668524  0.00000000  1
  Ir  Ir0  1  0.16483107  0.66483107  0.50000000  1
loop_
_geom_bond_atom_site_label_1
_geom_bond_atom_site_label_2
_geom_bond_distance
_geom_bond_site_symmetry_2
Si0 Si2 2.381639 1_555
Si0 Th0 3.153282 1_554
Si0 Th0 3.153282 1_565
Si0 Th1 3.182547 1_655
Si0 Th1 3.182547 1_554
Si0 Th1 3.182547 1_565
Si0 Th1 3.182547 1_666
Si1 Si2 2.397777 1_566
Si1 Si2 2.397777 1_555
Si1 Th0 3.160295 1_454
Si1 Th0 3.160295 1_555
Si1 Th0 3.160295 1_566
Si1 Th0 3.160295 1_465
Si1 Th1 3.209433 1_565
Si1 Th1 3.209433 1_666
Si2 Th0 3.151421 1_454
Si2 Th0 3.151421 1_555
Si2 Th1 3.188658 1_565
Si2 Th1 3.188658 1_666
Si2 Th1 3.188658 1_655
Si2 Th1 3.188658 1_554
Ir0 Si1 2.360401 1_555
Ir0 Si0 2.401972 1_455
Ir0 Si0 2.401972 1_556
Ir0 Th1 3.110914 1_555
Ir0 Th1 3.110914 1_566
Ir0 Th0 3.203921 1_454
Ir0 Th0 3.203921 1_566
Ir0 Th0 3.203921 1_555
Ir0 Th0 3.203921 1_465
