# generated using pymatgen
data_NaMgAl3Si8(HO6)4
_symmetry_space_group_name_H-M   'P 1'
_cell_length_a   5.28472200
_cell_length_b   9.06439029
_cell_length_c   10.00617749
_cell_angle_alpha   90.01192141
_cell_angle_beta   90.20375014
_cell_angle_gamma   90.01455088
_symmetry_Int_Tables_number   1
_chemical_formula_structural   NaMgAl3Si8(HO6)4
_chemical_formula_sum   'Na1 Mg1 Al3 Si8 H4 O24'
_cell_volume   479.32069010
_cell_formula_units_Z   1
loop_
 _symmetry_equiv_pos_site_id
 _symmetry_equiv_pos_as_xyz
  1  'x, y, z'
loop_
 _atom_site_type_symbol
 _atom_site_label
 _atom_site_symmetry_multiplicity
 _atom_site_fract_x
 _atom_site_fract_y
 _atom_site_fract_z
 _atom_site_occupancy
  Na  Na0  1  0.41019000  0.96315400  0.50205500  1
  Mg  Mg0  1  0.50181200  0.83718600  0.96984500  1
  Al  Al0  1  0.00203600  0.66798100  0.97170900  1
  Al  Al1  1  0.50094700  0.16539100  0.96972800  1
  Al  Al2  1  0.00253500  0.33834000  0.97238200  1
  Si  Si0  1  0.30153800  0.66889900  0.69863400  1
  Si  Si1  1  0.79798000  0.17097200  0.69886500  1
  Si  Si2  1  0.69952500  0.66935500  0.24357300  1
  Si  Si3  1  0.20055400  0.17039900  0.24126700  1
  Si  Si4  1  0.70050200  0.32791100  0.24233000  1
  Si  Si5  1  0.18994800  0.82462600  0.24093200  1
  Si  Si6  1  0.29803000  0.32874700  0.69971600  1
  Si  Si7  1  0.81237500  0.82626200  0.69831600  1
  H  H0  1  0.17819800  0.01420200  0.86794000  1
  H  H1  1  0.82029100  0.01432000  0.07244400  1
  H  H2  1  0.69257900  0.50008100  0.85730700  1
  H  H3  1  0.31482700  0.50048400  0.08650700  1
  O  O0  1  0.36225000  0.01634000  0.86209700  1
  O  O1  1  0.63609800  0.01577900  0.07449400  1
  O  O2  1  0.04405700  0.25318300  0.63597000  1
  O  O3  1  0.30191100  0.31421300  0.86378200  1
  O  O4  1  0.54828500  0.75770200  0.63606100  1
  O  O5  1  0.82654700  0.80900000  0.85834200  1
  O  O6  1  0.95698200  0.25441000  0.30470900  1
  O  O7  1  0.70059500  0.31321500  0.07768800  1
  O  O8  1  0.45311200  0.75844800  0.30530100  1
  O  O9  1  0.17670700  0.80941900  0.08054700  1
  O  O10  1  0.95009500  0.74419800  0.31308400  1
  O  O11  1  0.70883500  0.68338600  0.08192900  1
  O  O12  1  0.45981600  0.23784800  0.30543400  1
  O  O13  1  0.19829600  0.19147500  0.07799100  1
  O  O14  1  0.05881300  0.75111900  0.62636200  1
  O  O15  1  0.29379000  0.68287700  0.85944800  1
  O  O16  1  0.53732400  0.23807600  0.63513600  1
  O  O17  1  0.80230800  0.19163600  0.86177100  1
  O  O18  1  0.32025700  0.49834500  0.64964100  1
  O  O19  1  0.80502700  0.99917800  0.64525600  1
  O  O20  1  0.67532300  0.49793300  0.29100200  1
  O  O21  1  0.18858400  0.99820000  0.29324900  1
  O  O22  1  0.87508600  0.49939600  0.87117500  1
  O  O23  1  0.13229800  0.49976900  0.07214600  1
loop_
_geom_bond_atom_site_label_1
_geom_bond_atom_site_label_2
_geom_bond_distance
_geom_bond_site_symmetry_2
Na0 O4 2.406969 1_555
Na0 O21 2.412653 1_555
Na0 O19 2.547925 1_555
Na0 O8 2.715204 1_555
Na0 O16 2.902778 1_565
Na0 O14 2.950405 1_555
Mg0 O1 2.052846 1_566
Mg0 O9 2.062915 1_556
Mg0 O5 2.066142 1_555
Mg0 O0 2.083069 1_565
Mg0 O15 2.091686 1_555
Mg0 O11 2.095477 1_556
Al0 O11 1.910223 1_456
Al0 O15 1.915616 1_555
Al0 O9 1.916623 1_556
Al0 O5 1.942817 1_455
Al0 O22 1.947113 1_455
Al0 O23 1.950635 1_556
Al1 O1 1.855791 1_556
Al1 O0 1.875035 1_555
Al1 O17 1.942179 1_555
Al1 O13 1.949362 1_556
Al1 O3 2.010812 1_555
Al1 O7 2.016476 1_556
Al2 O23 1.897871 1_556
Al2 O22 1.899130 1_455
Al2 O7 1.928783 1_456
Al2 O3 1.934964 1_555
Al2 O13 1.988139 1_556
Al2 O17 2.025666 1_455
H0 O0 0.974815 1_555
H1 O1 0.973791 1_555
H2 O22 0.973963 1_555
H3 O23 0.974774 1_555
O2 Si1 1.627289 1_455
O2 Si6 1.634229 1_555
O3 Si6 1.647034 1_555
O4 Si7 1.647812 1_555
O4 Si0 1.657055 1_555
O5 Si7 1.610387 1_555
O6 Si3 1.626622 1_655
O6 Si4 1.632564 1_555
O7 Si4 1.652788 1_555
O8 Si5 1.644105 1_555
O8 Si2 1.653940 1_555
O9 Si5 1.611991 1_555
O10 Si5 1.632690 1_655
O10 Si2 1.640211 1_555
O11 Si2 1.623377 1_555
O12 Si3 1.629860 1_555
O12 Si4 1.639645 1_555
O13 Si3 1.644941 1_555
O14 Si7 1.638706 1_455
O14 Si0 1.648612 1_555
O15 Si0 1.614753 1_555
O16 Si1 1.633538 1_555
O16 Si6 1.642679 1_555
O17 Si1 1.640832 1_555
O18 Si6 1.621359 1_555
O18 Si0 1.624881 1_555
O19 Si1 1.647378 1_565
O19 Si7 1.655384 1_555
O20 Si4 1.621813 1_555
O20 Si2 1.629918 1_555
O21 Si3 1.646637 1_565
O21 Si5 1.658069 1_555
