# generated using pymatgen
data_Sr3(GeN2)2
_symmetry_space_group_name_H-M   'P 1'
_cell_length_a   6.14323944
_cell_length_b   10.16766580
_cell_length_c   9.76042014
_cell_angle_alpha   90.00000000
_cell_angle_beta   90.00000000
_cell_angle_gamma   90.00000000
_symmetry_Int_Tables_number   1
_chemical_formula_structural   Sr3(GeN2)2
_chemical_formula_sum   'Sr12 Ge8 N16'
_cell_volume   609.65932117
_cell_formula_units_Z   4
loop_
 _symmetry_equiv_pos_site_id
 _symmetry_equiv_pos_as_xyz
  1  'x, y, z'
loop_
 _atom_site_type_symbol
 _atom_site_label
 _atom_site_symmetry_multiplicity
 _atom_site_fract_x
 _atom_site_fract_y
 _atom_site_fract_z
 _atom_site_occupancy
  Sr  Sr0  1  0.12755832  0.33999728  0.56866390  1
  Sr  Sr1  1  0.37244168  0.66000272  0.56866390  1
  Sr  Sr2  1  0.12755832  0.16000272  0.93133610  1
  Sr  Sr3  1  0.37244168  0.83999728  0.93133610  1
  Sr  Sr4  1  0.87244168  0.66000272  0.43133610  1
  Sr  Sr5  1  0.62755832  0.33999728  0.43133610  1
  Sr  Sr6  1  0.87244168  0.83999728  0.06866390  1
  Sr  Sr7  1  0.62755832  0.16000272  0.06866390  1
  Sr  Sr8  1  0.75000000  0.50000000  0.10869570  1
  Sr  Sr9  1  0.75000000  0.00000000  0.39130430  1
  Sr  Sr10  1  0.25000000  0.50000000  0.89130430  1
  Sr  Sr11  1  0.25000000  0.00000000  0.60869570  1
  Ge  Ge0  1  0.55103064  0.25000000  0.75000000  1
  Ge  Ge1  1  0.94896936  0.75000000  0.75000000  1
  Ge  Ge2  1  0.44896936  0.75000000  0.25000000  1
  Ge  Ge3  1  0.05103064  0.25000000  0.25000000  1
  Ge  Ge4  1  0.75000000  0.50000000  0.76716700  1
  Ge  Ge5  1  0.75000000  0.00000000  0.73283300  1
  Ge  Ge6  1  0.25000000  0.50000000  0.23283300  1
  Ge  Ge7  1  0.25000000  0.00000000  0.26716700  1
  N  N0  1  0.50998745  0.45319598  0.66132970  1
  N  N1  1  0.99001255  0.54680402  0.66132970  1
  N  N2  1  0.50998745  0.04680402  0.83867030  1
  N  N3  1  0.99001255  0.95319598  0.83867030  1
  N  N4  1  0.49001255  0.54680402  0.33867030  1
  N  N5  1  0.00998745  0.45319598  0.33867030  1
  N  N6  1  0.49001255  0.95319598  0.16132970  1
  N  N7  1  0.00998745  0.04680402  0.16132970  1
  N  N8  1  0.75721391  0.15720191  0.61689372  1
  N  N9  1  0.74278609  0.84279809  0.61689372  1
  N  N10  1  0.75721391  0.34279809  0.88310628  1
  N  N11  1  0.74278609  0.65720191  0.88310628  1
  N  N12  1  0.24278609  0.84279809  0.38310628  1
  N  N13  1  0.25721391  0.15720191  0.38310628  1
  N  N14  1  0.24278609  0.65720191  0.11689372  1
  N  N15  1  0.25721391  0.34279809  0.11689372  1
loop_
_geom_bond_atom_site_label_1
_geom_bond_atom_site_label_2
_geom_bond_distance
_geom_bond_site_symmetry_2
Ge0 N8 2.045111 1_555
Ge0 N10 2.045111 1_555
Ge0 N0 2.254123 1_555
Ge0 N2 2.254123 1_555
Ge1 N9 2.045111 1_555
Ge1 N11 2.045111 1_555
Ge1 N3 2.254123 1_555
Ge1 N1 2.254123 1_555
Ge2 N14 2.045111 1_555
Ge2 N12 2.045111 1_555
Ge2 N4 2.254123 1_555
Ge2 N6 2.254123 1_555
Ge3 N15 2.045111 1_555
Ge3 N13 2.045111 1_555
Ge3 N7 2.254123 1_555
Ge3 N5 2.254123 1_555
Ge4 N1 1.862152 1_555
Ge4 N0 1.862152 1_555
Ge4 N11 1.958909 1_555
Ge4 N10 1.958909 1_555
Ge5 N3 1.862152 1_545
Ge5 N2 1.862152 1_555
Ge5 N9 1.958909 1_545
Ge5 N8 1.958909 1_555
Ge6 N4 1.862152 1_555
Ge6 N5 1.862152 1_555
Ge6 N14 1.958909 1_555
Ge6 N15 1.958909 1_555
Ge7 N6 1.862152 1_545
Ge7 N7 1.862152 1_555
Ge7 N12 1.958909 1_545
Ge7 N13 1.958909 1_555
N0 Sr1 2.439990 1_555
N0 Sr5 2.624057 1_555
N0 Sr0 2.768073 1_555
N0 Sr10 2.795685 1_555
N1 Sr0 2.439990 1_655
N1 Sr4 2.624057 1_555
N1 Sr1 2.768073 1_655
N1 Sr10 2.795685 1_655
N2 Sr3 2.439990 1_545
N2 Sr7 2.624057 1_556
N2 Sr2 2.768073 1_555
N2 Sr11 2.795685 1_555
N3 Sr2 2.439990 1_665
N3 Sr6 2.624057 1_556
N3 Sr3 2.768073 1_655
N3 Sr11 2.795685 1_665
N4 Sr5 2.439990 1_555
N4 Sr1 2.624057 1_555
N4 Sr4 2.768073 1_555
N4 Sr8 2.795685 1_555
N5 Sr4 2.439990 1_455
N5 Sr0 2.624057 1_555
N5 Sr5 2.768073 1_455
N5 Sr8 2.795685 1_455
N6 Sr7 2.439990 1_565
N6 Sr3 2.624057 1_554
N6 Sr6 2.768073 1_555
N6 Sr9 2.795685 1_565
N7 Sr6 2.439990 1_445
N7 Sr2 2.624057 1_554
N7 Sr7 2.768073 1_455
N7 Sr9 2.795685 1_455
N8 Sr5 2.714586 1_555
N8 Sr9 2.721195 1_555
N8 Sr0 2.975256 1_655
N9 Sr4 2.714586 1_555
N9 Sr9 2.721195 1_565
N9 Sr1 2.975256 1_555
N10 Sr7 2.714586 1_556
N10 Sr8 2.721195 1_556
N10 Sr2 2.975256 1_655
N11 Sr6 2.714586 1_556
N11 Sr8 2.721195 1_556
N11 Sr3 2.975256 1_555
N12 Sr1 2.714586 1_555
N12 Sr11 2.721195 1_565
N12 Sr4 2.975256 1_455
N13 Sr0 2.714586 1_555
N13 Sr11 2.721195 1_555
N13 Sr5 2.975256 1_555
N14 Sr3 2.714586 1_554
N14 Sr10 2.721195 1_554
N14 Sr6 2.975256 1_455
N15 Sr2 2.714586 1_554
N15 Sr10 2.721195 1_554
N15 Sr7 2.975256 1_555
