# generated using pymatgen
data_SmEuCuS3
_symmetry_space_group_name_H-M   'P 1'
_cell_length_a   3.96491500
_cell_length_b   10.53066200
_cell_length_c   12.80449600
_cell_angle_alpha   90.00000000
_cell_angle_beta   90.00000000
_cell_angle_gamma   90.00000000
_symmetry_Int_Tables_number   1
_chemical_formula_structural   SmEuCuS3
_chemical_formula_sum   'Sm4 Eu4 Cu4 S12'
_cell_volume   534.62842276
_cell_formula_units_Z   4
loop_
 _symmetry_equiv_pos_site_id
 _symmetry_equiv_pos_as_xyz
  1  'x, y, z'
loop_
 _atom_site_type_symbol
 _atom_site_label
 _atom_site_symmetry_multiplicity
 _atom_site_fract_x
 _atom_site_fract_y
 _atom_site_fract_z
 _atom_site_occupancy
  Sm  Sm0  1  0.25000000  0.01698600  0.26405400  1
  Sm  Sm1  1  0.25000000  0.51698600  0.23594600  1
  Sm  Sm2  1  0.75000000  0.98301400  0.73594600  1
  Sm  Sm3  1  0.75000000  0.48301400  0.76405400  1
  Eu  Eu0  1  0.25000000  0.78459300  0.99834600  1
  Eu  Eu1  1  0.25000000  0.28459300  0.50165400  1
  Eu  Eu2  1  0.75000000  0.21540700  0.00165400  1
  Eu  Eu3  1  0.75000000  0.71540700  0.49834600  1
  Cu  Cu0  1  0.25000000  0.23365000  0.77654800  1
  Cu  Cu1  1  0.25000000  0.73365000  0.72345200  1
  Cu  Cu2  1  0.75000000  0.76635000  0.22345200  1
  Cu  Cu3  1  0.75000000  0.26635000  0.27654800  1
  S  S0  1  0.25000000  0.05229700  0.88431800  1
  S  S1  1  0.25000000  0.55229700  0.61568200  1
  S  S2  1  0.75000000  0.94770300  0.11568200  1
  S  S3  1  0.75000000  0.44770300  0.38431800  1
  S  S4  1  0.25000000  0.39786300  0.90030400  1
  S  S5  1  0.25000000  0.89786300  0.59969600  1
  S  S6  1  0.75000000  0.60213700  0.09969600  1
  S  S7  1  0.75000000  0.10213700  0.40030400  1
  S  S8  1  0.25000000  0.25980100  0.17076600  1
  S  S9  1  0.25000000  0.75980100  0.32923400  1
  S  S10  1  0.75000000  0.74019900  0.82923400  1
  S  S11  1  0.75000000  0.24019900  0.67076600  1
loop_
_geom_bond_atom_site_label_1
_geom_bond_atom_site_label_2
_geom_bond_distance
_geom_bond_site_symmetry_2
Eu0 S10 2.972814 1_555
Eu0 S10 2.972814 1_455
Eu0 S2 3.022875 1_456
Eu0 S2 3.022875 1_556
Eu0 S6 3.050568 1_556
Eu0 S6 3.050568 1_456
Eu0 S0 3.174765 1_565
Eu1 S11 2.972814 1_455
Eu1 S11 2.972814 1_555
Eu1 S3 3.022875 1_555
Eu1 S3 3.022875 1_455
Eu1 S7 3.050568 1_455
Eu1 S7 3.050568 1_555
Eu1 S1 3.174765 1_555
Eu2 S8 2.972814 1_655
Eu2 S8 2.972814 1_555
Eu2 S0 3.022875 1_654
Eu2 S0 3.022875 1_554
Eu2 S4 3.050568 1_554
Eu2 S4 3.050568 1_654
Eu2 S2 3.174765 1_545
Eu3 S9 2.972814 1_555
Eu3 S9 2.972814 1_655
Eu3 S1 3.022875 1_555
Eu3 S1 3.022875 1_655
Eu3 S5 3.050568 1_555
Eu3 S5 3.050568 1_655
Eu3 S3 3.174765 1_555
Cu0 S4 2.345515 1_555
Cu0 S0 2.356151 1_555
Cu0 S11 2.401983 1_455
Cu0 S11 2.401983 1_555
Cu1 S5 2.345515 1_555
Cu1 S1 2.356151 1_555
Cu1 S10 2.401983 1_455
Cu1 S10 2.401983 1_555
Cu2 S6 2.345515 1_555
Cu2 S2 2.356151 1_555
Cu2 S9 2.401983 1_655
Cu2 S9 2.401983 1_555
Cu3 S7 2.345515 1_555
Cu3 S3 2.356151 1_555
Cu3 S8 2.401983 1_655
Cu3 S8 2.401983 1_555
S0 Sm2 2.841091 1_445
S0 Sm2 2.841091 1_545
S1 Sm3 2.841091 1_555
S1 Sm3 2.841091 1_455
S2 Sm0 2.841091 1_565
S2 Sm0 2.841091 1_665
S3 Sm1 2.841091 1_555
S3 Sm1 2.841091 1_655
S4 Sm3 2.788884 1_455
S4 Sm3 2.788884 1_555
S5 Sm2 2.788884 1_455
S5 Sm2 2.788884 1_555
S6 Sm1 2.788884 1_655
S6 Sm1 2.788884 1_555
S7 Sm0 2.788884 1_655
S7 Sm0 2.788884 1_555
S8 Sm0 2.822252 1_555
S8 Sm1 2.834007 1_555
S9 Sm1 2.822252 1_555
S9 Sm0 2.834007 1_565
S10 Sm2 2.822252 1_555
S10 Sm3 2.834007 1_555
S11 Sm3 2.822252 1_555
S11 Sm2 2.834007 1_545
