# generated using pymatgen
data_Ca(Al2Cu)4
_symmetry_space_group_name_H-M   'P 1'
_cell_length_a   5.09881202
_cell_length_b   6.70215866
_cell_length_c   6.70163892
_cell_angle_alpha   81.68451031
_cell_angle_beta   67.65374886
_cell_angle_gamma   67.64241947
_symmetry_Int_Tables_number   1
_chemical_formula_structural   Ca(Al2Cu)4
_chemical_formula_sum   'Ca1 Al8 Cu4'
_cell_volume   195.89434361
_cell_formula_units_Z   1
loop_
 _symmetry_equiv_pos_site_id
 _symmetry_equiv_pos_as_xyz
  1  'x, y, z'
loop_
 _atom_site_type_symbol
 _atom_site_label
 _atom_site_symmetry_multiplicity
 _atom_site_fract_x
 _atom_site_fract_y
 _atom_site_fract_z
 _atom_site_occupancy
  Ca  Ca0  1  -0.00000000  0.00000000  0.00000000  1
  Al  Al0  1  0.34846646  0.65160640  0.65159786  1
  Al  Al1  1  0.00007287  0.34839360  0.65159786  1
  Al  Al2  1  0.99992713  0.65160640  0.34840214  1
  Al  Al3  1  0.65153354  0.34839360  0.34840214  1
  Al  Al4  1  0.27900930  0.22105241  0.22104715  1
  Al  Al5  1  0.50006171  0.77894759  0.22104715  1
  Al  Al6  1  0.49993829  0.22105241  0.77895285  1
  Al  Al7  1  0.72099070  0.77894759  0.77895285  1
  Cu  Cu0  1  0.50000000  0.00000000  0.50000000  1
  Cu  Cu1  1  -0.00000000  0.50000000  0.00000000  1
  Cu  Cu2  1  0.50000000  0.50000000  0.00000000  1
  Cu  Cu3  1  -0.00000000  0.00000000  0.50000000  1
loop_
_geom_bond_atom_site_label_1
_geom_bond_atom_site_label_2
_geom_bond_distance
_geom_bond_site_symmetry_2
Ca0 Cu3 3.350819 1_555
Ca0 Cu3 3.350819 1_554
Ca0 Cu1 3.351079 1_545
Ca0 Cu1 3.351079 1_555
Ca0 Cu2 3.351079 1_455
Ca0 Cu2 3.351079 1_545
Ca0 Cu0 3.351361 1_455
Ca0 Cu0 3.351361 1_554
Al0 Al3 2.657827 1_555
Al0 Cu2 2.677557 1_556
Al0 Cu0 2.677829 1_565
Al0 Cu3 2.677956 1_565
Al0 Cu1 2.678362 1_556
Al0 Al7 2.782332 1_555
Al0 Al5 2.782988 1_555
Al0 Al6 2.783023 1_555
Al0 Al7 2.783857 1_455
Al0 Ca0 3.053985 1_566
Al1 Al2 2.657827 1_455
Al1 Cu1 2.677557 1_556
Al1 Cu0 2.677829 1_555
Al1 Cu3 2.677956 1_555
Al1 Cu2 2.678362 1_456
Al1 Al6 2.782332 1_555
Al1 Al4 2.782988 1_555
Al1 Al7 2.783023 1_455
Al1 Al6 2.783857 1_455
Al1 Ca0 3.053985 1_556
Al2 Cu1 2.677557 1_655
Al2 Cu0 2.677829 1_565
Al2 Cu3 2.677956 1_665
Al2 Cu2 2.678362 1_655
Al2 Al5 2.782332 1_555
Al2 Al7 2.782988 1_555
Al2 Al4 2.783023 1_655
Al2 Al5 2.783857 1_655
Al2 Ca0 3.053985 1_665
Al3 Cu2 2.677557 1_555
Al3 Cu0 2.677829 1_555
Al3 Cu3 2.677956 1_655
Al3 Cu1 2.678362 1_655
Al3 Al4 2.782332 1_555
Al3 Al6 2.782988 1_555
Al3 Al5 2.783023 1_555
Al3 Al4 2.783857 1_655
Al3 Ca0 3.053985 1_655
Al4 Cu0 2.547557 1_555
Al4 Cu1 2.547858 1_555
Al4 Cu2 2.547871 1_555
Al4 Cu3 2.548255 1_555
Al4 Al6 2.740263 1_554
Al4 Al5 2.740317 1_545
Al4 Ca0 3.202186 1_555
Al4 Ca0 3.202208 1_655
Al5 Cu0 2.547556 1_565
Al5 Cu2 2.547858 1_555
Al5 Cu1 2.547871 1_655
Al5 Cu3 2.548255 1_565
Al5 Al7 2.740263 1_554
Al5 Ca0 3.202186 1_565
Al5 Ca0 3.202208 1_665
Al6 Cu0 2.547556 1_555
Al6 Cu2 2.547858 1_556
Al6 Cu1 2.547871 1_556
Al6 Cu3 2.548255 1_655
Al6 Al7 2.740317 1_545
Al6 Ca0 3.202186 1_656
Al6 Ca0 3.202208 1_556
Al7 Cu0 2.547557 1_565
Al7 Cu1 2.547858 1_656
Al7 Cu2 2.547871 1_556
Al7 Cu3 2.548255 1_665
Al7 Ca0 3.202186 1_666
Al7 Ca0 3.202208 1_566
Cu0 Cu3 2.549406 1_555
Cu0 Cu3 2.549406 1_655
Cu1 Cu2 2.549406 1_555
Cu1 Cu2 2.549406 1_455
