# generated using pymatgen
data_Al3P2H6O11
_symmetry_space_group_name_H-M   'P 1'
_cell_length_a   6.53524900
_cell_length_b   10.47127300
_cell_length_c   16.98431900
_cell_angle_alpha   90.00000000
_cell_angle_beta   90.00000000
_cell_angle_gamma   90.00000000
_symmetry_Int_Tables_number   1
_chemical_formula_structural   Al3P2H6O11
_chemical_formula_sum   'Al12 P8 H24 O44'
_cell_volume   1162.27731074
_cell_formula_units_Z   4
loop_
 _symmetry_equiv_pos_site_id
 _symmetry_equiv_pos_as_xyz
  1  'x, y, z'
loop_
 _atom_site_type_symbol
 _atom_site_label
 _atom_site_symmetry_multiplicity
 _atom_site_fract_x
 _atom_site_fract_y
 _atom_site_fract_z
 _atom_site_occupancy
  Al  Al0  1  0.07698300  0.21506100  0.15779800  1
  Al  Al1  1  0.92301700  0.78493900  0.65779800  1
  Al  Al2  1  0.57698300  0.28493900  0.15779800  1
  Al  Al3  1  0.42301700  0.71506100  0.65779800  1
  Al  Al4  1  0.33801700  0.24946700  0.40602100  1
  Al  Al5  1  0.66198300  0.75053300  0.90602100  1
  Al  Al6  1  0.83801700  0.25053300  0.40602100  1
  Al  Al7  1  0.16198300  0.74946700  0.90602100  1
  Al  Al8  1  0.05044100  0.27244800  0.71496000  1
  Al  Al9  1  0.94955900  0.72755200  0.21496000  1
  Al  Al10  1  0.55044100  0.22755200  0.71496000  1
  Al  Al11  1  0.44955900  0.77244800  0.21496000  1
  P  P0  1  0.07510800  0.02819300  0.00080600  1
  P  P1  1  0.92489200  0.97180700  0.50080600  1
  P  P2  1  0.57510800  0.47180700  0.00080600  1
  P  P3  1  0.42489200  0.52819300  0.50080600  1
  P  P4  1  0.35363900  0.06755100  0.26391400  1
  P  P5  1  0.64636100  0.93244900  0.76391400  1
  P  P6  1  0.85363900  0.43244900  0.26391400  1
  P  P7  1  0.14636100  0.56755100  0.76391400  1
  H  H0  1  0.01208900  0.15225700  0.76688900  1
  H  H1  1  0.98791100  0.84774300  0.26688900  1
  H  H2  1  0.51208900  0.34774300  0.76688900  1
  H  H3  1  0.48791100  0.65225700  0.26688900  1
  H  H4  1  0.28932000  0.36603100  0.08926300  1
  H  H5  1  0.71068000  0.63396900  0.58926300  1
  H  H6  1  0.78932000  0.13396900  0.08926300  1
  H  H7  1  0.21068000  0.86603100  0.58926300  1
  H  H8  1  0.26882600  0.16444700  0.61592400  1
  H  H9  1  0.73117400  0.83555300  0.11592400  1
  H  H10  1  0.76882600  0.33555300  0.61592400  1
  H  H11  1  0.23117400  0.66444700  0.11592400  1
  H  H12  1  0.34806000  0.42036600  0.36962400  1
  H  H13  1  0.65194000  0.57963400  0.86962400  1
  H  H14  1  0.84806000  0.07963400  0.36962400  1
  H  H15  1  0.15194000  0.92036600  0.86962400  1
  H  H16  1  0.32064900  0.36098900  0.57460900  1
  H  H17  1  0.67935100  0.63901100  0.07460900  1
  H  H18  1  0.82064900  0.13901100  0.57460900  1
  H  H19  1  0.17935100  0.86098900  0.07460900  1
  H  H20  1  0.23696300  0.01307400  0.46419700  1
  H  H21  1  0.76303700  0.98692600  0.96419700  1
  H  H22  1  0.73696300  0.48692600  0.46419700  1
  H  H23  1  0.26303700  0.51307400  0.96419700  1
  O  O0  1  0.14241300  0.09164600  0.22594500  1
  O  O1  1  0.85758700  0.90835400  0.72594500  1
  O  O2  1  0.64241300  0.40835400  0.22594500  1
  O  O3  1  0.35758700  0.59164600  0.72594500  1
  O  O4  1  0.32958800  0.49295700  0.01483500  1
  O  O5  1  0.67041200  0.50704300  0.51483500  1
  O  O6  1  0.82958800  0.00704300  0.01483500  1
  O  O7  1  0.17041200  0.99295700  0.51483500  1
  O  O8  1  0.30924400  0.30561100  0.13265800  1
  O  O9  1  0.69075600  0.69438900  0.63265800  1
  O  O10  1  0.80924400  0.19438900  0.13265800  1
  O  O11  1  0.19075600  0.80561100  0.63265800  1
  O  O12  1  0.31397100  0.39650800  0.52124300  1
  O  O13  1  0.68602900  0.60349200  0.02124300  1
  O  O14  1  0.81397100  0.10349200  0.52124300  1
  O  O15  1  0.18602900  0.89650800  0.02124300  1
  O  O16  1  0.13594500  0.12401400  0.06267600  1
  O  O17  1  0.86405500  0.87598600  0.56267600  1
  O  O18  1  0.63594500  0.37598600  0.06267600  1
  O  O19  1  0.36405500  0.62401400  0.56267600  1
  O  O20  1  0.34653700  0.09591300  0.35287300  1
  O  O21  1  0.65346300  0.90408700  0.85287300  1
  O  O22  1  0.84653700  0.40408700  0.35287300  1
  O  O23  1  0.15346300  0.59591300  0.85287300  1
  O  O24  1  0.01531100  0.34918200  0.22416500  1
  O  O25  1  0.98468900  0.65081800  0.72416500  1
  O  O26  1  0.51531100  0.15081800  0.22416500  1
  O  O27  1  0.48468900  0.84918200  0.72416500  1
  O  O28  1  0.20503100  0.73320200  0.15417700  1
  O  O29  1  0.79496900  0.26679800  0.65417700  1
  O  O30  1  0.70503100  0.76679800  0.15417700  1
  O  O31  1  0.29496900  0.23320200  0.65417700  1
  O  O32  1  0.09007000  0.42390100  0.75191900  1
  O  O33  1  0.90993000  0.57609900  0.25191900  1
  O  O34  1  0.59007000  0.07609900  0.75191900  1
  O  O35  1  0.40993000  0.92390100  0.25191900  1
  O  O36  1  0.38077600  0.55285900  0.41494900  1
  O  O37  1  0.61922400  0.44714100  0.91494900  1
  O  O38  1  0.88077600  0.94714100  0.41494900  1
  O  O39  1  0.11922400  0.05285900  0.91494900  1
  O  O40  1  0.08767200  0.24146700  0.43855400  1
  O  O41  1  0.91232800  0.75853300  0.93855400  1
  O  O42  1  0.58767200  0.25853300  0.43855400  1
  O  O43  1  0.41232800  0.74146700  0.93855400  1
loop_
_geom_bond_atom_site_label_1
_geom_bond_atom_site_label_2
_geom_bond_distance
_geom_bond_site_symmetry_2
Al0 O0 1.786773 1_555
Al0 O10 1.814047 1_455
Al0 O8 1.839924 1_555
Al0 O24 1.845375 1_555
Al0 O16 1.915076 1_555
Al1 O1 1.786773 1_555
Al1 O11 1.814047 1_655
Al1 O9 1.839924 1_555
Al1 O25 1.845375 1_555
Al1 O17 1.915076 1_555
Al2 O2 1.786773 1_555
Al2 O8 1.814047 1_555
Al2 O10 1.839924 1_555
Al2 O26 1.845375 1_555
Al2 O18 1.915076 1_555
Al3 O3 1.786773 1_555
Al3 O9 1.814047 1_555
Al3 O11 1.839924 1_555
Al3 O27 1.845375 1_555
Al3 O19 1.915076 1_555
Al4 O42 1.725197 1_555
Al4 O40 1.728885 1_555
Al4 O20 1.844803 1_555
Al4 H12 1.894431 1_555
Al5 O43 1.725197 1_555
Al5 O41 1.728885 1_555
Al5 O21 1.844803 1_555
Al5 H13 1.894431 1_555
Al6 O40 1.725197 1_655
Al6 O42 1.728885 1_555
Al6 O22 1.844803 1_555
Al6 H14 1.894431 1_555
Al7 O41 1.725197 1_455
Al7 O43 1.728885 1_555
Al7 O23 1.844803 1_555
Al7 H15 1.894431 1_555
Al8 H0 1.557133 1_555
Al8 O32 1.725169 1_555
Al8 O31 1.946385 1_555
Al8 O29 1.963858 1_455
Al9 H1 1.557133 1_555
Al9 O33 1.725169 1_555
Al9 O30 1.946385 1_555
Al9 O28 1.963858 1_655
Al10 H2 1.557133 1_555
Al10 O34 1.725169 1_555
Al10 O29 1.946385 1_555
Al10 O31 1.963858 1_555
Al11 H3 1.557133 1_555
Al11 O35 1.725169 1_555
Al11 O28 1.946385 1_555
Al11 O30 1.963858 1_555
H4 O8 0.980026 1_555
H5 O9 0.980026 1_555
H6 O10 0.980026 1_555
H7 O11 0.980026 1_555
H8 O31 0.984699 1_555
H9 O30 0.984699 1_555
H10 O29 0.984699 1_555
H11 O28 0.984699 1_555
H12 O36 1.600976 1_555
H13 O37 1.600976 1_555
H14 O38 1.600976 1_545
H15 O39 1.600976 1_565
H16 O12 0.980699 1_555
H17 O13 0.980699 1_555
H18 O14 0.980699 1_555
H19 O15 0.980699 1_555
H20 O7 0.986522 1_545
H21 O6 0.986522 1_566
H22 O5 0.986522 1_555
H23 O4 0.986522 1_556
O0 P4 1.544367 1_555
O1 P5 1.544367 1_555
O2 P6 1.544367 1_555
O3 P7 1.544367 1_555
O4 P2 1.637178 1_555
O5 P3 1.637178 1_555
O6 P0 1.637178 1_655
O7 P1 1.637178 1_455
O12 P3 1.596042 1_555
O13 P2 1.596042 1_555
O14 P1 1.596042 1_545
O15 P0 1.596042 1_565
O16 P0 1.506334 1_555
O17 P1 1.506334 1_555
O18 P2 1.506334 1_555
O19 P3 1.506334 1_555
O20 P4 1.540519 1_555
O21 P5 1.540519 1_555
O22 P6 1.540519 1_555
O23 P7 1.540519 1_555
O24 P6 1.527199 1_455
O25 P7 1.527199 1_655
O26 P4 1.527199 1_555
O27 P5 1.527199 1_555
O32 P7 1.561874 1_555
O33 P6 1.561874 1_555
O34 P5 1.561874 1_545
O35 P4 1.561874 1_565
O36 P3 1.508723 1_555
O37 P2 1.508723 1_556
O38 P1 1.508723 1_555
O39 P0 1.508723 1_556
