# generated using pymatgen
data_Mn2NbNi3(PO4)6
_symmetry_space_group_name_H-M   'P 1'
_cell_length_a   8.66232518
_cell_length_b   8.66232518
_cell_length_c   8.66232566
_cell_angle_alpha   60.37167926
_cell_angle_beta   60.37167926
_cell_angle_gamma   60.37168030
_symmetry_Int_Tables_number   1
_chemical_formula_structural   Mn2NbNi3(PO4)6
_chemical_formula_sum   'Mn2 Nb1 Ni3 P6 O24'
_cell_volume   463.47284738
_cell_formula_units_Z   1
loop_
 _symmetry_equiv_pos_site_id
 _symmetry_equiv_pos_as_xyz
  1  'x, y, z'
loop_
 _atom_site_type_symbol
 _atom_site_label
 _atom_site_symmetry_multiplicity
 _atom_site_fract_x
 _atom_site_fract_y
 _atom_site_fract_z
 _atom_site_occupancy
  Mn  Mn0  1  0.99443900  0.99443900  0.99443900  1
  Mn  Mn1  1  0.49934100  0.49934100  0.49934100  1
  Nb  Nb0  1  0.14383200  0.14383200  0.14383200  1
  Ni  Ni0  1  0.85460800  0.85460800  0.85460800  1
  Ni  Ni1  1  0.64274300  0.64274300  0.64274300  1
  Ni  Ni2  1  0.35638100  0.35638100  0.35638100  1
  P  P0  1  0.54972000  0.95270800  0.25265600  1
  P  P1  1  0.25265600  0.54972000  0.95270800  1
  P  P2  1  0.95270800  0.25265600  0.54972000  1
  P  P3  1  0.04489200  0.74414800  0.46037100  1
  P  P4  1  0.74414800  0.46037100  0.04489200  1
  P  P5  1  0.46037100  0.04489200  0.74414800  1
  O  O0  1  0.48999600  0.89137400  0.68645100  1
  O  O1  1  0.89137400  0.68645100  0.48999600  1
  O  O2  1  0.73893500  0.93741500  0.08960900  1
  O  O3  1  0.68645100  0.48999600  0.89137400  1
  O  O4  1  0.38542500  0.00880700  0.18287100  1
  O  O5  1  0.55168900  0.75968200  0.40847800  1
  O  O6  1  0.08960900  0.73893500  0.93741500  1
  O  O7  1  0.40847800  0.55168900  0.75968200  1
  O  O8  1  0.00922700  0.81032200  0.61120300  1
  O  O9  1  0.75968200  0.40847800  0.55168900  1
  O  O10  1  0.06753200  0.90907700  0.26067900  1
  O  O11  1  0.81032200  0.61120300  0.00922700  1
  O  O12  1  0.18287100  0.38542500  0.00880700  1
  O  O13  1  0.93741500  0.08960900  0.73893500  1
  O  O14  1  0.24243200  0.58844300  0.44096300  1
  O  O15  1  0.00880700  0.18287100  0.38542500  1
  O  O16  1  0.58844300  0.44096300  0.24243200  1
  O  O17  1  0.90907700  0.26067900  0.06753200  1
  O  O18  1  0.44096300  0.24243200  0.58844300  1
  O  O19  1  0.61120300  0.00922700  0.81032200  1
  O  O20  1  0.31653200  0.51003500  0.10698300  1
  O  O21  1  0.26067900  0.06753200  0.90907700  1
  O  O22  1  0.10698300  0.31653200  0.51003500  1
  O  O23  1  0.51003500  0.10698300  0.31653200  1
loop_
_geom_bond_atom_site_label_1
_geom_bond_atom_site_label_2
_geom_bond_distance
_geom_bond_site_symmetry_2
Mn0 O2 2.167118 1_556
Mn0 O6 2.167118 1_655
Mn0 O13 2.167118 1_565
Mn0 O21 2.358224 1_665
Mn0 O17 2.358224 1_566
Mn0 O10 2.358224 1_656
Mn1 O5 2.194096 1_555
Mn1 O9 2.194096 1_555
Mn1 O7 2.194096 1_555
Mn1 O18 2.198285 1_555
Mn1 O14 2.198285 1_555
Mn1 O16 2.198285 1_555
Nb0 O12 1.936617 1_555
Nb0 O4 1.936617 1_555
Nb0 O15 1.936617 1_555
Nb0 O10 2.056427 1_545
Nb0 O17 2.056428 1_455
Nb0 O21 2.056428 1_554
Ni0 O11 1.971333 1_556
Ni0 O19 1.971333 1_565
Ni0 O8 1.971333 1_655
Ni0 O13 2.092546 1_565
Ni0 O6 2.092546 1_655
Ni0 O2 2.092546 1_556
Ni1 O1 2.006465 1_555
Ni1 O0 2.006465 1_555
Ni1 O3 2.006465 1_555
Ni1 O7 2.127515 1_555
Ni1 O9 2.127515 1_555
Ni1 O5 2.127515 1_555
Ni2 O22 1.999470 1_555
Ni2 O23 1.999470 1_555
Ni2 O20 1.999470 1_555
Ni2 O16 2.081185 1_555
Ni2 O14 2.081185 1_555
Ni2 O18 2.081185 1_555
O0 P5 1.508970 1_565
O1 P3 1.508970 1_655
O2 P0 1.542798 1_555
O3 P4 1.508970 1_556
O4 P0 1.582205 1_545
O5 P0 1.543058 1_555
O6 P1 1.542798 1_555
O7 P1 1.543058 1_555
O8 P3 1.515726 1_555
O9 P2 1.543058 1_555
O10 P3 1.603083 1_555
O11 P4 1.515726 1_555
O12 P1 1.582204 1_554
O13 P2 1.542798 1_555
O14 P3 1.559898 1_555
O15 P2 1.582205 1_455
O16 P4 1.559898 1_555
O17 P4 1.603083 1_555
O18 P5 1.559898 1_555
O19 P5 1.515726 1_555
O20 P1 1.516266 1_554
O21 P5 1.603083 1_555
O22 P2 1.516265 1_455
O23 P0 1.516266 1_545
