# generated using pymatgen
data_CeInCu
_symmetry_space_group_name_H-M   'P 1'
_cell_length_a   7.02372800
_cell_length_b   9.53131610
_cell_length_c   9.53622614
_cell_angle_alpha   120.02460341
_cell_angle_beta   90.00000000
_cell_angle_gamma   90.00000000
_symmetry_Int_Tables_number   1
_chemical_formula_structural   CeInCu
_chemical_formula_sum   'Ce8 In8 Cu8'
_cell_volume   552.73887071
_cell_formula_units_Z   8
loop_
 _symmetry_equiv_pos_site_id
 _symmetry_equiv_pos_as_xyz
  1  'x, y, z'
loop_
 _atom_site_type_symbol
 _atom_site_label
 _atom_site_symmetry_multiplicity
 _atom_site_fract_x
 _atom_site_fract_y
 _atom_site_fract_z
 _atom_site_occupancy
  Ce  Ce0_0  1  0.00000000  0.49978300  0.49991550  1
  Ce  Ce0_1  1  0.00000000  0.49978300  0.99991550  1
  Ce  Ce0_2  1  0.00000000  0.99978300  0.49991550  1
  Ce  Ce0_3  1  0.00000000  0.99978300  0.99991550  1
  Ce  Ce0_4  1  0.50000000  0.49978300  0.49991550  1
  Ce  Ce0_5  1  0.50000000  0.49978300  0.99991550  1
  Ce  Ce0_6  1  0.50000000  0.99978300  0.49991550  1
  Ce  Ce0_7  1  0.50000000  0.99978300  0.99991550  1
  In  In0_0  1  0.25000000  0.33331950  0.16666650  1
  In  In0_1  1  0.25000000  0.33331950  0.66666650  1
  In  In0_2  1  0.25000000  0.83331950  0.16666650  1
  In  In0_3  1  0.25000000  0.83331950  0.66666650  1
  In  In0_4  1  0.75000000  0.33331950  0.16666650  1
  In  In0_5  1  0.75000000  0.33331950  0.66666650  1
  In  In0_6  1  0.75000000  0.83331950  0.16666650  1
  In  In0_7  1  0.75000000  0.83331950  0.66666650  1
  Cu  Cu0_0  1  0.25000000  0.16684750  0.33341800  1
  Cu  Cu0_1  1  0.25000000  0.16684750  0.83341800  1
  Cu  Cu0_2  1  0.25000000  0.66684750  0.33341800  1
  Cu  Cu0_3  1  0.25000000  0.66684750  0.83341800  1
  Cu  Cu0_4  1  0.75000000  0.16684750  0.33341800  1
  Cu  Cu0_5  1  0.75000000  0.16684750  0.83341800  1
  Cu  Cu0_6  1  0.75000000  0.66684750  0.33341800  1
  Cu  Cu0_7  1  0.75000000  0.66684750  0.83341800  1
loop_
_geom_bond_atom_site_label_1
_geom_bond_atom_site_label_2
_geom_bond_distance
_geom_bond_site_symmetry_2
Ce0_0 Cu0_4 3.260673 1_455
Ce0_0 Cu0_0 3.260673 1_555
Ce0_0 In0_4 3.264050 1_455
Ce0_0 In0_0 3.264050 1_555
Ce0_0 In0_1 3.264074 1_555
Ce0_0 In0_5 3.264074 1_455
Ce0_0 In0_3 3.264853 1_555
Ce0_0 In0_7 3.264853 1_455
Ce0_0 Cu0_7 3.265812 1_455
Ce0_0 Cu0_3 3.265812 1_555
Ce0_0 Cu0_6 3.266492 1_455
Ce0_0 Cu0_2 3.266492 1_555
Ce0_0 Ce0_4 3.511864 1_555
Ce0_0 Ce0_4 3.511864 1_455
Ce0_1 Cu0_1 3.260673 1_555
Ce0_1 Cu0_5 3.260673 1_455
Ce0_1 In0_1 3.264050 1_555
Ce0_1 In0_5 3.264050 1_455
Ce0_1 In0_0 3.264074 1_556
Ce0_1 In0_4 3.264074 1_456
Ce0_1 In0_6 3.264853 1_456
Ce0_1 In0_2 3.264853 1_556
Ce0_1 Cu0_6 3.265812 1_456
Ce0_1 Cu0_2 3.265812 1_556
Ce0_1 Cu0_7 3.266492 1_455
Ce0_1 Cu0_3 3.266492 1_555
Ce0_1 Ce0_5 3.511864 1_455
Ce0_1 Ce0_5 3.511864 1_555
Ce0_2 Cu0_6 3.260673 1_455
Ce0_2 Cu0_2 3.260673 1_555
Ce0_2 In0_6 3.264050 1_455
Ce0_2 In0_2 3.264050 1_555
Ce0_2 In0_7 3.264074 1_455
Ce0_2 In0_3 3.264074 1_555
Ce0_2 In0_5 3.264853 1_465
Ce0_2 In0_1 3.264853 1_565
Ce0_2 Cu0_1 3.265812 1_565
Ce0_2 Cu0_5 3.265812 1_465
Ce0_2 Cu0_0 3.266492 1_565
Ce0_2 Cu0_4 3.266492 1_465
Ce0_2 Ce0_6 3.511864 1_455
Ce0_2 Ce0_6 3.511864 1_555
Ce0_3 Cu0_7 3.260673 1_455
Ce0_3 Cu0_3 3.260673 1_555
Ce0_3 In0_3 3.264050 1_555
Ce0_3 In0_7 3.264050 1_455
Ce0_3 In0_2 3.264074 1_556
Ce0_3 In0_6 3.264074 1_456
Ce0_3 In0_4 3.264853 1_466
Ce0_3 In0_0 3.264853 1_566
Ce0_3 Cu0_4 3.265812 1_466
Ce0_3 Cu0_0 3.265812 1_566
Ce0_3 Cu0_1 3.266492 1_565
Ce0_3 Cu0_5 3.266492 1_465
Ce0_3 Ce0_7 3.511864 1_555
Ce0_3 Ce0_7 3.511864 1_455
Ce0_4 Cu0_4 3.260673 1_555
Ce0_4 Cu0_0 3.260673 1_555
Ce0_4 In0_4 3.264050 1_555
Ce0_4 In0_0 3.264050 1_555
Ce0_4 In0_1 3.264074 1_555
Ce0_4 In0_5 3.264074 1_555
Ce0_4 In0_3 3.264853 1_555
Ce0_4 In0_7 3.264853 1_555
Ce0_4 Cu0_3 3.265812 1_555
Ce0_4 Cu0_7 3.265812 1_555
Ce0_4 Cu0_2 3.266492 1_555
Ce0_4 Cu0_6 3.266492 1_555
Ce0_5 Cu0_5 3.260673 1_555
Ce0_5 Cu0_1 3.260673 1_555
Ce0_5 In0_1 3.264050 1_555
Ce0_5 In0_5 3.264050 1_555
Ce0_5 In0_0 3.264074 1_556
Ce0_5 In0_4 3.264074 1_556
Ce0_5 In0_6 3.264853 1_556
Ce0_5 In0_2 3.264853 1_556
Ce0_5 Cu0_6 3.265812 1_556
Ce0_5 Cu0_2 3.265812 1_556
Ce0_5 Cu0_3 3.266492 1_555
Ce0_5 Cu0_7 3.266492 1_555
Ce0_6 Cu0_2 3.260673 1_555
Ce0_6 Cu0_6 3.260673 1_555
Ce0_6 In0_6 3.264050 1_555
Ce0_6 In0_2 3.264050 1_555
Ce0_6 In0_7 3.264074 1_555
Ce0_6 In0_3 3.264074 1_555
Ce0_6 In0_5 3.264853 1_565
Ce0_6 In0_1 3.264853 1_565
Ce0_6 Cu0_1 3.265812 1_565
Ce0_6 Cu0_5 3.265812 1_565
Ce0_6 Cu0_0 3.266492 1_565
Ce0_6 Cu0_4 3.266492 1_565
Ce0_7 Cu0_7 3.260673 1_555
Ce0_7 Cu0_3 3.260673 1_555
Ce0_7 In0_3 3.264050 1_555
Ce0_7 In0_7 3.264050 1_555
Ce0_7 In0_2 3.264074 1_556
Ce0_7 In0_6 3.264074 1_556
Ce0_7 In0_4 3.264853 1_566
Ce0_7 In0_0 3.264853 1_566
Ce0_7 Cu0_4 3.265812 1_566
Ce0_7 Cu0_0 3.265812 1_566
Ce0_7 Cu0_1 3.266492 1_565
Ce0_7 Cu0_5 3.266492 1_565
Cu0_0 In0_1 2.751490 1_555
Cu0_0 In0_0 2.751598 1_555
Cu0_0 In0_2 2.752378 1_545
Cu0_1 In0_0 2.751490 1_556
Cu0_1 In0_1 2.751598 1_555
Cu0_1 In0_3 2.752378 1_545
Cu0_2 In0_3 2.751490 1_555
Cu0_2 In0_2 2.751598 1_555
Cu0_2 In0_0 2.752378 1_555
Cu0_3 In0_2 2.751490 1_556
Cu0_3 In0_3 2.751598 1_555
Cu0_3 In0_1 2.752378 1_555
Cu0_4 In0_5 2.751490 1_555
Cu0_4 In0_4 2.751598 1_555
Cu0_4 In0_6 2.752378 1_545
Cu0_5 In0_4 2.751490 1_556
Cu0_5 In0_5 2.751598 1_555
Cu0_5 In0_7 2.752378 1_545
Cu0_6 In0_7 2.751490 1_555
Cu0_6 In0_6 2.751598 1_555
Cu0_6 In0_4 2.752378 1_555
Cu0_7 In0_6 2.751490 1_556
Cu0_7 In0_7 2.751598 1_555
Cu0_7 In0_5 2.752378 1_555
