# generated using pymatgen
data_RbSm2CuSe4
_symmetry_space_group_name_H-M   'P 1'
_cell_length_a   7.57440201
_cell_length_b   7.57440201
_cell_length_c   14.60538900
_cell_angle_alpha   90.00000000
_cell_angle_beta   90.00000000
_cell_angle_gamma   147.76005992
_symmetry_Int_Tables_number   1
_chemical_formula_structural   RbSm2CuSe4
_chemical_formula_sum   'Rb2 Sm4 Cu2 Se8'
_cell_volume   447.00933149
_cell_formula_units_Z   2
loop_
 _symmetry_equiv_pos_site_id
 _symmetry_equiv_pos_as_xyz
  1  'x, y, z'
loop_
 _atom_site_type_symbol
 _atom_site_label
 _atom_site_symmetry_multiplicity
 _atom_site_fract_x
 _atom_site_fract_y
 _atom_site_fract_z
 _atom_site_occupancy
  Rb  Rb0  1  0.89095900  0.10904100  0.75000000  1
  Rb  Rb1  1  0.10904100  0.89095900  0.25000000  1
  Sm  Sm0  1  0.36558000  0.63442000  0.06320900  1
  Sm  Sm1  1  0.63442000  0.36558000  0.93679100  1
  Sm  Sm2  1  0.36558000  0.63442000  0.43679100  1
  Sm  Sm3  1  0.63442000  0.36558000  0.56320900  1
  Cu  Cu0  1  0.16220900  0.83779100  0.75000000  1
  Cu  Cu1  1  0.83779100  0.16220900  0.25000000  1
  Se  Se0  1  0.42938500  0.57061500  0.25000000  1
  Se  Se1  1  0.57061500  0.42938500  0.75000000  1
  Se  Se2  1  0.73771900  0.26228100  0.11196600  1
  Se  Se3  1  0.26228100  0.73771900  0.88803400  1
  Se  Se4  1  0.00000000  0.00000000  0.50000000  1
  Se  Se5  1  0.00000000  0.00000000  0.00000000  1
  Se  Se6  1  0.73771900  0.26228100  0.38803400  1
  Se  Se7  1  0.26228100  0.73771900  0.61196600  1
loop_
_geom_bond_atom_site_label_1
_geom_bond_atom_site_label_2
_geom_bond_distance
_geom_bond_site_symmetry_2
Rb0 Se1 3.355398 1_655
Rb0 Se1 3.355398 1_545
Rb0 Se3 3.463244 1_545
Rb0 Se7 3.463244 1_545
Rb0 Se7 3.463244 1_655
Rb0 Se3 3.463244 1_655
Rb0 Se5 3.981278 1_656
Rb0 Se4 3.981278 1_655
Rb1 Se0 3.355398 1_565
Rb1 Se0 3.355398 1_455
Rb1 Se6 3.463244 1_455
Rb1 Se2 3.463244 1_455
Rb1 Se2 3.463244 1_565
Rb1 Se6 3.463244 1_565
Rb1 Se4 3.981278 1_565
Rb1 Se5 3.981278 1_565
Cu0 Se7 2.487051 1_555
Cu0 Se3 2.487051 1_555
Cu0 Se1 2.489896 1_565
Cu0 Se1 2.489896 1_455
Cu1 Se2 2.487051 1_555
Cu1 Se6 2.487051 1_555
Cu1 Se0 2.489896 1_655
Cu1 Se0 2.489896 1_545
Se0 Sm2 2.881851 1_555
Se0 Sm0 2.881851 1_555
Se1 Sm1 2.881851 1_555
Se1 Sm3 2.881851 1_555
Se2 Sm0 2.896957 1_545
Se2 Sm0 2.896957 1_655
Se2 Sm1 2.967477 1_554
Se3 Sm1 2.896957 1_455
Se3 Sm1 2.896957 1_565
Se3 Sm0 2.967477 1_556
Se4 Sm3 3.016934 1_445
Se4 Sm2 3.016934 1_555
Se4 Sm2 3.016934 1_445
Se4 Sm3 3.016934 1_555
Se5 Sm0 3.016934 1_555
Se5 Sm0 3.016934 1_445
Se5 Sm1 3.016934 1_444
Se5 Sm1 3.016934 1_554
Se6 Sm2 2.896957 1_655
Se6 Sm2 2.896957 1_545
Se6 Sm3 2.967477 1_555
Se7 Sm3 2.896957 1_455
Se7 Sm3 2.896957 1_565
Se7 Sm2 2.967477 1_555
