# generated using pymatgen
data_Ta4Cr
_symmetry_space_group_name_H-M   'P 1'
_cell_length_a   6.53196677
_cell_length_b   6.53196677
_cell_length_c   6.53196677
_cell_angle_alpha   60.00000000
_cell_angle_beta   60.00000000
_cell_angle_gamma   60.00000000
_symmetry_Int_Tables_number   1
_chemical_formula_structural   Ta4Cr
_chemical_formula_sum   'Ta8 Cr2'
_cell_volume   197.06836023
_cell_formula_units_Z   2
loop_
 _symmetry_equiv_pos_site_id
 _symmetry_equiv_pos_as_xyz
  1  'x, y, z'
loop_
 _atom_site_type_symbol
 _atom_site_label
 _atom_site_symmetry_multiplicity
 _atom_site_fract_x
 _atom_site_fract_y
 _atom_site_fract_z
 _atom_site_occupancy
  Ta  Ta0  1  0.60663600  0.60663600  0.60663600  1
  Ta  Ta1  1  0.18009300  0.60663600  0.60663600  1
  Ta  Ta2  1  0.60663600  0.18009300  0.60663600  1
  Ta  Ta3  1  0.56990700  0.14336400  0.14336400  1
  Ta  Ta4  1  0.14336400  0.14336400  0.14336400  1
  Ta  Ta5  1  0.60663600  0.60663600  0.18009300  1
  Ta  Ta6  1  0.14336400  0.56990700  0.14336400  1
  Ta  Ta7  1  0.14336400  0.14336400  0.56990700  1
  Cr  Cr0  1  0.00000000  0.00000000  0.00000000  1
  Cr  Cr1  1  0.75000000  0.75000000  0.75000000  1
loop_
_geom_bond_atom_site_label_1
_geom_bond_atom_site_label_2
_geom_bond_distance
_geom_bond_site_symmetry_2
Cr0 Ta4 2.293822 1_555
Cr0 Ta7 2.293827 1_554
Cr0 Ta6 2.293827 1_545
Cr0 Ta3 2.293827 1_455
Cr1 Ta0 2.293822 1_555
Cr1 Ta1 2.293827 1_655
Cr1 Ta2 2.293827 1_565
Cr1 Ta5 2.293827 1_556
