# generated using pymatgen
data_SrLaEuNbO6
_symmetry_space_group_name_H-M   'P 1'
_cell_length_a   5.90359687
_cell_length_b   6.08077422
_cell_length_c   8.47719274
_cell_angle_alpha   89.78280112
_cell_angle_beta   90.68204648
_cell_angle_gamma   89.96092617
_symmetry_Int_Tables_number   1
_chemical_formula_structural   SrLaEuNbO6
_chemical_formula_sum   'Sr2 La2 Eu2 Nb2 O12'
_cell_volume   304.29416389
_cell_formula_units_Z   2
loop_
 _symmetry_equiv_pos_site_id
 _symmetry_equiv_pos_as_xyz
  1  'x, y, z'
loop_
 _atom_site_type_symbol
 _atom_site_label
 _atom_site_symmetry_multiplicity
 _atom_site_fract_x
 _atom_site_fract_y
 _atom_site_fract_z
 _atom_site_occupancy
  Sr  Sr0  1  0.98716379  0.05006166  0.25013434  1
  Sr  Sr1  1  0.01283621  0.94993834  0.74986566  1
  La  La0  1  0.00000000  0.50000000  -0.00000000  1
  La  La1  1  0.50000000  -0.00000000  0.50000000  1
  Eu  Eu0  1  0.51629597  0.55274678  0.24858730  1
  Eu  Eu1  1  0.48370403  0.44725322  0.75141270  1
  Nb  Nb0  1  0.50000000  -0.00000000  -0.00000000  1
  Nb  Nb1  1  0.00000000  0.50000000  0.50000000  1
  O  O0  1  0.22153464  0.18286506  0.94604041  1
  O  O1  1  0.27794273  0.68123525  0.55864111  1
  O  O2  1  0.77846536  0.81713494  0.05395959  1
  O  O3  1  0.72205727  0.31876475  0.44135889  1
  O  O4  1  0.32785932  0.71862759  0.93887358  1
  O  O5  1  0.17552091  0.22155601  0.56010793  1
  O  O6  1  0.67214068  0.28137241  0.06112642  1
  O  O7  1  0.82447909  0.77844399  0.43989207  1
  O  O8  1  0.39668664  0.95452765  0.22698150  1
  O  O9  1  0.11291295  0.46231151  0.27376924  1
  O  O10  1  0.60331336  0.04547235  0.77301850  1
  O  O11  1  0.88708705  0.53768849  0.72623076  1
loop_
_geom_bond_atom_site_label_1
_geom_bond_atom_site_label_2
_geom_bond_distance
_geom_bond_site_symmetry_2
La0 O0 2.378241 1_554
La0 O2 2.378241 1_455
La0 O6 2.409232 1_455
La0 O4 2.409232 1_554
La0 O9 2.416999 1_555
La0 O11 2.416999 1_454
La1 O3 2.394681 1_555
La1 O1 2.394681 1_545
La1 O5 2.401894 1_555
La1 O7 2.401894 1_545
La1 O8 2.403440 1_545
La1 O10 2.403440 1_555
Eu0 O9 2.456032 1_555
Eu0 O3 2.470456 1_555
Eu0 O6 2.479420 1_555
Eu0 O8 2.547992 1_555
Eu0 O2 2.783234 1_555
Eu0 O7 2.788141 1_555
Eu0 O4 3.009505 1_554
Eu0 O1 3.098552 1_555
Eu1 O11 2.456032 1_555
Eu1 O1 2.470456 1_555
Eu1 O4 2.479420 1_555
Eu1 O10 2.547992 1_555
Eu1 O0 2.783234 1_555
Eu1 O5 2.788141 1_555
Eu1 O6 3.009505 1_556
Eu1 O3 3.098552 1_555
Nb0 O2 2.030765 1_545
Nb0 O0 2.030765 1_554
Nb0 O10 2.043284 1_554
Nb0 O8 2.043284 1_545
Nb0 O4 2.055534 1_544
Nb0 O6 2.055534 1_555
Nb1 O1 2.035010 1_555
Nb1 O3 2.035010 1_455
Nb1 O7 2.044169 1_455
Nb1 O5 2.044169 1_555
Nb1 O9 2.051436 1_555
Nb1 O11 2.051436 1_455
O0 Sr1 2.502235 1_545
O0 Sr0 3.046736 1_456
O1 Sr1 2.797137 1_555
O2 Sr0 2.502235 1_565
O2 Sr1 3.046736 1_654
O3 Sr0 2.797137 1_555
O4 Sr1 2.812961 1_555
O5 Sr1 2.501357 1_545
O5 Sr0 3.030117 1_455
O6 Sr0 2.812961 1_555
O7 Sr0 2.501357 1_565
O7 Sr1 3.030117 1_655
O8 Sr0 2.496258 1_465
O9 Sr0 2.622614 1_455
O10 Sr1 2.496258 1_645
O11 Sr1 2.622614 1_655
