# generated using pymatgen
data_La(AsIr)2
_symmetry_space_group_name_H-M   'P 1'
_cell_length_a   4.32038598
_cell_length_b   4.32038598
_cell_length_c   10.02343822
_cell_angle_alpha   90.00000000
_cell_angle_beta   90.00000000
_cell_angle_gamma   90.00000000
_symmetry_Int_Tables_number   1
_chemical_formula_structural   La(AsIr)2
_chemical_formula_sum   'La2 As4 Ir4'
_cell_volume   187.09484177
_cell_formula_units_Z   2
loop_
 _symmetry_equiv_pos_site_id
 _symmetry_equiv_pos_as_xyz
  1  'x, y, z'
loop_
 _atom_site_type_symbol
 _atom_site_label
 _atom_site_symmetry_multiplicity
 _atom_site_fract_x
 _atom_site_fract_y
 _atom_site_fract_z
 _atom_site_occupancy
  La  La0  1  -0.00000000  0.50000000  0.24704390  1
  La  La1  1  0.50000000  -0.00000000  0.75296146  1
  As  As0  1  0.00000000  -0.00000000  0.00000950  1
  As  As1  1  0.50000000  0.50000000  0.00000950  1
  As  As2  1  -0.00000000  0.50000000  0.63891703  1
  As  As3  1  0.50000000  -0.00000000  0.36104876  1
  Ir  Ir0  1  -0.00000000  0.00000000  0.49999104  1
  Ir  Ir1  1  0.50000000  0.50000000  0.49999104  1
  Ir  Ir2  1  0.00000000  0.50000000  0.88373906  1
  Ir  Ir3  1  0.50000000  0.00000000  0.11629071  1
loop_
_geom_bond_atom_site_label_1
_geom_bond_atom_site_label_2
_geom_bond_distance
_geom_bond_site_symmetry_2
As0 Ir2 2.454518 1_554
As0 Ir2 2.454518 1_544
As0 Ir3 2.454570 1_555
As0 Ir3 2.454570 1_455
As0 La0 3.285981 1_545
As0 La0 3.285981 1_555
As0 La1 3.286084 1_554
As0 La1 3.286084 1_454
As1 Ir2 2.454518 1_554
As1 Ir2 2.454518 1_654
As1 Ir3 2.454570 1_565
As1 Ir3 2.454570 1_555
As1 La0 3.285981 1_555
As1 La0 3.285981 1_655
As1 La1 3.286084 1_554
As1 La1 3.286084 1_564
As2 Ir2 2.453958 1_555
As2 Ir1 2.570123 1_555
As2 Ir0 2.570123 1_565
As2 Ir1 2.570123 1_455
As2 Ir0 2.570123 1_555
As2 La1 3.261838 1_455
As2 La1 3.261838 1_465
As2 La1 3.261838 1_565
As2 La1 3.261838 1_555
As3 Ir3 2.453317 1_555
As3 Ir0 2.570212 1_655
As3 Ir0 2.570212 1_555
As3 Ir1 2.570212 1_545
As3 Ir1 2.570212 1_555
As3 La0 3.261699 1_655
As3 La0 3.261699 1_545
As3 La0 3.261699 1_645
As3 La0 3.261699 1_555
Ir0 La0 3.330869 1_545
Ir0 La0 3.330869 1_555
Ir0 La1 3.331046 1_455
Ir0 La1 3.331046 1_555
Ir1 La0 3.330869 1_555
Ir1 La0 3.330869 1_655
Ir1 La1 3.331046 1_555
Ir1 La1 3.331046 1_565
Ir2 La1 3.324330 1_455
Ir2 La1 3.324330 1_555
Ir2 La1 3.324330 1_465
Ir2 La1 3.324330 1_565
Ir3 La0 3.324234 1_655
Ir3 La0 3.324234 1_545
Ir3 La0 3.324234 1_645
Ir3 La0 3.324234 1_555
