# generated using pymatgen
data_TaCr3(AgS4)2
_symmetry_space_group_name_H-M   'P 1'
_cell_length_a   11.57910077
_cell_length_b   7.28299434
_cell_length_c   12.27603400
_cell_angle_alpha   90.00000000
_cell_angle_beta   90.00000000
_cell_angle_gamma   87.82798587
_symmetry_Int_Tables_number   1
_chemical_formula_structural   TaCr3(AgS4)2
_chemical_formula_sum   'Ta4 Cr12 Ag8 S32'
_cell_volume   1034.50062361
_cell_formula_units_Z   4
loop_
 _symmetry_equiv_pos_site_id
 _symmetry_equiv_pos_as_xyz
  1  'x, y, z'
loop_
 _atom_site_type_symbol
 _atom_site_label
 _atom_site_symmetry_multiplicity
 _atom_site_fract_x
 _atom_site_fract_y
 _atom_site_fract_z
 _atom_site_occupancy
  Ta  Ta0  1  0.09850800  0.91096400  0.68751100  1
  Ta  Ta1  1  0.90149200  0.08903600  0.18751100  1
  Ta  Ta2  1  0.38554500  0.39368300  0.83150200  1
  Ta  Ta3  1  0.61445500  0.60631700  0.33150200  1
  Cr  Cr0  1  0.38039800  0.86595300  0.19584400  1
  Cr  Cr1  1  0.61960200  0.13404700  0.69584400  1
  Cr  Cr2  1  0.12756600  0.36559200  0.32716300  1
  Cr  Cr3  1  0.87243400  0.63440800  0.82716300  1
  Cr  Cr4  1  0.16361500  0.62503000  0.93974200  1
  Cr  Cr5  1  0.83638500  0.37497000  0.43974200  1
  Cr  Cr6  1  0.34043800  0.62213900  0.44571100  1
  Cr  Cr7  1  0.65956200  0.37786100  0.94571100  1
  Cr  Cr8  1  0.13571100  0.14395800  0.99120200  1
  Cr  Cr9  1  0.86428900  0.85604200  0.49120200  1
  Cr  Cr10  1  0.35870100  0.11381500  0.49546500  1
  Cr  Cr11  1  0.64129900  0.88618500  0.99546500  1
  Ag  Ag0  1  0.10253400  0.37435100  0.66934000  1
  Ag  Ag1  1  0.89746600  0.62564900  0.16934000  1
  Ag  Ag2  1  0.40721400  0.36137900  0.17356800  1
  Ag  Ag3  1  0.59278600  0.63862100  0.67356800  1
  Ag  Ag4  1  0.11795500  0.87662300  0.32498600  1
  Ag  Ag5  1  0.88204500  0.12337700  0.82498600  1
  Ag  Ag6  1  0.38229900  0.88029100  0.82115400  1
  Ag  Ag7  1  0.61770100  0.11970900  0.32115400  1
  S  S0  1  0.02071000  0.84206600  0.87676600  1
  S  S1  1  0.97929000  0.15793400  0.37676600  1
  S  S2  1  0.46868100  0.85259700  0.37891700  1
  S  S3  1  0.53131900  0.14740300  0.87891700  1
  S  S4  1  0.04067400  0.32547900  0.14611700  1
  S  S5  1  0.95932600  0.67452100  0.64611700  1
  S  S6  1  0.45986200  0.34194100  0.64857900  1
  S  S7  1  0.54013800  0.65805900  0.14857900  1
  S  S8  1  0.02409200  0.41022500  0.88282200  1
  S  S9  1  0.97590800  0.58977500  0.38282200  1
  S  S10  1  0.48382500  0.40184000  0.39841800  1
  S  S11  1  0.51617500  0.59816000  0.89841800  1
  S  S12  1  0.03430900  0.88067600  0.12286000  1
  S  S13  1  0.96569100  0.11932400  0.62286000  1
  S  S14  1  0.47804100  0.93788900  0.63228500  1
  S  S15  1  0.52195900  0.06211100  0.13228500  1
  S  S16  1  0.22323600  0.87058300  0.53299800  1
  S  S17  1  0.77676400  0.12941700  0.03299800  1
  S  S18  1  0.27535800  0.87597300  0.02194000  1
  S  S19  1  0.72464200  0.12402700  0.52194000  1
  S  S20  1  0.22616300  0.37576800  0.49902100  1
  S  S21  1  0.77383700  0.62423200  0.99902100  1
  S  S22  1  0.27797800  0.36847000  0.00319100  1
  S  S23  1  0.72202200  0.63153000  0.50319100  1
  S  S24  1  0.21343700  0.11416300  0.80247600  1
  S  S25  1  0.78656300  0.88583700  0.30247600  1
  S  S26  1  0.28107900  0.12776600  0.30399000  1
  S  S27  1  0.71892100  0.87223400  0.80399000  1
  S  S28  1  0.24224200  0.61277000  0.76621600  1
  S  S29  1  0.75775800  0.38723000  0.26621600  1
  S  S30  1  0.26225900  0.61384000  0.27422000  1
  S  S31  1  0.73774200  0.38616000  0.77422000  1
loop_
_geom_bond_atom_site_label_1
_geom_bond_atom_site_label_2
_geom_bond_distance
_geom_bond_site_symmetry_2
Cr0 S15 2.348202 1_565
Cr0 S7 2.416204 1_555
Cr0 S18 2.456725 1_555
Cr0 S2 2.469362 1_555
Cr0 S30 2.521663 1_555
Cr0 S26 2.560213 1_565
Cr1 S14 2.348202 1_545
Cr1 S6 2.416204 1_555
Cr1 S19 2.456725 1_555
Cr1 S3 2.469362 1_555
Cr1 S31 2.521670 1_555
Cr1 S27 2.560213 1_545
Cr2 S20 2.401309 1_555
Cr2 S1 2.408867 1_455
Cr2 S9 2.449301 1_455
Cr2 S26 2.450985 1_555
Cr2 S4 2.461616 1_555
Cr2 S30 2.517419 1_555
Cr3 S21 2.401309 1_555
Cr3 S0 2.408867 1_655
Cr3 S8 2.449301 1_655
Cr3 S27 2.450985 1_555
Cr3 S5 2.461616 1_555
Cr3 S31 2.517411 1_555
Cr4 S28 2.317001 1_555
Cr4 S0 2.374029 1_555
Cr4 S22 2.379933 1_556
Cr4 S8 2.395257 1_555
Cr4 S18 2.492343 1_556
Cr5 S29 2.317001 1_555
Cr5 S1 2.374029 1_555
Cr5 S23 2.379933 1_555
Cr5 S9 2.395257 1_555
Cr5 S19 2.492343 1_555
Cr6 S30 2.293307 1_555
Cr6 S10 2.337933 1_555
Cr6 S20 2.361926 1_555
Cr6 S2 2.425575 1_555
Cr6 S16 2.465310 1_555
Cr7 S31 2.293311 1_555
Cr7 S11 2.337933 1_555
Cr7 S21 2.361926 1_555
Cr7 S3 2.425575 1_555
Cr7 S17 2.465310 1_556
Cr8 S22 2.369203 1_556
Cr8 S24 2.491962 1_555
Cr8 S18 2.515368 1_546
Cr8 S4 2.542646 1_556
Cr8 S8 2.647865 1_555
Cr8 S12 2.799684 1_546
Cr8 S0 2.966953 1_545
Cr9 S23 2.369203 1_555
Cr9 S25 2.491962 1_555
Cr9 S19 2.515368 1_565
Cr9 S5 2.542646 1_555
Cr9 S9 2.647865 1_555
Cr9 S13 2.799684 1_565
Cr9 S1 2.966953 1_565
Cr10 S20 2.403102 1_555
Cr10 S16 2.453847 1_545
Cr10 S14 2.497605 1_545
Cr10 S26 2.517207 1_555
Cr10 S2 2.665415 1_545
Cr10 S6 2.795172 1_555
Cr10 S10 2.854655 1_555
Cr11 S21 2.403102 1_555
Cr11 S17 2.453847 1_566
Cr11 S15 2.497605 1_566
Cr11 S27 2.517207 1_555
Cr11 S3 2.665415 1_565
Cr11 S7 2.795172 1_556
Cr11 S11 2.854655 1_555
Ag0 S20 2.534181 1_555
Ag0 S13 2.551302 1_455
Ag0 S28 2.694304 1_555
Ag0 S5 2.708391 1_455
Ag0 S24 2.779683 1_555
Ag0 S8 2.782695 1_555
Ag1 S21 2.534181 1_554
Ag1 S12 2.551302 1_655
Ag1 S29 2.694304 1_555
Ag1 S4 2.708391 1_655
Ag1 S25 2.779683 1_555
Ag1 S9 2.782695 1_555
Ag2 S15 2.559910 1_555
Ag2 S22 2.571134 1_555
Ag2 S7 2.717323 1_555
Ag2 S30 2.736915 1_555
Ag2 S26 2.789208 1_555
Ag2 S10 2.917643 1_555
Ag3 S14 2.559910 1_555
Ag3 S23 2.571134 1_555
Ag3 S6 2.717323 1_555
Ag3 S31 2.736922 1_555
Ag3 S27 2.789208 1_555
Ag3 S11 2.917643 1_555
Ag4 S30 2.569191 1_555
Ag4 S1 2.632534 1_465
Ag4 S12 2.663393 1_555
Ag4 S26 2.691002 1_565
Ag4 S9 2.798970 1_455
Ag4 S16 2.829250 1_555
Ag5 S31 2.569184 1_555
Ag5 S0 2.632534 1_645
Ag5 S13 2.663393 1_555
Ag5 S27 2.691002 1_545
Ag5 S8 2.798970 1_655
Ag5 S17 2.829250 1_556
Ag6 S24 2.554292 1_565
Ag6 S14 2.610739 1_555
Ag6 S28 2.668418 1_555
Ag6 S11 2.698749 1_555
Ag6 S3 2.742109 1_565
Ag6 S18 2.759129 1_556
Ag7 S25 2.554292 1_545
Ag7 S15 2.610739 1_555
Ag7 S29 2.668418 1_555
Ag7 S10 2.698749 1_555
Ag7 S2 2.742109 1_545
Ag7 S19 2.759129 1_555
S0 Ta0 2.548583 1_555
S1 Ta1 2.548583 1_555
S2 Ta3 2.485082 1_555
S3 Ta2 2.485082 1_555
S4 Ta1 2.455844 1_455
S5 Ta0 2.455844 1_655
S6 Ta2 2.429096 1_555
S7 Ta3 2.429096 1_555
S10 Ta3 2.313259 1_555
S11 Ta2 2.313259 1_555
S12 Ta1 2.262940 1_465
S13 Ta0 2.262940 1_645
S16 Ta0 2.395411 1_555
S17 Ta1 2.395411 1_555
S22 Ta2 2.458583 1_554
S23 Ta3 2.458583 1_555
S24 Ta0 2.470252 1_545
S24 Ta2 2.924073 1_555
S25 Ta1 2.470252 1_565
S25 Ta3 2.924073 1_555
S28 Ta2 2.396028 1_555
S28 Ta0 2.854110 1_555
S29 Ta3 2.396028 1_555
S29 Ta1 2.854110 1_555
