# generated using pymatgen
data_YbAlPt
_symmetry_space_group_name_H-M   'P 1'
_cell_length_a   4.21060500
_cell_length_b   7.16715500
_cell_length_c   7.86925900
_cell_angle_alpha   90.00000000
_cell_angle_beta   90.00000000
_cell_angle_gamma   90.00000000
_symmetry_Int_Tables_number   1
_chemical_formula_structural   YbAlPt
_chemical_formula_sum   'Yb4 Al4 Pt4'
_cell_volume   237.47895986
_cell_formula_units_Z   4
loop_
 _symmetry_equiv_pos_site_id
 _symmetry_equiv_pos_as_xyz
  1  'x, y, z'
loop_
 _atom_site_type_symbol
 _atom_site_label
 _atom_site_symmetry_multiplicity
 _atom_site_fract_x
 _atom_site_fract_y
 _atom_site_fract_z
 _atom_site_occupancy
  Yb  Yb0  1  0.25000000  0.02816600  0.32655200  1
  Yb  Yb1  1  0.25000000  0.52816600  0.17344800  1
  Yb  Yb2  1  0.75000000  0.97183400  0.67344800  1
  Yb  Yb3  1  0.75000000  0.47183400  0.82655200  1
  Al  Al0  1  0.25000000  0.13874500  0.93785800  1
  Al  Al1  1  0.25000000  0.63874500  0.56214200  1
  Al  Al2  1  0.75000000  0.86125500  0.06214200  1
  Al  Al3  1  0.75000000  0.36125500  0.43785800  1
  Pt  Pt0  1  0.25000000  0.28156500  0.62299100  1
  Pt  Pt1  1  0.25000000  0.78156500  0.87700900  1
  Pt  Pt2  1  0.75000000  0.71843500  0.37700900  1
  Pt  Pt3  1  0.75000000  0.21843500  0.12299100  1
loop_
_geom_bond_atom_site_label_1
_geom_bond_atom_site_label_2
_geom_bond_distance
_geom_bond_site_symmetry_2
Al0 Pt1 2.604362 1_545
Al0 Pt3 2.623157 1_556
Al0 Pt3 2.623157 1_456
Al0 Pt0 2.680882 1_555
Al1 Pt0 2.604362 1_555
Al1 Pt2 2.623157 1_555
Al1 Pt2 2.623157 1_455
Al1 Pt1 2.680882 1_555
Al2 Pt3 2.604362 1_565
Al2 Pt1 2.623157 1_654
Al2 Pt1 2.623157 1_554
Al2 Pt2 2.680882 1_555
Al3 Pt2 2.604362 1_555
Al3 Pt0 2.623157 1_555
Al3 Pt0 2.623157 1_655
Al3 Pt3 2.680882 1_555
Pt0 Yb0 2.956374 1_555
Pt0 Yb3 2.976230 1_455
Pt0 Yb3 2.976230 1_555
Pt0 Yb2 3.085104 1_445
Pt0 Yb2 3.085104 1_545
Pt1 Yb1 2.956374 1_556
Pt1 Yb2 2.976230 1_455
Pt1 Yb2 2.976230 1_555
Pt1 Yb3 3.085104 1_455
Pt1 Yb3 3.085104 1_555
Pt2 Yb2 2.956374 1_555
Pt2 Yb1 2.976230 1_555
Pt2 Yb1 2.976230 1_655
Pt2 Yb0 3.085104 1_565
Pt2 Yb0 3.085104 1_665
Pt3 Yb3 2.956374 1_554
Pt3 Yb0 2.976230 1_555
Pt3 Yb0 2.976230 1_655
Pt3 Yb1 3.085104 1_555
Pt3 Yb1 3.085104 1_655
