# generated using pymatgen
data_Bi2Pt3Se2
_symmetry_space_group_name_H-M   'P 1'
_cell_length_a   7.51029355
_cell_length_b   7.51029355
_cell_length_c   7.51029355
_cell_angle_alpha   109.47122063
_cell_angle_beta   109.47122063
_cell_angle_gamma   109.47122063
_symmetry_Int_Tables_number   1
_chemical_formula_structural   Bi2Pt3Se2
_chemical_formula_sum   'Bi4 Pt6 Se4'
_cell_volume   326.09853323
_cell_formula_units_Z   2
loop_
 _symmetry_equiv_pos_site_id
 _symmetry_equiv_pos_as_xyz
  1  'x, y, z'
loop_
 _atom_site_type_symbol
 _atom_site_label
 _atom_site_symmetry_multiplicity
 _atom_site_fract_x
 _atom_site_fract_y
 _atom_site_fract_z
 _atom_site_occupancy
  Bi  Bi0  1  0.03286200  0.50000000  0.00000000  1
  Bi  Bi1  1  0.00000000  0.03286200  0.50000000  1
  Bi  Bi2  1  0.50000000  0.00000000  0.03286200  1
  Bi  Bi3  1  0.46713800  0.46713800  0.46713800  1
  Pt  Pt0  1  0.54373100  0.75000000  0.29373100  1
  Pt  Pt1  1  0.25000000  0.20626900  0.95626900  1
  Pt  Pt2  1  0.29373100  0.54373100  0.75000000  1
  Pt  Pt3  1  0.95626900  0.25000000  0.20626900  1
  Pt  Pt4  1  0.75000000  0.29373100  0.54373100  1
  Pt  Pt5  1  0.20626900  0.95626900  0.25000000  1
  Se  Se0  1  0.56506200  0.50000000  0.00000000  1
  Se  Se1  1  0.00000000  0.56506200  0.50000000  1
  Se  Se2  1  0.50000000  0.00000000  0.56506200  1
  Se  Se3  1  0.93493800  0.93493800  0.93493800  1
loop_
_geom_bond_atom_site_label_1
_geom_bond_atom_site_label_2
_geom_bond_distance
_geom_bond_site_symmetry_2
Bi0 Pt5 2.840625 1_555
Bi0 Pt3 2.840625 1_455
Bi0 Pt4 2.840625 1_454
Bi0 Pt2 3.147398 1_554
Bi0 Pt0 3.147398 1_555
Bi0 Pt1 3.147398 1_554
Bi1 Pt5 2.840625 1_545
Bi1 Pt1 2.840625 1_555
Bi1 Pt0 2.840625 1_445
Bi1 Pt4 3.147398 1_455
Bi1 Pt2 3.147398 1_555
Bi1 Pt3 3.147398 1_455
Bi2 Pt1 2.840625 1_554
Bi2 Pt3 2.840625 1_555
Bi2 Pt2 2.840625 1_544
Bi2 Pt0 3.147398 1_545
Bi2 Pt4 3.147398 1_555
Bi2 Pt5 3.147398 1_545
Bi3 Pt0 2.840625 1_555
Bi3 Pt4 2.840625 1_555
Bi3 Pt2 2.840625 1_555
Bi3 Pt5 3.147398 1_545
Bi3 Pt3 3.147398 1_455
Bi3 Pt1 3.147398 1_554
Pt0 Se0 2.468248 1_555
Pt0 Se2 2.468248 1_565
Pt1 Se0 2.468248 1_556
Pt1 Se3 2.468248 1_445
Pt2 Se1 2.468248 1_555
Pt2 Se0 2.468248 1_556
Pt3 Se1 2.468248 1_655
Pt3 Se3 2.468248 1_544
Pt4 Se2 2.468248 1_555
Pt4 Se1 2.468248 1_655
Pt5 Se2 2.468248 1_565
Pt5 Se3 2.468248 1_454
