# generated using pymatgen
data_Cs(CrS2)2
_symmetry_space_group_name_H-M   'P 1'
_cell_length_a   5.96831226
_cell_length_b   6.89201463
_cell_length_c   16.72845945
_cell_angle_alpha   90.00000000
_cell_angle_beta   90.00000000
_cell_angle_gamma   90.00000000
_symmetry_Int_Tables_number   1
_chemical_formula_structural   Cs(CrS2)2
_chemical_formula_sum   'Cs4 Cr8 S16'
_cell_volume   688.10335573
_cell_formula_units_Z   4
loop_
 _symmetry_equiv_pos_site_id
 _symmetry_equiv_pos_as_xyz
  1  'x, y, z'
loop_
 _atom_site_type_symbol
 _atom_site_label
 _atom_site_symmetry_multiplicity
 _atom_site_fract_x
 _atom_site_fract_y
 _atom_site_fract_z
 _atom_site_occupancy
  Cs  Cs0  1  0.36317119  0.00000000  0.00000000  1
  Cs  Cs1  1  0.63682881  0.50000000  0.50000000  1
  Cs  Cs2  1  0.03255618  0.00000000  0.50000000  1
  Cs  Cs3  1  0.96744382  0.50000000  0.00000000  1
  Cr  Cr0  1  0.00592671  0.00000000  0.25072396  1
  Cr  Cr1  1  0.00592671  0.00000000  0.74927604  1
  Cr  Cr2  1  -0.00592671  0.50000000  0.24927604  1
  Cr  Cr3  1  -0.00592671  0.50000000  0.75072396  1
  Cr  Cr4  1  0.50000000  0.25000000  0.25000000  1
  Cr  Cr5  1  0.50000000  0.75000000  0.75000000  1
  Cr  Cr6  1  0.50000000  0.75000000  0.25000000  1
  Cr  Cr7  1  0.50000000  0.25000000  0.75000000  1
  S  S0  1  0.83426229  0.24962795  0.32969175  1
  S  S1  1  0.83426229  0.75037205  0.67030825  1
  S  S2  1  0.16573771  0.74962795  0.17030825  1
  S  S3  1  0.16573771  0.25037205  0.82969175  1
  S  S4  1  0.16573771  0.25037205  0.17030825  1
  S  S5  1  0.16573771  0.74962795  0.82969175  1
  S  S6  1  0.83426229  0.75037205  0.32969175  1
  S  S7  1  0.83426229  0.24962795  0.67030825  1
  S  S8  1  0.67274884  0.00000000  0.17116218  1
  S  S9  1  0.67274884  0.00000000  0.82883782  1
  S  S10  1  0.32725116  0.50000000  0.32883782  1
  S  S11  1  0.32725116  0.50000000  0.67116218  1
  S  S12  1  0.34010926  0.00000000  0.32994765  1
  S  S13  1  0.34010926  0.00000000  0.67005235  1
  S  S14  1  0.65989074  0.50000000  0.17005235  1
  S  S15  1  0.65989074  0.50000000  0.82994765  1
loop_
_geom_bond_atom_site_label_1
_geom_bond_atom_site_label_2
_geom_bond_distance
_geom_bond_site_symmetry_2
Cs0 S9 3.407668 1_554
Cs0 S8 3.407668 1_555
Cs0 S5 3.533108 1_544
Cs0 S3 3.533108 1_554
Cs0 S2 3.533108 1_545
Cs0 S4 3.533108 1_555
Cs1 S10 3.407668 1_555
Cs1 S11 3.407668 1_555
Cs1 S0 3.533108 1_555
Cs1 S6 3.533108 1_555
Cs1 S7 3.533108 1_555
Cs1 S1 3.533108 1_555
Cs2 S13 3.385517 1_555
Cs2 S12 3.385517 1_555
Cs2 S6 3.532323 1_445
Cs2 S0 3.532323 1_455
Cs2 S1 3.532323 1_445
Cs2 S7 3.532323 1_455
Cs3 S15 3.385517 1_554
Cs3 S14 3.385517 1_555
Cs3 S3 3.532323 1_654
Cs3 S5 3.532323 1_654
Cs3 S4 3.532323 1_655
Cs3 S2 3.532323 1_655
Cr0 S2 2.386832 1_545
Cr0 S4 2.386832 1_555
Cr0 S8 2.392820 1_455
Cr0 S12 2.394671 1_555
Cr0 S6 2.398890 1_445
Cr0 S0 2.398890 1_455
Cr1 S3 2.386832 1_555
Cr1 S5 2.386832 1_545
Cr1 S9 2.392820 1_455
Cr1 S13 2.394671 1_555
Cr1 S1 2.398890 1_445
Cr1 S7 2.398890 1_455
Cr2 S0 2.386832 1_455
Cr2 S6 2.386832 1_455
Cr2 S10 2.392820 1_555
Cr2 S14 2.394671 1_455
Cr2 S4 2.398890 1_555
Cr2 S2 2.398890 1_555
Cr3 S7 2.386832 1_455
Cr3 S1 2.386832 1_455
Cr3 S11 2.392820 1_555
Cr3 S15 2.394671 1_455
Cr3 S3 2.398890 1_555
Cr3 S5 2.398890 1_555
Cr4 S12 2.380762 1_555
Cr4 S14 2.380762 1_555
Cr4 S4 2.399410 1_555
Cr4 S0 2.399410 1_555
Cr4 S8 2.402305 1_555
Cr4 S10 2.402305 1_555
Cr5 S13 2.380762 1_565
Cr5 S15 2.380762 1_555
Cr5 S1 2.399410 1_555
Cr5 S5 2.399410 1_555
Cr5 S11 2.402305 1_555
Cr5 S9 2.402305 1_565
Cr6 S12 2.380762 1_565
Cr6 S14 2.380762 1_555
Cr6 S2 2.399410 1_555
Cr6 S6 2.399410 1_555
Cr6 S8 2.402305 1_565
Cr6 S10 2.402305 1_555
Cr7 S13 2.380762 1_555
Cr7 S15 2.380762 1_555
Cr7 S7 2.399410 1_555
Cr7 S3 2.399410 1_555
Cr7 S11 2.402305 1_555
Cr7 S9 2.402305 1_555
