# generated using pymatgen
data_KH2F3
_symmetry_space_group_name_H-M   'P 1'
_cell_length_a   7.01933700
_cell_length_b   7.01933700
_cell_length_c   11.02617485
_cell_angle_alpha   108.56035301
_cell_angle_beta   108.56035301
_cell_angle_gamma   90.00000000
_symmetry_Int_Tables_number   1
_chemical_formula_structural   KH2F3
_chemical_formula_sum   'K4 H8 F12'
_cell_volume   485.11632236
_cell_formula_units_Z   4
loop_
 _symmetry_equiv_pos_site_id
 _symmetry_equiv_pos_as_xyz
  1  'x, y, z'
loop_
 _atom_site_type_symbol
 _atom_site_label
 _atom_site_symmetry_multiplicity
 _atom_site_fract_x
 _atom_site_fract_y
 _atom_site_fract_z
 _atom_site_occupancy
  K  K0  1  0.62500000  0.87500000  0.25000000  1
  K  K1  1  0.62500000  0.37500000  0.25000000  1
  K  K2  1  0.62500000  0.37500000  0.75000000  1
  K  K3  1  0.12500000  0.37500000  0.75000000  1
  H  H0  1  0.21344100  0.23866100  0.18701300  1
  H  H1  1  0.97357300  0.94835300  0.18701300  1
  H  H2  1  0.19835300  0.96344100  0.68701300  1
  H  H3  1  0.03655900  0.51133900  0.31298700  1
  H  H4  1  0.48866100  0.72357300  0.68701300  1
  H  H5  1  0.27642700  0.80164700  0.31298700  1
  H  H6  1  0.05164700  0.78655900  0.81298700  1
  H  H7  1  0.76133900  0.02642700  0.81298700  1
  F  F0  1  0.31054500  0.14401000  0.14485000  1
  F  F1  1  0.83430500  0.00084000  0.14485000  1
  F  F2  1  0.25084000  0.06054500  0.64485000  1
  F  F3  1  0.93945500  0.60599000  0.35515000  1
  F  F4  1  0.39401000  0.58430500  0.64485000  1
  F  F5  1  0.41569500  0.74916000  0.35515000  1
  F  F6  1  0.99916000  0.68945500  0.85515000  1
  F  F7  1  0.85599000  0.16569500  0.85515000  1
  F  F8  1  0.12500000  0.37500000  0.25000000  1
  F  F9  1  0.12500000  0.87500000  0.25000000  1
  F  F10  1  0.12500000  0.87500000  0.75000000  1
  F  F11  1  0.62500000  0.87500000  0.75000000  1
loop_
_geom_bond_atom_site_label_1
_geom_bond_atom_site_label_2
_geom_bond_distance
_geom_bond_site_symmetry_2
F0 H0 1.061707 1_555
F0 K1 2.453424 1_555
F0 K0 3.089719 1_545
F1 H1 1.061709 1_545
F1 K0 2.453424 1_545
F1 K1 3.089719 1_555
F2 H2 1.061704 1_545
F2 K3 2.453424 1_555
F2 K2 3.089719 1_555
F3 H3 1.061707 1_655
F3 K1 2.453424 1_555
F3 K0 3.089719 1_555
F4 H4 1.061712 1_555
F4 K2 2.453424 1_555
F4 K3 3.089719 1_555
F5 H5 1.061709 1_555
F5 K0 2.453424 1_555
F5 K1 3.089719 1_555
F6 H6 1.061704 1_655
F6 K3 2.453424 1_655
F6 K2 3.089719 1_555
F7 H7 1.061712 1_555
F7 K2 2.453424 1_555
F7 K3 3.089719 1_655
F8 H3 1.278650 1_555
F8 H0 1.278650 1_555
F9 H5 1.278649 1_555
F9 H1 1.278649 1_455
F10 H2 1.278654 1_555
F10 H6 1.278654 1_555
F11 H7 1.278645 1_565
F11 H4 1.278645 1_555
