# generated using pymatgen
data_Ba2CrF6
_symmetry_space_group_name_H-M   'P 1'
_cell_length_a   8.62355349
_cell_length_b   8.62355349
_cell_length_c   6.07900900
_cell_angle_alpha   90.00000000
_cell_angle_beta   90.00000000
_cell_angle_gamma   138.38510104
_symmetry_Int_Tables_number   1
_chemical_formula_structural   Ba2CrF6
_chemical_formula_sum   'Ba4 Cr2 F12'
_cell_volume   300.22875808
_cell_formula_units_Z   2
loop_
 _symmetry_equiv_pos_site_id
 _symmetry_equiv_pos_as_xyz
  1  'x, y, z'
loop_
 _atom_site_type_symbol
 _atom_site_label
 _atom_site_symmetry_multiplicity
 _atom_site_fract_x
 _atom_site_fract_y
 _atom_site_fract_z
 _atom_site_occupancy
  Ba  Ba0  1  0.15403800  0.84596200  0.50000000  1
  Ba  Ba1  1  0.84596200  0.15403800  0.50000000  1
  Ba  Ba2  1  0.34596200  0.65403800  0.00000000  1
  Ba  Ba3  1  0.65403800  0.34596200  0.00000000  1
  Cr  Cr0  1  0.50000000  0.50000000  0.50000000  1
  Cr  Cr1  1  0.00000000  0.00000000  0.00000000  1
  F  F0  1  0.37476300  0.62523700  0.50000000  1
  F  F1  1  0.62523700  0.37476300  0.50000000  1
  F  F2  1  0.12523700  0.87476300  0.00000000  1
  F  F3  1  0.87476300  0.12523700  0.00000000  1
  F  F4  1  0.73713400  0.73713400  0.73067400  1
  F  F5  1  0.26286600  0.26286600  0.26932600  1
  F  F6  1  0.76286600  0.76286600  0.23067400  1
  F  F7  1  0.23713400  0.23713400  0.76932600  1
  F  F8  1  0.49908800  0.99908800  0.75000000  1
  F  F9  1  0.50091200  0.00091200  0.25000000  1
  F  F10  1  0.00091200  0.50091200  0.25000000  1
  F  F11  1  0.99908800  0.49908800  0.75000000  1
loop_
_geom_bond_atom_site_label_1
_geom_bond_atom_site_label_2
_geom_bond_distance
_geom_bond_site_symmetry_2
Ba0 F10 2.651820 1_555
Ba0 F8 2.651820 1_555
Ba0 F11 2.658267 1_455
Ba0 F9 2.658267 1_565
Ba0 F2 3.074768 1_556
Ba0 F2 3.074768 1_555
Ba0 F1 3.098324 1_565
Ba0 F1 3.098324 1_455
Ba0 F4 3.275287 1_455
Ba0 F5 3.275287 1_565
Ba0 F7 3.310400 1_565
Ba0 F6 3.310400 1_455
Ba1 F9 2.651820 1_555
Ba1 F11 2.651820 1_555
Ba1 F8 2.658267 1_545
Ba1 F10 2.658267 1_655
Ba1 F3 3.074768 1_555
Ba1 F3 3.074768 1_556
Ba1 F0 3.098324 1_655
Ba1 F0 3.098324 1_545
Ba1 F4 3.275287 1_545
Ba1 F5 3.275287 1_655
Ba1 F7 3.310400 1_655
Ba1 F6 3.310400 1_545
Ba2 F8 2.651820 1_554
Ba2 F10 2.651820 1_555
Ba2 F9 2.658267 1_565
Ba2 F11 2.658267 1_454
Ba2 F0 3.074768 1_554
Ba2 F0 3.074768 1_555
Ba2 F3 3.098324 1_565
Ba2 F3 3.098324 1_455
Ba2 F6 3.275287 1_555
Ba2 F7 3.275287 1_554
Ba2 F5 3.310400 1_555
Ba2 F4 3.310400 1_554
Ba3 F11 2.651820 1_554
Ba3 F9 2.651820 1_555
Ba3 F10 2.658267 1_655
Ba3 F8 2.658267 1_544
Ba3 F1 3.074768 1_554
Ba3 F1 3.074768 1_555
Ba3 F2 3.098324 1_655
Ba3 F2 3.098324 1_545
Ba3 F6 3.275287 1_555
Ba3 F7 3.275287 1_554
Ba3 F5 3.310400 1_555
Ba3 F4 3.310400 1_554
Cr0 F1 2.019101 1_555
Cr0 F0 2.019101 1_555
Cr0 F4 2.019184 1_555
Cr0 F5 2.019184 1_555
Cr0 F6 2.296568 1_555
Cr0 F7 2.296568 1_555
Cr1 F3 2.019101 1_455
Cr1 F2 2.019101 1_545
Cr1 F7 2.019184 1_554
Cr1 F6 2.019184 1_445
Cr1 F5 2.296568 1_555
Cr1 F4 2.296568 1_444
