# generated using pymatgen
data_ZnCu3(WO4)4
_symmetry_space_group_name_H-M   'P 1'
_cell_length_a   4.76671954
_cell_length_b   5.00496243
_cell_length_c   11.89924188
_cell_angle_alpha   87.35514151
_cell_angle_beta   83.96770089
_cell_angle_gamma   86.48324684
_symmetry_Int_Tables_number   1
_chemical_formula_structural   ZnCu3(WO4)4
_chemical_formula_sum   'Zn1 Cu3 W4 O16'
_cell_volume   281.55422063
_cell_formula_units_Z   1
loop_
 _symmetry_equiv_pos_site_id
 _symmetry_equiv_pos_as_xyz
  1  'x, y, z'
loop_
 _atom_site_type_symbol
 _atom_site_label
 _atom_site_symmetry_multiplicity
 _atom_site_fract_x
 _atom_site_fract_y
 _atom_site_fract_z
 _atom_site_occupancy
  Zn  Zn0  1  0.48349100  0.73358300  0.15859100  1
  Cu  Cu0  1  0.50225700  0.75292300  0.67013800  1
  Cu  Cu1  1  0.49418300  0.24291100  0.32961200  1
  Cu  Cu2  1  0.50033200  0.24825500  0.82739200  1
  W  W0  1  0.98794300  0.75059900  0.41582000  1
  W  W1  1  0.00255300  0.76133800  0.91525600  1
  W  W2  1  0.00772700  0.24922600  0.08519500  1
  W  W3  1  0.00425600  0.24668200  0.58421200  1
  O  O0  1  0.26210300  0.58652600  0.31296800  1
  O  O1  1  0.27580700  0.59654800  0.80998100  1
  O  O2  1  0.73364700  0.39772700  0.19210500  1
  O  O3  1  0.73018100  0.40670400  0.69184500  1
  O  O4  1  0.22296500  0.56308000  0.05003200  1
  O  O5  1  0.20942100  0.55433600  0.54714800  1
  O  O6  1  0.77973300  0.44398900  0.45631100  1
  O  O7  1  0.79669600  0.45434100  0.95590700  1
  O  O8  1  0.74336900  0.91844000  0.32291900  1
  O  O9  1  0.75912400  0.93101800  0.82365300  1
  O  O10  1  0.24782000  0.07889900  0.17730800  1
  O  O11  1  0.24861800  0.07185500  0.67522200  1
  O  O12  1  0.79004700  0.93892800  0.05735600  1
  O  O13  1  0.77979000  0.93092200  0.55939400  1
  O  O14  1  0.21065100  0.06734900  0.44073000  1
  O  O15  1  0.22728800  0.07382200  0.94090700  1
loop_
_geom_bond_atom_site_label_1
_geom_bond_atom_site_label_2
_geom_bond_distance
_geom_bond_site_symmetry_2
Cu0 O11 1.941693 1_565
Cu0 O13 1.987496 1_555
Cu0 O3 2.009091 1_555
Cu0 O1 2.037795 1_555
Cu0 O5 2.410794 1_555
Cu0 O9 2.526825 1_555
Cu1 O8 1.951892 1_545
Cu1 O0 2.000473 1_555
Cu1 O14 2.002454 1_555
Cu1 O2 2.044385 1_555
Cu1 O6 2.424421 1_555
Cu1 O10 2.457688 1_555
Cu2 O9 1.949204 1_545
Cu2 O15 1.985377 1_555
Cu2 O1 2.002865 1_555
Cu2 O3 2.011938 1_555
Cu2 O7 2.485257 1_555
Cu2 O11 2.496376 1_555
O0 W0 1.872151 1_455
O0 Zn0 2.143103 1_555
O1 W1 1.888563 1_555
O2 W2 1.869875 1_655
O2 Zn0 2.049065 1_555
O3 W3 1.898205 1_655
O4 W2 1.934434 1_555
O4 Zn0 2.123207 1_555
O4 W1 2.177106 1_554
O5 W3 1.885023 1_555
O5 W0 2.144608 1_455
O6 W0 1.894775 1_555
O6 W3 2.123871 1_655
O7 W1 1.890590 1_655
O7 W2 2.117866 1_656
O8 W0 1.830801 1_555
O9 W1 1.820787 1_655
O10 W2 1.815381 1_555
O10 Zn0 2.010803 1_545
O11 W3 1.829704 1_555
O12 W2 1.978815 1_665
O12 Zn0 2.083910 1_555
O12 W1 2.084093 1_654
O13 W3 2.011599 1_665
O13 W0 2.096156 1_555
O14 W0 2.010980 1_445
O14 W3 2.090106 1_555
O15 W1 2.001265 1_545
O15 W2 2.112477 1_556
