# generated using pymatgen
data_CaVO2
_symmetry_space_group_name_H-M   'P 1'
_cell_length_a   3.18327000
_cell_length_b   8.79236744
_cell_length_c   8.93061892
_cell_angle_alpha   85.09000593
_cell_angle_beta   79.81455804
_cell_angle_gamma   79.74445739
_symmetry_Int_Tables_number   1
_chemical_formula_structural   CaVO2
_chemical_formula_sum   'Ca4 V4 O8'
_cell_volume   241.70676412
_cell_formula_units_Z   4
loop_
 _symmetry_equiv_pos_site_id
 _symmetry_equiv_pos_as_xyz
  1  'x, y, z'
loop_
 _atom_site_type_symbol
 _atom_site_label
 _atom_site_symmetry_multiplicity
 _atom_site_fract_x
 _atom_site_fract_y
 _atom_site_fract_z
 _atom_site_occupancy
  Ca  Ca0  1  0.90210600  0.26175600  0.92747900  1
  Ca  Ca1  1  0.09789400  0.73824400  0.07252100  1
  Ca  Ca2  1  0.30604300  0.08129500  0.30180800  1
  Ca  Ca3  1  0.69395700  0.91870500  0.69819200  1
  V  V0  1  0.32435100  0.59924200  0.75327900  1
  V  V1  1  0.06728600  0.25567800  0.60030900  1
  V  V2  1  0.93271400  0.74432200  0.39969100  1
  V  V3  1  0.67564900  0.40075800  0.24672100  1
  O  O0  1  0.09119200  0.55220500  0.26857100  1
  O  O1  1  0.32780700  0.78239200  0.56893800  1
  O  O2  1  0.67219300  0.21760800  0.43106200  1
  O  O3  1  0.90880800  0.44779500  0.73142900  1
  O  O4  1  0.69692300  0.73242400  0.87868800  1
  O  O5  1  0.53213300  0.16565700  0.75901300  1
  O  O6  1  0.30307700  0.26757600  0.12131200  1
  O  O7  1  0.46786700  0.83434300  0.24098700  1
loop_
_geom_bond_atom_site_label_1
_geom_bond_atom_site_label_2
_geom_bond_distance
_geom_bond_site_symmetry_2
Ca0 O3 2.291393 1_555
Ca0 O6 2.334138 1_656
Ca0 O6 2.334160 1_556
Ca0 O5 2.355152 1_655
Ca0 O5 2.358622 1_555
Ca1 O0 2.291393 1_555
Ca1 O4 2.334138 1_454
Ca1 O4 2.334160 1_554
Ca1 O7 2.355152 1_455
Ca1 O7 2.358622 1_555
Ca2 O6 2.197484 1_555
Ca2 O7 2.231493 1_545
Ca2 O2 2.310298 1_555
Ca2 O2 2.322084 1_455
Ca3 O4 2.197484 1_555
Ca3 O5 2.231493 1_565
Ca3 O1 2.310298 1_555
Ca3 O1 2.322084 1_655
O0 V2 2.074900 1_455
O0 V3 2.075216 1_555
O0 V3 2.079399 1_455
O1 V0 2.202178 1_555
O1 V2 2.210705 1_455
O1 V2 2.220863 1_555
O2 V3 2.202178 1_555
O2 V1 2.210705 1_655
O2 V1 2.220863 1_555
O3 V1 2.074900 1_655
O3 V0 2.075216 1_555
O3 V0 2.079399 1_655
O4 V0 2.283692 1_655
O4 V0 2.284938 1_555
O5 V1 2.226557 1_555
O5 V1 2.229681 1_655
O6 V3 2.283692 1_455
O6 V3 2.284938 1_555
O7 V2 2.226557 1_555
O7 V2 2.229681 1_455
