# generated using pymatgen
data_SrLaAlO4
_symmetry_space_group_name_H-M   'P 1'
_cell_length_a   6.83693629
_cell_length_b   6.83693629
_cell_length_c   6.83693629
_cell_angle_alpha   147.71488817
_cell_angle_beta   147.71488817
_cell_angle_gamma   46.30642701
_symmetry_Int_Tables_number   1
_chemical_formula_structural   SrLaAlO4
_chemical_formula_sum   'Sr1 La1 Al1 O4'
_cell_volume   90.85598375
_cell_formula_units_Z   1
loop_
 _symmetry_equiv_pos_site_id
 _symmetry_equiv_pos_as_xyz
  1  'x, y, z'
loop_
 _atom_site_type_symbol
 _atom_site_label
 _atom_site_symmetry_multiplicity
 _atom_site_fract_x
 _atom_site_fract_y
 _atom_site_fract_z
 _atom_site_occupancy
  Sr  Sr0  1  0.64217800  0.64217800  0.00000000  1
  La  La0  1  0.35809200  0.35809200  0.00000000  1
  Al  Al0  1  0.00437600  0.00437600  0.00000000  1
  O  O0  1  0.83940000  0.83940000  0.00000000  1
  O  O1  1  0.16427700  0.16427700  0.00000000  1
  O  O2  1  0.99583900  0.49583900  0.50000000  1
  O  O3  1  0.49583900  0.99583900  0.50000000  1
loop_
_geom_bond_atom_site_label_1
_geom_bond_atom_site_label_2
_geom_bond_distance
_geom_bond_site_symmetry_2
La0 O1 2.436746 1_555
La0 O2 2.571479 1_454
La0 O3 2.571479 1_544
La0 O2 2.571479 1_555
La0 O3 2.571479 1_555
La0 O0 2.698476 1_556
La0 O0 2.698476 1_444
La0 O0 2.698476 1_545
La0 O0 2.698476 1_455
Al0 O3 1.903889 1_545
Al0 O2 1.903889 1_455
Al0 O2 1.903889 1_444
Al0 O3 1.903889 1_444
Al0 O1 2.010361 1_555
Al0 O0 2.074166 1_445
O0 Sr0 2.479580 1_555
O1 Sr0 2.702543 1_556
O1 Sr0 2.702543 1_444
O1 Sr0 2.702543 1_545
O1 Sr0 2.702543 1_455
O2 Sr0 2.645435 1_656
O2 Sr0 2.645435 1_555
O3 Sr0 2.645435 1_566
O3 Sr0 2.645435 1_555
