# generated using pymatgen
data_Li9Mn2Co5O16
_symmetry_space_group_name_H-M   'P 1'
_cell_length_a   2.90307800
_cell_length_b   5.10981268
_cell_length_c   19.41776999
_cell_angle_alpha   93.02646667
_cell_angle_beta   93.02761662
_cell_angle_gamma   91.63984026
_symmetry_Int_Tables_number   1
_chemical_formula_structural   Li9Mn2Co5O16
_chemical_formula_sum   'Li9 Mn2 Co5 O16'
_cell_volume   287.10105662
_cell_formula_units_Z   1
loop_
 _symmetry_equiv_pos_site_id
 _symmetry_equiv_pos_as_xyz
  1  'x, y, z'
loop_
 _atom_site_type_symbol
 _atom_site_label
 _atom_site_symmetry_multiplicity
 _atom_site_fract_x
 _atom_site_fract_y
 _atom_site_fract_z
 _atom_site_occupancy
  Li  Li0  1  0.05862600  0.66607600  0.11513800  1
  Li  Li1  1  0.68952800  0.55735100  0.37779000  1
  Li  Li2  1  0.31263600  0.43313600  0.62600400  1
  Li  Li3  1  0.93701400  0.32953600  0.88101500  1
  Li  Li4  1  0.54823600  0.18708700  0.11695100  1
  Li  Li5  1  0.18894500  0.06950000  0.37745500  1
  Li  Li6  1  0.81004400  0.93942300  0.62711900  1
  Li  Li7  1  0.44714400  0.81611000  0.87784700  1
  Li  Li8  1  0.50012900  0.49795500  0.99995100  1
  Mn  Mn0  1  0.00039600  0.99965100  0.99991000  1
  Mn  Mn1  1  0.62436100  0.87482300  0.25012700  1
  Co  Co0  1  0.24927300  0.75015000  0.50069200  1
  Co  Co1  1  0.87602800  0.62540400  0.75035300  1
  Co  Co2  1  0.12325000  0.37466900  0.24898400  1
  Co  Co3  1  0.75163600  0.24956800  0.50008900  1
  Co  Co4  1  0.37552200  0.12595800  0.75053100  1
  O  O0  1  0.51891500  0.85869500  0.05575600  1
  O  O1  1  0.13995200  0.73497100  0.30655200  1
  O  O2  1  0.77615700  0.58289100  0.55537900  1
  O  O3  1  0.42234400  0.47846700  0.80770500  1
  O  O4  1  0.03288300  0.31441800  0.05978200  1
  O  O5  1  0.65526300  0.20025400  0.30688500  1
  O  O6  1  0.31438500  0.09224000  0.55710100  1
  O  O7  1  0.92171100  0.97965800  0.80648300  1
  O  O8  1  0.59348000  0.55311200  0.19393600  1
  O  O9  1  0.18605900  0.40934800  0.44123400  1
  O  O10  1  0.83174600  0.27348200  0.69161200  1
  O  O11  1  0.48390800  0.14137500  0.94481800  1
  O  O12  1  0.11074700  0.01194100  0.19593500  1
  O  O13  1  0.72170700  0.91441700  0.44395900  1
  O  O14  1  0.32944700  0.77180600  0.69107800  1
  O  O15  1  0.96852700  0.68652700  0.94182800  1
loop_
_geom_bond_atom_site_label_1
_geom_bond_atom_site_label_2
_geom_bond_distance
_geom_bond_site_symmetry_2
Li0 O4 2.041990 1_555
Li0 O0 2.071523 1_555
Li0 O8 2.182820 1_455
Li0 O0 2.184146 1_455
Li0 O8 2.231340 1_555
Li0 O12 2.296636 1_565
Li1 O9 2.034855 1_655
Li1 O9 2.109798 1_555
Li1 O1 2.168593 1_655
Li1 O13 2.172222 1_555
Li1 O5 2.223715 1_555
Li1 O1 2.294566 1_555
Li2 O14 2.086040 1_555
Li2 O10 2.114221 1_455
Li2 O2 2.126922 1_555
Li2 O10 2.130003 1_555
Li2 O6 2.139979 1_555
Li2 O2 2.201197 1_455
Li3 O11 2.101226 1_555
Li3 O15 2.117053 1_555
Li3 O3 2.189234 1_555
Li3 O3 2.203536 1_655
Li3 O11 2.232802 1_655
Li3 O7 2.237903 1_545
Li4 O4 1.955520 1_655
Li4 O4 1.962275 1_555
Li4 O0 2.001394 1_545
Li4 O12 2.247640 1_555
Li4 O8 2.328083 1_555
Li4 O12 2.404979 1_655
Li5 O9 2.079493 1_555
Li5 O13 2.089748 1_445
Li5 O5 2.097064 1_555
Li5 O1 2.134155 1_545
Li5 O13 2.157528 1_545
Li5 O5 2.157823 1_455
Li6 O10 2.060537 1_565
Li6 O14 2.109402 1_555
Li6 O6 2.120976 1_565
Li6 O14 2.130276 1_655
Li6 O6 2.204293 1_665
Li6 O2 2.230806 1_555
Li7 O15 2.032013 1_455
Li7 O11 2.052279 1_565
Li7 O15 2.053906 1_555
Li7 O3 2.138052 1_555
Li7 O7 2.185125 1_555
Li7 O7 2.217512 1_455
Li8 O11 2.062037 1_555
Li8 O15 2.062341 1_555
Li8 O4 2.068323 1_556
Li8 O0 2.086162 1_556
Li8 O15 2.144741 1_455
Li8 O4 2.151650 1_656
Mn0 O15 1.905392 1_455
Mn0 O4 1.931250 1_566
Mn0 O11 1.954835 1_565
Mn0 O0 1.957922 1_456
Mn0 O11 1.972705 1_465
Mn0 O0 1.983112 1_556
Mn1 O8 1.921648 1_555
Mn1 O12 1.941699 1_665
Mn1 O5 1.943040 1_565
Mn1 O12 1.947661 1_565
Mn1 O1 1.968923 1_555
Mn1 O1 1.980453 1_655
Co0 O2 1.981736 1_455
Co0 O13 1.997633 1_555
Co0 O6 2.011987 1_565
Co0 O9 2.036237 1_555
Co0 O2 2.048606 1_555
Co0 O13 2.063205 1_455
Co1 O3 1.930098 1_555
Co1 O14 1.952354 1_655
Co1 O7 2.060314 1_555
Co1 O3 2.071039 1_655
Co1 O10 2.075079 1_555
Co1 O14 2.090017 1_555
Co2 O8 2.005821 1_555
Co2 O5 2.025345 1_455
Co2 O12 2.070836 1_555
Co2 O8 2.085382 1_455
Co2 O1 2.100793 1_555
Co2 O5 2.108297 1_555
Co3 O6 1.914982 1_555
Co3 O9 1.937790 1_655
Co3 O2 1.962283 1_555
Co3 O13 1.978058 1_545
Co3 O6 2.125775 1_655
Co3 O9 2.155358 1_555
Co4 O7 1.911943 1_445
Co4 O10 1.955843 1_555
Co4 O7 2.055506 1_545
Co4 O3 2.062621 1_555
Co4 O10 2.082691 1_455
Co4 O14 2.091579 1_545
