# generated using pymatgen
data_LaAlCuNi3
_symmetry_space_group_name_H-M   'P 1'
_cell_length_a   5.23099650
_cell_length_b   5.23099650
_cell_length_c   3.84606800
_cell_angle_alpha   90.00000000
_cell_angle_beta   90.00000000
_cell_angle_gamma   120.00000632
_symmetry_Int_Tables_number   1
_chemical_formula_structural   LaAlCuNi3
_chemical_formula_sum   'La1 Al1 Cu1 Ni3'
_cell_volume   91.14155235
_cell_formula_units_Z   1
loop_
 _symmetry_equiv_pos_site_id
 _symmetry_equiv_pos_as_xyz
  1  'x, y, z'
loop_
 _atom_site_type_symbol
 _atom_site_label
 _atom_site_symmetry_multiplicity
 _atom_site_fract_x
 _atom_site_fract_y
 _atom_site_fract_z
 _atom_site_occupancy
  La  La0  1  0.66666700  0.33333300  0.00000000  1
  Al  Al0  1  0.00000000  0.00000000  0.00000000  1
  Cu  Cu0  1  0.33333300  0.66666700  0.00000000  1
  Ni  Ni0  1  0.66505100  0.83252600  0.50000000  1
  Ni  Ni1  1  0.16747400  0.83252600  0.50000000  1
  Ni  Ni2  1  0.16747400  0.33494900  0.50000000  1
loop_
_geom_bond_atom_site_label_1
_geom_bond_atom_site_label_2
_geom_bond_distance
_geom_bond_site_symmetry_2
La0 Ni2 3.246370 1_654
La0 Ni0 3.246370 1_544
La0 Ni2 3.246370 1_655
La0 Ni0 3.246370 1_545
La0 Ni1 3.246374 1_654
La0 Ni1 3.246374 1_655
La0 Ni1 3.246374 1_545
La0 Ni1 3.246374 1_544
La0 Ni2 3.246378 1_554
La0 Ni0 3.246378 1_554
La0 Ni2 3.246378 1_555
La0 Ni0 3.246378 1_555
Al0 Ni1 2.449588 1_544
Al0 Ni1 2.449588 1_545
Al0 Ni2 2.449591 1_555
Al0 Ni0 2.449591 1_444
Al0 Ni0 2.449591 1_445
Al0 Ni2 2.449591 1_554
Al0 Cu0 3.020114 1_545
Al0 La0 3.020114 1_455
Al0 La0 3.020119 1_555
Al0 Cu0 3.020119 1_555
Al0 La0 3.020119 1_445
Al0 Cu0 3.020119 1_445
Cu0 Ni0 2.440551 1_555
Cu0 Ni0 2.440551 1_554
Cu0 Ni2 2.440551 1_555
Cu0 Ni2 2.440551 1_554
Cu0 Ni1 2.440551 1_554
Cu0 Ni1 2.440551 1_555
Cu0 La0 3.020114 1_455
Cu0 La0 3.020114 1_565
Cu0 La0 3.020123 1_555
Ni0 Ni2 2.602823 1_555
Ni0 Ni1 2.602824 1_555
Ni0 Ni2 2.628173 1_665
Ni0 Ni1 2.628173 1_655
Ni1 Ni2 2.602824 1_555
Ni1 Ni2 2.628173 1_565
