# generated using pymatgen
data_SrLa3Mn3CrO12
_symmetry_space_group_name_H-M   'P 1'
_cell_length_a   9.54950202
_cell_length_b   9.54950202
_cell_length_c   9.54950243
_cell_angle_alpha   34.11097213
_cell_angle_beta   34.11097213
_cell_angle_gamma   34.11097635
_symmetry_Int_Tables_number   1
_chemical_formula_structural   SrLa3Mn3CrO12
_chemical_formula_sum   'Sr1 La3 Mn3 Cr1 O12'
_cell_volume   244.17195562
_cell_formula_units_Z   1
loop_
 _symmetry_equiv_pos_site_id
 _symmetry_equiv_pos_as_xyz
  1  'x, y, z'
loop_
 _atom_site_type_symbol
 _atom_site_label
 _atom_site_symmetry_multiplicity
 _atom_site_fract_x
 _atom_site_fract_y
 _atom_site_fract_z
 _atom_site_occupancy
  Sr  Sr0  1  0.62479700  0.62479700  0.62479700  1
  La  La0  1  0.12572700  0.12572700  0.12572700  1
  La  La1  1  0.37335900  0.37335900  0.37335900  1
  La  La2  1  0.87658900  0.87658900  0.87658900  1
  Mn  Mn0  1  0.25018900  0.25018900  0.25018900  1
  Mn  Mn1  1  0.75026700  0.75026700  0.75026700  1
  Mn  Mn2  1  0.99984200  0.99984200  0.99984200  1
  Cr  Cr0  1  0.50024000  0.50024000  0.50024000  1
  O  O0  1  0.17679800  0.61516400  0.08083800  1
  O  O1  1  0.69334100  0.12240000  0.55867800  1
  O  O2  1  0.08083800  0.17679800  0.61516400  1
  O  O3  1  0.55867800  0.69334100  0.12240000  1
  O  O4  1  0.61516400  0.08083800  0.17679800  1
  O  O5  1  0.12240000  0.55867800  0.69334100  1
  O  O6  1  0.43771900  0.29992200  0.88179900  1
  O  O7  1  0.93757000  0.81301300  0.38175000  1
  O  O8  1  0.88179900  0.43771900  0.29992200  1
  O  O9  1  0.38175000  0.93757000  0.81301300  1
  O  O10  1  0.29992200  0.88179900  0.43771900  1
  O  O11  1  0.81301300  0.38175000  0.93757000  1
loop_
_geom_bond_atom_site_label_1
_geom_bond_atom_site_label_2
_geom_bond_distance
_geom_bond_site_symmetry_2
La0 O1 2.423831 1_455
La0 O5 2.423831 1_554
La0 O3 2.423832 1_545
La0 O6 2.714420 1_554
La0 O8 2.714420 1_455
La0 O10 2.714420 1_545
La0 O7 2.764890 1_445
La0 O11 2.764890 1_454
La0 O9 2.764890 1_544
La1 O11 2.454542 1_554
La1 O9 2.454542 1_545
La1 O7 2.454542 1_455
La1 O2 2.735470 1_555
La1 O4 2.735471 1_555
La1 O0 2.735471 1_555
La1 O3 2.831552 1_555
La1 O1 2.831553 1_555
La1 O5 2.831553 1_555
La2 O8 2.417045 1_556
La2 O10 2.417045 1_655
La2 O6 2.417045 1_565
La2 O2 2.756888 1_665
La2 O0 2.756889 1_656
La2 O4 2.756889 1_566
La2 O3 2.825522 1_556
La2 O5 2.825523 1_655
La2 O1 2.825523 1_565
Mn0 O0 1.937141 1_555
Mn0 O2 1.937141 1_555
Mn0 O4 1.937141 1_555
Mn0 O10 2.004503 1_545
Mn0 O6 2.004503 1_554
Mn0 O8 2.004503 1_455
Mn1 O11 1.950018 1_555
Mn1 O7 1.950018 1_555
Mn1 O9 1.950018 1_555
Mn1 O1 1.988284 1_565
Mn1 O3 1.988284 1_556
Mn1 O5 1.988284 1_655
Mn2 O4 2.031859 1_566
Mn2 O2 2.031859 1_665
Mn2 O0 2.031859 1_656
Mn2 O9 2.056347 1_655
Mn2 O7 2.056347 1_556
Mn2 O11 2.056347 1_565
Cr0 O8 2.009794 1_555
Cr0 O6 2.009795 1_555
Cr0 O10 2.009795 1_555
Cr0 O5 2.020623 1_555
Cr0 O3 2.020623 1_555
Cr0 O1 2.020623 1_555
O0 Sr0 2.532503 1_554
O0 Sr0 3.069967 1_455
O2 Sr0 2.532503 1_455
O2 Sr0 3.069967 1_545
O4 Sr0 2.532503 1_545
O4 Sr0 3.069967 1_554
O6 Sr0 2.854654 1_555
O7 Sr0 2.835669 1_555
O8 Sr0 2.854654 1_555
O9 Sr0 2.835670 1_555
O10 Sr0 2.854654 1_555
O11 Sr0 2.835670 1_555
