# generated using pymatgen
data_Cu12Mo3S5O36
_symmetry_space_group_name_H-M   'P 1'
_cell_length_a   6.82741600
_cell_length_b   7.48574511
_cell_length_c   13.69445623
_cell_angle_alpha   89.97976691
_cell_angle_beta   90.00000000
_cell_angle_gamma   90.00000000
_symmetry_Int_Tables_number   1
_chemical_formula_structural   Cu12Mo3S5O36
_chemical_formula_sum   'Cu12 Mo3 S5 O36'
_cell_volume   699.90027785
_cell_formula_units_Z   1
loop_
 _symmetry_equiv_pos_site_id
 _symmetry_equiv_pos_as_xyz
  1  'x, y, z'
loop_
 _atom_site_type_symbol
 _atom_site_label
 _atom_site_symmetry_multiplicity
 _atom_site_fract_x
 _atom_site_fract_y
 _atom_site_fract_z
 _atom_site_occupancy
  Cu  Cu0  1  0.00028400  0.49979000  0.00028000  1
  Cu  Cu1  1  0.49609700  0.99861400  0.49354300  1
  Cu  Cu2  1  0.49971600  0.49979000  0.00028000  1
  Cu  Cu3  1  0.00390300  0.99861400  0.49354300  1
  Cu  Cu4  1  0.25000000  0.82320300  0.06160600  1
  Cu  Cu5  1  0.25000000  0.34293300  0.44418700  1
  Cu  Cu6  1  0.75000000  0.17307700  0.94678300  1
  Cu  Cu7  1  0.75000000  0.67502500  0.55219800  1
  Cu  Cu8  1  0.25000000  0.65625700  0.84187900  1
  Cu  Cu9  1  0.25000000  0.15370000  0.65885000  1
  Cu  Cu10  1  0.75000000  0.34553900  0.15998600  1
  Cu  Cu11  1  0.75000000  0.82159500  0.33896200  1
  Mo  Mo0  1  0.75000000  0.75099700  0.81342900  1
  Mo  Mo1  1  0.75000000  0.25154400  0.68640600  1
  Mo  Mo2  1  0.25000000  0.25205900  0.18824100  1
  S  S0  1  0.25000000  0.16799200  0.89897600  1
  S  S1  1  0.25000000  0.67016500  0.59782000  1
  S  S2  1  0.75000000  0.83356200  0.10045600  1
  S  S3  1  0.75000000  0.32938300  0.40018800  1
  S  S4  1  0.25000000  0.74088800  0.31655500  1
  O  O0  1  0.25000000  0.97197800  0.90666200  1
  O  O1  1  0.25000000  0.47285900  0.58464800  1
  O  O2  1  0.75000000  0.03041400  0.09108400  1
  O  O3  1  0.75000000  0.52626700  0.40991300  1
  O  O4  1  0.25000000  0.72175100  0.70199800  1
  O  O5  1  0.25000000  0.23219500  0.79615200  1
  O  O6  1  0.75000000  0.27042800  0.29705100  1
  O  O7  1  0.75000000  0.77190900  0.20285100  1
  O  O8  1  0.96974600  0.62692900  0.84854800  1
  O  O9  1  0.53045500  0.12681200  0.65291100  1
  O  O10  1  0.46944800  0.37416400  0.15117400  1
  O  O11  1  0.07238400  0.85036800  0.34526400  1
  O  O12  1  0.03055200  0.37416400  0.15117400  1
  O  O13  1  0.42761600  0.85036800  0.34526400  1
  O  O14  1  0.53025400  0.62692900  0.84854800  1
  O  O15  1  0.96954500  0.12681200  0.65291100  1
  O  O16  1  0.25000000  0.60568800  0.98522200  1
  O  O17  1  0.25000000  0.11134400  0.51686200  1
  O  O18  1  0.75000000  0.39617600  0.01879800  1
  O  O19  1  0.75000000  0.89310100  0.47278800  1
  O  O20  1  0.75000000  0.79893800  0.68761900  1
  O  O21  1  0.75000000  0.29984000  0.81237700  1
  O  O22  1  0.25000000  0.21434700  0.31558800  1
  O  O23  1  0.25000000  0.70250900  0.21136500  1
  O  O24  1  0.75000000  0.95953000  0.87512100  1
  O  O25  1  0.75000000  0.46045700  0.62434900  1
  O  O26  1  0.25000000  0.04237600  0.12764100  1
  O  O27  1  0.25000000  0.56966700  0.37081900  1
  O  O28  1  0.07325000  0.24253900  0.95021400  1
  O  O29  1  0.42799400  0.74722000  0.54948200  1
  O  O30  1  0.57207300  0.75897700  0.05019300  1
  O  O31  1  0.92700900  0.25473700  0.45067400  1
  O  O32  1  0.92792700  0.75897700  0.05019300  1
  O  O33  1  0.57299100  0.25473700  0.45067400  1
  O  O34  1  0.42675000  0.24253900  0.95021400  1
  O  O35  1  0.07200600  0.74722000  0.54948200  1
loop_
_geom_bond_atom_site_label_1
_geom_bond_atom_site_label_2
_geom_bond_distance
_geom_bond_site_symmetry_2
Cu0 O16 1.891443 1_554
Cu0 O18 1.893606 1_455
Cu0 O28 2.104179 1_554
Cu0 O32 2.115799 1_455
Cu0 O12 2.279418 1_555
Cu0 O8 2.294663 1_454
Cu1 O17 1.907191 1_565
Cu1 O19 1.926090 1_555
Cu1 O33 2.072534 1_565
Cu1 O29 2.084096 1_555
Cu1 O13 2.361151 1_555
Cu1 O9 2.395949 1_565
Cu2 O16 1.891443 1_554
Cu2 O18 1.893606 1_555
Cu2 O34 2.104179 1_554
Cu2 O30 2.115799 1_555
Cu2 O10 2.279418 1_555
Cu2 O14 2.294663 1_554
Cu3 O17 1.907191 1_565
Cu3 O19 1.926090 1_455
Cu3 O31 2.072534 1_465
Cu3 O35 2.084096 1_555
Cu3 O11 2.361151 1_555
Cu3 O15 2.395949 1_465
Cu4 O26 1.873670 1_565
Cu4 O16 1.935622 1_554
Cu4 O23 2.240767 1_555
Cu4 O30 2.256304 1_555
Cu4 O32 2.256304 1_455
Cu4 O0 2.396036 1_554
Cu5 O27 1.972061 1_555
Cu5 O17 1.998679 1_555
Cu5 O22 2.007280 1_555
Cu5 O1 2.155749 1_555
Cu5 O33 2.303608 1_555
Cu5 O31 2.303608 1_455
Cu6 O24 1.876057 1_545
Cu6 O18 1.939813 1_556
Cu6 O21 2.070526 1_555
Cu6 O2 2.245900 1_556
Cu6 O34 2.267880 1_555
Cu6 O28 2.267880 1_655
Cu7 O25 1.885482 1_555
Cu7 O19 1.961194 1_555
Cu7 O20 2.073850 1_555
Cu7 O3 2.244609 1_555
Cu7 O29 2.264222 1_555
Cu7 O35 2.264222 1_655
Cu8 O8 1.928125 1_455
Cu8 O14 1.928125 1_555
Cu8 O4 1.977171 1_555
Cu8 O16 1.999040 1_555
Cu8 O0 2.524726 1_555
Cu9 O15 1.927053 1_455
Cu9 O9 1.927053 1_555
Cu9 O5 1.970149 1_555
Cu9 O17 1.970240 1_555
Cu9 O1 2.595932 1_555
Cu10 O12 1.931163 1_655
Cu10 O10 1.931163 1_555
Cu10 O6 1.959244 1_555
Cu10 O18 1.970168 1_555
Cu10 O2 2.540970 1_555
Cu11 O7 1.900841 1_555
Cu11 O19 1.909426 1_555
Cu11 O11 2.213249 1_655
Cu11 O13 2.213249 1_555
Cu11 O3 2.414534 1_555
Mo0 O20 1.759755 1_555
Mo0 O24 1.775241 1_555
Mo0 O8 1.828780 1_555
Mo0 O14 1.828780 1_555
Mo1 O21 1.762705 1_555
Mo1 O25 1.779599 1_555
Mo1 O15 1.824637 1_555
Mo1 O9 1.824637 1_555
Mo2 O22 1.766551 1_555
Mo2 O26 1.775775 1_555
Mo2 O10 1.826914 1_555
Mo2 O12 1.826914 1_555
O0 S0 1.471044 1_565
O1 S1 1.488020 1_555
O2 S2 1.479117 1_545
O3 S3 1.479875 1_555
O4 S1 1.478131 1_555
O5 S0 1.487718 1_555
O6 S3 1.479897 1_555
O7 S2 1.476086 1_555
O11 S4 1.515580 1_555
O13 S4 1.515580 1_555
O23 S4 1.468989 1_555
O27 S4 1.481333 1_555
O28 S0 1.503420 1_555
O29 S1 1.499148 1_555
O30 S2 1.503823 1_555
O31 S3 1.500158 1_555
O32 S2 1.503823 1_555
O33 S3 1.500158 1_555
O34 S0 1.503420 1_555
O35 S1 1.499148 1_555
