# generated using pymatgen
data_MgV2O4
_symmetry_space_group_name_H-M   'P 1'
_cell_length_a   6.04518388
_cell_length_b   10.49632387
_cell_length_c   6.05778819
_cell_angle_alpha   73.13344257
_cell_angle_beta   60.04156555
_cell_angle_gamma   90.05496694
_symmetry_Int_Tables_number   1
_chemical_formula_structural   MgV2O4
_chemical_formula_sum   'Mg4 V8 O16'
_cell_volume   313.72705059
_cell_formula_units_Z   4
loop_
 _symmetry_equiv_pos_site_id
 _symmetry_equiv_pos_as_xyz
  1  'x, y, z'
loop_
 _atom_site_type_symbol
 _atom_site_label
 _atom_site_symmetry_multiplicity
 _atom_site_fract_x
 _atom_site_fract_y
 _atom_site_fract_z
 _atom_site_occupancy
  Mg  Mg0  1  0.00319400  0.00084300  0.99366000  1
  Mg  Mg1  1  0.50334600  0.50078400  0.99340100  1
  Mg  Mg2  1  0.93989900  0.31320000  0.11964400  1
  Mg  Mg3  1  0.43993300  0.81305200  0.12014400  1
  V  V0  1  0.93220500  0.81277900  0.62805900  1
  V  V1  1  0.68557100  0.06040700  0.62951900  1
  V  V2  1  0.43964200  0.81259300  0.62811100  1
  V  V3  1  0.37045500  0.12287700  0.25910000  1
  V  V4  1  0.87004000  0.62314800  0.25972200  1
  V  V5  1  0.43262800  0.31264800  0.62773400  1
  V  V6  1  0.18511300  0.56028700  0.62871200  1
  V  V7  1  0.94003600  0.31271800  0.62714200  1
  O  O0  1  0.57220700  0.19244000  0.86030100  1
  O  O1  1  0.06969400  0.69287800  0.86025700  1
  O  O2  1  0.29752500  0.43125300  0.40022200  1
  O  O3  1  0.79966300  0.93095700  0.40073200  1
  O  O4  1  0.56886200  0.19024900  0.39076700  1
  O  O5  1  0.06953900  0.68893400  0.38985300  1
  O  O6  1  0.80650400  0.42630700  0.38673800  1
  O  O7  1  0.30717700  0.92574200  0.38609600  1
  O  O8  1  0.04094300  0.18937700  0.38812800  1
  O  O9  1  0.54133900  0.68937200  0.38886300  1
  O  O10  1  0.84170400  0.43603400  0.85464900  1
  O  O11  1  0.34196600  0.93616700  0.85357000  1
  O  O12  1  0.07083300  0.20155900  0.85944800  1
  O  O13  1  0.56980100  0.70157300  0.85992200  1
  O  O14  1  0.30584300  0.43565100  0.85191100  1
  O  O15  1  0.80432400  0.93616400  0.85359600  1
loop_
_geom_bond_atom_site_label_1
_geom_bond_atom_site_label_2
_geom_bond_distance
_geom_bond_site_symmetry_2
Mg0 O12 1.984716 1_555
Mg0 O11 1.994064 1_545
Mg0 O15 1.994383 1_445
Mg0 O3 2.012761 1_446
Mg1 O13 1.985451 1_555
Mg1 O10 1.992304 1_555
Mg1 O14 1.997013 1_555
Mg1 O2 2.011535 1_556
Mg2 O12 2.076456 1_654
Mg2 O10 2.084171 1_554
Mg2 O14 2.092308 1_654
Mg2 O8 2.115336 1_655
Mg2 O4 2.116407 1_555
Mg2 O6 2.119212 1_555
Mg3 O13 2.075230 1_554
Mg3 O15 2.088253 1_554
Mg3 O11 2.091430 1_554
Mg3 O7 2.110698 1_555
Mg3 O9 2.117270 1_555
Mg3 O5 2.117959 1_555
O0 V3 1.972024 1_556
O0 V7 2.087180 1_555
O0 V5 2.108692 1_555
O0 V1 2.124613 1_555
O1 V4 1.975286 1_456
O1 V2 2.094330 1_555
O1 V0 2.096569 1_455
O1 V6 2.132682 1_555
O2 V7 2.035513 1_455
O2 V5 2.060792 1_555
O2 V6 2.088586 1_555
O3 V2 2.045784 1_555
O3 V0 2.046882 1_555
O3 V1 2.093467 1_565
O4 V3 1.963661 1_555
O4 V5 2.069044 1_555
O4 V1 2.079455 1_555
O5 V4 1.953578 1_455
O5 V6 2.069509 1_555
O5 V0 2.086950 1_455
O6 V4 1.946578 1_555
O6 V5 2.086037 1_555
O6 V7 2.088625 1_555
O7 V3 1.949503 1_565
O7 V0 2.088195 1_455
O7 V2 2.089279 1_555
O8 V3 1.957117 1_555
O8 V1 2.072252 1_455
O8 V7 2.086076 1_455
O9 V4 1.951729 1_555
O9 V6 2.076373 1_555
O9 V2 2.085820 1_555
O10 V6 2.001270 1_655
O10 V7 2.036311 1_555
O11 V1 2.002333 1_565
O11 V2 2.029885 1_555
O12 V5 2.023017 1_555
O12 V7 2.031549 1_455
O13 V2 2.026008 1_555
O13 V0 2.026167 1_555
O14 V6 2.008287 1_555
O14 V5 2.019484 1_555
O15 V1 2.001599 1_565
O15 V0 2.028634 1_555
