# generated using pymatgen
data_Rb3DyCl6
_symmetry_space_group_name_H-M   'P 1'
_cell_length_a   13.49505789
_cell_length_b   13.49505789
_cell_length_c   12.80145914
_cell_angle_alpha   80.99073955
_cell_angle_beta   80.99073955
_cell_angle_gamma   34.16073571
_symmetry_Int_Tables_number   1
_chemical_formula_structural   Rb3DyCl6
_chemical_formula_sum   'Rb12 Dy4 Cl24'
_cell_volume   1291.41044006
_cell_formula_units_Z   4
loop_
 _symmetry_equiv_pos_site_id
 _symmetry_equiv_pos_as_xyz
  1  'x, y, z'
loop_
 _atom_site_type_symbol
 _atom_site_label
 _atom_site_symmetry_multiplicity
 _atom_site_fract_x
 _atom_site_fract_y
 _atom_site_fract_z
 _atom_site_occupancy
  Rb  Rb0  1  0.29540225  0.80794812  0.06401184  1
  Rb  Rb1  1  0.70459775  0.19205188  0.93598816  1
  Rb  Rb2  1  0.19205188  0.70459775  0.43598816  1
  Rb  Rb3  1  0.80794812  0.29540225  0.56401184  1
  Rb  Rb4  1  0.47071535  0.83744234  0.35467000  1
  Rb  Rb5  1  0.52928465  0.16255766  0.64533000  1
  Rb  Rb6  1  0.16255766  0.52928465  0.14533000  1
  Rb  Rb7  1  0.83744234  0.47071535  0.85467000  1
  Rb  Rb8  1  0.65343673  0.02186020  0.30213301  1
  Rb  Rb9  1  0.34656327  0.97813980  0.69786699  1
  Rb  Rb10  1  0.97813980  0.34656327  0.19786699  1
  Rb  Rb11  1  0.02186020  0.65343673  0.80213301  1
  Dy  Dy0  1  0.79283354  0.20716646  0.25000000  1
  Dy  Dy1  1  0.20716646  0.79283354  0.75000000  1
  Dy  Dy2  1  0.50000000  0.00000000  -0.00000000  1
  Dy  Dy3  1  0.00000000  0.50000000  0.50000000  1
  Cl  Cl0  1  0.62302231  0.71969479  0.07836499  1
  Cl  Cl1  1  0.37697769  0.28030521  0.92163501  1
  Cl  Cl2  1  0.28030521  0.37697769  0.42163501  1
  Cl  Cl3  1  0.71969479  0.62302231  0.57836499  1
  Cl  Cl4  1  0.50757766  0.37093017  0.17823060  1
  Cl  Cl5  1  0.49242234  0.62906983  0.82176940  1
  Cl  Cl6  1  0.62906983  0.49242234  0.32176940  1
  Cl  Cl7  1  0.37093017  0.50757766  0.67823060  1
  Cl  Cl8  1  0.78756838  0.85859564  0.03390987  1
  Cl  Cl9  1  0.21243162  0.14140436  0.96609013  1
  Cl  Cl10  1  0.14140436  0.21243162  0.46609013  1
  Cl  Cl11  1  0.85859564  0.78756838  0.53390987  1
  Cl  Cl12  1  0.89729974  0.98126703  0.70222104  1
  Cl  Cl13  1  0.10270026  0.01873297  0.29777896  1
  Cl  Cl14  1  0.01873297  0.10270026  0.79777896  1
  Cl  Cl15  1  0.98126703  0.89729974  0.20222104  1
  Cl  Cl16  1  0.72744347  0.15881160  0.43845527  1
  Cl  Cl17  1  0.27255653  0.84118840  0.56154473  1
  Cl  Cl18  1  0.84118840  0.27255653  0.06154473  1
  Cl  Cl19  1  0.15881160  0.72744347  0.93845527  1
  Cl  Cl20  1  0.36368065  0.13657696  0.18893818  1
  Cl  Cl21  1  0.63631935  0.86342304  0.81106182  1
  Cl  Cl22  1  0.86342304  0.63631935  0.31106182  1
  Cl  Cl23  1  0.13657696  0.36368065  0.68893818  1
loop_
_geom_bond_atom_site_label_1
_geom_bond_atom_site_label_2
_geom_bond_distance
_geom_bond_site_symmetry_2
Cl0 Dy2 2.647971 1_565
Cl0 Rb10 3.257288 1_555
Cl0 Rb7 3.491569 1_554
Cl0 Rb0 3.531471 1_555
Cl0 Rb4 3.652259 1_555
Cl1 Dy2 2.647971 1_556
Cl1 Rb11 3.257288 1_555
Cl1 Rb6 3.491569 1_556
Cl1 Rb1 3.531471 1_555
Cl1 Rb5 3.652259 1_555
Cl2 Dy3 2.647971 1_555
Cl2 Rb8 3.257288 1_555
Cl2 Rb5 3.491569 1_555
Cl2 Rb2 3.531471 1_555
Cl2 Rb6 3.652259 1_555
Cl3 Dy3 2.647971 1_655
Cl3 Rb9 3.257288 1_555
Cl3 Rb4 3.491569 1_555
Cl3 Rb3 3.531471 1_555
Cl3 Rb7 3.652259 1_555
Cl4 Dy0 2.634322 1_555
Cl4 Rb6 3.207614 1_555
Cl4 Rb1 3.413716 1_554
Cl4 Rb8 3.445812 1_555
Cl5 Dy1 2.634322 1_555
Cl5 Rb7 3.207614 1_555
Cl5 Rb0 3.413716 1_556
Cl5 Rb9 3.445812 1_555
Cl6 Dy0 2.634322 1_555
Cl6 Rb4 3.207614 1_555
Cl6 Rb3 3.413716 1_555
Cl6 Rb10 3.445812 1_555
Cl7 Dy1 2.634322 1_555
Cl7 Rb5 3.207614 1_555
Cl7 Rb2 3.413716 1_555
Cl7 Rb11 3.445812 1_555
Cl8 Dy2 2.627305 1_565
Cl8 Rb6 3.232667 1_655
Cl8 Rb11 3.407855 1_654
Cl8 Rb1 3.661898 1_564
Cl8 Rb8 3.707220 1_565
Cl9 Dy2 2.627305 1_556
Cl9 Rb7 3.232667 1_455
Cl9 Rb10 3.407855 1_456
Cl9 Rb0 3.661898 1_546
Cl9 Rb9 3.707220 1_545
Cl10 Dy3 2.627305 1_555
Cl10 Rb4 3.232667 1_545
Cl10 Rb9 3.407855 1_545
Cl10 Rb3 3.661898 1_455
Cl10 Rb10 3.707220 1_455
Cl11 Dy3 2.627305 1_655
Cl11 Rb5 3.232667 1_565
Cl11 Rb8 3.407855 1_565
Cl11 Rb2 3.661898 1_655
Cl11 Rb11 3.707220 1_655
Cl12 Dy1 2.653839 1_655
Cl12 Rb11 3.260066 1_655
Cl12 Rb5 3.412853 1_565
Cl12 Rb1 3.434570 1_565
Cl12 Rb3 3.523532 1_565
Cl13 Dy0 2.653839 1_455
Cl13 Rb10 3.260066 1_455
Cl13 Rb4 3.412853 1_545
Cl13 Rb0 3.434570 1_545
Cl13 Rb2 3.523532 1_545
Cl14 Dy1 2.653839 1_545
Cl14 Rb9 3.260066 1_545
Cl14 Rb7 3.412853 1_455
Cl14 Rb3 3.434570 1_455
Cl14 Rb1 3.523532 1_455
Cl15 Dy0 2.653839 1_565
Cl15 Rb8 3.260066 1_565
Cl15 Rb6 3.412853 1_655
Cl15 Rb2 3.434570 1_655
Cl15 Rb0 3.523532 1_655
Cl16 Dy0 2.611107 1_555
Cl16 Rb5 3.430365 1_555
Cl16 Rb3 3.456937 1_555
Cl16 Rb8 3.474089 1_555
Cl16 Rb2 3.644324 1_645
Cl17 Dy1 2.611107 1_555
Cl17 Rb4 3.430365 1_555
Cl17 Rb2 3.456937 1_555
Cl17 Rb9 3.474089 1_555
Cl17 Rb3 3.644324 1_465
Cl18 Dy0 2.611107 1_555
Cl18 Rb7 3.430365 1_554
Cl18 Rb1 3.456937 1_554
Cl18 Rb10 3.474089 1_555
Cl18 Rb0 3.644324 1_645
Cl19 Dy1 2.611107 1_555
Cl19 Rb6 3.430365 1_556
Cl19 Rb0 3.456937 1_556
Cl19 Rb11 3.474089 1_555
Cl19 Rb1 3.644324 1_465
Cl20 Dy2 2.650036 1_555
Cl20 Rb10 3.260157 1_455
Cl20 Rb8 3.292492 1_555
Cl20 Rb6 3.392289 1_555
Cl20 Rb4 3.392830 1_545
Cl21 Dy2 2.650036 1_566
Cl21 Rb11 3.260157 1_655
Cl21 Rb9 3.292492 1_555
Cl21 Rb7 3.392289 1_555
Cl21 Rb5 3.392830 1_565
Cl22 Dy3 2.650036 1_655
Cl22 Rb8 3.260157 1_565
Cl22 Rb10 3.292492 1_555
Cl22 Rb4 3.392289 1_555
Cl22 Rb6 3.392830 1_655
Cl23 Dy3 2.650036 1_555
Cl23 Rb9 3.260157 1_545
Cl23 Rb11 3.292492 1_555
Cl23 Rb5 3.392289 1_555
Cl23 Rb7 3.392830 1_455
