# generated using pymatgen
data_Pu(SO6)2
_symmetry_space_group_name_H-M   'P 1'
_cell_length_a   14.92935188
_cell_length_b   13.49555207
_cell_length_c   7.55079607
_cell_angle_alpha   85.42425160
_cell_angle_beta   64.30037394
_cell_angle_gamma   30.27537446
_symmetry_Int_Tables_number   1
_chemical_formula_structural   Pu(SO6)2
_chemical_formula_sum   'Pu2 S4 O24'
_cell_volume   525.92512333
_cell_formula_units_Z   2
loop_
 _symmetry_equiv_pos_site_id
 _symmetry_equiv_pos_as_xyz
  1  'x, y, z'
loop_
 _atom_site_type_symbol
 _atom_site_label
 _atom_site_symmetry_multiplicity
 _atom_site_fract_x
 _atom_site_fract_y
 _atom_site_fract_z
 _atom_site_occupancy
  Pu  Pu0  1  0.50000000  0.50000000  0.50000000  1
  Pu  Pu1  1  0.75000000  0.75000000  0.75000000  1
  S  S0  1  0.44287300  0.44287300  0.05712700  1
  S  S1  1  0.05712700  0.05712700  0.44287300  1
  S  S2  1  0.80712700  0.80712700  0.19287300  1
  S  S3  1  0.19287300  0.19287300  0.80712700  1
  O  O0  1  0.68553400  0.21652500  0.35695800  1
  O  O1  1  0.74098300  0.35695800  0.21652500  1
  O  O2  1  0.35695800  0.74098300  0.68553400  1
  O  O3  1  0.21652500  0.68553400  0.74098300  1
  O  O4  1  0.56446600  0.03347500  0.89304200  1
  O  O5  1  0.50901700  0.89304200  0.03347500  1
  O  O6  1  0.89304200  0.50901700  0.56446600  1
  O  O7  1  0.03347500  0.56446600  0.50901700  1
  O  O8  1  0.52641100  0.42624900  0.14151000  1
  O  O9  1  0.90583100  0.14151000  0.42624900  1
  O  O10  1  0.14151000  0.90583100  0.52641100  1
  O  O11  1  0.42624900  0.52641100  0.90583100  1
  O  O12  1  0.72358900  0.82375100  0.10849000  1
  O  O13  1  0.34416900  0.10849000  0.82375100  1
  O  O14  1  0.10849000  0.34416900  0.72358900  1
  O  O15  1  0.82375100  0.72358900  0.34416900  1
  O  O16  1  0.19175300  0.62480300  0.27764800  1
  O  O17  1  0.90579600  0.27764800  0.62480300  1
  O  O18  1  0.27764800  0.90579600  0.19175300  1
  O  O19  1  0.62480300  0.19175300  0.90579600  1
  O  O20  1  0.05824700  0.62519700  0.97235200  1
  O  O21  1  0.34420400  0.97235200  0.62519700  1
  O  O22  1  0.97235200  0.34420400  0.05824700  1
  O  O23  1  0.62519700  0.05824700  0.34420400  1
loop_
_geom_bond_atom_site_label_1
_geom_bond_atom_site_label_2
_geom_bond_distance
_geom_bond_site_symmetry_2
O0 Pu0 1.798955 1_555
O1 Pu0 1.798955 1_555
O2 Pu0 1.798955 1_555
O3 Pu0 1.798955 1_555
O4 Pu1 1.798955 1_545
O5 Pu1 1.798955 1_554
O6 Pu1 1.798955 1_555
O7 Pu1 1.798955 1_455
O8 S0 1.481501 1_555
O9 S1 1.481487 1_655
O10 S1 1.481492 1_565
O11 S0 1.481495 1_556
O12 S2 1.481501 1_555
O13 S3 1.481487 1_555
O14 S3 1.481492 1_555
O15 S2 1.481495 1_555
O16 S0 1.481707 1_555
O17 S1 1.481707 1_655
O18 S1 1.481707 1_565
O19 S0 1.481707 1_556
O20 S2 1.481707 1_456
O21 S3 1.481707 1_565
O22 S3 1.481707 1_654
O23 S2 1.481707 1_545
