# generated using pymatgen
data_Ac3Ho
_symmetry_space_group_name_H-M   'P 1'
_cell_length_a   7.82700820
_cell_length_b   7.82700820
_cell_length_c   6.33781700
_cell_angle_alpha   90.00000000
_cell_angle_beta   90.00000000
_cell_angle_gamma   120.00000173
_symmetry_Int_Tables_number   1
_chemical_formula_structural   Ac3Ho
_chemical_formula_sum   'Ac6 Ho2'
_cell_volume   336.24969367
_cell_formula_units_Z   2
loop_
 _symmetry_equiv_pos_site_id
 _symmetry_equiv_pos_as_xyz
  1  'x, y, z'
loop_
 _atom_site_type_symbol
 _atom_site_label
 _atom_site_symmetry_multiplicity
 _atom_site_fract_x
 _atom_site_fract_y
 _atom_site_fract_z
 _atom_site_occupancy
  Ac  Ac0  1  0.16973700  0.33947400  0.25000000  1
  Ac  Ac1  1  0.66052600  0.83026300  0.25000000  1
  Ac  Ac2  1  0.16973700  0.83026300  0.25000000  1
  Ac  Ac3  1  0.83026300  0.66052600  0.75000000  1
  Ac  Ac4  1  0.33947400  0.16973700  0.75000000  1
  Ac  Ac5  1  0.83026300  0.16973700  0.75000000  1
  Ho  Ho0  1  0.33333300  0.66666700  0.75000000  1
  Ho  Ho1  1  0.66666700  0.33333300  0.25000000  1
loop_
_geom_bond_atom_site_label_1
_geom_bond_atom_site_label_2
_geom_bond_distance
_geom_bond_site_symmetry_2
Ac0 Ac1 3.841409 1_555
Ac0 Ac2 3.841410 1_555
Ac0 Ho0 3.867919 1_555
Ac0 Ho0 3.867919 1_554
Ac0 Ho1 3.913722 1_455
Ac0 Ho1 3.913729 1_555
Ac0 Ac5 3.916246 1_455
Ac0 Ac5 3.916246 1_454
Ac0 Ac4 3.916246 1_554
Ac0 Ac4 3.916246 1_555
Ac0 Ac1 3.985599 1_445
Ac0 Ac2 3.985599 1_545
Ac1 Ac2 3.841410 1_555
Ac1 Ho0 3.867919 1_554
Ac1 Ho0 3.867919 1_555
Ac1 Ho1 3.913722 1_565
Ac1 Ho1 3.913729 1_555
Ac1 Ac5 3.916246 1_565
Ac1 Ac5 3.916246 1_564
Ac1 Ac3 3.916246 1_554
Ac1 Ac3 3.916246 1_555
Ac1 Ac2 3.985599 1_655
Ac2 Ho0 3.867915 1_555
Ac2 Ho0 3.867915 1_554
Ac2 Ho1 3.913725 1_455
Ac2 Ho1 3.913725 1_565
Ac2 Ac4 3.916246 1_564
Ac2 Ac3 3.916246 1_455
Ac2 Ac4 3.916246 1_565
Ac2 Ac3 3.916246 1_454
Ac3 Ac4 3.841409 1_555
Ac3 Ac5 3.841410 1_555
Ac3 Ho1 3.867919 1_555
Ac3 Ho1 3.867919 1_556
Ac3 Ho0 3.913722 1_655
Ac3 Ho0 3.913729 1_555
Ac3 Ac4 3.985599 1_665
Ac3 Ac5 3.985599 1_565
Ac4 Ac5 3.841410 1_555
Ac4 Ho1 3.867919 1_555
Ac4 Ho1 3.867919 1_556
Ac4 Ho0 3.913722 1_545
Ac4 Ho0 3.913729 1_555
Ac4 Ac5 3.985599 1_455
Ac5 Ho1 3.867915 1_555
Ac5 Ho1 3.867915 1_556
Ac5 Ho0 3.913725 1_545
Ac5 Ho0 3.913725 1_655
