# generated using pymatgen
data_Sr4CaFe2(SO3)2
_symmetry_space_group_name_H-M   'P 1'
_cell_length_a   3.97523200
_cell_length_b   3.97523200
_cell_length_c   16.77942800
_cell_angle_alpha   90.00000000
_cell_angle_beta   90.00000000
_cell_angle_gamma   90.00000000
_symmetry_Int_Tables_number   1
_chemical_formula_structural   Sr4CaFe2(SO3)2
_chemical_formula_sum   'Sr4 Ca1 Fe2 S2 O6'
_cell_volume   265.15639842
_cell_formula_units_Z   1
loop_
 _symmetry_equiv_pos_site_id
 _symmetry_equiv_pos_as_xyz
  1  'x, y, z'
loop_
 _atom_site_type_symbol
 _atom_site_label
 _atom_site_symmetry_multiplicity
 _atom_site_fract_x
 _atom_site_fract_y
 _atom_site_fract_z
 _atom_site_occupancy
  Sr  Sr0  1  0.00000000  0.50000000  0.70293800  1
  Sr  Sr1  1  0.50000000  0.00000000  0.29706200  1
  Sr  Sr2  1  0.00000000  0.50000000  0.91724800  1
  Sr  Sr3  1  0.50000000  0.00000000  0.08275200  1
  Ca  Ca0  1  0.50000000  0.50000000  0.50000000  1
  Fe  Fe0  1  0.50000000  0.00000000  0.82027100  1
  Fe  Fe1  1  0.00000000  0.50000000  0.17972900  1
  S  S0  1  0.50000000  0.00000000  0.61106500  1
  S  S1  1  0.00000000  0.50000000  0.38893500  1
  O  O0  1  0.00000000  0.00000000  0.80028500  1
  O  O1  1  0.50000000  0.50000000  0.79991800  1
  O  O2  1  0.50000000  0.50000000  0.20008200  1
  O  O3  1  0.00000000  0.00000000  0.19971500  1
  O  O4  1  0.50000000  0.00000000  0.93480500  1
  O  O5  1  0.00000000  0.50000000  0.06519500  1
loop_
_geom_bond_atom_site_label_1
_geom_bond_atom_site_label_2
_geom_bond_distance
_geom_bond_site_symmetry_2
Ca0 S0 2.724637 1_565
Ca0 S0 2.724637 1_555
Ca0 S1 2.724637 1_655
Ca0 S1 2.724637 1_555
Fe0 O4 1.921815 1_555
Fe0 O0 2.015708 1_555
Fe0 O0 2.015708 1_655
Fe0 O1 2.016742 1_555
Fe0 O1 2.016742 1_545
Fe1 O5 1.921815 1_555
Fe1 O3 2.015708 1_555
Fe1 O3 2.015708 1_565
Fe1 O2 2.016742 1_455
Fe1 O2 2.016742 1_555
S0 Sr0 3.205884 1_655
S0 Sr0 3.205884 1_545
S0 Sr0 3.205884 1_555
S0 Sr0 3.205884 1_645
S1 Sr1 3.205884 1_455
S1 Sr1 3.205884 1_565
S1 Sr1 3.205884 1_555
S1 Sr1 3.205884 1_465
O0 Sr0 2.572684 1_555
O0 Sr0 2.572684 1_545
O0 Sr2 2.793261 1_555
O0 Sr2 2.793261 1_545
O1 Sr0 2.568778 1_655
O1 Sr0 2.568778 1_555
O1 Sr2 2.797591 1_555
O1 Sr2 2.797591 1_655
O2 Sr1 2.568778 1_565
O2 Sr1 2.568778 1_555
O2 Sr3 2.797591 1_555
O2 Sr3 2.797591 1_565
O3 Sr1 2.572684 1_455
O3 Sr1 2.572684 1_555
O3 Sr3 2.793261 1_455
O3 Sr3 2.793261 1_555
O4 Sr3 2.482466 1_556
O4 Sr2 2.826309 1_645
O4 Sr2 2.826309 1_555
O4 Sr2 2.826309 1_545
O4 Sr2 2.826309 1_655
O5 Sr2 2.482466 1_554
O5 Sr3 2.826309 1_565
O5 Sr3 2.826309 1_465
O5 Sr3 2.826309 1_455
O5 Sr3 2.826309 1_555
