# generated using pymatgen
data_Li4Cr3NiO8
_symmetry_space_group_name_H-M   'P 1'
_cell_length_a   5.90928966
_cell_length_b   5.92129176
_cell_length_c   10.23840849
_cell_angle_alpha   106.65077302
_cell_angle_beta   89.97627104
_cell_angle_gamma   59.92634027
_symmetry_Int_Tables_number   1
_chemical_formula_structural   Li4Cr3NiO8
_chemical_formula_sum   'Li8 Cr6 Ni2 O16'
_cell_volume   292.50773896
_cell_formula_units_Z   2
loop_
 _symmetry_equiv_pos_site_id
 _symmetry_equiv_pos_as_xyz
  1  'x, y, z'
loop_
 _atom_site_type_symbol
 _atom_site_label
 _atom_site_symmetry_multiplicity
 _atom_site_fract_x
 _atom_site_fract_y
 _atom_site_fract_z
 _atom_site_occupancy
  Li  Li0  1  0.50143400  0.00555400  0.49941600  1
  Li  Li1  1  0.49768300  0.50400300  0.00227000  1
  Li  Li2  1  0.99862800  0.99449200  0.00058000  1
  Li  Li3  1  0.00232800  0.49603900  0.49773300  1
  Li  Li4  1  0.99155200  0.00815000  0.50320400  1
  Li  Li5  1  0.99691300  0.50883600  0.00008000  1
  Li  Li6  1  0.50848700  0.99185800  0.99677300  1
  Li  Li7  1  0.50312000  0.49113400  0.49986300  1
  Cr  Cr0  1  0.24992100  0.50005600  0.25003800  1
  Cr  Cr1  1  0.25004600  0.99994100  0.74995700  1
  Cr  Cr2  1  0.24998600  0.00000500  0.25004400  1
  Cr  Cr3  1  0.24990900  0.49999800  0.75000500  1
  Cr  Cr4  1  0.75001800  0.50002000  0.25006000  1
  Cr  Cr5  1  0.75011600  0.99987000  0.74998100  1
  Ni  Ni0  1  0.74985500  0.50007300  0.74999400  1
  Ni  Ni1  1  0.74985700  0.00005300  0.25004100  1
  O  O0  1  0.62230200  0.74132100  0.13664100  1
  O  O1  1  0.61885100  0.25342200  0.63513500  1
  O  O2  1  0.87764300  0.25873300  0.36336800  1
  O  O3  1  0.88117800  0.74646500  0.86481700  1
  O  O4  1  0.11891400  0.25968900  0.13732500  1
  O  O5  1  0.12255000  0.75963200  0.63654800  1
  O  O6  1  0.38106200  0.74036900  0.36269700  1
  O  O7  1  0.37758200  0.24028400  0.86341300  1
  O  O8  1  0.37385900  0.24438600  0.36374700  1
  O  O9  1  0.36319800  0.75849500  0.86210900  1
  O  O10  1  0.87730400  0.72536200  0.36208700  1
  O  O11  1  0.89773800  0.22365000  0.86128600  1
  O  O12  1  0.12608300  0.75568200  0.13630500  1
  O  O13  1  0.13677000  0.24147900  0.63787100  1
  O  O14  1  0.62267700  0.27465900  0.13795200  1
  O  O15  1  0.60243300  0.77628700  0.63866200  1
loop_
_geom_bond_atom_site_label_1
_geom_bond_atom_site_label_2
_geom_bond_distance
_geom_bond_site_symmetry_2
Li0 O1 2.102163 1_555
Li0 O13 2.109548 1_555
Li0 O15 2.128255 1_545
Li0 O8 2.134429 1_555
Li0 O10 2.151798 1_545
Li0 O6 2.188981 1_545
Li1 O0 2.083200 1_555
Li1 O14 2.096716 1_555
Li1 O12 2.114667 1_555
Li1 O7 2.191490 1_554
Li1 O9 2.236436 1_554
Li1 O11 2.262480 1_554
Li2 O3 2.103138 1_554
Li2 O9 2.109226 1_654
Li2 O11 2.128255 1_564
Li2 O12 2.134808 1_655
Li2 O14 2.152287 1_565
Li2 O4 2.188798 1_665
Li3 O2 2.083394 1_455
Li3 O10 2.096326 1_455
Li3 O8 2.114164 1_555
Li3 O5 2.191272 1_555
Li3 O13 2.236508 1_555
Li3 O15 2.261583 1_455
Li4 O1 2.109966 1_555
Li4 O5 2.153848 1_645
Li4 O13 2.154953 1_655
Li4 O6 2.216729 1_645
Li4 O2 2.218479 1_555
Li4 O10 2.257098 1_545
Li5 O3 2.125678 1_554
Li5 O0 2.142565 1_555
Li5 O12 2.148274 1_655
Li5 O7 2.164249 1_654
Li5 O4 2.189421 1_655
Li5 O11 2.198125 1_554
Li6 O3 2.110025 1_555
Li6 O7 2.153601 1_565
Li6 O9 2.155373 1_555
Li6 O4 2.217189 1_566
Li6 O0 2.218579 1_556
Li6 O14 2.257194 1_566
Li7 O1 2.126093 1_555
Li7 O2 2.141910 1_555
Li7 O8 2.147752 1_555
Li7 O5 2.163928 1_555
Li7 O6 2.189104 1_555
Li7 O15 2.198539 1_555
Cr0 O8 2.020679 1_555
Cr0 O12 2.020690 1_555
Cr0 O4 2.029915 1_555
Cr0 O10 2.030024 1_455
Cr0 O6 2.030059 1_555
Cr0 O14 2.030761 1_555
Cr1 O11 1.938305 1_465
Cr1 O15 1.938518 1_555
Cr1 O13 1.947374 1_565
Cr1 O9 1.947534 1_555
Cr1 O5 2.017159 1_555
Cr1 O7 2.017657 1_565
Cr2 O8 2.020377 1_555
Cr2 O12 2.020390 1_545
Cr2 O6 2.029102 1_545
Cr2 O4 2.029840 1_555
Cr2 O2 2.033560 1_455
Cr2 O0 2.033722 1_545
Cr3 O3 2.021668 1_455
Cr3 O1 2.022793 1_555
Cr3 O13 2.031626 1_555
Cr3 O9 2.032047 1_555
Cr3 O7 2.035573 1_555
Cr3 O5 2.035635 1_555
Cr4 O10 1.947112 1_555
Cr4 O14 1.947755 1_555
Cr4 O2 1.956152 1_555
Cr4 O0 1.957134 1_555
Cr4 O6 2.014069 1_555
Cr4 O4 2.014182 1_655
Cr5 O3 2.020077 1_555
Cr5 O1 2.020797 1_565
Cr5 O15 2.026663 1_555
Cr5 O11 2.027162 1_565
Cr5 O5 2.032093 1_655
Cr5 O7 2.032515 1_565
Ni0 O1 2.065160 1_555
Ni0 O3 2.065278 1_555
Ni0 O9 2.089714 1_555
Ni0 O13 2.090876 1_655
Ni0 O15 2.091512 1_555
Ni0 O11 2.092168 1_555
Ni1 O8 2.048443 1_555
Ni1 O12 2.049539 1_645
Ni1 O10 2.090719 1_545
Ni1 O14 2.090725 1_555
Ni1 O0 2.098092 1_545
Ni1 O2 2.098594 1_555
