# generated using pymatgen
data_Ba6Gd(ReO6)3
_symmetry_space_group_name_H-M   'P 1'
_cell_length_a   10.22819230
_cell_length_b   10.22819230
_cell_length_c   10.10972700
_cell_angle_alpha   80.29700322
_cell_angle_beta   80.29700322
_cell_angle_gamma   119.99282195
_symmetry_Int_Tables_number   1
_chemical_formula_structural   Ba6Gd(ReO6)3
_chemical_formula_sum   'Ba12 Gd2 Re6 O36'
_cell_volume   862.41087562
_cell_formula_units_Z   2
loop_
 _symmetry_equiv_pos_site_id
 _symmetry_equiv_pos_as_xyz
  1  'x, y, z'
loop_
 _atom_site_type_symbol
 _atom_site_label
 _atom_site_symmetry_multiplicity
 _atom_site_fract_x
 _atom_site_fract_y
 _atom_site_fract_z
 _atom_site_occupancy
  Ba  Ba0  1  0.28022300  0.28022300  0.12468600  1
  Ba  Ba1  1  0.95859600  0.63694000  0.12428800  1
  Ba  Ba2  1  0.63694000  0.95859600  0.12428800  1
  Ba  Ba3  1  0.04140400  0.36306000  0.87571200  1
  Ba  Ba4  1  0.71977700  0.71977700  0.87531400  1
  Ba  Ba5  1  0.36306000  0.04140400  0.87571200  1
  Ba  Ba6  1  0.12928700  0.12928700  0.61409300  1
  Ba  Ba7  1  0.79783600  0.46380500  0.60618700  1
  Ba  Ba8  1  0.46380500  0.79783600  0.60618700  1
  Ba  Ba9  1  0.20216400  0.53619500  0.39381300  1
  Ba  Ba10  1  0.87071300  0.87071300  0.38590700  1
  Ba  Ba11  1  0.53619500  0.20216400  0.39381300  1
  Gd  Gd0  1  0.66677300  0.33322700  0.00000000  1
  Gd  Gd1  1  0.33322700  0.66677300  0.00000000  1
  Re  Re0  1  0.08919300  0.75925500  0.73145300  1
  Re  Re1  1  0.75925500  0.08919300  0.73145300  1
  Re  Re2  1  0.41978900  0.41978900  0.73163400  1
  Re  Re3  1  0.24074500  0.91080700  0.26854700  1
  Re  Re4  1  0.91080700  0.24074500  0.26854700  1
  Re  Re5  1  0.58021100  0.58021100  0.26836600  1
  O  O0  1  0.12091800  0.63071700  0.63801600  1
  O  O1  1  0.78884400  0.96701900  0.63032800  1
  O  O2  1  0.45702900  0.30074600  0.63132500  1
  O  O3  1  0.27936800  0.94456300  0.63136300  1
  O  O4  1  0.94456300  0.27936800  0.63136300  1
  O  O5  1  0.61072000  0.61072000  0.63715400  1
  O  O6  1  0.96701900  0.78884400  0.63032800  1
  O  O7  1  0.63071700  0.12091800  0.63801600  1
  O  O8  1  0.30074600  0.45702900  0.63132500  1
  O  O9  1  0.21115600  0.03298100  0.36967200  1
  O  O10  1  0.87908200  0.36928300  0.36198400  1
  O  O11  1  0.54297100  0.69925400  0.36867500  1
  O  O12  1  0.05543700  0.72063200  0.36863700  1
  O  O13  1  0.72063200  0.05543700  0.36863700  1
  O  O14  1  0.38928000  0.38928000  0.36284600  1
  O  O15  1  0.36928300  0.87908200  0.36198400  1
  O  O16  1  0.03298100  0.21115600  0.36967200  1
  O  O17  1  0.69925400  0.54297100  0.36867500  1
  O  O18  1  0.28764200  0.79981800  0.13881500  1
  O  O19  1  0.95320700  0.14270200  0.14095200  1
  O  O20  1  0.61954200  0.46575500  0.13897400  1
  O  O21  1  0.44131300  0.10759100  0.13908100  1
  O  O22  1  0.10759100  0.44131300  0.13908100  1
  O  O23  1  0.76343400  0.76343400  0.14079500  1
  O  O24  1  0.14270200  0.95320700  0.14095200  1
  O  O25  1  0.79981800  0.28764200  0.13881500  1
  O  O26  1  0.46575500  0.61954200  0.13897400  1
  O  O27  1  0.04679300  0.85729800  0.85904800  1
  O  O28  1  0.71235800  0.20018200  0.86118400  1
  O  O29  1  0.38045800  0.53424500  0.86102600  1
  O  O30  1  0.89240900  0.55868700  0.86091900  1
  O  O31  1  0.55868700  0.89240900  0.86091900  1
  O  O32  1  0.23656600  0.23656600  0.85920500  1
  O  O33  1  0.20018200  0.71235800  0.86118400  1
  O  O34  1  0.85729800  0.04679300  0.85904800  1
  O  O35  1  0.53424500  0.38045800  0.86102600  1
loop_
_geom_bond_atom_site_label_1
_geom_bond_atom_site_label_2
_geom_bond_distance
_geom_bond_site_symmetry_2
Ba0 O32 2.865473 1_554
Ba0 O24 2.868103 1_545
Ba0 O19 2.868103 1_455
Ba0 O9 2.922541 1_555
Ba0 O16 2.922541 1_555
Ba0 O22 2.959151 1_555
Ba0 O21 2.959151 1_555
Ba0 O14 2.975282 1_555
Ba0 O35 2.997987 1_554
Ba0 O29 2.997987 1_554
Ba0 O26 3.056786 1_555
Ba0 O20 3.056786 1_555
Ba1 O27 2.863347 1_654
Ba1 O23 2.868620 1_555
Ba1 O24 2.870374 1_655
Ba1 O17 2.916471 1_555
Ba1 O12 2.916530 1_655
Ba1 O18 2.960967 1_655
Ba1 O20 2.963488 1_555
Ba1 O10 2.971265 1_555
Ba1 O33 2.993847 1_654
Ba1 O30 2.995415 1_554
Ba1 O25 3.060226 1_555
Ba1 O22 3.061538 1_655
Ba2 O34 2.863347 1_564
Ba2 O23 2.868620 1_555
Ba2 O19 2.870374 1_565
Ba2 O11 2.916471 1_555
Ba2 O13 2.916530 1_565
Ba2 O25 2.960967 1_565
Ba2 O26 2.963488 1_555
Ba2 O15 2.971265 1_555
Ba2 O28 2.993847 1_564
Ba2 O31 2.995415 1_554
Ba2 O18 3.060226 1_555
Ba2 O21 3.061538 1_565
Ba3 O19 2.863347 1_456
Ba3 O32 2.868620 1_555
Ba3 O34 2.870374 1_455
Ba3 O8 2.916471 1_555
Ba3 O4 2.916530 1_455
Ba3 O28 2.960971 1_455
Ba3 O29 2.963488 1_555
Ba3 O0 2.971265 1_555
Ba3 O25 2.993840 1_456
Ba3 O22 2.995415 1_556
Ba3 O33 3.060224 1_555
Ba3 O30 3.061538 1_455
Ba4 O23 2.865473 1_556
Ba4 O27 2.868103 1_655
Ba4 O34 2.868103 1_565
Ba4 O1 2.922541 1_555
Ba4 O6 2.922541 1_555
Ba4 O31 2.959151 1_555
Ba4 O30 2.959151 1_555
Ba4 O5 2.975282 1_555
Ba4 O26 2.997987 1_556
Ba4 O20 2.997987 1_556
Ba4 O29 3.056786 1_555
Ba4 O35 3.056786 1_555
Ba5 O24 2.863347 1_546
Ba5 O32 2.868620 1_555
Ba5 O27 2.870374 1_545
Ba5 O2 2.916471 1_555
Ba5 O3 2.916530 1_545
Ba5 O33 2.960971 1_545
Ba5 O35 2.963488 1_555
Ba5 O7 2.971265 1_555
Ba5 O18 2.993840 1_546
Ba5 O21 2.995415 1_556
Ba5 O28 3.060224 1_555
Ba5 O31 3.061538 1_545
Ba6 O16 2.953834 1_555
Ba6 O9 2.953834 1_555
Ba6 O2 2.960652 1_555
Ba6 O8 2.960652 1_555
Ba6 O3 2.972462 1_545
Ba6 O4 2.972462 1_455
Ba6 O6 2.973918 1_445
Ba6 O1 2.973918 1_445
Ba6 O14 2.995207 1_555
Ba6 O32 3.029507 1_555
Ba6 O34 3.034881 1_455
Ba6 O27 3.034881 1_545
Ba7 O17 2.900870 1_555
Ba7 O12 2.903602 1_655
Ba7 O10 2.938805 1_555
Ba7 O4 2.945022 1_555
Ba7 O2 2.956909 1_555
Ba7 O7 2.960722 1_555
Ba7 O6 2.961563 1_555
Ba7 O0 2.973451 1_655
Ba7 O5 2.975027 1_555
Ba7 O28 3.036603 1_555
Ba7 O30 3.041895 1_555
Ba7 O35 3.041956 1_555
Ba8 O11 2.900870 1_555
Ba8 O13 2.903602 1_565
Ba8 O15 2.938805 1_555
Ba8 O3 2.945022 1_555
Ba8 O8 2.956909 1_555
Ba8 O0 2.960722 1_555
Ba8 O1 2.961563 1_555
Ba8 O7 2.973451 1_565
Ba8 O5 2.975027 1_555
Ba8 O33 3.036603 1_555
Ba8 O31 3.041895 1_555
Ba8 O29 3.041956 1_555
Ba9 O8 2.900870 1_555
Ba9 O4 2.903602 1_455
Ba9 O0 2.938805 1_555
Ba9 O12 2.945022 1_555
Ba9 O11 2.956909 1_555
Ba9 O15 2.960722 1_555
Ba9 O16 2.961563 1_555
Ba9 O10 2.973451 1_455
Ba9 O14 2.975027 1_555
Ba9 O18 3.036610 1_555
Ba9 O22 3.041895 1_555
Ba9 O26 3.041956 1_555
Ba10 O1 2.953834 1_555
Ba10 O6 2.953834 1_555
Ba10 O11 2.960652 1_555
Ba10 O17 2.960652 1_555
Ba10 O12 2.972462 1_655
Ba10 O13 2.972462 1_565
Ba10 O16 2.973918 1_665
Ba10 O9 2.973918 1_665
Ba10 O5 2.995207 1_555
Ba10 O23 3.029507 1_555
Ba10 O24 3.034881 1_655
Ba10 O19 3.034881 1_565
Ba11 O2 2.900870 1_555
Ba11 O3 2.903602 1_545
Ba11 O7 2.938805 1_555
Ba11 O13 2.945022 1_555
Ba11 O17 2.956909 1_555
Ba11 O10 2.960722 1_555
Ba11 O9 2.961563 1_555
Ba11 O15 2.973451 1_545
Ba11 O14 2.975027 1_555
Ba11 O25 3.036610 1_555
Ba11 O21 3.041895 1_555
Ba11 O20 3.041956 1_555
Gd0 O25 2.257475 1_555
Gd0 O28 2.257482 1_554
Gd0 O20 2.261124 1_555
Gd0 O35 2.261124 1_554
Gd0 O21 2.261282 1_555
Gd0 O30 2.261282 1_554
Gd1 O18 2.257475 1_555
Gd1 O33 2.257482 1_554
Gd1 O26 2.261124 1_555
Gd1 O29 2.261124 1_554
Gd1 O22 2.261282 1_555
Gd1 O31 2.261282 1_554
O0 Re0 1.862227 1_555
O1 Re1 1.844662 1_565
O2 Re2 1.845454 1_555
O3 Re0 1.844993 1_555
O4 Re1 1.844993 1_555
O5 Re2 1.862625 1_555
O6 Re0 1.844662 1_655
O7 Re1 1.862227 1_555
O8 Re2 1.845454 1_555
O9 Re3 1.844662 1_545
O10 Re4 1.862227 1_555
O11 Re5 1.845454 1_555
O12 Re3 1.844993 1_555
O13 Re4 1.844993 1_555
O14 Re5 1.862625 1_555
O15 Re3 1.862227 1_555
O16 Re4 1.844662 1_455
O17 Re5 1.845454 1_555
O18 Re3 2.018219 1_555
O19 Re4 1.881469 1_555
O20 Re5 2.013245 1_555
O21 Re3 2.012825 1_545
O22 Re4 2.012825 1_455
O23 Re5 1.883270 1_555
O24 Re3 1.881469 1_555
O25 Re4 2.018219 1_555
O26 Re5 2.013245 1_555
O27 Re0 1.881469 1_555
O28 Re1 2.018212 1_555
O29 Re2 2.013245 1_555
O30 Re0 2.012825 1_655
O31 Re1 2.012825 1_565
O32 Re2 1.883270 1_555
O33 Re0 2.018212 1_555
O34 Re1 1.881469 1_555
O35 Re2 2.013245 1_555
