# generated using pymatgen
data_Sc2AlPd
_symmetry_space_group_name_H-M   'P 1'
_cell_length_a   10.91423385
_cell_length_b   10.91423385
_cell_length_c   10.91423385
_cell_angle_alpha   123.01316873
_cell_angle_beta   118.95960591
_cell_angle_gamma   88.33677572
_symmetry_Int_Tables_number   1
_chemical_formula_structural   Sc2AlPd
_chemical_formula_sum   'Sc2 Al1 Pd1'
_cell_volume   903.72705693
_cell_formula_units_Z   1
loop_
 _symmetry_equiv_pos_site_id
 _symmetry_equiv_pos_as_xyz
  1  'x, y, z'
loop_
 _atom_site_type_symbol
 _atom_site_label
 _atom_site_symmetry_multiplicity
 _atom_site_fract_x
 _atom_site_fract_y
 _atom_site_fract_z
 _atom_site_occupancy
  Sc  Sc0  1  0.00000000  0.26734400  0.26734400  1
  Sc  Sc1  1  0.00000000  0.73265600  0.73265600  1
  Al  Al0  1  0.00000000  0.00000000  0.00000000  1
  Pd  Pd0  1  0.00000000  0.50000000  0.50000000  1
loop_
_geom_bond_atom_site_label_1
_geom_bond_atom_site_label_2
_geom_bond_distance
_geom_bond_site_symmetry_2
Al0 Sc0 2.783971 1_555
Al0 Sc1 2.783971 1_544
Pd0 Sc1 2.422749 1_555
Pd0 Sc0 2.422749 1_555
