# generated using pymatgen
data_KEuBiWO6
_symmetry_space_group_name_H-M   'P 1'
_cell_length_a   8.47082348
_cell_length_b   8.50514062
_cell_length_c   8.46021757
_cell_angle_alpha   90.00000000
_cell_angle_beta   90.00000000
_cell_angle_gamma   90.00000000
_symmetry_Int_Tables_number   1
_chemical_formula_structural   KEuBiWO6
_chemical_formula_sum   'K4 Eu4 Bi4 W4 O24'
_cell_volume   609.52098450
_cell_formula_units_Z   4
loop_
 _symmetry_equiv_pos_site_id
 _symmetry_equiv_pos_as_xyz
  1  'x, y, z'
loop_
 _atom_site_type_symbol
 _atom_site_label
 _atom_site_symmetry_multiplicity
 _atom_site_fract_x
 _atom_site_fract_y
 _atom_site_fract_z
 _atom_site_occupancy
  K  K0  1  0.50000000  -0.00000000  0.50000000  1
  K  K1  1  0.50000000  0.50000000  -0.00000000  1
  K  K2  1  -0.00000000  0.50000000  -0.00000000  1
  K  K3  1  -0.00000000  -0.00000000  0.50000000  1
  Eu  Eu0  1  -0.00000000  0.50000000  0.50000000  1
  Eu  Eu1  1  0.50000000  -0.00000000  -0.00000000  1
  Eu  Eu2  1  -0.00000000  -0.00000000  -0.00000000  1
  Eu  Eu3  1  0.50000000  0.50000000  0.50000000  1
  Bi  Bi0  1  0.75000000  0.75000000  0.75000000  1
  Bi  Bi1  1  0.25000000  0.25000000  0.75000000  1
  Bi  Bi2  1  0.25000000  0.75000000  0.25000000  1
  Bi  Bi3  1  0.75000000  0.25000000  0.25000000  1
  W  W0  1  0.25000000  0.25000000  0.25000000  1
  W  W1  1  0.75000000  0.75000000  0.25000000  1
  W  W2  1  0.75000000  0.25000000  0.75000000  1
  W  W3  1  0.25000000  0.75000000  0.75000000  1
  O  O0  1  0.02263732  0.22152919  0.27371950  1
  O  O1  1  0.97736268  0.77847081  0.27371950  1
  O  O2  1  0.97736268  0.22152919  0.72628050  1
  O  O3  1  0.02263732  0.77847081  0.72628050  1
  O  O4  1  0.27664190  0.02170915  0.20900007  1
  O  O5  1  0.27664190  0.97829085  0.79099993  1
  O  O6  1  0.72335810  0.97829085  0.20900007  1
  O  O7  1  0.72335810  0.02170915  0.79099993  1
  O  O8  1  0.21985014  0.26840575  0.02312302  1
  O  O9  1  0.78014986  0.26840575  0.97687698  1
  O  O10  1  0.21985014  0.73159425  0.97687698  1
  O  O11  1  0.78014986  0.73159425  0.02312302  1
  O  O12  1  0.47736268  0.27847081  0.22628050  1
  O  O13  1  0.52263732  0.72152919  0.22628050  1
  O  O14  1  0.52263732  0.27847081  0.77371950  1
  O  O15  1  0.47736268  0.72152919  0.77371950  1
  O  O16  1  0.22335810  0.47829085  0.29099993  1
  O  O17  1  0.22335810  0.52170915  0.70900007  1
  O  O18  1  0.77664190  0.52170915  0.29099993  1
  O  O19  1  0.77664190  0.47829085  0.70900007  1
  O  O20  1  0.28014986  0.23159425  0.47687698  1
  O  O21  1  0.71985014  0.23159425  0.52312302  1
  O  O22  1  0.28014986  0.76840575  0.52312302  1
  O  O23  1  0.71985014  0.76840575  0.47687698  1
loop_
_geom_bond_atom_site_label_1
_geom_bond_atom_site_label_2
_geom_bond_distance
_geom_bond_site_symmetry_2
K0 O22 2.717785 1_545
K0 O21 2.717785 1_555
K0 O23 2.717785 1_545
K0 O20 2.717785 1_555
K0 O7 3.110454 1_555
K0 O5 3.110454 1_545
K0 O4 3.110454 1_555
K0 O6 3.110454 1_545
K1 O14 2.692880 1_554
K1 O12 2.692880 1_555
K1 O15 2.692880 1_554
K1 O13 2.692880 1_555
K1 O10 3.090268 1_554
K1 O11 3.090268 1_555
K1 O8 3.090268 1_555
K1 O9 3.090268 1_554
K2 O8 2.717785 1_555
K2 O10 2.717785 1_554
K2 O9 2.717785 1_454
K2 O11 2.717785 1_455
K2 O16 3.110454 1_555
K2 O17 3.110454 1_554
K2 O18 3.110454 1_455
K2 O19 3.110454 1_454
K3 O2 2.692880 1_455
K3 O0 2.692880 1_555
K3 O1 2.692880 1_445
K3 O3 2.692880 1_545
K3 O20 3.090268 1_555
K3 O22 3.090268 1_545
K3 O23 3.090268 1_445
K3 O21 3.090268 1_455
Eu0 O16 2.596216 1_555
Eu0 O19 2.596216 1_455
Eu0 O17 2.596216 1_555
Eu0 O18 2.596216 1_455
Eu1 O7 2.596216 1_554
Eu1 O6 2.596216 1_545
Eu1 O5 2.596216 1_544
Eu1 O4 2.596216 1_555
Eu2 O5 2.941433 1_544
Eu2 O7 2.941433 1_454
Eu2 O6 2.941433 1_445
Eu2 O4 2.941433 1_555
Eu2 O10 2.952589 1_544
Eu2 O9 2.952589 1_454
Eu2 O8 2.952589 1_555
Eu2 O11 2.952589 1_445
Eu2 O0 2.991543 1_555
Eu2 O2 2.991543 1_454
Eu2 O3 2.991543 1_544
Eu2 O1 2.991543 1_445
Eu3 O19 2.941433 1_555
Eu3 O16 2.941433 1_555
Eu3 O17 2.941433 1_555
Eu3 O18 2.941433 1_555
Eu3 O20 2.952589 1_555
Eu3 O23 2.952589 1_555
Eu3 O21 2.952589 1_555
Eu3 O22 2.952589 1_555
Eu3 O12 2.991543 1_555
Eu3 O13 2.991543 1_555
Eu3 O15 2.991543 1_555
Eu3 O14 2.991543 1_555
Bi0 O23 2.330016 1_555
Bi0 O11 2.330016 1_556
Bi0 O15 2.330777 1_555
Bi0 O3 2.330777 1_655
Bi0 O7 2.347684 1_565
Bi0 O19 2.347684 1_555
Bi1 O20 2.330016 1_555
Bi1 O8 2.330016 1_556
Bi1 O14 2.330777 1_555
Bi1 O2 2.330777 1_455
Bi1 O5 2.347684 1_545
Bi1 O17 2.347684 1_555
Bi2 O22 2.330016 1_555
Bi2 O10 2.330016 1_554
Bi2 O1 2.330777 1_455
Bi2 O13 2.330777 1_555
Bi2 O4 2.347684 1_565
Bi2 O16 2.347684 1_555
Bi3 O9 2.330016 1_554
Bi3 O21 2.330016 1_555
Bi3 O12 2.330777 1_555
Bi3 O0 2.330777 1_655
Bi3 O18 2.347684 1_555
Bi3 O6 2.347684 1_545
O0 W0 1.951457 1_555
O1 W1 1.951457 1_555
O2 W2 1.951457 1_555
O3 W3 1.951457 1_555
O4 W0 1.985255 1_555
O5 W3 1.985255 1_555
O6 W1 1.985255 1_555
O7 W2 1.985255 1_555
O8 W0 1.942663 1_555
O9 W2 1.942663 1_555
O10 W3 1.942663 1_555
O11 W1 1.942663 1_555
O12 W0 1.951457 1_555
O13 W1 1.951457 1_555
O14 W2 1.951457 1_555
O15 W3 1.951457 1_555
O16 W0 1.985255 1_555
O17 W3 1.985255 1_555
O18 W1 1.985255 1_555
O19 W2 1.985255 1_555
O20 W0 1.942663 1_555
O21 W2 1.942663 1_555
O22 W3 1.942663 1_555
O23 W1 1.942663 1_555
