# generated using pymatgen
data_SmBi3(Ru2O7)2
_symmetry_space_group_name_H-M   'P 1'
_cell_length_a   7.37282341
_cell_length_b   7.37282341
_cell_length_c   7.37282325
_cell_angle_alpha   59.55502258
_cell_angle_beta   59.55502258
_cell_angle_gamma   59.55502636
_symmetry_Int_Tables_number   1
_chemical_formula_structural   SmBi3(Ru2O7)2
_chemical_formula_sum   'Sm1 Bi3 Ru4 O14'
_cell_volume   280.52433669
_cell_formula_units_Z   1
loop_
 _symmetry_equiv_pos_site_id
 _symmetry_equiv_pos_as_xyz
  1  'x, y, z'
loop_
 _atom_site_type_symbol
 _atom_site_label
 _atom_site_symmetry_multiplicity
 _atom_site_fract_x
 _atom_site_fract_y
 _atom_site_fract_z
 _atom_site_occupancy
  Sm  Sm0  1  0.50000000  0.50000000  0.50000000  1
  Bi  Bi0  1  0.50000000  0.00000000  0.50000000  1
  Bi  Bi1  1  0.00000000  0.50000000  0.50000000  1
  Bi  Bi2  1  0.50000000  0.50000000  0.00000000  1
  Ru  Ru0  1  0.00000000  0.00000000  0.00000000  1
  Ru  Ru1  1  0.00000000  0.50000000  0.00000000  1
  Ru  Ru2  1  0.50000000  0.00000000  0.00000000  1
  Ru  Ru3  1  0.00000000  0.00000000  0.50000000  1
  O  O0  1  0.92121500  0.92121500  0.32838600  1
  O  O1  1  0.32838600  0.92121500  0.92121500  1
  O  O2  1  0.92121500  0.32838600  0.92121500  1
  O  O3  1  0.32917300  0.32917300  0.92364900  1
  O  O4  1  0.92364900  0.32917300  0.32917300  1
  O  O5  1  0.32917300  0.92364900  0.32917300  1
  O  O6  1  0.07878500  0.07878500  0.67161400  1
  O  O7  1  0.67161400  0.07878500  0.07878500  1
  O  O8  1  0.07878500  0.67161400  0.07878500  1
  O  O9  1  0.67082700  0.67082700  0.07635100  1
  O  O10  1  0.07635100  0.67082700  0.67082700  1
  O  O11  1  0.67082700  0.07635100  0.67082700  1
  O  O12  1  0.62312100  0.62312100  0.62312100  1
  O  O13  1  0.37687900  0.37687900  0.37687900  1
loop_
_geom_bond_atom_site_label_1
_geom_bond_atom_site_label_2
_geom_bond_distance
_geom_bond_site_symmetry_2
Bi0 O12 2.256477 1_545
Bi0 O13 2.256477 1_555
Bi0 O1 2.552905 1_545
Bi0 O7 2.552905 1_555
Bi0 O6 2.552905 1_555
Bi0 O0 2.552905 1_545
Bi0 O11 2.556174 1_555
Bi0 O5 2.556174 1_545
Bi1 O12 2.256477 1_455
Bi1 O13 2.256477 1_555
Bi1 O2 2.552905 1_455
Bi1 O8 2.552905 1_555
Bi1 O0 2.552905 1_455
Bi1 O6 2.552905 1_555
Bi1 O10 2.556174 1_555
Bi1 O4 2.556174 1_455
Bi2 O12 2.256476 1_554
Bi2 O13 2.256476 1_555
Bi2 O1 2.552906 1_554
Bi2 O2 2.552906 1_554
Bi2 O8 2.552906 1_555
Bi2 O7 2.552906 1_555
Bi2 O9 2.556174 1_555
Bi2 O3 2.556174 1_554
O0 Ru0 2.007029 1_665
O0 Ru3 2.026656 1_665
O1 Ru0 2.007029 1_566
O1 Ru2 2.026656 1_566
O2 Ru0 2.007029 1_656
O2 Ru1 2.026656 1_656
O3 Ru1 2.007355 1_556
O3 Ru2 2.007355 1_556
O3 Sm0 2.561796 1_555
O4 Ru1 2.007355 1_655
O4 Ru3 2.007355 1_655
O4 Sm0 2.561796 1_555
O5 Ru2 2.007355 1_565
O5 Ru3 2.007355 1_565
O5 Sm0 2.561796 1_555
O6 Ru0 2.007029 1_556
O6 Ru3 2.026656 1_555
O7 Ru0 2.007029 1_655
O7 Ru2 2.026656 1_555
O8 Ru0 2.007029 1_565
O8 Ru1 2.026656 1_555
O9 Ru2 2.007355 1_565
O9 Ru1 2.007355 1_655
O9 Sm0 2.561796 1_555
O10 Ru1 2.007355 1_556
O10 Ru3 2.007355 1_565
O10 Sm0 2.561796 1_555
O11 Ru2 2.007355 1_556
O11 Ru3 2.007355 1_655
O11 Sm0 2.561796 1_555
O12 Sm0 2.230971 1_555
O13 Sm0 2.230971 1_555
