# generated using pymatgen
data_CuO
_symmetry_space_group_name_H-M   'P 1'
_cell_length_a   2.87950096
_cell_length_b   2.87954458
_cell_length_c   5.17639749
_cell_angle_alpha   89.80651162
_cell_angle_beta   89.80634916
_cell_angle_gamma   89.22252538
_symmetry_Int_Tables_number   1
_chemical_formula_structural   CuO
_chemical_formula_sum   'Cu2 O2'
_cell_volume   42.91644874
_cell_formula_units_Z   2
loop_
 _symmetry_equiv_pos_site_id
 _symmetry_equiv_pos_as_xyz
  1  'x, y, z'
loop_
 _atom_site_type_symbol
 _atom_site_label
 _atom_site_symmetry_multiplicity
 _atom_site_fract_x
 _atom_site_fract_y
 _atom_site_fract_z
 _atom_site_occupancy
  Cu  Cu0  1  0.98662329  0.48642685  0.50795434  1
  Cu  Cu1  1  0.48641820  0.98662690  0.00795369  1
  O  O0  1  0.48819932  0.48475507  0.25806724  1
  O  O1  1  0.48475920  0.48819217  0.75802473  1
loop_
_geom_bond_atom_site_label_1
_geom_bond_atom_site_label_2
_geom_bond_distance
_geom_bond_site_symmetry_2
Cu0 O0 1.935411 1_555
Cu0 O1 1.935435 1_655
Cu0 O0 1.935562 1_655
Cu0 O1 1.936809 1_555
Cu1 O0 1.935583 1_565
Cu1 O1 1.935593 1_554
Cu1 O1 1.935702 1_564
Cu1 O0 1.936993 1_555
