# generated using pymatgen
data_BiP3(PbO4)3
_symmetry_space_group_name_H-M   'P 1'
_cell_length_a   9.16329836
_cell_length_b   9.16329836
_cell_length_c   9.13296043
_cell_angle_alpha   70.48711051
_cell_angle_beta   70.48711051
_cell_angle_gamma   109.42150899
_symmetry_Int_Tables_number   1
_chemical_formula_structural   BiP3(PbO4)3
_chemical_formula_sum   'Bi2 P6 Pb6 O24'
_cell_volume   590.08245876
_cell_formula_units_Z   2
loop_
 _symmetry_equiv_pos_site_id
 _symmetry_equiv_pos_as_xyz
  1  'x, y, z'
loop_
 _atom_site_type_symbol
 _atom_site_label
 _atom_site_symmetry_multiplicity
 _atom_site_fract_x
 _atom_site_fract_y
 _atom_site_fract_z
 _atom_site_occupancy
  Bi  Bi0  1  0.50183700  0.83368500  0.00067900  1
  Bi  Bi1  1  0.83368500  0.50183700  0.50067900  1
  P  P0  1  0.62532300  0.75105700  0.62489800  1
  P  P1  1  0.86922700  0.24913000  0.87004000  1
  P  P2  1  0.75105700  0.62532300  0.12489800  1
  P  P3  1  0.24913000  0.86922700  0.37004000  1
  P  P4  1  0.12464700  0.38110500  0.25515800  1
  P  P5  1  0.38110500  0.12464700  0.75515800  1
  Pb  Pb0  1  0.34890300  0.49483100  0.50742200  1
  Pb  Pb1  1  0.14529600  0.64572700  0.84741600  1
  Pb  Pb2  1  0.00954400  0.00404100  0.64413500  1
  Pb  Pb3  1  0.49483100  0.34890300  0.00742200  1
  Pb  Pb4  1  0.64572700  0.14529600  0.34741600  1
  Pb  Pb5  1  0.00404100  0.00954400  0.14413500  1
  O  O0  1  0.64700000  0.79899700  0.76925900  1
  O  O1  1  0.06610000  0.40184100  0.73915900  1
  O  O2  1  0.43260000  0.68492300  0.65913600  1
  O  O3  1  0.83074900  0.08052400  0.84736700  1
  O  O4  1  0.79899700  0.64700000  0.26925900  1
  O  O5  1  0.40184100  0.06610000  0.23915900  1
  O  O6  1  0.68492300  0.43260000  0.15913600  1
  O  O7  1  0.08052400  0.83074900  0.34736700  1
  O  O8  1  0.15819100  0.34601300  0.41517100  1
  O  O9  1  0.36369800  0.93632100  0.81212900  1
  O  O10  1  0.26701200  0.57559000  0.09131600  1
  O  O11  1  0.24926900  0.14451200  0.68974000  1
  O  O12  1  0.83299900  0.19444000  0.06415800  1
  O  O13  1  0.66548500  0.59319500  0.64771700  1
  O  O14  1  0.74704100  0.32164700  0.82798300  1
  O  O15  1  0.76053900  0.91696200  0.43711600  1
  O  O16  1  0.19444000  0.83299900  0.56415800  1
  O  O17  1  0.59319500  0.66548500  0.14771700  1
  O  O18  1  0.32164700  0.74704100  0.32798300  1
  O  O19  1  0.91696200  0.76053900  0.93711600  1
  O  O20  1  0.34601300  0.15819100  0.91517100  1
  O  O21  1  0.93632100  0.36369800  0.31212900  1
  O  O22  1  0.57559000  0.26701200  0.59131600  1
  O  O23  1  0.14451200  0.24926900  0.18974000  1
loop_
_geom_bond_atom_site_label_1
_geom_bond_atom_site_label_2
_geom_bond_distance
_geom_bond_site_symmetry_2
Bi0 O10 2.241995 1_555
Bi0 O17 2.259658 1_555
Bi0 O0 2.278012 1_554
Bi0 O18 2.556908 1_555
Bi0 O9 2.572563 1_554
Bi0 O3 2.586858 1_564
Bi1 O22 2.241995 1_555
Bi1 O13 2.259658 1_555
Bi1 O4 2.278012 1_555
Bi1 O14 2.556908 1_555
Bi1 O21 2.572563 1_555
Bi1 O7 2.586858 1_655
O0 P0 1.573072 1_555
O0 Pb2 2.784057 1_665
O1 P1 1.550688 1_455
O1 Pb0 2.362981 1_555
O1 Pb1 2.715761 1_555
O2 P0 1.541591 1_555
O2 Pb1 2.439491 1_555
O2 Pb0 2.641212 1_555
O3 P1 1.566654 1_555
O3 Pb2 2.494321 1_655
O4 P2 1.573072 1_555
O4 Pb5 2.784057 1_665
O5 P3 1.550688 1_545
O5 Pb3 2.362981 1_555
O5 Pb4 2.715761 1_555
O6 P2 1.541591 1_555
O6 Pb4 2.439491 1_555
O6 Pb3 2.641212 1_555
O7 P3 1.566654 1_555
O7 Pb5 2.494321 1_565
O8 P4 1.544483 1_555
O8 Pb0 2.406171 1_555
O8 Pb2 2.632247 1_555
O9 P5 1.560717 1_565
O9 Pb1 2.579031 1_555
O10 P4 1.576477 1_555
O10 Pb1 2.792647 1_554
O11 P5 1.550883 1_555
O11 Pb2 2.396801 1_555
O11 Pb0 2.715766 1_555
O12 P1 1.551482 1_554
O12 Pb4 2.362674 1_555
O12 Pb5 2.750360 1_655
O13 P0 1.573280 1_555
O13 Pb3 2.752485 1_556
O14 P1 1.566593 1_555
O14 Pb3 2.493250 1_556
O15 P0 1.540660 1_555
O15 Pb5 2.468677 1_665
O15 Pb4 2.655225 1_565
O16 P3 1.551482 1_555
O16 Pb1 2.362674 1_555
O16 Pb2 2.750360 1_565
O17 P2 1.573280 1_555
O17 Pb0 2.752485 1_555
O18 P3 1.566593 1_555
O18 Pb0 2.493250 1_555
O19 P2 1.540660 1_556
O19 Pb2 2.468677 1_665
O19 Pb1 2.655225 1_655
O20 P5 1.544483 1_555
O20 Pb3 2.406171 1_556
O20 Pb5 2.632247 1_556
O21 P4 1.560717 1_655
O21 Pb4 2.579031 1_555
O22 P5 1.576477 1_555
O22 Pb4 2.792647 1_555
O23 P4 1.550883 1_555
O23 Pb5 2.396801 1_555
O23 Pb3 2.715766 1_555
