# generated using pymatgen
data_In3Si6N11
_symmetry_space_group_name_H-M   'P 1'
_cell_length_a   9.84527700
_cell_length_b   9.84527700
_cell_length_c   4.92484400
_cell_angle_alpha   90.00000000
_cell_angle_beta   90.00000000
_cell_angle_gamma   90.00000000
_symmetry_Int_Tables_number   1
_chemical_formula_structural   In3Si6N11
_chemical_formula_sum   'In6 Si12 N22'
_cell_volume   477.36256409
_cell_formula_units_Z   2
loop_
 _symmetry_equiv_pos_site_id
 _symmetry_equiv_pos_as_xyz
  1  'x, y, z'
loop_
 _atom_site_type_symbol
 _atom_site_label
 _atom_site_symmetry_multiplicity
 _atom_site_fract_x
 _atom_site_fract_y
 _atom_site_fract_z
 _atom_site_occupancy
  In  In0  1  0.32031200  0.82031200  0.95332500  1
  In  In1  1  0.67968800  0.17968800  0.95332500  1
  In  In2  1  0.17968800  0.32031200  0.95332500  1
  In  In3  1  0.82031200  0.67968800  0.95332500  1
  In  In4  1  0.50000000  0.50000000  0.98293000  1
  In  In5  1  0.00000000  0.00000000  0.98293000  1
  Si  Si0  1  0.41797900  0.29149100  0.53457900  1
  Si  Si1  1  0.58202100  0.70850900  0.53457900  1
  Si  Si2  1  0.08202100  0.79149100  0.53457900  1
  Si  Si3  1  0.91797900  0.20850900  0.53457900  1
  Si  Si4  1  0.29149100  0.58202100  0.53457900  1
  Si  Si5  1  0.70850900  0.41797900  0.53457900  1
  Si  Si6  1  0.79149100  0.91797900  0.53457900  1
  Si  Si7  1  0.20850900  0.08202100  0.53457900  1
  Si  Si8  1  0.87758000  0.37758000  0.04445600  1
  Si  Si9  1  0.12242000  0.62242000  0.04445600  1
  Si  Si10  1  0.62242000  0.87758000  0.04445600  1
  Si  Si11  1  0.37758000  0.12242000  0.04445600  1
  N  N0  1  0.31684200  0.42173900  0.66209400  1
  N  N1  1  0.68315800  0.57826100  0.66209400  1
  N  N2  1  0.18315800  0.92173900  0.66209400  1
  N  N3  1  0.81684200  0.07826100  0.66209400  1
  N  N4  1  0.42173900  0.68315800  0.66209400  1
  N  N5  1  0.57826100  0.31684200  0.66209400  1
  N  N6  1  0.92173900  0.81684200  0.66209400  1
  N  N7  1  0.07826100  0.18315800  0.66209400  1
  N  N8  1  0.41117100  0.28431000  0.18206100  1
  N  N9  1  0.58882900  0.71569000  0.18206100  1
  N  N10  1  0.08882900  0.78431000  0.18206100  1
  N  N11  1  0.91117100  0.21569000  0.18206100  1
  N  N12  1  0.28431000  0.58882900  0.18206100  1
  N  N13  1  0.71569000  0.41117100  0.18206100  1
  N  N14  1  0.78431000  0.91117100  0.18206100  1
  N  N15  1  0.21569000  0.08882900  0.18206100  1
  N  N16  1  0.85309900  0.35309900  0.69261800  1
  N  N17  1  0.14690100  0.64690100  0.69261800  1
  N  N18  1  0.64690100  0.85309900  0.69261800  1
  N  N19  1  0.35309900  0.14690100  0.69261800  1
  N  N20  1  0.50000000  0.00000000  0.08987400  1
  N  N21  1  0.00000000  0.50000000  0.08987400  1
loop_
_geom_bond_atom_site_label_1
_geom_bond_atom_site_label_2
_geom_bond_distance
_geom_bond_site_symmetry_2
In0 N2 2.208538 1_555
In0 N4 2.208538 1_555
In0 N12 2.566811 1_556
In0 N10 2.566811 1_556
In0 N20 2.590658 1_566
In1 N5 2.208538 1_555
In1 N3 2.208538 1_555
In1 N11 2.566811 1_556
In1 N13 2.566811 1_556
In1 N20 2.590658 1_556
In2 N0 2.208538 1_555
In2 N7 2.208538 1_555
In2 N15 2.566811 1_556
In2 N8 2.566811 1_556
In2 N21 2.590658 1_556
In3 N1 2.208538 1_555
In3 N6 2.208538 1_555
In3 N14 2.566811 1_556
In3 N9 2.566811 1_556
In3 N21 2.590658 1_656
In4 N8 2.497189 1_556
In4 N12 2.497189 1_556
In4 N9 2.497189 1_556
In4 N13 2.497189 1_556
In4 N4 2.518326 1_555
In4 N1 2.518326 1_555
In4 N5 2.518326 1_555
In4 N0 2.518326 1_555
In5 N11 2.497189 1_456
In5 N15 2.497189 1_556
In5 N10 2.497189 1_546
In5 N14 2.497189 1_446
In5 N7 2.518326 1_555
In5 N3 2.518326 1_455
In5 N2 2.518326 1_545
In5 N6 2.518326 1_445
N0 Si4 1.716629 1_555
N0 Si0 1.740747 1_555
N1 Si5 1.716629 1_555
N1 Si1 1.740747 1_555
N2 Si7 1.716629 1_565
N2 Si2 1.740747 1_555
N3 Si6 1.716629 1_545
N3 Si3 1.740747 1_555
N4 Si1 1.716629 1_555
N4 Si4 1.740747 1_555
N5 Si0 1.716629 1_555
N5 Si5 1.740747 1_555
N6 Si2 1.716629 1_655
N6 Si6 1.740747 1_555
N7 Si3 1.716629 1_455
N7 Si7 1.740747 1_555
N8 Si0 1.738827 1_555
N8 Si11 1.763233 1_555
N9 Si1 1.738827 1_555
N9 Si10 1.763233 1_555
N10 Si2 1.738827 1_555
N10 Si9 1.763233 1_555
N11 Si3 1.738827 1_555
N11 Si8 1.763233 1_555
N12 Si4 1.738827 1_555
N12 Si9 1.763233 1_555
N13 Si5 1.738827 1_555
N13 Si8 1.763233 1_555
N14 Si6 1.738827 1_555
N14 Si10 1.763233 1_555
N15 Si7 1.738827 1_555
N15 Si11 1.763233 1_555
N16 Si3 1.743625 1_555
N16 Si5 1.743625 1_555
N16 Si8 1.765955 1_556
N17 Si4 1.743625 1_555
N17 Si2 1.743625 1_555
N17 Si9 1.765955 1_556
N18 Si1 1.743625 1_555
N18 Si6 1.743625 1_555
N18 Si10 1.765955 1_556
N19 Si0 1.743625 1_555
N19 Si7 1.743625 1_555
N19 Si11 1.765955 1_556
N20 Si11 1.719107 1_555
N20 Si10 1.719107 1_545
N21 Si8 1.719107 1_455
N21 Si9 1.719107 1_555
