# generated using pymatgen
data_Ba2DyV3O11
_symmetry_space_group_name_H-M   'P 1'
_cell_length_a   7.76986700
_cell_length_b   12.43377798
_cell_length_c   11.35715390
_cell_angle_alpha   103.15118055
_cell_angle_beta   90.00000000
_cell_angle_gamma   90.00000000
_symmetry_Int_Tables_number   1
_chemical_formula_structural   Ba2DyV3O11
_chemical_formula_sum   'Ba8 Dy4 V12 O44'
_cell_volume   1068.42486200
_cell_formula_units_Z   4
loop_
 _symmetry_equiv_pos_site_id
 _symmetry_equiv_pos_as_xyz
  1  'x, y, z'
loop_
 _atom_site_type_symbol
 _atom_site_label
 _atom_site_symmetry_multiplicity
 _atom_site_fract_x
 _atom_site_fract_y
 _atom_site_fract_z
 _atom_site_occupancy
  Ba  Ba0  1  0.27323600  0.76993400  0.94228700  1
  Ba  Ba1  1  0.72676400  0.23006600  0.05771300  1
  Ba  Ba2  1  0.77323600  0.23006600  0.55771300  1
  Ba  Ba3  1  0.22676400  0.76993400  0.44228700  1
  Ba  Ba4  1  0.74778300  0.55479200  0.88961700  1
  Ba  Ba5  1  0.25221700  0.44520800  0.11038300  1
  Ba  Ba6  1  0.24778300  0.44520800  0.61038300  1
  Ba  Ba7  1  0.75221700  0.55479200  0.38961700  1
  Dy  Dy0  1  0.49888500  0.99795100  0.71985400  1
  Dy  Dy1  1  0.50111500  0.00204900  0.28014600  1
  Dy  Dy2  1  0.99888500  0.00204900  0.78014600  1
  Dy  Dy3  1  0.00111500  0.99795100  0.21985400  1
  V  V0  1  0.75380700  0.90589400  0.97601300  1
  V  V1  1  0.24619300  0.09410600  0.02398700  1
  V  V2  1  0.25380700  0.09410600  0.52398700  1
  V  V3  1  0.74619300  0.90589400  0.47601300  1
  V  V4  1  0.51869700  0.68482500  0.67369800  1
  V  V5  1  0.48130300  0.31517500  0.32630200  1
  V  V6  1  0.01869700  0.31517500  0.82630200  1
  V  V7  1  0.98130300  0.68482500  0.17369800  1
  V  V8  1  0.98190700  0.68833000  0.67116400  1
  V  V9  1  0.01809300  0.31167000  0.32883600  1
  V  V10  1  0.48190700  0.31167000  0.82883600  1
  V  V11  1  0.51809300  0.68833000  0.17116400  1
  O  O0  1  0.44485100  0.81964500  0.71796200  1
  O  O1  1  0.55514900  0.18035500  0.28203800  1
  O  O2  1  0.94485100  0.18035500  0.78203800  1
  O  O3  1  0.05514900  0.81964500  0.21796200  1
  O  O4  1  0.55012000  0.17591600  0.80600500  1
  O  O5  1  0.44988000  0.82408400  0.19399500  1
  O  O6  1  0.05012000  0.82408400  0.69399500  1
  O  O7  1  0.94988000  0.17591600  0.30600500  1
  O  O8  1  0.75045600  0.66577000  0.66729300  1
  O  O9  1  0.24954400  0.33423000  0.33270700  1
  O  O10  1  0.25045600  0.33423000  0.83270700  1
  O  O11  1  0.74954400  0.66577000  0.16729300  1
  O  O12  1  0.94392400  0.37526400  0.96635700  1
  O  O13  1  0.05607600  0.62473600  0.03364300  1
  O  O14  1  0.44392400  0.62473600  0.53364300  1
  O  O15  1  0.55607600  0.37526400  0.46635700  1
  O  O16  1  0.94001600  0.39152000  0.73089600  1
  O  O17  1  0.05998400  0.60848000  0.26910400  1
  O  O18  1  0.44001600  0.60848000  0.76910400  1
  O  O19  1  0.55998400  0.39152000  0.23089600  1
  O  O20  1  0.78384000  0.98709900  0.62501200  1
  O  O21  1  0.21616000  0.01290100  0.37498800  1
  O  O22  1  0.28384000  0.01290100  0.87498800  1
  O  O23  1  0.71616000  0.98709900  0.12501200  1
  O  O24  1  0.97193000  0.88191900  0.97323400  1
  O  O25  1  0.02807000  0.11808100  0.02676600  1
  O  O26  1  0.47193000  0.11808100  0.52676600  1
  O  O27  1  0.52807000  0.88191900  0.47323400  1
  O  O28  1  0.63926500  0.78627000  0.94657500  1
  O  O29  1  0.36073500  0.21373000  0.05342500  1
  O  O30  1  0.13926500  0.21373000  0.55342500  1
  O  O31  1  0.86073500  0.78627000  0.44657500  1
  O  O32  1  0.72009600  0.98358600  0.86315600  1
  O  O33  1  0.27990400  0.01641400  0.13684400  1
  O  O34  1  0.22009600  0.01641400  0.63684400  1
  O  O35  1  0.77990400  0.98358600  0.36315600  1
  O  O36  1  0.55957600  0.37030700  0.71860500  1
  O  O37  1  0.44042400  0.62969300  0.28139500  1
  O  O38  1  0.05957600  0.62969300  0.78139500  1
  O  O39  1  0.94042400  0.37030700  0.21860500  1
  O  O40  1  0.56393500  0.38683500  0.96168100  1
  O  O41  1  0.43606500  0.61316500  0.03831900  1
  O  O42  1  0.06393500  0.61316500  0.53831900  1
  O  O43  1  0.93606500  0.38683500  0.46168100  1
loop_
_geom_bond_atom_site_label_1
_geom_bond_atom_site_label_2
_geom_bond_distance
_geom_bond_site_symmetry_2
Ba0 O24 2.705622 1_455
Ba0 O41 2.749006 1_556
Ba0 O38 2.772290 1_555
Ba0 O18 2.789460 1_555
Ba0 O13 2.834639 1_556
Ba0 O28 2.850867 1_555
Ba0 O0 3.060616 1_555
Ba0 O5 3.103761 1_556
Ba0 O22 3.281480 1_565
Ba0 O33 3.346026 1_566
Ba1 O25 2.705622 1_655
Ba1 O40 2.749006 1_554
Ba1 O39 2.772290 1_555
Ba1 O19 2.789460 1_555
Ba1 O12 2.834639 1_554
Ba1 O29 2.850867 1_555
Ba1 O1 3.060616 1_555
Ba1 O4 3.103761 1_554
Ba1 O23 3.281480 1_545
Ba1 O32 3.346026 1_544
Ba2 O26 2.705622 1_555
Ba2 O43 2.749006 1_555
Ba2 O36 2.772290 1_555
Ba2 O16 2.789460 1_555
Ba2 O15 2.834639 1_555
Ba2 O30 2.850867 1_655
Ba2 O2 3.060616 1_555
Ba2 O7 3.103761 1_555
Ba2 O20 3.281480 1_545
Ba2 O35 3.346026 1_545
Ba3 O27 2.705622 1_555
Ba3 O42 2.749006 1_555
Ba3 O37 2.772290 1_555
Ba3 O17 2.789460 1_555
Ba3 O14 2.834639 1_555
Ba3 O31 2.850867 1_455
Ba3 O3 3.060616 1_555
Ba3 O6 3.103761 1_555
Ba3 O21 3.281480 1_565
Ba3 O34 3.346026 1_565
Ba4 O40 2.801661 1_555
Ba4 O16 2.817160 1_555
Ba4 O18 2.907408 1_555
Ba4 O13 2.919336 1_656
Ba4 O28 2.926758 1_555
Ba4 O41 2.947420 1_556
Ba4 O38 2.961048 1_655
Ba4 O12 2.991686 1_555
Ba4 O36 3.024083 1_555
Ba4 O8 3.140921 1_555
Ba4 O11 3.141550 1_556
Ba5 O41 2.801661 1_555
Ba5 O17 2.817160 1_555
Ba5 O19 2.907408 1_555
Ba5 O12 2.919336 1_454
Ba5 O29 2.926758 1_555
Ba5 O40 2.947420 1_554
Ba5 O39 2.961048 1_455
Ba5 O13 2.991686 1_555
Ba5 O37 3.024083 1_555
Ba5 O9 3.140921 1_555
Ba5 O10 3.141550 1_554
Ba6 O42 2.801661 1_555
Ba6 O18 2.817160 1_555
Ba6 O16 2.907408 1_455
Ba6 O15 2.919336 1_555
Ba6 O30 2.926758 1_555
Ba6 O43 2.947420 1_455
Ba6 O36 2.961048 1_555
Ba6 O14 2.991686 1_555
Ba6 O38 3.024083 1_555
Ba6 O10 3.140921 1_555
Ba6 O9 3.141550 1_555
Ba7 O43 2.801661 1_555
Ba7 O19 2.817160 1_555
Ba7 O17 2.907408 1_655
Ba7 O14 2.919336 1_555
Ba7 O31 2.926758 1_555
Ba7 O42 2.947420 1_655
Ba7 O37 2.961048 1_555
Ba7 O15 2.991686 1_555
Ba7 O39 3.024083 1_555
Ba7 O11 3.140921 1_555
Ba7 O8 3.141550 1_555
Dy0 O4 2.242096 1_565
Dy0 O0 2.251713 1_555
Dy0 O34 2.394200 1_565
Dy0 O32 2.401489 1_555
Dy0 O22 2.404487 1_565
Dy0 O20 2.452420 1_555
Dy0 O27 2.852914 1_555
Dy0 O26 2.928200 1_565
Dy1 O5 2.242096 1_545
Dy1 O1 2.251713 1_555
Dy1 O35 2.394200 1_545
Dy1 O33 2.401489 1_555
Dy1 O23 2.404487 1_545
Dy1 O21 2.452420 1_555
Dy1 O26 2.852914 1_555
Dy1 O27 2.928200 1_545
Dy2 O6 2.242096 1_645
Dy2 O2 2.251713 1_555
Dy2 O32 2.394200 1_545
Dy2 O34 2.401489 1_655
Dy2 O20 2.404487 1_545
Dy2 O22 2.452420 1_655
Dy2 O25 2.852914 1_656
Dy2 O24 2.928200 1_545
Dy3 O7 2.242096 1_465
Dy3 O3 2.251713 1_555
Dy3 O33 2.394200 1_565
Dy3 O35 2.401489 1_455
Dy3 O21 2.404487 1_565
Dy3 O23 2.452420 1_455
Dy3 O24 2.852914 1_454
Dy3 O25 2.928200 1_565
O0 V4 1.734510 1_555
O1 V5 1.734510 1_555
O2 V6 1.734510 1_655
O3 V7 1.734510 1_455
O4 V10 1.731504 1_555
O5 V11 1.731504 1_555
O6 V8 1.731504 1_455
O7 V9 1.731504 1_655
O8 V4 1.815554 1_555
O8 V8 1.819078 1_555
O9 V5 1.815554 1_555
O9 V9 1.819078 1_555
O10 V6 1.815554 1_555
O10 V10 1.819078 1_555
O11 V7 1.815554 1_555
O11 V11 1.819078 1_555
O12 V6 1.698545 1_655
O13 V7 1.698545 1_455
O14 V4 1.698545 1_555
O15 V5 1.698545 1_555
O16 V6 1.707901 1_655
O17 V7 1.707901 1_455
O18 V4 1.707901 1_555
O19 V5 1.707901 1_555
O20 V3 1.786365 1_555
O21 V2 1.786365 1_555
O22 V1 1.786365 1_556
O23 V0 1.786365 1_554
O24 V0 1.719849 1_555
O25 V1 1.719849 1_555
O26 V2 1.719849 1_555
O27 V3 1.719849 1_555
O28 V0 1.699955 1_555
O29 V1 1.699955 1_555
O30 V2 1.699955 1_555
O31 V3 1.699955 1_555
O32 V0 1.791098 1_555
O33 V1 1.791098 1_555
O34 V2 1.791098 1_555
O35 V3 1.791098 1_555
O36 V10 1.696573 1_555
O37 V11 1.696573 1_555
O38 V8 1.696573 1_455
O39 V9 1.696573 1_655
O40 V10 1.707140 1_555
O41 V11 1.707140 1_555
O42 V8 1.707140 1_455
O43 V9 1.707140 1_655
