# generated using pymatgen
data_FeNiB
_symmetry_space_group_name_H-M   'P 1'
_cell_length_a   5.03465291
_cell_length_b   4.16678039
_cell_length_c   4.09417428
_cell_angle_alpha   75.09397826
_cell_angle_beta   53.10814295
_cell_angle_gamma   51.79787879
_symmetry_Int_Tables_number   1
_chemical_formula_structural   FeNiB
_chemical_formula_sum   'Fe2 Ni2 B2'
_cell_volume   53.08421585
_cell_formula_units_Z   2
loop_
 _symmetry_equiv_pos_site_id
 _symmetry_equiv_pos_as_xyz
  1  'x, y, z'
loop_
 _atom_site_type_symbol
 _atom_site_label
 _atom_site_symmetry_multiplicity
 _atom_site_fract_x
 _atom_site_fract_y
 _atom_site_fract_z
 _atom_site_occupancy
  Fe  Fe0  1  0.33205600  0.66794400  0.33205600  1
  Fe  Fe1  1  0.66794400  0.33205600  0.66794400  1
  Ni  Ni0  1  0.16868500  0.16868500  0.83131500  1
  Ni  Ni1  1  0.83131500  0.83131500  0.16868500  1
  B  B0  1  0.75000000  0.75000000  0.75000000  1
  B  B1  1  0.25000000  0.25000000  0.25000000  1
loop_
_geom_bond_atom_site_label_1
_geom_bond_atom_site_label_2
_geom_bond_distance
_geom_bond_site_symmetry_2
B0 B1 2.094826 1_655
B0 B1 2.094826 1_566
B0 Ni1 2.129249 1_556
B0 Ni0 2.129249 1_655
B0 Ni0 2.129249 1_565
B0 Ni1 2.129249 1_555
B0 Fe0 2.161893 1_655
B0 Fe1 2.161893 1_565
B0 Fe0 2.161893 1_556
B0 Fe1 2.161893 1_555
B1 Ni1 2.129249 1_545
B1 Ni0 2.129249 1_555
B1 Ni1 2.129249 1_455
B1 Ni0 2.129249 1_554
B1 Fe0 2.161893 1_555
B1 Fe1 2.161893 1_554
B1 Fe0 2.161893 1_545
B1 Fe1 2.161893 1_455
