# generated using pymatgen
data_Ba10Fe8Pt2Cl2O25
_symmetry_space_group_name_H-M   'P 1'
_cell_length_a   5.92844391
_cell_length_b   5.92844391
_cell_length_c   25.21871700
_cell_angle_alpha   90.00000000
_cell_angle_beta   90.00000000
_cell_angle_gamma   119.99999895
_symmetry_Int_Tables_number   1
_chemical_formula_structural   Ba10Fe8Pt2Cl2O25
_chemical_formula_sum   'Ba10 Fe8 Pt2 Cl2 O25'
_cell_volume   767.60015605
_cell_formula_units_Z   1
loop_
 _symmetry_equiv_pos_site_id
 _symmetry_equiv_pos_as_xyz
  1  'x, y, z'
loop_
 _atom_site_type_symbol
 _atom_site_label
 _atom_site_symmetry_multiplicity
 _atom_site_fract_x
 _atom_site_fract_y
 _atom_site_fract_z
 _atom_site_occupancy
  Ba  Ba0  1  0.00000000  0.00000000  0.87815200  1
  Ba  Ba1  1  0.66666700  0.33333300  0.62145700  1
  Ba  Ba2  1  0.66666700  0.33333300  0.37854300  1
  Ba  Ba3  1  0.00000000  0.00000000  0.12184800  1
  Ba  Ba4  1  0.33333300  0.66666700  0.00000000  1
  Ba  Ba5  1  0.33333300  0.66666700  0.50000000  1
  Ba  Ba6  1  0.00000000  0.00000000  0.28997600  1
  Ba  Ba7  1  0.66666700  0.33333300  0.21445600  1
  Ba  Ba8  1  0.66666700  0.33333300  0.78554400  1
  Ba  Ba9  1  0.00000000  0.00000000  0.71002400  1
  Fe  Fe0  1  0.00000000  0.00000000  0.42690600  1
  Fe  Fe1  1  0.66666700  0.33333300  0.07466000  1
  Fe  Fe2  1  0.66666700  0.33333300  0.92534000  1
  Fe  Fe3  1  0.00000000  0.00000000  0.57309400  1
  Fe  Fe4  1  0.33333300  0.66666700  0.64260700  1
  Fe  Fe5  1  0.33333300  0.66666700  0.85922400  1
  Fe  Fe6  1  0.33333300  0.66666700  0.14077600  1
  Fe  Fe7  1  0.33333300  0.66666700  0.35739300  1
  Pt  Pt0  1  0.33333300  0.66666700  0.24889900  1
  Pt  Pt1  1  0.33333300  0.66666700  0.75110100  1
  Cl  Cl0  1  0.00000000  0.00000000  0.00000000  1
  Cl  Cl1  1  0.66666700  0.33333300  0.50000000  1
  O  O0  1  0.49271900  0.98543800  0.90621600  1
  O  O1  1  0.01456200  0.50728100  0.90621600  1
  O  O2  1  0.49271900  0.50728100  0.90621600  1
  O  O3  1  0.17088900  0.34177900  0.60053600  1
  O  O4  1  0.65822100  0.82911100  0.60053600  1
  O  O5  1  0.17088900  0.82911100  0.60053600  1
  O  O6  1  0.17088900  0.34177900  0.39946400  1
  O  O7  1  0.65822100  0.82911100  0.39946400  1
  O  O8  1  0.17088900  0.82911100  0.39946400  1
  O  O9  1  0.49271900  0.98543800  0.09378400  1
  O  O10  1  0.01456200  0.50728100  0.09378400  1
  O  O11  1  0.49271900  0.50728100  0.09378400  1
  O  O12  1  0.18088800  0.36177600  0.80286000  1
  O  O13  1  0.63822400  0.81911200  0.80286000  1
  O  O14  1  0.18088800  0.81911200  0.80286000  1
  O  O15  1  0.48636700  0.97273300  0.70003300  1
  O  O16  1  0.02726700  0.51363300  0.70003300  1
  O  O17  1  0.48636700  0.51363300  0.70003300  1
  O  O18  1  0.48636700  0.97273300  0.29996700  1
  O  O19  1  0.02726700  0.51363300  0.29996700  1
  O  O20  1  0.48636700  0.51363300  0.29996700  1
  O  O21  1  0.18088800  0.36177600  0.19714000  1
  O  O22  1  0.63822400  0.81911200  0.19714000  1
  O  O23  1  0.18088800  0.81911200  0.19714000  1
  O  O24  1  0.00000000  0.00000000  0.50000000  1
loop_
_geom_bond_atom_site_label_1
_geom_bond_atom_site_label_2
_geom_bond_distance
_geom_bond_site_symmetry_2
Ba0 O14 2.656190 1_545
Ba0 O12 2.656190 1_555
Ba0 O13 2.656190 1_445
Ba0 O0 3.048458 1_545
Ba0 O1 3.048458 1_545
Ba0 O1 3.048458 1_555
Ba0 O0 3.048458 1_445
Ba0 O2 3.048458 1_555
Ba0 O2 3.048458 1_445
Ba0 Cl0 3.072850 1_556
Ba1 O17 2.711884 1_555
Ba1 O16 2.711884 1_655
Ba1 O15 2.711884 1_545
Ba1 O4 3.011116 1_545
Ba1 O3 3.011116 1_655
Ba1 O5 3.011122 1_545
Ba1 O5 3.011122 1_655
Ba1 O3 3.011128 1_555
Ba1 O4 3.011128 1_555
Ba1 Cl1 3.062990 1_555
Ba2 O20 2.711884 1_555
Ba2 O19 2.711884 1_655
Ba2 O18 2.711884 1_545
Ba2 O7 3.011116 1_545
Ba2 O6 3.011116 1_655
Ba2 O8 3.011122 1_545
Ba2 O8 3.011122 1_655
Ba2 O6 3.011128 1_555
Ba2 O7 3.011128 1_555
Ba2 Cl1 3.062990 1_555
Ba3 O23 2.656190 1_545
Ba3 O21 2.656190 1_555
Ba3 O22 2.656190 1_445
Ba3 O9 3.048458 1_545
Ba3 O10 3.048458 1_545
Ba3 O10 3.048458 1_555
Ba3 O9 3.048458 1_445
Ba3 O11 3.048458 1_555
Ba3 O11 3.048458 1_445
Ba3 Cl0 3.072850 1_555
Ba4 O1 2.876162 1_554
Ba4 O10 2.876162 1_555
Ba4 O0 2.876162 1_554
Ba4 O9 2.876162 1_555
Ba4 O2 2.876165 1_554
Ba4 O11 2.876165 1_555
Ba4 Cl0 3.422785 1_565
Ba4 Cl0 3.422790 1_555
Ba4 Cl0 3.422790 1_665
Ba5 O5 3.034886 1_555
Ba5 O8 3.034886 1_555
Ba5 O4 3.034886 1_555
Ba5 O3 3.034886 1_555
Ba5 O7 3.034886 1_555
Ba5 O6 3.034886 1_555
Ba5 O24 3.422785 1_565
Ba5 Cl1 3.422785 1_455
Ba5 Cl1 3.422785 1_565
Ba5 O24 3.422790 1_555
Ba5 O24 3.422790 1_665
Ba5 Cl1 3.422796 1_555
Ba6 O18 2.978200 1_445
Ba6 O19 2.978200 1_555
Ba6 O20 2.978203 1_555
Ba6 O20 2.978203 1_445
Ba6 O19 2.978206 1_545
Ba6 O18 2.978206 1_545
Ba6 O23 2.988522 1_545
Ba6 O21 2.988522 1_555
Ba6 O22 2.988522 1_445
Ba6 O8 3.271557 1_545
Ba6 O7 3.271559 1_445
Ba6 O6 3.271559 1_555
Ba7 O20 2.842187 1_555
Ba7 O19 2.842187 1_655
Ba7 O18 2.842187 1_545
Ba7 O21 2.999769 1_655
Ba7 O22 2.999769 1_545
Ba7 O23 2.999772 1_655
Ba7 O23 2.999772 1_545
Ba7 O22 2.999775 1_555
Ba7 O21 2.999775 1_555
Ba8 O17 2.842187 1_555
Ba8 O16 2.842187 1_655
Ba8 O15 2.842187 1_545
Ba8 O12 2.999769 1_655
Ba8 O13 2.999769 1_545
Ba8 O14 2.999772 1_655
Ba8 O14 2.999772 1_545
Ba8 O13 2.999775 1_555
Ba8 O12 2.999775 1_555
Ba9 O15 2.978200 1_445
Ba9 O16 2.978200 1_555
Ba9 O17 2.978203 1_555
Ba9 O17 2.978203 1_445
Ba9 O16 2.978206 1_545
Ba9 O15 2.978206 1_545
Ba9 O14 2.988522 1_545
Ba9 O13 2.988522 1_445
Ba9 O12 2.988522 1_555
Ba9 O5 3.271557 1_545
Ba9 O4 3.271559 1_445
Ba9 O3 3.271559 1_555
Fe0 O24 1.843337 1_555
Fe0 O8 1.886289 1_545
Fe0 O6 1.886294 1_555
Fe0 O7 1.886294 1_445
Fe1 O10 1.850122 1_655
Fe1 O9 1.850122 1_545
Fe1 O11 1.850127 1_555
Fe2 O1 1.850122 1_655
Fe2 O0 1.850122 1_545
Fe2 O2 1.850127 1_555
Fe3 O24 1.843337 1_555
Fe3 O5 1.886289 1_545
Fe3 O3 1.886294 1_555
Fe3 O4 1.886294 1_445
Fe4 O5 1.976869 1_555
Fe4 O4 1.976869 1_555
Fe4 O3 1.976869 1_555
Fe4 O15 2.136962 1_555
Fe4 O16 2.136962 1_555
Fe4 O17 2.136970 1_555
Fe5 O1 2.020634 1_555
Fe5 O0 2.020634 1_555
Fe5 O2 2.020638 1_555
Fe5 O14 2.114430 1_555
Fe5 O13 2.114433 1_555
Fe5 O12 2.114433 1_555
Fe6 O10 2.020634 1_555
Fe6 O9 2.020634 1_555
Fe6 O11 2.020638 1_555
Fe6 O23 2.114430 1_555
Fe6 O22 2.114433 1_555
Fe6 O21 2.114433 1_555
Fe7 O8 1.976869 1_555
Fe7 O7 1.976869 1_555
Fe7 O6 1.976869 1_555
Fe7 O18 2.136962 1_555
Fe7 O19 2.136962 1_555
Fe7 O20 2.136970 1_555
O12 Pt1 2.038178 1_555
O13 Pt1 2.038178 1_555
O14 Pt1 2.038174 1_555
O15 Pt1 2.031724 1_555
O16 Pt1 2.031724 1_555
O17 Pt1 2.031732 1_555
O18 Pt0 2.031724 1_555
O19 Pt0 2.031724 1_555
O20 Pt0 2.031732 1_555
O21 Pt0 2.038178 1_555
O22 Pt0 2.038178 1_555
O23 Pt0 2.038174 1_555
