# generated using pymatgen
data_ErAl7Fe5
_symmetry_space_group_name_H-M   'P 1'
_cell_length_a   6.60725002
_cell_length_b   6.60725002
_cell_length_c   6.60725002
_cell_angle_alpha   135.37592475
_cell_angle_beta   98.38713041
_cell_angle_gamma   98.18722469
_symmetry_Int_Tables_number   1
_chemical_formula_structural   ErAl7Fe5
_chemical_formula_sum   'Er1 Al7 Fe5'
_cell_volume   187.44801964
_cell_formula_units_Z   1
loop_
 _symmetry_equiv_pos_site_id
 _symmetry_equiv_pos_as_xyz
  1  'x, y, z'
loop_
 _atom_site_type_symbol
 _atom_site_label
 _atom_site_symmetry_multiplicity
 _atom_site_fract_x
 _atom_site_fract_y
 _atom_site_fract_z
 _atom_site_occupancy
  Er  Er0  1  0.00456000  0.00000000  0.00456000  1
  Al  Al0  1  0.66029100  0.00000000  0.66029100  1
  Al  Al1  1  0.33869400  0.00000000  0.33869400  1
  Al  Al2  1  0.33390000  0.34234200  0.99155800  1
  Al  Al3  1  0.64921600  0.65765800  0.99155800  1
  Al  Al4  1  0.77460900  0.50000000  0.27460900  1
  Al  Al5  1  0.79467700  0.28993800  0.50473900  1
  Al  Al6  1  0.21480100  0.71006200  0.50473900  1
  Fe  Fe0  1  0.49930100  0.49777500  0.49564500  1
  Fe  Fe1  1  0.49930100  0.00365600  0.00152600  1
  Fe  Fe2  1  0.99787000  0.99634400  0.49564500  1
  Fe  Fe3  1  0.99787000  0.50222500  0.00152600  1
  Fe  Fe4  1  0.23490900  0.50000000  0.73490900  1
loop_
_geom_bond_atom_site_label_1
_geom_bond_atom_site_label_2
_geom_bond_distance
_geom_bond_site_symmetry_2
Er0 Fe4 3.201463 1_544
Er0 Fe4 3.201463 1_555
Er0 Fe1 3.268618 1_555
Er0 Fe3 3.268618 1_445
Er0 Fe0 3.268618 1_555
Er0 Fe2 3.268618 1_445
Er0 Fe3 3.339139 1_455
Er0 Fe2 3.339139 1_444
Er0 Fe0 3.339139 1_444
Er0 Fe1 3.339139 1_455
Al0 Fe1 2.616255 1_556
Al0 Fe0 2.616255 1_545
Al0 Fe2 2.616255 1_545
Al0 Fe3 2.616255 1_556
Al0 Al4 2.695720 1_556
Al0 Al4 2.695720 1_545
Al0 Al1 2.777231 1_555
Al0 Al5 2.845873 1_555
Al0 Al6 2.845873 1_545
Al0 Er0 2.973021 1_656
Al1 Fe1 2.616962 1_555
Al1 Fe2 2.616962 1_445
Al1 Fe0 2.616962 1_555
Al1 Fe3 2.616962 1_445
Al1 Fe4 2.663754 1_555
Al1 Fe4 2.663754 1_544
Al1 Er0 2.885498 1_555
Al1 Al5 2.889749 1_555
Al1 Al6 2.889749 1_545
Al2 Fe3 2.580963 1_456
Al2 Fe2 2.580963 1_445
Al2 Fe4 2.602575 1_555
Al2 Fe1 2.663016 1_556
Al2 Fe0 2.663016 1_556
Al2 Al3 2.728488 1_555
Al2 Al6 2.759614 1_545
Al2 Al6 2.759614 1_556
Al2 Al4 2.799294 1_556
Al2 Er0 2.964476 1_556
Al3 Fe0 2.580963 1_555
Al3 Fe1 2.580963 1_566
Al3 Fe4 2.602575 1_555
Al3 Fe3 2.663016 1_556
Al3 Fe2 2.663016 1_556
Al3 Al5 2.759614 1_555
Al3 Al5 2.759614 1_566
Al3 Al4 2.799294 1_556
Al3 Er0 2.964476 1_666
Al4 Fe0 2.497978 1_555
Al4 Fe3 2.497978 1_555
Al4 Fe1 2.497978 1_555
Al4 Fe2 2.497978 1_555
Al4 Al5 2.693250 1_555
Al4 Al6 2.693250 1_655
Al4 Er0 3.199328 1_655
Al4 Er0 3.199328 1_666
Al5 Fe3 2.483633 1_556
Al5 Fe2 2.483633 1_545
Al5 Fe1 2.558274 1_555
Al5 Fe0 2.558274 1_555
Al5 Fe4 2.693505 1_655
Al5 Er0 3.097799 1_666
Al5 Er0 3.097799 1_655
Al6 Fe0 2.483633 1_555
Al6 Fe1 2.483633 1_566
Al6 Fe3 2.558274 1_455
Al6 Fe2 2.558274 1_455
Al6 Fe4 2.693505 1_555
Al6 Er0 3.097799 1_566
Al6 Er0 3.097799 1_555
Fe0 Fe1 2.478942 1_555
Fe0 Fe4 2.516133 1_555
Fe0 Fe1 2.537950 1_566
Fe1 Fe4 2.516133 1_544
Fe2 Fe3 2.478942 1_555
Fe2 Fe4 2.516133 1_665
Fe2 Fe3 2.537950 1_566
Fe3 Fe4 2.516133 1_654
