# generated using pymatgen
data_NaB10Pb4Cl2O19
_symmetry_space_group_name_H-M   'P 1'
_cell_length_a   6.74442223
_cell_length_b   11.58458553
_cell_length_c   11.51635012
_cell_angle_alpha   90.00000000
_cell_angle_beta   90.21390507
_cell_angle_gamma   90.00000000
_symmetry_Int_Tables_number   1
_chemical_formula_structural   NaB10Pb4Cl2O19
_chemical_formula_sum   'Na2 B20 Pb8 Cl4 O38'
_cell_volume   899.78155174
_cell_formula_units_Z   2
loop_
 _symmetry_equiv_pos_site_id
 _symmetry_equiv_pos_as_xyz
  1  'x, y, z'
loop_
 _atom_site_type_symbol
 _atom_site_label
 _atom_site_symmetry_multiplicity
 _atom_site_fract_x
 _atom_site_fract_y
 _atom_site_fract_z
 _atom_site_occupancy
  Na  Na0  1  0.34566310  0.50438896  0.99395942  1
  Na  Na1  1  0.84566310  0.99561104  0.49395942  1
  B  B0  1  0.18803744  0.52183941  0.25376427  1
  B  B1  1  0.19056066  0.47912519  0.73872234  1
  B  B2  1  0.69056066  0.02087481  0.23872234  1
  B  B3  1  0.68803744  0.97816059  0.75376427  1
  B  B4  1  0.30132775  0.71216414  0.16092948  1
  B  B5  1  0.30416752  0.29137979  0.83484497  1
  B  B6  1  0.80416752  0.20862021  0.33484497  1
  B  B7  1  0.80132775  0.78783586  0.66092948  1
  B  B8  1  0.97348274  0.69820578  0.26758227  1
  B  B9  1  0.97205012  0.30414943  0.72910026  1
  B  B10  1  0.47205012  0.19585057  0.22910026  1
  B  B11  1  0.47348274  0.80179422  0.76758227  1
  B  B12  1  0.15096459  0.70137436  0.69157820  1
  B  B13  1  0.14827778  0.29874469  0.30554059  1
  B  B14  1  0.64827778  0.20125531  0.80554059  1
  B  B15  1  0.65096459  0.79862564  0.19157820  1
  B  B16  1  0.52423295  0.74791758  0.98843611  1
  B  B17  1  0.52570268  0.25497513  0.00923989  1
  B  B18  1  0.02570268  0.24502487  0.50923989  1
  B  B19  1  0.02423295  0.75208242  0.48843611  1
  Pb  Pb0  1  0.17756945  0.03154820  0.72523585  1
  Pb  Pb1  1  0.19234162  0.97118503  0.26581693  1
  Pb  Pb2  1  0.69234162  0.52881497  0.76581693  1
  Pb  Pb3  1  0.67756945  0.46845180  0.22523585  1
  Pb  Pb4  1  0.49960531  0.72042614  0.45383600  1
  Pb  Pb5  1  0.49670529  0.26021003  0.53724501  1
  Pb  Pb6  1  -0.00329471  0.23978997  0.03724501  1
  Pb  Pb7  1  -0.00039469  0.77957386  0.95383600  1
  Cl  Cl0  1  0.64523466  0.48529592  0.51467291  1
  Cl  Cl1  1  0.14523466  0.01470408  0.01467291  1
  Cl  Cl2  1  0.96931561  0.53896752  0.96873668  1
  Cl  Cl3  1  0.46931561  0.96103248  0.46873668  1
  O  O0  1  0.93546419  0.70651441  0.72050991  1
  O  O1  1  0.93425607  0.29202571  0.27671571  1
  O  O2  1  0.43425607  0.20797429  0.77671571  1
  O  O3  1  0.43546419  0.79348559  0.22050991  1
  O  O4  1  0.00886253  0.57004655  0.28217129  1
  O  O5  1  0.00921268  0.43175966  0.71031544  1
  O  O6  1  0.50921268  0.06824034  0.21031544  1
  O  O7  1  0.50886253  0.92995345  0.78217129  1
  O  O8  1  0.66310964  0.46711908  0.02546661  1
  O  O9  1  0.16310964  0.03288092  0.52546661  1
  O  O10  1  0.33470569  0.59073537  0.20312240  1
  O  O11  1  0.33763582  0.41075282  0.78926825  1
  O  O12  1  0.83763582  0.08924718  0.28926825  1
  O  O13  1  0.83470569  0.90926463  0.70312240  1
  O  O14  1  0.09117019  0.74475786  0.16921410  1
  O  O15  1  0.09121856  0.26155721  0.82916775  1
  O  O16  1  0.59121856  0.23844279  0.32916775  1
  O  O17  1  0.59117019  0.75524214  0.66921410  1
  O  O18  1  0.34309157  0.71241269  0.03201381  1
  O  O19  1  0.34794136  0.29516224  0.96354680  1
  O  O20  1  0.84794136  0.20483776  0.46354680  1
  O  O21  1  0.84309157  0.78758731  0.53201381  1
  O  O22  1  0.56179723  0.74203721  0.87190195  1
  O  O23  1  0.55680188  0.25737852  0.12699880  1
  O  O24  1  0.05680188  0.24262148  0.62699880  1
  O  O25  1  0.06179723  0.75796279  0.37190195  1
  O  O26  1  0.17416905  0.71823821  0.56192403  1
  O  O27  1  0.17142189  0.28813201  0.43667659  1
  O  O28  1  0.67142189  0.21186799  0.93667659  1
  O  O29  1  0.67416905  0.78176179  0.06192403  1
  O  O30  1  0.75877576  0.70746073  0.25496985  1
  O  O31  1  0.75794704  0.29514279  0.74588820  1
  O  O32  1  0.25794704  0.20485721  0.24588820  1
  O  O33  1  0.25877576  0.79253927  0.75496985  1
  O  O34  1  0.24198720  0.59090974  0.72198223  1
  O  O35  1  0.23719240  0.40877425  0.26790508  1
  O  O36  1  0.73719240  0.09122575  0.76790508  1
  O  O37  1  0.74198720  0.90909026  0.22198223  1
loop_
_geom_bond_atom_site_label_1
_geom_bond_atom_site_label_2
_geom_bond_distance
_geom_bond_site_symmetry_2
Na0 O8 2.212719 1_556
Na0 O19 2.449036 1_555
Na0 O18 2.449466 1_556
Na0 O11 2.595279 1_555
Na0 O10 2.609531 1_556
Na1 O9 2.212719 1_665
Na1 O20 2.449036 1_565
Na1 O21 2.449466 1_555
Na1 O12 2.595279 1_565
Na1 O13 2.609531 1_555
B0 O35 1.360748 1_555
B0 O4 1.371918 1_555
B0 O10 1.399984 1_555
B1 O34 1.354597 1_555
B1 O5 1.378790 1_555
B1 O11 1.394934 1_555
B2 O37 1.354597 1_545
B2 O6 1.378790 1_555
B2 O12 1.394934 1_555
B3 O36 1.360748 1_565
B3 O7 1.371918 1_555
B3 O13 1.399984 1_555
B4 O14 1.470266 1_555
B4 O3 1.473806 1_555
B4 O10 1.504918 1_555
B4 O18 1.512157 1_555
B5 O2 1.468295 1_555
B5 O15 1.478395 1_555
B5 O11 1.496566 1_555
B5 O19 1.510846 1_555
B6 O1 1.468295 1_555
B6 O16 1.478395 1_555
B6 O12 1.496566 1_555
B6 O20 1.510846 1_555
B7 O17 1.470266 1_555
B7 O0 1.473806 1_555
B7 O13 1.504918 1_555
B7 O21 1.512157 1_555
B8 O30 1.458747 1_555
B8 O14 1.486906 1_655
B8 O25 1.507307 1_655
B8 O4 1.512983 1_655
B9 O31 1.461332 1_555
B9 O15 1.486797 1_655
B9 O24 1.490767 1_655
B9 O5 1.515068 1_655
B10 O32 1.461332 1_555
B10 O16 1.486797 1_555
B10 O23 1.490767 1_555
B10 O6 1.515068 1_555
B11 O33 1.458747 1_555
B11 O17 1.486906 1_555
B11 O22 1.507307 1_555
B11 O7 1.512983 1_555
B12 O34 1.461322 1_555
B12 O33 1.474133 1_555
B12 O0 1.493527 1_455
B12 O26 1.514556 1_555
B13 O35 1.474495 1_555
B13 O1 1.481969 1_455
B13 O32 1.485194 1_555
B13 O27 1.522645 1_555
B14 O36 1.474495 1_555
B14 O2 1.481969 1_555
B14 O31 1.485194 1_555
B14 O28 1.522645 1_555
B15 O37 1.461322 1_555
B15 O30 1.474133 1_555
B15 O3 1.493527 1_555
B15 O29 1.514556 1_555
B16 O22 1.368378 1_555
B16 O29 1.373377 1_556
B16 O18 1.384973 1_556
B17 O23 1.371785 1_555
B17 O28 1.385542 1_554
B17 O19 1.387907 1_554
B18 O24 1.371785 1_555
B18 O27 1.385542 1_555
B18 O20 1.387907 1_455
B19 O25 1.368378 1_555
B19 O26 1.373377 1_555
B19 O21 1.384973 1_455
Cl0 Pb5 2.805745 1_555
Cl0 Pb2 2.951852 1_555
Cl0 Pb4 2.978250 1_555
Cl1 Pb6 2.805745 1_555
Cl1 Pb1 2.951852 1_545
Cl1 Pb7 2.978250 1_544
Cl2 O8 2.322641 1_556
Cl2 Na0 2.584962 1_655
Cl2 Pb7 2.800111 1_655
Cl2 Pb2 2.988620 1_555
Cl3 O9 2.322641 1_565
Cl3 Na1 2.584962 1_555
Cl3 Pb4 2.800111 1_555
Cl3 Pb1 2.988620 1_555
O0 Pb2 2.684222 1_555
O0 Pb7 2.848703 1_655
O1 Pb3 2.741915 1_555
O2 Pb0 2.741915 1_555
O3 Pb1 2.684222 1_555
O3 Pb4 2.848703 1_555
O4 Pb3 2.607032 1_455
O5 Pb2 2.500029 1_455
O6 Pb1 2.500029 1_545
O7 Pb0 2.607032 1_565
O8 Pb3 2.302367 1_555
O9 Pb0 2.302367 1_555
O10 Pb3 2.722958 1_555
O11 Pb2 2.769729 1_555
O12 Pb1 2.769729 1_645
O13 Pb0 2.722958 1_665
O14 Pb7 2.585506 1_554
O15 Pb6 2.494700 1_556
O16 Pb5 2.494700 1_555
O17 Pb4 2.585506 1_555
O18 Pb7 2.601357 1_554
O19 Pb6 2.599702 1_556
O20 Pb5 2.599702 1_555
O21 Pb4 2.601357 1_555
O23 Pb3 2.813439 1_555
O24 Pb0 2.813439 1_555
O26 Pb4 2.527452 1_555
O27 Pb5 2.498002 1_555
O28 Pb6 2.498002 1_656
O29 Pb7 2.527452 1_654
O30 Pb3 2.842918 1_555
O30 Pb4 2.890133 1_555
O31 Pb2 2.752642 1_555
O32 Pb1 2.752642 1_545
O33 Pb0 2.842918 1_565
O33 Pb7 2.890133 1_555
