# generated using pymatgen
data_HfSiOs
_symmetry_space_group_name_H-M   'P 1'
_cell_length_a   3.69242941
_cell_length_b   6.55502272
_cell_length_c   6.55491307
_cell_angle_alpha   120.00055508
_cell_angle_beta   90.00000000
_cell_angle_gamma   90.00000000
_symmetry_Int_Tables_number   1
_chemical_formula_structural   HfSiOs
_chemical_formula_sum   'Hf3 Si3 Os3'
_cell_volume   137.39835778
_cell_formula_units_Z   3
loop_
 _symmetry_equiv_pos_site_id
 _symmetry_equiv_pos_as_xyz
  1  'x, y, z'
loop_
 _atom_site_type_symbol
 _atom_site_label
 _atom_site_symmetry_multiplicity
 _atom_site_fract_x
 _atom_site_fract_y
 _atom_site_fract_z
 _atom_site_occupancy
  Hf  Hf0  1  0.50000000  0.58153853  1.00000000  1
  Hf  Hf1  1  0.50000000  0.41841046  0.41840651  1
  Hf  Hf2  1  0.50000000  1.00000295  0.58159349  1
  Si  Si0  1  -0.00000000  0.33331487  0.66668119  1
  Si  Si1  1  0.00000000  0.66663268  0.33331881  1
  Si  Si2  1  0.50000000  1.00000163  0.00000000  1
  Os  Os0  1  0.00000000  0.24751659  1.00000000  1
  Os  Os1  1  -0.00000000  0.75248840  0.75249449  1
  Os  Os2  1  0.00000000  0.99999390  0.24750551  1
loop_
_geom_bond_atom_site_label_1
_geom_bond_atom_site_label_2
_geom_bond_distance
_geom_bond_site_symmetry_2
Hf0 Si0 2.697144 1_555
Hf0 Si0 2.697144 1_655
Hf0 Si1 2.697146 1_656
Hf0 Si1 2.697146 1_556
Hf0 Si2 2.743035 1_556
Hf0 Os0 2.864003 1_555
Hf0 Os0 2.864003 1_655
Hf0 Os2 3.018998 1_656
Hf0 Os2 3.018998 1_556
Hf0 Os1 3.018998 1_655
Hf0 Os1 3.018998 1_555
Hf1 Si1 2.697140 1_655
Hf1 Si1 2.697140 1_555
Hf1 Si0 2.697395 1_555
Hf1 Si0 2.697395 1_655
Hf1 Si2 2.742626 1_545
Hf1 Os1 2.864281 1_655
Hf1 Os1 2.864281 1_555
Hf1 Os0 3.018770 1_554
Hf1 Os0 3.018770 1_654
Hf1 Os2 3.018849 1_545
Hf1 Os2 3.018849 1_645
Hf2 Si0 2.697150 1_565
Hf2 Si0 2.697150 1_665
Hf2 Si1 2.697395 1_555
Hf2 Si1 2.697395 1_655
Hf2 Si2 2.742623 1_556
Hf2 Os2 2.864283 1_655
Hf2 Os2 2.864283 1_555
Hf2 Os0 3.018771 1_565
Hf2 Os0 3.018771 1_665
Hf2 Os1 3.018844 1_655
Hf2 Os1 3.018844 1_555
Os0 Si2 2.457825 1_446
Os0 Si2 2.457825 1_546
Os0 Si1 2.513719 1_556
Os0 Si0 2.513723 1_555
Os0 Os1 2.810168 1_545
Os0 Os2 2.810168 1_546
Os1 Si2 2.457783 1_456
Os1 Si2 2.457783 1_556
Os1 Si1 2.513960 1_555
Os1 Si0 2.514084 1_555
Os1 Os2 2.810024 1_556
Os2 Si2 2.457783 1_455
Os2 Si2 2.457783 1_555
Os2 Si0 2.513962 1_565
Os2 Si1 2.514090 1_555
