# generated using pymatgen
data_HoMg(MoO3)2
_symmetry_space_group_name_H-M   'P 1'
_cell_length_a   5.64076400
_cell_length_b   5.39130000
_cell_length_c   9.58709196
_cell_angle_alpha   56.10942938
_cell_angle_beta   90.00000000
_cell_angle_gamma   90.00000000
_symmetry_Int_Tables_number   1
_chemical_formula_structural   HoMg(MoO3)2
_chemical_formula_sum   'Ho2 Mg2 Mo4 O12'
_cell_volume   242.01978022
_cell_formula_units_Z   2
loop_
 _symmetry_equiv_pos_site_id
 _symmetry_equiv_pos_as_xyz
  1  'x, y, z'
loop_
 _atom_site_type_symbol
 _atom_site_label
 _atom_site_symmetry_multiplicity
 _atom_site_fract_x
 _atom_site_fract_y
 _atom_site_fract_z
 _atom_site_occupancy
  Ho  Ho0  1  0.18867100  0.73827300  0.25082900  1
  Ho  Ho1  1  0.81132900  0.73827300  0.75082900  1
  Mg  Mg0  1  0.70884400  0.25449400  0.24899700  1
  Mg  Mg1  1  0.29115600  0.25449400  0.74899700  1
  Mo  Mo0  1  0.74619200  0.00057100  0.99996100  1
  Mo  Mo1  1  0.74351400  0.50005500  0.50028900  1
  Mo  Mo2  1  0.25380800  0.00057100  0.49996100  1
  Mo  Mo3  1  0.25648600  0.50005500  0.00028900  1
  O  O0  1  0.66269400  0.12408900  0.74715800  1
  O  O1  1  0.43361600  0.74018200  0.07060800  1
  O  O2  1  0.43979600  0.39528900  0.43189000  1
  O  O3  1  0.93807100  0.59901600  0.06953800  1
  O  O4  1  0.92883900  0.25965600  0.42708900  1
  O  O5  1  0.18448800  0.88838600  0.75361700  1
  O  O6  1  0.33730600  0.12408900  0.24715800  1
  O  O7  1  0.56638400  0.74018200  0.57060800  1
  O  O8  1  0.56020400  0.39528900  0.93189000  1
  O  O9  1  0.07116100  0.25965600  0.92708900  1
  O  O10  1  0.06192900  0.59901600  0.56953800  1
  O  O11  1  0.81551200  0.88838600  0.25361700  1
loop_
_geom_bond_atom_site_label_1
_geom_bond_atom_site_label_2
_geom_bond_distance
_geom_bond_site_symmetry_2
Ho0 O2 2.204403 1_555
Ho0 O1 2.207846 1_555
Ho0 O6 2.224667 1_565
Ho0 O11 2.260625 1_455
Ho0 O4 2.607523 1_455
Ho0 O3 2.652909 1_455
Ho0 O10 2.802234 1_555
Ho0 O9 2.871282 1_564
Ho1 O8 2.204403 1_555
Ho1 O7 2.207846 1_555
Ho1 O0 2.224667 1_565
Ho1 O5 2.260625 1_655
Ho1 O9 2.607523 1_655
Ho1 O10 2.652909 1_655
Ho1 O3 2.802234 1_556
Ho1 O4 2.871282 1_565
Mg0 O11 2.040190 1_545
Mg0 O4 2.123407 1_555
Mg0 O3 2.125586 1_555
Mg0 O6 2.213734 1_555
Mg1 O5 2.040190 1_545
Mg1 O9 2.123407 1_555
Mg1 O10 2.125586 1_555
Mg1 O0 2.213734 1_555
Mo0 O1 2.116100 1_546
Mo0 O8 2.122810 1_555
Mo0 O3 2.166277 1_546
Mo0 O9 2.170489 1_655
Mo0 O0 2.177023 1_555
Mo0 O11 2.189106 1_546
Mo1 O2 2.024141 1_555
Mo1 O7 2.025359 1_555
Mo1 O4 2.068675 1_555
Mo1 O10 2.084807 1_655
Mo1 O0 2.137255 1_555
Mo1 O11 2.149226 1_555
Mo2 O7 2.116100 1_545
Mo2 O2 2.122810 1_555
Mo2 O10 2.166277 1_545
Mo2 O4 2.170489 1_455
Mo2 O6 2.177023 1_555
Mo2 O5 2.189106 1_545
Mo3 O8 2.024141 1_554
Mo3 O1 2.025359 1_555
Mo3 O9 2.068675 1_554
Mo3 O3 2.084807 1_455
Mo3 O6 2.137255 1_555
Mo3 O5 2.149226 1_554
