# generated using pymatgen
data_Nd2Zn5Pb
_symmetry_space_group_name_H-M   'P 1'
_cell_length_a   8.60640089
_cell_length_b   8.60640115
_cell_length_c   9.09073383
_cell_angle_alpha   90.00000000
_cell_angle_beta   90.00000000
_cell_angle_gamma   150.10057109
_symmetry_Int_Tables_number   1
_chemical_formula_structural   Nd2Zn5Pb
_chemical_formula_sum   'Nd4 Zn10 Pb2'
_cell_volume   335.65185570
_cell_formula_units_Z   2
loop_
 _symmetry_equiv_pos_site_id
 _symmetry_equiv_pos_as_xyz
  1  'x, y, z'
loop_
 _atom_site_type_symbol
 _atom_site_label
 _atom_site_symmetry_multiplicity
 _atom_site_fract_x
 _atom_site_fract_y
 _atom_site_fract_z
 _atom_site_occupancy
  Nd  Nd0  1  0.20496046  0.79503954  0.25000000  1
  Nd  Nd1  1  0.79503954  0.20496046  0.75000000  1
  Nd  Nd2  1  0.00000000  -0.00000000  0.50000000  1
  Nd  Nd3  1  0.00000000  -0.00000000  0.00000000  1
  Zn  Zn0  1  0.81442411  0.18557589  0.39008175  1
  Zn  Zn1  1  0.18557589  0.81442411  0.60991825  1
  Zn  Zn2  1  0.81442411  0.18557589  0.10991825  1
  Zn  Zn3  1  0.18557589  0.81442411  0.89008175  1
  Zn  Zn4  1  0.65905893  0.34094107  0.48583605  1
  Zn  Zn5  1  0.34094107  0.65905893  0.51416395  1
  Zn  Zn6  1  0.65905893  0.34094107  0.01416395  1
  Zn  Zn7  1  0.34094107  0.65905893  0.98583605  1
  Zn  Zn8  1  0.39073585  0.60926415  0.25000000  1
  Zn  Zn9  1  0.60926415  0.39073585  0.75000000  1
  Pb  Pb0  1  0.55363041  0.44636959  0.25000000  1
  Pb  Pb1  1  0.44636959  0.55363041  0.75000000  1
loop_
_geom_bond_atom_site_label_1
_geom_bond_atom_site_label_2
_geom_bond_distance
_geom_bond_site_symmetry_2
Nd0 Zn8 3.089481 1_555
Nd0 Zn2 3.140833 1_565
Nd0 Zn0 3.140833 1_565
Nd0 Zn0 3.140833 1_455
Nd0 Zn2 3.140833 1_455
Nd0 Zn6 3.179373 1_455
Nd0 Zn4 3.179373 1_455
Nd0 Zn6 3.179373 1_565
Nd0 Zn4 3.179373 1_565
Nd0 Zn3 3.287764 1_554
Nd0 Zn1 3.287764 1_555
Nd0 Zn7 3.298604 1_554
Nd0 Zn5 3.298604 1_555
Nd0 Pb0 3.356013 1_455
Nd0 Pb0 3.356013 1_565
Nd1 Zn9 3.089481 1_555
Nd1 Zn1 3.140833 1_545
Nd1 Zn3 3.140833 1_545
Nd1 Zn1 3.140833 1_655
Nd1 Zn3 3.140833 1_655
Nd1 Zn5 3.179373 1_655
Nd1 Zn7 3.179373 1_655
Nd1 Zn5 3.179373 1_545
Nd1 Zn7 3.179373 1_545
Nd1 Zn2 3.287764 1_556
Nd1 Zn0 3.287764 1_555
Nd1 Zn6 3.298604 1_556
Nd1 Zn4 3.298604 1_555
Nd1 Pb1 3.356013 1_655
Nd1 Pb1 3.356013 1_545
Nd2 Zn1 3.243899 1_545
Nd2 Zn0 3.243899 1_455
Nd2 Pb0 3.299977 1_555
Nd2 Pb1 3.299977 1_445
Nd2 Pb0 3.299978 1_445
Nd2 Pb1 3.299978 1_555
Nd2 Zn4 3.455845 1_555
Nd2 Zn5 3.455845 1_445
Nd2 Zn5 3.455845 1_555
Nd2 Zn4 3.455845 1_445
Nd2 Zn8 3.660080 1_445
Nd2 Zn9 3.660080 1_555
Nd2 Zn8 3.660080 1_555
Nd2 Zn9 3.660080 1_445
Nd3 Zn2 3.243899 1_455
Nd3 Zn3 3.243899 1_544
Nd3 Pb1 3.299977 1_444
Nd3 Pb0 3.299977 1_555
Nd3 Pb0 3.299978 1_445
Nd3 Pb1 3.299978 1_554
Nd3 Zn6 3.455845 1_555
Nd3 Zn7 3.455845 1_444
Nd3 Zn7 3.455845 1_554
Nd3 Zn6 3.455845 1_445
Nd3 Zn8 3.660080 1_445
Nd3 Zn9 3.660080 1_554
Nd3 Zn8 3.660080 1_555
Nd3 Zn9 3.660080 1_444
Zn0 Zn5 2.529061 1_655
Zn0 Zn5 2.529061 1_545
Zn0 Zn2 2.546892 1_555
Zn0 Zn4 2.726446 1_555
Zn0 Zn8 2.856839 1_655
Zn0 Zn8 2.856839 1_545
Zn1 Zn4 2.529061 1_455
Zn1 Zn4 2.529061 1_565
Zn1 Zn3 2.546892 1_555
Zn1 Zn5 2.726446 1_555
Zn1 Zn9 2.856839 1_455
Zn1 Zn9 2.856839 1_565
Zn2 Zn7 2.529061 1_654
Zn2 Zn7 2.529061 1_544
Zn2 Zn6 2.726446 1_555
Zn2 Zn8 2.856839 1_655
Zn2 Zn8 2.856839 1_545
Zn3 Zn6 2.529061 1_456
Zn3 Zn6 2.529061 1_566
Zn3 Zn7 2.726446 1_555
Zn3 Zn9 2.856839 1_455
Zn3 Zn9 2.856839 1_565
Pb0 Zn8 2.708968 1_555
Pb0 Zn6 2.769558 1_555
Pb0 Zn4 2.769558 1_555
Pb1 Zn9 2.708968 1_555
Pb1 Zn5 2.769558 1_555
Pb1 Zn7 2.769558 1_555
