# generated using pymatgen
data_K4Ho2MgNb10O30
_symmetry_space_group_name_H-M   'P 1'
_cell_length_a   3.97024032
_cell_length_b   12.90127572
_cell_length_c   12.93143167
_cell_angle_alpha   89.08625744
_cell_angle_beta   90.00000000
_cell_angle_gamma   90.00000000
_symmetry_Int_Tables_number   1
_chemical_formula_structural   K4Ho2MgNb10O30
_chemical_formula_sum   'K4 Ho2 Mg1 Nb10 O30'
_cell_volume   662.27876730
_cell_formula_units_Z   1
loop_
 _symmetry_equiv_pos_site_id
 _symmetry_equiv_pos_as_xyz
  1  'x, y, z'
loop_
 _atom_site_type_symbol
 _atom_site_label
 _atom_site_symmetry_multiplicity
 _atom_site_fract_x
 _atom_site_fract_y
 _atom_site_fract_z
 _atom_site_occupancy
  K  K0  1  0.50000000  0.17863885  0.66304746  1
  K  K1  1  0.50000000  0.83866572  0.30011575  1
  K  K2  1  0.50000000  0.32456320  0.15462804  1
  K  K3  1  0.50000000  0.65458398  0.81978824  1
  Ho  Ho0  1  0.50000000  0.02435853  0.97197238  1
  Ho  Ho1  1  0.50000000  0.46593159  0.47507385  1
  Mg  Mg0  1  0.50000000  0.87350646  0.60712873  1
  Nb  Nb0  1  -0.00000000  0.00997211  0.49304822  1
  Nb  Nb1  1  0.00000000  0.49907543  0.99169750  1
  Nb  Nb2  1  -0.00000000  0.05813791  0.19601992  1
  Nb  Nb3  1  0.00000000  0.92576820  0.79283557  1
  Nb  Nb4  1  -0.00000000  0.78310855  0.06891694  1
  Nb  Nb5  1  -0.00000000  0.42930872  0.70031635  1
  Nb  Nb6  1  -0.00000000  0.22209424  0.91302589  1
  Nb  Nb7  1  0.00000000  0.57050050  0.27808055  1
  Nb  Nb8  1  -0.00000000  0.69655342  0.57244485  1
  Nb  Nb9  1  0.00000000  0.27743831  0.40279183  1
  O  O0  1  0.50000000  0.06912903  0.18676735  1
  O  O1  1  0.50000000  0.93485503  0.80929046  1
  O  O2  1  0.50000000  0.79236121  0.07077373  1
  O  O3  1  0.50000000  0.42802825  0.67570096  1
  O  O4  1  0.50000000  0.19328353  0.91782623  1
  O  O5  1  0.50000000  0.56819825  0.31951700  1
  O  O6  1  0.50000000  0.71950283  0.58755064  1
  O  O7  1  0.50000000  0.29981305  0.42703783  1
  O  O8  1  -0.00000000  0.70646177  0.21494287  1
  O  O9  1  -0.00000000  0.29090918  0.77846544  1
  O  O10  1  -0.00000000  0.79555603  0.72473033  1
  O  O11  1  -0.00000000  0.21159669  0.27662135  1
  O  O12  1  0.50000000  0.99563476  0.50974355  1
  O  O13  1  0.50000000  0.49631121  0.00312704  1
  O  O14  1  0.00000000  0.11306859  0.05064677  1
  O  O15  1  0.00000000  0.89235563  0.95414620  1
  O  O16  1  0.00000000  0.91737701  0.16163007  1
  O  O17  1  -0.00000000  0.39424410  0.54941987  1
  O  O18  1  -0.00000000  0.07057219  0.86304910  1
  O  O19  1  -0.00000000  0.61041749  0.45626241  1
  O  O20  1  0.00000000  0.58236061  0.66811772  1
  O  O21  1  -0.00000000  0.42703120  0.35896567  1
  O  O22  1  -0.00000000  0.00601943  0.34747057  1
  O  O23  1  -0.00000000  0.99691167  0.65928455  1
  O  O24  1  0.00000000  0.65560088  0.99236199  1
  O  O25  1  -0.00000000  0.49042202  0.84563900  1
  O  O26  1  -0.00000000  0.33638042  0.00375469  1
  O  O27  1  -0.00000000  0.49719905  0.15696661  1
  O  O28  1  -0.00000000  0.84795888  0.51925090  1
  O  O29  1  -0.00000000  0.16156830  0.50480001  1
loop_
_geom_bond_atom_site_label_1
_geom_bond_atom_site_label_2
_geom_bond_distance
_geom_bond_site_symmetry_2
K0 O29 2.862026 1_555
K0 O29 2.862026 1_655
K0 O9 2.887078 1_555
K0 O9 2.887078 1_655
K0 O23 3.073019 1_545
K0 O23 3.073019 1_645
K0 O12 3.107025 1_545
K0 O3 3.224204 1_555
K0 O4 3.303074 1_555
K1 O16 2.849723 1_555
K1 O16 2.849723 1_655
K1 O8 2.850050 1_555
K1 O8 2.850050 1_655
K1 O22 3.003244 1_665
K1 O22 3.003244 1_565
K1 O2 3.034613 1_555
K2 O26 2.785838 1_555
K2 O26 2.785838 1_655
K2 O11 2.912058 1_655
K2 O11 2.912058 1_555
K2 O13 2.934169 1_555
K2 O27 2.984005 1_555
K2 O27 2.984005 1_655
K2 O0 3.314949 1_555
K3 O25 2.918110 1_555
K3 O25 2.918110 1_655
K3 O10 2.947568 1_555
K3 O10 2.947568 1_655
K3 O20 2.951941 1_555
K3 O20 2.951941 1_655
K3 O24 2.986965 1_555
K3 O24 2.986965 1_655
K3 O13 3.104173 1_556
K3 O6 3.104874 1_555
Ho0 O4 2.278410 1_555
Ho0 O1 2.415870 1_545
Ho0 O18 2.500672 1_555
Ho0 O18 2.500672 1_655
Ho0 O14 2.514499 1_656
Ho0 O14 2.514499 1_556
Ho0 O15 2.628039 1_645
Ho0 O15 2.628039 1_545
Ho0 O0 2.846030 1_556
Ho1 O7 2.240842 1_555
Ho1 O17 2.385791 1_655
Ho1 O17 2.385791 1_555
Ho1 O5 2.387994 1_555
Ho1 O21 2.543804 1_555
Ho1 O21 2.543804 1_655
Ho1 O3 2.632404 1_555
Ho1 O19 2.731319 1_655
Ho1 O19 2.731319 1_555
Mg0 O12 2.001294 1_555
Mg0 O6 2.006910 1_555
Mg0 O28 2.313581 1_555
Mg0 O28 2.313581 1_655
Mg0 O23 2.639046 1_555
Mg0 O23 2.639046 1_655
Mg0 O10 2.686257 1_655
Mg0 O10 2.686257 1_555
Mg0 O1 2.743479 1_555
Nb0 O22 1.884031 1_555
Nb0 O29 1.964094 1_555
Nb0 O12 2.005057 1_445
Nb0 O12 2.005057 1_545
Nb0 O28 2.112123 1_545
Nb0 O23 2.153587 1_545
Nb1 O25 1.893818 1_555
Nb1 O13 1.990892 1_456
Nb1 O13 1.990892 1_556
Nb1 O24 2.019533 1_555
Nb1 O26 2.102275 1_556
Nb1 O27 2.136917 1_556
Nb2 O16 1.876530 1_545
Nb2 O0 1.993636 1_455
Nb2 O0 1.993636 1_555
Nb2 O14 1.998422 1_555
Nb2 O22 2.060518 1_555
Nb2 O11 2.252077 1_555
Nb3 O10 1.909160 1_555
Nb3 O23 1.942788 1_555
Nb3 O1 2.000130 1_555
Nb3 O1 2.000130 1_455
Nb3 O18 2.090096 1_565
Nb3 O15 2.123309 1_555
Nb4 O24 1.933400 1_554
Nb4 O2 1.988874 1_455
Nb4 O2 1.988874 1_555
Nb4 O15 2.030386 1_554
Nb4 O8 2.117551 1_555
Nb4 O16 2.122326 1_555
Nb5 O17 2.010075 1_555
Nb5 O3 2.010588 1_555
Nb5 O3 2.010588 1_455
Nb5 O20 2.011480 1_555
Nb5 O9 2.037606 1_555
Nb5 O25 2.049487 1_555
Nb6 O26 1.898858 1_556
Nb6 O9 1.940805 1_555
Nb6 O4 2.020390 1_455
Nb6 O4 2.020390 1_555
Nb6 O18 2.068650 1_555
Nb6 O14 2.250712 1_556
Nb7 O27 1.842407 1_555
Nb7 O8 1.922942 1_555
Nb7 O5 2.056257 1_455
Nb7 O5 2.056257 1_555
Nb7 O21 2.111458 1_555
Nb7 O19 2.368996 1_555
Nb8 O19 1.882917 1_555
Nb8 O20 1.908642 1_555
Nb8 O6 2.017019 1_555
Nb8 O6 2.017019 1_455
Nb8 O28 2.060531 1_555
Nb8 O10 2.364241 1_555
Nb9 O11 1.851420 1_555
Nb9 O29 1.977828 1_555
Nb9 O21 2.002740 1_555
Nb9 O7 2.031064 1_455
Nb9 O7 2.031064 1_555
Nb9 O17 2.440747 1_555
