# generated using pymatgen
data_MgGaMoS4
_symmetry_space_group_name_H-M   'P 1'
_cell_length_a   7.35906943
_cell_length_b   7.39663090
_cell_length_c   7.39669141
_cell_angle_alpha   60.34149424
_cell_angle_beta   60.16707739
_cell_angle_gamma   60.16807819
_symmetry_Int_Tables_number   1
_chemical_formula_structural   MgGaMoS4
_chemical_formula_sum   'Mg2 Ga2 Mo2 S8'
_cell_volume   286.14671320
_cell_formula_units_Z   2
loop_
 _symmetry_equiv_pos_site_id
 _symmetry_equiv_pos_as_xyz
  1  'x, y, z'
loop_
 _atom_site_type_symbol
 _atom_site_label
 _atom_site_symmetry_multiplicity
 _atom_site_fract_x
 _atom_site_fract_y
 _atom_site_fract_z
 _atom_site_occupancy
  Mg  Mg0  1  0.87415100  0.87584200  0.87585100  1
  Mg  Mg1  1  0.12585500  0.12415100  0.12415300  1
  Ga  Ga0  1  0.50000400  0.50002500  0.49996500  1
  Ga  Ga1  1  0.99999600  0.49998900  0.50002000  1
  Mo  Mo0  1  0.50000100  0.49999300  0.00000000  1
  Mo  Mo1  1  0.49999500  0.00000000  0.50000900  1
  S  S0  1  0.73951400  0.73810300  0.73809200  1
  S  S1  1  0.26143900  0.26092700  0.71617900  1
  S  S2  1  0.26144300  0.71618300  0.26092300  1
  S  S3  1  0.71570900  0.26190100  0.26189700  1
  S  S4  1  0.73854700  0.28382000  0.73906800  1
  S  S5  1  0.28429100  0.73809100  0.73810500  1
  S  S6  1  0.26048500  0.26189100  0.26191900  1
  S  S7  1  0.73857200  0.73907800  0.28382000  1
loop_
_geom_bond_atom_site_label_1
_geom_bond_atom_site_label_2
_geom_bond_distance
_geom_bond_site_symmetry_2
Mg0 S0 2.468625 1_555
Mg0 S5 2.468635 1_655
Mg0 S7 2.472326 1_556
Mg0 S4 2.472386 1_565
Mg1 S6 2.468631 1_555
Mg1 S3 2.468670 1_455
Mg1 S2 2.472325 1_545
Mg1 S1 2.472357 1_554
Ga0 S3 2.495899 1_555
Ga0 S5 2.495971 1_555
Ga0 S2 2.502535 1_555
Ga0 S7 2.502592 1_555
Ga0 S4 2.502751 1_555
Ga0 S1 2.502791 1_555
Ga1 S0 2.495864 1_555
Ga1 S6 2.495932 1_655
Ga1 S1 2.502530 1_655
Ga1 S4 2.502563 1_555
Ga1 S7 2.502632 1_555
Ga1 S2 2.502679 1_655
Mo0 S4 2.500768 1_554
Mo0 S2 2.500804 1_555
Mo0 S5 2.505168 1_554
Mo0 S3 2.505169 1_555
Mo0 S6 2.505197 1_555
Mo0 S0 2.505216 1_554
Mo1 S1 2.500727 1_555
Mo1 S7 2.500794 1_545
Mo1 S6 2.505140 1_555
Mo1 S0 2.505153 1_545
Mo1 S5 2.505168 1_545
Mo1 S3 2.505174 1_555
