# generated using pymatgen
data_Tm2Fe15Si2
_symmetry_space_group_name_H-M   'P 1'
_cell_length_a   8.33396000
_cell_length_b   8.29651872
_cell_length_c   8.29651872
_cell_angle_alpha   120.00491791
_cell_angle_beta   90.00000000
_cell_angle_gamma   90.00000000
_symmetry_Int_Tables_number   1
_chemical_formula_structural   Tm2Fe15Si2
_chemical_formula_sum   'Tm4 Fe30 Si4'
_cell_volume   496.76651534
_cell_formula_units_Z   2
loop_
 _symmetry_equiv_pos_site_id
 _symmetry_equiv_pos_as_xyz
  1  'x, y, z'
loop_
 _atom_site_type_symbol
 _atom_site_label
 _atom_site_symmetry_multiplicity
 _atom_site_fract_x
 _atom_site_fract_y
 _atom_site_fract_z
 _atom_site_occupancy
  Tm  Tm0  1  0.75000000  0.99997400  0.00002600  1
  Tm  Tm1  1  0.25000000  0.00002600  0.99997400  1
  Tm  Tm2  1  0.25000000  0.66664800  0.33335200  1
  Tm  Tm3  1  0.75000000  0.33335200  0.66664800  1
  Fe  Fe0  1  0.50000000  0.50000000  0.00000000  1
  Fe  Fe1  1  0.50000000  0.50000000  0.50000000  1
  Fe  Fe2  1  0.50000000  0.00000000  0.50000000  1
  Fe  Fe3  1  0.00000000  0.50000000  0.00000000  1
  Fe  Fe4  1  0.00000000  0.50000000  0.50000000  1
  Fe  Fe5  1  0.00000000  0.00000000  0.50000000  1
  Fe  Fe6  1  0.75000000  0.66935100  0.02937000  1
  Fe  Fe7  1  0.75000000  0.35988900  0.33053800  1
  Fe  Fe8  1  0.75000000  0.97080100  0.64021200  1
  Fe  Fe9  1  0.75000000  0.35978800  0.02919900  1
  Fe  Fe10  1  0.75000000  0.97063000  0.33064900  1
  Fe  Fe11  1  0.75000000  0.66946200  0.64011100  1
  Fe  Fe12  1  0.25000000  0.33064900  0.97063000  1
  Fe  Fe13  1  0.25000000  0.64011100  0.66946200  1
  Fe  Fe14  1  0.25000000  0.02919900  0.35978800  1
  Fe  Fe15  1  0.25000000  0.64021200  0.97080100  1
  Fe  Fe16  1  0.25000000  0.02937000  0.66935100  1
  Fe  Fe17  1  0.25000000  0.33053800  0.35988900  1
  Fe  Fe18  1  0.48947000  0.83340900  0.66672500  1
  Fe  Fe19  1  0.48943600  0.83333400  0.16666600  1
  Fe  Fe20  1  0.48947000  0.33327500  0.16659100  1
  Fe  Fe21  1  0.51053000  0.16659100  0.33327500  1
  Fe  Fe22  1  0.51056400  0.16666600  0.83333400  1
  Fe  Fe23  1  0.51053000  0.66672500  0.83340900  1
  Fe  Fe24  1  0.98947000  0.16659100  0.33327500  1
  Fe  Fe25  1  0.98943600  0.16666600  0.83333400  1
  Fe  Fe26  1  0.98947000  0.66672500  0.83340900  1
  Fe  Fe27  1  0.01053000  0.83340900  0.66672500  1
  Fe  Fe28  1  0.01056400  0.83333400  0.16666600  1
  Fe  Fe29  1  0.01053000  0.33327500  0.16659100  1
  Si  Si0  1  0.60245700  0.66668300  0.33331700  1
  Si  Si1  1  0.39754300  0.33331700  0.66668300  1
  Si  Si2  1  0.10245700  0.33331700  0.66668300  1
  Si  Si3  1  0.89754300  0.66668300  0.33331700  1
loop_
_geom_bond_atom_site_label_1
_geom_bond_atom_site_label_2
_geom_bond_distance
_geom_bond_site_symmetry_2
Fe0 Fe19 2.396502 1_555
Fe0 Fe22 2.396502 1_554
Fe0 Fe20 2.396541 1_555
Fe0 Fe23 2.396541 1_554
Fe0 Fe6 2.456010 1_555
Fe0 Fe12 2.456010 1_554
Fe0 Fe9 2.456555 1_555
Fe0 Fe15 2.456555 1_554
Fe0 Si0 2.542437 1_555
Fe0 Si1 2.542437 1_554
Fe0 Tm3 3.174433 1_554
Fe0 Tm2 3.174433 1_555
Fe1 Fe18 2.397031 1_555
Fe1 Fe23 2.397031 1_555
Fe1 Fe21 2.397031 1_555
Fe1 Fe20 2.397031 1_555
Fe1 Fe13 2.456482 1_555
Fe1 Fe11 2.456482 1_555
Fe1 Fe17 2.456482 1_555
Fe1 Fe7 2.456482 1_555
Fe1 Si0 2.542936 1_555
Fe1 Si1 2.542936 1_555
Fe1 Tm3 3.174263 1_555
Fe1 Tm2 3.174263 1_555
Fe2 Fe22 2.396502 1_555
Fe2 Fe21 2.396541 1_555
Fe2 Fe8 2.456555 1_545
Fe2 Si1 2.542437 1_555
Fe2 Si0 2.542437 1_545
Fe2 Tm2 3.174433 1_545
Fe2 Tm3 3.174433 1_555
Fe3 Fe6 2.456010 1_455
Fe3 Fe9 2.456555 1_455
Fe3 Si3 2.542437 1_455
Fe3 Si2 2.542437 1_554
Fe3 Tm2 3.174433 1_555
Fe3 Tm3 3.174433 1_454
Fe4 Fe7 2.456482 1_455
Fe4 Si2 2.542936 1_555
Fe4 Si3 2.542936 1_455
Fe4 Tm3 3.174263 1_455
Fe4 Tm2 3.174263 1_555
Fe5 Fe8 2.456555 1_445
Fe5 Si2 2.542437 1_555
Fe5 Si3 2.542437 1_445
Fe5 Tm2 3.174433 1_545
Fe5 Tm3 3.174433 1_455
Fe6 Fe9 2.567586 1_555
Fe6 Si3 2.815538 1_555
Fe6 Si0 2.815538 1_555
Fe6 Tm0 2.872512 1_555
Fe6 Tm3 2.904614 1_554
Fe7 Fe9 2.499646 1_555
Fe7 Si0 2.816463 1_555
Fe7 Si3 2.816463 1_555
Fe7 Tm0 2.871639 1_545
Fe7 Tm3 2.904905 1_555
Fe8 Si3 2.817056 1_555
Fe8 Si0 2.817056 1_555
Fe8 Tm0 2.871827 1_556
Fe8 Tm3 2.904448 1_565
Fe9 Si3 2.817056 1_555
Fe9 Si0 2.817056 1_555
Fe9 Tm0 2.871827 1_545
Fe9 Tm3 2.904448 1_554
Fe10 Fe2 2.456010 1_565
Fe10 Fe5 2.456010 1_665
Fe10 Fe6 2.499381 1_555
Fe10 Fe28 2.512775 1_655
Fe10 Fe19 2.512775 1_555
Fe10 Fe21 2.567335 1_565
Fe10 Fe24 2.567335 1_565
Fe10 Fe8 2.567586 1_555
Fe10 Si3 2.815538 1_555
Fe10 Si0 2.815538 1_555
Fe10 Tm0 2.872512 1_555
Fe10 Tm3 2.904614 1_565
Fe11 Fe4 2.456482 1_655
Fe11 Fe8 2.499646 1_555
Fe11 Fe27 2.512529 1_655
Fe11 Fe18 2.512529 1_555
Fe11 Fe23 2.567439 1_555
Fe11 Fe26 2.567439 1_555
Fe11 Fe7 2.568187 1_555
Fe11 Si3 2.816463 1_555
Fe11 Si0 2.816463 1_555
Fe11 Tm0 2.871639 1_556
Fe11 Tm3 2.904905 1_555
Fe12 Fe3 2.456010 1_556
Fe12 Fe16 2.499381 1_555
Fe12 Fe25 2.512775 1_455
Fe12 Fe22 2.512775 1_555
Fe12 Fe29 2.567335 1_556
Fe12 Fe20 2.567335 1_556
Fe12 Fe15 2.567586 1_555
Fe12 Si1 2.815538 1_555
Fe12 Si2 2.815538 1_555
Fe12 Tm1 2.872512 1_555
Fe12 Tm2 2.904614 1_556
Fe13 Fe4 2.456482 1_555
Fe13 Fe15 2.499646 1_555
Fe13 Fe26 2.512529 1_455
Fe13 Fe23 2.512529 1_555
Fe13 Fe18 2.567439 1_555
Fe13 Fe27 2.567439 1_555
Fe13 Fe17 2.568187 1_555
Fe13 Si1 2.816463 1_555
Fe13 Si2 2.816463 1_555
Fe13 Tm1 2.871639 1_565
Fe13 Tm2 2.904905 1_555
Fe14 Fe2 2.456555 1_555
Fe14 Fe5 2.456555 1_555
Fe14 Fe17 2.499646 1_555
Fe14 Fe24 2.512525 1_455
Fe14 Fe21 2.512525 1_555
Fe14 Fe19 2.566240 1_545
Fe14 Fe28 2.566240 1_545
Fe14 Fe16 2.567586 1_555
Fe14 Si1 2.817056 1_555
Fe14 Si2 2.817056 1_555
Fe14 Tm1 2.871827 1_554
Fe14 Tm2 2.904448 1_545
Fe15 Fe3 2.456555 1_556
Fe15 Fe26 2.512525 1_455
Fe15 Fe23 2.512525 1_555
Fe15 Fe19 2.566240 1_556
Fe15 Fe28 2.566240 1_556
Fe15 Si1 2.817056 1_555
Fe15 Si2 2.817056 1_555
Fe15 Tm1 2.871827 1_565
Fe15 Tm2 2.904448 1_556
Fe16 Fe5 2.456010 1_555
Fe16 Fe2 2.456010 1_555
Fe16 Fe25 2.512775 1_455
Fe16 Fe22 2.512775 1_555
Fe16 Fe18 2.567335 1_545
Fe16 Fe27 2.567335 1_545
Fe16 Si1 2.815538 1_555
Fe16 Si2 2.815538 1_555
Fe16 Tm1 2.872512 1_555
Fe16 Tm2 2.904614 1_545
Fe17 Fe4 2.456482 1_555
Fe17 Fe24 2.512529 1_455
Fe17 Fe21 2.512529 1_555
Fe17 Fe29 2.567439 1_555
Fe17 Fe20 2.567439 1_555
Fe17 Si1 2.816463 1_555
Fe17 Si2 2.816463 1_555
Fe17 Tm1 2.871639 1_554
Fe17 Tm2 2.904905 1_555
Fe18 Fe2 2.396541 1_565
Fe18 Fe22 2.400777 1_565
Fe18 Fe23 2.401729 1_555
Fe18 Fe8 2.512525 1_555
Fe18 Si0 2.573846 1_555
Fe18 Tm1 3.116970 1_565
Fe18 Tm2 3.117654 1_555
Fe18 Tm0 3.232437 1_556
Fe19 Fe2 2.396502 1_565
Fe19 Fe23 2.400777 1_554
Fe19 Fe21 2.400777 1_565
Fe19 Fe6 2.512775 1_555
Fe19 Si0 2.573407 1_555
Fe19 Tm2 3.117604 1_555
Fe19 Tm1 3.117670 1_564
Fe19 Tm0 3.232647 1_555
Fe20 Fe22 2.400777 1_554
Fe20 Fe21 2.401729 1_555
Fe20 Fe9 2.512525 1_555
Fe20 Fe7 2.512529 1_555
Fe20 Si0 2.573846 1_555
Fe20 Tm1 3.116970 1_554
Fe20 Tm2 3.117654 1_555
Fe20 Tm0 3.232437 1_545
Fe21 Fe7 2.567439 1_555
Fe21 Si1 2.573846 1_555
Fe21 Tm0 3.116970 1_545
Fe21 Tm3 3.117654 1_555
Fe21 Tm1 3.232437 1_554
Fe22 Fe8 2.566240 1_545
Fe22 Fe9 2.566240 1_556
Fe22 Si1 2.573407 1_555
Fe22 Tm3 3.117604 1_555
Fe22 Tm0 3.117670 1_546
Fe22 Tm1 3.232647 1_555
Fe23 Fe6 2.567335 1_556
Fe23 Si1 2.573846 1_555
Fe23 Tm0 3.116970 1_556
Fe23 Tm3 3.117654 1_555
Fe23 Tm1 3.232437 1_565
Fe24 Fe5 2.396541 1_655
Fe24 Fe4 2.397031 1_655
Fe24 Fe28 2.400777 1_645
Fe24 Fe29 2.401729 1_655
Fe24 Fe7 2.567439 1_555
Fe24 Si2 2.573846 1_655
Fe24 Tm0 3.116970 1_545
Fe24 Tm3 3.117654 1_555
Fe24 Tm1 3.232437 1_654
Fe25 Fe5 2.396502 1_655
Fe25 Fe3 2.396502 1_656
Fe25 Fe27 2.400777 1_645
Fe25 Fe29 2.400777 1_656
Fe25 Fe8 2.566240 1_545
Fe25 Fe9 2.566240 1_556
Fe25 Si2 2.573407 1_655
Fe25 Tm3 3.117604 1_555
Fe25 Tm0 3.117670 1_546
Fe25 Tm1 3.232647 1_655
Fe26 Fe3 2.396541 1_656
Fe26 Fe4 2.397031 1_655
Fe26 Fe28 2.400777 1_656
Fe26 Fe27 2.401729 1_655
Fe26 Fe6 2.567335 1_556
Fe26 Si2 2.573846 1_655
Fe26 Tm0 3.116970 1_556
Fe26 Tm3 3.117654 1_555
Fe26 Tm1 3.232437 1_665
Fe27 Fe5 2.396541 1_565
Fe27 Fe4 2.397031 1_555
Fe27 Fe8 2.512525 1_455
Fe27 Si3 2.573846 1_455
Fe27 Tm1 3.116970 1_565
Fe27 Tm2 3.117654 1_555
Fe27 Tm0 3.232437 1_456
Fe28 Fe3 2.396502 1_555
Fe28 Fe5 2.396502 1_565
Fe28 Fe6 2.512775 1_455
Fe28 Si3 2.573407 1_455
Fe28 Tm2 3.117604 1_555
Fe28 Tm1 3.117670 1_564
Fe28 Tm0 3.232647 1_455
Fe29 Fe3 2.396541 1_555
Fe29 Fe4 2.397031 1_555
Fe29 Fe9 2.512525 1_455
Fe29 Fe7 2.512529 1_455
Fe29 Si3 2.573846 1_455
Fe29 Tm1 3.116970 1_554
Fe29 Tm2 3.117654 1_555
Fe29 Tm0 3.232437 1_445
Si0 Si3 2.459235 1_555
Si0 Tm2 2.937363 1_555
Si1 Si2 2.459235 1_555
Si1 Tm3 2.937363 1_555
Si2 Tm3 2.937363 1_455
Si3 Tm2 2.937363 1_655
