# generated using pymatgen
data_Li9Mn2Co5O16
_symmetry_space_group_name_H-M   'P 1'
_cell_length_a   5.11632300
_cell_length_b   7.64613856
_cell_length_c   7.82169062
_cell_angle_alpha   97.97207279
_cell_angle_beta   101.73332476
_cell_angle_gamma   103.21506005
_symmetry_Int_Tables_number   1
_chemical_formula_structural   Li9Mn2Co5O16
_chemical_formula_sum   'Li9 Mn2 Co5 O16'
_cell_volume   286.10126319
_cell_formula_units_Z   1
loop_
 _symmetry_equiv_pos_site_id
 _symmetry_equiv_pos_as_xyz
  1  'x, y, z'
loop_
 _atom_site_type_symbol
 _atom_site_label
 _atom_site_symmetry_multiplicity
 _atom_site_fract_x
 _atom_site_fract_y
 _atom_site_fract_z
 _atom_site_occupancy
  Li  Li0  1  0.49576400  0.12109200  0.86828900  1
  Li  Li1  1  0.49692800  0.99322200  0.50765800  1
  Li  Li2  1  0.50040700  0.37708800  0.62687100  1
  Li  Li3  1  0.50215200  0.25405000  0.25011600  1
  Li  Li4  1  0.50814700  0.62763300  0.38178100  1
  Li  Li5  1  0.50239600  0.50538100  0.00246000  1
  Li  Li6  1  0.49791500  0.87329300  0.12450900  1
  Li  Li7  1  0.49761700  0.74848300  0.74101500  1
  Li  Li8  1  0.00301900  0.87196700  0.62327300  1
  Mn  Mn0  1  0.99658500  0.99749000  0.99550200  1
  Mn  Mn1  1  0.00887700  0.24899100  0.74930600  1
  Co  Co0  1  0.99777700  0.74923100  0.25726600  1
  Co  Co1  1  0.99850100  0.62764700  0.86734400  1
  Co  Co2  1  0.00137200  0.50364100  0.50369900  1
  Co  Co3  1  0.99547400  0.38091000  0.12661400  1
  Co  Co4  1  0.00227800  0.12089200  0.38142900  1
  O  O0  1  0.77974900  0.13000400  0.11961000  1
  O  O1  1  0.77734800  0.01251700  0.76496300  1
  O  O2  1  0.78289900  0.37739200  0.87261100  1
  O  O3  1  0.78124500  0.25626600  0.52123700  1
  O  O4  1  0.77761300  0.61300000  0.62240400  1
  O  O5  1  0.75203400  0.50083000  0.24462600  1
  O  O6  1  0.76798200  0.88531100  0.36683100  1
  O  O7  1  0.76446200  0.76337100  0.99739400  1
  O  O8  1  0.23155400  0.13418700  0.62662300  1
  O  O9  1  0.22538900  0.00216600  0.23343200  1
  O  O10  1  0.21117100  0.37255100  0.37660600  1
  O  O11  1  0.22480000  0.23740300  0.98504400  1
  O  O12  1  0.22312600  0.61715500  0.12620800  1
  O  O13  1  0.24226100  0.48921900  0.75839700  1
  O  O14  1  0.22337600  0.87071600  0.88649700  1
  O  O15  1  0.22978300  0.73690000  0.49038300  1
loop_
_geom_bond_atom_site_label_1
_geom_bond_atom_site_label_2
_geom_bond_distance
_geom_bond_site_symmetry_2
Li0 O1 2.062082 1_555
Li0 O11 2.097656 1_555
Li0 O8 2.117897 1_555
Li0 O14 2.136342 1_545
Li0 O2 2.155203 1_555
Li0 O0 2.176204 1_556
Li1 O15 2.086666 1_555
Li1 O6 2.170178 1_555
Li1 O3 2.170888 1_565
Li1 O8 2.185354 1_565
Li1 O1 2.185653 1_565
Li1 O9 2.325422 1_565
Li2 O4 2.033327 1_555
Li2 O8 2.042392 1_555
Li2 O13 2.088904 1_555
Li2 O3 2.116294 1_555
Li2 O2 2.156568 1_555
Li2 O10 2.191442 1_555
Li3 O5 2.034361 1_555
Li3 O9 2.083170 1_555
Li3 O0 2.212640 1_555
Li3 O11 2.230713 1_554
Li3 O10 2.232341 1_555
Li3 O3 2.298634 1_555
Li4 O15 2.070540 1_555
Li4 O5 2.111157 1_555
Li4 O4 2.128166 1_555
Li4 O6 2.142991 1_555
Li4 O10 2.170822 1_555
Li4 O12 2.201261 1_555
Li5 O13 2.063225 1_554
Li5 O5 2.067602 1_555
Li5 O7 2.127112 1_554
Li5 O12 2.144807 1_555
Li5 O11 2.178865 1_554
Li5 O2 2.237884 1_554
Li6 O6 2.082926 1_555
Li6 O14 2.086331 1_554
Li6 O7 2.097251 1_554
Li6 O9 2.125897 1_565
Li6 O12 2.137350 1_555
Li6 O0 2.163963 1_565
Li7 O15 2.128955 1_555
Li7 O13 2.148957 1_555
Li7 O1 2.150382 1_565
Li7 O7 2.156463 1_555
Li7 O4 2.222273 1_555
Li7 O14 2.256323 1_555
Li8 O4 2.049348 1_455
Li8 O15 2.057561 1_555
Li8 O8 2.070958 1_565
Li8 O1 2.115097 1_465
Li8 O14 2.139249 1_555
Li8 O6 2.147465 1_455
Mn0 O7 1.912488 1_555
Mn0 O14 1.923613 1_655
Mn0 O1 1.953636 1_565
Mn0 O11 1.958634 1_665
Mn0 O0 1.969476 1_566
Mn0 O9 1.977725 1_666
Mn1 O8 1.912478 1_555
Mn1 O13 1.931629 1_555
Mn1 O3 1.937495 1_455
Mn1 O1 1.956689 1_455
Mn1 O11 1.972242 1_555
Mn1 O2 1.985106 1_455
Co0 O6 1.980172 1_555
Co0 O15 1.990264 1_655
Co0 O5 2.000871 1_555
Co0 O12 2.031223 1_655
Co0 O9 2.071167 1_665
Co0 O7 2.168267 1_554
Co1 O14 1.917118 1_655
Co1 O2 1.988772 1_555
Co1 O4 1.990533 1_555
Co1 O13 2.046325 1_655
Co1 O7 2.077550 1_555
Co1 O12 2.137207 1_656
Co2 O4 1.877901 1_455
Co2 O15 1.924989 1_555
Co2 O10 1.947966 1_555
Co2 O3 2.006415 1_455
Co2 O13 2.150430 1_555
Co2 O5 2.158267 1_455
Co3 O12 1.913301 1_655
Co3 O0 1.969727 1_555
Co3 O5 1.999769 1_555
Co3 O2 2.055163 1_554
Co3 O10 2.057831 1_655
Co3 O11 2.141688 1_654
Co4 O6 1.895961 1_445
Co4 O10 1.985587 1_555
Co4 O8 2.010192 1_555
Co4 O9 2.046185 1_555
Co4 O3 2.066470 1_455
Co4 O0 2.149984 1_455
