# generated using pymatgen
data_Ba4Y2Cu6NiO15
_symmetry_space_group_name_H-M   'P 1'
_cell_length_a   3.88516201
_cell_length_b   7.83704601
_cell_length_c   25.80475371
_cell_angle_alpha   81.26340035
_cell_angle_beta   85.68065369
_cell_angle_gamma   89.99324522
_symmetry_Int_Tables_number   1
_chemical_formula_structural   Ba4Y2Cu6NiO15
_chemical_formula_sum   'Ba8 Y4 Cu12 Ni2 O30'
_cell_volume   774.33480634
_cell_formula_units_Z   2
loop_
 _symmetry_equiv_pos_site_id
 _symmetry_equiv_pos_as_xyz
  1  'x, y, z'
loop_
 _atom_site_type_symbol
 _atom_site_label
 _atom_site_symmetry_multiplicity
 _atom_site_fract_x
 _atom_site_fract_y
 _atom_site_fract_z
 _atom_site_occupancy
  Ba  Ba0  1  0.31182800  0.06192300  0.37634500  1
  Ba  Ba1  1  0.31183000  0.56173800  0.37634500  1
  Ba  Ba2  1  0.68841800  0.93845800  0.62311800  1
  Ba  Ba3  1  0.68841800  0.43838600  0.62311900  1
  Ba  Ba4  1  0.45819800  0.20810700  0.08368200  1
  Ba  Ba5  1  0.45819900  0.70821700  0.08368200  1
  Ba  Ba6  1  0.54210100  0.79210400  0.91580200  1
  Ba  Ba7  1  0.54209800  0.29209200  0.91580200  1
  Y  Y0  1  0.38476500  0.13477900  0.23049000  1
  Y  Y1  1  0.38476400  0.63473300  0.23049000  1
  Y  Y2  1  0.61589200  0.86591000  0.76821100  1
  Y  Y3  1  0.61589300  0.36585800  0.76821100  1
  Cu  Cu0  1  0.22901300  0.22907700  0.54181700  1
  Cu  Cu1  1  0.22900900  0.72907400  0.54182600  1
  Cu  Cu2  1  0.99999300  0.99999300  0.00001300  1
  Cu  Cu3  1  0.91841500  0.41839900  0.16328300  1
  Cu  Cu4  1  0.91843300  0.91842600  0.16322600  1
  Cu  Cu5  1  0.08142800  0.08142500  0.83705200  1
  Cu  Cu6  1  0.08141100  0.58140700  0.83709800  1
  Cu  Cu7  1  0.77017500  0.27013300  0.45982000  1
  Cu  Cu8  1  0.77018000  0.77013900  0.45980600  1
  Cu  Cu9  1  0.99997400  0.49998000  0.00003900  1
  Cu  Cu10  1  0.85127900  0.35133500  0.29736800  1
  Cu  Cu11  1  0.85128200  0.85134200  0.29735500  1
  Ni  Ni0  1  0.15124700  0.15124500  0.69746500  1
  Ni  Ni1  1  0.15125000  0.65125200  0.69745500  1
  O  O0  1  0.85576000  0.10566500  0.28837200  1
  O  O1  1  0.85576200  0.60600700  0.28837200  1
  O  O2  1  0.14419600  0.89408600  0.71173600  1
  O  O3  1  0.14419600  0.39412300  0.71173500  1
  O  O4  1  0.26625100  0.26622600  0.46756400  1
  O  O5  1  0.26624300  0.76621800  0.46758000  1
  O  O6  1  0.73279400  0.23283300  0.53433700  1
  O  O7  1  0.73279900  0.73284000  0.53432600  1
  O  O8  1  0.80646300  0.30639700  0.38725100  1
  O  O9  1  0.80646300  0.80639700  0.38725200  1
  O  O10  1  0.19212300  0.19218500  0.61561300  1
  O  O11  1  0.19213100  0.69219400  0.61559600  1
  O  O12  1  0.96306800  0.46305000  0.07384000  1
  O  O13  1  0.96307200  0.96305100  0.07383400  1
  O  O14  1  0.03684800  0.03685600  0.92633600  1
  O  O15  1  0.03685100  0.53686200  0.92632900  1
  O  O16  1  0.35658100  0.35666800  0.28671500  1
  O  O17  1  0.35658200  0.85667000  0.28671000  1
  O  O18  1  0.64340500  0.14333600  0.71327000  1
  O  O19  1  0.64340300  0.64333700  0.71327100  1
  O  O20  1  0.41274900  0.41267900  0.17459300  1
  O  O21  1  0.41275000  0.91268400  0.17458200  1
  O  O22  1  0.58713600  0.08720100  0.82565500  1
  O  O23  1  0.58712500  0.58718900  0.82568000  1
  O  O24  1  0.91230200  0.16237300  0.17549100  1
  O  O25  1  0.91230400  0.66212000  0.17549000  1
  O  O26  1  0.08762400  0.83765500  0.82468300  1
  O  O27  1  0.08762100  0.33766400  0.82468200  1
  O  O28  1  0.99995100  0.24996200  0.00009400  1
  O  O29  1  0.99995000  0.74994100  0.00009500  1
loop_
_geom_bond_atom_site_label_1
_geom_bond_atom_site_label_2
_geom_bond_distance
_geom_bond_site_symmetry_2
Ba0 O8 2.772147 1_455
Ba0 O8 2.772957 1_555
Ba0 O9 2.773265 1_445
Ba0 O9 2.773430 1_545
Ba0 O0 2.962766 1_555
Ba0 O0 2.963096 1_455
Ba0 O16 3.005320 1_555
Ba0 O17 3.006226 1_545
Ba0 O4 3.036087 1_555
Ba0 O5 3.037190 1_545
Ba1 O8 2.772248 1_455
Ba1 O8 2.772400 1_555
Ba1 O9 2.773181 1_455
Ba1 O9 2.773982 1_555
Ba1 O1 2.962767 1_555
Ba1 O1 2.963096 1_455
Ba1 O16 3.005182 1_555
Ba1 O17 3.006359 1_555
Ba1 O4 3.035943 1_555
Ba1 O5 3.037333 1_555
Ba2 O10 2.765462 1_565
Ba2 O11 2.765515 1_655
Ba2 O10 2.765523 1_665
Ba2 O11 2.766107 1_555
Ba2 O2 2.975089 1_555
Ba2 O2 2.975583 1_655
Ba2 O6 2.989257 1_565
Ba2 O7 2.989712 1_555
Ba2 O18 3.015615 1_565
Ba2 O19 3.016003 1_555
Ba3 O10 2.765093 1_655
Ba3 O10 2.765684 1_555
Ba3 O11 2.765896 1_555
Ba3 O11 2.765951 1_655
Ba3 O3 2.975053 1_555
Ba3 O3 2.975542 1_655
Ba3 O6 2.989160 1_555
Ba3 O7 2.989863 1_555
Ba3 O18 3.015608 1_555
Ba3 O19 3.015987 1_555
Ba4 O13 2.769981 1_545
Ba4 O12 2.770471 1_455
Ba4 O12 2.770511 1_555
Ba4 O13 2.770584 1_445
Ba4 O28 2.879522 1_555
Ba4 O28 2.879788 1_455
Ba4 O21 3.030106 1_545
Ba4 O20 3.030689 1_555
Ba4 O24 3.037218 1_455
Ba4 O24 3.037314 1_555
Ba5 O13 2.769864 1_455
Ba5 O13 2.769904 1_555
Ba5 O12 2.770561 1_555
Ba5 O12 2.771174 1_455
Ba5 O29 2.879499 1_555
Ba5 O29 2.879773 1_455
Ba5 O21 3.029915 1_555
Ba5 O20 3.030875 1_555
Ba5 O25 3.037198 1_455
Ba5 O25 3.037295 1_555
Ba6 O15 2.771756 1_655
Ba6 O14 2.771927 1_565
Ba6 O15 2.771999 1_555
Ba6 O14 2.772334 1_665
Ba6 O29 2.892902 1_456
Ba6 O29 2.892929 1_556
Ba6 O23 3.015147 1_555
Ba6 O22 3.015780 1_565
Ba6 O26 3.023680 1_655
Ba6 O26 3.023915 1_555
Ba7 O14 2.771730 1_655
Ba7 O14 2.771954 1_555
Ba7 O15 2.771984 1_555
Ba7 O15 2.772404 1_655
Ba7 O28 2.892874 1_456
Ba7 O28 2.892920 1_556
Ba7 O23 3.015360 1_555
Ba7 O22 3.015572 1_555
Ba7 O27 3.023698 1_655
Ba7 O27 3.023936 1_555
Cu0 O10 1.876723 1_555
Cu0 O4 1.888345 1_555
Cu0 O6 1.951717 1_455
Cu0 O6 1.952028 1_555
Cu1 O11 1.876061 1_555
Cu1 O5 1.888167 1_555
Cu1 O7 1.951771 1_455
Cu1 O7 1.952074 1_555
Cu2 O14 1.873696 1_664
Cu2 O13 1.877358 1_555
Cu2 O28 1.959337 1_565
Cu2 O29 1.959349 1_555
Cu3 O20 1.963722 1_655
Cu3 O20 1.963797 1_555
Cu3 O25 1.982354 1_555
Cu3 O24 1.983094 1_555
Cu3 O12 2.274645 1_555
Cu4 O21 1.963917 1_655
Cu4 O21 1.963945 1_555
Cu4 O24 1.984559 1_565
Cu4 O25 1.985268 1_555
Cu4 O13 2.273348 1_555
Cu5 O22 1.964053 1_455
Cu5 O22 1.964116 1_555
Cu5 O26 1.984010 1_545
Cu5 O27 1.984764 1_555
Cu5 O14 2.270601 1_555
Cu6 O23 1.964149 1_455
Cu6 O23 1.964178 1_555
Cu6 O27 1.984172 1_555
Cu6 O26 1.984841 1_555
Cu6 O15 2.269254 1_555
Cu7 O8 1.845518 1_555
Cu7 O6 1.895059 1_555
Cu7 O4 1.952341 1_655
Cu7 O4 1.952736 1_555
Cu8 O9 1.845137 1_555
Cu8 O7 1.895135 1_555
Cu8 O5 1.952426 1_655
Cu8 O5 1.952805 1_555
Cu9 O15 1.874535 1_654
Cu9 O12 1.876850 1_555
Cu9 O29 1.959176 1_555
Cu9 O28 1.959188 1_555
Cu10 O16 1.961283 1_655
Cu10 O16 1.961481 1_555
Cu10 O0 1.973888 1_555
Cu10 O1 1.973921 1_555
Cu10 O8 2.285835 1_555
Cu11 O17 1.961262 1_655
Cu11 O17 1.961445 1_555
Cu11 O1 1.971192 1_555
Cu11 O0 1.971216 1_565
Cu11 O9 2.286191 1_555
Ni0 O18 1.983491 1_455
Ni0 O18 1.983965 1_555
Ni0 O3 1.992699 1_555
Ni0 O2 1.992762 1_545
Ni0 O10 2.081597 1_555
Ni1 O19 1.983546 1_455
Ni1 O19 1.984024 1_555
Ni1 O2 1.992453 1_555
Ni1 O3 1.992538 1_555
Ni1 O11 2.081775 1_555
O0 Y0 2.437124 1_555
O0 Y0 2.437478 1_655
O1 Y1 2.437133 1_555
O1 Y1 2.437469 1_655
O2 Y2 2.415672 1_555
O2 Y2 2.416046 1_455
O3 Y3 2.415691 1_555
O3 Y3 2.416056 1_455
O16 Y1 2.425202 1_555
O16 Y0 2.425584 1_555
O17 Y0 2.425421 1_565
O17 Y1 2.425797 1_555
O18 Y2 2.406114 1_545
O18 Y3 2.406421 1_555
O19 Y3 2.406441 1_555
O19 Y2 2.406728 1_555
O20 Y0 2.420287 1_555
O20 Y1 2.420682 1_555
O21 Y1 2.420740 1_555
O21 Y0 2.421141 1_565
O22 Y3 2.443497 1_555
O22 Y2 2.444060 1_545
O23 Y2 2.444200 1_555
O23 Y3 2.444769 1_555
O24 Y0 2.393635 1_655
O24 Y0 2.393832 1_555
O25 Y1 2.393643 1_655
O25 Y1 2.393854 1_555
O26 Y2 2.415734 1_455
O26 Y2 2.415893 1_555
O27 Y3 2.415705 1_455
O27 Y3 2.415892 1_555
