# generated using pymatgen
data_NaTb3
_symmetry_space_group_name_H-M   'P 1'
_cell_length_a   7.23015843
_cell_length_b   7.23015843
_cell_length_c   5.77053400
_cell_angle_alpha   90.00000000
_cell_angle_beta   90.00000000
_cell_angle_gamma   120.00000395
_symmetry_Int_Tables_number   1
_chemical_formula_structural   NaTb3
_chemical_formula_sum   'Na2 Tb6'
_cell_volume   261.24154678
_cell_formula_units_Z   2
loop_
 _symmetry_equiv_pos_site_id
 _symmetry_equiv_pos_as_xyz
  1  'x, y, z'
loop_
 _atom_site_type_symbol
 _atom_site_label
 _atom_site_symmetry_multiplicity
 _atom_site_fract_x
 _atom_site_fract_y
 _atom_site_fract_z
 _atom_site_occupancy
  Na  Na0  1  0.33333300  0.66666700  0.75000000  1
  Na  Na1  1  0.66666700  0.33333300  0.25000000  1
  Tb  Tb0  1  0.32818700  0.16409400  0.75000000  1
  Tb  Tb1  1  0.83590600  0.16409400  0.75000000  1
  Tb  Tb2  1  0.16409400  0.83590600  0.25000000  1
  Tb  Tb3  1  0.83590600  0.67181300  0.75000000  1
  Tb  Tb4  1  0.16409400  0.32818700  0.25000000  1
  Tb  Tb5  1  0.67181300  0.83590600  0.25000000  1
loop_
_geom_bond_atom_site_label_1
_geom_bond_atom_site_label_2
_geom_bond_distance
_geom_bond_site_symmetry_2
Na0 Tb2 3.580019 1_555
Na0 Tb2 3.580019 1_556
Na0 Tb5 3.580027 1_555
Na0 Tb4 3.580027 1_556
Na0 Tb4 3.580027 1_555
Na0 Tb5 3.580027 1_556
Na0 Tb1 3.615223 1_565
Na0 Tb1 3.615223 1_455
Na0 Tb3 3.615223 1_555
Na0 Tb0 3.615223 1_555
Na0 Tb0 3.615223 1_565
Na0 Tb3 3.615223 1_455
Na1 Tb1 3.580019 1_554
Na1 Tb1 3.580019 1_555
Na1 Tb3 3.580027 1_555
Na1 Tb0 3.580027 1_555
Na1 Tb0 3.580027 1_554
Na1 Tb3 3.580027 1_554
Na1 Tb2 3.615223 1_655
Na1 Tb2 3.615223 1_545
Na1 Tb5 3.615223 1_555
Na1 Tb4 3.615223 1_555
Na1 Tb4 3.615223 1_655
Na1 Tb5 3.615223 1_545
Tb0 Tb4 3.542250 1_556
Tb0 Tb4 3.542250 1_555
Tb0 Tb2 3.542257 1_545
Tb0 Tb2 3.542257 1_546
Tb0 Tb3 3.559269 1_445
Tb0 Tb1 3.559270 1_455
Tb0 Tb3 3.670889 1_555
Tb0 Tb1 3.670889 1_555
Tb1 Tb5 3.542257 1_546
Tb1 Tb4 3.542257 1_655
Tb1 Tb4 3.542257 1_656
Tb1 Tb5 3.542257 1_545
Tb1 Tb3 3.559270 1_545
Tb1 Tb3 3.670889 1_555
Tb2 Tb3 3.542257 1_455
Tb2 Tb3 3.542257 1_454
Tb2 Tb5 3.559270 1_455
Tb2 Tb4 3.559270 1_565
Tb2 Tb4 3.670889 1_555
Tb2 Tb5 3.670889 1_555
Tb3 Tb5 3.542250 1_556
Tb3 Tb5 3.542250 1_555
Tb4 Tb5 3.559269 1_445
Tb4 Tb5 3.670889 1_555
