# generated using pymatgen
data_Ba3CaLa2(Cu3O7)2
_symmetry_space_group_name_H-M   'P 1'
_cell_length_a   5.50006966
_cell_length_b   5.50006966
_cell_length_c   11.71695500
_cell_angle_alpha   90.00000000
_cell_angle_beta   90.00000000
_cell_angle_gamma   91.21761492
_symmetry_Int_Tables_number   1
_chemical_formula_structural   Ba3CaLa2(Cu3O7)2
_chemical_formula_sum   'Ba3 Ca1 La2 Cu6 O14'
_cell_volume   354.36683151
_cell_formula_units_Z   1
loop_
 _symmetry_equiv_pos_site_id
 _symmetry_equiv_pos_as_xyz
  1  'x, y, z'
loop_
 _atom_site_type_symbol
 _atom_site_label
 _atom_site_symmetry_multiplicity
 _atom_site_fract_x
 _atom_site_fract_y
 _atom_site_fract_z
 _atom_site_occupancy
  Ba  Ba0  1  0.00000000  0.00000000  0.18395500  1
  Ba  Ba1  1  0.50000000  0.50000000  0.18294700  1
  Ba  Ba2  1  0.00000000  0.00000000  0.82008500  1
  Ca  Ca0  1  0.50000000  0.50000000  0.49884000  1
  La  La0  1  0.50000000  0.50000000  0.80539600  1
  La  La1  1  0.00000000  0.00000000  0.50348600  1
  Cu  Cu0  1  0.00000000  0.50000000  0.35117100  1
  Cu  Cu1  1  0.50000000  0.00000000  0.35117100  1
  Cu  Cu2  1  0.00000000  0.50000000  0.65200500  1
  Cu  Cu3  1  0.50000000  0.00000000  0.65200500  1
  Cu  Cu4  1  0.00000000  0.50000000  0.99735200  1
  Cu  Cu5  1  0.50000000  0.00000000  0.99735200  1
  O  O0  1  0.00000000  0.50000000  0.15575800  1
  O  O1  1  0.50000000  0.00000000  0.15575800  1
  O  O2  1  0.00000000  0.50000000  0.83707200  1
  O  O3  1  0.50000000  0.00000000  0.83707200  1
  O  O4  1  0.75112000  0.75112000  0.37074300  1
  O  O5  1  0.24888000  0.24888000  0.37074300  1
  O  O6  1  0.24884400  0.75115600  0.37456100  1
  O  O7  1  0.75115600  0.24884400  0.37456100  1
  O  O8  1  0.74117500  0.74117500  0.64087500  1
  O  O9  1  0.25882500  0.25882500  0.64087500  1
  O  O10  1  0.25800600  0.74199400  0.64161500  1
  O  O11  1  0.74199400  0.25800600  0.64161500  1
  O  O12  1  0.71833500  0.71833500  0.98149400  1
  O  O13  1  0.28166500  0.28166500  0.98149400  1
loop_
_geom_bond_atom_site_label_1
_geom_bond_atom_site_label_2
_geom_bond_distance
_geom_bond_site_symmetry_2
Ba0 O0 2.769809 1_555
Ba0 O1 2.769809 1_555
Ba0 O0 2.769809 1_545
Ba0 O1 2.769809 1_455
Ba0 O4 2.908233 1_445
Ba0 O5 2.908233 1_555
Ba0 O7 2.968804 1_455
Ba0 O6 2.968804 1_545
Ba0 O13 3.213310 1_554
Ba0 O12 3.213310 1_444
Ba1 O1 2.768426 1_565
Ba1 O0 2.768426 1_555
Ba1 O0 2.768426 1_655
Ba1 O1 2.768426 1_555
Ba1 O13 2.897308 1_554
Ba1 O12 2.897308 1_554
Ba1 O4 2.928477 1_555
Ba1 O5 2.928477 1_555
Ba1 O6 2.989668 1_555
Ba1 O7 2.989668 1_555
Ba2 O3 2.757228 1_555
Ba2 O2 2.757228 1_545
Ba2 O2 2.757228 1_555
Ba2 O3 2.757228 1_455
Ba2 O13 2.876564 1_555
Ba2 O12 2.876564 1_445
Ba2 O8 2.894138 1_445
Ba2 O9 2.894138 1_555
Ba2 O11 2.913039 1_455
Ba2 O10 2.913039 1_545
Ca0 O4 2.446824 1_555
Ca0 O5 2.446824 1_555
Ca0 O6 2.453147 1_555
Ca0 O7 2.453147 1_555
Ca0 O9 2.492777 1_555
Ca0 O8 2.492777 1_555
Ca0 O10 2.533156 1_555
Ca0 O11 2.533156 1_555
La0 O12 2.660859 1_555
La0 O13 2.660859 1_555
La0 O9 2.675871 1_555
La0 O8 2.675871 1_555
La0 O10 2.702026 1_555
La0 O11 2.702026 1_555
La0 O2 2.774967 1_655
La0 O3 2.774967 1_565
La0 O2 2.774967 1_555
La0 O3 2.774967 1_555
La1 O4 2.467185 1_445
La1 O5 2.467185 1_555
La1 O6 2.471438 1_545
La1 O7 2.471438 1_455
La1 O9 2.560916 1_555
La1 O8 2.560916 1_445
La1 O11 2.594683 1_455
La1 O10 2.594683 1_545
Cu0 O7 1.943241 1_455
Cu0 O6 1.943241 1_555
Cu0 O5 1.978475 1_555
Cu0 O4 1.978475 1_455
Cu0 O0 2.289645 1_555
Cu1 O6 1.943241 1_545
Cu1 O7 1.943241 1_555
Cu1 O4 1.978475 1_545
Cu1 O5 1.978475 1_555
Cu1 O1 2.289645 1_555
Cu2 O11 1.928671 1_455
Cu2 O10 1.928671 1_555
Cu2 O9 1.970613 1_555
Cu2 O8 1.970613 1_455
Cu2 O2 2.168422 1_555
Cu3 O10 1.928671 1_545
Cu3 O11 1.928671 1_555
Cu3 O9 1.970613 1_555
Cu3 O8 1.970613 1_545
Cu3 O3 2.168422 1_555
Cu4 O0 1.856036 1_556
Cu4 O2 1.877994 1_555
Cu4 O12 1.988868 1_455
Cu4 O13 1.988868 1_555
Cu5 O1 1.856036 1_556
Cu5 O3 1.877994 1_555
Cu5 O12 1.988868 1_545
Cu5 O13 1.988868 1_555
