# generated using pymatgen
data_Rb3NpO9
_symmetry_space_group_name_H-M   'P 1'
_cell_length_a   7.65247519
_cell_length_b   8.18969458
_cell_length_c   8.18969458
_cell_angle_alpha   87.61416821
_cell_angle_beta   88.31226268
_cell_angle_gamma   88.31226268
_symmetry_Int_Tables_number   1
_chemical_formula_structural   Rb3NpO9
_chemical_formula_sum   'Rb6 Np2 O18'
_cell_volume   512.38775586
_cell_formula_units_Z   2
loop_
 _symmetry_equiv_pos_site_id
 _symmetry_equiv_pos_as_xyz
  1  'x, y, z'
loop_
 _atom_site_type_symbol
 _atom_site_label
 _atom_site_symmetry_multiplicity
 _atom_site_fract_x
 _atom_site_fract_y
 _atom_site_fract_z
 _atom_site_occupancy
  Rb  Rb0  1  0.54671200  0.75866800  0.57671900  1
  Rb  Rb1  1  0.45328800  0.24133300  0.42328100  1
  Rb  Rb2  1  0.95328800  0.42328100  0.24133300  1
  Rb  Rb3  1  0.04671200  0.57671900  0.75866800  1
  Rb  Rb4  1  0.25000000  0.03033300  0.96966700  1
  Rb  Rb5  1  0.75000000  0.96966700  0.03033300  1
  Np  Np0  1  0.00000000  0.00000000  0.50000000  1
  Np  Np1  1  0.50000000  0.50000000  0.00000000  1
  O  O0  1  0.25000000  0.54170200  0.45829800  1
  O  O1  1  0.75000000  0.45829800  0.54170200  1
  O  O2  1  0.53465500  0.18753800  0.76402900  1
  O  O3  1  0.46534500  0.81246200  0.23597100  1
  O  O4  1  0.96534500  0.23597100  0.81246200  1
  O  O5  1  0.03465500  0.76402900  0.18753800  1
  O  O6  1  0.11101100  0.11306800  0.32025900  1
  O  O7  1  0.88898900  0.88693200  0.67974100  1
  O  O8  1  0.38898900  0.67974100  0.88693200  1
  O  O9  1  0.61101100  0.32025900  0.11306800  1
  O  O10  1  0.93759000  0.25035600  0.65621100  1
  O  O11  1  0.06241000  0.74964400  0.34378900  1
  O  O12  1  0.56241000  0.34378900  0.74964400  1
  O  O13  1  0.43759000  0.65621100  0.25035600  1
  O  O14  1  0.21595800  0.97883400  0.60483300  1
  O  O15  1  0.78404200  0.02116600  0.39516700  1
  O  O16  1  0.28404200  0.39516700  0.02116600  1
  O  O17  1  0.71595800  0.60483300  0.97883400  1
loop_
_geom_bond_atom_site_label_1
_geom_bond_atom_site_label_2
_geom_bond_distance
_geom_bond_site_symmetry_2
Np0 O15 1.884834 1_455
Np0 O14 1.884834 1_545
Np0 O7 1.898729 1_445
Np0 O6 1.898729 1_555
Np0 O10 2.488646 1_455
Np0 O11 2.488646 1_545
Np1 O17 1.884834 1_554
Np1 O16 1.884834 1_555
Np1 O9 1.898729 1_555
Np1 O8 1.898729 1_554
Np1 O12 2.488646 1_554
Np1 O13 2.488646 1_555
O0 Rb1 2.891471 1_555
O0 Rb3 2.891478 1_555
O0 Rb2 3.124779 1_455
O0 Rb0 3.124784 1_555
O1 Rb2 2.891471 1_555
O1 Rb0 2.891478 1_555
O1 Rb1 3.124779 1_555
O1 Rb3 3.124784 1_655
O2 Rb1 2.890191 1_555
O2 Rb4 3.001238 1_555
O2 Rb5 3.220312 1_546
O3 Rb0 2.890191 1_555
O3 Rb5 3.001238 1_555
O3 Rb4 3.220312 1_564
O4 Rb3 2.890191 1_655
O4 Rb4 3.001238 1_655
O4 Rb5 3.220312 1_546
O5 Rb2 2.890191 1_455
O5 Rb5 3.001238 1_455
O5 Rb4 3.220312 1_564
O6 Rb2 2.838589 1_455
O6 Rb1 3.006975 1_555
O6 Rb4 3.126346 1_554
O7 Rb3 2.838591 1_655
O7 Rb0 3.006972 1_555
O7 Rb5 3.126346 1_556
O8 Rb0 2.838591 1_555
O8 Rb3 3.006972 1_555
O8 Rb4 3.126346 1_565
O9 Rb1 2.838589 1_555
O9 Rb2 3.006975 1_555
O9 Rb5 3.126346 1_545
O10 O4 1.303255 1_555
O10 Rb3 2.984089 1_655
O11 O5 1.303255 1_555
O11 Rb2 2.984087 1_455
O12 O2 1.303255 1_555
O12 Rb1 2.984087 1_555
O13 O3 1.303255 1_555
O13 Rb0 2.984089 1_555
O14 Rb4 3.054571 1_565
O14 Rb0 3.072778 1_555
O14 Rb1 3.152073 1_565
O15 Rb5 3.054571 1_545
O15 Rb1 3.072782 1_555
O15 Rb0 3.152067 1_545
O16 Rb4 3.054571 1_554
O16 Rb2 3.072782 1_455
O16 Rb3 3.152067 1_554
O17 Rb5 3.054571 1_556
O17 Rb3 3.072778 1_655
O17 Rb2 3.152073 1_556
