# generated using pymatgen
data_BaCaEuBiO6
_symmetry_space_group_name_H-M   'P 1'
_cell_length_a   8.58862246
_cell_length_b   8.55031220
_cell_length_c   8.56664513
_cell_angle_alpha   90.00000000
_cell_angle_beta   90.00000000
_cell_angle_gamma   90.00000000
_symmetry_Int_Tables_number   1
_chemical_formula_structural   BaCaEuBiO6
_chemical_formula_sum   'Ba4 Ca4 Eu4 Bi4 O24'
_cell_volume   629.09504091
_cell_formula_units_Z   4
loop_
 _symmetry_equiv_pos_site_id
 _symmetry_equiv_pos_as_xyz
  1  'x, y, z'
loop_
 _atom_site_type_symbol
 _atom_site_label
 _atom_site_symmetry_multiplicity
 _atom_site_fract_x
 _atom_site_fract_y
 _atom_site_fract_z
 _atom_site_occupancy
  Ba  Ba0  1  -0.00000000  0.00000000  0.00000000  1
  Ba  Ba1  1  0.50000000  0.50000000  0.50000000  1
  Ba  Ba2  1  0.50000000  0.00000000  0.50000000  1
  Ba  Ba3  1  -0.00000000  0.50000000  0.00000000  1
  Ca  Ca0  1  0.25000000  0.25000000  0.25000000  1
  Ca  Ca1  1  0.75000000  0.75000000  0.25000000  1
  Ca  Ca2  1  0.75000000  0.25000000  0.75000000  1
  Ca  Ca3  1  0.25000000  0.75000000  0.75000000  1
  Eu  Eu0  1  -0.00000000  0.50000000  0.50000000  1
  Eu  Eu1  1  0.50000000  0.50000000  0.00000000  1
  Eu  Eu2  1  0.50000000  0.00000000  0.00000000  1
  Eu  Eu3  1  -0.00000000  0.00000000  0.50000000  1
  Bi  Bi0  1  0.75000000  0.75000000  0.75000000  1
  Bi  Bi1  1  0.25000000  0.25000000  0.75000000  1
  Bi  Bi2  1  0.25000000  0.75000000  0.25000000  1
  Bi  Bi3  1  0.75000000  0.25000000  0.25000000  1
  O  O0  1  0.98941192  0.18658849  0.29238416  1
  O  O1  1  0.01058808  0.81341151  0.29238416  1
  O  O2  1  0.01058808  0.18658849  0.70761584  1
  O  O3  1  0.98941192  0.81341151  0.70761584  1
  O  O4  1  0.30918852  0.98926932  0.19946948  1
  O  O5  1  0.30918852  0.01073068  0.80053052  1
  O  O6  1  0.69081148  0.01073068  0.19946948  1
  O  O7  1  0.69081148  0.98926932  0.80053052  1
  O  O8  1  0.21720024  0.28429831  0.99139959  1
  O  O9  1  0.78279976  0.28429831  0.00860041  1
  O  O10  1  0.21720024  0.71570169  0.00860041  1
  O  O11  1  0.78279976  0.71570169  0.99139959  1
  O  O12  1  0.51058808  0.31341151  0.20761584  1
  O  O13  1  0.48941192  0.68658849  0.20761584  1
  O  O14  1  0.48941192  0.31341151  0.79238416  1
  O  O15  1  0.51058808  0.68658849  0.79238416  1
  O  O16  1  0.19081148  0.51073068  0.30053052  1
  O  O17  1  0.19081148  0.48926932  0.69946948  1
  O  O18  1  0.80918852  0.48926932  0.30053052  1
  O  O19  1  0.80918852  0.51073068  0.69946948  1
  O  O20  1  0.28279976  0.21570169  0.50860041  1
  O  O21  1  0.71720024  0.21570169  0.49139959  1
  O  O22  1  0.28279976  0.78429831  0.49139959  1
  O  O23  1  0.71720024  0.78429831  0.50860041  1
loop_
_geom_bond_atom_site_label_1
_geom_bond_atom_site_label_2
_geom_bond_distance
_geom_bond_site_symmetry_2
Ba0 O0 2.971080 1_455
Ba0 O2 2.971080 1_554
Ba0 O1 2.971080 1_545
Ba0 O3 2.971080 1_444
Ba0 O11 3.065015 1_444
Ba0 O10 3.065015 1_545
Ba0 O9 3.065015 1_455
Ba0 O8 3.065015 1_554
Ba0 O7 3.159123 1_444
Ba0 O5 3.159123 1_554
Ba0 O6 3.159123 1_455
Ba0 O4 3.159123 1_545
Ba1 O13 2.971080 1_555
Ba1 O12 2.971080 1_555
Ba1 O14 2.971080 1_555
Ba1 O15 2.971080 1_555
Ba1 O21 3.065015 1_555
Ba1 O22 3.065015 1_555
Ba1 O20 3.065015 1_555
Ba1 O23 3.065015 1_555
Ba1 O18 3.159123 1_555
Ba1 O19 3.159123 1_555
Ba1 O16 3.159123 1_555
Ba1 O17 3.159123 1_555
Ba2 O20 2.624279 1_555
Ba2 O22 2.624279 1_545
Ba2 O23 2.624279 1_545
Ba2 O21 2.624279 1_555
Ba2 O6 3.053253 1_555
Ba2 O5 3.053253 1_555
Ba2 O7 3.053253 1_545
Ba2 O4 3.053253 1_545
Ba3 O11 2.624279 1_454
Ba3 O9 2.624279 1_455
Ba3 O8 2.624279 1_554
Ba3 O10 2.624279 1_555
Ba3 O17 3.053253 1_554
Ba3 O18 3.053253 1_455
Ba3 O19 3.053253 1_454
Ba3 O16 3.053253 1_555
Ca0 O20 2.252350 1_555
Ca0 O8 2.252350 1_554
Ca0 O4 2.327167 1_545
Ca0 O16 2.327167 1_555
Ca0 O12 2.331279 1_555
Ca0 O0 2.331279 1_455
Ca1 O11 2.252350 1_554
Ca1 O23 2.252350 1_555
Ca1 O6 2.327167 1_565
Ca1 O18 2.327167 1_555
Ca1 O1 2.331279 1_655
Ca1 O13 2.331279 1_555
Ca2 O9 2.252350 1_556
Ca2 O21 2.252350 1_555
Ca2 O19 2.327167 1_555
Ca2 O7 2.327167 1_545
Ca2 O2 2.331279 1_655
Ca2 O14 2.331279 1_555
Ca3 O10 2.252350 1_556
Ca3 O22 2.252350 1_555
Ca3 O17 2.327167 1_555
Ca3 O5 2.327167 1_565
Ca3 O15 2.331279 1_555
Ca3 O3 2.331279 1_455
Eu0 O16 2.369399 1_555
Eu0 O18 2.369399 1_455
Eu0 O19 2.369399 1_455
Eu0 O17 2.369399 1_555
Eu1 O15 2.390994 1_554
Eu1 O12 2.390994 1_555
Eu1 O13 2.390994 1_555
Eu1 O14 2.390994 1_554
Eu1 O8 3.050622 1_554
Eu1 O10 3.050622 1_555
Eu1 O9 3.050622 1_555
Eu1 O11 3.050622 1_554
Eu2 O5 2.369399 1_554
Eu2 O6 2.369399 1_555
Eu2 O4 2.369399 1_545
Eu2 O7 2.369399 1_544
Eu3 O3 2.390994 1_445
Eu3 O1 2.390994 1_545
Eu3 O0 2.390994 1_455
Eu3 O2 2.390994 1_555
Eu3 O23 3.050622 1_445
Eu3 O22 3.050622 1_545
Eu3 O21 3.050622 1_455
Eu3 O20 3.050622 1_555
Bi0 O23 2.107586 1_555
Bi0 O11 2.107586 1_555
Bi0 O7 2.152025 1_555
Bi0 O19 2.152025 1_555
Bi0 O15 2.157275 1_555
Bi0 O3 2.157275 1_555
Bi1 O20 2.107586 1_555
Bi1 O8 2.107586 1_555
Bi1 O17 2.152025 1_555
Bi1 O5 2.152025 1_555
Bi1 O2 2.157275 1_555
Bi1 O14 2.157275 1_555
Bi2 O22 2.107586 1_555
Bi2 O10 2.107586 1_555
Bi2 O4 2.152025 1_555
Bi2 O16 2.152025 1_555
Bi2 O13 2.157275 1_555
Bi2 O1 2.157275 1_555
Bi3 O21 2.107586 1_555
Bi3 O9 2.107586 1_555
Bi3 O18 2.152025 1_555
Bi3 O6 2.152025 1_555
Bi3 O12 2.157275 1_555
Bi3 O0 2.157275 1_555
