# generated using pymatgen
data_ZrTiC2
_symmetry_space_group_name_H-M   'P 1'
_cell_length_a   3.22351000
_cell_length_b   3.22351000
_cell_length_c   4.53550600
_cell_angle_alpha   90.00000000
_cell_angle_beta   90.00000000
_cell_angle_gamma   90.00000000
_symmetry_Int_Tables_number   1
_chemical_formula_structural   ZrTiC2
_chemical_formula_sum   'Zr1 Ti1 C2'
_cell_volume   47.12851868
_cell_formula_units_Z   1
loop_
 _symmetry_equiv_pos_site_id
 _symmetry_equiv_pos_as_xyz
  1  'x, y, z'
loop_
 _atom_site_type_symbol
 _atom_site_label
 _atom_site_symmetry_multiplicity
 _atom_site_fract_x
 _atom_site_fract_y
 _atom_site_fract_z
 _atom_site_occupancy
  Zr  Zr0  1  0.50000000  0.50000000  0.00000000  1
  Ti  Ti0  1  0.00000000  0.00000000  0.50000000  1
  C  C0  1  0.00000000  0.00000000  0.00000000  1
  C  C1  1  0.50000000  0.50000000  0.50000000  1
loop_
_geom_bond_atom_site_label_1
_geom_bond_atom_site_label_2
_geom_bond_distance
_geom_bond_site_symmetry_2
C0 Ti0 2.267753 1_555
C0 Ti0 2.267753 1_554
C0 Zr0 2.279366 1_445
C0 Zr0 2.279366 1_545
C0 Zr0 2.279366 1_455
C0 Zr0 2.279366 1_555
C1 Zr0 2.267753 1_555
C1 Zr0 2.267753 1_556
C1 Ti0 2.279366 1_555
C1 Ti0 2.279366 1_565
C1 Ti0 2.279366 1_655
C1 Ti0 2.279366 1_665
