# generated using pymatgen
data_EuHfCrSnO6
_symmetry_space_group_name_H-M   'P 1'
_cell_length_a   8.78182393
_cell_length_b   8.65586945
_cell_length_c   8.67541243
_cell_angle_alpha   90.00000000
_cell_angle_beta   90.00000000
_cell_angle_gamma   90.00000000
_symmetry_Int_Tables_number   1
_chemical_formula_structural   EuHfCrSnO6
_chemical_formula_sum   'Eu4 Hf4 Cr4 Sn4 O24'
_cell_volume   659.45558935
_cell_formula_units_Z   4
loop_
 _symmetry_equiv_pos_site_id
 _symmetry_equiv_pos_as_xyz
  1  'x, y, z'
loop_
 _atom_site_type_symbol
 _atom_site_label
 _atom_site_symmetry_multiplicity
 _atom_site_fract_x
 _atom_site_fract_y
 _atom_site_fract_z
 _atom_site_occupancy
  Eu  Eu0  1  0.00000000  0.00000000  -0.00000000  1
  Eu  Eu1  1  0.50000000  0.50000000  0.50000000  1
  Eu  Eu2  1  0.00000000  0.50000000  0.50000000  1
  Eu  Eu3  1  0.50000000  0.50000000  0.00000000  1
  Hf  Hf0  1  0.25896614  0.24879993  0.24436947  1
  Hf  Hf1  1  0.74103386  0.75120007  0.24436947  1
  Hf  Hf2  1  0.74103386  0.24879993  0.75563053  1
  Hf  Hf3  1  0.25896614  0.75120007  0.75563053  1
  Cr  Cr0  1  0.74791518  0.75450708  0.74912223  1
  Cr  Cr1  1  0.25208482  0.24549292  0.74912223  1
  Cr  Cr2  1  0.25208482  0.75450708  0.25087777  1
  Cr  Cr3  1  0.74791518  0.24549292  0.25087777  1
  Sn  Sn0  1  0.50000000  0.00000000  0.50000000  1
  Sn  Sn1  1  0.50000000  0.00000000  -0.00000000  1
  Sn  Sn2  1  0.00000000  0.50000000  0.00000000  1
  Sn  Sn3  1  0.00000000  0.00000000  0.50000000  1
  O  O0  1  0.00670933  0.20555096  0.28694054  1
  O  O1  1  0.99329067  0.79444904  0.28694054  1
  O  O2  1  0.99329067  0.20555096  0.71305946  1
  O  O3  1  0.00670933  0.79444904  0.71305946  1
  O  O4  1  0.28120265  0.00604107  0.20163164  1
  O  O5  1  0.28120265  0.99395893  0.79836836  1
  O  O6  1  0.71879735  0.99395893  0.20163164  1
  O  O7  1  0.71879735  0.00604107  0.79836836  1
  O  O8  1  0.21015721  0.28435097  0.01032546  1
  O  O9  1  0.78984279  0.28435097  0.98967454  1
  O  O10  1  0.21015721  0.71564903  0.98967454  1
  O  O11  1  0.78984279  0.71564903  0.01032546  1
  O  O12  1  0.48652090  0.29795777  0.21521383  1
  O  O13  1  0.51347910  0.70204223  0.21521383  1
  O  O14  1  0.51347910  0.29795777  0.78478617  1
  O  O15  1  0.48652090  0.70204223  0.78478617  1
  O  O16  1  0.22096225  0.48703668  0.29412684  1
  O  O17  1  0.22096225  0.51296332  0.70587316  1
  O  O18  1  0.77903775  0.51296332  0.29412684  1
  O  O19  1  0.77903775  0.48703668  0.70587316  1
  O  O20  1  0.29540491  0.22005145  0.49507467  1
  O  O21  1  0.70459509  0.22005145  0.50492533  1
  O  O22  1  0.29540491  0.77994855  0.50492533  1
  O  O23  1  0.70459509  0.77994855  0.49507467  1
loop_
_geom_bond_atom_site_label_1
_geom_bond_atom_site_label_2
_geom_bond_distance
_geom_bond_site_symmetry_2
Eu0 O5 3.026691 1_544
Eu0 O7 3.026691 1_454
Eu0 O6 3.026691 1_445
Eu0 O4 3.026691 1_555
Eu0 O2 3.060368 1_454
Eu0 O3 3.060368 1_544
Eu0 O1 3.060368 1_445
Eu0 O0 3.060368 1_555
Eu0 O9 3.077686 1_454
Eu0 O11 3.077686 1_445
Eu0 O8 3.077686 1_555
Eu0 O10 3.077686 1_544
Eu1 O21 3.016937 1_555
Eu1 O22 3.016937 1_555
Eu1 O20 3.016937 1_555
Eu1 O23 3.016937 1_555
Eu1 O13 3.029281 1_555
Eu1 O14 3.029281 1_555
Eu1 O15 3.029281 1_555
Eu1 O12 3.029281 1_555
Eu1 O17 3.034348 1_555
Eu1 O18 3.034348 1_555
Eu1 O19 3.034348 1_555
Eu1 O16 3.034348 1_555
Eu2 O19 2.639671 1_455
Eu2 O16 2.639671 1_555
Eu2 O17 2.639671 1_555
Eu2 O18 2.639671 1_455
Eu2 O1 3.148954 1_455
Eu2 O0 3.148954 1_555
Eu2 O3 3.148954 1_555
Eu2 O2 3.148954 1_455
Eu3 O12 2.560945 1_555
Eu3 O13 2.560945 1_555
Eu3 O14 2.560945 1_554
Eu3 O15 2.560945 1_554
Eu3 O10 3.157710 1_554
Eu3 O11 3.157710 1_555
Eu3 O9 3.157710 1_554
Eu3 O8 3.157710 1_555
Hf0 O12 2.058742 1_555
Hf0 O8 2.097870 1_555
Hf0 O16 2.133112 1_555
Hf0 O4 2.142666 1_555
Hf0 O20 2.212424 1_555
Hf0 O0 2.276837 1_555
Hf1 O13 2.058742 1_555
Hf1 O11 2.097870 1_555
Hf1 O18 2.133112 1_555
Hf1 O6 2.142666 1_555
Hf1 O23 2.212424 1_555
Hf1 O1 2.276837 1_555
Hf2 O14 2.058742 1_555
Hf2 O9 2.097870 1_555
Hf2 O19 2.133112 1_555
Hf2 O7 2.142666 1_555
Hf2 O21 2.212424 1_555
Hf2 O2 2.276837 1_555
Hf3 O15 2.058742 1_555
Hf3 O10 2.097870 1_555
Hf3 O17 2.133112 1_555
Hf3 O5 2.142666 1_555
Hf3 O22 2.212424 1_555
Hf3 O3 2.276837 1_555
Cr0 O7 2.233452 1_565
Cr0 O23 2.247375 1_555
Cr0 O3 2.320023 1_655
Cr0 O11 2.320273 1_556
Cr0 O15 2.360374 1_555
Cr0 O19 2.361266 1_555
Cr1 O5 2.233452 1_545
Cr1 O20 2.247375 1_555
Cr1 O2 2.320023 1_455
Cr1 O8 2.320273 1_556
Cr1 O14 2.360374 1_555
Cr1 O17 2.361266 1_555
Cr2 O4 2.233452 1_565
Cr2 O22 2.247375 1_555
Cr2 O1 2.320023 1_455
Cr2 O10 2.320273 1_554
Cr2 O13 2.360374 1_555
Cr2 O16 2.361266 1_555
Cr3 O6 2.233452 1_545
Cr3 O21 2.247375 1_555
Cr3 O0 2.320023 1_655
Cr3 O9 2.320273 1_554
Cr3 O12 2.360374 1_555
Cr3 O18 2.361266 1_555
O0 Sn3 2.566244 1_555
O1 Sn3 2.566244 1_665
O2 Sn3 2.566244 1_655
O3 Sn3 2.566244 1_565
O4 Sn1 2.598942 1_555
O5 Sn1 2.598942 1_566
O6 Sn1 2.598942 1_565
O7 Sn1 2.598942 1_556
O8 Sn2 2.626487 1_555
O9 Sn2 2.626487 1_656
O10 Sn2 2.626487 1_556
O11 Sn2 2.626487 1_655
O20 Sn0 2.618787 1_555
O21 Sn0 2.618787 1_555
O22 Sn0 2.618787 1_565
O23 Sn0 2.618787 1_565
