# generated using pymatgen
data_MnZnO2
_symmetry_space_group_name_H-M   'P 1'
_cell_length_a   3.05016600
_cell_length_b   8.31941829
_cell_length_c   8.47384495
_cell_angle_alpha   86.54799912
_cell_angle_beta   79.99276842
_cell_angle_gamma   80.25227358
_symmetry_Int_Tables_number   1
_chemical_formula_structural   MnZnO2
_chemical_formula_sum   'Mn4 Zn4 O8'
_cell_volume   208.59523117
_cell_formula_units_Z   4
loop_
 _symmetry_equiv_pos_site_id
 _symmetry_equiv_pos_as_xyz
  1  'x, y, z'
loop_
 _atom_site_type_symbol
 _atom_site_label
 _atom_site_symmetry_multiplicity
 _atom_site_fract_x
 _atom_site_fract_y
 _atom_site_fract_z
 _atom_site_occupancy
  Mn  Mn0  1  0.18276800  0.72313300  0.91664900  1
  Mn  Mn1  1  0.40521300  0.91161700  0.26943200  1
  Mn  Mn2  1  0.59478700  0.08838300  0.73056800  1
  Mn  Mn3  1  0.81723200  0.27686700  0.08335100  1
  Zn  Zn0  1  0.59377400  0.58611800  0.26062500  1
  Zn  Zn1  1  0.40622600  0.41388200  0.73937500  1
  Zn  Zn2  1  0.18438000  0.23730200  0.39748000  1
  Zn  Zn3  1  0.81562000  0.76269800  0.60252000  1
  O  O0  1  0.41052600  0.24155500  0.92289300  1
  O  O1  1  0.19804400  0.89800500  0.70880800  1
  O  O2  1  0.80195600  0.10199500  0.29119200  1
  O  O3  1  0.58947400  0.75844500  0.07710700  1
  O  O4  1  0.80807700  0.58154200  0.76914800  1
  O  O5  1  0.94570400  0.73821900  0.37722600  1
  O  O6  1  0.19192300  0.41845800  0.23085200  1
  O  O7  1  0.05429600  0.26178100  0.62277400  1
loop_
_geom_bond_atom_site_label_1
_geom_bond_atom_site_label_2
_geom_bond_distance
_geom_bond_site_symmetry_2
Mn0 O3 2.054950 1_456
Mn0 O3 2.057108 1_556
Mn0 O1 2.215052 1_555
Mn0 O4 2.274996 1_555
Mn0 O4 2.320692 1_455
Mn1 O3 2.070021 1_555
Mn1 O2 2.183732 1_565
Mn1 O2 2.204237 1_465
Mn1 O5 2.227288 1_455
Mn1 O5 2.278721 1_555
Mn2 O0 2.070021 1_555
Mn2 O1 2.183732 1_545
Mn2 O1 2.204237 1_645
Mn2 O7 2.227288 1_655
Mn2 O7 2.278721 1_555
Mn3 O0 2.054950 1_654
Mn3 O0 2.057108 1_554
Mn3 O2 2.215052 1_555
Mn3 O6 2.274996 1_555
Mn3 O6 2.320692 1_655
O0 Zn1 2.050887 1_555
O1 Zn3 2.090650 1_455
O1 Zn3 2.107399 1_555
O2 Zn2 2.090650 1_655
O2 Zn2 2.107399 1_555
O3 Zn0 2.050887 1_555
O4 Zn3 2.002446 1_555
O4 Zn1 2.059214 1_555
O4 Zn1 2.087708 1_655
O5 Zn3 1.897311 1_555
O5 Zn0 2.170000 1_555
O5 Zn0 2.260458 1_655
O6 Zn2 2.002446 1_555
O6 Zn0 2.059214 1_555
O6 Zn0 2.087708 1_455
O7 Zn2 1.897311 1_555
O7 Zn1 2.170000 1_555
O7 Zn1 2.260458 1_455
