# generated using pymatgen
data_Pb3Cl4O2F
_symmetry_space_group_name_H-M   'P 1'
_cell_length_a   7.25593700
_cell_length_b   8.02912693
_cell_length_c   8.88507479
_cell_angle_alpha   102.85775703
_cell_angle_beta   103.26493553
_cell_angle_gamma   91.65761515
_symmetry_Int_Tables_number   1
_chemical_formula_structural   Pb3Cl4O2F
_chemical_formula_sum   'Pb6 Cl8 O4 F2'
_cell_volume   489.44211546
_cell_formula_units_Z   2
loop_
 _symmetry_equiv_pos_site_id
 _symmetry_equiv_pos_as_xyz
  1  'x, y, z'
loop_
 _atom_site_type_symbol
 _atom_site_label
 _atom_site_symmetry_multiplicity
 _atom_site_fract_x
 _atom_site_fract_y
 _atom_site_fract_z
 _atom_site_occupancy
  Pb  Pb0  1  0.33122600  0.20809100  0.36720100  1
  Pb  Pb1  1  0.66877400  0.79190900  0.63279900  1
  Pb  Pb2  1  0.29736300  0.35719700  0.91479100  1
  Pb  Pb3  1  0.70263700  0.64280300  0.08520900  1
  Pb  Pb4  1  0.24584000  0.83850400  0.90997200  1
  Pb  Pb5  1  0.75416000  0.16149600  0.09002800  1
  Cl  Cl0  1  0.10645600  0.40832300  0.17583300  1
  Cl  Cl1  1  0.89354400  0.59167700  0.82416700  1
  Cl  Cl2  1  0.69170500  0.48752500  0.36620000  1
  Cl  Cl3  1  0.30829500  0.51247500  0.63380000  1
  Cl  Cl4  1  0.09208900  0.91295600  0.18585900  1
  Cl  Cl5  1  0.90791100  0.08704400  0.81414100  1
  Cl  Cl6  1  0.68302000  0.93865400  0.35644200  1
  Cl  Cl7  1  0.31698000  0.06134600  0.64355800  1
  O  O0  1  0.60686000  0.36762000  0.97142200  1
  O  O1  1  0.39314000  0.63238000  0.02857800  1
  O  O2  1  0.90535800  0.74920000  0.48609300  1
  O  O3  1  0.09464200  0.25080000  0.51390700  1
  F  F0  1  0.60666700  0.86679700  0.93395800  1
  F  F1  1  0.39333300  0.13320300  0.06604200  1
loop_
_geom_bond_atom_site_label_1
_geom_bond_atom_site_label_2
_geom_bond_distance
_geom_bond_site_symmetry_2
Cl0 Pb0 2.869034 1_555
Cl0 Pb2 2.924102 1_554
Cl0 Pb5 3.030391 1_455
Cl1 Pb1 2.869034 1_555
Cl1 Pb3 2.924102 1_556
Cl1 Pb4 3.030391 1_655
Cl2 O2 2.451521 1_555
Cl2 Pb1 3.039637 1_555
Cl2 Pb3 3.043731 1_555
Cl3 O3 2.451521 1_555
Cl3 Pb0 3.039637 1_555
Cl3 Pb2 3.043731 1_555
Cl4 Pb0 2.828792 1_565
Cl4 Pb4 2.872640 1_554
Cl5 Pb1 2.828792 1_545
Cl5 Pb5 2.872640 1_556
Cl6 Pb1 2.970726 1_555
Cl6 Pb3 3.016591 1_555
Cl7 Pb0 2.970726 1_555
Cl7 Pb2 3.016591 1_555
O0 Pb2 2.180630 1_555
O0 Pb3 2.231916 1_556
O0 Pb5 2.313777 1_556
O1 Pb3 2.180630 1_555
O1 Pb2 2.231916 1_554
O1 Pb4 2.313777 1_554
O2 Pb1 2.371818 1_555
O3 Pb0 2.371818 1_555
F0 Pb3 2.498823 1_556
F0 Pb5 2.525702 1_566
F0 Pb4 2.576753 1_555
F0 Pb1 2.752746 1_555
F1 Pb2 2.498823 1_554
F1 Pb4 2.525702 1_544
F1 Pb5 2.576753 1_555
F1 Pb0 2.752746 1_555
