# generated using pymatgen
data_LaMoI4O15
_symmetry_space_group_name_H-M   'P 1'
_cell_length_a   14.38034100
_cell_length_b   7.14393400
_cell_length_c   7.24361112
_cell_angle_alpha   65.04590997
_cell_angle_beta   90.00000000
_cell_angle_gamma   90.00000000
_symmetry_Int_Tables_number   1
_chemical_formula_structural   LaMoI4O15
_chemical_formula_sum   'La2 Mo2 I8 O30'
_cell_volume   674.68267440
_cell_formula_units_Z   2
loop_
 _symmetry_equiv_pos_site_id
 _symmetry_equiv_pos_as_xyz
  1  'x, y, z'
loop_
 _atom_site_type_symbol
 _atom_site_label
 _atom_site_symmetry_multiplicity
 _atom_site_fract_x
 _atom_site_fract_y
 _atom_site_fract_z
 _atom_site_occupancy
  La  La0  1  0.37436300  0.92756800  0.91323200  1
  La  La1  1  0.87436300  0.07243200  0.08676800  1
  Mo  Mo0  1  0.03712300  0.59262900  0.70553100  1
  Mo  Mo1  1  0.53712300  0.40737100  0.29446900  1
  I  I0  1  0.12518600  0.76436900  0.18842100  1
  I  I1  1  0.62518600  0.23563100  0.81157900  1
  I  I2  1  0.50254800  0.84365800  0.45227900  1
  I  I3  1  0.00254800  0.15634200  0.54772100  1
  I  I4  1  0.27729500  0.52726600  0.73374700  1
  I  I5  1  0.77729500  0.47273400  0.26625300  1
  I  I6  1  0.27917100  0.24371200  0.34975100  1
  I  I7  1  0.77917100  0.75628800  0.65024900  1
  O  O0  1  0.13082900  0.76513700  0.44675200  1
  O  O1  1  0.63082900  0.23486300  0.55324800  1
  O  O2  1  0.22477800  0.93118100  0.08112600  1
  O  O3  1  0.72477800  0.06881900  0.91887400  1
  O  O4  1  0.03255900  0.95439500  0.09022800  1
  O  O5  1  0.53255900  0.04560500  0.90977200  1
  O  O6  1  0.52729000  0.57311800  0.49544400  1
  O  O7  1  0.02729000  0.42688200  0.50455600  1
  O  O8  1  0.40530700  0.90484100  0.27367100  1
  O  O9  1  0.90530700  0.09515900  0.72632900  1
  O  O10  1  0.43602600  0.76531700  0.68712500  1
  O  O11  1  0.93602600  0.23468300  0.31287500  1
  O  O12  1  0.15959400  0.40788700  0.79112500  1
  O  O13  1  0.65959400  0.59211300  0.20887500  1
  O  O14  1  0.34540100  0.29240400  0.85009900  1
  O  O15  1  0.84540100  0.70759600  0.14990100  1
  O  O16  1  0.28303400  0.60478500  0.94589400  1
  O  O17  1  0.78303400  0.39521500  0.05410600  1
  O  O18  1  0.27087100  0.47875800  0.39475000  1
  O  O19  1  0.77087100  0.52124200  0.60525000  1
  O  O20  1  0.15596200  0.25316300  0.27297000  1
  O  O21  1  0.65596200  0.74683700  0.72703000  1
  O  O22  1  0.26987600  0.03868700  0.60707300  1
  O  O23  1  0.76987600  0.96131300  0.39292700  1
  O  O24  1  0.94403800  0.77137200  0.54766900  1
  O  O25  1  0.44403800  0.22862800  0.45233100  1
  O  O26  1  0.96795800  0.39698000  0.88627200  1
  O  O27  1  0.46795800  0.60302000  0.11372800  1
  O  O28  1  0.07809000  0.74234900  0.83007400  1
  O  O29  1  0.57809000  0.25765100  0.16992600  1
loop_
_geom_bond_atom_site_label_1
_geom_bond_atom_site_label_2
_geom_bond_distance
_geom_bond_site_symmetry_2
La0 O5 2.422620 1_565
La0 O2 2.476561 1_556
La0 O14 2.483949 1_565
La0 O22 2.514074 1_565
La0 O10 2.532625 1_555
La0 O27 2.540703 1_556
La0 O16 2.576406 1_555
La0 O8 2.585224 1_556
La1 O4 2.422620 1_645
La1 O3 2.476561 1_554
La1 O15 2.483949 1_545
La1 O23 2.514074 1_545
La1 O11 2.532625 1_555
La1 O26 2.540703 1_554
La1 O17 2.576406 1_555
La1 O9 2.585224 1_554
Mo0 O26 1.764327 1_455
Mo0 O28 1.766105 1_555
Mo0 O24 1.870266 1_455
Mo0 O12 2.130148 1_555
Mo0 O0 2.213391 1_555
Mo0 O7 2.235141 1_555
Mo1 O27 1.764327 1_555
Mo1 O29 1.766105 1_555
Mo1 O25 1.870266 1_555
Mo1 O13 2.130148 1_555
Mo1 O1 2.213391 1_555
Mo1 O6 2.235141 1_555
I0 O2 1.814877 1_555
I0 O4 1.818877 1_555
I0 O0 1.875327 1_555
I1 O3 1.814877 1_555
I1 O5 1.818877 1_555
I1 O1 1.875327 1_555
I2 O10 1.821769 1_555
I2 O8 1.828424 1_555
I2 O6 1.857380 1_555
I3 O11 1.821769 1_455
I3 O9 1.828424 1_455
I3 O7 1.857380 1_555
I4 O14 1.814243 1_555
I4 O16 1.842023 1_555
I4 O12 1.861670 1_555
I5 O15 1.814243 1_555
I5 O17 1.842023 1_555
I5 O13 1.861670 1_555
I6 O22 1.825881 1_555
I6 O18 1.844417 1_555
I6 O20 1.849711 1_555
I6 O25 2.473272 1_555
I7 O23 1.825881 1_555
I7 O19 1.844417 1_555
I7 O21 1.849711 1_555
I7 O24 2.473272 1_555
