# generated using pymatgen
data_Ba3Bi(BO2)9
_symmetry_space_group_name_H-M   'P 1'
_cell_length_a   7.30882514
_cell_length_b   7.30882514
_cell_length_c   17.62962300
_cell_angle_alpha   90.00000000
_cell_angle_beta   90.00000000
_cell_angle_gamma   119.99999226
_symmetry_Int_Tables_number   1
_chemical_formula_structural   Ba3Bi(BO2)9
_chemical_formula_sum   'Ba6 Bi2 B18 O36'
_cell_volume   815.58425832
_cell_formula_units_Z   2
loop_
 _symmetry_equiv_pos_site_id
 _symmetry_equiv_pos_as_xyz
  1  'x, y, z'
loop_
 _atom_site_type_symbol
 _atom_site_label
 _atom_site_symmetry_multiplicity
 _atom_site_fract_x
 _atom_site_fract_y
 _atom_site_fract_z
 _atom_site_occupancy
  Ba  Ba0  1  0.66666700  0.33333300  0.63366500  1
  Ba  Ba1  1  0.33333300  0.66666700  0.13366500  1
  Ba  Ba2  1  0.33333300  0.66666700  0.36633500  1
  Ba  Ba3  1  0.66666700  0.33333300  0.86633500  1
  Ba  Ba4  1  0.00000000  0.00000000  0.75000000  1
  Ba  Ba5  1  0.00000000  0.00000000  0.25000000  1
  Bi  Bi0  1  0.00000000  0.00000000  0.50000000  1
  Bi  Bi1  1  0.00000000  0.00000000  0.00000000  1
  B  B0  1  0.11844700  0.49527200  0.75000000  1
  B  B1  1  0.50472800  0.62317500  0.75000000  1
  B  B2  1  0.37682500  0.88155300  0.75000000  1
  B  B3  1  0.88155300  0.50472800  0.25000000  1
  B  B4  1  0.49527200  0.37682500  0.25000000  1
  B  B5  1  0.62317500  0.11844700  0.25000000  1
  B  B6  1  0.28660000  0.45172000  0.58633200  1
  B  B7  1  0.54828000  0.83488000  0.58633200  1
  B  B8  1  0.16512000  0.71340000  0.58633200  1
  B  B9  1  0.71340000  0.54828000  0.08633200  1
  B  B10  1  0.45172000  0.16512000  0.08633200  1
  B  B11  1  0.83488000  0.28660000  0.08633200  1
  B  B12  1  0.71340000  0.54828000  0.41366800  1
  B  B13  1  0.45172000  0.16512000  0.41366800  1
  B  B14  1  0.83488000  0.28660000  0.41366800  1
  B  B15  1  0.28660000  0.45172000  0.91366800  1
  B  B16  1  0.54828000  0.83488000  0.91366800  1
  B  B17  1  0.16512000  0.71340000  0.91366800  1
  O  O0  1  0.16724400  0.70802900  0.75000000  1
  O  O1  1  0.29197100  0.45921500  0.75000000  1
  O  O2  1  0.54078500  0.83275600  0.75000000  1
  O  O3  1  0.83275600  0.29197100  0.25000000  1
  O  O4  1  0.70802900  0.54078500  0.25000000  1
  O  O5  1  0.45921500  0.16724400  0.25000000  1
  O  O6  1  0.49721300  0.62195800  0.58616600  1
  O  O7  1  0.37804200  0.87525600  0.58616600  1
  O  O8  1  0.12474400  0.50278700  0.58616600  1
  O  O9  1  0.50278700  0.37804200  0.08616600  1
  O  O10  1  0.62195800  0.12474400  0.08616600  1
  O  O11  1  0.87525600  0.49721300  0.08616600  1
  O  O12  1  0.50278700  0.37804200  0.41383400  1
  O  O13  1  0.62195800  0.12474400  0.41383400  1
  O  O14  1  0.87525600  0.49721300  0.41383400  1
  O  O15  1  0.49721300  0.62195800  0.91383400  1
  O  O16  1  0.37804200  0.87525600  0.91383400  1
  O  O17  1  0.12474400  0.50278700  0.91383400  1
  O  O18  1  0.92135400  0.33285400  0.75000000  1
  O  O19  1  0.66714600  0.58850000  0.75000000  1
  O  O20  1  0.41150000  0.07864600  0.75000000  1
  O  O21  1  0.07864600  0.66714600  0.25000000  1
  O  O22  1  0.33285400  0.41150000  0.25000000  1
  O  O23  1  0.58850000  0.92135400  0.25000000  1
  O  O24  1  0.25183800  0.25399200  0.58554800  1
  O  O25  1  0.74600800  0.99784600  0.58554800  1
  O  O26  1  0.00215400  0.74816200  0.58554800  1
  O  O27  1  0.74816200  0.74600800  0.08554800  1
  O  O28  1  0.25399200  0.00215400  0.08554800  1
  O  O29  1  0.99784600  0.25183800  0.08554800  1
  O  O30  1  0.74816200  0.74600800  0.41445200  1
  O  O31  1  0.25399200  0.00215400  0.41445200  1
  O  O32  1  0.99784600  0.25183800  0.41445200  1
  O  O33  1  0.25183800  0.25399200  0.91445200  1
  O  O34  1  0.74600800  0.99784600  0.91445200  1
  O  O35  1  0.00215400  0.74816200  0.91445200  1
loop_
_geom_bond_atom_site_label_1
_geom_bond_atom_site_label_2
_geom_bond_distance
_geom_bond_site_symmetry_2
Ba0 O18 2.770909 1_555
Ba0 O20 2.770912 1_555
Ba0 O19 2.770914 1_555
Ba0 O25 2.913784 1_545
Ba0 O26 2.913789 1_655
Ba0 O24 2.913791 1_555
Ba0 O8 3.049218 1_655
Ba0 O7 3.049220 1_545
Ba0 O6 3.049230 1_555
Ba1 O21 2.770909 1_555
Ba1 O23 2.770912 1_555
Ba1 O22 2.770914 1_555
Ba1 O28 2.913784 1_565
Ba1 O29 2.913789 1_455
Ba1 O27 2.913791 1_555
Ba1 O11 3.049218 1_455
Ba1 O10 3.049220 1_565
Ba1 O9 3.049230 1_555
Ba2 O21 2.770909 1_555
Ba2 O23 2.770912 1_555
Ba2 O22 2.770914 1_555
Ba2 O31 2.913784 1_565
Ba2 O32 2.913789 1_455
Ba2 O30 2.913791 1_555
Ba2 O14 3.049218 1_455
Ba2 O13 3.049220 1_565
Ba2 O12 3.049230 1_555
Ba3 O18 2.770909 1_555
Ba3 O20 2.770912 1_555
Ba3 O19 2.770914 1_555
Ba3 O34 2.913784 1_545
Ba3 O35 2.913789 1_655
Ba3 O33 2.913791 1_555
Ba3 O17 3.049218 1_655
Ba3 O16 3.049220 1_545
Ba3 O15 3.049230 1_555
Ba4 O18 2.765351 1_455
Ba4 O20 2.765351 1_555
Ba4 O19 2.765351 1_445
Ba4 O0 2.942181 1_545
Ba4 O2 2.942181 1_445
Ba4 O1 2.942182 1_555
Ba4 O35 3.438415 1_545
Ba4 O26 3.438415 1_545
Ba4 O34 3.438415 1_445
Ba4 O25 3.438415 1_445
Ba4 O33 3.438415 1_555
Ba4 O24 3.438415 1_555
Ba5 O21 2.765351 1_545
Ba5 O23 2.765351 1_445
Ba5 O22 2.765351 1_555
Ba5 O3 2.942181 1_455
Ba5 O5 2.942181 1_555
Ba5 O4 2.942182 1_445
Ba5 O32 3.438415 1_455
Ba5 O29 3.438415 1_455
Ba5 O31 3.438415 1_555
Ba5 O28 3.438415 1_555
Ba5 O30 3.438415 1_445
Ba5 O27 3.438415 1_445
Bi0 O26 2.385746 1_545
Bi0 O32 2.385746 1_455
Bi0 O25 2.385746 1_445
Bi0 O31 2.385746 1_555
Bi0 O24 2.385746 1_555
Bi0 O30 2.385746 1_445
Bi1 O29 2.385746 1_455
Bi1 O35 2.385746 1_544
Bi1 O28 2.385746 1_555
Bi1 O34 2.385746 1_444
Bi1 O27 2.385746 1_445
Bi1 O33 2.385746 1_554
B0 O18 1.332008 1_455
B0 O0 1.410902 1_555
B0 O1 1.418504 1_555
B1 O19 1.332008 1_555
B1 O1 1.410902 1_555
B1 O2 1.418504 1_555
B2 O20 1.332008 1_565
B2 O2 1.410902 1_555
B2 O0 1.418504 1_555
B3 O21 1.332008 1_655
B3 O3 1.410902 1_555
B3 O4 1.418504 1_555
B4 O22 1.332008 1_555
B4 O4 1.410902 1_555
B4 O5 1.418504 1_555
B5 O23 1.332008 1_545
B5 O5 1.410902 1_555
B5 O3 1.418504 1_555
B6 O24 1.336435 1_555
B6 O8 1.407226 1_555
B6 O6 1.415058 1_555
B7 O25 1.336435 1_555
B7 O6 1.407219 1_555
B7 O7 1.415063 1_555
B8 O26 1.336434 1_555
B8 O7 1.407221 1_555
B8 O8 1.415056 1_555
B9 O27 1.336435 1_555
B9 O11 1.407226 1_555
B9 O9 1.415058 1_555
B10 O28 1.336435 1_555
B10 O9 1.407219 1_555
B10 O10 1.415063 1_555
B11 O29 1.336434 1_555
B11 O10 1.407221 1_555
B11 O11 1.415056 1_555
B12 O30 1.336435 1_555
B12 O14 1.407226 1_555
B12 O12 1.415058 1_555
B13 O31 1.336435 1_555
B13 O12 1.407219 1_555
B13 O13 1.415063 1_555
B14 O32 1.336434 1_555
B14 O13 1.407221 1_555
B14 O14 1.415056 1_555
B15 O33 1.336435 1_555
B15 O17 1.407226 1_555
B15 O15 1.415058 1_555
B16 O34 1.336435 1_555
B16 O15 1.407219 1_555
B16 O16 1.415063 1_555
B17 O35 1.336434 1_555
B17 O16 1.407221 1_555
B17 O17 1.415056 1_555
