# generated using pymatgen
data_U(PS3)4
_symmetry_space_group_name_H-M   'P 1'
_cell_length_a   10.61097381
_cell_length_b   10.61097381
_cell_length_c   10.61097381
_cell_angle_alpha   102.56131083
_cell_angle_beta   102.56131083
_cell_angle_gamma   124.40448562
_symmetry_Int_Tables_number   1
_chemical_formula_structural   U(PS3)4
_chemical_formula_sum   'U2 P8 S24'
_cell_volume   871.97231058
_cell_formula_units_Z   2
loop_
 _symmetry_equiv_pos_site_id
 _symmetry_equiv_pos_as_xyz
  1  'x, y, z'
loop_
 _atom_site_type_symbol
 _atom_site_label
 _atom_site_symmetry_multiplicity
 _atom_site_fract_x
 _atom_site_fract_y
 _atom_site_fract_z
 _atom_site_occupancy
  U  U0  1  0.25000000  0.75000000  0.50000000  1
  U  U1  1  0.00000000  0.00000000  0.00000000  1
  P  P0  1  0.17847000  0.50119600  0.69033000  1
  P  P1  1  0.81086500  0.48813900  0.30967000  1
  P  P2  1  0.75119600  0.56086500  0.82272600  1
  P  P3  1  0.73813900  0.92847000  0.17727400  1
  P  P4  1  0.07153000  0.24880400  0.80967000  1
  P  P5  1  0.43913500  0.26186100  0.19033000  1
  P  P6  1  0.49880400  0.18913500  0.67727400  1
  P  P7  1  0.51186100  0.82153000  0.32272600  1
  S  S0  1  0.76367200  0.36881600  0.73412100  1
  S  S1  1  0.63469600  0.02955100  0.26587900  1
  S  S2  1  0.61881600  0.38469600  0.10514400  1
  S  S3  1  0.27955100  0.51367200  0.89485600  1
  S  S4  1  0.48632800  0.38118400  0.76587900  1
  S  S5  1  0.61530400  0.72044900  0.23412100  1
  S  S6  1  0.63118400  0.36530400  0.39485600  1
  S  S7  1  0.97044900  0.23632800  0.60514400  1
  S  S8  1  0.11260000  0.64574500  0.69846900  1
  S  S9  1  0.94727600  0.41413000  0.30153100  1
  S  S10  1  0.89574500  0.69727600  0.03314600  1
  S  S11  1  0.66413000  0.86260000  0.96685400  1
  S  S12  1  0.13740000  0.10425500  0.80153100  1
  S  S13  1  0.30272400  0.33587000  0.19846900  1
  S  S14  1  0.35425500  0.05272400  0.46685400  1
  S  S15  1  0.58587000  0.88740000  0.53314600  1
  S  S16  1  0.80814500  0.72145300  0.73045000  1
  S  S17  1  0.99100300  0.07769500  0.26955000  1
  S  S18  1  0.97145300  0.74100300  0.41330800  1
  S  S19  1  0.32769500  0.55814500  0.58669200  1
  S  S20  1  0.44185500  0.02854700  0.76955000  1
  S  S21  1  0.25899700  0.67230500  0.23045000  1
  S  S22  1  0.27854700  0.00899700  0.08669200  1
  S  S23  1  0.92230500  0.19185500  0.91330800  1
loop_
_geom_bond_atom_site_label_1
_geom_bond_atom_site_label_2
_geom_bond_distance
_geom_bond_site_symmetry_2
P0 S8 2.007152 1_555
P0 S19 2.011690 1_555
P0 S3 2.140065 1_555
P0 S7 2.145885 1_455
P1 S9 2.007162 1_555
P1 S18 2.011697 1_555
P1 S2 2.140066 1_555
P1 S6 2.145879 1_555
P2 S10 2.007161 1_556
P2 S16 2.011698 1_555
P2 S0 2.140056 1_555
P2 S4 2.145884 1_555
P3 S11 2.007162 1_554
P3 S17 2.011698 1_565
P3 S1 2.140046 1_565
P3 S5 2.145885 1_555
P4 S12 2.007152 1_555
P4 S23 2.011690 1_455
P4 S7 2.140065 1_455
P4 S3 2.145885 1_555
P5 S13 2.007162 1_555
P5 S22 2.011697 1_555
P5 S6 2.140066 1_555
P5 S2 2.145879 1_555
P6 S14 2.007161 1_555
P6 S20 2.011698 1_555
P6 S4 2.140056 1_555
P6 S0 2.145884 1_555
P7 S15 2.007162 1_555
P7 S21 2.011698 1_555
P7 S5 2.140046 1_555
P7 S1 2.145885 1_565
S8 U0 2.882820 1_555
S9 U0 2.882825 1_655
S10 U1 2.882825 1_665
S11 U1 2.882827 1_666
S12 U1 2.882820 1_556
S13 U1 2.882825 1_555
S14 U0 2.882825 1_545
S15 U0 2.882827 1_555
S16 U1 2.837519 1_666
S17 U1 2.837519 1_655
S18 U0 2.837519 1_655
S19 U0 2.837519 1_555
S20 U0 2.837519 1_545
S21 U0 2.837519 1_555
S22 U1 2.837519 1_555
S23 U1 2.837519 1_656
