# generated using pymatgen
data_KSe2O
_symmetry_space_group_name_H-M   'P 1'
_cell_length_a   8.21431311
_cell_length_b   7.36924400
_cell_length_c   8.90892300
_cell_angle_alpha   90.00000000
_cell_angle_beta   124.61422406
_cell_angle_gamma   90.00000000
_symmetry_Int_Tables_number   1
_chemical_formula_structural   KSe2O
_chemical_formula_sum   'K4 Se8 O4'
_cell_volume   443.83013697
_cell_formula_units_Z   4
loop_
 _symmetry_equiv_pos_site_id
 _symmetry_equiv_pos_as_xyz
  1  'x, y, z'
loop_
 _atom_site_type_symbol
 _atom_site_label
 _atom_site_symmetry_multiplicity
 _atom_site_fract_x
 _atom_site_fract_y
 _atom_site_fract_z
 _atom_site_occupancy
  K  K0  1  0.14019700  0.11521900  0.66700800  1
  K  K1  1  0.14019700  0.88478100  0.16700800  1
  K  K2  1  0.63160900  0.57820500  0.16794000  1
  K  K3  1  0.63160900  0.42179500  0.66794000  1
  Se  Se0  1  0.10835800  0.59481400  0.82595600  1
  Se  Se1  1  0.10835800  0.40518600  0.32595600  1
  Se  Se2  1  0.61796000  0.90323800  0.82042700  1
  Se  Se3  1  0.61796000  0.09676200  0.32042700  1
  Se  Se4  1  0.17232500  0.34234100  0.01088200  1
  Se  Se5  1  0.17232500  0.65765900  0.51088200  1
  Se  Se6  1  0.74682300  0.14362100  0.02665400  1
  Se  Se7  1  0.74682300  0.85637900  0.52665400  1
  O  O0  1  0.27243100  0.23750500  0.46657800  1
  O  O1  1  0.27243100  0.76249500  0.96657800  1
  O  O2  1  0.74839600  0.71138100  0.94217500  1
  O  O3  1  0.74839600  0.28861900  0.44217500  1
loop_
_geom_bond_atom_site_label_1
_geom_bond_atom_site_label_2
_geom_bond_distance
_geom_bond_site_symmetry_2
K0 O0 2.717330 1_555
K0 O3 2.946025 1_455
K0 Se7 3.324585 1_445
K0 Se4 3.367160 1_556
K0 Se5 3.713602 1_545
K1 O1 2.717330 1_554
K1 O2 2.946025 1_454
K1 Se6 3.324585 1_465
K1 Se5 3.367160 1_555
K1 Se4 3.713602 1_565
K2 O1 2.784650 1_554
K2 O2 2.849736 1_554
K2 O3 2.963203 1_555
K2 Se7 3.445963 1_555
K2 Se4 3.635239 1_555
K2 Se5 3.740079 1_655
K2 Se6 3.753632 1_555
K3 O0 2.784650 1_555
K3 O3 2.849736 1_555
K3 O2 2.963203 1_555
K3 Se6 3.445963 1_556
K3 Se5 3.635239 1_555
K3 Se4 3.740079 1_656
K3 Se7 3.753632 1_555
Se0 Se4 2.338468 1_556
Se1 Se5 2.338468 1_555
Se2 Se6 2.329064 1_566
Se3 Se7 2.329064 1_545
O0 Se1 1.730486 1_555
O1 Se0 1.730486 1_555
O2 Se2 1.732943 1_555
O3 Se3 1.732943 1_555
