# generated using pymatgen
data_YCdBiO4
_symmetry_space_group_name_H-M   'P 1'
_cell_length_a   11.27471786
_cell_length_b   11.27471786
_cell_length_c   11.27471786
_cell_angle_alpha   100.10212177
_cell_angle_beta   100.10212177
_cell_angle_gamma   130.48083275
_symmetry_Int_Tables_number   1
_chemical_formula_structural   YCdBiO4
_chemical_formula_sum   'Y8 Cd8 Bi8 O32'
_cell_volume   989.93672098
_cell_formula_units_Z   8
loop_
 _symmetry_equiv_pos_site_id
 _symmetry_equiv_pos_as_xyz
  1  'x, y, z'
loop_
 _atom_site_type_symbol
 _atom_site_label
 _atom_site_symmetry_multiplicity
 _atom_site_fract_x
 _atom_site_fract_y
 _atom_site_fract_z
 _atom_site_occupancy
  Y  Y0  1  0.83555500  0.16444500  0.00000000  1
  Y  Y1  1  0.83555500  0.83555500  0.67110900  1
  Y  Y2  1  0.41444500  0.58555500  0.50000000  1
  Y  Y3  1  0.41444500  0.91444500  0.82889100  1
  Y  Y4  1  0.16444500  0.16444500  0.32889100  1
  Y  Y5  1  0.16444500  0.83555500  0.00000000  1
  Y  Y6  1  0.08555500  0.58555500  0.17110900  1
  Y  Y7  1  0.08555500  0.91444500  0.50000000  1
  Cd  Cd0  1  0.62500000  0.26669600  0.14169600  1
  Cd  Cd1  1  0.62500000  0.48330400  0.35830400  1
  Cd  Cd2  1  0.51669600  0.37500000  0.64169600  1
  Cd  Cd3  1  0.51669600  0.87500000  0.14169600  1
  Cd  Cd4  1  0.12500000  0.26669600  0.64169600  1
  Cd  Cd5  1  0.12500000  0.48330400  0.85830400  1
  Cd  Cd6  1  0.73330400  0.37500000  0.85830400  1
  Cd  Cd7  1  0.73330400  0.87500000  0.35830400  1
  Bi  Bi0  1  0.52100700  0.66040400  0.86060300  1
  Bi  Bi1  1  0.91040400  0.27100700  0.36060300  1
  Bi  Bi2  1  0.91040400  0.54980000  0.63939700  1
  Bi  Bi3  1  0.79980000  0.66040400  0.13939700  1
  Bi  Bi4  1  0.72899300  0.08959600  0.63939700  1
  Bi  Bi5  1  0.33959600  0.47899300  0.13939700  1
  Bi  Bi6  1  0.33959600  0.20020000  0.86060300  1
  Bi  Bi7  1  0.45020000  0.08959600  0.36060300  1
  O  O0  1  0.31560100  0.59340600  0.72219500  1
  O  O1  1  0.84340600  0.06560100  0.22219500  1
  O  O2  1  0.84340600  0.62121100  0.77780500  1
  O  O3  1  0.87121100  0.59340600  0.27780500  1
  O  O4  1  0.93439900  0.15659400  0.77780500  1
  O  O5  1  0.40659400  0.68439900  0.27780500  1
  O  O6  1  0.40659400  0.12878900  0.72219500  1
  O  O7  1  0.37878900  0.15659400  0.22219500  1
  O  O8  1  0.57711300  0.91699500  0.96206700  1
  O  O9  1  0.57711300  0.61504600  0.66011800  1
  O  O10  1  0.16699500  0.32711300  0.46206700  1
  O  O11  1  0.16699500  0.70492800  0.83988200  1
  O  O12  1  0.95492800  0.91699500  0.33988200  1
  O  O13  1  0.95492800  0.61504600  0.03793300  1
  O  O14  1  0.86504600  0.32711300  0.16011800  1
  O  O15  1  0.86504600  0.70492800  0.53793300  1
  O  O16  1  0.67288700  0.83300500  0.53793300  1
  O  O17  1  0.67288700  0.13495400  0.83988200  1
  O  O18  1  0.08300500  0.42288700  0.03793300  1
  O  O19  1  0.08300500  0.04507200  0.66011800  1
  O  O20  1  0.29507200  0.83300500  0.16011800  1
  O  O21  1  0.29507200  0.13495400  0.46206700  1
  O  O22  1  0.38495400  0.42288700  0.33988200  1
  O  O23  1  0.38495400  0.04507200  0.96206700  1
  O  O24  1  0.64231700  0.14231700  0.28463500  1
  O  O25  1  0.64231700  0.35768300  0.50000000  1
  O  O26  1  0.39231700  0.39231700  0.78463500  1
  O  O27  1  0.39231700  0.60768300  0.00000000  1
  O  O28  1  0.85768300  0.14231700  0.50000000  1
  O  O29  1  0.85768300  0.35768300  0.71536500  1
  O  O30  1  0.60768300  0.39231700  0.00000000  1
  O  O31  1  0.60768300  0.60768300  0.21536500  1
loop_
_geom_bond_atom_site_label_1
_geom_bond_atom_site_label_2
_geom_bond_distance
_geom_bond_site_symmetry_2
Cd0 O14 2.278486 1_555
Cd0 O23 2.278486 1_554
Cd0 O30 2.374829 1_555
Cd0 O24 2.374838 1_555
Cd0 O7 2.622127 1_555
Cd0 O3 2.622127 1_555
Cd1 O15 2.278486 1_555
Cd1 O22 2.278486 1_555
Cd1 O25 2.374829 1_555
Cd1 O31 2.374838 1_555
Cd1 O7 2.622127 1_555
Cd1 O3 2.622127 1_555
Cd2 O9 2.278486 1_555
Cd2 O21 2.278486 1_555
Cd2 O25 2.374829 1_555
Cd2 O26 2.374838 1_555
Cd2 O6 2.622127 1_555
Cd2 O2 2.622127 1_555
Cd3 O20 2.278486 1_555
Cd3 O8 2.278486 1_554
Cd3 O27 2.374829 1_555
Cd3 O24 2.374833 1_565
Cd3 O5 2.622127 1_555
Cd3 O1 2.622127 1_565
Cd4 O10 2.278486 1_555
Cd4 O19 2.278486 1_555
Cd4 O28 2.374829 1_455
Cd4 O26 2.374833 1_555
Cd4 O0 2.622127 1_555
Cd4 O4 2.622127 1_455
Cd5 O18 2.278486 1_556
Cd5 O11 2.278486 1_555
Cd5 O27 2.374829 1_556
Cd5 O29 2.374833 1_455
Cd5 O4 2.622127 1_455
Cd5 O0 2.622127 1_555
Cd6 O13 2.278486 1_556
Cd6 O17 2.278486 1_555
Cd6 O30 2.374829 1_556
Cd6 O29 2.374838 1_555
Cd6 O2 2.622127 1_555
Cd6 O6 2.622127 1_555
Cd7 O16 2.278486 1_555
Cd7 O12 2.278486 1_555
Cd7 O28 2.374829 1_565
Cd7 O31 2.374833 1_555
Cd7 O1 2.622127 1_565
Cd7 O5 2.622127 1_555
Bi0 O0 2.101535 1_555
Bi0 O26 2.221842 1_555
Bi0 O27 2.221842 1_556
Bi0 O9 2.507442 1_555
Bi0 O8 2.507442 1_555
Bi1 O1 2.101535 1_555
Bi1 O24 2.221842 1_555
Bi1 O28 2.221842 1_555
Bi1 O10 2.507442 1_655
Bi1 O14 2.507442 1_555
Bi2 O2 2.101541 1_555
Bi2 O29 2.221826 1_555
Bi2 O25 2.221843 1_555
Bi2 O11 2.507440 1_655
Bi2 O15 2.507453 1_555
Bi3 O3 2.101541 1_555
Bi3 O31 2.221826 1_555
Bi3 O30 2.221843 1_555
Bi3 O12 2.507440 1_555
Bi3 O13 2.507453 1_555
Bi4 O4 2.101535 1_555
Bi4 O29 2.221842 1_555
Bi4 O28 2.221842 1_555
Bi4 O17 2.507442 1_555
Bi4 O16 2.507442 1_545
Bi5 O5 2.101535 1_555
Bi5 O31 2.221842 1_555
Bi5 O27 2.221842 1_555
Bi5 O22 2.507442 1_555
Bi5 O18 2.507442 1_555
Bi6 O6 2.101541 1_555
Bi6 O26 2.221826 1_555
Bi6 O30 2.221843 1_556
Bi6 O19 2.507440 1_555
Bi6 O23 2.507453 1_555
Bi7 O7 2.101541 1_555
Bi7 O24 2.221826 1_555
Bi7 O25 2.221843 1_555
Bi7 O20 2.507440 1_545
Bi7 O21 2.507453 1_555
O0 Y2 2.924972 1_555
O0 Y3 2.924974 1_555
O1 Y0 2.924972 1_555
O1 Y4 2.924974 1_655
O2 Y5 2.924972 1_656
O2 Y1 2.924978 1_555
O3 Y7 2.924972 1_655
O3 Y6 2.924978 1_655
O4 Y0 2.924972 1_556
O4 Y1 2.924974 1_545
O5 Y2 2.924972 1_555
O5 Y6 2.924974 1_555
O6 Y7 2.924972 1_545
O6 Y3 2.924978 1_545
O7 Y5 2.924972 1_545
O7 Y4 2.924978 1_555
O8 Y3 2.137617 1_555
O8 Y0 2.246385 1_566
O9 Y2 2.137624 1_555
O9 Y1 2.246389 1_555
O10 Y4 2.137617 1_555
O10 Y2 2.246385 1_555
O11 Y5 2.137624 1_556
O11 Y3 2.246380 1_555
O12 Y7 2.137624 1_655
O12 Y4 2.246380 1_665
O13 Y6 2.137617 1_655
O13 Y5 2.246385 1_655
O14 Y0 2.137624 1_555
O14 Y6 2.246389 1_655
O15 Y1 2.137617 1_555
O15 Y7 2.246385 1_655
O16 Y1 2.137617 1_555
O16 Y2 2.246385 1_555
O17 Y0 2.137624 1_556
O17 Y3 2.246389 1_545
O18 Y6 2.137617 1_555
O18 Y0 2.246385 1_455
O19 Y7 2.137624 1_545
O19 Y1 2.246380 1_445
O20 Y5 2.137624 1_555
O20 Y6 2.246380 1_555
O21 Y4 2.137617 1_555
O21 Y7 2.246385 1_545
O22 Y2 2.137624 1_555
O22 Y4 2.246389 1_555
O23 Y3 2.137617 1_545
O23 Y5 2.246385 1_546
