# generated using pymatgen
data_BaSrPrTiO6
_symmetry_space_group_name_H-M   'P 1'
_cell_length_a   6.02601736
_cell_length_b   6.04663988
_cell_length_c   8.51540270
_cell_angle_alpha   90.53946678
_cell_angle_beta   90.56348525
_cell_angle_gamma   89.99569417
_symmetry_Int_Tables_number   1
_chemical_formula_structural   BaSrPrTiO6
_chemical_formula_sum   'Ba2 Sr2 Pr2 Ti2 O12'
_cell_volume   310.24830681
_cell_formula_units_Z   2
loop_
 _symmetry_equiv_pos_site_id
 _symmetry_equiv_pos_as_xyz
  1  'x, y, z'
loop_
 _atom_site_type_symbol
 _atom_site_label
 _atom_site_symmetry_multiplicity
 _atom_site_fract_x
 _atom_site_fract_y
 _atom_site_fract_z
 _atom_site_occupancy
  Ba  Ba0  1  0.50585967  0.52699629  0.25015661  1
  Ba  Ba1  1  0.49414033  0.47300371  0.74984339  1
  Sr  Sr0  1  0.99152472  0.03573248  0.25525340  1
  Sr  Sr1  1  0.00847528  0.96426752  0.74474660  1
  Pr  Pr0  1  -0.00000000  0.50000000  -0.00000000  1
  Pr  Pr1  1  0.50000000  -0.00000000  0.50000000  1
  Ti  Ti0  1  0.50000000  -0.00000000  -0.00000000  1
  Ti  Ti1  1  -0.00000000  0.50000000  0.50000000  1
  O  O0  1  0.23890981  0.19464909  0.95391822  1
  O  O1  1  0.25924883  0.69774857  0.53210404  1
  O  O2  1  0.76109019  0.80535091  0.04608178  1
  O  O3  1  0.74075117  0.30225143  0.46789596  1
  O  O4  1  0.30455861  0.74124447  0.96198595  1
  O  O5  1  0.18777207  0.23257199  0.54262662  1
  O  O6  1  0.69544139  0.25875553  0.03801405  1
  O  O7  1  0.81222793  0.76742801  0.45737338  1
  O  O8  1  0.41506737  0.99288528  0.22668564  1
  O  O9  1  0.06496230  0.46611479  0.27267654  1
  O  O10  1  0.58493263  0.00711472  0.77331436  1
  O  O11  1  0.93503770  0.53388521  0.72732346  1
loop_
_geom_bond_atom_site_label_1
_geom_bond_atom_site_label_2
_geom_bond_distance
_geom_bond_site_symmetry_2
Ba0 O6 2.680369 1_555
Ba0 O9 2.691221 1_555
Ba0 O3 2.698822 1_555
Ba0 O8 2.878080 1_555
Ba0 O2 2.885531 1_555
Ba0 O7 2.919509 1_555
Ba0 O1 3.010318 1_555
Ba0 O4 3.028597 1_554
Ba0 O8 3.279544 1_545
Ba1 O4 2.680369 1_555
Ba1 O11 2.691221 1_555
Ba1 O1 2.698822 1_555
Ba1 O10 2.878080 1_555
Ba1 O0 2.885531 1_555
Ba1 O5 2.919509 1_555
Ba1 O3 3.010318 1_555
Ba1 O6 3.028597 1_556
Ba1 O10 3.279544 1_565
O0 Ti0 2.002724 1_556
O0 Pr0 2.373333 1_556
O0 Sr1 2.635581 1_545
O0 Sr0 3.138769 1_456
O1 Ti1 1.982620 1_555
O1 Pr1 2.353130 1_565
O1 Sr1 2.856216 1_555
O2 Ti0 2.002724 1_565
O2 Pr0 2.373333 1_655
O2 Sr0 2.635581 1_565
O2 Sr1 3.138769 1_654
O3 Ti1 1.982620 1_655
O3 Pr1 2.353130 1_555
O3 Sr0 2.856216 1_555
O4 Ti0 1.980671 1_566
O4 Pr0 2.371046 1_556
O4 Sr1 2.899258 1_555
O5 Ti1 2.007389 1_555
O5 Pr1 2.377564 1_555
O5 Sr1 2.617455 1_545
O5 Sr0 2.948198 1_455
O6 Ti0 1.980671 1_555
O6 Pr0 2.371046 1_655
O6 Sr0 2.899258 1_555
O7 Ti1 2.007389 1_655
O7 Pr1 2.377564 1_565
O7 Sr0 2.617455 1_565
O7 Sr1 2.948198 1_655
O8 Ti0 2.002730 1_565
O8 Pr1 2.378064 1_565
O8 Sr0 2.579019 1_465
O9 Ti1 1.987405 1_555
O9 Pr0 2.361725 1_555
O9 Sr0 2.642305 1_455
O10 Ti0 2.002730 1_556
O10 Pr1 2.378064 1_555
O10 Sr1 2.579019 1_645
O11 Ti1 1.987405 1_655
O11 Pr0 2.361725 1_656
O11 Sr1 2.642305 1_655
