# generated using pymatgen
data_K2Na4Li2Ti4Mn3Fe(SiO3)16
_symmetry_space_group_name_H-M   'P 1'
_cell_length_a   10.11725900
_cell_length_b   10.51512271
_cell_length_c   10.51588918
_cell_angle_alpha   75.03529406
_cell_angle_beta   70.44303898
_cell_angle_gamma   70.31066630
_symmetry_Int_Tables_number   1
_chemical_formula_structural   K2Na4Li2Ti4Mn3Fe(SiO3)16
_chemical_formula_sum   'K2 Na4 Li2 Ti4 Mn3 Fe1 Si16 O48'
_cell_volume   979.12240060
_cell_formula_units_Z   1
loop_
 _symmetry_equiv_pos_site_id
 _symmetry_equiv_pos_as_xyz
  1  'x, y, z'
loop_
 _atom_site_type_symbol
 _atom_site_label
 _atom_site_symmetry_multiplicity
 _atom_site_fract_x
 _atom_site_fract_y
 _atom_site_fract_z
 _atom_site_occupancy
  K  K0  1  0.24982100  0.43155500  0.56809700  1
  K  K1  1  0.75028500  0.56779600  0.43204700  1
  Na  Na0  1  0.69803200  0.05142200  0.47252400  1
  Na  Na1  1  0.80203200  0.52743500  0.94847000  1
  Na  Na2  1  0.30197400  0.94871200  0.52718100  1
  Na  Na3  1  0.19820800  0.47245900  0.05169300  1
  Li  Li0  1  0.24881800  0.92697000  0.07544600  1
  Li  Li1  1  0.75012500  0.07311600  0.92641200  1
  Ti  Ti0  1  0.37964600  0.14373600  0.03540800  1
  Ti  Ti1  1  0.11967800  0.96571800  0.85581500  1
  Ti  Ti2  1  0.61978000  0.85591100  0.96526700  1
  Ti  Ti3  1  0.88096700  0.03396100  0.14428600  1
  Mn  Mn0  1  0.40200300  0.65507500  0.02666100  1
  Mn  Mn1  1  0.90376400  0.02689100  0.65269100  1
  Mn  Mn2  1  0.59800300  0.34537000  0.97295000  1
  Fe  Fe0  1  0.09701100  0.97113500  0.34581400  1
  Si  Si0  1  0.10747800  0.70695500  0.75630700  1
  Si  Si1  1  0.39241500  0.24405600  0.29317700  1
  Si  Si2  1  0.89267700  0.29257800  0.24425400  1
  Si  Si3  1  0.60783500  0.75605900  0.70675000  1
  Si  Si4  1  0.93559400  0.74263100  0.54989100  1
  Si  Si5  1  0.56404700  0.45019400  0.25785900  1
  Si  Si6  1  0.06539100  0.25578600  0.44883400  1
  Si  Si7  1  0.43551300  0.55032300  0.74239200  1
  Si  Si8  1  0.08117300  0.25166000  0.95587000  1
  Si  Si9  1  0.41856600  0.04432800  0.74836500  1
  Si  Si10  1  0.91867200  0.74848100  0.04435900  1
  Si  Si11  1  0.58145200  0.95582500  0.25186300  1
  Si  Si12  1  0.41803400  0.75066100  0.29633300  1
  Si  Si13  1  0.08098800  0.70385400  0.25119000  1
  Si  Si14  1  0.58130100  0.25051400  0.70316600  1
  Si  Si15  1  0.91909100  0.29620400  0.74900800  1
  O  O0  1  0.01988400  0.66788400  0.67186600  1
  O  O1  1  0.47950100  0.32873300  0.33267200  1
  O  O2  1  0.98004600  0.33279900  0.32778500  1
  O  O3  1  0.52012200  0.67187000  0.66749400  1
  O  O4  1  0.90518500  0.12901300  0.27404900  1
  O  O5  1  0.59821500  0.72673000  0.86917500  1
  O  O6  1  0.09786500  0.86924600  0.72701400  1
  O  O7  1  0.40194800  0.27317600  0.13090200  1
  O  O8  1  0.26100400  0.81227700  0.39598100  1
  O  O9  1  0.23706500  0.60237900  0.19313100  1
  O  O10  1  0.73676500  0.19263600  0.60115400  1
  O  O11  1  0.76345700  0.39853900  0.80650200  1
  O  O12  1  0.06306100  0.86916800  0.21317400  1
  O  O13  1  0.43590000  0.78820200  0.13143500  1
  O  O14  1  0.93615000  0.13091800  0.78785700  1
  O  O15  1  0.56415900  0.21222800  0.86837600  1
  O  O16  1  0.25636500  0.07265200  0.16834300  1
  O  O17  1  0.24294900  0.83215900  0.92753400  1
  O  O18  1  0.74332400  0.92661600  0.83224900  1
  O  O19  1  0.75695300  0.16822600  0.07381300  1
  O  O20  1  0.24098800  0.26847600  0.93999500  1
  O  O21  1  0.25861400  0.06030200  0.73157800  1
  O  O22  1  0.75873300  0.73156300  0.06069300  1
  O  O23  1  0.74155800  0.93944000  0.26837500  1
  O  O24  1  0.06930400  0.09226900  0.99722900  1
  O  O25  1  0.43060500  0.00265700  0.90774300  1
  O  O26  1  0.93039000  0.90791500  0.00299300  1
  O  O27  1  0.56947700  0.99717400  0.09250100  1
  O  O28  1  0.77360600  0.71271300  0.60976200  1
  O  O29  1  0.72623400  0.38916500  0.28828000  1
  O  O30  1  0.22672000  0.28722400  0.39008500  1
  O  O31  1  0.27357500  0.61022300  0.71182900  1
  O  O32  1  0.92015700  0.90374300  0.51198800  1
  O  O33  1  0.58079200  0.48670300  0.09663400  1
  O  O34  1  0.08118200  0.09494000  0.48412300  1
  O  O35  1  0.41906900  0.51378400  0.90355800  1
  O  O36  1  0.03592500  0.65893000  0.92172600  1
  O  O37  1  0.46467300  0.07853400  0.34128200  1
  O  O38  1  0.96351400  0.34077100  0.07872600  1
  O  O39  1  0.53585400  0.92164100  0.65886600  1
  O  O40  1  0.96530000  0.67203000  0.18566900  1
  O  O41  1  0.53396900  0.81479200  0.32926500  1
  O  O42  1  0.03482000  0.32845900  0.81437700  1
  O  O43  1  0.46495500  0.18560500  0.67140700  1
  O  O44  1  0.01785500  0.65866000  0.42052800  1
  O  O45  1  0.48099400  0.58102300  0.34101700  1
  O  O46  1  0.98343900  0.33824300  0.57964400  1
  O  O47  1  0.51740700  0.42019800  0.65923500  1
loop_
_geom_bond_atom_site_label_1
_geom_bond_atom_site_label_2
_geom_bond_distance
_geom_bond_site_symmetry_2
K0 O30 2.803795 1_555
K0 O31 2.808170 1_555
K0 O1 2.921601 1_555
K0 O0 2.929748 1_555
K0 O43 2.990834 1_555
K0 O42 2.996927 1_555
K0 O47 3.118015 1_555
K0 O46 3.121225 1_455
K0 O44 3.219706 1_555
K0 O45 3.231440 1_555
K1 O28 2.806853 1_555
K1 O29 2.809593 1_555
K1 O2 2.921291 1_555
K1 O3 2.927893 1_555
K1 O41 3.001174 1_555
K1 O40 3.002153 1_555
K1 O44 3.117589 1_655
K1 O45 3.127376 1_555
K1 O47 3.232370 1_555
K1 O46 3.237173 1_555
Na0 O32 2.360928 1_545
Na0 O10 2.443850 1_555
Na0 O39 2.523803 1_545
Na0 O23 2.551943 1_545
Na0 O4 2.599720 1_555
Na0 O43 2.811714 1_555
Na0 O37 3.014108 1_555
Na1 O33 2.363840 1_556
Na1 O11 2.451454 1_555
Na1 O38 2.519295 1_556
Na1 O22 2.553478 1_556
Na1 O5 2.583772 1_555
Na1 O42 2.809384 1_655
Na1 O36 3.024721 1_655
Na2 O34 2.358454 1_565
Na2 O8 2.437070 1_555
Na2 O37 2.525121 1_565
Na2 O21 2.552188 1_565
Na2 O6 2.594062 1_555
Na2 O41 2.799948 1_555
Na2 O39 3.022242 1_555
Na3 O35 2.362796 1_554
Na3 O9 2.456780 1_555
Na3 O36 2.521358 1_554
Na3 O20 2.550073 1_554
Na3 O7 2.582877 1_555
Na3 O40 2.813091 1_455
Na3 O38 3.032600 1_455
Li0 O16 2.051430 1_565
Li0 O17 2.078305 1_554
Li0 O12 2.119393 1_555
Li0 O13 2.121248 1_555
Li0 O24 2.265131 1_564
Li0 O25 2.283875 1_564
Li1 O18 2.064727 1_545
Li1 O19 2.080014 1_556
Li1 O15 2.122564 1_555
Li1 O14 2.124167 1_555
Li1 O26 2.262367 1_546
Li1 O27 2.270370 1_546
Mn0 O9 2.079079 1_555
Mn0 O35 2.140958 1_554
Mn0 O13 2.159658 1_555
Mn0 O33 2.237906 1_555
Mn0 O17 2.290166 1_554
Mn0 O5 2.326708 1_554
Mn1 O10 2.080106 1_555
Mn1 O32 2.138710 1_545
Mn1 O14 2.163450 1_555
Mn1 O34 2.226302 1_655
Mn1 O6 2.319483 1_645
Mn1 O18 2.320571 1_545
Mn2 O11 2.083751 1_555
Mn2 O33 2.145427 1_556
Mn2 O15 2.157960 1_555
Mn2 O35 2.236647 1_555
Mn2 O19 2.298667 1_556
Mn2 O7 2.329667 1_556
Fe0 O8 2.021076 1_555
Fe0 O34 2.125378 1_565
Fe0 O12 2.134104 1_555
Fe0 O32 2.208822 1_455
Fe0 O4 2.292274 1_465
Fe0 O16 2.310441 1_565
O0 Si0 1.644152 1_555
O0 Si4 1.658390 1_455
O1 Si1 1.645044 1_555
O1 Si5 1.657854 1_555
O2 Si2 1.641766 1_555
O2 Si6 1.659525 1_655
O3 Si3 1.644674 1_555
O3 Si7 1.659082 1_555
O4 Si2 1.635188 1_555
O4 Ti3 2.003569 1_555
O5 Si3 1.630608 1_555
O5 Ti2 1.992487 1_555
O6 Si0 1.628883 1_555
O6 Ti1 1.993202 1_555
O7 Si1 1.629400 1_555
O7 Ti0 1.994088 1_555
O8 Si12 1.607583 1_555
O9 Si13 1.600128 1_555
O10 Si14 1.599255 1_555
O11 Si15 1.599908 1_555
O12 Si13 1.640608 1_555
O12 Ti3 2.239542 1_465
O13 Si12 1.637115 1_555
O13 Ti2 2.257188 1_554
O14 Si15 1.641866 1_555
O14 Ti1 2.247164 1_645
O15 Si14 1.641518 1_555
O15 Ti0 2.268516 1_556
O16 Ti0 1.729113 1_555
O17 Ti1 1.731764 1_555
O18 Ti2 1.729243 1_555
O19 Ti3 1.733548 1_555
O20 Si8 1.634064 1_555
O20 Ti0 1.928181 1_556
O21 Si9 1.634311 1_555
O21 Ti1 1.927011 1_545
O22 Si10 1.634519 1_555
O22 Ti2 1.929037 1_554
O23 Si11 1.633552 1_555
O23 Ti3 1.929397 1_565
O24 Si8 1.654328 1_555
O24 Ti1 2.073535 1_545
O24 Ti3 2.173231 1_456
O25 Si9 1.654463 1_555
O25 Ti0 2.078122 1_556
O25 Ti2 2.170961 1_545
O26 Si10 1.654267 1_555
O26 Ti3 2.070608 1_565
O26 Ti1 2.178650 1_654
O27 Si11 1.654167 1_555
O27 Ti2 2.077674 1_554
O27 Ti0 2.173423 1_565
O28 Si3 1.624987 1_555
O28 Si4 1.653964 1_555
O29 Si2 1.627871 1_555
O29 Si5 1.656056 1_555
O30 Si1 1.623953 1_555
O30 Si6 1.654711 1_555
O31 Si0 1.626339 1_555
O31 Si7 1.654355 1_555
O32 Si4 1.602478 1_555
O33 Si5 1.601852 1_555
O34 Si6 1.599142 1_555
O35 Si7 1.601770 1_555
O36 Si0 1.659707 1_555
O36 Si10 1.675480 1_456
O37 Si1 1.659855 1_555
O37 Si11 1.673485 1_545
O38 Si2 1.659625 1_555
O38 Si8 1.675739 1_654
O39 Si3 1.659427 1_555
O39 Si9 1.675106 1_565
O40 Si10 1.635183 1_555
O40 Si13 1.696928 1_655
O41 Si11 1.639332 1_555
O41 Si12 1.695881 1_555
O42 Si8 1.636277 1_555
O42 Si15 1.698626 1_455
O43 Si9 1.636059 1_555
O43 Si14 1.698596 1_555
O44 Si4 1.640141 1_455
O44 Si13 1.676561 1_555
O45 Si5 1.647332 1_555
O45 Si12 1.676376 1_555
O46 Si6 1.642992 1_655
O46 Si15 1.674010 1_555
O47 Si7 1.640831 1_555
O47 Si14 1.676863 1_555
