# generated using pymatgen
data_Li2MnCo3O8
_symmetry_space_group_name_H-M   'P 1'
_cell_length_a   5.93836586
_cell_length_b   5.99291962
_cell_length_c   8.11655714
_cell_angle_alpha   87.42918269
_cell_angle_beta   90.02052861
_cell_angle_gamma   89.95433016
_symmetry_Int_Tables_number   1
_chemical_formula_structural   Li2MnCo3O8
_chemical_formula_sum   'Li4 Mn2 Co6 O16'
_cell_volume   288.56241520
_cell_formula_units_Z   2
loop_
 _symmetry_equiv_pos_site_id
 _symmetry_equiv_pos_as_xyz
  1  'x, y, z'
loop_
 _atom_site_type_symbol
 _atom_site_label
 _atom_site_symmetry_multiplicity
 _atom_site_fract_x
 _atom_site_fract_y
 _atom_site_fract_z
 _atom_site_occupancy
  Li  Li0  1  0.99427800  0.00093300  0.49961200  1
  Li  Li1  1  0.50523100  0.49868900  0.00070100  1
  Li  Li2  1  0.50404100  0.00112900  0.49955300  1
  Li  Li3  1  0.99624000  0.49890700  0.00012100  1
  Mn  Mn0  1  0.50550000  0.50018700  0.50015500  1
  Mn  Mn1  1  0.99271200  0.99955900  0.00005900  1
  Co  Co0  1  0.49784900  0.99914500  0.99963200  1
  Co  Co1  1  0.00128000  0.50073800  0.50035400  1
  Co  Co2  1  0.25043300  0.74924300  0.25003800  1
  Co  Co3  1  0.75021200  0.25020200  0.75003000  1
  Co  Co4  1  0.75029900  0.74960300  0.25000400  1
  Co  Co5  1  0.25058300  0.25086900  0.75003200  1
  O  O0  1  0.51781100  0.96327500  0.23531000  1
  O  O1  1  0.98159700  0.46351700  0.73548300  1
  O  O2  1  0.51868600  0.03767100  0.76385500  1
  O  O3  1  0.98297100  0.53593500  0.26484500  1
  O  O4  1  0.98290400  0.03508300  0.76100600  1
  O  O5  1  0.51552400  0.53407400  0.26167800  1
  O  O6  1  0.98468000  0.96601300  0.23827100  1
  O  O7  1  0.51699900  0.46583500  0.73957400  1
  O  O8  1  0.73786000  0.27180900  0.51545000  1
  O  O9  1  0.23377000  0.77455200  0.01061700  1
  O  O10  1  0.26642300  0.27468800  0.51254800  1
  O  O11  1  0.76257500  0.76809600  0.01710400  1
  O  O12  1  0.73718600  0.73012500  0.48275300  1
  O  O13  1  0.23395400  0.22555700  0.98721300  1
  O  O14  1  0.26638500  0.72529800  0.48966900  1
  O  O15  1  0.76201900  0.22926800  0.98433400  1
loop_
_geom_bond_atom_site_label_1
_geom_bond_atom_site_label_2
_geom_bond_distance
_geom_bond_site_symmetry_2
Li0 O6 2.141551 1_545
Li0 O4 2.141670 1_555
Li0 O8 2.232778 1_555
Li0 O12 2.237674 1_545
Li0 O10 2.309522 1_655
Li0 O14 2.313868 1_645
Li1 O7 2.138515 1_554
Li1 O5 2.139123 1_555
Li1 O15 2.228323 1_554
Li1 O11 2.232246 1_555
Li1 O13 2.303601 1_554
Li1 O9 2.312156 1_555
Li2 O12 2.142328 1_545
Li2 O8 2.144351 1_555
Li2 O2 2.167842 1_555
Li2 O0 2.168368 1_545
Li2 O10 2.168373 1_555
Li2 O14 2.178583 1_545
Li3 O11 2.136217 1_555
Li3 O15 2.141083 1_554
Li3 O13 2.167737 1_654
Li3 O1 2.169561 1_554
Li3 O3 2.171406 1_555
Li3 O9 2.177606 1_655
Mn0 O5 1.938097 1_555
Mn0 O8 1.942729 1_555
Mn0 O7 1.946096 1_555
Mn0 O12 1.948707 1_555
Mn0 O14 1.957055 1_555
Mn0 O10 1.960353 1_555
Mn1 O6 1.935504 1_555
Mn1 O15 1.941451 1_564
Mn1 O4 1.943264 1_564
Mn1 O11 1.948573 1_555
Mn1 O9 1.965017 1_655
Mn1 O13 1.971818 1_664
Co0 O0 1.918941 1_556
Co0 O2 1.921311 1_565
Co0 O9 2.066766 1_556
Co0 O13 2.071545 1_565
Co0 O15 2.089623 1_565
Co0 O11 2.094625 1_556
Co1 O1 1.915089 1_455
Co1 O3 1.916736 1_455
Co1 O14 2.071235 1_555
Co1 O10 2.075709 1_555
Co1 O8 2.081522 1_455
Co1 O12 2.085308 1_455
Co2 O9 1.944867 1_555
Co2 O14 1.946103 1_555
Co2 O5 2.033610 1_555
Co2 O3 2.039813 1_455
Co2 O0 2.042119 1_555
Co2 O6 2.042733 1_455
Co3 O2 1.874899 1_555
Co3 O1 1.877653 1_555
Co3 O4 1.888417 1_555
Co3 O7 1.892710 1_555
Co3 O15 1.901516 1_555
Co3 O8 1.903960 1_555
Co4 O0 1.882384 1_555
Co4 O3 1.883208 1_555
Co4 O12 1.889128 1_555
Co4 O11 1.890059 1_555
Co4 O5 1.900804 1_555
Co4 O6 1.902683 1_555
Co5 O13 1.926839 1_555
Co5 O10 1.928769 1_555
Co5 O7 2.040430 1_555
Co5 O2 2.040486 1_555
Co5 O1 2.042695 1_455
Co5 O4 2.049406 1_455
