# generated using pymatgen
data_Sr4S3O
_symmetry_space_group_name_H-M   'P 1'
_cell_length_a   5.90300000
_cell_length_b   5.90300000
_cell_length_c   5.90300000
_cell_angle_alpha   90.00000000
_cell_angle_beta   90.00000000
_cell_angle_gamma   90.00000000
_symmetry_Int_Tables_number   1
_chemical_formula_structural   Sr4S3O
_chemical_formula_sum   'Sr4 S3 O1'
_cell_volume   205.69244933
_cell_formula_units_Z   1
loop_
 _symmetry_equiv_pos_site_id
 _symmetry_equiv_pos_as_xyz
  1  'x, y, z'
loop_
 _atom_site_type_symbol
 _atom_site_label
 _atom_site_symmetry_multiplicity
 _atom_site_fract_x
 _atom_site_fract_y
 _atom_site_fract_z
 _atom_site_occupancy
  Sr  Sr0  1  0.00000000  0.00000000  0.50000000  1
  Sr  Sr1  1  0.50000000  0.50000000  0.50000000  1
  Sr  Sr2  1  0.50000000  0.00000000  0.00000000  1
  Sr  Sr3  1  0.00000000  0.50000000  0.00000000  1
  S  S0  1  0.50000000  0.50000000  0.00000000  1
  S  S1  1  0.50000000  0.00000000  0.50000000  1
  S  S2  1  0.00000000  0.50000000  0.50000000  1
  O  O0  1  0.00000000  0.00000000  0.00000000  1
loop_
_geom_bond_atom_site_label_1
_geom_bond_atom_site_label_2
_geom_bond_distance
_geom_bond_site_symmetry_2
S0 Sr2 2.951500 1_565
S0 Sr2 2.951500 1_555
S0 Sr3 2.951500 1_555
S0 Sr3 2.951500 1_655
S0 Sr1 2.951500 1_554
S0 Sr1 2.951500 1_555
S1 Sr2 2.951500 1_556
S1 Sr2 2.951500 1_555
S1 Sr1 2.951500 1_545
S1 Sr0 2.951500 1_555
S1 Sr1 2.951500 1_555
S1 Sr0 2.951500 1_655
S2 Sr3 2.951500 1_555
S2 Sr1 2.951500 1_555
S2 Sr0 2.951500 1_555
S2 Sr3 2.951500 1_556
S2 Sr1 2.951500 1_455
S2 Sr0 2.951500 1_565
O0 Sr2 2.951500 1_555
O0 Sr3 2.951500 1_555
O0 Sr0 2.951500 1_555
O0 Sr0 2.951500 1_554
O0 Sr3 2.951500 1_545
O0 Sr2 2.951500 1_455
