# generated using pymatgen
data_TiMnV2
_symmetry_space_group_name_H-M   'P 1'
_cell_length_a   5.30621939
_cell_length_b   5.30621939
_cell_length_c   16.44573961
_cell_angle_alpha   90.00000000
_cell_angle_beta   90.00000000
_cell_angle_gamma   111.63048733
_symmetry_Int_Tables_number   1
_chemical_formula_structural   TiMnV2
_chemical_formula_sum   'Ti8 Mn8 V16'
_cell_volume   430.43820088
_cell_formula_units_Z   8
loop_
 _symmetry_equiv_pos_site_id
 _symmetry_equiv_pos_as_xyz
  1  'x, y, z'
loop_
 _atom_site_type_symbol
 _atom_site_label
 _atom_site_symmetry_multiplicity
 _atom_site_fract_x
 _atom_site_fract_y
 _atom_site_fract_z
 _atom_site_occupancy
  Ti  Ti0_0  1  0.00000000  0.00000000  0.00904400  1
  Ti  Ti0_1  1  0.00000000  0.00000000  0.50904400  1
  Ti  Ti0_2  1  0.00000000  0.50000000  0.00904400  1
  Ti  Ti0_3  1  1.00000000  0.50000000  0.50904400  1
  Ti  Ti0_4  1  0.50000000  0.00000000  0.00904400  1
  Ti  Ti0_5  1  0.50000000  1.00000000  0.50904400  1
  Ti  Ti0_6  1  0.50000000  0.50000000  0.00904400  1
  Ti  Ti0_7  1  0.50000000  0.50000000  0.50904400  1
  Mn  Mn0_0  1  0.25000000  0.25000000  0.13005350  1
  Mn  Mn0_1  1  0.25000000  0.25000000  0.63005350  1
  Mn  Mn0_2  1  0.25000000  0.75000000  0.13005350  1
  Mn  Mn0_3  1  0.25000000  0.75000000  0.63005350  1
  Mn  Mn0_4  1  0.75000000  0.25000000  0.13005350  1
  Mn  Mn0_5  1  0.75000000  0.25000000  0.63005350  1
  Mn  Mn0_6  1  0.75000000  0.75000000  0.13005350  1
  Mn  Mn0_7  1  0.75000000  0.75000000  0.63005350  1
  V  V0_0  1  0.00000000  0.00000000  0.24264000  1
  V  V0_1  1  0.00000000  0.00000000  0.74264000  1
  V  V0_2  1  0.00000000  0.50000000  0.24264000  1
  V  V0_3  1  1.00000000  0.50000000  0.74264000  1
  V  V0_4  1  0.50000000  0.00000000  0.24264000  1
  V  V0_5  1  0.50000000  1.00000000  0.74264000  1
  V  V0_6  1  0.50000000  0.50000000  0.24264000  1
  V  V0_7  1  0.50000000  0.50000000  0.74264000  1
  V  V1_0  1  0.25000000  0.25000000  0.36826300  1
  V  V1_1  1  0.25000000  0.25000000  0.86826300  1
  V  V1_2  1  0.25000000  0.75000000  0.36826300  1
  V  V1_3  1  0.25000000  0.75000000  0.86826300  1
  V  V1_4  1  0.75000000  0.25000000  0.36826300  1
  V  V1_5  1  0.75000000  0.25000000  0.86826300  1
  V  V1_6  1  0.75000000  0.75000000  0.36826300  1
  V  V1_7  1  0.75000000  0.75000000  0.86826300  1
loop_
_geom_bond_atom_site_label_1
_geom_bond_atom_site_label_2
_geom_bond_distance
_geom_bond_site_symmetry_2
Ti0_0 Ti0_2 2.653110 1_545
Ti0_0 Ti0_4 2.653110 1_455
Ti0_0 Ti0_4 2.653110 1_555
Ti0_0 Ti0_2 2.653110 1_555
Ti0_0 V1_7 2.753636 1_444
Ti0_0 V1_1 2.753636 1_554
Ti0_1 Ti0_3 2.653110 1_445
Ti0_1 Ti0_5 2.653110 1_445
Ti0_1 Ti0_3 2.653110 1_455
Ti0_1 Ti0_5 2.653110 1_545
Ti0_1 V1_6 2.753636 1_445
Ti0_1 V1_0 2.753636 1_555
Ti0_2 Ti0_6 2.653110 1_455
Ti0_2 Ti0_6 2.653110 1_555
Ti0_2 V1_3 2.753636 1_554
Ti0_2 V1_5 2.753636 1_454
Ti0_3 Ti0_7 2.653110 1_555
Ti0_3 Ti0_7 2.653110 1_655
Ti0_3 V1_4 2.753636 1_555
Ti0_3 V1_2 2.753636 1_655
Ti0_4 Ti0_6 2.653110 1_545
Ti0_4 Ti0_6 2.653110 1_555
Ti0_4 V1_3 2.753636 1_544
Ti0_4 V1_5 2.753636 1_554
Ti0_5 Ti0_7 2.653110 1_555
Ti0_5 Ti0_7 2.653110 1_565
Ti0_5 V1_4 2.753636 1_565
Ti0_5 V1_2 2.753636 1_555
Ti0_6 V1_1 2.753636 1_554
Ti0_6 V1_7 2.753636 1_554
Ti0_7 V1_6 2.753636 1_555
Ti0_7 V1_0 2.753636 1_555
Mn0_0 V0_0 2.377067 1_555
Mn0_0 V0_6 2.377067 1_555
Mn0_0 Ti0_6 2.486484 1_555
Mn0_0 Ti0_0 2.486484 1_555
Mn0_1 V0_1 2.377067 1_555
Mn0_1 V0_7 2.377067 1_555
Mn0_1 Ti0_1 2.486484 1_555
Mn0_1 Ti0_7 2.486484 1_555
Mn0_2 V0_4 2.377067 1_565
Mn0_2 V0_2 2.377067 1_555
Mn0_2 Ti0_2 2.486484 1_555
Mn0_2 Ti0_4 2.486484 1_565
Mn0_3 V0_3 2.377067 1_455
Mn0_3 V0_5 2.377067 1_555
Mn0_3 Ti0_5 2.486484 1_555
Mn0_3 Ti0_3 2.486484 1_455
Mn0_4 V0_4 2.377067 1_555
Mn0_4 V0_2 2.377067 1_655
Mn0_4 Ti0_2 2.486484 1_655
Mn0_4 Ti0_4 2.486484 1_555
Mn0_5 V0_5 2.377067 1_545
Mn0_5 V0_3 2.377067 1_555
Mn0_5 Ti0_3 2.486484 1_555
Mn0_5 Ti0_5 2.486484 1_545
Mn0_6 V0_0 2.377067 1_665
Mn0_6 V0_6 2.377067 1_555
Mn0_6 Ti0_6 2.486484 1_555
Mn0_6 Ti0_0 2.486484 1_665
Mn0_7 V0_7 2.377067 1_555
Mn0_7 V0_1 2.377067 1_665
Mn0_7 Ti0_1 2.486484 1_665
Mn0_7 Ti0_7 2.486484 1_555
V0_0 V1_0 2.547616 1_555
V0_0 V1_6 2.547616 1_445
V0_1 V1_7 2.547616 1_445
V0_1 V1_1 2.547616 1_555
V0_2 V1_4 2.547616 1_455
V0_2 V1_2 2.547616 1_555
V0_3 V1_5 2.547616 1_555
V0_3 V1_3 2.547616 1_655
V0_4 V1_2 2.547616 1_545
V0_4 V1_4 2.547616 1_555
V0_5 V1_5 2.547616 1_565
V0_5 V1_3 2.547616 1_555
V0_6 V1_0 2.547616 1_555
V0_6 V1_6 2.547616 1_555
V0_7 V1_7 2.547616 1_555
V0_7 V1_1 2.547616 1_555
V1_0 V1_4 2.653110 1_455
V1_0 V1_2 2.653110 1_545
V1_0 V1_2 2.653110 1_555
V1_0 V1_4 2.653110 1_555
V1_1 V1_3 2.653110 1_545
V1_1 V1_5 2.653110 1_455
V1_1 V1_5 2.653110 1_555
V1_1 V1_3 2.653110 1_555
V1_2 V1_6 2.653110 1_455
V1_2 V1_6 2.653110 1_555
V1_3 V1_7 2.653110 1_455
V1_3 V1_7 2.653110 1_555
V1_4 V1_6 2.653110 1_545
V1_4 V1_6 2.653110 1_555
V1_5 V1_7 2.653110 1_545
V1_5 V1_7 2.653110 1_555
