# generated using pymatgen
data_K2NbCuS2
_symmetry_space_group_name_H-M   'P 1'
_cell_length_a   5.71969500
_cell_length_b   6.70986870
_cell_length_c   17.76683683
_cell_angle_alpha   86.06608138
_cell_angle_beta   80.73706080
_cell_angle_gamma   64.77240386
_symmetry_Int_Tables_number   1
_chemical_formula_structural   K2NbCuS2
_chemical_formula_sum   'K8 Nb4 Cu4 S8'
_cell_volume   608.78460476
_cell_formula_units_Z   4
loop_
 _symmetry_equiv_pos_site_id
 _symmetry_equiv_pos_as_xyz
  1  'x, y, z'
loop_
 _atom_site_type_symbol
 _atom_site_label
 _atom_site_symmetry_multiplicity
 _atom_site_fract_x
 _atom_site_fract_y
 _atom_site_fract_z
 _atom_site_occupancy
  K  K0  1  0.54502200  0.26277000  0.57807600  1
  K  K1  1  0.87690100  0.73723000  0.57807600  1
  K  K2  1  0.19220700  0.26277000  0.42192400  1
  K  K3  1  0.20497800  0.23723000  0.92192400  1
  K  K4  1  0.38586900  0.73723000  0.42192400  1
  K  K5  1  0.87309900  0.76277000  0.92192400  1
  K  K6  1  0.55779300  0.23723000  0.07807600  1
  K  K7  1  0.36413100  0.76277000  0.07807600  1
  Nb  Nb0  1  0.87500000  0.25000000  0.25000000  1
  Nb  Nb1  1  0.87500000  0.75000000  0.25000000  1
  Nb  Nb2  1  0.87500000  0.25000000  0.75000000  1
  Nb  Nb3  1  0.37500000  0.75000000  0.75000000  1
  Cu  Cu0  1  0.37500000  0.25000000  0.25000000  1
  Cu  Cu1  1  0.37500000  0.75000000  0.25000000  1
  Cu  Cu2  1  0.37500000  0.25000000  0.75000000  1
  Cu  Cu3  1  0.87500000  0.75000000  0.75000000  1
  S  S0  1  0.03434700  0.23253800  0.11987000  1
  S  S1  1  0.84578300  0.76746200  0.11987000  1
  S  S2  1  0.73311500  0.23253800  0.88013000  1
  S  S3  1  0.71565300  0.26746200  0.38013000  1
  S  S4  1  0.38675600  0.76746200  0.88013000  1
  S  S5  1  0.90421700  0.73253800  0.38013000  1
  S  S6  1  0.01688500  0.26746200  0.61987000  1
  S  S7  1  0.36324400  0.73253800  0.61987000  1
loop_
_geom_bond_atom_site_label_1
_geom_bond_atom_site_label_2
_geom_bond_distance
_geom_bond_site_symmetry_2
K0 S6 2.925287 1_655
K0 S7 2.974386 1_555
K0 S6 2.979517 1_555
K0 S3 3.496844 1_555
K1 S7 2.925287 1_555
K1 S6 2.974386 1_655
K1 S7 2.979517 1_655
K1 S5 3.496843 1_555
K2 S3 2.925282 1_455
K2 S5 2.974386 1_455
K2 S3 2.979522 1_555
K2 S6 3.496843 1_555
K3 S2 2.925287 1_455
K3 S4 2.974386 1_545
K3 S2 2.979517 1_555
K3 S0 3.496844 1_556
K4 S5 2.925282 1_555
K4 S3 2.974386 1_555
K4 S5 2.979522 1_455
K4 S7 3.496843 1_555
K5 S4 2.925287 1_655
K5 S2 2.974386 1_565
K5 S4 2.979517 1_555
K5 S1 3.496843 1_556
K6 S0 2.925282 1_655
K6 S1 2.974386 1_545
K6 S0 2.979522 1_555
K6 S2 3.496843 1_554
K7 S1 2.925282 1_455
K7 S0 2.974386 1_565
K7 S1 2.979522 1_555
K7 S4 3.496843 1_554
Nb0 S0 2.336132 1_655
Nb0 S3 2.336132 1_555
Nb1 S5 2.336132 1_555
Nb1 S1 2.336132 1_555
Nb2 S6 2.336132 1_655
Nb2 S2 2.336132 1_555
Nb3 S4 2.336133 1_555
Nb3 S7 2.336133 1_555
Cu0 Nb0 2.859847 1_455
Cu0 Nb0 2.859847 1_555
Cu0 K2 3.059761 1_555
Cu0 K6 3.059761 1_555
Cu1 Nb1 2.859847 1_555
Cu1 Nb1 2.859847 1_455
Cu1 K4 3.059761 1_555
Cu1 K7 3.059761 1_555
Cu2 Nb2 2.859847 1_555
Cu2 Nb2 2.859847 1_455
Cu2 K3 3.059760 1_555
Cu2 K0 3.059760 1_555
Cu3 Nb3 2.859847 1_555
Cu3 Nb3 2.859847 1_655
Cu3 K5 3.059761 1_555
Cu3 K1 3.059761 1_555
