# generated using pymatgen
data_Cs3Sc2Br9
_symmetry_space_group_name_H-M   'P 1'
_cell_length_a   7.75472792
_cell_length_b   7.75465210
_cell_length_c   19.43943950
_cell_angle_alpha   90.00507367
_cell_angle_beta   89.99684278
_cell_angle_gamma   120.00221424
_symmetry_Int_Tables_number   1
_chemical_formula_structural   Cs3Sc2Br9
_chemical_formula_sum   'Cs6 Sc4 Br18'
_cell_volume   1012.35670013
_cell_formula_units_Z   2
loop_
 _symmetry_equiv_pos_site_id
 _symmetry_equiv_pos_as_xyz
  1  'x, y, z'
loop_
 _atom_site_type_symbol
 _atom_site_label
 _atom_site_symmetry_multiplicity
 _atom_site_fract_x
 _atom_site_fract_y
 _atom_site_fract_z
 _atom_site_occupancy
  Cs  Cs0  1  0.33333236  0.66666777  0.07477692  1
  Cs  Cs1  1  0.66667111  0.33331482  0.92524423  1
  Cs  Cs2  1  0.66664007  0.33333859  0.57477051  1
  Cs  Cs3  1  0.33334861  0.66666762  0.42523678  1
  Cs  Cs4  1  -0.00000142  0.00000235  0.25000347  1
  Cs  Cs5  1  -0.00000143  0.00000139  0.75000659  1
  Sc  Sc0  1  0.33332917  0.66667847  0.65569936  1
  Sc  Sc1  1  0.66668178  0.33332809  0.34429927  1
  Sc  Sc2  1  0.66666369  0.33334019  0.15568364  1
  Sc  Sc3  1  0.33333630  0.66666036  0.84432021  1
  Br  Br0  1  0.16987340  0.33975896  0.58808137  1
  Br  Br1  1  0.83012539  0.66025792  0.41191963  1
  Br  Br2  1  0.66023505  0.83012527  0.58808119  1
  Br  Br3  1  0.83012214  0.66025375  0.08807823  1
  Br  Br4  1  0.33976091  0.16986455  0.41192051  1
  Br  Br5  1  0.16986129  0.33974293  0.91192768  1
  Br  Br6  1  0.16986157  0.83011239  0.58808081  1
  Br  Br7  1  0.33973561  0.16988054  0.08807990  1
  Br  Br8  1  0.83013706  0.16992118  0.41193240  1
  Br  Br9  1  0.66026041  0.83011014  0.91192526  1
  Br  Br10  1  0.83012506  0.16987347  0.08807756  1
  Br  Br11  1  0.16987556  0.83011721  0.91192259  1
  Br  Br12  1  0.51103724  0.02206217  0.24994457  1
  Br  Br13  1  0.48894253  0.97790490  0.75002879  1
  Br  Br14  1  0.97793507  0.48896916  0.24994322  1
  Br  Br15  1  0.02210459  0.51105132  0.74999872  1
  Br  Br16  1  0.51106277  0.48894181  0.25001184  1
  Br  Br17  1  0.48894410  0.51105268  0.75000673  1
loop_
_geom_bond_atom_site_label_1
_geom_bond_atom_site_label_2
_geom_bond_distance
_geom_bond_site_symmetry_2
Br0 Sc0 2.558789 1_555
Br0 Cs3 3.852498 1_555
Br0 Cs2 3.886035 1_555
Br0 Cs2 3.886419 1_455
Br0 Cs5 3.887835 1_555
Br1 Sc1 2.558872 1_555
Br1 Cs2 3.852640 1_555
Br1 Cs3 3.886080 1_555
Br1 Cs3 3.886390 1_655
Br1 Cs4 3.887640 1_665
Br2 Sc0 2.558796 1_555
Br2 Cs3 3.852318 1_555
Br2 Cs2 3.886084 1_555
Br2 Cs2 3.886293 1_565
Br2 Cs5 3.887767 1_665
Br3 Sc2 2.558788 1_555
Br3 Cs1 3.852191 1_554
Br3 Cs0 3.886206 1_555
Br3 Cs0 3.886224 1_655
Br3 Cs4 3.887539 1_665
Br4 Sc1 2.558913 1_555
Br4 Cs2 3.852380 1_555
Br4 Cs3 3.886146 1_545
Br4 Cs3 3.886246 1_555
Br4 Cs4 3.887631 1_555
Br5 Sc3 2.558831 1_555
Br5 Cs0 3.852380 1_556
Br5 Cs1 3.886035 1_455
Br5 Cs1 3.886436 1_555
Br5 Cs5 3.887446 1_555
Br6 Sc0 2.558936 1_555
Br6 Cs3 3.852349 1_555
Br6 Cs2 3.886054 1_455
Br6 Cs2 3.886107 1_565
Br6 Cs5 3.887590 1_565
Br7 Sc2 2.558808 1_555
Br7 Cs1 3.852321 1_554
Br7 Cs0 3.886117 1_555
Br7 Cs0 3.886240 1_545
Br7 Cs4 3.887588 1_555
Br8 Sc1 2.558855 1_555
Br8 Cs2 3.852188 1_555
Br8 Cs3 3.885904 1_655
Br8 Cs3 3.886245 1_545
Br8 Cs4 3.887751 1_655
Br9 Sc3 2.558798 1_555
Br9 Cs0 3.852548 1_556
Br9 Cs1 3.886170 1_565
Br9 Cs1 3.886230 1_555
Br9 Cs5 3.887515 1_665
Br10 Sc2 2.558778 1_555
Br10 Cs1 3.852338 1_554
Br10 Cs0 3.886050 1_545
Br10 Cs0 3.886081 1_655
Br10 Cs4 3.887869 1_655
Br11 Sc3 2.558680 1_555
Br11 Cs0 3.852715 1_556
Br11 Cs1 3.886056 1_565
Br11 Cs1 3.886127 1_455
Br11 Cs5 3.887778 1_565
Br12 Sc2 2.779923 1_555
Br12 Sc1 2.780870 1_555
Br12 Cs4 3.880130 1_655
Br12 Cs4 3.880256 1_555
Br12 Cs0 4.158150 1_545
Br12 Cs3 4.160409 1_545
Br13 Sc3 2.780145 1_555
Br13 Sc0 2.780347 1_555
Br13 Cs5 3.880147 1_565
Br13 Cs5 3.880258 1_665
Br13 Cs1 4.158970 1_565
Br13 Cs2 4.160019 1_565
Br14 Sc2 2.779808 1_555
Br14 Sc1 2.780919 1_555
Br14 Cs4 3.880152 1_655
Br14 Cs4 3.880161 1_665
Br14 Cs0 4.158266 1_655
Br14 Cs3 4.160403 1_655
Br15 Sc0 2.780047 1_555
Br15 Sc3 2.780401 1_555
Br15 Cs5 3.880137 1_555
Br15 Cs5 3.880197 1_565
Br15 Cs2 4.159559 1_455
Br15 Cs1 4.159666 1_455
Br16 Sc1 2.780112 1_555
Br16 Sc2 2.780253 1_555
Br16 Cs4 3.880046 1_665
Br16 Cs4 3.880077 1_555
Br16 Cs3 4.159265 1_555
Br16 Cs0 4.159812 1_555
Br17 Sc3 2.780130 1_555
Br17 Sc0 2.780408 1_555
Br17 Cs5 3.880042 1_555
Br17 Cs5 3.880070 1_665
Br17 Cs2 4.159330 1_555
Br17 Cs1 4.159886 1_555
