# generated using pymatgen
data_Nb9Fe3Ge2
_symmetry_space_group_name_H-M   'P 1'
_cell_length_a   5.04328500
_cell_length_b   9.85072802
_cell_length_c   9.89916286
_cell_angle_alpha   93.73879191
_cell_angle_beta   104.75776202
_cell_angle_gamma   75.16801474
_symmetry_Int_Tables_number   1
_chemical_formula_structural   Nb9Fe3Ge2
_chemical_formula_sum   'Nb18 Fe6 Ge4'
_cell_volume   459.72163120
_cell_formula_units_Z   2
loop_
 _symmetry_equiv_pos_site_id
 _symmetry_equiv_pos_as_xyz
  1  'x, y, z'
loop_
 _atom_site_type_symbol
 _atom_site_label
 _atom_site_symmetry_multiplicity
 _atom_site_fract_x
 _atom_site_fract_y
 _atom_site_fract_z
 _atom_site_occupancy
  Nb  Nb0  1  0.24402400  0.50000000  0.50000000  1
  Nb  Nb1  1  0.75597600  0.50000000  0.50000000  1
  Nb  Nb2  1  0.33083000  0.07803800  0.73969800  1
  Nb  Nb3  1  0.66917000  0.92196200  0.26030200  1
  Nb  Nb4  1  0.83227300  0.25753000  0.92207500  1
  Nb  Nb5  1  0.16772700  0.74247000  0.07792500  1
  Nb  Nb6  1  0.58980300  0.74247000  0.92207500  1
  Nb  Nb7  1  0.41019700  0.25753000  0.07792500  1
  Nb  Nb8  1  0.90886800  0.92196200  0.73969800  1
  Nb  Nb9  1  0.09113200  0.07803800  0.26030200  1
  Nb  Nb10  1  0.43138800  0.77300900  0.63578500  1
  Nb  Nb11  1  0.56861200  0.22699100  0.36421500  1
  Nb  Nb12  1  0.93292000  0.36012600  0.22596700  1
  Nb  Nb13  1  0.06708000  0.63987400  0.77403300  1
  Nb  Nb14  1  0.79304700  0.63987400  0.22596700  1
  Nb  Nb15  1  0.20695300  0.36012600  0.77403300  1
  Nb  Nb16  1  0.70439700  0.22699100  0.63578500  1
  Nb  Nb17  1  0.29560300  0.77300900  0.36421500  1
  Fe  Fe0  1  0.86588400  0.76823100  0.50000000  1
  Fe  Fe1  1  0.13411600  0.23176900  0.50000000  1
  Fe  Fe2  1  0.00000000  0.00000000  0.50000000  1
  Fe  Fe3  1  0.50000000  0.00000000  0.50000000  1
  Fe  Fe4  1  0.50000000  0.50000000  0.00000000  1
  Fe  Fe5  1  0.00000000  0.50000000  0.00000000  1
  Ge  Ge0  1  0.50000000  0.00000000  0.00000000  1
  Ge  Ge1  1  0.00000000  0.00000000  0.00000000  1
  Ge  Ge2  1  0.36955600  0.50000000  0.23911100  1
  Ge  Ge3  1  0.63044400  0.50000000  0.76088900  1
loop_
_geom_bond_atom_site_label_1
_geom_bond_atom_site_label_2
_geom_bond_distance
_geom_bond_site_symmetry_2
Nb0 Nb1 2.461365 1_455
Nb0 Nb1 2.581920 1_555
Nb0 Nb16 3.180361 1_555
Nb0 Nb11 3.180361 1_555
Nb0 Nb10 3.180361 1_555
Nb0 Nb17 3.180361 1_555
Nb0 Nb14 3.189027 1_455
Nb0 Nb13 3.189027 1_555
Nb0 Nb12 3.189029 1_455
Nb0 Nb15 3.189029 1_555
Nb1 Nb17 3.180361 1_555
Nb1 Nb10 3.180361 1_555
Nb1 Nb11 3.180361 1_555
Nb1 Nb16 3.180361 1_555
Nb1 Nb15 3.189027 1_655
Nb1 Nb12 3.189027 1_555
Nb1 Nb13 3.189029 1_655
Nb1 Nb14 3.189029 1_555
Nb10 Nb17 2.599632 1_555
Nb10 Nb6 2.755927 1_555
Nb10 Nb8 3.059415 1_455
Nb10 Nb8 3.059415 1_555
Nb10 Nb2 3.070245 1_565
Nb10 Nb13 3.117259 1_555
Nb10 Nb13 3.117263 1_655
Nb11 Nb16 2.599632 1_555
Nb11 Nb7 2.755927 1_555
Nb11 Nb9 3.059415 1_655
Nb11 Nb9 3.059415 1_555
Nb11 Nb3 3.070245 1_545
Nb11 Nb12 3.117259 1_555
Nb11 Nb12 3.117263 1_455
Nb12 Nb14 2.663903 1_555
Nb12 Nb9 2.706219 1_655
Nb12 Nb7 3.053107 1_555
Nb12 Nb7 3.053107 1_655
Nb12 Nb4 3.068709 1_554
Nb13 Nb15 2.663903 1_555
Nb13 Nb8 2.706219 1_455
Nb13 Nb6 3.053107 1_555
Nb13 Nb6 3.053107 1_455
Nb13 Nb5 3.068709 1_556
Nb14 Nb3 2.706219 1_555
Nb14 Nb5 3.053103 1_655
Nb14 Nb5 3.053111 1_555
Nb14 Nb6 3.068709 1_554
Nb14 Nb17 3.117259 1_655
Nb14 Nb17 3.117263 1_555
Nb15 Nb2 2.706219 1_555
Nb15 Nb4 3.053103 1_455
Nb15 Nb4 3.053111 1_555
Nb15 Nb7 3.068709 1_556
Nb15 Nb16 3.117259 1_455
Nb15 Nb16 3.117263 1_555
Nb16 Nb4 2.755927 1_555
Nb16 Nb2 3.059415 1_655
Nb16 Nb2 3.059415 1_555
Nb16 Nb8 3.070245 1_545
Nb17 Nb5 2.755927 1_555
Nb17 Nb3 3.059415 1_455
Nb17 Nb3 3.059415 1_555
Nb17 Nb9 3.070245 1_565
Fe0 Fe3 2.541773 1_565
Fe0 Fe2 2.541776 1_665
Fe0 Nb8 2.721746 1_555
Fe0 Nb3 2.721746 1_555
Fe0 Nb1 2.835256 1_555
Fe0 Nb0 2.835258 1_655
Fe0 Nb17 2.837298 1_555
Fe0 Nb10 2.837298 1_555
Fe0 Nb10 2.837302 1_655
Fe0 Nb17 2.837303 1_655
Fe0 Nb13 2.893993 1_655
Fe0 Nb14 2.893993 1_555
Fe1 Fe3 2.541773 1_555
Fe1 Fe2 2.541776 1_555
Fe1 Nb9 2.721746 1_555
Fe1 Nb2 2.721746 1_555
Fe1 Nb0 2.835256 1_555
Fe1 Nb1 2.835258 1_455
Fe1 Nb16 2.837298 1_555
Fe1 Nb11 2.837298 1_555
Fe1 Nb11 2.837302 1_455
Fe1 Nb16 2.837303 1_455
Fe1 Nb12 2.893993 1_455
Fe1 Nb15 2.893993 1_555
Fe2 Fe3 2.521643 1_455
Fe2 Fe3 2.521643 1_555
Fe2 Nb3 2.721540 1_445
Fe2 Nb2 2.721540 1_555
Fe2 Nb9 2.721540 1_555
Fe2 Nb8 2.721540 1_445
Fe2 Nb10 2.819818 1_545
Fe2 Nb11 2.819818 1_455
Fe2 Nb16 2.819818 1_455
Fe2 Nb17 2.819818 1_545
Fe3 Nb8 2.721540 1_545
Fe3 Nb9 2.721540 1_555
Fe3 Nb2 2.721540 1_555
Fe3 Nb3 2.721540 1_545
Fe3 Nb16 2.819818 1_555
Fe3 Nb17 2.819818 1_545
Fe3 Nb10 2.819819 1_545
Fe3 Nb11 2.819819 1_555
Fe4 Fe5 2.521643 1_555
Fe4 Fe5 2.521643 1_655
Fe4 Ge2 2.613196 1_555
Fe4 Ge3 2.613196 1_554
Fe4 Nb4 2.734453 1_554
Fe4 Nb5 2.734453 1_555
Fe4 Nb7 2.734453 1_555
Fe4 Nb6 2.734453 1_554
Fe4 Nb13 2.835970 1_554
Fe4 Nb12 2.835970 1_555
Fe4 Nb14 2.835973 1_555
Fe4 Nb15 2.835973 1_554
Fe5 Ge2 2.613199 1_555
Fe5 Ge3 2.613199 1_454
Fe5 Nb7 2.734451 1_555
Fe5 Nb6 2.734451 1_454
Fe5 Nb5 2.734451 1_555
Fe5 Nb4 2.734451 1_454
Fe5 Nb14 2.835970 1_455
Fe5 Nb15 2.835970 1_554
Fe5 Nb13 2.835973 1_554
Fe5 Nb12 2.835973 1_455
Ge0 Ge1 2.521643 1_655
Ge0 Ge1 2.521643 1_555
Ge0 Nb6 2.563272 1_544
Ge0 Nb7 2.563272 1_555
Ge0 Nb3 2.600217 1_545
Ge0 Nb2 2.600217 1_554
Ge1 Nb5 2.563272 1_545
Ge1 Nb4 2.563272 1_454
Ge1 Nb9 2.600217 1_555
Ge1 Nb8 2.600217 1_444
Ge2 Nb5 2.777027 1_555
Ge2 Nb7 2.777027 1_555
Ge2 Nb1 2.811319 1_555
Ge2 Nb0 2.811321 1_555
Ge2 Nb12 2.854572 1_555
Ge2 Nb14 2.854576 1_455
Ge2 Nb14 2.854576 1_555
Ge2 Nb12 2.854581 1_455
Ge2 Nb17 2.862302 1_555
Ge2 Nb11 2.862302 1_555
Ge3 Nb4 2.777027 1_555
Ge3 Nb6 2.777027 1_555
Ge3 Nb0 2.811319 1_555
Ge3 Nb1 2.811321 1_555
Ge3 Nb13 2.854572 1_555
Ge3 Nb15 2.854576 1_655
Ge3 Nb15 2.854576 1_555
Ge3 Nb13 2.854581 1_655
Ge3 Nb16 2.862302 1_555
Ge3 Nb10 2.862302 1_555
