# generated using pymatgen
data_TiNbBi5WO15
_symmetry_space_group_name_H-M   'P 1'
_cell_length_a   21.64631499
_cell_length_b   21.64631499
_cell_length_c   5.47807934
_cell_angle_alpha   83.00569924
_cell_angle_beta   83.00569924
_cell_angle_gamma   14.66868789
_symmetry_Int_Tables_number   1
_chemical_formula_structural   TiNbBi5WO15
_chemical_formula_sum   'Ti2 Nb2 Bi10 W2 O30'
_cell_volume   645.07776256
_cell_formula_units_Z   2
loop_
 _symmetry_equiv_pos_site_id
 _symmetry_equiv_pos_as_xyz
  1  'x, y, z'
loop_
 _atom_site_type_symbol
 _atom_site_label
 _atom_site_symmetry_multiplicity
 _atom_site_fract_x
 _atom_site_fract_y
 _atom_site_fract_z
 _atom_site_occupancy
  Ti  Ti0  1  0.80694300  0.79753100  0.70039000  1
  Ti  Ti1  1  0.20246900  0.19305700  0.29961000  1
  Nb  Nb0  1  0.70617700  0.68948500  0.79550200  1
  Nb  Nb1  1  0.31051500  0.29382300  0.20449800  1
  Bi  Bi0  1  0.31717400  0.42284200  0.64888400  1
  Bi  Bi1  1  0.57715800  0.68282600  0.35111600  1
  Bi  Bi2  1  0.08052200  0.18034900  0.90372000  1
  Bi  Bi3  1  0.81965100  0.91947800  0.09628000  1
  Bi  Bi4  1  0.20755100  0.29135300  0.74677800  1
  Bi  Bi5  1  0.70864700  0.79244900  0.25322200  1
  Bi  Bi6  1  0.87563200  0.98511200  0.54155500  1
  Bi  Bi7  1  0.01488800  0.12436800  0.45844500  1
  Bi  Bi8  1  0.51756000  0.62210000  0.90747100  1
  Bi  Bi9  1  0.37790000  0.48244000  0.09252900  1
  W  W0  1  0.49437200  0.50562800  0.50000000  1
  W  W1  1  0.99436500  0.00563500  0.00000000  1
  O  O0  1  0.61972200  0.18115800  0.83661100  1
  O  O1  1  0.81884200  0.38027800  0.16338900  1
  O  O2  1  0.31885200  0.88022100  0.14457400  1
  O  O3  1  0.11977900  0.68114800  0.85542600  1
  O  O4  1  0.53982100  0.03724000  0.92818400  1
  O  O5  1  0.96276000  0.46017900  0.07181600  1
  O  O6  1  0.45900800  0.96380000  0.00184200  1
  O  O7  1  0.03620000  0.54099200  0.99815800  1
  O  O8  1  0.27791900  0.73910700  0.24498500  1
  O  O9  1  0.26089300  0.72208100  0.75501500  1
  O  O10  1  0.76076900  0.22211500  0.76141000  1
  O  O11  1  0.77788500  0.23923100  0.23859000  1
  O  O12  1  0.12162400  0.67767100  0.35682700  1
  O  O13  1  0.32232900  0.87837600  0.64317300  1
  O  O14  1  0.82098600  0.37977500  0.66151300  1
  O  O15  1  0.62022500  0.17901400  0.33848700  1
  O  O16  1  0.80404400  0.69550600  0.66829700  1
  O  O17  1  0.30449400  0.19595600  0.33170300  1
  O  O18  1  0.86580000  0.82119400  0.73030700  1
  O  O19  1  0.17880600  0.13420000  0.26969300  1
  O  O20  1  0.67728500  0.63247400  0.91328100  1
  O  O21  1  0.36752600  0.32271500  0.08671900  1
  O  O22  1  0.13004400  0.47407300  0.50502300  1
  O  O23  1  0.52592700  0.86995600  0.49497700  1
  O  O24  1  0.03129600  0.36534400  0.60113500  1
  O  O25  1  0.63465600  0.96870400  0.39886500  1
  O  O26  1  0.50268600  0.41122500  0.45789000  1
  O  O27  1  0.58877500  0.49731400  0.54211000  1
  O  O28  1  0.08782600  0.99830400  0.87485300  1
  O  O29  1  0.00169600  0.91217400  0.12514700  1
loop_
_geom_bond_atom_site_label_1
_geom_bond_atom_site_label_2
_geom_bond_distance
_geom_bond_site_symmetry_2
Nb0 O20 1.879220 1_555
Nb0 O23 1.924062 1_555
Nb0 O6 1.963596 1_556
Nb0 O24 2.085083 1_655
Nb0 O5 2.157452 1_556
Nb0 O16 2.267821 1_555
Nb1 O21 1.879220 1_555
Nb1 O22 1.924062 1_555
Nb1 O7 1.963596 1_554
Nb1 O25 2.085083 1_545
Nb1 O4 2.157452 1_554
Nb1 O17 2.267821 1_555
Bi0 O3 2.222466 1_555
Bi0 O12 2.286558 1_555
Bi0 O0 2.314462 1_555
Bi0 O15 2.502166 1_555
Bi0 O21 2.537378 1_556
Bi0 O18 2.623666 1_455
Bi1 O2 2.222466 1_555
Bi1 O13 2.286558 1_555
Bi1 O1 2.314462 1_555
Bi1 O14 2.502166 1_555
Bi1 O20 2.537378 1_554
Bi1 O19 2.623666 1_565
Bi2 O1 2.223763 1_456
Bi2 O2 2.298974 1_546
Bi2 O14 2.335567 1_455
Bi2 O19 2.445910 1_556
Bi2 O13 2.533060 1_545
Bi2 O20 2.589360 1_455
Bi3 O0 2.223763 1_564
Bi3 O3 2.298974 1_654
Bi3 O15 2.335567 1_565
Bi3 O18 2.445910 1_554
Bi3 O12 2.533060 1_655
Bi3 O21 2.589360 1_565
Bi4 O16 2.272599 1_455
Bi4 O17 2.331372 1_555
Bi4 O24 2.522938 1_555
Bi4 O5 2.534492 1_456
Bi4 O6 2.573107 1_546
Bi4 O22 2.576588 1_555
Bi4 O7 2.577418 1_555
Bi4 O4 2.614999 1_555
Bi5 O17 2.272599 1_565
Bi5 O16 2.331372 1_555
Bi5 O25 2.522938 1_555
Bi5 O4 2.534492 1_564
Bi5 O7 2.573107 1_654
Bi5 O23 2.576588 1_555
Bi5 O6 2.577418 1_555
Bi5 O5 2.614999 1_555
Bi6 O15 2.209834 1_565
Bi6 O0 2.305225 1_565
Bi6 O12 2.330487 1_655
Bi6 O29 2.483532 1_655
Bi6 O26 2.502025 1_565
Bi6 O3 2.521405 1_655
Bi7 O14 2.209834 1_455
Bi7 O1 2.305225 1_455
Bi7 O13 2.330487 1_545
Bi7 O28 2.483532 1_545
Bi7 O27 2.502025 1_455
Bi7 O2 2.521405 1_545
Bi8 O13 2.214643 1_555
Bi8 O2 2.305322 1_556
Bi8 O14 2.318746 1_555
Bi8 O27 2.487428 1_555
Bi8 O1 2.507359 1_556
Bi8 O28 2.522508 1_555
Bi9 O12 2.214643 1_555
Bi9 O3 2.305322 1_554
Bi9 O15 2.318746 1_555
Bi9 O26 2.487428 1_555
Bi9 O0 2.507359 1_554
Bi9 O29 2.522508 1_555
O4 Ti0 1.919576 1_545
O5 Ti1 1.919576 1_655
O6 Ti1 2.138077 1_565
O7 Ti0 2.138077 1_455
O8 W0 1.872340 1_555
O8 W1 2.089444 1_465
O9 W0 1.872340 1_555
O9 W1 2.089444 1_466
O10 W1 1.872989 1_556
O10 W0 2.089421 1_555
O11 W1 1.872989 1_555
O11 W0 2.089421 1_555
O16 Ti0 2.297292 1_555
O17 Ti1 2.297292 1_555
O18 Ti0 1.801754 1_555
O19 Ti1 1.801754 1_555
O22 Ti0 2.083186 1_455
O23 Ti1 2.083186 1_565
O24 Ti1 1.907730 1_555
O25 Ti0 1.907730 1_555
O26 W0 1.911687 1_555
O27 W0 1.911687 1_555
O28 W1 1.911967 1_466
O29 W1 1.911967 1_465
