# generated using pymatgen
data_NaCoH4SO6F
_symmetry_space_group_name_H-M   'P 1'
_cell_length_a   5.79405300
_cell_length_b   7.39658600
_cell_length_c   7.27899473
_cell_angle_alpha   90.00000000
_cell_angle_beta   111.98546305
_cell_angle_gamma   90.00000000
_symmetry_Int_Tables_number   1
_chemical_formula_structural   NaCoH4SO6F
_chemical_formula_sum   'Na2 Co2 H8 S2 O12 F2'
_cell_volume   289.26476947
_cell_formula_units_Z   2
loop_
 _symmetry_equiv_pos_site_id
 _symmetry_equiv_pos_as_xyz
  1  'x, y, z'
loop_
 _atom_site_type_symbol
 _atom_site_label
 _atom_site_symmetry_multiplicity
 _atom_site_fract_x
 _atom_site_fract_y
 _atom_site_fract_z
 _atom_site_occupancy
  Na  Na0  1  0.13746200  0.75000000  0.70676600  1
  Na  Na1  1  0.86253800  0.25000000  0.29323400  1
  Co  Co0  1  0.50000000  0.00000000  0.50000000  1
  Co  Co1  1  0.50000000  0.50000000  0.50000000  1
  H  H0  1  0.20813300  0.40960300  0.13420500  1
  H  H1  1  0.79186700  0.90960300  0.86579500  1
  H  H2  1  0.79186700  0.59039700  0.86579500  1
  H  H3  1  0.20813300  0.09039700  0.13420500  1
  H  H4  1  0.07564600  0.93113800  0.20284900  1
  H  H5  1  0.92435400  0.43113800  0.79715100  1
  H  H6  1  0.92435400  0.06886200  0.79715100  1
  H  H7  1  0.07564600  0.56886200  0.20284900  1
  S  S0  1  0.64472600  0.75000000  0.19149700  1
  S  S1  1  0.35527400  0.25000000  0.80850300  1
  O  O0  1  0.69718900  0.91504900  0.32129700  1
  O  O1  1  0.30281100  0.41504900  0.67870300  1
  O  O2  1  0.30281100  0.08495100  0.67870300  1
  O  O3  1  0.69718900  0.58495100  0.32129700  1
  O  O4  1  0.83215100  0.75000000  0.09079000  1
  O  O5  1  0.16784900  0.25000000  0.90921000  1
  O  O6  1  0.39016500  0.75000000  0.04470300  1
  O  O7  1  0.60983500  0.25000000  0.95529700  1
  O  O8  1  0.16991700  0.45490900  0.24714200  1
  O  O9  1  0.83008300  0.95490900  0.75285800  1
  O  O10  1  0.83008300  0.54509100  0.75285800  1
  O  O11  1  0.16991700  0.04509100  0.24714200  1
  F  F0  1  0.37188700  0.75000000  0.52763400  1
  F  F1  1  0.62811300  0.25000000  0.47236600  1
loop_
_geom_bond_atom_site_label_1
_geom_bond_atom_site_label_2
_geom_bond_distance
_geom_bond_site_symmetry_2
Na0 O6 2.344766 1_556
Na0 O9 2.455389 1_455
Na0 O10 2.455389 1_455
Na0 O2 2.691482 1_565
Na0 O1 2.691482 1_555
Na1 O7 2.344766 1_554
Na1 O8 2.455389 1_655
Na1 O11 2.455389 1_655
Na1 O3 2.691482 1_555
Na1 O0 2.691482 1_545
Co0 F1 2.030418 1_555
Co0 F0 2.030418 1_545
Co0 O0 2.122490 1_545
Co0 O2 2.122490 1_555
Co0 O9 2.126253 1_545
Co0 O11 2.126253 1_555
Co1 F1 2.030418 1_555
Co1 F0 2.030418 1_555
Co1 O3 2.122490 1_555
Co1 O1 2.122490 1_555
Co1 O10 2.126253 1_555
Co1 O8 2.126253 1_555
H0 O8 0.986618 1_555
H1 O9 0.986618 1_555
H2 O10 0.986618 1_555
H3 O11 0.986618 1_555
H4 O11 0.990382 1_565
H5 O10 0.990382 1_555
H6 O9 0.990382 1_545
H7 O8 0.990382 1_555
O0 S0 1.503458 1_555
O1 S1 1.503458 1_555
O2 S1 1.503458 1_555
O3 S0 1.503458 1_555
O4 S0 1.520750 1_555
O5 S1 1.520750 1_555
O6 S0 1.461901 1_555
O7 S1 1.461901 1_555
F0 Na0 2.207061 1_555
F1 Na1 2.207061 1_555
