# generated using pymatgen
data_Na2In2GeS6
_symmetry_space_group_name_H-M   'P 1'
_cell_length_a   7.36257953
_cell_length_b   7.36257953
_cell_length_c   12.46312619
_cell_angle_alpha   74.39542879
_cell_angle_beta   74.39542879
_cell_angle_gamma   65.38660390
_symmetry_Int_Tables_number   1
_chemical_formula_structural   Na2In2GeS6
_chemical_formula_sum   'Na4 In4 Ge2 S12'
_cell_volume   581.98933083
_cell_formula_units_Z   2
loop_
 _symmetry_equiv_pos_site_id
 _symmetry_equiv_pos_as_xyz
  1  'x, y, z'
loop_
 _atom_site_type_symbol
 _atom_site_label
 _atom_site_symmetry_multiplicity
 _atom_site_fract_x
 _atom_site_fract_y
 _atom_site_fract_z
 _atom_site_occupancy
  Na  Na0  1  0.90658300  0.53186200  0.34291700  1
  Na  Na1  1  0.53186200  0.90658300  0.84291700  1
  Na  Na2  1  0.07389000  0.92643800  0.50041500  1
  Na  Na3  1  0.92643800  0.07389000  0.00041500  1
  In  In0  1  0.61351700  0.45571800  0.69320400  1
  In  In1  1  0.45571800  0.61351700  0.19320400  1
  In  In2  1  0.28758900  0.41692900  0.99765800  1
  In  In3  1  0.41692900  0.28758900  0.49765800  1
  Ge  Ge0  1  0.06774900  0.51171200  0.74854300  1
  Ge  Ge1  1  0.51171200  0.06774900  0.24854300  1
  S  S0  1  0.73800500  0.29332500  0.52380400  1
  S  S1  1  0.29332500  0.73800500  0.02380400  1
  S  S2  1  0.60677000  0.22219800  0.87895700  1
  S  S3  1  0.22219800  0.60677000  0.37895700  1
  S  S4  1  0.25217100  0.70705200  0.69909700  1
  S  S5  1  0.70705200  0.25217100  0.19909700  1
  S  S6  1  0.21543200  0.21216300  0.69251000  1
  S  S7  1  0.21216300  0.21543200  0.19251000  1
  S  S8  1  0.79179400  0.69812800  0.66684000  1
  S  S9  1  0.69812800  0.79179400  0.16684000  1
  S  S10  1  0.96813500  0.46855800  0.93620500  1
  S  S11  1  0.46855800  0.96813500  0.43620500  1
loop_
_geom_bond_atom_site_label_1
_geom_bond_atom_site_label_2
_geom_bond_distance
_geom_bond_site_symmetry_2
Na0 S3 2.769123 1_655
Na0 S0 2.808487 1_555
Na0 S9 2.817734 1_555
Na0 S7 3.117346 1_655
Na1 S2 2.769123 1_565
Na1 S1 2.808487 1_556
Na1 S8 2.817734 1_555
Na1 S6 3.117346 1_565
Na2 S3 2.812441 1_555
Na2 S0 2.822877 1_465
Na2 S4 2.879977 1_555
Na2 S11 2.921996 1_555
Na2 S8 3.186894 1_455
Na3 S2 2.812441 1_554
Na3 S1 2.822877 1_645
Na3 S5 2.879977 1_555
Na3 S10 2.921996 1_554
Na3 S9 3.186894 1_545
In0 S0 2.476115 1_555
In0 S2 2.487148 1_555
In0 S4 2.524819 1_555
In0 S8 2.533785 1_555
In1 S1 2.476115 1_555
In1 S3 2.487148 1_555
In1 S5 2.524819 1_555
In1 S9 2.533785 1_555
In2 S1 2.490222 1_556
In2 S2 2.496162 1_555
In2 S10 2.516108 1_455
In2 S7 2.535587 1_556
In3 S0 2.490222 1_555
In3 S3 2.496162 1_555
In3 S11 2.516108 1_545
In3 S6 2.535587 1_555
Ge0 S6 2.226328 1_555
Ge0 S10 2.231717 1_455
Ge0 S4 2.234182 1_555
Ge0 S8 2.255421 1_455
Ge1 S7 2.226328 1_555
Ge1 S11 2.231717 1_545
Ge1 S5 2.234182 1_555
Ge1 S9 2.255421 1_545
