# generated using pymatgen
data_Mg6FeNi
_symmetry_space_group_name_H-M   'P 1'
_cell_length_a   4.61408500
_cell_length_b   6.04442100
_cell_length_c   10.08974700
_cell_angle_alpha   90.00000000
_cell_angle_beta   90.00000000
_cell_angle_gamma   90.00000000
_symmetry_Int_Tables_number   1
_chemical_formula_structural   Mg6FeNi
_chemical_formula_sum   'Mg12 Fe2 Ni2'
_cell_volume   281.39771917
_cell_formula_units_Z   2
loop_
 _symmetry_equiv_pos_site_id
 _symmetry_equiv_pos_as_xyz
  1  'x, y, z'
loop_
 _atom_site_type_symbol
 _atom_site_label
 _atom_site_symmetry_multiplicity
 _atom_site_fract_x
 _atom_site_fract_y
 _atom_site_fract_z
 _atom_site_occupancy
  Mg  Mg0  1  0.00000000  0.24887300  0.58410000  1
  Mg  Mg1  1  0.00000000  0.75112700  0.58410000  1
  Mg  Mg2  1  0.50000000  0.25313000  0.40820800  1
  Mg  Mg3  1  0.50000000  0.74687000  0.40820800  1
  Mg  Mg4  1  0.50000000  0.00000000  0.67596200  1
  Mg  Mg5  1  0.50000000  0.00000000  0.17569500  1
  Mg  Mg6  1  0.00000000  0.74887300  0.08410000  1
  Mg  Mg7  1  0.00000000  0.25112700  0.08410000  1
  Mg  Mg8  1  0.50000000  0.75313000  0.90820800  1
  Mg  Mg9  1  0.50000000  0.24687000  0.90820800  1
  Mg  Mg10  1  0.50000000  0.50000000  0.17596200  1
  Mg  Mg11  1  0.50000000  0.50000000  0.67569500  1
  Fe  Fe0  1  0.00000000  0.00000000  0.83158200  1
  Fe  Fe1  1  0.00000000  0.50000000  0.33158200  1
  Ni  Ni0  1  0.00000000  0.00000000  0.33214800  1
  Ni  Ni1  1  0.00000000  0.50000000  0.83214800  1
loop_
_geom_bond_atom_site_label_1
_geom_bond_atom_site_label_2
_geom_bond_distance
_geom_bond_site_symmetry_2
Mg0 Mg4 2.905929 1_455
Mg0 Mg4 2.905929 1_555
Mg0 Mg2 2.910788 1_455
Mg0 Mg2 2.910788 1_555
Mg0 Mg11 2.912149 1_455
Mg0 Mg11 2.912149 1_555
Mg0 Ni1 2.927078 1_555
Mg0 Ni0 2.953867 1_555
Mg0 Mg1 3.008586 1_545
Mg0 Mg1 3.035835 1_555
Mg1 Mg4 2.905929 1_565
Mg1 Mg4 2.905929 1_465
Mg1 Mg3 2.910788 1_555
Mg1 Mg3 2.910788 1_455
Mg1 Mg11 2.912149 1_455
Mg1 Mg11 2.912149 1_555
Mg1 Ni1 2.927078 1_555
Mg1 Ni0 2.953867 1_565
Mg2 Mg5 2.800835 1_555
Mg2 Ni0 2.872693 1_655
Mg2 Ni0 2.872693 1_555
Mg2 Mg3 2.984372 1_555
Mg2 Mg3 3.060049 1_545
Mg2 Mg4 3.104747 1_555
Mg3 Mg5 2.800835 1_565
Mg3 Ni0 2.872693 1_565
Mg3 Ni0 2.872693 1_665
Mg3 Mg4 3.104747 1_565
Mg4 Mg8 2.778073 1_545
Mg4 Mg9 2.778073 1_555
Mg5 Ni0 2.795413 1_655
Mg5 Ni0 2.795413 1_555
Mg5 Mg7 2.912149 1_555
Mg5 Mg6 2.912149 1_545
Mg5 Mg7 2.912149 1_655
Mg5 Mg6 2.912149 1_645
Mg5 Mg8 3.083918 1_544
Mg5 Mg9 3.083918 1_554
Mg6 Mg8 2.910788 1_454
Mg6 Mg8 2.910788 1_554
Mg6 Ni0 2.927078 1_565
Mg6 Ni1 2.953867 1_554
Mg6 Mg7 3.008586 1_555
Mg6 Mg7 3.035835 1_565
Mg7 Mg9 2.910788 1_554
Mg7 Mg9 2.910788 1_454
Mg7 Ni0 2.927078 1_555
Mg7 Ni1 2.953867 1_554
Mg8 Ni1 2.872693 1_555
Mg8 Ni1 2.872693 1_655
Mg8 Mg9 2.984372 1_565
Mg8 Mg9 3.060049 1_555
Mg9 Ni1 2.872693 1_555
Mg9 Ni1 2.872693 1_655
Mg10 Mg2 2.778073 1_555
Mg10 Mg3 2.778073 1_555
Mg10 Mg7 2.905929 1_655
Mg10 Mg6 2.905929 1_555
Mg10 Mg7 2.905929 1_555
Mg10 Mg6 2.905929 1_655
Mg10 Mg8 3.104747 1_554
Mg10 Mg9 3.104747 1_554
Mg11 Ni1 2.795413 1_655
Mg11 Ni1 2.795413 1_555
Mg11 Mg9 2.800835 1_555
Mg11 Mg8 2.800835 1_555
Mg11 Mg2 3.083918 1_555
Mg11 Mg3 3.083918 1_555
Fe0 Mg4 2.790675 1_555
Fe0 Mg4 2.790675 1_455
Fe0 Mg8 2.854261 1_545
Fe0 Mg8 2.854261 1_445
Fe0 Mg9 2.854261 1_555
Fe0 Mg9 2.854261 1_455
Fe0 Mg0 2.915143 1_555
Fe0 Mg1 2.915143 1_545
Fe0 Mg6 2.965734 1_546
Fe0 Mg7 2.965734 1_556
Fe0 Ni1 3.022216 1_545
Fe0 Ni1 3.022216 1_555
Fe1 Mg10 2.790675 1_455
Fe1 Mg10 2.790675 1_555
Fe1 Mg2 2.854261 1_455
Fe1 Mg2 2.854261 1_555
Fe1 Mg3 2.854261 1_455
Fe1 Mg3 2.854261 1_555
Fe1 Mg6 2.915143 1_555
Fe1 Mg7 2.915143 1_555
Fe1 Mg1 2.965734 1_555
Fe1 Mg0 2.965734 1_555
Fe1 Ni0 3.022216 1_565
Fe1 Ni0 3.022216 1_555
