# generated using pymatgen
data_MgVGaS4
_symmetry_space_group_name_H-M   'P 1'
_cell_length_a   7.29886504
_cell_length_b   7.33724710
_cell_length_c   7.33781741
_cell_angle_alpha   58.27929392
_cell_angle_beta   60.18384138
_cell_angle_gamma   60.18557549
_symmetry_Int_Tables_number   1
_chemical_formula_structural   MgVGaS4
_chemical_formula_sum   'Mg2 V2 Ga2 S8'
_cell_volume   274.82059073
_cell_formula_units_Z   2
loop_
 _symmetry_equiv_pos_site_id
 _symmetry_equiv_pos_as_xyz
  1  'x, y, z'
loop_
 _atom_site_type_symbol
 _atom_site_label
 _atom_site_symmetry_multiplicity
 _atom_site_fract_x
 _atom_site_fract_y
 _atom_site_fract_z
 _atom_site_occupancy
  Mg  Mg0  1  0.87447938  0.87578069  0.87526965  1
  Mg  Mg1  1  0.12551406  0.12422896  0.12473911  1
  V  V0  1  0.49999901  0.50001351  0.99998545  1
  V  V1  1  0.49999842  0.99998635  0.50002022  1
  Ga  Ga0  1  0.50000543  0.50000538  0.49998371  1
  Ga  Ga1  1  0.00000440  0.49999108  0.50000430  1
  S  S0  1  0.74008291  0.73845331  0.73875287  1
  S  S1  1  0.26758462  0.25087163  0.71397148  1
  S  S2  1  0.26763245  0.71405521  0.25067910  1
  S  S3  1  0.71725308  0.26155541  0.26125983  1
  S  S4  1  0.73236424  0.28594807  0.74931044  1
  S  S5  1  0.28273686  0.73843996  0.73873208  1
  S  S6  1  0.25992745  0.26153748  0.26125752  1
  S  S7  1  0.73242170  0.74912796  0.28603525  1
loop_
_geom_bond_atom_site_label_1
_geom_bond_atom_site_label_2
_geom_bond_distance
_geom_bond_site_symmetry_2
Mg0 S4 2.431365 1_565
Mg0 S7 2.434848 1_556
Mg0 S0 2.449982 1_555
Mg0 S5 2.450605 1_655
Mg1 S2 2.431412 1_545
Mg1 S1 2.434864 1_554
Mg1 S6 2.449977 1_555
Mg1 S3 2.450621 1_455
Ga0 S7 2.469997 1_555
Ga0 S1 2.470055 1_555
Ga0 S2 2.470870 1_555
Ga0 S4 2.470910 1_555
Ga0 S3 2.519074 1_555
Ga0 S5 2.519115 1_555
Ga1 S1 2.470253 1_555
Ga1 S7 2.470277 1_455
Ga1 S4 2.470803 1_455
Ga1 S2 2.470839 1_555
Ga1 S6 2.519276 1_555
Ga1 S0 2.519327 1_455
S0 V0 2.446942 1_555
S0 V1 2.448626 1_555
S1 V1 2.452826 1_545
S2 V0 2.452257 1_554
S3 V0 2.447105 1_554
S3 V1 2.448470 1_545
S4 V0 2.452275 1_555
S5 V0 2.447037 1_555
S5 V1 2.448389 1_555
S6 V0 2.447071 1_554
S6 V1 2.448711 1_545
S7 V1 2.452850 1_555
