# generated using pymatgen
data_Mg2Al3VS8
_symmetry_space_group_name_H-M   'P 1'
_cell_length_a   7.23928706
_cell_length_b   7.25484213
_cell_length_c   7.24372775
_cell_angle_alpha   60.31273494
_cell_angle_beta   59.97316650
_cell_angle_gamma   60.00697056
_symmetry_Int_Tables_number   1
_chemical_formula_structural   Mg2Al3VS8
_chemical_formula_sum   'Mg2 Al3 V1 S8'
_cell_volume   269.60083943
_cell_formula_units_Z   1
loop_
 _symmetry_equiv_pos_site_id
 _symmetry_equiv_pos_as_xyz
  1  'x, y, z'
loop_
 _atom_site_type_symbol
 _atom_site_label
 _atom_site_symmetry_multiplicity
 _atom_site_fract_x
 _atom_site_fract_y
 _atom_site_fract_z
 _atom_site_occupancy
  Mg  Mg0  1  0.87490300  0.87540400  0.87488300  1
  Mg  Mg1  1  0.12510900  0.12459900  0.12511900  1
  Al  Al0  1  0.49998400  0.50001200  0.50000000  1
  Al  Al1  1  0.49999100  0.49999700  0.99999800  1
  Al  Al2  1  0.00000500  0.49998000  0.50002900  1
  V  V0  1  0.49998900  0.00001000  0.49996400  1
  S  S0  1  0.73867200  0.73670700  0.73883800  1
  S  S1  1  0.26120300  0.26292500  0.71445900  1
  S  S2  1  0.26240600  0.71354800  0.26220200  1
  S  S3  1  0.71320200  0.26457100  0.26081800  1
  S  S4  1  0.73758300  0.28645400  0.73780000  1
  S  S5  1  0.28680600  0.73544100  0.73917300  1
  S  S6  1  0.26132700  0.26328400  0.26118400  1
  S  S7  1  0.73882500  0.73706100  0.28553200  1
loop_
_geom_bond_atom_site_label_1
_geom_bond_atom_site_label_2
_geom_bond_distance
_geom_bond_site_symmetry_2
Mg0 S0 2.429672 1_555
Mg0 S5 2.432470 1_655
Mg0 S7 2.434079 1_556
Mg0 S4 2.440920 1_565
Mg1 S6 2.429642 1_555
Mg1 S3 2.432494 1_455
Mg1 S1 2.434143 1_554
Mg1 S2 2.440926 1_545
Al0 S5 2.433183 1_555
Al0 S3 2.433275 1_555
Al0 S2 2.446023 1_555
Al0 S4 2.446136 1_555
Al0 S1 2.449129 1_555
Al0 S7 2.449242 1_555
Al1 S4 2.438611 1_555
Al1 S2 2.438682 1_556
Al1 S5 2.440294 1_555
Al1 S3 2.440393 1_556
Al1 S6 2.447546 1_556
Al1 S0 2.447601 1_555
Al2 S0 2.437236 1_455
Al2 S6 2.437256 1_555
Al2 S1 2.447035 1_555
Al2 S7 2.447266 1_455
Al2 S4 2.449490 1_455
Al2 S2 2.449583 1_555
S0 V0 2.459046 1_565
S1 V0 2.447756 1_555
S3 V0 2.461645 1_555
S5 V0 2.461546 1_565
S6 V0 2.458472 1_555
S7 V0 2.447634 1_565
