# generated using pymatgen
data_TbMgAg
_symmetry_space_group_name_H-M   'P 1'
_cell_length_a   7.69203290
_cell_length_b   7.69203290
_cell_length_c   4.11411936
_cell_angle_alpha   90.00000000
_cell_angle_beta   90.00000000
_cell_angle_gamma   120.00000449
_symmetry_Int_Tables_number   1
_chemical_formula_structural   TbMgAg
_chemical_formula_sum   'Tb3 Mg3 Ag3'
_cell_volume   210.80929986
_cell_formula_units_Z   3
loop_
 _symmetry_equiv_pos_site_id
 _symmetry_equiv_pos_as_xyz
  1  'x, y, z'
loop_
 _atom_site_type_symbol
 _atom_site_label
 _atom_site_symmetry_multiplicity
 _atom_site_fract_x
 _atom_site_fract_y
 _atom_site_fract_z
 _atom_site_occupancy
  Tb  Tb0  1  0.58571622  -0.00000000  -0.00000000  1
  Tb  Tb1  1  -0.00000000  0.58571622  -0.00000000  1
  Tb  Tb2  1  0.41428378  0.41428378  0.00000000  1
  Mg  Mg0  1  0.24355144  0.00000000  0.50000000  1
  Mg  Mg1  1  0.00000000  0.24355144  0.50000000  1
  Mg  Mg2  1  0.75644856  0.75644856  0.50000000  1
  Ag  Ag0  1  0.33333300  0.66666700  0.50000000  1
  Ag  Ag1  1  0.66666700  0.33333300  0.50000000  1
  Ag  Ag2  1  0.00000000  0.00000000  -0.00000000  1
loop_
_geom_bond_atom_site_label_1
_geom_bond_atom_site_label_2
_geom_bond_distance
_geom_bond_site_symmetry_2
Mg0 Mg2 3.244834 1_445
Mg0 Mg1 3.244834 1_555
Mg0 Tb0 3.340452 1_555
Mg0 Tb0 3.340452 1_556
Mg0 Tb1 3.453425 1_545
Mg0 Tb1 3.453425 1_546
Mg0 Tb2 3.453426 1_555
Mg0 Tb2 3.453426 1_556
Mg1 Mg2 3.244834 1_445
Mg1 Tb1 3.340452 1_555
Mg1 Tb1 3.340452 1_556
Mg1 Tb0 3.453425 1_455
Mg1 Tb0 3.453425 1_456
Mg1 Tb2 3.453426 1_555
Mg1 Tb2 3.453426 1_556
Mg2 Tb2 3.340451 1_555
Mg2 Tb2 3.340451 1_556
Mg2 Tb1 3.453426 1_655
Mg2 Tb0 3.453426 1_565
Mg2 Tb0 3.453426 1_566
Mg2 Tb1 3.453426 1_656
Ag0 Mg0 2.970149 1_565
Ag0 Mg1 2.970153 1_555
Ag0 Mg2 2.970156 1_555
Ag0 Tb1 3.097872 1_555
Ag0 Tb1 3.097872 1_556
Ag0 Tb0 3.097874 1_565
Ag0 Tb0 3.097874 1_566
Ag0 Tb2 3.097878 1_555
Ag0 Tb2 3.097878 1_556
Ag1 Mg1 2.970149 1_655
Ag1 Mg0 2.970153 1_555
Ag1 Mg2 2.970156 1_555
Ag1 Tb0 3.097872 1_555
Ag1 Tb0 3.097872 1_556
Ag1 Tb1 3.097874 1_656
Ag1 Tb1 3.097874 1_655
Ag1 Tb2 3.097878 1_555
Ag1 Tb2 3.097878 1_556
Ag2 Mg2 2.782291 1_445
Ag2 Mg2 2.782291 1_444
Ag2 Mg1 2.782291 1_555
Ag2 Mg0 2.782291 1_555
Ag2 Mg0 2.782291 1_554
Ag2 Mg1 2.782291 1_554
Ag2 Tb2 3.186684 1_555
Ag2 Tb1 3.186684 1_545
Ag2 Tb0 3.186684 1_455
