# generated using pymatgen
data_Y6O5F8
_symmetry_space_group_name_H-M   'P 1'
_cell_length_a   5.48070600
_cell_length_b   5.60833000
_cell_length_c   33.48866900
_cell_angle_alpha   90.00000000
_cell_angle_beta   90.00000000
_cell_angle_gamma   90.00000000
_symmetry_Int_Tables_number   1
_chemical_formula_structural   Y6O5F8
_chemical_formula_sum   'Y24 O20 F32'
_cell_volume   1029.36157618
_cell_formula_units_Z   4
loop_
 _symmetry_equiv_pos_site_id
 _symmetry_equiv_pos_as_xyz
  1  'x, y, z'
loop_
 _atom_site_type_symbol
 _atom_site_label
 _atom_site_symmetry_multiplicity
 _atom_site_fract_x
 _atom_site_fract_y
 _atom_site_fract_z
 _atom_site_occupancy
  Y  Y0  1  0.29023400  0.50000000  0.50000000  1
  Y  Y1  1  0.70976600  0.00000000  0.00000000  1
  Y  Y2  1  0.71043400  0.00000000  0.50000000  1
  Y  Y3  1  0.28956600  0.50000000  0.00000000  1
  Y  Y4  1  0.70171800  0.47281100  0.58237000  1
  Y  Y5  1  0.29828200  0.02718900  0.08237000  1
  Y  Y6  1  0.70171800  0.52718900  0.41763000  1
  Y  Y7  1  0.29828200  0.97281100  0.91763000  1
  Y  Y8  1  0.29702500  0.02245300  0.41805200  1
  Y  Y9  1  0.70297500  0.47754700  0.91805200  1
  Y  Y10  1  0.29702500  0.97754700  0.58194800  1
  Y  Y11  1  0.70297500  0.52245300  0.08194800  1
  Y  Y12  1  0.29218300  0.53659300  0.66416200  1
  Y  Y13  1  0.70781700  0.96340700  0.16416200  1
  Y  Y14  1  0.29218300  0.46340700  0.33583800  1
  Y  Y15  1  0.70781700  0.03659300  0.83583800  1
  Y  Y16  1  0.71148600  0.98911200  0.33588700  1
  Y  Y17  1  0.28851400  0.51088800  0.83588700  1
  Y  Y18  1  0.71148600  0.01088800  0.66411300  1
  Y  Y19  1  0.28851400  0.48911200  0.16411300  1
  Y  Y20  1  0.72247700  0.46393400  0.74923500  1
  Y  Y21  1  0.27752300  0.03606600  0.24923500  1
  Y  Y22  1  0.72247700  0.53606600  0.25076500  1
  Y  Y23  1  0.27752300  0.96393400  0.75076500  1
  O  O0  1  0.51539800  0.72560300  0.54157600  1
  O  O1  1  0.48460200  0.77439700  0.04157600  1
  O  O2  1  0.51539800  0.27439700  0.45842400  1
  O  O3  1  0.48460200  0.22560300  0.95842400  1
  O  O4  1  0.48504000  0.77369000  0.45807200  1
  O  O5  1  0.51496000  0.72631000  0.95807200  1
  O  O6  1  0.48504000  0.22631000  0.54192800  1
  O  O7  1  0.51496000  0.27369000  0.04192800  1
  O  O8  1  0.53046900  0.75652000  0.62501700  1
  O  O9  1  0.46953100  0.74348000  0.12501700  1
  O  O10  1  0.53046900  0.24348000  0.37498300  1
  O  O11  1  0.46953100  0.25652000  0.87498300  1
  O  O12  1  0.47097000  0.74312900  0.37257600  1
  O  O13  1  0.52903000  0.75687100  0.87257600  1
  O  O14  1  0.47097000  0.25687100  0.62742400  1
  O  O15  1  0.52903000  0.24312900  0.12742400  1
  O  O16  1  0.53558100  0.74213500  0.71038200  1
  O  O17  1  0.46441900  0.75786500  0.21038200  1
  O  O18  1  0.53558100  0.25786500  0.28961800  1
  O  O19  1  0.46441900  0.24213500  0.78961800  1
  F  F0  1  0.90872400  0.38182300  0.68513100  1
  F  F1  1  0.09127600  0.11817700  0.18513100  1
  F  F2  1  0.90872400  0.61817700  0.31486900  1
  F  F3  1  0.09127600  0.88182300  0.81486900  1
  F  F4  1  0.09190600  0.10772500  0.31609800  1
  F  F5  1  0.90809400  0.39227500  0.81609800  1
  F  F6  1  0.09190600  0.89227500  0.68390200  1
  F  F7  1  0.90809400  0.60772500  0.18390200  1
  F  F8  1  0.10548200  0.59698100  0.75148200  1
  F  F9  1  0.89451800  0.90301900  0.25148200  1
  F  F10  1  0.10548200  0.40301900  0.24851800  1
  F  F11  1  0.89451800  0.09698100  0.74851800  1
  F  F12  1  0.97505900  0.33284300  0.53661000  1
  F  F13  1  0.02494100  0.16715700  0.03661000  1
  F  F14  1  0.97505900  0.66715700  0.46339000  1
  F  F15  1  0.02494100  0.83284300  0.96339000  1
  F  F16  1  0.02601000  0.16614200  0.46355700  1
  F  F17  1  0.97399000  0.33385800  0.96355700  1
  F  F18  1  0.02601000  0.83385800  0.53644300  1
  F  F19  1  0.97399000  0.66614200  0.03644300  1
  F  F20  1  0.05236400  0.63611400  0.61137100  1
  F  F21  1  0.94763600  0.86388600  0.11137100  1
  F  F22  1  0.05236400  0.36388600  0.38862900  1
  F  F23  1  0.94763600  0.13611400  0.88862900  1
  F  F24  1  0.94412700  0.87005400  0.38945800  1
  F  F25  1  0.05587300  0.62994600  0.88945800  1
  F  F26  1  0.94412700  0.12994600  0.61054200  1
  F  F27  1  0.05587300  0.37005400  0.11054200  1
  F  F28  1  0.45151000  0.75858000  0.29188300  1
  F  F29  1  0.54849000  0.74142000  0.79188300  1
  F  F30  1  0.45151000  0.24142000  0.70811700  1
  F  F31  1  0.54849000  0.25858000  0.20811700  1
loop_
_geom_bond_atom_site_label_1
_geom_bond_atom_site_label_2
_geom_bond_distance
_geom_bond_site_symmetry_2
O0 Y4 2.217904 1_555
O0 Y0 2.249964 1_555
O0 Y10 2.292785 1_555
O0 Y2 2.334402 1_565
O1 Y5 2.217904 1_565
O1 Y1 2.249964 1_565
O1 Y11 2.292785 1_555
O1 Y3 2.334402 1_555
O2 Y6 2.217904 1_555
O2 Y0 2.249964 1_555
O2 Y8 2.292785 1_555
O2 Y2 2.334402 1_555
O3 Y7 2.217904 1_545
O3 Y1 2.249964 1_556
O3 Y9 2.292785 1_555
O3 Y3 2.334402 1_556
O4 Y8 2.191905 1_565
O4 Y2 2.260192 1_565
O4 Y6 2.270622 1_555
O4 Y0 2.338272 1_555
O5 Y9 2.191905 1_555
O5 Y3 2.260192 1_556
O5 Y7 2.270622 1_555
O5 Y1 2.338272 1_566
O6 Y10 2.191905 1_545
O6 Y2 2.260192 1_555
O6 Y4 2.270622 1_555
O6 Y0 2.338272 1_555
O7 Y11 2.191905 1_555
O7 Y3 2.260192 1_555
O7 Y5 2.270622 1_555
O7 Y1 2.338272 1_555
O8 Y18 2.175681 1_565
O8 Y12 2.223826 1_555
O8 Y10 2.292127 1_555
O8 Y4 2.335025 1_555
O9 Y19 2.175681 1_555
O9 Y13 2.223826 1_555
O9 Y11 2.292127 1_555
O9 Y5 2.335025 1_565
O10 Y16 2.175681 1_545
O10 Y14 2.223826 1_555
O10 Y8 2.292127 1_555
O10 Y6 2.335025 1_555
O11 Y17 2.175681 1_555
O11 Y15 2.223826 1_555
O11 Y9 2.292127 1_555
O11 Y7 2.335025 1_545
O12 Y14 2.221456 1_555
O12 Y16 2.269457 1_555
O12 Y6 2.311388 1_555
O12 Y8 2.383743 1_565
O13 Y15 2.221456 1_565
O13 Y17 2.269457 1_555
O13 Y7 2.311388 1_555
O13 Y9 2.383743 1_555
O14 Y12 2.221456 1_555
O14 Y18 2.269457 1_555
O14 Y4 2.311388 1_555
O14 Y10 2.383743 1_545
O15 Y13 2.221456 1_545
O15 Y19 2.269457 1_555
O15 Y5 2.311388 1_555
O15 Y11 2.383743 1_555
O16 Y20 2.275203 1_555
O16 Y23 2.318752 1_555
O16 Y12 2.346101 1_555
O16 Y18 2.366894 1_565
O17 Y21 2.275203 1_565
O17 Y22 2.318752 1_555
O17 Y13 2.346101 1_555
O17 Y19 2.366894 1_555
O18 Y22 2.275203 1_555
O18 Y21 2.318752 1_555
O18 Y14 2.346101 1_555
O18 Y16 2.366894 1_545
O19 Y23 2.275203 1_545
O19 Y20 2.318752 1_555
O19 Y15 2.346101 1_555
O19 Y17 2.366894 1_555
F0 Y12 2.379785 1_655
F0 Y20 2.421280 1_555
F0 Y18 2.447805 1_555
F1 Y13 2.379785 1_445
F1 Y21 2.421280 1_555
F1 Y19 2.447805 1_555
F2 Y14 2.379785 1_655
F2 Y22 2.421280 1_555
F2 Y16 2.447805 1_555
F3 Y15 2.379785 1_465
F3 Y23 2.421280 1_555
F3 Y17 2.447805 1_555
F4 Y16 2.286657 1_445
F4 Y14 2.370869 1_555
F4 Y21 2.492036 1_555
F5 Y17 2.286657 1_655
F5 Y15 2.370869 1_555
F5 Y20 2.492036 1_555
F6 Y18 2.286657 1_465
F6 Y12 2.370869 1_555
F6 Y23 2.492036 1_555
F7 Y19 2.286657 1_655
F7 Y13 2.370869 1_555
F7 Y22 2.492036 1_555
F8 Y20 2.229084 1_455
F8 Y23 2.263843 1_555
F9 Y21 2.229084 1_665
F9 Y22 2.263843 1_555
F10 Y22 2.229084 1_455
F10 Y21 2.263843 1_555
F11 Y23 2.229084 1_645
F11 Y20 2.263843 1_555
F12 Y4 2.282299 1_555
F12 Y0 2.316425 1_655
F12 Y2 2.662918 1_555
F13 Y5 2.282299 1_555
F13 Y1 2.316425 1_455
F13 Y3 2.662918 1_555
F14 Y6 2.282299 1_555
F14 Y0 2.316425 1_655
F14 Y2 2.662918 1_565
F15 Y7 2.282299 1_555
F15 Y1 2.316425 1_466
F15 Y3 2.662918 1_556
F16 Y8 2.275512 1_555
F16 Y2 2.312812 1_455
F16 Y0 2.663149 1_555
F17 Y9 2.275512 1_555
F17 Y3 2.312812 1_656
F17 Y1 2.663149 1_556
F18 Y10 2.275512 1_555
F18 Y2 2.312812 1_465
F18 Y0 2.663149 1_555
F19 Y11 2.275512 1_555
F19 Y3 2.312812 1_655
F19 Y1 2.663149 1_565
F20 Y12 2.272573 1_555
F20 Y4 2.339936 1_455
F20 Y10 2.536861 1_555
F21 Y13 2.272573 1_555
F21 Y5 2.339936 1_665
F21 Y11 2.536861 1_555
F22 Y14 2.272573 1_555
F22 Y6 2.339936 1_455
F22 Y8 2.536861 1_555
F23 Y15 2.272573 1_555
F23 Y7 2.339936 1_645
F23 Y9 2.536861 1_555
F24 Y16 2.300017 1_555
F24 Y8 2.321277 1_665
F24 Y6 2.520463 1_555
F25 Y17 2.300017 1_555
F25 Y9 2.321277 1_455
F25 Y7 2.520463 1_555
F26 Y18 2.300017 1_555
F26 Y10 2.321277 1_645
F26 Y4 2.520463 1_555
F27 Y19 2.300017 1_555
F27 Y11 2.321277 1_455
F27 Y5 2.520463 1_555
F28 Y21 2.317539 1_565
F28 Y22 2.378849 1_555
F28 Y14 2.381119 1_555
F28 Y16 2.423509 1_555
F29 Y20 2.317539 1_555
F29 Y23 2.378849 1_555
F29 Y15 2.381119 1_565
F29 Y17 2.423509 1_555
F30 Y23 2.317539 1_545
F30 Y20 2.378849 1_555
F30 Y12 2.381119 1_555
F30 Y18 2.423509 1_555
F31 Y22 2.317539 1_555
F31 Y21 2.378849 1_555
F31 Y13 2.381119 1_545
F31 Y19 2.423509 1_555
