# generated using pymatgen
data_Zn3BPO7
_symmetry_space_group_name_H-M   'P 1'
_cell_length_a   8.54459583
_cell_length_b   8.54459583
_cell_length_c   13.20134500
_cell_angle_alpha   90.00000000
_cell_angle_beta   90.00000000
_cell_angle_gamma   119.99999865
_symmetry_Int_Tables_number   1
_chemical_formula_structural   Zn3BPO7
_chemical_formula_sum   'Zn18 B6 P6 O42'
_cell_volume   834.70279522
_cell_formula_units_Z   6
loop_
 _symmetry_equiv_pos_site_id
 _symmetry_equiv_pos_as_xyz
  1  'x, y, z'
loop_
 _atom_site_type_symbol
 _atom_site_label
 _atom_site_symmetry_multiplicity
 _atom_site_fract_x
 _atom_site_fract_y
 _atom_site_fract_z
 _atom_site_occupancy
  Zn  Zn0  1  0.98429900  0.66238800  0.11472500  1
  Zn  Zn1  1  0.67808900  0.01570100  0.11472500  1
  Zn  Zn2  1  0.33761200  0.32191100  0.11472500  1
  Zn  Zn3  1  0.98429900  0.66238800  0.88527500  1
  Zn  Zn4  1  0.67808900  0.01570100  0.88527500  1
  Zn  Zn5  1  0.33761200  0.32191100  0.88527500  1
  Zn  Zn6  1  0.67252500  0.66881800  0.25483700  1
  Zn  Zn7  1  0.99629400  0.32747500  0.25483700  1
  Zn  Zn8  1  0.33118200  0.00370600  0.25483700  1
  Zn  Zn9  1  0.67252500  0.66881800  0.74516300  1
  Zn  Zn10  1  0.99629400  0.32747500  0.74516300  1
  Zn  Zn11  1  0.33118200  0.00370600  0.74516300  1
  Zn  Zn12  1  0.31271100  0.34026100  0.61775700  1
  Zn  Zn13  1  0.02755100  0.68728900  0.61775700  1
  Zn  Zn14  1  0.65973900  0.97244900  0.61775700  1
  Zn  Zn15  1  0.31271100  0.34026100  0.38224300  1
  Zn  Zn16  1  0.02755100  0.68728900  0.38224300  1
  Zn  Zn17  1  0.65973900  0.97244900  0.38224300  1
  B  B0  1  0.66666700  0.33333300  0.19500500  1
  B  B1  1  0.66666700  0.33333300  0.80499500  1
  B  B2  1  0.33333300  0.66666700  0.71653800  1
  B  B3  1  0.33333300  0.66666700  0.28346200  1
  B  B4  1  0.00000000  0.00000000  0.72486100  1
  B  B5  1  0.00000000  0.00000000  0.27513900  1
  P  P0  1  0.65601100  0.68666800  0.00000000  1
  P  P1  1  0.03065700  0.34398900  0.00000000  1
  P  P2  1  0.31333200  0.96934300  0.00000000  1
  P  P3  1  0.68115200  0.64484800  0.50000000  1
  P  P4  1  0.96369600  0.31884800  0.50000000  1
  P  P5  1  0.35515200  0.03630400  0.50000000  1
  O  O0  1  0.85639300  0.73146800  0.00000000  1
  O  O1  1  0.87507500  0.14360700  0.00000000  1
  O  O2  1  0.26853200  0.12492500  0.00000000  1
  O  O3  1  0.62056400  0.76563000  0.09815900  1
  O  O4  1  0.14506600  0.37943600  0.09815900  1
  O  O5  1  0.23437000  0.85493400  0.09815900  1
  O  O6  1  0.62056400  0.76563000  0.90184100  1
  O  O7  1  0.14506600  0.37943600  0.90184100  1
  O  O8  1  0.23437000  0.85493400  0.90184100  1
  O  O9  1  0.51961700  0.48015800  0.00000000  1
  O  O10  1  0.96054100  0.48038300  0.00000000  1
  O  O11  1  0.51984200  0.03945900  0.00000000  1
  O  O12  1  0.76606800  0.61860600  0.40165400  1
  O  O13  1  0.85253900  0.23393200  0.40165400  1
  O  O14  1  0.38139400  0.14746100  0.40165400  1
  O  O15  1  0.76606800  0.61860600  0.59834600  1
  O  O16  1  0.85253900  0.23393200  0.59834600  1
  O  O17  1  0.38139400  0.14746100  0.59834600  1
  O  O18  1  0.47755300  0.50384200  0.50000000  1
  O  O19  1  0.02628900  0.52244700  0.50000000  1
  O  O20  1  0.49615800  0.97371100  0.50000000  1
  O  O21  1  0.71123600  0.84070500  0.50000000  1
  O  O22  1  0.12946900  0.28876400  0.50000000  1
  O  O23  1  0.15929500  0.87053100  0.50000000  1
  O  O24  1  0.76856300  0.51997400  0.19614600  1
  O  O25  1  0.75141100  0.23143700  0.19614600  1
  O  O26  1  0.48002600  0.24858900  0.19614600  1
  O  O27  1  0.76856300  0.51997400  0.80385400  1
  O  O28  1  0.75141100  0.23143700  0.80385400  1
  O  O29  1  0.48002600  0.24858900  0.80385400  1
  O  O30  1  0.41055500  0.55650500  0.71551200  1
  O  O31  1  0.14595000  0.58944500  0.71551200  1
  O  O32  1  0.44349500  0.85405000  0.71551200  1
  O  O33  1  0.41055500  0.55650500  0.28448800  1
  O  O34  1  0.14595000  0.58944500  0.28448800  1
  O  O35  1  0.44349500  0.85405000  0.28448800  1
  O  O36  1  0.11898300  0.18493700  0.72749200  1
  O  O37  1  0.06595400  0.88101700  0.72749200  1
  O  O38  1  0.81506300  0.93404600  0.72749200  1
  O  O39  1  0.11898300  0.18493700  0.27250800  1
  O  O40  1  0.06595400  0.88101700  0.27250800  1
  O  O41  1  0.81506300  0.93404600  0.27250800  1
loop_
_geom_bond_atom_site_label_1
_geom_bond_atom_site_label_2
_geom_bond_distance
_geom_bond_site_symmetry_2
B0 O25 1.383130 1_555
B0 O24 1.383137 1_555
B0 O26 1.383138 1_555
B1 O28 1.383130 1_555
B1 O27 1.383137 1_555
B1 O29 1.383138 1_555
B2 O31 1.393792 1_555
B2 O32 1.393793 1_555
B2 O30 1.393800 1_555
B3 O34 1.393792 1_555
B3 O35 1.393793 1_555
B3 O33 1.393800 1_555
B4 O37 1.387565 1_545
B4 O38 1.387565 1_445
B4 O36 1.387565 1_555
B5 O40 1.387565 1_545
B5 O41 1.387565 1_445
B5 O39 1.387565 1_555
O0 P0 1.556498 1_555
O0 Zn3 2.117010 1_554
O0 Zn0 2.117010 1_555
O1 P1 1.556498 1_655
O1 Zn4 2.117010 1_554
O1 Zn1 2.117010 1_555
O2 P2 1.556498 1_545
O2 Zn5 2.117010 1_554
O2 Zn2 2.117010 1_555
O3 P0 1.559001 1_555
O3 Zn1 1.950609 1_565
O3 Zn6 2.350915 1_555
O4 P1 1.559001 1_555
O4 Zn2 1.950609 1_555
O4 Zn7 2.350912 1_455
O5 P2 1.559001 1_555
O5 Zn0 1.950609 1_455
O5 Zn8 2.350912 1_565
O6 P0 1.559001 1_556
O6 Zn4 1.950609 1_565
O6 Zn9 2.350915 1_555
O7 P1 1.559001 1_556
O7 Zn5 1.950609 1_555
O7 Zn10 2.350912 1_455
O8 P2 1.559001 1_556
O8 Zn3 1.950609 1_455
O8 Zn11 2.350912 1_565
O9 P0 1.554153 1_555
O9 Zn2 2.106612 1_555
O9 Zn5 2.106612 1_554
O10 P1 1.554153 1_655
O10 Zn3 2.106612 1_554
O10 Zn0 2.106612 1_555
O11 P2 1.554153 1_545
O11 Zn4 2.106612 1_554
O11 Zn1 2.106612 1_555
O12 P3 1.557244 1_555
O12 Zn16 2.022574 1_655
O12 Zn6 2.218651 1_555
O13 P4 1.557241 1_555
O13 Zn17 2.022574 1_545
O13 Zn7 2.218651 1_555
O14 P5 1.557239 1_555
O14 Zn15 2.022574 1_555
O14 Zn8 2.218651 1_555
O15 P3 1.557244 1_555
O15 Zn13 2.022574 1_655
O15 Zn9 2.218651 1_555
O16 P4 1.557241 1_555
O16 Zn14 2.022574 1_545
O16 Zn10 2.218651 1_555
O17 P5 1.557239 1_555
O17 Zn12 2.022574 1_555
O17 Zn11 2.218651 1_555
O18 P3 1.543395 1_555
O18 Zn12 2.094150 1_555
O18 Zn15 2.094150 1_555
O19 P4 1.543395 1_455
O19 Zn16 2.094147 1_555
O19 Zn13 2.094147 1_555
O20 P5 1.543395 1_565
O20 Zn14 2.094153 1_555
O20 Zn17 2.094153 1_555
O21 P3 1.560947 1_555
O21 Zn14 2.091119 1_555
O21 Zn17 2.091119 1_555
O22 P4 1.560947 1_455
O22 Zn12 2.091124 1_555
O22 Zn15 2.091124 1_555
O23 P5 1.560947 1_565
O23 Zn16 2.091123 1_555
O23 Zn13 2.091123 1_555
O24 Zn0 1.947049 1_555
O24 Zn6 1.983651 1_555
O25 Zn1 1.947049 1_555
O25 Zn7 1.983658 1_555
O26 Zn2 1.947049 1_555
O26 Zn8 1.983657 1_555
O27 Zn3 1.947049 1_555
O27 Zn9 1.983651 1_555
O28 Zn4 1.947049 1_555
O28 Zn10 1.983658 1_555
O29 Zn5 1.947049 1_555
O29 Zn11 1.983657 1_555
O30 Zn9 1.984085 1_555
O30 Zn12 2.057581 1_555
O31 Zn10 1.984084 1_455
O31 Zn13 2.057576 1_555
O32 Zn11 1.984077 1_565
O32 Zn14 2.057581 1_555
O33 Zn6 1.984085 1_555
O33 Zn15 2.057581 1_555
O34 Zn7 1.984084 1_455
O34 Zn16 2.057576 1_555
O35 Zn8 1.984077 1_565
O35 Zn17 2.057581 1_555
O36 Zn10 1.978270 1_455
O36 Zn12 2.098377 1_555
O37 Zn11 1.978278 1_565
O37 Zn13 2.098379 1_555
O38 Zn9 1.978278 1_555
O38 Zn14 2.098373 1_555
O39 Zn7 1.978270 1_455
O39 Zn15 2.098377 1_555
O40 Zn8 1.978278 1_565
O40 Zn16 2.098379 1_555
O41 Zn6 1.978278 1_555
O41 Zn17 2.098373 1_555
