# generated using pymatgen
data_La4V5(Si2O11)2
_symmetry_space_group_name_H-M   'P 1'
_cell_length_a   5.73083117
_cell_length_b   7.39188205
_cell_length_c   11.23628222
_cell_angle_alpha   99.77409571
_cell_angle_beta   90.00000000
_cell_angle_gamma   112.80795506
_symmetry_Int_Tables_number   1
_chemical_formula_structural   La4V5(Si2O11)2
_chemical_formula_sum   'La4 V5 Si4 O22'
_cell_volume   431.26454584
_cell_formula_units_Z   1
loop_
 _symmetry_equiv_pos_site_id
 _symmetry_equiv_pos_as_xyz
  1  'x, y, z'
loop_
 _atom_site_type_symbol
 _atom_site_label
 _atom_site_symmetry_multiplicity
 _atom_site_fract_x
 _atom_site_fract_y
 _atom_site_fract_z
 _atom_site_occupancy
  O  O0  1  0.21757529  0.43515058  0.86358804  1
  O  O1  1  0.78242359  0.56484841  0.13641227  1
  O  O2  1  0.69498348  0.86011828  0.08602569  1
  O  O3  1  0.83486483  0.13988220  0.91397389  1
  O  O4  1  0.30501791  0.13988220  0.91397389  1
  O  O5  1  0.16513480  0.86011828  0.08602569  1
  O  O6  1  0.81110297  0.62220717  0.90211955  1
  O  O7  1  0.18889666  0.37779332  0.09788003  1
  O  O8  1  0.41072993  0.82145986  0.83950798  1
  O  O9  1  0.58926894  0.17853912  0.16049233  1
  O  O10  1  0.48855653  0.45130862  0.31173661  1
  O  O11  1  0.03724877  0.54869187  0.68826386  1
  O  O12  1  0.51144310  0.54869187  0.68826386  1
  O  O13  1  0.34970175  0.69940349  0.48524796  1
  O  O14  1  0.65029713  0.30059549  0.51475235  1
  O  O15  1  0.14261111  0.28522223  0.47544720  1
  O  O16  1  0.85738851  0.71477826  0.52455239  1
  O  O17  1  0.96275086  0.45130862  0.31173661  1
  O  O18  1  0.78181386  0.04471796  0.62941370  1
  O  O19  1  0.26290287  0.04471796  0.62941370  1
  O  O20  1  0.21818502  0.95528102  0.37058572  1
  O  O21  1  0.73709601  0.95528102  0.37058572  1
  Si  Si0  1  0.13823062  0.27646124  0.95697386  1
  Si  Si1  1  0.86176826  0.72353775  0.04302645  1
  Si  Si2  1  0.29580451  0.59160901  0.77045781  1
  Si  Si3  1  0.70419437  0.40838997  0.22954161  1
  V  V0  1  0.49999938  0.00000000  0.00000000  1
  V  V1  1  0.49999944  0.49999949  0.50000016  1
  V  V2  1  0.49999957  0.00000038  0.49999993  1
  V  V3  1  0.00000019  0.00000038  0.49999993  1
  V  V4  1  0.00000006  0.49999949  0.50000016  1
  La  La0  1  0.92717722  0.85435567  0.75218573  1
  La  La1  1  0.07282241  0.14564482  0.24781474  1
  La  La2  1  0.64347999  0.28696122  0.75733257  1
  La  La3  1  0.35651963  0.71303927  0.24266791  1
loop_
_geom_bond_atom_site_label_1
_geom_bond_atom_site_label_2
_geom_bond_distance
_geom_bond_site_symmetry_2
O0 Si2 1.625574 1_555
O0 Si0 1.639560 1_555
O1 Si3 1.625567 1_555
O1 Si1 1.639560 1_555
O2 Si1 1.657952 1_555
O2 V0 2.118303 1_565
O3 Si0 1.657954 1_655
O3 V0 2.118305 1_556
O4 Si0 1.657956 1_555
O4 V0 2.118298 1_556
O5 Si1 1.657958 1_455
O5 V0 2.118298 1_565
O6 Si1 1.606495 1_556
O7 Si0 1.606490 1_554
O8 Si2 1.614721 1_555
O8 V0 1.980899 1_566
O9 Si3 1.614718 1_555
O9 V0 1.980899 1_555
O10 Si3 1.638675 1_555
O10 V1 2.081317 1_555
O11 Si2 1.638668 1_555
O11 V4 2.081318 1_555
O12 Si2 1.638668 1_555
O12 V1 2.081318 1_555
O13 V4 2.002298 1_555
O13 V1 2.002298 1_555
O13 V2 2.024279 1_565
O14 V1 2.002298 1_555
O14 V4 2.002303 1_655
O14 V2 2.024267 1_555
O15 V3 2.012633 1_555
O15 V4 2.030221 1_555
O15 V1 2.030221 1_555
O16 V3 2.012634 1_665
O16 V1 2.030228 1_555
O16 V4 2.030233 1_655
O17 Si3 1.638675 1_555
O17 V4 2.081317 1_655
O18 V3 1.986068 1_655
O18 V2 2.062765 1_555
O19 V3 1.986063 1_555
O19 V2 2.062765 1_555
O20 V3 1.986069 1_565
O20 V2 2.062766 1_565
O21 V3 1.986069 1_665
O21 V2 2.062771 1_565
La0 O19 2.478893 1_665
La0 O18 2.478893 1_565
La0 O6 2.514356 1_555
La0 O16 2.559421 1_555
La0 O12 2.563743 1_555
La0 O11 2.563747 1_655
La0 O3 2.757191 1_565
La0 O4 2.757196 1_665
La0 O8 3.050335 1_555
La0 O8 3.050342 1_655
La1 O21 2.478892 1_445
La1 O20 2.478892 1_545
La1 O7 2.514364 1_555
La1 O15 2.559412 1_555
La1 O10 2.563743 1_555
La1 O17 2.563747 1_455
La1 O2 2.757197 1_445
La1 O5 2.757197 1_545
La1 O9 3.050334 1_555
La1 O9 3.050341 1_455
La2 O19 2.475375 1_555
La2 O18 2.475375 1_555
La2 O6 2.548737 1_555
La2 O12 2.561760 1_555
La2 O11 2.561764 1_655
La2 O4 2.656485 1_555
La2 O3 2.656490 1_555
La2 O14 2.744329 1_555
La3 O20 2.475364 1_555
La3 O21 2.475364 1_555
La3 O7 2.548742 1_555
La3 O10 2.561760 1_555
La3 O17 2.561764 1_455
La3 O5 2.656498 1_555
La3 O2 2.656498 1_555
La3 O13 2.744329 1_555
