# generated using pymatgen
data_TcB
_symmetry_space_group_name_H-M   'P 1'
_cell_length_a   2.88038871
_cell_length_b   2.88038871
_cell_length_c   2.94555200
_cell_angle_alpha   90.00000000
_cell_angle_beta   90.00000000
_cell_angle_gamma   120.00001630
_symmetry_Int_Tables_number   1
_chemical_formula_structural   TcB
_chemical_formula_sum   'Tc1 B1'
_cell_volume   21.16408291
_cell_formula_units_Z   1
loop_
 _symmetry_equiv_pos_site_id
 _symmetry_equiv_pos_as_xyz
  1  'x, y, z'
loop_
 _atom_site_type_symbol
 _atom_site_label
 _atom_site_symmetry_multiplicity
 _atom_site_fract_x
 _atom_site_fract_y
 _atom_site_fract_z
 _atom_site_occupancy
  Tc  Tc0  1  0.00000000  0.00000000  0.00000000  1
  B  B0  1  0.33333300  0.66666700  0.50000000  1
loop_
_geom_bond_atom_site_label_1
_geom_bond_atom_site_label_2
_geom_bond_distance
_geom_bond_site_symmetry_2
B0 Tc0 2.221398 1_566
B0 Tc0 2.221398 1_565
B0 Tc0 2.221400 1_665
B0 Tc0 2.221400 1_666
B0 Tc0 2.221400 1_555
B0 Tc0 2.221400 1_556
