# generated using pymatgen
data_Zr6Be15Cu8
_symmetry_space_group_name_H-M   'P 1'
_cell_length_a   7.86728495
_cell_length_b   7.86726638
_cell_length_c   7.86727737
_cell_angle_alpha   60.00384762
_cell_angle_beta   60.00392911
_cell_angle_gamma   60.00385136
_symmetry_Int_Tables_number   1
_chemical_formula_structural   Zr6Be15Cu8
_chemical_formula_sum   'Zr6 Be15 Cu8'
_cell_volume   344.34704697
_cell_formula_units_Z   1
loop_
 _symmetry_equiv_pos_site_id
 _symmetry_equiv_pos_as_xyz
  1  'x, y, z'
loop_
 _atom_site_type_symbol
 _atom_site_label
 _atom_site_symmetry_multiplicity
 _atom_site_fract_x
 _atom_site_fract_y
 _atom_site_fract_z
 _atom_site_occupancy
  Zr  Zr0  1  0.70462299  0.29537517  0.29537658  1
  Zr  Zr1  1  0.29537469  0.70462657  0.70462563  1
  Zr  Zr2  1  0.29537537  0.70462391  0.29537502  1
  Zr  Zr3  1  0.70462566  0.29537474  0.70462552  1
  Zr  Zr4  1  0.29537544  0.29537390  0.70462421  1
  Zr  Zr5  1  0.70462361  0.70462492  0.29537661  1
  Be  Be0  1  0.32335705  0.32335848  0.32335761  1
  Be  Be1  1  0.67664240  0.67664087  0.67664229  1
  Be  Be2  1  0.32336472  0.32336587  0.02991019  1
  Be  Be3  1  0.32336468  0.02991041  0.32336571  1
  Be  Be4  1  0.67663598  0.67663451  0.97008877  1
  Be  Be5  1  0.67663548  0.97008985  0.67663516  1
  Be  Be6  1  0.02991072  0.32336546  0.32336514  1
  Be  Be7  1  0.97008904  0.67663434  0.67663612  1
  Be  Be8  1  0.50000008  0.00000014  0.00000057  1
  Be  Be9  1  0.00000006  0.49999972  0.50000020  1
  Be  Be10  1  0.00000025  0.49999995  0.00000053  1
  Be  Be11  1  0.49999995  0.00000014  0.50000000  1
  Be  Be12  1  0.00000014  0.00000013  0.50000075  1
  Be  Be13  1  0.50000037  0.49999912  0.00000048  1
  Be  Be14  1  0.99999956  0.00000035  -0.00000072  1
  Cu  Cu0  1  0.12323853  0.12324001  0.12323552  1
  Cu  Cu1  1  0.87676448  0.87676285  0.87676185  1
  Cu  Cu2  1  0.12323567  0.12323719  0.63028647  1
  Cu  Cu3  1  0.12323691  0.63028365  0.12323526  1
  Cu  Cu4  1  0.87676276  0.87676079  0.36971605  1
  Cu  Cu5  1  0.87676463  0.36971516  0.87675977  1
  Cu  Cu6  1  0.63028548  0.12323719  0.12323467  1
  Cu  Cu7  1  0.36971329  0.87676358  0.87676108  1
loop_
_geom_bond_atom_site_label_1
_geom_bond_atom_site_label_2
_geom_bond_distance
_geom_bond_site_symmetry_2
Be0 Be9 2.279338 1_555
Be0 Be13 2.279338 1_555
Be0 Be11 2.279342 1_555
Be0 Be6 2.308569 1_555
Be0 Be3 2.308572 1_555
Be0 Be2 2.308573 1_555
Be0 Cu3 2.379947 1_555
Be0 Cu2 2.379961 1_555
Be0 Cu6 2.379966 1_555
Be0 Zr2 2.796782 1_555
Be0 Zr4 2.796790 1_555
Be0 Zr0 2.796793 1_555
Be1 Be9 2.279339 1_655
Be1 Be13 2.279341 1_556
Be1 Be11 2.279344 1_565
Be1 Be4 2.308575 1_555
Be1 Be7 2.308578 1_555
Be1 Be5 2.308586 1_555
Be1 Cu5 2.379938 1_555
Be1 Cu4 2.379945 1_555
Be1 Cu7 2.379958 1_555
Be1 Zr3 2.796780 1_555
Be1 Zr5 2.796785 1_555
Be1 Zr1 2.796792 1_555
Be2 Be8 2.279295 1_555
Be2 Be6 2.308826 1_555
Be2 Be3 2.308828 1_555
Be2 Cu0 2.379860 1_555
Be2 Cu3 2.379880 1_555
Be2 Cu6 2.379901 1_555
Be2 Zr4 2.796693 1_554
Be2 Zr1 2.796843 1_554
Be2 Zr3 2.796852 1_554
Be3 Be8 2.279298 1_555
Be3 Be6 2.308822 1_555
Be3 Cu0 2.379877 1_555
Be3 Cu2 2.379910 1_555
Be3 Cu6 2.379912 1_555
Be3 Zr2 2.796689 1_545
Be3 Zr1 2.796838 1_545
Be3 Zr5 2.796841 1_545
Be4 Be8 2.279301 1_566
Be4 Be7 2.308813 1_555
Be4 Be5 2.308820 1_555
Be4 Cu1 2.379887 1_555
Be4 Cu5 2.379905 1_555
Be4 Cu7 2.379926 1_555
Be4 Zr5 2.796693 1_556
Be4 Zr0 2.796847 1_556
Be4 Zr2 2.796856 1_556
Be5 Be8 2.279300 1_566
Be5 Be7 2.308822 1_555
Be5 Cu1 2.379880 1_555
Be5 Cu4 2.379908 1_555
Be5 Cu7 2.379919 1_555
Be5 Zr3 2.796679 1_565
Be5 Zr0 2.796837 1_565
Be5 Zr4 2.796842 1_565
Be6 Be9 2.279136 1_555
Be6 Cu0 2.379872 1_555
Be6 Cu3 2.379887 1_555
Be6 Cu2 2.379905 1_555
Be6 Zr0 2.796699 1_455
Be6 Zr5 2.796847 1_455
Be6 Zr3 2.796850 1_455
Be7 Be9 2.279143 1_655
Be7 Cu1 2.379875 1_555
Be7 Cu5 2.379887 1_555
Be7 Cu4 2.379901 1_555
Be7 Zr1 2.796695 1_655
Be7 Zr4 2.796849 1_655
Be7 Zr2 2.796858 1_655
Be8 Cu6 2.420276 1_555
Be8 Cu7 2.420316 1_544
Be8 Cu0 2.420499 1_555
Be8 Cu1 2.420517 1_544
Be8 Zr5 2.827055 1_545
Be8 Zr3 2.827058 1_554
Be8 Zr4 2.827060 1_554
Be8 Zr2 2.827062 1_545
Be9 Cu5 2.420486 1_455
Be9 Cu4 2.420490 1_455
Be9 Cu2 2.420500 1_555
Be9 Cu3 2.420520 1_555
Be9 Zr4 2.826996 1_555
Be9 Zr3 2.826997 1_455
Be9 Zr2 2.826998 1_555
Be9 Zr5 2.827001 1_455
Be10 Be2 2.279292 1_555
Be10 Be6 2.279293 1_555
Be10 Be7 2.279294 1_454
Be10 Be4 2.279296 1_454
Be10 Cu3 2.420266 1_555
Be10 Cu5 2.420305 1_454
Be10 Cu0 2.420481 1_555
Be10 Cu1 2.420500 1_454
Be10 Zr1 2.827064 1_554
Be10 Zr5 2.827066 1_455
Be10 Zr4 2.827070 1_554
Be10 Zr0 2.827072 1_455
Be11 Be3 2.279141 1_555
Be11 Be5 2.279148 1_545
Be11 Cu7 2.420496 1_545
Be11 Cu4 2.420509 1_545
Be11 Cu2 2.420519 1_555
Be11 Cu6 2.420523 1_555
Be11 Zr4 2.826986 1_555
Be11 Zr0 2.826990 1_555
Be11 Zr1 2.826990 1_545
Be11 Zr5 2.826991 1_545
Be12 Be6 2.279295 1_555
Be12 Be3 2.279296 1_555
Be12 Be5 2.279297 1_445
Be12 Be7 2.279300 1_445
Be12 Cu2 2.420287 1_555
Be12 Cu4 2.420307 1_445
Be12 Cu1 2.420493 1_445
Be12 Cu0 2.420520 1_555
Be12 Zr1 2.827052 1_545
Be12 Zr3 2.827053 1_455
Be12 Zr0 2.827065 1_455
Be12 Zr2 2.827067 1_545
Be13 Be2 2.279138 1_555
Be13 Be4 2.279144 1_554
Be13 Cu6 2.420496 1_555
Be13 Cu7 2.420512 1_554
Be13 Cu3 2.420513 1_555
Be13 Cu5 2.420518 1_554
Be13 Zr0 2.826994 1_555
Be13 Zr2 2.826995 1_555
Be13 Zr3 2.826995 1_554
Be13 Zr1 2.826999 1_554
Be14 Cu1 2.374801 1_544
Be14 Cu0 2.374832 1_655
Be14 Cu2 2.375006 1_654
Be14 Cu5 2.375013 1_554
Be14 Cu7 2.375014 1_644
Be14 Cu6 2.375016 1_555
Be14 Cu3 2.375025 1_645
Be14 Cu4 2.375031 1_545
Cu0 Zr4 2.725589 1_554
Cu0 Zr2 2.725617 1_545
Cu0 Zr0 2.725621 1_455
Cu1 Zr1 2.725587 1_655
Cu1 Zr3 2.725592 1_565
Cu1 Zr5 2.725617 1_556
Cu2 Zr4 2.725385 1_555
Cu2 Zr1 2.725548 1_545
Cu2 Zr3 2.725552 1_455
Cu3 Zr2 2.725411 1_555
Cu3 Zr1 2.725544 1_554
Cu3 Zr5 2.725573 1_455
Cu4 Zr5 2.725385 1_555
Cu4 Zr2 2.725567 1_655
Cu4 Zr0 2.725573 1_565
Cu5 Zr3 2.725379 1_555
Cu5 Zr4 2.725556 1_655
Cu5 Zr0 2.725595 1_556
Cu6 Zr0 2.725406 1_555
Cu6 Zr3 2.725542 1_554
Cu6 Zr5 2.725560 1_545
Cu7 Zr1 2.725362 1_555
Cu7 Zr4 2.725548 1_565
Cu7 Zr2 2.725577 1_556
