# generated using pymatgen
data_Ba4Ta2O9
_symmetry_space_group_name_H-M   'P 1'
_cell_length_a   6.12352716
_cell_length_b   6.12353090
_cell_length_c   16.61737786
_cell_angle_alpha   90.00002683
_cell_angle_beta   89.99995798
_cell_angle_gamma   120.00005265
_symmetry_Int_Tables_number   1
_chemical_formula_structural   Ba4Ta2O9
_chemical_formula_sum   'Ba8 Ta4 O18'
_cell_volume   539.63046406
_cell_formula_units_Z   2
loop_
 _symmetry_equiv_pos_site_id
 _symmetry_equiv_pos_as_xyz
  1  'x, y, z'
loop_
 _atom_site_type_symbol
 _atom_site_label
 _atom_site_symmetry_multiplicity
 _atom_site_fract_x
 _atom_site_fract_y
 _atom_site_fract_z
 _atom_site_occupancy
  Ba  Ba0  1  -0.00000032  -0.00000045  0.75000101  1
  Ba  Ba1  1  0.00000019  0.00000054  0.25000256  1
  Ba  Ba2  1  0.66666694  0.33333313  0.63365031  1
  Ba  Ba3  1  0.33333379  0.66666751  0.13363824  1
  Ba  Ba4  1  0.33333333  0.66666648  0.36636539  1
  Ba  Ba5  1  0.66666584  0.33333277  0.86635415  1
  Ba  Ba6  1  -0.00000005  -0.00000008  0.50001809  1
  Ba  Ba7  1  -0.00000046  0.00000000  0.99998572  1
  Ta  Ta0  1  0.66666635  0.33333396  0.34012122  1
  Ta  Ta1  1  0.33333219  0.66666491  0.84010486  1
  Ta  Ta2  1  0.33333416  0.66666588  0.65988218  1
  Ta  Ta3  1  0.66666815  0.33333502  0.15987908  1
  O  O0  1  0.52472600  0.95319490  0.75000247  1
  O  O1  1  0.04680402  0.57153051  0.75000257  1
  O  O2  1  0.42846895  0.47527253  0.75000271  1
  O  O3  1  0.47528859  0.04682110  0.25000119  1
  O  O4  1  0.95317952  0.42846776  0.25000133  1
  O  O5  1  0.57153269  0.52471288  0.25000116  1
  O  O6  1  0.11058765  0.35667038  0.60865114  1
  O  O7  1  0.64332786  0.75391543  0.60865092  1
  O  O8  1  0.24608333  0.88941119  0.60865068  1
  O  O9  1  0.88941650  0.64331299  0.10864654  1
  O  O10  1  0.35668818  0.24610473  0.10864629  1
  O  O11  1  0.75389666  0.11058535  0.10864647  1
  O  O12  1  0.88941553  0.64331080  0.39135195  1
  O  O13  1  0.35668920  0.24610500  0.39135172  1
  O  O14  1  0.75389516  0.11058450  0.39135197  1
  O  O15  1  0.11058019  0.35666156  0.89134619  1
  O  O16  1  0.64333646  0.75391772  0.89134650  1
  O  O17  1  0.24608040  0.88941803  0.89134640  1
loop_
_geom_bond_atom_site_label_1
_geom_bond_atom_site_label_2
_geom_bond_distance
_geom_bond_site_symmetry_2
Ba0 O2 2.778154 1_555
Ba0 O0 2.778156 1_445
Ba0 O1 2.778158 1_545
Ba0 O15 3.044077 1_555
Ba0 O17 3.044081 1_545
Ba0 O16 3.044083 1_445
Ba0 O6 3.044164 1_555
Ba0 O7 3.044170 1_445
Ba0 O8 3.044173 1_545
Ba1 O5 2.778201 1_445
Ba1 O4 2.778204 1_455
Ba1 O3 2.778205 1_555
Ba1 O13 3.044225 1_555
Ba1 O14 3.044228 1_455
Ba1 O12 3.044231 1_445
Ba1 O9 3.044308 1_445
Ba1 O10 3.044311 1_555
Ba1 O11 3.044313 1_455
Ba2 O6 2.682165 1_655
Ba2 O7 2.682167 1_555
Ba2 O8 2.682170 1_545
Ba2 O1 2.808751 1_655
Ba2 O2 2.808754 1_555
Ba2 O0 2.808754 1_545
Ba3 O9 2.682077 1_455
Ba3 O11 2.682078 1_565
Ba3 O10 2.682079 1_555
Ba3 O3 2.808932 1_565
Ba3 O5 2.808933 1_555
Ba3 O4 2.808935 1_455
Ba4 O13 2.682062 1_555
Ba4 O14 2.682063 1_565
Ba4 O12 2.682063 1_455
Ba4 O5 2.808944 1_555
Ba4 O4 2.808945 1_455
Ba4 O3 2.808951 1_565
Ba5 O15 2.682132 1_655
Ba5 O17 2.682132 1_545
Ba5 O16 2.682132 1_555
Ba5 O2 2.808741 1_555
Ba5 O1 2.808746 1_655
Ba5 O0 2.808748 1_545
Ba6 O6 2.647357 1_555
Ba6 O8 2.647359 1_545
Ba6 O7 2.647360 1_445
Ba6 O12 2.647814 1_445
Ba6 O13 2.647816 1_555
Ba6 O14 2.647816 1_455
Ba7 O15 2.647399 1_555
Ba7 O17 2.647400 1_545
Ba7 O16 2.647401 1_445
Ba7 O9 2.647747 1_446
Ba7 O11 2.647748 1_456
Ba7 O10 2.647749 1_556
O0 Ta1 2.153499 1_555
O0 Ta2 2.153701 1_555
O1 Ta1 2.153493 1_555
O1 Ta2 2.153708 1_555
O2 Ta1 2.153493 1_555
O2 Ta2 2.153704 1_555
O3 Ta0 2.153633 1_555
O3 Ta3 2.153662 1_555
O4 Ta0 2.153633 1_555
O4 Ta3 2.153655 1_555
O5 Ta0 2.153635 1_555
O5 Ta3 2.153658 1_555
O6 Ta2 1.897215 1_555
O7 Ta2 1.897206 1_555
O8 Ta2 1.897221 1_555
O9 Ta3 1.897160 1_555
O10 Ta3 1.897171 1_555
O11 Ta3 1.897164 1_555
O12 Ta0 1.897143 1_555
O13 Ta0 1.897140 1_555
O14 Ta0 1.897151 1_555
O15 Ta1 1.897330 1_555
O16 Ta1 1.897335 1_555
O17 Ta1 1.897340 1_555
