# generated using pymatgen
data_Cs2MoO4
_symmetry_space_group_name_H-M   'P 1'
_cell_length_a   6.53833819
_cell_length_b   8.53671604
_cell_length_c   11.60642050
_cell_angle_alpha   90.00000000
_cell_angle_beta   90.00000000
_cell_angle_gamma   90.00000000
_symmetry_Int_Tables_number   1
_chemical_formula_structural   Cs2MoO4
_chemical_formula_sum   'Cs8 Mo4 O16'
_cell_volume   647.82322964
_cell_formula_units_Z   4
loop_
 _symmetry_equiv_pos_site_id
 _symmetry_equiv_pos_as_xyz
  1  'x, y, z'
loop_
 _atom_site_type_symbol
 _atom_site_label
 _atom_site_symmetry_multiplicity
 _atom_site_fract_x
 _atom_site_fract_y
 _atom_site_fract_z
 _atom_site_occupancy
  Cs  Cs0  1  0.25000000  0.17067709  0.91551815  1
  Cs  Cs1  1  0.25000000  0.67067709  0.58448185  1
  Cs  Cs2  1  0.75000000  0.82932291  0.08448185  1
  Cs  Cs3  1  0.75000000  0.32932291  0.41551815  1
  Cs  Cs4  1  0.25000000  0.49024912  0.20632551  1
  Cs  Cs5  1  0.25000000  0.99024912  0.29367449  1
  Cs  Cs6  1  0.75000000  0.50975088  0.79367449  1
  Cs  Cs7  1  0.75000000  0.00975088  0.70632551  1
  Mo  Mo0  1  0.25000000  0.72585258  0.92102364  1
  Mo  Mo1  1  0.25000000  0.22585258  0.57897636  1
  Mo  Mo2  1  0.75000000  0.27414742  0.07897636  1
  Mo  Mo3  1  0.75000000  0.77414742  0.42102364  1
  O  O0  1  0.25000000  0.51920274  0.91883619  1
  O  O1  1  0.25000000  0.01920274  0.58116381  1
  O  O2  1  0.75000000  0.48079726  0.08116381  1
  O  O3  1  0.75000000  0.98079726  0.41883619  1
  O  O4  1  0.25000000  0.79473525  0.06527511  1
  O  O5  1  0.25000000  0.29473525  0.43472489  1
  O  O6  1  0.75000000  0.20526475  0.93472489  1
  O  O7  1  0.75000000  0.70526475  0.56527511  1
  O  O8  1  0.02822158  0.79713709  0.85099425  1
  O  O9  1  0.47177842  0.29713709  0.64900575  1
  O  O10  1  0.52822158  0.20286291  0.14900575  1
  O  O11  1  0.97177842  0.70286291  0.35099425  1
  O  O12  1  0.97177842  0.20286291  0.14900575  1
  O  O13  1  0.52822158  0.70286291  0.35099425  1
  O  O14  1  0.47177842  0.79713709  0.85099425  1
  O  O15  1  0.02822158  0.29713709  0.64900575  1
loop_
_geom_bond_atom_site_label_1
_geom_bond_atom_site_label_2
_geom_bond_distance
_geom_bond_site_symmetry_2
Cs0 O0 2.975514 1_555
Cs0 O10 3.275439 1_556
Cs0 O12 3.275439 1_456
Cs0 O6 3.290037 1_555
Cs0 O6 3.290037 1_455
Cs0 O14 3.582178 1_545
Cs0 O8 3.582178 1_545
Cs0 O15 3.582784 1_555
Cs0 O9 3.582784 1_555
Cs0 O4 3.649767 1_546
Cs1 O1 2.975514 1_565
Cs1 O13 3.275439 1_555
Cs1 O11 3.275439 1_455
Cs1 O7 3.290037 1_555
Cs1 O7 3.290037 1_455
Cs1 O15 3.582178 1_555
Cs1 O9 3.582178 1_555
Cs1 O8 3.582784 1_555
Cs1 O14 3.582784 1_555
Cs1 O5 3.649767 1_555
Cs2 O2 2.975514 1_555
Cs2 O14 3.275439 1_554
Cs2 O8 3.275439 1_654
Cs2 O4 3.290037 1_655
Cs2 O4 3.290037 1_555
Cs2 O12 3.582178 1_565
Cs2 O10 3.582178 1_565
Cs2 O11 3.582784 1_555
Cs2 O13 3.582784 1_555
Cs2 O6 3.649767 1_564
Cs3 O3 2.975514 1_545
Cs3 O9 3.275439 1_555
Cs3 O15 3.275439 1_655
Cs3 O5 3.290037 1_655
Cs3 O5 3.290037 1_555
Cs3 O11 3.582178 1_555
Cs3 O13 3.582178 1_555
Cs3 O12 3.582784 1_555
Cs3 O10 3.582784 1_555
Cs3 O7 3.649767 1_555
Cs4 O13 3.069656 1_555
Cs4 O11 3.069656 1_455
Cs4 O4 3.071886 1_555
Cs4 O12 3.125795 1_455
Cs4 O10 3.125795 1_555
Cs4 O5 3.132568 1_555
Cs4 O0 3.345864 1_554
Cs4 O2 3.578303 1_455
Cs4 O2 3.578303 1_555
Cs5 O12 3.069656 1_465
Cs5 O10 3.069656 1_565
Cs5 O5 3.071886 1_565
Cs5 O13 3.125795 1_555
Cs5 O11 3.125795 1_455
Cs5 O4 3.132568 1_555
Cs5 O1 3.345864 1_565
Cs5 O3 3.578303 1_455
Cs5 O3 3.578303 1_555
Cs6 O9 3.069656 1_555
Cs6 O15 3.069656 1_655
Cs6 O6 3.071886 1_555
Cs6 O14 3.125795 1_555
Cs6 O8 3.125795 1_655
Cs6 O7 3.132568 1_555
Cs6 O2 3.345864 1_556
Cs6 O0 3.578303 1_555
Cs6 O0 3.578303 1_655
Cs7 O14 3.069656 1_545
Cs7 O8 3.069656 1_645
Cs7 O7 3.071886 1_545
Cs7 O9 3.125795 1_555
Cs7 O15 3.125795 1_655
Cs7 O6 3.132568 1_555
Cs7 O3 3.345864 1_545
Cs7 O1 3.578303 1_655
Cs7 O1 3.578303 1_555
Mo0 O0 1.764294 1_555
Mo0 O14 1.770205 1_555
Mo0 O8 1.770205 1_555
Mo0 O4 1.774506 1_556
Mo1 O1 1.764294 1_555
Mo1 O9 1.770205 1_555
Mo1 O15 1.770205 1_555
Mo1 O5 1.774506 1_555
Mo2 O2 1.764294 1_555
Mo2 O10 1.770205 1_555
Mo2 O12 1.770205 1_555
Mo2 O6 1.774506 1_554
Mo3 O3 1.764294 1_555
Mo3 O13 1.770205 1_555
Mo3 O11 1.770205 1_555
Mo3 O7 1.774506 1_555
