# generated using pymatgen
data_ZnSO5
_symmetry_space_group_name_H-M   'P 1'
_cell_length_a   5.27058399
_cell_length_b   5.27058399
_cell_length_c   7.45199292
_cell_angle_alpha   107.76646412
_cell_angle_beta   107.76646412
_cell_angle_gamma   97.02956655
_symmetry_Int_Tables_number   1
_chemical_formula_structural   ZnSO5
_chemical_formula_sum   'Zn2 S2 O10'
_cell_volume   182.35803109
_cell_formula_units_Z   2
loop_
 _symmetry_equiv_pos_site_id
 _symmetry_equiv_pos_as_xyz
  1  'x, y, z'
loop_
 _atom_site_type_symbol
 _atom_site_label
 _atom_site_symmetry_multiplicity
 _atom_site_fract_x
 _atom_site_fract_y
 _atom_site_fract_z
 _atom_site_occupancy
  Zn  Zn0  1  0.00000000  0.00000000  0.50000000  1
  Zn  Zn1  1  0.00000000  0.00000000  0.00000000  1
  S  S0  1  0.65951600  0.34048400  0.75000000  1
  S  S1  1  0.34048400  0.65951600  0.25000000  1
  O  O0  1  0.10473100  0.89526900  0.75000000  1
  O  O1  1  0.89526900  0.10473100  0.25000000  1
  O  O2  1  0.66779000  0.13342700  0.84926300  1
  O  O3  1  0.86657300  0.33221000  0.65073700  1
  O  O4  1  0.33221000  0.86657300  0.15073700  1
  O  O5  1  0.13342700  0.66779000  0.34926300  1
  O  O6  1  0.37917700  0.27761700  0.59968500  1
  O  O7  1  0.72238300  0.62082300  0.90031500  1
  O  O8  1  0.62082300  0.72238300  0.40031500  1
  O  O9  1  0.27761700  0.37917700  0.09968500  1
loop_
_geom_bond_atom_site_label_1
_geom_bond_atom_site_label_2
_geom_bond_distance
_geom_bond_site_symmetry_2
O0 Zn1 2.038317 1_566
O0 Zn0 2.038317 1_565
O1 Zn0 2.038317 1_655
O1 Zn1 2.038317 1_655
O2 S0 1.491522 1_555
O2 Zn1 2.098877 1_656
O3 S0 1.491522 1_555
O3 Zn0 2.098877 1_655
O4 S1 1.491522 1_555
O4 Zn1 2.098877 1_565
O5 S1 1.491522 1_555
O5 Zn0 2.098877 1_565
O6 S0 1.480298 1_555
O6 Zn0 2.098014 1_555
O7 S0 1.480298 1_555
O7 Zn1 2.098014 1_666
O8 S1 1.480298 1_555
O8 Zn0 2.098014 1_665
O9 S1 1.480298 1_555
O9 Zn1 2.098014 1_555
