# generated using pymatgen
data_Yb6Al7Cu16
_symmetry_space_group_name_H-M   'P 1'
_cell_length_a   8.70507845
_cell_length_b   8.70507845
_cell_length_c   8.70507845
_cell_angle_alpha   60.00000000
_cell_angle_beta   60.00000000
_cell_angle_gamma   60.00000000
_symmetry_Int_Tables_number   1
_chemical_formula_structural   Yb6Al7Cu16
_chemical_formula_sum   'Yb6 Al7 Cu16'
_cell_volume   466.44782201
_cell_formula_units_Z   1
loop_
 _symmetry_equiv_pos_site_id
 _symmetry_equiv_pos_as_xyz
  1  'x, y, z'
loop_
 _atom_site_type_symbol
 _atom_site_label
 _atom_site_symmetry_multiplicity
 _atom_site_fract_x
 _atom_site_fract_y
 _atom_site_fract_z
 _atom_site_occupancy
  Yb  Yb0  1  0.71279900  0.71279900  0.28720100  1
  Yb  Yb1  1  0.28720100  0.71279900  0.28720100  1
  Yb  Yb2  1  0.71279900  0.28720100  0.28720100  1
  Yb  Yb3  1  0.28720100  0.28720100  0.71279900  1
  Yb  Yb4  1  0.71279900  0.28720100  0.71279900  1
  Yb  Yb5  1  0.28720100  0.71279900  0.71279900  1
  Al  Al0  1  0.00000000  0.00000000  0.00000000  1
  Al  Al1  1  0.00000000  0.00000000  0.50000000  1
  Al  Al2  1  0.50000000  0.00000000  0.50000000  1
  Al  Al3  1  0.00000000  0.50000000  0.50000000  1
  Al  Al4  1  0.50000000  0.50000000  0.00000000  1
  Al  Al5  1  0.00000000  0.50000000  0.00000000  1
  Al  Al6  1  0.50000000  0.00000000  0.00000000  1
  Cu  Cu0  1  0.87808500  0.87808500  0.36574500  1
  Cu  Cu1  1  0.87808500  0.36574500  0.87808500  1
  Cu  Cu2  1  0.36574500  0.87808500  0.87808500  1
  Cu  Cu3  1  0.87808500  0.87808500  0.87808500  1
  Cu  Cu4  1  0.12191500  0.12191500  0.63425500  1
  Cu  Cu5  1  0.12191500  0.63425500  0.12191500  1
  Cu  Cu6  1  0.63425500  0.12191500  0.12191500  1
  Cu  Cu7  1  0.12191500  0.12191500  0.12191500  1
  Cu  Cu8  1  0.67193000  0.67193000  0.98420900  1
  Cu  Cu9  1  0.67193000  0.98420900  0.67193000  1
  Cu  Cu10  1  0.98420900  0.67193000  0.67193000  1
  Cu  Cu11  1  0.67193000  0.67193000  0.67193000  1
  Cu  Cu12  1  0.32807000  0.32807000  0.01579100  1
  Cu  Cu13  1  0.32807000  0.01579100  0.32807000  1
  Cu  Cu14  1  0.01579100  0.32807000  0.32807000  1
  Cu  Cu15  1  0.32807000  0.32807000  0.32807000  1
loop_
_geom_bond_atom_site_label_1
_geom_bond_atom_site_label_2
_geom_bond_distance
_geom_bond_site_symmetry_2
Al0 Cu7 2.599594 1_555
Al0 Cu4 2.599594 1_554
Al0 Cu3 2.599594 1_444
Al0 Cu1 2.599594 1_454
Al0 Cu2 2.599594 1_544
Al0 Cu5 2.599594 1_545
Al0 Cu6 2.599594 1_455
Al0 Cu0 2.599594 1_445
Al1 Cu13 2.515447 1_555
Al1 Cu10 2.515447 1_445
Al1 Cu14 2.515447 1_555
Al1 Cu9 2.515447 1_445
Al1 Cu7 2.688018 1_555
Al1 Cu4 2.688018 1_555
Al1 Cu3 2.688018 1_445
Al1 Cu0 2.688018 1_445
Al1 Yb5 3.111598 1_545
Al1 Yb4 3.111598 1_455
Al1 Yb1 3.111598 1_545
Al1 Yb2 3.111598 1_455
Al2 Cu9 2.515440 1_545
Al2 Cu13 2.515440 1_555
Al2 Cu15 2.515445 1_555
Al2 Cu11 2.515445 1_545
Al2 Cu4 2.688018 1_555
Al2 Cu2 2.688018 1_545
Al2 Cu6 2.688018 1_555
Al2 Cu0 2.688018 1_545
Al2 Yb2 3.111598 1_555
Al2 Yb3 3.111598 1_555
Al2 Yb5 3.111598 1_545
Al2 Yb0 3.111598 1_545
Al3 Cu14 2.515440 1_555
Al3 Cu10 2.515440 1_455
Al3 Cu15 2.515445 1_555
Al3 Cu11 2.515445 1_455
Al3 Cu4 2.688018 1_555
Al3 Cu1 2.688018 1_455
Al3 Cu5 2.688018 1_555
Al3 Cu0 2.688018 1_455
Al3 Yb3 3.111598 1_555
Al3 Yb1 3.111598 1_555
Al3 Yb0 3.111598 1_455
Al3 Yb4 3.111598 1_455
Al4 Cu12 2.515440 1_555
Al4 Cu8 2.515440 1_554
Al4 Cu15 2.515445 1_555
Al4 Cu11 2.515445 1_554
Al4 Cu6 2.688018 1_555
Al4 Cu1 2.688018 1_554
Al4 Cu5 2.688018 1_555
Al4 Cu2 2.688018 1_554
Al4 Yb2 3.111598 1_555
Al4 Yb1 3.111598 1_555
Al4 Yb4 3.111598 1_554
Al4 Yb5 3.111598 1_554
Al5 Cu14 2.515447 1_555
Al5 Cu8 2.515447 1_454
Al5 Cu12 2.515447 1_555
Al5 Cu10 2.515447 1_454
Al5 Cu1 2.688018 1_454
Al5 Cu7 2.688018 1_555
Al5 Cu3 2.688018 1_454
Al5 Cu5 2.688018 1_555
Al5 Yb5 3.111598 1_554
Al5 Yb0 3.111598 1_455
Al5 Yb3 3.111598 1_554
Al5 Yb2 3.111598 1_455
Al6 Cu13 2.515447 1_555
Al6 Cu8 2.515447 1_544
Al6 Cu12 2.515447 1_555
Al6 Cu9 2.515447 1_544
Al6 Cu7 2.688018 1_555
Al6 Cu2 2.688018 1_544
Al6 Cu3 2.688018 1_544
Al6 Cu6 2.688018 1_555
Al6 Yb4 3.111598 1_554
Al6 Yb0 3.111598 1_545
Al6 Yb3 3.111598 1_554
Al6 Yb1 3.111598 1_545
Cu0 Cu9 2.683162 1_555
Cu0 Cu10 2.683162 1_555
Cu0 Cu11 2.683167 1_555
Cu0 Yb1 2.940358 1_655
Cu0 Yb2 2.940358 1_565
Cu0 Yb0 2.940358 1_555
Cu1 Cu8 2.683162 1_555
Cu1 Cu10 2.683162 1_555
Cu1 Cu11 2.683167 1_555
Cu1 Yb2 2.940358 1_556
Cu1 Yb3 2.940358 1_655
Cu1 Yb4 2.940358 1_555
Cu2 Cu8 2.683162 1_555
Cu2 Cu9 2.683162 1_555
Cu2 Yb1 2.940358 1_556
Cu2 Yb3 2.940358 1_565
Cu2 Yb5 2.940358 1_555
Cu3 Cu8 2.683170 1_555
Cu3 Cu9 2.683170 1_555
Cu3 Yb5 2.940358 1_655
Cu3 Yb0 2.940358 1_556
Cu3 Yb4 2.940358 1_565
Cu4 Yb3 2.940358 1_555
Cu4 Yb4 2.940358 1_455
Cu4 Yb5 2.940358 1_545
Cu5 Yb1 2.940358 1_555
Cu5 Yb0 2.940358 1_455
Cu5 Yb5 2.940358 1_554
Cu6 Yb2 2.940358 1_555
Cu6 Yb0 2.940358 1_545
Cu6 Yb4 2.940358 1_554
Cu7 Yb1 2.940358 1_545
Cu7 Yb2 2.940358 1_455
Cu7 Yb3 2.940358 1_554
Cu8 Cu9 2.718413 1_555
Cu8 Yb1 3.035321 1_556
Cu8 Yb2 3.035321 1_556
Cu8 Yb0 3.035327 1_556
Cu9 Yb2 3.035321 1_565
Cu9 Yb3 3.035321 1_565
Cu9 Yb4 3.035327 1_565
Cu10 Cu3 2.683170 1_555
Cu10 Cu8 2.718413 1_555
Cu10 Cu11 2.718413 1_555
Cu10 Cu9 2.718413 1_555
Cu10 Yb1 3.035321 1_655
Cu10 Yb3 3.035321 1_655
Cu10 Yb5 3.035327 1_655
Cu11 Cu2 2.683167 1_555
Cu11 Cu9 2.718413 1_555
Cu11 Cu8 2.718413 1_555
Cu11 Yb5 3.035318 1_555
Cu11 Yb0 3.035318 1_555
Cu11 Yb4 3.035318 1_555
Cu12 Cu5 2.683162 1_555
Cu12 Cu6 2.683162 1_555
Cu12 Cu7 2.683170 1_555
Cu12 Cu15 2.718413 1_555
Cu12 Cu14 2.718413 1_555
Cu12 Cu13 2.718413 1_555
Cu12 Yb4 3.035321 1_554
Cu12 Yb5 3.035321 1_554
Cu12 Yb3 3.035327 1_554
Cu13 Cu4 2.683162 1_555
Cu13 Cu6 2.683162 1_555
Cu13 Cu7 2.683170 1_555
Cu13 Cu15 2.718413 1_555
Cu13 Cu14 2.718413 1_555
Cu13 Yb0 3.035321 1_545
Cu13 Yb5 3.035321 1_545
Cu13 Yb1 3.035327 1_545
Cu14 Cu4 2.683162 1_555
Cu14 Cu5 2.683162 1_555
Cu14 Cu7 2.683170 1_555
Cu14 Cu15 2.718413 1_555
Cu14 Yb0 3.035321 1_455
Cu14 Yb4 3.035321 1_455
Cu14 Yb2 3.035327 1_455
Cu15 Cu5 2.683167 1_555
Cu15 Cu6 2.683167 1_555
Cu15 Cu4 2.683167 1_555
Cu15 Yb2 3.035318 1_555
Cu15 Yb3 3.035318 1_555
Cu15 Yb1 3.035318 1_555
