# generated using pymatgen
data_Li2Nd2Ge3
_symmetry_space_group_name_H-M   'P 1'
_cell_length_a   4.43941319
_cell_length_b   6.92547073
_cell_length_c   9.60778382
_cell_angle_alpha   90.00000000
_cell_angle_beta   103.35784412
_cell_angle_gamma   90.00000000
_symmetry_Int_Tables_number   1
_chemical_formula_structural   Li2Nd2Ge3
_chemical_formula_sum   'Li4 Nd4 Ge6'
_cell_volume   287.40007798
_cell_formula_units_Z   2
loop_
 _symmetry_equiv_pos_site_id
 _symmetry_equiv_pos_as_xyz
  1  'x, y, z'
loop_
 _atom_site_type_symbol
 _atom_site_label
 _atom_site_symmetry_multiplicity
 _atom_site_fract_x
 _atom_site_fract_y
 _atom_site_fract_z
 _atom_site_occupancy
  Li  Li0  1  0.80914705  0.06152822  0.61829509  1
  Li  Li1  1  0.19085295  0.93847178  0.38170491  1
  Li  Li2  1  0.80914705  0.43847178  0.61829509  1
  Li  Li3  1  0.19085295  0.56152822  0.38170491  1
  Nd  Nd0  1  0.55262323  0.75000000  0.10524645  1
  Nd  Nd1  1  0.44737677  0.25000000  0.89475355  1
  Nd  Nd2  1  0.34195892  0.75000000  0.68391884  1
  Nd  Nd3  1  0.65804108  0.25000000  0.31608116  1
  Ge  Ge0  1  0.93842469  0.56794500  0.87685138  1
  Ge  Ge1  1  0.06157531  0.43205500  0.12314862  1
  Ge  Ge2  1  0.93842469  0.93205500  0.87685038  1
  Ge  Ge3  1  0.06157531  0.06794500  0.12314962  1
  Ge  Ge4  1  0.72010693  0.75000000  0.44021386  1
  Ge  Ge5  1  0.27989307  0.25000000  0.55978614  1
loop_
_geom_bond_atom_site_label_1
_geom_bond_atom_site_label_2
_geom_bond_distance
_geom_bond_site_symmetry_2
Li0 Nd3 3.112011 1_555
Li0 Nd2 3.155650 1_645
Li0 Nd2 3.155650 1_545
Li1 Nd2 3.112011 1_555
Li1 Nd3 3.155650 1_465
Li1 Nd3 3.155650 1_565
Li2 Nd3 3.112011 1_555
Li2 Nd2 3.155650 1_655
Li2 Nd2 3.155650 1_555
Li3 Nd2 3.112011 1_555
Li3 Nd3 3.155650 1_455
Li3 Nd3 3.155650 1_555
Ge0 Ge1 2.487266 1_656
Ge0 Ge2 2.521633 1_555
Ge0 Li2 2.577913 1_555
Ge0 Nd2 3.125600 1_555
Ge0 Nd2 3.125604 1_655
Ge0 Nd1 3.131059 1_555
Ge0 Nd1 3.131065 1_655
Ge0 Nd0 3.327909 1_556
Ge0 Nd0 3.327915 1_656
Ge1 Ge3 2.521633 1_555
Ge1 Li3 2.577913 1_555
Ge1 Nd3 3.125600 1_555
Ge1 Nd3 3.125604 1_455
Ge1 Nd0 3.131059 1_555
Ge1 Nd0 3.131065 1_455
Ge1 Nd1 3.327909 1_554
Ge1 Nd1 3.327915 1_454
Ge2 Ge3 2.487284 1_666
Ge2 Li0 2.577905 1_565
Ge2 Nd2 3.125597 1_655
Ge2 Nd2 3.125597 1_555
Ge2 Nd1 3.131061 1_565
Ge2 Nd1 3.131064 1_665
Ge2 Nd0 3.327917 1_556
Ge2 Nd0 3.327920 1_656
Ge3 Li1 2.577905 1_545
Ge3 Nd3 3.125597 1_455
Ge3 Nd3 3.125597 1_555
Ge3 Nd0 3.131061 1_545
Ge3 Nd0 3.131064 1_445
Ge3 Nd1 3.327917 1_554
Ge3 Nd1 3.327920 1_454
Ge4 Li1 2.632473 1_555
Ge4 Li3 2.632473 1_555
Ge4 Li3 2.632477 1_655
Ge4 Li1 2.632477 1_655
Ge4 Li0 2.725045 1_565
Ge4 Li2 2.725045 1_555
Ge4 Nd0 3.131227 1_555
Ge4 Nd2 3.180710 1_655
Ge4 Nd2 3.180713 1_555
Ge5 Li0 2.632473 1_555
Ge5 Li2 2.632473 1_555
Ge5 Li2 2.632477 1_455
Ge5 Li0 2.632477 1_455
Ge5 Li3 2.725045 1_555
Ge5 Li1 2.725045 1_545
Ge5 Nd1 3.131227 1_555
Ge5 Nd3 3.180710 1_455
Ge5 Nd3 3.180713 1_555
