# generated using pymatgen
data_Ba4Ca(RhO3)4
_symmetry_space_group_name_H-M   'P 1'
_cell_length_a   5.82136100
_cell_length_b   5.82136167
_cell_length_c   10.52196200
_cell_angle_alpha   90.00000000
_cell_angle_beta   90.00000000
_cell_angle_gamma   120.00000185
_symmetry_Int_Tables_number   1
_chemical_formula_structural   Ba4Ca(RhO3)4
_chemical_formula_sum   'Ba4 Ca1 Rh4 O12'
_cell_volume   308.79941357
_cell_formula_units_Z   1
loop_
 _symmetry_equiv_pos_site_id
 _symmetry_equiv_pos_as_xyz
  1  'x, y, z'
loop_
 _atom_site_type_symbol
 _atom_site_label
 _atom_site_symmetry_multiplicity
 _atom_site_fract_x
 _atom_site_fract_y
 _atom_site_fract_z
 _atom_site_occupancy
  Ba  Ba0  1  0.66666700  0.33333300  0.73056900  1
  Ba  Ba1  1  0.33333300  0.66666700  0.28233900  1
  Ba  Ba2  1  0.00000000  0.00000000  0.48666500  1
  Ba  Ba3  1  0.00000000  0.00000000  0.10098900  1
  Ca  Ca0  1  0.00000000  0.00000000  0.82974000  1
  Rh  Rh0  1  0.33333300  0.66666700  0.88336000  1
  Rh  Rh1  1  0.66666700  0.33333300  0.38437400  1
  Rh  Rh2  1  0.66666700  0.33333300  0.11129700  1
  Rh  Rh3  1  0.33333300  0.66666700  0.60663900  1
  O  O0  1  0.18384300  0.36768600  0.73210200  1
  O  O1  1  0.81469500  0.18530500  0.25467200  1
  O  O2  1  0.37061000  0.18530500  0.25467200  1
  O  O3  1  0.63231400  0.81615700  0.73210200  1
  O  O4  1  0.18384300  0.81615700  0.73210200  1
  O  O5  1  0.81469500  0.62939000  0.25467200  1
  O  O6  1  0.49717500  0.99435000  0.49088700  1
  O  O7  1  0.51238200  0.48761800  0.96909800  1
  O  O8  1  0.51238200  0.02476400  0.96909800  1
  O  O9  1  0.49717500  0.50282500  0.49088700  1
  O  O10  1  0.00565000  0.50282500  0.49088700  1
  O  O11  1  0.97523600  0.48761800  0.96909800  1
loop_
_geom_bond_atom_site_label_1
_geom_bond_atom_site_label_2
_geom_bond_distance
_geom_bond_site_symmetry_2
Ba0 O0 2.915870 1_655
Ba0 O3 2.915870 1_545
Ba0 O4 2.915873 1_655
Ba0 O4 2.915873 1_545
Ba0 O0 2.915876 1_555
Ba0 O3 2.915876 1_555
Ba0 O11 2.952805 1_555
Ba0 O8 2.952805 1_555
Ba0 O7 2.952808 1_555
Ba0 O10 3.046418 1_655
Ba0 O6 3.046419 1_545
Ba0 O9 3.046421 1_555
Ba1 O10 2.746670 1_555
Ba1 O6 2.746670 1_555
Ba1 O9 2.746673 1_555
Ba1 O5 2.931230 1_455
Ba1 O2 2.931230 1_565
Ba1 O1 2.931232 1_455
Ba1 O1 2.931232 1_565
Ba1 O5 2.931235 1_555
Ba1 O2 2.931236 1_555
Ba2 O6 2.911159 1_445
Ba2 O6 2.911159 1_545
Ba2 O9 2.911159 1_445
Ba2 O9 2.911159 1_555
Ba2 O10 2.911159 1_545
Ba2 O10 2.911159 1_555
Ba2 O2 3.074011 1_555
Ba2 O1 3.074011 1_455
Ba2 O5 3.074011 1_445
Ba2 O3 3.178881 1_445
Ba2 O4 3.178881 1_545
Ba2 O0 3.178881 1_555
Ba3 O2 2.470991 1_555
Ba3 O1 2.470991 1_455
Ba3 O5 2.470991 1_445
Ca0 O3 2.119322 1_445
Ca0 O4 2.119322 1_545
Ca0 O0 2.119322 1_555
O0 Rh3 2.003660 1_555
O0 Rh0 2.192012 1_555
O1 Rh1 2.022416 1_555
O1 Rh2 2.122155 1_555
O2 Rh1 2.022420 1_555
O2 Rh2 2.122158 1_555
O3 Rh3 2.003660 1_555
O3 Rh0 2.192011 1_555
O4 Rh3 2.003656 1_555
O4 Rh0 2.192008 1_555
O5 Rh1 2.022420 1_555
O5 Rh2 2.122158 1_555
O6 Rh1 2.043670 1_565
O6 Rh3 2.052429 1_555
O7 Rh0 2.018184 1_555
O7 Rh2 2.158394 1_556
O8 Rh0 2.018179 1_545
O8 Rh2 2.158391 1_556
O9 Rh1 2.043674 1_555
O9 Rh3 2.052433 1_555
O10 Rh1 2.043670 1_455
O10 Rh3 2.052429 1_555
O11 Rh0 2.018179 1_655
O11 Rh2 2.158390 1_556
