# generated using pymatgen
data_NiN
_symmetry_space_group_name_H-M   'P 1'
_cell_length_a   3.36381500
_cell_length_b   3.36381500
_cell_length_c   4.79206100
_cell_angle_alpha   90.00000000
_cell_angle_beta   90.00000000
_cell_angle_gamma   90.00000000
_symmetry_Int_Tables_number   1
_chemical_formula_structural   NiN
_chemical_formula_sum   'Ni2 N2'
_cell_volume   54.22337472
_cell_formula_units_Z   2
loop_
 _symmetry_equiv_pos_site_id
 _symmetry_equiv_pos_as_xyz
  1  'x, y, z'
loop_
 _atom_site_type_symbol
 _atom_site_label
 _atom_site_symmetry_multiplicity
 _atom_site_fract_x
 _atom_site_fract_y
 _atom_site_fract_z
 _atom_site_occupancy
  Ni  Ni0  1  0.50000000  0.50000000  0.00000000  1
  Ni  Ni1  1  0.50000000  0.50000000  0.50000000  1
  N  N0  1  0.50000000  0.00000000  0.50000000  1
  N  N1  1  0.00000000  0.50000000  0.00000000  1
loop_
_geom_bond_atom_site_label_1
_geom_bond_atom_site_label_2
_geom_bond_distance
_geom_bond_site_symmetry_2
N0 Ni1 1.681908 1_545
N0 Ni1 1.681908 1_555
N1 Ni0 1.681908 1_455
N1 Ni0 1.681908 1_555
