# generated using pymatgen
data_Rb2GaAuI6
_symmetry_space_group_name_H-M   'P 1'
_cell_length_a   8.27287781
_cell_length_b   8.27287781
_cell_length_c   8.27287781
_cell_angle_alpha   60.00000000
_cell_angle_beta   60.00000000
_cell_angle_gamma   60.00000000
_symmetry_Int_Tables_number   1
_chemical_formula_structural   Rb2GaAuI6
_chemical_formula_sum   'Rb2 Ga1 Au1 I6'
_cell_volume   400.36382697
_cell_formula_units_Z   1
loop_
 _symmetry_equiv_pos_site_id
 _symmetry_equiv_pos_as_xyz
  1  'x, y, z'
loop_
 _atom_site_type_symbol
 _atom_site_label
 _atom_site_symmetry_multiplicity
 _atom_site_fract_x
 _atom_site_fract_y
 _atom_site_fract_z
 _atom_site_occupancy
  Rb  Rb0  1  0.75000000  0.75000000  0.75000000  1
  Rb  Rb1  1  0.25000000  0.25000000  0.25000000  1
  Ga  Ga0  1  0.00000000  0.00000000  0.00000000  1
  Au  Au0  1  0.50000000  0.50000000  0.50000000  1
  I  I0  1  0.75229900  0.24770100  0.24770100  1
  I  I1  1  0.24770100  0.24770100  0.75229900  1
  I  I2  1  0.24770100  0.75229900  0.75229900  1
  I  I3  1  0.24770100  0.75229900  0.24770100  1
  I  I4  1  0.75229900  0.24770100  0.75229900  1
  I  I5  1  0.75229900  0.75229900  0.24770100  1
loop_
_geom_bond_atom_site_label_1
_geom_bond_atom_site_label_2
_geom_bond_distance
_geom_bond_site_symmetry_2
Ga0 I5 2.898007 1_445
Ga0 I2 2.898007 1_544
Ga0 I4 2.898007 1_454
Ga0 I1 2.898007 1_554
Ga0 I0 2.898007 1_455
Ga0 I3 2.898007 1_545
Au0 I3 2.951801 1_555
Au0 I0 2.951801 1_555
Au0 I1 2.951801 1_555
Au0 I2 2.951801 1_555
Au0 I4 2.951801 1_555
Au0 I5 2.951801 1_555
I0 Rb0 4.136526 1_554
I0 Rb1 4.136526 1_555
I0 Rb0 4.136526 1_545
I0 Rb1 4.136526 1_655
I1 Rb1 4.136526 1_556
I1 Rb0 4.136526 1_455
I1 Rb0 4.136526 1_545
I1 Rb1 4.136526 1_555
I2 Rb1 4.136526 1_565
I2 Rb0 4.136526 1_455
I2 Rb0 4.136526 1_555
I2 Rb1 4.136526 1_556
I3 Rb1 4.136526 1_565
I3 Rb0 4.136526 1_554
I3 Rb0 4.136526 1_455
I3 Rb1 4.136526 1_555
I4 Rb0 4.136526 1_555
I4 Rb0 4.136526 1_545
I4 Rb1 4.136526 1_556
I4 Rb1 4.136526 1_655
I5 Rb1 4.136526 1_565
I5 Rb0 4.136526 1_555
I5 Rb1 4.136526 1_655
I5 Rb0 4.136526 1_554
