# generated using pymatgen
data_Nb10Ge7
_symmetry_space_group_name_H-M   'P 1'
_cell_length_a   13.55556418
_cell_length_b   13.55556418
_cell_length_c   5.46614800
_cell_angle_alpha   90.00000000
_cell_angle_beta   90.00000000
_cell_angle_gamma   120.00000090
_symmetry_Int_Tables_number   1
_chemical_formula_structural   Nb10Ge7
_chemical_formula_sum   'Nb30 Ge21'
_cell_volume   869.85569168
_cell_formula_units_Z   3
loop_
 _symmetry_equiv_pos_site_id
 _symmetry_equiv_pos_as_xyz
  1  'x, y, z'
loop_
 _atom_site_type_symbol
 _atom_site_label
 _atom_site_symmetry_multiplicity
 _atom_site_fract_x
 _atom_site_fract_y
 _atom_site_fract_z
 _atom_site_occupancy
  Nb  Nb0  1  0.82524100  0.91262100  0.72864300  1
  Nb  Nb1  1  0.08737900  0.17475900  0.72864300  1
  Nb  Nb2  1  0.08737900  0.91262100  0.72864300  1
  Nb  Nb3  1  0.17475900  0.08737900  0.27135700  1
  Nb  Nb4  1  0.91262100  0.82524100  0.27135700  1
  Nb  Nb5  1  0.91262100  0.08737900  0.27135700  1
  Nb  Nb6  1  0.15934100  0.57967000  0.77334100  1
  Nb  Nb7  1  0.42033000  0.84065900  0.77334100  1
  Nb  Nb8  1  0.42033000  0.57967000  0.77334100  1
  Nb  Nb9  1  0.84065900  0.42033000  0.22665900  1
  Nb  Nb10  1  0.57967000  0.15934100  0.22665900  1
  Nb  Nb11  1  0.57967000  0.42033000  0.22665900  1
  Nb  Nb12  1  0.49121700  0.24560900  0.76767500  1
  Nb  Nb13  1  0.75439100  0.50878300  0.76767500  1
  Nb  Nb14  1  0.75439100  0.24560900  0.76767500  1
  Nb  Nb15  1  0.50878300  0.75439100  0.23232500  1
  Nb  Nb16  1  0.24560900  0.49121700  0.23232500  1
  Nb  Nb17  1  0.24560900  0.75439100  0.23232500  1
  Nb  Nb18  1  0.33641500  0.00000000  0.50000000  1
  Nb  Nb19  1  0.66358500  0.66358500  0.50000000  1
  Nb  Nb20  1  0.00000000  0.33641500  0.50000000  1
  Nb  Nb21  1  0.33641500  0.33641500  0.50000000  1
  Nb  Nb22  1  0.00000000  0.66358500  0.50000000  1
  Nb  Nb23  1  0.66358500  0.00000000  0.50000000  1
  Nb  Nb24  1  0.33092200  0.00000000  0.00000000  1
  Nb  Nb25  1  0.66907800  0.66907800  0.00000000  1
  Nb  Nb26  1  0.00000000  0.33092200  0.00000000  1
  Nb  Nb27  1  0.33092200  0.33092200  0.00000000  1
  Nb  Nb28  1  0.00000000  0.66907800  0.00000000  1
  Nb  Nb29  1  0.66907800  0.00000000  0.00000000  1
  Ge  Ge0  1  0.59394300  0.79697200  0.74658600  1
  Ge  Ge1  1  0.20302800  0.40605700  0.74658600  1
  Ge  Ge2  1  0.20302800  0.79697200  0.74658600  1
  Ge  Ge3  1  0.40605700  0.20302800  0.25341400  1
  Ge  Ge4  1  0.79697200  0.59394300  0.25341400  1
  Ge  Ge5  1  0.79697200  0.20302800  0.25341400  1
  Ge  Ge6  1  0.92688600  0.46344300  0.75378800  1
  Ge  Ge7  1  0.53655700  0.07311400  0.75378800  1
  Ge  Ge8  1  0.53655700  0.46344300  0.75378800  1
  Ge  Ge9  1  0.07311400  0.53655700  0.24621200  1
  Ge  Ge10  1  0.46344300  0.92688600  0.24621200  1
  Ge  Ge11  1  0.46344300  0.53655700  0.24621200  1
  Ge  Ge12  1  0.26028100  0.13014100  0.74729900  1
  Ge  Ge13  1  0.86985900  0.73971900  0.74729900  1
  Ge  Ge14  1  0.86985900  0.13014100  0.74729900  1
  Ge  Ge15  1  0.73971900  0.86985900  0.25270100  1
  Ge  Ge16  1  0.13014100  0.26028100  0.25270100  1
  Ge  Ge17  1  0.13014100  0.86985900  0.25270100  1
  Ge  Ge18  1  0.66666700  0.33333300  0.49952600  1
  Ge  Ge19  1  0.33333300  0.66666700  0.50047400  1
  Ge  Ge20  1  0.00000000  0.00000000  0.00000000  1
loop_
_geom_bond_atom_site_label_1
_geom_bond_atom_site_label_2
_geom_bond_distance
_geom_bond_site_symmetry_2
Ge0 Nb7 2.702663 1_555
Ge0 Nb8 2.702681 1_555
Ge0 Nb0 2.717085 1_555
Ge0 Nb23 2.772042 1_565
Ge0 Nb19 2.772053 1_555
Ge0 Nb29 2.779825 1_566
Ge0 Nb25 2.779835 1_556
Ge0 Nb15 2.837100 1_556
Ge0 Nb15 2.983511 1_555
Ge1 Nb6 2.702663 1_555
Ge1 Nb8 2.702681 1_555
Ge1 Nb1 2.717085 1_555
Ge1 Nb20 2.772042 1_555
Ge1 Nb21 2.772053 1_555
Ge1 Nb26 2.779825 1_556
Ge1 Nb27 2.779835 1_556
Ge1 Nb16 2.837100 1_556
Ge1 Nb16 2.983511 1_555
Ge2 Nb6 2.702690 1_555
Ge2 Nb7 2.702690 1_555
Ge2 Nb2 2.717085 1_555
Ge2 Nb22 2.772044 1_555
Ge2 Nb18 2.772044 1_565
Ge2 Nb24 2.779826 1_566
Ge2 Nb28 2.779826 1_556
Ge2 Nb17 2.837108 1_556
Ge2 Nb17 2.983519 1_555
Ge3 Nb10 2.702663 1_555
Ge3 Nb11 2.702681 1_555
Ge3 Nb3 2.717085 1_555
Ge3 Nb18 2.772042 1_555
Ge3 Nb21 2.772053 1_555
Ge3 Nb24 2.779825 1_555
Ge3 Nb27 2.779835 1_555
Ge3 Nb12 2.837100 1_554
Ge3 Nb12 2.983511 1_555
Ge4 Nb9 2.702663 1_555
Ge4 Nb11 2.702681 1_555
Ge4 Nb4 2.717085 1_555
Ge4 Nb22 2.772042 1_655
Ge4 Nb19 2.772053 1_555
Ge4 Nb28 2.779825 1_655
Ge4 Nb25 2.779835 1_555
Ge4 Nb13 2.837100 1_554
Ge4 Nb13 2.983511 1_555
Ge5 Nb9 2.702690 1_555
Ge5 Nb10 2.702690 1_555
Ge5 Nb5 2.717085 1_555
Ge5 Nb23 2.772044 1_555
Ge5 Nb20 2.772044 1_655
Ge5 Nb29 2.779826 1_555
Ge5 Nb26 2.779826 1_655
Ge5 Nb14 2.837108 1_554
Ge5 Nb14 2.983519 1_555
Ge6 Nb14 2.699643 1_555
Ge6 Nb13 2.699652 1_555
Ge6 Nb6 2.730989 1_655
Ge6 Nb22 2.752890 1_655
Ge6 Nb20 2.752890 1_655
Ge6 Nb9 2.775927 1_556
Ge6 Nb28 2.793027 1_656
Ge6 Nb26 2.793027 1_656
Ge6 Nb9 3.054003 1_555
Ge7 Nb14 2.699643 1_555
Ge7 Nb12 2.699652 1_555
Ge7 Nb7 2.730989 1_545
Ge7 Nb18 2.752890 1_555
Ge7 Nb23 2.752890 1_555
Ge7 Nb10 2.775927 1_556
Ge7 Nb24 2.793027 1_556
Ge7 Nb29 2.793027 1_556
Ge7 Nb10 3.054003 1_555
Ge8 Nb12 2.699639 1_555
Ge8 Nb13 2.699639 1_555
Ge8 Nb8 2.730977 1_555
Ge8 Nb21 2.752890 1_555
Ge8 Nb19 2.752890 1_555
Ge8 Nb11 2.775923 1_556
Ge8 Nb27 2.793027 1_556
Ge8 Nb25 2.793027 1_556
Ge8 Nb11 3.053999 1_555
Ge9 Nb17 2.699643 1_555
Ge9 Nb16 2.699652 1_555
Ge9 Nb9 2.730989 1_455
Ge9 Nb20 2.752890 1_555
Ge9 Nb22 2.752890 1_555
Ge9 Nb6 2.775927 1_554
Ge9 Nb26 2.793027 1_555
Ge9 Nb28 2.793027 1_555
Ge9 Nb6 3.054003 1_555
Ge10 Nb17 2.699643 1_555
Ge10 Nb15 2.699652 1_555
Ge10 Nb10 2.730989 1_565
Ge10 Nb23 2.752890 1_565
Ge10 Nb18 2.752890 1_565
Ge10 Nb7 2.775927 1_554
Ge10 Nb29 2.793027 1_565
Ge10 Nb24 2.793027 1_565
Ge10 Nb7 3.054003 1_555
Ge11 Nb16 2.699639 1_555
Ge11 Nb15 2.699639 1_555
Ge11 Nb11 2.730977 1_555
Ge11 Nb21 2.752890 1_555
Ge11 Nb19 2.752890 1_555
Ge11 Nb8 2.775923 1_554
Ge11 Nb25 2.793027 1_555
Ge11 Nb27 2.793027 1_555
Ge11 Nb8 3.053999 1_555
Ge12 Nb2 2.699464 1_545
Ge12 Nb1 2.699464 1_555
Ge12 Nb12 2.713351 1_555
Ge12 Nb27 2.761586 1_556
Ge12 Nb24 2.761597 1_556
Ge12 Nb3 2.788574 1_555
Ge12 Nb21 2.797349 1_555
Ge12 Nb18 2.797360 1_555
Ge12 Nb3 3.035423 1_556
Ge13 Nb2 2.699464 1_655
Ge13 Nb0 2.699464 1_555
Ge13 Nb13 2.713351 1_555
Ge13 Nb25 2.761586 1_556
Ge13 Nb28 2.761597 1_656
Ge13 Nb4 2.788574 1_555
Ge13 Nb19 2.797349 1_555
Ge13 Nb22 2.797360 1_655
Ge13 Nb4 3.035423 1_556
Ge14 Nb0 2.699464 1_545
Ge14 Nb1 2.699464 1_655
Ge14 Nb14 2.713352 1_555
Ge14 Nb26 2.761588 1_656
Ge14 Nb29 2.761588 1_556
Ge14 Nb5 2.788582 1_555
Ge14 Nb20 2.797351 1_655
Ge14 Nb23 2.797351 1_555
Ge14 Nb5 3.035430 1_556
Ge15 Nb5 2.699464 1_565
Ge15 Nb4 2.699464 1_555
Ge15 Nb15 2.713351 1_555
Ge15 Nb25 2.761586 1_555
Ge15 Nb29 2.761597 1_565
Ge15 Nb0 2.788574 1_555
Ge15 Nb19 2.797349 1_555
Ge15 Nb23 2.797360 1_565
Ge15 Nb0 3.035423 1_554
Ge16 Nb5 2.699464 1_455
Ge16 Nb3 2.699464 1_555
Ge16 Nb16 2.713351 1_555
Ge16 Nb27 2.761586 1_555
Ge16 Nb26 2.761597 1_555
Ge16 Nb1 2.788574 1_555
Ge16 Nb21 2.797349 1_555
Ge16 Nb20 2.797360 1_555
Ge16 Nb1 3.035423 1_554
Ge17 Nb4 2.699464 1_455
Ge17 Nb3 2.699464 1_565
Ge17 Nb17 2.713352 1_555
Ge17 Nb24 2.761588 1_565
Ge17 Nb28 2.761588 1_555
Ge17 Nb2 2.788582 1_555
Ge17 Nb18 2.797351 1_565
Ge17 Nb22 2.797351 1_555
Ge17 Nb2 3.035430 1_554
Ge18 Nb14 2.527968 1_555
Ge18 Nb12 2.527987 1_555
Ge18 Nb13 2.527987 1_555
Ge18 Nb10 2.529183 1_555
Ge18 Nb9 2.529183 1_555
Ge18 Nb11 2.529202 1_555
Ge19 Nb17 2.527968 1_555
Ge19 Nb15 2.527987 1_555
Ge19 Nb16 2.527987 1_555
Ge19 Nb6 2.529183 1_555
Ge19 Nb7 2.529183 1_555
Ge19 Nb8 2.529202 1_555
Ge20 Nb2 2.531606 1_544
Ge20 Nb5 2.531606 1_455
Ge20 Nb3 2.531616 1_555
Ge20 Nb0 2.531616 1_444
Ge20 Nb1 2.531616 1_554
Ge20 Nb4 2.531616 1_445
