# generated using pymatgen
data_Na10US6O29
_symmetry_space_group_name_H-M   'P 1'
_cell_length_a   9.41797763
_cell_length_b   9.74607887
_cell_length_c   15.24126103
_cell_angle_alpha   88.84480146
_cell_angle_beta   72.00324194
_cell_angle_gamma   86.25864755
_symmetry_Int_Tables_number   1
_chemical_formula_structural   Na10US6O29
_chemical_formula_sum   'Na20 U2 S12 O58'
_cell_volume   1327.68858945
_cell_formula_units_Z   2
loop_
 _symmetry_equiv_pos_site_id
 _symmetry_equiv_pos_as_xyz
  1  'x, y, z'
loop_
 _atom_site_type_symbol
 _atom_site_label
 _atom_site_symmetry_multiplicity
 _atom_site_fract_x
 _atom_site_fract_y
 _atom_site_fract_z
 _atom_site_occupancy
  Na  Na0  1  0.20021853  0.20053694  0.36273364  1
  Na  Na1  1  0.56295217  0.70053694  0.63726636  1
  Na  Na2  1  0.76651198  0.28556840  0.50841806  1
  Na  Na3  1  0.27493004  0.78556840  0.49158194  1
  Na  Na4  1  0.51785553  0.06099721  0.49882797  1
  Na  Na5  1  0.01668349  0.56099721  0.50117203  1
  Na  Na6  1  0.91078609  0.77794869  0.71880125  1
  Na  Na7  1  0.62958734  0.27794869  0.28119875  1
  Na  Na8  1  0.94108603  0.45338325  0.86891662  1
  Na  Na9  1  0.81000265  0.95338325  0.13108338  1
  Na  Na10  1  0.03974710  0.07880203  0.91678656  1
  Na  Na11  1  0.95653367  0.57880203  0.08321344  1
  Na  Na12  1  0.49827396  0.89499402  0.86837069  1
  Na  Na13  1  0.36664465  0.39499402  0.13162931  1
  Na  Na14  1  0.17857154  0.71547257  0.86958426  1
  Na  Na15  1  0.04815580  0.21547257  0.13041574  1
  Na  Na16  1  0.62951802  0.28121460  0.87544328  1
  Na  Na17  1  0.50496130  0.78121460  0.12455672  1
  Na  Na18  1  0.42522642  0.30125667  0.72023306  1
  Na  Na19  1  0.14545948  0.80125667  0.27976694  1
  U  U0  1  0.05471632  0.19571948  0.65540078  1
  U  U1  1  0.71011710  0.69571948  0.34459922  1
  S  S0  1  0.27564068  0.95636925  0.68219148  1
  S  S1  1  0.95783217  0.45636925  0.31780852  1
  S  S2  1  0.77545301  0.46598184  0.67635786  1
  S  S3  1  0.45181087  0.96598184  0.32364214  1
  S  S4  1  0.19902080  0.54399943  0.67133309  1
  S  S5  1  0.87035389  0.04399943  0.32866691  1
  S  S6  1  0.81381464  0.79385419  0.93657652  1
  S  S7  1  0.75039116  0.29385419  0.06342348  1
  S  S8  1  0.24634886  0.37181775  0.93328969  1
  S  S9  1  0.17963855  0.87181775  0.06671031  1
  S  S10  1  0.69047636  0.04760920  0.67794797  1
  S  S11  1  0.36842433  0.54760920  0.32205203  1
  O  O0  1  0.14464843  0.17989072  0.53102790  1
  O  O1  1  0.67567633  0.67989072  0.46897210  1
  O  O2  1  0.96629937  0.20609080  0.78011720  1
  O  O3  1  0.74641657  0.70609080  0.21988280  1
  O  O4  1  0.85604923  0.07680235  0.64732936  1
  O  O5  1  0.50337859  0.57680235  0.35267064  1
  O  O6  1  0.17971192  0.39007532  0.66876694  1
  O  O7  1  0.84847886  0.89007532  0.33123306  1
  O  O8  1  0.90837569  0.37277348  0.61538135  1
  O  O9  1  0.52375705  0.87277348  0.38461865  1
  O  O10  1  0.29411358  0.11047027  0.67431174  1
  O  O11  1  0.96842532  0.61047027  0.32568826  1
  O  O12  1  0.11900289  0.94585978  0.67654148  1
  O  O13  1  0.79554437  0.44585978  0.32345852  1
  O  O14  1  0.29097406  0.90415133  0.76993872  1
  O  O15  1  0.06091278  0.40415133  0.23006128  1
  O  O16  1  0.38457455  0.88619708  0.60150912  1
  O  O17  1  0.98608366  0.38619709  0.39849088  1
  O  O18  1  0.64309200  0.42536025  0.65348881  1
  O  O19  1  0.29658081  0.92536025  0.34651119  1
  O  O20  1  0.76552909  0.44532713  0.77351926  1
  O  O21  1  0.53904835  0.94532713  0.22648074  1
  O  O22  1  0.81057825  0.60833430  0.64456971  1
  O  O23  1  0.45514796  0.10833430  0.35543029  1
  O  O24  1  0.35451534  0.55885805  0.66943384  1
  O  O25  1  0.02394918  0.05885805  0.33056616  1
  O  O26  1  0.16491380  0.61132310  0.59174152  1
  O  O27  1  0.75665532  0.11132310  0.40825848  1
  O  O28  1  0.09113809  0.60058991  0.75826663  1
  O  O29  1  0.84940472  0.10058991  0.24173337  1
  O  O30  1  0.95051181  0.87159623  0.89551660  1
  O  O31  1  0.84602841  0.37159623  0.10448340  1
  O  O32  1  0.86310042  0.65424519  0.96158398  1
  O  O33  1  0.82468440  0.15424519  0.03841602  1
  O  O34  1  0.73348219  0.78567675  0.86665471  1
  O  O35  1  0.60013690  0.28567675  0.13334529  1
  O  O36  1  0.71366822  0.86349590  0.02173868  1
  O  O37  1  0.73540690  0.36349590  0.97826132  1
  O  O38  1  0.17661043  0.27304771  0.88799760  1
  O  O39  1  0.06460804  0.77304771  0.11200240  1
  O  O40  1  0.15559267  0.50505467  0.94670634  1
  O  O41  1  0.10229900  0.00505467  0.05329366  1
  O  O42  1  0.25338294  0.31871061  0.02411699  1
  O  O43  1  0.27749992  0.81871061  0.97588301  1
  O  O44  1  0.40163610  0.39102417  0.86982680  1
  O  O45  1  0.27146290  0.89102417  0.13017320  1
  O  O46  1  0.62543501  0.11635777  0.61041878  1
  O  O47  1  0.23585379  0.61635777  0.38958122  1
  O  O48  1  0.68202130  0.89711144  0.67986889  1
  O  O49  1  0.36189019  0.39711144  0.32013111  1
  O  O50  1  0.61516315  0.10753719  0.77104879  1
  O  O51  1  0.38621194  0.60753719  0.22895121  1
  O  O52  1  0.30899411  0.15396160  0.18836335  1
  O  O53  1  0.49735746  0.65396160  0.81163665  1
  O  O54  1  0.50006606  0.34618107  0.50161072  1
  O  O55  1  0.00167678  0.84618107  0.49838928  1
  O  O56  1  0.48826987  0.57945131  0.03149254  1
  O  O57  1  0.51976241  0.07945131  0.96850746  1
loop_
_geom_bond_atom_site_label_1
_geom_bond_atom_site_label_2
_geom_bond_distance
_geom_bond_site_symmetry_2
Na0 O25 2.394229 1_555
Na0 O0 2.461121 1_555
Na0 O49 2.475885 1_555
Na0 O23 2.478233 1_555
Na0 O17 2.553953 1_455
Na0 O52 2.573731 1_555
Na0 O19 2.765457 1_545
Na1 O24 2.394229 1_555
Na1 O1 2.461121 1_555
Na1 O48 2.475885 1_555
Na1 O22 2.478233 1_555
Na1 O16 2.553952 1_555
Na1 O53 2.573731 1_555
Na1 O18 2.765457 1_555
Na2 O27 2.331433 1_555
Na2 O46 2.409991 1_555
Na2 O17 2.470369 1_555
Na2 O18 2.534317 1_555
Na2 O54 2.573263 1_555
Na2 O8 2.591360 1_555
Na3 O26 2.331433 1_555
Na3 O47 2.409991 1_555
Na3 O16 2.470369 1_555
Na3 O19 2.534317 1_555
Na3 O55 2.573263 1_555
Na3 O9 2.591360 1_555
Na4 O46 2.320231 1_555
Na4 O27 2.324307 1_555
Na4 O16 2.425865 1_545
Na4 O23 2.461641 1_555
Na4 O9 2.540463 1_545
Na4 O54 2.773925 1_555
Na4 O10 2.874552 1_555
Na5 O47 2.320231 1_555
Na5 O26 2.324307 1_555
Na5 O17 2.425865 1_455
Na5 O22 2.461641 1_455
Na5 O8 2.540463 1_455
Na5 O55 2.773925 1_555
Na5 O11 2.874552 1_455
Na6 O34 2.353168 1_555
Na6 O22 2.417056 1_555
Na6 O28 2.537914 1_655
Na6 O12 2.556204 1_655
Na6 O48 2.603536 1_555
Na7 O35 2.353168 1_555
Na7 O23 2.417056 1_555
Na7 O29 2.537914 1_555
Na7 O13 2.556204 1_555
Na7 O49 2.603536 1_555
Na8 O37 2.337716 1_555
Na8 O28 2.365139 1_655
Na8 O32 2.376832 1_555
Na8 O20 2.522092 1_555
Na8 O40 2.716150 1_655
Na8 O2 2.748654 1_555
Na8 O38 2.821893 1_655
Na9 O36 2.337716 1_555
Na9 O29 2.365139 1_565
Na9 O33 2.376832 1_565
Na9 O21 2.522092 1_555
Na9 O41 2.716150 1_665
Na9 O3 2.748654 1_555
Na9 O39 2.821893 1_655
Na10 O30 2.303429 1_445
Na10 O38 2.318064 1_555
Na10 O33 2.370667 1_456
Na10 O41 2.415392 1_556
Na10 O2 2.651530 1_455
Na11 O31 2.303429 1_555
Na11 O39 2.318064 1_655
Na11 O32 2.370667 1_554
Na11 O40 2.415392 1_654
Na11 O3 2.651530 1_555
Na12 O43 2.368199 1_555
Na12 O34 2.387501 1_555
Na12 O57 2.439487 1_565
Na12 O53 2.520974 1_555
Na12 O50 2.620638 1_565
Na12 O14 2.802150 1_555
Na12 O48 2.859959 1_555
Na13 O42 2.368199 1_555
Na13 O35 2.387501 1_555
Na13 O56 2.439487 1_555
Na13 O52 2.520974 1_555
Na13 O51 2.620638 1_555
Na13 O15 2.802150 1_555
Na13 O49 2.859959 1_555
Na14 O40 2.331866 1_555
Na14 O43 2.371935 1_555
Na14 O28 2.422896 1_555
Na14 O14 2.440619 1_555
Na14 O30 2.481519 1_455
Na14 O53 2.881195 1_555
Na15 O41 2.331866 1_555
Na15 O42 2.371935 1_555
Na15 O29 2.422896 1_455
Na15 O15 2.440619 1_555
Na15 O31 2.481519 1_455
Na15 O52 2.881195 1_555
Na16 O37 2.283430 1_555
Na16 O20 2.355819 1_555
Na16 O44 2.359847 1_555
Na16 O50 2.384620 1_555
Na16 O57 2.488761 1_555
Na17 O36 2.283430 1_555
Na17 O21 2.355819 1_555
Na17 O45 2.359847 1_555
Na17 O51 2.384620 1_555
Na17 O56 2.488761 1_555
Na18 O18 2.385868 1_555
Na18 O44 2.399003 1_555
Na18 O10 2.521554 1_555
Na18 O46 2.707777 1_555
Na18 O24 2.714427 1_555
Na18 O6 2.746505 1_555
Na18 O50 2.778609 1_555
Na18 O38 2.907255 1_555
Na19 O19 2.385868 1_555
Na19 O45 2.399003 1_555
Na19 O11 2.521554 1_455
Na19 O47 2.707777 1_555
Na19 O25 2.714427 1_565
Na19 O7 2.746505 1_455
Na19 O51 2.778609 1_555
Na19 O39 2.907255 1_555
O0 U0 1.826775 1_555
O1 U1 1.826775 1_555
O2 U0 1.826329 1_655
O3 U1 1.826329 1_555
O4 S10 1.527488 1_555
O4 U0 2.300029 1_655
O5 S11 1.527488 1_555
O5 U1 2.300029 1_555
O6 S4 1.525592 1_555
O6 U0 2.338823 1_555
O7 S5 1.525592 1_565
O7 U1 2.338823 1_555
O8 S2 1.556536 1_555
O8 U0 2.327196 1_655
O9 S3 1.556536 1_555
O9 U1 2.327196 1_555
O10 S0 1.521267 1_545
O10 U0 2.450348 1_555
O11 S1 1.521267 1_555
O11 U1 2.450348 1_555
O12 S0 1.514176 1_555
O12 U0 2.509353 1_565
O13 S1 1.514176 1_555
O13 U1 2.509353 1_555
O14 S0 1.466540 1_555
O15 S1 1.466540 1_455
O16 S0 1.481622 1_555
O17 S1 1.481622 1_555
O18 S2 1.473306 1_555
O19 S3 1.473306 1_555
O20 S2 1.465306 1_555
O21 S3 1.465306 1_555
O22 S2 1.484163 1_555
O23 S3 1.484163 1_545
O24 S4 1.472317 1_555
O25 S5 1.472317 1_455
O26 S4 1.478662 1_555
O27 S5 1.478662 1_555
O28 S4 1.488809 1_555
O29 S5 1.488808 1_555
O30 S6 1.494482 1_555
O31 S7 1.494482 1_555
O32 S6 1.489314 1_555
O33 S7 1.489314 1_555
O34 S6 1.491298 1_555
O35 S7 1.491298 1_555
O36 S6 1.493489 1_554
O37 S7 1.493488 1_556
O38 S8 1.491312 1_555
O39 S9 1.491312 1_555
O40 S8 1.488774 1_555
O41 S9 1.488774 1_545
O42 S8 1.487258 1_554
O43 S9 1.487258 1_556
O44 S8 1.504596 1_555
O45 S9 1.504596 1_555
O46 S10 1.480436 1_555
O47 S11 1.480436 1_555
O48 S10 1.473317 1_565
O49 S11 1.473317 1_555
O50 S10 1.488336 1_555
O51 S11 1.488336 1_555
