# generated using pymatgen
data_Sr2CaNbO6
_symmetry_space_group_name_H-M   'P 1'
_cell_length_a   8.27782000
_cell_length_b   8.27782000
_cell_length_c   8.64406300
_cell_angle_alpha   90.00000000
_cell_angle_beta   90.00000000
_cell_angle_gamma   90.00000000
_symmetry_Int_Tables_number   1
_chemical_formula_structural   Sr2CaNbO6
_chemical_formula_sum   'Sr8 Ca4 Nb4 O24'
_cell_volume   592.31111227
_cell_formula_units_Z   4
loop_
 _symmetry_equiv_pos_site_id
 _symmetry_equiv_pos_as_xyz
  1  'x, y, z'
loop_
 _atom_site_type_symbol
 _atom_site_label
 _atom_site_symmetry_multiplicity
 _atom_site_fract_x
 _atom_site_fract_y
 _atom_site_fract_z
 _atom_site_occupancy
  Sr  Sr0  1  0.24990700  0.25003800  0.24777200  1
  Sr  Sr1  1  0.75009300  0.74996200  0.24777200  1
  Sr  Sr2  1  0.25003800  0.75009300  0.75222800  1
  Sr  Sr3  1  0.74996200  0.24990700  0.75222800  1
  Sr  Sr4  1  0.25016500  0.75072500  0.24824700  1
  Sr  Sr5  1  0.74983500  0.24927500  0.24824700  1
  Sr  Sr6  1  0.75072500  0.74983500  0.75175300  1
  Sr  Sr7  1  0.24927500  0.25016500  0.75175300  1
  Ca  Ca0  1  0.00000000  0.50000000  0.00108700  1
  Ca  Ca1  1  0.50000000  0.00000000  0.99891300  1
  Ca  Ca2  1  0.50000000  0.50000000  0.50000000  1
  Ca  Ca3  1  0.00000000  0.00000000  0.50000000  1
  Nb  Nb0  1  0.00000000  0.00000000  0.00000000  1
  Nb  Nb1  1  0.50000000  0.50000000  0.00000000  1
  Nb  Nb2  1  0.00000000  0.50000000  0.50083300  1
  Nb  Nb3  1  0.50000000  0.00000000  0.49916700  1
  O  O0  1  0.26916300  0.07911700  0.49716200  1
  O  O1  1  0.73083700  0.92088300  0.49716200  1
  O  O2  1  0.07911700  0.73083700  0.50283800  1
  O  O3  1  0.92088300  0.26916300  0.50283800  1
  O  O4  1  0.00000000  0.50000000  0.73534700  1
  O  O5  1  0.50000000  0.00000000  0.26465300  1
  O  O6  1  0.00000000  0.00000000  0.23466300  1
  O  O7  1  0.00000000  0.00000000  0.76533700  1
  O  O8  1  0.26792900  0.42635600  0.99998700  1
  O  O9  1  0.73207100  0.57364400  0.99998700  1
  O  O10  1  0.42635600  0.73207100  0.00001300  1
  O  O11  1  0.57364400  0.26792900  0.00001300  1
  O  O12  1  0.23120800  0.07522800  0.99874400  1
  O  O13  1  0.76879200  0.92477200  0.99874400  1
  O  O14  1  0.07522800  0.76879200  0.00125600  1
  O  O15  1  0.92477200  0.23120800  0.00125600  1
  O  O16  1  0.50000000  0.50000000  0.23411200  1
  O  O17  1  0.50000000  0.50000000  0.76588800  1
  O  O18  1  0.00000000  0.50000000  0.26803300  1
  O  O19  1  0.50000000  0.00000000  0.73196700  1
  O  O20  1  0.23069900  0.42093600  0.50177500  1
  O  O21  1  0.76930100  0.57906400  0.50177500  1
  O  O22  1  0.42093600  0.76930100  0.49822500  1
  O  O23  1  0.57906400  0.23069900  0.49822500  1
loop_
_geom_bond_atom_site_label_1
_geom_bond_atom_site_label_2
_geom_bond_distance
_geom_bond_site_symmetry_2
Ca0 O4 2.297073 1_554
Ca0 O8 2.300143 1_554
Ca0 O9 2.300143 1_454
Ca0 O18 2.307498 1_555
Ca0 O14 2.310512 1_555
Ca0 O15 2.310512 1_455
Ca1 O5 2.297073 1_556
Ca1 O11 2.300143 1_556
Ca1 O10 2.300143 1_546
Ca1 O19 2.307498 1_555
Ca1 O13 2.310512 1_545
Ca1 O12 2.310512 1_555
Ca2 O16 2.298353 1_555
Ca2 O17 2.298353 1_555
Ca2 O22 2.323364 1_555
Ca2 O20 2.323364 1_555
Ca2 O23 2.323364 1_555
Ca2 O21 2.323364 1_555
Ca3 O7 2.293590 1_555
Ca3 O6 2.293590 1_555
Ca3 O0 2.322471 1_555
Ca3 O2 2.322471 1_545
Ca3 O3 2.322471 1_455
Ca3 O1 2.322471 1_445
Nb0 O12 2.012687 1_554
Nb0 O15 2.012687 1_455
Nb0 O14 2.012687 1_545
Nb0 O13 2.012687 1_444
Nb0 O6 2.028442 1_555
Nb0 O7 2.028442 1_554
Nb1 O9 2.015448 1_554
Nb1 O10 2.015448 1_555
Nb1 O11 2.015448 1_555
Nb1 O8 2.015448 1_554
Nb1 O16 2.023679 1_555
Nb1 O17 2.023679 1_554
Nb2 O18 2.012338 1_555
Nb2 O20 2.018738 1_555
Nb2 O21 2.018738 1_455
Nb2 O2 2.020019 1_555
Nb2 O3 2.020019 1_455
Nb2 O4 2.027154 1_555
Nb3 O19 2.012338 1_555
Nb3 O22 2.018738 1_545
Nb3 O23 2.018738 1_555
Nb3 O0 2.020019 1_555
Nb3 O1 2.020019 1_545
Nb3 O5 2.027154 1_555
O0 Sr0 2.583495 1_555
O0 Sr7 2.622017 1_555
O1 Sr1 2.583495 1_555
O1 Sr6 2.622017 1_555
O2 Sr2 2.583495 1_555
O2 Sr4 2.622017 1_555
O3 Sr3 2.583495 1_555
O3 Sr5 2.622017 1_555
O4 Sr6 2.924884 1_455
O4 Sr7 2.924884 1_555
O4 Sr2 2.931053 1_555
O4 Sr3 2.931053 1_455
O5 Sr5 2.924884 1_555
O5 Sr4 2.924884 1_545
O5 Sr1 2.931053 1_545
O5 Sr0 2.931053 1_555
O6 Sr4 2.925735 1_545
O6 Sr5 2.925735 1_455
O6 Sr0 2.928523 1_555
O6 Sr1 2.928523 1_445
O7 Sr7 2.925735 1_555
O7 Sr6 2.925735 1_445
O7 Sr3 2.928523 1_455
O7 Sr2 2.928523 1_545
O8 Sr0 2.596167 1_556
O8 Sr7 2.599085 1_555
O9 Sr1 2.596167 1_556
O9 Sr6 2.599085 1_555
O10 Sr2 2.596167 1_554
O10 Sr4 2.599085 1_555
O11 Sr3 2.596167 1_554
O11 Sr5 2.599085 1_555
O12 Sr7 2.584106 1_555
O12 Sr0 2.598393 1_556
O13 Sr6 2.584106 1_555
O13 Sr1 2.598393 1_556
O14 Sr4 2.584106 1_555
O14 Sr2 2.598393 1_554
O15 Sr5 2.584106 1_555
O15 Sr3 2.598393 1_554
O16 Sr1 2.929354 1_555
O16 Sr0 2.929354 1_555
O16 Sr5 2.932480 1_555
O16 Sr4 2.932480 1_555
O17 Sr2 2.929354 1_555
O17 Sr3 2.929354 1_555
O17 Sr6 2.932480 1_555
O17 Sr7 2.932480 1_555
O18 Sr0 2.931122 1_555
O18 Sr1 2.931122 1_455
O18 Sr4 2.936847 1_555
O18 Sr5 2.936847 1_455
O19 Sr2 2.931122 1_545
O19 Sr3 2.931122 1_555
O19 Sr7 2.936847 1_555
O19 Sr6 2.936847 1_545
O20 Sr7 2.586718 1_555
O20 Sr0 2.616733 1_555
O21 Sr6 2.586718 1_555
O21 Sr1 2.616733 1_555
O22 Sr4 2.586718 1_555
O22 Sr2 2.616733 1_555
O23 Sr5 2.586718 1_555
O23 Sr3 2.616733 1_555
