# generated using pymatgen
data_Sr2LiReO6
_symmetry_space_group_name_H-M   'P 1'
_cell_length_a   5.65854668
_cell_length_b   5.65854668
_cell_length_c   5.65854668
_cell_angle_alpha   120.47968845
_cell_angle_beta   120.47968845
_cell_angle_gamma   89.17114404
_symmetry_Int_Tables_number   1
_chemical_formula_structural   Sr2LiReO6
_chemical_formula_sum   'Sr2 Li1 Re1 O6'
_cell_volume   127.17159723
_cell_formula_units_Z   1
loop_
 _symmetry_equiv_pos_site_id
 _symmetry_equiv_pos_as_xyz
  1  'x, y, z'
loop_
 _atom_site_type_symbol
 _atom_site_label
 _atom_site_symmetry_multiplicity
 _atom_site_fract_x
 _atom_site_fract_y
 _atom_site_fract_z
 _atom_site_occupancy
  Sr  Sr0  1  0.25000000  0.75000000  0.50000000  1
  Sr  Sr1  1  0.75000000  0.25000000  0.50000000  1
  Li  Li0  1  0.50000000  0.50000000  0.00000000  1
  Re  Re0  1  0.00000000  0.00000000  0.00000000  1
  O  O0  1  0.72475200  0.80300200  0.52775400  1
  O  O1  1  0.27524800  0.19699800  0.47224600  1
  O  O2  1  0.80300200  0.27524800  0.07825000  1
  O  O3  1  0.19699800  0.72475200  0.92175000  1
  O  O4  1  0.23747400  0.23747400  0.00000000  1
  O  O5  1  0.76252600  0.76252600  0.00000000  1
loop_
_geom_bond_atom_site_label_1
_geom_bond_atom_site_label_2
_geom_bond_distance
_geom_bond_site_symmetry_2
Li0 O4 2.115977 1_555
Li0 O5 2.115977 1_555
Li0 O3 2.119236 1_554
Li0 O2 2.119236 1_555
Li0 O0 2.119236 1_555
Li0 O1 2.119236 1_554
O0 Re0 1.901409 1_666
O0 Sr0 2.622770 1_555
O0 Sr1 2.622770 1_565
O0 Sr1 3.057479 1_555
O0 Sr0 3.057479 1_655
O1 Re0 1.901409 1_555
O1 Sr1 2.622770 1_555
O1 Sr0 2.622770 1_545
O1 Sr0 3.057479 1_555
O1 Sr1 3.057479 1_455
O2 Re0 1.901409 1_655
O2 Sr1 2.622770 1_555
O2 Sr0 2.622770 1_655
O2 Sr0 3.057479 1_544
O2 Sr1 3.057479 1_554
O3 Re0 1.901409 1_566
O3 Sr1 2.622770 1_455
O3 Sr0 2.622770 1_555
O3 Sr0 3.057479 1_556
O3 Sr1 3.057479 1_566
O4 Re0 1.914056 1_555
O4 Sr1 2.810549 1_454
O4 Sr0 2.810549 1_555
O4 Sr1 2.810549 1_555
O4 Sr0 2.810549 1_544
O5 Re0 1.914056 1_665
O5 Sr0 2.810549 1_554
O5 Sr1 2.810549 1_554
O5 Sr0 2.810549 1_655
O5 Sr1 2.810549 1_565
