# generated using pymatgen
data_Ti4Nb(BiO3)7
_symmetry_space_group_name_H-M   'P 1'
_cell_length_a   29.77115070
_cell_length_b   29.77115070
_cell_length_c   5.45549848
_cell_angle_alpha   84.90524345
_cell_angle_beta   84.90524345
_cell_angle_gamma   10.62904776
_symmetry_Int_Tables_number   1
_chemical_formula_structural   Ti4Nb(BiO3)7
_chemical_formula_sum   'Ti8 Nb2 Bi14 O42'
_cell_volume   888.31987881
_cell_formula_units_Z   2
loop_
 _symmetry_equiv_pos_site_id
 _symmetry_equiv_pos_as_xyz
  1  'x, y, z'
loop_
 _atom_site_type_symbol
 _atom_site_label
 _atom_site_symmetry_multiplicity
 _atom_site_fract_x
 _atom_site_fract_y
 _atom_site_fract_z
 _atom_site_occupancy
  Ti  Ti0  1  0.38682900  0.46695000  0.57334600  1
  Ti  Ti1  1  0.53305000  0.61317200  0.42665400  1
  Ti  Ti2  1  0.03313900  0.11317700  0.92726200  1
  Ti  Ti3  1  0.88682300  0.96686100  0.07273800  1
  Ti  Ti4  1  0.46449300  0.53550700  0.50000000  1
  Ti  Ti5  1  0.96462700  0.03537300  0.00000000  1
  Ti  Ti6  1  0.74262800  0.83260500  0.71407100  1
  Ti  Ti7  1  0.16739400  0.25737200  0.28592900  1
  Nb  Nb0  1  0.66443000  0.76068300  0.78269900  1
  Nb  Nb1  1  0.23931700  0.33557000  0.21730100  1
  Bi  Bi0  1  0.25226800  0.24732800  0.74576500  1
  Bi  Bi1  1  0.75267200  0.74773200  0.25423500  1
  Bi  Bi2  1  0.34212800  0.32968200  0.68487200  1
  Bi  Bi3  1  0.67031800  0.65787200  0.31512800  1
  Bi  Bi4  1  0.16677200  0.16170400  0.86464400  1
  Bi  Bi5  1  0.83829600  0.83322800  0.13535600  1
  Bi  Bi6  1  0.88081500  0.87805100  0.59545800  1
  Bi  Bi7  1  0.12194900  0.11918500  0.40454200  1
  Bi  Bi8  1  0.61939100  0.62181200  0.85460500  1
  Bi  Bi9  1  0.37818800  0.38060900  0.14539500  1
  Bi  Bi10  1  0.97255800  0.95171500  0.53877700  1
  Bi  Bi11  1  0.04828500  0.02744200  0.46122300  1
  Bi  Bi12  1  0.54820300  0.52752400  0.96275800  1
  Bi  Bi13  1  0.47247600  0.45179700  0.03724200  1
  O  O0  1  0.91552200  0.65857800  0.41126000  1
  O  O1  1  0.34142200  0.08447800  0.58874000  1
  O  O2  1  0.84648800  0.57936900  0.48051700  1
  O  O3  1  0.42063100  0.15351200  0.51948300  1
  O  O4  1  0.17155300  0.81751000  0.26092300  1
  O  O5  1  0.18249000  0.82844700  0.73907700  1
  O  O6  1  0.68248000  0.32847800  0.75008300  1
  O  O7  1  0.67152200  0.31752000  0.24991700  1
  O  O8  1  0.75703400  0.87785400  0.75152400  1
  O  O9  1  0.12214600  0.24296600  0.24847600  1
  O  O10  1  0.62369400  0.73911500  0.88361500  1
  O  O11  1  0.26088500  0.37630600  0.11638500  1
  O  O12  1  0.38278600  0.55101700  0.60701000  1
  O  O13  1  0.44898300  0.61721400  0.39299000  1
  O  O14  1  0.94866100  0.11751700  0.04108900  1
  O  O15  1  0.88248300  0.05133900  0.95891100  1
  O  O16  1  0.57880400  0.28020900  0.86398300  1
  O  O17  1  0.71979100  0.42119600  0.13601700  1
  O  O18  1  0.21972800  0.92119400  0.22373600  1
  O  O19  1  0.07880600  0.78027200  0.77626400  1
  O  O20  1  0.49345300  0.06230100  0.00694400  1
  O  O21  1  0.93769900  0.50654700  0.99305600  1
  O  O22  1  0.43502200  0.00927000  0.06316700  1
  O  O23  1  0.99073000  0.56497800  0.93683300  1
  O  O24  1  0.35209600  0.44223000  0.54317300  1
  O  O25  1  0.55777000  0.64790400  0.45682700  1
  O  O26  1  0.05911200  0.14656800  0.83854400  1
  O  O27  1  0.85343200  0.94088800  0.16145600  1
  O  O28  1  0.15208300  0.72198200  0.28807700  1
  O  O29  1  0.27801800  0.84791700  0.71192300  1
  O  O30  1  0.77797000  0.34797000  0.66263000  1
  O  O31  1  0.65203000  0.22203000  0.33737000  1
  O  O32  1  0.59543500  0.12071900  0.89655400  1
  O  O33  1  0.87928100  0.40456500  0.10344600  1
  O  O34  1  0.37907700  0.90481100  0.11528200  1
  O  O35  1  0.09518900  0.62092300  0.88471800  1
  O  O36  1  0.65911300  0.84058700  0.67057900  1
  O  O37  1  0.15941300  0.34088700  0.32942100  1
  O  O38  1  0.09364600  0.62064500  0.38693900  1
  O  O39  1  0.37935500  0.90635400  0.61306100  1
  O  O40  1  0.87890000  0.40678300  0.60299600  1
  O  O41  1  0.59321700  0.12110000  0.39700400  1
loop_
_geom_bond_atom_site_label_1
_geom_bond_atom_site_label_2
_geom_bond_distance
_geom_bond_site_symmetry_2
Nb0 O10 1.880298 1_555
Nb0 O2 1.927622 1_555
Nb0 O21 1.967180 1_555
Nb0 O1 2.072891 1_565
Nb0 O22 2.134684 1_566
Nb0 O36 2.253138 1_555
Nb1 O11 1.880298 1_555
Nb1 O3 1.927622 1_555
Nb1 O20 1.967180 1_555
Nb1 O0 2.072891 1_455
Nb1 O23 2.134684 1_454
Nb1 O37 2.253138 1_555
Bi0 O36 2.280599 1_545
Bi0 O37 2.327081 1_555
Bi0 O1 2.514547 1_555
Bi0 O3 2.538360 1_555
Bi0 O22 2.554627 1_556
Bi0 O20 2.570181 1_556
Bi0 O21 2.573071 1_455
Bi0 O23 2.590993 1_455
Bi1 O37 2.280599 1_655
Bi1 O36 2.327081 1_555
Bi1 O0 2.514547 1_555
Bi1 O2 2.538360 1_555
Bi1 O23 2.554627 1_554
Bi1 O21 2.570181 1_554
Bi1 O20 2.573071 1_565
Bi1 O22 2.590993 1_565
Bi2 O32 2.226474 1_555
Bi2 O41 2.303854 1_555
Bi2 O35 2.317547 1_555
Bi2 O38 2.464795 1_555
Bi2 O11 2.507668 1_556
Bi2 O8 2.640320 1_545
Bi3 O33 2.226474 1_555
Bi3 O40 2.303854 1_555
Bi3 O34 2.317547 1_555
Bi3 O39 2.464795 1_555
Bi3 O10 2.507668 1_554
Bi3 O9 2.640320 1_655
Bi4 O34 2.228947 1_546
Bi4 O33 2.297566 1_456
Bi4 O39 2.338006 1_545
Bi4 O9 2.467867 1_556
Bi4 O40 2.475763 1_455
Bi4 O10 2.635737 1_545
Bi5 O35 2.228947 1_654
Bi5 O32 2.297566 1_564
Bi5 O38 2.338006 1_655
Bi5 O8 2.467867 1_554
Bi5 O41 2.475763 1_565
Bi5 O11 2.635737 1_655
Bi6 O38 2.233722 1_655
Bi6 O41 2.304826 1_565
Bi6 O35 2.330271 1_655
Bi6 O32 2.459778 1_565
Bi6 O27 2.515663 1_555
Bi6 O24 2.718350 1_655
Bi7 O39 2.233722 1_545
Bi7 O40 2.304826 1_455
Bi7 O34 2.330271 1_545
Bi7 O33 2.459778 1_455
Bi7 O26 2.515663 1_555
Bi7 O25 2.718350 1_545
Bi8 O40 2.238777 1_555
Bi8 O39 2.293320 1_555
Bi8 O33 2.340512 1_556
Bi8 O34 2.454950 1_556
Bi8 O25 2.506915 1_555
Bi8 O26 2.738348 1_655
Bi9 O41 2.238777 1_555
Bi9 O38 2.293320 1_555
Bi9 O32 2.340512 1_554
Bi9 O35 2.454950 1_554
Bi9 O24 2.506915 1_555
Bi9 O27 2.738348 1_545
Bi10 O12 2.288531 1_655
Bi10 O19 2.356526 1_655
Bi10 O28 2.392145 1_655
Bi10 O15 2.392264 1_565
Bi10 O4 2.512225 1_655
Bi10 O31 2.523693 1_565
Bi11 O13 2.288531 1_545
Bi11 O18 2.356526 1_545
Bi11 O29 2.392145 1_545
Bi11 O14 2.392264 1_455
Bi11 O5 2.512225 1_545
Bi11 O30 2.523693 1_455
Bi12 O14 2.288171 1_556
Bi12 O17 2.355680 1_556
Bi12 O30 2.394932 1_555
Bi12 O13 2.396228 1_556
Bi12 O6 2.504910 1_555
Bi12 O29 2.525170 1_555
Bi13 O15 2.288171 1_554
Bi13 O16 2.355680 1_554
Bi13 O31 2.394932 1_555
Bi13 O12 2.396228 1_554
Bi13 O7 2.504910 1_555
Bi13 O28 2.525170 1_555
O0 Ti6 1.911864 1_555
O1 Ti7 1.911868 1_555
O2 Ti7 2.068074 1_655
O3 Ti6 2.068075 1_545
O4 Ti5 1.849625 1_465
O4 Ti4 2.096471 1_555
O5 Ti5 1.849625 1_466
O5 Ti4 2.096471 1_555
O6 Ti4 1.849186 1_555
O6 Ti5 2.098007 1_556
O7 Ti4 1.849186 1_555
O7 Ti5 2.098007 1_555
O8 Ti6 1.800150 1_555
O9 Ti7 1.800121 1_555
O12 Ti4 2.014676 1_555
O12 Ti0 2.407828 1_555
O13 Ti4 2.014676 1_555
O13 Ti1 2.407857 1_555
O14 Ti5 2.012522 1_555
O14 Ti2 2.413645 1_654
O15 Ti5 2.012522 1_556
O15 Ti3 2.413645 1_546
O16 Ti0 1.916393 1_555
O16 Ti3 2.055642 1_546
O17 Ti1 1.916399 1_555
O17 Ti2 2.055642 1_654
O18 Ti2 1.919690 1_564
O18 Ti1 2.053478 1_555
O19 Ti3 1.919690 1_456
O19 Ti0 2.053476 1_555
O20 Ti6 2.113147 1_544
O21 Ti7 2.113151 1_656
O22 Ti7 1.925846 1_555
O23 Ti6 1.925837 1_555
O24 Ti0 1.784817 1_555
O25 Ti1 1.784788 1_555
O26 Ti2 1.783095 1_555
O27 Ti3 1.783095 1_555
O28 Ti3 1.962279 1_455
O28 Ti0 2.107300 1_555
O29 Ti2 1.962279 1_565
O29 Ti1 2.107304 1_555
O30 Ti1 1.964538 1_555
O30 Ti2 2.104761 1_655
O31 Ti0 1.964528 1_555
O31 Ti3 2.104761 1_545
O36 Ti6 2.286483 1_555
O37 Ti7 2.286512 1_555
