# generated using pymatgen
data_Li9Mn2Co5O16
_symmetry_space_group_name_H-M   'P 1'
_cell_length_a   5.10525200
_cell_length_b   5.88148989
_cell_length_c   9.74973627
_cell_angle_alpha   87.17600381
_cell_angle_beta   79.21287072
_cell_angle_gamma   88.68716023
_symmetry_Int_Tables_number   1
_chemical_formula_structural   Li9Mn2Co5O16
_chemical_formula_sum   'Li9 Mn2 Co5 O16'
_cell_volume   287.20004179
_cell_formula_units_Z   1
loop_
 _symmetry_equiv_pos_site_id
 _symmetry_equiv_pos_as_xyz
  1  'x, y, z'
loop_
 _atom_site_type_symbol
 _atom_site_label
 _atom_site_symmetry_multiplicity
 _atom_site_fract_x
 _atom_site_fract_y
 _atom_site_fract_z
 _atom_site_occupancy
  Li  Li0  1  0.50114300  0.24686900  0.99944100  1
  Li  Li1  1  0.25836800  0.49600100  0.25499400  1
  Li  Li2  1  0.50792900  0.75663700  0.00484100  1
  Li  Li3  1  0.24751400  0.00405400  0.25438900  1
  Li  Li4  1  0.75004000  0.00466900  0.74651200  1
  Li  Li5  1  0.74591900  0.49143200  0.74296500  1
  Li  Li6  1  0.99160600  0.74413200  0.49622400  1
  Li  Li7  1  0.99716900  0.25112700  0.49988900  1
  Li  Li8  1  0.74442200  0.24790300  0.25212900  1
  Mn  Mn0  1  0.99648700  0.00593400  0.00562800  1
  Mn  Mn1  1  0.99819300  0.50162700  0.00495300  1
  Co  Co0  1  0.50661600  0.49332800  0.49291100  1
  Co  Co1  1  0.25492500  0.75407900  0.74886000  1
  Co  Co2  1  0.75098400  0.74866800  0.25072200  1
  Co  Co3  1  0.50127800  0.99698100  0.49461000  1
  Co  Co4  1  0.25110200  0.25452300  0.74690800  1
  O  O0  1  0.34547300  0.00681200  0.87635600  1
  O  O1  1  0.11706300  0.24275100  0.11001200  1
  O  O2  1  0.35546500  0.51029800  0.87275400  1
  O  O3  1  0.10389700  0.77325700  0.13196200  1
  O  O4  1  0.60803800  0.75489900  0.61540900  1
  O  O5  1  0.61513300  0.26005100  0.62341100  1
  O  O6  1  0.85791000  0.51567600  0.36672300  1
  O  O7  1  0.83449100  0.97246700  0.36938300  1
  O  O8  1  0.65604800  0.52374000  0.13049400  1
  O  O9  1  0.40222500  0.72979800  0.36464000  1
  O  O10  1  0.65484600  0.98715800  0.12585700  1
  O  O11  1  0.37724500  0.23349900  0.38806000  1
  O  O12  1  0.88059400  0.23390100  0.88012900  1
  O  O13  1  0.89615800  0.76332500  0.88920700  1
  O  O14  1  0.15298500  0.99605400  0.62725400  1
  O  O15  1  0.13873200  0.49834900  0.63237100  1
loop_
_geom_bond_atom_site_label_1
_geom_bond_atom_site_label_2
_geom_bond_distance
_geom_bond_site_symmetry_2
Li0 O1 2.053274 1_556
Li0 O12 2.066437 1_555
Li0 O2 2.140501 1_555
Li0 O10 2.142350 1_546
Li0 O0 2.154187 1_555
Li0 O8 2.356271 1_556
Li1 O9 2.014454 1_555
Li1 O11 2.118849 1_555
Li1 O6 2.132534 1_455
Li1 O8 2.166830 1_555
Li1 O3 2.195978 1_555
Li1 O1 2.318507 1_555
Li2 O8 2.020618 1_555
Li2 O10 2.080474 1_555
Li2 O13 2.088949 1_554
Li2 O0 2.138574 1_564
Li2 O3 2.201381 1_555
Li2 O2 2.230292 1_554
Li3 O3 2.082741 1_545
Li3 O9 2.114177 1_545
Li3 O11 2.120277 1_555
Li3 O1 2.123498 1_555
Li3 O7 2.202308 1_445
Li3 O10 2.220823 1_545
Li4 O5 2.062840 1_555
Li4 O12 2.120924 1_555
Li4 O13 2.156909 1_545
Li4 O14 2.166106 1_645
Li4 O0 2.211416 1_555
Li4 O4 2.213169 1_545
Li5 O5 2.036101 1_555
Li5 O15 2.091882 1_655
Li5 O4 2.128648 1_555
Li5 O2 2.155593 1_555
Li5 O12 2.156898 1_555
Li5 O13 2.422548 1_555
Li6 O7 2.033357 1_555
Li6 O4 2.082955 1_555
Li6 O6 2.096960 1_555
Li6 O15 2.133122 1_655
Li6 O9 2.245743 1_655
Li6 O14 2.267730 1_655
Li7 O11 2.043185 1_655
Li7 O5 2.092711 1_555
Li7 O14 2.134697 1_645
Li7 O6 2.169759 1_555
Li7 O15 2.210786 1_655
Li7 O7 2.378714 1_545
Li8 O7 2.030469 1_545
Li8 O8 2.054035 1_555
Li8 O11 2.084161 1_555
Li8 O10 2.122624 1_545
Li8 O6 2.126449 1_555
Li8 O1 2.134203 1_655
Mn0 O10 1.912883 1_545
Mn0 O12 1.928188 1_554
Mn0 O3 1.934668 1_645
Mn0 O1 1.941169 1_655
Mn0 O0 1.980428 1_654
Mn0 O13 1.999377 1_544
Mn1 O8 1.941942 1_555
Mn1 O1 1.942260 1_655
Mn1 O13 1.981428 1_554
Mn1 O2 2.026946 1_654
Mn1 O12 2.196961 1_554
Mn1 O3 2.204877 1_655
Co0 O9 1.956143 1_555
Co0 O5 1.966015 1_555
Co0 O6 1.978963 1_555
Co0 O11 2.066281 1_555
Co0 O15 2.102991 1_555
Co0 O4 2.123746 1_555
Co1 O14 1.932031 1_555
Co1 O2 1.950906 1_555
Co1 O4 2.016071 1_555
Co1 O13 2.072365 1_455
Co1 O15 2.089355 1_555
Co1 O0 2.096914 1_565
Co2 O6 1.870573 1_555
Co2 O7 1.900832 1_555
Co2 O9 1.916446 1_555
Co2 O10 1.927255 1_555
Co2 O8 1.937493 1_555
Co2 O3 1.955071 1_655
Co3 O11 1.865132 1_565
Co3 O7 1.906299 1_555
Co3 O4 1.936720 1_555
Co3 O14 1.993292 1_555
Co3 O9 2.191654 1_555
Co3 O5 2.194240 1_565
Co4 O15 1.917543 1_555
Co4 O0 1.990433 1_555
Co4 O5 2.016438 1_555
Co4 O14 2.085951 1_545
Co4 O12 2.086868 1_455
Co4 O2 2.125008 1_555
