# generated using pymatgen
data_PrSmB12
_symmetry_space_group_name_H-M   'P 1'
_cell_length_a   5.83691526
_cell_length_b   5.83691526
_cell_length_c   4.12269079
_cell_angle_alpha   90.00000000
_cell_angle_beta   90.00000000
_cell_angle_gamma   90.00000000
_symmetry_Int_Tables_number   1
_chemical_formula_structural   PrSmB12
_chemical_formula_sum   'Pr1 Sm1 B12'
_cell_volume   140.45834266
_cell_formula_units_Z   1
loop_
 _symmetry_equiv_pos_site_id
 _symmetry_equiv_pos_as_xyz
  1  'x, y, z'
loop_
 _atom_site_type_symbol
 _atom_site_label
 _atom_site_symmetry_multiplicity
 _atom_site_fract_x
 _atom_site_fract_y
 _atom_site_fract_z
 _atom_site_occupancy
  Pr  Pr0  1  -0.00000000  0.00000000  0.00000000  1
  Sm  Sm0  1  0.50000000  0.50000000  0.00000000  1
  B  B0  1  -0.00000000  0.50000000  0.19966572  1
  B  B1  1  0.50000000  -0.00000000  0.19966572  1
  B  B2  1  0.15047900  0.64998831  0.50000000  1
  B  B3  1  0.64998831  0.15047900  0.50000000  1
  B  B4  1  0.15047900  0.35001169  0.50000000  1
  B  B5  1  0.64998831  0.84952100  0.50000000  1
  B  B6  1  0.84952100  0.35001169  0.50000000  1
  B  B7  1  0.35001169  0.84952100  0.50000000  1
  B  B8  1  0.84952100  0.64998831  0.50000000  1
  B  B9  1  0.35001169  0.15047900  0.50000000  1
  B  B10  1  -0.00000000  0.50000000  0.80033428  1
  B  B11  1  0.50000000  0.00000000  0.80033428  1
loop_
_geom_bond_atom_site_label_1
_geom_bond_atom_site_label_2
_geom_bond_distance
_geom_bond_site_symmetry_2
B0 B10 1.646320 1_554
B0 B4 1.752432 1_555
B0 B8 1.752432 1_455
B0 B6 1.752432 1_455
B0 B2 1.752432 1_555
B0 Sm0 3.032324 1_555
B0 Sm0 3.032324 1_455
B0 Pr0 3.032324 1_555
B0 Pr0 3.032324 1_565
B1 B11 1.646320 1_554
B1 B3 1.752432 1_555
B1 B5 1.752432 1_545
B1 B7 1.752432 1_545
B1 B9 1.752432 1_555
B1 Sm0 3.032324 1_555
B1 Sm0 3.032324 1_545
B1 Pr0 3.032324 1_555
B1 Pr0 3.032324 1_655
B2 B7 1.647071 1_555
B2 B4 1.750938 1_555
B2 B8 1.756666 1_455
B2 Sm0 3.029472 1_556
B2 Sm0 3.029472 1_555
B2 Pr0 3.032230 1_565
B2 Pr0 3.032230 1_566
B3 B6 1.647071 1_555
B3 B9 1.750938 1_555
B3 B5 1.756666 1_545
B3 Sm0 3.029472 1_556
B3 Sm0 3.029472 1_555
B3 Pr0 3.032230 1_656
B3 Pr0 3.032230 1_655
B4 B9 1.647071 1_555
B4 B6 1.756666 1_455
B4 Sm0 3.029472 1_556
B4 Sm0 3.029472 1_555
B4 Pr0 3.032230 1_555
B4 Pr0 3.032230 1_556
B5 B8 1.647071 1_555
B5 B7 1.750938 1_555
B5 Sm0 3.029472 1_556
B5 Sm0 3.029472 1_555
B5 Pr0 3.032230 1_665
B5 Pr0 3.032230 1_666
B6 B8 1.750938 1_555
B6 Sm0 3.029472 1_556
B6 Sm0 3.029472 1_555
B6 Pr0 3.032230 1_656
B6 Pr0 3.032230 1_655
B7 B9 1.756666 1_565
B7 Sm0 3.029472 1_556
B7 Sm0 3.029472 1_555
B7 Pr0 3.032230 1_565
B7 Pr0 3.032230 1_566
B8 Sm0 3.029472 1_556
B8 Sm0 3.029472 1_555
B8 Pr0 3.032230 1_665
B8 Pr0 3.032230 1_666
B9 Sm0 3.029472 1_556
B9 Sm0 3.029472 1_555
B9 Pr0 3.032230 1_555
B9 Pr0 3.032230 1_556
B10 B4 1.752432 1_555
B10 B2 1.752432 1_555
B10 B8 1.752432 1_455
B10 B6 1.752432 1_455
B10 Pr0 3.032324 1_556
B10 Sm0 3.032324 1_456
B10 Pr0 3.032324 1_566
B10 Sm0 3.032324 1_556
B11 B3 1.752432 1_555
B11 B9 1.752432 1_555
B11 B5 1.752432 1_545
B11 B7 1.752432 1_545
B11 Pr0 3.032324 1_656
B11 Pr0 3.032324 1_556
B11 Sm0 3.032324 1_556
B11 Sm0 3.032324 1_546
