# generated using pymatgen
data_Co2O3F
_symmetry_space_group_name_H-M   'P 1'
_cell_length_a   6.00508602
_cell_length_b   6.51868021
_cell_length_c   6.77958731
_cell_angle_alpha   90.19839920
_cell_angle_beta   63.70438389
_cell_angle_gamma   91.22218543
_symmetry_Int_Tables_number   1
_chemical_formula_structural   Co2O3F
_chemical_formula_sum   'Co8 O12 F4'
_cell_volume   237.86678847
_cell_formula_units_Z   4
loop_
 _symmetry_equiv_pos_site_id
 _symmetry_equiv_pos_as_xyz
  1  'x, y, z'
loop_
 _atom_site_type_symbol
 _atom_site_label
 _atom_site_symmetry_multiplicity
 _atom_site_fract_x
 _atom_site_fract_y
 _atom_site_fract_z
 _atom_site_occupancy
  Co  Co0  1  0.99780100  0.99550600  0.49970200  1
  Co  Co1  1  0.74820300  0.50790600  0.99911200  1
  Co  Co2  1  0.25248900  0.50430500  0.00016800  1
  Co  Co3  1  0.50161800  0.99223100  0.50095000  1
  Co  Co4  1  0.50198700  0.03803900  0.99868100  1
  Co  Co5  1  0.74811100  0.46187300  0.50133500  1
  Co  Co6  1  0.99701200  0.97257200  0.00154900  1
  Co  Co7  1  0.25282600  0.52740000  0.49840400  1
  O  O0  1  0.14429200  0.99180200  0.19613900  1
  O  O1  1  0.65470100  0.98941200  0.20410500  1
  O  O2  1  0.10527600  0.50820700  0.30419700  1
  O  O3  1  0.59582300  0.51053800  0.29555800  1
  O  O4  1  0.50902100  0.31901300  0.99183400  1
  O  O5  1  0.74115100  0.18060600  0.50853800  1
  O  O6  1  0.99712000  0.69631500  0.00001200  1
  O  O7  1  0.25262600  0.80464400  0.49979400  1
  O  O8  1  0.33747400  0.00247400  0.79762700  1
  O  O9  1  0.86020200  0.00091400  0.80442800  1
  O  O10  1  0.39000700  0.49918600  0.69521100  1
  O  O11  1  0.91213600  0.49751900  0.70275700  1
  F  F0  1  0.99357600  0.28569300  0.01504800  1
  F  F1  1  0.25688300  0.21390100  0.48469500  1
  F  F2  1  0.50328500  0.71735900  0.99050700  1
  F  F3  1  0.74638100  0.78258500  0.50964800  1
loop_
_geom_bond_atom_site_label_1
_geom_bond_atom_site_label_2
_geom_bond_distance
_geom_bond_site_symmetry_2
Co0 O0 1.845655 1_655
Co0 O9 1.854803 1_565
Co0 O5 1.957507 1_565
Co0 O7 1.992907 1_655
Co0 F3 2.007869 1_555
Co0 F1 2.055222 1_665
Co1 O3 1.802181 1_556
Co1 O11 1.805524 1_555
Co1 O4 1.889053 1_555
Co1 O6 1.916378 1_556
Co1 F2 2.047671 1_555
Co1 F0 2.124681 1_556
Co2 O2 1.848465 1_555
Co2 O10 1.856216 1_554
Co2 O4 1.958834 1_554
Co2 O6 2.000405 1_455
Co2 F2 2.006324 1_554
Co2 F0 2.055693 1_455
Co3 O1 1.804671 1_555
Co3 O8 1.807451 1_565
Co3 O5 1.889270 1_565
Co3 O7 1.913987 1_555
Co3 F3 2.048056 1_555
Co3 F1 2.120197 1_565
Co4 O4 1.831440 1_555
Co4 O0 1.980976 1_546
Co4 O9 1.982483 1_555
Co4 O1 2.007016 1_546
Co4 O8 2.017125 1_555
Co4 F2 2.091042 1_545
Co5 O5 1.833401 1_555
Co5 O2 1.978146 1_655
Co5 O10 1.981663 1_555
Co5 O3 2.007242 1_555
Co5 O11 2.017102 1_555
Co5 F3 2.091307 1_555
Co6 O6 1.800837 1_555
Co6 O9 1.864404 1_564
Co6 O0 1.888443 1_655
Co6 O8 1.899961 1_664
Co6 O1 1.905491 1_555
Co6 F0 2.043004 1_565
Co7 O7 1.807280 1_555
Co7 O10 1.864065 1_555
Co7 O2 1.887338 1_555
Co7 O11 1.901714 1_455
Co7 O3 1.909113 1_555
Co7 F1 2.045564 1_555
