# generated using pymatgen
data_Nd2(SeO3)3
_symmetry_space_group_name_H-M   'P 1'
_cell_length_a   6.97473729
_cell_length_b   8.34036148
_cell_length_c   14.11067458
_cell_angle_alpha   90.00000000
_cell_angle_beta   90.00000000
_cell_angle_gamma   90.00000000
_symmetry_Int_Tables_number   1
_chemical_formula_structural   Nd2(SeO3)3
_chemical_formula_sum   'Nd8 Se12 O36'
_cell_volume   820.84376605
_cell_formula_units_Z   4
loop_
 _symmetry_equiv_pos_site_id
 _symmetry_equiv_pos_as_xyz
  1  'x, y, z'
loop_
 _atom_site_type_symbol
 _atom_site_label
 _atom_site_symmetry_multiplicity
 _atom_site_fract_x
 _atom_site_fract_y
 _atom_site_fract_z
 _atom_site_occupancy
  Nd  Nd0  1  0.31777999  0.29935012  0.06266508  1
  Nd  Nd1  1  0.68222001  0.70064988  0.93733492  1
  Nd  Nd2  1  0.81777999  0.20064988  0.93733492  1
  Nd  Nd3  1  0.68222001  0.70064988  0.56266508  1
  Nd  Nd4  1  0.18222001  0.79935012  0.06266508  1
  Nd  Nd5  1  0.31777999  0.29935012  0.43733492  1
  Nd  Nd6  1  0.18222001  0.79935012  0.43733492  1
  Nd  Nd7  1  0.81777999  0.20064988  0.56266508  1
  Se  Se0  1  0.09311174  0.03986553  0.25000000  1
  Se  Se1  1  0.90688826  0.96013447  0.75000000  1
  Se  Se2  1  0.59311174  0.46013447  0.75000000  1
  Se  Se3  1  0.40688826  0.53986553  0.25000000  1
  Se  Se4  1  0.32102604  0.04864073  0.62564754  1
  Se  Se5  1  0.67897396  0.95135927  0.37435246  1
  Se  Se6  1  0.82102604  0.45135927  0.37435246  1
  Se  Se7  1  0.67897396  0.95135927  0.12564754  1
  Se  Se8  1  0.17897396  0.54864073  0.62564754  1
  Se  Se9  1  0.32102604  0.04864073  0.87435246  1
  Se  Se10  1  0.17897396  0.54864073  0.87435246  1
  Se  Se11  1  0.82102604  0.45135927  0.12564754  1
  O  O0  1  0.43018041  0.33650407  0.25000000  1
  O  O1  1  0.56981959  0.66349593  0.75000000  1
  O  O2  1  0.93018041  0.16349593  0.75000000  1
  O  O3  1  0.06981959  0.83650407  0.25000000  1
  O  O4  1  0.46652310  0.20671022  0.59753942  1
  O  O5  1  0.53347690  0.79328978  0.40246058  1
  O  O6  1  0.96652310  0.29328978  0.40246058  1
  O  O7  1  0.53347690  0.79328978  0.09753942  1
  O  O8  1  0.03347690  0.70671022  0.59753942  1
  O  O9  1  0.46652310  0.20671022  0.90246058  1
  O  O10  1  0.03347690  0.70671022  0.90246058  1
  O  O11  1  0.96652310  0.29328978  0.09753942  1
  O  O12  1  0.58636062  0.11564142  0.07265196  1
  O  O13  1  0.41363938  0.88435858  0.92734804  1
  O  O14  1  0.08636062  0.38435858  0.92734804  1
  O  O15  1  0.41363938  0.88435858  0.57265196  1
  O  O16  1  0.91363938  0.61564142  0.07265196  1
  O  O17  1  0.58636062  0.11564142  0.42734804  1
  O  O18  1  0.91363938  0.61564142  0.42734804  1
  O  O19  1  0.08636062  0.38435858  0.57265196  1
  O  O20  1  0.24207156  0.05307977  0.15378063  1
  O  O21  1  0.75792844  0.94692023  0.84621937  1
  O  O22  1  0.74207156  0.44692023  0.84621937  1
  O  O23  1  0.75792844  0.94692023  0.65378063  1
  O  O24  1  0.25792844  0.55307977  0.15378063  1
  O  O25  1  0.24207156  0.05307977  0.34621937  1
  O  O26  1  0.25792844  0.55307977  0.34621937  1
  O  O27  1  0.74207156  0.44692023  0.65378063  1
  O  O28  1  0.14577261  0.07532183  0.54059478  1
  O  O29  1  0.85422739  0.92467817  0.45940522  1
  O  O30  1  0.64577261  0.42467817  0.45940522  1
  O  O31  1  0.85422739  0.92467817  0.04059478  1
  O  O32  1  0.35422739  0.57532183  0.54059478  1
  O  O33  1  0.14577261  0.07532183  0.95940522  1
  O  O34  1  0.35422739  0.57532183  0.95940522  1
  O  O35  1  0.64577261  0.42467817  0.04059478  1
loop_
_geom_bond_atom_site_label_1
_geom_bond_atom_site_label_2
_geom_bond_distance
_geom_bond_site_symmetry_2
Nd0 O12 2.424183 1_555
Nd0 O20 2.480063 1_555
Nd0 O11 2.499370 1_455
Nd0 O24 2.511092 1_555
Nd0 O35 2.534364 1_555
Nd0 O14 2.598814 1_554
Nd0 O9 2.604527 1_554
Nd0 O33 2.655851 1_554
Nd0 O34 2.735965 1_554
Nd0 O0 2.774582 1_555
Nd1 O13 2.424183 1_555
Nd1 O21 2.480063 1_555
Nd1 O10 2.499370 1_655
Nd1 O22 2.511092 1_555
Nd1 O34 2.534364 1_555
Nd1 O16 2.598814 1_556
Nd1 O7 2.604527 1_556
Nd1 O31 2.655851 1_556
Nd1 O35 2.735965 1_556
Nd1 O1 2.774582 1_555
Nd2 O14 2.424183 1_655
Nd2 O22 2.480063 1_555
Nd2 O9 2.499370 1_555
Nd2 O21 2.511092 1_545
Nd2 O33 2.534364 1_655
Nd2 O12 2.598814 1_556
Nd2 O11 2.604527 1_556
Nd2 O35 2.655851 1_556
Nd2 O31 2.735965 1_546
Nd2 O2 2.774582 1_555
Nd3 O15 2.424183 1_555
Nd3 O23 2.480063 1_555
Nd3 O8 2.499370 1_655
Nd3 O27 2.511092 1_555
Nd3 O32 2.534364 1_555
Nd3 O18 2.598814 1_555
Nd3 O5 2.604527 1_555
Nd3 O29 2.655851 1_555
Nd3 O30 2.735965 1_555
Nd3 O1 2.774582 1_555
Nd4 O16 2.424183 1_455
Nd4 O24 2.480063 1_555
Nd4 O7 2.499370 1_555
Nd4 O20 2.511092 1_565
Nd4 O31 2.534364 1_455
Nd4 O13 2.598814 1_554
Nd4 O10 2.604527 1_554
Nd4 O34 2.655851 1_554
Nd4 O33 2.735965 1_564
Nd4 O3 2.774582 1_555
Nd5 O17 2.424183 1_555
Nd5 O25 2.480063 1_555
Nd5 O6 2.499370 1_455
Nd5 O26 2.511092 1_555
Nd5 O30 2.534364 1_555
Nd5 O19 2.598814 1_555
Nd5 O4 2.604527 1_555
Nd5 O28 2.655851 1_555
Nd5 O32 2.735965 1_555
Nd5 O0 2.774582 1_555
Nd6 O18 2.424183 1_455
Nd6 O26 2.480063 1_555
Nd6 O5 2.499370 1_555
Nd6 O25 2.511092 1_565
Nd6 O29 2.534364 1_455
Nd6 O15 2.598814 1_555
Nd6 O8 2.604527 1_555
Nd6 O32 2.655851 1_555
Nd6 O28 2.735965 1_565
Nd6 O3 2.774582 1_555
Nd7 O19 2.424183 1_655
Nd7 O27 2.480063 1_555
Nd7 O4 2.499370 1_555
Nd7 O23 2.511092 1_545
Nd7 O28 2.534364 1_655
Nd7 O17 2.598814 1_555
Nd7 O6 2.604527 1_555
Nd7 O30 2.655851 1_555
Nd7 O29 2.735965 1_545
Nd7 O2 2.774582 1_555
O0 Se3 1.703871 1_555
O1 Se2 1.703871 1_555
O2 Se1 1.703871 1_545
O3 Se0 1.703871 1_565
O4 Se4 1.710322 1_555
O5 Se5 1.710322 1_555
O6 Se6 1.710322 1_555
O7 Se7 1.710322 1_555
O8 Se8 1.710322 1_555
O9 Se9 1.710322 1_555
O10 Se10 1.710322 1_555
O11 Se11 1.710322 1_555
O12 Se7 1.689331 1_545
O13 Se9 1.689331 1_565
O14 Se10 1.689331 1_555
O15 Se4 1.689331 1_565
O16 Se11 1.689331 1_555
O17 Se5 1.689331 1_545
O18 Se6 1.689331 1_555
O19 Se8 1.689331 1_555
O20 Se0 1.713178 1_555
O21 Se1 1.713178 1_555
O22 Se2 1.713178 1_555
O23 Se1 1.713178 1_555
O24 Se3 1.713178 1_555
O25 Se0 1.713178 1_555
O26 Se3 1.713178 1_555
O27 Se2 1.713178 1_555
O28 Se4 1.727430 1_555
O29 Se5 1.727430 1_555
O30 Se6 1.727430 1_555
O31 Se7 1.727430 1_555
O32 Se8 1.727430 1_555
O33 Se9 1.727430 1_555
O34 Se10 1.727430 1_555
O35 Se11 1.727430 1_555
