# generated using pymatgen
data_Sr4CrN4
_symmetry_space_group_name_H-M   'P 1'
_cell_length_a   11.84899400
_cell_length_b   5.25894700
_cell_length_c   11.66886900
_cell_angle_alpha   90.00000000
_cell_angle_beta   90.00000000
_cell_angle_gamma   90.00000000
_symmetry_Int_Tables_number   1
_chemical_formula_structural   Sr4CrN4
_chemical_formula_sum   'Sr16 Cr4 N16'
_cell_volume   727.12493475
_cell_formula_units_Z   4
loop_
 _symmetry_equiv_pos_site_id
 _symmetry_equiv_pos_as_xyz
  1  'x, y, z'
loop_
 _atom_site_type_symbol
 _atom_site_label
 _atom_site_symmetry_multiplicity
 _atom_site_fract_x
 _atom_site_fract_y
 _atom_site_fract_z
 _atom_site_occupancy
  Sr  Sr0  1  0.55410100  0.25000000  0.89010400  1
  Sr  Sr1  1  0.05410100  0.25000000  0.60989600  1
  Sr  Sr2  1  0.44589900  0.75000000  0.10989600  1
  Sr  Sr3  1  0.94589900  0.75000000  0.39010400  1
  Sr  Sr4  1  0.72371000  0.25000000  0.52502300  1
  Sr  Sr5  1  0.22371000  0.25000000  0.97497700  1
  Sr  Sr6  1  0.27629000  0.75000000  0.47497700  1
  Sr  Sr7  1  0.77629000  0.75000000  0.02502300  1
  Sr  Sr8  1  0.86526200  0.25000000  0.83602600  1
  Sr  Sr9  1  0.36526200  0.25000000  0.66397400  1
  Sr  Sr10  1  0.13473800  0.75000000  0.16397400  1
  Sr  Sr11  1  0.63473800  0.75000000  0.33602600  1
  Sr  Sr12  1  0.90921500  0.25000000  0.18605500  1
  Sr  Sr13  1  0.40921500  0.25000000  0.31394500  1
  Sr  Sr14  1  0.09078500  0.75000000  0.81394500  1
  Sr  Sr15  1  0.59078500  0.75000000  0.68605500  1
  Cr  Cr0  1  0.63613200  0.25000000  0.14758300  1
  Cr  Cr1  1  0.13613200  0.25000000  0.35241700  1
  Cr  Cr2  1  0.36386800  0.75000000  0.85241700  1
  Cr  Cr3  1  0.86386800  0.75000000  0.64758300  1
  N  N0  1  0.49675800  0.25000000  0.10973000  1
  N  N1  1  0.99675800  0.25000000  0.39027000  1
  N  N2  1  0.50324200  0.75000000  0.89027000  1
  N  N3  1  0.00324200  0.75000000  0.60973000  1
  N  N4  1  0.73370700  0.25000000  0.03419400  1
  N  N5  1  0.23370700  0.25000000  0.46580600  1
  N  N6  1  0.26629300  0.75000000  0.96580600  1
  N  N7  1  0.76629300  0.75000000  0.53419400  1
  N  N8  1  0.67318500  0.25000000  0.29145400  1
  N  N9  1  0.17318500  0.25000000  0.20854600  1
  N  N10  1  0.32681500  0.75000000  0.70854600  1
  N  N11  1  0.82681500  0.75000000  0.79145400  1
  N  N12  1  0.06995000  0.25000000  0.83189000  1
  N  N13  1  0.56995000  0.25000000  0.66811000  1
  N  N14  1  0.93005000  0.75000000  0.16811000  1
  N  N15  1  0.43005000  0.75000000  0.33189000  1
loop_
_geom_bond_atom_site_label_1
_geom_bond_atom_site_label_2
_geom_bond_distance
_geom_bond_site_symmetry_2
Cr0 N0 1.709491 1_555
Cr0 N8 1.735271 1_555
Cr0 N4 1.757091 1_555
Cr1 N1 1.709491 1_455
Cr1 N9 1.735271 1_555
Cr1 N5 1.757091 1_555
Cr2 N2 1.709491 1_555
Cr2 N10 1.735271 1_555
Cr2 N6 1.757091 1_555
Cr3 N3 1.709491 1_655
Cr3 N11 1.735271 1_555
Cr3 N7 1.757091 1_555
N0 Sr13 2.598937 1_555
N0 Sr0 2.651328 1_554
N0 Sr2 2.697646 1_545
N0 Sr2 2.697646 1_555
N1 Sr12 2.598937 1_555
N1 Sr1 2.651328 1_655
N1 Sr3 2.697646 1_555
N1 Sr3 2.697646 1_545
N2 Sr15 2.598937 1_555
N2 Sr2 2.651328 1_556
N2 Sr0 2.697646 1_555
N2 Sr0 2.697646 1_565
N3 Sr14 2.598937 1_555
N3 Sr3 2.651328 1_455
N3 Sr1 2.697646 1_565
N3 Sr1 2.697646 1_555
N4 Sr7 2.679584 1_545
N4 Sr7 2.679584 1_555
N4 Sr0 2.712198 1_554
N4 Sr12 2.732189 1_555
N4 Sr8 2.788730 1_554
N5 Sr6 2.679584 1_545
N5 Sr6 2.679584 1_555
N5 Sr1 2.712198 1_555
N5 Sr13 2.732189 1_555
N5 Sr9 2.788730 1_555
N6 Sr5 2.679584 1_565
N6 Sr5 2.679584 1_555
N6 Sr2 2.712198 1_556
N6 Sr14 2.732189 1_555
N6 Sr10 2.788730 1_556
N7 Sr4 2.679584 1_555
N7 Sr4 2.679584 1_565
N7 Sr3 2.712198 1_555
N7 Sr15 2.732189 1_555
N7 Sr11 2.788730 1_555
N8 Sr11 2.718855 1_555
N8 Sr11 2.718855 1_545
N8 Sr4 2.790462 1_555
N8 Sr12 3.055201 1_555
N8 Sr13 3.138770 1_555
N9 Sr10 2.718855 1_545
N9 Sr10 2.718855 1_555
N9 Sr5 2.790462 1_554
N9 Sr13 3.055201 1_555
N9 Sr12 3.138770 1_455
N10 Sr9 2.718855 1_555
N10 Sr9 2.718855 1_565
N10 Sr6 2.790462 1_555
N10 Sr14 3.055201 1_555
N10 Sr15 3.138770 1_555
N11 Sr8 2.718855 1_565
N11 Sr8 2.718855 1_555
N11 Sr7 2.790462 1_556
N11 Sr15 3.055201 1_555
N11 Sr14 3.138770 1_655
N12 Sr8 2.425827 1_455
N12 Sr5 2.471255 1_555
N12 Sr1 2.597217 1_555
N12 Sr14 2.649325 1_555
N12 Sr14 2.649325 1_545
N13 Sr9 2.425827 1_555
N13 Sr4 2.471255 1_555
N13 Sr0 2.597217 1_555
N13 Sr15 2.649325 1_545
N13 Sr15 2.649325 1_555
N14 Sr10 2.425827 1_655
N14 Sr7 2.471255 1_555
N14 Sr3 2.597217 1_555
N14 Sr12 2.649325 1_555
N14 Sr12 2.649325 1_565
N15 Sr11 2.425827 1_555
N15 Sr6 2.471255 1_555
N15 Sr2 2.597217 1_555
N15 Sr13 2.649325 1_565
N15 Sr13 2.649325 1_555
