# generated using pymatgen
data_EuAl3(BO3)4
_symmetry_space_group_name_H-M   'P 1'
_cell_length_a   5.96801072
_cell_length_b   5.96801072
_cell_length_c   16.44382312
_cell_angle_alpha   89.32379740
_cell_angle_beta   89.32379740
_cell_angle_gamma   104.12797207
_symmetry_Int_Tables_number   1
_chemical_formula_structural   EuAl3(BO3)4
_chemical_formula_sum   'Eu3 Al9 B12 O36'
_cell_volume   567.86233905
_cell_formula_units_Z   3
loop_
 _symmetry_equiv_pos_site_id
 _symmetry_equiv_pos_as_xyz
  1  'x, y, z'
loop_
 _atom_site_type_symbol
 _atom_site_label
 _atom_site_symmetry_multiplicity
 _atom_site_fract_x
 _atom_site_fract_y
 _atom_site_fract_z
 _atom_site_occupancy
  Eu  Eu0  1  0.45424400  0.20596600  0.66842200  1
  Eu  Eu1  1  0.79403400  0.54575600  0.33157800  1
  Eu  Eu2  1  0.55342600  0.44657400  0.00000000  1
  Al  Al0  1  0.96724500  0.29009600  0.14743400  1
  Al  Al1  1  0.70990400  0.03275500  0.85256600  1
  Al  Al2  1  0.37522300  0.69593200  0.18559900  1
  Al  Al3  1  0.30406800  0.62477700  0.81440100  1
  Al  Al4  1  0.34483000  0.98845800  0.33429600  1
  Al  Al5  1  0.01154200  0.65517000  0.66570400  1
  Al  Al6  1  0.64258100  0.95150500  0.48112200  1
  Al  Al7  1  0.04849500  0.35741900  0.51887800  1
  Al  Al8  1  0.99902900  0.00097100  0.00000000  1
  B  B0  1  0.56507400  0.43492600  0.50000000  1
  B  B1  1  0.86683200  0.06330800  0.31421200  1
  B  B2  1  0.93669200  0.13316800  0.68578800  1
  B  B3  1  0.47561500  0.92664300  0.01867400  1
  B  B4  1  0.07335700  0.52438500  0.98132600  1
  B  B5  1  0.27063200  0.46644100  0.35273200  1
  B  B6  1  0.53355900  0.72936800  0.64726800  1
  B  B7  1  0.89187000  0.77139700  0.16218200  1
  B  B8  1  0.22860300  0.10813000  0.83781800  1
  B  B9  1  0.12347400  0.87652600  0.50000000  1
  B  B10  1  0.45131000  0.21370900  0.17033600  1
  B  B11  1  0.78629100  0.54869000  0.82966400  1
  O  O0  1  0.02477600  0.93409300  0.32579000  1
  O  O1  1  0.06590700  0.97522400  0.67421000  1
  O  O2  1  0.71372300  0.28627700  0.50000000  1
  O  O3  1  0.94801400  0.97601800  0.11704100  1
  O  O4  1  0.02398200  0.05198600  0.88295900  1
  O  O5  1  0.30090500  0.36008500  0.16651700  1
  O  O6  1  0.63991500  0.69909500  0.83348300  1
  O  O7  1  0.44385000  0.75026700  0.07501800  1
  O  O8  1  0.24973300  0.55615000  0.92498200  1
  O  O9  1  0.66754400  0.01464200  0.36328000  1
  O  O10  1  0.98535800  0.33245600  0.63672000  1
  O  O11  1  0.68872100  0.70675500  0.20660900  1
  O  O12  1  0.29324500  0.31127900  0.79339100  1
  O  O13  1  0.39641000  0.01046100  0.21609900  1
  O  O14  1  0.98953900  0.60359000  0.78390100  1
  O  O15  1  0.65316200  0.27768100  0.12491000  1
  O  O16  1  0.72231900  0.34683800  0.87509000  1
  O  O17  1  0.76213200  0.10577500  0.74255500  1
  O  O18  1  0.89422500  0.23786800  0.25744500  1
  O  O19  1  0.56078500  0.90601400  0.59109200  1
  O  O20  1  0.09398600  0.43921500  0.40890800  1
  O  O21  1  0.32164100  0.92689800  0.45074800  1
  O  O22  1  0.07310200  0.67835900  0.54925200  1
  O  O23  1  0.31988600  0.05835000  0.00620000  1
  O  O24  1  0.94165000  0.68011400  0.99380000  1
  O  O25  1  0.04216500  0.62524600  0.16737600  1
  O  O26  1  0.37475400  0.95783500  0.83262400  1
  O  O27  1  0.31577500  0.66501100  0.30314600  1
  O  O28  1  0.33498900  0.68422500  0.69685400  1
  O  O29  1  0.40243900  0.31012900  0.34143500  1
  O  O30  1  0.68987100  0.59756100  0.65856500  1
  O  O31  1  0.97525000  0.02475000  0.50000000  1
  O  O32  1  0.63524100  0.64261300  0.45895400  1
  O  O33  1  0.35738700  0.36475900  0.54104600  1
  O  O34  1  0.02686000  0.32367000  0.02990900  1
  O  O35  1  0.67633000  0.97314000  0.97009100  1
loop_
_geom_bond_atom_site_label_1
_geom_bond_atom_site_label_2
_geom_bond_distance
_geom_bond_site_symmetry_2
Eu0 O1 2.389630 1_545
Eu0 O17 2.406642 1_555
Eu0 O19 2.411654 1_545
Eu0 O12 2.412432 1_555
Eu0 O30 2.418024 1_555
Eu0 O33 2.422501 1_555
Eu1 O0 2.389630 1_655
Eu1 O18 2.406642 1_555
Eu1 O20 2.411654 1_655
Eu1 O11 2.412432 1_555
Eu1 O29 2.418024 1_555
Eu1 O32 2.422501 1_555
Eu2 O23 2.394942 1_555
Eu2 O24 2.394942 1_554
Eu2 O7 2.417989 1_555
Eu2 O8 2.417989 1_554
Eu2 O15 2.421167 1_555
Eu2 O16 2.421167 1_554
Al0 O18 1.860463 1_555
Al0 O15 1.898808 1_555
Al0 O3 1.922199 1_545
Al0 O34 1.959936 1_655
Al0 O5 1.962132 1_655
Al0 O25 1.972440 1_655
Al1 O17 1.860463 1_555
Al1 O16 1.898808 1_555
Al1 O4 1.922199 1_655
Al1 O35 1.959936 1_545
Al1 O6 1.962132 1_545
Al1 O26 1.972440 1_545
Al2 O7 1.866293 1_555
Al2 O11 1.892303 1_555
Al2 O13 1.923260 1_565
Al2 O25 1.956113 1_555
Al2 O27 1.959476 1_555
Al2 O5 1.974006 1_555
Al3 O8 1.866293 1_555
Al3 O12 1.892303 1_555
Al3 O14 1.923260 1_455
Al3 O26 1.956113 1_555
Al3 O28 1.959476 1_555
Al3 O6 1.974006 1_555
Al4 O0 1.864966 1_555
Al4 O29 1.871212 1_565
Al4 O21 1.942511 1_555
Al4 O9 1.958928 1_565
Al4 O13 1.962077 1_565
Al4 O27 1.969941 1_555
Al5 O1 1.864966 1_555
Al5 O30 1.871212 1_455
Al5 O22 1.942511 1_555
Al5 O10 1.958928 1_455
Al5 O14 1.962077 1_455
Al5 O28 1.969941 1_555
Al6 O19 1.866797 1_555
Al6 O32 1.873499 1_555
Al6 O31 1.955308 1_565
Al6 O21 1.956191 1_555
Al6 O9 1.966644 1_565
Al6 O2 1.967732 1_565
Al7 O20 1.866797 1_555
Al7 O33 1.873499 1_555
Al7 O31 1.955308 1_455
Al7 O22 1.956191 1_555
Al7 O10 1.966644 1_455
Al7 O2 1.967732 1_455
Al8 O23 1.865405 1_655
Al8 O24 1.865405 1_544
Al8 O4 1.943253 1_654
Al8 O3 1.943253 1_545
Al8 O35 1.961270 1_544
Al8 O34 1.961270 1_655
B0 O33 1.373836 1_555
B0 O32 1.373836 1_555
B0 O2 1.399369 1_555
B1 O18 1.368826 1_555
B1 O0 1.369333 1_645
B1 O9 1.397545 1_555
B2 O17 1.368826 1_555
B2 O1 1.369333 1_645
B2 O10 1.397545 1_555
B3 O7 1.370320 1_555
B3 O23 1.371498 1_565
B3 O35 1.400010 1_554
B4 O8 1.370320 1_555
B4 O24 1.371498 1_455
B4 O34 1.400010 1_556
B5 O20 1.371478 1_555
B5 O29 1.372011 1_555
B5 O27 1.399273 1_555
B6 O19 1.371478 1_555
B6 O30 1.372011 1_555
B6 O28 1.399273 1_555
B7 O11 1.377151 1_555
B7 O3 1.388355 1_555
B7 O25 1.398071 1_655
B8 O12 1.377151 1_555
B8 O4 1.388355 1_555
B8 O26 1.398071 1_545
B9 O22 1.393940 1_555
B9 O21 1.393940 1_555
B9 O31 1.395368 1_465
B10 O15 1.379288 1_555
B10 O13 1.386936 1_555
B10 O5 1.398437 1_555
B11 O16 1.379288 1_555
B11 O14 1.386936 1_555
B11 O6 1.398437 1_555
