# generated using pymatgen
data_EuCuTeF
_symmetry_space_group_name_H-M   'P 1'
_cell_length_a   4.22379400
_cell_length_b   4.22379400
_cell_length_c   9.21090100
_cell_angle_alpha   90.00000000
_cell_angle_beta   90.00000000
_cell_angle_gamma   90.00000000
_symmetry_Int_Tables_number   1
_chemical_formula_structural   EuCuTeF
_chemical_formula_sum   'Eu2 Cu2 Te2 F2'
_cell_volume   164.32648753
_cell_formula_units_Z   2
loop_
 _symmetry_equiv_pos_site_id
 _symmetry_equiv_pos_as_xyz
  1  'x, y, z'
loop_
 _atom_site_type_symbol
 _atom_site_label
 _atom_site_symmetry_multiplicity
 _atom_site_fract_x
 _atom_site_fract_y
 _atom_site_fract_z
 _atom_site_occupancy
  Eu  Eu0  1  0.50000000  0.00000000  0.15289400  1
  Eu  Eu1  1  0.00000000  0.50000000  0.84710600  1
  Cu  Cu0  1  0.50000000  0.50000000  0.50000000  1
  Cu  Cu1  1  0.00000000  0.00000000  0.50000000  1
  Te  Te0  1  0.00000000  0.50000000  0.32232900  1
  Te  Te1  1  0.50000000  0.00000000  0.67767100  1
  F  F0  1  0.00000000  0.00000000  0.00000000  1
  F  F1  1  0.50000000  0.50000000  0.00000000  1
loop_
_geom_bond_atom_site_label_1
_geom_bond_atom_site_label_2
_geom_bond_distance
_geom_bond_site_symmetry_2
Eu0 F0 2.538384 1_555
Eu0 F1 2.538384 1_555
Eu0 F0 2.538384 1_655
Eu0 F1 2.538384 1_545
Eu0 Te0 3.369843 1_645
Eu0 Te0 3.369843 1_555
Eu0 Te0 3.369843 1_545
Eu0 Te0 3.369843 1_655
Eu1 F1 2.538384 1_556
Eu1 F0 2.538384 1_566
Eu1 F1 2.538384 1_456
Eu1 F0 2.538384 1_556
Eu1 Te1 3.369843 1_465
Eu1 Te1 3.369843 1_455
Eu1 Te1 3.369843 1_555
Eu1 Te1 3.369843 1_565
Cu0 Te0 2.671755 1_655
Cu0 Te0 2.671755 1_555
Cu0 Te1 2.671755 1_555
Cu0 Te1 2.671755 1_565
Cu1 Te0 2.671755 1_545
Cu1 Te1 2.671755 1_555
Cu1 Te1 2.671755 1_455
Cu1 Te0 2.671755 1_555
