# generated using pymatgen
data_K3Sn4Au
_symmetry_space_group_name_H-M   'P 1'
_cell_length_a   6.58506127
_cell_length_b   7.05066591
_cell_length_c   12.55221044
_cell_angle_alpha   90.00000000
_cell_angle_beta   90.00000000
_cell_angle_gamma   90.00000000
_symmetry_Int_Tables_number   1
_chemical_formula_structural   K3Sn4Au
_chemical_formula_sum   'K6 Sn8 Au2'
_cell_volume   582.78741966
_cell_formula_units_Z   2
loop_
 _symmetry_equiv_pos_site_id
 _symmetry_equiv_pos_as_xyz
  1  'x, y, z'
loop_
 _atom_site_type_symbol
 _atom_site_label
 _atom_site_symmetry_multiplicity
 _atom_site_fract_x
 _atom_site_fract_y
 _atom_site_fract_z
 _atom_site_occupancy
  K  K0  1  0.55923250  0.25000000  0.25000000  1
  K  K1  1  0.44076750  0.75000000  0.75000000  1
  K  K2  1  0.83055150  0.75000000  -0.00560908  1
  K  K3  1  0.83055150  0.75000000  0.50560908  1
  K  K4  1  0.16944850  0.25000000  0.00560908  1
  K  K5  1  0.16944850  0.25000000  0.49439092  1
  Sn  Sn0  1  0.33126014  0.75000000  0.12581983  1
  Sn  Sn1  1  0.33126014  0.75000000  0.37418017  1
  Sn  Sn2  1  0.03715462  0.52792476  0.25000000  1
  Sn  Sn3  1  0.03715462  0.97207524  0.25000000  1
  Sn  Sn4  1  0.96284538  0.02792476  0.75000000  1
  Sn  Sn5  1  0.96284538  0.47207524  0.75000000  1
  Sn  Sn6  1  0.66873986  0.25000000  0.62581983  1
  Sn  Sn7  1  0.66873986  0.25000000  0.87418017  1
  Au  Au0  1  0.68359722  0.75000000  0.25000000  1
  Au  Au1  1  0.31640278  0.25000000  0.75000000  1
loop_
_geom_bond_atom_site_label_1
_geom_bond_atom_site_label_2
_geom_bond_distance
_geom_bond_site_symmetry_2
K0 Sn3 3.707342 1_645
K0 Sn2 3.707342 1_655
K0 Sn2 3.957160 1_555
K0 Sn3 3.957160 1_545
K1 Sn5 3.707342 1_455
K1 Sn4 3.707342 1_465
K1 Sn5 3.957160 1_555
K1 Sn4 3.957160 1_565
K2 Sn0 3.678537 1_555
K2 Sn0 3.686882 1_655
K2 Sn5 3.742891 1_554
K2 Sn4 3.742891 1_564
K2 Sn3 3.820578 1_655
K2 Sn2 3.820578 1_655
K2 Sn7 3.979970 1_554
K2 Sn7 3.979970 1_564
K3 Sn1 3.678537 1_555
K3 Sn1 3.686882 1_655
K3 Sn4 3.742891 1_565
K3 Sn5 3.742891 1_555
K3 Sn2 3.820578 1_655
K3 Sn3 3.820578 1_655
K3 Sn6 3.979970 1_555
K3 Sn6 3.979970 1_565
K4 Sn7 3.678537 1_554
K4 Sn7 3.686882 1_454
K4 Sn3 3.742891 1_545
K4 Sn2 3.742891 1_555
K4 Sn5 3.820578 1_454
K4 Sn4 3.820578 1_454
K4 Sn0 3.979970 1_555
K4 Sn0 3.979970 1_545
K5 Sn6 3.678537 1_555
K5 Sn6 3.686882 1_455
K5 Sn3 3.742891 1_545
K5 Sn2 3.742891 1_555
K5 Sn4 3.820578 1_455
K5 Sn5 3.820578 1_455
K5 Sn1 3.979970 1_545
K5 Sn1 3.979970 1_555
Au0 Sn1 2.795140 1_555
Au0 Sn0 2.795140 1_555
Au0 Sn3 2.805738 1_655
Au0 Sn2 2.805738 1_655
Au0 K2 3.351217 1_555
Au0 K3 3.351217 1_555
Au0 K0 3.619206 1_565
Au0 K0 3.619206 1_555
Au1 Sn7 2.795140 1_555
Au1 Sn6 2.795140 1_555
Au1 Sn4 2.805738 1_455
Au1 Sn5 2.805738 1_455
Au1 K4 3.351217 1_556
Au1 K5 3.351217 1_555
Au1 K1 3.619206 1_545
Au1 K1 3.619206 1_555
