# generated using pymatgen
data_Tb2Pr2O5
_symmetry_space_group_name_H-M   'P 1'
_cell_length_a   4.39339300
_cell_length_b   4.39339300
_cell_length_c   7.88306600
_cell_angle_alpha   90.00000000
_cell_angle_beta   90.00000000
_cell_angle_gamma   90.00000000
_symmetry_Int_Tables_number   1
_chemical_formula_structural   Tb2Pr2O5
_chemical_formula_sum   'Tb2 Pr2 O5'
_cell_volume   152.15816780
_cell_formula_units_Z   1
loop_
 _symmetry_equiv_pos_site_id
 _symmetry_equiv_pos_as_xyz
  1  'x, y, z'
loop_
 _atom_site_type_symbol
 _atom_site_label
 _atom_site_symmetry_multiplicity
 _atom_site_fract_x
 _atom_site_fract_y
 _atom_site_fract_z
 _atom_site_occupancy
  Tb  Tb0  1  0.50000000  0.50000000  0.23089800  1
  Tb  Tb1  1  0.50000000  0.50000000  0.76910200  1
  Pr  Pr0  1  0.00000000  0.00000000  0.00000000  1
  Pr  Pr1  1  0.00000000  0.00000000  0.50000000  1
  O  O0  1  0.50000000  0.00000000  0.23970300  1
  O  O1  1  0.50000000  0.00000000  0.76029700  1
  O  O2  1  0.50000000  0.50000000  0.50000000  1
  O  O3  1  0.00000000  0.50000000  0.23970300  1
  O  O4  1  0.00000000  0.50000000  0.76029700  1
loop_
_geom_bond_atom_site_label_1
_geom_bond_atom_site_label_2
_geom_bond_distance
_geom_bond_site_symmetry_2
O0 Tb0 2.197793 1_555
O0 Tb0 2.197793 1_545
O0 Pr0 2.897593 1_555
O0 Pr0 2.897593 1_655
O0 Pr1 3.005982 1_555
O0 Pr1 3.005982 1_655
O1 Tb1 2.197793 1_545
O1 Tb1 2.197793 1_555
O1 Pr0 2.897593 1_556
O1 Pr0 2.897593 1_656
O1 Pr1 3.005982 1_555
O1 Pr1 3.005982 1_655
O2 Tb1 2.121349 1_555
O2 Tb0 2.121349 1_555
O2 Pr1 3.106598 1_555
O2 Pr1 3.106598 1_565
O2 Pr1 3.106598 1_665
O2 Pr1 3.106598 1_655
O3 Tb0 2.197793 1_555
O3 Tb0 2.197793 1_455
O3 Pr0 2.897593 1_555
O3 Pr0 2.897593 1_565
O3 Pr1 3.005982 1_555
O3 Pr1 3.005982 1_565
O4 Tb1 2.197793 1_455
O4 Tb1 2.197793 1_555
O4 Pr0 2.897593 1_556
O4 Pr0 2.897593 1_566
O4 Pr1 3.005982 1_555
O4 Pr1 3.005982 1_565
