# generated using pymatgen
data_Co2Hg2H3(SO5)2
_symmetry_space_group_name_H-M   'P 1'
_cell_length_a   6.41706200
_cell_length_b   11.25203900
_cell_length_c   13.37260800
_cell_angle_alpha   90.00000000
_cell_angle_beta   90.00000000
_cell_angle_gamma   90.00000000
_symmetry_Int_Tables_number   1
_chemical_formula_structural   Co2Hg2H3(SO5)2
_chemical_formula_sum   'Co8 Hg8 H12 S8 O40'
_cell_volume   965.56958708
_cell_formula_units_Z   4
loop_
 _symmetry_equiv_pos_site_id
 _symmetry_equiv_pos_as_xyz
  1  'x, y, z'
loop_
 _atom_site_type_symbol
 _atom_site_label
 _atom_site_symmetry_multiplicity
 _atom_site_fract_x
 _atom_site_fract_y
 _atom_site_fract_z
 _atom_site_occupancy
  Co  Co0  1  0.50506500  0.15688000  0.13345000  1
  Co  Co1  1  0.49493500  0.84312000  0.86655000  1
  Co  Co2  1  0.49493500  0.84312000  0.63345000  1
  Co  Co3  1  0.49493500  0.65688000  0.36655000  1
  Co  Co4  1  0.50506500  0.15688000  0.36655000  1
  Co  Co5  1  0.50506500  0.34312000  0.63345000  1
  Co  Co6  1  0.50506500  0.34312000  0.86655000  1
  Co  Co7  1  0.49493500  0.65688000  0.13345000  1
  Hg  Hg0  1  0.71200000  0.41165400  0.25000000  1
  Hg  Hg1  1  0.28800000  0.58834600  0.75000000  1
  Hg  Hg2  1  0.28800000  0.91165400  0.25000000  1
  Hg  Hg3  1  0.71200000  0.08834600  0.75000000  1
  Hg  Hg4  1  0.01332300  0.16385500  0.25000000  1
  Hg  Hg5  1  0.98667700  0.83614500  0.75000000  1
  Hg  Hg6  1  0.98667700  0.66385500  0.25000000  1
  Hg  Hg7  1  0.01332300  0.33614500  0.75000000  1
  H  H0  1  0.26449700  0.83190500  0.01529600  1
  H  H1  1  0.73550300  0.16809500  0.98470400  1
  H  H2  1  0.73550300  0.16809500  0.51529600  1
  H  H3  1  0.73550300  0.33190500  0.48470400  1
  H  H4  1  0.26449700  0.83190500  0.48470400  1
  H  H5  1  0.26449700  0.66809500  0.51529600  1
  H  H6  1  0.26449700  0.66809500  0.98470400  1
  H  H7  1  0.73550300  0.33190500  0.01529600  1
  H  H8  1  0.73559100  0.25000000  0.00000000  1
  H  H9  1  0.26440900  0.75000000  0.00000000  1
  H  H10  1  0.26440900  0.75000000  0.50000000  1
  H  H11  1  0.73559100  0.25000000  0.50000000  1
  S  S0  1  0.25178700  0.40472400  0.07966200  1
  S  S1  1  0.74821300  0.59527600  0.92033800  1
  S  S2  1  0.74821300  0.59527600  0.57966200  1
  S  S3  1  0.74821300  0.90472400  0.42033800  1
  S  S4  1  0.25178700  0.40472400  0.42033800  1
  S  S5  1  0.25178700  0.09527600  0.57966200  1
  S  S6  1  0.25178700  0.09527600  0.92033800  1
  S  S7  1  0.74821300  0.90472400  0.07966200  1
  O  O0  1  0.28382300  0.52737300  0.12262500  1
  O  O1  1  0.71617700  0.47262700  0.87737500  1
  O  O2  1  0.71617700  0.47262700  0.62262500  1
  O  O3  1  0.71617700  0.02737300  0.37737500  1
  O  O4  1  0.28382300  0.52737300  0.37737500  1
  O  O5  1  0.28382300  0.97262700  0.62262500  1
  O  O6  1  0.28382300  0.97262700  0.87737500  1
  O  O7  1  0.71617700  0.02737300  0.12262500  1
  O  O8  1  0.41940200  0.32707400  0.12643000  1
  O  O9  1  0.58059800  0.67292600  0.87357000  1
  O  O10  1  0.58059800  0.67292600  0.62643000  1
  O  O11  1  0.58059800  0.82707400  0.37357000  1
  O  O12  1  0.41940200  0.32707400  0.37357000  1
  O  O13  1  0.41940200  0.17292600  0.62643000  1
  O  O14  1  0.41940200  0.17292600  0.87357000  1
  O  O15  1  0.58059800  0.82707400  0.12643000  1
  O  O16  1  0.31987700  0.09879300  0.25000000  1
  O  O17  1  0.68012300  0.90120700  0.75000000  1
  O  O18  1  0.68012300  0.59879300  0.25000000  1
  O  O19  1  0.31987700  0.40120700  0.75000000  1
  O  O20  1  0.28024500  0.09333600  0.03026300  1
  O  O21  1  0.71975500  0.90666400  0.96973700  1
  O  O22  1  0.71975500  0.90666400  0.53026300  1
  O  O23  1  0.71975500  0.59333600  0.46973700  1
  O  O24  1  0.28024500  0.09333600  0.46973700  1
  O  O25  1  0.28024500  0.40666400  0.53026300  1
  O  O26  1  0.28024500  0.40666400  0.96973700  1
  O  O27  1  0.71975500  0.59333600  0.03026300  1
  O  O28  1  0.71029200  0.22507100  0.25000000  1
  O  O29  1  0.28970800  0.77492900  0.75000000  1
  O  O30  1  0.28970800  0.72507100  0.25000000  1
  O  O31  1  0.71029200  0.27492900  0.75000000  1
  O  O32  1  0.04514300  0.36228200  0.10970000  1
  O  O33  1  0.95485700  0.63771800  0.89030000  1
  O  O34  1  0.95485700  0.63771800  0.60970000  1
  O  O35  1  0.95485700  0.86228200  0.39030000  1
  O  O36  1  0.04514300  0.36228200  0.39030000  1
  O  O37  1  0.04514300  0.13771800  0.60970000  1
  O  O38  1  0.04514300  0.13771800  0.89030000  1
  O  O39  1  0.95485700  0.86228200  0.10970000  1
loop_
_geom_bond_atom_site_label_1
_geom_bond_atom_site_label_2
_geom_bond_distance
_geom_bond_site_symmetry_2
Co0 O8 1.994574 1_555
Co0 O7 1.994919 1_555
Co0 O16 2.066049 1_555
Co0 O20 2.120525 1_555
Co0 O28 2.179969 1_555
Co1 O9 1.994574 1_555
Co1 O6 1.994919 1_555
Co1 O17 2.066049 1_555
Co1 O21 2.120525 1_555
Co1 O29 2.179969 1_555
Co2 O10 1.994574 1_555
Co2 O5 1.994919 1_555
Co2 O17 2.066049 1_555
Co2 O22 2.120525 1_555
Co2 O29 2.179969 1_555
Co3 O11 1.994574 1_555
Co3 O4 1.994919 1_555
Co3 O18 2.066049 1_555
Co3 O23 2.120525 1_555
Co3 O30 2.179969 1_555
Co4 O12 1.994574 1_555
Co4 O3 1.994919 1_555
Co4 O16 2.066049 1_555
Co4 O24 2.120525 1_555
Co4 O28 2.179969 1_555
Co5 O13 1.994574 1_555
Co5 O2 1.994919 1_555
Co5 O19 2.066049 1_555
Co5 O25 2.120525 1_555
Co5 O31 2.179969 1_555
Co6 O14 1.994574 1_555
Co6 O1 1.994919 1_555
Co6 O19 2.066049 1_555
Co6 O26 2.120525 1_555
Co6 O31 2.179969 1_555
Co7 O15 1.994574 1_555
Co7 O0 1.994919 1_555
Co7 O18 2.066049 1_555
Co7 O27 2.120525 1_555
Co7 O30 2.179969 1_555
Hg0 O28 2.099468 1_555
Hg0 O18 2.115608 1_555
Hg1 O29 2.099468 1_555
Hg1 O19 2.115608 1_555
Hg2 O30 2.099468 1_555
Hg2 O16 2.115608 1_565
Hg3 O31 2.099468 1_555
Hg3 O17 2.115608 1_545
Hg4 O28 2.062959 1_455
Hg4 O16 2.098981 1_555
Hg5 O29 2.062959 1_655
Hg5 O17 2.098981 1_555
Hg6 O30 2.062959 1_655
Hg6 O18 2.098981 1_555
Hg7 O31 2.062959 1_455
Hg7 O19 2.098981 1_555
H0 H9 0.944025 1_555
H1 H8 0.944025 1_556
H6 H9 0.944025 1_556
H7 H8 0.944025 1_555
H10 H5 0.944025 1_555
H10 H4 0.944025 1_555
H11 H2 0.944025 1_555
H11 H3 0.944025 1_555
O0 S0 1.508935 1_555
O1 S1 1.508935 1_555
O2 S2 1.508935 1_555
O3 S3 1.508935 1_545
O4 S4 1.508935 1_555
O5 S5 1.508935 1_565
O6 S6 1.508935 1_565
O7 S7 1.508935 1_545
O8 S0 1.520340 1_555
O9 S1 1.520340 1_555
O10 S2 1.520340 1_555
O11 S3 1.520340 1_555
O12 S4 1.520340 1_555
O13 S5 1.520340 1_555
O14 S6 1.520340 1_555
O15 S7 1.520340 1_555
O20 S6 1.481445 1_554
O21 S7 1.481445 1_556
O22 S3 1.481445 1_555
O23 S2 1.481445 1_555
O24 S5 1.481445 1_555
O25 S4 1.481445 1_555
O26 S0 1.481445 1_556
O27 S1 1.481445 1_554
O32 S0 1.465543 1_555
O33 S1 1.465543 1_555
O34 S2 1.465543 1_555
O35 S3 1.465543 1_555
O36 S4 1.465543 1_555
O37 S5 1.465543 1_555
O38 S6 1.465543 1_555
O39 S7 1.465543 1_555
