# generated using pymatgen
data_Na3Li3Rh2F12
_symmetry_space_group_name_H-M   'P 1'
_cell_length_a   10.97738265
_cell_length_b   10.97738265
_cell_length_c   10.97738265
_cell_angle_alpha   109.47122063
_cell_angle_beta   109.47122063
_cell_angle_gamma   109.47122063
_symmetry_Int_Tables_number   1
_chemical_formula_structural   Na3Li3Rh2F12
_chemical_formula_sum   'Na12 Li12 Rh8 F48'
_cell_volume   1018.29712834
_cell_formula_units_Z   4
loop_
 _symmetry_equiv_pos_site_id
 _symmetry_equiv_pos_as_xyz
  1  'x, y, z'
loop_
 _atom_site_type_symbol
 _atom_site_label
 _atom_site_symmetry_multiplicity
 _atom_site_fract_x
 _atom_site_fract_y
 _atom_site_fract_z
 _atom_site_occupancy
  Na  Na0  1  0.87500000  0.62500000  0.75000000  1
  Na  Na1  1  0.12500000  0.37500000  0.25000000  1
  Na  Na2  1  0.62500000  0.87500000  0.25000000  1
  Na  Na3  1  0.62500000  0.75000000  0.87500000  1
  Na  Na4  1  0.87500000  0.25000000  0.62500000  1
  Na  Na5  1  0.37500000  0.12500000  0.75000000  1
  Na  Na6  1  0.37500000  0.25000000  0.12500000  1
  Na  Na7  1  0.12500000  0.75000000  0.37500000  1
  Na  Na8  1  0.75000000  0.87500000  0.62500000  1
  Na  Na9  1  0.25000000  0.12500000  0.37500000  1
  Na  Na10  1  0.25000000  0.62500000  0.87500000  1
  Na  Na11  1  0.75000000  0.37500000  0.12500000  1
  Li  Li0  1  0.62500000  0.37500000  0.75000000  1
  Li  Li1  1  0.37500000  0.62500000  0.25000000  1
  Li  Li2  1  0.87500000  0.12500000  0.25000000  1
  Li  Li3  1  0.37500000  0.75000000  0.62500000  1
  Li  Li4  1  0.62500000  0.25000000  0.37500000  1
  Li  Li5  1  0.12500000  0.87500000  0.75000000  1
  Li  Li6  1  0.12500000  0.25000000  0.87500000  1
  Li  Li7  1  0.87500000  0.75000000  0.12500000  1
  Li  Li8  1  0.75000000  0.62500000  0.37500000  1
  Li  Li9  1  0.25000000  0.37500000  0.62500000  1
  Li  Li10  1  0.25000000  0.87500000  0.12500000  1
  Li  Li11  1  0.75000000  0.12500000  0.87500000  1
  Rh  Rh0  1  0.00000000  0.00000000  0.00000000  1
  Rh  Rh1  1  0.50000000  0.00000000  0.50000000  1
  Rh  Rh2  1  0.50000000  0.50000000  0.00000000  1
  Rh  Rh3  1  0.00000000  0.00000000  0.50000000  1
  Rh  Rh4  1  0.00000000  0.50000000  0.50000000  1
  Rh  Rh5  1  0.50000000  0.50000000  0.50000000  1
  Rh  Rh6  1  0.50000000  0.00000000  0.00000000  1
  Rh  Rh7  1  0.00000000  0.50000000  0.00000000  1
  F  F0  1  0.69796088  0.61937071  0.52090193  1
  F  F1  1  0.30203912  0.38062929  0.47909807  1
  F  F2  1  0.80203912  0.82294104  0.42140983  1
  F  F3  1  0.40153122  0.88062929  0.07859017  1
  F  F4  1  0.61937071  0.52090193  0.69796088  1
  F  F5  1  0.69796088  0.07859017  0.67705896  1
  F  F6  1  0.19796088  0.17705896  0.57859017  1
  F  F7  1  0.59846878  0.11937071  0.92140983  1
  F  F8  1  0.38062929  0.47909807  0.30203912  1
  F  F9  1  0.30203912  0.92140983  0.32294104  1
  F  F10  1  0.09846878  0.67705896  0.97909807  1
  F  F11  1  0.82294104  0.42140983  0.80203912  1
  F  F12  1  0.80203912  0.97909807  0.88062929  1
  F  F13  1  0.90153122  0.32294104  0.02090193  1
  F  F14  1  0.17705896  0.57859017  0.19796088  1
  F  F15  1  0.19796088  0.02090193  0.11937071  1
  F  F16  1  0.88062929  0.07859017  0.40153122  1
  F  F17  1  0.40153122  0.52090193  0.82294104  1
  F  F18  1  0.11937071  0.92140983  0.59846878  1
  F  F19  1  0.59846878  0.47909807  0.17705896  1
  F  F20  1  0.67705896  0.97909807  0.09846878  1
  F  F21  1  0.09846878  0.42140983  0.61937071  1
  F  F22  1  0.32294104  0.02090193  0.90153122  1
  F  F23  1  0.90153122  0.57859017  0.38062929  1
  F  F24  1  0.52090193  0.69796088  0.61937071  1
  F  F25  1  0.61937071  0.09846878  0.42140983  1
  F  F26  1  0.47909807  0.30203912  0.38062929  1
  F  F27  1  0.38062929  0.90153122  0.57859017  1
  F  F28  1  0.07859017  0.40153122  0.88062929  1
  F  F29  1  0.88062929  0.80203912  0.97909807  1
  F  F30  1  0.92140983  0.59846878  0.11937071  1
  F  F31  1  0.11937071  0.19796088  0.02090193  1
  F  F32  1  0.97909807  0.09846878  0.67705896  1
  F  F33  1  0.67705896  0.69796088  0.07859017  1
  F  F34  1  0.02090193  0.90153122  0.32294104  1
  F  F35  1  0.32294104  0.30203912  0.92140983  1
  F  F36  1  0.42140983  0.80203912  0.82294104  1
  F  F37  1  0.82294104  0.40153122  0.52090193  1
  F  F38  1  0.57859017  0.19796088  0.17705896  1
  F  F39  1  0.17705896  0.59846878  0.47909807  1
  F  F40  1  0.07859017  0.67705896  0.69796088  1
  F  F41  1  0.92140983  0.32294104  0.30203912  1
  F  F42  1  0.97909807  0.88062929  0.80203912  1
  F  F43  1  0.02090193  0.11937071  0.19796088  1
  F  F44  1  0.42140983  0.61937071  0.09846878  1
  F  F45  1  0.57859017  0.38062929  0.90153122  1
  F  F46  1  0.52090193  0.82294104  0.40153122  1
  F  F47  1  0.47909807  0.17705896  0.59846878  1
loop_
_geom_bond_atom_site_label_1
_geom_bond_atom_site_label_2
_geom_bond_distance
_geom_bond_site_symmetry_2
F0 Li8 1.883545 1_555
F0 Rh5 2.015151 1_555
F0 Na8 2.421764 1_555
F0 Na0 2.581360 1_555
F1 Li9 1.883545 1_555
F1 Rh5 2.015151 1_555
F1 Na9 2.421764 1_555
F1 Na1 2.581360 1_555
F2 Li8 1.883545 1_555
F2 Rh3 2.015151 1_665
F2 Na8 2.421764 1_555
F2 Na2 2.581360 1_555
F3 Li10 1.883545 1_555
F3 Rh6 2.015151 1_565
F3 Na10 2.421764 1_554
F3 Na2 2.581360 1_555
F4 Li0 1.883545 1_555
F4 Rh5 2.015151 1_555
F4 Na0 2.421764 1_555
F4 Na3 2.581360 1_555
F5 Li11 1.883545 1_555
F5 Rh1 2.015151 1_555
F5 Na8 2.421764 1_545
F5 Na4 2.581360 1_555
F6 Li9 1.883545 1_555
F6 Rh3 2.015151 1_555
F6 Na9 2.421764 1_555
F6 Na5 2.581360 1_555
F7 Li11 1.883545 1_555
F7 Rh6 2.015151 1_556
F7 Na11 2.421764 1_556
F7 Na5 2.581360 1_555
F8 Li1 1.883545 1_555
F8 Rh5 2.015151 1_555
F8 Na1 2.421764 1_555
F8 Na6 2.581360 1_555
F9 Li10 1.883545 1_555
F9 Rh1 2.015151 1_565
F9 Na9 2.421764 1_565
F9 Na7 2.581360 1_555
F10 Li10 1.883545 1_556
F10 Rh7 2.015151 1_556
F10 Na10 2.421764 1_555
F10 Na0 2.581360 1_455
F11 Li0 1.883545 1_555
F11 Rh7 2.015151 1_656
F11 Na0 2.421764 1_555
F11 Na4 2.581360 1_555
F12 Li11 1.883545 1_565
F12 Rh0 2.015151 1_666
F12 Na8 2.421764 1_555
F12 Na3 2.581360 1_555
F13 Li11 1.883545 1_554
F13 Rh7 2.015151 1_655
F13 Na11 2.421764 1_555
F13 Na1 2.581360 1_655
F14 Li1 1.883545 1_555
F14 Rh7 2.015151 1_555
F14 Na1 2.421764 1_555
F14 Na7 2.581360 1_555
F15 Li10 1.883545 1_545
F15 Rh0 2.015151 1_555
F15 Na9 2.421764 1_555
F15 Na6 2.581360 1_555
F16 Li2 1.883545 1_555
F16 Rh3 2.015151 1_655
F16 Na2 2.421764 1_545
F16 Na4 2.581360 1_555
F17 Li9 1.883545 1_555
F17 Rh2 2.015151 1_556
F17 Na10 2.421764 1_555
F17 Na3 2.581360 1_555
F18 Li5 1.883545 1_555
F18 Rh3 2.015151 1_565
F18 Na5 2.421764 1_565
F18 Na7 2.581360 1_555
F19 Li8 1.883545 1_555
F19 Rh2 2.015151 1_555
F19 Na11 2.421764 1_555
F19 Na6 2.581360 1_555
F20 Li2 1.883545 1_565
F20 Rh6 2.015151 1_565
F20 Na2 2.421764 1_555
F20 Na3 2.581360 1_554
F21 Li9 1.883545 1_555
F21 Rh4 2.015151 1_555
F21 Na10 2.421764 1_555
F21 Na4 2.581360 1_455
F22 Li5 1.883545 1_545
F22 Rh6 2.015151 1_556
F22 Na5 2.421764 1_555
F22 Na6 2.581360 1_556
F23 Li8 1.883545 1_555
F23 Rh4 2.015151 1_655
F23 Na11 2.421764 1_555
F23 Na7 2.581360 1_655
F24 Li3 1.883545 1_555
F24 Rh5 2.015151 1_555
F24 Na3 2.421764 1_555
F24 Na8 2.581360 1_555
F25 Li4 1.883545 1_555
F25 Rh1 2.015151 1_555
F25 Na4 2.421764 1_555
F25 Na2 2.581360 1_545
F26 Li4 1.883545 1_555
F26 Rh5 2.015151 1_555
F26 Na6 2.421764 1_555
F26 Na9 2.581360 1_555
F27 Li3 1.883545 1_555
F27 Rh1 2.015151 1_565
F27 Na7 2.421764 1_555
F27 Na5 2.581360 1_565
F28 Li6 1.883545 1_555
F28 Rh7 2.015151 1_556
F28 Na4 2.421764 1_455
F28 Na10 2.581360 1_555
F29 Li7 1.883545 1_556
F29 Rh0 2.015151 1_666
F29 Na3 2.421764 1_555
F29 Na0 2.581360 1_555
F30 Li7 1.883545 1_555
F30 Rh7 2.015151 1_655
F30 Na7 2.421764 1_655
F30 Na11 2.581360 1_555
F31 Li6 1.883545 1_554
F31 Rh0 2.015151 1_555
F31 Na6 2.421764 1_555
F31 Na1 2.581360 1_555
F32 Li6 1.883545 1_655
F32 Rh3 2.015151 1_655
F32 Na4 2.421764 1_555
F32 Na8 2.581360 1_545
F33 Li7 1.883545 1_555
F33 Rh2 2.015151 1_555
F33 Na3 2.421764 1_554
F33 Na2 2.581360 1_555
F34 Li7 1.883545 1_455
F34 Rh3 2.015151 1_565
F34 Na7 2.421764 1_555
F34 Na9 2.581360 1_565
F35 Li6 1.883545 1_555
F35 Rh2 2.015151 1_556
F35 Na6 2.421764 1_556
F35 Na5 2.581360 1_555
F36 Li3 1.883545 1_555
F36 Rh6 2.015151 1_566
F36 Na3 2.421764 1_555
F36 Na10 2.581360 1_555
F37 Li4 1.883545 1_555
F37 Rh4 2.015151 1_655
F37 Na4 2.421764 1_555
F37 Na0 2.581360 1_555
F38 Li4 1.883545 1_555
F38 Rh6 2.015151 1_555
F38 Na6 2.421764 1_555
F38 Na11 2.581360 1_555
F39 Li3 1.883545 1_555
F39 Rh4 2.015151 1_555
F39 Na7 2.421764 1_555
F39 Na1 2.581360 1_555
F40 Li5 1.883545 1_555
F40 Rh4 2.015151 1_555
F40 Na0 2.421764 1_455
F40 Na10 2.581360 1_555
F41 Li2 1.883545 1_555
F41 Rh4 2.015151 1_655
F41 Na1 2.421764 1_655
F41 Na11 2.581360 1_555
F42 Li5 1.883545 1_655
F42 Rh0 2.015151 1_666
F42 Na0 2.421764 1_555
F42 Na8 2.581360 1_555
F43 Li2 1.883545 1_455
F43 Rh0 2.015151 1_555
F43 Na1 2.421764 1_555
F43 Na9 2.581360 1_555
F44 Li1 1.883545 1_555
F44 Rh2 2.015151 1_555
F44 Na2 2.421764 1_555
F44 Na10 2.581360 1_554
F45 Li0 1.883545 1_555
F45 Rh2 2.015151 1_556
F45 Na5 2.421764 1_555
F45 Na11 2.581360 1_556
F46 Li1 1.883545 1_555
F46 Rh1 2.015151 1_565
F46 Na2 2.421764 1_555
F46 Na8 2.581360 1_555
F47 Li0 1.883545 1_555
F47 Rh1 2.015151 1_555
F47 Na5 2.421764 1_555
F47 Na9 2.581360 1_555
