# generated using pymatgen
data_Cs3Rb5(SeO4)4
_symmetry_space_group_name_H-M   'P 1'
_cell_length_a   6.42281200
_cell_length_b   8.37181042
_cell_length_c   11.19787457
_cell_angle_alpha   90.03647125
_cell_angle_beta   90.00000000
_cell_angle_gamma   90.00000000
_symmetry_Int_Tables_number   1
_chemical_formula_structural   Cs3Rb5(SeO4)4
_chemical_formula_sum   'Cs3 Rb5 Se4 O16'
_cell_volume   602.11591417
_cell_formula_units_Z   1
loop_
 _symmetry_equiv_pos_site_id
 _symmetry_equiv_pos_as_xyz
  1  'x, y, z'
loop_
 _atom_site_type_symbol
 _atom_site_label
 _atom_site_symmetry_multiplicity
 _atom_site_fract_x
 _atom_site_fract_y
 _atom_site_fract_z
 _atom_site_occupancy
  Cs  Cs0  1  0.75000000  0.32720300  0.58895400  1
  Cs  Cs1  1  0.75000000  0.82732600  0.91114900  1
  Cs  Cs2  1  0.25000000  0.67278300  0.41102600  1
  Rb  Rb0  1  0.25000000  0.17513400  0.08791300  1
  Rb  Rb1  1  0.75000000  0.50682500  0.20572300  1
  Rb  Rb2  1  0.75000000  0.00708400  0.29404900  1
  Rb  Rb3  1  0.25000000  0.49286300  0.79436400  1
  Rb  Rb4  1  0.25000000  0.99303000  0.70591000  1
  Se  Se0  1  0.75000000  0.27133600  0.92055000  1
  Se  Se1  1  0.75000000  0.77157400  0.58008800  1
  Se  Se2  1  0.25000000  0.72808500  0.08008900  1
  Se  Se3  1  0.25000000  0.22821200  0.41944600  1
  O  O0  1  0.75000000  0.47113000  0.91899500  1
  O  O1  1  0.75000000  0.97138800  0.58108300  1
  O  O2  1  0.25000000  0.52803400  0.08109700  1
  O  O3  1  0.25000000  0.02846300  0.41889100  1
  O  O4  1  0.75000000  0.20285300  0.06191700  1
  O  O5  1  0.75000000  0.70312800  0.43872000  1
  O  O6  1  0.25000000  0.79696600  0.93888300  1
  O  O7  1  0.25000000  0.29685500  0.56084700  1
  O  O8  1  0.96454800  0.20344300  0.85094500  1
  O  O9  1  0.53613500  0.70365300  0.65009800  1
  O  O10  1  0.46357600  0.79683300  0.15004200  1
  O  O11  1  0.03638000  0.29593500  0.34906900  1
  O  O12  1  0.03642400  0.79683300  0.15004200  1
  O  O13  1  0.46362000  0.29593500  0.34906900  1
  O  O14  1  0.53545200  0.20344300  0.85094500  1
  O  O15  1  0.96386500  0.70365300  0.65009800  1
loop_
_geom_bond_atom_site_label_1
_geom_bond_atom_site_label_2
_geom_bond_distance
_geom_bond_site_symmetry_2
Cs0 O1 2.980063 1_545
Cs0 O7 3.236763 1_655
Cs0 O7 3.236763 1_555
Cs0 O13 3.265972 1_555
Cs0 O11 3.265972 1_655
Cs0 O8 3.403395 1_555
Cs0 O14 3.403395 1_555
Cs0 O15 3.505031 1_555
Cs0 O9 3.505031 1_555
Cs0 O5 3.569534 1_555
Cs1 O0 2.983355 1_555
Cs1 O6 3.236399 1_655
Cs1 O6 3.236399 1_555
Cs1 O10 3.256757 1_556
Cs1 O12 3.256757 1_656
Cs1 O15 3.391186 1_555
Cs1 O9 3.391186 1_555
Cs1 O8 3.502984 1_565
Cs1 O14 3.502984 1_565
Cs1 O4 3.567530 1_566
Cs2 O3 2.978932 1_565
Cs2 O5 3.236315 1_455
Cs2 O5 3.236315 1_555
Cs2 O9 3.257337 1_555
Cs2 O15 3.257337 1_455
Cs2 O12 3.391891 1_555
Cs2 O10 3.391891 1_555
Cs2 O11 3.509194 1_555
Cs2 O13 3.509194 1_555
Cs2 O7 3.567377 1_555
O0 Se0 1.672739 1_555
O0 Rb1 3.224431 1_556
O0 Rb3 3.506317 1_655
O0 Rb3 3.506317 1_555
O1 Se1 1.672835 1_555
O1 Rb2 3.228223 1_565
O1 Rb4 3.507060 1_655
O1 Rb4 3.507060 1_555
O2 Se2 1.674834 1_555
O2 Rb0 2.955446 1_555
O2 Rb3 3.224086 1_554
O2 Rb1 3.506069 1_455
O2 Rb1 3.506069 1_555
O3 Se3 1.672268 1_555
O3 Rb4 3.227851 1_545
O3 Rb2 3.507014 1_455
O3 Rb2 3.507014 1_555
O4 Se0 1.683977 1_554
O4 Rb1 3.010632 1_555
O4 Rb2 3.073817 1_555
O4 Rb0 3.232925 1_555
O4 Rb0 3.232925 1_655
O5 Se1 1.683196 1_555
O5 Rb2 3.017446 1_565
O5 Rb1 3.082628 1_555
O6 Se2 1.683423 1_556
O6 Rb3 3.015831 1_555
O6 Rb4 3.083104 1_555
O6 Rb0 3.577915 1_566
O7 Se3 1.684105 1_555
O7 Rb4 3.018882 1_545
O7 Rb3 3.086243 1_555
O8 Se0 1.681932 1_555
O8 Rb4 3.016354 1_645
O8 Rb3 3.104117 1_655
O8 Rb0 3.234131 1_656
O9 Se1 1.680867 1_555
O9 Rb3 3.017450 1_555
O9 Rb4 3.104059 1_555
O10 Se2 1.681070 1_555
O10 Rb2 3.013191 1_565
O10 Rb1 3.109607 1_555
O10 Rb0 3.521198 1_565
O11 Se3 1.680944 1_555
O11 Rb1 3.013394 1_455
O11 Rb2 3.099786 1_455
O11 Rb0 3.384313 1_555
O12 Se2 1.681070 1_555
O12 Rb2 3.013191 1_465
O12 Rb1 3.109607 1_455
O12 Rb0 3.521198 1_565
O13 Se3 1.680944 1_555
O13 Rb1 3.013394 1_555
O13 Rb2 3.099786 1_555
O13 Rb0 3.384313 1_555
O14 Se0 1.681932 1_555
O14 Rb4 3.016354 1_545
O14 Rb3 3.104117 1_555
O14 Rb0 3.234131 1_556
O15 Se1 1.680867 1_555
O15 Rb3 3.017450 1_655
O15 Rb4 3.104059 1_655
