# generated using pymatgen
data_LaTh4OF19
_symmetry_space_group_name_H-M   'P 1'
_cell_length_a   8.19557466
_cell_length_b   7.29070706
_cell_length_c   12.14766283
_cell_angle_alpha   72.51501180
_cell_angle_beta   90.00000000
_cell_angle_gamma   90.00000000
_symmetry_Int_Tables_number   1
_chemical_formula_structural   LaTh4OF19
_chemical_formula_sum   'La2 Th8 O2 F38'
_cell_volume   692.30449454
_cell_formula_units_Z   2
loop_
 _symmetry_equiv_pos_site_id
 _symmetry_equiv_pos_as_xyz
  1  'x, y, z'
loop_
 _atom_site_type_symbol
 _atom_site_label
 _atom_site_symmetry_multiplicity
 _atom_site_fract_x
 _atom_site_fract_y
 _atom_site_fract_z
 _atom_site_occupancy
  La  La0  1  0.25000000  0.30039389  0.38189574  1
  La  La1  1  0.75000000  0.69960611  0.61810426  1
  Th  Th0  1  0.75000000  0.65169913  0.00000112  1
  Th  Th1  1  0.25000000  0.34830087  -0.00000112  1
  Th  Th2  1  0.00038039  0.86398266  0.27495640  1
  Th  Th3  1  0.49961961  0.86398266  0.27495640  1
  Th  Th4  1  -0.00038039  0.13601734  0.72504360  1
  Th  Th5  1  0.50038039  0.13601734  0.72504360  1
  Th  Th6  1  0.75000000  0.31742878  0.38529202  1
  Th  Th7  1  0.25000000  0.68257122  0.61470798  1
  O  O0  1  0.25000000  0.72935756  0.99925086  1
  O  O1  1  0.75000000  0.27064244  0.00074914  1
  F  F0  1  0.25000000  0.98020158  0.33699665  1
  F  F1  1  0.75000000  0.68777885  0.34612795  1
  F  F2  1  0.75000000  0.01979842  0.66300335  1
  F  F3  1  0.25000000  0.31222115  0.65387205  1
  F  F4  1  0.25000000  0.57040962  0.45645377  1
  F  F5  1  0.75000000  0.98947668  0.45426235  1
  F  F6  1  0.75000000  0.42959038  0.54354623  1
  F  F7  1  0.25000000  0.01052332  0.54573765  1
  F  F8  1  0.25000000  0.74848360  0.22316578  1
  F  F9  1  0.75000000  0.02412172  0.21605712  1
  F  F10  1  0.75000000  0.25151640  0.77683422  1
  F  F11  1  0.25000000  0.97587828  0.78394288  1
  F  F12  1  0.91791614  0.77236988  0.11895895  1
  F  F13  1  0.08323026  0.10422055  0.11529009  1
  F  F14  1  0.58208386  0.77236988  0.11895895  1
  F  F15  1  0.41676974  0.10422055  0.11529009  1
  F  F16  1  0.08208386  0.22763012  0.88104105  1
  F  F17  1  0.91676974  0.89577945  0.88470991  1
  F  F18  1  0.41791614  0.22763012  0.88104105  1
  F  F19  1  0.58323026  0.89577945  0.88470991  1
  F  F20  1  0.99331364  0.23025929  0.52013740  1
  F  F21  1  0.50668636  0.23025929  0.52013740  1
  F  F22  1  0.00668636  0.76974071  0.47986260  1
  F  F23  1  0.49331364  0.76974071  0.47986260  1
  F  F24  1  -0.00000000  0.50000000  -0.00000000  1
  F  F25  1  0.50000000  0.50000000  -0.00000000  1
  F  F26  1  0.75000000  0.61177209  0.81955793  1
  F  F27  1  0.25000000  0.56995157  0.81138882  1
  F  F28  1  0.25000000  0.38822791  0.18044207  1
  F  F29  1  0.75000000  0.43004843  0.18861118  1
  F  F30  1  0.00143539  0.51293619  0.32931796  1
  F  F31  1  0.98321434  0.16571854  0.32076744  1
  F  F32  1  0.49856461  0.51293619  0.32931796  1
  F  F33  1  0.51678566  0.16571854  0.32076744  1
  F  F34  1  0.99856461  0.48706381  0.67068204  1
  F  F35  1  0.01678566  0.83428146  0.67923256  1
  F  F36  1  0.50143539  0.48706381  0.67068204  1
  F  F37  1  0.48321434  0.83428146  0.67923256  1
loop_
_geom_bond_atom_site_label_1
_geom_bond_atom_site_label_2
_geom_bond_distance
_geom_bond_site_symmetry_2
O0 Th1 2.775456 1_556
O1 Th0 2.775456 1_555
F0 Th2 2.419681 1_555
F0 Th3 2.419681 1_555
F0 La0 2.551890 1_565
F1 Th2 2.437446 1_655
F1 Th3 2.437446 1_555
F1 Th6 2.597120 1_555
F2 Th4 2.419681 1_655
F2 Th5 2.419681 1_555
F2 La1 2.551890 1_545
F3 Th5 2.437446 1_555
F3 Th4 2.437446 1_555
F3 Th7 2.597120 1_555
F4 Th7 2.304136 1_555
F4 La0 2.401484 1_555
F5 Th6 2.283654 1_565
F5 La1 2.428994 1_555
F6 Th6 2.304136 1_555
F6 La1 2.401484 1_555
F7 Th7 2.283654 1_545
F7 La0 2.428994 1_555
F8 Th2 2.368215 1_555
F8 Th3 2.368215 1_555
F9 Th2 2.363011 1_645
F9 Th3 2.363011 1_545
F10 Th5 2.368215 1_555
F10 Th4 2.368215 1_655
F11 Th4 2.363011 1_565
F11 Th5 2.363011 1_565
F12 Th2 2.292271 1_655
F12 Th0 2.349468 1_555
F13 Th2 2.291147 1_545
F13 Th1 2.344907 1_555
F14 Th3 2.292271 1_555
F14 Th0 2.349468 1_555
F15 Th3 2.291147 1_545
F15 Th1 2.344907 1_555
F16 Th4 2.292271 1_555
F16 Th1 2.349468 1_556
F17 Th4 2.291147 1_665
F17 Th0 2.344907 1_556
F18 Th5 2.292271 1_555
F18 Th1 2.349468 1_556
F19 Th5 2.291147 1_565
F19 Th0 2.344907 1_556
F20 Th4 2.375463 1_655
F20 Th6 2.537316 1_555
F20 La0 2.644065 1_655
F21 Th5 2.375463 1_555
F21 Th6 2.537316 1_555
F21 La0 2.644065 1_555
F22 Th2 2.375463 1_555
F22 Th7 2.537316 1_555
F22 La1 2.644065 1_455
F23 Th3 2.375463 1_555
F23 Th7 2.537316 1_555
F23 La1 2.644065 1_555
F24 Th1 2.328346 1_555
F24 Th0 2.328346 1_455
F25 Th0 2.328346 1_555
F25 Th1 2.328346 1_555
F26 Th0 2.296272 1_556
F26 La1 2.336049 1_555
F27 Th7 2.281157 1_555
F27 Th1 2.374028 1_556
F28 Th1 2.296272 1_555
F28 La0 2.336049 1_555
F29 Th6 2.281157 1_555
F29 Th0 2.374028 1_555
F30 Th2 2.443553 1_555
F30 Th6 2.481526 1_455
F30 La0 2.522758 1_555
F31 Th2 2.429928 1_645
F31 Th6 2.451921 1_555
F31 La0 2.595041 1_655
F32 Th3 2.443553 1_555
F32 Th6 2.481526 1_555
F32 La0 2.522758 1_555
F33 Th3 2.429928 1_545
F33 Th6 2.451921 1_555
F33 La0 2.595041 1_555
F34 Th4 2.443553 1_655
F34 Th7 2.481526 1_655
F34 La1 2.522758 1_555
F35 Th4 2.429928 1_565
F35 Th7 2.451921 1_555
F35 La1 2.595041 1_455
F36 Th5 2.443553 1_555
F36 Th7 2.481526 1_555
F36 La1 2.522758 1_555
F37 Th5 2.429928 1_565
F37 Th7 2.451921 1_555
F37 La1 2.595041 1_555
