# generated using pymatgen
data_BaMg6Mn
_symmetry_space_group_name_H-M   'P 1'
_cell_length_a   5.16986300
_cell_length_b   6.87112700
_cell_length_c   11.84228300
_cell_angle_alpha   90.00000000
_cell_angle_beta   90.00000000
_cell_angle_gamma   90.00000000
_symmetry_Int_Tables_number   1
_chemical_formula_structural   BaMg6Mn
_chemical_formula_sum   'Ba2 Mg12 Mn2'
_cell_volume   420.67087583
_cell_formula_units_Z   2
loop_
 _symmetry_equiv_pos_site_id
 _symmetry_equiv_pos_as_xyz
  1  'x, y, z'
loop_
 _atom_site_type_symbol
 _atom_site_label
 _atom_site_symmetry_multiplicity
 _atom_site_fract_x
 _atom_site_fract_y
 _atom_site_fract_z
 _atom_site_occupancy
  Ba  Ba0  1  0.50000000  0.50000000  0.17023600  1
  Ba  Ba1  1  0.50000000  0.00000000  0.67023600  1
  Mg  Mg0  1  0.00000000  0.22275700  0.07098800  1
  Mg  Mg1  1  0.00000000  0.77724300  0.07098800  1
  Mg  Mg2  1  0.00000000  0.50000000  0.83399800  1
  Mg  Mg3  1  0.50000000  0.23262400  0.91842400  1
  Mg  Mg4  1  0.50000000  0.76737600  0.91842400  1
  Mg  Mg5  1  0.50000000  0.50000000  0.66128400  1
  Mg  Mg6  1  0.00000000  0.72275700  0.57098800  1
  Mg  Mg7  1  0.00000000  0.27724300  0.57098800  1
  Mg  Mg8  1  0.00000000  0.00000000  0.33399800  1
  Mg  Mg9  1  0.50000000  0.73262400  0.41842400  1
  Mg  Mg10  1  0.50000000  0.26737600  0.41842400  1
  Mg  Mg11  1  0.50000000  0.00000000  0.16128400  1
  Mn  Mn0  1  0.00000000  0.50000000  0.35565900  1
  Mn  Mn1  1  0.00000000  0.00000000  0.85565900  1
loop_
_geom_bond_atom_site_label_1
_geom_bond_atom_site_label_2
_geom_bond_distance
_geom_bond_site_symmetry_2
Ba0 Mg9 3.345628 1_555
Ba0 Mg10 3.345628 1_555
Ba0 Mn0 3.391688 1_555
Ba0 Mn0 3.391688 1_655
Ba0 Mg1 3.419382 1_555
Ba0 Mg1 3.419382 1_655
Ba0 Mg0 3.419382 1_655
Ba0 Mg0 3.419382 1_555
Ba0 Mg11 3.437199 1_565
Ba0 Mg11 3.437199 1_555
Ba0 Mg4 3.502529 1_554
Ba0 Mg3 3.502529 1_554
Ba1 Mg3 3.345628 1_555
Ba1 Mg4 3.345628 1_545
Ba1 Mn1 3.391688 1_555
Ba1 Mn1 3.391688 1_655
Ba1 Mg7 3.419382 1_555
Ba1 Mg7 3.419382 1_655
Ba1 Mg6 3.419382 1_545
Ba1 Mg6 3.419382 1_645
Ba1 Mg5 3.437199 1_555
Ba1 Mg5 3.437199 1_545
Ba1 Mg10 3.502529 1_555
Ba1 Mg9 3.502529 1_545
Mg0 Mn1 2.974079 1_554
Mg0 Mg1 3.061183 1_545
Mg0 Mg3 3.154466 1_454
Mg0 Mg3 3.154466 1_554
Mg0 Mg11 3.188731 1_555
Mg0 Mg11 3.188731 1_455
Mg0 Mg2 3.391957 1_554
Mg0 Mg8 3.470401 1_555
Mg1 Mn1 2.974079 1_564
Mg1 Mg4 3.154466 1_554
Mg1 Mg4 3.154466 1_454
Mg1 Mg11 3.188731 1_465
Mg1 Mg11 3.188731 1_565
Mg1 Mg2 3.391957 1_554
Mg1 Mg8 3.470401 1_565
Mg2 Mg5 3.296246 1_555
Mg2 Mg5 3.296246 1_455
Mg2 Mg4 3.325158 1_455
Mg2 Mg4 3.325158 1_555
Mg2 Mg3 3.325158 1_555
Mg2 Mg3 3.325158 1_455
Mg2 Mn1 3.445127 1_555
Mg2 Mn1 3.445127 1_565
Mg2 Mg6 3.470401 1_555
Mg2 Mg7 3.470401 1_555
Mg3 Mn1 3.128767 1_555
Mg3 Mn1 3.128767 1_655
Mg3 Mg4 3.196778 1_545
Mg4 Mn1 3.128767 1_665
Mg4 Mn1 3.128767 1_565
Mg5 Mg6 3.188731 1_655
Mg5 Mg6 3.188731 1_555
Mg5 Mg7 3.188731 1_555
Mg5 Mg7 3.188731 1_655
Mg5 Mg9 3.290337 1_555
Mg6 Mn0 2.974079 1_555
Mg6 Mg7 3.061183 1_555
Mg6 Mg9 3.154466 1_455
Mg6 Mg9 3.154466 1_555
Mg6 Mg8 3.391957 1_565
Mg7 Mn0 2.974079 1_555
Mg7 Mg8 3.391957 1_555
Mg8 Mg9 3.325158 1_545
Mg8 Mg9 3.325158 1_445
Mg8 Mn0 3.445127 1_545
Mg8 Mn0 3.445127 1_555
Mg9 Mn0 3.128767 1_555
Mg9 Mn0 3.128767 1_655
Mg10 Mn0 3.128767 1_555
Mg10 Mn0 3.128767 1_655
Mg10 Mg7 3.154466 1_655
Mg10 Mg7 3.154466 1_555
Mg10 Mg9 3.196778 1_555
Mg10 Mg5 3.290337 1_555
Mg10 Mg8 3.325158 1_555
Mg10 Mg8 3.325158 1_655
Mg11 Mg3 3.290337 1_554
Mg11 Mg4 3.290337 1_544
Mg11 Mg8 3.296246 1_555
Mg11 Mg8 3.296246 1_655
