# generated using pymatgen
data_ScAlAu
_symmetry_space_group_name_H-M   'P 1'
_cell_length_a   7.24506582
_cell_length_b   7.24506582
_cell_length_c   7.47163700
_cell_angle_alpha   90.00000000
_cell_angle_beta   90.00000000
_cell_angle_gamma   119.99999835
_symmetry_Int_Tables_number   1
_chemical_formula_structural   ScAlAu
_chemical_formula_sum   'Sc6 Al6 Au6'
_cell_volume   339.64957349
_cell_formula_units_Z   6
loop_
 _symmetry_equiv_pos_site_id
 _symmetry_equiv_pos_as_xyz
  1  'x, y, z'
loop_
 _atom_site_type_symbol
 _atom_site_label
 _atom_site_symmetry_multiplicity
 _atom_site_fract_x
 _atom_site_fract_y
 _atom_site_fract_z
 _atom_site_occupancy
  Sc  Sc0  1  0.58999100  0.98582800  0.75000000  1
  Sc  Sc1  1  0.01417200  0.60416300  0.75000000  1
  Sc  Sc2  1  0.39583700  0.41000900  0.75000000  1
  Sc  Sc3  1  0.98582800  0.58999100  0.25000000  1
  Sc  Sc4  1  0.60416300  0.01417200  0.25000000  1
  Sc  Sc5  1  0.41000900  0.39583700  0.25000000  1
  Al  Al0  1  0.73996900  0.73996900  0.00000000  1
  Al  Al1  1  0.26003100  0.00000000  0.00000000  1
  Al  Al2  1  0.00000000  0.26003100  0.00000000  1
  Al  Al3  1  0.73996900  0.73996900  0.50000000  1
  Al  Al4  1  0.26003100  0.00000000  0.50000000  1
  Al  Al5  1  0.00000000  0.26003100  0.50000000  1
  Au  Au0  1  0.00000000  0.00000000  0.75000000  1
  Au  Au1  1  0.00000000  0.00000000  0.25000000  1
  Au  Au2  1  0.66666700  0.33333300  0.98050700  1
  Au  Au3  1  0.66666700  0.33333300  0.51949300  1
  Au  Au4  1  0.33333300  0.66666700  0.48050700  1
  Au  Au5  1  0.33333300  0.66666700  0.01949300  1
loop_
_geom_bond_atom_site_label_1
_geom_bond_atom_site_label_2
_geom_bond_distance
_geom_bond_site_symmetry_2
Al0 Au0 2.652984 1_664
Al0 Au1 2.652984 1_665
Al0 Au2 2.723633 1_554
Al0 Au5 2.723633 1_555
Al1 Au0 2.652983 1_554
Al1 Au1 2.652983 1_555
Al1 Au5 2.723626 1_545
Al1 Au2 2.723631 1_554
Al2 Au0 2.652983 1_554
Al2 Au1 2.652983 1_555
Al2 Au2 2.723626 1_454
Al2 Au5 2.723631 1_555
Al3 Au0 2.652984 1_665
Al3 Au1 2.652984 1_665
Al3 Au3 2.723633 1_555
Al3 Au4 2.723633 1_555
Al4 Au1 2.652983 1_555
Al4 Au0 2.652983 1_555
Al4 Au4 2.723626 1_545
Al4 Au3 2.723631 1_555
Al5 Au1 2.652983 1_555
Al5 Au0 2.652983 1_555
Al5 Au3 2.723626 1_455
Al5 Au4 2.723631 1_555
Au0 Sc1 2.920558 1_545
Au0 Sc0 2.920558 1_445
Au0 Sc2 2.920558 1_555
Au1 Sc4 2.920558 1_455
Au1 Sc3 2.920558 1_445
Au1 Sc5 2.920558 1_555
Au2 Sc0 2.866175 1_545
Au2 Sc1 2.866177 1_655
Au2 Sc2 2.866181 1_555
Au2 Sc4 2.925622 1_556
Au2 Sc3 2.925623 1_556
Au2 Sc5 2.925627 1_556
Au3 Sc0 2.866175 1_545
Au3 Sc1 2.866177 1_655
Au3 Sc2 2.866181 1_555
Au3 Sc4 2.925622 1_555
Au3 Sc3 2.925623 1_555
Au3 Sc5 2.925627 1_555
Au4 Sc3 2.866175 1_455
Au4 Sc4 2.866177 1_565
Au4 Sc5 2.866181 1_555
Au4 Sc1 2.925622 1_555
Au4 Sc0 2.925623 1_555
Au4 Sc2 2.925627 1_555
Au5 Sc3 2.866175 1_455
Au5 Sc4 2.866177 1_565
Au5 Sc5 2.866181 1_555
Au5 Sc1 2.925622 1_554
Au5 Sc0 2.925623 1_554
Au5 Sc2 2.925627 1_554
