# generated using pymatgen
data_TaVO5
_symmetry_space_group_name_H-M   'P 1'
_cell_length_a   5.56260230
_cell_length_b   6.99029015
_cell_length_c   11.91395344
_cell_angle_alpha   90.00000000
_cell_angle_beta   90.00000000
_cell_angle_gamma   90.00000000
_symmetry_Int_Tables_number   1
_chemical_formula_structural   TaVO5
_chemical_formula_sum   'Ta4 V4 O20'
_cell_volume   463.26459679
_cell_formula_units_Z   4
loop_
 _symmetry_equiv_pos_site_id
 _symmetry_equiv_pos_as_xyz
  1  'x, y, z'
loop_
 _atom_site_type_symbol
 _atom_site_label
 _atom_site_symmetry_multiplicity
 _atom_site_fract_x
 _atom_site_fract_y
 _atom_site_fract_z
 _atom_site_occupancy
  Ta  Ta0  1  0.25000000  0.15728603  0.55860484  1
  Ta  Ta1  1  0.75000000  0.84271397  0.44139516  1
  Ta  Ta2  1  0.75000000  0.65728603  0.94139516  1
  Ta  Ta3  1  0.25000000  0.34271397  0.05860484  1
  V  V0  1  0.25000000  0.96991035  0.84559203  1
  V  V1  1  0.75000000  0.03008965  0.15440797  1
  V  V2  1  0.75000000  0.46991035  0.65440797  1
  V  V3  1  0.25000000  0.53008965  0.34559203  1
  O  O0  1  0.25000000  0.17775793  0.92282322  1
  O  O1  1  0.75000000  0.82224207  0.07717678  1
  O  O2  1  0.75000000  0.67775793  0.57717678  1
  O  O3  1  0.25000000  0.32224207  0.42282322  1
  O  O4  1  0.25000000  0.02652309  0.70429787  1
  O  O5  1  0.75000000  0.97347691  0.29570213  1
  O  O6  1  0.75000000  0.52652309  0.79570213  1
  O  O7  1  0.25000000  0.47347691  0.20429787  1
  O  O8  1  0.00000000  0.50000000  0.00000000  1
  O  O9  1  0.50000000  0.50000000  0.00000000  1
  O  O10  1  0.00000000  0.00000000  0.50000000  1
  O  O11  1  0.50000000  0.00000000  0.50000000  1
  O  O12  1  0.00064867  0.15872943  0.12384314  1
  O  O13  1  0.50064867  0.84127057  0.87615686  1
  O  O14  1  -0.00064867  0.65872943  0.37615686  1
  O  O15  1  0.49935133  0.34127057  0.62384314  1
  O  O16  1  -0.00064867  0.84127057  0.87615686  1
  O  O17  1  0.49935133  0.15872943  0.12384314  1
  O  O18  1  0.00064867  0.34127057  0.62384314  1
  O  O19  1  0.50064867  0.65872943  0.37615686  1
loop_
_geom_bond_atom_site_label_1
_geom_bond_atom_site_label_2
_geom_bond_distance
_geom_bond_site_symmetry_2
O0 V0 1.719767 1_545
O0 Ta3 1.986595 1_556
O1 V1 1.719767 1_565
O1 Ta2 1.986595 1_554
O2 V2 1.719767 1_555
O2 Ta1 1.986595 1_555
O3 V3 1.719767 1_555
O3 Ta0 1.986595 1_555
O4 V0 1.729263 1_545
O4 Ta0 1.961749 1_555
O5 V1 1.729263 1_565
O5 Ta1 1.961749 1_555
O6 V2 1.729263 1_555
O6 Ta2 1.961749 1_555
O7 V3 1.729263 1_555
O7 Ta3 1.961749 1_555
O8 Ta2 1.905324 1_454
O8 Ta3 1.905324 1_555
O9 Ta2 1.905324 1_554
O9 Ta3 1.905324 1_555
O10 Ta0 1.905324 1_555
O10 Ta1 1.905324 1_445
O11 Ta1 1.905324 1_545
O11 Ta0 1.905324 1_555
O12 V1 1.698580 1_455
O12 Ta3 2.045010 1_555
O13 V0 1.698580 1_555
O13 Ta2 2.045010 1_555
O14 V3 1.698580 1_555
O14 Ta1 2.045010 1_455
O15 V2 1.698580 1_555
O15 Ta0 2.045010 1_555
O16 V0 1.698580 1_555
O16 Ta2 2.045010 1_455
O17 V1 1.698580 1_555
O17 Ta3 2.045010 1_555
O18 V2 1.698580 1_455
O18 Ta0 2.045010 1_555
O19 V3 1.698580 1_555
O19 Ta1 2.045010 1_555
