# generated using pymatgen
data_Ti4AlGe7
_symmetry_space_group_name_H-M   'P 1'
_cell_length_a   14.41409895
_cell_length_b   14.41409895
_cell_length_c   14.41409895
_cell_angle_alpha   165.25442773
_cell_angle_beta   165.25442773
_cell_angle_gamma   20.91176183
_symmetry_Int_Tables_number   1
_chemical_formula_structural   Ti4AlGe7
_chemical_formula_sum   'Ti4 Al1 Ge7'
_cell_volume   193.98585831
_cell_formula_units_Z   1
loop_
 _symmetry_equiv_pos_site_id
 _symmetry_equiv_pos_as_xyz
  1  'x, y, z'
loop_
 _atom_site_type_symbol
 _atom_site_label
 _atom_site_symmetry_multiplicity
 _atom_site_fract_x
 _atom_site_fract_y
 _atom_site_fract_z
 _atom_site_occupancy
  Ti  Ti0  1  0.82526800  0.82526800  0.00000000  1
  Ti  Ti1  1  0.07293000  0.57293000  0.50000000  1
  Ti  Ti2  1  0.42707000  0.92707000  0.50000000  1
  Ti  Ti3  1  0.17473200  0.17473200  0.00000000  1
  Al  Al0  1  0.25000000  0.75000000  0.50000000  1
  Ge  Ge0  1  0.65878600  0.65878600  0.00000000  1
  Ge  Ge1  1  0.90636600  0.40636600  0.50000000  1
  Ge  Ge2  1  0.59363400  0.09363400  0.50000000  1
  Ge  Ge3  1  0.34121400  0.34121400  0.00000000  1
  Ge  Ge4  1  0.50000000  0.50000000  0.00000000  1
  Ge  Ge5  1  0.75000000  0.25000000  0.50000000  1
  Ge  Ge6  1  0.00000000  0.00000000  0.00000000  1
loop_
_geom_bond_atom_site_label_1
_geom_bond_atom_site_label_2
_geom_bond_distance
_geom_bond_site_symmetry_2
Al0 Ge5 2.615847 1_555
Al0 Ge5 2.615847 1_454
Al0 Ge5 2.615847 1_465
Al0 Ge5 2.615847 1_566
Al0 Ti3 2.823911 1_566
Al0 Ti0 2.823911 1_455
Al0 Ti0 2.823911 1_556
Al0 Ti3 2.823911 1_555
Ge0 Ge2 2.613969 1_565
Ge0 Ge2 2.613969 1_554
Ge0 Ti3 2.654621 1_554
Ge0 Ti3 2.654621 1_565
Ge0 Ti3 2.654621 1_655
Ge0 Ti3 2.654621 1_666
Ge0 Ti1 3.057051 1_554
Ge0 Ti1 3.057051 1_655
Ge1 Ge3 2.613969 1_656
Ge1 Ge3 2.613969 1_555
Ge1 Ti2 2.680888 1_544
Ge1 Ti2 2.680888 1_656
Ge1 Ti2 2.680888 1_645
Ge1 Ti2 2.680888 1_555
Ge1 Ti0 2.950785 1_556
Ge1 Ti0 2.950785 1_545
Ge2 Ti1 2.680888 1_555
Ge2 Ti1 2.680888 1_544
Ge2 Ti1 2.680888 1_645
Ge2 Ti1 2.680888 1_656
Ge2 Ti3 2.950785 1_555
Ge2 Ti3 2.950785 1_656
Ge3 Ti0 2.654621 1_444
Ge3 Ti0 2.654621 1_556
Ge3 Ti0 2.654621 1_545
Ge3 Ti0 2.654621 1_455
Ge3 Ti2 3.057051 1_544
Ge3 Ti2 3.057051 1_555
Ge4 Ge6 2.615847 1_666
Ge4 Ge6 2.615847 1_554
Ge4 Ge6 2.615847 1_565
Ge4 Ge6 2.615847 1_655
Ge4 Ti2 2.774167 1_544
Ge4 Ti2 2.774167 1_555
Ge4 Ti1 2.774167 1_655
Ge4 Ti1 2.774167 1_554
Ge5 Ti3 2.823911 1_656
Ge5 Ti3 2.823911 1_555
Ge5 Ti0 2.823911 1_545
Ge5 Ti0 2.823911 1_556
Ge6 Ti2 2.774167 1_444
Ge6 Ti2 2.774167 1_545
Ge6 Ti1 2.774167 1_544
Ge6 Ti1 2.774167 1_555
