# generated using pymatgen
data_Rb2Y2(PO4)3
_symmetry_space_group_name_H-M   'P 1'
_cell_length_a   10.65481725
_cell_length_b   10.65484299
_cell_length_c   10.65476520
_cell_angle_alpha   89.99856799
_cell_angle_beta   90.00133103
_cell_angle_gamma   89.99923162
_symmetry_Int_Tables_number   1
_chemical_formula_structural   Rb2Y2(PO4)3
_chemical_formula_sum   'Rb8 Y8 P12 O48'
_cell_volume   1209.58653289
_cell_formula_units_Z   4
loop_
 _symmetry_equiv_pos_site_id
 _symmetry_equiv_pos_as_xyz
  1  'x, y, z'
loop_
 _atom_site_type_symbol
 _atom_site_label
 _atom_site_symmetry_multiplicity
 _atom_site_fract_x
 _atom_site_fract_y
 _atom_site_fract_z
 _atom_site_occupancy
  Rb  Rb0  1  0.04639492  0.04638731  0.04641815  1
  Rb  Rb1  1  0.45357905  0.95357075  0.54637892  1
  Rb  Rb2  1  0.95361623  0.54641027  0.45363755  1
  Rb  Rb3  1  0.54642058  0.45362384  0.95357587  1
  Rb  Rb4  1  0.81805964  0.81801284  0.81796583  1
  Rb  Rb5  1  0.68199378  0.18196474  0.31810110  1
  Rb  Rb6  1  0.18194757  0.31802562  0.68191290  1
  Rb  Rb7  1  0.31801051  0.68198301  0.18204305  1
  Y  Y0  1  0.60130509  0.60130794  0.60129976  1
  Y  Y1  1  0.89871191  0.39871864  0.10130264  1
  Y  Y2  1  0.39868233  0.10127463  0.89870990  1
  Y  Y3  1  0.10126095  0.89871864  0.39870862  1
  Y  Y4  1  0.33380881  0.33380481  0.33381728  1
  Y  Y5  1  0.16616441  0.66618942  0.83383605  1
  Y  Y6  1  0.66614302  0.83384802  0.16616707  1
  Y  Y7  1  0.83383624  0.16614644  0.66615261  1
  P  P0  1  0.01613812  0.21644978  0.37469689  1
  P  P1  1  0.48387078  0.78353618  0.87464004  1
  P  P2  1  0.98386514  0.71645513  0.12534095  1
  P  P3  1  0.37465309  0.01612528  0.21647330  1
  P  P4  1  0.51614333  0.28355991  0.62532291  1
  P  P5  1  0.87467645  0.48385313  0.78353085  1
  P  P6  1  0.12533145  0.98386114  0.71643329  1
  P  P7  1  0.62532727  0.51614935  0.28357001  1
  P  P8  1  0.21644103  0.37466817  0.01612690  1
  P  P9  1  0.71647945  0.12532483  0.98386056  1
  P  P10  1  0.28354327  0.62534131  0.51613525  1
  P  P11  1  0.78355195  0.87466683  0.48387316  1
  O  O0  1  0.14986465  0.26090834  0.40190785  1
  O  O1  1  0.35015192  0.73907260  0.90184255  1
  O  O2  1  0.85014028  0.76091862  0.09812788  1
  O  O3  1  0.40186144  0.14983914  0.26095851  1
  O  O4  1  0.64987250  0.23909351  0.59810670  1
  O  O5  1  0.90188837  0.35013528  0.73907752  1
  O  O6  1  0.09813692  0.85014002  0.76090205  1
  O  O7  1  0.59812965  0.64988211  0.23910876  1
  O  O8  1  0.26089846  0.40187804  0.14985584  1
  O  O9  1  0.76093887  0.09811306  0.85013771  1
  O  O10  1  0.23908189  0.59812667  0.64985363  1
  O  O11  1  0.73909808  0.90186363  0.35013844  1
  O  O12  1  0.04517316  0.80071957  0.22402195  1
  O  O13  1  0.45483458  0.19926545  0.72400113  1
  O  O14  1  0.95485123  0.30071210  0.27598405  1
  O  O15  1  0.22402533  0.04515976  0.80069237  1
  O  O16  1  0.54518476  0.69930114  0.77595389  1
  O  O17  1  0.72401570  0.45484800  0.19928976  1
  O  O18  1  0.27596614  0.95482306  0.30072541  1
  O  O19  1  0.77598074  0.54516161  0.69927209  1
  O  O20  1  0.80071601  0.22401255  0.04515423  1
  O  O21  1  0.30069696  0.27597250  0.95483538  1
  O  O22  1  0.69928709  0.77598582  0.54517909  1
  O  O23  1  0.19927563  0.72403729  0.45483128  1
  O  O24  1  0.01808747  0.08010994  0.32890375  1
  O  O25  1  0.48189601  0.91989301  0.82885056  1
  O  O26  1  0.98192587  0.58011442  0.17115836  1
  O  O27  1  0.32886048  0.01810502  0.08011891  1
  O  O28  1  0.51808688  0.41989824  0.67113631  1
  O  O29  1  0.82886578  0.48192032  0.91988051  1
  O  O30  1  0.17113523  0.98192259  0.58009154  1
  O  O31  1  0.67114977  0.51806921  0.41990293  1
  O  O32  1  0.08008354  0.32886335  0.01808112  1
  O  O33  1  0.58012386  0.17112935  0.98190467  1
  O  O34  1  0.41989431  0.67112794  0.51808191  1
  O  O35  1  0.91991262  0.82885885  0.48194845  1
  O  O36  1  0.27343129  0.50549193  0.43733985  1
  O  O37  1  0.22651974  0.49451829  0.93734308  1
  O  O38  1  0.72654897  0.00549162  0.06267872  1
  O  O39  1  0.43735526  0.27347406  0.50547310  1
  O  O40  1  0.77346311  0.99452050  0.56265051  1
  O  O41  1  0.93733733  0.22654912  0.49451759  1
  O  O42  1  0.06265876  0.72654324  0.00548830  1
  O  O43  1  0.56266071  0.77345365  0.99449463  1
  O  O44  1  0.50547987  0.43736230  0.27346351  1
  O  O45  1  0.00548326  0.06264836  0.72650495  1
  O  O46  1  0.99451423  0.56265782  0.77343183  1
  O  O47  1  0.49449891  0.93732906  0.22656537  1
loop_
_geom_bond_atom_site_label_1
_geom_bond_atom_site_label_2
_geom_bond_distance
_geom_bond_site_symmetry_2
O0 P0 1.529248 1_555
O0 Y4 2.229541 1_555
O0 Rb6 3.063963 1_555
O1 P1 1.529179 1_555
O1 Y5 2.229589 1_555
O1 Rb7 3.065988 1_556
O2 P2 1.529236 1_555
O2 Y6 2.229976 1_555
O2 Rb4 3.065509 1_554
O3 P3 1.529218 1_555
O3 Y4 2.229471 1_555
O3 Rb5 3.065386 1_555
O4 P4 1.529311 1_555
O4 Y7 2.229709 1_555
O4 Rb5 3.064053 1_555
O5 P5 1.529156 1_555
O5 Y7 2.229937 1_555
O5 Rb6 3.064673 1_655
O6 P6 1.529190 1_555
O6 Y5 2.229476 1_555
O6 Rb4 3.064674 1_455
O7 P7 1.529276 1_555
O7 Y6 2.229628 1_555
O7 Rb7 3.065045 1_555
O8 P8 1.529255 1_555
O8 Y4 2.229634 1_555
O8 Rb7 3.065140 1_555
O9 P9 1.529223 1_555
O9 Y7 2.229707 1_555
O9 Rb4 3.065079 1_545
O10 P10 1.529180 1_555
O10 Y5 2.229884 1_555
O10 Rb6 3.064981 1_555
O11 P11 1.529259 1_555
O11 Y6 2.229732 1_555
O11 Rb5 3.064873 1_565
O12 P2 1.529155 1_455
O12 Y3 2.216238 1_555
O12 Rb7 3.201782 1_555
O12 Rb0 3.229922 1_565
O13 P4 1.529315 1_555
O13 Y2 2.216559 1_555
O13 Rb6 3.202497 1_555
O13 Rb1 3.230348 1_545
O14 P0 1.529237 1_655
O14 Y1 2.216325 1_555
O14 Rb5 3.202250 1_555
O14 Rb2 3.230572 1_555
O15 P6 1.529164 1_545
O15 Y2 2.216126 1_555
O15 Rb6 3.202352 1_555
O15 Rb0 3.230654 1_556
O16 P1 1.529046 1_555
O16 Y0 2.216026 1_555
O16 Rb4 3.202102 1_555
O16 Rb3 3.230118 1_555
O17 P7 1.529286 1_555
O17 Y1 2.216393 1_555
O17 Rb5 3.202590 1_555
O17 Rb3 3.230260 1_554
O18 P3 1.529096 1_565
O18 Y3 2.216382 1_555
O18 Rb7 3.201709 1_555
O18 Rb1 3.229850 1_555
O19 P5 1.529189 1_555
O19 Y0 2.216129 1_555
O19 Rb4 3.201920 1_555
O19 Rb2 3.229898 1_555
O20 P9 1.528967 1_554
O20 Y1 2.216583 1_555
O20 Rb5 3.202891 1_555
O20 Rb0 3.230175 1_655
O21 P8 1.529138 1_556
O21 Y2 2.216380 1_555
O21 Rb6 3.202719 1_555
O21 Rb3 3.230765 1_555
O22 P11 1.529146 1_555
O22 Y0 2.216169 1_555
O22 Rb4 3.201489 1_555
O22 Rb1 3.230173 1_555
O23 P10 1.529230 1_555
O23 Y3 2.216333 1_555
O23 Rb7 3.201434 1_555
O23 Rb2 3.230056 1_455
O24 P0 1.532581 1_555
O24 Y3 2.252484 1_545
O24 Rb0 3.046173 1_555
O25 P1 1.532721 1_555
O25 Y2 2.252801 1_565
O25 Rb1 3.045948 1_555
O26 P2 1.532648 1_555
O26 Y1 2.252926 1_555
O26 Rb2 3.046068 1_555
O27 P3 1.532699 1_555
O27 Y2 2.252712 1_554
O27 Rb0 3.045894 1_555
O28 P4 1.532634 1_555
O28 Y0 2.252985 1_555
O28 Rb3 3.045707 1_555
O29 P5 1.532727 1_555
O29 Y1 2.253014 1_556
O29 Rb3 3.045712 1_555
O30 P6 1.532626 1_555
O30 Y3 2.252810 1_555
O30 Rb1 3.045771 1_555
O31 P7 1.532576 1_555
O31 Y0 2.253001 1_555
O31 Rb2 3.046017 1_555
O32 P8 1.532793 1_555
O32 Y1 2.252728 1_455
O32 Rb0 3.046065 1_555
O33 P9 1.532760 1_555
O33 Y2 2.253235 1_555
O33 Rb3 3.046258 1_555
O34 P10 1.532664 1_555
O34 Y0 2.252897 1_555
O34 Rb1 3.045681 1_555
O35 P11 1.532819 1_555
O35 Y3 2.252610 1_655
O35 Rb2 3.045772 1_555
O36 P10 1.532047 1_555
O36 Y4 2.230900 1_555
O36 Rb7 3.340771 1_555
O36 Rb6 3.424950 1_555
O36 Rb2 3.439733 1_455
O37 P8 1.531929 1_556
O37 Y5 2.230551 1_555
O37 Rb6 3.341986 1_555
O37 Rb7 3.426033 1_556
O37 Rb3 3.440562 1_555
O38 P9 1.531967 1_554
O38 Y6 2.230396 1_545
O38 Rb5 3.341786 1_555
O38 Rb4 3.426304 1_544
O38 Rb0 3.440019 1_655
O39 P4 1.531952 1_555
O39 Y4 2.230540 1_555
O39 Rb6 3.341450 1_555
O39 Rb5 3.425028 1_555
O39 Rb1 3.440603 1_545
O40 P11 1.531963 1_555
O40 Y7 2.230244 1_565
O40 Rb4 3.341033 1_555
O40 Rb5 3.424528 1_565
O40 Rb1 3.440493 1_555
O41 P0 1.531809 1_655
O41 Y7 2.230391 1_555
O41 Rb5 3.340743 1_555
O41 Rb6 3.424793 1_655
O41 Rb2 3.440159 1_555
O42 P2 1.532040 1_455
O42 Y5 2.230433 1_554
O42 Rb7 3.341583 1_555
O42 Rb4 3.425424 1_454
O42 Rb0 3.440055 1_565
O43 P1 1.531997 1_555
O43 Y6 2.230577 1_556
O43 Rb4 3.341916 1_555
O43 Rb7 3.426093 1_556
O43 Rb3 3.439880 1_555
O44 P7 1.531969 1_555
O44 Y4 2.230864 1_555
O44 Rb5 3.341874 1_555
O44 Rb7 3.425135 1_555
O44 Rb3 3.440501 1_554
O45 P6 1.531936 1_545
O45 Y7 2.230288 1_455
O45 Rb6 3.341384 1_555
O45 Rb4 3.425161 1_445
O45 Rb0 3.440710 1_556
O46 P5 1.531982 1_555
O46 Y5 2.230692 1_655
O46 Rb4 3.341024 1_555
O46 Rb6 3.425367 1_655
O46 Rb2 3.439438 1_555
O47 P3 1.531976 1_565
O47 Y6 2.230354 1_555
O47 Rb7 3.341159 1_555
O47 Rb5 3.425843 1_565
O47 Rb1 3.439688 1_555
