# generated using pymatgen
data_RbV5S8
_symmetry_space_group_name_H-M   'P 1'
_cell_length_a   3.29232500
_cell_length_b   8.54594060
_cell_length_c   9.04992224
_cell_angle_alpha   104.09384506
_cell_angle_beta   100.48033407
_cell_angle_gamma   90.00000000
_symmetry_Int_Tables_number   1
_chemical_formula_structural   RbV5S8
_chemical_formula_sum   'Rb1 V5 S8'
_cell_volume   242.58189823
_cell_formula_units_Z   1
loop_
 _symmetry_equiv_pos_site_id
 _symmetry_equiv_pos_as_xyz
  1  'x, y, z'
loop_
 _atom_site_type_symbol
 _atom_site_label
 _atom_site_symmetry_multiplicity
 _atom_site_fract_x
 _atom_site_fract_y
 _atom_site_fract_z
 _atom_site_occupancy
  Rb  Rb0  1  0.50000000  0.00000000  0.00000000  1
  V  V0  1  0.00000000  0.50000000  0.00000000  1
  V  V1  1  0.28908000  0.14420800  0.57816100  1
  V  V2  1  0.71092000  0.85579200  0.42183900  1
  V  V3  1  0.35099800  0.50213500  0.70199500  1
  V  V4  1  0.64900200  0.49786500  0.29800500  1
  S  S0  1  0.16250000  0.00041500  0.32500000  1
  S  S1  1  0.83750000  0.99958500  0.67500000  1
  S  S2  1  0.23923100  0.65991700  0.47846200  1
  S  S3  1  0.76076900  0.34008300  0.52153800  1
  S  S4  1  0.08673800  0.32238600  0.17347600  1
  S  S5  1  0.91326200  0.67761400  0.82652400  1
  S  S6  1  0.42602900  0.32305600  0.85205700  1
  S  S7  1  0.57397100  0.67694400  0.14794300  1
loop_
_geom_bond_atom_site_label_1
_geom_bond_atom_site_label_2
_geom_bond_distance
_geom_bond_site_symmetry_2
Rb0 S5 3.252233 1_444
Rb0 S4 3.252233 1_655
Rb0 S5 3.252233 1_544
Rb0 S4 3.252233 1_555
Rb0 S1 3.327064 1_444
Rb0 S0 3.327064 1_655
Rb0 S1 3.327065 1_544
Rb0 S0 3.327065 1_555
Rb0 S7 3.340000 1_545
Rb0 S6 3.340000 1_554
S0 V1 2.283487 1_555
S0 V2 2.346818 1_445
S0 V2 2.346820 1_545
S1 V2 2.283487 1_555
S1 V1 2.346818 1_665
S1 V1 2.346820 1_565
S2 V4 2.470851 1_555
S2 V4 2.470854 1_455
S2 V2 2.486678 1_455
S2 V2 2.486680 1_555
S2 V3 2.665256 1_555
S3 V3 2.470851 1_555
S3 V3 2.470854 1_655
S3 V1 2.486678 1_655
S3 V1 2.486680 1_555
S3 V4 2.665256 1_555
S4 V4 2.315968 1_555
S4 V4 2.315971 1_455
S4 V0 2.418201 1_555
S5 V3 2.315968 1_555
S5 V3 2.315971 1_655
S5 V0 2.418201 1_656
S6 V3 2.266628 1_555
S6 V0 2.396603 1_656
S6 V0 2.396605 1_556
S6 V1 2.536103 1_555
S7 V4 2.266628 1_555
S7 V0 2.396603 1_555
S7 V0 2.396605 1_655
S7 V2 2.536103 1_555
