# generated using pymatgen
data_DyTh2
_symmetry_space_group_name_H-M   'P 1'
_cell_length_a   7.15586507
_cell_length_b   7.15586507
_cell_length_c   17.42179912
_cell_angle_alpha   90.00000000
_cell_angle_beta   90.00000000
_cell_angle_gamma   120.00000254
_symmetry_Int_Tables_number   1
_chemical_formula_structural   DyTh2
_chemical_formula_sum   'Dy8 Th16'
_cell_volume   772.58791220
_cell_formula_units_Z   8
loop_
 _symmetry_equiv_pos_site_id
 _symmetry_equiv_pos_as_xyz
  1  'x, y, z'
loop_
 _atom_site_type_symbol
 _atom_site_label
 _atom_site_symmetry_multiplicity
 _atom_site_fract_x
 _atom_site_fract_y
 _atom_site_fract_z
 _atom_site_occupancy
  Dy  Dy0_0  1  0.00000000  0.00000000  0.00000000  1
  Dy  Dy0_1  1  0.00000000  0.00000000  0.50000000  1
  Dy  Dy0_2  1  0.00000000  0.50000000  0.00000000  1
  Dy  Dy0_3  1  0.00000000  0.50000000  0.50000000  1
  Dy  Dy0_4  1  0.50000000  0.00000000  0.00000000  1
  Dy  Dy0_5  1  0.50000000  0.00000000  0.50000000  1
  Dy  Dy0_6  1  0.50000000  0.50000000  0.00000000  1
  Dy  Dy0_7  1  0.50000000  0.50000000  0.50000000  1
  Th  Th0_0  1  0.16666650  0.33333350  0.33155319  1
  Th  Th0_1  1  0.16666650  0.33333350  0.83155319  1
  Th  Th0_2  1  0.16666650  0.83333350  0.33155319  1
  Th  Th0_3  1  0.16666650  0.83333350  0.83155319  1
  Th  Th0_4  1  0.66666650  0.33333350  0.33155319  1
  Th  Th0_5  1  0.66666650  0.33333350  0.83155319  1
  Th  Th0_6  1  0.66666650  0.83333350  0.33155319  1
  Th  Th0_7  1  0.66666650  0.83333350  0.83155319  1
  Th  Th1_0  1  0.33333350  0.16666650  0.16844681  1
  Th  Th1_1  1  0.33333350  0.16666650  0.66844681  1
  Th  Th1_2  1  0.33333350  0.66666650  0.16844681  1
  Th  Th1_3  1  0.33333350  0.66666650  0.66844681  1
  Th  Th1_4  1  0.83333350  0.16666650  0.16844681  1
  Th  Th1_5  1  0.83333350  0.16666650  0.66844681  1
  Th  Th1_6  1  0.83333350  0.66666650  0.16844681  1
  Th  Th1_7  1  0.83333350  0.66666650  0.66844681  1
loop_
_geom_bond_atom_site_label_1
_geom_bond_atom_site_label_2
_geom_bond_distance
_geom_bond_site_symmetry_2
Dy0_0 Dy0_6 3.577932 1_445
Dy0_0 Dy0_6 3.577932 1_555
Dy0_0 Dy0_4 3.577933 1_555
Dy0_0 Dy0_2 3.577933 1_555
Dy0_0 Dy0_2 3.577933 1_545
Dy0_0 Dy0_4 3.577933 1_455
Dy0_0 Th1_4 3.588780 1_455
Dy0_0 Th0_3 3.588780 1_544
Dy0_0 Th1_0 3.588782 1_555
Dy0_0 Th1_6 3.588782 1_445
Dy0_0 Th0_1 3.588782 1_554
Dy0_0 Th0_7 3.588782 1_444
Dy0_1 Dy0_7 3.577932 1_555
Dy0_1 Dy0_7 3.577932 1_445
Dy0_1 Dy0_5 3.577933 1_555
Dy0_1 Dy0_3 3.577933 1_555
Dy0_1 Dy0_3 3.577933 1_545
Dy0_1 Dy0_5 3.577933 1_455
Dy0_1 Th1_5 3.588780 1_455
Dy0_1 Th0_2 3.588780 1_545
Dy0_1 Th1_1 3.588782 1_555
Dy0_1 Th1_7 3.588782 1_445
Dy0_1 Th0_0 3.588782 1_555
Dy0_1 Th0_6 3.588782 1_445
Dy0_2 Dy0_4 3.577932 1_565
Dy0_2 Dy0_4 3.577932 1_455
Dy0_2 Dy0_6 3.577933 1_555
Dy0_2 Dy0_6 3.577933 1_455
Dy0_2 Th1_6 3.588780 1_455
Dy0_2 Th0_1 3.588780 1_554
Dy0_2 Th1_2 3.588782 1_555
Dy0_2 Th1_4 3.588782 1_455
Dy0_2 Th0_5 3.588782 1_454
Dy0_2 Th0_3 3.588782 1_554
Dy0_3 Dy0_5 3.577932 1_565
Dy0_3 Dy0_5 3.577932 1_455
Dy0_3 Dy0_7 3.577933 1_455
Dy0_3 Dy0_7 3.577933 1_555
Dy0_3 Th1_7 3.588780 1_455
Dy0_3 Th0_0 3.588780 1_555
Dy0_3 Th1_3 3.588782 1_555
Dy0_3 Th1_5 3.588782 1_455
Dy0_3 Th0_2 3.588782 1_555
Dy0_3 Th0_4 3.588782 1_455
Dy0_4 Dy0_6 3.577933 1_555
Dy0_4 Dy0_6 3.577933 1_545
Dy0_4 Th1_0 3.588780 1_555
Dy0_4 Th0_7 3.588780 1_544
Dy0_4 Th1_4 3.588782 1_555
Dy0_4 Th1_2 3.588782 1_545
Dy0_4 Th0_5 3.588782 1_554
Dy0_4 Th0_3 3.588782 1_544
Dy0_5 Dy0_7 3.577933 1_555
Dy0_5 Dy0_7 3.577933 1_545
Dy0_5 Th1_1 3.588780 1_555
Dy0_5 Th0_6 3.588780 1_545
Dy0_5 Th1_5 3.588782 1_555
Dy0_5 Th1_3 3.588782 1_545
Dy0_5 Th0_4 3.588782 1_555
Dy0_5 Th0_2 3.588782 1_545
Dy0_6 Th1_2 3.588780 1_555
Dy0_6 Th0_5 3.588780 1_554
Dy0_6 Th1_0 3.588782 1_555
Dy0_6 Th1_6 3.588782 1_555
Dy0_6 Th0_1 3.588782 1_554
Dy0_6 Th0_7 3.588782 1_554
Dy0_7 Th1_3 3.588780 1_555
Dy0_7 Th0_4 3.588780 1_555
Dy0_7 Th1_1 3.588782 1_555
Dy0_7 Th1_7 3.588782 1_555
Dy0_7 Th0_6 3.588782 1_555
Dy0_7 Th0_0 3.588782 1_555
Th0_0 Th1_2 3.513107 1_555
Th0_0 Th1_4 3.513107 1_455
Th0_0 Th1_0 3.513111 1_555
Th0_0 Th0_6 3.577932 1_445
Th0_0 Th0_6 3.577932 1_555
Th0_0 Th0_2 3.577933 1_545
Th0_0 Th0_2 3.577933 1_555
Th0_0 Th0_4 3.577933 1_455
Th0_0 Th0_4 3.577933 1_555
Th0_1 Th1_3 3.513107 1_555
Th0_1 Th1_5 3.513107 1_455
Th0_1 Th1_1 3.513111 1_555
Th0_1 Th0_7 3.577932 1_555
Th0_1 Th0_7 3.577932 1_445
Th0_1 Th0_3 3.577933 1_545
Th0_1 Th0_3 3.577933 1_555
Th0_1 Th0_5 3.577933 1_455
Th0_1 Th0_5 3.577933 1_555
Th0_2 Th1_0 3.513107 1_565
Th0_2 Th1_6 3.513107 1_455
Th0_2 Th1_2 3.513111 1_555
Th0_2 Th0_4 3.577932 1_565
Th0_2 Th0_4 3.577932 1_455
Th0_2 Th0_6 3.577933 1_555
Th0_2 Th0_6 3.577933 1_455
Th0_3 Th1_7 3.513107 1_455
Th0_3 Th1_1 3.513107 1_565
Th0_3 Th1_3 3.513111 1_555
Th0_3 Th0_5 3.577932 1_565
Th0_3 Th0_5 3.577932 1_455
Th0_3 Th0_7 3.577933 1_555
Th0_3 Th0_7 3.577933 1_455
Th0_4 Th1_6 3.513107 1_555
Th0_4 Th1_0 3.513107 1_555
Th0_4 Th1_4 3.513111 1_555
Th0_4 Th0_6 3.577933 1_545
Th0_4 Th0_6 3.577933 1_555
Th0_5 Th1_7 3.513107 1_555
Th0_5 Th1_1 3.513107 1_555
Th0_5 Th1_5 3.513111 1_555
Th0_5 Th0_7 3.577933 1_545
Th0_5 Th0_7 3.577933 1_555
Th0_6 Th1_2 3.513107 1_555
Th0_6 Th1_4 3.513107 1_565
Th0_6 Th1_6 3.513111 1_555
Th0_7 Th1_3 3.513107 1_555
Th0_7 Th1_5 3.513107 1_565
Th0_7 Th1_7 3.513111 1_555
Th1_0 Th1_6 3.577932 1_555
Th1_0 Th1_6 3.577932 1_445
Th1_0 Th1_4 3.577933 1_455
Th1_0 Th1_4 3.577933 1_555
Th1_0 Th1_2 3.577933 1_555
Th1_0 Th1_2 3.577933 1_545
Th1_1 Th1_7 3.577932 1_445
Th1_1 Th1_7 3.577932 1_555
Th1_1 Th1_5 3.577933 1_455
Th1_1 Th1_3 3.577933 1_545
Th1_1 Th1_3 3.577933 1_555
Th1_1 Th1_5 3.577933 1_555
Th1_2 Th1_4 3.577932 1_455
Th1_2 Th1_4 3.577932 1_565
Th1_2 Th1_6 3.577933 1_455
Th1_2 Th1_6 3.577933 1_555
Th1_3 Th1_5 3.577932 1_455
Th1_3 Th1_5 3.577932 1_565
Th1_3 Th1_7 3.577933 1_455
Th1_3 Th1_7 3.577933 1_555
Th1_4 Th1_6 3.577933 1_555
Th1_4 Th1_6 3.577933 1_545
Th1_5 Th1_7 3.577933 1_555
Th1_5 Th1_7 3.577933 1_545
