# generated using pymatgen
data_Sm3CuSe6
_symmetry_space_group_name_H-M   'P 1'
_cell_length_a   7.18020103
_cell_length_b   7.90049180
_cell_length_c   17.08517744
_cell_angle_alpha   90.00000000
_cell_angle_beta   90.00000000
_cell_angle_gamma   90.00000000
_symmetry_Int_Tables_number   1
_chemical_formula_structural   Sm3CuSe6
_chemical_formula_sum   'Sm12 Cu4 Se24'
_cell_volume   969.19289992
_cell_formula_units_Z   4
loop_
 _symmetry_equiv_pos_site_id
 _symmetry_equiv_pos_as_xyz
  1  'x, y, z'
loop_
 _atom_site_type_symbol
 _atom_site_label
 _atom_site_symmetry_multiplicity
 _atom_site_fract_x
 _atom_site_fract_y
 _atom_site_fract_z
 _atom_site_occupancy
  Sm  Sm0  1  0.26554541  0.94456400  0.24736725  1
  Sm  Sm1  1  0.73445459  0.05543600  0.74736725  1
  Sm  Sm2  1  0.26554541  0.55543600  0.74736725  1
  Sm  Sm3  1  0.73445459  0.44456400  0.24736725  1
  Sm  Sm4  1  0.22615329  0.55539324  0.41177919  1
  Sm  Sm5  1  0.77384671  0.44460676  0.91177919  1
  Sm  Sm6  1  0.24279162  0.94065895  0.59010488  1
  Sm  Sm7  1  0.75720838  0.05934105  0.09010488  1
  Sm  Sm8  1  0.75720838  0.44065895  0.59010488  1
  Sm  Sm9  1  0.24279162  0.55934105  0.09010488  1
  Sm  Sm10  1  0.77384671  0.05539324  0.41177919  1
  Sm  Sm11  1  0.22615329  0.94460676  0.91177919  1
  Cu  Cu0  1  0.40468560  0.20980744  0.47778279  1
  Cu  Cu1  1  0.59531440  0.79019256  0.97778279  1
  Cu  Cu2  1  0.59531440  0.70980744  0.47778279  1
  Cu  Cu3  1  0.40468560  0.29019256  0.97778279  1
  Se  Se0  1  0.07558966  0.24811818  0.50044620  1
  Se  Se1  1  0.92441034  0.75188182  0.00044620  1
  Se  Se2  1  0.92441034  0.74811818  0.50044620  1
  Se  Se3  1  0.07558966  0.25188182  0.00044620  1
  Se  Se4  1  0.07474360  0.25163770  0.32096429  1
  Se  Se5  1  0.92525640  0.74836230  0.82096429  1
  Se  Se6  1  0.07429034  0.24684647  0.67518348  1
  Se  Se7  1  0.92570966  0.75315353  0.17518348  1
  Se  Se8  1  0.92570966  0.74684647  0.67518348  1
  Se  Se9  1  0.07429034  0.25315353  0.17518348  1
  Se  Se10  1  0.92525640  0.75163770  0.32096429  1
  Se  Se11  1  0.07474360  0.24836230  0.82096429  1
  Se  Se12  1  0.38889260  0.91020125  0.41742378  1
  Se  Se13  1  0.61110740  0.08979875  0.91742378  1
  Se  Se14  1  0.38408612  0.59613248  0.57995119  1
  Se  Se15  1  0.61591388  0.40386752  0.07995119  1
  Se  Se16  1  0.61591388  0.09613248  0.57995119  1
  Se  Se17  1  0.38408612  0.90386752  0.07995119  1
  Se  Se18  1  0.61110740  0.41020125  0.41742378  1
  Se  Se19  1  0.38889260  0.58979875  0.91742378  1
  Se  Se20  1  0.37888413  0.60000467  0.25109995  1
  Se  Se21  1  0.62111587  0.39999533  0.75109995  1
  Se  Se22  1  0.37888413  0.89999533  0.75109995  1
  Se  Se23  1  0.62111587  0.10000467  0.25109995  1
loop_
_geom_bond_atom_site_label_1
_geom_bond_atom_site_label_2
_geom_bond_distance
_geom_bond_site_symmetry_2
Cu0 Se18 2.401413 1_555
Cu0 Se0 2.413544 1_555
Cu0 Se16 2.480690 1_555
Cu0 Se12 2.584412 1_545
Cu0 Sm6 3.091209 1_545
Cu0 Sm10 3.128241 1_555
Cu0 Sm4 3.220164 1_555
Cu1 Se19 2.401413 1_555
Cu1 Se1 2.413544 1_556
Cu1 Se17 2.480690 1_556
Cu1 Se13 2.584412 1_565
Cu1 Sm7 3.091209 1_566
Cu1 Sm11 3.128241 1_555
Cu1 Sm5 3.220164 1_555
Cu2 Se12 2.401413 1_555
Cu2 Se2 2.413544 1_555
Cu2 Se14 2.480690 1_555
Cu2 Se18 2.584412 1_555
Cu2 Sm8 3.091209 1_555
Cu2 Sm4 3.128241 1_555
Cu2 Sm10 3.220164 1_565
Cu3 Se13 2.401413 1_555
Cu3 Se3 2.413544 1_556
Cu3 Se15 2.480690 1_556
Cu3 Se19 2.584412 1_555
Cu3 Sm9 3.091209 1_556
Cu3 Sm5 3.128241 1_555
Cu3 Sm11 3.220164 1_545
Se0 Se6 2.985449 1_555
Se0 Sm10 3.050790 1_455
Se0 Sm4 3.058919 1_555
Se0 Sm6 3.112595 1_545
Se0 Sm8 3.144273 1_455
Se1 Se7 2.985449 1_555
Se1 Sm11 3.050790 1_654
Se1 Sm5 3.058919 1_554
Se1 Sm7 3.112595 1_565
Se1 Sm9 3.144273 1_655
Se2 Se8 2.985449 1_555
Se2 Sm4 3.050790 1_655
Se2 Sm10 3.058919 1_565
Se2 Sm8 3.112595 1_555
Se2 Sm6 3.144273 1_655
Se3 Se9 2.985449 1_555
Se3 Sm5 3.050790 1_454
Se3 Sm11 3.058919 1_544
Se3 Sm9 3.112595 1_555
Se3 Sm7 3.144273 1_455
Se4 Se9 2.490722 1_555
Se4 Sm0 3.056735 1_545
Se4 Sm4 3.057524 1_555
Se4 Sm10 3.078801 1_455
Se4 Sm3 3.142332 1_455
Se5 Se8 2.490722 1_555
Se5 Sm1 3.056735 1_565
Se5 Sm5 3.057524 1_555
Se5 Sm11 3.078801 1_655
Se5 Sm2 3.142332 1_655
Se6 Sm2 3.057886 1_555
Se6 Sm6 3.070572 1_545
Se6 Sm8 3.104986 1_455
Se6 Sm1 3.124397 1_455
Se7 Sm3 3.057886 1_555
Se7 Sm7 3.070572 1_565
Se7 Sm9 3.104986 1_655
Se7 Sm0 3.124397 1_655
Se8 Sm1 3.057886 1_565
Se8 Sm8 3.070572 1_555
Se8 Sm6 3.104986 1_655
Se8 Sm2 3.124397 1_655
Se9 Sm0 3.057886 1_545
Se9 Sm9 3.070572 1_555
Se9 Sm7 3.104986 1_455
Se9 Sm3 3.124397 1_455
Se10 Se7 2.490722 1_555
Se10 Sm3 3.056735 1_555
Se10 Sm10 3.057524 1_565
Se10 Sm4 3.078801 1_655
Se10 Sm0 3.142332 1_655
Se11 Se6 2.490722 1_555
Se11 Sm2 3.056735 1_555
Se11 Sm11 3.057524 1_545
Se11 Sm5 3.078801 1_455
Se11 Sm1 3.142332 1_455
Se12 Sm10 2.994173 1_565
Se12 Sm4 3.038485 1_555
Se12 Sm0 3.049542 1_555
Se12 Sm6 3.140473 1_555
Se13 Sm11 2.994173 1_545
Se13 Sm5 3.038485 1_555
Se13 Sm1 3.049542 1_555
Se13 Sm7 3.140473 1_556
Se14 Sm6 2.910025 1_555
Se14 Sm8 2.952354 1_555
Se14 Sm2 3.001555 1_555
Se14 Sm4 3.105653 1_555
Se15 Sm7 2.910025 1_555
Se15 Sm9 2.952354 1_555
Se15 Sm3 3.001555 1_555
Se15 Sm5 3.105653 1_554
Se16 Sm8 2.910025 1_555
Se16 Sm6 2.952354 1_545
Se16 Sm1 3.001555 1_555
Se16 Sm10 3.105653 1_555
Se17 Sm9 2.910025 1_555
Se17 Sm7 2.952354 1_565
Se17 Sm0 3.001555 1_555
Se17 Sm11 3.105653 1_554
Se18 Sm4 2.994173 1_555
Se18 Sm10 3.038485 1_555
Se18 Sm3 3.049542 1_555
Se18 Sm8 3.140473 1_555
Se19 Sm5 2.994173 1_555
Se19 Sm11 3.038485 1_555
Se19 Sm2 3.049542 1_555
Se19 Sm9 3.140473 1_556
Se20 Sm3 2.833787 1_555
Se20 Sm0 2.841943 1_555
Se20 Sm9 2.936671 1_555
Se20 Sm4 2.977103 1_555
Se21 Sm2 2.833787 1_555
Se21 Sm1 2.841943 1_555
Se21 Sm8 2.936671 1_555
Se21 Sm5 2.977103 1_555
Se22 Sm1 2.833787 1_565
Se22 Sm2 2.841943 1_555
Se22 Sm6 2.936671 1_555
Se22 Sm11 2.977103 1_555
Se23 Sm0 2.833787 1_545
Se23 Sm3 2.841943 1_555
Se23 Sm7 2.936671 1_555
Se23 Sm10 2.977103 1_555
