# generated using pymatgen
data_SrMn2BiO6
_symmetry_space_group_name_H-M   'P 1'
_cell_length_a   5.58766466
_cell_length_b   5.58526602
_cell_length_c   5.58766466
_cell_angle_alpha   59.57443013
_cell_angle_beta   90.71341117
_cell_angle_gamma   120.42561165
_symmetry_Int_Tables_number   1
_chemical_formula_structural   SrMn2BiO6
_chemical_formula_sum   'Sr1 Mn2 Bi1 O6'
_cell_volume   122.47993834
_cell_formula_units_Z   1
loop_
 _symmetry_equiv_pos_site_id
 _symmetry_equiv_pos_as_xyz
  1  'x, y, z'
loop_
 _atom_site_type_symbol
 _atom_site_label
 _atom_site_symmetry_multiplicity
 _atom_site_fract_x
 _atom_site_fract_y
 _atom_site_fract_z
 _atom_site_occupancy
  Sr  Sr0  1  0.02664700  0.00000000  0.97335300  1
  Mn  Mn0  1  0.78463500  0.50000400  0.71536500  1
  Mn  Mn1  1  0.28463600  0.50000400  0.21536400  1
  Bi  Bi0  1  0.48224200  0.00000200  0.51775800  1
  O  O0  1  0.54147000  0.99999300  0.93434600  1
  O  O1  1  0.06565400  0.99999400  0.45853000  1
  O  O2  1  0.54144600  0.47582300  0.45855400  1
  O  O3  1  0.06562300  0.52417500  0.93437700  1
  O  O4  1  0.54103700  0.50000300  0.95896100  1
  O  O5  1  0.04103900  0.50000300  0.45896200  1
loop_
_geom_bond_atom_site_label_1
_geom_bond_atom_site_label_2
_geom_bond_distance
_geom_bond_site_symmetry_2
Mn0 O4 1.936883 1_555
Mn0 O1 1.969614 1_655
Mn0 O0 1.969682 1_545
Mn0 O3 1.971228 1_655
Mn0 O2 1.971228 1_555
Mn0 O5 2.038718 1_655
Mn1 O5 1.936887 1_555
Mn1 O0 1.969610 1_554
Mn1 O1 1.969678 1_545
Mn1 O3 1.971227 1_554
Mn1 O2 1.971228 1_555
Mn1 O4 2.038706 1_554
Bi0 O2 2.345947 1_555
Bi0 O3 2.346070 1_545
Bi0 O0 2.347058 1_545
Bi0 O1 2.347060 1_545
O0 Sr0 2.717029 1_665
O0 Sr0 2.887630 1_565
O1 Sr0 2.717032 1_564
O1 Sr0 2.887627 1_565
O2 Sr0 2.715954 1_664
O2 Sr0 2.886536 1_555
O3 Sr0 2.715814 1_555
O3 Sr0 2.886410 1_565
O4 Sr0 2.777595 1_665
O4 Sr0 2.777609 1_555
O5 Sr0 2.777594 1_564
O5 Sr0 2.777613 1_555
