# generated using pymatgen
data_TiMnP
_symmetry_space_group_name_H-M   'P 1'
_cell_length_a   6.17641263
_cell_length_b   6.17638939
_cell_length_c   3.38124152
_cell_angle_alpha   90.00000057
_cell_angle_beta   89.99999713
_cell_angle_gamma   119.99997300
_symmetry_Int_Tables_number   1
_chemical_formula_structural   TiMnP
_chemical_formula_sum   'Ti3 Mn3 P3'
_cell_volume   111.70636341
_cell_formula_units_Z   3
loop_
 _symmetry_equiv_pos_site_id
 _symmetry_equiv_pos_as_xyz
  1  'x, y, z'
loop_
 _atom_site_type_symbol
 _atom_site_label
 _atom_site_symmetry_multiplicity
 _atom_site_fract_x
 _atom_site_fract_y
 _atom_site_fract_z
 _atom_site_occupancy
  Ti  Ti0  1  0.58927999  0.00000795  -0.00000002  1
  Ti  Ti1  1  0.00000494  0.58925911  0.00000004  1
  Ti  Ti2  1  0.41071704  0.41071957  0.00000005  1
  Mn  Mn0  1  0.24747429  -0.00001173  0.49999996  1
  Mn  Mn1  1  -0.00001377  0.24748923  0.49999993  1
  Mn  Mn2  1  0.75253431  0.75253624  0.50000001  1
  P  P0  1  0.33333250  0.66666775  0.50000008  1
  P  P1  1  0.66667192  0.33333287  0.49999996  1
  P  P2  1  -0.00000123  -0.00000199  0.00000000  1
loop_
_geom_bond_atom_site_label_1
_geom_bond_atom_site_label_2
_geom_bond_distance
_geom_bond_site_symmetry_2
Mn0 P2 2.279174 1_555
Mn0 P2 2.279174 1_556
Mn0 P0 2.368810 1_545
Mn0 P1 2.368941 1_555
Mn1 P2 2.279241 1_555
Mn1 P2 2.279242 1_556
Mn1 P1 2.368719 1_455
Mn1 P0 2.368862 1_555
Mn2 P2 2.279101 1_665
Mn2 P2 2.279101 1_666
Mn2 P0 2.368938 1_555
Mn2 P1 2.368949 1_555
P0 Ti1 2.518135 1_556
P0 Ti1 2.518135 1_555
P0 Ti2 2.518185 1_556
P0 Ti2 2.518186 1_555
P0 Ti0 2.518209 1_566
P0 Ti0 2.518209 1_565
P1 Ti0 2.518140 1_555
P1 Ti0 2.518140 1_556
P1 Ti1 2.518160 1_655
P1 Ti1 2.518161 1_656
P1 Ti2 2.518225 1_555
P1 Ti2 2.518226 1_556
P2 Ti2 2.536772 1_555
P2 Ti0 2.536799 1_455
P2 Ti1 2.536902 1_545
