# generated using pymatgen
data_Sr2La2Cr3MoO12
_symmetry_space_group_name_H-M   'P 1'
_cell_length_a   5.58340388
_cell_length_b   9.67951149
_cell_length_c   5.58340892
_cell_angle_alpha   74.25884222
_cell_angle_beta   60.33664740
_cell_angle_gamma   74.25875930
_symmetry_Int_Tables_number   1
_chemical_formula_structural   Sr2La2Cr3MoO12
_chemical_formula_sum   'Sr2 La2 Cr3 Mo1 O12'
_cell_volume   248.96398161
_cell_formula_units_Z   1
loop_
 _symmetry_equiv_pos_site_id
 _symmetry_equiv_pos_as_xyz
  1  'x, y, z'
loop_
 _atom_site_type_symbol
 _atom_site_label
 _atom_site_symmetry_multiplicity
 _atom_site_fract_x
 _atom_site_fract_y
 _atom_site_fract_z
 _atom_site_occupancy
  Sr  Sr0  1  0.62939700  0.61255800  0.62939700  1
  Sr  Sr1  1  0.87059600  0.88744100  0.87060200  1
  La  La0  1  0.12877900  0.12980600  0.12877900  1
  La  La1  1  0.37120700  0.37021900  0.37120500  1
  Cr  Cr0  1  0.75000300  0.24999900  0.75000500  1
  Cr  Cr1  1  0.00174400  0.49672700  0.00174000  1
  Cr  Cr2  1  0.49827100  0.00325700  0.49827100  1
  Mo  Mo0  1  0.25000200  0.74998700  0.25000400  1
  O  O0  1  0.58650300  0.16273500  0.58650000  1
  O  O1  1  0.91349300  0.33725000  0.91349500  1
  O  O2  1  0.09712600  0.65972300  0.09713900  1
  O  O3  1  0.40286500  0.84029400  0.40285700  1
  O  O4  1  0.11029500  0.11101300  0.59389600  1
  O  O5  1  0.90609200  0.38896700  0.38974900  1
  O  O6  1  0.38975600  0.38896900  0.90608500  1
  O  O7  1  0.59388800  0.11101800  0.11029800  1
  O  O8  1  0.60450200  0.60096500  0.11570200  1
  O  O9  1  0.38429500  0.89905400  0.89548300  1
  O  O10  1  0.89548000  0.89905400  0.38429400  1
  O  O11  1  0.11570300  0.60096500  0.60450100  1
loop_
_geom_bond_atom_site_label_1
_geom_bond_atom_site_label_2
_geom_bond_distance
_geom_bond_site_symmetry_2
La0 O1 2.394277 1_454
La0 O7 2.505248 1_555
La0 O4 2.505278 1_555
La0 O9 2.594442 1_544
La0 O10 2.594452 1_445
La1 O0 2.394558 1_555
La1 O5 2.505199 1_455
La1 O6 2.505213 1_554
La1 O8 2.594388 1_555
La1 O11 2.594388 1_555
Cr0 O1 2.010258 1_555
Cr0 O0 2.010452 1_555
Cr0 O6 2.011877 1_555
Cr0 O5 2.011907 1_555
Cr0 O7 2.012114 1_556
Cr0 O4 2.012128 1_655
Cr1 O1 1.983462 1_454
Cr1 O5 1.999379 1_455
Cr1 O6 1.999381 1_554
Cr1 O11 2.019761 1_554
Cr1 O8 2.019770 1_455
Cr1 O2 2.061355 1_555
Cr2 O0 1.983357 1_555
Cr2 O4 1.999234 1_555
Cr2 O7 1.999244 1_555
Cr2 O10 2.019516 1_545
Cr2 O9 2.019534 1_545
Cr2 O3 2.061195 1_545
Mo0 O2 1.936695 1_555
Mo0 O3 1.936874 1_555
Mo0 O11 2.032072 1_555
Mo0 O8 2.032080 1_555
Mo0 O10 2.032386 1_455
Mo0 O9 2.032387 1_554
O0 Sr1 3.168056 1_545
O1 Sr0 3.168130 1_555
O2 Sr1 2.572193 1_454
O2 Sr0 2.844127 1_455
O2 Sr0 2.844197 1_554
O3 Sr0 2.572310 1_555
O3 Sr1 2.844101 1_554
O3 Sr1 2.844177 1_455
O4 Sr1 2.563597 1_445
O5 Sr0 2.563610 1_555
O6 Sr0 2.563574 1_555
O7 Sr1 2.563628 1_544
O8 Sr0 2.621834 1_554
O8 Sr0 2.972543 1_555
O8 Sr1 3.151708 1_554
O9 Sr1 2.621801 1_555
O9 Sr1 2.972581 1_455
O9 Sr0 3.151855 1_555
O10 Sr1 2.621835 1_555
O10 Sr1 2.972554 1_554
O10 Sr0 3.151849 1_555
O11 Sr0 2.621835 1_455
O11 Sr0 2.972538 1_555
O11 Sr1 3.151723 1_455
