# generated using pymatgen
data_MgMnSiO4
_symmetry_space_group_name_H-M   'P 1'
_cell_length_a   4.84312900
_cell_length_b   6.21333000
_cell_length_c   10.67256400
_cell_angle_alpha   90.00000000
_cell_angle_beta   90.00000000
_cell_angle_gamma   90.00000000
_symmetry_Int_Tables_number   1
_chemical_formula_structural   MgMnSiO4
_chemical_formula_sum   'Mg4 Mn4 Si4 O16'
_cell_volume   321.15835521
_cell_formula_units_Z   4
loop_
 _symmetry_equiv_pos_site_id
 _symmetry_equiv_pos_as_xyz
  1  'x, y, z'
loop_
 _atom_site_type_symbol
 _atom_site_label
 _atom_site_symmetry_multiplicity
 _atom_site_fract_x
 _atom_site_fract_y
 _atom_site_fract_z
 _atom_site_occupancy
  Mg  Mg0  1  0.50000000  0.50000000  0.50000000  1
  Mg  Mg1  1  0.00000000  0.50000000  0.00000000  1
  Mg  Mg2  1  0.50000000  0.00000000  0.50000000  1
  Mg  Mg3  1  0.00000000  0.00000000  0.00000000  1
  Mn  Mn0  1  0.01274300  0.75000000  0.72135300  1
  Mn  Mn1  1  0.98725700  0.25000000  0.27864700  1
  Mn  Mn2  1  0.51274300  0.25000000  0.77864700  1
  Mn  Mn3  1  0.48725700  0.75000000  0.22135300  1
  Si  Si0  1  0.57849600  0.75000000  0.90958800  1
  Si  Si1  1  0.42150400  0.25000000  0.09041200  1
  Si  Si2  1  0.07849600  0.25000000  0.59041200  1
  Si  Si3  1  0.92150400  0.75000000  0.40958800  1
  O  O0  1  0.76697400  0.75000000  0.55011100  1
  O  O1  1  0.23302600  0.25000000  0.44988900  1
  O  O2  1  0.26697400  0.25000000  0.94988900  1
  O  O3  1  0.73302600  0.75000000  0.05011100  1
  O  O4  1  0.24090500  0.75000000  0.91469300  1
  O  O5  1  0.75909500  0.25000000  0.08530700  1
  O  O6  1  0.74090500  0.25000000  0.58530700  1
  O  O7  1  0.25909500  0.75000000  0.41469300  1
  O  O8  1  0.72283900  0.53751000  0.84240900  1
  O  O9  1  0.27716100  0.46249000  0.15759100  1
  O  O10  1  0.22283900  0.46249000  0.65759100  1
  O  O11  1  0.27716100  0.03751000  0.15759100  1
  O  O12  1  0.77716100  0.53751000  0.34240900  1
  O  O13  1  0.72283900  0.96249000  0.84240900  1
  O  O14  1  0.77716100  0.96249000  0.34240900  1
  O  O15  1  0.22283900  0.03751000  0.65759100  1
loop_
_geom_bond_atom_site_label_1
_geom_bond_atom_site_label_2
_geom_bond_distance
_geom_bond_site_symmetry_2
Mg0 O1 2.090619 1_555
Mg0 O0 2.090619 1_555
Mg0 O7 2.145465 1_555
Mg0 O6 2.145465 1_555
Mg0 O12 2.164474 1_555
Mg0 O10 2.164474 1_555
Mg1 O2 2.090619 1_554
Mg1 O3 2.090619 1_455
Mg1 O5 2.145465 1_455
Mg1 O4 2.145465 1_554
Mg1 O9 2.164474 1_555
Mg1 O8 2.164474 1_454
Mg2 O1 2.090619 1_555
Mg2 O0 2.090619 1_545
Mg2 O6 2.145465 1_555
Mg2 O7 2.145465 1_545
Mg2 O14 2.164474 1_545
Mg2 O15 2.164474 1_555
Mg3 O3 2.090619 1_445
Mg3 O2 2.090619 1_554
Mg3 O5 2.145465 1_455
Mg3 O4 2.145465 1_544
Mg3 O11 2.164474 1_555
Mg3 O13 2.164474 1_444
Mn0 O15 2.165558 1_565
Mn0 O10 2.165558 1_555
Mn0 O0 2.181028 1_455
Mn0 O13 2.320271 1_455
Mn0 O8 2.320271 1_455
Mn0 O4 2.340689 1_555
Mn1 O12 2.165558 1_555
Mn1 O14 2.165558 1_545
Mn1 O1 2.181028 1_655
Mn1 O9 2.320271 1_655
Mn1 O11 2.320271 1_655
Mn1 O5 2.340689 1_555
Mn2 O13 2.165558 1_545
Mn2 O8 2.165558 1_555
Mn2 O2 2.181028 1_555
Mn2 O15 2.320271 1_555
Mn2 O10 2.320271 1_555
Mn2 O6 2.340689 1_555
Mn3 O11 2.165558 1_565
Mn3 O9 2.165558 1_555
Mn3 O3 2.181028 1_555
Mn3 O14 2.320271 1_555
Mn3 O12 2.320271 1_555
Mn3 O7 2.340689 1_555
O0 Si3 1.676108 1_555
O1 Si2 1.676108 1_555
O2 Si1 1.676108 1_556
O3 Si0 1.676108 1_554
O4 Si0 1.635904 1_555
O5 Si1 1.635904 1_555
O6 Si2 1.635904 1_655
O7 Si3 1.635904 1_455
O8 Si0 1.657065 1_555
O9 Si1 1.657065 1_555
O10 Si2 1.657065 1_555
O11 Si1 1.657065 1_555
O12 Si3 1.657065 1_555
O13 Si0 1.657065 1_555
O14 Si3 1.657065 1_555
O15 Si2 1.657065 1_555
