# generated using pymatgen
data_Zr6Al16Pt7
_symmetry_space_group_name_H-M   'P 1'
_cell_length_a   8.79885212
_cell_length_b   8.79885212
_cell_length_c   8.79885212
_cell_angle_alpha   60.00000000
_cell_angle_beta   60.00000000
_cell_angle_gamma   60.00000000
_symmetry_Int_Tables_number   1
_chemical_formula_structural   Zr6Al16Pt7
_chemical_formula_sum   'Zr6 Al16 Pt7'
_cell_volume   481.68492878
_cell_formula_units_Z   1
loop_
 _symmetry_equiv_pos_site_id
 _symmetry_equiv_pos_as_xyz
  1  'x, y, z'
loop_
 _atom_site_type_symbol
 _atom_site_label
 _atom_site_symmetry_multiplicity
 _atom_site_fract_x
 _atom_site_fract_y
 _atom_site_fract_z
 _atom_site_occupancy
  Zr  Zr0  1  0.68599500  0.68599500  0.31400500  1
  Zr  Zr1  1  0.31400500  0.68599500  0.31400500  1
  Zr  Zr2  1  0.68599500  0.31400500  0.31400500  1
  Zr  Zr3  1  0.31400500  0.31400500  0.68599500  1
  Zr  Zr4  1  0.68599500  0.31400500  0.68599500  1
  Zr  Zr5  1  0.31400500  0.68599500  0.68599500  1
  Al  Al0  1  0.87974500  0.87974500  0.36076500  1
  Al  Al1  1  0.87974500  0.36076500  0.87974500  1
  Al  Al2  1  0.36076500  0.87974500  0.87974500  1
  Al  Al3  1  0.87974500  0.87974500  0.87974500  1
  Al  Al4  1  0.12025500  0.12025500  0.63923500  1
  Al  Al5  1  0.12025500  0.63923500  0.12025500  1
  Al  Al6  1  0.63923500  0.12025500  0.12025500  1
  Al  Al7  1  0.12025500  0.12025500  0.12025500  1
  Al  Al8  1  0.66538300  0.66538300  0.00385200  1
  Al  Al9  1  0.66538300  0.00385200  0.66538300  1
  Al  Al10  1  0.00385200  0.66538300  0.66538300  1
  Al  Al11  1  0.66538300  0.66538300  0.66538300  1
  Al  Al12  1  0.33461700  0.33461700  0.99614800  1
  Al  Al13  1  0.33461700  0.99614800  0.33461700  1
  Al  Al14  1  0.99614800  0.33461700  0.33461700  1
  Al  Al15  1  0.33461700  0.33461700  0.33461700  1
  Pt  Pt0  1  0.00000000  0.00000000  0.00000000  1
  Pt  Pt1  1  0.00000000  0.00000000  0.50000000  1
  Pt  Pt2  1  0.50000000  0.00000000  0.50000000  1
  Pt  Pt3  1  0.00000000  0.50000000  0.50000000  1
  Pt  Pt4  1  0.50000000  0.50000000  0.00000000  1
  Pt  Pt5  1  0.00000000  0.50000000  0.00000000  1
  Pt  Pt6  1  0.50000000  0.00000000  0.00000000  1
loop_
_geom_bond_atom_site_label_1
_geom_bond_atom_site_label_2
_geom_bond_distance
_geom_bond_site_symmetry_2
Zr0 Zr2 3.273085 1_555
Zr0 Zr1 3.273085 1_555
Zr0 Zr4 3.273085 1_555
Zr0 Zr5 3.273085 1_555
Zr1 Zr2 3.273085 1_555
Zr1 Zr3 3.273085 1_555
Zr1 Zr5 3.273085 1_555
Zr2 Zr3 3.273085 1_555
Zr2 Zr4 3.273085 1_555
Zr3 Zr4 3.273085 1_555
Zr3 Zr5 3.273085 1_555
Zr4 Zr5 3.273085 1_555
Al0 Pt0 2.591820 1_665
Al0 Pt2 2.729880 1_565
Al0 Pt3 2.729880 1_655
Al0 Pt1 2.729880 1_665
Al0 Al11 2.783113 1_555
Al0 Al10 2.783118 1_655
Al0 Al9 2.783118 1_565
Al0 Al7 2.992776 1_665
Al0 Al5 2.992776 1_655
Al0 Al6 2.992776 1_565
Al0 Zr1 3.207941 1_655
Al0 Zr2 3.207941 1_565
Al0 Zr0 3.207941 1_555
Al1 Pt0 2.591820 1_656
Al1 Pt4 2.729880 1_556
Al1 Pt3 2.729880 1_655
Al1 Pt5 2.729880 1_656
Al1 Al11 2.783113 1_555
Al1 Al10 2.783118 1_655
Al1 Al8 2.783118 1_556
Al1 Al6 2.992776 1_556
Al1 Al4 2.992776 1_655
Al1 Al7 2.992776 1_656
Al1 Zr3 3.207941 1_655
Al1 Zr2 3.207941 1_556
Al1 Zr4 3.207941 1_555
Al2 Pt0 2.591820 1_566
Al2 Pt2 2.729880 1_565
Al2 Pt6 2.729880 1_566
Al2 Pt4 2.729880 1_556
Al2 Al8 2.783118 1_556
Al2 Al9 2.783118 1_565
Al2 Al4 2.992776 1_565
Al2 Al5 2.992776 1_556
Al2 Al7 2.992776 1_566
Al2 Zr1 3.207941 1_556
Al2 Zr3 3.207941 1_565
Al2 Zr5 3.207941 1_555
Al3 Pt0 2.591820 1_666
Al3 Pt5 2.729880 1_656
Al3 Pt6 2.729880 1_566
Al3 Pt1 2.729880 1_665
Al3 Al9 2.783110 1_565
Al3 Al8 2.783110 1_556
Al3 Al6 2.992776 1_566
Al3 Al5 2.992776 1_656
Al3 Al4 2.992776 1_665
Al3 Zr5 3.207941 1_655
Al3 Zr0 3.207941 1_556
Al3 Zr4 3.207941 1_565
Al4 Pt0 2.591820 1_556
Al4 Pt2 2.729880 1_555
Al4 Pt3 2.729880 1_555
Al4 Pt1 2.729880 1_555
Al4 Zr5 3.207941 1_545
Al4 Zr3 3.207941 1_555
Al4 Zr4 3.207941 1_455
Al5 Pt0 2.591820 1_565
Al5 Pt4 2.729880 1_555
Al5 Pt3 2.729880 1_555
Al5 Pt5 2.729880 1_555
Al5 Zr5 3.207941 1_554
Al5 Zr0 3.207941 1_455
Al5 Zr1 3.207941 1_555
Al6 Pt0 2.591820 1_655
Al6 Pt2 2.729880 1_555
Al6 Pt6 2.729880 1_555
Al6 Pt4 2.729880 1_555
Al6 Zr2 3.207941 1_555
Al6 Zr4 3.207941 1_554
Al6 Zr0 3.207941 1_545
Al7 Pt0 2.591820 1_555
Al7 Pt5 2.729880 1_555
Al7 Pt6 2.729880 1_555
Al7 Pt1 2.729880 1_555
Al7 Zr2 3.207941 1_455
Al7 Zr3 3.207941 1_554
Al7 Zr1 3.207941 1_545
Al8 Pt6 2.540158 1_565
Al8 Pt5 2.540158 1_655
Al8 Pt4 2.540166 1_555
Al8 Zr0 2.921632 1_555
Al8 Zr2 2.921637 1_555
Al8 Zr1 2.921637 1_555
Al8 Al9 2.978139 1_564
Al9 Pt1 2.540158 1_655
Al9 Pt6 2.540158 1_556
Al9 Pt2 2.540166 1_555
Al9 Zr4 2.921632 1_555
Al9 Zr3 2.921637 1_555
Al9 Zr2 2.921637 1_555
Al10 Pt5 2.540158 1_556
Al10 Pt1 2.540158 1_565
Al10 Pt3 2.540166 1_555
Al10 Al3 2.783110 1_455
Al10 Zr5 2.921632 1_555
Al10 Zr3 2.921637 1_555
Al10 Zr1 2.921637 1_555
Al10 Al9 2.978139 1_465
Al10 Al8 2.978139 1_456
Al10 Al11 2.978139 1_455
Al11 Pt3 2.540160 1_655
Al11 Pt4 2.540160 1_556
Al11 Pt2 2.540160 1_565
Al11 Al2 2.783113 1_555
Al11 Zr5 2.921641 1_555
Al11 Zr0 2.921641 1_555
Al11 Zr4 2.921641 1_555
Al11 Al9 2.978139 1_565
Al11 Al8 2.978139 1_556
Al12 Pt5 2.540158 1_556
Al12 Pt6 2.540158 1_556
Al12 Pt4 2.540166 1_556
Al12 Al7 2.783110 1_556
Al12 Al6 2.783118 1_556
Al12 Al5 2.783118 1_556
Al12 Zr3 2.921632 1_555
Al12 Zr4 2.921637 1_555
Al12 Zr5 2.921637 1_555
Al12 Al15 2.978139 1_556
Al12 Al14 2.978139 1_456
Al12 Al13 2.978139 1_546
Al13 Pt1 2.540158 1_565
Al13 Pt6 2.540158 1_565
Al13 Pt2 2.540166 1_565
Al13 Al7 2.783110 1_565
Al13 Al4 2.783118 1_565
Al13 Al6 2.783118 1_565
Al13 Zr1 2.921632 1_555
Al13 Zr5 2.921637 1_555
Al13 Zr0 2.921637 1_555
Al13 Al14 2.978139 1_465
Al13 Al15 2.978139 1_565
Al14 Pt1 2.540158 1_655
Al14 Pt5 2.540158 1_655
Al14 Pt3 2.540166 1_655
Al14 Al7 2.783110 1_655
Al14 Al5 2.783118 1_655
Al14 Al4 2.783118 1_655
Al14 Zr2 2.921632 1_555
Al14 Zr0 2.921637 1_555
Al14 Zr4 2.921637 1_555
Al14 Al15 2.978139 1_655
Al15 Pt3 2.540160 1_555
Al15 Pt4 2.540160 1_555
Al15 Pt2 2.540160 1_555
Al15 Al5 2.783113 1_555
Al15 Al4 2.783113 1_555
Al15 Al6 2.783113 1_555
Al15 Zr2 2.921641 1_555
Al15 Zr1 2.921641 1_555
Al15 Zr3 2.921641 1_555
Pt1 Zr2 3.211199 1_455
Pt1 Zr1 3.211199 1_545
Pt1 Zr5 3.211199 1_545
Pt1 Zr4 3.211199 1_455
Pt2 Zr0 3.211199 1_545
Pt2 Zr3 3.211199 1_555
Pt2 Zr2 3.211199 1_555
Pt2 Zr5 3.211199 1_545
Pt3 Zr3 3.211199 1_555
Pt3 Zr0 3.211199 1_455
Pt3 Zr1 3.211199 1_555
Pt3 Zr4 3.211199 1_455
Pt4 Zr4 3.211199 1_554
Pt4 Zr5 3.211199 1_554
Pt4 Zr2 3.211199 1_555
Pt4 Zr1 3.211199 1_555
Pt5 Zr2 3.211199 1_455
Pt5 Zr5 3.211199 1_554
Pt5 Zr3 3.211199 1_554
Pt5 Zr0 3.211199 1_455
Pt6 Zr4 3.211199 1_554
Pt6 Zr1 3.211199 1_545
Pt6 Zr0 3.211199 1_545
Pt6 Zr3 3.211199 1_554
