# generated using pymatgen
data_Fe3C
_symmetry_space_group_name_H-M   'P 1'
_cell_length_a   3.04901100
_cell_length_b   5.07274900
_cell_length_c   10.72263700
_cell_angle_alpha   90.00000000
_cell_angle_beta   90.00000000
_cell_angle_gamma   90.00000000
_symmetry_Int_Tables_number   1
_chemical_formula_structural   Fe3C
_chemical_formula_sum   'Fe12 C4'
_cell_volume   165.84560574
_cell_formula_units_Z   4
loop_
 _symmetry_equiv_pos_site_id
 _symmetry_equiv_pos_as_xyz
  1  'x, y, z'
loop_
 _atom_site_type_symbol
 _atom_site_label
 _atom_site_symmetry_multiplicity
 _atom_site_fract_x
 _atom_site_fract_y
 _atom_site_fract_z
 _atom_site_occupancy
  Fe  Fe0  1  0.25262200  0.84963300  0.00000000  1
  Fe  Fe1  1  0.24737800  0.34963300  0.00000000  1
  Fe  Fe2  1  0.74737800  0.15036700  0.50000000  1
  Fe  Fe3  1  0.75262200  0.65036700  0.50000000  1
  Fe  Fe4  1  0.25028500  0.88733700  0.32278600  1
  Fe  Fe5  1  0.24971500  0.38733700  0.67721400  1
  Fe  Fe6  1  0.74971500  0.11266300  0.82278600  1
  Fe  Fe7  1  0.75028500  0.61266300  0.17721400  1
  Fe  Fe8  1  0.74971500  0.11266300  0.17721400  1
  Fe  Fe9  1  0.75028500  0.61266300  0.82278600  1
  Fe  Fe10  1  0.25028500  0.88733700  0.67721400  1
  Fe  Fe11  1  0.24971500  0.38733700  0.32278600  1
  C  C0  1  0.75011900  0.09175300  0.00000000  1
  C  C1  1  0.74988100  0.59175300  0.00000000  1
  C  C2  1  0.24988100  0.90824700  0.50000000  1
  C  C3  1  0.25011900  0.40824700  0.50000000  1
loop_
_geom_bond_atom_site_label_1
_geom_bond_atom_site_label_2
_geom_bond_distance
_geom_bond_site_symmetry_2
C0 Fe6 1.903160 1_554
C0 Fe8 1.903160 1_555
C0 Fe0 1.951772 1_545
C0 Fe0 1.963658 1_645
C0 Fe1 2.002496 1_655
C0 Fe1 2.015180 1_555
C1 Fe7 1.903160 1_555
C1 Fe9 1.903160 1_554
C1 Fe1 1.951772 1_655
C1 Fe1 1.963658 1_555
C1 Fe0 2.002496 1_555
C1 Fe0 2.015180 1_655
C2 Fe4 1.903160 1_555
C2 Fe10 1.903160 1_555
C2 Fe2 1.951772 1_565
C2 Fe2 1.963658 1_465
C2 Fe3 2.002496 1_455
C2 Fe3 2.015180 1_555
C3 Fe11 1.903160 1_555
C3 Fe5 1.903160 1_555
C3 Fe3 1.951772 1_455
C3 Fe3 1.963658 1_555
C3 Fe2 2.002496 1_555
C3 Fe2 2.015180 1_455
