# generated using pymatgen
data_RbMg30CoO32
_symmetry_space_group_name_H-M   'P 1'
_cell_length_a   8.63005400
_cell_length_b   8.63005400
_cell_length_c   8.59969500
_cell_angle_alpha   90.00000000
_cell_angle_beta   90.00000000
_cell_angle_gamma   90.00000000
_symmetry_Int_Tables_number   1
_chemical_formula_structural   RbMg30CoO32
_chemical_formula_sum   'Rb1 Mg30 Co1 O32'
_cell_volume   640.48663983
_cell_formula_units_Z   1
loop_
 _symmetry_equiv_pos_site_id
 _symmetry_equiv_pos_as_xyz
  1  'x, y, z'
loop_
 _atom_site_type_symbol
 _atom_site_label
 _atom_site_symmetry_multiplicity
 _atom_site_fract_x
 _atom_site_fract_y
 _atom_site_fract_z
 _atom_site_occupancy
  Rb  Rb0  1  0.50000000  0.50000000  0.00000000  1
  Mg  Mg0  1  0.50000000  0.00000000  0.00000000  1
  Mg  Mg1  1  0.00000000  0.50000000  0.00000000  1
  Mg  Mg2  1  0.00000000  0.00000000  0.50000000  1
  Mg  Mg3  1  0.50000000  0.00000000  0.50000000  1
  Mg  Mg4  1  0.00000000  0.50000000  0.50000000  1
  Mg  Mg5  1  0.50000000  0.50000000  0.50000000  1
  Mg  Mg6  1  0.24847200  0.24847200  0.00000000  1
  Mg  Mg7  1  0.75152800  0.24847200  0.00000000  1
  Mg  Mg8  1  0.24847200  0.75152800  0.00000000  1
  Mg  Mg9  1  0.75152800  0.75152800  0.00000000  1
  Mg  Mg10  1  0.25024800  0.25024800  0.50000000  1
  Mg  Mg11  1  0.74975200  0.25024800  0.50000000  1
  Mg  Mg12  1  0.25024800  0.74975200  0.50000000  1
  Mg  Mg13  1  0.74975200  0.74975200  0.50000000  1
  Mg  Mg14  1  0.25217600  0.00000000  0.24991900  1
  Mg  Mg15  1  0.74782400  0.00000000  0.24991900  1
  Mg  Mg16  1  0.24804400  0.50000000  0.25328600  1
  Mg  Mg17  1  0.75195600  0.50000000  0.25328600  1
  Mg  Mg18  1  0.25217600  0.00000000  0.75008100  1
  Mg  Mg19  1  0.74782400  0.00000000  0.75008100  1
  Mg  Mg20  1  0.24804400  0.50000000  0.74671400  1
  Mg  Mg21  1  0.75195600  0.50000000  0.74671400  1
  Mg  Mg22  1  0.00000000  0.25217600  0.24991900  1
  Mg  Mg23  1  0.50000000  0.24804400  0.25328600  1
  Mg  Mg24  1  0.00000000  0.74782400  0.24991900  1
  Mg  Mg25  1  0.50000000  0.75195600  0.25328600  1
  Mg  Mg26  1  0.00000000  0.25217600  0.75008100  1
  Mg  Mg27  1  0.50000000  0.24804400  0.74671400  1
  Mg  Mg28  1  0.00000000  0.74782400  0.75008100  1
  Mg  Mg29  1  0.50000000  0.75195600  0.74671400  1
  Co  Co0  1  0.00000000  0.00000000  0.00000000  1
  O  O0  1  0.00000000  0.00000000  0.23636300  1
  O  O1  1  0.50000000  0.00000000  0.25503000  1
  O  O2  1  0.00000000  0.50000000  0.25503000  1
  O  O3  1  0.50000000  0.50000000  0.27918400  1
  O  O4  1  0.00000000  0.00000000  0.76363700  1
  O  O5  1  0.50000000  0.00000000  0.74497000  1
  O  O6  1  0.00000000  0.50000000  0.74497000  1
  O  O7  1  0.50000000  0.50000000  0.72081600  1
  O  O8  1  0.24915100  0.24915100  0.24969600  1
  O  O9  1  0.75084900  0.24915100  0.24969600  1
  O  O10  1  0.24915100  0.75084900  0.24969600  1
  O  O11  1  0.75084900  0.75084900  0.24969600  1
  O  O12  1  0.24915100  0.24915100  0.75030400  1
  O  O13  1  0.75084900  0.24915100  0.75030400  1
  O  O14  1  0.24915100  0.75084900  0.75030400  1
  O  O15  1  0.75084900  0.75084900  0.75030400  1
  O  O16  1  0.23977500  0.00000000  0.00000000  1
  O  O17  1  0.76022500  0.00000000  0.00000000  1
  O  O18  1  0.22018400  0.50000000  0.00000000  1
  O  O19  1  0.77981600  0.50000000  0.00000000  1
  O  O20  1  0.24359000  0.00000000  0.50000000  1
  O  O21  1  0.75641000  0.00000000  0.50000000  1
  O  O22  1  0.24282100  0.50000000  0.50000000  1
  O  O23  1  0.75717900  0.50000000  0.50000000  1
  O  O24  1  0.00000000  0.23977500  0.00000000  1
  O  O25  1  0.50000000  0.22018400  0.00000000  1
  O  O26  1  0.00000000  0.76022500  0.00000000  1
  O  O27  1  0.50000000  0.77981600  0.00000000  1
  O  O28  1  0.00000000  0.24359000  0.50000000  1
  O  O29  1  0.50000000  0.24282100  0.50000000  1
  O  O30  1  0.00000000  0.75641000  0.50000000  1
  O  O31  1  0.50000000  0.75717900  0.50000000  1
loop_
_geom_bond_atom_site_label_1
_geom_bond_atom_site_label_2
_geom_bond_distance
_geom_bond_site_symmetry_2
Mg0 O25 1.900200 1_555
Mg0 O27 1.900200 1_545
Mg0 O5 2.193180 1_554
Mg0 O1 2.193180 1_555
Mg0 O17 2.245756 1_555
Mg0 O16 2.245756 1_555
Mg1 O18 1.900200 1_555
Mg1 O19 1.900200 1_455
Mg1 O6 2.193180 1_554
Mg1 O2 2.193180 1_555
Mg1 O26 2.245756 1_555
Mg1 O24 2.245756 1_555
Mg2 O21 2.102195 1_455
Mg2 O30 2.102195 1_545
Mg2 O20 2.102195 1_555
Mg2 O28 2.102195 1_555
Mg2 O0 2.267198 1_555
Mg2 O4 2.267198 1_555
Mg3 O29 2.095558 1_555
Mg3 O31 2.095558 1_545
Mg3 O1 2.106667 1_555
Mg3 O5 2.106667 1_555
Mg3 O20 2.212832 1_555
Mg3 O21 2.212832 1_555
Mg4 O22 2.095558 1_555
Mg4 O23 2.095558 1_455
Mg4 O2 2.106667 1_555
Mg4 O6 2.106667 1_555
Mg4 O28 2.212832 1_555
Mg4 O30 2.212832 1_555
Mg5 O3 1.898950 1_555
Mg5 O7 1.898950 1_555
Mg5 O23 2.219469 1_555
Mg5 O31 2.219469 1_555
Mg5 O22 2.219469 1_555
Mg5 O29 2.219469 1_555
Mg6 O24 2.145640 1_555
Mg6 O16 2.145640 1_555
Mg6 O8 2.147325 1_555
Mg6 O12 2.147325 1_554
Mg6 O18 2.184385 1_555
Mg6 O25 2.184385 1_555
Mg7 O17 2.145640 1_555
Mg7 O24 2.145640 1_655
Mg7 O9 2.147325 1_555
Mg7 O13 2.147325 1_554
Mg7 O19 2.184385 1_555
Mg7 O25 2.184385 1_555
Mg8 O26 2.145640 1_555
Mg8 O16 2.145640 1_565
Mg8 O10 2.147325 1_555
Mg8 O14 2.147325 1_554
Mg8 O18 2.184385 1_555
Mg8 O27 2.184385 1_555
Mg9 O17 2.145640 1_565
Mg9 O26 2.145640 1_655
Mg9 O11 2.147325 1_555
Mg9 O15 2.147325 1_554
Mg9 O19 2.184385 1_555
Mg9 O27 2.184385 1_555
Mg10 O12 2.152580 1_555
Mg10 O8 2.152580 1_555
Mg10 O22 2.156326 1_555
Mg10 O29 2.156326 1_555
Mg10 O28 2.160418 1_555
Mg10 O20 2.160418 1_555
Mg11 O9 2.152580 1_555
Mg11 O13 2.152580 1_555
Mg11 O29 2.156326 1_555
Mg11 O23 2.156326 1_555
Mg11 O21 2.160418 1_555
Mg11 O28 2.160418 1_655
Mg12 O10 2.152580 1_555
Mg12 O14 2.152580 1_555
Mg12 O22 2.156326 1_555
Mg12 O31 2.156326 1_555
Mg12 O30 2.160418 1_555
Mg12 O20 2.160418 1_565
Mg13 O11 2.152580 1_555
Mg13 O15 2.152580 1_555
Mg13 O23 2.156326 1_555
Mg13 O31 2.156326 1_555
Mg13 O21 2.160418 1_565
Mg13 O30 2.160418 1_655
Mg14 O1 2.139186 1_555
Mg14 O8 2.150346 1_555
Mg14 O10 2.150346 1_545
Mg14 O16 2.151890 1_555
Mg14 O20 2.151896 1_555
Mg14 O0 2.179413 1_555
Mg15 O1 2.139186 1_555
Mg15 O9 2.150346 1_555
Mg15 O11 2.150346 1_545
Mg15 O17 2.151890 1_555
Mg15 O21 2.151896 1_555
Mg15 O0 2.179413 1_655
Mg16 O22 2.122144 1_555
Mg16 O2 2.140686 1_555
Mg16 O10 2.165082 1_555
Mg16 O8 2.165082 1_555
Mg16 O3 2.185770 1_555
Mg16 O18 2.191412 1_555
Mg17 O23 2.122144 1_555
Mg17 O2 2.140686 1_655
Mg17 O11 2.165082 1_555
Mg17 O9 2.165082 1_555
Mg17 O3 2.185770 1_555
Mg17 O19 2.191412 1_555
Mg18 O5 2.139186 1_555
Mg18 O12 2.150346 1_555
Mg18 O14 2.150346 1_545
Mg18 O16 2.151890 1_556
Mg18 O20 2.151896 1_555
Mg18 O4 2.179413 1_555
Mg19 O5 2.139186 1_555
Mg19 O13 2.150346 1_555
Mg19 O15 2.150346 1_545
Mg19 O17 2.151890 1_556
Mg19 O21 2.151896 1_555
Mg19 O4 2.179413 1_655
Mg20 O22 2.122144 1_555
Mg20 O6 2.140686 1_555
Mg20 O14 2.165082 1_555
Mg20 O12 2.165082 1_555
Mg20 O7 2.185770 1_555
Mg20 O18 2.191412 1_556
Mg21 O23 2.122144 1_555
Mg21 O6 2.140686 1_655
Mg21 O15 2.165082 1_555
Mg21 O13 2.165082 1_555
Mg21 O7 2.185770 1_555
Mg21 O19 2.191412 1_556
Mg22 O2 2.139186 1_555
Mg22 O8 2.150346 1_555
Mg22 O9 2.150346 1_455
Mg22 O24 2.151890 1_555
Mg22 O28 2.151896 1_555
Mg22 O0 2.179413 1_555
Mg23 O29 2.122144 1_555
Mg23 O1 2.140686 1_555
Mg23 O9 2.165082 1_555
Mg23 O8 2.165082 1_555
Mg23 O3 2.185770 1_555
Mg23 O25 2.191412 1_555
Mg24 O2 2.139186 1_555
Mg24 O10 2.150346 1_555
Mg24 O11 2.150346 1_455
Mg24 O26 2.151890 1_555
Mg24 O30 2.151896 1_555
Mg24 O0 2.179413 1_565
Mg25 O31 2.122144 1_555
Mg25 O1 2.140686 1_565
Mg25 O11 2.165082 1_555
Mg25 O10 2.165082 1_555
Mg25 O3 2.185770 1_555
Mg25 O27 2.191412 1_555
Mg26 O6 2.139186 1_555
Mg26 O12 2.150346 1_555
Mg26 O13 2.150346 1_455
Mg26 O24 2.151890 1_556
Mg26 O28 2.151896 1_555
Mg26 O4 2.179413 1_555
Mg27 O29 2.122144 1_555
Mg27 O5 2.140686 1_555
Mg27 O13 2.165082 1_555
Mg27 O12 2.165082 1_555
Mg27 O7 2.185770 1_555
Mg27 O25 2.191412 1_556
Mg28 O6 2.139186 1_555
Mg28 O14 2.150346 1_555
Mg28 O15 2.150346 1_455
Mg28 O26 2.151890 1_556
Mg28 O30 2.151896 1_555
Mg28 O4 2.179413 1_565
Mg29 O31 2.122144 1_555
Mg29 O5 2.140686 1_565
Mg29 O15 2.165082 1_555
Mg29 O14 2.165082 1_555
Mg29 O7 2.185770 1_555
Mg29 O27 2.191412 1_556
Co0 O0 2.032650 1_555
Co0 O4 2.032650 1_554
Co0 O24 2.069271 1_555
Co0 O16 2.069271 1_555
Co0 O26 2.069271 1_545
Co0 O17 2.069271 1_455
O3 Rb0 2.400897 1_555
O7 Rb0 2.400897 1_556
O18 Rb0 2.414827 1_555
O19 Rb0 2.414827 1_555
O25 Rb0 2.414827 1_555
O27 Rb0 2.414827 1_555
