# generated using pymatgen
data_CaMg6Ti
_symmetry_space_group_name_H-M   'P 1'
_cell_length_a   5.20409100
_cell_length_b   6.52333500
_cell_length_c   11.30426900
_cell_angle_alpha   90.00000000
_cell_angle_beta   90.00000000
_cell_angle_gamma   90.00000000
_symmetry_Int_Tables_number   1
_chemical_formula_structural   CaMg6Ti
_chemical_formula_sum   'Ca2 Mg12 Ti2'
_cell_volume   383.75765142
_cell_formula_units_Z   2
loop_
 _symmetry_equiv_pos_site_id
 _symmetry_equiv_pos_as_xyz
  1  'x, y, z'
loop_
 _atom_site_type_symbol
 _atom_site_label
 _atom_site_symmetry_multiplicity
 _atom_site_fract_x
 _atom_site_fract_y
 _atom_site_fract_z
 _atom_site_occupancy
  Ca  Ca0  1  0.00000000  0.50000000  0.33283700  1
  Ca  Ca1  1  0.00000000  0.00000000  0.83283700  1
  Mg  Mg0  1  0.00000000  0.26257000  0.08580800  1
  Mg  Mg1  1  0.00000000  0.73743000  0.08580800  1
  Mg  Mg2  1  0.00000000  0.00000000  0.33460000  1
  Mg  Mg3  1  0.50000000  0.75504700  0.41871800  1
  Mg  Mg4  1  0.50000000  0.24495300  0.41871800  1
  Mg  Mg5  1  0.50000000  0.00000000  0.16474500  1
  Mg  Mg6  1  0.00000000  0.76257000  0.58580800  1
  Mg  Mg7  1  0.00000000  0.23743000  0.58580800  1
  Mg  Mg8  1  0.00000000  0.50000000  0.83460000  1
  Mg  Mg9  1  0.50000000  0.25504700  0.91871800  1
  Mg  Mg10  1  0.50000000  0.74495300  0.91871800  1
  Mg  Mg11  1  0.50000000  0.50000000  0.66474500  1
  Ti  Ti0  1  0.50000000  0.50000000  0.15876800  1
  Ti  Ti1  1  0.50000000  0.00000000  0.65876800  1
loop_
_geom_bond_atom_site_label_1
_geom_bond_atom_site_label_2
_geom_bond_distance
_geom_bond_site_symmetry_2
Ca0 Mg0 3.193250 1_555
Ca0 Mg1 3.193250 1_555
Ca0 Mg4 3.237472 1_455
Ca0 Mg4 3.237472 1_555
Ca0 Mg3 3.237472 1_555
Ca0 Mg3 3.237472 1_455
Ca0 Mg2 3.261728 1_565
Ca0 Mg2 3.261728 1_555
Ca0 Ti0 3.262296 1_455
Ca0 Ti0 3.262296 1_555
Ca0 Mg6 3.333377 1_555
Ca0 Mg7 3.333377 1_555
Ca1 Mg6 3.193250 1_545
Ca1 Mg7 3.193250 1_555
Ca1 Mg9 3.237472 1_555
Ca1 Mg10 3.237472 1_445
Ca1 Mg10 3.237472 1_545
Ca1 Mg9 3.237472 1_455
Ca1 Mg8 3.261728 1_555
Ca1 Mg8 3.261728 1_545
Ca1 Ti1 3.262296 1_555
Ca1 Ti1 3.262296 1_455
Ca1 Mg0 3.333377 1_556
Ca1 Mg1 3.333377 1_546
Mg0 Mg1 3.097671 1_555
Mg0 Ti0 3.138433 1_455
Mg0 Ti0 3.138433 1_555
Mg0 Mg9 3.215700 1_554
Mg0 Mg9 3.215700 1_454
Mg0 Mg8 3.234643 1_554
Mg0 Mg5 3.240475 1_455
Mg0 Mg5 3.240475 1_555
Mg0 Mg2 3.292940 1_555
Mg0 Mg1 3.425664 1_545
Mg1 Ti0 3.138433 1_555
Mg1 Ti0 3.138433 1_455
Mg1 Mg10 3.215700 1_554
Mg1 Mg10 3.215700 1_454
Mg1 Mg8 3.234643 1_554
Mg1 Mg5 3.240475 1_565
Mg1 Mg5 3.240475 1_465
Mg1 Mg2 3.292940 1_565
Mg2 Mg3 3.198149 1_545
Mg2 Mg3 3.198149 1_445
Mg2 Mg4 3.198149 1_555
Mg2 Mg4 3.198149 1_455
Mg2 Mg5 3.233786 1_555
Mg2 Mg5 3.233786 1_455
Mg2 Mg7 3.234643 1_555
Mg2 Mg6 3.234643 1_545
Mg3 Ti1 3.149109 1_565
Mg3 Mg4 3.195821 1_565
Mg3 Mg6 3.215700 1_655
Mg3 Mg6 3.215700 1_555
Mg3 Mg5 3.285702 1_565
Mg3 Mg4 3.327514 1_555
Mg3 Ti0 3.376852 1_555
Mg4 Ti1 3.149109 1_555
Mg4 Mg7 3.215700 1_555
Mg4 Mg7 3.215700 1_655
Mg4 Mg5 3.285702 1_555
Mg4 Ti0 3.376852 1_555
Mg5 Mg9 3.240820 1_554
Mg5 Ti0 3.262367 1_545
Mg5 Ti0 3.262367 1_555
Mg6 Mg7 3.097671 1_565
Mg6 Ti1 3.138433 1_465
Mg6 Ti1 3.138433 1_565
Mg6 Mg8 3.292940 1_555
Mg6 Mg7 3.425664 1_555
Mg7 Ti1 3.138433 1_455
Mg7 Ti1 3.138433 1_555
Mg7 Mg8 3.292940 1_555
Mg8 Mg9 3.198149 1_455
Mg8 Mg9 3.198149 1_555
Mg9 Ti0 3.149109 1_556
Mg9 Ti1 3.376852 1_555
Mg10 Ti0 3.149109 1_556
Mg10 Mg9 3.195821 1_555
Mg10 Mg8 3.198149 1_555
Mg10 Mg8 3.198149 1_655
Mg10 Mg5 3.240820 1_566
Mg10 Mg11 3.285702 1_555
Mg10 Mg9 3.327514 1_565
Mg10 Ti1 3.376852 1_565
Mg11 Mg8 3.233786 1_555
Mg11 Mg8 3.233786 1_655
Mg11 Mg7 3.240475 1_555
Mg11 Mg6 3.240475 1_655
Mg11 Mg7 3.240475 1_655
Mg11 Mg6 3.240475 1_555
Mg11 Mg4 3.240820 1_555
Mg11 Mg3 3.240820 1_555
Mg11 Ti1 3.262367 1_555
Mg11 Ti1 3.262367 1_565
Mg11 Mg9 3.285702 1_555
