# generated using pymatgen
data_PuUP4H4(CO8)2
_symmetry_space_group_name_H-M   'P 1'
_cell_length_a   20.33854000
_cell_length_b   5.62213000
_cell_length_c   7.21333165
_cell_angle_alpha   80.03725998
_cell_angle_beta   90.00000000
_cell_angle_gamma   90.00000000
_symmetry_Int_Tables_number   1
_chemical_formula_structural   PuUP4H4(CO8)2
_chemical_formula_sum   'Pu2 U2 P8 H8 C4 O32'
_cell_volume   812.37719151
_cell_formula_units_Z   2
loop_
 _symmetry_equiv_pos_site_id
 _symmetry_equiv_pos_as_xyz
  1  'x, y, z'
loop_
 _atom_site_type_symbol
 _atom_site_label
 _atom_site_symmetry_multiplicity
 _atom_site_fract_x
 _atom_site_fract_y
 _atom_site_fract_z
 _atom_site_occupancy
  Pu  Pu0  1  0.25000000  0.68396700  0.84713500  1
  Pu  Pu1  1  0.75000000  0.31603300  0.15286500  1
  U  U0  1  0.50000000  0.50000000  0.50000000  1
  U  U1  1  0.00000000  0.50000000  0.50000000  1
  P  P0  1  0.37836200  0.90482500  0.18087300  1
  P  P1  1  0.87836200  0.09517500  0.81912700  1
  P  P2  1  0.62163800  0.09517500  0.81912700  1
  P  P3  1  0.12163800  0.90482500  0.18087300  1
  P  P4  1  0.36487700  0.19665500  0.78440400  1
  P  P5  1  0.86487700  0.80334500  0.21559600  1
  P  P6  1  0.63512300  0.80334500  0.21559600  1
  P  P7  1  0.13512300  0.19665500  0.78440400  1
  H  H0  1  0.45149200  0.95079300  0.91392400  1
  H  H1  1  0.95149200  0.04920700  0.08607600  1
  H  H2  1  0.54850800  0.04920700  0.08607600  1
  H  H3  1  0.04850800  0.95079300  0.91392400  1
  H  H4  1  0.44774300  0.22002500  0.01703200  1
  H  H5  1  0.94774300  0.77997500  0.98296800  1
  H  H6  1  0.55225700  0.77997500  0.98296800  1
  H  H7  1  0.05225700  0.22002500  0.01703200  1
  C  C0  1  0.41881900  0.07332600  0.97435800  1
  C  C1  1  0.91881900  0.92667400  0.02564200  1
  C  C2  1  0.58118100  0.92667400  0.02564200  1
  C  C3  1  0.08118100  0.07332600  0.97435800  1
  O  O0  1  0.31856900  0.99452100  0.74700600  1
  O  O1  1  0.81856900  0.00547900  0.25299400  1
  O  O2  1  0.68143100  0.00547900  0.25299400  1
  O  O3  1  0.18143100  0.99452100  0.74700600  1
  O  O4  1  0.48928000  0.68871900  0.67750800  1
  O  O5  1  0.98928000  0.31128100  0.32249200  1
  O  O6  1  0.51072000  0.31128100  0.32249200  1
  O  O7  1  0.01072000  0.68871900  0.67750800  1
  O  O8  1  0.43147200  0.74316300  0.28848300  1
  O  O9  1  0.93147200  0.25683700  0.71151700  1
  O  O10  1  0.56852800  0.25683700  0.71151700  1
  O  O11  1  0.06852800  0.74316300  0.28848300  1
  O  O12  1  0.25000000  0.68509700  0.59704000  1
  O  O13  1  0.75000000  0.31490300  0.40296000  1
  O  O14  1  0.25000000  0.46583600  0.13399900  1
  O  O15  1  0.75000000  0.53416400  0.86600100  1
  O  O16  1  0.32133900  0.76406900  0.10484200  1
  O  O17  1  0.82133900  0.23593100  0.89515800  1
  O  O18  1  0.67866100  0.23593100  0.89515800  1
  O  O19  1  0.17866100  0.76406900  0.10484200  1
  O  O20  1  0.34574800  0.07435800  0.29775400  1
  O  O21  1  0.84574800  0.92564200  0.70224600  1
  O  O22  1  0.65425200  0.92564200  0.70224600  1
  O  O23  1  0.15425200  0.07435800  0.29775400  1
  O  O24  1  0.40836500  0.29062200  0.61483700  1
  O  O25  1  0.90836500  0.70937800  0.38516300  1
  O  O26  1  0.59163500  0.70937800  0.38516300  1
  O  O27  1  0.09163500  0.29062200  0.61483700  1
  O  O28  1  0.32502300  0.40483800  0.84797400  1
  O  O29  1  0.82502300  0.59516200  0.15202600  1
  O  O30  1  0.67497700  0.59516200  0.15202600  1
  O  O31  1  0.17497700  0.40483800  0.84797400  1
loop_
_geom_bond_atom_site_label_1
_geom_bond_atom_site_label_2
_geom_bond_distance
_geom_bond_site_symmetry_2
C0 H4 1.099497 1_556
C0 H0 1.100052 1_545
C0 P4 1.798086 1_555
C0 P0 1.818047 1_546
C1 H5 1.099497 1_554
C1 H1 1.100052 1_565
C1 P5 1.798086 1_555
C1 P1 1.818047 1_564
C2 H6 1.099497 1_554
C2 H2 1.100052 1_565
C2 P6 1.798086 1_555
C2 P2 1.818047 1_564
C3 H7 1.099497 1_556
C3 H3 1.100052 1_545
C3 P7 1.798086 1_555
C3 P3 1.818047 1_546
O0 P4 1.535371 1_565
O0 Pu0 2.253584 1_555
O1 P5 1.535371 1_545
O1 Pu1 2.253584 1_555
O2 P6 1.535371 1_545
O2 Pu1 2.253584 1_555
O3 P7 1.535371 1_565
O3 Pu0 2.253584 1_555
O4 U0 1.811856 1_555
O5 U1 1.811856 1_655
O6 U0 1.811856 1_555
O7 U1 1.811856 1_555
O8 P0 1.533386 1_555
O8 U0 2.327589 1_555
O9 P1 1.533386 1_555
O9 U1 2.327589 1_655
O10 P2 1.533386 1_555
O10 U0 2.327589 1_555
O11 P3 1.533386 1_555
O11 U1 2.327589 1_555
O12 Pu0 1.802930 1_555
O13 Pu1 1.802930 1_555
O14 Pu0 2.215327 1_554
O15 Pu1 2.215327 1_556
O16 P0 1.556355 1_555
O16 Pu0 2.460343 1_554
O17 P1 1.556355 1_555
O17 Pu1 2.460343 1_556
O18 P2 1.556355 1_555
O18 Pu1 2.460343 1_556
O19 P3 1.556355 1_555
O19 Pu0 2.460343 1_554
O20 P0 1.528836 1_545
O21 P1 1.528836 1_565
O22 P2 1.528836 1_565
O23 P3 1.528836 1_545
O24 P4 1.527709 1_555
O24 U0 2.282087 1_555
O25 P5 1.527709 1_555
O25 U1 2.282087 1_655
O26 P6 1.527709 1_555
O26 U0 2.282087 1_555
O27 P7 1.527709 1_555
O27 U1 2.282087 1_555
O28 P4 1.556572 1_555
O28 Pu0 2.188080 1_555
O29 P5 1.556572 1_555
O29 Pu1 2.188080 1_555
O30 P6 1.556572 1_555
O30 Pu1 2.188080 1_555
O31 P7 1.556572 1_555
O31 Pu0 2.188080 1_555
