# generated using pymatgen
data_Li9Mn2Co5O16
_symmetry_space_group_name_H-M   'P 1'
_cell_length_a   3.02108100
_cell_length_b   5.99858492
_cell_length_c   16.08201289
_cell_angle_alpha   90.68695181
_cell_angle_beta   90.99764887
_cell_angle_gamma   95.12057953
_symmetry_Int_Tables_number   1
_chemical_formula_structural   Li9Mn2Co5O16
_chemical_formula_sum   'Li9 Mn2 Co5 O16'
_cell_volume   290.20766340
_cell_formula_units_Z   1
loop_
 _symmetry_equiv_pos_site_id
 _symmetry_equiv_pos_as_xyz
  1  'x, y, z'
loop_
 _atom_site_type_symbol
 _atom_site_label
 _atom_site_symmetry_multiplicity
 _atom_site_fract_x
 _atom_site_fract_y
 _atom_site_fract_z
 _atom_site_occupancy
  Li  Li0  1  0.99812300  0.50020700  0.00105800  1
  Li  Li1  1  0.49704200  0.74305800  0.12837900  1
  Li  Li2  1  0.00099200  0.99979700  0.24965200  1
  Li  Li3  1  0.50023000  0.25173600  0.87340600  1
  Li  Li4  1  0.99969400  0.99840300  0.75130100  1
  Li  Li5  1  0.50028300  0.75021200  0.62499700  1
  Li  Li6  1  0.00140600  0.50164200  0.49816700  1
  Li  Li7  1  0.50194400  0.25570800  0.37355500  1
  Li  Li8  1  0.00013300  0.50080100  0.25046400  1
  Mn  Mn0  1  0.99894100  0.99927400  0.00118400  1
  Mn  Mn1  1  0.49958900  0.24927900  0.62442400  1
  Co  Co0  1  0.49434400  0.26237700  0.13063300  1
  Co  Co1  1  0.50286400  0.74003400  0.37011200  1
  Co  Co2  1  0.00062900  0.99846100  0.49794500  1
  Co  Co3  1  0.99790800  0.50234100  0.75030200  1
  Co  Co4  1  0.50222600  0.74821800  0.87490800  1
  O  O0  1  0.52151600  0.75627500  0.99403200  1
  O  O1  1  0.02283500  0.01164800  0.12166000  1
  O  O2  1  0.50460900  0.24688600  0.23823900  1
  O  O3  1  0.02425100  0.51308200  0.86920300  1
  O  O4  1  0.52414000  0.26353900  0.74630100  1
  O  O5  1  0.02465900  0.00377700  0.61844200  1
  O  O6  1  0.52442500  0.76373200  0.48982900  1
  O  O7  1  0.02198100  0.51993700  0.37511400  1
  O  O8  1  0.47727000  0.24259100  0.00960700  1
  O  O9  1  0.97861300  0.48147200  0.12552600  1
  O  O10  1  0.49691300  0.75472400  0.26241500  1
  O  O11  1  0.97573100  0.98818700  0.87910500  1
  O  O12  1  0.47593100  0.73665900  0.75600800  1
  O  O13  1  0.97578800  0.49463400  0.63031000  1
  O  O14  1  0.47776700  0.23561200  0.50315700  1
  O  O15  1  0.97722300  0.98569600  0.38056200  1
loop_
_geom_bond_atom_site_label_1
_geom_bond_atom_site_label_2
_geom_bond_distance
_geom_bond_site_symmetry_2
Li0 O9 2.007788 1_555
Li0 O0 2.109329 1_654
Li0 O8 2.112237 1_555
Li0 O3 2.125407 1_654
Li0 O0 2.199709 1_554
Li0 O8 2.213548 1_655
Li1 O9 2.115285 1_455
Li1 O10 2.155874 1_555
Li1 O1 2.164264 1_665
Li1 O0 2.165281 1_554
Li1 O9 2.233620 1_555
Li1 O1 2.251823 1_565
Li2 O10 2.034921 1_455
Li2 O2 2.039394 1_565
Li2 O1 2.062448 1_565
Li2 O15 2.110221 1_455
Li2 O10 2.199463 1_555
Li2 O2 2.207510 1_465
Li3 O4 2.048485 1_555
Li3 O3 2.128792 1_655
Li3 O11 2.140068 1_445
Li3 O8 2.193879 1_556
Li3 O3 2.220719 1_555
Li3 O11 2.230605 1_545
Li4 O11 2.059333 1_555
Li4 O12 2.130314 1_555
Li4 O5 2.139810 1_665
Li4 O4 2.145685 1_665
Li4 O12 2.223335 1_655
Li4 O4 2.237623 1_565
Li5 O5 2.100910 1_665
Li5 O13 2.107774 1_455
Li5 O12 2.111770 1_555
Li5 O6 2.178504 1_555
Li5 O5 2.185870 1_565
Li5 O13 2.193937 1_555
Li6 O7 1.985040 1_555
Li6 O13 2.128662 1_455
Li6 O6 2.134329 1_555
Li6 O14 2.147667 1_455
Li6 O6 2.229103 1_455
Li6 O14 2.243458 1_555
Li7 O14 2.091355 1_555
Li7 O7 2.129390 1_655
Li7 O15 2.168249 1_445
Li7 O2 2.176335 1_555
Li7 O7 2.241860 1_555
Li7 O15 2.260897 1_545
Li8 O7 2.006133 1_555
Li8 O9 2.010794 1_455
Li8 O2 2.043330 1_455
Li8 O10 2.045562 1_555
Li8 O10 2.254936 1_455
Li8 O2 2.258090 1_555
Mn0 O1 1.937869 1_665
Mn0 O0 1.957863 1_554
Mn0 O8 1.961845 1_665
Mn0 O11 1.963424 1_554
Mn0 O0 2.245770 1_654
Mn0 O8 2.246279 1_565
Mn1 O14 1.950677 1_555
Mn1 O4 1.960691 1_555
Mn1 O5 1.962466 1_555
Mn1 O13 1.964367 1_555
Mn1 O13 2.257621 1_455
Mn1 O5 2.261236 1_655
Co0 O2 1.734013 1_555
Co0 O9 1.880954 1_555
Co0 O8 1.948041 1_555
Co0 O1 1.979194 1_555
Co0 O9 2.127263 1_455
Co0 O1 2.294241 1_655
Co1 O10 1.735142 1_555
Co1 O7 1.877340 1_555
Co1 O6 1.928370 1_555
Co1 O15 1.965255 1_555
Co1 O7 2.139367 1_655
Co1 O15 2.267740 1_455
Co2 O15 1.888227 1_455
Co2 O6 1.922705 1_455
Co2 O14 1.932736 1_565
Co2 O5 1.937704 1_565
Co2 O6 2.214547 1_555
Co2 O14 2.220082 1_465
Co3 O3 1.912512 1_655
Co3 O12 1.923429 1_655
Co3 O13 1.929563 1_555
Co3 O4 1.932179 1_555
Co3 O12 2.206443 1_555
Co3 O4 2.234148 1_655
Co4 O12 1.912587 1_555
Co4 O0 1.915524 1_555
Co4 O3 1.926587 1_555
Co4 O11 1.936415 1_555
Co4 O3 2.209993 1_655
Co4 O11 2.239802 1_455
