# generated using pymatgen
data_Nd10As8Au3O10
_symmetry_space_group_name_H-M   'P 1'
_cell_length_a   9.87175226
_cell_length_b   9.87175226
_cell_length_c   9.87175226
_cell_angle_alpha   124.03498058
_cell_angle_beta   124.03498058
_cell_angle_gamma   83.14264522
_symmetry_Int_Tables_number   1
_chemical_formula_structural   Nd10As8Au3O10
_chemical_formula_sum   'Nd10 As8 Au3 O10'
_cell_volume   633.78171855
_cell_formula_units_Z   1
loop_
 _symmetry_equiv_pos_site_id
 _symmetry_equiv_pos_as_xyz
  1  'x, y, z'
loop_
 _atom_site_type_symbol
 _atom_site_label
 _atom_site_symmetry_multiplicity
 _atom_site_fract_x
 _atom_site_fract_y
 _atom_site_fract_z
 _atom_site_occupancy
  Nd  Nd0  1  0.33735900  0.33735900  0.00000000  1
  Nd  Nd1  1  0.66264100  0.66264100  0.00000000  1
  Nd  Nd2  1  0.11974900  0.72546300  0.19541700  1
  Nd  Nd3  1  0.53004600  0.92433200  0.80458300  1
  Nd  Nd4  1  0.72546300  0.53004600  0.60571400  1
  Nd  Nd5  1  0.92433200  0.11974900  0.39428600  1
  Nd  Nd6  1  0.88025100  0.27453700  0.80458300  1
  Nd  Nd7  1  0.46995400  0.07566800  0.19541700  1
  Nd  Nd8  1  0.27453700  0.46995400  0.39428600  1
  Nd  Nd9  1  0.07566800  0.88025100  0.60571400  1
  As  As0  1  0.24757600  0.12851300  0.37609000  1
  As  As1  1  0.75242400  0.87148700  0.62391000  1
  As  As2  1  0.12851300  0.75242400  0.88093700  1
  As  As3  1  0.87148700  0.24757600  0.11906300  1
  As  As4  1  0.26967700  0.40790700  0.67758400  1
  As  As5  1  0.73032300  0.59209300  0.32241600  1
  As  As6  1  0.40790700  0.73032300  0.13823000  1
  As  As7  1  0.59209300  0.26967700  0.86177000  1
  Au  Au0  1  0.00000000  0.00000000  0.00000000  1
  Au  Au1  1  0.00000000  0.50000000  0.50000000  1
  Au  Au2  1  0.50000000  0.00000000  0.50000000  1
  O  O0  1  0.45167600  0.35495300  0.29790700  1
  O  O1  1  0.05704600  0.15376900  0.70209300  1
  O  O2  1  0.35495300  0.05704600  0.90327700  1
  O  O3  1  0.15376900  0.45167600  0.09672300  1
  O  O4  1  0.54832400  0.64504700  0.70209300  1
  O  O5  1  0.94295400  0.84623100  0.29790700  1
  O  O6  1  0.64504700  0.94295400  0.09672300  1
  O  O7  1  0.84623100  0.54832400  0.90327700  1
  O  O8  1  0.25000000  0.75000000  0.50000000  1
  O  O9  1  0.75000000  0.25000000  0.50000000  1
loop_
_geom_bond_atom_site_label_1
_geom_bond_atom_site_label_2
_geom_bond_distance
_geom_bond_site_symmetry_2
Nd0 O3 2.390057 1_555
Nd0 O0 2.390057 1_555
Nd0 O2 2.390057 1_554
Nd0 O1 2.390057 1_554
Nd1 O6 2.390057 1_555
Nd1 O7 2.390057 1_554
Nd1 O5 2.390057 1_555
Nd1 O4 2.390057 1_554
Nd2 O7 2.330479 1_454
Nd2 O3 2.359825 1_555
Nd2 O5 2.370759 1_455
Nd2 O8 2.384114 1_555
Nd3 O6 2.330479 1_556
Nd3 O2 2.359825 1_565
Nd3 O4 2.370759 1_555
Nd3 O8 2.384114 1_555
Nd4 O4 2.330479 1_555
Nd4 O0 2.359825 1_555
Nd4 O7 2.370759 1_555
Nd4 O9 2.384114 1_555
Nd5 O5 2.330479 1_545
Nd5 O1 2.359825 1_655
Nd5 O6 2.370759 1_545
Nd5 O9 2.384114 1_555
Nd6 O3 2.330479 1_656
Nd6 O7 2.359825 1_555
Nd6 O1 2.370759 1_655
Nd6 O9 2.384114 1_555
Nd7 O2 2.330479 1_554
Nd7 O6 2.359825 1_545
Nd7 O0 2.370759 1_555
Nd7 O9 2.384114 1_555
Nd8 O0 2.330479 1_555
Nd8 O4 2.359825 1_555
Nd8 O3 2.370759 1_555
Nd8 O8 2.384114 1_555
Nd9 O1 2.330479 1_565
Nd9 O5 2.359825 1_455
Nd9 O2 2.370759 1_565
Nd9 O8 2.384114 1_555
As0 Au0 2.584053 1_555
As0 As4 2.596300 1_555
As0 Au2 2.623986 1_555
As0 Nd5 3.308637 1_455
As0 Nd8 3.308648 1_555
As0 Nd2 3.367519 1_545
As0 Nd7 3.367531 1_555
As1 Au0 2.584053 1_666
As1 As5 2.596300 1_555
As1 Au2 2.623986 1_565
As1 Nd9 3.308637 1_655
As1 Nd4 3.308648 1_555
As1 Nd6 3.367519 1_565
As1 Nd3 3.367531 1_555
As2 Au0 2.584047 1_566
As2 As6 2.596305 1_556
As2 Au1 2.623988 1_555
As2 Nd2 3.308643 1_556
As2 Nd7 3.308643 1_566
As2 Nd4 3.367523 1_455
As2 Nd9 3.367523 1_555
As3 Au0 2.584047 1_655
As3 As7 2.596305 1_554
As3 Au1 2.623988 1_655
As3 Nd6 3.308643 1_554
As3 Nd3 3.308643 1_544
As3 Nd5 3.367523 1_555
As3 Nd8 3.367523 1_655
As4 Au1 2.639856 1_555
As4 Nd8 3.205219 1_555
As4 Nd5 3.205219 1_455
As4 Nd0 3.324365 1_556
As4 Nd1 3.324365 1_556
As5 Au1 2.639856 1_655
As5 Nd4 3.205219 1_555
As5 Nd9 3.205219 1_655
As5 Nd1 3.324365 1_555
As5 Nd0 3.324365 1_555
As6 Au2 2.639856 1_565
As6 Nd7 3.205219 1_565
As6 Nd2 3.205219 1_555
As6 Nd1 3.324365 1_555
As6 Nd0 3.324365 1_555
As7 Au2 2.639856 1_555
As7 Nd3 3.205219 1_545
As7 Nd6 3.205219 1_555
As7 Nd0 3.324365 1_556
As7 Nd1 3.324365 1_556
Au1 Nd5 3.339092 1_455
Au1 Nd8 3.339092 1_555
Au1 Nd9 3.339092 1_555
Au1 Nd4 3.339092 1_455
Au2 Nd6 3.339092 1_555
Au2 Nd3 3.339092 1_545
Au2 Nd2 3.339092 1_545
Au2 Nd7 3.339092 1_555
