# generated using pymatgen
data_TbAlGe2O7
_symmetry_space_group_name_H-M   'P 1'
_cell_length_a   6.53956300
_cell_length_b   7.21994200
_cell_length_c   12.71347835
_cell_angle_alpha   62.39697472
_cell_angle_beta   90.00000000
_cell_angle_gamma   90.00000000
_symmetry_Int_Tables_number   1
_chemical_formula_structural   TbAlGe2O7
_chemical_formula_sum   'Tb4 Al4 Ge8 O28'
_cell_volume   531.94696506
_cell_formula_units_Z   4
loop_
 _symmetry_equiv_pos_site_id
 _symmetry_equiv_pos_as_xyz
  1  'x, y, z'
loop_
 _atom_site_type_symbol
 _atom_site_label
 _atom_site_symmetry_multiplicity
 _atom_site_fract_x
 _atom_site_fract_y
 _atom_site_fract_z
 _atom_site_occupancy
  Tb  Tb0  1  0.35422200  0.74180900  0.52812300  1
  Tb  Tb1  1  0.64577800  0.25819100  0.47187700  1
  Tb  Tb2  1  0.85422200  0.25819100  0.97187700  1
  Tb  Tb3  1  0.14577800  0.74180900  0.02812300  1
  Al  Al0  1  0.39831800  0.71088500  0.27119300  1
  Al  Al1  1  0.60168200  0.28911500  0.72880700  1
  Al  Al2  1  0.89831800  0.28911500  0.22880700  1
  Al  Al3  1  0.10168200  0.71088500  0.77119300  1
  Ge  Ge0  1  0.65782100  0.71212600  0.04770300  1
  Ge  Ge1  1  0.34217900  0.28787400  0.95229700  1
  Ge  Ge2  1  0.15782100  0.28787400  0.45229700  1
  Ge  Ge3  1  0.84217900  0.71212600  0.54770300  1
  Ge  Ge4  1  0.91005700  0.80245000  0.27884400  1
  Ge  Ge5  1  0.08994300  0.19755000  0.72115600  1
  Ge  Ge6  1  0.41005700  0.19755000  0.22115600  1
  Ge  Ge7  1  0.58994300  0.80245000  0.77884400  1
  O  O0  1  0.37583400  0.92468400  0.30677300  1
  O  O1  1  0.62416600  0.07531600  0.69322700  1
  O  O2  1  0.87583400  0.07531600  0.19322700  1
  O  O3  1  0.12416600  0.92468400  0.80677300  1
  O  O4  1  0.82836700  0.91066800  0.02251800  1
  O  O5  1  0.17163300  0.08933200  0.97748200  1
  O  O6  1  0.32836700  0.08933200  0.47748200  1
  O  O7  1  0.67163300  0.91066800  0.52251800  1
  O  O8  1  0.61564000  0.27800000  0.27989000  1
  O  O9  1  0.38436000  0.72200000  0.72011000  1
  O  O10  1  0.11564000  0.72200000  0.22011000  1
  O  O11  1  0.88436000  0.27800000  0.77989000  1
  O  O12  1  0.00383700  0.74894600  0.42564100  1
  O  O13  1  0.99616300  0.25105400  0.57435900  1
  O  O14  1  0.50383700  0.25105400  0.07435900  1
  O  O15  1  0.49616300  0.74894600  0.92564100  1
  O  O16  1  0.44385000  0.70590400  0.13291700  1
  O  O17  1  0.55615000  0.29409600  0.86708300  1
  O  O18  1  0.94385000  0.29409600  0.36708300  1
  O  O19  1  0.05615000  0.70590400  0.63291700  1
  O  O20  1  0.84471700  0.51015400  0.08243200  1
  O  O21  1  0.15528300  0.48984600  0.91756800  1
  O  O22  1  0.34471700  0.48984600  0.41756800  1
  O  O23  1  0.65528300  0.51015400  0.58243200  1
  O  O24  1  0.68202600  0.65618200  0.31328700  1
  O  O25  1  0.31797400  0.34381800  0.68671300  1
  O  O26  1  0.18202600  0.34381800  0.18671300  1
  O  O27  1  0.81797400  0.65618200  0.81328700  1
loop_
_geom_bond_atom_site_label_1
_geom_bond_atom_site_label_2
_geom_bond_distance
_geom_bond_site_symmetry_2
Al0 O16 1.799721 1_555
Al0 O0 1.804451 1_555
Al0 O22 1.838667 1_555
Al0 O24 1.920613 1_555
Al0 O10 1.948642 1_555
Al1 O17 1.799721 1_555
Al1 O1 1.804451 1_555
Al1 O23 1.838667 1_555
Al1 O25 1.920613 1_555
Al1 O11 1.948642 1_555
Al2 O18 1.799721 1_555
Al2 O2 1.804451 1_555
Al2 O20 1.838667 1_555
Al2 O26 1.920613 1_655
Al2 O8 1.948642 1_555
Al3 O19 1.799721 1_555
Al3 O3 1.804451 1_555
Al3 O21 1.838667 1_555
Al3 O27 1.920613 1_455
Al3 O9 1.948642 1_555
Ge0 O4 1.725077 1_555
Ge0 O16 1.757435 1_555
Ge0 O15 1.792813 1_554
Ge0 O20 1.794030 1_555
Ge1 O5 1.725077 1_555
Ge1 O17 1.757435 1_555
Ge1 O14 1.792813 1_556
Ge1 O21 1.794030 1_555
Ge2 O6 1.725077 1_555
Ge2 O18 1.757435 1_455
Ge2 O13 1.792813 1_455
Ge2 O22 1.794030 1_555
Ge3 O7 1.725077 1_555
Ge3 O19 1.757435 1_655
Ge3 O12 1.792813 1_655
Ge3 O23 1.794030 1_555
Ge4 O24 1.761306 1_555
Ge4 O10 1.761919 1_655
Ge4 O2 1.768872 1_565
Ge4 O12 1.827656 1_655
Ge5 O25 1.761306 1_555
Ge5 O11 1.761919 1_455
Ge5 O3 1.768872 1_545
Ge5 O13 1.827656 1_455
Ge6 O26 1.761306 1_555
Ge6 O8 1.761919 1_555
Ge6 O0 1.768872 1_545
Ge6 O14 1.827656 1_555
Ge7 O27 1.761306 1_555
Ge7 O9 1.761919 1_555
Ge7 O1 1.768872 1_565
Ge7 O15 1.827656 1_555
O0 Tb0 2.497878 1_555
O1 Tb1 2.497878 1_555
O2 Tb2 2.497878 1_554
O3 Tb3 2.497878 1_556
O4 Tb2 2.289471 1_564
O4 Tb3 2.391559 1_655
O5 Tb3 2.289471 1_546
O5 Tb2 2.391559 1_455
O6 Tb0 2.289471 1_545
O6 Tb1 2.391559 1_555
O7 Tb1 2.289471 1_565
O7 Tb0 2.391559 1_555
O8 Tb1 2.386089 1_555
O9 Tb0 2.386089 1_555
O10 Tb3 2.386089 1_555
O11 Tb2 2.386089 1_555
O12 Tb0 2.624566 1_555
O13 Tb1 2.624566 1_555
O14 Tb2 2.624566 1_554
O15 Tb3 2.624566 1_556
O16 Tb3 2.306898 1_555
O17 Tb2 2.306898 1_555
O18 Tb1 2.306898 1_555
O19 Tb0 2.306898 1_555
O20 Tb3 2.465798 1_655
O20 Tb2 2.767342 1_554
O21 Tb2 2.465798 1_455
O21 Tb3 2.767342 1_556
O22 Tb1 2.465798 1_555
O22 Tb0 2.767342 1_555
O23 Tb0 2.465798 1_555
O23 Tb1 2.767342 1_555
O24 Tb1 2.647525 1_555
O25 Tb0 2.647525 1_555
O26 Tb3 2.647525 1_555
O27 Tb2 2.647525 1_555
