# generated using pymatgen
data_Nd(BRu)2
_symmetry_space_group_name_H-M   'P 1'
_cell_length_a   8.28970100
_cell_length_b   8.28970100
_cell_length_c   12.70419900
_cell_angle_alpha   109.04182439
_cell_angle_beta   109.04182439
_cell_angle_gamma   90.00000000
_symmetry_Int_Tables_number   1
_chemical_formula_structural   Nd(BRu)2
_chemical_formula_sum   'Nd8 B16 Ru16'
_cell_volume   774.53854224
_cell_formula_units_Z   8
loop_
 _symmetry_equiv_pos_site_id
 _symmetry_equiv_pos_as_xyz
  1  'x, y, z'
loop_
 _atom_site_type_symbol
 _atom_site_label
 _atom_site_symmetry_multiplicity
 _atom_site_fract_x
 _atom_site_fract_y
 _atom_site_fract_z
 _atom_site_occupancy
  Nd  Nd0  1  0.12500000  0.37500000  0.25000000  1
  Nd  Nd1  1  0.12500000  0.87500000  0.25000000  1
  Nd  Nd2  1  0.12500000  0.87500000  0.75000000  1
  Nd  Nd3  1  0.62500000  0.37500000  0.25000000  1
  Nd  Nd4  1  0.62500000  0.87500000  0.75000000  1
  Nd  Nd5  1  0.62500000  0.87500000  0.25000000  1
  Nd  Nd6  1  0.62500000  0.37500000  0.75000000  1
  Nd  Nd7  1  0.12500000  0.37500000  0.75000000  1
  B  B0  1  0.35491000  0.36355600  0.57863100  1
  B  B1  1  0.22372200  0.21507500  0.57863100  1
  B  B2  1  0.46507500  0.10491000  0.07863100  1
  B  B3  1  0.39509000  0.03492500  0.92136900  1
  B  B4  1  0.89509000  0.38644400  0.92136900  1
  B  B5  1  0.61355600  0.97372200  0.07863100  1
  B  B6  1  0.52627800  0.88644400  0.92136900  1
  B  B7  1  0.02627800  0.53492500  0.92136900  1
  B  B8  1  0.28492500  0.27627800  0.42136900  1
  B  B9  1  0.78492500  0.64509000  0.42136900  1
  B  B10  1  0.13644400  0.14509000  0.42136900  1
  B  B11  1  0.63644400  0.77627800  0.42136900  1
  B  B12  1  0.85491000  0.71507500  0.57863100  1
  B  B13  1  0.72372200  0.86355600  0.57863100  1
  B  B14  1  0.11355600  0.60491000  0.07863100  1
  B  B15  1  0.96507500  0.47372200  0.07863100  1
  Ru  Ru0  1  0.54130600  0.27016100  0.49017500  1
  Ru  Ru1  1  0.94887000  0.22001400  0.49017500  1
  Ru  Ru2  1  0.47001400  0.29130600  0.99017500  1
  Ru  Ru3  1  0.20869400  0.02998600  0.00982500  1
  Ru  Ru4  1  0.70869400  0.47983900  0.00982500  1
  Ru  Ru5  1  0.52016100  0.69887000  0.99017500  1
  Ru  Ru6  1  0.80113000  0.97983900  0.00982500  1
  Ru  Ru7  1  0.30113100  0.52998600  0.00982500  1
  Ru  Ru8  1  0.27998600  0.55113000  0.50982500  1
  Ru  Ru9  1  0.77998600  0.45869400  0.50982500  1
  Ru  Ru10  1  0.22983900  0.95869400  0.50982500  1
  Ru  Ru11  1  0.72983900  0.05113100  0.50982500  1
  Ru  Ru12  1  0.04130600  0.72001400  0.49017500  1
  Ru  Ru13  1  0.44886900  0.77016100  0.49017500  1
  Ru  Ru14  1  0.02016100  0.79130600  0.99017500  1
  Ru  Ru15  1  0.97001400  0.19887000  0.99017500  1
loop_
_geom_bond_atom_site_label_1
_geom_bond_atom_site_label_2
_geom_bond_distance
_geom_bond_site_symmetry_2
Nd0 Ru15 2.960767 1_454
Nd0 Ru8 2.960767 1_555
Nd1 Ru10 2.960768 1_555
Nd1 Ru14 2.960768 1_554
Nd2 Ru12 2.960768 1_555
Nd2 Ru3 2.960768 1_566
Nd3 Ru9 2.960768 1_555
Nd3 Ru2 2.960768 1_554
Nd4 Ru6 2.960767 1_556
Nd4 Ru13 2.960768 1_555
Nd5 Ru5 2.960767 1_554
Nd5 Ru11 2.960768 1_565
Nd6 Ru0 2.960768 1_555
Nd6 Ru4 2.960768 1_556
Nd7 Ru1 2.960767 1_455
Nd7 Ru7 2.960768 1_556
B0 B1 1.642468 1_555
B0 B8 1.775408 1_555
B0 Ru8 2.024923 1_555
B0 Ru0 2.194337 1_555
B0 Nd6 2.538960 1_555
B1 B10 1.775408 1_555
B1 Ru10 2.024929 1_545
B1 Ru1 2.194337 1_455
B1 Nd7 2.538965 1_555
B2 B5 1.642468 1_545
B2 B3 1.775407 1_554
B2 Ru3 2.024931 1_555
B2 Ru2 2.194337 1_554
B2 Nd3 2.538960 1_555
B3 B6 1.642468 1_545
B3 Ru2 2.024931 1_555
B3 Ru3 2.194337 1_556
B3 Nd2 2.538960 1_545
B4 B7 1.642468 1_655
B4 Ru15 2.024923 1_555
B4 Ru4 2.194337 1_556
B4 Nd6 2.538960 1_555
B5 B6 1.775408 1_554
B5 Ru6 2.024922 1_555
B5 Ru5 2.194337 1_554
B5 Nd5 2.538965 1_555
B6 Ru5 2.024922 1_555
B6 Ru6 2.194337 1_556
B6 Nd4 2.538965 1_555
B7 Ru14 2.024929 1_555
B7 Ru7 2.194344 1_556
B7 Nd7 2.538965 1_555
B8 Ru0 2.024929 1_555
B8 Ru8 2.194337 1_555
B8 Nd0 2.538965 1_555
B9 Ru12 2.024931 1_655
B9 Ru9 2.194337 1_555
B9 Nd3 2.538960 1_555
B10 B8 1.642468 1_555
B10 Ru1 2.024923 1_455
B10 Ru10 2.194337 1_545
B10 Nd1 2.538960 1_545
B11 B9 1.642468 1_555
B11 B13 1.775408 1_555
B11 Ru13 2.024929 1_555
B11 Ru11 2.194344 1_565
B11 Nd5 2.538965 1_555
B12 B13 1.642468 1_555
B12 B9 1.775407 1_555
B12 Ru9 2.024931 1_555
B12 Ru12 2.194337 1_655
B12 Nd2 2.538960 1_655
B13 Ru11 2.024929 1_565
B13 Ru13 2.194344 1_555
B13 Nd4 2.538965 1_555
B14 B15 1.642468 1_455
B14 B7 1.775408 1_554
B14 Ru7 2.024931 1_555
B14 Ru14 2.194337 1_554
B14 Nd1 2.538960 1_555
B15 B4 1.775408 1_554
B15 Ru4 2.024929 1_555
B15 Ru15 2.194337 1_554
B15 Nd0 2.538965 1_655
Ru0 Ru11 2.417197 1_555
Ru0 Ru9 2.417197 1_555
Ru1 Ru9 2.417202 1_555
Ru1 Ru11 2.417204 1_555
Ru2 Ru7 2.417197 1_556
Ru2 Ru4 2.417197 1_556
Ru4 Ru5 2.417204 1_554
Ru5 Ru7 2.417202 1_556
Ru10 Ru13 2.417197 1_555
Ru10 Ru12 2.417197 1_555
Ru12 Ru8 2.417202 1_555
Ru13 Ru8 2.417204 1_555
Ru14 Ru3 2.417197 1_566
Ru14 Ru6 2.417204 1_456
Ru15 Ru3 2.417202 1_656
Ru15 Ru6 2.417209 1_546
