# generated using pymatgen
data_AgSbTe2
_symmetry_space_group_name_H-M   'P 1'
_cell_length_a   6.23138000
_cell_length_b   11.57968751
_cell_length_c   16.33693716
_cell_angle_alpha   107.39053373
_cell_angle_beta   90.00000000
_cell_angle_gamma   90.00000000
_symmetry_Int_Tables_number   1
_chemical_formula_structural   AgSbTe2
_chemical_formula_sum   'Ag8 Sb8 Te16'
_cell_volume   1124.94673796
_cell_formula_units_Z   8
loop_
 _symmetry_equiv_pos_site_id
 _symmetry_equiv_pos_as_xyz
  1  'x, y, z'
loop_
 _atom_site_type_symbol
 _atom_site_label
 _atom_site_symmetry_multiplicity
 _atom_site_fract_x
 _atom_site_fract_y
 _atom_site_fract_z
 _atom_site_occupancy
  Ag  Ag0_0  1  0.00000000  0.00000000  0.00000000  1
  Ag  Ag0_1  1  0.00000000  0.00000000  0.50000000  1
  Ag  Ag0_2  1  0.00000000  0.50000000  0.00000000  1
  Ag  Ag0_3  1  0.00000000  0.50000000  0.50000000  1
  Ag  Ag0_4  1  0.50000000  0.00000000  0.00000000  1
  Ag  Ag0_5  1  0.50000000  0.00000000  0.50000000  1
  Ag  Ag0_6  1  0.50000000  0.50000000  0.00000000  1
  Ag  Ag0_7  1  0.50000000  0.50000000  0.50000000  1
  Sb  Sb0_0  1  0.00000000  0.00000000  0.25000000  1
  Sb  Sb0_1  1  0.00000000  0.00000000  0.75000000  1
  Sb  Sb0_2  1  0.00000000  0.50000000  0.25000000  1
  Sb  Sb0_3  1  0.00000000  0.50000000  0.75000000  1
  Sb  Sb0_4  1  0.50000000  0.00000000  0.25000000  1
  Sb  Sb0_5  1  0.50000000  0.00000000  0.75000000  1
  Sb  Sb0_6  1  0.50000000  0.50000000  0.25000000  1
  Sb  Sb0_7  1  0.50000000  0.50000000  0.75000000  1
  Te  Te0_0  1  0.00000000  0.25000000  0.25000000  1
  Te  Te0_1  1  0.00000000  0.25000000  0.75000000  1
  Te  Te0_2  1  0.00000000  0.75000000  0.25000000  1
  Te  Te0_3  1  0.00000000  0.75000000  0.75000000  1
  Te  Te0_4  1  0.50000000  0.25000000  0.25000000  1
  Te  Te0_5  1  0.50000000  0.25000000  0.75000000  1
  Te  Te0_6  1  0.50000000  0.75000000  0.25000000  1
  Te  Te0_7  1  0.50000000  0.75000000  0.75000000  1
  Te  Te1_0  1  0.00000000  0.25000000  0.00000000  1
  Te  Te1_1  1  0.00000000  0.25000000  0.50000000  1
  Te  Te1_2  1  0.00000000  0.75000000  0.00000000  1
  Te  Te1_3  1  0.00000000  0.75000000  0.50000000  1
  Te  Te1_4  1  0.50000000  0.25000000  0.00000000  1
  Te  Te1_5  1  0.50000000  0.25000000  0.50000000  1
  Te  Te1_6  1  0.50000000  0.75000000  0.00000000  1
  Te  Te1_7  1  0.50000000  0.75000000  0.50000000  1
loop_
_geom_bond_atom_site_label_1
_geom_bond_atom_site_label_2
_geom_bond_distance
_geom_bond_site_symmetry_2
Ag0_0 Te1_2 2.894922 1_545
Ag0_0 Te1_0 2.894922 1_555
Ag0_0 Ag0_4 3.115690 1_455
Ag0_0 Ag0_4 3.115690 1_555
Ag0_1 Te1_3 2.894922 1_545
Ag0_1 Te1_1 2.894922 1_555
Ag0_1 Ag0_5 3.115690 1_455
Ag0_1 Ag0_5 3.115690 1_555
Ag0_2 Te1_0 2.894922 1_555
Ag0_2 Te1_2 2.894922 1_555
Ag0_2 Ag0_6 3.115690 1_455
Ag0_2 Ag0_6 3.115690 1_555
Ag0_3 Te1_3 2.894922 1_555
Ag0_3 Te1_1 2.894922 1_555
Ag0_3 Ag0_7 3.115690 1_555
Ag0_3 Ag0_7 3.115690 1_455
Ag0_4 Te1_6 2.894922 1_545
Ag0_4 Te1_4 2.894922 1_555
Ag0_5 Te1_7 2.894922 1_545
Ag0_5 Te1_5 2.894922 1_555
Ag0_6 Te1_4 2.894922 1_555
Ag0_6 Te1_6 2.894922 1_555
Ag0_7 Te1_7 2.894922 1_555
Ag0_7 Te1_5 2.894922 1_555
Sb0_0 Te0_2 2.894922 1_545
Sb0_0 Te0_0 2.894922 1_555
Sb0_0 Sb0_4 3.115690 1_555
Sb0_0 Sb0_4 3.115690 1_455
Sb0_1 Te0_3 2.894922 1_545
Sb0_1 Te0_1 2.894922 1_555
Sb0_1 Sb0_5 3.115690 1_555
Sb0_1 Sb0_5 3.115690 1_455
Sb0_2 Te0_0 2.894922 1_555
Sb0_2 Te0_2 2.894922 1_555
Sb0_2 Sb0_6 3.115690 1_555
Sb0_2 Sb0_6 3.115690 1_455
Sb0_3 Te0_1 2.894922 1_555
Sb0_3 Te0_3 2.894922 1_555
Sb0_3 Sb0_7 3.115690 1_555
Sb0_3 Sb0_7 3.115690 1_455
Sb0_4 Te0_6 2.894922 1_545
Sb0_4 Te0_4 2.894922 1_555
Sb0_5 Te0_7 2.894922 1_545
Sb0_5 Te0_5 2.894922 1_555
Sb0_6 Te0_4 2.894922 1_555
Sb0_6 Te0_6 2.894922 1_555
Sb0_7 Te0_5 2.894922 1_555
Sb0_7 Te0_7 2.894922 1_555
Te0_0 Te0_4 3.115690 1_555
Te0_0 Te0_4 3.115690 1_455
Te0_1 Te0_5 3.115690 1_455
Te0_1 Te0_5 3.115690 1_555
Te0_2 Te0_6 3.115690 1_555
Te0_2 Te0_6 3.115690 1_455
Te0_3 Te0_7 3.115690 1_455
Te0_3 Te0_7 3.115690 1_555
Te1_0 Te1_4 3.115690 1_455
Te1_0 Te1_4 3.115690 1_555
Te1_1 Te1_5 3.115690 1_555
Te1_1 Te1_5 3.115690 1_455
Te1_2 Te1_6 3.115690 1_555
Te1_2 Te1_6 3.115690 1_455
Te1_3 Te1_7 3.115690 1_555
Te1_3 Te1_7 3.115690 1_455
