# generated using pymatgen
data_Gd4CoB13
_symmetry_space_group_name_H-M   'P 1'
_cell_length_a   7.37804100
_cell_length_b   7.37804100
_cell_length_c   6.99835000
_cell_angle_alpha   90.00000000
_cell_angle_beta   90.00000000
_cell_angle_gamma   90.00000000
_symmetry_Int_Tables_number   1
_chemical_formula_structural   Gd4CoB13
_chemical_formula_sum   'Gd8 Co2 B26'
_cell_volume   380.95860443
_cell_formula_units_Z   2
loop_
 _symmetry_equiv_pos_site_id
 _symmetry_equiv_pos_as_xyz
  1  'x, y, z'
loop_
 _atom_site_type_symbol
 _atom_site_label
 _atom_site_symmetry_multiplicity
 _atom_site_fract_x
 _atom_site_fract_y
 _atom_site_fract_z
 _atom_site_occupancy
  Gd  Gd0  1  0.68472800  0.18183100  0.50000000  1
  Gd  Gd1  1  0.31527200  0.81816900  0.50000000  1
  Gd  Gd2  1  0.18472800  0.31816900  0.00000000  1
  Gd  Gd3  1  0.81527200  0.68183100  0.00000000  1
  Gd  Gd4  1  0.81816900  0.68472800  0.50000000  1
  Gd  Gd5  1  0.18183100  0.31527200  0.50000000  1
  Gd  Gd6  1  0.68183100  0.18472800  0.00000000  1
  Gd  Gd7  1  0.31816900  0.81527200  0.00000000  1
  Co  Co0  1  0.50000000  0.50000000  0.50000000  1
  Co  Co1  1  0.00000000  0.00000000  0.00000000  1
  B  B0  1  0.50000000  0.50000000  0.00000000  1
  B  B1  1  0.00000000  0.00000000  0.50000000  1
  B  B2  1  0.90874900  0.40874900  0.25000000  1
  B  B3  1  0.09125100  0.59125100  0.25000000  1
  B  B4  1  0.40874900  0.09125100  0.75000000  1
  B  B5  1  0.59125100  0.90874900  0.75000000  1
  B  B6  1  0.59125100  0.90874900  0.25000000  1
  B  B7  1  0.40874900  0.09125100  0.25000000  1
  B  B8  1  0.90874900  0.40874900  0.75000000  1
  B  B9  1  0.09125100  0.59125100  0.75000000  1
  B  B10  1  0.53924500  0.66915200  0.24558200  1
  B  B11  1  0.46075500  0.33084800  0.24558200  1
  B  B12  1  0.03924500  0.83084800  0.74558200  1
  B  B13  1  0.96075500  0.16915200  0.74558200  1
  B  B14  1  0.33084800  0.53924500  0.24558200  1
  B  B15  1  0.66915200  0.46075500  0.24558200  1
  B  B16  1  0.16915200  0.03924500  0.74558200  1
  B  B17  1  0.83084800  0.96075500  0.74558200  1
  B  B18  1  0.46075500  0.33084800  0.75441800  1
  B  B19  1  0.53924500  0.66915200  0.75441800  1
  B  B20  1  0.96075500  0.16915200  0.25441800  1
  B  B21  1  0.03924500  0.83084800  0.25441800  1
  B  B22  1  0.66915200  0.46075500  0.75441800  1
  B  B23  1  0.33084800  0.53924500  0.75441800  1
  B  B24  1  0.83084800  0.96075500  0.25441800  1
  B  B25  1  0.16915200  0.03924500  0.25441800  1
loop_
_geom_bond_atom_site_label_1
_geom_bond_atom_site_label_2
_geom_bond_distance
_geom_bond_site_symmetry_2
Co0 Gd0 2.714437 1_555
Co0 Gd4 2.714437 1_555
Co0 Gd1 2.714437 1_555
Co0 Gd5 2.714437 1_555
Co1 Gd2 2.714437 1_555
Co1 Gd7 2.714437 1_545
Co1 Gd3 2.714437 1_445
Co1 Gd6 2.714437 1_455
B0 B22 2.143640 1_554
B0 B15 2.143640 1_555
B0 B19 2.143640 1_554
B0 B10 2.143640 1_555
B0 B23 2.143640 1_554
B0 B14 2.143640 1_555
B0 B11 2.143640 1_555
B0 B18 2.143640 1_554
B0 Gd6 2.685231 1_555
B0 Gd3 2.685231 1_555
B0 Gd7 2.685231 1_555
B0 Gd2 2.685231 1_555
B1 B12 2.143640 1_545
B1 B13 2.143640 1_455
B1 B21 2.143640 1_545
B1 B24 2.143640 1_445
B1 B16 2.143640 1_555
B1 B17 2.143640 1_445
B1 B20 2.143640 1_455
B1 B25 2.143640 1_555
B1 Gd0 2.685231 1_455
B1 Gd1 2.685231 1_545
B1 Gd4 2.685231 1_445
B1 Gd5 2.685231 1_555
B2 B20 1.809184 1_555
B2 B3 1.904249 1_655
B2 Gd3 2.756115 1_555
B2 Gd5 2.756115 1_655
B2 Gd2 2.766538 1_655
B2 Gd4 2.766538 1_555
B2 Gd0 2.931877 1_555
B2 Gd6 2.931877 1_555
B3 Gd2 2.756115 1_555
B3 Gd4 2.756115 1_455
B3 Gd5 2.766538 1_555
B3 Gd3 2.766538 1_455
B3 Gd7 2.931877 1_555
B3 Gd1 2.931877 1_555
B4 B5 1.904249 1_545
B4 Gd6 2.756115 1_556
B4 Gd1 2.756115 1_545
B4 Gd7 2.766538 1_546
B4 Gd0 2.766538 1_555
B4 Gd5 2.931877 1_555
B4 Gd2 2.931877 1_556
B5 Gd7 2.756115 1_556
B5 Gd0 2.756115 1_565
B5 Gd6 2.766538 1_566
B5 Gd1 2.766538 1_555
B5 Gd3 2.931877 1_556
B5 Gd4 2.931877 1_555
B6 B7 1.904249 1_565
B6 Gd7 2.756115 1_555
B6 Gd0 2.756115 1_565
B6 Gd6 2.766538 1_565
B6 Gd1 2.766538 1_555
B6 Gd3 2.931877 1_555
B6 Gd4 2.931877 1_555
B7 Gd6 2.756115 1_555
B7 Gd1 2.756115 1_545
B7 Gd7 2.766538 1_545
B7 Gd0 2.766538 1_555
B7 Gd5 2.931877 1_555
B7 Gd2 2.931877 1_555
B8 B9 1.904249 1_655
B8 Gd3 2.756115 1_556
B8 Gd5 2.756115 1_655
B8 Gd2 2.766538 1_656
B8 Gd4 2.766538 1_555
B8 Gd0 2.931877 1_555
B8 Gd6 2.931877 1_556
B9 Gd2 2.756115 1_556
B9 Gd4 2.756115 1_455
B9 Gd3 2.766538 1_456
B9 Gd5 2.766538 1_555
B9 Gd7 2.931877 1_556
B9 Gd1 2.931877 1_555
B10 B6 1.809184 1_555
B10 B15 1.811833 1_555
B10 B14 1.811833 1_555
B10 Co0 2.193530 1_555
B10 Gd7 2.603188 1_555
B10 Gd1 2.666402 1_555
B10 Gd3 2.666470 1_555
B10 Gd4 2.723677 1_555
B11 B7 1.809184 1_555
B11 B15 1.811833 1_555
B11 B14 1.811833 1_555
B11 Co0 2.193530 1_555
B11 Gd6 2.603188 1_555
B11 Gd0 2.666402 1_555
B11 Gd2 2.666470 1_555
B11 Gd5 2.723677 1_555
B12 B9 1.809184 1_555
B12 B16 1.811833 1_565
B12 B17 1.811833 1_455
B12 Co1 2.193530 1_566
B12 Gd4 2.603188 1_455
B12 Gd3 2.666402 1_456
B12 Gd1 2.666470 1_555
B12 Gd7 2.723677 1_556
B13 B8 1.809184 1_555
B13 B16 1.811833 1_655
B13 B17 1.811833 1_545
B13 Co1 2.193530 1_656
B13 Gd5 2.603188 1_655
B13 Gd2 2.666402 1_656
B13 Gd0 2.666470 1_555
B13 Gd6 2.723677 1_556
B14 B3 1.809184 1_555
B14 Co0 2.193530 1_555
B14 Gd2 2.603188 1_555
B14 Gd5 2.666402 1_555
B14 Gd7 2.666470 1_555
B14 Gd1 2.723677 1_555
B15 B2 1.809184 1_555
B15 Co0 2.193530 1_555
B15 Gd3 2.603188 1_555
B15 Gd4 2.666402 1_555
B15 Gd6 2.666470 1_555
B15 Gd0 2.723677 1_555
B16 B4 1.809184 1_555
B16 Co1 2.193530 1_556
B16 Gd1 2.603188 1_545
B16 Gd7 2.666402 1_546
B16 Gd5 2.666470 1_555
B16 Gd2 2.723677 1_556
B17 B5 1.809184 1_555
B17 Co1 2.193530 1_666
B17 Gd0 2.603188 1_565
B17 Gd6 2.666402 1_566
B17 Gd4 2.666470 1_555
B17 Gd3 2.723677 1_556
B18 B4 1.809184 1_555
B18 B22 1.811833 1_555
B18 B23 1.811833 1_555
B18 Co0 2.193530 1_555
B18 Gd6 2.603188 1_556
B18 Gd0 2.666402 1_555
B18 Gd2 2.666470 1_556
B18 Gd5 2.723677 1_555
B19 B5 1.809184 1_555
B19 B22 1.811833 1_555
B19 B23 1.811833 1_555
B19 Co0 2.193530 1_555
B19 Gd7 2.603188 1_556
B19 Gd1 2.666402 1_555
B19 Gd3 2.666470 1_556
B19 Gd4 2.723677 1_555
B20 B25 1.811833 1_655
B20 B24 1.811833 1_545
B20 Co1 2.193530 1_655
B20 Gd5 2.603188 1_655
B20 Gd2 2.666402 1_655
B20 Gd0 2.666470 1_555
B20 Gd6 2.723677 1_555
B21 B3 1.809184 1_555
B21 B24 1.811833 1_455
B21 B25 1.811833 1_565
B21 Co1 2.193530 1_565
B21 Gd4 2.603188 1_455
B21 Gd3 2.666402 1_455
B21 Gd1 2.666470 1_555
B21 Gd7 2.723677 1_555
B22 B8 1.809184 1_555
B22 Co0 2.193530 1_555
B22 Gd3 2.603188 1_556
B22 Gd4 2.666402 1_555
B22 Gd6 2.666470 1_556
B22 Gd0 2.723677 1_555
B23 B9 1.809184 1_555
B23 Co0 2.193530 1_555
B23 Gd2 2.603188 1_556
B23 Gd5 2.666402 1_555
B23 Gd7 2.666470 1_556
B23 Gd1 2.723677 1_555
B24 B6 1.809184 1_555
B24 Co1 2.193530 1_665
B24 Gd0 2.603188 1_565
B24 Gd6 2.666402 1_565
B24 Gd4 2.666470 1_555
B24 Gd3 2.723677 1_555
B25 B7 1.809184 1_555
B25 Co1 2.193530 1_555
B25 Gd1 2.603188 1_545
B25 Gd7 2.666402 1_545
B25 Gd5 2.666470 1_555
B25 Gd2 2.723677 1_555
