# generated using pymatgen
data_Li2TiV3O8
_symmetry_space_group_name_H-M   'P 1'
_cell_length_a   5.98007036
_cell_length_b   10.38552738
_cell_length_c   5.98170628
_cell_angle_alpha   90.39314063
_cell_angle_beta   60.08166693
_cell_angle_gamma   73.66643577
_symmetry_Int_Tables_number   1
_chemical_formula_structural   Li2TiV3O8
_chemical_formula_sum   'Li4 Ti2 V6 O16'
_cell_volume   304.12559581
_cell_formula_units_Z   2
loop_
 _symmetry_equiv_pos_site_id
 _symmetry_equiv_pos_as_xyz
  1  'x, y, z'
loop_
 _atom_site_type_symbol
 _atom_site_label
 _atom_site_symmetry_multiplicity
 _atom_site_fract_x
 _atom_site_fract_y
 _atom_site_fract_z
 _atom_site_occupancy
  Li  Li0  1  0.12710400  0.06356000  0.18293500  1
  Li  Li1  1  0.12058300  0.56407000  0.69196400  1
  Li  Li2  1  0.87162400  0.43595000  0.31559500  1
  Li  Li3  1  0.88078300  0.93637700  0.80913500  1
  Ti  Ti0  1  0.49330100  0.25401600  0.75518700  1
  Ti  Ti1  1  0.50022700  0.74651700  0.25104600  1
  V  V0  1  0.50017200  0.75070200  0.75088700  1
  V  V1  1  0.99891600  0.24978800  0.74941300  1
  V  V2  1  0.49599100  0.49993000  0.00418000  1
  V  V3  1  0.49992700  0.24676800  0.24959500  1
  V  V4  1  0.99836000  0.75214200  0.25328400  1
  V  V5  1  0.50855100  0.00005000  0.49158100  1
  O  O0  1  0.27153500  0.13942100  0.37446300  1
  O  O1  1  0.24083900  0.63502100  0.91670500  1
  O  O2  1  0.71802000  0.36503000  0.12422100  1
  O  O3  1  0.76588000  0.86069900  0.58784400  1
  O  O4  1  0.26865900  0.35711300  0.62028400  1
  O  O5  1  0.26299800  0.85704900  0.12478200  1
  O  O6  1  0.71501300  0.13456200  0.39093800  1
  O  O7  1  0.71044500  0.63358400  0.89971200  1
  O  O8  1  0.27113800  0.13109300  0.83722400  1
  O  O9  1  0.25830500  0.63673300  0.35463700  1
  O  O10  1  0.73326200  0.36675000  0.65636300  1
  O  O11  1  0.74392200  0.86535200  0.15043600  1
  O  O12  1  0.28187000  0.36303800  0.10520400  1
  O  O13  1  0.29396800  0.86894800  0.59723000  1
  O  O14  1  0.73193100  0.14289200  0.88051400  1
  O  O15  1  0.73667600  0.64284600  0.37464000  1
loop_
_geom_bond_atom_site_label_1
_geom_bond_atom_site_label_2
_geom_bond_distance
_geom_bond_site_symmetry_2
Li0 O0 2.009150 1_555
Li0 O6 2.017794 1_455
Li0 O8 2.023140 1_554
Li0 O5 2.026996 1_545
Li1 O9 2.007987 1_555
Li1 O7 2.008081 1_455
Li1 O1 2.028842 1_555
Li1 O4 2.031208 1_555
Li2 O10 2.007046 1_555
Li2 O12 2.009499 1_655
Li2 O2 2.028441 1_555
Li2 O15 2.030507 1_555
Li3 O3 2.009684 1_555
Li3 O11 2.018757 1_556
Li3 O13 2.023036 1_655
Li3 O14 2.027110 1_565
O0 V3 1.875218 1_555
O0 V1 2.065967 1_455
O0 V5 2.108395 1_555
O1 V4 1.922957 1_456
O1 V2 2.042730 1_556
O1 V0 2.088577 1_555
O2 V3 1.926093 1_555
O2 V2 2.039583 1_555
O2 V1 2.087168 1_554
O3 V4 1.876413 1_555
O3 V0 2.066730 1_555
O3 V5 2.106372 1_565
O4 Ti0 1.971408 1_555
O4 V3 2.038946 1_555
O4 V1 2.054572 1_455
O5 V4 2.012512 1_455
O5 Ti1 2.016308 1_555
O5 V0 2.038207 1_554
O6 V3 1.995604 1_555
O6 V5 2.019546 1_555
O6 Ti0 2.049472 1_555
O7 Ti1 1.968262 1_556
O7 V0 2.030859 1_555
O7 V2 2.043437 1_556
O8 Ti0 1.986915 1_555
O8 V5 2.022138 1_555
O8 V1 2.044186 1_455
O9 Ti1 1.954517 1_555
O9 V4 2.030445 1_455
O9 V2 2.069894 1_555
O10 Ti0 1.971724 1_555
O10 V1 2.028547 1_555
O10 V2 2.041295 1_556
O11 V4 2.003363 1_555
O11 V5 2.022485 1_565
O11 Ti1 2.038638 1_555
O12 Ti0 1.945710 1_554
O12 V3 2.038788 1_555
O12 V2 2.071184 1_555
O13 Ti1 1.989997 1_555
O13 V5 2.021255 1_565
O13 V0 2.041523 1_555
O14 V3 2.008186 1_556
O14 Ti0 2.020648 1_555
O14 V1 2.038747 1_555
O15 Ti1 1.975491 1_555
O15 V4 2.035069 1_555
O15 V0 2.054105 1_555
