# generated using pymatgen
data_VGaMo3S8
_symmetry_space_group_name_H-M   'P 1'
_cell_length_a   6.97760376
_cell_length_b   6.97760376
_cell_length_c   6.97760457
_cell_angle_alpha   59.03244881
_cell_angle_beta   59.03244881
_cell_angle_gamma   59.03244819
_symmetry_Int_Tables_number   1
_chemical_formula_structural   VGaMo3S8
_chemical_formula_sum   'V1 Ga1 Mo3 S8'
_cell_volume   234.91646474
_cell_formula_units_Z   1
loop_
 _symmetry_equiv_pos_site_id
 _symmetry_equiv_pos_as_xyz
  1  'x, y, z'
loop_
 _atom_site_type_symbol
 _atom_site_label
 _atom_site_symmetry_multiplicity
 _atom_site_fract_x
 _atom_site_fract_y
 _atom_site_fract_z
 _atom_site_occupancy
  V  V0  1  0.60564000  0.60564000  0.60564000  1
  Ga  Ga0  1  0.99897200  0.99897200  0.99897200  1
  Mo  Mo0  1  0.59882800  0.19465400  0.59882800  1
  Mo  Mo1  1  0.19465400  0.59882800  0.59882800  1
  Mo  Mo2  1  0.59882800  0.59882800  0.19465400  1
  S  S0  1  0.86420800  0.86420800  0.86420800  1
  S  S1  1  0.86229400  0.40848600  0.86229400  1
  S  S2  1  0.40848600  0.86229400  0.86229400  1
  S  S3  1  0.86229400  0.86229400  0.40848600  1
  S  S4  1  0.36457200  0.36457200  0.36457200  1
  S  S5  1  0.37382500  0.89357500  0.37382500  1
  S  S6  1  0.89357500  0.37382500  0.37382500  1
  S  S7  1  0.37382500  0.37382500  0.89357500  1
loop_
_geom_bond_atom_site_label_1
_geom_bond_atom_site_label_2
_geom_bond_distance
_geom_bond_site_symmetry_2
Ga0 S1 2.304584 1_565
Ga0 S2 2.304584 1_655
Ga0 S3 2.304584 1_556
Ga0 S0 2.320027 1_555
Mo0 S4 2.347332 1_555
Mo0 S6 2.358131 1_555
Mo0 S7 2.358131 1_555
Mo0 S2 2.606007 1_545
Mo0 S3 2.606007 1_545
Mo0 S0 2.629657 1_545
Mo1 S4 2.347332 1_555
Mo1 S5 2.358131 1_555
Mo1 S7 2.358131 1_555
Mo1 S1 2.606007 1_455
Mo1 S3 2.606007 1_455
Mo1 S0 2.629657 1_455
Mo2 S4 2.347331 1_555
Mo2 S6 2.358131 1_555
Mo2 S5 2.358131 1_555
Mo2 S2 2.606007 1_554
Mo2 S1 2.606007 1_554
Mo2 S0 2.629657 1_554
S1 V0 2.556647 1_555
S2 V0 2.556647 1_555
S3 V0 2.556647 1_555
S5 V0 2.296305 1_555
S6 V0 2.296305 1_555
S7 V0 2.296305 1_555
