# generated using pymatgen
data_Mg6ZrSn
_symmetry_space_group_name_H-M   'P 1'
_cell_length_a   5.12216900
_cell_length_b   6.16779100
_cell_length_c   11.42322100
_cell_angle_alpha   90.00000000
_cell_angle_beta   90.00000000
_cell_angle_gamma   90.00000000
_symmetry_Int_Tables_number   1
_chemical_formula_structural   Mg6ZrSn
_chemical_formula_sum   'Mg12 Zr2 Sn2'
_cell_volume   360.88774229
_cell_formula_units_Z   2
loop_
 _symmetry_equiv_pos_site_id
 _symmetry_equiv_pos_as_xyz
  1  'x, y, z'
loop_
 _atom_site_type_symbol
 _atom_site_label
 _atom_site_symmetry_multiplicity
 _atom_site_fract_x
 _atom_site_fract_y
 _atom_site_fract_z
 _atom_site_occupancy
  Mg  Mg0  1  0.50000000  0.24858900  0.41844200  1
  Mg  Mg1  1  0.50000000  0.75141100  0.41844200  1
  Mg  Mg2  1  0.00000000  0.75764200  0.07943000  1
  Mg  Mg3  1  0.00000000  0.24235800  0.07943000  1
  Mg  Mg4  1  0.00000000  0.00000000  0.33073400  1
  Mg  Mg5  1  0.00000000  0.50000000  0.33505400  1
  Mg  Mg6  1  0.50000000  0.74858900  0.91844200  1
  Mg  Mg7  1  0.50000000  0.25141100  0.91844200  1
  Mg  Mg8  1  0.00000000  0.25764200  0.57943000  1
  Mg  Mg9  1  0.00000000  0.74235800  0.57943000  1
  Mg  Mg10  1  0.00000000  0.50000000  0.83073400  1
  Mg  Mg11  1  0.00000000  0.00000000  0.83505400  1
  Zr  Zr0  1  0.50000000  0.00000000  0.17141500  1
  Zr  Zr1  1  0.50000000  0.50000000  0.67141500  1
  Sn  Sn0  1  0.50000000  0.50000000  0.16704900  1
  Sn  Sn1  1  0.50000000  0.00000000  0.66704900  1
loop_
_geom_bond_atom_site_label_1
_geom_bond_atom_site_label_2
_geom_bond_distance
_geom_bond_site_symmetry_2
Mg0 Mg1 3.066490 1_545
Mg0 Mg1 3.101301 1_555
Mg0 Mg5 3.141821 1_655
Mg0 Mg5 3.141821 1_555
Mg0 Mg4 3.148621 1_555
Mg0 Mg4 3.148621 1_655
Mg0 Mg8 3.153442 1_555
Mg0 Mg8 3.153442 1_655
Mg0 Zr0 3.211486 1_555
Mg0 Sn1 3.227357 1_555
Mg0 Sn0 3.263630 1_555
Mg0 Zr1 3.279522 1_555
Mg1 Mg5 3.141821 1_555
Mg1 Mg5 3.141821 1_655
Mg1 Mg4 3.148621 1_565
Mg1 Mg4 3.148621 1_665
Mg1 Mg9 3.153442 1_555
Mg1 Mg9 3.153442 1_655
Mg1 Zr0 3.211486 1_565
Mg1 Sn1 3.227357 1_565
Mg1 Sn0 3.263630 1_555
Mg1 Zr1 3.279522 1_555
Mg2 Mg3 2.989627 1_565
Mg2 Zr0 3.146066 1_565
Mg2 Zr0 3.146066 1_465
Mg2 Mg6 3.153442 1_454
Mg2 Mg6 3.153442 1_554
Mg2 Sn0 3.175865 1_555
Mg2 Sn0 3.175865 1_455
Mg2 Mg3 3.178164 1_555
Mg2 Mg4 3.236571 1_565
Mg2 Mg5 3.324435 1_555
Mg3 Zr0 3.146066 1_555
Mg3 Zr0 3.146066 1_455
Mg3 Mg7 3.153442 1_554
Mg3 Mg7 3.153442 1_454
Mg3 Sn0 3.175865 1_555
Mg3 Sn0 3.175865 1_455
Mg3 Mg4 3.236571 1_555
Mg3 Mg5 3.324435 1_555
Mg4 Mg5 3.084290 1_555
Mg4 Mg5 3.084290 1_545
Mg4 Zr0 3.141866 1_555
Mg4 Zr0 3.141866 1_455
Mg4 Mg9 3.255142 1_545
Mg4 Mg8 3.255142 1_555
Mg5 Mg9 3.166588 1_555
Mg5 Mg8 3.166588 1_555
Mg5 Sn0 3.200363 1_555
Mg5 Sn0 3.200363 1_455
Mg6 Mg7 3.066490 1_555
Mg6 Mg7 3.101301 1_565
Mg6 Zr1 3.211486 1_555
Mg6 Sn0 3.227357 1_556
Mg6 Sn1 3.263630 1_565
Mg6 Zr0 3.279522 1_566
Mg7 Zr1 3.211486 1_555
Mg7 Sn0 3.227357 1_556
Mg7 Sn1 3.263630 1_555
Mg7 Zr0 3.279522 1_556
Mg8 Mg9 2.989627 1_555
Mg8 Zr1 3.146066 1_455
Mg8 Zr1 3.146066 1_555
Mg8 Sn1 3.175865 1_555
Mg8 Sn1 3.175865 1_455
Mg8 Mg9 3.178164 1_545
Mg9 Zr1 3.146066 1_455
Mg9 Zr1 3.146066 1_555
Mg9 Sn1 3.175865 1_465
Mg9 Sn1 3.175865 1_565
Mg10 Mg11 3.084290 1_555
Mg10 Mg11 3.084290 1_565
Mg10 Zr1 3.141866 1_455
Mg10 Zr1 3.141866 1_555
Mg10 Mg6 3.148621 1_455
Mg10 Mg6 3.148621 1_555
Mg10 Mg7 3.148621 1_455
Mg10 Mg7 3.148621 1_555
Mg10 Mg9 3.236571 1_555
Mg10 Mg8 3.236571 1_555
Mg10 Mg2 3.255142 1_556
Mg10 Mg3 3.255142 1_556
Mg11 Mg7 3.141821 1_555
Mg11 Mg6 3.141821 1_445
Mg11 Mg7 3.141821 1_455
Mg11 Mg6 3.141821 1_545
Mg11 Mg3 3.166588 1_556
Mg11 Mg2 3.166588 1_546
Mg11 Sn1 3.200363 1_555
Mg11 Sn1 3.200363 1_455
Mg11 Mg8 3.324435 1_555
Mg11 Mg9 3.324435 1_545
Sn0 Zr0 3.084299 1_555
Sn0 Zr0 3.084299 1_565
Sn1 Zr1 3.084299 1_555
Sn1 Zr1 3.084299 1_545
