# generated using pymatgen
data_V3P6H14(NO8)3
_symmetry_space_group_name_H-M   'P 1'
_cell_length_a   7.36115382
_cell_length_b   8.96202908
_cell_length_c   9.53148905
_cell_angle_alpha   64.73643086
_cell_angle_beta   70.84762719
_cell_angle_gamma   68.68094966
_symmetry_Int_Tables_number   1
_chemical_formula_structural   V3P6H14(NO8)3
_chemical_formula_sum   'V3 P6 H14 N3 O24'
_cell_volume   518.46648683
_cell_formula_units_Z   1
loop_
 _symmetry_equiv_pos_site_id
 _symmetry_equiv_pos_as_xyz
  1  'x, y, z'
loop_
 _atom_site_type_symbol
 _atom_site_label
 _atom_site_symmetry_multiplicity
 _atom_site_fract_x
 _atom_site_fract_y
 _atom_site_fract_z
 _atom_site_occupancy
  V  V0  1  0.00000000  0.50000000  0.50000000  1
  V  V1  1  0.80051200  0.28214900  0.05220400  1
  V  V2  1  0.19948800  0.71785100  0.94779600  1
  P  P0  1  0.54990100  0.44882200  0.77819300  1
  P  P1  1  0.45009900  0.55117800  0.22180700  1
  P  P2  1  0.08026500  0.12213800  0.76605500  1
  P  P3  1  0.91973500  0.87786200  0.23394500  1
  P  P4  1  0.91022200  0.65554900  0.78068500  1
  P  P5  1  0.08977800  0.34445100  0.21931500  1
  H  H0  1  0.28233900  0.45065100  0.71401000  1
  H  H1  1  0.71766100  0.54934900  0.28599000  1
  H  H2  1  0.91569600  0.96532500  0.76881200  1
  H  H3  1  0.08430400  0.03467500  0.23118800  1
  H  H4  1  0.60371700  0.74817000  0.75141000  1
  H  H5  1  0.39628300  0.25183000  0.24859000  1
  H  H6  1  0.69651100  0.21666600  0.56439600  1
  H  H7  1  0.30348900  0.78333400  0.43560400  1
  H  H8  1  0.64671600  0.19482000  0.41433600  1
  H  H9  1  0.35328400  0.80518000  0.58566400  1
  H  H10  1  0.63780200  0.03874900  0.59874100  1
  H  H11  1  0.36219800  0.96125100  0.40125900  1
  H  H12  1  0.46147200  0.22795100  0.56604200  1
  H  H13  1  0.53852800  0.77204900  0.43395800  1
  N  N0  1  0.50000000  0.00000000  0.00000000  1
  N  N1  1  0.61111000  0.16879300  0.53541000  1
  N  N2  1  0.38889000  0.83120700  0.46459000  1
  O  O0  1  0.60581700  0.31896200  0.93616900  1
  O  O1  1  0.39418300  0.68103800  0.06383100  1
  O  O2  1  0.41212100  0.37402000  0.74216700  1
  O  O3  1  0.58787900  0.62598000  0.25783300  1
  O  O4  1  0.42829600  0.62916700  0.78942900  1
  O  O5  1  0.57170400  0.37083300  0.21057100  1
  O  O6  1  0.72812700  0.46954700  0.64048900  1
  O  O7  1  0.27187300  0.53045300  0.35951100  1
  O  O8  1  0.00946100  0.18351500  0.90887100  1
  O  O9  1  0.99053900  0.81648500  0.09113000  1
  O  O10  1  0.15583700  0.26092100  0.61585000  1
  O  O11  1  0.84416300  0.73907900  0.38415000  1
  O  O12  1  0.24297000  0.95209100  0.79903400  1
  O  O13  1  0.75703000  0.04790900  0.20096600  1
  O  O14  1  0.89895200  0.09190200  0.73457500  1
  O  O15  1  0.10104800  0.90809800  0.26542500  1
  O  O16  1  0.05446000  0.58394300  0.64976900  1
  O  O17  1  0.94554000  0.41605700  0.35023100  1
  O  O18  1  0.01239300  0.76045400  0.80924400  1
  O  O19  1  0.98760700  0.23954600  0.19075600  1
  O  O20  1  0.83780900  0.51861500  0.92950700  1
  O  O21  1  0.16219100  0.48138500  0.07049300  1
  O  O22  1  0.72036000  0.79718900  0.71354300  1
  O  O23  1  0.27964000  0.20281100  0.28645700  1
loop_
_geom_bond_atom_site_label_1
_geom_bond_atom_site_label_2
_geom_bond_distance
_geom_bond_site_symmetry_2
H0 O2 0.995093 1_555
H1 O3 0.995093 1_555
H2 O14 1.008596 1_565
H2 O18 1.628509 1_655
H3 O15 1.008596 1_545
H3 O19 1.628509 1_455
H4 O22 0.998042 1_555
H5 O23 0.998042 1_555
H6 N1 1.032891 1_555
H7 N2 1.032891 1_555
H8 N1 1.034929 1_555
H9 N2 1.034929 1_555
H10 N1 1.035422 1_555
H11 N2 1.035422 1_555
H12 N1 1.037362 1_555
H13 N2 1.037362 1_555
O0 P0 1.534182 1_555
O0 V1 1.941871 1_556
O1 P1 1.534182 1_555
O1 V2 1.941871 1_554
O2 P0 1.585983 1_555
O3 P1 1.585983 1_555
O4 P0 1.567769 1_555
O4 V2 2.032112 1_555
O5 P1 1.567769 1_555
O5 V1 2.032112 1_555
O6 P0 1.522378 1_555
O6 V0 2.049283 1_655
O7 P1 1.522378 1_555
O7 V0 2.049283 1_555
O8 P2 1.546721 1_555
O8 V1 1.917544 1_456
O9 P3 1.546713 1_555
O9 V2 1.917551 1_654
O10 P2 1.538416 1_555
O10 V0 2.037300 1_555
O11 P3 1.538416 1_555
O11 V0 2.037300 1_655
O12 P2 1.538415 1_565
O12 V2 2.042040 1_555
O13 P3 1.538415 1_545
O13 V1 2.042040 1_555
O14 P2 1.593725 1_655
O15 P3 1.593725 1_455
O16 P4 1.554012 1_455
O16 V0 2.067836 1_555
O17 P5 1.554012 1_655
O17 V0 2.067836 1_655
O18 P4 1.546148 1_455
O18 V2 2.041382 1_555
O19 P5 1.546148 1_655
O19 V1 2.041382 1_555
O20 P4 1.515235 1_555
O20 V1 2.007749 1_556
O21 P5 1.515235 1_555
O21 V2 2.007749 1_554
O22 P4 1.605515 1_555
O23 P5 1.605515 1_555
