# generated using pymatgen
data_Sr6Sb6S17
_symmetry_space_group_name_H-M   'P 1'
_cell_length_a   8.38687000
_cell_length_b   15.73143100
_cell_length_c   23.17871900
_cell_angle_alpha   90.00000000
_cell_angle_beta   90.00000000
_cell_angle_gamma   90.00000000
_symmetry_Int_Tables_number   1
_chemical_formula_structural   Sr6Sb6S17
_chemical_formula_sum   'Sr24 Sb24 S68'
_cell_volume   3058.14146647
_cell_formula_units_Z   4
loop_
 _symmetry_equiv_pos_site_id
 _symmetry_equiv_pos_as_xyz
  1  'x, y, z'
loop_
 _atom_site_type_symbol
 _atom_site_label
 _atom_site_symmetry_multiplicity
 _atom_site_fract_x
 _atom_site_fract_y
 _atom_site_fract_z
 _atom_site_occupancy
  Sr  Sr0  1  0.25533300  0.56183200  0.95632100  1
  Sr  Sr1  1  0.75533300  0.93816800  0.04367900  1
  Sr  Sr2  1  0.74466700  0.06183200  0.54367900  1
  Sr  Sr3  1  0.24466700  0.43816800  0.45632100  1
  Sr  Sr4  1  0.24897900  0.93604200  0.04534500  1
  Sr  Sr5  1  0.74897900  0.56395800  0.95465500  1
  Sr  Sr6  1  0.75102100  0.43604200  0.45465500  1
  Sr  Sr7  1  0.25102100  0.06395800  0.54534500  1
  Sr  Sr8  1  0.25351300  0.45319800  0.78624800  1
  Sr  Sr9  1  0.75351300  0.04680200  0.21375200  1
  Sr  Sr10  1  0.74648700  0.95319800  0.71375200  1
  Sr  Sr11  1  0.24648700  0.54680200  0.28624800  1
  Sr  Sr12  1  0.24978600  0.95767200  0.71480000  1
  Sr  Sr13  1  0.74978600  0.54232800  0.28520000  1
  Sr  Sr14  1  0.75021400  0.45767200  0.78520000  1
  Sr  Sr15  1  0.25021400  0.04232800  0.21480000  1
  Sr  Sr16  1  0.25403300  0.33625500  0.62449500  1
  Sr  Sr17  1  0.75403300  0.16374500  0.37550500  1
  Sr  Sr18  1  0.74596700  0.83625500  0.87550500  1
  Sr  Sr19  1  0.24596700  0.66374500  0.12449500  1
  Sr  Sr20  1  0.25397200  0.83733600  0.87618900  1
  Sr  Sr21  1  0.75397200  0.66266400  0.12381100  1
  Sr  Sr22  1  0.74602800  0.33733600  0.62381100  1
  Sr  Sr23  1  0.24602800  0.16266400  0.37618900  1
  Sb  Sb0  1  0.48978300  0.56919300  0.60472400  1
  Sb  Sb1  1  0.98978300  0.93080700  0.39527600  1
  Sb  Sb2  1  0.51021700  0.06919300  0.89527600  1
  Sb  Sb3  1  0.01021700  0.43080700  0.10472400  1
  Sb  Sb4  1  0.98101600  0.57514100  0.58698400  1
  Sb  Sb5  1  0.48101600  0.92485900  0.41301600  1
  Sb  Sb6  1  0.01898400  0.07514100  0.91301600  1
  Sb  Sb7  1  0.51898400  0.42485900  0.08698400  1
  Sb  Sb8  1  0.49486600  0.33661900  0.93607900  1
  Sb  Sb9  1  0.99486600  0.16338100  0.06392100  1
  Sb  Sb10  1  0.50513400  0.83661900  0.56392100  1
  Sb  Sb11  1  0.00513400  0.66338100  0.43607900  1
  Sb  Sb12  1  0.99029200  0.82943700  0.58800500  1
  Sb  Sb13  1  0.49029200  0.67056300  0.41199500  1
  Sb  Sb14  1  0.00970800  0.32943700  0.91199500  1
  Sb  Sb15  1  0.50970800  0.17056300  0.08800500  1
  Sb  Sb16  1  0.01247400  0.72043800  0.73124800  1
  Sb  Sb17  1  0.51247400  0.77956200  0.26875200  1
  Sb  Sb18  1  0.98752600  0.22043800  0.76875200  1
  Sb  Sb19  1  0.48752600  0.27956200  0.23124800  1
  Sb  Sb20  1  0.49507900  0.70212300  0.74711000  1
  Sb  Sb21  1  0.99507900  0.79787700  0.25289000  1
  Sb  Sb22  1  0.50492100  0.20212300  0.75289000  1
  Sb  Sb23  1  0.00492100  0.29787700  0.24711000  1
  S  S0  1  0.49254800  0.70865500  0.92997100  1
  S  S1  1  0.99254800  0.79134500  0.07002900  1
  S  S2  1  0.50745200  0.20865500  0.57002900  1
  S  S3  1  0.00745200  0.29134500  0.42997100  1
  S  S4  1  0.35985400  0.75071400  0.00109700  1
  S  S5  1  0.85985400  0.74928600  0.99890300  1
  S  S6  1  0.64014600  0.25071400  0.49890300  1
  S  S7  1  0.14014600  0.24928600  0.50109700  1
  S  S8  1  0.99567900  0.70720100  0.92876700  1
  S  S9  1  0.49567900  0.79279900  0.07123300  1
  S  S10  1  0.00432100  0.20720100  0.57123300  1
  S  S11  1  0.50432100  0.29279900  0.42876700  1
  S  S12  1  0.26236300  0.52582100  0.66539600  1
  S  S13  1  0.76236300  0.97417900  0.33460400  1
  S  S14  1  0.73763700  0.02582100  0.83460400  1
  S  S15  1  0.23763700  0.47417900  0.16539600  1
  S  S16  1  0.49477600  0.43496700  0.54964500  1
  S  S17  1  0.99477600  0.06503300  0.45035500  1
  S  S18  1  0.50522400  0.93496700  0.95035500  1
  S  S19  1  0.00522400  0.56503300  0.04964500  1
  S  S20  1  0.23697300  0.97093000  0.33899100  1
  S  S21  1  0.73697300  0.52907000  0.66100900  1
  S  S22  1  0.76302700  0.47093000  0.16100900  1
  S  S23  1  0.26302700  0.02907000  0.83899100  1
  S  S24  1  0.00506700  0.92901200  0.94775500  1
  S  S25  1  0.50506700  0.57098800  0.05224500  1
  S  S26  1  0.99493300  0.42901200  0.55224500  1
  S  S27  1  0.49493300  0.07098800  0.44775500  1
  S  S28  1  0.21009200  0.77851000  0.65696600  1
  S  S29  1  0.78299000  0.61885200  0.50563400  1
  S  S30  1  0.21701000  0.11885200  0.99436600  1
  S  S31  1  0.71701000  0.38114800  0.00563400  1
  S  S32  1  0.49769600  0.97255800  0.61976600  1
  S  S33  1  0.99769600  0.52744200  0.38023400  1
  S  S34  1  0.50230400  0.47255800  0.88023400  1
  S  S35  1  0.00230400  0.02744200  0.11976600  1
  S  S36  1  0.21790300  0.62010100  0.50357300  1
  S  S37  1  0.71790300  0.87989900  0.49642700  1
  S  S38  1  0.78209700  0.12010100  0.99642700  1
  S  S39  1  0.28209700  0.37989900  0.00357300  1
  S  S40  1  0.77484000  0.78113100  0.65197900  1
  S  S41  1  0.27484000  0.71886900  0.34802100  1
  S  S42  1  0.22516000  0.28113100  0.84802100  1
  S  S43  1  0.72516000  0.21886900  0.15197900  1
  S  S44  1  0.99798000  0.98016100  0.62217000  1
  S  S45  1  0.49798000  0.51983900  0.37783000  1
  S  S46  1  0.00202000  0.48016100  0.87783000  1
  S  S47  1  0.50202000  0.01983900  0.12217000  1
  S  S48  1  0.29209300  0.15488100  0.68726800  1
  S  S49  1  0.79209300  0.34511900  0.31273200  1
  S  S50  1  0.70790700  0.65488100  0.81273200  1
  S  S51  1  0.20790700  0.84511900  0.18726800  1
  S  S52  1  0.25356200  0.33722900  0.30325000  1
  S  S53  1  0.75356200  0.16277100  0.69675000  1
  S  S54  1  0.74643800  0.83722900  0.19675000  1
  S  S55  1  0.24643800  0.66277100  0.80325000  1
  S  S56  1  0.00338300  0.14752900  0.27961500  1
  S  S57  1  0.50338300  0.35247100  0.72038500  1
  S  S58  1  0.99661700  0.64752900  0.22038500  1
  S  S59  1  0.49661700  0.85247100  0.77961500  1
  S  S60  1  0.50164600  0.14200400  0.28245700  1
  S  S61  1  0.00164600  0.35799600  0.71754300  1
  S  S62  1  0.49835400  0.64200400  0.21754300  1
  S  S63  1  0.99835400  0.85799600  0.78245700  1
  S  S64  1  0.28990800  0.22149000  0.15696600  1
  S  S65  1  0.78990800  0.27851000  0.84303400  1
  S  S66  1  0.71009200  0.72149000  0.34303400  1
  S  S67  1  0.28299000  0.88114800  0.49436600  1
loop_
_geom_bond_atom_site_label_1
_geom_bond_atom_site_label_2
_geom_bond_distance
_geom_bond_site_symmetry_2
S0 S4 2.096237 1_556
S0 Sr20 3.107341 1_555
S0 Sr0 3.109016 1_555
S0 Sr5 3.183419 1_555
S0 Sr18 3.184408 1_555
S1 S5 2.096237 1_554
S1 Sr21 3.107341 1_555
S1 Sr1 3.109016 1_555
S1 Sr4 3.183419 1_655
S1 Sr19 3.184408 1_655
S2 S6 2.096237 1_555
S2 Sr22 3.107341 1_555
S2 Sr2 3.109016 1_555
S2 Sr7 3.183419 1_555
S2 Sr16 3.184408 1_555
S3 S7 2.096237 1_555
S3 Sr23 3.107341 1_555
S3 Sr3 3.109016 1_555
S3 Sr6 3.183419 1_455
S3 Sr17 3.184408 1_455
S4 S9 2.092547 1_555
S4 Sr4 3.227472 1_555
S4 Sr0 3.267215 1_554
S4 Sr19 3.311334 1_555
S4 Sr20 3.320801 1_554
S5 S8 2.092547 1_555
S5 Sr5 3.227472 1_555
S5 Sr1 3.267215 1_556
S5 Sr18 3.311334 1_555
S5 Sr21 3.320801 1_556
S6 Sr6 3.227472 1_555
S6 Sr2 3.267215 1_555
S6 Sr17 3.311334 1_555
S6 Sr22 3.320801 1_555
S7 Sr7 3.227472 1_555
S7 Sr3 3.267215 1_555
S7 Sr16 3.311334 1_555
S7 Sr23 3.320801 1_555
S8 Sr5 3.117512 1_555
S8 Sr18 3.167322 1_555
S8 Sr20 3.220093 1_655
S8 Sr0 3.221792 1_655
S9 Sr4 3.117512 1_555
S9 Sr19 3.167322 1_555
S9 Sr21 3.220093 1_555
S9 Sr1 3.221792 1_555
S10 S7 2.092547 1_555
S10 Sr7 3.117512 1_555
S10 Sr16 3.167322 1_555
S10 Sr22 3.220093 1_455
S10 Sr2 3.221792 1_455
S11 S6 2.092547 1_555
S11 Sr6 3.117512 1_555
S11 Sr17 3.167322 1_555
S11 Sr23 3.220093 1_555
S11 Sr3 3.221792 1_555
S12 Sb0 2.466003 1_555
S12 Sr8 3.026123 1_555
S12 Sb4 3.077834 1_455
S12 Sr16 3.129989 1_555
S13 Sb1 2.466003 1_555
S13 Sr9 3.026123 1_565
S13 Sb5 3.077834 1_555
S13 Sr17 3.129989 1_565
S14 Sb2 2.466003 1_555
S14 Sr10 3.026123 1_545
S14 Sb6 3.077834 1_655
S14 Sr18 3.129989 1_545
S15 Sb3 2.466003 1_555
S15 Sr11 3.026123 1_555
S15 Sb7 3.077834 1_555
S15 Sr19 3.129989 1_555
S16 Sb0 2.467860 1_555
S16 Sr3 3.013591 1_555
S16 Sr6 3.076780 1_555
S16 Sr16 3.081898 1_555
S16 Sr22 3.123218 1_555
S17 Sb1 2.467860 1_545
S17 Sr2 3.013591 1_555
S17 Sr7 3.076780 1_655
S17 Sr17 3.081898 1_555
S17 Sr23 3.123218 1_655
S18 Sb2 2.467860 1_565
S18 Sr1 3.013591 1_556
S18 Sr4 3.076780 1_556
S18 Sr18 3.081898 1_555
S18 Sr20 3.123218 1_555
S19 Sb3 2.467860 1_555
S19 Sr0 3.013591 1_554
S19 Sr5 3.076780 1_454
S19 Sr19 3.081898 1_555
S19 Sr21 3.123218 1_455
S20 Sb1 2.529501 1_455
S20 Sb5 2.767396 1_555
S20 Sr15 3.091952 1_565
S20 Sr23 3.137981 1_565
S21 Sb0 2.529501 1_555
S21 Sb4 2.767396 1_555
S21 Sr14 3.091952 1_555
S21 Sr22 3.137981 1_555
S22 Sb3 2.529501 1_655
S22 Sb7 2.767396 1_555
S22 Sr13 3.091952 1_555
S22 Sr21 3.137981 1_555
S23 Sb2 2.529501 1_555
S23 Sb6 2.767396 1_555
S23 Sr12 3.091952 1_545
S23 Sr20 3.137981 1_545
S24 Sb6 2.438554 1_565
S24 Sr20 3.031397 1_555
S24 Sr4 3.051826 1_556
S24 Sr1 3.057958 1_456
S24 Sr18 3.107387 1_455
S25 Sb7 2.438554 1_555
S25 Sr21 3.031397 1_555
S25 Sr5 3.051826 1_554
S25 Sr0 3.057958 1_554
S25 Sr19 3.107387 1_555
S26 Sb4 2.438554 1_555
S26 Sr22 3.031397 1_555
S26 Sr6 3.051826 1_555
S26 Sr3 3.057958 1_655
S26 Sr16 3.107387 1_655
S27 Sb5 2.438554 1_545
S27 Sr23 3.031397 1_555
S27 Sr7 3.051826 1_555
S27 Sr2 3.057958 1_555
S27 Sr17 3.107387 1_555
S28 Sb16 2.558517 1_555
S28 Sb12 2.568087 1_455
S28 Sr12 3.138728 1_555
S29 Sb11 2.561444 1_655
S29 Sb4 2.605112 1_555
S29 Sr6 3.120692 1_555
S30 Sb9 2.561444 1_456
S30 Sb6 2.605112 1_555
S30 Sr4 3.120692 1_546
S31 Sb8 2.561444 1_554
S31 Sb7 2.605112 1_555
S31 Sr5 3.120692 1_554
S32 Sb10 2.500530 1_555
S32 Sr10 3.031884 1_555
S32 Sr12 3.038099 1_555
S32 Sr7 3.053367 1_565
S32 Sr2 3.061533 1_565
S33 Sb11 2.500530 1_655
S33 Sr11 3.031884 1_655
S33 Sr13 3.038099 1_555
S33 Sr6 3.053367 1_555
S33 Sr3 3.061533 1_655
S34 Sb8 2.500530 1_555
S34 Sr8 3.031884 1_555
S34 Sr14 3.038099 1_555
S34 Sr5 3.053367 1_555
S34 Sr0 3.061533 1_555
S35 Sb9 2.500530 1_455
S35 Sr9 3.031884 1_455
S35 Sr15 3.038099 1_555
S35 Sr4 3.053367 1_545
S35 Sr1 3.061533 1_445
S36 Sb11 2.468868 1_555
S36 Sb4 2.860991 1_455
S36 Sr3 3.072680 1_555
S37 Sb10 2.468868 1_555
S37 Sb5 2.860991 1_555
S37 Sr2 3.072680 1_565
S38 Sb9 2.468868 1_556
S38 Sb6 2.860991 1_655
S38 Sr1 3.072680 1_546
S39 Sb8 2.468868 1_554
S39 Sb7 2.860991 1_555
S39 Sr0 3.072680 1_554
S40 Sb12 2.457929 1_555
S40 Sb16 2.873945 1_655
S40 Sr10 3.071440 1_555
S41 Sb13 2.457929 1_555
S41 Sb17 2.873945 1_555
S41 Sr11 3.071440 1_555
S42 Sb14 2.457929 1_555
S42 Sb18 2.873945 1_455
S42 Sr8 3.071440 1_555
S43 Sb15 2.457929 1_555
S43 Sb19 2.873945 1_555
S43 Sr9 3.071440 1_555
S44 Sb12 2.500680 1_555
S44 Sr10 3.022398 1_555
S44 Sr12 3.032315 1_655
S44 Sr7 3.067982 1_665
S44 Sr2 3.078012 1_565
S45 Sb13 2.500680 1_555
S45 Sr11 3.022398 1_555
S45 Sr13 3.032315 1_555
S45 Sr6 3.067982 1_555
S45 Sr3 3.078012 1_555
S46 Sb14 2.500680 1_555
S46 Sr8 3.022398 1_555
S46 Sr14 3.032315 1_455
S46 Sr5 3.067982 1_455
S46 Sr0 3.078012 1_555
S47 Sb15 2.500680 1_555
S47 Sr9 3.022398 1_555
S47 Sr15 3.032315 1_555
S47 Sr4 3.067982 1_545
S47 Sr1 3.078012 1_545
S48 Sb22 2.460072 1_555
S48 Sr12 3.187147 1_545
S48 Sr16 3.218707 1_555
S48 Sr7 3.603606 1_555
S49 Sb23 2.460072 1_655
S49 Sr13 3.187147 1_555
S49 Sr17 3.218707 1_555
S49 Sr6 3.603606 1_555
S50 Sb20 2.460072 1_555
S50 Sr14 3.187147 1_555
S50 Sr18 3.218707 1_555
S50 Sr5 3.603606 1_555
S51 Sb21 2.460072 1_455
S51 Sr15 3.187147 1_565
S51 Sr19 3.218707 1_555
S51 Sr4 3.603606 1_555
S52 Sb23 2.534770 1_555
S52 Sb19 2.731041 1_555
S52 Sr23 3.225463 1_555
S52 Sr11 3.320883 1_555
S53 Sb22 2.534770 1_555
S53 Sb18 2.731041 1_555
S53 Sr22 3.225463 1_555
S53 Sr10 3.320883 1_545
S54 Sb21 2.534770 1_555
S54 Sb17 2.731041 1_555
S54 Sr21 3.225463 1_555
S54 Sr9 3.320883 1_565
S55 Sb20 2.534770 1_555
S55 Sb16 2.731041 1_555
S55 Sr20 3.225463 1_555
S55 Sr8 3.320883 1_555
S56 Sb23 2.482324 1_555
S56 Sr23 3.034593 1_555
S56 Sr9 3.038604 1_455
S56 Sr15 3.046534 1_555
S56 Sr17 3.062426 1_455
S57 Sb22 2.482324 1_555
S57 Sr22 3.034593 1_555
S57 Sr8 3.038604 1_555
S57 Sr14 3.046534 1_555
S57 Sr16 3.062426 1_555
S58 Sb21 2.482324 1_555
S58 Sr21 3.034593 1_555
S58 Sr11 3.038604 1_655
S58 Sr13 3.046534 1_555
S58 Sr19 3.062426 1_655
S59 Sb20 2.482324 1_555
S59 Sr20 3.034593 1_555
S59 Sr10 3.038604 1_555
S59 Sr12 3.046534 1_555
S59 Sr18 3.062426 1_555
S60 Sb19 2.470976 1_555
S60 Sr9 3.039928 1_555
S60 Sr17 3.041225 1_555
S60 Sr15 3.060189 1_555
S60 Sr23 3.069495 1_555
S61 Sb18 2.470976 1_455
S61 Sr8 3.039928 1_555
S61 Sr16 3.041225 1_555
S61 Sr14 3.060189 1_455
S61 Sr22 3.069495 1_455
S62 Sb17 2.470976 1_555
S62 Sr11 3.039928 1_555
S62 Sr19 3.041225 1_555
S62 Sr13 3.060189 1_555
S62 Sr21 3.069495 1_555
S63 Sb16 2.470976 1_655
S63 Sr10 3.039928 1_555
S63 Sr18 3.041225 1_555
S63 Sr12 3.060189 1_655
S63 Sr20 3.069495 1_655
S64 Sb19 2.558517 1_555
S64 Sb15 2.568087 1_555
S64 Sr15 3.138728 1_555
S65 Sb18 2.558517 1_555
S65 Sb14 2.568087 1_655
S65 Sr14 3.138728 1_555
S66 Sb17 2.558517 1_555
S66 Sb13 2.568087 1_555
S66 Sr13 3.138728 1_555
S67 Sb10 2.561444 1_555
S67 Sb5 2.605112 1_555
S67 Sr7 3.120692 1_565
