# generated using pymatgen
data_Yb2Ge2Ir
_symmetry_space_group_name_H-M   'P 1'
_cell_length_a   5.87360609
_cell_length_b   5.87360609
_cell_length_c   10.31633654
_cell_angle_alpha   62.99144111
_cell_angle_beta   62.99144111
_cell_angle_gamma   43.15752045
_symmetry_Int_Tables_number   1
_chemical_formula_structural   Yb2Ge2Ir
_chemical_formula_sum   'Yb4 Ge4 Ir2'
_cell_volume   212.43896228
_cell_formula_units_Z   2
loop_
 _symmetry_equiv_pos_site_id
 _symmetry_equiv_pos_as_xyz
  1  'x, y, z'
loop_
 _atom_site_type_symbol
 _atom_site_label
 _atom_site_symmetry_multiplicity
 _atom_site_fract_x
 _atom_site_fract_y
 _atom_site_fract_z
 _atom_site_occupancy
  Yb  Yb0  1  0.81607300  0.81607300  0.11040500  1
  Yb  Yb1  1  0.00315000  0.00315000  0.32534400  1
  Yb  Yb2  1  0.18392700  0.18392700  0.88959500  1
  Yb  Yb3  1  0.99685000  0.99685000  0.67465600  1
  Ge  Ge0  1  0.49035800  0.49035800  0.87884900  1
  Ge  Ge1  1  0.35208900  0.35208900  0.56276300  1
  Ge  Ge2  1  0.50964200  0.50964200  0.12115100  1
  Ge  Ge3  1  0.64791100  0.64791100  0.43723700  1
  Ir  Ir0  1  0.72432300  0.72432300  0.63097000  1
  Ir  Ir1  1  0.27567700  0.27567700  0.36903000  1
loop_
_geom_bond_atom_site_label_1
_geom_bond_atom_site_label_2
_geom_bond_distance
_geom_bond_site_symmetry_2
Ge0 Ir0 2.586115 1_555
Ge0 Ge2 2.609027 1_556
Ge0 Yb3 2.993827 1_545
Ge0 Yb3 2.993827 1_455
Ge0 Yb2 3.062499 1_655
Ge0 Yb2 3.062499 1_565
Ge0 Yb0 3.091205 1_546
Ge0 Yb0 3.091205 1_456
Ge0 Yb2 3.294699 1_555
Ge1 Ir0 2.479988 1_455
Ge1 Ir0 2.479988 1_545
Ge1 Ir1 2.514084 1_555
Ge1 Ge3 2.834162 1_555
Ge1 Yb2 2.948468 1_555
Ge1 Yb1 3.072614 1_565
Ge1 Yb1 3.072614 1_655
Ge1 Yb3 3.206626 1_545
Ge1 Yb3 3.206626 1_455
Ge1 Yb3 3.466460 1_445
Ge2 Ir1 2.586115 1_555
Ge2 Yb1 2.993827 1_655
Ge2 Yb1 2.993827 1_565
Ge2 Yb0 3.062499 1_545
Ge2 Yb0 3.062499 1_455
Ge2 Yb2 3.091205 1_564
Ge2 Yb2 3.091205 1_654
Ge2 Yb0 3.294699 1_555
Ge3 Ir1 2.479988 1_655
Ge3 Ir1 2.479988 1_565
Ge3 Ir0 2.514084 1_555
Ge3 Yb0 2.948468 1_555
Ge3 Yb3 3.072614 1_545
Ge3 Yb3 3.072614 1_455
Ge3 Yb1 3.206626 1_655
Ge3 Yb1 3.206626 1_565
Ge3 Yb1 3.466460 1_665
Ir0 Yb1 3.136665 1_665
Ir0 Yb3 3.154429 1_545
Ir0 Yb3 3.154429 1_455
Ir0 Yb3 3.221241 1_555
Ir0 Yb2 3.290865 1_565
Ir0 Yb2 3.290865 1_655
Ir1 Yb3 3.136665 1_445
Ir1 Yb1 3.154429 1_655
Ir1 Yb1 3.154429 1_565
Ir1 Yb1 3.221241 1_555
Ir1 Yb0 3.290865 1_455
Ir1 Yb0 3.290865 1_545
