# generated using pymatgen
data_LiTeH5O6
_symmetry_space_group_name_H-M   'P 1'
_cell_length_a   7.61481900
_cell_length_b   7.69819100
_cell_length_c   10.88686445
_cell_angle_alpha   45.01232895
_cell_angle_beta   90.00000000
_cell_angle_gamma   90.00000000
_symmetry_Int_Tables_number   1
_chemical_formula_structural   LiTeH5O6
_chemical_formula_sum   'Li4 Te4 H20 O24'
_cell_volume   451.36670120
_cell_formula_units_Z   4
loop_
 _symmetry_equiv_pos_site_id
 _symmetry_equiv_pos_as_xyz
  1  'x, y, z'
loop_
 _atom_site_type_symbol
 _atom_site_label
 _atom_site_symmetry_multiplicity
 _atom_site_fract_x
 _atom_site_fract_y
 _atom_site_fract_z
 _atom_site_occupancy
  Li  Li0  1  0.99885700  0.50860400  0.98901100  1
  Li  Li1  1  0.00114300  0.50860400  0.48901100  1
  Li  Li2  1  0.50242400  0.01236100  0.49783600  1
  Li  Li3  1  0.49757600  0.01236100  0.99783600  1
  Te  Te0  1  0.49669100  0.49052400  0.99827600  1
  Te  Te1  1  0.50330900  0.49052400  0.49827600  1
  Te  Te2  1  0.99389200  0.98781400  0.51212100  1
  Te  Te3  1  0.00610800  0.98781400  0.01212100  1
  H  H0  1  0.26193100  0.77931100  0.93625900  1
  H  H1  1  0.25546600  0.21801600  0.56669600  1
  H  H2  1  0.76107300  0.15051800  0.28532700  1
  H  H3  1  0.75637500  0.85004600  0.21616400  1
  H  H4  1  0.74453400  0.21801600  0.06669600  1
  H  H5  1  0.73806900  0.77931100  0.43625900  1
  H  H6  1  0.24362500  0.85004600  0.71616400  1
  H  H7  1  0.23892700  0.15051800  0.78532700  1
  H  H8  1  0.28358600  0.25579200  0.24046200  1
  H  H9  1  0.28052600  0.74007300  0.26559200  1
  H  H10  1  0.77833900  0.23890300  0.50192000  1
  H  H11  1  0.78590900  0.77314400  0.99282000  1
  H  H12  1  0.71947400  0.74007300  0.76559200  1
  H  H13  1  0.71641400  0.25579200  0.74046200  1
  H  H14  1  0.21409100  0.77314400  0.49282000  1
  H  H15  1  0.22166100  0.23890300  0.00192000  1
  H  H16  1  0.56103600  0.53017100  0.20372300  1
  H  H17  1  0.06085100  0.43798400  0.26587500  1
  H  H18  1  0.43896400  0.53017100  0.70372300  1
  H  H19  1  0.93914900  0.43798400  0.76587500  1
  O  O0  1  0.41013600  0.22423700  0.23727200  1
  O  O1  1  0.40827600  0.77507800  0.26994500  1
  O  O2  1  0.90735400  0.19948200  0.53805800  1
  O  O3  1  0.91107900  0.81590700  0.95435000  1
  O  O4  1  0.59172400  0.77507800  0.76994500  1
  O  O5  1  0.58986400  0.22423700  0.73727200  1
  O  O6  1  0.08892100  0.81590700  0.45435000  1
  O  O7  1  0.09264600  0.19948200  0.03805800  1
  O  O8  1  0.26529000  0.65862600  0.92543200  1
  O  O9  1  0.26540500  0.33866400  0.57740300  1
  O  O10  1  0.76413800  0.00762700  0.41670800  1
  O  O11  1  0.76656300  0.99153300  0.08483100  1
  O  O12  1  0.73459500  0.33866400  0.07740300  1
  O  O13  1  0.73471000  0.65862600  0.42543200  1
  O  O14  1  0.23343700  0.99153300  0.58483100  1
  O  O15  1  0.23586200  0.00762700  0.91670800  1
  O  O16  1  0.56927200  0.65525500  0.07206900  1
  O  O17  1  0.57493900  0.33709500  0.42895100  1
  O  O18  1  0.06789100  0.29885000  0.27326900  1
  O  O19  1  0.07648600  0.69438400  0.23463300  1
  O  O20  1  0.42506100  0.33709500  0.92895100  1
  O  O21  1  0.43072800  0.65525500  0.57206900  1
  O  O22  1  0.92351400  0.69438400  0.73463300  1
  O  O23  1  0.93210900  0.29885000  0.77326900  1
loop_
_geom_bond_atom_site_label_1
_geom_bond_atom_site_label_2
_geom_bond_distance
_geom_bond_site_symmetry_2
Li0 O22 2.108070 1_555
Li0 O7 2.159038 1_656
Li0 O8 2.190620 1_655
Li0 O12 2.215149 1_556
Li0 O3 2.218878 1_555
Li0 O18 2.322785 1_656
Li1 O19 2.108070 1_555
Li1 O2 2.159038 1_455
Li1 O13 2.190620 1_455
Li1 O9 2.215149 1_555
Li1 O6 2.218878 1_555
Li1 O23 2.322785 1_455
Li2 O17 2.113272 1_555
Li2 O0 2.158531 1_555
Li2 O10 2.190571 1_555
Li2 O14 2.214381 1_545
Li2 O4 2.218980 1_545
Li2 O21 2.316743 1_545
Li3 O20 2.113272 1_555
Li3 O5 2.158531 1_555
Li3 O15 2.190571 1_555
Li3 O11 2.214381 1_546
Li3 O1 2.218980 1_546
Li3 O16 2.316743 1_546
H0 O8 1.016135 1_555
H0 O15 1.626341 1_565
H1 O9 1.017352 1_555
H1 O14 1.618715 1_545
H2 O10 1.015772 1_555
H2 O12 1.620761 1_555
H3 O11 1.017238 1_555
H3 O13 1.625539 1_555
H4 O12 1.017352 1_555
H4 O11 1.618715 1_545
H5 O13 1.016135 1_555
H5 O10 1.626341 1_565
H6 O14 1.017238 1_555
H6 O8 1.625539 1_555
H7 O15 1.015772 1_555
H7 O9 1.620761 1_555
H8 O0 1.000387 1_555
H9 O1 1.019434 1_555
H9 O19 1.678986 1_555
H10 O2 1.021386 1_555
H10 O17 1.659028 1_555
H11 O3 0.998663 1_555
H12 O4 1.019434 1_555
H12 O22 1.678986 1_555
H13 O5 1.000387 1_555
H14 O6 0.998663 1_555
H15 O7 1.021386 1_555
H15 O20 1.659028 1_554
H16 O16 1.016899 1_555
H16 O17 1.754935 1_555
H17 O18 1.017182 1_555
H17 O19 1.754020 1_555
H18 O21 1.016899 1_555
H18 O20 1.754935 1_555
H19 O23 1.017182 1_555
H19 O22 1.754020 1_555
O0 Te0 1.966002 1_554
O1 Te1 1.949947 1_555
O2 Te2 1.954400 1_545
O3 Te3 1.961470 1_656
O4 Te0 1.949947 1_555
O5 Te1 1.966002 1_555
O6 Te2 1.961470 1_455
O7 Te3 1.954400 1_545
O8 Te0 1.989331 1_555
O9 Te1 1.991666 1_555
O10 Te2 1.984722 1_545
O11 Te3 1.996692 1_655
O12 Te0 1.991666 1_554
O13 Te1 1.989331 1_555
O14 Te2 1.996692 1_455
O15 Te3 1.984722 1_546
O16 Te0 1.999875 1_554
O17 Te1 1.876859 1_555
O18 Te2 2.002277 1_445
O19 Te3 1.876453 1_555
O20 Te0 1.876859 1_555
O21 Te1 1.999875 1_555
O22 Te2 1.876453 1_555
O23 Te3 2.002277 1_646
