# generated using pymatgen
data_Sr3V3BiO12
_symmetry_space_group_name_H-M   'P 1'
_cell_length_a   10.05735639
_cell_length_b   10.05735639
_cell_length_c   7.42058659
_cell_angle_alpha   76.60897690
_cell_angle_beta   76.60897690
_cell_angle_gamma   120.05229250
_symmetry_Int_Tables_number   1
_chemical_formula_structural   Sr3V3BiO12
_chemical_formula_sum   'Sr6 V6 Bi2 O24'
_cell_volume   575.67048847
_cell_formula_units_Z   2
loop_
 _symmetry_equiv_pos_site_id
 _symmetry_equiv_pos_as_xyz
  1  'x, y, z'
loop_
 _atom_site_type_symbol
 _atom_site_label
 _atom_site_symmetry_multiplicity
 _atom_site_fract_x
 _atom_site_fract_y
 _atom_site_fract_z
 _atom_site_occupancy
  Sr  Sr0  1  0.80799400  0.80799400  0.60233600  1
  Sr  Sr1  1  0.45178100  0.13327800  0.59444500  1
  Sr  Sr2  1  0.13327800  0.45178100  0.59444500  1
  Sr  Sr3  1  0.86672200  0.54821900  0.40555500  1
  Sr  Sr4  1  0.54821900  0.86672200  0.40555500  1
  Sr  Sr5  1  0.19200600  0.19200600  0.39766400  1
  V  V0  1  0.92505200  0.26266500  0.21047700  1
  V  V1  1  0.59642700  0.59642700  0.20952300  1
  V  V2  1  0.26266500  0.92505200  0.21047700  1
  V  V3  1  0.73733500  0.07494800  0.78952300  1
  V  V4  1  0.40357300  0.40357300  0.79047700  1
  V  V5  1  0.07494800  0.73733500  0.78952300  1
  Bi  Bi0  1  0.67253700  0.32746300  0.00000000  1
  Bi  Bi1  1  0.32746300  0.67253700  0.00000000  1
  O  O0  1  0.73305000  0.24317700  0.29521300  1
  O  O1  1  0.40009100  0.56978900  0.25996000  1
  O  O2  1  0.06579900  0.87939000  0.32447700  1
  O  O3  1  0.87939000  0.06579900  0.32447700  1
  O  O4  1  0.56978900  0.40009100  0.25996000  1
  O  O5  1  0.24317700  0.73305000  0.29521300  1
  O  O6  1  0.07665800  0.41281000  0.27408400  1
  O  O7  1  0.69332000  0.69332000  0.35178900  1
  O  O8  1  0.41281000  0.07665800  0.27408400  1
  O  O9  1  0.93420100  0.12061000  0.67552300  1
  O  O10  1  0.59990900  0.43021100  0.74004000  1
  O  O11  1  0.26695000  0.75682300  0.70478700  1
  O  O12  1  0.75682300  0.26695000  0.70478700  1
  O  O13  1  0.43021100  0.59990900  0.74004000  1
  O  O14  1  0.12061000  0.93420100  0.67552300  1
  O  O15  1  0.58719000  0.92334200  0.72591600  1
  O  O16  1  0.30668000  0.30668000  0.64821100  1
  O  O17  1  0.92334200  0.58719000  0.72591600  1
  O  O18  1  0.71061400  0.71061400  0.95763700  1
  O  O19  1  0.34180300  0.00152600  0.95264100  1
  O  O20  1  0.00152600  0.34180300  0.95264100  1
  O  O21  1  0.99847400  0.65819700  0.04735900  1
  O  O22  1  0.65819700  0.99847400  0.04735900  1
  O  O23  1  0.28938600  0.28938600  0.04236300  1
loop_
_geom_bond_atom_site_label_1
_geom_bond_atom_site_label_2
_geom_bond_distance
_geom_bond_site_symmetry_2
Bi0 O10 2.409981 1_554
Bi0 O4 2.409981 1_555
Bi0 O8 2.426133 1_555
Bi0 O17 2.426133 1_554
Bi0 O12 2.482350 1_554
Bi0 O0 2.482350 1_555
Bi1 O13 2.409981 1_554
Bi1 O1 2.409981 1_555
Bi1 O6 2.426133 1_555
Bi1 O15 2.426133 1_554
Bi1 O11 2.482350 1_554
Bi1 O5 2.482350 1_555
O0 V0 1.778793 1_555
O0 Sr1 2.641316 1_555
O0 Sr4 3.044779 1_545
O0 Sr3 3.071214 1_555
O1 V1 1.786720 1_555
O1 Sr2 2.670336 1_555
O1 Sr5 3.017802 1_555
O1 Sr4 3.176320 1_555
O2 V2 1.726345 1_555
O2 Sr0 2.542235 1_455
O2 Sr3 2.701655 1_455
O2 Sr5 2.984037 1_565
O3 V0 1.726345 1_555
O3 Sr0 2.542235 1_545
O3 Sr4 2.701655 1_545
O3 Sr5 2.984037 1_655
O4 V1 1.786720 1_555
O4 Sr1 2.670336 1_555
O4 Sr5 3.017802 1_555
O4 Sr3 3.176320 1_555
O5 V2 1.778793 1_555
O5 Sr2 2.641316 1_555
O5 Sr3 3.044779 1_455
O5 Sr4 3.071214 1_555
O6 V0 1.784749 1_455
O6 Sr2 2.639007 1_555
O6 Sr5 3.041069 1_555
O6 Sr3 3.131407 1_455
O7 V1 1.736563 1_555
O7 Sr0 2.602130 1_555
O7 Sr3 2.816362 1_555
O7 Sr4 2.816362 1_555
O8 V2 1.784749 1_545
O8 Sr1 2.639007 1_555
O8 Sr5 3.041069 1_555
O8 Sr4 3.131407 1_545
O9 V3 1.726345 1_555
O9 Sr5 2.542235 1_655
O9 Sr2 2.701655 1_655
O9 Sr0 2.984037 1_545
O10 V4 1.786720 1_555
O10 Sr3 2.670336 1_555
O10 Sr0 3.017802 1_555
O10 Sr1 3.176320 1_555
O11 V5 1.778793 1_555
O11 Sr4 2.641316 1_555
O11 Sr1 3.044779 1_565
O11 Sr2 3.071214 1_555
O12 V3 1.778793 1_555
O12 Sr3 2.641316 1_555
O12 Sr2 3.044779 1_655
O12 Sr1 3.071214 1_555
O13 V4 1.786720 1_555
O13 Sr4 2.670336 1_555
O13 Sr0 3.017802 1_555
O13 Sr2 3.176320 1_555
O14 V5 1.726345 1_555
O14 Sr5 2.542235 1_565
O14 Sr1 2.701655 1_565
O14 Sr0 2.984037 1_455
O15 V3 1.784749 1_565
O15 Sr4 2.639007 1_555
O15 Sr0 3.041069 1_555
O15 Sr1 3.131407 1_565
O16 V4 1.736563 1_555
O16 Sr5 2.602130 1_555
O16 Sr2 2.816362 1_555
O16 Sr1 2.816362 1_555
O17 V5 1.784749 1_655
O17 Sr3 2.639007 1_555
O17 Sr0 3.041069 1_555
O17 Sr2 3.131407 1_655
O18 V1 1.679863 1_556
O18 Sr0 2.348816 1_555
O19 V2 1.698715 1_546
O19 Sr1 2.362880 1_555
O20 V0 1.698715 1_456
O20 Sr2 2.362880 1_555
O21 V5 1.698715 1_654
O21 Sr3 2.362880 1_555
O22 V3 1.698715 1_564
O22 Sr4 2.362880 1_555
O23 V4 1.679863 1_554
O23 Sr5 2.348816 1_555
