# generated using pymatgen
data_SmEuCrSnO6
_symmetry_space_group_name_H-M   'P 1'
_cell_length_a   5.66476168
_cell_length_b   5.66476168
_cell_length_c   5.66476168
_cell_angle_alpha   60.00000000
_cell_angle_beta   60.00000000
_cell_angle_gamma   60.00000000
_symmetry_Int_Tables_number   1
_chemical_formula_structural   SmEuCrSnO6
_chemical_formula_sum   'Sm1 Eu1 Cr1 Sn1 O6'
_cell_volume   128.53752508
_cell_formula_units_Z   1
loop_
 _symmetry_equiv_pos_site_id
 _symmetry_equiv_pos_as_xyz
  1  'x, y, z'
loop_
 _atom_site_type_symbol
 _atom_site_label
 _atom_site_symmetry_multiplicity
 _atom_site_fract_x
 _atom_site_fract_y
 _atom_site_fract_z
 _atom_site_occupancy
  Sm  Sm0  1  0.75000000  0.75000000  0.75000000  1
  Eu  Eu0  1  0.25000000  0.25000000  0.25000000  1
  Cr  Cr0  1  -0.00000000  -0.00000000  -0.00000000  1
  Sn  Sn0  1  0.50000000  0.50000000  0.50000000  1
  O  O0  1  0.75346227  0.24653773  0.24653773  1
  O  O1  1  0.24653773  0.75346227  0.75346227  1
  O  O2  1  0.75346227  0.24653773  0.75346227  1
  O  O3  1  0.24653773  0.75346227  0.24653773  1
  O  O4  1  0.75346227  0.75346227  0.24653773  1
  O  O5  1  0.24653773  0.24653773  0.75346227  1
loop_
_geom_bond_atom_site_label_1
_geom_bond_atom_site_label_2
_geom_bond_distance
_geom_bond_site_symmetry_2
Eu0 O3 2.832517 1_555
Eu0 O4 2.832517 1_455
Eu0 O0 2.832517 1_555
Eu0 O1 2.832517 1_554
Eu0 O3 2.832517 1_545
Eu0 O2 2.832517 1_455
Eu0 O5 2.832517 1_554
Eu0 O2 2.832517 1_554
Eu0 O5 2.832517 1_555
Eu0 O4 2.832517 1_545
Eu0 O1 2.832517 1_545
Eu0 O0 2.832517 1_455
Cr0 O4 1.975059 1_445
Cr0 O3 1.975059 1_545
Cr0 O1 1.975059 1_544
Cr0 O5 1.975059 1_554
Cr0 O0 1.975059 1_455
Cr0 O2 1.975059 1_454
O0 Sn0 2.030533 1_555
O0 Sm0 2.832517 1_554
O0 Sm0 2.832517 1_545
O1 Sn0 2.030533 1_555
O1 Sm0 2.832517 1_455
O1 Sm0 2.832517 1_555
O2 Sn0 2.030533 1_555
O2 Sm0 2.832517 1_555
O2 Sm0 2.832517 1_545
O3 Sn0 2.030533 1_555
O3 Sm0 2.832517 1_554
O3 Sm0 2.832517 1_455
O4 Sn0 2.030533 1_555
O4 Sm0 2.832517 1_554
O4 Sm0 2.832517 1_555
O5 Sn0 2.030533 1_555
O5 Sm0 2.832517 1_455
O5 Sm0 2.832517 1_545
