# generated using pymatgen
data_Cs11Fe10S16O
_symmetry_space_group_name_H-M   'P 1'
_cell_length_a   11.40364232
_cell_length_b   11.40364232
_cell_length_c   11.40364232
_cell_angle_alpha   113.55877009
_cell_angle_beta   113.55877009
_cell_angle_gamma   101.57327384
_symmetry_Int_Tables_number   1
_chemical_formula_structural   Cs11Fe10S16O
_chemical_formula_sum   'Cs11 Fe10 S16 O1'
_cell_volume   1125.63622893
_cell_formula_units_Z   1
loop_
 _symmetry_equiv_pos_site_id
 _symmetry_equiv_pos_as_xyz
  1  'x, y, z'
loop_
 _atom_site_type_symbol
 _atom_site_label
 _atom_site_symmetry_multiplicity
 _atom_site_fract_x
 _atom_site_fract_y
 _atom_site_fract_z
 _atom_site_occupancy
  Cs  Cs0  1  0.50000000  0.50000000  0.00000000  1
  Cs  Cs1  1  0.78301400  0.78301400  0.00000000  1
  Cs  Cs2  1  0.21698600  0.21698600  0.00000000  1
  Cs  Cs3  1  0.16751300  0.16751300  0.33502500  1
  Cs  Cs4  1  0.83248700  0.83248700  0.66497500  1
  Cs  Cs5  1  0.16751300  0.83248700  0.00000000  1
  Cs  Cs6  1  0.83248700  0.16751300  0.00000000  1
  Cs  Cs7  1  0.17090400  0.50000000  0.67090400  1
  Cs  Cs8  1  0.82909600  0.50000000  0.32909600  1
  Cs  Cs9  1  0.50000000  0.82909600  0.32909600  1
  Cs  Cs10  1  0.50000000  0.17090400  0.67090400  1
  Fe  Fe0  1  0.75000000  0.25000000  0.50000000  1
  Fe  Fe1  1  0.25000000  0.75000000  0.50000000  1
  Fe  Fe2  1  0.91778500  0.41778500  0.83557000  1
  Fe  Fe3  1  0.58221500  0.08221500  0.16443000  1
  Fe  Fe4  1  0.91778500  0.08221500  0.50000000  1
  Fe  Fe5  1  0.58221500  0.41778500  0.50000000  1
  Fe  Fe6  1  0.41778500  0.58221500  0.50000000  1
  Fe  Fe7  1  0.08221500  0.91778500  0.50000000  1
  Fe  Fe8  1  0.41778500  0.91778500  0.83557000  1
  Fe  Fe9  1  0.08221500  0.58221500  0.16443000  1
  S  S0  1  0.84032800  0.18533700  0.34500900  1
  S  S1  1  0.84032800  0.49532000  0.65499100  1
  S  S2  1  0.18533700  0.84032800  0.34500900  1
  S  S3  1  0.49532000  0.84032800  0.65499100  1
  S  S4  1  0.15967200  0.81466300  0.65499100  1
  S  S5  1  0.15967200  0.50468000  0.34500900  1
  S  S6  1  0.81466300  0.15967200  0.65499100  1
  S  S7  1  0.50468000  0.15967200  0.34500900  1
  S  S8  1  0.83193600  0.83193600  0.35440200  1
  S  S9  1  0.47753400  0.47753400  0.64559800  1
  S  S10  1  0.83193600  0.47753400  0.00000000  1
  S  S11  1  0.47753400  0.83193600  0.00000000  1
  S  S12  1  0.16806400  0.16806400  0.64559800  1
  S  S13  1  0.52246600  0.52246600  0.35440200  1
  S  S14  1  0.16806400  0.52246600  0.00000000  1
  S  S15  1  0.52246600  0.16806400  0.00000000  1
  O  O0  1  0.00000000  0.00000000  0.00000000  1
loop_
_geom_bond_atom_site_label_1
_geom_bond_atom_site_label_2
_geom_bond_distance
_geom_bond_site_symmetry_2
Cs0 S12 3.844878 1_554
Cs0 S9 3.844878 1_554
Cs0 S13 3.844878 1_555
Cs0 S8 3.844878 1_555
Cs0 S11 3.844878 1_555
Cs0 S10 3.844878 1_555
Cs0 S14 3.844878 1_555
Cs0 S15 3.844878 1_555
Cs1 O0 3.128720 1_665
Cs1 S9 3.636811 1_554
Cs1 S11 3.636811 1_555
Cs1 S8 3.636811 1_555
Cs1 S10 3.636811 1_555
Cs2 O0 3.128720 1_555
Cs2 S13 3.636811 1_555
Cs2 S15 3.636811 1_555
Cs2 S14 3.636811 1_555
Cs2 S12 3.636811 1_554
Cs3 O0 2.960116 1_555
Cs3 S9 3.536637 1_555
Cs3 S12 3.536646 1_555
Cs3 S7 3.821074 1_555
Cs3 S5 3.821074 1_555
Cs3 S0 3.821094 1_455
Cs3 S2 3.821094 1_545
Cs4 O0 2.960116 1_666
Cs4 S13 3.536637 1_555
Cs4 S8 3.536646 1_555
Cs4 S3 3.821074 1_555
Cs4 S1 3.821074 1_555
Cs4 S4 3.821094 1_655
Cs4 S6 3.821094 1_565
Cs5 O0 2.960125 1_565
Cs5 S11 3.536635 1_555
Cs5 S14 3.536635 1_555
Cs5 S1 3.821085 1_454
Cs5 S7 3.821085 1_565
Cs5 S4 3.821090 1_554
Cs5 S2 3.821090 1_555
Cs6 O0 2.960125 1_655
Cs6 S10 3.536635 1_555
Cs6 S15 3.536635 1_555
Cs6 S3 3.821085 1_544
Cs6 S5 3.821085 1_655
Cs6 S6 3.821090 1_554
Cs6 S0 3.821090 1_555
Cs7 S9 3.671893 1_555
Cs7 S11 3.671893 1_556
Cs7 S12 3.671893 1_555
Cs7 S14 3.671893 1_556
Cs7 S5 3.689388 1_555
Cs7 S4 3.689393 1_555
Cs7 S0 3.689393 1_455
Cs7 S1 3.689395 1_455
Cs8 S10 3.671893 1_555
Cs8 S15 3.671893 1_555
Cs8 S8 3.671893 1_555
Cs8 S13 3.671893 1_555
Cs8 S1 3.689388 1_555
Cs8 S4 3.689393 1_655
Cs8 S0 3.689393 1_555
Cs8 S5 3.689395 1_655
Cs9 S11 3.671893 1_555
Cs9 S14 3.671893 1_555
Cs9 S8 3.671893 1_555
Cs9 S13 3.671893 1_555
Cs9 S3 3.689388 1_555
Cs9 S6 3.689393 1_565
Cs9 S2 3.689393 1_555
Cs9 S7 3.689395 1_565
Cs10 S9 3.671893 1_555
Cs10 S12 3.671893 1_555
Cs10 S10 3.671893 1_556
Cs10 S15 3.671893 1_556
Cs10 S7 3.689388 1_555
Cs10 S6 3.689393 1_555
Cs10 S2 3.689393 1_545
Cs10 S3 3.689395 1_545
Fe0 S0 2.333879 1_555
Fe0 S6 2.333879 1_555
Fe0 S7 2.333889 1_555
Fe0 S1 2.333889 1_555
Fe1 S2 2.333879 1_555
Fe1 S4 2.333879 1_555
Fe1 S5 2.333889 1_555
Fe1 S3 2.333889 1_555
Fe2 S10 2.377488 1_556
Fe2 S14 2.377488 1_656
Fe2 S6 2.473320 1_555
Fe2 S1 2.473329 1_555
Fe3 S11 2.377488 1_545
Fe3 S15 2.377488 1_555
Fe3 S0 2.473320 1_555
Fe3 S7 2.473329 1_555
Fe4 S8 2.377488 1_545
Fe4 S12 2.377488 1_655
Fe4 S6 2.473320 1_555
Fe4 S0 2.473320 1_555
Fe5 S13 2.377488 1_555
Fe5 S9 2.377488 1_555
Fe5 S1 2.473318 1_555
Fe5 S7 2.473318 1_555
Fe6 S9 2.377488 1_555
Fe6 S13 2.377488 1_555
Fe6 S3 2.473318 1_555
Fe6 S5 2.473318 1_555
Fe7 S8 2.377488 1_455
Fe7 S12 2.377488 1_565
Fe7 S4 2.473320 1_555
Fe7 S2 2.473320 1_555
Fe8 S11 2.377488 1_556
Fe8 S15 2.377488 1_566
Fe8 S4 2.473320 1_555
Fe8 S3 2.473329 1_555
Fe9 S14 2.377488 1_555
Fe9 S10 2.377488 1_455
Fe9 S2 2.473320 1_555
Fe9 S5 2.473329 1_555
