# generated using pymatgen
data_K3NaMnCl6
_symmetry_space_group_name_H-M   'P 1'
_cell_length_a   8.45594364
_cell_length_b   8.45594364
_cell_length_c   8.45594373
_cell_angle_alpha   92.22055488
_cell_angle_beta   92.22055488
_cell_angle_gamma   92.22055037
_symmetry_Int_Tables_number   1
_chemical_formula_structural   K3NaMnCl6
_chemical_formula_sum   'K6 Na2 Mn2 Cl12'
_cell_volume   603.22684974
_cell_formula_units_Z   2
loop_
 _symmetry_equiv_pos_site_id
 _symmetry_equiv_pos_as_xyz
  1  'x, y, z'
loop_
 _atom_site_type_symbol
 _atom_site_label
 _atom_site_symmetry_multiplicity
 _atom_site_fract_x
 _atom_site_fract_y
 _atom_site_fract_z
 _atom_site_occupancy
  K  K0  1  0.12752800  0.37247200  0.75000000  1
  K  K1  1  0.75000000  0.12752800  0.37247200  1
  K  K2  1  0.37247200  0.75000000  0.12752800  1
  K  K3  1  0.25000000  0.87247200  0.62752800  1
  K  K4  1  0.62752800  0.25000000  0.87247200  1
  K  K5  1  0.87247200  0.62752800  0.25000000  1
  Na  Na0  1  0.25000000  0.25000000  0.25000000  1
  Na  Na1  1  0.75000000  0.75000000  0.75000000  1
  Mn  Mn0  1  0.50000000  0.50000000  0.50000000  1
  Mn  Mn1  1  0.00000000  0.00000000  0.00000000  1
  Cl  Cl0  1  0.21090500  0.54462400  0.41855000  1
  Cl  Cl1  1  0.41855000  0.21090500  0.54462400  1
  Cl  Cl2  1  0.54462400  0.41855000  0.21090500  1
  Cl  Cl3  1  0.91855000  0.04462400  0.71090500  1
  Cl  Cl4  1  0.71090500  0.91855000  0.04462400  1
  Cl  Cl5  1  0.04462400  0.71090500  0.91855000  1
  Cl  Cl6  1  0.78909500  0.45537600  0.58145000  1
  Cl  Cl7  1  0.58145000  0.78909500  0.45537600  1
  Cl  Cl8  1  0.45537600  0.58145000  0.78909500  1
  Cl  Cl9  1  0.08145000  0.95537600  0.28909500  1
  Cl  Cl10  1  0.28909500  0.08145000  0.95537600  1
  Cl  Cl11  1  0.95537600  0.28909500  0.08145000  1
loop_
_geom_bond_atom_site_label_1
_geom_bond_atom_site_label_2
_geom_bond_distance
_geom_bond_site_symmetry_2
Cl0 Mn0 2.560043 1_555
Cl0 Na0 2.858757 1_555
Cl0 K3 3.228232 1_555
Cl0 K5 3.260265 1_455
Cl0 K0 3.295628 1_555
Cl0 K2 3.368407 1_555
Cl1 Mn0 2.560043 1_555
Cl1 Na0 2.858757 1_555
Cl1 K4 3.228232 1_555
Cl1 K3 3.260265 1_545
Cl1 K1 3.295628 1_555
Cl1 K0 3.368406 1_555
Cl2 Mn0 2.560043 1_555
Cl2 Na0 2.858758 1_555
Cl2 K5 3.228232 1_555
Cl2 K4 3.260265 1_554
Cl2 K2 3.295628 1_555
Cl2 K1 3.368406 1_555
Cl3 Mn1 2.560043 1_656
Cl3 Na1 2.858758 1_545
Cl3 K0 3.228232 1_655
Cl3 K1 3.260265 1_555
Cl3 K3 3.295628 1_645
Cl3 K4 3.368406 1_555
Cl4 Mn1 2.560043 1_665
Cl4 Na1 2.858757 1_554
Cl4 K1 3.228232 1_565
Cl4 K2 3.260265 1_555
Cl4 K4 3.295628 1_564
Cl4 K5 3.368406 1_555
Cl5 Mn1 2.560043 1_566
Cl5 Na1 2.858757 1_455
Cl5 K2 3.228232 1_556
Cl5 K0 3.260265 1_555
Cl5 K5 3.295628 1_456
Cl5 K3 3.368407 1_555
Cl6 Mn0 2.560043 1_555
Cl6 Na1 2.858757 1_555
Cl6 K1 3.228232 1_555
Cl6 K0 3.260265 1_655
Cl6 K5 3.295628 1_555
Cl6 K4 3.368407 1_555
Cl7 Mn0 2.560043 1_555
Cl7 Na1 2.858757 1_555
Cl7 K2 3.228232 1_555
Cl7 K1 3.260265 1_565
Cl7 K3 3.295628 1_555
Cl7 K5 3.368406 1_555
Cl8 Mn0 2.560043 1_555
Cl8 Na1 2.858758 1_555
Cl8 K0 3.228232 1_555
Cl8 K2 3.260265 1_556
Cl8 K4 3.295628 1_555
Cl8 K3 3.368406 1_555
Cl9 Mn1 2.560043 1_565
Cl9 Na0 2.858758 1_565
Cl9 K5 3.228232 1_455
Cl9 K3 3.260265 1_555
Cl9 K1 3.295628 1_465
Cl9 K2 3.368406 1_555
Cl10 Mn1 2.560043 1_556
Cl10 Na0 2.858757 1_556
Cl10 K3 3.228232 1_545
Cl10 K4 3.260265 1_555
Cl10 K2 3.295628 1_546
Cl10 K0 3.368406 1_555
Cl11 Mn1 2.560043 1_655
Cl11 Na0 2.858757 1_655
Cl11 K4 3.228232 1_554
Cl11 K5 3.260265 1_555
Cl11 K0 3.295628 1_654
Cl11 K1 3.368407 1_555
