# generated using pymatgen
data_Tb3(In3Pt)4
_symmetry_space_group_name_H-M   'P 1'
_cell_length_a   10.05153778
_cell_length_b   10.05153778
_cell_length_c   15.45614300
_cell_angle_alpha   90.00000000
_cell_angle_beta   90.00000000
_cell_angle_gamma   119.99999855
_symmetry_Int_Tables_number   1
_chemical_formula_structural   Tb3(In3Pt)4
_chemical_formula_sum   'Tb9 In36 Pt12'
_cell_volume   1352.37391026
_cell_formula_units_Z   3
loop_
 _symmetry_equiv_pos_site_id
 _symmetry_equiv_pos_as_xyz
  1  'x, y, z'
loop_
 _atom_site_type_symbol
 _atom_site_label
 _atom_site_symmetry_multiplicity
 _atom_site_fract_x
 _atom_site_fract_y
 _atom_site_fract_z
 _atom_site_occupancy
  Tb  Tb0  1  0.33333300  0.66666700  0.01358200  1
  Tb  Tb1  1  0.66666700  0.33333300  0.98641800  1
  Tb  Tb2  1  0.50739000  0.49261000  0.30526700  1
  Tb  Tb3  1  0.49261000  0.50739000  0.69473300  1
  Tb  Tb4  1  0.50739000  0.01477900  0.30526700  1
  Tb  Tb5  1  0.49261000  0.98522100  0.69473300  1
  Tb  Tb6  1  0.98522100  0.49261000  0.30526700  1
  Tb  Tb7  1  0.01477900  0.50739000  0.69473300  1
  Tb  Tb8  1  0.00000000  0.00000000  0.50000000  1
  In  In0  1  0.33333300  0.66666700  0.38409000  1
  In  In1  1  0.66666700  0.33333300  0.61591000  1
  In  In2  1  0.21224100  0.78775900  0.18650500  1
  In  In3  1  0.78775900  0.21224100  0.81349500  1
  In  In4  1  0.21224100  0.42448300  0.18650500  1
  In  In5  1  0.78775900  0.57551700  0.81349500  1
  In  In6  1  0.57551700  0.78775900  0.18650500  1
  In  In7  1  0.42448300  0.21224100  0.81349500  1
  In  In8  1  0.77843700  0.22156300  0.16754200  1
  In  In9  1  0.22156300  0.77843700  0.83245800  1
  In  In10  1  0.77843700  0.55687400  0.16754200  1
  In  In11  1  0.22156300  0.44312600  0.83245800  1
  In  In12  1  0.44312600  0.22156300  0.16754200  1
  In  In13  1  0.55687400  0.77843700  0.83245800  1
  In  In14  1  0.33333300  0.66666700  0.58067500  1
  In  In15  1  0.66666700  0.33333300  0.41932500  1
  In  In16  1  0.28686400  0.00000000  0.00000000  1
  In  In17  1  0.71313600  0.00000000  0.00000000  1
  In  In18  1  0.00000000  0.28686400  0.00000000  1
  In  In19  1  0.00000000  0.71313600  0.00000000  1
  In  In20  1  0.71313600  0.71313600  0.00000000  1
  In  In21  1  0.28686400  0.28686400  0.00000000  1
  In  In22  1  0.00000000  0.00000000  0.12740000  1
  In  In23  1  0.00000000  0.00000000  0.87260000  1
  In  In24  1  0.34979200  0.00000000  0.50000000  1
  In  In25  1  0.65020800  0.00000000  0.50000000  1
  In  In26  1  0.00000000  0.34979200  0.50000000  1
  In  In27  1  0.00000000  0.65020800  0.50000000  1
  In  In28  1  0.65020800  0.65020800  0.50000000  1
  In  In29  1  0.34979200  0.34979200  0.50000000  1
  In  In30  1  0.88136900  0.11863100  0.32140200  1
  In  In31  1  0.11863100  0.88136900  0.67859800  1
  In  In32  1  0.88136900  0.76273800  0.32140200  1
  In  In33  1  0.11863100  0.23726200  0.67859800  1
  In  In34  1  0.23726200  0.11863100  0.32140200  1
  In  In35  1  0.76273800  0.88136900  0.67859800  1
  Pt  Pt0  1  0.49462300  0.50537700  0.11101200  1
  Pt  Pt1  1  0.50537700  0.49462300  0.88898800  1
  Pt  Pt2  1  0.49462300  0.98924500  0.11101200  1
  Pt  Pt3  1  0.50537700  0.01075500  0.88898800  1
  Pt  Pt4  1  0.01075500  0.50537700  0.11101200  1
  Pt  Pt5  1  0.98924500  0.49462300  0.88898800  1
  Pt  Pt6  1  0.17248200  0.82751800  0.36137100  1
  Pt  Pt7  1  0.82751800  0.17248200  0.63862900  1
  Pt  Pt8  1  0.17248200  0.34496400  0.36137100  1
  Pt  Pt9  1  0.82751800  0.65503600  0.63862900  1
  Pt  Pt10  1  0.65503600  0.82751800  0.36137100  1
  Pt  Pt11  1  0.34496400  0.17248200  0.63862900  1
loop_
_geom_bond_atom_site_label_1
_geom_bond_atom_site_label_2
_geom_bond_distance
_geom_bond_site_symmetry_2
In0 Pt6 2.822309 1_555
In0 Pt10 2.822318 1_555
In0 Pt8 2.822318 1_555
In0 In14 3.038446 1_555
In0 Tb4 3.266010 1_565
In0 Tb6 3.266010 1_455
In0 Tb2 3.266027 1_555
In1 Pt7 2.822309 1_555
In1 Pt11 2.822318 1_555
In1 Pt9 2.822318 1_555
In1 In15 3.038446 1_555
In1 Tb7 3.266010 1_655
In1 Tb5 3.266010 1_545
In1 Tb3 3.266027 1_555
In2 Pt4 2.787664 1_555
In2 Pt2 2.787664 1_555
In2 Pt6 2.789984 1_555
In2 Tb6 3.257009 1_455
In2 Tb4 3.257009 1_565
In2 Tb0 3.404099 1_555
In3 Pt3 2.787664 1_555
In3 Pt5 2.787664 1_555
In3 Pt7 2.789984 1_555
In3 Tb5 3.257009 1_545
In3 Tb7 3.257009 1_655
In3 Tb1 3.404099 1_555
In4 Pt4 2.787651 1_555
In4 Pt0 2.787669 1_555
In4 Pt8 2.789987 1_555
In4 Tb6 3.256997 1_455
In4 Tb2 3.257014 1_555
In4 Tb0 3.404099 1_555
In5 Pt5 2.787651 1_555
In5 Pt1 2.787669 1_555
In5 Pt9 2.789987 1_555
In5 Tb7 3.256997 1_655
In5 Tb3 3.257014 1_555
In5 Tb1 3.404099 1_555
In6 Pt2 2.787651 1_555
In6 Pt0 2.787669 1_555
In6 Pt10 2.789987 1_555
In6 Tb4 3.256997 1_565
In6 Tb2 3.257014 1_555
In6 Tb0 3.404099 1_555
In7 Pt3 2.787651 1_555
In7 Pt1 2.787669 1_555
In7 Pt11 2.789987 1_555
In7 Tb5 3.256997 1_545
In7 Tb3 3.257014 1_555
In7 Tb1 3.404099 1_555
In8 Pt2 2.773623 1_545
In8 Pt4 2.773623 1_655
In8 Tb4 3.257504 1_555
In8 Tb6 3.257504 1_555
In8 Tb1 3.409336 1_554
In9 Pt5 2.773623 1_455
In9 Pt3 2.773623 1_565
In9 Tb7 3.257504 1_555
In9 Tb5 3.257504 1_555
In9 Tb0 3.409336 1_556
In10 Pt0 2.773620 1_555
In10 Pt4 2.773629 1_655
In10 Tb2 3.257502 1_555
In10 Tb6 3.257509 1_555
In10 Tb1 3.409341 1_554
In11 Pt1 2.773620 1_555
In11 Pt5 2.773629 1_455
In11 Tb3 3.257502 1_555
In11 Tb7 3.257509 1_555
In11 Tb0 3.409341 1_556
In12 Pt0 2.773620 1_555
In12 Pt2 2.773629 1_545
In12 Tb2 3.257502 1_555
In12 Tb4 3.257509 1_555
In12 Tb1 3.409341 1_554
In13 Pt1 2.773620 1_555
In13 Pt3 2.773629 1_565
In13 Tb3 3.257502 1_555
In13 Tb5 3.257509 1_555
In13 Tb0 3.409341 1_556
In14 Tb3 3.285910 1_555
In14 Tb5 3.285910 1_555
In14 Tb7 3.285910 1_555
In15 Tb2 3.285910 1_555
In15 Tb6 3.285910 1_555
In15 Tb4 3.285910 1_555
In16 Pt3 2.746345 1_554
In16 Pt2 2.746353 1_545
In16 In23 3.491639 1_554
In16 In22 3.491639 1_555
In16 Tb0 3.612910 1_545
In16 Tb1 3.612916 1_554
In17 Pt2 2.746345 1_545
In17 Pt3 2.746353 1_554
In17 In23 3.491639 1_654
In17 In22 3.491639 1_655
In17 Tb1 3.612910 1_554
In17 Tb0 3.612916 1_545
In18 Pt4 2.746345 1_555
In18 Pt5 2.746353 1_454
In18 In23 3.491639 1_554
In18 In22 3.491639 1_555
In18 Tb1 3.612910 1_454
In18 Tb0 3.612916 1_555
In19 Pt5 2.746345 1_454
In19 Pt4 2.746353 1_555
In19 In23 3.491639 1_564
In19 In22 3.491639 1_565
In19 Tb0 3.612910 1_555
In19 Tb1 3.612916 1_454
In20 Pt0 2.746349 1_555
In20 Pt1 2.746349 1_554
In20 In23 3.491639 1_664
In20 In22 3.491639 1_665
In20 Tb0 3.612920 1_555
In20 Tb1 3.612920 1_554
In21 Pt1 2.746349 1_554
In21 Pt0 2.746349 1_555
In21 In23 3.491639 1_554
In21 In22 3.491639 1_555
In21 Tb0 3.612920 1_555
In21 Tb1 3.612920 1_554
In24 Pt11 2.771871 1_555
In24 Pt6 2.771871 1_545
In24 Tb5 3.369736 1_545
In24 Tb4 3.369740 1_555
In24 Tb8 3.515948 1_555
In25 Pt10 2.771871 1_545
In25 Pt7 2.771871 1_555
In25 Tb4 3.369736 1_555
In25 Tb5 3.369740 1_545
In25 Tb8 3.515948 1_655
In26 Pt8 2.771871 1_555
In26 Pt7 2.771871 1_455
In26 Tb6 3.369736 1_455
In26 Tb7 3.369740 1_555
In26 Tb8 3.515948 1_555
In27 Pt9 2.771871 1_455
In27 Pt6 2.771871 1_555
In27 Tb7 3.369736 1_555
In27 Tb6 3.369740 1_455
In27 Tb8 3.515948 1_565
In28 Pt10 2.771871 1_555
In28 Pt9 2.771871 1_555
In28 Tb3 3.369738 1_555
In28 Tb2 3.369738 1_555
In28 Tb8 3.515948 1_665
In29 Pt11 2.771871 1_555
In29 Pt8 2.771871 1_555
In29 Tb3 3.369738 1_555
In29 Tb2 3.369738 1_555
In29 Tb8 3.515948 1_555
In30 Pt10 2.731768 1_545
In30 Pt8 2.731768 1_655
In30 Tb4 3.370229 1_555
In30 Tb6 3.370229 1_555
In30 Tb8 3.447555 1_655
In31 Pt9 2.731768 1_455
In31 Pt11 2.731768 1_565
In31 Tb7 3.370229 1_555
In31 Tb5 3.370229 1_555
In31 Tb8 3.447555 1_565
In32 Pt10 2.731768 1_555
In32 Pt6 2.731768 1_655
In32 Tb2 3.370231 1_555
In32 Tb6 3.370238 1_555
In32 Tb8 3.447555 1_665
In33 Pt11 2.731768 1_555
In33 Pt7 2.731768 1_455
In33 Tb3 3.370231 1_555
In33 Tb7 3.370238 1_555
In33 Tb8 3.447555 1_555
In34 Pt8 2.731768 1_555
In34 Pt6 2.731768 1_545
In34 Tb2 3.370231 1_555
In34 Tb4 3.370238 1_555
In34 Tb8 3.447555 1_555
In35 Pt9 2.731768 1_555
In35 Pt7 2.731768 1_565
In35 Tb3 3.370231 1_555
In35 Tb5 3.370238 1_555
In35 Tb8 3.447555 1_665
Pt0 Tb2 3.010649 1_555
Pt0 Tb0 3.186330 1_555
Pt0 Tb1 3.560897 1_554
Pt1 Tb3 3.010649 1_555
Pt1 Tb1 3.186330 1_555
Pt1 Tb0 3.560897 1_556
Pt2 Tb4 3.010649 1_565
Pt2 Tb0 3.186315 1_555
Pt2 Tb1 3.560897 1_564
Pt3 Tb5 3.010649 1_545
Pt3 Tb1 3.186315 1_555
Pt3 Tb0 3.560897 1_546
Pt4 Tb6 3.010649 1_455
Pt4 Tb0 3.186315 1_555
Pt4 Tb1 3.560897 1_454
Pt5 Tb7 3.010649 1_655
Pt5 Tb1 3.186315 1_555
Pt5 Tb0 3.560897 1_656
Pt6 Tb4 3.048077 1_565
Pt6 Tb6 3.048077 1_455
Pt6 Tb8 3.688940 1_565
Pt7 Tb7 3.048077 1_655
Pt7 Tb5 3.048077 1_545
Pt7 Tb8 3.688940 1_655
Pt8 Tb6 3.048069 1_455
Pt8 Tb2 3.048078 1_555
Pt8 Tb8 3.688940 1_555
Pt9 Tb7 3.048069 1_655
Pt9 Tb3 3.048078 1_555
Pt9 Tb8 3.688940 1_665
Pt10 Tb4 3.048069 1_565
Pt10 Tb2 3.048078 1_555
Pt10 Tb8 3.688940 1_665
Pt11 Tb5 3.048069 1_545
Pt11 Tb3 3.048078 1_555
Pt11 Tb8 3.688940 1_555
