# generated using pymatgen
data_Li9Co7O16
_symmetry_space_group_name_H-M   'P 1'
_cell_length_a   4.84953306
_cell_length_b   5.61447519
_cell_length_c   9.39621324
_cell_angle_alpha   90.01245969
_cell_angle_beta   99.73248149
_cell_angle_gamma   90.00099945
_symmetry_Int_Tables_number   1
_chemical_formula_structural   Li9Co7O16
_chemical_formula_sum   'Li9 Co7 O16'
_cell_volume   252.15412260
_cell_formula_units_Z   1
loop_
 _symmetry_equiv_pos_site_id
 _symmetry_equiv_pos_as_xyz
  1  'x, y, z'
loop_
 _atom_site_type_symbol
 _atom_site_label
 _atom_site_symmetry_multiplicity
 _atom_site_fract_x
 _atom_site_fract_y
 _atom_site_fract_z
 _atom_site_occupancy
  Li  Li0  1  0.74932328  0.75556383  0.24401171  1
  Li  Li1  1  0.74885139  0.49844771  0.75198945  1
  Li  Li2  1  0.74841558  0.24428100  0.24435136  1
  Li  Li3  1  0.25114861  0.50155229  0.24801055  1
  Li  Li4  1  0.25067672  0.24443617  0.75598829  1
  Li  Li5  1  0.25882852  0.00031733  0.24404712  1
  Li  Li6  1  0.74117148  0.99968267  0.75595288  1
  Li  Li7  1  0.25158442  0.75571900  0.75564864  1
  Li  Li8  1  0.50000000  -0.00000000  -0.00000000  1
  Co  Co0  1  0.99996291  0.75408694  0.99992711  1
  Co  Co1  1  0.00003709  0.24591306  0.00007289  1
  Co  Co2  1  -0.00000000  0.50000000  0.50000000  1
  Co  Co3  1  -0.00000000  -0.00000000  0.50000000  1
  Co  Co4  1  0.49998331  0.25018978  0.50001956  1
  Co  Co5  1  0.50001669  0.74981022  0.49998044  1
  Co  Co6  1  0.50000000  0.50000000  -0.00000000  1
  O  O0  1  0.89593380  0.99997696  0.11420523  1
  O  O1  1  0.86922468  0.74996190  0.60916779  1
  O  O2  1  0.86793731  0.50003821  0.11035020  1
  O  O3  1  0.36261172  0.73450870  0.11078964  1
  O  O4  1  0.36941545  0.50006325  0.60937782  1
  O  O5  1  0.36247903  0.26597658  0.11093752  1
  O  O6  1  0.86938122  0.25004272  0.60926955  1
  O  O7  1  0.36954487  0.99998897  0.61048914  1
  O  O8  1  0.63058455  0.49993675  0.39062218  1
  O  O9  1  0.63738828  0.26549130  0.88921036  1
  O  O10  1  0.63045513  0.00001103  0.38951086  1
  O  O11  1  0.13077532  0.25003810  0.39083221  1
  O  O12  1  0.10406620  0.00002304  0.88579477  1
  O  O13  1  0.13061878  0.74995728  0.39073045  1
  O  O14  1  0.63752097  0.73402342  0.88906248  1
  O  O15  1  0.13206269  0.49996179  0.88964980  1
loop_
_geom_bond_atom_site_label_1
_geom_bond_atom_site_label_2
_geom_bond_distance
_geom_bond_site_symmetry_2
Li0 O0 2.042086 1_555
Li0 O2 2.051802 1_555
Li0 O3 2.074651 1_555
Li0 O10 2.085818 1_565
Li0 O13 2.111605 1_655
Li0 O8 2.134988 1_555
Li1 O9 1.975260 1_555
Li1 O14 1.983457 1_555
Li1 O15 2.077039 1_655
Li1 O4 2.085181 1_555
Li1 O6 2.085504 1_555
Li1 O1 2.097958 1_555
Li2 O0 2.045411 1_545
Li2 O2 2.056876 1_555
Li2 O5 2.072696 1_555
Li2 O10 2.081600 1_555
Li2 O11 2.114435 1_655
Li2 O8 2.130839 1_555
Li3 O3 1.975260 1_555
Li3 O5 1.983457 1_555
Li3 O2 2.077039 1_455
Li3 O8 2.085181 1_555
Li3 O13 2.085504 1_555
Li3 O11 2.097958 1_555
Li4 O12 2.042086 1_555
Li4 O15 2.051802 1_555
Li4 O9 2.074651 1_555
Li4 O7 2.085818 1_545
Li4 O6 2.111605 1_455
Li4 O4 2.134988 1_555
Li5 O0 1.964607 1_445
Li5 O5 2.062766 1_555
Li5 O3 2.064115 1_545
Li5 O10 2.069619 1_555
Li5 O11 2.131294 1_555
Li5 O13 2.133676 1_545
Li6 O12 1.964607 1_665
Li6 O14 2.062766 1_555
Li6 O9 2.064115 1_565
Li6 O7 2.069619 1_555
Li6 O1 2.131294 1_555
Li6 O6 2.133676 1_565
Li7 O12 2.045411 1_565
Li7 O15 2.056876 1_555
Li7 O14 2.072696 1_555
Li7 O7 2.081600 1_555
Li7 O1 2.114435 1_455
Li7 O4 2.130839 1_555
Li8 O3 1.996150 1_545
Li8 O9 1.996150 1_554
Li8 O14 1.998938 1_544
Li8 O5 1.998938 1_555
Li8 O12 2.035109 1_554
Li8 O0 2.035109 1_545
Co0 O12 1.869552 1_665
Co0 O0 1.869746 1_556
Co0 O14 1.888956 1_555
Co0 O3 1.889658 1_656
Co0 O15 1.934839 1_655
Co0 O2 1.935498 1_556
Co1 O0 1.869552 1_445
Co1 O12 1.869746 1_554
Co1 O5 1.888956 1_555
Co1 O9 1.889658 1_454
Co1 O2 1.934839 1_455
Co1 O15 1.935498 1_554
Co2 O8 1.908715 1_455
Co2 O4 1.908715 1_555
Co2 O11 1.908742 1_555
Co2 O1 1.908742 1_455
Co2 O6 1.909281 1_455
Co2 O13 1.909281 1_555
Co3 O13 1.909322 1_545
Co3 O6 1.909322 1_455
Co3 O11 1.909368 1_555
Co3 O1 1.909368 1_445
Co3 O7 1.913235 1_545
Co3 O10 1.913235 1_455
Co4 O11 1.907183 1_555
Co4 O6 1.908187 1_555
Co4 O4 1.909014 1_555
Co4 O8 1.909091 1_555
Co4 O10 1.916516 1_555
Co4 O7 1.916633 1_545
Co5 O1 1.907183 1_555
Co5 O13 1.908187 1_555
Co5 O8 1.909014 1_555
Co5 O4 1.909091 1_555
Co5 O7 1.916516 1_555
Co5 O10 1.916633 1_565
Co6 O5 1.869048 1_555
Co6 O14 1.869048 1_554
Co6 O3 1.869515 1_555
Co6 O9 1.869515 1_554
Co6 O2 1.906148 1_555
Co6 O15 1.906148 1_554
