# generated using pymatgen
data_Li4TiCo5O12
_symmetry_space_group_name_H-M   'P 1'
_cell_length_a   4.92779360
_cell_length_b   10.77567702
_cell_length_c   8.52379903
_cell_angle_alpha   113.27114285
_cell_angle_beta   90.01292311
_cell_angle_gamma   85.50726497
_symmetry_Int_Tables_number   1
_chemical_formula_structural   Li4TiCo5O12
_chemical_formula_sum   'Li8 Ti2 Co10 O24'
_cell_volume   414.28307761
_cell_formula_units_Z   2
loop_
 _symmetry_equiv_pos_site_id
 _symmetry_equiv_pos_as_xyz
  1  'x, y, z'
loop_
 _atom_site_type_symbol
 _atom_site_label
 _atom_site_symmetry_multiplicity
 _atom_site_fract_x
 _atom_site_fract_y
 _atom_site_fract_z
 _atom_site_occupancy
  Li  Li0  1  0.03976000  0.74393300  0.20666500  1
  Li  Li1  1  0.53637400  0.74500600  0.70581500  1
  Li  Li2  1  0.46297400  0.25564300  0.96176900  1
  Li  Li3  1  0.96139500  0.25533600  0.46124700  1
  Li  Li4  1  0.53749000  0.74434700  0.03929500  1
  Li  Li5  1  0.03537400  0.74044500  0.53555000  1
  Li  Li6  1  0.96581500  0.25851600  0.79590300  1
  Li  Li7  1  0.46267700  0.25655000  0.29425900  1
  Ti  Ti0  1  0.99897500  0.00076600  0.00602200  1
  Ti  Ti1  1  0.49971100  0.99945900  0.49858700  1
  Co  Co0  1  0.25027400  0.49997300  0.91526600  1
  Co  Co1  1  0.74984500  0.50004100  0.41535900  1
  Co  Co2  1  0.75012700  0.50008600  0.08494700  1
  Co  Co3  1  0.24999800  0.49989500  0.58499100  1
  Co  Co4  1  0.00018400  0.99954900  0.66803900  1
  Co  Co5  1  0.49967000  0.00029100  0.16681900  1
  Co  Co6  1  0.49975100  0.00031600  0.83471200  1
  Co  Co7  1  0.00000500  0.99968600  0.33081800  1
  Co  Co8  1  0.75005400  0.50009600  0.74957600  1
  Co  Co9  1  0.25007300  0.49989500  0.24948800  1
  O  O0  1  0.40366200  0.60143100  0.79852900  1
  O  O1  1  0.90367000  0.60156800  0.29856100  1
  O  O2  1  0.59653100  0.39863000  0.19718800  1
  O  O3  1  0.09637600  0.39836500  0.69713500  1
  O  O4  1  0.82104600  0.10801200  0.54793300  1
  O  O5  1  0.32318800  0.10784100  0.05454400  1
  O  O6  1  0.17940000  0.89047200  0.43868700  1
  O  O7  1  0.67640500  0.89308200  0.94729700  1
  O  O8  1  0.32499400  0.11110700  0.72559400  1
  O  O9  1  0.80847400  0.10888200  0.22583700  1
  O  O10  1  0.19134700  0.89173700  0.11663500  1
  O  O11  1  0.67475800  0.88870100  0.61510700  1
  O  O12  1  0.80807600  0.10847600  0.88831100  1
  O  O13  1  0.30849300  0.10702800  0.38144900  1
  O  O14  1  0.69104200  0.89266300  0.27384100  1
  O  O15  1  0.19153000  0.89217500  0.78040700  1
  O  O16  1  0.10026500  0.39920600  0.02981000  1
  O  O17  1  0.60005400  0.39939700  0.52992200  1
  O  O18  1  0.60618700  0.39926600  0.87148200  1
  O  O19  1  0.10542900  0.39914700  0.37142000  1
  O  O20  1  0.40008200  0.60062000  0.13034600  1
  O  O21  1  0.89990600  0.60077000  0.63053400  1
  O  O22  1  0.89473500  0.60086000  0.97214400  1
  O  O23  1  0.39382600  0.60073200  0.47215500  1
loop_
_geom_bond_atom_site_label_1
_geom_bond_atom_site_label_2
_geom_bond_distance
_geom_bond_site_symmetry_2
Li0 O1 2.127819 1_455
Li0 O6 2.140153 1_555
Li0 O22 2.149511 1_454
Li0 O14 2.166380 1_455
Li0 O20 2.176670 1_555
Li0 O10 2.199081 1_555
Li1 O0 2.137904 1_555
Li1 O11 2.138235 1_555
Li1 O15 2.142061 1_555
Li1 O23 2.144982 1_555
Li1 O21 2.193817 1_555
Li1 O7 2.199006 1_555
Li2 O2 2.132855 1_556
Li2 O12 2.142962 1_555
Li2 O18 2.144286 1_555
Li2 O8 2.151389 1_555
Li2 O16 2.186897 1_556
Li2 O5 2.191747 1_556
Li3 O3 2.138214 1_655
Li3 O19 2.145130 1_655
Li3 O4 2.154903 1_555
Li3 O13 2.157675 1_655
Li3 O9 2.183623 1_555
Li3 O17 2.184593 1_555
Li4 O20 2.138637 1_555
Li4 O10 2.148328 1_555
Li4 O0 2.163203 1_554
Li4 O22 2.166126 1_554
Li4 O14 2.188097 1_555
Li4 O7 2.194870 1_554
Li5 O21 2.118241 1_455
Li5 O1 2.122311 1_455
Li5 O23 2.149329 1_555
Li5 O11 2.206736 1_455
Li5 O6 2.243577 1_555
Li5 O15 2.263048 1_555
Li6 O16 2.116800 1_656
Li6 O3 2.132664 1_655
Li6 O18 2.159468 1_555
Li6 O8 2.196101 1_655
Li6 O12 2.245448 1_555
Li6 O4 2.253574 1_555
Li7 O17 2.140593 1_555
Li7 O9 2.148991 1_555
Li7 O2 2.150139 1_555
Li7 O19 2.161248 1_555
Li7 O5 2.190899 1_555
Li7 O13 2.205398 1_555
Co0 O20 1.906811 1_556
Co0 O16 1.908533 1_556
Co0 O0 1.935482 1_555
Co0 O3 1.936962 1_555
Co0 O22 1.942163 1_455
Co0 O18 1.942951 1_555
Co1 O17 1.907127 1_555
Co1 O21 1.908140 1_555
Co1 O2 1.935503 1_555
Co1 O1 1.937396 1_555
Co1 O19 1.942353 1_655
Co1 O23 1.943351 1_555
Co2 O18 1.884748 1_554
Co2 O22 1.886281 1_554
Co2 O1 1.907702 1_555
Co2 O2 1.907835 1_555
Co2 O20 1.917050 1_555
Co2 O16 1.918965 1_655
Co3 O23 1.885414 1_555
Co3 O19 1.886548 1_555
Co3 O0 1.907626 1_555
Co3 O3 1.907930 1_555
Co3 O17 1.916966 1_555
Co3 O21 1.918748 1_455
Co4 O15 1.962020 1_555
Co4 O12 1.970904 1_465
Co4 O4 1.994181 1_465
Co4 O6 2.001447 1_555
Co4 O11 2.018878 1_455
Co4 O8 2.020582 1_565
Co5 O13 1.930207 1_555
Co5 O7 1.931160 1_544
Co5 O14 1.931527 1_545
Co5 O5 1.932199 1_555
Co5 O10 1.934547 1_545
Co5 O9 1.936860 1_555
Co6 O15 1.931276 1_545
Co6 O12 1.931823 1_555
Co6 O7 1.931889 1_545
Co6 O5 1.933369 1_556
Co6 O8 1.935959 1_555
Co6 O11 1.937387 1_545
Co7 O4 1.922932 1_465
Co7 O6 1.924456 1_555
Co7 O13 1.927642 1_565
Co7 O14 1.927705 1_455
Co7 O10 1.930301 1_555
Co7 O9 1.932274 1_465
Co8 O0 1.904844 1_555
Co8 O3 1.906323 1_655
Co8 O21 1.935814 1_555
Co8 O17 1.936230 1_555
Co8 O18 1.943180 1_555
Co8 O22 1.944058 1_555
Co9 O2 1.904819 1_555
Co9 O1 1.906402 1_455
Co9 O16 1.935958 1_555
Co9 O20 1.937217 1_555
Co9 O23 1.942983 1_555
Co9 O19 1.944210 1_555
O4 Ti1 1.988389 1_545
O5 Ti0 1.991545 1_455
O6 Ti1 1.986857 1_555
O7 Ti0 1.988306 1_566
O8 Ti1 1.982873 1_545
O9 Ti0 1.963100 1_555
O10 Ti0 1.966796 1_465
O11 Ti1 1.982395 1_555
O12 Ti0 1.996856 1_556
O13 Ti1 1.992826 1_545
O14 Ti1 1.992989 1_555
O15 Ti0 2.004160 1_466
