# generated using pymatgen
data_PrMgIn
_symmetry_space_group_name_H-M   'P 1'
_cell_length_a   7.74522384
_cell_length_b   7.74522384
_cell_length_c   4.79745502
_cell_angle_alpha   90.00000000
_cell_angle_beta   90.00000000
_cell_angle_gamma   120.00000030
_symmetry_Int_Tables_number   1
_chemical_formula_structural   PrMgIn
_chemical_formula_sum   'Pr3 Mg3 In3'
_cell_volume   249.23526309
_cell_formula_units_Z   3
loop_
 _symmetry_equiv_pos_site_id
 _symmetry_equiv_pos_as_xyz
  1  'x, y, z'
loop_
 _atom_site_type_symbol
 _atom_site_label
 _atom_site_symmetry_multiplicity
 _atom_site_fract_x
 _atom_site_fract_y
 _atom_site_fract_z
 _atom_site_occupancy
  Pr  Pr0  1  0.57130303  0.00000000  0.00000000  1
  Pr  Pr1  1  0.00000000  0.57130303  0.00000000  1
  Pr  Pr2  1  0.42869697  0.42869697  0.00000000  1
  Mg  Mg0  1  0.24105604  0.00000000  0.50000000  1
  Mg  Mg1  1  0.00000000  0.24105604  0.50000000  1
  Mg  Mg2  1  0.75894396  0.75894396  0.50000000  1
  In  In0  1  0.33333300  0.66666700  0.50000000  1
  In  In1  1  0.66666700  0.33333300  0.50000000  1
  In  In2  1  0.00000000  0.00000000  0.00000000  1
loop_
_geom_bond_atom_site_label_1
_geom_bond_atom_site_label_2
_geom_bond_distance
_geom_bond_site_symmetry_2
Pr0 Pr1 3.988996 1_545
Pr0 Pr1 3.988996 1_655
Pr0 Pr2 3.988996 1_545
Pr0 Pr2 3.988996 1_555
Pr1 Pr2 3.988996 1_455
Pr1 Pr2 3.988996 1_555
Mg0 Mg2 3.233796 1_445
Mg0 Mg1 3.233796 1_555
Mg0 Pr0 3.506626 1_556
Mg0 Pr0 3.506626 1_555
Mg0 Pr1 3.750366 1_545
Mg0 Pr1 3.750366 1_546
Mg0 Pr2 3.750366 1_555
Mg0 Pr2 3.750366 1_556
Mg1 Mg2 3.233796 1_445
Mg1 Pr1 3.506626 1_556
Mg1 Pr1 3.506626 1_555
Mg1 Pr0 3.750366 1_456
Mg1 Pr0 3.750366 1_455
Mg1 Pr2 3.750366 1_556
Mg1 Pr2 3.750366 1_555
Mg2 Pr2 3.506626 1_555
Mg2 Pr2 3.506626 1_556
Mg2 Pr1 3.750366 1_655
Mg2 Pr1 3.750366 1_656
Mg2 Pr0 3.750366 1_566
Mg2 Pr0 3.750366 1_565
In0 Mg0 3.003558 1_565
In0 Mg1 3.003563 1_555
In0 Mg2 3.003566 1_555
In0 Pr1 3.325343 1_556
In0 Pr1 3.325343 1_555
In0 Pr0 3.325345 1_565
In0 Pr0 3.325345 1_566
In0 Pr2 3.325349 1_556
In0 Pr2 3.325349 1_555
In1 Mg1 3.003558 1_655
In1 Mg0 3.003563 1_555
In1 Mg2 3.003566 1_555
In1 Pr0 3.325343 1_555
In1 Pr0 3.325343 1_556
In1 Pr1 3.325345 1_655
In1 Pr1 3.325345 1_656
In1 Pr2 3.325349 1_555
In1 Pr2 3.325349 1_556
In2 Mg2 3.039688 1_444
In2 Mg2 3.039688 1_445
In2 Mg0 3.039688 1_555
In2 Mg1 3.039688 1_555
In2 Mg0 3.039688 1_554
In2 Mg1 3.039688 1_554
In2 Pr2 3.320354 1_555
In2 Pr0 3.320354 1_455
In2 Pr1 3.320354 1_545
