# generated using pymatgen
data_K3AsS3
_symmetry_space_group_name_H-M   'P 1'
_cell_length_a   9.40314823
_cell_length_b   9.40314823
_cell_length_c   9.40314823
_cell_angle_alpha   90.00000000
_cell_angle_beta   90.00000000
_cell_angle_gamma   90.00000000
_symmetry_Int_Tables_number   1
_chemical_formula_structural   K3AsS3
_chemical_formula_sum   'K12 As4 S12'
_cell_volume   831.41881234
_cell_formula_units_Z   4
loop_
 _symmetry_equiv_pos_site_id
 _symmetry_equiv_pos_as_xyz
  1  'x, y, z'
loop_
 _atom_site_type_symbol
 _atom_site_label
 _atom_site_symmetry_multiplicity
 _atom_site_fract_x
 _atom_site_fract_y
 _atom_site_fract_z
 _atom_site_occupancy
  K  K0  1  0.05962694  0.55962694  0.94037306  1
  K  K1  1  0.55962694  0.94037306  0.05962694  1
  K  K2  1  0.94037306  0.05962694  0.55962694  1
  K  K3  1  0.44037306  0.44037306  0.44037306  1
  K  K4  1  0.56623740  0.06623740  0.43376260  1
  K  K5  1  0.06623740  0.43376260  0.56623740  1
  K  K6  1  0.43376260  0.56623740  0.06623740  1
  K  K7  1  0.93376260  0.93376260  0.93376260  1
  K  K8  1  0.82625573  0.32625573  0.17374427  1
  K  K9  1  0.32625573  0.17374427  0.82625573  1
  K  K10  1  0.17374427  0.82625573  0.32625573  1
  K  K11  1  0.67374427  0.67374427  0.67374427  1
  As  As0  1  0.27248500  0.77248500  0.72751500  1
  As  As1  1  0.77248500  0.72751500  0.27248500  1
  As  As2  1  0.72751500  0.27248500  0.77248500  1
  As  As3  1  0.22751500  0.22751500  0.22751500  1
  S  S0  1  0.25430619  0.84512030  0.95647895  1
  S  S1  1  0.04352105  0.75430619  0.65487970  1
  S  S2  1  0.34512030  0.54352105  0.74569381  1
  S  S3  1  0.75430619  0.65487970  0.04352105  1
  S  S4  1  0.54352105  0.74569381  0.34512030  1
  S  S5  1  0.84512030  0.95647895  0.25430619  1
  S  S6  1  0.74569381  0.34512030  0.54352105  1
  S  S7  1  0.95647895  0.25430619  0.84512030  1
  S  S8  1  0.65487970  0.04352105  0.75430619  1
  S  S9  1  0.24569381  0.15487970  0.45647895  1
  S  S10  1  0.45647895  0.24569381  0.15487970  1
  S  S11  1  0.15487970  0.45647895  0.24569381  1
loop_
_geom_bond_atom_site_label_1
_geom_bond_atom_site_label_2
_geom_bond_distance
_geom_bond_site_symmetry_2
K0 S7 3.159980 1_455
K0 S3 3.159980 1_456
K0 S11 3.159980 1_556
K0 S2 3.252808 1_555
K0 S0 3.252808 1_555
K0 S1 3.252808 1_555
K1 S8 3.159980 1_564
K1 S0 3.159980 1_554
K1 S10 3.159980 1_565
K1 S4 3.252808 1_555
K1 S3 3.252808 1_555
K1 S5 3.252808 1_555
K2 S5 3.159980 1_545
K2 S1 3.159980 1_645
K2 S9 3.159980 1_655
K2 S6 3.252808 1_555
K2 S7 3.252808 1_555
K2 S8 3.252808 1_555
K3 S6 3.159980 1_555
K3 S4 3.159980 1_555
K3 S2 3.159980 1_555
K3 S9 3.252808 1_555
K3 S10 3.252808 1_555
K3 S11 3.252808 1_555
K4 S8 3.134532 1_555
K4 S4 3.134532 1_545
K4 S9 3.134532 1_555
K4 S6 3.284744 1_555
K4 S5 3.284744 1_545
K4 S10 3.284744 1_555
K5 S1 3.134532 1_555
K5 S11 3.134532 1_555
K5 S6 3.134532 1_455
K5 S2 3.284744 1_555
K5 S7 3.284744 1_455
K5 S9 3.284744 1_555
K6 S10 3.134532 1_555
K6 S2 3.134532 1_554
K6 S3 3.134532 1_555
K6 S4 3.284744 1_555
K6 S0 3.284744 1_554
K6 S11 3.284744 1_555
K7 S5 3.134532 1_556
K7 S7 3.134532 1_565
K7 S0 3.134532 1_655
K7 S8 3.284744 1_565
K7 S3 3.284744 1_556
K7 S1 3.284744 1_655
K8 S3 3.392029 1_555
K8 S11 3.392029 1_655
K8 S7 3.392029 1_554
K8 S6 3.563048 1_555
K8 S10 3.563048 1_555
K8 S5 3.563048 1_545
K9 S10 3.392029 1_556
K9 S8 3.392029 1_555
K9 S0 3.392029 1_545
K9 S2 3.563048 1_555
K9 S7 3.563048 1_455
K9 S9 3.563048 1_555
K10 S1 3.392029 1_555
K10 S9 3.392029 1_565
K10 S5 3.392029 1_455
K10 S4 3.563048 1_555
K10 S11 3.563048 1_555
K10 S0 3.563048 1_554
K11 S4 3.392029 1_555
K11 S2 3.392029 1_555
K11 S6 3.392029 1_555
K11 S3 3.563048 1_556
K11 S1 3.563048 1_655
K11 S8 3.563048 1_565
As0 S1 2.265180 1_555
As0 S2 2.265180 1_555
As0 S0 2.265180 1_555
As1 S3 2.265180 1_555
As1 S4 2.265180 1_555
As1 S5 2.265180 1_555
As2 S8 2.265180 1_555
As2 S7 2.265180 1_555
As2 S6 2.265180 1_555
As3 S10 2.265180 1_555
As3 S11 2.265180 1_555
As3 S9 2.265180 1_555
