# generated using pymatgen
data_Tm3(AlNi3)2
_symmetry_space_group_name_H-M   'P 1'
_cell_length_a   7.67299374
_cell_length_b   7.67299374
_cell_length_c   7.67299374
_cell_angle_alpha   109.47122063
_cell_angle_beta   109.47122063
_cell_angle_gamma   109.47122063
_symmetry_Int_Tables_number   1
_chemical_formula_structural   Tm3(AlNi3)2
_chemical_formula_sum   'Tm6 Al4 Ni12'
_cell_volume   347.75440550
_cell_formula_units_Z   2
loop_
 _symmetry_equiv_pos_site_id
 _symmetry_equiv_pos_as_xyz
  1  'x, y, z'
loop_
 _atom_site_type_symbol
 _atom_site_label
 _atom_site_symmetry_multiplicity
 _atom_site_fract_x
 _atom_site_fract_y
 _atom_site_fract_z
 _atom_site_occupancy
  Tm  Tm0  1  0.70529000  0.70529000  0.00000000  1
  Tm  Tm1  1  0.29471000  0.00000000  0.29471000  1
  Tm  Tm2  1  0.00000000  0.29471000  0.29471000  1
  Tm  Tm3  1  0.29471000  0.29471000  0.00000000  1
  Tm  Tm4  1  0.70529000  0.00000000  0.70529000  1
  Tm  Tm5  1  0.00000000  0.70529000  0.70529000  1
  Al  Al0  1  0.00000000  0.00000000  0.50000000  1
  Al  Al1  1  0.00000000  0.50000000  0.00000000  1
  Al  Al2  1  0.50000000  0.00000000  0.00000000  1
  Al  Al3  1  0.50000000  0.50000000  0.50000000  1
  Ni  Ni0  1  0.33356600  0.33356600  0.66713200  1
  Ni  Ni1  1  0.66643400  0.00000000  0.33356600  1
  Ni  Ni2  1  0.00000000  0.66643400  0.33356600  1
  Ni  Ni3  1  0.66643400  0.33356600  0.00000000  1
  Ni  Ni4  1  0.33356600  0.66713200  0.33356600  1
  Ni  Ni5  1  0.00000000  0.33356600  0.66643400  1
  Ni  Ni6  1  0.33356600  0.66643400  0.00000000  1
  Ni  Ni7  1  0.33356600  0.00000000  0.66643400  1
  Ni  Ni8  1  0.66713200  0.33356600  0.33356600  1
  Ni  Ni9  1  0.66643400  0.66643400  0.33286800  1
  Ni  Ni10  1  0.66643400  0.33286800  0.66643400  1
  Ni  Ni11  1  0.33286800  0.66643400  0.66643400  1
loop_
_geom_bond_atom_site_label_1
_geom_bond_atom_site_label_2
_geom_bond_distance
_geom_bond_site_symmetry_2
Tm0 Tm5 3.692700 1_654
Tm0 Tm4 3.692700 1_564
Tm0 Tm1 3.692700 1_665
Tm0 Tm2 3.692700 1_665
Tm1 Tm5 3.692700 1_544
Tm1 Tm2 3.692700 1_555
Tm1 Tm3 3.692700 1_555
Tm2 Tm4 3.692700 1_454
Tm2 Tm3 3.692700 1_555
Tm3 Tm4 3.692700 1_454
Tm3 Tm5 3.692700 1_544
Tm4 Tm5 3.692700 1_645
Al0 Ni7 2.450022 1_555
Al0 Ni5 2.450022 1_555
Al0 Ni2 2.450022 1_545
Al0 Ni9 2.450022 1_445
Al0 Ni0 2.450022 1_555
Al0 Ni1 2.450022 1_455
Al0 Tm0 3.157434 1_445
Al0 Tm4 3.157434 1_455
Al0 Tm2 3.157434 1_555
Al0 Tm5 3.157434 1_545
Al0 Tm3 3.157434 1_556
Al0 Tm1 3.157434 1_555
Al1 Ni2 2.450022 1_555
Al1 Ni6 2.450022 1_555
Al1 Ni10 2.450022 1_454
Al1 Ni4 2.450022 1_555
Al1 Ni3 2.450022 1_455
Al1 Ni5 2.450022 1_554
Al1 Tm5 3.157434 1_554
Al1 Tm1 3.157434 1_565
Al1 Tm4 3.157434 1_454
Al1 Tm0 3.157434 1_455
Al1 Tm2 3.157434 1_555
Al1 Tm3 3.157434 1_555
Al2 Ni3 2.450022 1_555
Al2 Ni1 2.450022 1_555
Al2 Ni8 2.450022 1_555
Al2 Ni7 2.450022 1_554
Al2 Ni11 2.450022 1_544
Al2 Ni6 2.450022 1_545
Al2 Tm4 3.157434 1_554
Al2 Tm0 3.157434 1_545
Al2 Tm5 3.157434 1_544
Al2 Tm2 3.157434 1_655
Al2 Tm1 3.157434 1_555
Al2 Tm3 3.157434 1_555
Al3 Ni11 2.450022 1_555
Al3 Ni9 2.450022 1_555
Al3 Ni10 2.450022 1_555
Al3 Ni4 2.450022 1_555
Al3 Ni8 2.450022 1_555
Al3 Ni0 2.450022 1_555
Al3 Tm4 3.157434 1_565
Al3 Tm5 3.157434 1_655
Al3 Tm2 3.157434 1_555
Al3 Tm0 3.157434 1_556
Al3 Tm3 3.157434 1_555
Al3 Tm1 3.157434 1_555
Ni0 Ni7 2.557670 1_555
Ni0 Ni5 2.557670 1_555
Ni0 Ni11 2.557670 1_555
Ni0 Ni10 2.557670 1_555
Ni0 Tm3 2.767169 1_556
Ni0 Tm0 2.767169 1_556
Ni0 Ni6 2.949214 1_556
Ni0 Ni3 2.949214 1_556
Ni0 Tm2 2.975382 1_555
Ni0 Tm1 2.975382 1_555
Ni1 Ni8 2.557670 1_555
Ni1 Ni6 2.557670 1_545
Ni1 Ni9 2.557670 1_545
Ni1 Ni5 2.557670 1_655
Ni1 Tm1 2.767169 1_555
Ni1 Tm4 2.767169 1_555
Ni1 Ni10 2.949214 1_555
Ni1 Ni4 2.949214 1_545
Ni1 Tm2 2.975382 1_655
Ni1 Tm0 2.975382 1_545
Ni2 Ni4 2.557670 1_555
Ni2 Ni7 2.557670 1_565
Ni2 Ni9 2.557670 1_455
Ni2 Ni3 2.557670 1_455
Ni2 Tm2 2.767169 1_555
Ni2 Tm5 2.767169 1_555
Ni2 Ni8 2.949214 1_455
Ni2 Tm1 2.975382 1_565
Ni2 Tm0 2.975382 1_455
Ni3 Ni8 2.557670 1_555
Ni3 Ni7 2.557670 1_554
Ni3 Tm3 2.767169 1_555
Ni3 Tm0 2.767169 1_555
Ni3 Ni9 2.949214 1_555
Ni3 Tm2 2.975382 1_655
Ni3 Tm4 2.975382 1_554
Ni4 Ni9 2.557670 1_555
Ni4 Ni6 2.557670 1_555
Ni4 Tm1 2.767169 1_565
Ni4 Tm4 2.767169 1_565
Ni4 Ni7 2.949214 1_565
Ni4 Tm2 2.975382 1_555
Ni4 Tm3 2.975382 1_555
Ni5 Ni6 2.557670 1_556
Ni5 Tm2 2.767169 1_555
Ni5 Tm5 2.767169 1_555
Ni5 Ni8 2.949214 1_455
Ni5 Tm3 2.975382 1_556
Ni5 Tm4 2.975382 1_455
Ni6 Tm3 2.767169 1_555
Ni6 Tm0 2.767169 1_555
Ni6 Ni9 2.949214 1_555
Ni6 Tm1 2.975382 1_565
Ni6 Tm5 2.975382 1_554
Ni7 Tm1 2.767169 1_555
Ni7 Tm4 2.767169 1_555
Ni7 Tm3 2.975382 1_556
Ni7 Tm5 2.975382 1_545
Ni8 Ni9 2.557670 1_555
Ni8 Tm2 2.767169 1_655
Ni8 Tm5 2.767169 1_655
Ni8 Tm3 2.975382 1_555
Ni8 Tm1 2.975382 1_555
Ni9 Tm3 2.767169 1_555
Ni9 Tm0 2.767169 1_555
Ni9 Tm5 2.975382 1_655
Ni9 Tm4 2.975382 1_565
Ni10 Ni8 2.557670 1_555
Ni10 Ni3 2.557670 1_556
Ni10 Ni5 2.557670 1_655
Ni10 Tm1 2.767169 1_555
Ni10 Tm4 2.767169 1_555
Ni10 Ni7 2.949214 1_555
Ni10 Tm5 2.975382 1_655
Ni10 Tm0 2.975382 1_556
Ni11 Ni4 2.557670 1_555
Ni11 Ni6 2.557670 1_556
Ni11 Ni7 2.557670 1_565
Ni11 Tm2 2.767169 1_555
Ni11 Tm5 2.767169 1_555
Ni11 Ni2 2.949214 1_555
Ni11 Ni5 2.949214 1_555
Ni11 Tm4 2.975382 1_565
Ni11 Tm0 2.975382 1_556
