# generated using pymatgen
data_Sm(Al2Cr)4
_symmetry_space_group_name_H-M   'P 1'
_cell_length_a   5.07888000
_cell_length_b   6.85027041
_cell_length_c   6.85027041
_cell_angle_alpha   82.10122698
_cell_angle_beta   68.24080234
_cell_angle_gamma   68.24080234
_symmetry_Int_Tables_number   1
_chemical_formula_structural   Sm(Al2Cr)4
_chemical_formula_sum   'Sm1 Al8 Cr4'
_cell_volume   205.58010689
_cell_formula_units_Z   1
loop_
 _symmetry_equiv_pos_site_id
 _symmetry_equiv_pos_as_xyz
  1  'x, y, z'
loop_
 _atom_site_type_symbol
 _atom_site_label
 _atom_site_symmetry_multiplicity
 _atom_site_fract_x
 _atom_site_fract_y
 _atom_site_fract_z
 _atom_site_occupancy
  Sm  Sm0  1  0.00000000  0.00000000  0.00000000  1
  Al  Al0  1  0.00000000  0.66188600  0.33811400  1
  Al  Al1  1  0.00000000  0.33811400  0.66188600  1
  Al  Al2  1  0.66188600  0.33811400  0.33811400  1
  Al  Al3  1  0.33811400  0.66188600  0.66188600  1
  Al  Al4  1  0.50000000  0.22515800  0.77484200  1
  Al  Al5  1  0.50000000  0.77484200  0.22515800  1
  Al  Al6  1  0.72515800  0.77484200  0.77484200  1
  Al  Al7  1  0.27484200  0.22515800  0.22515800  1
  Cr  Cr0  1  0.50000000  0.50000000  0.00000000  1
  Cr  Cr1  1  0.00000000  0.50000000  0.00000000  1
  Cr  Cr2  1  0.00000000  0.00000000  0.50000000  1
  Cr  Cr3  1  0.50000000  0.00000000  0.50000000  1
loop_
_geom_bond_atom_site_label_1
_geom_bond_atom_site_label_2
_geom_bond_distance
_geom_bond_site_symmetry_2
Al0 Cr1 2.701927 1_555
Al0 Cr2 2.701927 1_565
Al0 Cr0 2.701927 1_555
Al0 Cr3 2.701927 1_465
Al0 Al5 2.735263 1_555
Al0 Al5 2.735263 1_455
Al0 Al7 2.869978 1_555
Al0 Al6 2.869978 1_455
Al0 Al1 2.913137 1_555
Al0 Sm0 3.042179 1_565
Al1 Cr3 2.701927 1_555
Al1 Cr1 2.701927 1_556
Al1 Cr0 2.701927 1_456
Al1 Cr2 2.701927 1_555
Al1 Al4 2.735263 1_455
Al1 Al4 2.735263 1_555
Al1 Al6 2.869978 1_455
Al1 Al7 2.869978 1_555
Al1 Sm0 3.042179 1_556
Al2 Cr3 2.701927 1_555
Al2 Cr0 2.701927 1_555
Al2 Cr2 2.701927 1_655
Al2 Cr1 2.701927 1_655
Al2 Al7 2.735263 1_555
Al2 Al7 2.735263 1_655
Al2 Al4 2.869978 1_555
Al2 Al5 2.869978 1_555
Al2 Al3 2.913137 1_555
Al2 Sm0 3.042179 1_655
Al3 Cr0 2.701927 1_556
Al3 Cr2 2.701927 1_565
Al3 Cr3 2.701927 1_565
Al3 Cr1 2.701927 1_556
Al3 Al6 2.735263 1_555
Al3 Al6 2.735263 1_455
Al3 Al4 2.869978 1_555
Al3 Al5 2.869978 1_555
Al3 Sm0 3.042179 1_566
Al4 Cr3 2.592649 1_555
Al4 Cr0 2.592649 1_556
Al4 Cr2 2.592649 1_655
Al4 Cr1 2.592649 1_556
Al4 Al7 2.864996 1_556
Al4 Al6 2.864996 1_545
Al4 Sm0 3.248516 1_656
Al4 Sm0 3.248516 1_556
Al5 Cr0 2.592649 1_555
Al5 Cr2 2.592649 1_565
Al5 Cr3 2.592649 1_565
Al5 Cr1 2.592649 1_655
Al5 Al6 2.864996 1_554
Al5 Al7 2.864996 1_565
Al5 Sm0 3.248516 1_665
Al5 Sm0 3.248516 1_565
Al6 Cr1 2.592649 1_656
Al6 Cr2 2.592649 1_665
Al6 Cr0 2.592649 1_556
Al6 Cr3 2.592649 1_565
Al6 Sm0 3.248516 1_666
Al6 Sm0 3.248516 1_566
Al7 Cr1 2.592649 1_555
Al7 Cr2 2.592649 1_555
Al7 Cr3 2.592649 1_555
Al7 Cr0 2.592649 1_555
Al7 Sm0 3.248516 1_555
Al7 Sm0 3.248516 1_655
Cr0 Cr1 2.539440 1_655
Cr0 Cr1 2.539440 1_555
Cr0 Sm0 3.425135 1_565
Cr0 Sm0 3.425135 1_655
Cr1 Sm0 3.425135 1_565
Cr1 Sm0 3.425135 1_555
Cr2 Cr3 2.539440 1_455
Cr2 Cr3 2.539440 1_555
Cr2 Sm0 3.425135 1_555
Cr2 Sm0 3.425135 1_556
Cr3 Sm0 3.425135 1_556
Cr3 Sm0 3.425135 1_655
