# generated using pymatgen
data_Na4Zr2Ge5HO16
_symmetry_space_group_name_H-M   'P 1'
_cell_length_a   5.53294200
_cell_length_b   7.17018000
_cell_length_c   21.47891992
_cell_angle_alpha   72.97441490
_cell_angle_beta   90.00000000
_cell_angle_gamma   90.00000000
_symmetry_Int_Tables_number   1
_chemical_formula_structural   Na4Zr2Ge5HO16
_chemical_formula_sum   'Na8 Zr4 Ge10 H2 O32'
_cell_volume   814.77105503
_cell_formula_units_Z   2
loop_
 _symmetry_equiv_pos_site_id
 _symmetry_equiv_pos_as_xyz
  1  'x, y, z'
loop_
 _atom_site_type_symbol
 _atom_site_label
 _atom_site_symmetry_multiplicity
 _atom_site_fract_x
 _atom_site_fract_y
 _atom_site_fract_z
 _atom_site_occupancy
  Na  Na0  1  0.73980100  0.61548300  0.52679200  1
  Na  Na1  1  0.26019900  0.38451700  0.47320800  1
  Na  Na2  1  0.73980100  0.38451700  0.97320800  1
  Na  Na3  1  0.26019900  0.61548300  0.02679200  1
  Na  Na4  1  0.50474500  0.75861400  0.20933200  1
  Na  Na5  1  0.49525500  0.24138600  0.79066800  1
  Na  Na6  1  0.50474500  0.24138600  0.29066800  1
  Na  Na7  1  0.49525500  0.75861400  0.70933200  1
  Zr  Zr0  1  0.26426400  0.88653300  0.41119700  1
  Zr  Zr1  1  0.73573600  0.11346700  0.58880300  1
  Zr  Zr2  1  0.26426400  0.11346700  0.08880300  1
  Zr  Zr3  1  0.73573600  0.88653300  0.91119700  1
  Ge  Ge0  1  0.99253700  0.00000000  0.25000000  1
  Ge  Ge1  1  0.00746300  0.00000000  0.75000000  1
  Ge  Ge2  1  0.78749800  0.80686600  0.07842800  1
  Ge  Ge3  1  0.21250200  0.19313400  0.92157200  1
  Ge  Ge4  1  0.78749800  0.19313400  0.42157200  1
  Ge  Ge5  1  0.21250200  0.80686600  0.57842800  1
  Ge  Ge6  1  0.75551900  0.64630300  0.36512800  1
  Ge  Ge7  1  0.24448100  0.35369700  0.63487200  1
  Ge  Ge8  1  0.75551900  0.35369700  0.13487200  1
  Ge  Ge9  1  0.24448100  0.64630300  0.86512800  1
  H  H0  1  0.17755300  0.50000000  0.25000000  1
  H  H1  1  0.82244700  0.50000000  0.75000000  1
  O  O0  1  0.45616000  0.65701400  0.38980300  1
  O  O1  1  0.54384000  0.34298600  0.61019700  1
  O  O2  1  0.45616000  0.34298600  0.11019700  1
  O  O3  1  0.54384000  0.65701400  0.88980300  1
  O  O4  1  0.82873800  0.96580600  0.68761100  1
  O  O5  1  0.17126200  0.03419400  0.31238900  1
  O  O6  1  0.82873800  0.03419400  0.81238900  1
  O  O7  1  0.17126200  0.96580600  0.18761100  1
  O  O8  1  0.66772100  0.74579200  0.01075000  1
  O  O9  1  0.33227900  0.25420800  0.98925000  1
  O  O10  1  0.66772100  0.25420800  0.48925000  1
  O  O11  1  0.33227900  0.74579200  0.51075000  1
  O  O12  1  0.91039400  0.88190900  0.56472100  1
  O  O13  1  0.08960600  0.11809100  0.43527900  1
  O  O14  1  0.91039400  0.11809100  0.93527900  1
  O  O15  1  0.08960600  0.88190900  0.06472100  1
  O  O16  1  0.78766800  0.79948700  0.28192300  1
  O  O17  1  0.21233200  0.20051300  0.71807700  1
  O  O18  1  0.78766800  0.20051300  0.21807700  1
  O  O19  1  0.21233200  0.79948700  0.78192300  1
  O  O20  1  0.96694700  0.68744700  0.42052000  1
  O  O21  1  0.03305300  0.31255300  0.57948000  1
  O  O22  1  0.96694700  0.31255300  0.07948000  1
  O  O23  1  0.03305300  0.68744700  0.92052000  1
  O  O24  1  0.59073500  0.95828900  0.10655800  1
  O  O25  1  0.40926500  0.04171100  0.89344200  1
  O  O26  1  0.59073500  0.04171100  0.39344200  1
  O  O27  1  0.40926500  0.95828900  0.60655800  1
  O  O28  1  0.78859500  0.58849600  0.14826300  1
  O  O29  1  0.21140500  0.41150400  0.85173700  1
  O  O30  1  0.78859500  0.41150400  0.35173700  1
  O  O31  1  0.21140500  0.58849600  0.64826300  1
loop_
_geom_bond_atom_site_label_1
_geom_bond_atom_site_label_2
_geom_bond_distance
_geom_bond_site_symmetry_2
Na0 O11 2.426374 1_555
Na0 O12 2.472913 1_555
Na0 O1 2.480460 1_555
Na0 O20 2.523160 1_555
Na0 O21 2.681747 1_655
Na0 O10 2.956802 1_555
Na1 O10 2.426374 1_555
Na1 O13 2.472913 1_555
Na1 O0 2.480460 1_555
Na1 O21 2.523160 1_555
Na1 O20 2.681747 1_455
Na1 O11 2.956802 1_555
Na2 O9 2.426374 1_555
Na2 O14 2.472913 1_555
Na2 O3 2.480460 1_555
Na2 O22 2.523160 1_556
Na2 O23 2.681747 1_655
Na2 O8 2.956802 1_556
Na3 O8 2.426374 1_555
Na3 O15 2.472913 1_555
Na3 O2 2.480460 1_555
Na3 O23 2.523160 1_554
Na3 O22 2.681747 1_455
Na3 O9 2.956802 1_554
Na4 O16 2.288006 1_555
Na4 O24 2.301811 1_555
Na4 O7 2.328810 1_555
Na4 O28 2.571360 1_555
Na5 O17 2.288006 1_555
Na5 O25 2.301811 1_555
Na5 O6 2.328810 1_555
Na5 O29 2.571360 1_555
Na6 O18 2.288006 1_555
Na6 O26 2.301811 1_555
Na6 O5 2.328810 1_555
Na6 O30 2.571360 1_555
Na7 O19 2.288006 1_555
Na7 O27 2.301811 1_555
Na7 O4 2.328810 1_555
Na7 O31 2.571360 1_555
Ge0 O5 1.739573 1_655
Ge0 O7 1.739573 1_645
Ge0 O18 1.801325 1_555
Ge0 O16 1.801325 1_545
Ge1 O6 1.739573 1_455
Ge1 O4 1.739573 1_445
Ge1 O19 1.801325 1_545
Ge1 O17 1.801325 1_555
Ge2 O15 1.754280 1_655
Ge2 O24 1.764438 1_555
Ge2 O8 1.765456 1_555
Ge2 O28 1.823794 1_555
Ge3 O14 1.754280 1_455
Ge3 O25 1.764438 1_555
Ge3 O9 1.765456 1_555
Ge3 O29 1.823794 1_555
Ge4 O13 1.754280 1_655
Ge4 O26 1.764438 1_555
Ge4 O10 1.765456 1_555
Ge4 O30 1.823794 1_555
Ge5 O12 1.754280 1_455
Ge5 O27 1.764438 1_555
Ge5 O11 1.765456 1_555
Ge5 O31 1.823794 1_555
Ge6 O0 1.747591 1_555
Ge6 O20 1.754017 1_555
Ge6 O30 1.798368 1_555
Ge6 O16 1.811756 1_555
Ge7 O1 1.747591 1_555
Ge7 O21 1.754017 1_555
Ge7 O31 1.798368 1_555
Ge7 O17 1.811756 1_555
Ge8 O2 1.747591 1_555
Ge8 O22 1.754017 1_555
Ge8 O28 1.798368 1_555
Ge8 O18 1.811756 1_555
Ge9 O3 1.747591 1_555
Ge9 O23 1.754017 1_555
Ge9 O29 1.798368 1_555
Ge9 O19 1.811756 1_555
H0 Na4 2.555438 1_555
H0 Na6 2.555438 1_555
H1 Na5 2.555438 1_555
H1 Na7 2.555438 1_555
O0 Zr0 2.118872 1_555
O1 Zr1 2.118872 1_555
O2 Zr2 2.118872 1_555
O3 Zr3 2.118872 1_555
O4 Zr1 2.138699 1_565
O5 Zr0 2.138699 1_545
O6 Zr3 2.138699 1_545
O7 Zr2 2.138699 1_565
O8 Zr3 2.113917 1_554
O9 Zr2 2.113917 1_556
O10 Zr1 2.113917 1_555
O11 Zr0 2.113917 1_555
O12 Zr1 2.112103 1_565
O13 Zr0 2.112103 1_545
O14 Zr3 2.112103 1_545
O15 Zr2 2.112103 1_565
O20 Zr0 2.148618 1_655
O21 Zr1 2.148618 1_455
O22 Zr2 2.148618 1_655
O23 Zr3 2.148618 1_455
O24 Zr2 2.097102 1_565
O25 Zr3 2.097102 1_545
O26 Zr0 2.097102 1_545
O27 Zr1 2.097102 1_565
