# generated using pymatgen
data_Mg3Si4
_symmetry_space_group_name_H-M   'P 1'
_cell_length_a   5.34696700
_cell_length_b   5.97479181
_cell_length_c   8.46074782
_cell_angle_alpha   70.31411417
_cell_angle_beta   83.95180855
_cell_angle_gamma   78.92995741
_symmetry_Int_Tables_number   1
_chemical_formula_structural   Mg3Si4
_chemical_formula_sum   'Mg6 Si8'
_cell_volume   249.52021870
_cell_formula_units_Z   2
loop_
 _symmetry_equiv_pos_site_id
 _symmetry_equiv_pos_as_xyz
  1  'x, y, z'
loop_
 _atom_site_type_symbol
 _atom_site_label
 _atom_site_symmetry_multiplicity
 _atom_site_fract_x
 _atom_site_fract_y
 _atom_site_fract_z
 _atom_site_occupancy
  Mg  Mg0  1  0.89171700  0.87610700  0.62534100  1
  Mg  Mg1  1  0.38329400  0.59939000  0.45008700  1
  Mg  Mg2  1  0.59912400  0.72297000  0.06341900  1
  Mg  Mg3  1  0.60146800  0.23884000  0.04862200  1
  Mg  Mg4  1  0.90325800  0.37382600  0.62328500  1
  Mg  Mg5  1  0.07760100  0.95444100  0.93962800  1
  Si  Si0  1  0.13710100  0.49137000  0.18220500  1
  Si  Si1  1  0.18382300  0.05589300  0.25015100  1
  Si  Si2  1  0.06395900  0.47864500  0.89435300  1
  Si  Si3  1  0.43981900  0.66432500  0.75338300  1
  Si  Si4  1  0.86745200  0.77978400  0.31488000  1
  Si  Si5  1  0.75300700  0.28134200  0.33729400  1
  Si  Si6  1  0.37484100  0.07127000  0.50586900  1
  Si  Si7  1  0.47017700  0.15823400  0.76481500  1
loop_
_geom_bond_atom_site_label_1
_geom_bond_atom_site_label_2
_geom_bond_distance
_geom_bond_site_symmetry_2
Mg0 Si2 2.761945 1_655
Mg0 Si5 2.840344 1_565
Mg0 Si3 2.883073 1_555
Mg0 Si4 2.892532 1_555
Mg0 Si6 2.928589 1_565
Mg0 Si7 2.938520 1_565
Mg0 Si6 2.977752 1_665
Mg0 Si3 3.112083 1_655
Mg0 Mg5 3.138759 1_655
Mg1 Si1 2.755537 1_565
Mg1 Si3 2.775971 1_555
Mg1 Si5 2.794870 1_555
Mg1 Si4 2.961508 1_455
Mg1 Si4 2.964596 1_555
Mg1 Si6 3.002793 1_565
Mg1 Si0 3.037573 1_555
Mg1 Si6 3.037816 1_555
Mg1 Si7 3.052174 1_555
Mg2 Si4 2.831433 1_555
Mg2 Si5 2.908178 1_555
Mg2 Mg3 2.934715 1_555
Mg2 Si7 2.978807 1_564
Mg2 Si0 2.980006 1_555
Mg2 Si3 2.988961 1_554
Mg2 Mg5 2.990707 1_554
Mg2 Mg3 3.044736 1_565
Mg2 Si0 3.056643 1_655
Mg2 Mg5 3.061575 1_654
Mg2 Si2 3.101438 1_654
Mg3 Si5 2.756839 1_555
Mg3 Si7 2.784743 1_554
Mg3 Si1 2.822820 1_555
Mg3 Si3 2.963502 1_554
Mg3 Si0 2.972851 1_555
Mg3 Mg5 3.019755 1_644
Mg3 Si2 3.048338 1_654
Mg3 Si4 3.103977 1_545
Mg3 Si2 3.156873 1_554
Mg4 Si7 2.824429 1_555
Mg4 Si2 2.824893 1_655
Mg4 Si5 2.878653 1_555
Mg4 Si4 2.896784 1_555
Mg4 Mg5 3.069483 1_645
Mg4 Si3 3.070068 1_555
Mg4 Si6 3.089411 1_655
Mg5 Si7 2.681475 1_565
Mg5 Si0 2.818204 1_556
Mg5 Si2 3.008761 1_555
Mg5 Si2 3.011876 1_565
Mg5 Si1 3.018620 1_566
Mg5 Si3 3.024340 1_555
Mg5 Si4 3.146110 1_456
Si0 Si1 2.436311 1_555
Si0 Si4 2.513245 1_455
Si0 Si2 2.535152 1_554
Si0 Si5 2.612809 1_455
Si1 Si4 2.480073 1_445
Si1 Si6 2.523544 1_555
Si1 Si5 2.604622 1_455
Si2 Si3 2.480296 1_555
Si3 Si6 2.610829 1_565
Si5 Si6 2.618980 1_555
Si6 Si7 2.536489 1_555
