# generated using pymatgen
data_PrPb2
_symmetry_space_group_name_H-M   'P 1'
_cell_length_a   18.05079413
_cell_length_b   18.05079413
_cell_length_c   18.05079413
_cell_angle_alpha   158.45972282
_cell_angle_beta   158.45972282
_cell_angle_gamma   30.64753620
_symmetry_Int_Tables_number   1
_chemical_formula_structural   PrPb2
_chemical_formula_sum   'Pr8 Pb16'
_cell_volume   792.32579905
_cell_formula_units_Z   8
loop_
 _symmetry_equiv_pos_site_id
 _symmetry_equiv_pos_as_xyz
  1  'x, y, z'
loop_
 _atom_site_type_symbol
 _atom_site_label
 _atom_site_symmetry_multiplicity
 _atom_site_fract_x
 _atom_site_fract_y
 _atom_site_fract_z
 _atom_site_occupancy
  Pr  Pr0_0  1  0.00000000  0.00000000  0.00000000  1
  Pr  Pr0_1  1  0.00000000  0.00000000  0.50000000  1
  Pr  Pr0_2  1  0.00000000  0.50000000  0.00000000  1
  Pr  Pr0_3  1  0.00000000  0.50000000  0.50000000  1
  Pr  Pr0_4  1  0.50000000  0.00000000  0.00000000  1
  Pr  Pr0_5  1  0.50000000  0.00000000  0.50000000  1
  Pr  Pr0_6  1  0.50000000  0.50000000  0.00000000  1
  Pr  Pr0_7  1  0.50000000  0.50000000  0.50000000  1
  Pb  Pb0_0  1  0.17278900  0.17278900  0.00000000  1
  Pb  Pb0_1  1  0.17278900  0.17278900  0.50000000  1
  Pb  Pb0_2  1  0.17278900  0.67278900  0.00000000  1
  Pb  Pb0_3  1  0.17278900  0.67278900  0.50000000  1
  Pb  Pb0_4  1  0.67278900  0.17278900  0.00000000  1
  Pb  Pb0_5  1  0.67278900  0.17278900  0.50000000  1
  Pb  Pb0_6  1  0.67278900  0.67278900  0.00000000  1
  Pb  Pb0_7  1  0.67278900  0.67278900  0.50000000  1
  Pb  Pb1_0  1  0.32721100  0.32721100  0.00000000  1
  Pb  Pb1_1  1  0.32721100  0.32721100  0.50000000  1
  Pb  Pb1_2  1  0.32721100  0.82721100  0.00000000  1
  Pb  Pb1_3  1  0.32721100  0.82721100  0.50000000  1
  Pb  Pb1_4  1  0.82721100  0.32721100  0.00000000  1
  Pb  Pb1_5  1  0.82721100  0.32721100  0.50000000  1
  Pb  Pb1_6  1  0.82721100  0.82721100  0.00000000  1
  Pb  Pb1_7  1  0.82721100  0.82721100  0.50000000  1
loop_
_geom_bond_atom_site_label_1
_geom_bond_atom_site_label_2
_geom_bond_distance
_geom_bond_site_symmetry_2
Pr0_0 Pr0_3 3.373140 1_544
Pr0_0 Pr0_5 3.373140 1_555
Pr0_0 Pr0_5 3.373140 1_454
Pr0_0 Pr0_3 3.373140 1_555
Pr0_1 Pr0_4 3.373140 1_556
Pr0_1 Pr0_2 3.373140 1_556
Pr0_1 Pr0_4 3.373140 1_455
Pr0_1 Pr0_2 3.373140 1_545
Pr0_2 Pr0_7 3.373140 1_555
Pr0_2 Pr0_7 3.373140 1_454
Pr0_3 Pr0_6 3.373140 1_455
Pr0_3 Pr0_6 3.373140 1_556
Pr0_4 Pr0_7 3.373140 1_544
Pr0_4 Pr0_7 3.373140 1_555
Pr0_5 Pr0_6 3.373140 1_545
Pr0_5 Pr0_6 3.373140 1_556
Pb0_0 Pb0_3 3.373140 1_544
Pb0_0 Pb0_3 3.373140 1_555
Pb0_0 Pb0_5 3.373140 1_454
Pb0_0 Pb0_5 3.373140 1_555
Pb0_0 Pr0_7 3.593913 1_555
Pb0_0 Pr0_1 3.593913 1_554
Pb0_0 Pr0_2 3.593913 1_555
Pb0_0 Pr0_4 3.593913 1_555
Pb0_1 Pb0_2 3.373140 1_556
Pb0_1 Pb0_4 3.373140 1_556
Pb0_1 Pb0_2 3.373140 1_545
Pb0_1 Pb0_4 3.373140 1_455
Pb0_1 Pr0_5 3.593913 1_555
Pb0_1 Pr0_0 3.593913 1_555
Pb0_1 Pr0_3 3.593913 1_555
Pb0_1 Pr0_6 3.593913 1_556
Pb0_2 Pb0_7 3.373140 1_454
Pb0_2 Pb0_7 3.373140 1_555
Pb0_2 Pr0_0 3.593913 1_565
Pb0_2 Pr0_3 3.593913 1_554
Pb0_2 Pr0_6 3.593913 1_555
Pb0_2 Pr0_5 3.593913 1_565
Pb0_3 Pb0_6 3.373140 1_455
Pb0_3 Pb0_6 3.373140 1_556
Pb0_3 Pr0_7 3.593913 1_555
Pb0_3 Pr0_1 3.593913 1_565
Pb0_3 Pr0_2 3.593913 1_555
Pb0_3 Pr0_4 3.593913 1_566
Pb0_4 Pb0_7 3.373140 1_544
Pb0_4 Pb0_7 3.373140 1_555
Pb0_4 Pr0_0 3.593913 1_655
Pb0_4 Pr0_5 3.593913 1_554
Pb0_4 Pr0_6 3.593913 1_555
Pb0_4 Pr0_3 3.593913 1_655
Pb0_5 Pb0_6 3.373140 1_545
Pb0_5 Pb0_6 3.373140 1_556
Pb0_5 Pr0_7 3.593913 1_555
Pb0_5 Pr0_4 3.593913 1_555
Pb0_5 Pr0_1 3.593913 1_655
Pb0_5 Pr0_2 3.593913 1_656
Pb0_6 Pr0_7 3.593913 1_554
Pb0_6 Pr0_2 3.593913 1_655
Pb0_6 Pr0_4 3.593913 1_565
Pb0_6 Pr0_1 3.593913 1_665
Pb0_7 Pr0_5 3.593913 1_565
Pb0_7 Pr0_3 3.593913 1_655
Pb0_7 Pr0_6 3.593913 1_555
Pb0_7 Pr0_0 3.593913 1_666
Pb1_0 Pb1_5 3.373140 1_555
Pb1_0 Pb1_3 3.373140 1_544
Pb1_0 Pb1_3 3.373140 1_555
Pb1_0 Pb1_5 3.373140 1_454
Pb1_0 Pr0_4 3.593913 1_555
Pb1_0 Pr0_7 3.593913 1_555
Pb1_0 Pr0_1 3.593913 1_554
Pb1_0 Pr0_2 3.593913 1_555
Pb1_1 Pb1_2 3.373140 1_545
Pb1_1 Pb1_4 3.373140 1_455
Pb1_1 Pb1_4 3.373140 1_556
Pb1_1 Pb1_2 3.373140 1_556
Pb1_1 Pr0_6 3.593913 1_556
Pb1_1 Pr0_5 3.593913 1_555
Pb1_1 Pr0_3 3.593913 1_555
Pb1_1 Pr0_0 3.593913 1_555
Pb1_2 Pb1_7 3.373140 1_555
Pb1_2 Pb1_7 3.373140 1_454
Pb1_2 Pr0_3 3.593913 1_554
Pb1_2 Pr0_5 3.593913 1_565
Pb1_2 Pr0_0 3.593913 1_565
Pb1_2 Pr0_6 3.593913 1_555
Pb1_3 Pb1_6 3.373140 1_556
Pb1_3 Pb1_6 3.373140 1_455
Pb1_3 Pr0_4 3.593913 1_566
Pb1_3 Pr0_2 3.593913 1_555
Pb1_3 Pr0_1 3.593913 1_565
Pb1_3 Pr0_7 3.593913 1_555
Pb1_4 Pb1_7 3.373140 1_544
Pb1_4 Pb1_7 3.373140 1_555
Pb1_4 Pr0_5 3.593913 1_554
Pb1_4 Pr0_0 3.593913 1_655
Pb1_4 Pr0_3 3.593913 1_655
Pb1_4 Pr0_6 3.593913 1_555
Pb1_5 Pb1_6 3.373140 1_556
Pb1_5 Pb1_6 3.373140 1_545
Pb1_5 Pr0_1 3.593913 1_655
Pb1_5 Pr0_2 3.593913 1_656
Pb1_5 Pr0_4 3.593913 1_555
Pb1_5 Pr0_7 3.593913 1_555
Pb1_6 Pr0_2 3.593913 1_655
Pb1_6 Pr0_1 3.593913 1_665
Pb1_6 Pr0_4 3.593913 1_565
Pb1_6 Pr0_7 3.593913 1_554
Pb1_7 Pr0_5 3.593913 1_565
Pb1_7 Pr0_6 3.593913 1_555
Pb1_7 Pr0_0 3.593913 1_666
Pb1_7 Pr0_3 3.593913 1_655
