# generated using pymatgen
data_Eu(BH4)2
_symmetry_space_group_name_H-M   'P 1'
_cell_length_a   6.98019400
_cell_length_b   7.48531900
_cell_length_c   8.21265700
_cell_angle_alpha   90.00000000
_cell_angle_beta   90.00000000
_cell_angle_gamma   90.00000000
_symmetry_Int_Tables_number   1
_chemical_formula_structural   Eu(BH4)2
_chemical_formula_sum   'Eu4 B8 H32'
_cell_volume   429.10294125
_cell_formula_units_Z   4
loop_
 _symmetry_equiv_pos_site_id
 _symmetry_equiv_pos_as_xyz
  1  'x, y, z'
loop_
 _atom_site_type_symbol
 _atom_site_label
 _atom_site_symmetry_multiplicity
 _atom_site_fract_x
 _atom_site_fract_y
 _atom_site_fract_z
 _atom_site_occupancy
  Eu  Eu0  1  0.00000000  0.25000000  0.17518000  1
  Eu  Eu1  1  0.50000000  0.75000000  0.32482000  1
  Eu  Eu2  1  0.00000000  0.75000000  0.82482000  1
  Eu  Eu3  1  0.50000000  0.25000000  0.67518000  1
  B  B0  1  0.75469400  0.07357200  0.38185600  1
  B  B1  1  0.74530600  0.57357200  0.11814400  1
  B  B2  1  0.25469400  0.92642800  0.11814400  1
  B  B3  1  0.24530600  0.42642800  0.38185600  1
  B  B4  1  0.24530600  0.92642800  0.61814400  1
  B  B5  1  0.25469400  0.42642800  0.88185600  1
  B  B6  1  0.74530600  0.07357200  0.88185600  1
  B  B7  1  0.75469400  0.57357200  0.61814400  1
  H  H0  1  0.66692500  0.15282800  0.27464000  1
  H  H1  1  0.83307500  0.65282800  0.22536000  1
  H  H2  1  0.16692500  0.84717200  0.22536000  1
  H  H3  1  0.33307500  0.34717200  0.27464000  1
  H  H4  1  0.33307500  0.84717200  0.72536000  1
  H  H5  1  0.16692500  0.34717200  0.77464000  1
  H  H6  1  0.83307500  0.15282800  0.77464000  1
  H  H7  1  0.66692500  0.65282800  0.72536000  1
  H  H8  1  0.86159400  0.96107300  0.32195600  1
  H  H9  1  0.63840600  0.46107300  0.17804400  1
  H  H10  1  0.36159400  0.03892700  0.17804400  1
  H  H11  1  0.13840600  0.53892700  0.32195600  1
  H  H12  1  0.13840600  0.03892700  0.67804400  1
  H  H13  1  0.36159400  0.53892700  0.82195600  1
  H  H14  1  0.63840600  0.96107300  0.82195600  1
  H  H15  1  0.86159400  0.46107300  0.67804400  1
  H  H16  1  0.85092600  0.17756600  0.46318700  1
  H  H17  1  0.64907400  0.67756600  0.03681300  1
  H  H18  1  0.35092600  0.82243400  0.03681300  1
  H  H19  1  0.14907400  0.32243400  0.46318700  1
  H  H20  1  0.14907400  0.82243400  0.53681300  1
  H  H21  1  0.35092600  0.32243400  0.96318700  1
  H  H22  1  0.64907400  0.17756600  0.96318700  1
  H  H23  1  0.85092600  0.67756600  0.53681300  1
  H  H24  1  0.64097200  0.99971600  0.47383700  1
  H  H25  1  0.85902800  0.49971600  0.02616300  1
  H  H26  1  0.14097200  0.00028400  0.02616300  1
  H  H27  1  0.35902800  0.50028400  0.47383700  1
  H  H28  1  0.35902800  0.00028400  0.52616300  1
  H  H29  1  0.14097200  0.50028400  0.97383700  1
  H  H30  1  0.85902800  0.99971600  0.97383700  1
  H  H31  1  0.64097200  0.49971600  0.52616300  1
loop_
_geom_bond_atom_site_label_1
_geom_bond_atom_site_label_2
_geom_bond_distance
_geom_bond_site_symmetry_2
Eu0 H25 2.441301 1_455
Eu0 H26 2.441301 1_555
Eu0 H3 2.569350 1_555
Eu0 H0 2.569350 1_455
Eu0 H19 2.640342 1_555
Eu0 H16 2.640342 1_455
Eu0 H11 2.657764 1_555
Eu0 H8 2.657764 1_445
Eu0 H29 2.685587 1_554
Eu0 H30 2.685587 1_444
Eu1 H24 2.441301 1_555
Eu1 H27 2.441301 1_555
Eu1 H2 2.569350 1_555
Eu1 H1 2.569350 1_555
Eu1 H17 2.640342 1_555
Eu1 H18 2.640342 1_555
Eu1 H10 2.657764 1_565
Eu1 H9 2.657764 1_555
Eu1 H28 2.685587 1_565
Eu1 H31 2.685587 1_555
Eu2 H30 2.441301 1_455
Eu2 H29 2.441301 1_555
Eu2 H4 2.569350 1_555
Eu2 H7 2.569350 1_455
Eu2 H20 2.640342 1_555
Eu2 H23 2.640342 1_455
Eu2 H12 2.657764 1_565
Eu2 H15 2.657764 1_455
Eu2 H26 2.685587 1_566
Eu2 H25 2.685587 1_456
Eu3 H31 2.441301 1_555
Eu3 H28 2.441301 1_555
Eu3 H5 2.569350 1_555
Eu3 H6 2.569350 1_555
Eu3 H22 2.640342 1_555
Eu3 H21 2.640342 1_555
Eu3 H13 2.657764 1_555
Eu3 H14 2.657764 1_545
Eu3 H27 2.685587 1_555
Eu3 H24 2.685587 1_545
B0 H0 1.225813 1_555
B0 H16 1.226093 1_555
B0 H24 1.227351 1_545
B0 H8 1.227969 1_545
B1 H1 1.225813 1_555
B1 H17 1.226093 1_555
B1 H25 1.227351 1_555
B1 H9 1.227969 1_555
B2 H2 1.225813 1_555
B2 H18 1.226093 1_555
B2 H26 1.227351 1_565
B2 H10 1.227969 1_565
B3 H3 1.225813 1_555
B3 H19 1.226093 1_555
B3 H27 1.227351 1_555
B3 H11 1.227969 1_555
B4 H4 1.225813 1_555
B4 H20 1.226093 1_555
B4 H28 1.227351 1_565
B4 H12 1.227969 1_565
B5 H5 1.225813 1_555
B5 H21 1.226093 1_555
B5 H29 1.227351 1_555
B5 H13 1.227969 1_555
B6 H6 1.225813 1_555
B6 H22 1.226093 1_555
B6 H30 1.227351 1_545
B6 H14 1.227969 1_545
B7 H7 1.225813 1_555
B7 H23 1.226093 1_555
B7 H31 1.227351 1_555
B7 H15 1.227969 1_555
