# generated using pymatgen
data_AlPbF5
_symmetry_space_group_name_H-M   'P 1'
_cell_length_a   10.86812826
_cell_length_b   10.86812826
_cell_length_c   10.86812826
_cell_angle_alpha   96.40441808
_cell_angle_beta   96.40441808
_cell_angle_gamma   140.97841997
_symmetry_Int_Tables_number   1
_chemical_formula_structural   AlPbF5
_chemical_formula_sum   'Al8 Pb8 F40'
_cell_volume   761.82561120
_cell_formula_units_Z   8
loop_
 _symmetry_equiv_pos_site_id
 _symmetry_equiv_pos_as_xyz
  1  'x, y, z'
loop_
 _atom_site_type_symbol
 _atom_site_label
 _atom_site_symmetry_multiplicity
 _atom_site_fract_x
 _atom_site_fract_y
 _atom_site_fract_z
 _atom_site_occupancy
  Al  Al0  1  0.71699400  0.71699400  0.00000000  1
  Al  Al1  1  0.31452900  0.79843600  0.15530600  1
  Al  Al2  1  0.64312900  0.15922300  0.84469400  1
  Al  Al3  1  0.79843600  0.64312900  0.48390600  1
  Al  Al4  1  0.15922300  0.31452900  0.51609400  1
  Al  Al5  1  0.22129200  0.22129200  0.00000000  1
  Al  Al6  1  0.97273200  0.47273200  0.50000000  1
  Al  Al7  1  0.47273200  0.97273200  0.50000000  1
  Pb  Pb0  1  0.03680300  0.75893100  0.82810700  1
  Pb  Pb1  1  0.93082400  0.20869500  0.17189300  1
  Pb  Pb2  1  0.75893100  0.93082400  0.72212900  1
  Pb  Pb3  1  0.20869500  0.03680300  0.27787100  1
  Pb  Pb4  1  0.23888900  0.55317200  0.83081800  1
  Pb  Pb5  1  0.72235400  0.40807000  0.16918200  1
  Pb  Pb6  1  0.55317200  0.72235400  0.31428300  1
  Pb  Pb7  1  0.40807000  0.23888900  0.68571700  1
  F  F0  1  0.09075000  0.69739100  0.18422800  1
  F  F1  1  0.51316200  0.90652200  0.81577200  1
  F  F2  1  0.69739100  0.51316200  0.60664000  1
  F  F3  1  0.90652200  0.09075000  0.39336000  1
  F  F4  1  0.72306400  0.22306400  0.50000000  1
  F  F5  1  0.22306400  0.72306400  0.50000000  1
  F  F6  1  0.46830600  0.46830600  0.00000000  1
  F  F7  1  0.20361000  0.55567100  0.14086100  1
  F  F8  1  0.41480900  0.06274900  0.85913900  1
  F  F9  1  0.55567100  0.41480900  0.35206000  1
  F  F10  1  0.06274900  0.20361000  0.64794000  1
  F  F11  1  0.21751800  0.72793300  0.97988500  1
  F  F12  1  0.74804800  0.23763200  0.02011500  1
  F  F13  1  0.72793300  0.74804800  0.51041600  1
  F  F14  1  0.23763200  0.21751800  0.48958400  1
  F  F15  1  0.76171100  0.40355600  0.85461500  1
  F  F16  1  0.54894100  0.90709600  0.14538500  1
  F  F17  1  0.40355600  0.54894100  0.64184500  1
  F  F18  1  0.90709600  0.76171100  0.35815500  1
  F  F19  1  0.96852300  0.96852300  0.00000000  1
  F  F20  1  0.03982500  0.58357300  0.67381400  1
  F  F21  1  0.90975900  0.36601100  0.32618600  1
  F  F22  1  0.58357300  0.90975900  0.54374800  1
  F  F23  1  0.36601100  0.03982500  0.45625200  1
  F  F24  1  0.09937200  0.26332000  0.93408000  1
  F  F25  1  0.32924000  0.16529200  0.06592000  1
  F  F26  1  0.26332000  0.32924000  0.16394700  1
  F  F27  1  0.16529200  0.09937200  0.83605300  1
  F  F28  1  0.41656600  0.86054400  0.33365600  1
  F  F29  1  0.52688700  0.08291000  0.66634400  1
  F  F30  1  0.86054400  0.52688700  0.44397700  1
  F  F31  1  0.08291000  0.41656600  0.55602300  1
  F  F32  1  0.83923800  0.67732700  0.07162600  1
  F  F33  1  0.60570100  0.76761200  0.92837400  1
  F  F34  1  0.67732700  0.60570100  0.83808900  1
  F  F35  1  0.76761200  0.83923800  0.16191100  1
  F  F36  1  0.85469300  0.24253700  0.80765000  1
  F  F37  1  0.43488700  0.04704300  0.19235000  1
  F  F38  1  0.24253700  0.43488700  0.38784400  1
  F  F39  1  0.04704300  0.85469300  0.61215600  1
loop_
_geom_bond_atom_site_label_1
_geom_bond_atom_site_label_2
_geom_bond_distance
_geom_bond_site_symmetry_2
Al0 F6 1.805368 1_555
Al0 F32 1.814111 1_555
Al0 F35 1.814111 1_555
Al0 F34 1.814111 1_554
Al0 F33 1.814111 1_554
Al0 F19 1.825992 1_555
Al1 F11 1.817652 1_554
Al1 F16 1.819758 1_555
Al1 F0 1.821341 1_555
Al1 F37 1.822526 1_565
Al1 F7 1.833680 1_555
Al1 F28 1.872966 1_555
Al2 F12 1.817655 1_556
Al2 F15 1.819753 1_555
Al2 F1 1.821341 1_545
Al2 F36 1.822536 1_555
Al2 F8 1.833680 1_555
Al2 F29 1.872966 1_555
Al3 F13 1.817665 1_555
Al3 F18 1.819751 1_555
Al3 F2 1.821341 1_555
Al3 F39 1.822531 1_655
Al3 F9 1.833680 1_555
Al3 F30 1.872966 1_555
Al4 F14 1.817645 1_555
Al4 F17 1.819753 1_555
Al4 F3 1.821341 1_455
Al4 F38 1.822536 1_555
Al4 F10 1.833680 1_555
Al4 F31 1.872966 1_555
Al5 F6 1.793215 1_555
Al5 F26 1.810871 1_555
Al5 F27 1.810871 1_554
Al5 F24 1.810880 1_554
Al5 F25 1.810880 1_555
Al5 F19 1.834994 1_445
Al6 F30 1.798091 1_555
Al6 F31 1.798101 1_655
Al6 F4 1.812482 1_555
Al6 F5 1.817303 1_655
Al6 F20 1.836156 1_655
Al6 F21 1.836156 1_555
Al7 F28 1.798098 1_555
Al7 F29 1.798101 1_565
Al7 F5 1.812482 1_555
Al7 F4 1.817303 1_565
Al7 F22 1.836156 1_555
Al7 F23 1.836156 1_565
F0 Pb5 2.474206 1_455
F1 Pb4 2.474206 1_555
F2 Pb7 2.474214 1_555
F3 Pb6 2.474206 1_545
F7 Pb1 2.501771 1_455
F8 Pb0 2.501758 1_545
F9 Pb3 2.501761 1_555
F10 Pb2 2.501764 1_445
F11 Pb4 2.523683 1_555
F12 Pb5 2.523683 1_555
F13 Pb6 2.523691 1_555
F14 Pb7 2.523691 1_555
F15 Pb0 2.537087 1_655
F16 Pb1 2.537087 1_565
F17 Pb2 2.537087 1_555
F18 Pb3 2.537089 1_665
F20 Pb0 2.416962 1_555
F21 Pb1 2.416969 1_555
F22 Pb2 2.416969 1_555
F23 Pb3 2.416976 1_555
F24 Pb4 2.688588 1_555
F25 Pb5 2.688591 1_555
F26 Pb6 2.688591 1_555
F27 Pb7 2.688590 1_555
F32 Pb5 2.552988 1_555
F33 Pb4 2.552979 1_555
F34 Pb7 2.552978 1_555
F35 Pb6 2.552979 1_555
F36 Pb4 2.562809 1_655
F37 Pb5 2.562803 1_555
F38 Pb6 2.562809 1_555
F39 Pb7 2.562807 1_565
