# generated using pymatgen
data_Hg4SbO6
_symmetry_space_group_name_H-M   'P 1'
_cell_length_a   4.90980331
_cell_length_b   4.83873533
_cell_length_c   8.65300184
_cell_angle_alpha   106.45962597
_cell_angle_beta   106.78507646
_cell_angle_gamma   88.39102205
_symmetry_Int_Tables_number   1
_chemical_formula_structural   Hg4SbO6
_chemical_formula_sum   'Hg4 Sb1 O6'
_cell_volume   188.42389507
_cell_formula_units_Z   1
loop_
 _symmetry_equiv_pos_site_id
 _symmetry_equiv_pos_as_xyz
  1  'x, y, z'
loop_
 _atom_site_type_symbol
 _atom_site_label
 _atom_site_symmetry_multiplicity
 _atom_site_fract_x
 _atom_site_fract_y
 _atom_site_fract_z
 _atom_site_occupancy
  Hg  Hg0  1  0.09766500  0.43335700  0.63665200  1
  Hg  Hg1  1  0.25632700  0.60274300  0.98242600  1
  Hg  Hg2  1  0.47334700  0.81483200  0.40553100  1
  Hg  Hg3  1  0.62432000  0.96749200  0.75139500  1
  Sb  Sb0  1  0.86336500  0.20904000  0.19390400  1
  O  O0  1  0.96856200  0.93550400  0.98398800  1
  O  O1  1  0.11455100  0.51595000  0.19374800  1
  O  O2  1  0.17999700  0.14251500  0.40197400  1
  O  O3  1  0.54842600  0.27456500  0.98547900  1
  O  O4  1  0.61490000  0.90161400  0.19406800  1
  O  O5  1  0.76124000  0.48318900  0.40403600  1
loop_
_geom_bond_atom_site_label_1
_geom_bond_atom_site_label_2
_geom_bond_distance
_geom_bond_site_symmetry_2
Hg0 O2 2.256158 1_555
Hg0 O5 2.273851 1_455
Hg1 O3 2.110241 1_555
Hg1 O0 2.111844 1_455
Hg1 O1 2.278450 1_556
Hg1 O4 2.307522 1_556
Hg2 O5 2.108253 1_555
Hg2 O2 2.112636 1_565
Hg2 O4 2.278984 1_555
Hg2 O1 2.308631 1_555
Hg3 O0 2.264603 1_555
Hg3 O3 2.269074 1_565
O0 Sb0 2.111637 1_566
O1 Sb0 1.957372 1_455
O2 Sb0 2.108481 1_455
O3 Sb0 2.104752 1_556
O4 Sb0 1.950669 1_565
O5 Sb0 2.107038 1_555
