# generated using pymatgen
data_LaLuC3
_symmetry_space_group_name_H-M   'P 1'
_cell_length_a   7.29021571
_cell_length_b   7.29021571
_cell_length_c   7.29021571
_cell_angle_alpha   109.47122063
_cell_angle_beta   109.47122063
_cell_angle_gamma   109.47122063
_symmetry_Int_Tables_number   1
_chemical_formula_structural   LaLuC3
_chemical_formula_sum   'La4 Lu4 C12'
_cell_volume   298.26290602
_cell_formula_units_Z   4
loop_
 _symmetry_equiv_pos_site_id
 _symmetry_equiv_pos_as_xyz
  1  'x, y, z'
loop_
 _atom_site_type_symbol
 _atom_site_label
 _atom_site_symmetry_multiplicity
 _atom_site_fract_x
 _atom_site_fract_y
 _atom_site_fract_z
 _atom_site_occupancy
  La  La0  1  0.88897800  0.88897800  0.88897800  1
  La  La1  1  0.61102200  0.50000000  0.00000000  1
  La  La2  1  0.00000000  0.61102200  0.50000000  1
  La  La3  1  0.50000000  0.00000000  0.61102200  1
  Lu  Lu0  1  0.09970800  0.50000000  0.00000000  1
  Lu  Lu1  1  0.40029200  0.40029200  0.40029200  1
  Lu  Lu2  1  0.00000000  0.09970800  0.50000000  1
  Lu  Lu3  1  0.50000000  0.00000000  0.09970800  1
  C  C0  1  0.75000000  0.43903600  0.68903600  1
  C  C1  1  0.25000000  0.06096400  0.81096400  1
  C  C2  1  0.25000000  0.22010800  0.97010800  1
  C  C3  1  0.75000000  0.27989200  0.52989200  1
  C  C4  1  0.06096400  0.81096400  0.25000000  1
  C  C5  1  0.43903600  0.68903600  0.75000000  1
  C  C6  1  0.27989200  0.52989200  0.75000000  1
  C  C7  1  0.22010800  0.97010800  0.25000000  1
  C  C8  1  0.68903600  0.75000000  0.43903600  1
  C  C9  1  0.81096400  0.25000000  0.06096400  1
  C  C10  1  0.97010800  0.25000000  0.22010800  1
  C  C11  1  0.52989200  0.75000000  0.27989200  1
loop_
_geom_bond_atom_site_label_1
_geom_bond_atom_site_label_2
_geom_bond_distance
_geom_bond_site_symmetry_2
C0 C3 1.339677 1_555
C0 Lu1 2.560534 1_555
C0 Lu0 2.560534 1_656
C0 La0 2.742823 1_555
C0 La1 2.742823 1_556
C0 La3 2.845331 1_555
C0 La2 2.845331 1_655
C1 C2 1.339677 1_555
C1 Lu3 2.560534 1_556
C1 Lu2 2.560534 1_555
C1 La2 2.742823 1_545
C1 La3 2.742823 1_555
C1 La0 2.845331 1_445
C1 La1 2.845331 1_556
C2 Lu1 2.600899 1_556
C2 Lu0 2.600899 1_556
C2 La0 2.622787 1_445
C2 La1 2.622787 1_556
C3 Lu2 2.600899 1_655
C3 Lu3 2.600899 1_555
C3 La3 2.622787 1_555
C3 La2 2.622787 1_655
C4 C7 1.339677 1_555
C4 Lu0 2.560534 1_555
C4 Lu2 2.560534 1_565
C4 La2 2.742823 1_555
C4 La1 2.742823 1_455
C4 La0 2.845331 1_454
C4 La3 2.845331 1_565
C5 C6 1.339677 1_555
C5 Lu3 2.560534 1_566
C5 Lu1 2.560534 1_555
C5 La0 2.742823 1_555
C5 La3 2.742823 1_565
C5 La1 2.845331 1_556
C5 La2 2.845331 1_555
C6 Lu0 2.600899 1_556
C6 Lu2 2.600899 1_555
C6 La2 2.622787 1_555
C6 La1 2.622787 1_556
C7 Lu1 2.600899 1_565
C7 Lu3 2.600899 1_565
C7 La0 2.622787 1_454
C7 La3 2.622787 1_565
C8 Lu2 2.560534 1_665
C8 Lu1 2.560534 1_555
C8 La0 2.742823 1_555
C8 La2 2.742823 1_655
C8 La3 2.845331 1_565
C8 La1 2.845331 1_555
C9 Lu0 2.560534 1_655
C9 Lu3 2.560534 1_555
C9 La3 2.742823 1_554
C9 La1 2.742823 1_555
C9 La0 2.845331 1_544
C9 La2 2.845331 1_655
C10 C9 1.339677 1_555
C10 Lu1 2.600899 1_655
C10 Lu2 2.600899 1_655
C10 La2 2.622787 1_655
C10 La0 2.622787 1_544
C11 C8 1.339677 1_555
C11 Lu0 2.600899 1_555
C11 Lu3 2.600899 1_565
C11 La1 2.622787 1_555
C11 La3 2.622787 1_565
