# generated using pymatgen
data_Tm2(Al3Ir)3
_symmetry_space_group_name_H-M   'P 1'
_cell_length_a   7.47949941
_cell_length_b   7.47949941
_cell_length_c   9.37394760
_cell_angle_alpha   90.00000000
_cell_angle_beta   90.00000000
_cell_angle_gamma   119.50165286
_symmetry_Int_Tables_number   1
_chemical_formula_structural   Tm2(Al3Ir)3
_chemical_formula_sum   'Tm4 Al18 Ir6'
_cell_volume   456.41223016
_cell_formula_units_Z   2
loop_
 _symmetry_equiv_pos_site_id
 _symmetry_equiv_pos_as_xyz
  1  'x, y, z'
loop_
 _atom_site_type_symbol
 _atom_site_label
 _atom_site_symmetry_multiplicity
 _atom_site_fract_x
 _atom_site_fract_y
 _atom_site_fract_z
 _atom_site_occupancy
  Tm  Tm0  1  0.99500291  0.67220502  0.25000000  1
  Tm  Tm1  1  0.00499709  0.32779498  0.75000000  1
  Tm  Tm2  1  0.67220502  0.99500291  0.25000000  1
  Tm  Tm3  1  0.32779498  0.00499709  0.75000000  1
  Al  Al0  1  0.12976721  0.12976721  0.25000000  1
  Al  Al1  1  0.87023279  0.87023279  0.75000000  1
  Al  Al2  1  0.00136698  0.33553916  0.07453972  1
  Al  Al3  1  0.99863302  0.66446084  0.92546028  1
  Al  Al4  1  0.99863302  0.66446084  0.57453972  1
  Al  Al5  1  0.33553916  0.00136698  0.42546028  1
  Al  Al6  1  0.00136698  0.33553916  0.42546028  1
  Al  Al7  1  0.66446084  0.99863302  0.57453972  1
  Al  Al8  1  0.66446084  0.99863302  0.92546028  1
  Al  Al9  1  0.33553916  0.00136698  0.07453972  1
  Al  Al10  1  0.33349913  0.33349913  0.55241725  1
  Al  Al11  1  0.66650087  0.66650087  0.44758275  1
  Al  Al12  1  0.66650087  0.66650087  0.05241725  1
  Al  Al13  1  0.33349913  0.33349913  0.94758275  1
  Al  Al14  1  0.33945556  0.54859973  0.25000000  1
  Al  Al15  1  0.66054444  0.45140027  0.75000000  1
  Al  Al16  1  0.54859973  0.33945556  0.25000000  1
  Al  Al17  1  0.45140027  0.66054444  0.75000000  1
  Ir  Ir0  1  0.67239753  0.32760247  0.00000000  1
  Ir  Ir1  1  0.32760247  0.67239753  0.00000000  1
  Ir  Ir2  1  0.32760247  0.67239753  0.50000000  1
  Ir  Ir3  1  0.67239753  0.32760247  0.50000000  1
  Ir  Ir4  1  -0.00000000  -0.00000000  0.00000000  1
  Ir  Ir5  1  -0.00000000  -0.00000000  0.50000000  1
loop_
_geom_bond_atom_site_label_1
_geom_bond_atom_site_label_2
_geom_bond_distance
_geom_bond_site_symmetry_2
Al0 Ir4 2.539333 1_555
Al0 Ir5 2.539333 1_555
Al0 Tm2 3.054648 1_445
Al0 Tm0 3.054648 1_445
Al1 Ir5 2.539333 1_665
Al1 Ir4 2.539333 1_666
Al1 Tm1 3.054648 1_665
Al1 Tm3 3.054648 1_665
Al2 Ir0 2.530234 1_455
Al2 Ir1 2.595235 1_555
Al2 Ir4 2.600284 1_555
Al2 Tm2 3.012954 1_445
Al2 Tm0 3.027594 1_455
Al2 Tm1 3.043145 1_554
Al3 Ir1 2.530234 1_656
Al3 Ir0 2.595235 1_556
Al3 Ir4 2.600284 1_666
Al3 Tm3 3.012954 1_665
Al3 Tm1 3.027594 1_655
Al3 Tm0 3.043145 1_556
Al4 Ir2 2.530234 1_655
Al4 Ir3 2.595235 1_555
Al4 Ir5 2.600284 1_665
Al4 Tm3 3.012954 1_665
Al4 Tm1 3.027594 1_655
Al4 Tm0 3.043145 1_555
Al5 Ir2 2.530234 1_545
Al5 Ir3 2.595235 1_555
Al5 Ir5 2.600284 1_555
Al5 Tm0 3.012954 1_445
Al5 Tm2 3.027594 1_545
Al5 Tm3 3.043145 1_555
Al6 Ir3 2.530234 1_455
Al6 Ir2 2.595235 1_555
Al6 Ir5 2.600284 1_555
Al6 Tm2 3.012954 1_445
Al6 Tm0 3.027594 1_455
Al6 Tm1 3.043145 1_555
Al7 Ir3 2.530234 1_565
Al7 Ir2 2.595235 1_555
Al7 Ir5 2.600284 1_665
Al7 Tm1 3.012954 1_665
Al7 Tm3 3.027594 1_565
Al7 Tm2 3.043145 1_555
Al8 Ir0 2.530234 1_566
Al8 Ir1 2.595235 1_556
Al8 Ir4 2.600284 1_666
Al8 Tm1 3.012954 1_665
Al8 Tm3 3.027594 1_565
Al8 Tm2 3.043145 1_556
Al9 Ir1 2.530234 1_545
Al9 Ir0 2.595235 1_555
Al9 Ir4 2.600284 1_555
Al9 Tm0 3.012954 1_445
Al9 Tm2 3.027594 1_545
Al9 Tm3 3.043145 1_554
Al10 Ir5 2.560755 1_555
Al10 Ir3 2.603583 1_555
Al10 Ir2 2.603583 1_555
Al10 Tm3 3.060386 1_555
Al10 Tm1 3.060386 1_555
Al11 Ir5 2.560755 1_665
Al11 Ir3 2.603583 1_555
Al11 Ir2 2.603583 1_555
Al11 Tm2 3.060386 1_555
Al11 Tm0 3.060386 1_555
Al12 Ir4 2.560755 1_665
Al12 Ir0 2.603583 1_555
Al12 Ir1 2.603583 1_555
Al12 Tm0 3.060386 1_555
Al12 Tm2 3.060386 1_555
Al13 Ir4 2.560755 1_556
Al13 Ir0 2.603583 1_556
Al13 Ir1 2.603583 1_556
Al13 Tm3 3.060386 1_555
Al13 Tm1 3.060386 1_555
Al14 Ir1 2.537325 1_555
Al14 Ir2 2.537325 1_555
Al14 Tm2 3.026203 1_555
Al14 Tm0 3.136569 1_455
Al15 Ir3 2.537325 1_555
Al15 Ir0 2.537325 1_556
Al15 Tm3 3.026203 1_555
Al15 Tm1 3.136569 1_655
Al16 Ir3 2.537325 1_555
Al16 Ir0 2.537325 1_555
Al16 Tm0 3.026203 1_555
Al16 Tm2 3.136569 1_545
Al17 Ir2 2.537325 1_555
Al17 Ir1 2.537325 1_556
Al17 Tm1 3.026203 1_555
Al17 Tm3 3.136569 1_565
Ir0 Tm2 3.417155 1_545
Ir0 Tm1 3.417155 1_654
Ir0 Tm3 3.439787 1_554
Ir0 Tm0 3.439787 1_555
Ir1 Tm0 3.417155 1_455
Ir1 Tm3 3.417155 1_564
Ir1 Tm2 3.439787 1_555
Ir1 Tm1 3.439787 1_554
Ir2 Tm0 3.417155 1_455
Ir2 Tm3 3.417155 1_565
Ir2 Tm1 3.439787 1_555
Ir2 Tm2 3.439787 1_555
Ir3 Tm2 3.417155 1_545
Ir3 Tm1 3.417155 1_655
Ir3 Tm0 3.439787 1_555
Ir3 Tm3 3.439787 1_555
Ir4 Tm2 3.378478 1_445
Ir4 Tm0 3.378478 1_445
Ir4 Tm1 3.378478 1_554
Ir4 Tm3 3.378478 1_554
Ir5 Tm2 3.378478 1_445
Ir5 Tm0 3.378478 1_445
Ir5 Tm1 3.378478 1_555
Ir5 Tm3 3.378478 1_555
