# generated using pymatgen
data_U(Al10Cr)2
_symmetry_space_group_name_H-M   'P 1'
_cell_length_a   10.34429621
_cell_length_b   10.34429621
_cell_length_c   10.34429621
_cell_angle_alpha   60.00000000
_cell_angle_beta   60.00000000
_cell_angle_gamma   60.00000000
_symmetry_Int_Tables_number   1
_chemical_formula_structural   U(Al10Cr)2
_chemical_formula_sum   'U2 Al40 Cr4'
_cell_volume   782.68650732
_cell_formula_units_Z   2
loop_
 _symmetry_equiv_pos_site_id
 _symmetry_equiv_pos_as_xyz
  1  'x, y, z'
loop_
 _atom_site_type_symbol
 _atom_site_label
 _atom_site_symmetry_multiplicity
 _atom_site_fract_x
 _atom_site_fract_y
 _atom_site_fract_z
 _atom_site_occupancy
  U  U0  1  0.50000000  0.50000000  0.50000000  1
  U  U1  1  0.75000000  0.75000000  0.75000000  1
  Al  Al0  1  0.86261600  0.86261600  0.13738400  1
  Al  Al1  1  0.13738400  0.13738400  0.86261600  1
  Al  Al2  1  0.86261600  0.13738400  0.86261600  1
  Al  Al3  1  0.13738400  0.86261600  0.13738400  1
  Al  Al4  1  0.13738400  0.86261600  0.86261600  1
  Al  Al5  1  0.86261600  0.13738400  0.13738400  1
  Al  Al6  1  0.38738400  0.38738400  0.11261600  1
  Al  Al7  1  0.11261600  0.11261600  0.38738400  1
  Al  Al8  1  0.38738400  0.11261600  0.38738400  1
  Al  Al9  1  0.11261600  0.38738400  0.11261600  1
  Al  Al10  1  0.11261600  0.38738400  0.38738400  1
  Al  Al11  1  0.38738400  0.11261600  0.11261600  1
  Al  Al12  1  0.56919800  0.30375900  0.30375900  1
  Al  Al13  1  0.30375900  0.56919800  0.82328300  1
  Al  Al14  1  0.30375900  0.82328300  0.56919800  1
  Al  Al15  1  0.82328300  0.30375900  0.30375900  1
  Al  Al16  1  0.30375900  0.30375900  0.56919800  1
  Al  Al17  1  0.56919800  0.82328300  0.30375900  1
  Al  Al18  1  0.82328300  0.56919800  0.30375900  1
  Al  Al19  1  0.30375900  0.30375900  0.82328300  1
  Al  Al20  1  0.30375900  0.56919800  0.30375900  1
  Al  Al21  1  0.82328300  0.30375900  0.56919800  1
  Al  Al22  1  0.56919800  0.30375900  0.82328300  1
  Al  Al23  1  0.30375900  0.82328300  0.30375900  1
  Al  Al24  1  0.68080200  0.94624100  0.94624100  1
  Al  Al25  1  0.94624100  0.68080200  0.42671700  1
  Al  Al26  1  0.94624100  0.42671700  0.68080200  1
  Al  Al27  1  0.42671700  0.94624100  0.94624100  1
  Al  Al28  1  0.94624100  0.94624100  0.68080200  1
  Al  Al29  1  0.68080200  0.42671700  0.94624100  1
  Al  Al30  1  0.42671700  0.68080200  0.94624100  1
  Al  Al31  1  0.94624100  0.94624100  0.42671700  1
  Al  Al32  1  0.94624100  0.68080200  0.94624100  1
  Al  Al33  1  0.42671700  0.94624100  0.68080200  1
  Al  Al34  1  0.68080200  0.94624100  0.42671700  1
  Al  Al35  1  0.94624100  0.42671700  0.94624100  1
  Al  Al36  1  0.62500000  0.12500000  0.12500000  1
  Al  Al37  1  0.12500000  0.62500000  0.12500000  1
  Al  Al38  1  0.12500000  0.12500000  0.62500000  1
  Al  Al39  1  0.12500000  0.12500000  0.12500000  1
  Cr  Cr0  1  0.12500000  0.62500000  0.62500000  1
  Cr  Cr1  1  0.62500000  0.12500000  0.62500000  1
  Cr  Cr2  1  0.62500000  0.62500000  0.12500000  1
  Cr  Cr3  1  0.62500000  0.62500000  0.62500000  1
loop_
_geom_bond_atom_site_label_1
_geom_bond_atom_site_label_2
_geom_bond_distance
_geom_bond_site_symmetry_2
Al0 Al36 2.592412 1_565
Al0 Al37 2.592412 1_655
Al0 Al18 2.766039 1_555
Al0 Al17 2.766039 1_555
Al0 Al3 2.842282 1_655
Al0 Al5 2.842282 1_565
Al0 Al4 2.842282 1_654
Al0 Al2 2.842282 1_564
Al0 Al32 2.928533 1_554
Al0 Al24 2.928533 1_554
Al0 Al25 2.928542 1_555
Al0 Al34 2.928542 1_555
Al1 Al39 2.592412 1_556
Al1 Al38 2.592412 1_555
Al1 Al19 2.766030 1_555
Al1 Al16 2.766035 1_555
Al1 Al5 2.842282 1_456
Al1 Al4 2.842282 1_545
Al1 Al2 2.842282 1_455
Al1 Al3 2.842282 1_546
Al1 Al26 2.928537 1_455
Al1 Al33 2.928537 1_545
Al1 Al35 2.928542 1_455
Al1 Al27 2.928542 1_545
Al2 Al38 2.592412 1_655
Al2 Al36 2.592412 1_556
Al2 Al22 2.766039 1_555
Al2 Al21 2.766039 1_555
Al2 Al5 2.842282 1_556
Al2 Al4 2.842282 1_645
Al2 Al24 2.928533 1_545
Al2 Al28 2.928533 1_545
Al2 Al26 2.928542 1_555
Al2 Al29 2.928542 1_555
Al3 Al39 2.592412 1_565
Al3 Al37 2.592412 1_555
Al3 Al5 2.842282 1_465
Al3 Al4 2.842282 1_554
Al3 Al30 2.928537 1_554
Al3 Al31 2.928542 1_455
Al6 Al8 2.842282 1_555
Al6 Al9 2.842282 1_555
Al7 Al8 2.842282 1_555
Al7 Al9 2.842282 1_555
Al10 Al38 2.592412 1_555
Al10 Al37 2.592412 1_555
Al10 Al25 2.766039 1_455
Al10 Al26 2.766039 1_455
Al10 Al7 2.842282 1_555
Al10 Al8 2.842282 1_555
Al10 Al9 2.842282 1_555
Al10 Al6 2.842282 1_555
Al10 Al16 2.928533 1_555
Al10 Al20 2.928533 1_555
Al10 Al21 2.928542 1_455
Al10 Al18 2.928542 1_455
Al11 Al39 2.592412 1_555
Al11 Al36 2.592412 1_555
Al11 Al27 2.766030 1_544
Al11 Al24 2.766035 1_544
Al11 Al7 2.842282 1_555
Al11 Al6 2.842282 1_555
Al11 Al8 2.842282 1_555
Al11 Al9 2.842282 1_555
Al11 Al22 2.928537 1_554
Al11 Al17 2.928537 1_545
Al11 Al23 2.928542 1_545
Al11 Al19 2.928542 1_554
Al12 Al15 2.628331 1_555
Al12 Al20 2.745780 1_555
Al12 Al16 2.745780 1_555
Al12 Al5 2.766035 1_555
Al12 Al36 2.907980 1_555
Al12 Al6 2.928533 1_555
Al12 Al8 2.928533 1_555
Al12 Al34 3.020388 1_545
Al12 Al29 3.020388 1_554
Al12 Cr1 3.082366 1_555
Al12 Cr2 3.082366 1_555
Al12 U0 3.157316 1_555
Al13 Al14 2.628331 1_555
Al13 Al19 2.745780 1_555
Al13 Al22 2.745780 1_555
Al13 Al4 2.766039 1_555
Al13 Al37 2.907989 1_556
Al13 Al9 2.928537 1_556
Al13 Al6 2.928542 1_556
Al13 Al32 3.020388 1_455
Al13 Al30 3.020405 1_555
Al13 Cr0 3.082357 1_555
Al13 Cr3 3.082365 1_555
Al13 U0 3.157307 1_555
Al14 Al17 2.745780 1_555
Al14 Al23 2.745780 1_555
Al14 Al4 2.766039 1_555
Al14 Al38 2.907989 1_565
Al14 Al7 2.928537 1_565
Al14 Al8 2.928542 1_565
Al14 Al28 3.020388 1_455
Al14 Al33 3.020405 1_555
Al14 Cr0 3.082357 1_555
Al14 Cr3 3.082365 1_555
Al14 U0 3.157307 1_555
Al15 Al18 2.745780 1_555
Al15 Al21 2.745780 1_555
Al15 Al5 2.766030 1_555
Al15 Al39 2.907984 1_655
Al15 Al9 2.928542 1_655
Al15 Al7 2.928542 1_655
Al15 Al31 3.020388 1_545
Al15 Al35 3.020388 1_554
Al15 Cr2 3.082361 1_555
Al15 Cr1 3.082361 1_555
Al15 U0 3.157311 1_555
Al16 Al19 2.628331 1_555
Al16 Al20 2.745780 1_555
Al16 Al38 2.907980 1_555
Al16 Al8 2.928533 1_555
Al16 Al33 3.020388 1_545
Al16 Al26 3.020388 1_455
Al16 Cr0 3.082366 1_555
Al16 Cr1 3.082366 1_555
Al16 U0 3.157316 1_555
Al17 Al18 2.628331 1_555
Al17 Al23 2.745780 1_555
Al17 Al36 2.907989 1_565
Al17 Al8 2.928542 1_565
Al17 Al24 3.020388 1_554
Al17 Al34 3.020405 1_555
Al17 Cr2 3.082357 1_555
Al17 Cr3 3.082365 1_555
Al17 U0 3.157307 1_555
Al18 Al21 2.745780 1_555
Al18 Al37 2.907989 1_655
Al18 Al9 2.928537 1_655
Al18 Al32 3.020388 1_554
Al18 Al25 3.020405 1_555
Al18 Cr2 3.082357 1_555
Al18 Cr3 3.082365 1_555
Al18 U0 3.157307 1_555
Al19 Al22 2.745780 1_555
Al19 Al39 2.907984 1_556
Al19 Al9 2.928542 1_556
Al19 Al35 3.020388 1_455
Al19 Al27 3.020388 1_545
Al19 Cr0 3.082361 1_555
Al19 Cr1 3.082361 1_555
Al19 U0 3.157311 1_555
Al20 Al23 2.628331 1_555
Al20 Al3 2.766035 1_555
Al20 Al37 2.907980 1_555
Al20 Al6 2.928533 1_555
Al20 Al30 3.020388 1_554
Al20 Al25 3.020388 1_455
Al20 Cr2 3.082366 1_555
Al20 Cr0 3.082366 1_555
Al20 U0 3.157316 1_555
Al21 Al22 2.628331 1_555
Al21 Al38 2.907989 1_655
Al21 Al7 2.928537 1_655
Al21 Al28 3.020388 1_545
Al21 Al26 3.020405 1_555
Al21 Cr1 3.082357 1_555
Al21 Cr3 3.082365 1_555
Al21 U0 3.157307 1_555
Al22 Al36 2.907989 1_556
Al22 Al6 2.928542 1_556
Al22 Al24 3.020388 1_545
Al22 Al29 3.020405 1_555
Al22 Cr1 3.082357 1_555
Al22 Cr3 3.082365 1_555
Al22 U0 3.157307 1_555
Al23 Al3 2.766030 1_555
Al23 Al39 2.907984 1_565
Al23 Al7 2.928542 1_565
Al23 Al27 3.020388 1_554
Al23 Al31 3.020388 1_455
Al23 Cr2 3.082361 1_555
Al23 Cr0 3.082361 1_555
Al23 U0 3.157311 1_555
Al24 Al27 2.628331 1_555
Al24 Al28 2.745780 1_555
Al24 Al32 2.745780 1_555
Al24 Al36 2.907980 1_566
Al24 Cr1 3.082366 1_565
Al24 Cr2 3.082366 1_556
Al24 U1 3.157316 1_555
Al25 Al26 2.628331 1_555
Al25 Al31 2.745780 1_555
Al25 Al34 2.745780 1_555
Al25 Al37 2.907989 1_655
Al25 Al3 2.928537 1_655
Al25 Cr0 3.082357 1_655
Al25 Cr3 3.082365 1_555
Al25 U1 3.157307 1_555
Al26 Al35 2.745780 1_555
Al26 Al29 2.745780 1_555
Al26 Al38 2.907989 1_655
Al26 Cr0 3.082357 1_655
Al26 Cr3 3.082365 1_555
Al26 U1 3.157307 1_555
Al27 Al30 2.745780 1_555
Al27 Al33 2.745780 1_555
Al27 Al39 2.907984 1_566
Al27 Al3 2.928542 1_556
Al27 Cr2 3.082361 1_556
Al27 Cr1 3.082361 1_565
Al27 U1 3.157311 1_555
Al28 Al31 2.628331 1_555
Al28 Al32 2.745780 1_555
Al28 Al7 2.766035 1_665
Al28 Al38 2.907980 1_665
Al28 Al4 2.928533 1_655
Al28 Cr0 3.082366 1_655
Al28 Cr1 3.082366 1_565
Al28 U1 3.157316 1_555
Al29 Al30 2.628331 1_555
Al29 Al35 2.745780 1_555
Al29 Al6 2.766039 1_556
Al29 Al36 2.907989 1_556
Al29 Al5 2.928537 1_556
Al29 Cr2 3.082357 1_556
Al29 Cr3 3.082365 1_555
Al29 U1 3.157307 1_555
Al30 Al33 2.745780 1_555
Al30 Al6 2.766039 1_556
Al30 Al37 2.907989 1_556
Al30 Al4 2.928542 1_555
Al30 Cr2 3.082357 1_556
Al30 Cr3 3.082365 1_555
Al30 U1 3.157307 1_555
Al31 Al34 2.745780 1_555
Al31 Al7 2.766030 1_665
Al31 Al39 2.907984 1_665
Al31 Al5 2.928542 1_565
Al31 Cr0 3.082361 1_655
Al31 Cr1 3.082361 1_565
Al31 U1 3.157311 1_555
Al32 Al35 2.628331 1_555
Al32 Al9 2.766035 1_656
Al32 Al37 2.907980 1_656
Al32 Al4 2.928533 1_655
Al32 Cr0 3.082366 1_655
Al32 Cr2 3.082366 1_556
Al32 U1 3.157316 1_555
Al33 Al34 2.628331 1_555
Al33 Al8 2.766039 1_565
Al33 Al38 2.907989 1_565
Al33 Al4 2.928542 1_555
Al33 Cr1 3.082357 1_565
Al33 Cr3 3.082365 1_555
Al33 U1 3.157307 1_555
Al34 Al8 2.766039 1_565
Al34 Al36 2.907989 1_565
Al34 Al5 2.928537 1_565
Al34 Cr1 3.082357 1_565
Al34 Cr3 3.082365 1_555
Al34 U1 3.157307 1_555
Al35 Al9 2.766030 1_656
Al35 Al39 2.907984 1_656
Al35 Al5 2.928542 1_556
Al35 Cr2 3.082361 1_556
Al35 Cr0 3.082361 1_655
Al35 U1 3.157311 1_555
Al36 Al8 2.592412 1_555
Al36 Al6 2.592412 1_555
Al36 Al5 2.592412 1_555
Al37 Al9 2.592412 1_555
Al37 Al6 2.592412 1_555
Al37 Al4 2.592412 1_554
Al38 Al8 2.592412 1_555
Al38 Al4 2.592412 1_545
Al38 Al7 2.592412 1_555
Al39 Al5 2.592412 1_455
Al39 Al9 2.592412 1_555
Al39 Al7 2.592412 1_555
Cr0 U1 3.167281 1_455
Cr0 U0 3.167281 1_555
Cr1 U0 3.167281 1_555
Cr1 U1 3.167281 1_545
Cr2 U1 3.167281 1_554
Cr2 U0 3.167281 1_555
Cr3 U0 3.167281 1_555
Cr3 U1 3.167281 1_555
