# generated using pymatgen
data_LiNdTi2O6
_symmetry_space_group_name_H-M   'P 1'
_cell_length_a   5.37674200
_cell_length_b   5.62295100
_cell_length_c   7.66139200
_cell_angle_alpha   90.00000000
_cell_angle_beta   90.00000000
_cell_angle_gamma   90.00000000
_symmetry_Int_Tables_number   1
_chemical_formula_structural   LiNdTi2O6
_chemical_formula_sum   'Li2 Nd2 Ti4 O12'
_cell_volume   231.62806569
_cell_formula_units_Z   2
loop_
 _symmetry_equiv_pos_site_id
 _symmetry_equiv_pos_as_xyz
  1  'x, y, z'
loop_
 _atom_site_type_symbol
 _atom_site_label
 _atom_site_symmetry_multiplicity
 _atom_site_fract_x
 _atom_site_fract_y
 _atom_site_fract_z
 _atom_site_occupancy
  Li  Li0  1  0.71574900  0.12461600  0.50000000  1
  Li  Li1  1  0.28425100  0.62461600  0.50000000  1
  Nd  Nd0  1  0.26443400  0.69661400  0.00000000  1
  Nd  Nd1  1  0.73556600  0.19661400  0.00000000  1
  Ti  Ti0  1  0.76178000  0.72080600  0.26611100  1
  Ti  Ti1  1  0.76178000  0.72080600  0.73388900  1
  Ti  Ti2  1  0.23822000  0.22080600  0.73388900  1
  Ti  Ti3  1  0.23822000  0.22080600  0.26611100  1
  O  O0  1  0.94425000  0.05812900  0.71291300  1
  O  O1  1  0.94425000  0.05812900  0.28708700  1
  O  O2  1  0.05575000  0.55812900  0.28708700  1
  O  O3  1  0.05575000  0.55812900  0.71291300  1
  O  O4  1  0.45829000  0.97728700  0.79979400  1
  O  O5  1  0.45829000  0.97728700  0.20020600  1
  O  O6  1  0.54171000  0.47728700  0.20020600  1
  O  O7  1  0.54171000  0.47728700  0.79979400  1
  O  O8  1  0.17141200  0.27272800  0.00000000  1
  O  O9  1  0.82858800  0.77272800  0.00000000  1
  O  O10  1  0.35014600  0.25359700  0.50000000  1
  O  O11  1  0.64985400  0.75359700  0.50000000  1
loop_
_geom_bond_atom_site_label_1
_geom_bond_atom_site_label_2
_geom_bond_distance
_geom_bond_site_symmetry_2
Li0 O1 2.076065 1_555
Li0 O0 2.076065 1_555
Li0 O10 2.095275 1_555
Li0 O11 2.116093 1_545
Li1 O3 2.076065 1_555
Li1 O2 2.076065 1_555
Li1 O11 2.095275 1_555
Li1 O10 2.116093 1_555
Nd0 O9 2.382193 1_455
Nd0 O5 2.435135 1_555
Nd0 O4 2.435135 1_554
Nd0 O8 2.435402 1_555
Nd0 O7 2.469062 1_554
Nd0 O6 2.469062 1_555
Nd0 O2 2.589030 1_555
Nd0 O3 2.589030 1_554
Nd1 O8 2.382193 1_655
Nd1 O6 2.435135 1_555
Nd1 O7 2.435135 1_554
Nd1 O9 2.435402 1_545
Nd1 O4 2.469062 1_544
Nd1 O5 2.469062 1_545
Nd1 O1 2.589030 1_555
Nd1 O0 2.589030 1_554
O0 Ti2 1.833261 1_655
O0 Ti1 2.141503 1_545
O1 Ti3 1.833261 1_655
O1 Ti0 2.141503 1_545
O2 Ti0 1.833261 1_455
O2 Ti3 2.141503 1_555
O3 Ti1 1.833261 1_455
O3 Ti2 2.141503 1_555
O4 Ti2 1.878835 1_565
O4 Ti1 2.235523 1_555
O5 Ti3 1.878835 1_565
O5 Ti0 2.235523 1_555
O6 Ti0 1.878835 1_555
O6 Ti3 2.235523 1_555
O7 Ti1 1.878835 1_555
O7 Ti2 2.235523 1_555
O8 Ti3 2.090669 1_555
O8 Ti2 2.090669 1_554
O9 Ti0 2.090669 1_555
O9 Ti1 2.090669 1_554
O10 Ti3 1.899241 1_555
O10 Ti2 1.899241 1_555
O11 Ti1 1.899241 1_555
O11 Ti0 1.899241 1_555
