# generated using pymatgen
data_Nd(N5O9)3
_symmetry_space_group_name_H-M   'P 1'
_cell_length_a   10.29004863
_cell_length_b   10.29004863
_cell_length_c   18.40680248
_cell_angle_alpha   73.85018815
_cell_angle_beta   73.85018815
_cell_angle_gamma   54.34739530
_symmetry_Int_Tables_number   1
_chemical_formula_structural   Nd(N5O9)3
_chemical_formula_sum   'Nd2 N30 O54'
_cell_volume   1504.29800030
_cell_formula_units_Z   2
loop_
 _symmetry_equiv_pos_site_id
 _symmetry_equiv_pos_as_xyz
  1  'x, y, z'
loop_
 _atom_site_type_symbol
 _atom_site_label
 _atom_site_symmetry_multiplicity
 _atom_site_fract_x
 _atom_site_fract_y
 _atom_site_fract_z
 _atom_site_occupancy
  Nd  Nd0  1  0.50000000  0.50000000  0.00000000  1
  Nd  Nd1  1  0.50000000  0.50000000  0.50000000  1
  N  N0  1  0.49620600  0.21782900  0.26103000  1
  N  N1  1  0.78217100  0.50379400  0.23897000  1
  N  N2  1  0.50379400  0.78217100  0.73897000  1
  N  N3  1  0.21782900  0.49620600  0.76103000  1
  N  N4  1  0.79123700  0.91116900  0.94345400  1
  N  N5  1  0.08883100  0.20876300  0.55654600  1
  N  N6  1  0.20876300  0.08883100  0.05654600  1
  N  N7  1  0.91116900  0.79123700  0.44345400  1
  N  N8  1  0.27498500  0.98213100  0.30530000  1
  N  N9  1  0.01786900  0.72501500  0.19470000  1
  N  N10  1  0.72501500  0.01786900  0.69470000  1
  N  N11  1  0.98213100  0.27498500  0.80530000  1
  N  N12  1  0.54636800  0.35297400  0.86231000  1
  N  N13  1  0.64702600  0.45363200  0.63769000  1
  N  N14  1  0.45363200  0.64702600  0.13769000  1
  N  N15  1  0.35297400  0.54636800  0.36231000  1
  N  N16  1  0.79965500  0.18011000  0.05870500  1
  N  N17  1  0.81989000  0.20034500  0.44129500  1
  N  N18  1  0.20034500  0.81989000  0.94129500  1
  N  N19  1  0.18011000  0.79965500  0.55870500  1
  N  N20  1  0.26424400  0.39396300  0.08180700  1
  N  N21  1  0.60603700  0.73575600  0.41819300  1
  N  N22  1  0.73575600  0.60603700  0.91819300  1
  N  N23  1  0.39396300  0.26424400  0.58180700  1
  N  N24  1  0.93218100  0.06781900  0.25000000  1
  N  N25  1  0.06781900  0.93218100  0.75000000  1
  N  N26  1  0.62138400  0.90132300  0.14595600  1
  N  N27  1  0.09867700  0.37861600  0.35404400  1
  N  N28  1  0.37861600  0.09867700  0.85404400  1
  N  N29  1  0.90132400  0.62138400  0.64595600  1
  O  O0  1  0.35374500  0.72465700  0.08980000  1
  O  O1  1  0.27534300  0.64625500  0.41020000  1
  O  O2  1  0.64625500  0.27534300  0.91020000  1
  O  O3  1  0.72465700  0.35374500  0.58980000  1
  O  O4  1  0.43901200  0.50117300  0.86771100  1
  O  O5  1  0.49882700  0.56098800  0.63228900  1
  O  O6  1  0.56098800  0.49882700  0.13228900  1
  O  O7  1  0.50117300  0.43901200  0.36771100  1
  O  O8  1  0.55347600  0.28640700  0.81342300  1
  O  O9  1  0.71359300  0.44652400  0.68657700  1
  O  O10  1  0.44652400  0.71359300  0.18657700  1
  O  O11  1  0.28640700  0.55347600  0.31342300  1
  O  O12  1  0.81340000  0.29088900  0.01321100  1
  O  O13  1  0.70911100  0.18660000  0.48678900  1
  O  O14  1  0.18660000  0.70911100  0.98678900  1
  O  O15  1  0.29088900  0.81340000  0.51321100  1
  O  O16  1  0.65851000  0.20542800  0.07737800  1
  O  O17  1  0.79457200  0.34149000  0.42262200  1
  O  O18  1  0.34149000  0.79457200  0.92262200  1
  O  O19  1  0.20542800  0.65851000  0.57737800  1
  O  O20  1  0.91817500  0.05288000  0.08407300  1
  O  O21  1  0.94712000  0.08182500  0.41592700  1
  O  O22  1  0.08182500  0.94712000  0.91592700  1
  O  O23  1  0.05288000  0.91817500  0.58407300  1
  O  O24  1  0.30813400  0.45217100  0.11551300  1
  O  O25  1  0.54782900  0.69186600  0.38448700  1
  O  O26  1  0.69186600  0.54782900  0.88448700  1
  O  O27  1  0.45217100  0.30813400  0.61551300  1
  O  O28  1  0.66014900  0.64039700  0.98462400  1
  O  O29  1  0.35960300  0.33985100  0.51537600  1
  O  O30  1  0.33985100  0.35960300  0.01537600  1
  O  O31  1  0.64039700  0.66014900  0.48462400  1
  O  O32  1  0.15307600  0.37324800  0.11211600  1
  O  O33  1  0.62675200  0.84692400  0.38788400  1
  O  O34  1  0.84692400  0.62675200  0.88788400  1
  O  O35  1  0.37324800  0.15307600  0.61211600  1
  O  O36  1  0.07307800  0.80480000  0.78178300  1
  O  O37  1  0.19520000  0.92692200  0.71821700  1
  O  O38  1  0.92692200  0.19520000  0.21821700  1
  O  O39  1  0.80480000  0.07307800  0.28178300  1
  O  O40  1  0.93475300  0.06524700  0.75000000  1
  O  O41  1  0.06524700  0.93475300  0.25000000  1
  O  O42  1  0.74804600  0.79741200  0.10930300  1
  O  O43  1  0.20258800  0.25195400  0.39069700  1
  O  O44  1  0.25195400  0.20258800  0.89069700  1
  O  O45  1  0.79741200  0.74804600  0.60930300  1
  O  O46  1  0.62336600  0.89428300  0.21486800  1
  O  O47  1  0.10571700  0.37663400  0.28513200  1
  O  O48  1  0.37663400  0.10571700  0.78513200  1
  O  O49  1  0.89428300  0.62336600  0.71486800  1
  O  O50  1  0.49924200  0.00621400  0.11499900  1
  O  O51  1  0.99378600  0.50075800  0.38500100  1
  O  O52  1  0.50075800  0.99378600  0.88500100  1
  O  O53  1  0.00621400  0.49924200  0.61499900  1
loop_
_geom_bond_atom_site_label_1
_geom_bond_atom_site_label_2
_geom_bond_distance
_geom_bond_site_symmetry_2
Nd0 O24 2.622269 1_555
Nd0 O26 2.622269 1_554
Nd0 O16 2.646530 1_555
Nd0 O18 2.646530 1_554
Nd0 O2 2.650915 1_554
Nd0 O0 2.650915 1_555
Nd0 O12 2.673024 1_555
Nd0 O14 2.673024 1_554
Nd0 O6 2.673616 1_555
Nd0 O4 2.673616 1_554
Nd0 O28 2.677943 1_554
Nd0 O30 2.677943 1_555
Nd1 O27 2.622269 1_555
Nd1 O25 2.622269 1_555
Nd1 O17 2.646530 1_555
Nd1 O19 2.646530 1_555
Nd1 O3 2.650915 1_555
Nd1 O1 2.650915 1_555
Nd1 O15 2.673024 1_555
Nd1 O13 2.673024 1_555
Nd1 O5 2.673616 1_555
Nd1 O7 2.673616 1_555
Nd1 O31 2.677943 1_555
Nd1 O29 2.677943 1_555
N12 O8 1.237802 1_555
N12 O4 1.270900 1_555
N12 O2 1.275454 1_555
N13 O9 1.237802 1_555
N13 O5 1.270900 1_555
N13 O3 1.275454 1_555
N14 O10 1.237802 1_555
N14 O6 1.270900 1_555
N14 O0 1.275454 1_555
N15 O11 1.237802 1_555
N15 O7 1.270900 1_555
N15 O1 1.275454 1_555
N16 O20 1.238883 1_555
N16 O12 1.269526 1_555
N16 O16 1.275326 1_555
N17 O21 1.238883 1_555
N17 O13 1.269526 1_555
N17 O17 1.275326 1_555
N18 O22 1.238883 1_555
N18 O14 1.269526 1_555
N18 O18 1.275326 1_555
N19 O23 1.238883 1_555
N19 O15 1.269526 1_555
N19 O19 1.275326 1_555
N20 O32 1.236250 1_555
N20 O30 1.271263 1_555
N20 O24 1.274987 1_555
N21 O33 1.236250 1_555
N21 O31 1.271263 1_555
N21 O25 1.274987 1_555
N22 O34 1.236250 1_555
N22 O28 1.271263 1_555
N22 O26 1.274987 1_555
N23 O35 1.236250 1_555
N23 O29 1.271263 1_555
N23 O27 1.274987 1_555
N24 O41 1.250650 1_645
N24 O39 1.253636 1_555
N24 O38 1.253636 1_555
N25 O40 1.250650 1_465
N25 O36 1.253636 1_555
N25 O37 1.253636 1_555
N26 O50 1.242658 1_565
N26 O46 1.255460 1_555
N26 O42 1.258870 1_555
N27 O51 1.242658 1_455
N27 O47 1.255460 1_555
N27 O43 1.258870 1_555
N28 O52 1.242658 1_545
N28 O48 1.255460 1_555
N28 O44 1.258870 1_555
N29 O53 1.242656 1_655
N29 O49 1.255457 1_555
N29 O45 1.258874 1_555
