# generated using pymatgen
data_TbHo
_symmetry_space_group_name_H-M   'P 1'
_cell_length_a   7.20804652
_cell_length_b   7.20804652
_cell_length_c   11.53305534
_cell_angle_alpha   90.00000000
_cell_angle_beta   90.00000000
_cell_angle_gamma   120.00000956
_symmetry_Int_Tables_number   1
_chemical_formula_structural   TbHo
_chemical_formula_sum   'Tb8 Ho8'
_cell_volume   518.93161214
_cell_formula_units_Z   8
loop_
 _symmetry_equiv_pos_site_id
 _symmetry_equiv_pos_as_xyz
  1  'x, y, z'
loop_
 _atom_site_type_symbol
 _atom_site_label
 _atom_site_symmetry_multiplicity
 _atom_site_fract_x
 _atom_site_fract_y
 _atom_site_fract_z
 _atom_site_occupancy
  Tb  Tb0_0  1  0.00000000  0.00000000  0.00000000  1
  Tb  Tb0_1  1  0.00000000  0.00000000  0.50000000  1
  Tb  Tb0_2  1  1.00000000  0.50000000  0.00000000  1
  Tb  Tb0_3  1  1.00000000  0.50000000  0.50000000  1
  Tb  Tb0_4  1  0.50000000  0.00000000  0.00000000  1
  Tb  Tb0_5  1  0.50000000  0.00000000  0.50000000  1
  Tb  Tb0_6  1  0.50000000  0.50000000  0.00000000  1
  Tb  Tb0_7  1  0.50000000  0.50000000  0.50000000  1
  Ho  Ho0_0  1  0.16666650  0.33333350  0.25000000  1
  Ho  Ho0_1  1  0.16666650  0.33333350  0.75000000  1
  Ho  Ho0_2  1  0.16666650  0.83333350  0.25000000  1
  Ho  Ho0_3  1  0.16666650  0.83333350  0.75000000  1
  Ho  Ho0_4  1  0.66666650  0.33333350  0.25000000  1
  Ho  Ho0_5  1  0.66666650  0.33333350  0.75000000  1
  Ho  Ho0_6  1  0.66666650  0.83333350  0.25000000  1
  Ho  Ho0_7  1  0.66666650  0.83333350  0.75000000  1
loop_
_geom_bond_atom_site_label_1
_geom_bond_atom_site_label_2
_geom_bond_distance
_geom_bond_site_symmetry_2
Tb0_0 Tb0_6 3.604023 1_555
Tb0_0 Tb0_6 3.604023 1_445
Tb0_0 Tb0_2 3.604023 1_445
Tb0_0 Tb0_4 3.604023 1_555
Tb0_0 Tb0_4 3.604023 1_455
Tb0_0 Tb0_2 3.604023 1_455
Tb0_1 Tb0_7 3.604023 1_555
Tb0_1 Tb0_7 3.604023 1_445
Tb0_1 Tb0_5 3.604023 1_555
Tb0_1 Tb0_3 3.604023 1_445
Tb0_1 Tb0_5 3.604023 1_455
Tb0_1 Tb0_3 3.604023 1_455
Tb0_2 Tb0_4 3.604023 1_555
Tb0_2 Tb0_4 3.604023 1_665
Tb0_2 Tb0_6 3.604023 1_555
Tb0_2 Tb0_6 3.604023 1_655
Tb0_3 Tb0_5 3.604023 1_555
Tb0_3 Tb0_5 3.604023 1_665
Tb0_3 Tb0_7 3.604023 1_555
Tb0_3 Tb0_7 3.604023 1_655
Tb0_4 Tb0_6 3.604023 1_545
Tb0_4 Tb0_6 3.604023 1_555
Tb0_5 Tb0_7 3.604023 1_545
Tb0_5 Tb0_7 3.604023 1_555
Ho0_0 Tb0_2 3.555680 1_455
Ho0_0 Tb0_3 3.555680 1_455
Ho0_0 Tb0_7 3.555682 1_555
Ho0_0 Tb0_6 3.555682 1_555
Ho0_0 Tb0_0 3.555682 1_555
Ho0_0 Tb0_1 3.555682 1_555
Ho0_0 Ho0_6 3.604023 1_445
Ho0_0 Ho0_6 3.604023 1_555
Ho0_0 Ho0_2 3.604023 1_545
Ho0_0 Ho0_4 3.604023 1_455
Ho0_0 Ho0_4 3.604023 1_555
Ho0_0 Ho0_2 3.604023 1_555
Ho0_1 Tb0_3 3.555680 1_455
Ho0_1 Tb0_2 3.555680 1_456
Ho0_1 Tb0_7 3.555682 1_555
Ho0_1 Tb0_1 3.555682 1_555
Ho0_1 Tb0_0 3.555682 1_556
Ho0_1 Tb0_6 3.555682 1_556
Ho0_1 Ho0_7 3.604023 1_555
Ho0_1 Ho0_7 3.604023 1_445
Ho0_1 Ho0_3 3.604023 1_545
Ho0_1 Ho0_5 3.604023 1_455
Ho0_1 Ho0_5 3.604023 1_555
Ho0_1 Ho0_3 3.604023 1_555
Ho0_2 Tb0_0 3.555680 1_565
Ho0_2 Tb0_1 3.555680 1_565
Ho0_2 Tb0_2 3.555682 1_455
Ho0_2 Tb0_4 3.555682 1_565
Ho0_2 Tb0_5 3.555682 1_565
Ho0_2 Tb0_3 3.555682 1_455
Ho0_2 Ho0_4 3.604023 1_565
Ho0_2 Ho0_4 3.604023 1_455
Ho0_2 Ho0_6 3.604023 1_455
Ho0_2 Ho0_6 3.604023 1_555
Ho0_3 Tb0_1 3.555680 1_565
Ho0_3 Tb0_0 3.555680 1_566
Ho0_3 Tb0_5 3.555682 1_565
Ho0_3 Tb0_3 3.555682 1_455
Ho0_3 Tb0_4 3.555682 1_566
Ho0_3 Tb0_2 3.555682 1_456
Ho0_3 Ho0_5 3.604023 1_565
Ho0_3 Ho0_5 3.604023 1_455
Ho0_3 Ho0_7 3.604023 1_455
Ho0_3 Ho0_7 3.604023 1_555
Ho0_4 Tb0_6 3.555680 1_555
Ho0_4 Tb0_7 3.555680 1_555
Ho0_4 Tb0_3 3.555682 1_555
Ho0_4 Tb0_4 3.555682 1_555
Ho0_4 Tb0_2 3.555682 1_555
Ho0_4 Tb0_5 3.555682 1_555
Ho0_4 Ho0_6 3.604023 1_545
Ho0_4 Ho0_6 3.604023 1_555
Ho0_5 Tb0_7 3.555680 1_555
Ho0_5 Tb0_6 3.555680 1_556
Ho0_5 Tb0_5 3.555682 1_555
Ho0_5 Tb0_3 3.555682 1_555
Ho0_5 Tb0_4 3.555682 1_556
Ho0_5 Tb0_2 3.555682 1_556
Ho0_5 Ho0_7 3.604023 1_545
Ho0_5 Ho0_7 3.604023 1_555
Ho0_6 Tb0_4 3.555680 1_565
Ho0_6 Tb0_5 3.555680 1_565
Ho0_6 Tb0_6 3.555682 1_555
Ho0_6 Tb0_7 3.555682 1_555
Ho0_6 Tb0_1 3.555682 1_665
Ho0_6 Tb0_0 3.555682 1_665
Ho0_7 Tb0_5 3.555680 1_565
Ho0_7 Tb0_4 3.555680 1_566
Ho0_7 Tb0_7 3.555682 1_555
Ho0_7 Tb0_1 3.555682 1_665
Ho0_7 Tb0_6 3.555682 1_556
Ho0_7 Tb0_0 3.555682 1_666
