# generated using pymatgen
data_KTlS2
_symmetry_space_group_name_H-M   'P 1'
_cell_length_a   8.10072928
_cell_length_b   8.10072928
_cell_length_c   15.43483700
_cell_angle_alpha   97.57156874
_cell_angle_beta   97.57156874
_cell_angle_gamma   90.01709360
_symmetry_Int_Tables_number   1
_chemical_formula_structural   KTlS2
_chemical_formula_sum   'K8 Tl8 S16'
_cell_volume   995.11606913
_cell_formula_units_Z   8
loop_
 _symmetry_equiv_pos_site_id
 _symmetry_equiv_pos_as_xyz
  1  'x, y, z'
loop_
 _atom_site_type_symbol
 _atom_site_label
 _atom_site_symmetry_multiplicity
 _atom_site_fract_x
 _atom_site_fract_y
 _atom_site_fract_z
 _atom_site_occupancy
  K  K0  1  0.65481100  0.77779900  0.61743900  1
  K  K1  1  0.34518900  0.22220100  0.38256100  1
  K  K2  1  0.22220100  0.34518900  0.88256100  1
  K  K3  1  0.77779900  0.65481100  0.11743900  1
  K  K4  1  0.22445400  0.84550500  0.88709100  1
  K  K5  1  0.77554600  0.15449500  0.11290900  1
  K  K6  1  0.15449500  0.77554600  0.61290900  1
  K  K7  1  0.84550500  0.22445400  0.38709100  1
  Tl  Tl0  1  0.71140900  0.08575400  0.84384200  1
  Tl  Tl1  1  0.28859100  0.91424600  0.15615800  1
  Tl  Tl2  1  0.91424600  0.28859100  0.65615800  1
  Tl  Tl3  1  0.08575400  0.71140900  0.34384200  1
  Tl  Tl4  1  0.41336600  0.28840300  0.65582300  1
  Tl  Tl5  1  0.58663400  0.71159700  0.34417700  1
  Tl  Tl6  1  0.71159700  0.58663400  0.84417700  1
  Tl  Tl7  1  0.28840300  0.41336600  0.15582300  1
  S  S0  1  0.42468000  0.04774200  0.74933400  1
  S  S1  1  0.57532000  0.95225800  0.25066600  1
  S  S2  1  0.95225800  0.57532000  0.75066600  1
  S  S3  1  0.04774200  0.42468000  0.24933400  1
  S  S4  1  0.63820000  0.26370500  0.55331500  1
  S  S5  1  0.36180000  0.73629500  0.44668500  1
  S  S6  1  0.73629500  0.36180000  0.94668500  1
  S  S7  1  0.26370500  0.63820000  0.05331500  1
  S  S8  1  0.42446800  0.57553200  0.75000000  1
  S  S9  1  0.57553200  0.42446800  0.25000000  1
  S  S10  1  0.73538900  0.86215500  0.94827700  1
  S  S11  1  0.26461100  0.13784500  0.05172300  1
  S  S12  1  0.13784500  0.26461100  0.55172300  1
  S  S13  1  0.86215500  0.73538900  0.44827700  1
  S  S14  1  0.95154000  0.04846000  0.75000000  1
  S  S15  1  0.04846000  0.95154000  0.25000000  1
loop_
_geom_bond_atom_site_label_1
_geom_bond_atom_site_label_2
_geom_bond_distance
_geom_bond_site_symmetry_2
K0 S13 3.267435 1_555
K0 S5 3.287953 1_555
K0 S0 3.497279 1_565
K0 S8 3.498655 1_555
K0 S14 3.505720 1_565
K0 S2 3.508590 1_555
K1 S12 3.267435 1_555
K1 S4 3.287953 1_555
K1 S1 3.497279 1_545
K1 S9 3.498655 1_555
K1 S15 3.505720 1_545
K1 S3 3.508590 1_555
K2 S11 3.267435 1_556
K2 S7 3.287953 1_556
K2 S2 3.497279 1_455
K2 S8 3.498655 1_555
K2 S14 3.505720 1_455
K2 S0 3.508590 1_555
K3 S10 3.267435 1_554
K3 S6 3.287953 1_554
K3 S3 3.497279 1_655
K3 S9 3.498655 1_555
K3 S15 3.505720 1_655
K3 S1 3.508590 1_555
K4 S11 3.219773 1_566
K4 S7 3.228698 1_556
K4 S8 3.401701 1_555
K4 S2 3.412525 1_455
K4 S0 3.414809 1_565
K4 S14 3.428436 1_465
K5 S10 3.219773 1_544
K5 S6 3.228698 1_554
K5 S9 3.401701 1_555
K5 S3 3.412525 1_655
K5 S1 3.414809 1_545
K5 S15 3.428436 1_645
K6 S13 3.219773 1_455
K6 S5 3.228698 1_555
K6 S8 3.401701 1_555
K6 S0 3.412525 1_565
K6 S2 3.414809 1_455
K6 S14 3.428436 1_465
K7 S12 3.219773 1_655
K7 S4 3.228698 1_555
K7 S9 3.401701 1_555
K7 S1 3.412525 1_545
K7 S3 3.414809 1_655
K7 S15 3.428436 1_645
S0 Tl4 2.568857 1_555
S0 Tl0 2.570212 1_555
S1 Tl5 2.568857 1_555
S1 Tl1 2.570212 1_555
S2 Tl6 2.568857 1_555
S2 Tl2 2.570212 1_555
S3 Tl7 2.568857 1_555
S3 Tl3 2.570212 1_555
S4 Tl4 2.556712 1_555
S4 Tl2 2.557501 1_555
S5 Tl5 2.556712 1_555
S5 Tl3 2.557501 1_555
S6 Tl6 2.556712 1_555
S6 Tl0 2.557501 1_555
S7 Tl7 2.556712 1_555
S7 Tl1 2.557501 1_555
S8 Tl4 2.570127 1_555
S8 Tl6 2.570127 1_555
S9 Tl5 2.570127 1_555
S9 Tl7 2.570127 1_555
S10 Tl6 2.563862 1_555
S10 Tl0 2.569837 1_565
S11 Tl7 2.563862 1_555
S11 Tl1 2.569837 1_545
S12 Tl4 2.563862 1_555
S12 Tl2 2.569837 1_455
S13 Tl5 2.563862 1_555
S13 Tl3 2.569837 1_655
S14 Tl2 2.569187 1_555
S14 Tl0 2.569187 1_555
S15 Tl1 2.569187 1_555
S15 Tl3 2.569187 1_555
