# generated using pymatgen
data_Li2Fe2(CO3)3
_symmetry_space_group_name_H-M   'P 1'
_cell_length_a   7.09398079
_cell_length_b   7.88177476
_cell_length_c   7.88176716
_cell_angle_alpha   103.03238203
_cell_angle_beta   116.78318947
_cell_angle_gamma   63.21642597
_symmetry_Int_Tables_number   1
_chemical_formula_structural   Li2Fe2(CO3)3
_chemical_formula_sum   'Li4 Fe4 C6 O18'
_cell_volume   351.06901617
_cell_formula_units_Z   2
loop_
 _symmetry_equiv_pos_site_id
 _symmetry_equiv_pos_as_xyz
  1  'x, y, z'
loop_
 _atom_site_type_symbol
 _atom_site_label
 _atom_site_symmetry_multiplicity
 _atom_site_fract_x
 _atom_site_fract_y
 _atom_site_fract_z
 _atom_site_occupancy
  Li  Li0  1  0.66867700  0.04858100  0.54931800  1
  Li  Li1  1  0.16826300  0.54878200  0.04881200  1
  Li  Li2  1  0.66872000  0.45067300  0.95143500  1
  Li  Li3  1  0.16828600  0.95118400  0.45121700  1
  Fe  Fe0  1  0.84569600  0.74874700  0.25126900  1
  Fe  Fe1  1  0.34302600  0.25131400  0.74869500  1
  Fe  Fe2  1  0.43010400  0.50009800  0.49990100  1
  Fe  Fe3  1  0.92628500  0.99947100  0.00051900  1
  C  C0  1  0.48354300  0.75614600  0.24385300  1
  C  C1  1  0.99591400  0.24386300  0.75613200  1
  C  C2  1  0.67700200  0.20453200  0.20435900  1
  C  C3  1  0.17551600  0.70035700  0.70029800  1
  C  C4  1  0.67698800  0.79563800  0.79545400  1
  C  C5  1  0.17550600  0.29971300  0.29964800  1
  O  O0  1  0.29920800  0.75770900  0.24228100  1
  O  O1  1  0.81436900  0.24259900  0.75739700  1
  O  O2  1  0.58883700  0.31673900  0.31617100  1
  O  O3  1  0.08332200  0.80995400  0.80969500  1
  O  O4  1  0.58881500  0.68384300  0.68322100  1
  O  O5  1  0.08330300  0.19032700  0.19003800  1
  O  O6  1  0.58347700  0.86676100  0.35619500  1
  O  O7  1  0.09422200  0.35606000  0.86683800  1
  O  O8  1  0.58350500  0.64379600  0.13325800  1
  O  O9  1  0.09422800  0.13316000  0.64394200  1
  O  O10  1  0.83856800  0.03247000  0.25228000  1
  O  O11  1  0.34019900  0.52898200  0.74876500  1
  O  O12  1  0.83854400  0.74769300  0.96751400  1
  O  O13  1  0.34017800  0.25123800  0.47102100  1
  O  O14  1  0.12026900  0.74882900  0.52893200  1
  O  O15  1  0.61906700  0.25204900  0.03239400  1
  O  O16  1  0.12027600  0.47108100  0.25118500  1
  O  O17  1  0.61907500  0.96760800  0.74796400  1
loop_
_geom_bond_atom_site_label_1
_geom_bond_atom_site_label_2
_geom_bond_distance
_geom_bond_site_symmetry_2
Li0 O6 1.924478 1_545
Li0 O17 2.032745 1_545
Li0 O13 2.038775 1_555
Li0 O1 2.205010 1_555
Li1 O7 1.922992 1_554
Li1 O12 2.033945 1_454
Li1 O16 2.037882 1_555
Li1 O0 2.206660 1_555
Li2 O8 1.924520 1_556
Li2 O15 2.032764 1_556
Li2 O11 2.038914 1_555
Li2 O1 2.204966 1_555
Li3 O9 1.923046 1_565
Li3 O10 2.034016 1_465
Li3 O14 2.037953 1_555
Li3 O0 2.206650 1_555
Fe0 O8 2.118819 1_555
Fe0 O6 2.118843 1_555
Fe0 O14 2.177656 1_655
Fe0 O16 2.177685 1_655
Fe0 O10 2.212196 1_565
Fe0 O12 2.212300 1_554
Fe1 O7 2.117822 1_555
Fe1 O9 2.117853 1_555
Fe1 O13 2.179399 1_555
Fe1 O11 2.179431 1_555
Fe1 O15 2.211962 1_556
Fe1 O17 2.212004 1_545
Fe2 O4 2.124240 1_555
Fe2 O2 2.124311 1_555
Fe2 O16 2.256936 1_555
Fe2 O14 2.257042 1_555
Fe2 O11 2.258590 1_555
Fe2 O13 2.258665 1_555
Fe3 O3 2.175192 1_654
Fe3 O5 2.175331 1_665
Fe3 O10 2.264195 1_565
Fe3 O12 2.264426 1_554
Fe3 O17 2.265641 1_554
Fe3 O15 2.265773 1_565
Fe3 O0 2.609960 1_655
Fe3 O1 2.624550 1_564
C0 O0 1.296631 1_555
C0 O8 1.299947 1_555
C0 O6 1.299949 1_555
C1 O1 1.296922 1_555
C1 O9 1.299629 1_655
C1 O7 1.299661 1_655
C2 O2 1.263606 1_555
C2 O15 1.316980 1_555
C2 O10 1.317378 1_555
C3 O3 1.257194 1_555
C3 O11 1.320451 1_555
C3 O14 1.320822 1_555
C4 O4 1.263603 1_555
C4 O17 1.316981 1_555
C4 O12 1.317375 1_555
C5 O5 1.257197 1_555
C5 O13 1.320429 1_555
C5 O16 1.320845 1_555
