# generated using pymatgen
data_ReC2
_symmetry_space_group_name_H-M   'P 1'
_cell_length_a   2.57248856
_cell_length_b   2.57248856
_cell_length_c   10.02347940
_cell_angle_alpha   90.00000000
_cell_angle_beta   90.00000000
_cell_angle_gamma   119.99997417
_symmetry_Int_Tables_number   1
_chemical_formula_structural   ReC2
_chemical_formula_sum   'Re2 C4'
_cell_volume   57.44551796
_cell_formula_units_Z   2
loop_
 _symmetry_equiv_pos_site_id
 _symmetry_equiv_pos_as_xyz
  1  'x, y, z'
loop_
 _atom_site_type_symbol
 _atom_site_label
 _atom_site_symmetry_multiplicity
 _atom_site_fract_x
 _atom_site_fract_y
 _atom_site_fract_z
 _atom_site_occupancy
  Re  Re0  1  0.33333300  0.66666700  0.25000000  1
  Re  Re1  1  0.66666700  0.33333300  0.75000000  1
  C  C0  1  0.33333300  0.66666700  0.01589082  1
  C  C1  1  0.66666700  0.33333300  0.98410918  1
  C  C2  1  0.66666700  0.33333300  0.51589082  1
  C  C3  1  0.33333300  0.66666700  0.48410918  1
loop_
_geom_bond_atom_site_label_1
_geom_bond_atom_site_label_2
_geom_bond_distance
_geom_bond_site_symmetry_2
C0 C1 1.519006 1_454
C0 C1 1.519006 1_564
C0 C1 1.519009 1_554
C0 Re0 2.346589 1_555
C1 Re1 2.346589 1_555
C2 C3 1.519006 1_545
C2 C3 1.519006 1_655
C2 C3 1.519009 1_555
C2 Re1 2.346589 1_555
C3 Re0 2.346589 1_555
