# generated using pymatgen
data_NaCo3P3O13
_symmetry_space_group_name_H-M   'P 1'
_cell_length_a   6.19608500
_cell_length_b   7.48800000
_cell_length_c   10.57941379
_cell_angle_alpha   80.20407647
_cell_angle_beta   90.00000000
_cell_angle_gamma   90.00000000
_symmetry_Int_Tables_number   1
_chemical_formula_structural   NaCo3P3O13
_chemical_formula_sum   'Na2 Co6 P6 O26'
_cell_volume   483.68896749
_cell_formula_units_Z   2
loop_
 _symmetry_equiv_pos_site_id
 _symmetry_equiv_pos_as_xyz
  1  'x, y, z'
loop_
 _atom_site_type_symbol
 _atom_site_label
 _atom_site_symmetry_multiplicity
 _atom_site_fract_x
 _atom_site_fract_y
 _atom_site_fract_z
 _atom_site_occupancy
  Na  Na0  1  0.75000000  0.32779200  0.19749200  1
  Na  Na1  1  0.25000000  0.67220800  0.80250800  1
  Co  Co0  1  0.25000000  0.62730400  0.19620200  1
  Co  Co1  1  0.75000000  0.37269600  0.80379800  1
  Co  Co2  1  0.25000000  0.21989600  0.44321300  1
  Co  Co3  1  0.50000000  0.00000000  0.00000000  1
  Co  Co4  1  0.75000000  0.78010400  0.55678700  1
  Co  Co5  1  0.00000000  0.00000000  0.00000000  1
  P  P0  1  0.25000000  0.78146900  0.47582600  1
  P  P1  1  0.75000000  0.21853100  0.52417400  1
  P  P2  1  0.25000000  0.25351500  0.76426000  1
  P  P3  1  0.75000000  0.74648500  0.23574000  1
  P  P4  1  0.75000000  0.69534100  0.88588100  1
  P  P5  1  0.25000000  0.30465900  0.11411900  1
  O  O0  1  0.75000000  0.65800700  0.74460100  1
  O  O1  1  0.55203300  0.25638500  0.43246600  1
  O  O2  1  0.25000000  0.19453800  0.63382900  1
  O  O3  1  0.54226800  0.79940600  0.90965300  1
  O  O4  1  0.75000000  0.35398300  0.61688400  1
  O  O5  1  0.75000000  0.11788100  0.91798100  1
  O  O6  1  0.25000000  0.64601700  0.38311600  1
  O  O7  1  0.04226800  0.20059400  0.09034700  1
  O  O8  1  0.25000000  0.97833400  0.40240300  1
  O  O9  1  0.75000000  0.02166600  0.59759700  1
  O  O10  1  0.05418300  0.37206900  0.78927900  1
  O  O11  1  0.25000000  0.88211900  0.08201900  1
  O  O12  1  0.55418300  0.62793100  0.21072100  1
  O  O13  1  0.75000000  0.49869600  0.96101700  1
  O  O14  1  0.75000000  0.80546200  0.36617100  1
  O  O15  1  0.45773200  0.20059400  0.09034700  1
  O  O16  1  0.94796700  0.25638500  0.43246600  1
  O  O17  1  0.44796700  0.74361500  0.56753400  1
  O  O18  1  0.44581700  0.37206900  0.78927900  1
  O  O19  1  0.25000000  0.34199300  0.25539900  1
  O  O20  1  0.75000000  0.91766300  0.12789400  1
  O  O21  1  0.25000000  0.08233700  0.87210600  1
  O  O22  1  0.94581700  0.62793100  0.21072100  1
  O  O23  1  0.95773200  0.79940600  0.90965300  1
  O  O24  1  0.05203300  0.74361500  0.56753400  1
  O  O25  1  0.25000000  0.50130400  0.03898300  1
loop_
_geom_bond_atom_site_label_1
_geom_bond_atom_site_label_2
_geom_bond_distance
_geom_bond_site_symmetry_2
Na0 O7 2.416376 1_655
Na0 O15 2.416376 1_555
Na0 O12 2.578702 1_555
Na0 O22 2.578702 1_555
Na0 O13 2.609044 1_554
Na0 O16 2.741867 1_555
Na0 O1 2.741867 1_555
Na1 O23 2.416376 1_455
Na1 O3 2.416376 1_555
Na1 O18 2.578702 1_555
Na1 O10 2.578702 1_555
Na1 O25 2.609044 1_556
Na1 O17 2.741867 1_555
Na1 O24 2.741867 1_555
Co0 O12 1.891063 1_555
Co0 O22 1.891063 1_455
Co0 O6 2.006039 1_555
Co0 O25 2.047116 1_555
Co0 O11 2.077402 1_555
Co0 O19 2.121597 1_555
Co1 O18 1.891063 1_555
Co1 O10 1.891063 1_655
Co1 O4 2.006039 1_555
Co1 O13 2.047116 1_555
Co1 O5 2.077402 1_555
Co1 O0 2.121597 1_555
Co2 O1 1.891886 1_555
Co2 O16 1.891886 1_455
Co2 O8 1.929757 1_545
Co2 O2 1.993102 1_555
Co2 O19 2.041015 1_555
Co3 O5 1.915962 1_554
Co3 O11 1.915962 1_545
Co3 O15 1.930507 1_555
Co3 O3 1.930507 1_544
Co3 O20 2.080013 1_545
Co3 O21 2.080013 1_554
Co4 O24 1.891886 1_655
Co4 O17 1.891886 1_555
Co4 O9 1.929757 1_565
Co4 O14 1.993102 1_555
Co4 O0 2.041015 1_555
Co5 O5 1.915962 1_454
Co5 O11 1.915962 1_545
Co5 O23 1.930507 1_444
Co5 O7 1.930507 1_555
Co5 O20 2.080013 1_445
Co5 O21 2.080013 1_554
O0 P4 1.566634 1_555
O1 P1 1.559706 1_555
O2 P2 1.518706 1_555
O3 P4 1.547204 1_555
O4 P1 1.526187 1_555
O6 P0 1.526187 1_555
O7 P5 1.547204 1_555
O8 P0 1.544921 1_555
O9 P1 1.544921 1_555
O10 P2 1.552474 1_555
O12 P3 1.552474 1_555
O13 P4 1.549763 1_555
O14 P3 1.518706 1_555
O15 P5 1.547204 1_555
O16 P1 1.559706 1_555
O17 P0 1.559706 1_555
O18 P2 1.552474 1_555
O19 P5 1.566634 1_555
O20 P3 1.564316 1_555
O21 P2 1.564316 1_555
O22 P3 1.552474 1_555
O23 P4 1.547204 1_555
O24 P0 1.559706 1_555
O25 P5 1.549763 1_555
