# generated using pymatgen
data_Ni5O11
_symmetry_space_group_name_H-M   'P 1'
_cell_length_a   4.90922048
_cell_length_b   7.52775344
_cell_length_c   6.33680720
_cell_angle_alpha   121.30160570
_cell_angle_beta   74.70539239
_cell_angle_gamma   109.25755963
_symmetry_Int_Tables_number   1
_chemical_formula_structural   Ni5O11
_chemical_formula_sum   'Ni5 O11'
_cell_volume   187.65280925
_cell_formula_units_Z   1
loop_
 _symmetry_equiv_pos_site_id
 _symmetry_equiv_pos_as_xyz
  1  'x, y, z'
loop_
 _atom_site_type_symbol
 _atom_site_label
 _atom_site_symmetry_multiplicity
 _atom_site_fract_x
 _atom_site_fract_y
 _atom_site_fract_z
 _atom_site_occupancy
  Ni  Ni0  1  0.80417100  0.60238000  0.00732100  1
  Ni  Ni1  1  0.60223600  0.20165200  0.99566000  1
  Ni  Ni2  1  0.40000000  0.80000000  0.00000000  1
  Ni  Ni3  1  0.19776400  0.39834800  0.00434000  1
  Ni  Ni4  1  0.99582900  0.99761900  0.99267900  1
  O  O0  1  0.15562100  0.52680700  0.83170700  1
  O  O1  1  0.95635900  0.12976500  0.81938400  1
  O  O2  1  0.75645000  0.72339400  0.82715500  1
  O  O3  1  0.55815500  0.33403100  0.82867300  1
  O  O4  1  0.35542300  0.93746700  0.80828200  1
  O  O5  1  0.24184500  0.26596900  0.17132700  1
  O  O6  1  0.04355000  0.87660600  0.17284500  1
  O  O7  1  0.84364100  0.47023500  0.18061600  1
  O  O8  1  0.64437900  0.07319300  0.16829300  1
  O  O9  1  0.44457700  0.66253300  0.19171800  1
  O  O10  1  0.40000000  0.80000000  0.50000000  1
loop_
_geom_bond_atom_site_label_1
_geom_bond_atom_site_label_2
_geom_bond_distance
_geom_bond_site_symmetry_2
Ni0 O0 1.874978 1_654
Ni0 O6 1.882225 1_655
Ni0 O2 1.884336 1_554
Ni0 O3 1.885907 1_554
Ni0 O9 1.891042 1_555
Ni0 O7 1.899332 1_555
Ni1 O3 1.875723 1_555
Ni1 O8 1.877547 1_556
Ni1 O1 1.879050 1_555
Ni1 O4 1.883842 1_545
Ni1 O7 1.885712 1_556
Ni1 O5 1.889382 1_556
Ni2 O8 1.890644 1_565
Ni2 O0 1.890644 1_554
Ni2 O6 1.895391 1_555
Ni2 O2 1.895391 1_554
Ni2 O9 2.047102 1_555
Ni2 O4 2.047102 1_554
Ni3 O5 1.875723 1_555
Ni3 O0 1.877547 1_554
Ni3 O7 1.879050 1_455
Ni3 O9 1.883842 1_555
Ni3 O1 1.885712 1_454
Ni3 O3 1.889382 1_554
Ni4 O8 1.874981 1_566
Ni4 O2 1.882220 1_555
Ni4 O6 1.884329 1_656
Ni4 O5 1.885911 1_666
Ni4 O4 1.891040 1_655
Ni4 O1 1.899339 1_565
O10 O4 1.660807 1_555
O10 O9 1.660807 1_555
