# generated using pymatgen
data_BaCaAl3P2(HO7)2
_symmetry_space_group_name_H-M   'P 1'
_cell_length_a   7.24277822
_cell_length_b   7.24293185
_cell_length_c   7.13656605
_cell_angle_alpha   62.05366155
_cell_angle_beta   117.94826175
_cell_angle_gamma   123.61627709
_symmetry_Int_Tables_number   1
_chemical_formula_structural   BaCaAl3P2(HO7)2
_chemical_formula_sum   'Ba1 Ca1 Al3 P2 H2 O14'
_cell_volume   264.03843148
_cell_formula_units_Z   1
loop_
 _symmetry_equiv_pos_site_id
 _symmetry_equiv_pos_as_xyz
  1  'x, y, z'
loop_
 _atom_site_type_symbol
 _atom_site_label
 _atom_site_symmetry_multiplicity
 _atom_site_fract_x
 _atom_site_fract_y
 _atom_site_fract_z
 _atom_site_occupancy
  Ba  Ba0  1  0.00599122  0.98721355  0.02153038  1
  Ca  Ca0  1  0.50692915  0.48617082  0.47731197  1
  Al  Al0  1  0.01244094  0.98047161  0.47427245  1
  Al  Al1  1  0.47708309  0.01258227  0.49979032  1
  Al  Al2  1  0.98048556  0.51598878  0.49967421  1
  P  P0  1  0.27745438  0.71538802  0.88448618  1
  P  P1  1  0.72073986  0.27215423  0.11870722  1
  H  H0  1  0.27714672  0.71599832  0.30238386  1
  H  H1  1  0.72512236  0.26801044  0.73284913  1
  O  O0  1  0.34226989  0.65037469  0.13193637  1
  O  O1  1  0.63511821  0.35764730  0.87004657  1
  O  O2  1  0.13527734  0.85738462  0.78251456  1
  O  O3  1  0.85750519  0.13542530  0.18832332  1
  O  O4  1  0.13072892  0.49961103  0.79770823  1
  O  O5  1  0.49332626  0.86238102  0.79781346  1
  O  O6  1  0.51606422  0.11565593  0.22276022  1
  O  O7  1  0.87729163  0.47686587  0.22273223  1
  O  O8  1  0.28233177  0.71075084  0.44521932  1
  O  O9  1  0.72140513  0.27171110  0.59169970  1
  O  O10  1  0.80717206  0.98282214  0.57944116  1
  O  O11  1  0.00995649  0.18550741  0.57943489  1
  O  O12  1  0.86895293  0.71970246  0.40783033  1
  O  O13  1  0.27330665  0.12404325  0.40796191  1
loop_
_geom_bond_atom_site_label_1
_geom_bond_atom_site_label_2
_geom_bond_distance
_geom_bond_site_symmetry_2
Ba0 O3 2.720620 1_465
Ba0 O13 2.787183 1_565
Ba0 O12 2.787187 1_455
Ba0 O11 2.794628 1_564
Ba0 O10 2.795248 1_454
Ba0 H0 2.936793 1_555
Ba0 O2 2.940444 1_554
Ba0 O6 3.008276 1_565
Ba0 O7 3.009784 1_455
Ba0 O4 3.037255 1_564
Ba0 O5 3.038527 1_454
Ba0 H1 3.040450 1_464
Ca0 O0 2.231489 1_555
Ca0 O12 2.346037 1_555
Ca0 O13 2.346299 1_555
Ca0 O1 2.378330 1_555
Al0 O12 1.753939 1_455
Al0 O13 1.753991 1_565
Al0 O2 1.905514 1_555
Al0 O3 1.945403 1_465
Al0 O11 1.963636 1_565
Al0 O10 1.964655 1_455
Al1 O13 1.782221 1_555
Al1 O6 1.858002 1_555
Al1 O5 1.859938 1_545
Al1 O9 1.863498 1_555
Al1 O8 1.946592 1_545
Al1 O10 2.295045 1_545
Al2 O12 1.782190 1_555
Al2 O7 1.857662 1_555
Al2 O4 1.859849 1_655
Al2 O9 1.863533 1_555
Al2 O8 1.946344 1_655
Al2 O11 2.296503 1_655
H0 O8 0.985557 1_555
H1 O9 0.982961 1_555
O0 P0 1.499651 1_554
O1 P1 1.510249 1_556
O2 P0 1.554498 1_555
O3 P1 1.540294 1_555
O4 P0 1.551348 1_555
O5 P0 1.551384 1_555
O6 P1 1.554409 1_555
O7 P1 1.554474 1_555
O10 O11 1.387400 1_665
