# generated using pymatgen
data_LiTiAlO4
_symmetry_space_group_name_H-M   'P 1'
_cell_length_a   5.85112980
_cell_length_b   5.85112980
_cell_length_c   5.85112980
_cell_angle_alpha   120.93676403
_cell_angle_beta   119.10738706
_cell_angle_gamma   89.96907419
_symmetry_Int_Tables_number   1
_chemical_formula_structural   LiTiAlO4
_chemical_formula_sum   'Li2 Ti2 Al2 O8'
_cell_volume   141.55353448
_cell_formula_units_Z   2
loop_
 _symmetry_equiv_pos_site_id
 _symmetry_equiv_pos_as_xyz
  1  'x, y, z'
loop_
 _atom_site_type_symbol
 _atom_site_label
 _atom_site_symmetry_multiplicity
 _atom_site_fract_x
 _atom_site_fract_y
 _atom_site_fract_z
 _atom_site_occupancy
  Li  Li0  1  0.12143200  0.87143200  0.25000000  1
  Li  Li1  1  0.87856800  0.12856800  0.75000000  1
  Ti  Ti0  1  0.50000000  0.50000000  0.00000000  1
  Ti  Ti1  1  0.00000000  0.50000000  0.50000000  1
  Al  Al0  1  0.50000000  0.50000000  0.50000000  1
  Al  Al1  1  0.50000000  0.00000000  0.00000000  1
  O  O0  1  0.73672500  0.25771800  0.02099200  1
  O  O1  1  0.73672500  0.71573300  0.47900800  1
  O  O2  1  0.72881200  0.26185900  0.46695300  1
  O  O3  1  0.29490600  0.26185900  0.03304700  1
  O  O4  1  0.26327500  0.74228200  0.97900800  1
  O  O5  1  0.26327500  0.28426700  0.52099200  1
  O  O6  1  0.27118800  0.73814100  0.53304700  1
  O  O7  1  0.70509400  0.73814100  0.96695300  1
loop_
_geom_bond_atom_site_label_1
_geom_bond_atom_site_label_2
_geom_bond_distance
_geom_bond_site_symmetry_2
Li0 O4 1.954904 1_554
Li0 O5 1.954904 1_565
Li0 O7 2.008559 1_454
Li0 O6 2.008559 1_555
Li1 O0 1.954904 1_556
Li1 O1 1.954904 1_545
Li1 O2 2.008559 1_555
Li1 O3 2.008559 1_656
Al0 O7 1.934985 1_555
Al0 O3 1.934985 1_555
Al0 O2 1.934985 1_555
Al0 O6 1.934985 1_555
Al0 O1 1.963106 1_555
Al0 O5 1.963106 1_555
Al1 O6 1.934985 1_544
Al1 O7 1.934985 1_544
Al1 O2 1.934985 1_555
Al1 O3 1.934985 1_555
Al1 O0 1.963110 1_555
Al1 O4 1.963110 1_544
O0 Ti0 1.988633 1_555
O0 Ti1 1.988637 1_655
O1 Ti0 1.988637 1_555
O1 Ti1 1.988637 1_655
O2 Ti1 1.980806 1_655
O3 Ti0 1.980806 1_555
O4 Ti0 1.988633 1_556
O4 Ti1 1.988637 1_555
O5 Ti0 1.988637 1_556
O5 Ti1 1.988637 1_555
O6 Ti1 1.980806 1_555
O7 Ti0 1.980806 1_556
