# generated using pymatgen
data_HfSnPd
_symmetry_space_group_name_H-M   'P 1'
_cell_length_a   4.46796629
_cell_length_b   4.46796586
_cell_length_c   4.46796603
_cell_angle_alpha   60.00000622
_cell_angle_beta   60.00000942
_cell_angle_gamma   60.00000748
_symmetry_Int_Tables_number   1
_chemical_formula_structural   HfSnPd
_chemical_formula_sum   'Hf1 Sn1 Pd1'
_cell_volume   63.06881551
_cell_formula_units_Z   1
loop_
 _symmetry_equiv_pos_site_id
 _symmetry_equiv_pos_as_xyz
  1  'x, y, z'
loop_
 _atom_site_type_symbol
 _atom_site_label
 _atom_site_symmetry_multiplicity
 _atom_site_fract_x
 _atom_site_fract_y
 _atom_site_fract_z
 _atom_site_occupancy
  Hf  Hf0  1  0.00000000  0.00000000  0.00000000  1
  Sn  Sn0  1  0.50000000  0.50000000  0.50000000  1
  Pd  Pd0  1  0.25000000  0.25000000  0.25000000  1
loop_
_geom_bond_atom_site_label_1
_geom_bond_atom_site_label_2
_geom_bond_distance
_geom_bond_site_symmetry_2
Hf0 Pd0 2.736059 1_555
Hf0 Pd0 2.736059 1_545
Hf0 Pd0 2.736060 1_554
Hf0 Pd0 2.736060 1_455
Hf0 Sn0 3.159329 1_455
Hf0 Sn0 3.159329 1_454
Hf0 Sn0 3.159329 1_544
Hf0 Sn0 3.159329 1_545
Hf0 Sn0 3.159329 1_445
Hf0 Sn0 3.159329 1_554
Pd0 Sn0 2.736059 1_555
Pd0 Sn0 2.736059 1_545
Pd0 Sn0 2.736060 1_554
Pd0 Sn0 2.736060 1_455
