# generated using pymatgen
data_NdCd2
_symmetry_space_group_name_H-M   'P 1'
_cell_length_a   10.07883739
_cell_length_b   10.07888001
_cell_length_c   6.97665373
_cell_angle_alpha   89.99999951
_cell_angle_beta   90.00005683
_cell_angle_gamma   120.00015615
_symmetry_Int_Tables_number   1
_chemical_formula_structural   NdCd2
_chemical_formula_sum   'Nd8 Cd16'
_cell_volume   613.76176513
_cell_formula_units_Z   8
loop_
 _symmetry_equiv_pos_site_id
 _symmetry_equiv_pos_as_xyz
  1  'x, y, z'
loop_
 _atom_site_type_symbol
 _atom_site_label
 _atom_site_symmetry_multiplicity
 _atom_site_fract_x
 _atom_site_fract_y
 _atom_site_fract_z
 _atom_site_occupancy
  Nd  Nd0_0  1  0.00000000  0.00000000  0.00000000  1
  Nd  Nd0_1  1  0.00000000  0.00000000  0.50000000  1
  Nd  Nd0_2  1  1.00000000  0.50000000  0.00000000  1
  Nd  Nd0_3  1  1.00000000  0.50000000  0.50000000  1
  Nd  Nd0_4  1  0.50000000  0.00000000  0.00000000  1
  Nd  Nd0_5  1  0.50000000  0.00000000  0.50000000  1
  Nd  Nd0_6  1  0.50000000  0.50000000  0.00000000  1
  Nd  Nd0_7  1  0.50000000  0.50000000  0.50000000  1
  Cd  Cd0_0  1  0.33333315  0.16666682  0.25015501  1
  Cd  Cd0_1  1  0.33333315  0.16666682  0.75015501  1
  Cd  Cd0_2  1  0.33333315  0.66666682  0.25015501  1
  Cd  Cd0_3  1  0.33333315  0.66666682  0.75015501  1
  Cd  Cd0_4  1  0.83333315  0.16666682  0.25015501  1
  Cd  Cd0_5  1  0.83333315  0.16666682  0.75015502  1
  Cd  Cd0_6  1  0.83333315  0.66666682  0.25015501  1
  Cd  Cd0_7  1  0.83333315  0.66666682  0.75015502  1
  Cd  Cd1_0  1  0.16666685  0.33333317  0.24984498  1
  Cd  Cd1_1  1  0.16666685  0.33333317  0.74984498  1
  Cd  Cd1_2  1  0.16666685  0.83333317  0.24984498  1
  Cd  Cd1_3  1  0.16666685  0.83333317  0.74984498  1
  Cd  Cd1_4  1  0.66666685  0.33333317  0.24984498  1
  Cd  Cd1_5  1  0.66666685  0.33333317  0.74984498  1
  Cd  Cd1_6  1  0.66666685  0.83333317  0.24984498  1
  Cd  Cd1_7  1  0.66666685  0.83333317  0.74984498  1
loop_
_geom_bond_atom_site_label_1
_geom_bond_atom_site_label_2
_geom_bond_distance
_geom_bond_site_symmetry_2
Cd0_0 Cd1_4 2.909509 1_555
Cd0_0 Cd1_0 2.909513 1_555
Cd0_0 Cd1_2 2.909521 1_545
Cd0_0 Nd0_1 3.391689 1_555
Cd0_0 Nd0_7 3.391698 1_555
Cd0_0 Nd0_5 3.391702 1_555
Cd0_0 Nd0_0 3.392798 1_555
Cd0_0 Nd0_6 3.392811 1_555
Cd0_0 Nd0_4 3.392816 1_555
Cd0_0 Cd0_1 3.488327 1_555
Cd0_0 Cd0_1 3.488327 1_554
Cd0_1 Cd1_5 2.909509 1_555
Cd0_1 Cd1_1 2.909513 1_555
Cd0_1 Cd1_3 2.909521 1_545
Cd0_1 Nd0_0 3.391689 1_556
Cd0_1 Nd0_6 3.391698 1_556
Cd0_1 Nd0_4 3.391702 1_556
Cd0_1 Nd0_1 3.392798 1_555
Cd0_1 Nd0_7 3.392811 1_555
Cd0_1 Nd0_5 3.392816 1_555
Cd0_2 Cd1_6 2.909509 1_555
Cd0_2 Cd1_2 2.909513 1_555
Cd0_2 Cd1_0 2.909521 1_555
Cd0_2 Nd0_3 3.391689 1_455
Cd0_2 Nd0_5 3.391698 1_565
Cd0_2 Nd0_7 3.391702 1_555
Cd0_2 Nd0_2 3.392798 1_455
Cd0_2 Nd0_4 3.392811 1_565
Cd0_2 Nd0_6 3.392816 1_555
Cd0_2 Cd0_3 3.488327 1_555
Cd0_2 Cd0_3 3.488327 1_554
Cd0_3 Cd1_7 2.909509 1_555
Cd0_3 Cd1_3 2.909513 1_555
Cd0_3 Cd1_1 2.909521 1_555
Cd0_3 Nd0_2 3.391689 1_456
Cd0_3 Nd0_4 3.391698 1_566
Cd0_3 Nd0_6 3.391702 1_556
Cd0_3 Nd0_3 3.392798 1_455
Cd0_3 Nd0_5 3.392811 1_565
Cd0_3 Nd0_7 3.392816 1_555
Cd0_4 Cd1_0 2.909509 1_655
Cd0_4 Cd1_4 2.909513 1_555
Cd0_4 Cd1_6 2.909521 1_545
Cd0_4 Nd0_5 3.391689 1_555
Cd0_4 Nd0_3 3.391698 1_555
Cd0_4 Nd0_1 3.391702 1_655
Cd0_4 Nd0_4 3.392798 1_555
Cd0_4 Nd0_2 3.392811 1_555
Cd0_4 Nd0_0 3.392816 1_655
Cd0_4 Cd0_5 3.488327 1_554
Cd0_4 Cd0_5 3.488327 1_555
Cd0_5 Cd1_1 2.909509 1_655
Cd0_5 Cd1_5 2.909513 1_555
Cd0_5 Cd1_7 2.909521 1_545
Cd0_5 Nd0_4 3.391689 1_556
Cd0_5 Nd0_2 3.391698 1_556
Cd0_5 Nd0_0 3.391702 1_656
Cd0_5 Nd0_5 3.392798 1_555
Cd0_5 Nd0_3 3.392811 1_555
Cd0_5 Nd0_1 3.392816 1_655
Cd0_6 Cd1_2 2.909509 1_655
Cd0_6 Cd1_6 2.909513 1_555
Cd0_6 Cd1_4 2.909521 1_555
Cd0_6 Nd0_7 3.391689 1_555
Cd0_6 Nd0_1 3.391698 1_665
Cd0_6 Nd0_3 3.391702 1_555
Cd0_6 Nd0_6 3.392798 1_555
Cd0_6 Nd0_0 3.392811 1_665
Cd0_6 Nd0_2 3.392816 1_555
Cd0_6 Cd0_7 3.488327 1_554
Cd0_6 Cd0_7 3.488327 1_555
Cd0_7 Cd1_3 2.909509 1_655
Cd0_7 Cd1_7 2.909513 1_555
Cd0_7 Cd1_5 2.909521 1_555
Cd0_7 Nd0_6 3.391689 1_556
Cd0_7 Nd0_0 3.391698 1_666
Cd0_7 Nd0_2 3.391702 1_556
Cd0_7 Nd0_7 3.392798 1_555
Cd0_7 Nd0_1 3.392811 1_665
Cd0_7 Nd0_3 3.392816 1_555
Cd1_0 Nd0_6 3.391689 1_555
Cd1_0 Nd0_0 3.391698 1_555
Cd1_0 Nd0_2 3.391702 1_455
Cd1_0 Nd0_7 3.392798 1_555
Cd1_0 Nd0_1 3.392811 1_555
Cd1_0 Nd0_3 3.392816 1_455
Cd1_0 Cd1_1 3.488327 1_555
Cd1_0 Cd1_1 3.488327 1_554
Cd1_1 Nd0_7 3.391689 1_555
Cd1_1 Nd0_1 3.391698 1_555
Cd1_1 Nd0_3 3.391702 1_455
Cd1_1 Nd0_6 3.392798 1_556
Cd1_1 Nd0_0 3.392811 1_556
Cd1_1 Nd0_2 3.392816 1_456
Cd1_2 Nd0_4 3.391689 1_565
Cd1_2 Nd0_2 3.391698 1_455
Cd1_2 Nd0_0 3.391702 1_565
Cd1_2 Nd0_5 3.392798 1_565
Cd1_2 Nd0_3 3.392811 1_455
Cd1_2 Nd0_1 3.392816 1_565
Cd1_2 Cd1_3 3.488327 1_554
Cd1_2 Cd1_3 3.488327 1_555
Cd1_3 Nd0_5 3.391689 1_565
Cd1_3 Nd0_3 3.391698 1_455
Cd1_3 Nd0_1 3.391702 1_565
Cd1_3 Nd0_4 3.392798 1_566
Cd1_3 Nd0_2 3.392811 1_456
Cd1_3 Nd0_0 3.392816 1_566
Cd1_4 Nd0_2 3.391689 1_555
Cd1_4 Nd0_4 3.391698 1_555
Cd1_4 Nd0_6 3.391702 1_555
Cd1_4 Nd0_3 3.392798 1_555
Cd1_4 Nd0_5 3.392811 1_555
Cd1_4 Nd0_7 3.392816 1_555
Cd1_4 Cd1_5 3.488327 1_554
Cd1_4 Cd1_5 3.488327 1_555
Cd1_5 Nd0_3 3.391689 1_555
Cd1_5 Nd0_5 3.391698 1_555
Cd1_5 Nd0_7 3.391702 1_555
Cd1_5 Nd0_2 3.392798 1_556
Cd1_5 Nd0_4 3.392811 1_556
Cd1_5 Nd0_6 3.392816 1_556
Cd1_6 Nd0_0 3.391689 1_665
Cd1_6 Nd0_6 3.391698 1_555
Cd1_6 Nd0_4 3.391702 1_565
Cd1_6 Nd0_1 3.392798 1_665
Cd1_6 Nd0_7 3.392811 1_555
Cd1_6 Nd0_5 3.392816 1_565
Cd1_6 Cd1_7 3.488327 1_555
Cd1_6 Cd1_7 3.488327 1_554
Cd1_7 Nd0_1 3.391689 1_665
Cd1_7 Nd0_7 3.391698 1_555
Cd1_7 Nd0_5 3.391702 1_565
Cd1_7 Nd0_0 3.392798 1_666
Cd1_7 Nd0_6 3.392811 1_556
Cd1_7 Nd0_4 3.392816 1_566
