# generated using pymatgen
data_Li4WO5
_symmetry_space_group_name_H-M   'P 1'
_cell_length_a   5.15752600
_cell_length_b   5.18879482
_cell_length_c   7.86323242
_cell_angle_alpha   108.54567719
_cell_angle_beta   101.63803232
_cell_angle_gamma   101.34152794
_symmetry_Int_Tables_number   1
_chemical_formula_structural   Li4WO5
_chemical_formula_sum   'Li8 W2 O10'
_cell_volume   187.53536241
_cell_formula_units_Z   2
loop_
 _symmetry_equiv_pos_site_id
 _symmetry_equiv_pos_as_xyz
  1  'x, y, z'
loop_
 _atom_site_type_symbol
 _atom_site_label
 _atom_site_symmetry_multiplicity
 _atom_site_fract_x
 _atom_site_fract_y
 _atom_site_fract_z
 _atom_site_occupancy
  Li  Li0  1  0.30613900  0.99662200  0.39064900  1
  Li  Li1  1  0.67977800  0.49573700  0.09868100  1
  Li  Li2  1  0.87367300  0.49788300  0.69611600  1
  Li  Li3  1  0.50000000  0.00000000  0.00000000  1
  Li  Li4  1  0.32022200  0.50426300  0.90131900  1
  Li  Li5  1  0.12632700  0.50211700  0.30388400  1
  Li  Li6  1  0.69386100  0.00337800  0.60935100  1
  Li  Li7  1  0.50000000  0.50000000  0.50000000  1
  W  W0  1  0.10740700  0.00028500  0.78371700  1
  W  W1  1  0.89259300  0.99971500  0.21628300  1
  O  O0  1  0.71649800  0.23213700  0.33494100  1
  O  O1  1  0.52906600  0.76068500  0.24931800  1
  O  O2  1  0.47093400  0.23931500  0.75068200  1
  O  O3  1  0.27202800  0.23581900  0.15462900  1
  O  O4  1  0.28350200  0.76786300  0.66505900  1
  O  O5  1  0.08958500  0.78410900  0.04155900  1
  O  O6  1  0.90596000  0.75993300  0.42799000  1
  O  O7  1  0.91041500  0.21589100  0.95844100  1
  O  O8  1  0.72797200  0.76418100  0.84537100  1
  O  O9  1  0.09404000  0.24006700  0.57201000  1
loop_
_geom_bond_atom_site_label_1
_geom_bond_atom_site_label_2
_geom_bond_distance
_geom_bond_site_symmetry_2
Li0 O1 2.063824 1_555
Li0 O9 2.202940 1_565
Li0 W1 2.297148 1_455
Li0 O6 2.308953 1_455
Li1 O1 1.911307 1_555
Li1 O7 2.220239 1_554
Li1 W1 2.412797 1_555
Li1 O6 2.416502 1_555
Li2 O8 1.893144 1_555
Li2 O9 2.061239 1_655
Li2 W0 2.451554 1_665
Li3 O8 2.134077 1_544
Li3 O3 2.134077 1_555
Li3 O7 2.328417 1_554
Li3 O5 2.328417 1_545
Li3 W0 2.367621 1_554
Li3 W1 2.367621 1_545
Li3 O0 2.429123 1_555
Li3 O4 2.429123 1_544
Li4 O2 1.911307 1_555
Li4 O5 2.220239 1_556
Li4 W0 2.412797 1_555
Li4 O9 2.416502 1_555
Li5 O3 1.893144 1_555
Li5 O6 2.061239 1_455
Li5 W1 2.451554 1_445
Li6 O2 2.063824 1_555
Li6 O6 2.202940 1_545
Li6 W0 2.297148 1_655
Li6 O9 2.308953 1_655
Li7 O4 2.216006 1_555
Li7 O0 2.216006 1_555
Li7 O9 2.525259 1_555
Li7 O6 2.525259 1_555
O0 W1 1.790732 1_545
O1 W1 2.146589 1_555
O2 W0 2.146589 1_555
O3 W1 2.320163 1_445
O3 W0 2.654476 1_554
O4 W0 1.790732 1_565
O5 W1 2.050337 1_455
O5 W0 2.618891 1_564
O6 W1 2.372536 1_555
O6 W0 2.560804 1_665
O7 W0 2.050337 1_655
O7 W1 2.618891 1_546
O8 W0 2.320163 1_665
O8 W1 2.654476 1_556
O9 W0 2.372536 1_555
O9 W1 2.560804 1_445
