# generated using pymatgen
data_Ca3TlN
_symmetry_space_group_name_H-M   'P 1'
_cell_length_a   4.95382400
_cell_length_b   4.95382400
_cell_length_c   4.95382400
_cell_angle_alpha   90.00000000
_cell_angle_beta   90.00000000
_cell_angle_gamma   90.00000000
_symmetry_Int_Tables_number   1
_chemical_formula_structural   Ca3TlN
_chemical_formula_sum   'Ca3 Tl1 N1'
_cell_volume   121.56868489
_cell_formula_units_Z   1
loop_
 _symmetry_equiv_pos_site_id
 _symmetry_equiv_pos_as_xyz
  1  'x, y, z'
loop_
 _atom_site_type_symbol
 _atom_site_label
 _atom_site_symmetry_multiplicity
 _atom_site_fract_x
 _atom_site_fract_y
 _atom_site_fract_z
 _atom_site_occupancy
  Ca  Ca0  1  0.50000000  0.50000000  0.00000000  1
  Ca  Ca1  1  0.50000000  0.00000000  0.50000000  1
  Ca  Ca2  1  0.00000000  0.50000000  0.50000000  1
  Tl  Tl0  1  0.00000000  0.00000000  0.00000000  1
  N  N0  1  0.50000000  0.50000000  0.50000000  1
loop_
_geom_bond_atom_site_label_1
_geom_bond_atom_site_label_2
_geom_bond_distance
_geom_bond_site_symmetry_2
Ca0 N0 2.476912 1_555
Ca0 N0 2.476912 1_554
Ca0 Tl0 3.502883 1_565
Ca0 Tl0 3.502883 1_655
Ca0 Tl0 3.502883 1_665
Ca0 Tl0 3.502883 1_555
Ca1 N0 2.476912 1_555
Ca1 N0 2.476912 1_545
Ca1 Tl0 3.502883 1_656
Ca1 Tl0 3.502883 1_655
Ca1 Tl0 3.502883 1_555
Ca1 Tl0 3.502883 1_556
Ca2 N0 2.476912 1_555
Ca2 N0 2.476912 1_455
Ca2 Tl0 3.502883 1_565
Ca2 Tl0 3.502883 1_566
Ca2 Tl0 3.502883 1_555
Ca2 Tl0 3.502883 1_556
