# generated using pymatgen
data_Fe3Cu
_symmetry_space_group_name_H-M   'P 1'
_cell_length_a   4.93102238
_cell_length_b   4.93102238
_cell_length_c   16.39981000
_cell_angle_alpha   90.00000000
_cell_angle_beta   90.00000000
_cell_angle_gamma   108.94128005
_symmetry_Int_Tables_number   1
_chemical_formula_structural   Fe3Cu
_chemical_formula_sum   'Fe24 Cu8'
_cell_volume   377.16886204
_cell_formula_units_Z   8
loop_
 _symmetry_equiv_pos_site_id
 _symmetry_equiv_pos_as_xyz
  1  'x, y, z'
loop_
 _atom_site_type_symbol
 _atom_site_label
 _atom_site_symmetry_multiplicity
 _atom_site_fract_x
 _atom_site_fract_y
 _atom_site_fract_z
 _atom_site_occupancy
  Fe  Fe0_0  1  0.25000000  0.25000000  0.37335300  1
  Fe  Fe0_1  1  0.25000000  0.25000000  0.87335300  1
  Fe  Fe0_2  1  0.25000000  0.75000000  0.37335300  1
  Fe  Fe0_3  1  0.25000000  0.75000000  0.87335300  1
  Fe  Fe0_4  1  0.75000000  0.25000000  0.37335300  1
  Fe  Fe0_5  1  0.75000000  0.25000000  0.87335300  1
  Fe  Fe0_6  1  0.75000000  0.75000000  0.37335300  1
  Fe  Fe0_7  1  0.75000000  0.75000000  0.87335300  1
  Fe  Fe1_0  1  0.00000000  0.00000000  0.25000000  1
  Fe  Fe1_1  1  0.00000000  0.00000000  0.75000000  1
  Fe  Fe1_2  1  0.00000000  0.50000000  0.25000000  1
  Fe  Fe1_3  1  0.00000000  0.50000000  0.75000000  1
  Fe  Fe1_4  1  0.50000000  0.00000000  0.25000000  1
  Fe  Fe1_5  1  0.50000000  0.00000000  0.75000000  1
  Fe  Fe1_6  1  0.50000000  0.50000000  0.25000000  1
  Fe  Fe1_7  1  0.50000000  0.50000000  0.75000000  1
  Fe  Fe2_0  1  0.25000000  0.25000000  0.12664700  1
  Fe  Fe2_1  1  0.25000000  0.25000000  0.62664700  1
  Fe  Fe2_2  1  0.25000000  0.75000000  0.12664700  1
  Fe  Fe2_3  1  0.25000000  0.75000000  0.62664700  1
  Fe  Fe2_4  1  0.75000000  0.25000000  0.12664700  1
  Fe  Fe2_5  1  0.75000000  0.25000000  0.62664700  1
  Fe  Fe2_6  1  0.75000000  0.75000000  0.12664700  1
  Fe  Fe2_7  1  0.75000000  0.75000000  0.62664700  1
  Cu  Cu0_0  1  0.00000000  0.00000000  0.00000000  1
  Cu  Cu0_1  1  0.00000000  0.00000000  0.50000000  1
  Cu  Cu0_2  1  0.00000000  0.50000000  0.00000000  1
  Cu  Cu0_3  1  0.00000000  0.50000000  0.50000000  1
  Cu  Cu0_4  1  0.50000000  0.00000000  0.00000000  1
  Cu  Cu0_5  1  0.50000000  0.00000000  0.50000000  1
  Cu  Cu0_6  1  0.50000000  0.50000000  0.00000000  1
  Cu  Cu0_7  1  0.50000000  0.50000000  0.50000000  1
loop_
_geom_bond_atom_site_label_1
_geom_bond_atom_site_label_2
_geom_bond_distance
_geom_bond_site_symmetry_2
Fe0_0 Fe0_2 2.465511 1_555
Fe0_0 Fe0_4 2.465511 1_555
Fe0_0 Fe0_4 2.465511 1_455
Fe0_0 Fe0_2 2.465511 1_545
Fe0_0 Fe1_0 2.478949 1_555
Fe0_0 Fe1_6 2.478949 1_555
Fe0_1 Fe0_5 2.465511 1_555
Fe0_1 Fe0_5 2.465511 1_455
Fe0_1 Fe0_3 2.465511 1_545
Fe0_1 Fe0_3 2.465511 1_555
Fe0_1 Fe1_7 2.478949 1_555
Fe0_1 Fe1_1 2.478949 1_555
Fe0_2 Fe0_6 2.465511 1_455
Fe0_2 Fe0_6 2.465511 1_555
Fe0_2 Fe1_4 2.478949 1_565
Fe0_2 Fe1_2 2.478949 1_555
Fe0_3 Fe0_7 2.465511 1_455
Fe0_3 Fe0_7 2.465511 1_555
Fe0_3 Fe1_5 2.478949 1_565
Fe0_3 Fe1_3 2.478949 1_555
Fe0_4 Fe0_6 2.465511 1_545
Fe0_4 Fe0_6 2.465511 1_555
Fe0_4 Fe1_2 2.478949 1_655
Fe0_4 Fe1_4 2.478949 1_555
Fe0_5 Fe0_7 2.465511 1_545
Fe0_5 Fe0_7 2.465511 1_555
Fe0_5 Fe1_3 2.478949 1_655
Fe0_5 Fe1_5 2.478949 1_555
Fe0_6 Fe1_0 2.478949 1_665
Fe0_6 Fe1_6 2.478949 1_555
Fe0_7 Fe1_1 2.478949 1_665
Fe0_7 Fe1_7 2.478949 1_555
Fe1_0 Fe1_4 2.465511 1_555
Fe1_0 Fe1_2 2.465511 1_545
Fe1_0 Fe1_2 2.465511 1_555
Fe1_0 Fe1_4 2.465511 1_455
Fe1_0 Fe2_6 2.478949 1_445
Fe1_0 Fe2_0 2.478949 1_555
Fe1_1 Fe1_3 2.465511 1_555
Fe1_1 Fe1_5 2.465511 1_455
Fe1_1 Fe1_3 2.465511 1_545
Fe1_1 Fe1_5 2.465511 1_555
Fe1_1 Fe2_7 2.478949 1_445
Fe1_1 Fe2_1 2.478949 1_555
Fe1_2 Fe1_6 2.465511 1_555
Fe1_2 Fe1_6 2.465511 1_455
Fe1_2 Fe2_2 2.478949 1_555
Fe1_2 Fe2_4 2.478949 1_455
Fe1_3 Fe1_7 2.465511 1_455
Fe1_3 Fe1_7 2.465511 1_555
Fe1_3 Fe2_3 2.478949 1_555
Fe1_3 Fe2_5 2.478949 1_455
Fe1_4 Fe1_6 2.465511 1_555
Fe1_4 Fe1_6 2.465511 1_545
Fe1_4 Fe2_2 2.478949 1_545
Fe1_4 Fe2_4 2.478949 1_555
Fe1_5 Fe1_7 2.465511 1_555
Fe1_5 Fe1_7 2.465511 1_545
Fe1_5 Fe2_3 2.478949 1_545
Fe1_5 Fe2_5 2.478949 1_555
Fe1_6 Fe2_0 2.478949 1_555
Fe1_6 Fe2_6 2.478949 1_555
Fe1_7 Fe2_1 2.478949 1_555
Fe1_7 Fe2_7 2.478949 1_555
Fe2_0 Fe2_2 2.465511 1_555
Fe2_0 Fe2_4 2.465511 1_455
Fe2_0 Fe2_2 2.465511 1_545
Fe2_0 Fe2_4 2.465511 1_555
Fe2_1 Fe2_5 2.465511 1_555
Fe2_1 Fe2_3 2.465511 1_555
Fe2_1 Fe2_5 2.465511 1_455
Fe2_1 Fe2_3 2.465511 1_545
Fe2_2 Fe2_6 2.465511 1_455
Fe2_2 Fe2_6 2.465511 1_555
Fe2_3 Fe2_7 2.465511 1_455
Fe2_3 Fe2_7 2.465511 1_555
Fe2_4 Fe2_6 2.465511 1_545
Fe2_4 Fe2_6 2.465511 1_555
Fe2_5 Fe2_7 2.465511 1_545
Fe2_5 Fe2_7 2.465511 1_555
Cu0_0 Cu0_2 2.465511 1_545
Cu0_0 Cu0_4 2.465511 1_455
Cu0_0 Cu0_2 2.465511 1_555
Cu0_0 Cu0_4 2.465511 1_555
Cu0_0 Fe2_6 2.523226 1_445
Cu0_0 Fe2_0 2.523226 1_555
Cu0_0 Fe0_7 2.523226 1_444
Cu0_0 Fe0_1 2.523226 1_554
Cu0_1 Cu0_5 2.465511 1_555
Cu0_1 Cu0_3 2.465511 1_545
Cu0_1 Cu0_5 2.465511 1_455
Cu0_1 Cu0_3 2.465511 1_555
Cu0_1 Fe2_7 2.523226 1_445
Cu0_1 Fe2_1 2.523226 1_555
Cu0_1 Fe0_6 2.523226 1_445
Cu0_1 Fe0_0 2.523226 1_555
Cu0_2 Cu0_6 2.465511 1_455
Cu0_2 Cu0_6 2.465511 1_555
Cu0_2 Fe2_4 2.523226 1_455
Cu0_2 Fe2_2 2.523226 1_555
Cu0_2 Fe0_5 2.523226 1_454
Cu0_2 Fe0_3 2.523226 1_554
Cu0_3 Cu0_7 2.465511 1_555
Cu0_3 Cu0_7 2.465511 1_455
Cu0_3 Fe2_5 2.523226 1_455
Cu0_3 Fe2_3 2.523226 1_555
Cu0_3 Fe0_4 2.523226 1_455
Cu0_3 Fe0_2 2.523226 1_555
Cu0_4 Cu0_6 2.465511 1_545
Cu0_4 Cu0_6 2.465511 1_555
Cu0_4 Fe2_4 2.523226 1_555
Cu0_4 Fe2_2 2.523226 1_545
Cu0_4 Fe0_3 2.523226 1_544
Cu0_4 Fe0_5 2.523226 1_554
Cu0_5 Cu0_7 2.465511 1_555
Cu0_5 Cu0_7 2.465511 1_545
Cu0_5 Fe2_3 2.523226 1_545
Cu0_5 Fe2_5 2.523226 1_555
Cu0_5 Fe0_2 2.523226 1_545
Cu0_5 Fe0_4 2.523226 1_555
Cu0_6 Fe2_0 2.523226 1_555
Cu0_6 Fe2_6 2.523226 1_555
Cu0_6 Fe0_1 2.523226 1_554
Cu0_6 Fe0_7 2.523226 1_554
Cu0_7 Fe2_1 2.523226 1_555
Cu0_7 Fe2_7 2.523226 1_555
Cu0_7 Fe0_0 2.523226 1_555
Cu0_7 Fe0_6 2.523226 1_555
