# generated using pymatgen
data_Sr3LiSbO6
_symmetry_space_group_name_H-M   'P 1'
_cell_length_a   6.83516165
_cell_length_b   6.83516165
_cell_length_c   6.83516180
_cell_angle_alpha   92.48253894
_cell_angle_beta   92.48253894
_cell_angle_gamma   92.48253478
_symmetry_Int_Tables_number   1
_chemical_formula_structural   Sr3LiSbO6
_chemical_formula_sum   'Sr6 Li2 Sb2 O12'
_cell_volume   318.40890751
_cell_formula_units_Z   2
loop_
 _symmetry_equiv_pos_site_id
 _symmetry_equiv_pos_as_xyz
  1  'x, y, z'
loop_
 _atom_site_type_symbol
 _atom_site_label
 _atom_site_symmetry_multiplicity
 _atom_site_fract_x
 _atom_site_fract_y
 _atom_site_fract_z
 _atom_site_occupancy
  Sr  Sr0  1  0.60177700  0.89822300  0.25000000  1
  Sr  Sr1  1  0.25000000  0.60177700  0.89822300  1
  Sr  Sr2  1  0.89822300  0.25000000  0.60177700  1
  Sr  Sr3  1  0.75000000  0.39822300  0.10177700  1
  Sr  Sr4  1  0.10177700  0.75000000  0.39822300  1
  Sr  Sr5  1  0.39822300  0.10177700  0.75000000  1
  Li  Li0  1  0.25000000  0.25000000  0.25000000  1
  Li  Li1  1  0.75000000  0.75000000  0.75000000  1
  Sb  Sb0  1  0.00000000  0.00000000  0.00000000  1
  Sb  Sb1  1  0.50000000  0.50000000  0.50000000  1
  O  O0  1  0.28100600  0.95221500  0.08135700  1
  O  O1  1  0.08135700  0.28100600  0.95221500  1
  O  O2  1  0.95221500  0.08135700  0.28100600  1
  O  O3  1  0.58135700  0.45221500  0.78100600  1
  O  O4  1  0.78100600  0.58135700  0.45221500  1
  O  O5  1  0.45221500  0.78100600  0.58135700  1
  O  O6  1  0.71899400  0.04778500  0.91864300  1
  O  O7  1  0.91864300  0.71899400  0.04778500  1
  O  O8  1  0.04778500  0.91864300  0.71899400  1
  O  O9  1  0.41864300  0.54778500  0.21899400  1
  O  O10  1  0.21899400  0.41864300  0.54778500  1
  O  O11  1  0.54778500  0.21899400  0.41864300  1
loop_
_geom_bond_atom_site_label_1
_geom_bond_atom_site_label_2
_geom_bond_distance
_geom_bond_site_symmetry_2
Li0 O11 2.317715 1_555
Li0 O0 2.317715 1_545
Li0 O10 2.317715 1_555
Li0 O1 2.317715 1_554
Li0 O9 2.317716 1_555
Li0 O2 2.317716 1_455
Li1 O6 2.317715 1_565
Li1 O5 2.317715 1_555
Li1 O7 2.317715 1_556
Li1 O4 2.317715 1_555
Li1 O8 2.317716 1_655
Li1 O3 2.317716 1_555
O0 Sb0 2.020554 1_565
O0 Sr0 2.481949 1_555
O0 Sr1 2.650011 1_554
O0 Sr5 2.665234 1_564
O0 Sr4 2.905940 1_555
O1 Sb0 2.020554 1_556
O1 Sr1 2.481949 1_555
O1 Sr2 2.650011 1_455
O1 Sr3 2.665234 1_456
O1 Sr5 2.905940 1_555
O2 Sb0 2.020554 1_655
O2 Sr2 2.481949 1_555
O2 Sr0 2.650011 1_545
O2 Sr4 2.665234 1_645
O2 Sr3 2.905940 1_555
O3 Sb1 2.020554 1_555
O3 Sr3 2.481949 1_556
O3 Sr5 2.650011 1_555
O3 Sr1 2.665234 1_555
O3 Sr2 2.905940 1_555
O4 Sb1 2.020554 1_555
O4 Sr4 2.481949 1_655
O4 Sr3 2.650011 1_555
O4 Sr2 2.665234 1_555
O4 Sr0 2.905940 1_555
O5 Sb1 2.020554 1_555
O5 Sr5 2.481949 1_565
O5 Sr4 2.650011 1_555
O5 Sr0 2.665234 1_555
O5 Sr1 2.905940 1_555
O6 Sb0 2.020554 1_656
O6 Sr5 2.481949 1_555
O6 Sr3 2.650011 1_556
O6 Sr0 2.665234 1_546
O6 Sr2 2.905940 1_555
O7 Sb0 2.020554 1_665
O7 Sr3 2.481949 1_555
O7 Sr4 2.650011 1_655
O7 Sr1 2.665234 1_654
O7 Sr0 2.905940 1_555
O8 Sb0 2.020554 1_566
O8 Sr4 2.481949 1_555
O8 Sr5 2.650011 1_565
O8 Sr2 2.665234 1_465
O8 Sr1 2.905940 1_555
O9 Sb1 2.020554 1_555
O9 Sr1 2.481949 1_554
O9 Sr0 2.650011 1_555
O9 Sr3 2.665234 1_555
O9 Sr4 2.905940 1_555
O10 Sb1 2.020554 1_555
O10 Sr2 2.481949 1_455
O10 Sr1 2.650011 1_555
O10 Sr4 2.665234 1_555
O10 Sr5 2.905940 1_555
O11 Sb1 2.020554 1_555
O11 Sr0 2.481949 1_545
O11 Sr2 2.650011 1_555
O11 Sr5 2.665234 1_555
O11 Sr3 2.905940 1_555
