# generated using pymatgen
data_Mg15Bi
_symmetry_space_group_name_H-M   'P 1'
_cell_length_a   6.39101096
_cell_length_b   6.39101096
_cell_length_c   10.31920922
_cell_angle_alpha   90.00000000
_cell_angle_beta   90.00000000
_cell_angle_gamma   119.99999954
_symmetry_Int_Tables_number   1
_chemical_formula_structural   Mg15Bi
_chemical_formula_sum   'Mg15 Bi1'
_cell_volume   365.01959214
_cell_formula_units_Z   1
loop_
 _symmetry_equiv_pos_site_id
 _symmetry_equiv_pos_as_xyz
  1  'x, y, z'
loop_
 _atom_site_type_symbol
 _atom_site_label
 _atom_site_symmetry_multiplicity
 _atom_site_fract_x
 _atom_site_fract_y
 _atom_site_fract_z
 _atom_site_occupancy
  Mg  Mg0  1  0.66666700  0.33333300  0.50000000  1
  Mg  Mg1  1  0.16656489  0.33312979  0.00000000  1
  Mg  Mg2  1  0.16676556  0.33353213  0.50000000  1
  Mg  Mg3  1  0.16656489  0.83343511  0.00000000  1
  Mg  Mg4  1  0.16676556  0.83323444  0.50000000  1
  Mg  Mg5  1  0.66687021  0.83343511  0.00000000  1
  Mg  Mg6  1  0.66646787  0.83323444  0.50000000  1
  Mg  Mg7  1  0.00608970  0.50304435  0.25402009  1
  Mg  Mg8  1  0.00608970  0.50304435  0.74597991  1
  Mg  Mg9  1  0.49695565  0.50304435  0.25402009  1
  Mg  Mg10  1  0.49695565  0.50304435  0.74597991  1
  Mg  Mg11  1  0.49695565  0.99391030  0.25402009  1
  Mg  Mg12  1  0.49695565  0.99391030  0.74597991  1
  Mg  Mg13  1  0.00000000  0.00000000  0.25023373  1
  Mg  Mg14  1  0.00000000  0.00000000  0.74976627  1
  Bi  Bi0  1  0.66666700  0.33333300  0.00000000  1
loop_
_geom_bond_atom_site_label_1
_geom_bond_atom_site_label_2
_geom_bond_distance
_geom_bond_site_symmetry_2
Mg0 Mg10 3.157896 1_555
Mg0 Mg9 3.157896 1_555
Mg0 Mg7 3.157896 1_655
Mg0 Mg8 3.157896 1_655
Mg0 Mg12 3.157896 1_545
Mg0 Mg11 3.157896 1_545
Mg0 Mg6 3.195499 1_545
Mg0 Mg2 3.195499 1_655
Mg0 Mg4 3.195506 1_545
Mg0 Mg4 3.195506 1_655
Mg0 Mg2 3.195512 1_555
Mg0 Mg6 3.195512 1_555
Mg1 Mg14 3.172921 1_554
Mg1 Mg13 3.172921 1_555
Mg1 Mg3 3.193554 1_545
Mg1 Mg5 3.193554 1_445
Mg1 Mg7 3.196241 1_555
Mg1 Mg8 3.196241 1_554
Mg1 Mg10 3.196244 1_554
Mg1 Mg9 3.196244 1_555
Mg1 Mg3 3.197457 1_555
Mg1 Mg5 3.197457 1_555
Mg2 Mg7 3.127887 1_555
Mg2 Mg8 3.127887 1_555
Mg2 Mg9 3.127893 1_555
Mg2 Mg4 3.193603 1_555
Mg2 Mg6 3.193603 1_555
Mg2 Mg4 3.197408 1_545
Mg2 Mg6 3.197408 1_445
Mg3 Mg5 3.193554 1_455
Mg3 Mg7 3.196244 1_555
Mg3 Mg8 3.196244 1_554
Mg3 Mg5 3.197457 1_555
Mg4 Mg7 3.127894 1_555
Mg4 Mg8 3.127894 1_555
Mg4 Mg6 3.193603 1_555
Mg4 Mg6 3.197408 1_455
Mg5 Mg9 3.196244 1_555
Mg6 Mg9 3.127893 1_555
Mg7 Mg9 3.137130 1_555
Mg7 Mg9 3.253881 1_455
Mg10 Mg2 3.127893 1_555
Mg10 Mg6 3.127893 1_555
Mg10 Mg12 3.137130 1_555
Mg10 Mg8 3.137130 1_555
Mg10 Mg14 3.195922 1_665
Mg10 Mg14 3.195922 1_555
Mg10 Mg5 3.196244 1_556
Mg10 Mg8 3.253881 1_655
Mg10 Mg12 3.253881 1_545
Mg11 Mg6 3.127887 1_555
Mg11 Mg4 3.127894 1_555
Mg11 Mg9 3.137130 1_555
Mg11 Mg7 3.137130 1_555
Mg11 Mg13 3.195919 1_665
Mg11 Mg13 3.195925 1_565
Mg11 Mg5 3.196241 1_555
Mg11 Mg3 3.196244 1_555
Mg11 Mg9 3.253881 1_565
Mg11 Mg7 3.253881 1_665
Mg12 Mg6 3.127887 1_555
Mg12 Mg4 3.127894 1_555
Mg12 Mg8 3.137130 1_555
Mg12 Mg14 3.195919 1_665
Mg12 Mg14 3.195925 1_565
Mg12 Mg5 3.196241 1_556
Mg12 Mg3 3.196244 1_556
Mg12 Mg8 3.253881 1_665
Mg13 Mg4 3.170289 1_545
Mg13 Mg6 3.170292 1_445
Mg13 Mg2 3.170292 1_555
Mg13 Mg3 3.172921 1_545
Mg13 Mg5 3.172921 1_445
Mg13 Mg7 3.195919 1_555
Mg13 Mg9 3.195922 1_555
Mg13 Mg9 3.195922 1_445
Mg13 Mg7 3.195925 1_545
Mg14 Mg4 3.170289 1_545
Mg14 Mg2 3.170292 1_555
Mg14 Mg6 3.170292 1_445
Mg14 Mg3 3.172921 1_546
Mg14 Mg5 3.172921 1_446
Mg14 Mg8 3.195919 1_555
Mg14 Mg8 3.195925 1_545
Bi0 Mg5 3.195502 1_545
Bi0 Mg1 3.195502 1_655
Bi0 Mg3 3.195506 1_545
Bi0 Mg3 3.195506 1_655
Bi0 Mg1 3.195509 1_555
Bi0 Mg5 3.195509 1_555
Bi0 Mg9 3.224964 1_555
Bi0 Mg10 3.224964 1_554
Bi0 Mg7 3.224964 1_655
Bi0 Mg8 3.224964 1_654
Bi0 Mg12 3.224964 1_544
Bi0 Mg11 3.224964 1_545
