# generated using pymatgen
data_Sr2GaW2O7
_symmetry_space_group_name_H-M   'P 1'
_cell_length_a   5.56233400
_cell_length_b   5.71319921
_cell_length_c   12.07291721
_cell_angle_alpha   103.62451271
_cell_angle_beta   103.30253374
_cell_angle_gamma   89.98464611
_symmetry_Int_Tables_number   1
_chemical_formula_structural   Sr2GaW2O7
_chemical_formula_sum   'Sr4 Ga2 W4 O14'
_cell_volume   362.27084173
_cell_formula_units_Z   2
loop_
 _symmetry_equiv_pos_site_id
 _symmetry_equiv_pos_as_xyz
  1  'x, y, z'
loop_
 _atom_site_type_symbol
 _atom_site_label
 _atom_site_symmetry_multiplicity
 _atom_site_fract_x
 _atom_site_fract_y
 _atom_site_fract_z
 _atom_site_occupancy
  Sr  Sr0  1  0.84473300  0.82652300  0.69485700  1
  Sr  Sr1  1  0.15154200  0.17430200  0.30526100  1
  Sr  Sr2  1  0.34631900  0.36877200  0.69477100  1
  Sr  Sr3  1  0.65043000  0.63183500  0.30485500  1
  Ga  Ga0  1  0.70885200  0.17468200  0.50016800  1
  Ga  Ga1  1  0.21088500  0.82384400  0.49966000  1
  W  W0  1  0.56895500  0.06306700  0.12839900  1
  W  W1  1  0.93807200  0.43453300  0.87107900  1
  W  W2  1  0.06560100  0.56409000  0.12477700  1
  W  W3  1  0.44130400  0.93958100  0.87551800  1
  O  O0  1  0.67302600  0.68797500  0.86147800  1
  O  O1  1  0.36808500  0.12226200  0.49950200  1
  O  O2  1  0.17652700  0.67862200  0.85134300  1
  O  O3  1  0.20034100  0.62647400  0.35416200  1
  O  O4  1  0.83642600  0.83258100  0.15997600  1
  O  O5  1  0.32210800  0.81253900  0.14806600  1
  O  O6  1  0.86887000  0.88016500  0.50028200  1
  O  O7  1  0.32384600  0.31998100  0.14834700  1
  O  O8  1  0.82774700  0.33182500  0.13867700  1
  O  O9  1  0.69650100  0.22146300  0.35094500  1
  O  O10  1  0.84384400  0.36860000  0.64988400  1
  O  O11  1  0.34806600  0.76873400  0.64422900  1
  O  O12  1  0.67305400  0.17048500  0.83994900  1
  O  O13  1  0.18822800  0.16727400  0.85042700  1
loop_
_geom_bond_atom_site_label_1
_geom_bond_atom_site_label_2
_geom_bond_distance
_geom_bond_site_symmetry_2
Ga0 O10 1.868362 1_555
Ga0 O9 1.868592 1_555
Ga0 O6 1.903475 1_545
Ga0 O1 1.916946 1_555
Ga1 O11 1.836731 1_555
Ga1 O3 1.838480 1_555
Ga1 O1 1.916881 1_565
Ga1 O6 1.930760 1_455
O0 W3 1.934199 1_555
O0 W1 2.069495 1_555
O0 Sr0 2.687004 1_555
O0 Sr2 2.695994 1_555
O1 Sr1 2.463110 1_555
O1 Sr2 2.474441 1_555
O2 W1 2.015862 1_455
O2 W3 2.018772 1_555
O2 Sr0 2.614578 1_455
O2 Sr2 2.615922 1_555
O3 Sr1 2.510781 1_555
O3 W2 2.634011 1_555
O3 Sr3 2.705085 1_555
O3 Sr3 2.980286 1_455
O4 W0 2.016733 1_565
O4 W2 2.024769 1_655
O4 Sr1 2.633270 1_665
O4 Sr3 2.687672 1_555
O5 W2 1.938559 1_555
O5 W0 2.074002 1_565
O5 Sr3 2.704239 1_555
O5 Sr1 2.784447 1_565
O6 Sr0 2.472748 1_555
O6 Sr3 2.482041 1_555
O7 W0 2.013636 1_555
O7 W2 2.021675 1_555
O7 Sr1 2.603616 1_555
O7 Sr3 2.623115 1_555
O8 W2 1.935831 1_655
O8 W0 2.067464 1_555
O8 Sr3 2.687997 1_555
O8 Sr1 2.698781 1_655
O9 Sr3 2.533935 1_555
O9 W0 2.553181 1_555
O9 Sr1 2.712057 1_655
O9 Sr1 2.954031 1_555
O10 W1 2.535763 1_555
O10 Sr0 2.543406 1_555
O10 Sr2 2.721778 1_655
O10 Sr2 2.939739 1_555
O11 Sr2 2.500713 1_555
O11 W3 2.658689 1_555
O11 Sr0 2.691295 1_555
O11 Sr0 3.002147 1_455
O12 W1 2.017216 1_555
O12 W3 2.027050 1_545
O12 Sr0 2.643684 1_545
O12 Sr2 2.669610 1_555
O13 W3 1.937529 1_545
O13 W1 2.075788 1_455
O13 Sr2 2.722166 1_555
O13 Sr0 2.756095 1_445
