# generated using pymatgen
data_Li5Mn3Cu(PO4)4
_symmetry_space_group_name_H-M   'P 1'
_cell_length_a   4.87203200
_cell_length_b   6.26808428
_cell_length_c   10.57843289
_cell_angle_alpha   92.38356220
_cell_angle_beta   91.08962129
_cell_angle_gamma   90.25127434
_symmetry_Int_Tables_number   1
_chemical_formula_structural   Li5Mn3Cu(PO4)4
_chemical_formula_sum   'Li5 Mn3 Cu1 P4 O16'
_cell_volume   322.70523571
_cell_formula_units_Z   1
loop_
 _symmetry_equiv_pos_site_id
 _symmetry_equiv_pos_as_xyz
  1  'x, y, z'
loop_
 _atom_site_type_symbol
 _atom_site_label
 _atom_site_symmetry_multiplicity
 _atom_site_fract_x
 _atom_site_fract_y
 _atom_site_fract_z
 _atom_site_occupancy
  Li  Li0  1  0.98568500  0.51412200  0.97945800  1
  Li  Li1  1  0.99319100  0.99098800  0.98799800  1
  Li  Li2  1  0.60591000  0.47532000  0.38410700  1
  Li  Li3  1  0.52655500  0.98081400  0.49666000  1
  Li  Li4  1  0.37172300  0.55377400  0.64297800  1
  Mn  Mn0  1  0.52830100  0.76641100  0.20328100  1
  Mn  Mn1  1  0.05533200  0.23279800  0.27698900  1
  Mn  Mn2  1  0.47729200  0.22467800  0.78811400  1
  Cu  Cu0  1  0.89429900  0.76801700  0.70840100  1
  P  P0  1  0.89831900  0.25962900  0.59329000  1
  P  P1  1  0.59744800  0.25151100  0.09724000  1
  P  P2  1  0.41133600  0.74442100  0.90673900  1
  P  P3  1  0.10837900  0.74774900  0.40293000  1
  O  O0  1  0.80380800  0.24316900  0.45048700  1
  O  O1  1  0.76282300  0.06273400  0.65660200  1
  O  O2  1  0.76039100  0.45836700  0.65967800  1
  O  O3  1  0.79180000  0.75109500  0.38985500  1
  O  O4  1  0.72703800  0.75301000  0.91922700  1
  O  O5  1  0.73568900  0.05376900  0.15984600  1
  O  O6  1  0.71063000  0.44667500  0.18104700  1
  O  O7  1  0.72050600  0.26210700  0.96292400  1
  O  O8  1  0.27491100  0.73644400  0.03997600  1
  O  O9  1  0.30455600  0.54123800  0.82977600  1
  O  O10  1  0.28703500  0.94426200  0.84405900  1
  O  O11  1  0.28263900  0.23754100  0.09728900  1
  O  O12  1  0.21279300  0.26431000  0.60728100  1
  O  O13  1  0.24328500  0.94077800  0.33421300  1
  O  O14  1  0.23147000  0.54386100  0.33373900  1
  O  O15  1  0.21689500  0.76328600  0.54050700  1
loop_
_geom_bond_atom_site_label_1
_geom_bond_atom_site_label_2
_geom_bond_distance
_geom_bond_site_symmetry_2
Li0 O7 2.036069 1_555
Li0 O8 2.052230 1_656
Li0 O4 2.073979 1_555
Li0 O9 2.250153 1_655
Li0 O6 2.588586 1_556
Li0 O11 2.604892 1_656
Li1 O4 2.071871 1_555
Li1 O10 2.122088 1_655
Li1 O7 2.183389 1_565
Li1 O8 2.189823 1_656
Li1 O5 2.250563 1_566
Li1 O11 2.341765 1_666
Li2 O0 1.900442 1_555
Li2 O14 1.945616 1_555
Li2 O3 1.946110 1_555
Li2 O6 2.217452 1_555
Li3 O1 2.073604 1_565
Li3 O15 2.100357 1_555
Li3 O13 2.188964 1_555
Li3 O0 2.199971 1_565
Li3 O3 2.226286 1_555
Li3 O12 2.604362 1_565
Li4 O15 1.888020 1_555
Li4 O12 1.988395 1_555
Li4 O2 1.995135 1_555
Li4 O9 2.013762 1_555
Mn0 O8 2.105586 1_555
Mn0 O5 2.132328 1_565
Mn0 O6 2.201208 1_555
Mn0 O13 2.236445 1_555
Mn0 O3 2.339468 1_555
Mn0 O14 2.481971 1_555
Mn1 O13 2.154329 1_545
Mn1 O14 2.183297 1_555
Mn1 O11 2.219322 1_555
Mn1 O0 2.225014 1_455
Mn1 O5 2.239572 1_455
Mn1 O6 2.390761 1_455
Mn2 O10 2.095700 1_545
Mn2 O7 2.181026 1_555
Mn2 O9 2.189896 1_555
Mn2 O1 2.206701 1_555
Mn2 O12 2.308723 1_555
Mn2 O2 2.472445 1_555
Cu0 O1 2.050450 1_565
Cu0 O2 2.085981 1_555
Cu0 O15 2.393257 1_655
Cu0 O4 2.394293 1_555
Cu0 O10 2.585753 1_655
O0 P0 1.569982 1_555
O1 P0 1.576673 1_555
O2 P0 1.564953 1_555
O3 P3 1.546262 1_655
O4 P2 1.541781 1_555
O5 P1 1.577065 1_555
O6 P1 1.572193 1_555
O7 P1 1.556465 1_556
O8 P2 1.572259 1_554
O9 P2 1.564383 1_555
O10 P2 1.560742 1_555
O11 P1 1.535885 1_555
O12 P0 1.536490 1_455
O13 P3 1.583879 1_555
O14 P3 1.572969 1_555
O15 P3 1.538030 1_555
