# generated using pymatgen
data_Na3C3S3O13
_symmetry_space_group_name_H-M   'P 1'
_cell_length_a   8.74676706
_cell_length_b   12.68148308
_cell_length_c   12.66809050
_cell_angle_alpha   90.00000000
_cell_angle_beta   90.00000000
_cell_angle_gamma   99.08107719
_symmetry_Int_Tables_number   1
_chemical_formula_structural   Na3C3S3O13
_chemical_formula_sum   'Na12 C12 S12 O52'
_cell_volume   1387.55724763
_cell_formula_units_Z   4
loop_
 _symmetry_equiv_pos_site_id
 _symmetry_equiv_pos_as_xyz
  1  'x, y, z'
loop_
 _atom_site_type_symbol
 _atom_site_label
 _atom_site_symmetry_multiplicity
 _atom_site_fract_x
 _atom_site_fract_y
 _atom_site_fract_z
 _atom_site_occupancy
  Na  Na0  1  0.30944453  0.79052989  0.11827811  1
  Na  Na1  1  0.69055547  0.20947011  0.88172189  1
  Na  Na2  1  0.19055547  0.70947011  0.61827811  1
  Na  Na3  1  0.80944453  0.29052989  0.38172189  1
  Na  Na4  1  0.28157464  0.01759482  0.62479508  1
  Na  Na5  1  0.71842536  0.98240518  0.37520492  1
  Na  Na6  1  0.21842536  0.48240518  0.12479508  1
  Na  Na7  1  0.78157464  0.51759482  0.87520492  1
  Na  Na8  1  0.69735980  0.72070212  0.28262630  1
  Na  Na9  1  0.30264020  0.27929788  0.71737370  1
  Na  Na10  1  0.80264020  0.77929788  0.78262630  1
  Na  Na11  1  0.19735980  0.22070212  0.21737370  1
  C  C0  1  0.97353298  0.96677129  0.10505200  1
  C  C1  1  0.02646702  0.03322871  0.89494800  1
  C  C2  1  0.52646702  0.53322871  0.60505200  1
  C  C3  1  0.47353298  0.46677129  0.39494800  1
  C  C4  1  0.54220309  0.42832459  0.57574313  1
  C  C5  1  0.45779691  0.57167541  0.42425687  1
  C  C6  1  0.95779691  0.07167541  0.07574313  1
  C  C7  1  0.04220309  0.92832459  0.92425687  1
  C  C8  1  0.00323258  0.89285382  0.02746515  1
  C  C9  1  0.99676742  0.10714618  0.97253485  1
  C  C10  1  0.49676742  0.60714618  0.52746515  1
  C  C11  1  0.50323258  0.39285382  0.47253485  1
  S  S0  1  0.32925891  0.64659727  0.34529420  1
  S  S1  1  0.67074109  0.35340273  0.65470580  1
  S  S2  1  0.17074109  0.85340273  0.84529420  1
  S  S3  1  0.82925891  0.14659727  0.15470580  1
  S  S4  1  0.01897569  0.93931946  0.24414811  1
  S  S5  1  0.98102431  0.06068054  0.75585189  1
  S  S6  1  0.48102431  0.56068054  0.74414811  1
  S  S7  1  0.51897569  0.43931946  0.25585189  1
  S  S8  1  0.94112384  0.74803250  0.05274229  1
  S  S9  1  0.05887616  0.25196750  0.94725771  1
  S  S10  1  0.55887616  0.75196750  0.55274229  1
  S  S11  1  0.44112384  0.24803250  0.44725771  1
  O  O0  1  0.06867236  0.87940371  0.58728712  1
  O  O1  1  0.93132764  0.12059629  0.41271288  1
  O  O2  1  0.43132764  0.62059629  0.08728712  1
  O  O3  1  0.56867236  0.37940371  0.91271288  1
  O  O4  1  0.81272352  0.75064593  0.12552696  1
  O  O5  1  0.18727648  0.24935407  0.87447304  1
  O  O6  1  0.68727648  0.74935407  0.62552696  1
  O  O7  1  0.31272352  0.25064593  0.37447304  1
  O  O8  1  0.25084948  0.69633938  0.42872689  1
  O  O9  1  0.74915052  0.30366062  0.57127311  1
  O  O10  1  0.24915052  0.80366062  0.92872689  1
  O  O11  1  0.75084948  0.19633938  0.07127311  1
  O  O12  1  0.61272575  0.61695051  0.80333585  1
  O  O13  1  0.38727425  0.38304949  0.19666415  1
  O  O14  1  0.88727425  0.88304949  0.30333585  1
  O  O15  1  0.11272575  0.11695051  0.69666415  1
  O  O16  1  0.41843040  0.72399519  0.27211803  1
  O  O17  1  0.58156960  0.27600481  0.72788197  1
  O  O18  1  0.08156960  0.77600481  0.77211803  1
  O  O19  1  0.91843040  0.22399519  0.22788197  1
  O  O20  1  0.58045175  0.89629426  0.02194990  1
  O  O21  1  0.41954825  0.10370574  0.97805010  1
  O  O22  1  0.91954825  0.60370574  0.52194990  1
  O  O23  1  0.08045175  0.39629426  0.47805010  1
  O  O24  1  0.14781966  0.88033437  0.23121556  1
  O  O25  1  0.85218034  0.11966563  0.76878444  1
  O  O26  1  0.35218034  0.61966563  0.73121556  1
  O  O27  1  0.64781966  0.38033437  0.26878444  1
  O  O28  1  0.57332279  0.54774069  0.21250060  1
  O  O29  1  0.42667721  0.45225931  0.78749940  1
  O  O30  1  0.92667721  0.95225931  0.71250060  1
  O  O31  1  0.07332279  0.04774069  0.28749940  1
  O  O32  1  0.88657257  0.59908305  0.42751467  1
  O  O33  1  0.11342743  0.40091695  0.57248533  1
  O  O34  1  0.61342743  0.90091695  0.92751467  1
  O  O35  1  0.38657257  0.09908305  0.07248533  1
  O  O36  1  0.45028351  0.98618543  0.46579900  1
  O  O37  1  0.54971649  0.01381457  0.53420100  1
  O  O38  1  0.04971649  0.51381457  0.96579900  1
  O  O39  1  0.95028351  0.48618543  0.03420100  1
  O  O40  1  0.22885962  0.56142179  0.28962369  1
  O  O41  1  0.77114038  0.43857821  0.71037631  1
  O  O42  1  0.27114038  0.93857821  0.78962369  1
  O  O43  1  0.72885962  0.06142179  0.21037631  1
  O  O44  1  0.61280086  0.79275627  0.44785771  1
  O  O45  1  0.38719914  0.20724373  0.55214229  1
  O  O46  1  0.88719914  0.70724373  0.94785771  1
  O  O47  1  0.11280086  0.29275627  0.05214229  1
  O  O48  1  0.06539308  0.69636922  0.09597955  1
  O  O49  1  0.93460692  0.30363078  0.90402045  1
  O  O50  1  0.43460692  0.80363078  0.59597955  1
  O  O51  1  0.56539308  0.19636922  0.40402045  1
loop_
_geom_bond_atom_site_label_1
_geom_bond_atom_site_label_2
_geom_bond_distance
_geom_bond_site_symmetry_2
Na0 O48 2.292993 1_555
Na0 O16 2.381723 1_555
Na0 O24 2.418811 1_555
Na0 O10 2.469734 1_554
Na0 O2 2.580687 1_555
Na0 O20 2.811305 1_555
Na1 O49 2.292993 1_555
Na1 O17 2.381723 1_555
Na1 O25 2.418811 1_555
Na1 O11 2.469734 1_556
Na1 O3 2.580687 1_555
Na1 O21 2.811305 1_555
Na2 O50 2.292993 1_555
Na2 O18 2.381723 1_555
Na2 O26 2.418811 1_555
Na2 O8 2.469734 1_555
Na2 O0 2.580687 1_555
Na2 O22 2.811305 1_455
Na3 O51 2.292993 1_555
Na3 O19 2.381723 1_555
Na3 O27 2.418811 1_555
Na3 O9 2.469734 1_555
Na3 O1 2.580687 1_555
Na3 O23 2.811305 1_655
Na4 O15 2.277066 1_555
Na4 O42 2.311617 1_545
Na4 O0 2.394697 1_545
Na4 O36 2.564892 1_545
Na4 O45 2.604497 1_555
Na4 O37 2.618335 1_555
Na5 O14 2.277066 1_555
Na5 O43 2.311617 1_565
Na5 O1 2.394697 1_565
Na5 O37 2.564892 1_565
Na5 O44 2.604497 1_555
Na5 O36 2.618335 1_555
Na6 O13 2.277066 1_555
Na6 O40 2.311617 1_555
Na6 O2 2.394697 1_555
Na6 O38 2.564892 1_554
Na6 O47 2.604497 1_555
Na6 O39 2.618335 1_455
Na7 O12 2.277066 1_555
Na7 O41 2.311617 1_555
Na7 O3 2.394697 1_555
Na7 O39 2.564892 1_556
Na7 O46 2.604497 1_555
Na7 O38 2.618335 1_655
Na8 O4 2.236545 1_555
Na8 O44 2.444721 1_555
Na8 O14 2.446902 1_555
Na8 O16 2.450288 1_555
Na8 O28 2.454811 1_555
Na8 O32 3.048343 1_555
Na9 O5 2.236545 1_555
Na9 O45 2.444721 1_555
Na9 O15 2.446902 1_555
Na9 O17 2.450288 1_555
Na9 O29 2.454811 1_555
Na9 O33 3.048343 1_555
Na10 O6 2.236545 1_555
Na10 O46 2.444721 1_555
Na10 O12 2.446902 1_555
Na10 O18 2.450288 1_655
Na10 O30 2.454811 1_555
Na10 O34 3.048343 1_555
Na11 O7 2.236545 1_555
Na11 O47 2.444721 1_555
Na11 O13 2.446902 1_555
Na11 O19 2.450288 1_455
Na11 O31 2.454811 1_555
Na11 O35 3.048343 1_555
C0 C6 1.408689 1_565
C0 C8 1.410349 1_655
C0 S4 1.851431 1_655
C1 C7 1.408689 1_545
C1 C9 1.410349 1_455
C1 S5 1.851431 1_455
C2 C4 1.408689 1_555
C2 S6 1.851431 1_555
C3 C5 1.408689 1_555
C3 S7 1.851431 1_555
C4 S1 1.872050 1_555
C5 S0 1.872050 1_555
C6 C9 1.406968 1_554
C6 S3 1.872050 1_555
C7 C8 1.406968 1_556
C7 S2 1.872050 1_555
C8 S8 1.858933 1_455
C9 S9 1.858933 1_655
C10 C5 1.406968 1_555
C10 C2 1.410349 1_555
C10 S10 1.858933 1_555
C11 C4 1.406968 1_555
C11 C3 1.410349 1_555
C11 S11 1.858933 1_555
O4 S8 1.457510 1_555
O5 S9 1.457510 1_555
O6 S10 1.457510 1_555
O7 S11 1.457510 1_555
O8 S0 1.456690 1_555
O9 S1 1.456690 1_555
O10 S2 1.456690 1_555
O11 S3 1.456690 1_555
O12 S6 1.462509 1_555
O13 S7 1.462509 1_555
O14 S4 1.462509 1_655
O15 S5 1.462509 1_455
O16 S0 1.479662 1_555
O17 S1 1.479662 1_555
O18 S2 1.479662 1_555
O19 S3 1.479662 1_555
O20 O34 1.229821 1_554
O21 O35 1.229821 1_556
O22 O32 1.229821 1_555
O23 O33 1.229821 1_555
O24 S4 1.456891 1_555
O25 S5 1.456891 1_555
O26 S6 1.456891 1_555
O27 S7 1.456891 1_555
O28 S7 1.487183 1_555
O29 S6 1.487183 1_555
O30 S5 1.487183 1_565
O31 S4 1.487183 1_545
O36 O37 1.238484 1_565
O38 O39 1.238484 1_456
O40 S0 1.461453 1_555
O41 S1 1.461453 1_555
O42 S2 1.461453 1_555
O43 S3 1.461453 1_555
O44 S10 1.475949 1_555
O45 S11 1.475949 1_555
O46 S8 1.475949 1_556
O47 S9 1.475949 1_554
O48 S8 1.461342 1_455
O49 S9 1.461342 1_655
O50 S10 1.461342 1_555
O51 S11 1.461342 1_555
