# generated using pymatgen
data_SrCa7Fe2(Co3O10)2
_symmetry_space_group_name_H-M   'P 1'
_cell_length_a   10.66062048
_cell_length_b   11.16152564
_cell_length_c   17.04766560
_cell_angle_alpha   108.91137168
_cell_angle_beta   108.01730203
_cell_angle_gamma   90.38863197
_symmetry_Int_Tables_number   1
_chemical_formula_structural   SrCa7Fe2(Co3O10)2
_chemical_formula_sum   'Sr4 Ca28 Fe8 Co24 O80'
_cell_volume   1811.92399305
_cell_formula_units_Z   4
loop_
 _symmetry_equiv_pos_site_id
 _symmetry_equiv_pos_as_xyz
  1  'x, y, z'
loop_
 _atom_site_type_symbol
 _atom_site_label
 _atom_site_symmetry_multiplicity
 _atom_site_fract_x
 _atom_site_fract_y
 _atom_site_fract_z
 _atom_site_occupancy
  Sr  Sr0  1  0.30281200  0.56122700  0.60730800  1
  Sr  Sr1  1  0.05471400  0.29724100  0.60953700  1
  Sr  Sr2  1  0.55571100  0.29358900  0.61040100  1
  Sr  Sr3  1  0.45052400  0.20082800  0.89080900  1
  Ca  Ca0  1  0.30441700  0.06940400  0.10858800  1
  Ca  Ca1  1  0.30196100  0.06578100  0.60507100  1
  Ca  Ca2  1  0.30637500  0.56790300  0.11160900  1
  Ca  Ca3  1  0.80566500  0.06445100  0.10854600  1
  Ca  Ca4  1  0.80179400  0.06555700  0.60641200  1
  Ca  Ca5  1  0.80868300  0.56589000  0.11057700  1
  Ca  Ca6  1  0.80910900  0.56708600  0.60600400  1
  Ca  Ca7  1  0.18917400  0.43319000  0.38769600  1
  Ca  Ca8  1  0.19703800  0.43455800  0.89691800  1
  Ca  Ca9  1  0.19301900  0.93062800  0.38932200  1
  Ca  Ca10  1  0.19589400  0.93689800  0.89471500  1
  Ca  Ca11  1  0.70165600  0.43454400  0.38998700  1
  Ca  Ca12  1  0.70165800  0.43144300  0.89776200  1
  Ca  Ca13  1  0.69642200  0.93003300  0.38876200  1
  Ca  Ca14  1  0.69692100  0.93711400  0.89491400  1
  Ca  Ca15  1  0.05619500  0.29353700  0.10871700  1
  Ca  Ca16  1  0.05207500  0.79354500  0.10882100  1
  Ca  Ca17  1  0.05445400  0.78714500  0.60461600  1
  Ca  Ca18  1  0.55826600  0.29193900  0.11013000  1
  Ca  Ca19  1  0.55614900  0.79241800  0.11130000  1
  Ca  Ca20  1  0.55556600  0.79383500  0.60809200  1
  Ca  Ca21  1  0.44303300  0.20764000  0.38815100  1
  Ca  Ca22  1  0.44814000  0.70564700  0.38870600  1
  Ca  Ca23  1  0.44648100  0.71446800  0.89607900  1
  Ca  Ca24  1  0.94170900  0.20846200  0.38929700  1
  Ca  Ca25  1  0.95002900  0.20952200  0.89472000  1
  Ca  Ca26  1  0.94713700  0.70362800  0.38951500  1
  Ca  Ca27  1  0.94511300  0.71499700  0.89536600  1
  Fe  Fe0  1  0.10383600  0.08852000  0.74985000  1
  Fe  Fe1  1  0.10527800  0.59763300  0.75297400  1
  Fe  Fe2  1  0.61173300  0.59705000  0.75410800  1
  Fe  Fe3  1  0.35932900  0.41255900  0.75534600  1
  Fe  Fe4  1  0.35466300  0.90922400  0.24877900  1
  Fe  Fe5  1  0.35613100  0.90701100  0.74815800  1
  Fe  Fe6  1  0.85746500  0.41067600  0.75334400  1
  Fe  Fe7  1  0.85477700  0.90807400  0.75075700  1
  Co  Co0  1  0.00573200  0.00129200  0.00099700  1
  Co  Co1  1  0.00381800  0.99788600  0.49806300  1
  Co  Co2  1  0.00686900  0.50080500  0.00128800  1
  Co  Co3  1  0.00156000  0.49816300  0.49414500  1
  Co  Co4  1  0.50716200  0.00002400  0.00335000  1
  Co  Co5  1  0.50238400  0.99365900  0.49288000  1
  Co  Co6  1  0.50799500  0.50057200  0.00177800  1
  Co  Co7  1  0.50477200  0.49910900  0.49592600  1
  Co  Co8  1  0.25702100  0.25193300  0.00227000  1
  Co  Co9  1  0.24792700  0.24546200  0.49166700  1
  Co  Co10  1  0.25651600  0.75210800  0.00303100  1
  Co  Co11  1  0.25474200  0.74844700  0.49776300  1
  Co  Co12  1  0.75949100  0.25013400  0.00412900  1
  Co  Co13  1  0.75276500  0.24759800  0.49583700  1
  Co  Co14  1  0.75586800  0.75054500  0.00117700  1
  Co  Co15  1  0.75800600  0.74948900  0.49990700  1
  Co  Co16  1  0.10431600  0.09260600  0.24786000  1
  Co  Co17  1  0.10957000  0.59452800  0.24954700  1
  Co  Co18  1  0.60894200  0.09423600  0.24989600  1
  Co  Co19  1  0.61079500  0.09193100  0.74961300  1
  Co  Co20  1  0.60890700  0.59378800  0.24966900  1
  Co  Co21  1  0.35776300  0.40666400  0.24951000  1
  Co  Co22  1  0.85796400  0.40616000  0.24955600  1
  Co  Co23  1  0.85723500  0.90501900  0.24984900  1
  O  O0  1  0.12467000  0.12113600  0.48367000  1
  O  O1  1  0.12361700  0.12179900  0.98851100  1
  O  O2  1  0.11775500  0.61523700  0.48008600  1
  O  O3  1  0.12699400  0.62811200  0.98948400  1
  O  O4  1  0.61653300  0.11334600  0.48528800  1
  O  O5  1  0.63012900  0.11920300  0.99356300  1
  O  O6  1  0.62825200  0.62615500  0.48682900  1
  O  O7  1  0.62347900  0.61743200  0.99203100  1
  O  O8  1  0.13947000  0.38515300  0.01586200  1
  O  O9  1  0.12616800  0.37622600  0.50400600  1
  O  O10  1  0.13727100  0.88466200  0.01771500  1
  O  O11  1  0.13419000  0.88009000  0.50872400  1
  O  O12  1  0.64246400  0.38173400  0.01917400  1
  O  O13  1  0.62831500  0.38280400  0.50525200  1
  O  O14  1  0.63335000  0.87772800  0.01473800  1
  O  O15  1  0.63719000  0.88163100  0.51437000  1
  O  O16  1  0.36799000  0.10967700  0.48046600  1
  O  O17  1  0.37496900  0.11645300  0.99388700  1
  O  O18  1  0.37931800  0.61242500  0.48551900  1
  O  O19  1  0.37197100  0.61673600  0.98500900  1
  O  O20  1  0.87025600  0.11202000  0.48447000  1
  O  O21  1  0.87443100  0.11691500  0.98677300  1
  O  O22  1  0.87437100  0.61505400  0.48222200  1
  O  O23  1  0.87463000  0.61703000  0.98907300  1
  O  O24  1  0.39053500  0.38980900  0.01454500  1
  O  O25  1  0.37670400  0.37090700  0.50339400  1
  O  O26  1  0.38322800  0.87916300  0.01477400  1
  O  O27  1  0.38981800  0.88385700  0.50781700  1
  O  O28  1  0.88729700  0.38149200  0.01386300  1
  O  O29  1  0.88083300  0.38787500  0.51016700  1
  O  O30  1  0.88746100  0.88553300  0.01661800  1
  O  O31  1  0.88180700  0.87600700  0.50992100  1
  O  O32  1  0.08594300  0.10354700  0.14157800  1
  O  O33  1  0.08760500  0.09371900  0.63865500  1
  O  O34  1  0.08665600  0.60408000  0.14183800  1
  O  O35  1  0.07935700  0.59862800  0.63807700  1
  O  O36  1  0.58792300  0.10264500  0.14301400  1
  O  O37  1  0.59196100  0.09497100  0.64223200  1
  O  O38  1  0.58692000  0.60385900  0.14221800  1
  O  O39  1  0.58876000  0.60016000  0.64036000  1
  O  O40  1  0.44599300  0.39778400  0.35696200  1
  O  O41  1  0.45670900  0.40190900  0.86381400  1
  O  O42  1  0.45033100  0.89089300  0.35653400  1
  O  O43  1  0.44822300  0.90112400  0.86000400  1
  O  O44  1  0.94023700  0.40120600  0.35998900  1
  O  O45  1  0.95210900  0.39665900  0.86153000  1
  O  O46  1  0.94341100  0.89570000  0.35718700  1
  O  O47  1  0.95064500  0.89855400  0.86079700  1
  O  O48  1  0.33708500  0.29128500  0.14217200  1
  O  O49  1  0.33112700  0.29136900  0.64286500  1
  O  O50  1  0.33893600  0.78498100  0.14009000  1
  O  O51  1  0.33677300  0.79082100  0.63664900  1
  O  O52  1  0.84136900  0.28791900  0.14411400  1
  O  O53  1  0.82813800  0.28804600  0.64174900  1
  O  O54  1  0.83603800  0.78858500  0.14266900  1
  O  O55  1  0.84067600  0.78687700  0.64029700  1
  O  O56  1  0.19203900  0.21052500  0.35449700  1
  O  O57  1  0.19299400  0.21250000  0.85961700  1
  O  O58  1  0.19753300  0.70964800  0.35708300  1
  O  O59  1  0.19785900  0.72003400  0.86106200  1
  O  O60  1  0.69467000  0.21048600  0.35699400  1
  O  O61  1  0.69373900  0.20738500  0.85767600  1
  O  O62  1  0.69552900  0.71005500  0.35725600  1
  O  O63  1  0.70338900  0.71909000  0.86287900  1
  O  O64  1  0.42385400  0.06903100  0.24917700  1
  O  O65  1  0.42297200  0.06299700  0.74202300  1
  O  O66  1  0.42609800  0.56801800  0.24983000  1
  O  O67  1  0.43205300  0.57363600  0.75786900  1
  O  O68  1  0.92364200  0.06754900  0.24975100  1
  O  O69  1  0.92111800  0.06983100  0.74987400  1
  O  O70  1  0.92726300  0.56687500  0.24970500  1
  O  O71  1  0.92287900  0.57220300  0.75167500  1
  O  O72  1  0.17518800  0.43254600  0.24912100  1
  O  O73  1  0.18043900  0.44205400  0.75954700  1
  O  O74  1  0.17317100  0.93100200  0.24930000  1
  O  O75  1  0.17355900  0.92849500  0.75029000  1
  O  O76  1  0.67591500  0.43212400  0.24886000  1
  O  O77  1  0.68022100  0.43886600  0.75991000  1
  O  O78  1  0.67475400  0.93246400  0.25014100  1
  O  O79  1  0.67350600  0.92680800  0.75117600  1
loop_
_geom_bond_atom_site_label_1
_geom_bond_atom_site_label_2
_geom_bond_distance
_geom_bond_site_symmetry_2
Ca0 O64 2.341843 1_555
Ca0 O48 2.351201 1_555
Ca0 O10 2.449239 1_545
Ca0 O17 2.497006 1_554
Ca0 O26 2.535067 1_545
Ca0 O32 2.563103 1_555
Ca0 O1 2.568639 1_554
Ca0 O36 2.891896 1_555
Ca1 O65 2.302274 1_555
Ca1 O49 2.380235 1_555
Ca1 O11 2.473482 1_545
Ca1 O33 2.519980 1_555
Ca1 O27 2.559952 1_545
Ca1 O0 2.581116 1_555
Ca1 O16 2.615874 1_555
Ca1 O37 2.950648 1_555
Ca2 O66 2.306283 1_555
Ca2 O50 2.312694 1_555
Ca2 O8 2.446804 1_555
Ca2 O24 2.510948 1_555
Ca2 O34 2.557311 1_555
Ca2 O3 2.627647 1_554
Ca2 O19 2.671151 1_554
Ca2 O38 2.874142 1_555
Ca3 O68 2.334584 1_555
Ca3 O52 2.365966 1_555
Ca3 O30 2.458597 1_545
Ca3 O5 2.498104 1_554
Ca3 O14 2.499166 1_545
Ca3 O36 2.571010 1_555
Ca3 O21 2.629346 1_554
Ca3 O32 2.866614 1_655
Ca4 O53 2.350490 1_555
Ca4 O69 2.366611 1_555
Ca4 O15 2.432187 1_545
Ca4 O37 2.491915 1_555
Ca4 O31 2.558529 1_545
Ca4 O4 2.579598 1_555
Ca4 O20 2.599114 1_555
Ca4 O33 2.919528 1_655
Ca5 O70 2.313391 1_555
Ca5 O54 2.360643 1_555
Ca5 O12 2.441173 1_555
Ca5 O28 2.517005 1_555
Ca5 O7 2.571780 1_554
Ca5 O38 2.591129 1_555
Ca5 O23 2.602384 1_554
Ca5 O34 2.847088 1_655
Ca6 O55 2.326086 1_555
Ca6 O71 2.384370 1_555
Ca6 O29 2.435196 1_555
Ca6 O13 2.550278 1_555
Ca6 O39 2.592312 1_555
Ca6 O6 2.596537 1_555
Ca6 O22 2.618988 1_555
Ca6 O35 2.758646 1_655
Ca7 O72 2.318234 1_555
Ca7 O56 2.365974 1_555
Ca7 O2 2.424343 1_555
Ca7 O9 2.534212 1_555
Ca7 O44 2.548674 1_455
Ca7 O18 2.565819 1_555
Ca7 O25 2.615086 1_555
Ca7 O40 2.948619 1_555
Ca8 O73 2.322381 1_555
Ca8 O57 2.347164 1_555
Ca8 O19 2.470712 1_555
Ca8 O45 2.491155 1_455
Ca8 O3 2.501181 1_555
Ca8 O8 2.506468 1_556
Ca8 O24 2.574888 1_556
Ca8 O41 2.993545 1_555
Ca9 O74 2.331697 1_555
Ca9 O58 2.350988 1_555
Ca9 O16 2.455843 1_565
Ca9 O0 2.483626 1_565
Ca9 O11 2.526669 1_555
Ca9 O46 2.545310 1_455
Ca9 O27 2.613711 1_555
Ca9 O42 2.972890 1_555
Ca10 O59 2.301419 1_555
Ca10 O75 2.369563 1_555
Ca10 O1 2.460556 1_565
Ca10 O47 2.498473 1_455
Ca10 O17 2.504884 1_565
Ca10 O10 2.593359 1_556
Ca10 O26 2.633739 1_556
Ca10 O43 2.931161 1_555
Ca11 O76 2.326732 1_555
Ca11 O60 2.373991 1_555
Ca11 O22 2.455009 1_555
Ca11 O29 2.530190 1_555
Ca11 O6 2.538706 1_555
Ca11 O13 2.546740 1_555
Ca11 O40 2.607617 1_555
Ca11 O44 2.750107 1_555
Ca12 O77 2.318639 1_555
Ca12 O61 2.362611 1_555
Ca12 O41 2.488436 1_555
Ca12 O23 2.489304 1_555
Ca12 O7 2.505241 1_555
Ca12 O28 2.540079 1_556
Ca12 O12 2.556895 1_556
Ca12 O45 2.922286 1_555
Ca13 O78 2.311408 1_555
Ca13 O62 2.336389 1_555
Ca13 O20 2.480436 1_565
Ca13 O42 2.512487 1_555
Ca13 O4 2.515478 1_565
Ca13 O31 2.614191 1_555
Ca13 O15 2.618690 1_555
Ca13 O46 2.850671 1_555
Ca14 O63 2.321410 1_555
Ca14 O79 2.349150 1_555
Ca14 O5 2.451674 1_565
Ca14 O21 2.477695 1_565
Ca14 O43 2.529687 1_555
Ca14 O14 2.607547 1_556
Ca14 O30 2.635387 1_556
Ca14 O47 2.943887 1_555
Ca15 O72 2.330957 1_555
Ca15 O32 2.362312 1_555
Ca15 O28 2.464234 1_455
Ca15 O8 2.499163 1_555
Ca15 O52 2.547639 1_455
Ca15 O21 2.600478 1_454
Ca15 O1 2.602677 1_554
Ca15 O48 2.871680 1_555
Ca16 O74 2.331230 1_555
Ca16 O34 2.361891 1_555
Ca16 O30 2.443088 1_455
Ca16 O10 2.481017 1_555
Ca16 O54 2.545844 1_455
Ca16 O23 2.565329 1_454
Ca16 O3 2.603151 1_554
Ca16 O50 2.945153 1_555
Ca17 O35 2.348444 1_555
Ca17 O75 2.398141 1_555
Ca17 O31 2.490372 1_455
Ca17 O11 2.533391 1_555
Ca17 O55 2.534270 1_455
Ca17 O22 2.569592 1_455
Ca17 O2 2.628171 1_555
Ca17 O51 2.885350 1_555
Ca18 O76 2.313943 1_555
Ca18 O36 2.354861 1_555
Ca18 O12 2.463872 1_555
Ca18 O24 2.534521 1_555
Ca18 O17 2.572638 1_554
Ca18 O48 2.580188 1_555
Ca18 O5 2.594484 1_554
Ca18 O52 2.895402 1_555
Ca19 O78 2.316891 1_555
Ca19 O38 2.331577 1_555
Ca19 O14 2.477367 1_555
Ca19 O26 2.494785 1_555
Ca19 O50 2.517291 1_555
Ca19 O7 2.609916 1_554
Ca19 O19 2.632805 1_554
Ca19 O54 2.867107 1_555
Ca20 O79 2.337591 1_555
Ca20 O39 2.400330 1_555
Ca20 O15 2.476613 1_555
Ca20 O27 2.514548 1_555
Ca20 O51 2.527952 1_555
Ca20 O18 2.602613 1_555
Ca20 O6 2.622860 1_555
Ca20 O55 2.923057 1_555
Ca21 O64 2.316993 1_555
Ca21 O40 2.351334 1_555
Ca21 O16 2.488908 1_555
Ca21 O25 2.497343 1_555
Ca21 O4 2.555851 1_555
Ca21 O56 2.559949 1_555
Ca21 O13 2.586027 1_555
Ca21 O60 2.893222 1_555
Ca22 O66 2.305124 1_555
Ca22 O42 2.306248 1_555
Ca22 O18 2.489326 1_555
Ca22 O6 2.504084 1_555
Ca22 O58 2.560560 1_555
Ca22 O27 2.577969 1_555
Ca22 O15 2.656543 1_555
Ca22 O62 2.852259 1_555
Ca23 O67 2.327617 1_555
Ca23 O43 2.357126 1_555
Ca23 O19 2.434022 1_555
Ca23 O26 2.525484 1_556
Ca23 O59 2.536273 1_555
Ca23 O14 2.539606 1_556
Ca23 O7 2.583783 1_555
Ca23 O63 2.966469 1_555
Ca24 O68 2.336074 1_555
Ca24 O44 2.360168 1_555
Ca24 O20 2.501380 1_555
Ca24 O60 2.520173 1_555
Ca24 O9 2.528816 1_655
Ca24 O0 2.538468 1_655
Ca24 O29 2.616733 1_555
Ca24 O56 2.908902 1_655
Ca25 O45 2.335948 1_555
Ca25 O69 2.377061 1_555
Ca25 O21 2.450121 1_555
Ca25 O1 2.479669 1_655
Ca25 O28 2.566612 1_556
Ca25 O61 2.605060 1_555
Ca25 O8 2.632192 1_656
Ca25 O57 2.835262 1_655
Ca26 O70 2.319589 1_555
Ca26 O46 2.377967 1_555
Ca26 O22 2.416137 1_555
Ca26 O2 2.437247 1_655
Ca26 O62 2.572542 1_555
Ca26 O31 2.596683 1_555
Ca26 O11 2.613607 1_655
Ca26 O58 2.893166 1_655
Ca27 O47 2.313171 1_555
Ca27 O71 2.387860 1_555
Ca27 O63 2.466679 1_555
Ca27 O23 2.485133 1_555
Ca27 O3 2.526662 1_655
Ca27 O30 2.554397 1_556
Ca27 O10 2.622389 1_656
Ca27 O59 2.932424 1_655
Fe0 O33 1.869545 1_555
Fe0 O57 1.877061 1_555
Fe0 O75 1.940623 1_545
Fe0 O69 1.957757 1_455
Fe1 O59 1.860322 1_555
Fe1 O35 1.895363 1_555
Fe1 O73 1.938935 1_555
Fe1 O71 1.955475 1_455
Fe2 O63 1.863452 1_555
Fe2 O39 1.889816 1_555
Fe2 O77 1.935493 1_555
Fe2 O67 1.954890 1_555
Fe3 O41 1.862194 1_555
Fe3 O49 1.885093 1_555
Fe3 O67 1.935348 1_555
Fe3 O73 1.956573 1_555
Fe4 O50 1.877094 1_555
Fe4 O42 1.882547 1_555
Fe4 O64 1.922729 1_565
Fe4 O74 1.954046 1_555
Fe5 O51 1.869164 1_555
Fe5 O43 1.878248 1_555
Fe5 O65 1.922816 1_565
Fe5 O75 1.972681 1_555
Fe6 O45 1.866022 1_555
Fe6 O53 1.878511 1_555
Fe6 O71 1.940615 1_555
Fe6 O77 1.948828 1_555
Fe7 O47 1.876052 1_555
Fe7 O55 1.889297 1_555
Fe7 O69 1.940865 1_565
Fe7 O79 1.947109 1_555
Co0 O21 1.923785 1_454
Co0 O30 1.933563 1_445
Co0 O10 1.939140 1_545
Co0 O1 1.939573 1_554
Co0 O47 2.172172 1_444
Co0 O32 2.173340 1_555
Co1 O20 1.927629 1_465
Co1 O11 1.927896 1_555
Co1 O31 1.974892 1_455
Co1 O0 2.000703 1_565
Co1 O33 2.165030 1_565
Co1 O46 2.177393 1_455
Co2 O23 1.931819 1_454
Co2 O8 1.934348 1_555
Co2 O28 1.943034 1_455
Co2 O3 2.004893 1_554
Co2 O45 2.168804 1_454
Co2 O34 2.174605 1_555
Co3 O22 1.899320 1_455
Co3 O29 1.913183 1_455
Co3 O2 1.914180 1_555
Co3 O9 1.918312 1_555
Co3 O44 2.071294 1_455
Co3 O35 2.216058 1_555
Co4 O17 1.928964 1_554
Co4 O14 1.935393 1_545
Co4 O5 1.941984 1_554
Co4 O26 1.977020 1_545
Co4 O36 2.161684 1_555
Co4 O43 2.208448 1_544
Co5 O27 1.838005 1_555
Co5 O4 1.862699 1_565
Co5 O15 1.938723 1_555
Co5 O16 1.946687 1_565
Co5 O42 2.119339 1_555
Co5 O37 2.299621 1_565
Co6 O24 1.861659 1_555
Co6 O7 1.868111 1_554
Co6 O19 1.968484 1_554
Co6 O12 1.979924 1_555
Co6 O41 2.135608 1_554
Co6 O38 2.172698 1_555
Co7 O18 1.855113 1_555
Co7 O13 1.863464 1_555
Co7 O6 2.002799 1_555
Co7 O25 2.031472 1_555
Co7 O40 2.149252 1_555
Co7 O39 2.226851 1_555
Co8 O1 1.931865 1_554
Co8 O8 1.953631 1_555
Co8 O17 1.971037 1_554
Co8 O24 2.003800 1_555
Co8 O48 2.160154 1_555
Co8 O57 2.202047 1_554
Co9 O0 1.847326 1_555
Co9 O25 1.872913 1_555
Co9 O9 1.963398 1_555
Co9 O16 1.990373 1_555
Co9 O56 2.125837 1_555
Co9 O49 2.327356 1_555
Co10 O3 1.856056 1_554
Co10 O26 1.870455 1_555
Co10 O10 1.962119 1_555
Co10 O19 1.962283 1_554
Co10 O50 2.129780 1_555
Co10 O59 2.208135 1_554
Co11 O11 1.960026 1_555
Co11 O2 1.960104 1_555
Co11 O27 2.009257 1_555
Co11 O18 2.026251 1_555
Co11 O51 2.140565 1_555
Co11 O58 2.174754 1_555
Co12 O28 1.925840 1_555
Co12 O5 1.928296 1_554
Co12 O12 1.938654 1_555
Co12 O21 1.940038 1_554
Co12 O52 2.165362 1_555
Co12 O61 2.256787 1_554
Co13 O20 1.970304 1_555
Co13 O29 1.972779 1_555
Co13 O4 2.005287 1_555
Co13 O13 2.016237 1_555
Co13 O60 2.147498 1_555
Co13 O53 2.251140 1_555
Co14 O14 1.942613 1_555
Co14 O30 1.947609 1_555
Co14 O23 1.963211 1_554
Co14 O7 1.977098 1_554
Co14 O63 2.153982 1_554
Co14 O54 2.187446 1_555
Co15 O6 1.855417 1_555
Co15 O31 1.855855 1_555
Co15 O22 1.960782 1_555
Co15 O15 1.970155 1_555
Co15 O55 2.172935 1_555
Co15 O62 2.202620 1_555
Co16 O32 1.805638 1_555
Co16 O56 1.814473 1_555
Co16 O68 1.956030 1_455
Co16 O74 1.956638 1_545
Co17 O58 1.812300 1_555
Co17 O34 1.814497 1_555
Co17 O72 1.941629 1_555
Co17 O70 1.966755 1_455
Co18 O36 1.799332 1_555
Co18 O60 1.807860 1_555
Co18 O78 1.942367 1_545
Co18 O64 1.986932 1_555
Co19 O37 1.790399 1_555
Co19 O61 1.809497 1_555
Co19 O79 1.970259 1_545
Co19 O65 1.983470 1_555
Co20 O38 1.814180 1_555
Co20 O62 1.814921 1_555
Co20 O76 1.942640 1_555
Co20 O66 1.969010 1_555
Co21 O48 1.809569 1_555
Co21 O40 1.817456 1_555
Co21 O66 1.935860 1_555
Co21 O72 1.967920 1_555
Co22 O52 1.807359 1_555
Co22 O44 1.833926 1_555
Co22 O70 1.934296 1_555
Co22 O76 1.961191 1_555
Co23 O54 1.811052 1_555
Co23 O46 1.813270 1_555
Co23 O68 1.943541 1_565
Co23 O78 1.972657 1_555
O0 Sr1 2.701820 1_555
O2 Sr0 2.678819 1_555
O4 Sr2 2.666215 1_555
O5 Sr3 2.558897 1_555
O9 Sr0 2.539667 1_555
O9 Sr1 2.541810 1_555
O12 Sr3 2.713408 1_554
O13 Sr2 2.609354 1_555
O16 Sr2 2.716594 1_555
O17 Sr3 2.561554 1_555
O18 Sr0 2.666968 1_555
O20 Sr1 2.679688 1_655
O24 Sr3 2.697492 1_554
O25 Sr2 2.569734 1_555
O25 Sr0 2.591882 1_555
O29 Sr1 2.554007 1_655
O33 Sr1 2.482672 1_555
O35 Sr0 2.601666 1_555
O37 Sr2 2.453577 1_555
O39 Sr0 2.925701 1_555
O41 Sr3 2.437131 1_555
O49 Sr2 2.620474 1_555
O49 Sr1 2.828677 1_555
O51 Sr0 2.448019 1_555
O53 Sr1 2.645778 1_655
O53 Sr2 2.790661 1_555
O57 Sr3 2.642683 1_555
O61 Sr3 2.824416 1_555
O65 Sr3 2.426970 1_555
O67 Sr0 2.466746 1_555
O73 Sr1 2.473813 1_555
O77 Sr2 2.467072 1_555
