# generated using pymatgen
data_RbMgCrF6
_symmetry_space_group_name_H-M   'P 1'
_cell_length_a   7.34984894
_cell_length_b   7.34984894
_cell_length_c   7.34984894
_cell_angle_alpha   120.32613441
_cell_angle_beta   120.01187209
_cell_angle_gamma   89.70774276
_symmetry_Int_Tables_number   1
_chemical_formula_structural   RbMgCrF6
_chemical_formula_sum   'Rb2 Mg2 Cr2 F12'
_cell_volume   280.02653985
_cell_formula_units_Z   2
loop_
 _symmetry_equiv_pos_site_id
 _symmetry_equiv_pos_as_xyz
  1  'x, y, z'
loop_
 _atom_site_type_symbol
 _atom_site_label
 _atom_site_symmetry_multiplicity
 _atom_site_fract_x
 _atom_site_fract_y
 _atom_site_fract_z
 _atom_site_occupancy
  Rb  Rb0  1  0.37120700  0.62120700  0.75000000  1
  Rb  Rb1  1  0.62879300  0.37879300  0.25000000  1
  Mg  Mg0  1  0.00000000  0.00000000  0.50000000  1
  Mg  Mg1  1  0.00000000  0.50000000  0.00000000  1
  Cr  Cr0  1  0.00000000  0.00000000  0.00000000  1
  Cr  Cr1  1  0.50000000  0.00000000  0.50000000  1
  F  F0  1  0.31776400  0.06776400  0.25000000  1
  F  F1  1  0.93004700  0.68004700  0.25000000  1
  F  F2  1  0.32600100  0.68630800  0.25786400  1
  F  F3  1  0.92844300  0.06813600  0.24213600  1
  F  F4  1  0.32600100  0.06813600  0.63969300  1
  F  F5  1  0.92844300  0.68630800  0.86030700  1
  F  F6  1  0.68223600  0.93223600  0.75000000  1
  F  F7  1  0.06995300  0.31995300  0.75000000  1
  F  F8  1  0.67399900  0.31369200  0.74213600  1
  F  F9  1  0.07155700  0.93186400  0.75786400  1
  F  F10  1  0.67399900  0.93186400  0.36030700  1
  F  F11  1  0.07155700  0.31369200  0.13969300  1
loop_
_geom_bond_atom_site_label_1
_geom_bond_atom_site_label_2
_geom_bond_distance
_geom_bond_site_symmetry_2
Cr0 F5 1.930853 1_444
Cr0 F11 1.930853 1_555
Cr0 F3 1.930860 1_455
Cr0 F9 1.930860 1_544
Cr0 F0 1.968173 1_555
Cr0 F6 1.968173 1_444
Cr1 F2 1.930853 1_545
Cr1 F8 1.930853 1_555
Cr1 F4 1.930853 1_555
Cr1 F10 1.930853 1_545
Cr1 F0 1.968173 1_555
Cr1 F6 1.968173 1_545
F0 Rb1 3.241150 1_555
F1 Mg1 1.968355 1_655
F1 Mg0 1.968355 1_665
F1 Rb1 3.139287 1_555
F2 Mg1 2.019426 1_555
F2 Rb1 3.163854 1_555
F3 Mg0 2.019419 1_655
F3 Rb1 3.163854 1_555
F4 Mg0 2.019426 1_555
F4 Rb1 3.163854 1_556
F5 Mg1 2.019426 1_656
F5 Rb1 3.163854 1_555
F6 Rb0 3.241150 1_555
F7 Mg0 1.968355 1_555
F7 Mg1 1.968355 1_556
F7 Rb0 3.139287 1_555
F8 Mg1 2.019426 1_656
F8 Rb0 3.163854 1_555
F9 Mg0 2.019419 1_565
F9 Rb0 3.163854 1_555
F10 Mg0 2.019426 1_665
F10 Rb0 3.163854 1_554
F11 Mg1 2.019426 1_555
F11 Rb0 3.163854 1_555
