# generated using pymatgen
data_Cd2Cu2P2SO17
_symmetry_space_group_name_H-M   'P 1'
_cell_length_a   10.57119800
_cell_length_b   20.93941200
_cell_length_c   6.04270400
_cell_angle_alpha   90.00000000
_cell_angle_beta   90.00000000
_cell_angle_gamma   90.00000000
_symmetry_Int_Tables_number   1
_chemical_formula_structural   Cd2Cu2P2SO17
_chemical_formula_sum   'Cd8 Cu8 P8 S4 O68'
_cell_volume   1337.58075137
_cell_formula_units_Z   4
loop_
 _symmetry_equiv_pos_site_id
 _symmetry_equiv_pos_as_xyz
  1  'x, y, z'
loop_
 _atom_site_type_symbol
 _atom_site_label
 _atom_site_symmetry_multiplicity
 _atom_site_fract_x
 _atom_site_fract_y
 _atom_site_fract_z
 _atom_site_occupancy
  Cd  Cd0  1  0.40194900  0.61129000  0.97956300  1
  Cd  Cd1  1  0.90194900  0.88871000  0.52043700  1
  Cd  Cd2  1  0.59805100  0.11129000  0.02043700  1
  Cd  Cd3  1  0.09805100  0.38871000  0.47956300  1
  Cd  Cd4  1  0.59805100  0.38871000  0.02043700  1
  Cd  Cd5  1  0.09805100  0.11129000  0.47956300  1
  Cd  Cd6  1  0.40194900  0.88871000  0.97956300  1
  Cd  Cd7  1  0.90194900  0.61129000  0.52043700  1
  Cu  Cu0  1  0.61272700  0.56959800  0.37519400  1
  Cu  Cu1  1  0.11272700  0.93040200  0.12480600  1
  Cu  Cu2  1  0.38727300  0.06959800  0.62480600  1
  Cu  Cu3  1  0.88727300  0.43040200  0.87519400  1
  Cu  Cu4  1  0.38727300  0.43040200  0.62480600  1
  Cu  Cu5  1  0.88727300  0.06959800  0.87519400  1
  Cu  Cu6  1  0.61272700  0.93040200  0.37519400  1
  Cu  Cu7  1  0.11272700  0.56959800  0.12480600  1
  P  P0  1  0.68280100  0.54371500  0.86242400  1
  P  P1  1  0.18280100  0.95628500  0.63757600  1
  P  P2  1  0.31719900  0.04371500  0.13757600  1
  P  P3  1  0.81719900  0.45628500  0.36242400  1
  P  P4  1  0.31719900  0.45628500  0.13757600  1
  P  P5  1  0.81719900  0.04371500  0.36242400  1
  P  P6  1  0.68280100  0.95628500  0.86242400  1
  P  P7  1  0.18280100  0.54371500  0.63757600  1
  S  S0  1  0.45104800  0.75000000  0.74002800  1
  S  S1  1  0.95104800  0.75000000  0.75997200  1
  S  S2  1  0.54895200  0.25000000  0.25997200  1
  S  S3  1  0.04895200  0.25000000  0.24002800  1
  O  O0  1  0.48088900  0.75000000  0.49786900  1
  O  O1  1  0.98088900  0.75000000  0.00213100  1
  O  O2  1  0.51911100  0.25000000  0.50213100  1
  O  O3  1  0.01911100  0.25000000  0.99786900  1
  O  O4  1  0.31039000  0.75000000  0.75278500  1
  O  O5  1  0.81039000  0.75000000  0.74721500  1
  O  O6  1  0.68961000  0.25000000  0.24721500  1
  O  O7  1  0.18961000  0.25000000  0.25278500  1
  O  O8  1  0.50728500  0.69296100  0.84776300  1
  O  O9  1  0.00728500  0.80703900  0.65223700  1
  O  O10  1  0.49271500  0.19296100  0.15223700  1
  O  O11  1  0.99271500  0.30703900  0.34776300  1
  O  O12  1  0.49271500  0.30703900  0.15223700  1
  O  O13  1  0.99271500  0.19296100  0.34776300  1
  O  O14  1  0.50728500  0.80703900  0.84776300  1
  O  O15  1  0.00728500  0.69296100  0.65223700  1
  O  O16  1  0.79481200  0.58785700  0.83888400  1
  O  O17  1  0.29481200  0.91214300  0.66111600  1
  O  O18  1  0.20518800  0.08785700  0.16111600  1
  O  O19  1  0.70518800  0.41214300  0.33888400  1
  O  O20  1  0.20518800  0.41214300  0.16111600  1
  O  O21  1  0.70518800  0.08785700  0.33888400  1
  O  O22  1  0.79481200  0.91214300  0.83888400  1
  O  O23  1  0.29481200  0.58785700  0.66111600  1
  O  O24  1  0.58083400  0.54777600  0.67507500  1
  O  O25  1  0.08083400  0.95222400  0.82492500  1
  O  O26  1  0.41916600  0.04777600  0.32492500  1
  O  O27  1  0.91916600  0.45222400  0.17507500  1
  O  O28  1  0.41916600  0.45222400  0.32492500  1
  O  O29  1  0.91916600  0.04777600  0.17507500  1
  O  O30  1  0.58083400  0.95222400  0.67507500  1
  O  O31  1  0.08083400  0.54777600  0.82492500  1
  O  O32  1  0.72595400  0.47165400  0.88770400  1
  O  O33  1  0.22595400  0.02834600  0.61229600  1
  O  O34  1  0.27404600  0.97165400  0.11229600  1
  O  O35  1  0.77404600  0.52834600  0.38770400  1
  O  O36  1  0.27404600  0.52834600  0.11229600  1
  O  O37  1  0.77404600  0.97165400  0.38770400  1
  O  O38  1  0.72595400  0.02834600  0.88770400  1
  O  O39  1  0.22595400  0.47165400  0.61229600  1
  O  O40  1  0.59311400  0.55784600  0.06485900  1
  O  O41  1  0.09311400  0.94215400  0.43514100  1
  O  O42  1  0.40688600  0.05784600  0.93514100  1
  O  O43  1  0.90688600  0.44215400  0.56485900  1
  O  O44  1  0.40688600  0.44215400  0.93514100  1
  O  O45  1  0.90688600  0.05784600  0.56485900  1
  O  O46  1  0.59311400  0.94215400  0.06485900  1
  O  O47  1  0.09311400  0.55784600  0.43514100  1
  O  O48  1  0.47287200  0.61848000  0.35938500  1
  O  O49  1  0.97287200  0.88152000  0.14061500  1
  O  O50  1  0.52712800  0.11848000  0.64061500  1
  O  O51  1  0.02712800  0.38152000  0.85938500  1
  O  O52  1  0.52712800  0.38152000  0.64061500  1
  O  O53  1  0.02712800  0.11848000  0.85938500  1
  O  O54  1  0.47287200  0.88152000  0.35938500  1
  O  O55  1  0.97287200  0.61848000  0.14061500  1
  O  O56  1  0.71274800  0.66029600  0.39027000  1
  O  O57  1  0.21274800  0.83970400  0.10973000  1
  O  O58  1  0.28725200  0.16029600  0.60973000  1
  O  O59  1  0.78725200  0.33970400  0.89027000  1
  O  O60  1  0.28725200  0.33970400  0.60973000  1
  O  O61  1  0.78725200  0.16029600  0.89027000  1
  O  O62  1  0.71274800  0.83970400  0.39027000  1
  O  O63  1  0.21274800  0.66029600  0.10973000  1
  O  O64  1  0.20353000  0.75000000  0.29409000  1
  O  O65  1  0.70353000  0.75000000  0.20591000  1
  O  O66  1  0.79647000  0.25000000  0.70591000  1
  O  O67  1  0.29647000  0.25000000  0.79409000  1
loop_
_geom_bond_atom_site_label_1
_geom_bond_atom_site_label_2
_geom_bond_distance
_geom_bond_site_symmetry_2
Cd0 O8 2.190623 1_555
Cd0 O23 2.286116 1_555
Cd0 O36 2.342631 1_556
Cd0 O40 2.366816 1_556
Cd0 O63 2.381596 1_556
Cd0 O48 2.419194 1_556
Cd1 O9 2.190623 1_655
Cd1 O22 2.286116 1_555
Cd1 O37 2.342631 1_555
Cd1 O41 2.366816 1_655
Cd1 O62 2.381596 1_555
Cd1 O49 2.419194 1_555
Cd2 O10 2.190623 1_555
Cd2 O21 2.286116 1_555
Cd2 O38 2.342631 1_554
Cd2 O42 2.366816 1_554
Cd2 O61 2.381596 1_554
Cd2 O50 2.419194 1_554
Cd3 O11 2.190623 1_455
Cd3 O20 2.286116 1_555
Cd3 O39 2.342631 1_555
Cd3 O43 2.366816 1_455
Cd3 O60 2.381596 1_555
Cd3 O51 2.419194 1_555
Cd4 O12 2.190623 1_555
Cd4 O19 2.286116 1_555
Cd4 O32 2.342631 1_554
Cd4 O44 2.366816 1_554
Cd4 O59 2.381596 1_554
Cd4 O52 2.419194 1_554
Cd5 O13 2.190623 1_455
Cd5 O18 2.286116 1_555
Cd5 O33 2.342631 1_555
Cd5 O45 2.366816 1_455
Cd5 O58 2.381596 1_555
Cd5 O53 2.419194 1_555
Cd6 O14 2.190623 1_555
Cd6 O17 2.286116 1_555
Cd6 O34 2.342631 1_556
Cd6 O46 2.366816 1_556
Cd6 O57 2.381596 1_556
Cd6 O54 2.419194 1_556
Cd7 O15 2.190623 1_655
Cd7 O16 2.286116 1_555
Cd7 O35 2.342631 1_555
Cd7 O47 2.366816 1_655
Cd7 O56 2.381596 1_555
Cd7 O55 2.419194 1_555
Cu0 O48 1.800714 1_555
Cu0 O24 1.898984 1_555
Cu0 O40 1.902670 1_555
Cu0 O35 1.913118 1_555
Cu0 O56 2.175567 1_555
Cu1 O49 1.800714 1_455
Cu1 O25 1.898984 1_554
Cu1 O41 1.902670 1_555
Cu1 O34 1.913118 1_555
Cu1 O57 2.175567 1_555
Cu2 O50 1.800714 1_555
Cu2 O26 1.898984 1_555
Cu2 O42 1.902670 1_555
Cu2 O33 1.913118 1_555
Cu2 O58 2.175567 1_555
Cu3 O51 1.800714 1_655
Cu3 O27 1.898984 1_556
Cu3 O43 1.902670 1_555
Cu3 O32 1.913118 1_555
Cu3 O59 2.175567 1_555
Cu4 O52 1.800714 1_555
Cu4 O28 1.898984 1_555
Cu4 O44 1.902670 1_555
Cu4 O39 1.913118 1_555
Cu4 O60 2.175567 1_555
Cu5 O53 1.800714 1_655
Cu5 O29 1.898984 1_556
Cu5 O45 1.902670 1_555
Cu5 O38 1.913118 1_555
Cu5 O61 2.175567 1_555
Cu6 O54 1.800714 1_555
Cu6 O30 1.898984 1_555
Cu6 O46 1.902670 1_555
Cu6 O37 1.913118 1_555
Cu6 O62 2.175567 1_555
Cu7 O55 1.800714 1_455
Cu7 O31 1.898984 1_554
Cu7 O47 1.902670 1_555
Cu7 O36 1.913118 1_555
Cu7 O63 2.175567 1_555
O0 S0 1.496912 1_555
O1 S1 1.496912 1_554
O2 S2 1.496912 1_555
O3 S3 1.496912 1_556
O4 S0 1.488920 1_555
O5 S1 1.488920 1_555
O6 S2 1.488920 1_555
O7 S3 1.488920 1_555
O8 S0 1.484500 1_555
O9 S1 1.484500 1_455
O10 S2 1.484500 1_555
O11 S3 1.484500 1_655
O12 S2 1.484500 1_555
O13 S3 1.484500 1_655
O14 S0 1.484500 1_555
O15 S1 1.484500 1_455
O16 P0 1.508857 1_555
O17 P1 1.508857 1_555
O18 P2 1.508857 1_555
O19 P3 1.508857 1_555
O20 P4 1.508857 1_555
O21 P5 1.508857 1_555
O22 P6 1.508857 1_555
O23 P7 1.508857 1_555
O24 P0 1.565492 1_555
O25 P1 1.565492 1_555
O26 P2 1.565492 1_555
O27 P3 1.565492 1_555
O28 P4 1.565492 1_555
O29 P5 1.565492 1_555
O30 P6 1.565492 1_555
O31 P7 1.565492 1_555
O32 P0 1.583748 1_555
O33 P1 1.583748 1_545
O34 P2 1.583748 1_565
O35 P3 1.583748 1_555
O36 P4 1.583748 1_555
O37 P5 1.583748 1_565
O38 P6 1.583748 1_545
O39 P7 1.583748 1_555
O40 P0 1.575690 1_554
O41 P1 1.575690 1_555
O42 P2 1.575690 1_556
O43 P3 1.575690 1_555
O44 P4 1.575690 1_556
O45 P5 1.575690 1_555
O46 P6 1.575690 1_554
O47 P7 1.575690 1_555
