# generated using pymatgen
data_Ba4CaGd3(Co4O11)2
_symmetry_space_group_name_H-M   'P 1'
_cell_length_a   7.69655600
_cell_length_b   8.82074340
_cell_length_c   8.57345067
_cell_angle_alpha   101.29302453
_cell_angle_beta   116.67055824
_cell_angle_gamma   64.13348912
_symmetry_Int_Tables_number   1
_chemical_formula_structural   Ba4CaGd3(Co4O11)2
_chemical_formula_sum   'Ba4 Ca1 Gd3 Co8 O22'
_cell_volume   468.00847183
_cell_formula_units_Z   1
loop_
 _symmetry_equiv_pos_site_id
 _symmetry_equiv_pos_as_xyz
  1  'x, y, z'
loop_
 _atom_site_type_symbol
 _atom_site_label
 _atom_site_symmetry_multiplicity
 _atom_site_fract_x
 _atom_site_fract_y
 _atom_site_fract_z
 _atom_site_occupancy
  Ba  Ba0  1  0.62657000  0.25000600  0.00314500  1
  Ba  Ba1  1  0.12342500  0.25000600  0.99685500  1
  Ba  Ba2  1  0.87440700  0.75239100  0.00120600  1
  Ba  Ba3  1  0.37320200  0.75239100  0.99879400  1
  Ca  Ca0  1  0.86580100  0.26839800  0.50000000  1
  Gd  Gd0  1  0.36368100  0.27263800  0.50000000  1
  Gd  Gd1  1  0.63856000  0.72288100  0.50000000  1
  Gd  Gd2  1  0.13765600  0.72468700  0.50000000  1
  Co  Co0  1  0.87011900  0.00074300  0.74065200  1
  Co  Co1  1  0.36978900  0.00074300  0.74065200  1
  Co  Co2  1  0.62946800  0.00074300  0.25934800  1
  Co  Co3  1  0.12913700  0.00074300  0.25934800  1
  Co  Co4  1  0.62733300  0.49584800  0.74853600  1
  Co  Co5  1  0.12535500  0.49584800  0.74853600  1
  Co  Co6  1  0.37879700  0.49584800  0.25146400  1
  Co  Co7  1  0.87681900  0.49584800  0.25146400  1
  O  O0  1  0.36236600  0.50079700  0.72552900  1
  O  O1  1  0.85983900  0.50667300  0.72635100  1
  O  O2  1  0.13683700  0.50079700  0.27447100  1
  O  O3  1  0.63348800  0.50667300  0.27364900  1
  O  O4  1  0.73169100  0.23647800  0.71077800  1
  O  O5  1  0.24261000  0.23647800  0.71077800  1
  O  O6  1  0.97196400  0.76198600  0.70659900  1
  O  O7  1  0.47264900  0.76198600  0.70659900  1
  O  O8  1  0.76536500  0.76198600  0.29340100  1
  O  O9  1  0.26605000  0.76198600  0.29340100  1
  O  O10  1  0.52091200  0.23647800  0.28922200  1
  O  O11  1  0.03183100  0.23647800  0.28922200  1
  O  O12  1  0.59273300  0.99964800  0.68511500  1
  O  O13  1  0.09620100  0.99745600  0.68985800  1
  O  O14  1  0.40761900  0.99964800  0.31488500  1
  O  O15  1  0.90634300  0.99745600  0.31014200  1
  O  O16  1  0.74941500  0.50117000  0.00000000  1
  O  O17  1  0.24941500  0.50117000  0.00000000  1
  O  O18  1  0.48900200  0.50505500  0.50000000  1
  O  O19  1  0.00594200  0.50505500  0.50000000  1
  O  O20  1  0.49880400  0.00239100  0.00000000  1
  O  O21  1  0.99880400  0.00239100  0.00000000  1
loop_
_geom_bond_atom_site_label_1
_geom_bond_atom_site_label_2
_geom_bond_distance
_geom_bond_site_symmetry_2
Ba0 O21 2.750521 1_555
Ba0 O20 2.750531 1_555
Ba0 O16 2.770721 1_555
Ba0 O17 2.770726 1_555
Ba0 O3 2.906012 1_555
Ba0 O0 2.913051 1_554
Ba0 O4 2.927635 1_554
Ba0 O5 2.927635 1_554
Ba0 O11 2.946331 1_655
Ba0 O10 2.946341 1_555
Ba0 O15 3.090278 1_545
Ba0 O12 3.144062 1_544
Ba1 O20 2.750521 1_556
Ba1 O21 2.750531 1_456
Ba1 O17 2.770721 1_556
Ba1 O16 2.770726 1_456
Ba1 O1 2.906012 1_455
Ba1 O2 2.913051 1_556
Ba1 O10 2.927630 1_556
Ba1 O11 2.927640 1_556
Ba1 O5 2.946336 1_555
Ba1 O4 2.946336 1_455
Ba1 O13 3.090278 1_545
Ba1 O14 3.144062 1_546
Ba2 O21 2.763994 1_565
Ba2 O20 2.763994 1_565
Ba2 O16 2.770957 1_555
Ba2 O17 2.770962 1_655
Ba2 O1 2.870133 1_554
Ba2 O2 2.893198 1_655
Ba2 O8 2.954571 1_555
Ba2 O9 2.954576 1_655
Ba2 O7 2.965177 1_554
Ba2 O6 2.965182 1_554
Ba2 O15 3.063540 1_555
Ba2 O12 3.117009 1_554
Ba3 O20 2.763989 1_566
Ba3 O21 2.763999 1_466
Ba3 O16 2.770957 1_556
Ba3 O17 2.770962 1_556
Ba3 O3 2.870133 1_556
Ba3 O0 2.893198 1_555
Ba3 O7 2.954571 1_555
Ba3 O6 2.954576 1_455
Ba3 O8 2.965177 1_556
Ba3 O9 2.965182 1_556
Ba3 O13 3.063540 1_555
Ba3 O14 3.117009 1_556
Ca0 O11 2.556874 1_655
Ca0 O4 2.556874 1_555
Ca0 O5 2.556880 1_655
Ca0 O10 2.556880 1_555
Ca0 O1 2.565897 1_555
Ca0 O3 2.565897 1_555
Ca0 O15 2.596198 1_545
Ca0 O13 2.596198 1_645
Ca0 O19 2.735986 1_655
Ca0 O18 2.735991 1_555
Gd0 O5 2.496475 1_555
Gd0 O10 2.496475 1_555
Gd0 O4 2.496481 1_555
Gd0 O11 2.496481 1_555
Gd0 O2 2.502954 1_555
Gd0 O0 2.502954 1_555
Gd0 O14 2.589601 1_545
Gd0 O12 2.589601 1_545
Gd0 O18 2.618891 1_555
Gd0 O19 2.618896 1_555
Gd1 O1 2.439679 1_555
Gd1 O3 2.439679 1_555
Gd1 O8 2.508739 1_555
Gd1 O6 2.508739 1_555
Gd1 O7 2.508745 1_555
Gd1 O9 2.508745 1_555
Gd1 O14 2.614735 1_555
Gd1 O12 2.614735 1_555
Gd1 O19 2.635613 1_655
Gd1 O18 2.635625 1_555
Gd2 O0 2.478550 1_555
Gd2 O2 2.478550 1_555
Gd2 O6 2.511049 1_455
Gd2 O8 2.511049 1_455
Gd2 O7 2.511055 1_555
Gd2 O9 2.511055 1_555
Gd2 O19 2.548435 1_555
Gd2 O18 2.548435 1_555
Gd2 O13 2.608222 1_555
Gd2 O15 2.608222 1_455
Co0 O4 1.885476 1_555
Co0 O6 1.912897 1_545
Co0 O13 1.962028 1_645
Co0 O12 1.971880 1_545
Co0 O21 1.986974 1_556
Co1 O5 1.885477 1_555
Co1 O7 1.912897 1_545
Co1 O13 1.962021 1_545
Co1 O12 1.971880 1_545
Co1 O20 1.986974 1_556
Co2 O10 1.885477 1_555
Co2 O8 1.912897 1_545
Co2 O15 1.962021 1_545
Co2 O14 1.971880 1_545
Co2 O20 1.986974 1_555
Co3 O11 1.885476 1_555
Co3 O9 1.912897 1_545
Co3 O15 1.962021 1_445
Co3 O14 1.971888 1_545
Co3 O21 1.986974 1_455
Co4 O18 1.906890 1_555
Co4 O1 1.925966 1_555
Co4 O16 1.927008 1_556
Co4 O0 1.940173 1_555
Co4 O4 2.079442 1_555
Co4 O7 2.136643 1_555
Co5 O19 1.906889 1_555
Co5 O1 1.925966 1_455
Co5 O17 1.927008 1_556
Co5 O0 1.940173 1_555
Co5 O5 2.079442 1_555
Co5 O6 2.136643 1_455
Co6 O18 1.906890 1_555
Co6 O3 1.925966 1_555
Co6 O17 1.927008 1_555
Co6 O2 1.940173 1_555
Co6 O10 2.079442 1_555
Co6 O9 2.136643 1_555
Co7 O19 1.906889 1_655
Co7 O3 1.925966 1_555
Co7 O16 1.927008 1_555
Co7 O2 1.940173 1_655
Co7 O11 2.079442 1_655
Co7 O8 2.136643 1_555
