# generated using pymatgen
data_CoHO2
_symmetry_space_group_name_H-M   'P 1'
_cell_length_a   4.86024604
_cell_length_b   5.23068306
_cell_length_c   6.04582591
_cell_angle_alpha   93.51127160
_cell_angle_beta   85.44654696
_cell_angle_gamma   111.51486479
_symmetry_Int_Tables_number   1
_chemical_formula_structural   CoHO2
_chemical_formula_sum   'Co4 H4 O8'
_cell_volume   142.45315534
_cell_formula_units_Z   4
loop_
 _symmetry_equiv_pos_site_id
 _symmetry_equiv_pos_as_xyz
  1  'x, y, z'
loop_
 _atom_site_type_symbol
 _atom_site_label
 _atom_site_symmetry_multiplicity
 _atom_site_fract_x
 _atom_site_fract_y
 _atom_site_fract_z
 _atom_site_occupancy
  Co  Co0  1  0.00240600  0.49659100  0.74999200  1
  Co  Co1  1  0.99813500  0.99140300  0.49740400  1
  Co  Co2  1  0.00153500  0.50819000  0.25258200  1
  Co  Co3  1  0.99787800  0.00373400  0.00002200  1
  H  H0  1  0.45554100  0.98562300  0.75526800  1
  H  H1  1  0.53872000  0.00929700  0.24283800  1
  H  H2  1  0.46001400  0.48984700  0.50694700  1
  H  H3  1  0.54523300  0.51518200  0.99479900  1
  O  O0  1  0.22374600  0.90128300  0.75616400  1
  O  O1  1  0.22143900  0.91768200  0.25108600  1
  O  O2  1  0.22696500  0.41281100  0.50389200  1
  O  O3  1  0.21330700  0.39833000  0.00771800  1
  O  O4  1  0.78694300  0.10194600  0.74226700  1
  O  O5  1  0.77240600  0.08660300  0.24584300  1
  O  O6  1  0.77888800  0.58222500  0.49912100  1
  O  O7  1  0.77684300  0.59925300  0.99405800  1
loop_
_geom_bond_atom_site_label_1
_geom_bond_atom_site_label_2
_geom_bond_distance
_geom_bond_site_symmetry_2
Co0 O2 1.900030 1_555
Co0 O7 1.935316 1_455
Co0 O4 1.941746 1_455
Co0 O0 1.991477 1_555
Co0 O6 2.093561 1_455
Co0 O3 2.116804 1_556
Co1 O1 1.877314 1_655
Co1 O4 1.915388 1_565
Co1 O6 2.011101 1_555
Co1 O2 2.072530 1_665
Co1 O5 2.126763 1_565
Co1 O0 2.147978 1_655
Co2 O6 1.877019 1_455
Co2 O3 1.915434 1_555
Co2 O1 2.012939 1_555
Co2 O5 2.073551 1_455
Co2 O2 2.125075 1_555
Co2 O7 2.146197 1_454
Co3 O5 1.899592 1_555
Co3 O0 1.934853 1_644
Co3 O3 1.941499 1_655
Co3 O7 1.990304 1_544
Co3 O1 2.095588 1_645
Co3 O4 2.116927 1_554
H0 O0 1.048148 1_555
H0 O4 1.495877 1_565
H1 O5 1.057984 1_555
H1 O1 1.434846 1_545
H2 O2 1.055132 1_555
H2 O6 1.442045 1_555
H3 O7 1.047335 1_555
H3 O3 1.498276 1_556
