# generated using pymatgen
data_PrBPt2
_symmetry_space_group_name_H-M   'P 1'
_cell_length_a   5.48631947
_cell_length_b   5.48631947
_cell_length_c   8.01239656
_cell_angle_alpha   90.00000000
_cell_angle_beta   90.00000000
_cell_angle_gamma   119.99999800
_symmetry_Int_Tables_number   1
_chemical_formula_structural   PrBPt2
_chemical_formula_sum   'Pr3 B3 Pt6'
_cell_volume   208.85999493
_cell_formula_units_Z   3
loop_
 _symmetry_equiv_pos_site_id
 _symmetry_equiv_pos_as_xyz
  1  'x, y, z'
loop_
 _atom_site_type_symbol
 _atom_site_label
 _atom_site_symmetry_multiplicity
 _atom_site_fract_x
 _atom_site_fract_y
 _atom_site_fract_z
 _atom_site_occupancy
  Pr  Pr0  1  0.50000000  0.00000000  0.50000000  1
  Pr  Pr1  1  0.00000000  0.50000000  0.16666700  1
  Pr  Pr2  1  0.50000000  0.50000000  0.83333300  1
  B  B0  1  0.50000000  0.00000000  0.00000000  1
  B  B1  1  0.00000000  0.50000000  0.66666700  1
  B  B2  1  0.50000000  0.50000000  0.33333300  1
  Pt  Pt0  1  0.15414880  0.30829761  0.50000000  1
  Pt  Pt1  1  0.69170239  0.84585120  0.16666700  1
  Pt  Pt2  1  0.84585120  0.69170239  0.50000000  1
  Pt  Pt3  1  0.30829761  0.15414880  0.16666700  1
  Pt  Pt4  1  0.15414880  0.84585120  0.83333300  1
  Pt  Pt5  1  0.84585120  0.15414880  0.83333300  1
loop_
_geom_bond_atom_site_label_1
_geom_bond_atom_site_label_2
_geom_bond_distance
_geom_bond_site_symmetry_2
Pr0 Pt0 3.109759 1_555
Pr0 Pt2 3.109759 1_545
Pr0 Pt2 3.109759 1_445
Pr0 Pt0 3.109759 1_655
Pr0 Pt1 3.137515 1_545
Pr0 Pt3 3.137515 1_555
Pr0 Pt5 3.137515 1_555
Pr0 Pt4 3.137515 1_545
Pr0 Pt2 3.286480 1_555
Pr0 Pt0 3.286480 1_545
Pr1 Pt1 3.109759 1_455
Pr1 Pt3 3.109759 1_555
Pr1 Pt1 3.109759 1_445
Pr1 Pt3 3.109759 1_565
Pr1 Pt2 3.137515 1_455
Pr1 Pt0 3.137515 1_555
Pr1 Pt5 3.137522 1_454
Pr1 Pt4 3.137522 1_554
Pr1 Pt1 3.286480 1_555
Pr1 Pt3 3.286480 1_455
Pr2 Pt4 3.109759 1_655
Pr2 Pt5 3.109759 1_565
Pr2 Pt4 3.109759 1_545
Pr2 Pt5 3.109759 1_455
Pr2 Pt0 3.137515 1_555
Pr2 Pt2 3.137515 1_555
Pr2 Pt3 3.137522 1_556
Pr2 Pt1 3.137522 1_556
Pr2 Pt4 3.286480 1_555
Pr2 Pt5 3.286480 1_555
B0 Pt3 2.119941 1_555
B0 Pt1 2.119941 1_545
B0 Pt5 2.119941 1_554
B0 Pt4 2.119941 1_544
B0 Pr2 3.050938 1_544
B0 Pr2 3.050938 1_554
B0 Pr1 3.050938 1_655
B0 Pr1 3.050938 1_545
B1 Pt4 2.119936 1_555
B1 Pt5 2.119936 1_455
B1 Pt2 2.119941 1_455
B1 Pt0 2.119941 1_555
B1 Pr2 3.050935 1_455
B1 Pr2 3.050935 1_555
B1 Pr0 3.050938 1_455
B1 Pr0 3.050938 1_565
B2 Pt1 2.119936 1_555
B2 Pt3 2.119936 1_555
B2 Pt2 2.119941 1_555
B2 Pt0 2.119941 1_555
B2 Pr1 3.050935 1_655
B2 Pr1 3.050935 1_555
B2 Pr0 3.050938 1_565
B2 Pr0 3.050938 1_555
