# generated using pymatgen
data_LaMgCrCoO6
_symmetry_space_group_name_H-M   'P 1'
_cell_length_a   5.37555700
_cell_length_b   5.31050400
_cell_length_c   9.39235778
_cell_angle_alpha   55.99041768
_cell_angle_beta   90.00000000
_cell_angle_gamma   90.00000000
_symmetry_Int_Tables_number   1
_chemical_formula_structural   LaMgCrCoO6
_chemical_formula_sum   'La2 Mg2 Cr2 Co2 O12'
_cell_volume   222.25884463
_cell_formula_units_Z   2
loop_
 _symmetry_equiv_pos_site_id
 _symmetry_equiv_pos_as_xyz
  1  'x, y, z'
loop_
 _atom_site_type_symbol
 _atom_site_label
 _atom_site_symmetry_multiplicity
 _atom_site_fract_x
 _atom_site_fract_y
 _atom_site_fract_z
 _atom_site_occupancy
  La  La0  1  0.28303200  0.75187200  0.24705600  1
  La  La1  1  0.71696800  0.75187200  0.74705600  1
  Mg  Mg0  1  0.80477600  0.23578900  0.24466800  1
  Mg  Mg1  1  0.19522400  0.23578900  0.74466800  1
  Cr  Cr0  1  0.24390700  0.99042500  0.49832700  1
  Cr  Cr1  1  0.75609300  0.99042500  0.99832700  1
  Co  Co0  1  0.25476200  0.48875600  0.00114500  1
  Co  Co1  1  0.74523800  0.48875600  0.50114500  1
  O  O0  1  0.80577900  0.31907900  0.75481400  1
  O  O1  1  0.00950700  0.16667800  0.05737700  1
  O  O2  1  0.02471000  0.77081700  0.45427900  1
  O  O3  1  0.54881800  0.26052600  0.05551100  1
  O  O4  1  0.54970900  0.88898700  0.44085100  1
  O  O5  1  0.27206000  0.62706800  0.74597500  1
  O  O6  1  0.19422100  0.31907900  0.25481400  1
  O  O7  1  0.99049300  0.16667800  0.55737700  1
  O  O8  1  0.97529000  0.77081700  0.95427900  1
  O  O9  1  0.45118200  0.26052600  0.55551100  1
  O  O10  1  0.45029100  0.88898700  0.94085100  1
  O  O11  1  0.72794000  0.62706800  0.24597500  1
loop_
_geom_bond_atom_site_label_1
_geom_bond_atom_site_label_2
_geom_bond_distance
_geom_bond_site_symmetry_2
La0 O6 2.308309 1_555
La0 O1 2.407934 1_565
La0 O2 2.438356 1_555
La0 O11 2.483301 1_555
La0 O3 2.671735 1_565
La0 O10 2.695785 1_554
La0 O4 2.716795 1_555
La0 O9 2.749962 1_555
La1 O0 2.308309 1_555
La1 O7 2.407934 1_565
La1 O8 2.438356 1_555
La1 O5 2.483301 1_555
La1 O9 2.671735 1_565
La1 O4 2.695785 1_555
La1 O10 2.716795 1_555
La1 O3 2.749962 1_556
Mg0 O11 2.125301 1_555
Mg0 O6 2.152800 1_655
Mg0 O3 2.192199 1_555
Mg0 O4 2.206999 1_545
Mg0 O1 2.272129 1_655
Mg0 O2 2.435710 1_645
Mg1 O5 2.125301 1_555
Mg1 O0 2.152800 1_455
Mg1 O9 2.192199 1_555
Mg1 O10 2.206999 1_545
Mg1 O7 2.272129 1_455
Mg1 O8 2.435710 1_445
Cr0 O2 1.859945 1_555
Cr0 O4 1.899784 1_555
Cr0 O7 1.902657 1_465
Cr0 O6 1.970551 1_565
Cr0 O5 2.033643 1_555
Cr0 O9 2.109309 1_565
Cr1 O8 1.859945 1_555
Cr1 O10 1.899784 1_555
Cr1 O1 1.902657 1_666
Cr1 O0 1.970551 1_565
Cr1 O11 2.033643 1_556
Cr1 O3 2.109309 1_566
Co0 O3 1.880440 1_555
Co0 O1 1.982925 1_555
Co0 O8 1.989170 1_454
Co0 O6 2.047630 1_555
Co0 O5 2.079140 1_554
Co0 O10 2.143932 1_554
Co1 O9 1.880440 1_555
Co1 O7 1.982925 1_555
Co1 O2 1.989170 1_655
Co1 O0 2.047630 1_555
Co1 O11 2.079140 1_555
Co1 O4 2.143932 1_555
