# generated using pymatgen
data_Ba2CaV2(P2O9)2
_symmetry_space_group_name_H-M   'P 1'
_cell_length_a   7.12031100
_cell_length_b   7.36892400
_cell_length_c   14.76335702
_cell_angle_alpha   76.69234072
_cell_angle_beta   90.00000000
_cell_angle_gamma   90.00000000
_symmetry_Int_Tables_number   1
_chemical_formula_structural   Ba2CaV2(P2O9)2
_chemical_formula_sum   'Ba4 Ca2 V4 P8 O36'
_cell_volume   753.81904743
_cell_formula_units_Z   2
loop_
 _symmetry_equiv_pos_site_id
 _symmetry_equiv_pos_as_xyz
  1  'x, y, z'
loop_
 _atom_site_type_symbol
 _atom_site_label
 _atom_site_symmetry_multiplicity
 _atom_site_fract_x
 _atom_site_fract_y
 _atom_site_fract_z
 _atom_site_occupancy
  Ba  Ba0  1  0.48640600  0.62883200  0.42970100  1
  Ba  Ba1  1  0.02391400  0.38579200  0.57200000  1
  Ba  Ba2  1  0.97608600  0.38579200  0.07200000  1
  Ba  Ba3  1  0.51359400  0.62883200  0.92970100  1
  Ca  Ca0  1  0.77234700  0.18494100  0.84250300  1
  Ca  Ca1  1  0.22765300  0.18494100  0.34250300  1
  V  V0  1  0.76564000  0.84051400  0.66683500  1
  V  V1  1  0.73372600  0.16333700  0.33141500  1
  V  V2  1  0.23436000  0.84051400  0.16683500  1
  V  V3  1  0.26627400  0.16333700  0.83141500  1
  P  P0  1  0.96866700  0.87158500  0.50045000  1
  P  P1  1  0.46477300  0.13057700  0.00135200  1
  P  P2  1  0.46672700  0.45692100  0.19429900  1
  P  P3  1  0.03133300  0.87158500  0.00045000  1
  P  P4  1  0.97149300  0.54435700  0.30397600  1
  P  P5  1  0.53327300  0.45692100  0.69429900  1
  P  P6  1  0.02850700  0.54435700  0.80397600  1
  P  P7  1  0.53522700  0.13057700  0.50135200  1
  O  O0  1  0.91484600  0.34716700  0.27928000  1
  O  O1  1  0.16087500  0.79200700  0.49128100  1
  O  O2  1  0.58543100  0.65552400  0.71152300  1
  O  O3  1  0.95043100  0.97867100  0.58298300  1
  O  O4  1  0.06541700  0.02934500  0.90856900  1
  O  O5  1  0.45803900  0.35222400  0.79510000  1
  O  O6  1  0.08515400  0.34716700  0.77928000  1
  O  O7  1  0.31033800  0.28006800  0.97788200  1
  O  O8  1  0.61213300  0.47744100  0.11841600  1
  O  O9  1  0.38786700  0.47744100  0.61841600  1
  O  O10  1  0.83912500  0.79200700  0.99128100  1
  O  O11  1  0.95750800  0.65678600  0.70643000  1
  O  O12  1  0.41456900  0.65552400  0.21152300  1
  O  O13  1  0.43014700  0.98324300  0.09235300  1
  O  O14  1  0.54196100  0.35222400  0.29510000  1
  O  O15  1  0.22749000  0.94573700  0.25362300  1
  O  O16  1  0.86517900  0.48449400  0.87273500  1
  O  O17  1  0.13482100  0.48449400  0.37273500  1
  O  O18  1  0.33626600  0.20889600  0.49320000  1
  O  O19  1  0.77251000  0.94573700  0.75362300  1
  O  O20  1  0.19034800  0.72543600  0.02524100  1
  O  O21  1  0.19256100  0.63646800  0.83793700  1
  O  O22  1  0.93458300  0.02934500  0.40856900  1
  O  O23  1  0.56985300  0.98324300  0.59235300  1
  O  O24  1  0.45005000  0.02423600  0.91602400  1
  O  O25  1  0.04249200  0.65678600  0.20643000  1
  O  O26  1  0.27765000  0.05432500  0.74947200  1
  O  O27  1  0.72235000  0.05432500  0.24947200  1
  O  O28  1  0.66373400  0.20889600  0.99320000  1
  O  O29  1  0.54995000  0.02423600  0.41602400  1
  O  O30  1  0.28778400  0.34949200  0.18355700  1
  O  O31  1  0.04956900  0.97867100  0.08298300  1
  O  O32  1  0.68966200  0.28006800  0.47788200  1
  O  O33  1  0.71221600  0.34949200  0.68355700  1
  O  O34  1  0.80965200  0.72543600  0.52524100  1
  O  O35  1  0.80743900  0.63646800  0.33793700  1
loop_
_geom_bond_atom_site_label_1
_geom_bond_atom_site_label_2
_geom_bond_distance
_geom_bond_site_symmetry_2
Ba0 O35 2.651139 1_555
Ba0 O9 2.840448 1_555
Ba0 O1 2.854498 1_555
Ba0 O34 2.873308 1_555
Ba0 O32 2.892039 1_555
Ba0 O29 2.909347 1_565
Ba0 O17 2.918451 1_555
Ba0 O14 3.181922 1_555
Ba0 O18 3.203434 1_555
Ba0 O12 3.222384 1_555
Ba1 O33 2.739869 1_455
Ba1 O9 2.802568 1_555
Ba1 O34 2.876233 1_455
Ba1 O18 2.949081 1_555
Ba1 O32 2.949627 1_455
Ba1 O17 2.970170 1_555
Ba1 O3 3.012702 1_445
Ba1 O6 3.038863 1_555
Ba1 O1 3.112750 1_555
Ba1 O11 3.158259 1_455
Ba2 O30 2.739869 1_655
Ba2 O8 2.802568 1_555
Ba2 O20 2.876233 1_655
Ba2 O28 2.949081 1_554
Ba2 O7 2.949627 1_654
Ba2 O16 2.970170 1_554
Ba2 O31 3.012702 1_645
Ba2 O0 3.038863 1_555
Ba2 O10 3.112750 1_554
Ba2 O25 3.158259 1_655
Ba3 O21 2.651139 1_555
Ba3 O8 2.840448 1_556
Ba3 O10 2.854498 1_555
Ba3 O20 2.873308 1_556
Ba3 O7 2.892039 1_555
Ba3 O24 2.909347 1_565
Ba3 O16 2.918451 1_555
Ba3 O5 3.181922 1_555
Ba3 O28 3.203434 1_555
Ba3 O2 3.222384 1_555
Ca0 O28 2.399947 1_555
Ca0 O33 2.418709 1_555
Ca0 O19 2.427671 1_545
Ca0 O16 2.441764 1_555
Ca0 O4 2.470961 1_655
Ca0 O5 2.573066 1_555
Ca0 O6 2.597573 1_655
Ca0 O24 2.693536 1_555
Ca1 O18 2.399947 1_555
Ca1 O30 2.418709 1_555
Ca1 O15 2.427671 1_545
Ca1 O17 2.441764 1_555
Ca1 O22 2.470961 1_455
Ca1 O14 2.573066 1_555
Ca1 O0 2.597573 1_455
Ca1 O29 2.693536 1_555
O0 P4 1.628172 1_555
O0 V1 1.900157 1_555
O1 P0 1.507232 1_455
O2 P5 1.586098 1_555
O2 V0 1.877751 1_555
O3 P0 1.602137 1_555
O3 V0 1.928732 1_555
O4 P3 1.588841 1_546
O4 V3 1.949351 1_555
O5 P5 1.602578 1_555
O5 V3 1.935370 1_555
O6 P6 1.628172 1_555
O6 V3 1.900157 1_555
O7 P1 1.538510 1_556
O8 P2 1.507264 1_555
O9 P5 1.507264 1_555
O10 P3 1.507232 1_656
O11 P6 1.570540 1_655
O11 V0 1.917484 1_555
O12 P2 1.586098 1_555
O12 V2 1.877751 1_555
O13 P1 1.540445 1_565
O13 V2 1.930370 1_555
O14 P2 1.602578 1_555
O14 V1 1.935370 1_555
O15 V2 1.643974 1_555
O16 P6 1.539917 1_655
O17 P4 1.539917 1_455
O18 P7 1.523982 1_555
O19 V0 1.643974 1_555
O20 P3 1.547353 1_555
O21 P6 1.494408 1_555
O22 P0 1.588841 1_545
O22 V1 1.949351 1_555
O23 P7 1.540445 1_565
O23 V0 1.930370 1_555
O24 P1 1.632913 1_556
O24 V3 1.932307 1_555
O25 P4 1.570540 1_455
O25 V2 1.917484 1_555
O26 V3 1.600854 1_555
O27 V1 1.600854 1_555
O28 P1 1.523982 1_556
O29 P7 1.632913 1_555
O29 V1 1.932307 1_555
O30 P2 1.527429 1_555
O31 P3 1.602137 1_555
O31 V2 1.928732 1_555
O32 P7 1.538510 1_555
O33 P5 1.527429 1_555
O34 P0 1.547353 1_555
O35 P4 1.494408 1_555
