# generated using pymatgen
data_LiSm4Ti2Mn2O12
_symmetry_space_group_name_H-M   'P 1'
_cell_length_a   5.47201328
_cell_length_b   6.01713042
_cell_length_c   7.89552360
_cell_angle_alpha   89.19587021
_cell_angle_beta   90.82431783
_cell_angle_gamma   91.50165249
_symmetry_Int_Tables_number   1
_chemical_formula_structural   LiSm4Ti2Mn2O12
_chemical_formula_sum   'Li1 Sm4 Ti2 Mn2 O12'
_cell_volume   259.82613791
_cell_formula_units_Z   1
loop_
 _symmetry_equiv_pos_site_id
 _symmetry_equiv_pos_as_xyz
  1  'x, y, z'
loop_
 _atom_site_type_symbol
 _atom_site_label
 _atom_site_symmetry_multiplicity
 _atom_site_fract_x
 _atom_site_fract_y
 _atom_site_fract_z
 _atom_site_occupancy
  Li  Li0  1  0.86147900  0.23666100  0.85714500  1
  Sm  Sm0  1  0.04571300  0.89660200  0.71516200  1
  Sm  Sm1  1  0.44523000  0.41970400  0.74840000  1
  Sm  Sm2  1  0.98421300  0.08316700  0.25546000  1
  Sm  Sm3  1  0.51640000  0.57290800  0.26381000  1
  Ti  Ti0  1  0.51356500  0.00301700  0.49591600  1
  Ti  Ti1  1  0.98413600  0.55150300  0.01979000  1
  Mn  Mn0  1  0.99307800  0.49049000  0.49882500  1
  Mn  Mn1  1  0.48439700  0.99696000  0.00050900  1
  O  O0  1  0.87431600  0.53154300  0.76933100  1
  O  O1  1  0.64112300  0.05150800  0.73958000  1
  O  O2  1  0.11836600  0.46034600  0.23595700  1
  O  O3  1  0.38330900  0.95188600  0.26153600  1
  O  O4  1  0.81336800  0.81782200  0.44878900  1
  O  O5  1  0.70955700  0.32505900  0.05772300  1
  O  O6  1  0.20551500  0.18480600  0.54440700  1
  O  O7  1  0.28800700  0.68158600  0.93784600  1
  O  O8  1  0.17711300  0.18095800  0.91981500  1
  O  O9  1  0.32729900  0.69016800  0.55534500  1
  O  O10  1  0.81004700  0.79712200  0.07670300  1
  O  O11  1  0.68626900  0.29493500  0.43128400  1
loop_
_geom_bond_atom_site_label_1
_geom_bond_atom_site_label_2
_geom_bond_distance
_geom_bond_site_symmetry_2
Li0 O8 1.827932 1_655
Li0 O1 1.866324 1_555
Li0 O5 1.888575 1_556
Li0 O0 1.895860 1_555
Mn0 O11 2.091853 1_555
Mn0 O9 2.205415 1_655
Mn0 O2 2.206481 1_655
Mn0 O6 2.223837 1_655
Mn0 O4 2.251870 1_555
Mn0 O0 2.260108 1_555
Mn1 O8 2.122721 1_564
Mn1 O3 2.153203 1_555
Mn1 O7 2.214698 1_554
Mn1 O10 2.245961 1_555
Mn1 O1 2.259342 1_564
Mn1 O5 2.345450 1_565
O0 Ti1 2.062708 1_556
O0 Sm0 2.401007 1_655
O0 Sm1 2.429455 1_555
O1 Ti0 2.059125 1_555
O1 Sm0 2.435753 1_645
O1 Sm1 2.488613 1_555
O2 Ti1 1.926688 1_455
O2 Sm3 2.272459 1_555
O2 Sm2 2.370550 1_455
O3 Ti0 1.998441 1_565
O3 Sm2 2.341340 1_465
O3 Sm3 2.411694 1_555
O4 Ti0 2.048549 1_565
O4 Sm2 2.376463 1_565
O4 Sm0 2.486738 1_655
O4 Sm3 2.609998 1_555
O5 Ti1 2.024333 1_555
O5 Sm3 2.487797 1_555
O5 Sm2 2.607308 1_555
O5 Sm1 2.878117 1_554
O6 Ti0 2.076410 1_555
O6 Sm0 2.340603 1_545
O6 Sm1 2.493677 1_555
O6 Sm2 2.639328 1_455
O7 Ti1 1.935108 1_456
O7 Sm1 2.373778 1_555
O7 Sm0 2.545973 1_555
O7 Sm3 2.918270 1_556
O8 Sm1 2.437219 1_555
O8 Sm0 2.456660 1_545
O8 Ti1 2.627953 1_456
O8 Sm2 2.913346 1_456
O9 Ti0 2.165890 1_565
O9 Sm1 2.312020 1_555
O9 Sm0 2.389476 1_555
O9 Sm3 2.649402 1_555
O10 Ti1 1.843475 1_555
O10 Sm2 2.409608 1_565
O10 Sm3 2.546223 1_555
O11 Ti0 2.034833 1_555
O11 Sm3 2.322523 1_555
O11 Sm2 2.536247 1_555
O11 Sm1 2.961754 1_555
