# generated using pymatgen
data_LiV2FeO7
_symmetry_space_group_name_H-M   'P 1'
_cell_length_a   13.66713499
_cell_length_b   8.30825222
_cell_length_c   14.59003274
_cell_angle_alpha   90.00000000
_cell_angle_beta   96.37761388
_cell_angle_gamma   90.00000000
_symmetry_Int_Tables_number   1
_chemical_formula_structural   LiV2FeO7
_chemical_formula_sum   'Li12 V24 Fe12 O84'
_cell_volume   1646.44563436
_cell_formula_units_Z   12
loop_
 _symmetry_equiv_pos_site_id
 _symmetry_equiv_pos_as_xyz
  1  'x, y, z'
loop_
 _atom_site_type_symbol
 _atom_site_label
 _atom_site_symmetry_multiplicity
 _atom_site_fract_x
 _atom_site_fract_y
 _atom_site_fract_z
 _atom_site_occupancy
  Li  Li0  1  0.63751386  0.67683272  0.71154997  1
  Li  Li1  1  0.63751386  0.32316728  0.21154997  1
  Li  Li2  1  0.13751386  0.17683272  0.71154997  1
  Li  Li3  1  0.13751386  0.82316728  0.21154997  1
  Li  Li4  1  0.33669208  0.30543510  0.03489156  1
  Li  Li5  1  0.33669208  0.69456490  0.53489156  1
  Li  Li6  1  0.83669208  0.80543510  0.03489156  1
  Li  Li7  1  0.83669208  0.19456490  0.53489156  1
  Li  Li8  1  0.52471346  0.18460134  0.37784256  1
  Li  Li9  1  0.52471346  0.81539866  0.87784256  1
  Li  Li10  1  0.02471346  0.68460134  0.37784256  1
  Li  Li11  1  0.02471346  0.31539866  0.87784256  1
  V  V0  1  0.42420087  0.02638793  0.17669129  1
  V  V1  1  0.42420087  0.97361207  0.67669129  1
  V  V2  1  0.92420087  0.52638793  0.17669129  1
  V  V3  1  0.92420087  0.47361207  0.67669129  1
  V  V4  1  0.70397843  0.96248290  0.35639324  1
  V  V5  1  0.70397843  0.03751710  0.85639324  1
  V  V6  1  0.20397843  0.46248290  0.35639324  1
  V  V7  1  0.20397843  0.53751710  0.85639324  1
  V  V8  1  0.57422816  0.45820987  0.51522919  1
  V  V9  1  0.57422816  0.54179013  0.01522919  1
  V  V10  1  0.07422816  0.95820987  0.51522919  1
  V  V11  1  0.07422816  0.04179013  0.01522919  1
  V  V12  1  0.62701937  0.95432087  0.56687094  1
  V  V13  1  0.62701937  0.04567913  0.06687094  1
  V  V14  1  0.12701937  0.45432087  0.56687094  1
  V  V15  1  0.12701937  0.54567913  0.06687094  1
  V  V16  1  0.27428444  0.97369084  0.40392181  1
  V  V17  1  0.27428444  0.02630916  0.90392181  1
  V  V18  1  0.77428444  0.47369084  0.40392181  1
  V  V19  1  0.77428444  0.52630916  0.90392181  1
  V  V20  1  0.40598014  0.45957986  0.24029335  1
  V  V21  1  0.40598014  0.54042014  0.74029335  1
  V  V22  1  0.90598014  0.95957986  0.24029335  1
  V  V23  1  0.90598014  0.04042014  0.74029335  1
  Fe  Fe0  1  0.49715244  0.79963504  0.36923666  1
  Fe  Fe1  1  0.49715244  0.20036496  0.86923666  1
  Fe  Fe2  1  0.99715244  0.29963504  0.36923666  1
  Fe  Fe3  1  0.99715244  0.70036496  0.86923666  1
  Fe  Fe4  1  0.85054175  0.82524932  0.54089400  1
  Fe  Fe5  1  0.85054175  0.17475068  0.04089400  1
  Fe  Fe6  1  0.35054175  0.32524932  0.54089400  1
  Fe  Fe7  1  0.35054175  0.67475068  0.04089400  1
  Fe  Fe8  1  0.70026600  0.30734015  0.71009173  1
  Fe  Fe9  1  0.70026600  0.69265985  0.21009173  1
  Fe  Fe10  1  0.20026600  0.80734015  0.71009173  1
  Fe  Fe11  1  0.20026600  0.19265985  0.21009173  1
  O  O0  1  0.47956858  0.32202552  0.48506473  1
  O  O1  1  0.47956858  0.67797448  0.98506473  1
  O  O2  1  0.97956858  0.82202552  0.48506473  1
  O  O3  1  0.97956858  0.17797448  0.98506473  1
  O  O4  1  0.32301688  0.15006380  0.14631596  1
  O  O5  1  0.32301688  0.84993620  0.64631596  1
  O  O6  1  0.82301688  0.65006380  0.14631596  1
  O  O7  1  0.82301688  0.34993620  0.64631596  1
  O  O8  1  0.23672741  0.99332031  0.28722938  1
  O  O9  1  0.23672741  0.00667969  0.78722938  1
  O  O10  1  0.73672741  0.49332031  0.28722938  1
  O  O11  1  0.73672741  0.50667969  0.78722938  1
  O  O12  1  0.39440452  0.48587889  0.12035967  1
  O  O13  1  0.39440452  0.51412111  0.62035967  1
  O  O14  1  0.89440452  0.98587889  0.12035967  1
  O  O15  1  0.89440452  0.01412111  0.62035967  1
  O  O16  1  0.42282196  0.64243123  0.29261199  1
  O  O17  1  0.42282196  0.35756877  0.79261199  1
  O  O18  1  0.92282196  0.14243123  0.29261199  1
  O  O19  1  0.92282196  0.85756877  0.79261199  1
  O  O20  1  0.29501409  0.16079271  0.44873119  1
  O  O21  1  0.29501409  0.83920729  0.94873119  1
  O  O22  1  0.79501409  0.66079271  0.44873119  1
  O  O23  1  0.79501409  0.33920729  0.94873119  1
  O  O24  1  0.52709908  0.88484558  0.62402270  1
  O  O25  1  0.52709908  0.11515442  0.12402270  1
  O  O26  1  0.02709908  0.38484558  0.62402270  1
  O  O27  1  0.02709908  0.61515442  0.12402270  1
  O  O28  1  0.62197840  0.79201308  0.30509886  1
  O  O29  1  0.62197840  0.20798692  0.80509886  1
  O  O30  1  0.12197840  0.29201308  0.30509886  1
  O  O31  1  0.12197840  0.70798692  0.80509886  1
  O  O32  1  0.59227521  0.96881140  0.44282631  1
  O  O33  1  0.59227521  0.03118860  0.94282631  1
  O  O34  1  0.09227521  0.46881140  0.44282631  1
  O  O35  1  0.09227521  0.53118860  0.94282631  1
  O  O36  1  0.67479310  0.13599955  0.30622879  1
  O  O37  1  0.67479310  0.86400045  0.80622879  1
  O  O38  1  0.17479310  0.63599955  0.30622879  1
  O  O39  1  0.17479310  0.36400045  0.80622879  1
  O  O40  1  0.66216270  0.13855735  0.60927135  1
  O  O41  1  0.66216270  0.86144265  0.10927135  1
  O  O42  1  0.16216270  0.63855735  0.60927135  1
  O  O43  1  0.16216270  0.36144265  0.10927135  1
  O  O44  1  0.67405207  0.38258068  0.45731417  1
  O  O45  1  0.67405207  0.61741932  0.95731417  1
  O  O46  1  0.17405207  0.88258068  0.45731417  1
  O  O47  1  0.17405207  0.11741932  0.95731417  1
  O  O48  1  0.29313439  0.37065225  0.27863763  1
  O  O49  1  0.29313439  0.62934775  0.77863763  1
  O  O50  1  0.79313439  0.87065225  0.27863763  1
  O  O51  1  0.79313439  0.12934775  0.77863763  1
  O  O52  1  0.50429377  0.34229483  0.27333634  1
  O  O53  1  0.50429377  0.65770517  0.77333634  1
  O  O54  1  0.00429377  0.84229483  0.27333634  1
  O  O55  1  0.00429377  0.15770517  0.77333634  1
  O  O56  1  0.45465289  0.00332984  0.29406903  1
  O  O57  1  0.45465289  0.99667016  0.79406903  1
  O  O58  1  0.95465289  0.50332984  0.29406903  1
  O  O59  1  0.95465289  0.49667016  0.79406903  1
  O  O60  1  0.54177753  0.64454749  0.47293773  1
  O  O61  1  0.54177753  0.35545251  0.97293773  1
  O  O62  1  0.04177753  0.14454749  0.47293773  1
  O  O63  1  0.04177753  0.85545251  0.97293773  1
  O  O64  1  0.40404052  0.84259906  0.12953045  1
  O  O65  1  0.40404052  0.15740094  0.62953045  1
  O  O66  1  0.90404052  0.34259906  0.12953045  1
  O  O67  1  0.90404052  0.65740094  0.62953045  1
  O  O68  1  0.78843556  -0.00164578  0.45440254  1
  O  O69  1  0.78843556  0.00164578  0.95440254  1
  O  O70  1  0.28843556  0.49835422  0.45440254  1
  O  O71  1  0.28843556  0.50164578  0.95440254  1
  O  O72  1  0.61418790  0.46420728  0.63309233  1
  O  O73  1  0.61418790  0.53579272  0.13309233  1
  O  O74  1  0.11418790  0.96420728  0.63309233  1
  O  O75  1  0.11418790  0.03579272  0.13309233  1
  O  O76  1  0.37632016  0.85229162  0.43449479  1
  O  O77  1  0.37632016  0.14770838  0.93449479  1
  O  O78  1  0.87632016  0.35229162  0.43449479  1
  O  O79  1  0.87632016  0.64770838  0.93449479  1
  O  O80  1  0.71810226  0.81730895  0.59723774  1
  O  O81  1  0.71810226  0.18269105  0.09723774  1
  O  O82  1  0.21810226  0.31730895  0.59723774  1
  O  O83  1  0.21810226  0.68269105  0.09723774  1
loop_
_geom_bond_atom_site_label_1
_geom_bond_atom_site_label_2
_geom_bond_distance
_geom_bond_site_symmetry_2
Li0 O37 2.104649 1_555
Li0 O72 2.109877 1_555
Li0 O53 2.125469 1_555
Li0 O11 2.173402 1_555
Li0 O80 2.401038 1_555
Li0 O24 2.542964 1_555
Li1 O36 2.104649 1_555
Li1 O73 2.109877 1_555
Li1 O52 2.125469 1_555
Li1 O10 2.173402 1_555
Li1 O81 2.401038 1_555
Li1 O25 2.542964 1_555
Li2 O39 2.104649 1_555
Li2 O74 2.109877 1_545
Li2 O55 2.125469 1_555
Li2 O9 2.173402 1_555
Li2 O82 2.401038 1_555
Li2 O26 2.542964 1_555
Li3 O38 2.104649 1_555
Li3 O75 2.109877 1_565
Li3 O54 2.125469 1_555
Li3 O8 2.173402 1_555
Li3 O83 2.401038 1_555
Li3 O27 2.542964 1_555
Li4 O12 2.050883 1_555
Li4 O71 2.073506 1_554
Li4 O77 2.081450 1_554
Li4 O4 2.100385 1_555
Li5 O13 2.050883 1_555
Li5 O70 2.073506 1_555
Li5 O76 2.081450 1_555
Li5 O5 2.100385 1_555
Li6 O14 2.050883 1_555
Li6 O69 2.073506 1_564
Li6 O79 2.081450 1_554
Li6 O6 2.100385 1_555
Li7 O15 2.050883 1_555
Li7 O68 2.073506 1_555
Li7 O78 2.081450 1_555
Li7 O7 2.100385 1_555
Li8 O52 2.006171 1_555
Li8 O0 2.084706 1_555
Li8 O56 2.102131 1_555
Li8 O32 2.184334 1_545
Li8 O36 2.436829 1_555
Li9 O53 2.006171 1_555
Li9 O1 2.084706 1_555
Li9 O57 2.102131 1_555
Li9 O33 2.184334 1_565
Li9 O37 2.436829 1_555
Li10 O54 2.006171 1_555
Li10 O2 2.084706 1_455
Li10 O58 2.102131 1_455
Li10 O34 2.184334 1_555
Li10 O38 2.436829 1_555
Li11 O55 2.006171 1_555
Li11 O3 2.084706 1_455
Li11 O59 2.102131 1_455
Li11 O35 2.184334 1_555
Li11 O39 2.436829 1_555
Fe0 O16 1.932720 1_555
Fe0 O60 2.028890 1_555
Fe0 O28 2.035885 1_555
Fe0 O76 2.043150 1_555
Fe0 O56 2.064619 1_565
Fe0 O32 2.123304 1_555
Fe1 O17 1.932720 1_555
Fe1 O61 2.028890 1_555
Fe1 O29 2.035885 1_555
Fe1 O77 2.043150 1_555
Fe1 O57 2.064619 1_545
Fe1 O33 2.123304 1_555
Fe2 O18 1.932720 1_555
Fe2 O62 2.028890 1_655
Fe2 O30 2.035885 1_655
Fe2 O78 2.043150 1_555
Fe2 O58 2.064619 1_555
Fe2 O34 2.123304 1_655
Fe3 O19 1.932720 1_555
Fe3 O63 2.028890 1_655
Fe3 O31 2.035885 1_655
Fe3 O79 2.043150 1_555
Fe3 O59 2.064619 1_555
Fe3 O35 2.123304 1_655
Fe4 O67 1.985357 1_555
Fe4 O15 2.002888 1_565
Fe4 O22 2.006050 1_555
Fe4 O2 2.023116 1_555
Fe4 O68 2.035525 1_565
Fe4 O80 2.070519 1_555
Fe5 O66 1.985357 1_555
Fe5 O14 2.002888 1_545
Fe5 O23 2.006050 1_554
Fe5 O3 2.023116 1_554
Fe5 O69 2.035525 1_554
Fe5 O81 2.070519 1_555
Fe6 O65 1.985357 1_555
Fe6 O13 2.002888 1_555
Fe6 O20 2.006050 1_555
Fe6 O0 2.023116 1_555
Fe6 O70 2.035525 1_555
Fe6 O82 2.070519 1_555
Fe7 O64 1.985357 1_555
Fe7 O12 2.002888 1_555
Fe7 O21 2.006050 1_554
Fe7 O1 2.023116 1_554
Fe7 O71 2.035525 1_554
Fe7 O83 2.070519 1_555
Fe8 O72 2.012721 1_555
Fe8 O29 2.019190 1_555
Fe8 O11 2.033033 1_555
Fe8 O7 2.037739 1_555
Fe8 O40 2.056986 1_555
Fe8 O51 2.125093 1_555
Fe9 O73 2.012721 1_555
Fe9 O28 2.019190 1_555
Fe9 O10 2.033033 1_555
Fe9 O6 2.037739 1_555
Fe9 O41 2.056986 1_555
Fe9 O50 2.125093 1_555
Fe10 O74 2.012721 1_555
Fe10 O31 2.019190 1_555
Fe10 O9 2.033033 1_565
Fe10 O5 2.037739 1_555
Fe10 O42 2.056986 1_555
Fe10 O49 2.125093 1_555
Fe11 O75 2.012721 1_555
Fe11 O30 2.019190 1_555
Fe11 O8 2.033033 1_545
Fe11 O4 2.037739 1_555
Fe11 O43 2.056986 1_555
Fe11 O48 2.125093 1_555
O0 V8 1.738134 1_555
O1 V9 1.738134 1_556
O2 V10 1.738134 1_655
O3 V11 1.738134 1_656
O4 V0 1.740249 1_555
O5 V1 1.740249 1_555
O6 V2 1.740249 1_555
O7 V3 1.740249 1_555
O8 V16 1.730487 1_555
O9 V17 1.730487 1_555
O10 V18 1.730487 1_555
O11 V19 1.730487 1_555
O12 V20 1.753053 1_555
O13 V21 1.753053 1_555
O14 V22 1.753053 1_555
O15 V23 1.753053 1_555
O16 V20 1.704264 1_555
O17 V21 1.704264 1_555
O18 V22 1.704264 1_545
O19 V23 1.704264 1_565
O20 V16 1.697931 1_545
O21 V17 1.697931 1_565
O22 V18 1.697931 1_555
O23 V19 1.697931 1_555
O24 V12 1.773806 1_555
O24 V1 1.830907 1_555
O25 V13 1.773806 1_555
O25 V0 1.830907 1_555
O26 V14 1.773806 1_555
O26 V3 1.830907 1_455
O27 V15 1.773806 1_555
O27 V2 1.830907 1_455
O28 V4 1.906739 1_555
O29 V5 1.906739 1_555
O30 V6 1.906739 1_555
O31 V7 1.906739 1_555
O32 V12 1.823317 1_555
O32 V4 2.086013 1_555
O33 V13 1.823317 1_556
O33 V5 2.086013 1_555
O34 V14 1.823317 1_555
O34 V6 2.086013 1_555
O35 V15 1.823317 1_556
O35 V7 2.086013 1_555
O36 V4 1.645659 1_545
O37 V5 1.645659 1_565
O38 V6 1.645659 1_555
O39 V7 1.645659 1_555
O40 V12 1.700109 1_545
O41 V13 1.700109 1_565
O42 V14 1.700109 1_555
O43 V15 1.700109 1_555
O44 V8 1.796179 1_555
O44 V18 1.814802 1_555
O45 V9 1.796179 1_556
O45 V19 1.814802 1_555
O46 V10 1.796179 1_555
O46 V16 1.814802 1_555
O47 V11 1.796179 1_556
O47 V17 1.814802 1_555
O48 V20 1.851799 1_555
O48 V6 1.913361 1_555
O49 V21 1.851799 1_555
O49 V7 1.913361 1_555
O50 V22 1.851799 1_555
O50 V4 1.913361 1_555
O51 V23 1.851799 1_555
O51 V5 1.913361 1_555
O52 V20 1.686258 1_555
O53 V21 1.686258 1_555
O54 V22 1.686258 1_455
O55 V23 1.686258 1_455
O56 V0 1.727536 1_555
O57 V1 1.727536 1_555
O58 V2 1.727536 1_555
O59 V3 1.727536 1_555
O60 V8 1.706860 1_555
O61 V9 1.706860 1_556
O62 V10 1.706860 1_545
O63 V11 1.706860 1_566
O64 V0 1.684895 1_565
O65 V1 1.684895 1_545
O66 V2 1.684895 1_555
O67 V3 1.684895 1_555
O68 V4 1.760479 1_545
O69 V5 1.760479 1_555
O70 V6 1.760479 1_555
O71 V7 1.760479 1_555
O72 V8 1.746202 1_555
O73 V9 1.746202 1_555
O74 V10 1.746202 1_555
O75 V11 1.746202 1_555
O76 V16 1.738623 1_555
O77 V17 1.738623 1_555
O78 V18 1.738623 1_555
O79 V19 1.738623 1_555
O80 V12 1.708565 1_555
O81 V13 1.708565 1_555
O82 V14 1.708565 1_555
O83 V15 1.708565 1_555
