# generated using pymatgen
data_YbCrO5
_symmetry_space_group_name_H-M   'P 1'
_cell_length_a   11.34176700
_cell_length_b   8.47002300
_cell_length_c   11.87036675
_cell_angle_alpha   45.54829203
_cell_angle_beta   90.00000000
_cell_angle_gamma   90.00000000
_symmetry_Int_Tables_number   1
_chemical_formula_structural   YbCrO5
_chemical_formula_sum   'Yb8 Cr8 O40'
_cell_volume   814.01219677
_cell_formula_units_Z   8
loop_
 _symmetry_equiv_pos_site_id
 _symmetry_equiv_pos_as_xyz
  1  'x, y, z'
loop_
 _atom_site_type_symbol
 _atom_site_label
 _atom_site_symmetry_multiplicity
 _atom_site_fract_x
 _atom_site_fract_y
 _atom_site_fract_z
 _atom_site_occupancy
  Yb  Yb0  1  0.06250900  0.19911700  0.66648800  1
  Yb  Yb1  1  0.56250900  0.80088300  0.83351200  1
  Yb  Yb2  1  0.93749100  0.80088300  0.33351200  1
  Yb  Yb3  1  0.43749100  0.19911700  0.16648800  1
  Yb  Yb4  1  0.08315600  0.73702900  0.69660300  1
  Yb  Yb5  1  0.58315600  0.26297100  0.80339700  1
  Yb  Yb6  1  0.91684400  0.26297100  0.30339700  1
  Yb  Yb7  1  0.41684400  0.73702900  0.19660300  1
  Cr  Cr0  1  0.32467300  0.13404400  0.50074300  1
  Cr  Cr1  1  0.82467300  0.86595600  0.99925700  1
  Cr  Cr2  1  0.67532700  0.86595600  0.49925700  1
  Cr  Cr3  1  0.17532700  0.13404400  0.00074300  1
  Cr  Cr4  1  0.30717900  0.60095100  0.54073400  1
  Cr  Cr5  1  0.80717900  0.39904900  0.95926600  1
  Cr  Cr6  1  0.69282100  0.39904900  0.45926600  1
  Cr  Cr7  1  0.19282100  0.60095100  0.04073400  1
  O  O0  1  0.18387500  0.08446200  0.57161300  1
  O  O1  1  0.68387500  0.91553800  0.92838700  1
  O  O2  1  0.81612500  0.91553800  0.42838700  1
  O  O3  1  0.31612500  0.08446200  0.07161300  1
  O  O4  1  0.36802500  0.37964100  0.42030900  1
  O  O5  1  0.86802500  0.62035900  0.07969100  1
  O  O6  1  0.63197500  0.62035900  0.57969100  1
  O  O7  1  0.13197500  0.37964100  0.92030900  1
  O  O8  1  0.33138100  0.13099100  0.36380300  1
  O  O9  1  0.83138100  0.86900900  0.13619700  1
  O  O10  1  0.66861900  0.86900900  0.63619700  1
  O  O11  1  0.16861900  0.13099100  0.86380300  1
  O  O12  1  0.41150600  0.94488100  0.65382700  1
  O  O13  1  0.91150600  0.05511900  0.84617300  1
  O  O14  1  0.58849400  0.05511900  0.34617300  1
  O  O15  1  0.08849400  0.94488100  0.15382700  1
  O  O16  1  0.25834100  0.70956500  0.60439100  1
  O  O17  1  0.75834100  0.29043500  0.89560900  1
  O  O18  1  0.74165900  0.29043500  0.39560900  1
  O  O19  1  0.24165900  0.70956500  0.10439100  1
  O  O20  1  0.37804000  0.79183200  0.36663000  1
  O  O21  1  0.87804000  0.20816800  0.13337000  1
  O  O22  1  0.62196000  0.20816800  0.63337000  1
  O  O23  1  0.12196000  0.79183200  0.86663000  1
  O  O24  1  0.18842400  0.50177600  0.51977300  1
  O  O25  1  0.68842400  0.49822400  0.98022700  1
  O  O26  1  0.81157600  0.49822400  0.48022700  1
  O  O27  1  0.31157600  0.50177600  0.01977300  1
  O  O28  1  0.40049600  0.40076300  0.67345000  1
  O  O29  1  0.90049600  0.59923700  0.82655000  1
  O  O30  1  0.59950400  0.59923700  0.32655000  1
  O  O31  1  0.09950400  0.40076300  0.17345000  1
  O  O32  1  0.96699400  0.07070100  0.56437800  1
  O  O33  1  0.46699400  0.92929900  0.93562200  1
  O  O34  1  0.03300600  0.92929900  0.43562200  1
  O  O35  1  0.53300600  0.07070100  0.06437800  1
  O  O36  1  0.98199900  0.43244400  0.40195300  1
  O  O37  1  0.48199900  0.56755600  0.09804700  1
  O  O38  1  0.01800100  0.56755600  0.59804700  1
  O  O39  1  0.51800100  0.43244400  0.90195300  1
loop_
_geom_bond_atom_site_label_1
_geom_bond_atom_site_label_2
_geom_bond_distance
_geom_bond_site_symmetry_2
Cr0 O4 1.642808 1_555
Cr0 O8 1.645501 1_555
Cr0 O12 1.661689 1_545
Cr0 O0 1.714447 1_555
Cr1 O5 1.642808 1_556
Cr1 O9 1.645501 1_556
Cr1 O13 1.661689 1_565
Cr1 O1 1.714447 1_555
Cr2 O6 1.642808 1_555
Cr2 O10 1.645501 1_555
Cr2 O14 1.661689 1_565
Cr2 O2 1.714447 1_555
Cr3 O7 1.642808 1_554
Cr3 O11 1.645501 1_554
Cr3 O15 1.661689 1_545
Cr3 O3 1.714447 1_555
Cr4 O16 1.642489 1_555
Cr4 O28 1.653997 1_555
Cr4 O20 1.688514 1_555
Cr4 O24 1.695403 1_555
Cr5 O17 1.642489 1_555
Cr5 O29 1.653997 1_555
Cr5 O21 1.688514 1_556
Cr5 O25 1.695403 1_555
Cr6 O18 1.642489 1_555
Cr6 O30 1.653997 1_555
Cr6 O22 1.688514 1_555
Cr6 O26 1.695403 1_555
Cr7 O19 1.642489 1_555
Cr7 O31 1.653997 1_555
Cr7 O23 1.688514 1_554
Cr7 O27 1.695403 1_555
O0 Yb0 2.374453 1_555
O0 Yb4 2.459846 1_545
O1 Yb1 2.374453 1_555
O1 Yb5 2.459846 1_565
O2 Yb2 2.374453 1_555
O2 Yb6 2.459846 1_565
O3 Yb3 2.374453 1_555
O3 Yb7 2.459846 1_545
O4 Yb7 2.294063 1_555
O5 Yb6 2.294063 1_555
O6 Yb5 2.294063 1_555
O7 Yb4 2.294063 1_555
O8 Yb3 2.318246 1_555
O9 Yb2 2.318246 1_555
O10 Yb1 2.318246 1_555
O11 Yb0 2.318246 1_555
O12 Yb1 2.307912 1_555
O13 Yb0 2.307912 1_655
O14 Yb3 2.307912 1_555
O15 Yb2 2.307912 1_455
O16 Yb4 2.357259 1_555
O17 Yb5 2.357259 1_555
O18 Yb6 2.357259 1_555
O19 Yb7 2.357259 1_555
O20 Yb7 2.407238 1_555
O20 Yb3 2.553507 1_565
O21 Yb6 2.407238 1_555
O21 Yb2 2.553507 1_545
O22 Yb5 2.407238 1_555
O22 Yb1 2.553507 1_545
O23 Yb4 2.407238 1_555
O23 Yb0 2.553507 1_565
O24 Yb0 2.321868 1_555
O25 Yb1 2.321868 1_555
O26 Yb2 2.321868 1_555
O27 Yb3 2.321868 1_555
O28 Yb5 2.347740 1_555
O29 Yb4 2.347740 1_655
O30 Yb7 2.347740 1_555
O31 Yb6 2.347740 1_455
O32 Yb6 2.346622 1_555
O32 Yb0 2.381657 1_655
O32 Yb4 2.444124 1_645
O33 Yb7 2.346622 1_556
O33 Yb1 2.381657 1_555
O33 Yb5 2.444124 1_565
O34 Yb4 2.346622 1_555
O34 Yb2 2.381657 1_455
O34 Yb6 2.444124 1_465
O35 Yb5 2.346622 1_554
O35 Yb3 2.381657 1_555
O35 Yb7 2.444124 1_545
O36 Yb0 2.430633 1_655
O36 Yb6 2.515413 1_555
O36 Yb2 2.665060 1_555
O37 Yb1 2.430633 1_554
O37 Yb7 2.515413 1_555
O37 Yb3 2.665060 1_555
O38 Yb2 2.430633 1_455
O38 Yb4 2.515413 1_555
O38 Yb0 2.665060 1_555
O39 Yb3 2.430633 1_556
O39 Yb5 2.515413 1_555
O39 Yb1 2.665060 1_555
