# generated using pymatgen
data_Sc5Ge4
_symmetry_space_group_name_H-M   'P 1'
_cell_length_a   7.23318329
_cell_length_b   7.17416486
_cell_length_c   13.78569667
_cell_angle_alpha   90.00000000
_cell_angle_beta   90.00000000
_cell_angle_gamma   90.00000000
_symmetry_Int_Tables_number   1
_chemical_formula_structural   Sc5Ge4
_chemical_formula_sum   'Sc20 Ge16'
_cell_volume   715.36805241
_cell_formula_units_Z   4
loop_
 _symmetry_equiv_pos_site_id
 _symmetry_equiv_pos_as_xyz
  1  'x, y, z'
loop_
 _atom_site_type_symbol
 _atom_site_label
 _atom_site_symmetry_multiplicity
 _atom_site_fract_x
 _atom_site_fract_y
 _atom_site_fract_z
 _atom_site_occupancy
  Sc  Sc0  1  0.16122371  0.62066509  0.11925826  1
  Sc  Sc1  1  0.33877629  0.12066509  0.38074174  1
  Sc  Sc2  1  0.83877629  0.37933491  0.61925826  1
  Sc  Sc3  1  0.66122371  0.87933491  0.88074174  1
  Sc  Sc4  1  0.83877629  0.37933491  0.88074174  1
  Sc  Sc5  1  0.66122371  0.87933491  0.61925826  1
  Sc  Sc6  1  0.16122371  0.62066509  0.38074174  1
  Sc  Sc7  1  0.33877629  0.12066509  0.11925826  1
  Sc  Sc8  1  0.67637443  0.46792100  0.10045103  1
  Sc  Sc9  1  0.82362557  0.96792100  0.39954897  1
  Sc  Sc10  1  0.32362557  0.53207900  0.60045103  1
  Sc  Sc11  1  0.17637443  0.03207900  0.89954897  1
  Sc  Sc12  1  0.32362557  0.53207900  0.89954897  1
  Sc  Sc13  1  0.17637443  0.03207900  0.60045103  1
  Sc  Sc14  1  0.67637443  0.46792100  0.39954897  1
  Sc  Sc15  1  0.82362557  0.96792100  0.10045103  1
  Sc  Sc16  1  0.49708045  0.78739387  0.25000000  1
  Sc  Sc17  1  0.00291955  0.28739387  0.25000000  1
  Sc  Sc18  1  0.50291955  0.21260613  0.75000000  1
  Sc  Sc19  1  0.99708045  0.71260613  0.75000000  1
  Ge  Ge0  1  0.96762100  0.71944805  0.95688369  1
  Ge  Ge1  1  0.53237900  0.21944805  0.54311631  1
  Ge  Ge2  1  0.03237900  0.28055195  0.45688369  1
  Ge  Ge3  1  0.46762100  0.78055195  0.04311631  1
  Ge  Ge4  1  0.03237900  0.28055195  0.04311631  1
  Ge  Ge5  1  0.46762100  0.78055195  0.45688369  1
  Ge  Ge6  1  0.96762100  0.71944805  0.54311631  1
  Ge  Ge7  1  0.53237900  0.21944805  0.95688369  1
  Ge  Ge8  1  0.38099265  0.42035917  0.25000000  1
  Ge  Ge9  1  0.11900735  0.92035917  0.25000000  1
  Ge  Ge10  1  0.61900735  0.57964083  0.75000000  1
  Ge  Ge11  1  0.88099265  0.07964083  0.75000000  1
  Ge  Ge12  1  0.85858639  0.65979444  0.25000000  1
  Ge  Ge13  1  0.64141361  0.15979444  0.25000000  1
  Ge  Ge14  1  0.14141361  0.34020556  0.75000000  1
  Ge  Ge15  1  0.35858639  0.84020556  0.75000000  1
loop_
_geom_bond_atom_site_label_1
_geom_bond_atom_site_label_2
_geom_bond_distance
_geom_bond_site_symmetry_2
Ge0 Sc3 2.707251 1_555
Ge0 Sc0 2.733843 1_656
Ge0 Sc4 2.814975 1_555
Ge0 Sc11 2.816937 1_665
Ge0 Sc15 2.859994 1_556
Ge0 Sc19 2.860406 1_555
Ge0 Sc12 3.010401 1_655
Ge0 Sc8 3.407532 1_556
Ge1 Sc2 2.707251 1_555
Ge1 Sc1 2.733843 1_555
Ge1 Sc5 2.814975 1_545
Ge1 Sc10 2.816937 1_555
Ge1 Sc14 2.859994 1_555
Ge1 Sc18 2.860406 1_555
Ge1 Sc13 3.010401 1_555
Ge1 Sc9 3.407532 1_545
Ge2 Sc1 2.707251 1_555
Ge2 Sc2 2.733843 1_455
Ge2 Sc6 2.814975 1_555
Ge2 Sc9 2.816937 1_445
Ge2 Sc13 2.859994 1_555
Ge2 Sc17 2.860406 1_555
Ge2 Sc14 3.010401 1_455
Ge2 Sc10 3.407532 1_555
Ge3 Sc0 2.707251 1_555
Ge3 Sc3 2.733843 1_554
Ge3 Sc7 2.814975 1_565
Ge3 Sc8 2.816937 1_555
Ge3 Sc12 2.859994 1_554
Ge3 Sc16 2.860406 1_555
Ge3 Sc15 3.010401 1_555
Ge3 Sc11 3.407532 1_564
Ge4 Sc7 2.707251 1_555
Ge4 Sc4 2.733843 1_454
Ge4 Sc0 2.814975 1_555
Ge4 Sc15 2.816937 1_445
Ge4 Sc11 2.859994 1_554
Ge4 Sc17 2.860406 1_555
Ge4 Sc8 3.010401 1_455
Ge4 Sc12 3.407532 1_554
Ge5 Sc6 2.707251 1_555
Ge5 Sc5 2.733843 1_555
Ge5 Sc1 2.814975 1_565
Ge5 Sc14 2.816937 1_555
Ge5 Sc10 2.859994 1_555
Ge5 Sc16 2.860406 1_555
Ge5 Sc9 3.010401 1_555
Ge5 Sc13 3.407532 1_565
Ge6 Sc5 2.707251 1_555
Ge6 Sc6 2.733843 1_655
Ge6 Sc2 2.814975 1_555
Ge6 Sc13 2.816937 1_665
Ge6 Sc9 2.859994 1_555
Ge6 Sc19 2.860406 1_555
Ge6 Sc10 3.010401 1_655
Ge6 Sc14 3.407532 1_555
Ge7 Sc4 2.707251 1_555
Ge7 Sc7 2.733843 1_556
Ge7 Sc3 2.814975 1_545
Ge7 Sc12 2.816937 1_555
Ge7 Sc8 2.859994 1_556
Ge7 Sc18 2.860406 1_555
Ge7 Sc11 3.010401 1_555
Ge7 Sc15 3.407532 1_546
Ge8 Sc16 2.763809 1_555
Ge8 Sc0 2.800088 1_555
Ge8 Sc6 2.800088 1_555
Ge8 Sc1 2.822145 1_555
Ge8 Sc7 2.822145 1_555
Ge8 Sc17 2.896271 1_555
Ge8 Sc8 2.988582 1_555
Ge8 Sc14 2.988582 1_555
Ge9 Sc17 2.763809 1_565
Ge9 Sc1 2.800088 1_565
Ge9 Sc7 2.800088 1_565
Ge9 Sc0 2.822145 1_555
Ge9 Sc6 2.822145 1_555
Ge9 Sc16 2.896271 1_555
Ge9 Sc9 2.988582 1_455
Ge9 Sc15 2.988582 1_455
Ge10 Ge15 2.653796 1_555
Ge10 Sc18 2.763809 1_555
Ge10 Sc2 2.800088 1_555
Ge10 Sc4 2.800088 1_555
Ge10 Sc5 2.822145 1_555
Ge10 Sc3 2.822145 1_555
Ge10 Sc19 2.896271 1_555
Ge10 Sc10 2.988582 1_555
Ge10 Sc12 2.988582 1_555
Ge11 Ge14 2.653796 1_655
Ge11 Sc19 2.763809 1_545
Ge11 Sc5 2.800088 1_545
Ge11 Sc3 2.800088 1_545
Ge11 Sc2 2.822145 1_555
Ge11 Sc4 2.822145 1_555
Ge11 Sc18 2.896271 1_555
Ge11 Sc11 2.988582 1_655
Ge11 Sc13 2.988582 1_655
Ge12 Ge9 2.653796 1_655
Ge12 Sc16 2.770447 1_555
Ge12 Sc8 2.807532 1_555
Ge12 Sc14 2.807532 1_555
Ge12 Sc0 2.849418 1_655
Ge12 Sc6 2.849418 1_655
Ge12 Sc17 2.868396 1_655
Ge12 Sc9 3.033287 1_555
Ge12 Sc15 3.033287 1_555
Ge13 Ge8 2.653796 1_555
Ge13 Sc17 2.770447 1_655
Ge13 Sc9 2.807532 1_545
Ge13 Sc15 2.807532 1_545
Ge13 Sc7 2.849418 1_555
Ge13 Sc1 2.849418 1_555
Ge13 Sc16 2.868396 1_545
Ge13 Sc14 3.033287 1_555
Ge13 Sc8 3.033287 1_555
Ge14 Sc18 2.770447 1_555
Ge14 Sc10 2.807532 1_555
Ge14 Sc12 2.807532 1_555
Ge14 Sc2 2.849418 1_455
Ge14 Sc4 2.849418 1_455
Ge14 Sc19 2.868396 1_455
Ge14 Sc11 3.033287 1_555
Ge14 Sc13 3.033287 1_555
Ge15 Sc19 2.770447 1_455
Ge15 Sc11 2.807532 1_565
Ge15 Sc13 2.807532 1_565
Ge15 Sc5 2.849418 1_555
Ge15 Sc3 2.849418 1_555
Ge15 Sc18 2.868396 1_565
Ge15 Sc10 3.033287 1_555
Ge15 Sc12 3.033287 1_555
