# generated using pymatgen
data_Ba2MnCdFe2F14
_symmetry_space_group_name_H-M   'P 1'
_cell_length_a   7.53005632
_cell_length_b   7.53005632
_cell_length_c   15.14183409
_cell_angle_alpha   88.98260255
_cell_angle_beta   88.98260255
_cell_angle_gamma   42.44348024
_symmetry_Int_Tables_number   1
_chemical_formula_structural   Ba2MnCdFe2F14
_chemical_formula_sum   'Ba4 Mn2 Cd2 Fe4 F28'
_cell_volume   579.31061504
_cell_formula_units_Z   2
loop_
 _symmetry_equiv_pos_site_id
 _symmetry_equiv_pos_as_xyz
  1  'x, y, z'
loop_
 _atom_site_type_symbol
 _atom_site_label
 _atom_site_symmetry_multiplicity
 _atom_site_fract_x
 _atom_site_fract_y
 _atom_site_fract_z
 _atom_site_occupancy
  Ba  Ba0  1  0.64812700  0.73286900  0.87821600  1
  Ba  Ba1  1  0.35187300  0.26713100  0.12178400  1
  Ba  Ba2  1  0.26713100  0.35187300  0.62178400  1
  Ba  Ba3  1  0.73286900  0.64812700  0.37821600  1
  Mn  Mn0  1  0.00000000  0.00000000  0.50000000  1
  Mn  Mn1  1  0.00000000  0.00000000  0.00000000  1
  Cd  Cd0  1  0.95059300  0.04940700  0.75000000  1
  Cd  Cd1  1  0.04940700  0.95059300  0.25000000  1
  Fe  Fe0  1  0.38092700  0.37906000  0.87563400  1
  Fe  Fe1  1  0.61907300  0.62094000  0.12436600  1
  Fe  Fe2  1  0.62094000  0.61907300  0.62436700  1
  Fe  Fe3  1  0.37906000  0.38092700  0.37563400  1
  F  F0  1  0.34494300  0.90566600  0.70206900  1
  F  F1  1  0.65505700  0.09433400  0.29793100  1
  F  F2  1  0.09433400  0.65505700  0.79793100  1
  F  F3  1  0.90566600  0.34494300  0.20206900  1
  F  F4  1  0.54572800  0.12427800  0.77830700  1
  F  F5  1  0.45427200  0.87572200  0.22169300  1
  F  F6  1  0.87572200  0.45427200  0.72169300  1
  F  F7  1  0.12427800  0.54572800  0.27830700  1
  F  F8  1  0.59761000  0.38652700  0.65718300  1
  F  F9  1  0.40239000  0.61347300  0.34281700  1
  F  F10  1  0.61347300  0.40239000  0.84281700  1
  F  F11  1  0.38652700  0.59761000  0.15718300  1
  F  F12  1  0.69313900  0.80821200  0.58824400  1
  F  F13  1  0.30686100  0.19178800  0.41175600  1
  F  F14  1  0.19178800  0.30686100  0.91175600  1
  F  F15  1  0.80821200  0.69313900  0.08824400  1
  F  F16  1  0.67072600  0.07133600  0.95251200  1
  F  F17  1  0.32927400  0.92866400  0.04748800  1
  F  F18  1  0.92866400  0.32927400  0.54748800  1
  F  F19  1  0.07133600  0.67072600  0.45251200  1
  F  F20  1  0.84977200  0.03664000  0.12444800  1
  F  F21  1  0.15022800  0.96336000  0.87555200  1
  F  F22  1  0.96336000  0.15022800  0.37555200  1
  F  F23  1  0.03664000  0.84977200  0.62444800  1
  F  F24  1  0.40926100  0.75738400  0.51725600  1
  F  F25  1  0.59073900  0.24261600  0.48274400  1
  F  F26  1  0.24261600  0.59073900  0.98274400  1
  F  F27  1  0.75738400  0.40926100  0.01725600  1
loop_
_geom_bond_atom_site_label_1
_geom_bond_atom_site_label_2
_geom_bond_distance
_geom_bond_site_symmetry_2
Ba0 F21 2.733052 1_555
Ba0 F10 2.749343 1_555
Ba0 F6 2.771512 1_555
Ba0 F14 2.818087 1_655
Ba0 F27 2.822705 1_556
Ba0 F4 2.845853 1_565
Ba0 F16 2.922158 1_565
Ba0 F14 2.973717 1_565
Ba0 F17 3.032990 1_556
Ba0 F0 3.118938 1_555
Ba0 F2 3.175716 1_655
Ba0 F15 3.350588 1_556
Ba1 F20 2.733052 1_555
Ba1 F11 2.749343 1_555
Ba1 F7 2.771512 1_555
Ba1 F15 2.818087 1_455
Ba1 F26 2.822705 1_554
Ba1 F5 2.845853 1_545
Ba1 F17 2.922158 1_545
Ba1 F15 2.973717 1_545
Ba1 F16 3.032990 1_554
Ba1 F1 3.118938 1_555
Ba1 F3 3.175716 1_455
Ba1 F14 3.350588 1_554
Ba2 F23 2.733052 1_555
Ba2 F8 2.749343 1_555
Ba2 F4 2.771512 1_555
Ba2 F12 2.818087 1_545
Ba2 F25 2.822705 1_555
Ba2 F6 2.845853 1_455
Ba2 F18 2.922158 1_455
Ba2 F12 2.973717 1_455
Ba2 F19 3.032990 1_555
Ba2 F2 3.118938 1_555
Ba2 F0 3.175716 1_545
Ba2 F13 3.350588 1_555
Ba3 F22 2.733052 1_555
Ba3 F9 2.749343 1_555
Ba3 F5 2.771512 1_555
Ba3 F13 2.818087 1_565
Ba3 F24 2.822705 1_555
Ba3 F7 2.845853 1_655
Ba3 F19 2.922158 1_655
Ba3 F13 2.973717 1_655
Ba3 F18 3.032990 1_555
Ba3 F3 3.118938 1_555
Ba3 F1 3.175716 1_565
Ba3 F12 3.350588 1_555
Cd0 F23 2.216744 1_645
Cd0 F21 2.216744 1_645
Cd0 F10 2.351982 1_555
Cd0 F8 2.351982 1_555
Cd0 F2 2.392445 1_645
Cd0 F0 2.392445 1_645
Cd1 F22 2.216744 1_465
Cd1 F20 2.216744 1_465
Cd1 F11 2.351982 1_555
Cd1 F9 2.351982 1_555
Cd1 F1 2.392445 1_465
Cd1 F3 2.392445 1_465
F0 Fe2 1.935107 1_555
F1 Fe3 1.935117 1_555
F2 Fe0 1.935117 1_555
F3 Fe1 1.935117 1_555
F4 Fe0 1.978430 1_555
F5 Fe1 1.978430 1_555
F6 Fe2 1.978418 1_555
F7 Fe3 1.978430 1_555
F8 Fe2 1.940124 1_555
F9 Fe3 1.940128 1_555
F10 Fe0 1.940128 1_555
F11 Fe1 1.940128 1_555
F12 Fe2 1.930731 1_555
F13 Fe3 1.930727 1_555
F14 Fe0 1.930727 1_555
F15 Fe1 1.930727 1_555
F16 Fe0 2.004473 1_555
F16 Mn1 2.244364 1_656
F17 Fe1 2.004473 1_555
F17 Mn1 2.244364 1_565
F18 Fe2 2.004482 1_555
F18 Mn0 2.244364 1_655
F19 Fe3 2.004473 1_555
F19 Mn0 2.244364 1_565
F20 Mn1 2.094941 1_655
F21 Mn1 2.094941 1_566
F22 Mn0 2.094941 1_655
F23 Mn0 2.094941 1_565
F24 Fe2 1.958962 1_555
F24 Mn0 2.146011 1_565
F25 Fe3 1.958949 1_555
F25 Mn0 2.146011 1_655
F26 Fe0 1.958949 1_555
F26 Mn1 2.146011 1_566
F27 Fe1 1.958949 1_555
F27 Mn1 2.146011 1_655
