# generated using pymatgen
data_GaN
_symmetry_space_group_name_H-M   'P 1'
_cell_length_a   11.53170216
_cell_length_b   11.64254486
_cell_length_c   11.69105154
_cell_angle_alpha   92.44871753
_cell_angle_beta   86.39916260
_cell_angle_gamma   90.03897451
_symmetry_Int_Tables_number   1
_chemical_formula_structural   GaN
_chemical_formula_sum   'Ga50 N50'
_cell_volume   1565.08906496
_cell_formula_units_Z   50
loop_
 _symmetry_equiv_pos_site_id
 _symmetry_equiv_pos_as_xyz
  1  'x, y, z'
loop_
 _atom_site_type_symbol
 _atom_site_label
 _atom_site_symmetry_multiplicity
 _atom_site_fract_x
 _atom_site_fract_y
 _atom_site_fract_z
 _atom_site_occupancy
  Ga  Ga0  1  0.05687127  0.66456972  0.59110132  1
  Ga  Ga1  1  0.25474979  0.41426197  0.37122736  1
  Ga  Ga2  1  0.08251455  0.62649737  0.82912321  1
  Ga  Ga3  1  0.81881445  0.77348820  0.67481432  1
  Ga  Ga4  1  0.32551023  0.17819624  0.14588632  1
  Ga  Ga5  1  0.43589264  0.47389750  0.81081401  1
  Ga  Ga6  1  0.58979555  0.71811608  0.76797979  1
  Ga  Ga7  1  0.22412108  0.91179293  0.18403816  1
  Ga  Ga8  1  0.43750815  0.54957044  0.35153567  1
  Ga  Ga9  1  0.93002642  0.03243548  0.24451183  1
  Ga  Ga10  1  0.26363529  0.73797134  0.00313652  1
  Ga  Ga11  1  0.13483595  0.07996925  0.04061554  1
  Ga  Ga12  1  0.73525411  0.49133673  0.77994529  1
  Ga  Ga13  1  0.76167532  0.25018107  0.89113410  1
  Ga  Ga14  1  0.01026931  0.24311469  0.33331590  1
  Ga  Ga15  1  0.49547514  0.95265271  0.77979455  1
  Ga  Ga16  1  0.75938679  0.25318303  0.37293505  1
  Ga  Ga17  1  0.54223078  0.73551481  0.01154079  1
  Ga  Ga18  1  0.71075937  0.54610703  0.12516972  1
  Ga  Ga19  1  0.94214686  0.10932596  0.52776768  1
  Ga  Ga20  1  0.04387674  0.71376117  0.33586112  1
  Ga  Ga21  1  0.50702599  0.77525129  0.27783702  1
  Ga  Ga22  1  0.71126792  0.46290139  0.39832519  1
  Ga  Ga23  1  0.50298321  0.33559398  0.24287991  1
  Ga  Ga24  1  0.42765834  0.33012646  0.49801752  1
  Ga  Ga25  1  0.62352108  0.06530160  0.22015142  1
  Ga  Ga26  1  0.15204430  0.32801142  0.12153007  1
  Ga  Ga27  1  0.98498903  0.50571859  0.33955737  1
  Ga  Ga28  1  0.27669725  0.71601670  0.42351744  1
  Ga  Ga29  1  0.85814049  0.03665263  0.03001237  1
  Ga  Ga30  1  0.93450211  0.46981539  0.93489835  1
  Ga  Ga31  1  0.51735095  0.54484580  0.58681611  1
  Ga  Ga32  1  0.90811697  0.17634296  0.73226425  1
  Ga  Ga33  1  0.98798955  0.38049753  0.58932147  1
  Ga  Ga34  1  0.44439438  0.93679298  0.05745985  1
  Ga  Ga35  1  0.00041904  0.18838028  0.92417414  1
  Ga  Ga36  1  0.74058032  0.94269080  0.82846279  1
  Ga  Ga37  1  0.80916112  0.70033516  0.93680865  1
  Ga  Ga38  1  0.30640255  0.75063158  0.65371624  1
  Ga  Ga39  1  0.97089674  0.58059272  0.12681362  1
  Ga  Ga40  1  0.83260140  0.32395924  0.14272398  1
  Ga  Ga41  1  0.75658006  0.81352250  0.16534553  1
  Ga  Ga42  1  0.99149441  0.87102734  0.81292760  1
  Ga  Ga43  1  0.24055520  0.47362280  0.59917229  1
  Ga  Ga44  1  0.39318412  0.05004575  0.32284038  1
  Ga  Ga45  1  0.22572158  0.48739428  0.94867477  1
  Ga  Ga46  1  0.11708323  0.91474156  0.38359992  1
  Ga  Ga47  1  0.49918502  0.75823107  0.51048616  1
  Ga  Ga48  1  0.80372678  0.56767286  0.56691277  1
  Ga  Ga49  1  0.01528818  0.82944318  0.04000457  1
  N  N0  1  0.27909229  0.02656772  0.76365315  1
  N  N1  1  0.63216161  0.31009066  0.64685760  1
  N  N2  1  0.61298179  0.14920205  0.41056103  1
  N  N3  1  0.01559143  0.05005731  0.38249776  1
  N  N4  1  0.96630934  0.53430699  0.51336638  1
  N  N5  1  0.12121841  0.76749887  0.92254255  1
  N  N6  1  0.83500357  0.48025514  0.22849624  1
  N  N7  1  0.19226912  0.62058559  0.68332609  1
  N  N8  1  0.76065175  0.74696033  0.37549954  1
  N  N9  1  0.18274319  0.68180876  0.17883058  1
  N  N10  1  0.96096551  0.71336298  0.74220094  1
  N  N11  1  0.67546884  0.78488992  0.89537437  1
  N  N12  1  0.17507390  0.17043826  0.53473320  1
  N  N13  1  0.61725600  0.34521940  0.92201567  1
  N  N14  1  0.15514149  0.30007226  0.82343173  1
  N  N15  1  0.27216907  0.15743974  0.52607702  1
  N  N16  1  0.61218320  0.02857651  0.97188686  1
  N  N17  1  0.64834081  0.95360860  0.50030813  1
  N  N18  1  0.89924900  0.25829007  0.46366169  1
  N  N19  1  0.63256579  0.70377747  0.15634399  1
  N  N20  1  0.43785515  0.53659739  0.11114516  1
  N  N21  1  0.34573009  0.50773896  0.09742999  1
  N  N22  1  0.44231241  0.20095985  0.83925275  1
  N  N23  1  0.88549470  0.73571874  0.08270531  1
  N  N24  1  0.06537483  0.86273264  0.55355485  1
  N  N25  1  0.29486702  0.02691541  0.07077278  1
  N  N26  1  0.58069124  0.55681800  0.74322457  1
  N  N27  1  0.50198905  0.93658855  0.22306296  1
  N  N28  1  0.01950010  0.93014664  0.62196484  1
  N  N29  1  0.64679218  0.38216267  0.11723182  1
  N  N30  1  0.65672751  0.99032991  0.58958249  1
  N  N31  1  0.04968693  0.96259754  0.13102930  1
  N  N32  1  0.82081604  0.80542019  0.42434179  1
  N  N33  1  0.91807764  0.19732753  0.20572966  1
  N  N34  1  0.47912063  0.17324698  0.20466634  1
  N  N35  1  0.10485817  0.37729907  0.29718323  1
  N  N36  1  0.23029494  0.64257548  0.25592918  1
  N  N37  1  0.58820481  0.38934703  0.01792678  1
  N  N38  1  0.67036263  0.22183681  0.64597767  1
  N  N39  1  0.89358880  0.31475907  0.98144912  1
  N  N40  1  0.77914046  0.97484124  0.18697349  1
  N  N41  1  0.22161008  0.95635677  0.72813947  1
  N  N42  1  0.51146058  0.15865141  0.44336505  1
  N  N43  1  0.20623454  0.28702893  0.73847821  1
  N  N44  1  0.54443212  0.45326371  0.43732396  1
  N  N45  1  0.39639552  0.43362123  0.64130007  1
  N  N46  1  0.47462040  0.80474048  0.69382919  1
  N  N47  1  0.65324625  0.10574411  0.02415567  1
  N  N48  1  0.38550943  0.22640445  0.91812180  1
  N  N49  1  0.77463055  0.54264000  0.94810206  1
loop_
_geom_bond_atom_site_label_1
_geom_bond_atom_site_label_2
_geom_bond_distance
_geom_bond_site_symmetry_2
Ga0 N7 2.030359 1_555
Ga0 N4 2.053262 1_455
Ga0 N10 2.082336 1_455
Ga0 N24 2.367684 1_555
Ga1 N35 2.019254 1_555
Ga2 N5 1.998492 1_555
Ga2 N7 2.056971 1_555
Ga2 N10 2.070949 1_455
Ga3 N10 2.002173 1_555
Ga4 N34 1.941601 1_555
Ga4 N25 1.975892 1_555
Ga5 N26 2.059567 1_555
Ga5 N45 2.094883 1_555
Ga6 N26 1.891685 1_555
Ga6 N46 1.937478 1_555
Ga6 N11 1.970666 1_555
Ga7 N25 2.056691 1_565
Ga7 N31 2.229278 1_555
Ga8 N44 2.009172 1_555
Ga9 N3 1.946661 1_655
Ga9 N33 1.998159 1_555
Ga9 N31 2.001203 1_645
Ga9 N40 2.009110 1_545
Ga10 N5 1.981407 1_554
Ga10 N9 2.321656 1_555
Ga11 N31 1.984953 1_545
Ga11 N25 2.003332 1_555
Ga12 N26 2.017000 1_555
Ga12 N49 2.106954 1_555
Ga13 N13 2.005260 1_555
Ga13 N39 2.031386 1_555
Ga13 Ga32 2.551886 1_555
Ga13 N47 2.605022 1_556
Ga14 N18 1.929952 1_455
Ga14 N33 1.941599 1_455
Ga14 N35 1.950651 1_555
Ga14 N3 2.345527 1_555
Ga15 N46 1.978726 1_555
Ga15 N0 2.660536 1_565
Ga16 N18 1.984754 1_555
Ga16 N2 2.111599 1_555
Ga17 N11 2.083033 1_554
Ga17 N19 2.088807 1_555
Ga18 N29 2.046347 1_555
Ga18 N19 2.054129 1_555
Ga18 N6 2.097107 1_555
Ga18 N49 2.151941 1_554
Ga19 N3 1.948809 1_655
Ga19 N18 1.993261 1_555
Ga19 Ga32 2.490338 1_555
Ga19 N28 2.585059 1_645
Ga20 N9 2.376193 1_555
Ga20 N36 2.421848 1_555
Ga21 N27 2.012298 1_555
Ga21 N19 2.109049 1_555
Ga22 N44 1.953397 1_555
Ga22 N6 2.386832 1_555
Ga23 N34 1.946918 1_555
Ga23 N29 2.227734 1_555
Ga24 N45 2.034737 1_555
Ga24 N44 2.082402 1_555
Ga24 N42 2.268005 1_555
Ga25 N27 2.050959 1_545
Ga25 N40 2.088138 1_545
Ga25 N34 2.108366 1_555
Ga25 N47 2.362840 1_555
Ga25 N2 2.388467 1_555
Ga26 N35 2.145202 1_555
Ga27 N4 2.042932 1_555
Ga27 N35 2.060358 1_655
Ga27 N6 2.239142 1_555
Ga28 N36 2.200939 1_555
Ga29 N40 2.148756 1_545
Ga29 N47 2.502417 1_555
Ga30 N39 1.956591 1_555
Ga30 N49 2.024037 1_555
Ga31 N45 1.996134 1_555
Ga31 N26 2.010596 1_555
Ga31 N44 2.015340 1_555
Ga32 Ga35 2.541527 1_655
Ga32 Ga33 3.071443 1_555
Ga33 N4 2.054785 1_555
Ga33 N18 2.288682 1_555
Ga34 N25 2.013252 1_565
Ga34 N27 2.086006 1_555
Ga34 N16 2.394152 1_564
Ga35 N39 1.986360 1_455
Ga35 N14 2.474942 1_555
Ga36 N11 2.144337 1_555
Ga36 N16 2.355975 1_565
Ga37 N49 1.886771 1_555
Ga37 N11 1.928009 1_555
Ga37 N23 1.995490 1_556
Ga38 N7 2.032076 1_555
Ga38 N46 2.113555 1_555
Ga38 N41 2.677350 1_555
Ga39 N23 2.154870 1_555
Ga39 N6 2.261804 1_555
Ga40 N33 1.968183 1_555
Ga40 N39 1.969106 1_554
Ga40 N6 2.040846 1_555
Ga40 N29 2.288800 1_555
Ga41 N40 1.904238 1_555
Ga41 N19 1.921906 1_555
Ga41 N23 1.926295 1_555
Ga41 N8 2.610835 1_555
Ga42 N10 2.020673 1_555
Ga42 N28 2.367023 1_655
Ga42 N5 2.389182 1_655
Ga43 N45 1.954730 1_555
Ga43 N7 1.998558 1_555
Ga44 N27 2.089645 1_545
Ga44 N34 2.223441 1_555
Ga44 N42 2.351891 1_555
Ga45 N21 2.294002 1_556
Ga46 N3 1.964185 1_565
Ga46 N24 2.150274 1_555
Ga47 N46 2.189221 1_555
Ga48 N4 1.972475 1_555
Ga49 N5 1.898420 1_554
Ga49 N31 1.898507 1_555
Ga49 N23 1.905417 1_455
N0 N41 1.133494 1_545
N1 N38 1.117616 1_555
N2 N42 1.212405 1_555
N12 N15 1.127608 1_555
N13 N37 1.239887 1_556
N14 N43 1.127108 1_555
N16 N47 1.180538 1_556
N17 N30 1.120697 1_555
N20 N21 1.132921 1_555
N22 N48 1.126092 1_555
N24 N28 1.195539 1_555
N29 N37 1.384999 1_555
N32 N8 1.134271 1_555
N36 N9 1.191385 1_555
