# generated using pymatgen
data_DyMnB4
_symmetry_space_group_name_H-M   'P 1'
_cell_length_a   5.90584700
_cell_length_b   11.42532200
_cell_length_c   3.40812500
_cell_angle_alpha   90.00000000
_cell_angle_beta   90.00000000
_cell_angle_gamma   90.00000000
_symmetry_Int_Tables_number   1
_chemical_formula_structural   DyMnB4
_chemical_formula_sum   'Dy4 Mn4 B16'
_cell_volume   229.96733659
_cell_formula_units_Z   4
loop_
 _symmetry_equiv_pos_site_id
 _symmetry_equiv_pos_as_xyz
  1  'x, y, z'
loop_
 _atom_site_type_symbol
 _atom_site_label
 _atom_site_symmetry_multiplicity
 _atom_site_fract_x
 _atom_site_fract_y
 _atom_site_fract_z
 _atom_site_occupancy
  Dy  Dy0  1  0.62657600  0.34941700  0.00000000  1
  Dy  Dy1  1  0.37342400  0.65058300  0.00000000  1
  Dy  Dy2  1  0.12657600  0.15058300  0.00000000  1
  Dy  Dy3  1  0.87342400  0.84941700  0.00000000  1
  Mn  Mn0  1  0.62816800  0.08374500  0.00000000  1
  Mn  Mn1  1  0.37183200  0.91625500  0.00000000  1
  Mn  Mn2  1  0.12816800  0.41625500  0.00000000  1
  Mn  Mn3  1  0.87183200  0.58374500  0.00000000  1
  B  B0  1  0.78176000  0.18378300  0.50000000  1
  B  B1  1  0.21824000  0.81621700  0.50000000  1
  B  B2  1  0.28176000  0.31621700  0.50000000  1
  B  B3  1  0.71824000  0.68378300  0.50000000  1
  B  B4  1  0.86206400  0.03222500  0.50000000  1
  B  B5  1  0.13793600  0.96777500  0.50000000  1
  B  B6  1  0.36206400  0.46777500  0.50000000  1
  B  B7  1  0.63793600  0.53222500  0.50000000  1
  B  B8  1  0.88817500  0.45402400  0.50000000  1
  B  B9  1  0.11182500  0.54597600  0.50000000  1
  B  B10  1  0.38817500  0.04597600  0.50000000  1
  B  B11  1  0.61182500  0.95402400  0.50000000  1
  B  B12  1  0.97593200  0.30925400  0.50000000  1
  B  B13  1  0.02406800  0.69074600  0.50000000  1
  B  B14  1  0.47593200  0.19074600  0.50000000  1
  B  B15  1  0.52406800  0.80925400  0.50000000  1
loop_
_geom_bond_atom_site_label_1
_geom_bond_atom_site_label_2
_geom_bond_distance
_geom_bond_site_symmetry_2
B0 B4 1.795372 1_555
B0 B14 1.807925 1_555
B0 B12 1.835781 1_555
B0 Mn0 2.243438 1_555
B0 Mn0 2.243438 1_556
B0 Dy2 2.682305 1_656
B0 Dy2 2.682305 1_655
B0 Dy0 2.706483 1_555
B0 Dy0 2.706483 1_556
B1 B5 1.795372 1_555
B1 B15 1.807925 1_555
B1 B13 1.835781 1_555
B1 Mn1 2.243438 1_555
B1 Mn1 2.243438 1_556
B1 Dy3 2.682305 1_456
B1 Dy3 2.682305 1_455
B1 Dy1 2.706483 1_556
B1 Dy1 2.706483 1_555
B2 B6 1.795372 1_555
B2 Mn2 2.243438 1_555
B2 Mn2 2.243438 1_556
B2 Dy0 2.682305 1_555
B2 Dy0 2.682305 1_556
B2 Dy2 2.706483 1_556
B2 Dy2 2.706483 1_555
B3 B7 1.795372 1_555
B3 Mn3 2.243438 1_556
B3 Mn3 2.243438 1_555
B3 Dy1 2.682305 1_555
B3 Dy1 2.682305 1_556
B3 Dy3 2.706483 1_556
B3 Dy3 2.706483 1_555
B4 B5 1.787935 1_645
B4 Mn0 2.271223 1_555
B4 Mn0 2.271223 1_556
B4 Dy2 2.678218 1_656
B4 Dy2 2.678218 1_655
B4 Dy3 2.696433 1_545
B4 Dy3 2.696433 1_546
B5 Mn1 2.271223 1_555
B5 Mn1 2.271223 1_556
B5 Dy3 2.678218 1_456
B5 Dy3 2.678218 1_455
B5 Dy2 2.696433 1_566
B5 Dy2 2.696433 1_565
B6 B9 1.726963 1_555
B6 B7 1.787935 1_555
B6 Mn2 2.271223 1_555
B6 Mn2 2.271223 1_556
B6 Dy0 2.678218 1_555
B6 Dy0 2.678218 1_556
B6 Dy1 2.696433 1_555
B6 Dy1 2.696433 1_556
B7 B8 1.726963 1_555
B7 Mn3 2.271223 1_555
B7 Mn3 2.271223 1_556
B7 Dy1 2.678218 1_556
B7 Dy1 2.678218 1_555
B7 Dy0 2.696433 1_556
B7 Dy0 2.696433 1_555
B8 B9 1.687704 1_655
B8 Mn2 2.258087 1_655
B8 Mn2 2.258087 1_656
B8 Mn3 2.260482 1_556
B8 Mn3 2.260482 1_555
B8 Dy0 2.592136 1_555
B8 Dy0 2.592136 1_556
B9 Mn3 2.258087 1_455
B9 Mn3 2.258087 1_456
B9 Mn2 2.260482 1_555
B9 Mn2 2.260482 1_556
B9 Dy1 2.592136 1_556
B9 Dy1 2.592136 1_555
B10 B11 1.687704 1_545
B10 B5 1.726963 1_545
B10 B14 1.733342 1_555
B10 Mn0 2.258087 1_555
B10 Mn0 2.258087 1_556
B10 Mn1 2.260482 1_546
B10 Mn1 2.260482 1_545
B10 Dy2 2.592136 1_555
B10 Dy2 2.592136 1_556
B11 B4 1.726963 1_565
B11 B15 1.733342 1_555
B11 Mn1 2.258087 1_555
B11 Mn1 2.258087 1_556
B11 Mn0 2.260482 1_566
B11 Mn0 2.260482 1_565
B11 Dy3 2.592136 1_555
B11 Dy3 2.592136 1_556
B12 B8 1.733342 1_555
B12 B2 1.807925 1_655
B12 Mn2 2.281827 1_655
B12 Mn2 2.281827 1_656
B12 Dy2 2.642319 1_655
B12 Dy2 2.642319 1_656
B12 Dy0 2.715026 1_555
B12 Dy0 2.715026 1_556
B13 B9 1.733342 1_555
B13 B3 1.807925 1_455
B13 Mn3 2.281827 1_456
B13 Mn3 2.281827 1_455
B13 Dy3 2.642319 1_455
B13 Dy3 2.642319 1_456
B13 Dy1 2.715026 1_555
B13 Dy1 2.715026 1_556
B14 B2 1.835781 1_555
B14 Mn0 2.281827 1_555
B14 Mn0 2.281827 1_556
B14 Dy0 2.642319 1_555
B14 Dy0 2.642319 1_556
B14 Dy2 2.715026 1_556
B14 Dy2 2.715026 1_555
B15 B3 1.835781 1_555
B15 Mn1 2.281827 1_555
B15 Mn1 2.281827 1_556
B15 Dy1 2.642319 1_556
B15 Dy1 2.642319 1_555
B15 Dy3 2.715026 1_555
B15 Dy3 2.715026 1_556
