# generated using pymatgen
data_KCoH3(CO2)3
_symmetry_space_group_name_H-M   'P 1'
_cell_length_a   7.24487100
_cell_length_b   7.24487183
_cell_length_c   8.39364400
_cell_angle_alpha   90.00000000
_cell_angle_beta   90.00000000
_cell_angle_gamma   120.00000079
_symmetry_Int_Tables_number   1
_chemical_formula_structural   KCoH3(CO2)3
_chemical_formula_sum   'K2 Co2 H6 C6 O12'
_cell_volume   381.54216287
_cell_formula_units_Z   2
loop_
 _symmetry_equiv_pos_site_id
 _symmetry_equiv_pos_as_xyz
  1  'x, y, z'
loop_
 _atom_site_type_symbol
 _atom_site_label
 _atom_site_symmetry_multiplicity
 _atom_site_fract_x
 _atom_site_fract_y
 _atom_site_fract_z
 _atom_site_occupancy
  K  K0  1  0.00000000  0.00000000  0.25000000  1
  K  K1  1  0.00000000  0.00000000  0.75000000  1
  Co  Co0  1  0.66666700  0.33333300  0.25000000  1
  Co  Co1  1  0.33333300  0.66666700  0.75000000  1
  H  H0  1  0.58716400  0.58716400  0.50000000  1
  H  H1  1  0.41283600  0.00000000  0.50000000  1
  H  H2  1  0.00000000  0.41283600  0.50000000  1
  H  H3  1  0.41283600  0.41283600  0.00000000  1
  H  H4  1  0.58716400  0.00000000  0.00000000  1
  H  H5  1  0.00000000  0.58716400  0.00000000  1
  C  C0  1  0.43511100  0.43511100  0.50000000  1
  C  C1  1  0.56488900  0.00000000  0.50000000  1
  C  C2  1  0.00000000  0.56488900  0.50000000  1
  C  C3  1  0.56488900  0.56488900  0.00000000  1
  C  C4  1  0.43511100  0.00000000  0.00000000  1
  C  C5  1  0.00000000  0.43511100  0.00000000  1
  O  O0  1  0.40660000  0.29975000  0.39234000  1
  O  O1  1  0.70025000  0.10685000  0.39234000  1
  O  O2  1  0.89315000  0.59340000  0.39234000  1
  O  O3  1  0.29975000  0.40660000  0.60766000  1
  O  O4  1  0.10685000  0.70025000  0.60766000  1
  O  O5  1  0.59340000  0.89315000  0.60766000  1
  O  O6  1  0.59340000  0.70025000  0.89234000  1
  O  O7  1  0.29975000  0.89315000  0.89234000  1
  O  O8  1  0.10685000  0.40660000  0.89234000  1
  O  O9  1  0.70025000  0.59340000  0.10766000  1
  O  O10  1  0.89315000  0.29975000  0.10766000  1
  O  O11  1  0.40660000  0.10685000  0.10766000  1
loop_
_geom_bond_atom_site_label_1
_geom_bond_atom_site_label_2
_geom_bond_distance
_geom_bond_site_symmetry_2
K0 O11 2.902388 1_555
K0 O0 2.902388 1_555
K0 O1 2.902388 1_455
K0 O9 2.902388 1_445
K0 O10 2.902388 1_455
K0 O2 2.902388 1_445
K1 O5 2.902388 1_445
K1 O6 2.902388 1_445
K1 O7 2.902388 1_545
K1 O3 2.902388 1_555
K1 O4 2.902388 1_545
K1 O8 2.902388 1_555
Co0 O10 2.139675 1_555
Co0 O1 2.139675 1_555
Co0 O11 2.139678 1_555
Co0 O2 2.139678 1_555
Co0 O0 2.139681 1_555
Co0 O9 2.139681 1_555
Co1 O4 2.139675 1_555
Co1 O7 2.139675 1_555
Co1 O5 2.139678 1_555
Co1 O8 2.139678 1_555
Co1 O6 2.139681 1_555
Co1 O3 2.139681 1_555
C0 H0 1.101604 1_555
C0 O3 1.272172 1_555
C0 O0 1.272172 1_555
C1 H1 1.101604 1_555
C1 O1 1.272172 1_555
C1 O5 1.272172 1_545
C2 H2 1.101604 1_555
C2 O2 1.272172 1_455
C2 O4 1.272172 1_555
C3 H3 1.101604 1_555
C3 O9 1.272172 1_555
C3 O6 1.272172 1_554
C4 H4 1.101604 1_555
C4 O7 1.272172 1_544
C4 O11 1.272172 1_555
C5 H5 1.101604 1_555
C5 O8 1.272172 1_554
C5 O10 1.272172 1_455
