# generated using pymatgen
data_Ca2Cr3O8
_symmetry_space_group_name_H-M   'P 1'
_cell_length_a   6.01356470
_cell_length_b   6.01356470
_cell_length_c   10.56209300
_cell_angle_alpha   90.00000000
_cell_angle_beta   90.00000000
_cell_angle_gamma   120.00000771
_symmetry_Int_Tables_number   1
_chemical_formula_structural   Ca2Cr3O8
_chemical_formula_sum   'Ca4 Cr6 O16'
_cell_volume   330.78405059
_cell_formula_units_Z   2
loop_
 _symmetry_equiv_pos_site_id
 _symmetry_equiv_pos_as_xyz
  1  'x, y, z'
loop_
 _atom_site_type_symbol
 _atom_site_label
 _atom_site_symmetry_multiplicity
 _atom_site_fract_x
 _atom_site_fract_y
 _atom_site_fract_z
 _atom_site_occupancy
  Ca  Ca0  1  0.66666700  0.33333300  0.02310700  1
  Ca  Ca1  1  0.33333300  0.66666700  0.52310700  1
  Ca  Ca2  1  0.66666700  0.33333300  0.43080600  1
  Ca  Ca3  1  0.33333300  0.66666700  0.93080600  1
  Cr  Cr0  1  0.67263100  0.83631600  0.24549000  1
  Cr  Cr1  1  0.83631600  0.16368400  0.74549000  1
  Cr  Cr2  1  0.16368400  0.32736900  0.24549000  1
  Cr  Cr3  1  0.83631600  0.67263100  0.74549000  1
  Cr  Cr4  1  0.32736900  0.16368400  0.74549000  1
  Cr  Cr5  1  0.16368400  0.83631600  0.24549000  1
  O  O0  1  0.84466200  0.15533800  0.15771600  1
  O  O1  1  0.68932400  0.84466200  0.65771600  1
  O  O2  1  0.15533800  0.31067600  0.65771600  1
  O  O3  1  0.84466200  0.68932400  0.15771600  1
  O  O4  1  0.31067600  0.15533800  0.15771600  1
  O  O5  1  0.15533800  0.84466200  0.65771600  1
  O  O6  1  0.52352600  0.47647400  0.84693100  1
  O  O7  1  0.04705200  0.52352600  0.34693100  1
  O  O8  1  0.47647400  0.95294800  0.34693100  1
  O  O9  1  0.52352600  0.04705200  0.84693100  1
  O  O10  1  0.00000000  0.00000000  0.34546900  1
  O  O11  1  0.00000000  0.00000000  0.84546900  1
  O  O12  1  0.33333300  0.66666700  0.14370800  1
  O  O13  1  0.95294800  0.47647400  0.84693100  1
  O  O14  1  0.47647400  0.52352600  0.34693100  1
  O  O15  1  0.66666700  0.33333300  0.64370800  1
loop_
_geom_bond_atom_site_label_1
_geom_bond_atom_site_label_2
_geom_bond_distance
_geom_bond_site_symmetry_2
Ca0 O0 2.336354 1_555
Ca0 O3 2.336358 1_555
Ca0 O4 2.336358 1_555
Ca0 O13 2.384403 1_554
Ca0 O9 2.384403 1_554
Ca0 O6 2.384407 1_554
Ca1 O5 2.336354 1_555
Ca1 O1 2.336358 1_555
Ca1 O2 2.336358 1_555
Ca1 O8 2.384403 1_555
Ca1 O7 2.384403 1_555
Ca1 O14 2.384407 1_555
Ca2 O7 2.170069 1_655
Ca2 O8 2.170069 1_545
Ca2 O14 2.170074 1_555
Ca2 O15 2.248691 1_555
Ca3 O9 2.170069 1_565
Ca3 O13 2.170069 1_455
Ca3 O6 2.170074 1_555
Ca3 O12 2.248691 1_556
Cr0 O0 1.904076 1_565
Cr0 O3 1.904081 1_555
Cr0 O8 1.964355 1_555
Cr0 O14 1.964359 1_555
Cr0 O10 2.005445 1_665
Cr0 O12 2.068353 1_555
Cr1 O2 1.904076 1_655
Cr1 O1 1.904076 1_545
Cr1 O13 1.964360 1_555
Cr1 O9 1.964360 1_555
Cr1 O11 2.005441 1_655
Cr1 O15 2.068354 1_555
Cr2 O0 1.904076 1_455
Cr2 O4 1.904081 1_555
Cr2 O7 1.964355 1_555
Cr2 O14 1.964359 1_555
Cr2 O10 2.005445 1_555
Cr2 O12 2.068353 1_555
Cr3 O5 1.904076 1_655
Cr3 O1 1.904081 1_555
Cr3 O13 1.964355 1_555
Cr3 O6 1.964359 1_555
Cr3 O11 2.005445 1_665
Cr3 O15 2.068353 1_555
Cr4 O5 1.904076 1_545
Cr4 O2 1.904081 1_555
Cr4 O9 1.964355 1_555
Cr4 O6 1.964359 1_555
Cr4 O11 2.005445 1_555
Cr4 O15 2.068353 1_555
Cr5 O4 1.904076 1_565
Cr5 O3 1.904076 1_455
Cr5 O8 1.964360 1_555
Cr5 O7 1.964360 1_555
Cr5 O10 2.005441 1_565
Cr5 O12 2.068354 1_555
