# generated using pymatgen
data_BaVSe2S
_symmetry_space_group_name_H-M   'P 1'
_cell_length_a   6.97391048
_cell_length_b   6.97391048
_cell_length_c   5.96143300
_cell_angle_alpha   90.00000000
_cell_angle_beta   90.00000000
_cell_angle_gamma   120.55257836
_symmetry_Int_Tables_number   1
_chemical_formula_structural   BaVSe2S
_chemical_formula_sum   'Ba2 V2 Se4 S2'
_cell_volume   249.68289449
_cell_formula_units_Z   2
loop_
 _symmetry_equiv_pos_site_id
 _symmetry_equiv_pos_as_xyz
  1  'x, y, z'
loop_
 _atom_site_type_symbol
 _atom_site_label
 _atom_site_symmetry_multiplicity
 _atom_site_fract_x
 _atom_site_fract_y
 _atom_site_fract_z
 _atom_site_occupancy
  Ba  Ba0  1  0.33524500  0.66475500  0.00000000  1
  Ba  Ba1  1  0.66580900  0.33419100  0.50000000  1
  V  V0  1  0.99293200  0.00706800  0.25469000  1
  V  V1  1  0.99293200  0.00706800  0.74531000  1
  Se  Se0  1  0.17055000  0.82945000  0.50000000  1
  Se  Se1  1  0.33445600  0.16995800  0.00000000  1
  Se  Se2  1  0.83004200  0.66554400  0.00000000  1
  Se  Se3  1  0.83077400  0.16922600  0.00000000  1
  S  S0  1  0.68634800  0.83817300  0.50000000  1
  S  S1  1  0.16182700  0.31365200  0.50000000  1
loop_
_geom_bond_atom_site_label_1
_geom_bond_atom_site_label_2
_geom_bond_distance
_geom_bond_site_symmetry_2
Ba0 Se1 3.447876 1_555
Ba0 Se2 3.447876 1_555
Ba0 Se3 3.458215 1_455
Ba0 Se3 3.458215 1_565
Ba0 Se2 3.526041 1_455
Ba0 Se1 3.526041 1_565
Ba0 Se0 3.586680 1_555
Ba0 Se0 3.586680 1_554
Ba0 S1 3.651322 1_554
Ba0 S1 3.651322 1_555
Ba0 S0 3.651322 1_554
Ba0 S0 3.651322 1_555
Ba1 S1 3.444123 1_555
Ba1 S0 3.444123 1_555
Ba1 Se0 3.458268 1_545
Ba1 Se0 3.458268 1_655
Ba1 S0 3.534150 1_545
Ba1 S1 3.534150 1_655
Ba1 Se1 3.584079 1_556
Ba1 Se1 3.584079 1_555
Ba1 Se2 3.584079 1_556
Ba1 Se2 3.584079 1_555
Ba1 Se3 3.588500 1_555
Ba1 Se3 3.588500 1_556
Se0 V1 2.601393 1_465
Se0 V0 2.601393 1_465
Se1 V0 2.553000 1_455
Se1 V1 2.553000 1_454
Se2 V1 2.553000 1_564
Se2 V0 2.553000 1_565
Se3 V1 2.482585 1_554
Se3 V0 2.482585 1_555
S0 V0 2.353098 1_565
S0 V1 2.353098 1_565
S1 V0 2.353098 1_455
S1 V1 2.353098 1_455
