# generated using pymatgen
data_BaSi12Pt5
_symmetry_space_group_name_H-M   'P 1'
_cell_length_a   16.58533801
_cell_length_b   16.58533801
_cell_length_c   6.12127489
_cell_angle_alpha   89.96243284
_cell_angle_beta   89.96243284
_cell_angle_gamma   158.65666675
_symmetry_Int_Tables_number   1
_chemical_formula_structural   BaSi12Pt5
_chemical_formula_sum   'Ba2 Si24 Pt10'
_cell_volume   612.82493191
_cell_formula_units_Z   2
loop_
 _symmetry_equiv_pos_site_id
 _symmetry_equiv_pos_as_xyz
  1  'x, y, z'
loop_
 _atom_site_type_symbol
 _atom_site_label
 _atom_site_symmetry_multiplicity
 _atom_site_fract_x
 _atom_site_fract_y
 _atom_site_fract_z
 _atom_site_occupancy
  Ba  Ba0  1  0.87532586  0.12467414  0.00000000  1
  Ba  Ba1  1  0.12467414  0.87532586  0.00000000  1
  Si  Si0  1  0.70683165  0.78685047  0.25263494  1
  Si  Si1  1  0.29316835  0.21314953  0.74736506  1
  Si  Si2  1  0.21314953  0.29316835  0.74736506  1
  Si  Si3  1  0.78685047  0.70683165  0.25263494  1
  Si  Si4  1  0.64286627  0.91948453  0.50058573  1
  Si  Si5  1  0.35713373  0.08051547  0.49941427  1
  Si  Si6  1  0.08051547  0.35713373  0.49941427  1
  Si  Si7  1  0.91948453  0.64286627  0.50058573  1
  Si  Si8  1  0.63721605  0.35971540  0.21876000  1
  Si  Si9  1  0.36278395  0.64028460  0.78124000  1
  Si  Si10  1  0.64028460  0.36278395  0.78124000  1
  Si  Si11  1  0.35971540  0.63721605  0.21876000  1
  Si  Si12  1  0.35745219  0.91511076  0.13397009  1
  Si  Si13  1  0.64254781  0.08488924  0.86602991  1
  Si  Si14  1  0.08488924  0.64254781  0.86602991  1
  Si  Si15  1  0.91511076  0.35745219  0.13397009  1
  Si  Si16  1  0.42099744  0.85471892  0.36957975  1
  Si  Si17  1  0.57900256  0.14528108  0.63042025  1
  Si  Si18  1  0.14528108  0.57900256  0.63042025  1
  Si  Si19  1  0.85471892  0.42099744  0.36957975  1
  Si  Si20  1  0.29356685  0.21360043  0.25303642  1
  Si  Si21  1  0.70643315  0.78639957  0.74696358  1
  Si  Si22  1  0.78639957  0.70643315  0.74696358  1
  Si  Si23  1  0.21360043  0.29356685  0.25303642  1
  Pt  Pt0  1  0.57586118  0.42413882  0.00000000  1
  Pt  Pt1  1  0.42413882  0.57586118  0.00000000  1
  Pt  Pt2  1  0.00000000  0.00000000  0.00000000  1
  Pt  Pt3  1  0.92450080  0.07549920  0.50000000  1
  Pt  Pt4  1  0.07549920  0.92450080  0.50000000  1
  Pt  Pt5  1  0.70404166  0.29595834  0.00000000  1
  Pt  Pt6  1  0.29595834  0.70404166  0.00000000  1
  Pt  Pt7  1  0.79732462  0.20267538  0.50000000  1
  Pt  Pt8  1  0.20267538  0.79732462  0.50000000  1
  Pt  Pt9  1  0.50000000  0.50000000  0.50000000  1
loop_
_geom_bond_atom_site_label_1
_geom_bond_atom_site_label_2
_geom_bond_distance
_geom_bond_site_symmetry_2
Ba0 Si13 3.357422 1_554
Ba0 Si15 3.357422 1_555
Ba0 Si6 3.371137 1_654
Ba0 Si4 3.371137 1_545
Ba0 Si4 3.373268 1_544
Ba0 Si6 3.373268 1_655
Ba0 Si9 3.377531 1_544
Ba0 Si11 3.377531 1_655
Ba0 Si9 3.386037 1_654
Ba0 Si11 3.386037 1_545
Ba0 Pt3 3.454991 1_555
Ba0 Pt3 3.454991 1_554
Ba0 Pt1 3.458982 1_655
Ba0 Pt1 3.458982 1_545
Ba0 Si2 3.522671 1_654
Ba0 Si0 3.522671 1_545
Ba0 Si21 3.530406 1_544
Ba0 Si23 3.530406 1_655
Ba1 Si14 3.357422 1_554
Ba1 Si12 3.357422 1_555
Ba1 Si7 3.371137 1_455
Ba1 Si5 3.371137 1_564
Ba1 Si7 3.373268 1_454
Ba1 Si5 3.373268 1_565
Ba1 Si10 3.377531 1_454
Ba1 Si8 3.377531 1_565
Ba1 Si10 3.386037 1_564
Ba1 Si8 3.386037 1_455
Ba1 Pt4 3.454991 1_555
Ba1 Pt4 3.454991 1_554
Ba1 Pt0 3.458982 1_455
Ba1 Pt0 3.458982 1_565
Ba1 Si1 3.522671 1_564
Ba1 Si3 3.522671 1_455
Ba1 Si22 3.530406 1_454
Ba1 Si20 3.530406 1_565
Pt0 Si10 2.448600 1_554
Pt0 Si8 2.448600 1_555
Pt0 Si20 2.457914 1_555
Pt0 Si22 2.457914 1_554
Pt0 Si1 2.464315 1_554
Pt0 Si3 2.464315 1_555
Pt1 Si9 2.448600 1_554
Pt1 Si11 2.448600 1_555
Pt1 Si23 2.457914 1_555
Pt1 Si21 2.457914 1_554
Pt1 Si2 2.464315 1_554
Pt1 Si0 2.464315 1_555
Pt2 Si3 2.548243 1_445
Pt2 Si0 2.548243 1_445
Pt2 Si2 2.548243 1_554
Pt2 Si1 2.548243 1_554
Pt2 Si22 2.557568 1_444
Pt2 Si23 2.557568 1_555
Pt2 Si20 2.557568 1_555
Pt2 Si21 2.557568 1_444
Pt3 Si4 2.449205 1_545
Pt3 Si6 2.449205 1_655
Pt3 Si21 2.456674 1_545
Pt3 Si23 2.456674 1_655
Pt3 Si2 2.462912 1_655
Pt3 Si0 2.462912 1_545
Pt4 Si7 2.449205 1_455
Pt4 Si5 2.449205 1_565
Pt4 Si22 2.456674 1_455
Pt4 Si20 2.456674 1_565
Pt4 Si1 2.462912 1_565
Pt4 Si3 2.462912 1_455
Pt5 Si12 2.441883 1_545
Pt5 Si14 2.441883 1_654
Pt5 Si17 2.454231 1_554
Pt5 Si19 2.454231 1_555
Pt5 Si8 2.514522 1_555
Pt5 Si10 2.514522 1_554
Pt5 Si15 2.705781 1_555
Pt5 Si13 2.705781 1_554
Pt6 Si15 2.441883 1_455
Pt6 Si13 2.441883 1_564
Pt6 Si18 2.454231 1_554
Pt6 Si16 2.454231 1_555
Pt6 Si11 2.514522 1_555
Pt6 Si9 2.514522 1_554
Pt6 Si14 2.705781 1_554
Pt6 Si12 2.705781 1_555
Pt7 Si16 2.410819 1_545
Pt7 Si18 2.410819 1_655
Pt7 Si15 2.463964 1_555
Pt7 Si13 2.463964 1_555
Pt7 Si6 2.491770 1_655
Pt7 Si4 2.491770 1_545
Pt7 Si17 2.868645 1_555
Pt7 Si19 2.868645 1_555
Pt8 Si17 2.410819 1_565
Pt8 Si19 2.410819 1_455
Pt8 Si12 2.463964 1_555
Pt8 Si14 2.463964 1_555
Pt8 Si5 2.491770 1_565
Pt8 Si7 2.491770 1_455
Pt8 Si16 2.868645 1_555
Pt8 Si18 2.868645 1_555
Pt9 Si0 2.505272 1_555
Pt9 Si3 2.505272 1_555
Pt9 Si1 2.505272 1_555
Pt9 Si2 2.505272 1_555
Pt9 Si20 2.508243 1_555
Pt9 Si21 2.508243 1_555
Pt9 Si22 2.508243 1_555
Pt9 Si23 2.508243 1_555
