# generated using pymatgen
data_YbSi3Ni5
_symmetry_space_group_name_H-M   'P 1'
_cell_length_a   18.69304300
_cell_length_b   3.77178900
_cell_length_c   6.68085000
_cell_angle_alpha   90.00000000
_cell_angle_beta   90.00000000
_cell_angle_gamma   90.00000000
_symmetry_Int_Tables_number   1
_chemical_formula_structural   YbSi3Ni5
_chemical_formula_sum   'Yb4 Si12 Ni20'
_cell_volume   471.04143956
_cell_formula_units_Z   4
loop_
 _symmetry_equiv_pos_site_id
 _symmetry_equiv_pos_as_xyz
  1  'x, y, z'
loop_
 _atom_site_type_symbol
 _atom_site_label
 _atom_site_symmetry_multiplicity
 _atom_site_fract_x
 _atom_site_fract_y
 _atom_site_fract_z
 _atom_site_occupancy
  Yb  Yb0  1  0.64322100  0.25000000  0.62237500  1
  Yb  Yb1  1  0.14322100  0.25000000  0.87762500  1
  Yb  Yb2  1  0.35677900  0.75000000  0.37762500  1
  Yb  Yb3  1  0.85677900  0.75000000  0.12237500  1
  Si  Si0  1  0.91496900  0.25000000  0.41639400  1
  Si  Si1  1  0.41496900  0.25000000  0.08360600  1
  Si  Si2  1  0.08503100  0.75000000  0.58360600  1
  Si  Si3  1  0.58503100  0.75000000  0.91639400  1
  Si  Si4  1  0.73728000  0.25000000  0.12125000  1
  Si  Si5  1  0.23728000  0.25000000  0.37875000  1
  Si  Si6  1  0.26272000  0.75000000  0.87875000  1
  Si  Si7  1  0.76272000  0.75000000  0.62125000  1
  Si  Si8  1  0.92475400  0.25000000  0.84553100  1
  Si  Si9  1  0.42475400  0.25000000  0.65446900  1
  Si  Si10  1  0.07524600  0.75000000  0.15446900  1
  Si  Si11  1  0.57524600  0.75000000  0.34553100  1
  Ni  Ni0  1  0.79876500  0.25000000  0.81383500  1
  Ni  Ni1  1  0.29876500  0.25000000  0.68616500  1
  Ni  Ni2  1  0.20123500  0.75000000  0.18616500  1
  Ni  Ni3  1  0.70123500  0.75000000  0.31383500  1
  Ni  Ni4  1  0.99456600  0.25000000  0.13163500  1
  Ni  Ni5  1  0.49456600  0.25000000  0.36836500  1
  Ni  Ni6  1  0.00543400  0.75000000  0.86836500  1
  Ni  Ni7  1  0.50543400  0.75000000  0.63163500  1
  Ni  Ni8  1  0.51471000  0.25000000  0.88173600  1
  Ni  Ni9  1  0.01471000  0.25000000  0.61826400  1
  Ni  Ni10  1  0.48529000  0.75000000  0.11826400  1
  Ni  Ni11  1  0.98529000  0.75000000  0.38173600  1
  Ni  Ni12  1  0.61475100  0.25000000  0.14481700  1
  Ni  Ni13  1  0.11475100  0.25000000  0.35518300  1
  Ni  Ni14  1  0.38524900  0.75000000  0.85518300  1
  Ni  Ni15  1  0.88524900  0.75000000  0.64481700  1
  Ni  Ni16  1  0.79403300  0.25000000  0.42930600  1
  Ni  Ni17  1  0.29403300  0.25000000  0.07069400  1
  Ni  Ni18  1  0.20596700  0.75000000  0.57069400  1
  Ni  Ni19  1  0.70596700  0.75000000  0.92930600  1
loop_
_geom_bond_atom_site_label_1
_geom_bond_atom_site_label_2
_geom_bond_distance
_geom_bond_site_symmetry_2
Si0 Yb3 2.932278 1_555
Si0 Yb3 2.932278 1_545
Si1 Yb2 2.932278 1_555
Si1 Yb2 2.932278 1_545
Si2 Yb1 2.932278 1_555
Si2 Yb1 2.932278 1_565
Si3 Yb0 2.932278 1_565
Si3 Yb0 2.932278 1_555
Si4 Yb3 2.923443 1_555
Si4 Yb3 2.923443 1_545
Si5 Yb2 2.923443 1_555
Si5 Yb2 2.923443 1_545
Si6 Yb1 2.923443 1_565
Si6 Yb1 2.923443 1_555
Si7 Yb0 2.923443 1_555
Si7 Yb0 2.923443 1_565
Si8 Yb3 2.931215 1_556
Si8 Yb3 2.931215 1_546
Si9 Yb2 2.931215 1_545
Si9 Yb2 2.931215 1_555
Si10 Yb1 2.931215 1_554
Si10 Yb1 2.931215 1_564
Si11 Yb0 2.931215 1_565
Si11 Yb0 2.931215 1_555
Ni0 Si4 2.353520 1_556
Ni0 Si8 2.364618 1_555
Ni0 Si7 2.380339 1_555
Ni0 Si7 2.380339 1_545
Ni0 Ni16 2.570503 1_555
Ni0 Ni19 2.675973 1_555
Ni0 Ni19 2.675973 1_545
Ni0 Ni15 2.728591 1_555
Ni0 Ni15 2.728591 1_545
Ni0 Yb3 2.996939 1_546
Ni0 Yb3 2.996939 1_556
Ni0 Yb0 3.176511 1_555
Ni1 Si5 2.353520 1_555
Ni1 Si9 2.364618 1_555
Ni1 Si6 2.380339 1_545
Ni1 Si6 2.380339 1_555
Ni1 Ni17 2.570503 1_556
Ni1 Ni18 2.675973 1_545
Ni1 Ni18 2.675973 1_555
Ni1 Ni14 2.728591 1_555
Ni1 Ni14 2.728591 1_545
Ni1 Yb2 2.996939 1_545
Ni1 Yb2 2.996939 1_555
Ni1 Yb1 3.176511 1_555
Ni2 Si6 2.353520 1_554
Ni2 Si10 2.364618 1_555
Ni2 Si5 2.380339 1_555
Ni2 Si5 2.380339 1_565
Ni2 Yb1 2.996939 1_564
Ni2 Yb1 2.996939 1_554
Ni2 Yb2 3.176511 1_555
Ni3 Si7 2.353520 1_555
Ni3 Si11 2.364618 1_555
Ni3 Si4 2.380339 1_565
Ni3 Si4 2.380339 1_555
Ni3 Yb0 2.996939 1_565
Ni3 Yb0 2.996939 1_555
Ni3 Yb3 3.176511 1_555
Ni4 Si8 2.314420 1_554
Ni4 Si0 2.415186 1_555
Ni4 Si10 2.419587 1_655
Ni4 Si10 2.419587 1_645
Ni4 Ni6 2.586790 1_654
Ni4 Ni6 2.586790 1_644
Ni4 Yb3 3.192873 1_555
Ni4 Yb3 3.192873 1_545
Ni4 Yb1 3.256014 1_654
Ni5 Si9 2.314420 1_555
Ni5 Si1 2.415186 1_555
Ni5 Si11 2.419587 1_555
Ni5 Si11 2.419587 1_545
Ni5 Ni7 2.586790 1_555
Ni5 Ni7 2.586790 1_545
Ni5 Yb2 3.192873 1_555
Ni5 Yb2 3.192873 1_545
Ni5 Yb0 3.256014 1_555
Ni6 Si10 2.314420 1_556
Ni6 Si2 2.415186 1_555
Ni6 Si8 2.419587 1_455
Ni6 Si8 2.419587 1_465
Ni6 Ni9 2.525575 1_565
Ni6 Ni9 2.525575 1_555
Ni6 Yb1 3.192873 1_555
Ni6 Yb1 3.192873 1_565
Ni6 Yb3 3.256014 1_456
Ni7 Si11 2.314420 1_555
Ni7 Si3 2.415186 1_555
Ni7 Si9 2.419587 1_555
Ni7 Si9 2.419587 1_565
Ni7 Ni8 2.525575 1_555
Ni7 Ni8 2.525575 1_565
Ni7 Yb0 3.192873 1_565
Ni7 Yb0 3.192873 1_555
Ni7 Yb2 3.256014 1_555
Ni8 Si9 2.265604 1_555
Ni8 Si1 2.301111 1_556
Ni8 Si3 2.310445 1_545
Ni8 Si3 2.310445 1_555
Ni8 Yb0 2.961974 1_555
Ni9 Si8 2.265604 1_455
Ni9 Si0 2.301111 1_455
Ni9 Si2 2.310445 1_555
Ni9 Si2 2.310445 1_545
Ni9 Yb1 2.961974 1_555
Ni10 Si11 2.265604 1_555
Ni10 Si3 2.301111 1_554
Ni10 Si1 2.310445 1_565
Ni10 Si1 2.310445 1_555
Ni10 Ni8 2.521131 1_564
Ni10 Ni8 2.521131 1_554
Ni10 Ni5 2.525575 1_565
Ni10 Ni5 2.525575 1_555
Ni10 Ni14 2.566386 1_554
Ni10 Yb2 2.961974 1_555
Ni11 Si10 2.265604 1_655
Ni11 Si2 2.301111 1_655
Ni11 Si0 2.310445 1_555
Ni11 Si0 2.310445 1_565
Ni11 Ni9 2.521131 1_665
Ni11 Ni9 2.521131 1_655
Ni11 Ni4 2.525575 1_565
Ni11 Ni4 2.525575 1_555
Ni11 Ni15 2.566386 1_555
Ni11 Yb3 2.961974 1_555
Ni12 Si4 2.295845 1_555
Ni12 Si11 2.429003 1_555
Ni12 Si11 2.429003 1_545
Ni12 Si3 2.488795 1_554
Ni12 Si3 2.488795 1_544
Ni12 Ni8 2.566386 1_554
Ni12 Ni5 2.697746 1_555
Ni12 Ni3 2.728591 1_545
Ni12 Ni3 2.728591 1_555
Ni12 Yb0 3.234575 1_555
Ni13 Si5 2.295845 1_555
Ni13 Si10 2.429003 1_545
Ni13 Si10 2.429003 1_555
Ni13 Si2 2.488795 1_555
Ni13 Si2 2.488795 1_545
Ni13 Ni9 2.566386 1_555
Ni13 Ni4 2.697746 1_455
Ni13 Ni2 2.728591 1_545
Ni13 Ni2 2.728591 1_555
Ni13 Yb1 3.234575 1_554
Ni14 Si6 2.295845 1_555
Ni14 Si9 2.429003 1_565
Ni14 Si9 2.429003 1_555
Ni14 Si1 2.488795 1_566
Ni14 Si1 2.488795 1_556
Ni14 Ni7 2.697746 1_555
Ni14 Yb2 3.234575 1_555
Ni15 Si7 2.295845 1_555
Ni15 Si8 2.429003 1_555
Ni15 Si8 2.429003 1_565
Ni15 Si0 2.488795 1_565
Ni15 Si0 2.488795 1_555
Ni15 Ni6 2.697746 1_655
Ni15 Yb3 3.234575 1_556
Ni16 Si0 2.262307 1_555
Ni16 Si4 2.315417 1_555
Ni16 Si7 2.354492 1_555
Ni16 Si7 2.354492 1_545
Ni16 Ni3 2.675973 1_545
Ni16 Ni3 2.675973 1_555
Ni16 Yb3 3.022767 1_555
Ni16 Yb3 3.022767 1_545
Ni16 Yb0 3.100206 1_555
Ni17 Si1 2.262307 1_555
Ni17 Si5 2.315417 1_555
Ni17 Si6 2.354492 1_544
Ni17 Si6 2.354492 1_554
Ni17 Ni2 2.675973 1_555
Ni17 Ni2 2.675973 1_545
Ni17 Yb2 3.022767 1_555
Ni17 Yb2 3.022767 1_545
Ni17 Yb1 3.100206 1_554
Ni18 Si2 2.262307 1_555
Ni18 Si6 2.315417 1_555
Ni18 Si5 2.354492 1_565
Ni18 Si5 2.354492 1_555
Ni18 Ni2 2.570503 1_555
Ni18 Yb1 3.022767 1_555
Ni18 Yb1 3.022767 1_565
Ni18 Yb2 3.100206 1_555
Ni19 Si3 2.262307 1_555
Ni19 Si7 2.315417 1_555
Ni19 Si4 2.354492 1_556
Ni19 Si4 2.354492 1_566
Ni19 Ni3 2.570503 1_556
Ni19 Yb0 3.022767 1_555
Ni19 Yb0 3.022767 1_565
Ni19 Yb3 3.100206 1_556
