# generated using pymatgen
data_Gd3ErNi4
_symmetry_space_group_name_H-M   'P 1'
_cell_length_a   3.72612631
_cell_length_b   4.20054259
_cell_length_c   10.18260374
_cell_angle_alpha   90.00000000
_cell_angle_beta   90.00000000
_cell_angle_gamma   90.00000000
_symmetry_Int_Tables_number   1
_chemical_formula_structural   Gd3ErNi4
_chemical_formula_sum   'Gd3 Er1 Ni4'
_cell_volume   159.37559111
_cell_formula_units_Z   1
loop_
 _symmetry_equiv_pos_site_id
 _symmetry_equiv_pos_as_xyz
  1  'x, y, z'
loop_
 _atom_site_type_symbol
 _atom_site_label
 _atom_site_symmetry_multiplicity
 _atom_site_fract_x
 _atom_site_fract_y
 _atom_site_fract_z
 _atom_site_occupancy
  Gd  Gd0  1  -0.00000000  0.75000000  0.86126996  1
  Gd  Gd1  1  -0.00000000  0.25000000  0.14369267  1
  Gd  Gd2  1  0.50000000  0.25000000  0.63678196  1
  Er  Er0  1  0.50000000  0.75000000  0.36174940  1
  Ni  Ni0  1  0.50000000  0.75000000  0.07341375  1
  Ni  Ni1  1  -0.00000000  0.75000000  0.56546561  1
  Ni  Ni2  1  -0.00000000  0.25000000  0.42640900  1
  Ni  Ni3  1  0.50000000  0.25000000  0.93121664  1
loop_
_geom_bond_atom_site_label_1
_geom_bond_atom_site_label_2
_geom_bond_distance
_geom_bond_site_symmetry_2
Gd0 Ni0 2.852607 1_556
Gd0 Ni0 2.852607 1_456
Gd0 Ni3 2.896451 1_455
Gd0 Ni3 2.896451 1_555
Gd0 Ni3 2.896451 1_565
Gd0 Ni3 2.896451 1_465
Gd0 Ni1 3.012058 1_555
Gd1 Ni3 2.855169 1_554
Gd1 Ni3 2.855169 1_454
Gd1 Ni2 2.878788 1_555
Gd1 Ni0 2.897285 1_445
Gd1 Ni0 2.897285 1_555
Gd1 Ni0 2.897285 1_455
Gd1 Ni0 2.897285 1_545
Gd2 Ni2 2.838976 1_555
Gd2 Ni2 2.838976 1_655
Gd2 Ni1 2.899912 1_555
Gd2 Ni1 2.899912 1_545
Gd2 Ni1 2.899912 1_655
Gd2 Ni1 2.899912 1_645
Gd2 Ni3 2.998112 1_555
Er0 Ni1 2.788186 1_655
Er0 Ni1 2.788186 1_555
Er0 Ni2 2.883685 1_565
Er0 Ni2 2.883685 1_665
Er0 Ni2 2.883685 1_655
Er0 Ni2 2.883685 1_555
Er0 Ni0 2.936008 1_555
Ni0 Ni3 2.551012 1_564
Ni0 Ni3 2.551012 1_554
Ni1 Ni2 2.532998 1_555
Ni1 Ni2 2.532998 1_565
