# generated using pymatgen
data_Nb3(Ni10B3)2
_symmetry_space_group_name_H-M   'P 1'
_cell_length_a   7.43485384
_cell_length_b   7.43485384
_cell_length_c   7.43485384
_cell_angle_alpha   60.00000000
_cell_angle_beta   60.00000000
_cell_angle_gamma   60.00000000
_symmetry_Int_Tables_number   1
_chemical_formula_structural   Nb3(Ni10B3)2
_chemical_formula_sum   'Nb3 Ni20 B6'
_cell_volume   290.60448228
_cell_formula_units_Z   1
loop_
 _symmetry_equiv_pos_site_id
 _symmetry_equiv_pos_as_xyz
  1  'x, y, z'
loop_
 _atom_site_type_symbol
 _atom_site_label
 _atom_site_symmetry_multiplicity
 _atom_site_fract_x
 _atom_site_fract_y
 _atom_site_fract_z
 _atom_site_occupancy
  Nb  Nb0  1  0.25000000  0.25000000  0.25000000  1
  Nb  Nb1  1  0.75000000  0.75000000  0.75000000  1
  Nb  Nb2  1  0.00000000  -0.00000000  -0.00000000  1
  Ni  Ni0  1  0.38455357  0.38455357  0.38455357  1
  Ni  Ni1  1  0.61544643  0.61544643  0.61544643  1
  Ni  Ni2  1  0.38455357  0.38455357  0.84633929  1
  Ni  Ni3  1  0.38455357  0.84633929  0.38455357  1
  Ni  Ni4  1  0.61544643  0.61544643  0.15366071  1
  Ni  Ni5  1  0.61544643  0.15366071  0.61544643  1
  Ni  Ni6  1  0.84633929  0.38455357  0.38455357  1
  Ni  Ni7  1  0.15366071  0.61544643  0.61544643  1
  Ni  Ni8  1  0.34394302  0.00000000  -0.00000000  1
  Ni  Ni9  1  0.65605698  -0.00000000  0.00000000  1
  Ni  Ni10  1  -0.00000000  0.34394302  0.65605698  1
  Ni  Ni11  1  0.00000000  0.65605698  0.34394302  1
  Ni  Ni12  1  -0.00000000  0.34394302  0.00000000  1
  Ni  Ni13  1  0.65605698  -0.00000000  0.34394302  1
  Ni  Ni14  1  0.00000000  0.65605698  0.00000000  1
  Ni  Ni15  1  0.34394302  0.00000000  0.65605698  1
  Ni  Ni16  1  -0.00000000  0.00000000  0.34394302  1
  Ni  Ni17  1  0.00000000  -0.00000000  0.65605698  1
  Ni  Ni18  1  0.65605698  0.34394302  0.00000000  1
  Ni  Ni19  1  0.34394302  0.65605698  0.00000000  1
  B  B0  1  0.73275643  0.26724357  0.26724357  1
  B  B1  1  0.26724357  0.73275643  0.73275643  1
  B  B2  1  0.26724357  0.73275643  0.26724357  1
  B  B3  1  0.73275643  0.26724357  0.73275643  1
  B  B4  1  0.26724357  0.26724357  0.73275643  1
  B  B5  1  0.73275643  0.73275643  0.26724357  1
loop_
_geom_bond_atom_site_label_1
_geom_bond_atom_site_label_2
_geom_bond_distance
_geom_bond_site_symmetry_2
Nb0 Ni6 2.450436 1_455
Nb0 Ni3 2.450436 1_545
Nb0 Ni0 2.450436 1_555
Nb0 Ni2 2.450436 1_554
Nb1 Ni7 2.450436 1_655
Nb1 Ni5 2.450436 1_565
Nb1 Ni4 2.450436 1_556
Nb1 Ni1 2.450436 1_555
Nb2 Ni18 2.557166 1_455
Nb2 Ni14 2.557166 1_545
Nb2 Ni12 2.557166 1_555
Nb2 Ni9 2.557166 1_455
Nb2 Ni10 2.557166 1_554
Nb2 Ni17 2.557166 1_554
Nb2 Ni13 2.557166 1_455
Nb2 Ni19 2.557166 1_545
Nb2 Ni15 2.557166 1_554
Nb2 Ni16 2.557166 1_555
Nb2 Ni11 2.557166 1_545
Nb2 Ni8 2.557166 1_555
B0 Ni18 2.067129 1_555
B0 Ni13 2.067129 1_555
B0 Ni12 2.067129 1_655
B0 Ni16 2.067129 1_655
B0 Ni0 2.113837 1_555
B0 Ni5 2.113837 1_555
B0 Ni6 2.113837 1_555
B0 Ni4 2.113837 1_555
B1 Ni14 2.067129 1_556
B1 Ni17 2.067129 1_565
B1 Ni19 2.067129 1_556
B1 Ni15 2.067129 1_565
B1 Ni2 2.113837 1_555
B1 Ni3 2.113837 1_555
B1 Ni1 2.113837 1_555
B1 Ni7 2.113837 1_555
B2 Ni16 2.067129 1_565
B2 Ni8 2.067129 1_565
B2 Ni11 2.067129 1_555
B2 Ni19 2.067129 1_555
B2 Ni3 2.113837 1_555
B2 Ni0 2.113837 1_555
B2 Ni4 2.113837 1_555
B2 Ni7 2.113837 1_555
B3 Ni9 2.067129 1_556
B3 Ni10 2.067129 1_655
B3 Ni17 2.067129 1_655
B3 Ni18 2.067129 1_556
B3 Ni2 2.113837 1_555
B3 Ni6 2.113837 1_555
B3 Ni1 2.113837 1_555
B3 Ni5 2.113837 1_555
B4 Ni10 2.067129 1_555
B4 Ni12 2.067129 1_556
B4 Ni8 2.067129 1_556
B4 Ni15 2.067129 1_555
B4 Ni2 2.113837 1_555
B4 Ni0 2.113837 1_555
B4 Ni7 2.113837 1_555
B4 Ni5 2.113837 1_555
B5 Ni11 2.067129 1_655
B5 Ni14 2.067129 1_655
B5 Ni9 2.067129 1_565
B5 Ni13 2.067129 1_565
B5 Ni6 2.113837 1_555
B5 Ni1 2.113837 1_555
B5 Ni3 2.113837 1_555
B5 Ni4 2.113837 1_555
