# generated using pymatgen
data_KMg14Sb
_symmetry_space_group_name_H-M   'P 1'
_cell_length_a   6.55299978
_cell_length_b   6.48266766
_cell_length_c   10.59170147
_cell_angle_alpha   90.00000000
_cell_angle_beta   90.00000000
_cell_angle_gamma   119.64559763
_symmetry_Int_Tables_number   1
_chemical_formula_structural   KMg14Sb
_chemical_formula_sum   'K1 Mg14 Sb1'
_cell_volume   391.04809353
_cell_formula_units_Z   1
loop_
 _symmetry_equiv_pos_site_id
 _symmetry_equiv_pos_as_xyz
  1  'x, y, z'
loop_
 _atom_site_type_symbol
 _atom_site_label
 _atom_site_symmetry_multiplicity
 _atom_site_fract_x
 _atom_site_fract_y
 _atom_site_fract_z
 _atom_site_occupancy
  K  K0  1  0.16666479  0.33333190  0.12500000  1
  Mg  Mg0  1  0.16569296  0.33284598  0.62500000  1
  Mg  Mg1  1  0.16418433  0.83209167  0.62500000  1
  Mg  Mg2  1  0.66590772  0.32788882  0.12500000  1
  Mg  Mg3  1  0.66703637  0.33527813  0.62500000  1
  Mg  Mg4  1  0.66590772  0.83801790  0.12500000  1
  Mg  Mg5  1  0.66703637  0.83175724  0.62500000  1
  Mg  Mg6  1  0.33740356  0.16426060  0.38620742  1
  Mg  Mg7  1  0.33740356  0.16426060  0.86379258  1
  Mg  Mg8  1  0.33740356  0.67314395  0.38620742  1
  Mg  Mg9  1  0.33740356  0.67314395  0.86379258  1
  Mg  Mg10  1  0.82451195  0.16225647  0.38658591  1
  Mg  Mg11  1  0.82451195  0.16225647  0.86341409  1
  Mg  Mg12  1  0.83025863  0.66512981  0.37308147  1
  Mg  Mg13  1  0.83025863  0.66512981  0.87691853  1
  Sb  Sb0  1  0.17841436  0.83920668  0.12500000  1
loop_
_geom_bond_atom_site_label_1
_geom_bond_atom_site_label_2
_geom_bond_distance
_geom_bond_site_symmetry_2
K0 Sb0 3.242024 1_555
K0 Sb0 3.242025 1_545
K0 Mg4 3.264151 1_445
K0 Mg2 3.264152 1_455
K0 Mg4 3.289135 1_555
K0 Mg2 3.289135 1_555
K0 Mg7 3.364595 1_554
K0 Mg6 3.364595 1_555
K0 Mg9 3.364601 1_554
K0 Mg8 3.364601 1_555
K0 Mg11 3.387275 1_454
K0 Mg10 3.387275 1_455
Mg0 Mg6 3.173956 1_555
Mg0 Mg7 3.173956 1_555
Mg0 Mg9 3.173963 1_555
Mg0 Mg8 3.173963 1_555
Mg0 Mg10 3.186273 1_455
Mg0 Mg11 3.186273 1_455
Mg0 Mg1 3.241345 1_545
Mg0 Mg1 3.241345 1_555
Mg0 Mg5 3.275524 1_445
Mg0 Mg3 3.275524 1_455
Mg0 Mg5 3.277533 1_555
Mg0 Mg3 3.277533 1_555
Mg1 Mg8 3.147097 1_555
Mg1 Mg9 3.147097 1_555
Mg1 Mg7 3.147103 1_565
Mg1 Mg6 3.147103 1_565
Mg1 Mg3 3.256738 1_455
Mg1 Mg5 3.256739 1_455
Mg1 Mg12 3.276630 1_455
Mg1 Mg13 3.276630 1_455
Mg1 Mg3 3.296262 1_565
Mg1 Mg5 3.296262 1_555
Mg2 Mg4 3.175670 1_545
Mg2 Sb0 3.198363 1_545
Mg2 Mg4 3.306997 1_555
Mg2 Mg7 3.339842 1_554
Mg2 Mg6 3.339842 1_555
Mg2 Sb0 3.354650 1_655
Mg3 Mg6 3.150071 1_555
Mg3 Mg7 3.150071 1_555
Mg3 Mg5 3.218509 1_555
Mg3 Mg5 3.264159 1_545
Mg4 Sb0 3.198363 1_555
Mg4 Mg8 3.339842 1_555
Mg4 Mg9 3.339842 1_554
Mg4 Sb0 3.354651 1_655
Mg5 Mg8 3.150071 1_555
Mg5 Mg9 3.150071 1_555
Mg6 Mg8 3.183746 1_545
Mg6 Mg8 3.298922 1_555
Mg6 Sb0 3.317864 1_545
Mg7 Mg9 3.183746 1_545
Mg7 Mg9 3.298922 1_555
Mg7 Sb0 3.317864 1_546
Mg8 Sb0 3.317858 1_555
Mg9 Sb0 3.317858 1_556
Mg10 Mg3 3.137628 1_555
Mg10 Mg5 3.137634 1_545
Mg10 Mg8 3.198470 1_545
Mg10 Mg6 3.198470 1_555
Mg10 Mg12 3.244653 1_555
Mg10 Mg12 3.244653 1_545
Mg10 Mg2 3.318670 1_555
Mg10 Mg4 3.318676 1_545
Mg10 Mg8 3.354573 1_655
Mg10 Mg6 3.354574 1_655
Mg11 Mg3 3.137628 1_555
Mg11 Mg5 3.137634 1_545
Mg11 Mg9 3.198470 1_545
Mg11 Mg7 3.198470 1_555
Mg11 Mg13 3.244653 1_555
Mg11 Mg13 3.244653 1_545
Mg11 Mg2 3.318670 1_556
Mg11 Mg4 3.318676 1_546
Mg11 Mg9 3.354573 1_655
Mg11 Mg7 3.354574 1_655
Mg12 Mg4 3.242602 1_555
Mg12 Mg2 3.242609 1_555
Mg12 Mg5 3.251668 1_555
Mg12 Mg3 3.251675 1_555
Mg12 Mg6 3.258657 1_555
Mg12 Mg8 3.258657 1_555
Mg12 Sb0 3.291793 1_655
Mg12 Mg6 3.300861 1_665
Mg12 Mg8 3.300861 1_655
Mg13 Mg4 3.242602 1_556
Mg13 Mg2 3.242609 1_556
Mg13 Mg5 3.251668 1_555
Mg13 Mg3 3.251675 1_555
Mg13 Mg7 3.258657 1_555
Mg13 Mg9 3.258657 1_555
Mg13 Sb0 3.291793 1_656
Mg13 Mg7 3.300861 1_665
Mg13 Mg9 3.300861 1_655
