# generated using pymatgen
data_Yb7MgPt4
_symmetry_space_group_name_H-M   'P 1'
_cell_length_a   4.33864900
_cell_length_b   7.50022700
_cell_length_c   8.83753273
_cell_angle_alpha   89.66871146
_cell_angle_beta   90.00000000
_cell_angle_gamma   90.00000000
_symmetry_Int_Tables_number   1
_chemical_formula_structural   Yb7MgPt4
_chemical_formula_sum   'Yb7 Mg1 Pt4'
_cell_volume   287.57604065
_cell_formula_units_Z   1
loop_
 _symmetry_equiv_pos_site_id
 _symmetry_equiv_pos_as_xyz
  1  'x, y, z'
loop_
 _atom_site_type_symbol
 _atom_site_label
 _atom_site_symmetry_multiplicity
 _atom_site_fract_x
 _atom_site_fract_y
 _atom_site_fract_z
 _atom_site_occupancy
  Yb  Yb0  1  0.50000000  0.52869900  0.82698500  1
  Yb  Yb1  1  0.50000000  0.02192700  0.66422600  1
  Yb  Yb2  1  0.00000000  0.47911100  0.17783800  1
  Yb  Yb3  1  0.00000000  0.96288300  0.33410200  1
  Yb  Yb4  1  0.50000000  0.14627600  0.06884000  1
  Yb  Yb5  1  0.00000000  0.36165000  0.56334600  1
  Yb  Yb6  1  0.00000000  0.85230000  0.93249100  1
  Mg  Mg0  1  0.50000000  0.64531600  0.43421100  1
  Pt  Pt0  1  0.50000000  0.75543100  0.13128900  1
  Pt  Pt1  1  0.50000000  0.26780400  0.37561600  1
  Pt  Pt2  1  0.00000000  0.24106300  0.87435000  1
  Pt  Pt3  1  0.00000000  0.73753900  0.61670700  1
loop_
_geom_bond_atom_site_label_1
_geom_bond_atom_site_label_2
_geom_bond_distance
_geom_bond_site_symmetry_2
Mg0 Pt3 2.792576 1_555
Mg0 Pt3 2.792576 1_655
Mg0 Pt0 2.797016 1_555
Mg0 Pt1 2.881333 1_555
Pt0 Yb6 2.881963 1_654
Pt0 Yb6 2.881963 1_554
Pt0 Yb4 2.979788 1_565
Pt0 Yb2 3.026622 1_655
Pt0 Yb2 3.026622 1_555
Pt0 Yb0 3.190148 1_554
Pt0 Yb3 3.220518 1_655
Pt0 Yb3 3.220518 1_555
Pt1 Yb5 2.822661 1_555
Pt1 Yb5 2.822661 1_655
Pt1 Yb4 2.865254 1_555
Pt1 Yb1 3.138789 1_555
Pt1 Yb3 3.174986 1_545
Pt1 Yb3 3.174986 1_645
Pt1 Yb2 3.200115 1_555
Pt1 Yb2 3.200115 1_655
Pt2 Yb4 2.855095 1_456
Pt2 Yb4 2.855095 1_556
Pt2 Yb5 2.888519 1_555
Pt2 Yb6 2.957810 1_545
Pt2 Yb0 3.086234 1_455
Pt2 Yb0 3.086234 1_555
Pt2 Yb2 3.230582 1_556
Pt2 Yb1 3.300144 1_455
Pt2 Yb1 3.300144 1_555
Pt3 Yb5 2.861110 1_555
Pt3 Yb6 2.925224 1_555
Pt3 Yb3 3.007556 1_555
Pt3 Yb1 3.072827 1_465
Pt3 Yb1 3.072827 1_565
Pt3 Yb0 3.252564 1_455
Pt3 Yb0 3.252564 1_555
