# generated using pymatgen
data_Nd9Ni24Sn49
_symmetry_space_group_name_H-M   'P 1'
_cell_length_a   10.40052865
_cell_length_b   10.40052865
_cell_length_c   17.11282481
_cell_angle_alpha   89.88282626
_cell_angle_beta   89.88282626
_cell_angle_gamma   70.72407511
_symmetry_Int_Tables_number   1
_chemical_formula_structural   Nd9Ni24Sn49
_chemical_formula_sum   'Nd9 Ni24 Sn49'
_cell_volume   1747.33204449
_cell_formula_units_Z   1
loop_
 _symmetry_equiv_pos_site_id
 _symmetry_equiv_pos_as_xyz
  1  'x, y, z'
loop_
 _atom_site_type_symbol
 _atom_site_label
 _atom_site_symmetry_multiplicity
 _atom_site_fract_x
 _atom_site_fract_y
 _atom_site_fract_z
 _atom_site_occupancy
  Nd  Nd0  1  0.75046000  0.24975700  0.75040600  1
  Nd  Nd1  1  0.24954000  0.75024300  0.24959400  1
  Nd  Nd2  1  0.00000000  0.50000000  0.00000000  1
  Nd  Nd3  1  0.50000000  0.00000000  0.50000000  1
  Nd  Nd4  1  0.00000000  0.50000000  0.50000000  1
  Nd  Nd5  1  0.50000000  0.00000000  0.00000000  1
  Nd  Nd6  1  0.24975700  0.75046000  0.75040600  1
  Nd  Nd7  1  0.75024300  0.24954000  0.24959400  1
  Nd  Nd8  1  0.00000000  0.00000000  0.00000000  1
  Ni  Ni0  1  0.74263000  0.09716800  0.57973900  1
  Ni  Ni1  1  0.24272500  0.59831200  0.07918200  1
  Ni  Ni2  1  0.75727500  0.40168800  0.92081800  1
  Ni  Ni3  1  0.25737000  0.90283200  0.42026100  1
  Ni  Ni4  1  0.09716800  0.74263000  0.57973900  1
  Ni  Ni5  1  0.59831200  0.24272500  0.07918200  1
  Ni  Ni6  1  0.40168800  0.75727500  0.92081800  1
  Ni  Ni7  1  0.90283200  0.25737000  0.42026100  1
  Ni  Ni8  1  0.67996700  0.99825700  0.83916600  1
  Ni  Ni9  1  0.17917600  0.49945000  0.33869200  1
  Ni  Ni10  1  0.82082400  0.50055000  0.66130800  1
  Ni  Ni11  1  0.32003300  0.00174300  0.16083400  1
  Ni  Ni12  1  0.50055000  0.82082400  0.66130800  1
  Ni  Ni13  1  0.00174300  0.32003300  0.16083400  1
  Ni  Ni14  1  0.99825700  0.67996700  0.83916600  1
  Ni  Ni15  1  0.49945000  0.17917600  0.33869200  1
  Ni  Ni16  1  0.23989900  0.23989900  0.91922900  1
  Ni  Ni17  1  0.74076100  0.74076100  0.41929100  1
  Ni  Ni18  1  0.25923900  0.25923900  0.58070900  1
  Ni  Ni19  1  0.76010100  0.76010100  0.08077100  1
  Ni  Ni20  1  0.41852300  0.41852300  0.74086600  1
  Ni  Ni21  1  0.91818500  0.91818500  0.23974500  1
  Ni  Ni22  1  0.08181500  0.08181500  0.76025500  1
  Ni  Ni23  1  0.58147700  0.58147700  0.25913400  1
  Sn  Sn0  1  0.50417200  0.25156900  0.62269300  1
  Sn  Sn1  1  0.00284700  0.74011900  0.12880200  1
  Sn  Sn2  1  0.99715300  0.25988100  0.87119800  1
  Sn  Sn3  1  0.49582800  0.74843100  0.37730700  1
  Sn  Sn4  1  0.25156900  0.50417200  0.62269300  1
  Sn  Sn5  1  0.74011900  0.00284700  0.12880200  1
  Sn  Sn6  1  0.25988100  0.99715300  0.87119800  1
  Sn  Sn7  1  0.74843100  0.49582800  0.37730700  1
  Sn  Sn8  1  0.68063800  0.18902800  0.93532600  1
  Sn  Sn9  1  0.19121000  0.68274400  0.43668200  1
  Sn  Sn10  1  0.80879000  0.31725600  0.56331800  1
  Sn  Sn11  1  0.31936200  0.81097200  0.06467400  1
  Sn  Sn12  1  0.31725600  0.80879000  0.56331800  1
  Sn  Sn13  1  0.81097200  0.31936200  0.06467400  1
  Sn  Sn14  1  0.18902800  0.68063800  0.93532600  1
  Sn  Sn15  1  0.68274400  0.19121000  0.43668200  1
  Sn  Sn16  1  0.68424700  0.68424700  0.55876200  1
  Sn  Sn17  1  0.19348900  0.19348900  0.06250300  1
  Sn  Sn18  1  0.80651100  0.80651100  0.93749700  1
  Sn  Sn19  1  0.31575300  0.31575300  0.44123800  1
  Sn  Sn20  1  0.55948500  0.55948500  0.68623500  1
  Sn  Sn21  1  0.06240300  0.06240300  0.19283800  1
  Sn  Sn22  1  0.93759700  0.93759700  0.80716200  1
  Sn  Sn23  1  0.44051500  0.44051500  0.31376500  1
  Sn  Sn24  1  0.81227600  0.55573500  0.81498600  1
  Sn  Sn25  1  0.31327100  0.05688000  0.31596700  1
  Sn  Sn26  1  0.68672900  0.94312000  0.68403300  1
  Sn  Sn27  1  0.18772400  0.44426500  0.18501400  1
  Sn  Sn28  1  0.55573500  0.81227600  0.81498600  1
  Sn  Sn29  1  0.05688000  0.31327100  0.31596700  1
  Sn  Sn30  1  0.94312000  0.68672900  0.68403300  1
  Sn  Sn31  1  0.44426500  0.18772400  0.18501400  1
  Sn  Sn32  1  0.05520300  0.31671300  0.68517500  1
  Sn  Sn33  1  0.55475900  0.81755700  0.18695800  1
  Sn  Sn34  1  0.44524100  0.18244300  0.81304200  1
  Sn  Sn35  1  0.94479700  0.68328700  0.31482500  1
  Sn  Sn36  1  0.18244300  0.44524100  0.81304200  1
  Sn  Sn37  1  0.68328700  0.94479700  0.31482500  1
  Sn  Sn38  1  0.31671300  0.05520300  0.68517500  1
  Sn  Sn39  1  0.81755700  0.55475900  0.18695800  1
  Sn  Sn40  1  0.12967100  0.12967100  0.50176400  1
  Sn  Sn41  1  0.62836900  0.62836900  0.00228100  1
  Sn  Sn42  1  0.37163100  0.37163100  0.99771900  1
  Sn  Sn43  1  0.87032900  0.87032900  0.49823600  1
  Sn  Sn44  1  0.00155200  0.00155200  0.63036600  1
  Sn  Sn45  1  0.50076700  0.50076700  0.13071700  1
  Sn  Sn46  1  0.49923300  0.49923300  0.86928300  1
  Sn  Sn47  1  0.99844800  0.99844800  0.36963400  1
  Sn  Sn48  1  0.50000000  0.50000000  0.50000000  1
loop_
_geom_bond_atom_site_label_1
_geom_bond_atom_site_label_2
_geom_bond_distance
_geom_bond_site_symmetry_2
Nd0 Ni10 3.302037 1_555
Nd0 Ni8 3.306376 1_545
Nd0 Ni22 3.314050 1_655
Nd0 Ni20 3.320601 1_555
Nd0 Sn2 3.326848 1_555
Nd0 Sn22 3.330905 1_545
Nd0 Ni2 3.331663 1_555
Nd0 Ni0 3.340711 1_555
Nd0 Sn8 3.350466 1_555
Nd0 Sn20 3.361267 1_555
Nd0 Sn0 3.365883 1_555
Nd0 Sn10 3.372714 1_555
Nd0 Sn24 3.623542 1_555
Nd0 Sn34 3.628563 1_555
Nd0 Sn32 3.635422 1_655
Nd0 Sn46 3.636172 1_555
Nd0 Sn44 3.640392 1_655
Nd0 Sn26 3.648828 1_545
Nd1 Ni9 3.302037 1_555
Nd1 Ni11 3.306376 1_565
Nd1 Ni21 3.314050 1_455
Nd1 Ni23 3.320601 1_555
Nd1 Sn1 3.326848 1_555
Nd1 Sn21 3.330905 1_565
Nd1 Ni1 3.331663 1_555
Nd1 Ni3 3.340711 1_555
Nd1 Sn11 3.350466 1_555
Nd1 Sn23 3.361267 1_555
Nd1 Sn3 3.365883 1_555
Nd1 Sn9 3.372714 1_555
Nd1 Sn27 3.623542 1_555
Nd1 Sn33 3.628563 1_555
Nd1 Sn35 3.635422 1_455
Nd1 Sn45 3.636172 1_555
Nd1 Sn47 3.640392 1_455
Nd1 Sn25 3.648828 1_565
Nd2 Ni1 3.313373 1_555
Nd2 Ni2 3.313373 1_454
Nd2 Ni19 3.316445 1_455
Nd2 Ni16 3.316445 1_554
Nd2 Ni13 3.322018 1_555
Nd2 Ni14 3.322018 1_454
Nd2 Sn14 3.322782 1_554
Nd2 Sn13 3.322782 1_455
Nd2 Sn17 3.334006 1_555
Nd2 Sn18 3.334006 1_454
Nd2 Sn1 3.341805 1_555
Nd2 Sn2 3.341805 1_454
Nd2 Sn42 3.649110 1_554
Nd2 Sn41 3.649110 1_455
Nd2 Sn39 3.664701 1_455
Nd2 Sn36 3.664701 1_554
Nd2 Sn27 3.666443 1_555
Nd2 Sn24 3.666443 1_454
Nd3 Ni0 3.309797 1_555
Nd3 Ni3 3.309797 1_545
Nd3 Ni18 3.315264 1_555
Nd3 Ni17 3.315264 1_545
Nd3 Ni15 3.326372 1_555
Nd3 Ni12 3.326372 1_545
Nd3 Sn12 3.349575 1_545
Nd3 Sn15 3.349575 1_555
Nd3 Sn16 3.362651 1_545
Nd3 Sn19 3.362651 1_555
Nd3 Sn0 3.369557 1_555
Nd3 Sn3 3.369557 1_545
Nd3 Sn43 3.636596 1_545
Nd3 Sn40 3.636596 1_555
Nd3 Sn38 3.642168 1_555
Nd3 Sn37 3.642168 1_545
Nd3 Sn26 3.646744 1_545
Nd3 Sn25 3.646744 1_555
Nd4 Ni4 3.309797 1_555
Nd4 Ni7 3.309797 1_455
Nd4 Ni18 3.315264 1_555
Nd4 Ni17 3.315264 1_455
Nd4 Ni10 3.326372 1_455
Nd4 Ni9 3.326372 1_555
Nd4 Sn10 3.349575 1_455
Nd4 Sn9 3.349575 1_555
Nd4 Sn19 3.362651 1_555
Nd4 Sn16 3.362651 1_455
Nd4 Sn4 3.369557 1_555
Nd4 Sn7 3.369557 1_455
Nd4 Sn43 3.636596 1_455
Nd4 Sn40 3.636596 1_555
Nd4 Sn32 3.642168 1_555
Nd4 Sn35 3.642168 1_455
Nd4 Sn30 3.646744 1_455
Nd4 Sn29 3.646744 1_555
Nd5 Ni5 3.313373 1_555
Nd5 Ni6 3.313373 1_544
Nd5 Ni19 3.316445 1_545
Nd5 Ni16 3.316445 1_554
Nd5 Ni11 3.322018 1_555
Nd5 Ni8 3.322018 1_544
Nd5 Sn8 3.322782 1_554
Nd5 Sn11 3.322782 1_545
Nd5 Sn17 3.334006 1_555
Nd5 Sn18 3.334006 1_544
Nd5 Sn5 3.341805 1_555
Nd5 Sn6 3.341805 1_544
Nd5 Sn42 3.649110 1_554
Nd5 Sn41 3.649110 1_545
Nd5 Sn33 3.664701 1_545
Nd5 Sn34 3.664701 1_554
Nd5 Sn31 3.666443 1_555
Nd5 Sn28 3.666443 1_544
Nd6 Ni12 3.302037 1_555
Nd6 Ni14 3.306376 1_455
Nd6 Ni22 3.314050 1_565
Nd6 Ni20 3.320601 1_555
Nd6 Sn6 3.326848 1_555
Nd6 Sn22 3.330905 1_455
Nd6 Ni6 3.331663 1_555
Nd6 Ni4 3.340711 1_555
Nd6 Sn14 3.350466 1_555
Nd6 Sn20 3.361267 1_555
Nd6 Sn4 3.365883 1_555
Nd6 Sn12 3.372714 1_555
Nd6 Sn28 3.623542 1_555
Nd6 Sn36 3.628563 1_555
Nd6 Sn38 3.635422 1_565
Nd6 Sn46 3.636172 1_555
Nd6 Sn44 3.640392 1_565
Nd6 Sn30 3.648828 1_455
Nd7 Ni15 3.302037 1_555
Nd7 Ni13 3.306376 1_655
Nd7 Ni21 3.314050 1_545
Nd7 Ni23 3.320601 1_555
Nd7 Sn5 3.326848 1_555
Nd7 Sn21 3.330905 1_655
Nd7 Ni5 3.331663 1_555
Nd7 Ni7 3.340711 1_555
Nd7 Sn13 3.350466 1_555
Nd7 Sn23 3.361267 1_555
Nd7 Sn7 3.365883 1_555
Nd7 Sn15 3.372714 1_555
Nd7 Sn31 3.623542 1_555
Nd7 Sn39 3.628563 1_555
Nd7 Sn37 3.635422 1_545
Nd7 Sn45 3.636172 1_555
Nd7 Sn47 3.640392 1_545
Nd7 Sn29 3.648828 1_655
Nd8 Sn14 3.437636 1_544
Nd8 Sn8 3.437636 1_454
Nd8 Sn11 3.437636 1_545
Nd8 Sn13 3.437636 1_455
Nd8 Sn17 3.454682 1_555
Nd8 Sn18 3.454682 1_444
Nd8 Sn21 3.468158 1_555
Nd8 Sn22 3.468158 1_444
Nd8 Sn5 3.476773 1_455
Nd8 Sn1 3.476773 1_545
Nd8 Sn2 3.476773 1_454
Nd8 Sn6 3.476773 1_544
Ni0 Sn0 2.576393 1_555
Ni0 Sn26 2.586401 1_545
Ni0 Sn10 2.613162 1_555
Ni0 Sn15 2.632880 1_555
Ni0 Sn43 2.685592 1_545
Ni0 Sn44 2.688736 1_655
Ni1 Sn1 2.586049 1_555
Ni1 Sn11 2.598038 1_555
Ni1 Sn27 2.600617 1_555
Ni1 Sn14 2.605128 1_554
Ni1 Sn45 2.686638 1_555
Ni1 Sn42 2.686646 1_554
Ni2 Sn2 2.586049 1_555
Ni2 Sn8 2.598038 1_555
Ni2 Sn24 2.600617 1_555
Ni2 Sn13 2.605128 1_556
Ni2 Sn46 2.686638 1_555
Ni2 Sn41 2.686646 1_556
Ni3 Sn3 2.576393 1_555
Ni3 Sn25 2.586401 1_565
Ni3 Sn9 2.613162 1_555
Ni3 Sn12 2.632880 1_555
Ni3 Sn40 2.685592 1_565
Ni3 Sn47 2.688736 1_455
Ni4 Sn4 2.576393 1_555
Ni4 Sn30 2.586401 1_455
Ni4 Sn12 2.613162 1_555
Ni4 Sn9 2.632880 1_555
Ni4 Sn43 2.685592 1_455
Ni4 Sn44 2.688736 1_565
Ni5 Sn5 2.586049 1_555
Ni5 Sn13 2.598038 1_555
Ni5 Sn31 2.600617 1_555
Ni5 Sn8 2.605128 1_554
Ni5 Sn45 2.686638 1_555
Ni5 Sn42 2.686646 1_554
Ni6 Sn6 2.586049 1_555
Ni6 Sn14 2.598038 1_555
Ni6 Sn28 2.600617 1_555
Ni6 Sn11 2.605128 1_556
Ni6 Sn46 2.686638 1_555
Ni6 Sn41 2.686646 1_556
Ni7 Sn7 2.576393 1_555
Ni7 Sn29 2.586401 1_655
Ni7 Sn15 2.613162 1_555
Ni7 Sn10 2.632880 1_555
Ni7 Sn40 2.685592 1_655
Ni7 Sn47 2.688736 1_545
Ni8 Sn8 2.582096 1_565
Ni8 Sn34 2.596659 1_565
Ni8 Sn22 2.599411 1_555
Ni8 Sn18 2.608299 1_555
Ni8 Sn28 2.690311 1_555
Ni8 Sn26 2.713006 1_555
Ni9 Sn9 2.575512 1_555
Ni9 Sn35 2.586198 1_455
Ni9 Sn23 2.615700 1_555
Ni9 Sn19 2.636687 1_555
Ni9 Sn29 2.673909 1_555
Ni9 Sn27 2.687944 1_555
Ni10 Sn10 2.575512 1_555
Ni10 Sn32 2.586198 1_655
Ni10 Sn20 2.615700 1_555
Ni10 Sn16 2.636687 1_555
Ni10 Sn30 2.673909 1_555
Ni10 Sn24 2.687944 1_555
Ni11 Sn11 2.582096 1_545
Ni11 Sn33 2.596659 1_545
Ni11 Sn21 2.599411 1_555
Ni11 Sn17 2.608299 1_555
Ni11 Sn31 2.690311 1_555
Ni11 Sn25 2.713006 1_555
Ni12 Sn12 2.575512 1_555
Ni12 Sn38 2.586198 1_565
Ni12 Sn20 2.615700 1_555
Ni12 Sn16 2.636687 1_555
Ni12 Sn26 2.673909 1_555
Ni12 Sn28 2.687944 1_555
Ni13 Sn13 2.582096 1_455
Ni13 Sn39 2.596659 1_455
Ni13 Sn21 2.599411 1_555
Ni13 Sn17 2.608299 1_555
Ni13 Sn27 2.690311 1_555
Ni13 Sn29 2.713006 1_555
Ni14 Sn14 2.582096 1_655
Ni14 Sn36 2.596659 1_655
Ni14 Sn22 2.599411 1_555
Ni14 Sn18 2.608299 1_555
Ni14 Sn24 2.690311 1_555
Ni14 Sn30 2.713006 1_555
Ni15 Sn15 2.575512 1_555
Ni15 Sn37 2.586198 1_545
Ni15 Sn23 2.615700 1_555
Ni15 Sn19 2.636687 1_555
Ni15 Sn25 2.673909 1_555
Ni15 Sn31 2.687944 1_555
Ni16 Sn17 2.573239 1_556
Ni16 Sn6 2.598884 1_545
Ni16 Sn2 2.598884 1_455
Ni16 Sn42 2.610134 1_555
Ni16 Sn36 2.714073 1_555
Ni16 Sn34 2.714073 1_555
Ni17 Sn16 2.569849 1_555
Ni17 Sn43 2.582809 1_555
Ni17 Sn3 2.623938 1_555
Ni17 Sn7 2.623938 1_555
Ni17 Sn37 2.684735 1_555
Ni17 Sn35 2.684735 1_555
Ni18 Sn19 2.569849 1_555
Ni18 Sn40 2.582809 1_555
Ni18 Sn0 2.623938 1_555
Ni18 Sn4 2.623938 1_555
Ni18 Sn38 2.684735 1_555
Ni18 Sn32 2.684735 1_555
Ni19 Sn18 2.573239 1_554
Ni19 Sn1 2.598884 1_655
Ni19 Sn5 2.598884 1_565
Ni19 Sn41 2.610134 1_555
Ni19 Sn39 2.714073 1_555
Ni19 Sn33 2.714073 1_555
Ni20 Sn20 2.565285 1_555
Ni20 Sn46 2.592092 1_555
Ni20 Sn0 2.623734 1_555
Ni20 Sn4 2.623734 1_555
Ni20 Sn34 2.677700 1_555
Ni20 Sn36 2.677700 1_555
Ni21 Sn21 2.572853 1_665
Ni21 Sn1 2.596253 1_655
Ni21 Sn5 2.596253 1_565
Ni21 Sn47 2.609534 1_555
Ni21 Sn37 2.690377 1_555
Ni21 Sn35 2.690377 1_555
Ni22 Sn22 2.572853 1_445
Ni22 Sn6 2.596253 1_545
Ni22 Sn2 2.596253 1_455
Ni22 Sn44 2.609534 1_555
Ni22 Sn38 2.690377 1_555
Ni22 Sn32 2.690377 1_555
Ni23 Sn23 2.565285 1_555
Ni23 Sn45 2.592092 1_555
Ni23 Sn3 2.623734 1_555
Ni23 Sn7 2.623734 1_555
Ni23 Sn33 2.677700 1_555
Ni23 Sn39 2.677700 1_555
Sn0 Sn48 3.315201 1_555
Sn3 Sn48 3.315201 1_555
Sn4 Sn48 3.315201 1_555
Sn10 Sn48 3.328128 1_555
Sn12 Sn48 3.328128 1_555
Sn15 Sn48 3.328128 1_555
Sn16 Sn48 3.285658 1_555
Sn19 Sn48 3.285658 1_555
Sn20 Sn48 3.345351 1_555
Sn23 Sn48 3.345351 1_555
Sn48 Sn7 3.315201 1_555
Sn48 Sn9 3.328128 1_555
