# generated using pymatgen
data_Zn3H14C10O13
_symmetry_space_group_name_H-M   'P 1'
_cell_length_a   11.68698400
_cell_length_b   10.25059200
_cell_length_c   19.04317061
_cell_angle_alpha   90.00000000
_cell_angle_beta   126.45870167
_cell_angle_gamma   90.00000000
_symmetry_Int_Tables_number   1
_chemical_formula_structural   Zn3H14C10O13
_chemical_formula_sum   'Zn12 H56 C40 O52'
_cell_volume   1834.85114889
_cell_formula_units_Z   4
loop_
 _symmetry_equiv_pos_site_id
 _symmetry_equiv_pos_as_xyz
  1  'x, y, z'
loop_
 _atom_site_type_symbol
 _atom_site_label
 _atom_site_symmetry_multiplicity
 _atom_site_fract_x
 _atom_site_fract_y
 _atom_site_fract_z
 _atom_site_occupancy
  Zn  Zn0  1  0.87555900  0.92397800  0.13211900  1
  Zn  Zn1  1  0.12444100  0.42397800  0.36788100  1
  Zn  Zn2  1  0.12444100  0.07602200  0.86788100  1
  Zn  Zn3  1  0.87555900  0.57602200  0.63211900  1
  Zn  Zn4  1  0.06551000  0.11574700  0.30661700  1
  Zn  Zn5  1  0.93449000  0.61574700  0.19338300  1
  Zn  Zn6  1  0.93449000  0.88425300  0.69338300  1
  Zn  Zn7  1  0.06551000  0.38425300  0.80661700  1
  Zn  Zn8  1  0.00000000  0.00000000  0.00000000  1
  Zn  Zn9  1  0.00000000  0.50000000  0.50000000  1
  Zn  Zn10  1  0.50000000  0.00000000  0.00000000  1
  Zn  Zn11  1  0.50000000  0.50000000  0.50000000  1
  H  H0  1  0.02455800  0.75689100  0.37000200  1
  H  H1  1  0.97544200  0.25689100  0.12999800  1
  H  H2  1  0.97544200  0.24310900  0.62999800  1
  H  H3  1  0.02455800  0.74310900  0.87000200  1
  H  H4  1  0.28275500  0.05623500  0.26094700  1
  H  H5  1  0.71724500  0.55623500  0.23905300  1
  H  H6  1  0.71724500  0.94376500  0.73905300  1
  H  H7  1  0.28275500  0.44376500  0.76094700  1
  H  H8  1  0.00013300  0.61558200  0.05347300  1
  H  H9  1  0.99986700  0.11558200  0.44652700  1
  H  H10  1  0.99986700  0.38441800  0.94652700  1
  H  H11  1  0.00013300  0.88441800  0.55347300  1
  H  H12  1  0.74648300  0.19985700  0.22736300  1
  H  H13  1  0.25351700  0.69985700  0.27263700  1
  H  H14  1  0.25351700  0.80014300  0.77263700  1
  H  H15  1  0.74648300  0.30014300  0.72736300  1
  H  H16  1  0.73533800  0.15468500  0.92684100  1
  H  H17  1  0.26466200  0.65468500  0.57315900  1
  H  H18  1  0.26466200  0.84531500  0.07315900  1
  H  H19  1  0.73533800  0.34531500  0.42684100  1
  H  H20  1  0.51931700  0.70883900  0.02460400  1
  H  H21  1  0.48068300  0.20883900  0.47539600  1
  H  H22  1  0.48068300  0.29116100  0.97539600  1
  H  H23  1  0.51931700  0.79116100  0.52460400  1
  H  H24  1  0.35252900  0.39611200  0.27084900  1
  H  H25  1  0.64747100  0.89611200  0.22915100  1
  H  H26  1  0.64747100  0.60388800  0.72915100  1
  H  H27  1  0.35252900  0.10388800  0.77084900  1
  H  H28  1  0.23623700  0.31320500  0.16801900  1
  H  H29  1  0.76376300  0.81320500  0.33198100  1
  H  H30  1  0.76376300  0.68679500  0.83198100  1
  H  H31  1  0.23623700  0.18679500  0.66801900  1
  H  H32  1  0.54893100  0.38576800  0.26127000  1
  H  H33  1  0.45106900  0.88576800  0.23873000  1
  H  H34  1  0.45106900  0.61423200  0.73873000  1
  H  H35  1  0.54893100  0.11423200  0.76127000  1
  H  H36  1  0.46231800  0.23619800  0.20714200  1
  H  H37  1  0.53768200  0.73619800  0.29285800  1
  H  H38  1  0.53768200  0.76380200  0.79285800  1
  H  H39  1  0.46231800  0.26380200  0.70714200  1
  H  H40  1  0.50275600  0.41760600  0.11863600  1
  H  H41  1  0.49724400  0.91760600  0.38136400  1
  H  H42  1  0.49724400  0.58239400  0.88136400  1
  H  H43  1  0.50275600  0.08239400  0.61863600  1
  H  H44  1  0.33608400  0.33760200  0.06460800  1
  H  H45  1  0.66391600  0.83760200  0.43539200  1
  H  H46  1  0.66391600  0.66239800  0.93539200  1
  H  H47  1  0.33608400  0.16239800  0.56460800  1
  H  H48  1  0.25302000  0.55730400  0.04620300  1
  H  H49  1  0.74698000  0.05730400  0.45379700  1
  H  H50  1  0.74698000  0.44269600  0.95379700  1
  H  H51  1  0.25302000  0.94269600  0.54620300  1
  H  H52  1  0.41612500  0.61016400  0.14576100  1
  H  H53  1  0.58387500  0.11016400  0.35423900  1
  H  H54  1  0.58387500  0.38983600  0.85423900  1
  H  H55  1  0.41612500  0.88983600  0.64576100  1
  C  C0  1  0.32433800  0.38400300  0.20485900  1
  C  C1  1  0.67566200  0.88400300  0.29514100  1
  C  C2  1  0.67566200  0.61599700  0.79514100  1
  C  C3  1  0.32433800  0.11599700  0.70485900  1
  C  C4  1  0.44992200  0.34253900  0.20511800  1
  C  C5  1  0.55007800  0.84253900  0.29488200  1
  C  C6  1  0.55007800  0.65746100  0.79488200  1
  C  C7  1  0.44992200  0.15746100  0.70511800  1
  C  C8  1  0.41078900  0.40178600  0.11958400  1
  C  C9  1  0.58921100  0.90178600  0.38041600  1
  C  C10  1  0.58921100  0.59821400  0.88041600  1
  C  C11  1  0.41078900  0.09821400  0.61958400  1
  C  C12  1  0.33842800  0.52947800  0.11398400  1
  C  C13  1  0.66157200  0.02947800  0.38601600  1
  C  C14  1  0.66157200  0.47052200  0.88601600  1
  C  C15  1  0.33842800  0.97052200  0.61398400  1
  C  C16  1  0.01050800  0.83630500  0.32623800  1
  C  C17  1  0.98949200  0.33630500  0.17376200  1
  C  C18  1  0.98949200  0.16369500  0.67376200  1
  C  C19  1  0.01050800  0.66369500  0.82623800  1
  C  C20  1  0.17723200  0.02858100  0.20163400  1
  C  C21  1  0.82276800  0.52858100  0.29836600  1
  C  C22  1  0.82276800  0.97141900  0.79836600  1
  C  C23  1  0.17723200  0.47141900  0.70163400  1
  C  C24  1  0.98255700  0.72008200  0.05817800  1
  C  C25  1  0.01744300  0.22008200  0.44182200  1
  C  C26  1  0.01744300  0.27991800  0.94182200  1
  C  C27  1  0.98255700  0.77991800  0.55817800  1
  C  C28  1  0.72964100  0.12937900  0.17816500  1
  C  C29  1  0.27035900  0.62937900  0.32183500  1
  C  C30  1  0.27035900  0.87062100  0.82183500  1
  C  C31  1  0.72964100  0.37062100  0.67816500  1
  C  C32  1  0.72635200  0.09245200  0.97061000  1
  C  C33  1  0.27364800  0.59245200  0.52939000  1
  C  C34  1  0.27364800  0.90754800  0.02939000  1
  C  C35  1  0.72635200  0.40754800  0.47061000  1
  C  C36  1  0.63471400  0.72876600  0.06646100  1
  C  C37  1  0.36528600  0.22876600  0.43353900  1
  C  C38  1  0.36528600  0.27123400  0.93353900  1
  C  C39  1  0.63471400  0.77123400  0.56646100  1
  O  O0  1  0.27763500  0.50898300  0.16090000  1
  O  O1  1  0.72236500  0.00898300  0.33910000  1
  O  O2  1  0.72236500  0.49101700  0.83910000  1
  O  O3  1  0.27763500  0.99101700  0.66090000  1
  O  O4  1  0.94754700  0.80575300  0.24580400  1
  O  O5  1  0.05245300  0.30575300  0.25419600  1
  O  O6  1  0.05245300  0.19424700  0.75419600  1
  O  O7  1  0.94754700  0.69424700  0.74580400  1
  O  O8  1  0.05725300  0.94670900  0.36044400  1
  O  O9  1  0.94274700  0.44670900  0.13955600  1
  O  O10  1  0.94274700  0.05329100  0.63955600  1
  O  O11  1  0.05725300  0.55329100  0.86044400  1
  O  O12  1  0.07851400  0.01618700  0.21159600  1
  O  O13  1  0.92148600  0.51618700  0.28840400  1
  O  O14  1  0.92148600  0.98381300  0.78840400  1
  O  O15  1  0.07851400  0.48381300  0.71159600  1
  O  O16  1  0.16647700  0.01234300  0.13258800  1
  O  O17  1  0.83352300  0.51234300  0.36741200  1
  O  O18  1  0.83352300  0.98765700  0.86741200  1
  O  O19  1  0.16647700  0.48765700  0.63258800  1
  O  O20  1  0.95424200  0.74874900  0.11226900  1
  O  O21  1  0.04575800  0.24874900  0.38773100  1
  O  O22  1  0.04575800  0.25125100  0.88773100  1
  O  O23  1  0.95424200  0.75125100  0.61226900  1
  O  O24  1  0.99244100  0.79823100  0.01127800  1
  O  O25  1  0.00755900  0.29823100  0.48872200  1
  O  O26  1  0.00755900  0.20176900  0.98872200  1
  O  O27  1  0.99244100  0.70176900  0.51127800  1
  O  O28  1  0.84295800  0.07880300  0.19336900  1
  O  O29  1  0.15704200  0.57880300  0.30663100  1
  O  O30  1  0.15704200  0.92119700  0.80663100  1
  O  O31  1  0.84295800  0.42119700  0.69336900  1
  O  O32  1  0.60339200  0.10747500  0.11429600  1
  O  O33  1  0.39660800  0.60747500  0.38570400  1
  O  O34  1  0.39660800  0.89252500  0.88570400  1
  O  O35  1  0.60339200  0.39252500  0.61429600  1
  O  O36  1  0.83682700  0.02229600  0.02441200  1
  O  O37  1  0.16317300  0.52229600  0.47558800  1
  O  O38  1  0.16317300  0.97770400  0.97558800  1
  O  O39  1  0.83682700  0.47770400  0.52441200  1
  O  O40  1  0.61299800  0.09832800  0.96354900  1
  O  O41  1  0.38700200  0.59832800  0.53645100  1
  O  O42  1  0.38700200  0.90167200  0.03645100  1
  O  O43  1  0.61299800  0.40167200  0.46354900  1
  O  O44  1  0.66955300  0.84838100  0.06766500  1
  O  O45  1  0.33044700  0.34838100  0.43233500  1
  O  O46  1  0.33044700  0.15161900  0.93233500  1
  O  O47  1  0.66955300  0.65161900  0.56766500  1
  O  O48  1  0.71595700  0.63396700  0.10700300  1
  O  O49  1  0.28404300  0.13396700  0.39299700  1
  O  O50  1  0.28404300  0.36603300  0.89299700  1
  O  O51  1  0.71595700  0.86603300  0.60700300  1
loop_
_geom_bond_atom_site_label_1
_geom_bond_atom_site_label_2
_geom_bond_distance
_geom_bond_site_symmetry_2
C0 H24 1.100491 1_555
C0 H28 1.104763 1_555
C0 O0 1.448073 1_555
C1 H25 1.100491 1_555
C1 H29 1.104763 1_555
C1 O1 1.448073 1_565
C2 H26 1.100491 1_555
C2 H30 1.104763 1_555
C2 O2 1.448073 1_555
C3 H27 1.100491 1_555
C3 H31 1.104763 1_555
C3 O3 1.448073 1_545
C4 H36 1.097299 1_555
C4 H32 1.099167 1_555
C5 H37 1.097299 1_555
C5 H33 1.099167 1_555
C6 H38 1.097299 1_555
C6 H34 1.099167 1_555
C7 H39 1.097299 1_555
C7 H35 1.099167 1_555
C8 H44 1.097652 1_555
C8 H40 1.097686 1_555
C9 H45 1.097652 1_555
C9 H41 1.097686 1_555
C10 H46 1.097652 1_555
C10 H42 1.097686 1_555
C11 H47 1.097652 1_555
C11 H43 1.097686 1_555
C12 H48 1.101146 1_555
C12 H52 1.105320 1_555
C12 O0 1.449675 1_555
C13 H49 1.101146 1_555
C13 H53 1.105320 1_555
C13 O1 1.449675 1_555
C14 H50 1.101146 1_555
C14 H54 1.105320 1_555
C14 O2 1.449675 1_555
C15 H51 1.101146 1_555
C15 H55 1.105320 1_555
C15 O3 1.449675 1_555
C16 H0 1.105237 1_555
C16 O8 1.257214 1_555
C16 O4 1.283029 1_455
C17 H1 1.105237 1_555
C17 O9 1.257214 1_555
C17 O5 1.283029 1_655
C18 H2 1.105237 1_555
C18 O10 1.257214 1_555
C18 O6 1.283029 1_655
C19 H3 1.105237 1_555
C19 O11 1.257214 1_555
C19 O7 1.283029 1_455
C20 H4 1.105225 1_555
C20 O16 1.255360 1_555
C20 O12 1.281918 1_555
C21 H5 1.105225 1_555
C21 O17 1.255360 1_555
C21 O13 1.281918 1_555
C22 H6 1.105225 1_555
C22 O18 1.255360 1_555
C22 O14 1.281918 1_555
C23 H7 1.105225 1_555
C23 O19 1.255360 1_555
C23 O15 1.281918 1_555
C24 H8 1.104326 1_655
C24 O24 1.255129 1_555
C24 O20 1.289187 1_555
C25 H9 1.104326 1_455
C25 O25 1.255129 1_555
C25 O21 1.289187 1_555
C26 H10 1.104326 1_455
C26 O26 1.255129 1_555
C26 O22 1.289187 1_555
C27 H11 1.104326 1_655
C27 O27 1.255129 1_555
C27 O23 1.289187 1_555
C28 H12 1.104197 1_555
C28 O32 1.254558 1_555
C28 O28 1.284816 1_555
C29 H13 1.104197 1_555
C29 O33 1.254558 1_555
C29 O29 1.284816 1_555
C30 H14 1.104197 1_555
C30 O34 1.254558 1_555
C30 O30 1.284816 1_555
C31 H15 1.104197 1_555
C31 O35 1.254558 1_555
C31 O31 1.284816 1_555
C32 H16 1.103056 1_555
C32 O40 1.251002 1_555
C32 O36 1.289074 1_556
C33 H17 1.103056 1_555
C33 O41 1.251002 1_555
C33 O37 1.289074 1_555
C34 H18 1.103056 1_555
C34 O42 1.251002 1_555
C34 O38 1.289074 1_554
C35 H19 1.103056 1_555
C35 O43 1.251002 1_555
C35 O39 1.289074 1_555
C36 H20 1.103768 1_555
C36 O48 1.253257 1_555
C36 O44 1.287864 1_555
C37 H21 1.103768 1_555
C37 O49 1.253257 1_555
C37 O45 1.287864 1_555
C38 H22 1.103768 1_555
C38 O50 1.253257 1_555
C38 O46 1.287864 1_555
C39 H23 1.103768 1_555
C39 O51 1.253257 1_555
C39 O47 1.287864 1_555
O4 Zn5 2.152255 1_555
O4 Zn0 2.167637 1_555
O5 Zn4 2.152255 1_555
O5 Zn1 2.167637 1_555
O6 Zn7 2.152255 1_555
O6 Zn2 2.167637 1_555
O7 Zn6 2.152255 1_555
O7 Zn3 2.167637 1_555
O8 Zn4 2.044495 1_565
O9 Zn5 2.044495 1_555
O10 Zn6 2.044495 1_545
O11 Zn7 2.044495 1_555
O12 Zn0 2.131565 1_445
O12 Zn4 2.160035 1_555
O13 Zn1 2.131565 1_655
O13 Zn5 2.160035 1_555
O14 Zn2 2.131565 1_665
O14 Zn6 2.160035 1_555
O15 Zn3 2.131565 1_455
O15 Zn7 2.160035 1_555
O16 Zn8 2.082814 1_555
O17 Zn9 2.082814 1_655
O18 Zn8 2.082814 1_666
O19 Zn9 2.082814 1_555
O20 Zn0 2.151267 1_555
O20 Zn5 2.172968 1_555
O21 Zn1 2.151267 1_555
O21 Zn4 2.172968 1_555
O22 Zn2 2.151267 1_555
O22 Zn7 2.172968 1_555
O23 Zn3 2.151267 1_555
O23 Zn6 2.172968 1_555
O24 Zn8 2.086659 1_665
O25 Zn9 2.086659 1_555
O26 Zn8 2.086659 1_556
O27 Zn9 2.086659 1_655
O28 Zn0 2.133666 1_545
O28 Zn4 2.211976 1_655
O29 Zn1 2.133666 1_555
O29 Zn5 2.211976 1_455
O30 Zn2 2.133666 1_565
O30 Zn6 2.211976 1_455
O31 Zn3 2.133666 1_555
O31 Zn7 2.211976 1_655
O32 Zn10 2.070133 1_555
O33 Zn11 2.070133 1_555
O34 Zn10 2.070133 1_566
O35 Zn11 2.070133 1_555
O36 Zn0 2.079446 1_545
O36 Zn8 2.226798 1_655
O37 Zn1 2.079446 1_555
O37 Zn9 2.226798 1_555
O38 Zn2 2.079446 1_565
O38 Zn8 2.226798 1_566
O39 Zn3 2.079446 1_555
O39 Zn9 2.226798 1_655
O40 Zn10 2.081156 1_556
O41 Zn11 2.081156 1_555
O42 Zn10 2.081156 1_565
O43 Zn11 2.081156 1_555
O44 Zn0 2.095571 1_555
O44 Zn10 2.228863 1_565
O45 Zn1 2.095571 1_555
O45 Zn11 2.228863 1_555
O46 Zn2 2.095571 1_555
O46 Zn10 2.228863 1_556
O47 Zn3 2.095571 1_555
O47 Zn11 2.228863 1_555
O48 Zn5 2.066533 1_555
O49 Zn4 2.066533 1_555
O50 Zn7 2.066533 1_555
O51 Zn6 2.066533 1_555
