# generated using pymatgen
data_Ba5Na2Ru3O14
_symmetry_space_group_name_H-M   'P 1'
_cell_length_a   24.74095100
_cell_length_b   5.91374700
_cell_length_c   5.97777529
_cell_angle_alpha   60.63978885
_cell_angle_beta   90.00000000
_cell_angle_gamma   90.00000000
_symmetry_Int_Tables_number   1
_chemical_formula_structural   Ba5Na2Ru3O14
_chemical_formula_sum   'Ba10 Na4 Ru6 O28'
_cell_volume   762.27779456
_cell_formula_units_Z   2
loop_
 _symmetry_equiv_pos_site_id
 _symmetry_equiv_pos_as_xyz
  1  'x, y, z'
loop_
 _atom_site_type_symbol
 _atom_site_label
 _atom_site_symmetry_multiplicity
 _atom_site_fract_x
 _atom_site_fract_y
 _atom_site_fract_z
 _atom_site_occupancy
  Ba  Ba0  1  0.44120200  0.68032600  0.64237400  1
  Ba  Ba1  1  0.55683300  0.32579200  0.37172600  1
  Ba  Ba2  1  0.94120200  0.31967400  0.35762600  1
  Ba  Ba3  1  0.05683300  0.67420800  0.62827400  1
  Ba  Ba4  1  0.33548400  0.00577500  0.97662300  1
  Ba  Ba5  1  0.66501400  0.98578100  0.02346400  1
  Ba  Ba6  1  0.83548400  0.99422500  0.02337700  1
  Ba  Ba7  1  0.16501400  0.01421900  0.97653600  1
  Ba  Ba8  1  0.25054600  0.34272300  0.31370700  1
  Ba  Ba9  1  0.75054600  0.65727700  0.68629300  1
  Na  Na0  1  0.40263600  0.34552300  0.31831800  1
  Na  Na1  1  0.59894300  0.67764800  0.68134800  1
  Na  Na2  1  0.90263600  0.65447700  0.68168200  1
  Na  Na3  1  0.09894300  0.32235200  0.31865200  1
  Ru  Ru0  1  0.30603400  0.67370100  0.64821000  1
  Ru  Ru1  1  0.69326900  0.32495500  0.35283300  1
  Ru  Ru2  1  0.80603400  0.32629900  0.35179000  1
  Ru  Ru3  1  0.19326900  0.67504500  0.64716700  1
  Ru  Ru4  1  0.49787400  0.99618700  0.01213100  1
  Ru  Ru5  1  0.99787400  0.00381300  0.98786900  1
  O  O0  1  0.44295600  0.76113900  0.12716900  1
  O  O1  1  0.55800100  0.92848900  0.87420800  1
  O  O2  1  0.94295600  0.23886100  0.87283100  1
  O  O3  1  0.05800100  0.07151100  0.12579200  1
  O  O4  1  0.46467100  0.17925900  0.66999100  1
  O  O5  1  0.53301400  0.81830000  0.35404700  1
  O  O6  1  0.96467100  0.82074100  0.33000900  1
  O  O7  1  0.03301400  0.18170000  0.64595300  1
  O  O8  1  0.34804600  0.98605100  0.49247100  1
  O  O9  1  0.65215800  0.48000900  0.51312100  1
  O  O10  1  0.84804600  0.01394900  0.50752900  1
  O  O11  1  0.15215800  0.51999100  0.48687900  1
  O  O12  1  0.24916900  0.37083400  0.79904000  1
  O  O13  1  0.75019800  0.17276900  0.19985500  1
  O  O14  1  0.74916900  0.62916600  0.20096000  1
  O  O15  1  0.25019800  0.82723100  0.80014500  1
  O  O16  1  0.34610800  0.51500900  0.49227500  1
  O  O17  1  0.65393200  0.01070600  0.50900900  1
  O  O18  1  0.84610800  0.48499100  0.50772500  1
  O  O19  1  0.15393200  0.98929400  0.49099100  1
  O  O20  1  0.34726500  0.51145900  0.95934400  1
  O  O21  1  0.65049000  0.47028500  0.04574100  1
  O  O22  1  0.84726500  0.48854100  0.04065600  1
  O  O23  1  0.15049000  0.52971500  0.95425900  1
  O  O24  1  0.25002300  0.82473200  0.34736300  1
  O  O25  1  0.75002300  0.17526800  0.65263700  1
  O  O26  1  0.48913400  0.28718800  0.04544100  1
  O  O27  1  0.98913400  0.71281200  0.95455900  1
loop_
_geom_bond_atom_site_label_1
_geom_bond_atom_site_label_2
_geom_bond_distance
_geom_bond_site_symmetry_2
Ba0 O26 2.669066 1_556
Ba0 O5 2.723445 1_555
Ba0 O8 2.791961 1_555
Ba0 O20 2.851906 1_555
Ba0 O16 2.855925 1_555
Ba0 O0 2.876114 1_555
Ba0 O4 2.943665 1_555
Ba0 O4 3.089964 1_565
Ba0 O0 3.160183 1_556
Ba1 O26 2.664294 1_555
Ba1 O4 2.759350 1_555
Ba1 O1 2.760998 1_545
Ba1 O9 2.804326 1_555
Ba1 O21 2.874698 1_555
Ba1 O17 2.901236 1_555
Ba1 O5 2.922271 1_555
Ba1 O5 3.110714 1_545
Ba1 O1 3.339893 1_554
Ba2 O27 2.669066 1_554
Ba2 O7 2.723445 1_655
Ba2 O10 2.791961 1_555
Ba2 O22 2.851906 1_555
Ba2 O18 2.855925 1_555
Ba2 O2 2.876114 1_555
Ba2 O6 2.943665 1_555
Ba2 O6 3.089964 1_545
Ba2 O2 3.160183 1_554
Ba3 O27 2.664294 1_455
Ba3 O6 2.759350 1_455
Ba3 O3 2.760998 1_565
Ba3 O11 2.804326 1_555
Ba3 O23 2.874698 1_555
Ba3 O19 2.901236 1_555
Ba3 O7 2.922271 1_555
Ba3 O7 3.110714 1_565
Ba3 O3 3.339893 1_556
Ba4 O15 2.787896 1_545
Ba4 O12 2.846180 1_555
Ba4 O24 2.863866 1_546
Ba4 O0 2.948939 1_546
Ba4 O20 2.955629 1_555
Ba4 O8 2.969402 1_545
Ba4 O20 2.989508 1_545
Ba4 O16 2.995158 1_555
Ba4 O16 3.036648 1_546
Ba4 O8 3.044048 1_546
Ba5 O14 2.777442 1_555
Ba5 O13 2.814190 1_565
Ba5 O25 2.856081 1_564
Ba5 O1 2.866545 1_554
Ba5 O21 2.954755 1_565
Ba5 O17 2.990119 1_565
Ba5 O9 3.004993 1_555
Ba5 O21 3.007026 1_555
Ba5 O17 3.018252 1_564
Ba5 O9 3.034303 1_564
Ba6 O13 2.787896 1_565
Ba6 O14 2.846180 1_555
Ba6 O25 2.863866 1_564
Ba6 O2 2.948939 1_564
Ba6 O22 2.955629 1_555
Ba6 O10 2.969402 1_565
Ba6 O22 2.989508 1_565
Ba6 O18 2.995158 1_555
Ba6 O18 3.036648 1_564
Ba6 O10 3.044048 1_564
Ba7 O12 2.777442 1_555
Ba7 O15 2.814190 1_545
Ba7 O24 2.856081 1_546
Ba7 O3 2.866545 1_556
Ba7 O23 2.954755 1_545
Ba7 O19 2.990119 1_545
Ba7 O11 3.004993 1_555
Ba7 O23 3.007026 1_555
Ba7 O19 3.018252 1_546
Ba7 O11 3.034303 1_546
Ba8 O24 2.954358 1_555
Ba8 O24 2.969835 1_545
Ba8 O16 2.972179 1_555
Ba8 O12 2.986431 1_555
Ba8 O12 2.998752 1_554
Ba8 O15 3.001478 1_554
Ba8 O19 3.005527 1_545
Ba8 O15 3.009370 1_545
Ba8 O20 3.022621 1_554
Ba8 O11 3.026568 1_555
Ba8 O8 3.033085 1_545
Ba8 O23 3.104477 1_554
Ba9 O25 2.954358 1_555
Ba9 O25 2.969835 1_565
Ba9 O18 2.972179 1_555
Ba9 O14 2.986431 1_555
Ba9 O14 2.998752 1_556
Ba9 O13 3.001478 1_556
Ba9 O17 3.005527 1_565
Ba9 O13 3.009370 1_565
Ba9 O22 3.022621 1_556
Ba9 O9 3.026568 1_555
Ba9 O10 3.033085 1_565
Ba9 O21 3.104477 1_556
Na0 O16 2.250321 1_555
Na0 O8 2.292796 1_545
Na0 O20 2.319379 1_554
Na0 O0 2.363856 1_555
Na0 O4 2.390573 1_555
Na0 O26 2.812722 1_555
Na1 O17 2.191322 1_565
Na1 O21 2.292531 1_556
Na1 O9 2.294189 1_555
Na1 O5 2.363194 1_555
Na1 O1 2.496534 1_555
Na2 O18 2.250321 1_555
Na2 O10 2.292796 1_565
Na2 O22 2.319379 1_556
Na2 O2 2.363856 1_555
Na2 O6 2.390573 1_555
Na2 O27 2.812722 1_555
Na3 O19 2.191322 1_545
Na3 O23 2.292531 1_554
Na3 O11 2.294189 1_555
Na3 O7 2.363194 1_555
Na3 O3 2.496534 1_555
O0 Ru4 1.820394 1_555
O1 Ru4 1.837569 1_556
O2 Ru5 1.820394 1_555
O3 Ru5 1.837569 1_454
O4 Ru4 1.964339 1_546
O5 Ru4 1.982828 1_555
O6 Ru5 1.964339 1_564
O7 Ru5 1.982828 1_455
O8 Ru0 1.916456 1_555
O9 Ru1 1.911796 1_555
O10 Ru2 1.916456 1_555
O11 Ru3 1.911796 1_555
O12 Ru3 2.090903 1_555
O12 Ru0 2.101593 1_555
O13 Ru2 2.089551 1_555
O13 Ru1 2.106439 1_555
O14 Ru1 2.090903 1_555
O14 Ru2 2.101593 1_555
O15 Ru0 2.089551 1_555
O15 Ru3 2.106439 1_555
O16 Ru0 1.894843 1_555
O17 Ru1 1.889729 1_555
O18 Ru2 1.894843 1_555
O19 Ru3 1.889729 1_555
O20 Ru0 1.915849 1_555
O21 Ru1 1.918760 1_555
O22 Ru2 1.915849 1_555
O23 Ru3 1.918760 1_555
O24 Ru0 2.092180 1_555
O24 Ru3 2.100336 1_555
O25 Ru2 2.092180 1_555
O25 Ru1 2.100336 1_555
O26 Ru4 1.839550 1_545
O27 Ru5 1.839550 1_565
