# generated using pymatgen
data_Fe(C2N3)3
_symmetry_space_group_name_H-M   'P 1'
_cell_length_a   7.76570136
_cell_length_b   13.79533805
_cell_length_c   11.82408400
_cell_angle_alpha   90.00000000
_cell_angle_beta   90.00000000
_cell_angle_gamma   27.34929694
_symmetry_Int_Tables_number   1
_chemical_formula_structural   Fe(C2N3)3
_chemical_formula_sum   'Fe2 C12 N18'
_cell_volume   581.94871383
_cell_formula_units_Z   2
loop_
 _symmetry_equiv_pos_site_id
 _symmetry_equiv_pos_as_xyz
  1  'x, y, z'
loop_
 _atom_site_type_symbol
 _atom_site_label
 _atom_site_symmetry_multiplicity
 _atom_site_fract_x
 _atom_site_fract_y
 _atom_site_fract_z
 _atom_site_occupancy
  Fe  Fe0  1  0.00000000  0.28477000  0.25000000  1
  Fe  Fe1  1  0.00000000  0.71523000  0.75000000  1
  C  C0  1  0.68181600  0.79123300  0.25000000  1
  C  C1  1  0.68181600  0.52695100  0.75000000  1
  C  C2  1  0.31818400  0.20876700  0.75000000  1
  C  C3  1  0.31818400  0.47304900  0.25000000  1
  C  C4  1  0.68213600  0.30227400  0.90406000  1
  C  C5  1  0.68213600  0.01559000  0.09594000  1
  C  C6  1  0.68213600  0.30227400  0.59594000  1
  C  C7  1  0.68213600  0.01559000  0.40406000  1
  C  C8  1  0.31786400  0.69772600  0.09594000  1
  C  C9  1  0.31786400  0.98441000  0.90406000  1
  C  C10  1  0.31786400  0.69772600  0.40406000  1
  C  C11  1  0.31786400  0.98441000  0.59594000  1
  N  N0  1  0.00000000  0.58775800  0.25000000  1
  N  N1  1  0.00000000  0.41224300  0.75000000  1
  N  N2  1  0.38072000  0.97720600  0.25000000  1
  N  N3  1  0.38072000  0.64207300  0.75000000  1
  N  N4  1  0.61928000  0.02279400  0.75000000  1
  N  N5  1  0.61928000  0.35792700  0.25000000  1
  N  N6  1  0.00000000  0.12471300  0.95081600  1
  N  N7  1  0.00000000  0.87528700  0.04918400  1
  N  N8  1  0.00000000  0.12471300  0.54918400  1
  N  N9  1  0.00000000  0.87528700  0.45081600  1
  N  N10  1  0.38095300  0.46772100  0.86679300  1
  N  N11  1  0.38095300  0.15132600  0.13320700  1
  N  N12  1  0.38095300  0.46772100  0.63320700  1
  N  N13  1  0.38095300  0.15132600  0.36679300  1
  N  N14  1  0.61904700  0.53227900  0.13320700  1
  N  N15  1  0.61904700  0.84867400  0.86679300  1
  N  N16  1  0.61904700  0.53227900  0.36679300  1
  N  N17  1  0.61904700  0.84867400  0.63320700  1
loop_
_geom_bond_atom_site_label_1
_geom_bond_atom_site_label_2
_geom_bond_distance
_geom_bond_site_symmetry_2
Fe0 N13 2.091244 1_555
Fe0 N11 2.091244 1_555
Fe0 N16 2.091244 1_455
Fe0 N14 2.091244 1_455
Fe0 N5 2.111671 1_455
Fe0 N2 2.111682 1_545
Fe1 N15 2.091244 1_455
Fe1 N17 2.091244 1_455
Fe1 N10 2.091244 1_555
Fe1 N12 2.091244 1_555
Fe1 N3 2.111671 1_555
Fe1 N4 2.111682 1_465
C0 N2 1.180152 1_555
C0 N0 1.289771 1_655
C1 N3 1.180157 1_555
C1 N1 1.289778 1_655
C2 N4 1.180152 1_555
C2 N1 1.289778 1_555
C3 N5 1.180157 1_555
C3 N0 1.289771 1_555
C4 N10 1.179308 1_555
C4 N6 1.287524 1_655
C5 N11 1.179308 1_555
C5 N7 1.287524 1_645
C6 N12 1.179308 1_555
C6 N8 1.287524 1_655
C7 N13 1.179308 1_555
C7 N9 1.287524 1_645
C8 N14 1.179308 1_555
C8 N7 1.287524 1_555
C9 N15 1.179308 1_555
C9 N6 1.287524 1_565
C10 N16 1.179308 1_555
C10 N9 1.287524 1_555
C11 N17 1.179308 1_555
C11 N8 1.287524 1_565
