# generated using pymatgen
data_Ba2Pd
_symmetry_space_group_name_H-M   'P 1'
_cell_length_a   5.18753151
_cell_length_b   8.42655842
_cell_length_c   10.57939439
_cell_angle_alpha   89.98783992
_cell_angle_beta   90.00000000
_cell_angle_gamma   90.00000000
_symmetry_Int_Tables_number   1
_chemical_formula_structural   Ba2Pd
_chemical_formula_sum   'Ba8 Pd4'
_cell_volume   462.45745127
_cell_formula_units_Z   4
loop_
 _symmetry_equiv_pos_site_id
 _symmetry_equiv_pos_as_xyz
  1  'x, y, z'
loop_
 _atom_site_type_symbol
 _atom_site_label
 _atom_site_symmetry_multiplicity
 _atom_site_fract_x
 _atom_site_fract_y
 _atom_site_fract_z
 _atom_site_occupancy
  Ba  Ba0  1  0.25000000  0.86083564  0.41612661  1
  Ba  Ba1  1  0.25000000  0.36062038  0.08385100  1
  Ba  Ba2  1  0.75000000  0.13907559  0.58375086  1
  Ba  Ba3  1  0.75000000  0.63929546  0.91625124  1
  Ba  Ba4  1  0.25000000  0.00004589  0.84133341  1
  Ba  Ba5  1  0.25000000  0.50002837  0.65873973  1
  Ba  Ba6  1  0.75000000  0.00004326  0.15876446  1
  Ba  Ba7  1  0.75000000  0.50006245  0.34117664  1
  Pd  Pd0  1  0.25000000  0.25838591  0.41143418  1
  Pd  Pd1  1  0.25000000  0.75858618  0.08859792  1
  Pd  Pd2  1  0.75000000  0.74160910  0.58841414  1
  Pd  Pd3  1  0.75000000  0.24140776  0.91155983  1
loop_
_geom_bond_atom_site_label_1
_geom_bond_atom_site_label_2
_geom_bond_distance
_geom_bond_site_symmetry_2
Ba0 Pd2 3.325422 1_555
Ba0 Pd2 3.325422 1_455
Ba0 Pd0 3.350338 1_565
Ba0 Pd1 3.570749 1_555
Ba0 Ba2 3.920635 1_565
Ba0 Ba2 3.920635 1_465
Ba0 Ba6 3.938982 1_565
Ba0 Ba6 3.938982 1_465
Ba0 Ba5 3.978498 1_555
Ba0 Ba7 4.074241 1_455
Ba0 Ba7 4.074241 1_555
Ba1 Pd3 3.325641 1_454
Ba1 Pd3 3.325641 1_554
Ba1 Pd1 3.353869 1_555
Ba1 Pd0 3.570923 1_555
Ba1 Ba3 3.922261 1_554
Ba1 Ba3 3.922261 1_454
Ba1 Ba7 3.939648 1_555
Ba1 Ba7 3.939648 1_455
Ba1 Ba4 3.977180 1_554
Ba1 Ba6 4.072682 1_555
Ba1 Ba6 4.072682 1_455
Ba2 Pd0 3.325804 1_555
Ba2 Pd0 3.325804 1_655
Ba2 Pd2 3.349627 1_545
Ba2 Pd3 3.573795 1_555
Ba2 Ba4 3.940148 1_555
Ba2 Ba4 3.940148 1_655
Ba2 Ba7 3.979389 1_555
Ba2 Ba5 4.075450 1_555
Ba2 Ba5 4.075450 1_655
Ba3 Pd1 3.326162 1_656
Ba3 Pd1 3.326162 1_556
Ba3 Pd3 3.353202 1_555
Ba3 Pd2 3.573691 1_555
Ba3 Ba5 3.940568 1_555
Ba3 Ba5 3.940568 1_655
Ba3 Ba6 3.978266 1_566
Ba3 Ba4 4.073781 1_665
Ba3 Ba4 4.073781 1_565
Ba4 Pd1 3.313702 1_546
Ba4 Pd3 3.378874 1_455
Ba4 Pd3 3.378874 1_555
Ba5 Pd0 3.315672 1_555
Ba5 Pd2 3.380025 1_555
Ba5 Pd2 3.380025 1_455
Ba6 Pd3 3.312709 1_554
Ba6 Pd1 3.379217 1_545
Ba6 Pd1 3.379217 1_645
Ba7 Pd2 3.314608 1_555
Ba7 Pd0 3.380353 1_555
Ba7 Pd0 3.380353 1_655
