# generated using pymatgen
data_Pr(Ni2Sn)2
_symmetry_space_group_name_H-M   'P 1'
_cell_length_a   6.71491954
_cell_length_b   6.71491954
_cell_length_c   6.71491954
_cell_angle_alpha   108.31130463
_cell_angle_beta   110.05427338
_cell_angle_gamma   110.05427338
_symmetry_Int_Tables_number   1
_chemical_formula_structural   Pr(Ni2Sn)2
_chemical_formula_sum   'Pr2 Ni8 Sn4'
_cell_volume   233.00614040
_cell_formula_units_Z   2
loop_
 _symmetry_equiv_pos_site_id
 _symmetry_equiv_pos_as_xyz
  1  'x, y, z'
loop_
 _atom_site_type_symbol
 _atom_site_label
 _atom_site_symmetry_multiplicity
 _atom_site_fract_x
 _atom_site_fract_y
 _atom_site_fract_z
 _atom_site_occupancy
  Pr  Pr0  1  0.50000000  0.00000000  0.50000000  1
  Pr  Pr1  1  0.50000000  0.50000000  0.00000000  1
  Ni  Ni0  1  0.72633200  0.45021600  0.44959400  1
  Ni  Ni1  1  0.27366800  0.72326300  0.72388500  1
  Ni  Ni2  1  0.00062200  0.95021600  0.22388500  1
  Ni  Ni3  1  0.99937800  0.22326300  0.94959400  1
  Ni  Ni4  1  0.99937800  0.27611500  0.54978400  1
  Ni  Ni5  1  0.00062200  0.55040600  0.27673700  1
  Ni  Ni6  1  0.27366800  0.05040600  0.04978400  1
  Ni  Ni7  1  0.72633200  0.77611500  0.77673700  1
  Sn  Sn0  1  0.32124900  0.41062500  0.41062500  1
  Sn  Sn1  1  0.67875100  0.08937500  0.08937500  1
  Sn  Sn2  1  0.00000000  0.91062500  0.58937500  1
  Sn  Sn3  1  0.00000000  0.58937500  0.91062500  1
loop_
_geom_bond_atom_site_label_1
_geom_bond_atom_site_label_2
_geom_bond_distance
_geom_bond_site_symmetry_2
Pr0 Sn1 3.495597 1_556
Pr0 Sn0 3.495597 1_545
Pr0 Sn3 3.495598 1_655
Pr0 Sn2 3.495598 1_545
Pr0 Sn3 3.495598 1_544
Pr0 Sn2 3.495598 1_645
Pr0 Sn0 3.495602 1_555
Pr0 Sn1 3.495602 1_555
Pr1 Sn1 3.495597 1_565
Pr1 Sn0 3.495597 1_554
Pr1 Sn2 3.495598 1_655
Pr1 Sn3 3.495598 1_554
Pr1 Sn2 3.495598 1_544
Pr1 Sn3 3.495598 1_654
Pr1 Sn0 3.495602 1_555
Pr1 Sn1 3.495602 1_555
Ni0 Ni5 2.509840 1_655
Ni0 Ni4 2.509840 1_555
Ni0 Sn0 2.551526 1_555
Ni0 Ni7 2.567873 1_555
Ni0 Sn2 2.629322 1_655
Ni0 Sn3 2.633821 1_655
Ni0 Sn1 2.660862 1_555
Ni0 Ni6 2.816425 1_555
Ni0 Pr1 3.061326 1_555
Ni0 Pr0 3.067340 1_555
Ni1 Ni4 2.509844 1_455
Ni1 Ni5 2.509844 1_555
Ni1 Sn1 2.551518 1_566
Ni1 Ni6 2.567873 1_566
Ni1 Sn3 2.629318 1_555
Ni1 Sn2 2.633817 1_555
Ni1 Sn0 2.660862 1_555
Ni1 Ni7 2.816432 1_555
Ni1 Pr1 3.061327 1_556
Ni1 Pr0 3.067341 1_565
Ni2 Ni6 2.509840 1_565
Ni2 Ni7 2.509844 1_454
Ni2 Sn2 2.551512 1_555
Ni2 Ni4 2.567873 1_465
Ni2 Sn0 2.629321 1_565
Ni2 Sn1 2.633817 1_465
Ni2 Sn3 2.660862 1_554
Ni2 Ni5 2.816419 1_555
Ni2 Pr0 3.061324 1_565
Ni2 Pr1 3.067338 1_455
Ni3 Ni6 2.509840 1_656
Ni3 Ni7 2.509844 1_545
Ni3 Sn3 2.551512 1_655
Ni3 Ni5 2.567873 1_656
Ni3 Sn1 2.629317 1_556
Ni3 Sn0 2.633821 1_656
Ni3 Sn2 2.660862 1_645
Ni3 Ni4 2.816419 1_555
Ni3 Pr0 3.061324 1_555
Ni3 Pr1 3.067338 1_656
Ni4 Sn2 2.551512 1_645
Ni4 Sn1 2.629321 1_555
Ni4 Sn0 2.633817 1_655
Ni4 Sn3 2.660862 1_655
Ni4 Pr0 3.061324 1_555
Ni4 Pr1 3.067338 1_656
Ni5 Sn3 2.551512 1_554
Ni5 Sn0 2.629317 1_555
Ni5 Sn1 2.633821 1_455
Ni5 Sn2 2.660862 1_555
Ni5 Pr0 3.061324 1_565
Ni5 Pr1 3.067338 1_455
Ni6 Sn1 2.551526 1_555
Ni6 Sn2 2.629322 1_544
Ni6 Sn3 2.633821 1_544
Ni6 Sn0 2.660862 1_555
Ni6 Pr1 3.061326 1_555
Ni6 Pr0 3.067340 1_555
Ni7 Sn0 2.551518 1_555
Ni7 Sn3 2.629318 1_655
Ni7 Sn2 2.633817 1_655
Ni7 Sn1 2.660862 1_566
Ni7 Pr1 3.061327 1_556
Ni7 Pr0 3.067341 1_565
