# generated using pymatgen
data_KNb3(TeO6)2
_symmetry_space_group_name_H-M   'P 1'
_cell_length_a   4.10666900
_cell_length_b   15.22989100
_cell_length_c   17.74157600
_cell_angle_alpha   90.00000000
_cell_angle_beta   90.00000000
_cell_angle_gamma   90.00000000
_symmetry_Int_Tables_number   1
_chemical_formula_structural   KNb3(TeO6)2
_chemical_formula_sum   'K4 Nb12 Te8 O48'
_cell_volume   1109.63128039
_cell_formula_units_Z   4
loop_
 _symmetry_equiv_pos_site_id
 _symmetry_equiv_pos_as_xyz
  1  'x, y, z'
loop_
 _atom_site_type_symbol
 _atom_site_label
 _atom_site_symmetry_multiplicity
 _atom_site_fract_x
 _atom_site_fract_y
 _atom_site_fract_z
 _atom_site_occupancy
  K  K0  1  0.22654900  0.07117100  0.75000000  1
  K  K1  1  0.77345100  0.92882900  0.25000000  1
  K  K2  1  0.22654900  0.42882900  0.25000000  1
  K  K3  1  0.77345100  0.57117100  0.75000000  1
  Nb  Nb0  1  0.23395500  0.79347200  0.75000000  1
  Nb  Nb1  1  0.76604500  0.20652800  0.25000000  1
  Nb  Nb2  1  0.23395500  0.70652800  0.25000000  1
  Nb  Nb3  1  0.76604500  0.29347200  0.75000000  1
  Nb  Nb4  1  0.76824500  0.15040700  0.56946100  1
  Nb  Nb5  1  0.23175500  0.84959300  0.06946100  1
  Nb  Nb6  1  0.76824500  0.34959300  0.43053900  1
  Nb  Nb7  1  0.23175500  0.65040700  0.93053900  1
  Nb  Nb8  1  0.23175500  0.84959300  0.43053900  1
  Nb  Nb9  1  0.76824500  0.15040700  0.93053900  1
  Nb  Nb10  1  0.23175500  0.65040700  0.56946100  1
  Nb  Nb11  1  0.76824500  0.34959300  0.06946100  1
  Te  Te0  1  0.61170300  0.91462000  0.59737800  1
  Te  Te1  1  0.38829700  0.08538000  0.09737800  1
  Te  Te2  1  0.61170300  0.58538000  0.40262200  1
  Te  Te3  1  0.38829700  0.41462000  0.90262200  1
  Te  Te4  1  0.38829700  0.08538000  0.40262200  1
  Te  Te5  1  0.61170300  0.91462000  0.90262200  1
  Te  Te6  1  0.38829700  0.41462000  0.59737800  1
  Te  Te7  1  0.61170300  0.58538000  0.09737800  1
  O  O0  1  0.28254500  0.93322400  0.52301000  1
  O  O1  1  0.71745500  0.06677600  0.02301000  1
  O  O2  1  0.28254500  0.56677600  0.47699000  1
  O  O3  1  0.71745500  0.43322400  0.97699000  1
  O  O4  1  0.71745500  0.06677600  0.47699000  1
  O  O5  1  0.28254500  0.93322400  0.97699000  1
  O  O6  1  0.71745500  0.43322400  0.52301000  1
  O  O7  1  0.28254500  0.56677600  0.02301000  1
  O  O8  1  0.69785000  0.03143700  0.62950300  1
  O  O9  1  0.30215000  0.96856300  0.12950300  1
  O  O10  1  0.69785000  0.46856300  0.37049700  1
  O  O11  1  0.30215000  0.53143700  0.87049700  1
  O  O12  1  0.30215000  0.96856300  0.37049700  1
  O  O13  1  0.69785000  0.03143700  0.87049700  1
  O  O14  1  0.30215000  0.53143700  0.62950300  1
  O  O15  1  0.69785000  0.46856300  0.12950300  1
  O  O16  1  0.28997600  0.89618100  0.67358000  1
  O  O17  1  0.71002400  0.10381900  0.17358000  1
  O  O18  1  0.28997600  0.60381900  0.32642000  1
  O  O19  1  0.71002400  0.39618100  0.82642000  1
  O  O20  1  0.71002400  0.10381900  0.32642000  1
  O  O21  1  0.28997600  0.89618100  0.82642000  1
  O  O22  1  0.71002400  0.39618100  0.67358000  1
  O  O23  1  0.28997600  0.60381900  0.17358000  1
  O  O24  1  0.28803400  0.70794000  0.66796900  1
  O  O25  1  0.71196600  0.29206000  0.16796900  1
  O  O26  1  0.28803400  0.79206000  0.33203100  1
  O  O27  1  0.71196600  0.20794000  0.83203100  1
  O  O28  1  0.71196600  0.29206000  0.33203100  1
  O  O29  1  0.28803400  0.70794000  0.83203100  1
  O  O30  1  0.71196600  0.20794000  0.66796900  1
  O  O31  1  0.28803400  0.79206000  0.16796900  1
  O  O32  1  0.78825300  0.80050400  0.75000000  1
  O  O33  1  0.21174700  0.19949600  0.25000000  1
  O  O34  1  0.78825300  0.69949600  0.25000000  1
  O  O35  1  0.21174700  0.30050400  0.75000000  1
  O  O36  1  0.70679900  0.25000000  0.50000000  1
  O  O37  1  0.29320100  0.75000000  0.00000000  1
  O  O38  1  0.29320100  0.75000000  0.50000000  1
  O  O39  1  0.70679900  0.25000000  0.00000000  1
  O  O40  1  0.21160000  0.14632400  0.56800300  1
  O  O41  1  0.78840000  0.85367600  0.06800300  1
  O  O42  1  0.21160000  0.35367600  0.43199700  1
  O  O43  1  0.78840000  0.64632400  0.93199700  1
  O  O44  1  0.78840000  0.85367600  0.43199700  1
  O  O45  1  0.21160000  0.14632400  0.93199700  1
  O  O46  1  0.78840000  0.64632400  0.56800300  1
  O  O47  1  0.21160000  0.35367600  0.06800300  1
loop_
_geom_bond_atom_site_label_1
_geom_bond_atom_site_label_2
_geom_bond_distance
_geom_bond_site_symmetry_2
K0 O13 2.946606 1_555
K0 O8 2.946606 1_555
K0 O16 3.001452 1_545
K0 O21 3.001452 1_545
K0 O13 3.106524 1_455
K0 O8 3.106524 1_455
K0 O27 3.229659 1_555
K0 O30 3.229659 1_555
K0 O27 3.304931 1_455
K0 O30 3.304931 1_455
K1 O12 2.946606 1_555
K1 O9 2.946606 1_555
K1 O17 3.001452 1_565
K1 O20 3.001452 1_565
K1 O12 3.106524 1_655
K1 O9 3.106524 1_655
K1 O26 3.229659 1_555
K1 O31 3.229659 1_555
K1 O26 3.304931 1_655
K1 O31 3.304931 1_655
K2 O10 2.946606 1_555
K2 O15 2.946606 1_555
K2 O23 3.001452 1_555
K2 O18 3.001452 1_555
K2 O10 3.106524 1_455
K2 O15 3.106524 1_455
K2 O28 3.229659 1_555
K2 O25 3.229659 1_555
K2 O28 3.304931 1_455
K2 O25 3.304931 1_455
K3 O11 2.946606 1_555
K3 O14 2.946606 1_555
K3 O22 3.001452 1_555
K3 O19 3.001452 1_555
K3 O11 3.106524 1_655
K3 O14 3.106524 1_655
K3 O29 3.229659 1_555
K3 O24 3.229659 1_555
K3 O29 3.304931 1_655
K3 O24 3.304931 1_655
Nb0 O32 1.833481 1_455
Nb0 O29 1.965775 1_555
Nb0 O24 1.965775 1_555
Nb0 O16 2.082791 1_555
Nb0 O21 2.082791 1_555
Nb0 O32 2.278836 1_555
Nb1 O33 1.833481 1_655
Nb1 O28 1.965775 1_555
Nb1 O25 1.965775 1_555
Nb1 O17 2.082791 1_555
Nb1 O20 2.082791 1_555
Nb1 O33 2.278836 1_555
Nb2 O34 1.833481 1_455
Nb2 O26 1.965775 1_555
Nb2 O31 1.965775 1_555
Nb2 O23 2.082791 1_555
Nb2 O18 2.082791 1_555
Nb2 O34 2.278836 1_555
Nb3 O35 1.833481 1_655
Nb3 O27 1.965775 1_555
Nb3 O30 1.965775 1_555
Nb3 O22 2.082791 1_555
Nb3 O19 2.082791 1_555
Nb3 O35 2.278836 1_555
Nb4 O40 1.821957 1_655
Nb4 O30 1.968652 1_555
Nb4 O36 1.970535 1_555
Nb4 O4 2.087415 1_555
Nb4 O8 2.121624 1_555
Nb4 O40 2.286949 1_555
Nb5 O41 1.821957 1_455
Nb5 O31 1.968652 1_555
Nb5 O37 1.970535 1_555
Nb5 O5 2.087415 1_554
Nb5 O9 2.121624 1_555
Nb5 O41 2.286949 1_555
Nb6 O42 1.821957 1_655
Nb6 O28 1.968652 1_555
Nb6 O36 1.970535 1_555
Nb6 O6 2.087415 1_555
Nb6 O10 2.121624 1_555
Nb6 O42 2.286949 1_555
Nb7 O43 1.821957 1_455
Nb7 O29 1.968652 1_555
Nb7 O37 1.970535 1_556
Nb7 O7 2.087415 1_556
Nb7 O11 2.121624 1_555
Nb7 O43 2.286949 1_555
Nb8 O44 1.821957 1_455
Nb8 O26 1.968652 1_555
Nb8 O38 1.970535 1_555
Nb8 O0 2.087415 1_555
Nb8 O12 2.121624 1_555
Nb8 O44 2.286949 1_555
Nb9 O45 1.821957 1_655
Nb9 O27 1.968652 1_555
Nb9 O39 1.970535 1_556
Nb9 O1 2.087415 1_556
Nb9 O13 2.121624 1_555
Nb9 O45 2.286949 1_555
Nb10 O46 1.821957 1_455
Nb10 O24 1.968652 1_555
Nb10 O38 1.970535 1_555
Nb10 O2 2.087415 1_555
Nb10 O14 2.121624 1_555
Nb10 O46 2.286949 1_555
Nb11 O47 1.821957 1_655
Nb11 O25 1.968652 1_555
Nb11 O39 1.970535 1_555
Nb11 O3 2.087415 1_554
Nb11 O15 2.121624 1_555
Nb11 O47 2.286949 1_555
O0 Te0 1.910058 1_555
O1 Te1 1.910058 1_555
O2 Te2 1.910058 1_555
O3 Te3 1.910058 1_555
O4 Te4 1.910058 1_555
O5 Te5 1.910058 1_555
O6 Te6 1.910058 1_555
O7 Te7 1.910058 1_555
O8 Te0 1.901376 1_545
O9 Te1 1.901376 1_565
O10 Te2 1.901376 1_555
O11 Te3 1.901376 1_555
O12 Te4 1.901376 1_565
O13 Te5 1.901376 1_545
O14 Te6 1.901376 1_555
O15 Te7 1.901376 1_555
O16 Te0 1.911087 1_555
O17 Te1 1.911087 1_555
O18 Te2 1.911087 1_555
O19 Te3 1.911087 1_555
O20 Te4 1.911087 1_555
O21 Te5 1.911087 1_555
O22 Te6 1.911087 1_555
O23 Te7 1.911087 1_555
