# generated using pymatgen
data_Cr3(PO4)2
_symmetry_space_group_name_H-M   'P 1'
_cell_length_a   10.62229900
_cell_length_b   4.72628900
_cell_length_c   7.91222967
_cell_angle_alpha   54.89750060
_cell_angle_beta   90.00000000
_cell_angle_gamma   90.00000000
_symmetry_Int_Tables_number   1
_chemical_formula_structural   Cr3(PO4)2
_chemical_formula_sum   'Cr6 P4 O16'
_cell_volume   324.98038626
_cell_formula_units_Z   2
loop_
 _symmetry_equiv_pos_site_id
 _symmetry_equiv_pos_as_xyz
  1  'x, y, z'
loop_
 _atom_site_type_symbol
 _atom_site_label
 _atom_site_symmetry_multiplicity
 _atom_site_fract_x
 _atom_site_fract_y
 _atom_site_fract_z
 _atom_site_occupancy
  Cr  Cr0  1  0.36487400  0.18103400  0.92489000  1
  Cr  Cr1  1  0.13512600  0.18103400  0.42489000  1
  Cr  Cr2  1  0.63512600  0.81896600  0.07511000  1
  Cr  Cr3  1  0.86487400  0.81896600  0.57511000  1
  Cr  Cr4  1  0.00000000  0.00000000  0.00000000  1
  Cr  Cr5  1  0.50000000  0.00000000  0.50000000  1
  P  P0  1  0.17859500  0.62965700  0.92226800  1
  P  P1  1  0.32140500  0.62965700  0.42226800  1
  P  P2  1  0.82140500  0.37034300  0.07773200  1
  P  P3  1  0.67859500  0.37034300  0.57773200  1
  O  O0  1  0.16680000  0.28789000  0.93800800  1
  O  O1  1  0.33320000  0.28789000  0.43800800  1
  O  O2  1  0.83320000  0.71211000  0.06199200  1
  O  O3  1  0.66680000  0.71211000  0.56199200  1
  O  O4  1  0.11110000  0.57095300  0.11691900  1
  O  O5  1  0.38890000  0.57095300  0.61691900  1
  O  O6  1  0.88890000  0.42904700  0.88308100  1
  O  O7  1  0.61110000  0.42904700  0.38308100  1
  O  O8  1  0.10399700  0.92418900  0.73300700  1
  O  O9  1  0.39600300  0.92418900  0.23300700  1
  O  O10  1  0.89600300  0.07581100  0.26699300  1
  O  O11  1  0.60399700  0.07581100  0.76699300  1
  O  O12  1  0.31936600  0.71501900  0.92190000  1
  O  O13  1  0.18063400  0.71501900  0.42190000  1
  O  O14  1  0.68063400  0.28498100  0.07810000  1
  O  O15  1  0.81936600  0.28498100  0.57810000  1
loop_
_geom_bond_atom_site_label_1
_geom_bond_atom_site_label_2
_geom_bond_distance
_geom_bond_site_symmetry_2
Cr0 O9 2.030443 1_546
Cr0 O5 2.057777 1_555
Cr0 O0 2.180123 1_555
Cr0 O12 2.268317 1_545
Cr0 O12 2.556359 1_555
Cr1 O8 2.030443 1_545
Cr1 O4 2.057777 1_555
Cr1 O1 2.180123 1_555
Cr1 O13 2.268317 1_545
Cr1 O13 2.556359 1_555
Cr2 O11 2.030443 1_564
Cr2 O7 2.057777 1_555
Cr2 O2 2.180123 1_555
Cr2 O14 2.268317 1_565
Cr2 O14 2.556359 1_555
Cr3 O10 2.030443 1_565
Cr3 O6 2.057777 1_555
Cr3 O3 2.180123 1_555
Cr3 O15 2.268317 1_565
Cr3 O15 2.556359 1_555
Cr4 O6 2.050135 1_454
Cr4 O4 2.050135 1_545
Cr4 O2 2.112741 1_445
Cr4 O0 2.112741 1_554
Cr4 O8 2.584944 1_544
Cr4 O10 2.584944 1_455
Cr5 O7 2.050135 1_555
Cr5 O5 2.050135 1_545
Cr5 O1 2.112741 1_555
Cr5 O3 2.112741 1_545
Cr5 O11 2.584944 1_555
Cr5 O9 2.584944 1_545
O0 P0 1.552099 1_555
O1 P1 1.552099 1_555
O2 P2 1.552099 1_555
O3 P3 1.552099 1_555
O4 P0 1.572113 1_554
O5 P1 1.572113 1_555
O6 P2 1.572113 1_556
O7 P3 1.572113 1_555
O8 P0 1.552648 1_555
O9 P1 1.552648 1_555
O10 P2 1.552648 1_555
O11 P3 1.552648 1_555
O12 P0 1.548348 1_555
O13 P1 1.548348 1_555
O14 P2 1.548348 1_555
O15 P3 1.548348 1_555
