# generated using pymatgen
data_Li7Mn4CoO12
_symmetry_space_group_name_H-M   'P 1'
_cell_length_a   3.03345397
_cell_length_b   3.03345397
_cell_length_c   29.49043061
_cell_angle_alpha   87.00605988
_cell_angle_beta   87.00605988
_cell_angle_gamma   56.28665588
_symmetry_Int_Tables_number   1
_chemical_formula_structural   Li7Mn4CoO12
_chemical_formula_sum   'Li7 Mn4 Co1 O12'
_cell_volume   225.33290310
_cell_formula_units_Z   1
loop_
 _symmetry_equiv_pos_site_id
 _symmetry_equiv_pos_as_xyz
  1  'x, y, z'
loop_
 _atom_site_type_symbol
 _atom_site_label
 _atom_site_symmetry_multiplicity
 _atom_site_fract_x
 _atom_site_fract_y
 _atom_site_fract_z
 _atom_site_occupancy
  Li  Li0  1  0.33309400  0.33309400  0.91691800  1
  Li  Li1  1  0.00034500  0.00034500  0.74966100  1
  Li  Li2  1  0.66554500  0.66554500  0.58142400  1
  Li  Li3  1  0.33444000  0.33444000  0.41843000  1
  Li  Li4  1  0.99547700  0.99547700  0.24496200  1
  Li  Li5  1  0.67007800  0.67007800  0.08802200  1
  Li  Li6  1  0.33447300  0.33447300  0.16729000  1
  Mn  Mn0  1  0.00286000  0.00286000  0.00013900  1
  Mn  Mn1  1  0.66517100  0.66517100  0.33310200  1
  Mn  Mn2  1  0.66688600  0.66688600  0.83322400  1
  Mn  Mn3  1  0.33188000  0.33188000  0.66655500  1
  Co  Co0  1  0.99978000  0.99978000  0.50003300  1
  O  O0  1  0.64916400  0.64916400  0.96122000  1
  O  O1  1  0.31166500  0.31166500  0.79484100  1
  O  O2  1  0.98000400  0.98000400  0.62878500  1
  O  O3  1  0.67645400  0.67645400  0.46190200  1
  O  O4  1  0.32020700  0.32020700  0.29716100  1
  O  O5  1  0.99686200  0.99686200  0.12469800  1
  O  O6  1  0.02163400  0.02163400  0.87157800  1
  O  O7  1  0.68680700  0.68680700  0.70547800  1
  O  O8  1  0.32396900  0.32396900  0.53813700  1
  O  O9  1  0.01583100  0.01583100  0.37110900  1
  O  O10  1  0.66898100  0.66898100  0.20909200  1
  O  O11  1  0.34839500  0.34839500  0.03623700  1
loop_
_geom_bond_atom_site_label_1
_geom_bond_atom_site_label_2
_geom_bond_distance
_geom_bond_site_symmetry_2
Li0 O0 2.137759 1_545
Li0 O0 2.137759 1_455
Li0 O6 2.166242 1_565
Li0 O6 2.166242 1_655
Li0 O0 2.197179 1_555
Li0 O6 2.197260 1_555
Li1 O7 2.141498 1_545
Li1 O7 2.141498 1_455
Li1 O1 2.163785 1_545
Li1 O1 2.163785 1_455
Li1 O7 2.184038 1_445
Li1 O1 2.193584 1_555
Li2 O8 2.065653 1_655
Li2 O8 2.065653 1_565
Li2 O2 2.195214 1_545
Li2 O2 2.195214 1_455
Li2 O2 2.249228 1_555
Li2 O8 2.290188 1_555
Li3 O3 2.068024 1_545
Li3 O3 2.068024 1_455
Li3 O9 2.185383 1_655
Li3 O9 2.185383 1_565
Li3 O9 2.265911 1_555
Li3 O3 2.295435 1_555
Li4 O10 1.977732 1_655
Li4 O10 1.977732 1_565
Li4 O10 2.094895 1_555
Li4 O4 2.263858 1_565
Li4 O4 2.263858 1_655
Li4 O4 2.388360 1_665
Li5 O5 1.989221 1_455
Li5 O5 1.989221 1_545
Li5 O5 2.109487 1_555
Li5 O11 2.262046 1_655
Li5 O11 2.262046 1_565
Li5 O11 2.367487 1_555
Li6 O10 2.054611 1_545
Li6 O10 2.054611 1_455
Li6 O5 2.061630 1_455
Li6 O5 2.061630 1_545
Li6 O10 2.232333 1_555
Li6 O5 2.260175 1_445
Mn0 O11 1.938840 1_545
Mn0 O11 1.938840 1_455
Mn0 O0 1.967407 1_544
Mn0 O0 1.967407 1_454
Mn0 O11 2.187066 1_555
Mn0 O0 2.270411 1_444
Mn1 O4 1.937625 1_565
Mn1 O4 1.937625 1_655
Mn1 O9 1.958495 1_655
Mn1 O9 1.958495 1_565
Mn1 O4 2.181912 1_555
Mn1 O9 2.241510 1_665
Mn2 O1 1.955636 1_655
Mn2 O1 1.955636 1_565
Mn2 O6 1.956079 1_565
Mn2 O6 1.956079 1_655
Mn2 O6 2.266086 1_665
Mn2 O1 2.268749 1_555
Mn3 O2 1.952243 1_545
Mn3 O2 1.952243 1_455
Mn3 O7 1.965091 1_455
Mn3 O7 1.965091 1_545
Mn3 O2 2.243324 1_445
Mn3 O7 2.276164 1_555
Co0 O8 2.017256 1_565
Co0 O8 2.017256 1_655
Co0 O3 2.019682 1_655
Co0 O3 2.019682 1_565
Co0 O3 2.118179 1_555
Co0 O8 2.121635 1_665
