# generated using pymatgen
data_CaAl2Si3O13
_symmetry_space_group_name_H-M   'P 1'
_cell_length_a   9.87922604
_cell_length_b   9.87922604
_cell_length_c   9.65672946
_cell_angle_alpha   84.38305328
_cell_angle_beta   84.38305328
_cell_angle_gamma   140.40788350
_symmetry_Int_Tables_number   1
_chemical_formula_structural   CaAl2Si3O13
_chemical_formula_sum   'Ca2 Al4 Si6 O26'
_cell_volume   575.03336451
_cell_formula_units_Z   2
loop_
 _symmetry_equiv_pos_site_id
 _symmetry_equiv_pos_as_xyz
  1  'x, y, z'
loop_
 _atom_site_type_symbol
 _atom_site_label
 _atom_site_symmetry_multiplicity
 _atom_site_fract_x
 _atom_site_fract_y
 _atom_site_fract_z
 _atom_site_occupancy
  Ca  Ca0  1  0.20565300  0.02198400  0.43958900  1
  Ca  Ca1  1  0.02198400  0.20565300  0.93958900  1
  Al  Al0  1  0.18886300  0.62782700  0.41102600  1
  Al  Al1  1  0.62782700  0.18886300  0.91102600  1
  Al  Al2  1  0.37633000  0.31500300  0.05862900  1
  Al  Al3  1  0.31500300  0.37633000  0.55862900  1
  Si  Si0  1  0.64574400  0.88469200  0.48409300  1
  Si  Si1  1  0.88469200  0.64574400  0.98409300  1
  Si  Si2  1  0.12607400  0.30322600  0.28894600  1
  Si  Si3  1  0.30322600  0.12607400  0.78894600  1
  Si  Si4  1  0.22150700  0.89063300  0.17090800  1
  Si  Si5  1  0.89063300  0.22150700  0.67090800  1
  O  O0  1  0.41682500  0.96634500  0.06488300  1
  O  O1  1  0.96634500  0.41682500  0.56488300  1
  O  O2  1  0.16851200  0.78435000  0.34111900  1
  O  O3  1  0.78435000  0.16851200  0.84111900  1
  O  O4  1  0.29013800  0.10370500  0.18577600  1
  O  O5  1  0.10370500  0.29013800  0.68577600  1
  O  O6  1  0.66180500  0.56732400  0.02524400  1
  O  O7  1  0.56732400  0.66180500  0.52524400  1
  O  O8  1  0.20614600  0.31972400  0.12286300  1
  O  O9  1  0.31972400  0.20614600  0.62286300  1
  O  O10  1  0.23991500  0.29182700  0.39712000  1
  O  O11  1  0.29182700  0.23991500  0.89712000  1
  O  O12  1  0.85858700  0.05992500  0.34044900  1
  O  O13  1  0.05992500  0.85858700  0.84044900  1
  O  O14  1  0.17963800  0.50265000  0.28924100  1
  O  O15  1  0.50265000  0.17963800  0.78924100  1
  O  O16  1  0.99264300  0.71939100  0.12104800  1
  O  O17  1  0.71939100  0.99264300  0.62104800  1
  O  O18  1  0.43906900  0.80751600  0.45685000  1
  O  O19  1  0.80751600  0.43906900  0.95685000  1
  O  O20  1  0.66234700  0.25845500  0.32795300  1
  O  O21  1  0.25845500  0.66234700  0.82795300  1
  O  O22  1  0.70577400  0.81569500  0.05621000  1
  O  O23  1  0.81569500  0.70577400  0.55621000  1
  O  O24  1  0.74383600  0.24032000  0.24005200  1
  O  O25  1  0.24032000  0.74383600  0.74005200  1
loop_
_geom_bond_atom_site_label_1
_geom_bond_atom_site_label_2
_geom_bond_distance
_geom_bond_site_symmetry_2
Ca0 O4 2.351490 1_555
Ca0 O9 2.360764 1_555
Ca0 O2 2.393313 1_545
Ca0 O10 2.399497 1_555
Ca0 O23 2.404718 1_445
Ca0 O20 3.047334 1_555
Ca1 O5 2.351490 1_555
Ca1 O8 2.360764 1_556
Ca1 O3 2.393313 1_455
Ca1 O11 2.399497 1_555
Ca1 O22 2.404718 1_446
Ca1 O21 3.047334 1_555
Al0 O14 1.747190 1_555
Al0 O18 1.749923 1_555
Al0 O1 1.754194 1_455
Al0 O2 1.785677 1_555
Al1 O15 1.747190 1_555
Al1 O19 1.749923 1_555
Al1 O0 1.754194 1_546
Al1 O3 1.785677 1_555
Al2 O6 1.761066 1_555
Al2 O8 1.770883 1_555
Al2 O4 1.773203 1_555
Al2 O11 1.790710 1_554
Al3 O7 1.761066 1_555
Al3 O9 1.770883 1_555
Al3 O5 1.773203 1_555
Al3 O10 1.790710 1_555
O0 Si4 1.603128 1_555
O1 Si5 1.603128 1_555
O2 Si4 1.650680 1_555
O3 Si5 1.650680 1_555
O4 Si4 1.670291 1_545
O5 Si5 1.670291 1_455
O6 Si1 1.657104 1_554
O7 Si0 1.657104 1_555
O8 Si2 1.651159 1_555
O9 Si3 1.651159 1_555
O10 Si2 1.664600 1_555
O11 Si3 1.664600 1_555
O12 Si0 1.640502 1_545
O12 Si2 1.651461 1_655
O13 Si1 1.640502 1_455
O13 Si3 1.651461 1_565
O14 Si2 1.598798 1_555
O15 Si3 1.598798 1_555
O16 Si4 1.638094 1_655
O16 Si1 1.638420 1_554
O17 Si5 1.638094 1_565
O17 Si0 1.638420 1_555
O18 Si0 1.601434 1_555
O19 Si1 1.601434 1_555
O20 O24 1.232483 1_555
O21 O25 1.232483 1_555
