# generated using pymatgen
data_CaTi(SiO3)2
_symmetry_space_group_name_H-M   'P 1'
_cell_length_a   5.41239600
_cell_length_b   9.67693900
_cell_length_c   19.30553700
_cell_angle_alpha   90.00000000
_cell_angle_beta   90.00000000
_cell_angle_gamma   90.00000000
_symmetry_Int_Tables_number   1
_chemical_formula_structural   CaTi(SiO3)2
_chemical_formula_sum   'Ca8 Ti8 Si16 O48'
_cell_volume   1011.13572330
_cell_formula_units_Z   8
loop_
 _symmetry_equiv_pos_site_id
 _symmetry_equiv_pos_as_xyz
  1  'x, y, z'
loop_
 _atom_site_type_symbol
 _atom_site_label
 _atom_site_symmetry_multiplicity
 _atom_site_fract_x
 _atom_site_fract_y
 _atom_site_fract_z
 _atom_site_occupancy
  Ca  Ca0  1  0.62113500  0.14897500  0.37805400  1
  Ca  Ca1  1  0.37886500  0.85102500  0.62194600  1
  Ca  Ca2  1  0.62113500  0.64897500  0.12194600  1
  Ca  Ca3  1  0.12113500  0.85102500  0.12194600  1
  Ca  Ca4  1  0.87886500  0.14897500  0.87805400  1
  Ca  Ca5  1  0.37886500  0.35102500  0.87805400  1
  Ca  Ca6  1  0.12113500  0.35102500  0.37805400  1
  Ca  Ca7  1  0.87886500  0.64897500  0.62194600  1
  Ti  Ti0  1  0.36544200  0.97919600  0.87349800  1
  Ti  Ti1  1  0.63455800  0.02080400  0.12650200  1
  Ti  Ti2  1  0.86544200  0.02080400  0.62650200  1
  Ti  Ti3  1  0.13455800  0.97919600  0.37349800  1
  Ti  Ti4  1  0.36544200  0.47919600  0.62650200  1
  Ti  Ti5  1  0.63455800  0.52080400  0.37349800  1
  Ti  Ti6  1  0.86544200  0.52080400  0.87349800  1
  Ti  Ti7  1  0.13455800  0.47919600  0.12650200  1
  Si  Si0  1  0.55118700  0.66420000  0.77150500  1
  Si  Si1  1  0.72681300  0.83309600  0.47434400  1
  Si  Si2  1  0.77318700  0.83309600  0.97434400  1
  Si  Si3  1  0.94881300  0.16420000  0.22849500  1
  Si  Si4  1  0.05118700  0.33580000  0.72849500  1
  Si  Si5  1  0.44881300  0.83580000  0.27150500  1
  Si  Si6  1  0.22681300  0.66690400  0.47434400  1
  Si  Si7  1  0.72681300  0.33309600  0.02565600  1
  Si  Si8  1  0.77318700  0.33309600  0.52565600  1
  Si  Si9  1  0.94881300  0.66420000  0.27150500  1
  Si  Si10  1  0.44881300  0.33580000  0.22849500  1
  Si  Si11  1  0.55118700  0.16420000  0.72849500  1
  Si  Si12  1  0.27318700  0.16690400  0.52565600  1
  Si  Si13  1  0.05118700  0.83580000  0.77150500  1
  Si  Si14  1  0.27318700  0.66690400  0.97434400  1
  Si  Si15  1  0.22681300  0.16690400  0.02565600  1
  O  O0  1  0.94804500  0.51917700  0.31235600  1
  O  O1  1  0.30999400  0.03178700  0.06786400  1
  O  O2  1  0.05195500  0.48082300  0.68764400  1
  O  O3  1  0.73810500  0.34704300  0.94151100  1
  O  O4  1  0.23810500  0.15295700  0.94151100  1
  O  O5  1  0.93051400  0.20680600  0.04797800  1
  O  O6  1  0.97286800  0.65258200  0.18771000  1
  O  O7  1  0.02713200  0.84741800  0.68771000  1
  O  O8  1  0.73810500  0.84704300  0.55848900  1
  O  O9  1  0.97286800  0.15258200  0.31229000  1
  O  O10  1  0.44804500  0.48082300  0.18764400  1
  O  O11  1  0.76189500  0.34704300  0.44151100  1
  O  O12  1  0.69000600  0.96821300  0.93213600  1
  O  O13  1  0.47286800  0.84741800  0.18771000  1
  O  O14  1  0.55195500  0.01917700  0.68764400  1
  O  O15  1  0.30999400  0.53178700  0.43213600  1
  O  O16  1  0.44804500  0.98082300  0.31235600  1
  O  O17  1  0.17247500  0.77194700  0.29812500  1
  O  O18  1  0.32752500  0.77194700  0.79812500  1
  O  O19  1  0.56948600  0.70680600  0.95202200  1
  O  O20  1  0.76189500  0.84704300  0.05848900  1
  O  O21  1  0.52713200  0.65258200  0.68771000  1
  O  O22  1  0.80999400  0.46821300  0.06786400  1
  O  O23  1  0.17247500  0.27194700  0.20187500  1
  O  O24  1  0.26189500  0.15295700  0.44151100  1
  O  O25  1  0.52713200  0.15258200  0.81229000  1
  O  O26  1  0.69000600  0.46821300  0.56786400  1
  O  O27  1  0.23810500  0.65295700  0.55848900  1
  O  O28  1  0.19000600  0.53178700  0.93213600  1
  O  O29  1  0.67247500  0.72805300  0.29812500  1
  O  O30  1  0.05195500  0.98082300  0.81235600  1
  O  O31  1  0.82752500  0.72805300  0.79812500  1
  O  O32  1  0.82752500  0.22805300  0.70187500  1
  O  O33  1  0.80999400  0.96821300  0.43213600  1
  O  O34  1  0.26189500  0.65295700  0.05848900  1
  O  O35  1  0.19000600  0.03178700  0.56786400  1
  O  O36  1  0.32752500  0.27194700  0.70187500  1
  O  O37  1  0.06948600  0.79319400  0.95202200  1
  O  O38  1  0.43051400  0.79319400  0.45202200  1
  O  O39  1  0.67247500  0.22805300  0.20187500  1
  O  O40  1  0.43051400  0.29319400  0.04797800  1
  O  O41  1  0.56948600  0.20680600  0.54797800  1
  O  O42  1  0.06948600  0.29319400  0.54797800  1
  O  O43  1  0.47286800  0.34741800  0.31229000  1
  O  O44  1  0.55195500  0.51917700  0.81235600  1
  O  O45  1  0.93051400  0.70680600  0.45202200  1
  O  O46  1  0.02713200  0.34741800  0.81229000  1
  O  O47  1  0.94804500  0.01917700  0.18764400  1
loop_
_geom_bond_atom_site_label_1
_geom_bond_atom_site_label_2
_geom_bond_distance
_geom_bond_site_symmetry_2
Ca0 O16 2.265854 1_545
Ca0 O33 2.279197 1_545
Ca0 O9 2.288508 1_555
Ca0 O24 2.298430 1_555
Ca0 O11 2.398942 1_555
Ca0 O43 2.437932 1_555
Ca1 O14 2.265854 1_565
Ca1 O35 2.279197 1_565
Ca1 O7 2.288508 1_555
Ca1 O8 2.298430 1_555
Ca1 O27 2.398942 1_555
Ca1 O21 2.437932 1_555
Ca2 O10 2.265854 1_555
Ca2 O22 2.279197 1_555
Ca2 O6 2.288508 1_555
Ca2 O34 2.298430 1_555
Ca2 O20 2.398942 1_555
Ca2 O13 2.437932 1_555
Ca3 O47 2.265854 1_465
Ca3 O1 2.279197 1_565
Ca3 O13 2.288508 1_555
Ca3 O20 2.298430 1_455
Ca3 O34 2.398942 1_555
Ca3 O6 2.437932 1_455
Ca4 O30 2.265854 1_645
Ca4 O12 2.279197 1_545
Ca4 O25 2.288508 1_555
Ca4 O4 2.298430 1_655
Ca4 O3 2.398942 1_555
Ca4 O46 2.437932 1_655
Ca5 O44 2.265854 1_555
Ca5 O28 2.279197 1_555
Ca5 O46 2.288508 1_555
Ca5 O3 2.298430 1_555
Ca5 O4 2.398942 1_555
Ca5 O25 2.437932 1_555
Ca6 O0 2.265854 1_455
Ca6 O15 2.279197 1_555
Ca6 O43 2.288508 1_555
Ca6 O11 2.298430 1_455
Ca6 O24 2.398942 1_555
Ca6 O9 2.437932 1_455
Ca7 O2 2.265854 1_655
Ca7 O26 2.279197 1_555
Ca7 O21 2.288508 1_555
Ca7 O27 2.298430 1_655
Ca7 O8 2.398942 1_555
Ca7 O7 2.437932 1_655
O0 Si9 1.609801 1_555
O0 Ti5 2.066975 1_555
O1 Si15 1.605077 1_555
O1 Ti1 2.092532 1_555
O2 Si4 1.609801 1_555
O2 Ti4 2.066975 1_555
O3 Si7 1.631207 1_556
O3 Ti6 2.241962 1_555
O4 Si15 1.631207 1_556
O4 Ti0 2.241962 1_545
O5 Si7 1.701401 1_555
O5 Si15 1.704880 1_655
O5 Ti1 2.846701 1_555
O6 Si9 1.626828 1_555
O6 Ti7 2.230992 1_655
O7 Si13 1.626828 1_555
O7 Ti2 2.230992 1_465
O8 Si1 1.631207 1_555
O8 Ti2 2.241962 1_565
O9 Si3 1.626828 1_555
O9 Ti3 2.230992 1_645
O10 Si10 1.609801 1_555
O10 Ti7 2.066975 1_555
O11 Si8 1.631207 1_555
O11 Ti5 2.241962 1_555
O12 Si2 1.605077 1_555
O12 Ti0 2.092532 1_555
O13 Si5 1.626828 1_555
O13 Ti1 2.230992 1_565
O14 Si11 1.609801 1_555
O14 Ti2 2.066975 1_555
O15 Si6 1.605077 1_555
O15 Ti5 2.092532 1_555
O16 Si5 1.609801 1_555
O16 Ti3 2.066975 1_555
O17 Si9 1.678295 1_455
O17 Si5 1.697905 1_555
O17 Ti3 2.486293 1_555
O18 Si0 1.678295 1_555
O18 Si13 1.697905 1_555
O18 Ti0 2.486293 1_555
O19 Si2 1.701401 1_555
O19 Si14 1.704880 1_555
O19 Ti6 2.846701 1_555
O20 Si2 1.631207 1_554
O20 Ti1 2.241962 1_565
O21 Si0 1.626828 1_555
O21 Ti4 2.230992 1_555
O22 Si7 1.605077 1_555
O22 Ti7 2.092532 1_655
O23 Si3 1.678295 1_455
O23 Si10 1.697905 1_555
O23 Ti7 2.486293 1_555
O24 Si12 1.631207 1_555
O24 Ti3 2.241962 1_545
O25 Si11 1.626828 1_555
O25 Ti0 2.230992 1_545
O26 Si8 1.605077 1_555
O26 Ti4 2.092532 1_555
O27 Si6 1.631207 1_555
O27 Ti4 2.241962 1_555
O28 Si14 1.605077 1_555
O28 Ti6 2.092532 1_455
O29 Si5 1.678295 1_555
O29 Si9 1.697905 1_555
O29 Ti5 2.486293 1_555
O30 Si13 1.609801 1_555
O30 Ti0 2.066975 1_555
O31 Si13 1.678295 1_655
O31 Si0 1.697905 1_555
O31 Ti6 2.486293 1_555
O32 Si4 1.678295 1_655
O32 Si11 1.697905 1_555
O32 Ti2 2.486293 1_555
O33 Si1 1.605077 1_555
O33 Ti3 2.092532 1_655
O34 Si14 1.631207 1_554
O34 Ti7 2.241962 1_555
O35 Si12 1.605077 1_555
O35 Ti2 2.092532 1_455
O36 Si11 1.678295 1_555
O36 Si4 1.697905 1_555
O36 Ti4 2.486293 1_555
O37 Si14 1.701401 1_555
O37 Si2 1.704880 1_455
O37 Ti0 2.846701 1_555
O38 Si6 1.701401 1_555
O38 Si1 1.704880 1_555
O38 Ti3 2.846701 1_555
O39 Si10 1.678295 1_555
O39 Si3 1.697905 1_555
O39 Ti1 2.486293 1_555
O40 Si15 1.701401 1_555
O40 Si7 1.704880 1_555
O40 Ti7 2.846701 1_555
O41 Si8 1.701401 1_555
O41 Si12 1.704880 1_555
O41 Ti2 2.846701 1_555
O42 Si12 1.701401 1_555
O42 Si8 1.704880 1_455
O42 Ti4 2.846701 1_555
O43 Si10 1.626828 1_555
O43 Ti5 2.230992 1_555
O44 Si0 1.609801 1_555
O44 Ti6 2.066975 1_555
O45 Si1 1.701401 1_555
O45 Si6 1.704880 1_655
O45 Ti5 2.846701 1_555
O46 Si4 1.626828 1_555
O46 Ti6 2.230992 1_455
O47 Si3 1.609801 1_555
O47 Ti1 2.066975 1_555
