# generated using pymatgen
data_Pu2Cl2O
_symmetry_space_group_name_H-M   'P 1'
_cell_length_a   3.60605300
_cell_length_b   3.60605300
_cell_length_c   12.61346100
_cell_angle_alpha   90.00000000
_cell_angle_beta   90.00000000
_cell_angle_gamma   90.00000000
_symmetry_Int_Tables_number   1
_chemical_formula_structural   Pu2Cl2O
_chemical_formula_sum   'Pu2 Cl2 O1'
_cell_volume   164.02063151
_cell_formula_units_Z   1
loop_
 _symmetry_equiv_pos_site_id
 _symmetry_equiv_pos_as_xyz
  1  'x, y, z'
loop_
 _atom_site_type_symbol
 _atom_site_label
 _atom_site_symmetry_multiplicity
 _atom_site_fract_x
 _atom_site_fract_y
 _atom_site_fract_z
 _atom_site_occupancy
  Pu  Pu0  1  0.50000000  0.50000000  0.16388500  1
  Pu  Pu1  1  0.50000000  0.50000000  0.83611500  1
  Cl  Cl0  1  0.50000000  0.50000000  0.63905700  1
  Cl  Cl1  1  0.50000000  0.50000000  0.36094300  1
  O  O0  1  0.50000000  0.50000000  0.00000000  1
loop_
_geom_bond_atom_site_label_1
_geom_bond_atom_site_label_2
_geom_bond_distance
_geom_bond_site_symmetry_2
Cl0 Pu1 2.485583 1_555
Cl1 Pu0 2.485583 1_555
O0 Pu0 2.067157 1_555
O0 Pu1 2.067157 1_554
