# generated using pymatgen
data_MnZnN2
_symmetry_space_group_name_H-M   'P 1'
_cell_length_a   5.21225000
_cell_length_b   11.11192500
_cell_length_c   13.04874700
_cell_angle_alpha   90.00000000
_cell_angle_beta   90.00000000
_cell_angle_gamma   90.00000000
_symmetry_Int_Tables_number   1
_chemical_formula_structural   MnZnN2
_chemical_formula_sum   'Mn16 Zn16 N32'
_cell_volume   755.75903919
_cell_formula_units_Z   16
loop_
 _symmetry_equiv_pos_site_id
 _symmetry_equiv_pos_as_xyz
  1  'x, y, z'
loop_
 _atom_site_type_symbol
 _atom_site_label
 _atom_site_symmetry_multiplicity
 _atom_site_fract_x
 _atom_site_fract_y
 _atom_site_fract_z
 _atom_site_occupancy
  Mn  Mn0  1  0.63204200  0.95253900  0.43646800  1
  Mn  Mn1  1  0.13204200  0.54746100  0.56353200  1
  Mn  Mn2  1  0.36795800  0.45253900  0.06353200  1
  Mn  Mn3  1  0.86795800  0.04746100  0.93646800  1
  Mn  Mn4  1  0.36795800  0.04746100  0.56353200  1
  Mn  Mn5  1  0.86795800  0.45253900  0.43646800  1
  Mn  Mn6  1  0.63204200  0.54746100  0.93646800  1
  Mn  Mn7  1  0.13204200  0.95253900  0.06353200  1
  Mn  Mn8  1  0.80661200  0.29534300  0.30469300  1
  Mn  Mn9  1  0.30661200  0.20465700  0.69530700  1
  Mn  Mn10  1  0.19338800  0.79534300  0.19530700  1
  Mn  Mn11  1  0.69338800  0.70465700  0.80469300  1
  Mn  Mn12  1  0.19338800  0.70465700  0.69530700  1
  Mn  Mn13  1  0.69338800  0.79534300  0.30469300  1
  Mn  Mn14  1  0.80661200  0.20465700  0.80469300  1
  Mn  Mn15  1  0.30661200  0.29534300  0.19530700  1
  Zn  Zn0  1  0.58480300  0.04490200  0.17793100  1
  Zn  Zn1  1  0.08480300  0.45509800  0.82206900  1
  Zn  Zn2  1  0.41519700  0.54490200  0.32206900  1
  Zn  Zn3  1  0.91519700  0.95509800  0.67793100  1
  Zn  Zn4  1  0.41519700  0.95509800  0.82206900  1
  Zn  Zn5  1  0.91519700  0.54490200  0.17793100  1
  Zn  Zn6  1  0.58480300  0.45509800  0.67793100  1
  Zn  Zn7  1  0.08480300  0.04490200  0.32206900  1
  Zn  Zn8  1  0.84870000  0.29238300  0.07141000  1
  Zn  Zn9  1  0.34870000  0.20761700  0.92859000  1
  Zn  Zn10  1  0.15130000  0.79238300  0.42859000  1
  Zn  Zn11  1  0.65130000  0.70761700  0.57141000  1
  Zn  Zn12  1  0.15130000  0.70761700  0.92859000  1
  Zn  Zn13  1  0.65130000  0.79238300  0.07141000  1
  Zn  Zn14  1  0.84870000  0.20761700  0.57141000  1
  Zn  Zn15  1  0.34870000  0.29238300  0.42859000  1
  N  N0  1  0.77720600  0.46588200  0.30455900  1
  N  N1  1  0.27720600  0.03411800  0.69544100  1
  N  N2  1  0.22279400  0.96588200  0.19544100  1
  N  N3  1  0.72279400  0.53411800  0.80455900  1
  N  N4  1  0.22279400  0.53411800  0.69544100  1
  N  N5  1  0.72279400  0.96588200  0.30455900  1
  N  N6  1  0.77720600  0.03411800  0.80455900  1
  N  N7  1  0.27720600  0.46588200  0.19544100  1
  N  N8  1  0.74472200  0.29920700  0.44648000  1
  N  N9  1  0.24472200  0.20079300  0.55352000  1
  N  N10  1  0.25527800  0.79920700  0.05352000  1
  N  N11  1  0.75527800  0.70079300  0.94648000  1
  N  N12  1  0.25527800  0.70079300  0.55352000  1
  N  N13  1  0.75527800  0.79920700  0.44648000  1
  N  N14  1  0.74472200  0.20079300  0.94648000  1
  N  N15  1  0.24472200  0.29920700  0.05352000  1
  N  N16  1  0.71039300  0.46580800  0.05583000  1
  N  N17  1  0.21039300  0.03419200  0.94417000  1
  N  N18  1  0.28960700  0.96580800  0.44417000  1
  N  N19  1  0.78960700  0.53419200  0.55583000  1
  N  N20  1  0.28960700  0.53419200  0.94417000  1
  N  N21  1  0.78960700  0.96580800  0.05583000  1
  N  N22  1  0.71039300  0.03419200  0.55583000  1
  N  N23  1  0.21039300  0.46580800  0.44417000  1
  N  N24  1  0.63227000  0.22561500  0.19541500  1
  N  N25  1  0.13227000  0.27438500  0.80458500  1
  N  N26  1  0.36773000  0.72561500  0.30458500  1
  N  N27  1  0.86773000  0.77438500  0.69541500  1
  N  N28  1  0.36773000  0.77438500  0.80458500  1
  N  N29  1  0.86773000  0.72561500  0.19541500  1
  N  N30  1  0.63227000  0.27438500  0.69541500  1
  N  N31  1  0.13227000  0.22561500  0.30458500  1
loop_
_geom_bond_atom_site_label_1
_geom_bond_atom_site_label_2
_geom_bond_distance
_geom_bond_site_symmetry_2
Mn0 N5 1.791208 1_555
Mn0 N18 1.793754 1_555
Mn0 N13 1.825553 1_555
Mn0 N22 1.848214 1_565
Mn1 N4 1.791208 1_555
Mn1 N19 1.793754 1_455
Mn1 N12 1.825553 1_555
Mn1 N23 1.848214 1_555
Mn2 N7 1.791208 1_555
Mn2 N16 1.793754 1_555
Mn2 N15 1.825553 1_555
Mn2 N20 1.848214 1_554
Mn3 N6 1.791208 1_555
Mn3 N17 1.793754 1_655
Mn3 N14 1.825553 1_555
Mn3 N21 1.848214 1_546
Mn4 N1 1.791208 1_555
Mn4 N22 1.793754 1_555
Mn4 N9 1.825553 1_555
Mn4 N18 1.848214 1_545
Mn5 N0 1.791208 1_555
Mn5 N23 1.793754 1_655
Mn5 N8 1.825553 1_555
Mn5 N19 1.848214 1_555
Mn6 N3 1.791208 1_555
Mn6 N20 1.793754 1_555
Mn6 N11 1.825553 1_555
Mn6 N16 1.848214 1_556
Mn7 N2 1.791208 1_555
Mn7 N21 1.793754 1_455
Mn7 N10 1.825553 1_555
Mn7 N17 1.848214 1_564
Mn8 N24 1.859947 1_555
Mn8 N31 1.865889 1_655
Mn8 N8 1.878546 1_555
Mn8 N0 1.901206 1_555
Mn9 N25 1.859947 1_555
Mn9 N30 1.865889 1_555
Mn9 N9 1.878546 1_555
Mn9 N1 1.901206 1_555
Mn10 N26 1.859947 1_555
Mn10 N29 1.865889 1_455
Mn10 N10 1.878546 1_555
Mn10 N2 1.901206 1_555
Mn11 N27 1.859947 1_555
Mn11 N28 1.865889 1_555
Mn11 N11 1.878546 1_555
Mn11 N3 1.901206 1_555
Mn12 N28 1.859947 1_555
Mn12 N27 1.865889 1_455
Mn12 N12 1.878546 1_555
Mn12 N4 1.901206 1_555
Mn13 N29 1.859947 1_555
Mn13 N26 1.865889 1_555
Mn13 N13 1.878546 1_555
Mn13 N5 1.901206 1_555
Mn14 N30 1.859947 1_555
Mn14 N25 1.865889 1_655
Mn14 N14 1.878546 1_555
Mn14 N6 1.901206 1_555
Mn15 N31 1.859947 1_555
Mn15 N24 1.865889 1_555
Mn15 N15 1.878546 1_555
Mn15 N7 1.901206 1_555
N0 Zn5 2.004626 1_555
N0 Zn2 2.093686 1_555
N1 Zn4 2.004626 1_545
N1 Zn3 2.093686 1_445
N2 Zn7 2.004626 1_565
N2 Zn0 2.093686 1_565
N3 Zn6 2.004626 1_555
N3 Zn1 2.093686 1_655
N4 Zn1 2.004626 1_555
N4 Zn6 2.093686 1_555
N5 Zn0 2.004626 1_565
N5 Zn7 2.093686 1_665
N6 Zn3 2.004626 1_545
N6 Zn4 2.093686 1_545
N7 Zn2 2.004626 1_555
N7 Zn5 2.093686 1_455
N8 Zn14 1.996748 1_555
N8 Zn15 2.078708 1_555
N9 Zn15 1.996748 1_555
N9 Zn14 2.078708 1_455
N10 Zn12 1.996748 1_554
N10 Zn13 2.078708 1_555
N11 Zn13 1.996748 1_556
N11 Zn12 2.078708 1_655
N12 Zn10 1.996748 1_555
N12 Zn11 2.078708 1_555
N13 Zn11 1.996748 1_555
N13 Zn10 2.078708 1_655
N14 Zn8 1.996748 1_556
N14 Zn9 2.078708 1_555
N15 Zn9 1.996748 1_554
N15 Zn8 2.078708 1_455
N16 Zn8 2.067528 1_555
N16 Zn5 2.109614 1_555
N17 Zn9 2.067528 1_555
N17 Zn4 2.109614 1_545
N18 Zn10 2.067528 1_555
N18 Zn7 2.109614 1_565
N19 Zn11 2.067528 1_555
N19 Zn6 2.109614 1_555
N20 Zn12 2.067528 1_555
N20 Zn1 2.109614 1_555
N21 Zn13 2.067528 1_555
N21 Zn0 2.109614 1_565
N22 Zn14 2.067528 1_555
N22 Zn3 2.109614 1_545
N23 Zn15 2.067528 1_555
N23 Zn2 2.109614 1_555
N24 Zn0 2.036076 1_555
N24 Zn8 2.107441 1_555
N25 Zn1 2.036076 1_555
N25 Zn9 2.107441 1_555
N26 Zn2 2.036076 1_555
N26 Zn10 2.107441 1_555
N27 Zn3 2.036076 1_555
N27 Zn11 2.107441 1_555
N28 Zn4 2.036076 1_555
N28 Zn12 2.107441 1_555
N29 Zn5 2.036076 1_555
N29 Zn13 2.107441 1_555
N30 Zn6 2.036076 1_555
N30 Zn14 2.107441 1_555
N31 Zn7 2.036076 1_555
N31 Zn15 2.107441 1_555
