# generated using pymatgen
data_B3H7C2S
_symmetry_space_group_name_H-M   'P 1'
_cell_length_a   8.52329893
_cell_length_b   8.52329893
_cell_length_c   13.57483865
_cell_angle_alpha   102.07707624
_cell_angle_beta   102.07707624
_cell_angle_gamma   108.11419986
_symmetry_Int_Tables_number   1
_chemical_formula_structural   B3H7C2S
_chemical_formula_sum   'B18 H42 C12 S6'
_cell_volume   875.72478687
_cell_formula_units_Z   6
loop_
 _symmetry_equiv_pos_site_id
 _symmetry_equiv_pos_as_xyz
  1  'x, y, z'
loop_
 _atom_site_type_symbol
 _atom_site_label
 _atom_site_symmetry_multiplicity
 _atom_site_fract_x
 _atom_site_fract_y
 _atom_site_fract_z
 _atom_site_occupancy
  B  B0  1  0.10880900  0.69312500  0.65488400  1
  B  B1  1  0.69312500  0.10880900  0.15488400  1
  B  B2  1  0.03215300  0.76456400  0.75906400  1
  B  B3  1  0.76456400  0.03215300  0.25906400  1
  B  B4  1  0.06631300  0.56969600  0.74306800  1
  B  B5  1  0.56969600  0.06631300  0.24306800  1
  B  B6  1  0.25033700  0.59162900  0.69940600  1
  B  B7  1  0.59162900  0.25033700  0.19940600  1
  B  B8  1  0.33611100  0.80173200  0.69206600  1
  B  B9  1  0.80173200  0.33611100  0.19206600  1
  B  B10  1  0.19986900  0.91536300  0.73223600  1
  B  B11  1  0.91536300  0.19986900  0.23223600  1
  B  B12  1  0.21104100  0.92182300  0.86669100  1
  B  B13  1  0.92182300  0.21104100  0.36669100  1
  B  B14  1  0.40327600  0.95185100  0.81834300  1
  B  B15  1  0.95185100  0.40327600  0.31834300  1
  B  B16  1  0.42923900  0.74814600  0.80267000  1
  B  B17  1  0.74814600  0.42923900  0.30267000  1
  H  H0  1  0.47644300  0.48149200  0.04738300  1
  H  H1  1  0.48149200  0.47644300  0.54738300  1
  H  H2  1  0.58114200  0.64594600  0.99417700  1
  H  H3  1  0.64594600  0.58114200  0.49417700  1
  H  H4  1  0.42564800  0.67208100  0.06114700  1
  H  H5  1  0.67208100  0.42564800  0.56114700  1
  H  H6  1  0.93717700  0.78148700  0.08446800  1
  H  H7  1  0.78148700  0.93717700  0.58446800  1
  H  H8  1  0.12840500  0.93552200  0.07648800  1
  H  H9  1  0.93552200  0.12840500  0.57648800  1
  H  H10  1  0.92333600  0.87797000  0.98038500  1
  H  H11  1  0.87797000  0.92333600  0.48038500  1
  H  H12  1  0.67339200  0.37736100  0.76603800  1
  H  H13  1  0.37736100  0.67339200  0.26603800  1
  H  H14  1  0.56649800  0.16389100  0.67219400  1
  H  H15  1  0.16389100  0.56649800  0.17219400  1
  H  H16  1  0.44253000  0.27664300  0.72838100  1
  H  H17  1  0.27664300  0.44253000  0.22838100  1
  H  H18  1  0.88067500  0.25571300  0.87028800  1
  H  H19  1  0.25571300  0.88067500  0.37028800  1
  H  H20  1  0.80878200  0.09450800  0.93411100  1
  H  H21  1  0.09450800  0.80878200  0.43411100  1
  H  H22  1  0.76572500  0.03148200  0.79294200  1
  H  H23  1  0.03148200  0.76572500  0.29294200  1
  H  H24  1  0.01948000  0.64539200  0.56575400  1
  H  H25  1  0.64539200  0.01948000  0.06575400  1
  H  H26  1  0.89120000  0.76759600  0.75181100  1
  H  H27  1  0.76759600  0.89120000  0.25181100  1
  H  H28  1  0.95509600  0.43308900  0.72628400  1
  H  H29  1  0.43308900  0.95509600  0.22628400  1
  H  H30  1  0.25703600  0.46291100  0.64840600  1
  H  H31  1  0.46291100  0.25703600  0.14840600  1
  H  H32  1  0.41115700  0.83927100  0.62995800  1
  H  H33  1  0.83927100  0.41115700  0.12995800  1
  H  H34  1  0.17165400  0.02375600  0.69632200  1
  H  H35  1  0.02375600  0.17165400  0.19632200  1
  H  H36  1  0.18580800  0.03327500  0.92283300  1
  H  H37  1  0.03327500  0.18580800  0.42283300  1
  H  H38  1  0.56381600  0.72745700  0.81874500  1
  H  H39  1  0.72745700  0.56381600  0.31874500  1
  H  H40  1  0.38459600  0.93708000  0.90718200  1
  H  H41  1  0.93708000  0.38459600  0.40718200  1
  C  C0  1  0.45974900  0.57898000  0.00931400  1
  C  C1  1  0.57898000  0.45974900  0.50931400  1
  C  C2  1  0.00492900  0.83011200  0.03032700  1
  C  C3  1  0.83011200  0.00492900  0.53032700  1
  C  C4  1  0.56388000  0.25371000  0.74203400  1
  C  C5  1  0.25371000  0.56388000  0.24203400  1
  C  C6  1  0.77919600  0.13271200  0.86240900  1
  C  C7  1  0.13271200  0.77919600  0.36240900  1
  C  C8  1  0.26736900  0.62887900  0.83233900  1
  C  C9  1  0.62887900  0.26736900  0.33233900  1
  C  C10  1  0.13996700  0.72000600  0.86484700  1
  C  C11  1  0.72000600  0.13996700  0.36484700  1
  S  S0  1  0.28721800  0.46058900  0.88786200  1
  S  S1  1  0.46058900  0.28721800  0.38786200  1
  S  S2  1  0.03427500  0.64355200  0.95738500  1
  S  S3  1  0.64355200  0.03427500  0.45738500  1
  S  S4  1  0.58228200  0.17331800  0.85469800  1
  S  S5  1  0.17331800  0.58228200  0.35469800  1
loop_
_geom_bond_atom_site_label_1
_geom_bond_atom_site_label_2
_geom_bond_distance
_geom_bond_site_symmetry_2
B0 H24 1.193755 1_555
B1 H25 1.193755 1_555
B2 H26 1.193549 1_455
B2 C10 1.715741 1_555
B3 H27 1.193549 1_545
B3 C11 1.715741 1_555
B4 H28 1.190999 1_455
B4 C10 1.716867 1_555
B4 C8 1.731278 1_555
B5 H29 1.190999 1_545
B5 C11 1.716867 1_555
B5 C9 1.731278 1_555
B6 H30 1.193254 1_555
B6 C8 1.732117 1_555
B7 H31 1.193254 1_555
B7 C9 1.732117 1_555
B8 H32 1.197341 1_555
B9 H33 1.197341 1_555
B10 H34 1.194409 1_565
B11 H35 1.194409 1_655
B12 H36 1.192537 1_565
B12 H40 1.420381 1_555
B12 C10 1.629165 1_555
B13 H37 1.192537 1_655
B13 H41 1.420381 1_555
B13 C11 1.629165 1_555
B14 H40 1.275536 1_555
B14 S4 1.907557 1_565
B15 H41 1.275536 1_555
B15 S5 1.907557 1_655
B16 H38 1.196474 1_555
B16 C8 1.621972 1_555
B17 H39 1.196474 1_555
B17 C9 1.621972 1_555
C0 H0 1.095522 1_555
C0 H4 1.097546 1_555
C0 H2 1.099710 1_554
C0 S0 1.807066 1_554
C1 H1 1.095522 1_555
C1 H5 1.097546 1_555
C1 H3 1.099710 1_555
C1 S1 1.807066 1_555
C2 H6 1.096191 1_455
C2 H10 1.097486 1_454
C2 H8 1.099066 1_555
C2 S2 1.806530 1_554
C3 H7 1.096191 1_545
C3 H11 1.097486 1_545
C3 H9 1.099066 1_555
C3 S3 1.806530 1_555
C4 H14 1.095976 1_555
C4 H16 1.096811 1_555
C4 H12 1.097940 1_555
C4 S4 1.799480 1_555
C5 H15 1.095976 1_555
C5 H17 1.096811 1_555
C5 H13 1.097940 1_555
C5 S5 1.799480 1_555
C6 H20 1.094530 1_555
C6 H22 1.095220 1_555
C6 H18 1.099615 1_555
C6 S4 1.802905 1_555
C7 H21 1.094530 1_555
C7 H23 1.095220 1_555
C7 H19 1.099615 1_555
C7 S5 1.802905 1_555
C8 S0 1.790003 1_555
C9 S1 1.790003 1_555
C10 C8 1.599593 1_555
C10 S2 1.806990 1_555
C11 C9 1.599593 1_555
C11 S3 1.806990 1_555
