# generated using pymatgen
data_Sr2NbCoO6
_symmetry_space_group_name_H-M   'P 1'
_cell_length_a   5.64132308
_cell_length_b   5.66085287
_cell_length_c   18.71808980
_cell_angle_alpha   89.71386998
_cell_angle_beta   80.69628455
_cell_angle_gamma   59.60545300
_symmetry_Int_Tables_number   1
_chemical_formula_structural   Sr2NbCoO6
_chemical_formula_sum   'Sr8 Nb4 Co4 O24'
_cell_volume   506.74404563
_cell_formula_units_Z   4
loop_
 _symmetry_equiv_pos_site_id
 _symmetry_equiv_pos_as_xyz
  1  'x, y, z'
loop_
 _atom_site_type_symbol
 _atom_site_label
 _atom_site_symmetry_multiplicity
 _atom_site_fract_x
 _atom_site_fract_y
 _atom_site_fract_z
 _atom_site_occupancy
  Sr  Sr0  1  0.49441100  0.25621900  0.75322600  1
  Sr  Sr1  1  0.99924600  0.49310600  0.50132200  1
  Sr  Sr2  1  0.99615000  0.00776800  0.99831000  1
  Sr  Sr3  1  0.50705700  0.74479800  0.24838000  1
  Sr  Sr4  1  0.74668900  0.63506000  0.87450500  1
  Sr  Sr5  1  0.24486700  0.87025300  0.62727500  1
  Sr  Sr6  1  0.25199900  0.37772900  0.12146800  1
  Sr  Sr7  1  0.75404700  0.11809800  0.37617800  1
  Nb  Nb0  1  0.12226300  0.94851900  0.81462400  1
  Nb  Nb1  1  0.61759800  0.17798400  0.56484700  1
  Nb  Nb2  1  0.62309400  0.69348600  0.05902800  1
  Nb  Nb3  1  0.13500400  0.43039400  0.31159000  1
  Co  Co0  1  0.37297400  0.32038000  0.93710400  1
  Co  Co1  1  0.87032200  0.56203900  0.68920700  1
  Co  Co2  1  0.87974900  0.06018700  0.18589900  1
  Co  Co3  1  0.37479800  0.80721600  0.43788000  1
  O  O0  1  0.25093800  0.13898300  0.87721900  1
  O  O1  1  0.73384600  0.35108000  0.62957800  1
  O  O2  1  0.72518400  0.88843100  0.12446900  1
  O  O3  1  0.27295100  0.62719700  0.37312000  1
  O  O4  1  0.00947600  0.77204800  0.74847300  1
  O  O5  1  0.47939800  0.97938900  0.50346700  1
  O  O6  1  0.49639800  0.50300700  0.99670600  1
  O  O7  1  0.03612200  0.23493600  0.24756400  1
  O  O8  1  0.99880100  0.27471500  0.75366300  1
  O  O9  1  0.49063700  0.47917200  0.50115800  1
  O  O10  1  0.50034200  0.01146500  0.99563100  1
  O  O11  1  0.04401500  0.72462600  0.24436600  1
  O  O12  1  0.24598000  0.63218700  0.87662700  1
  O  O13  1  0.74323700  0.84631700  0.62485200  1
  O  O14  1  0.72060900  0.39990300  0.12581100  1
  O  O15  1  0.26127400  0.12985600  0.37703100  1
  O  O16  1  0.50993700  0.75988000  0.75209700  1
  O  O17  1  0.98205700  0.98496000  0.49927100  1
  O  O18  1  0.00631300  0.50060800  0.99919900  1
  O  O19  1  0.54374200  0.22692200  0.25410800  1
  O  O20  1  0.74083100  0.13965700  0.87587300  1
  O  O21  1  0.22789000  0.36465700  0.62695900  1
  O  O22  1  0.22196500  0.89903800  0.11743200  1
  O  O23  1  0.76778800  0.62772900  0.37448100  1
loop_
_geom_bond_atom_site_label_1
_geom_bond_atom_site_label_2
_geom_bond_distance
_geom_bond_site_symmetry_2
Nb0 O4 1.961187 1_555
Nb0 O20 1.993506 1_465
Nb0 O12 2.004287 1_555
Nb0 O16 2.028481 1_555
Nb0 O8 2.032584 1_465
Nb0 O0 2.035138 1_565
Nb1 O1 1.943528 1_555
Nb1 O17 1.962635 1_545
Nb1 O9 1.964998 1_555
Nb1 O21 2.033867 1_555
Nb1 O13 2.044194 1_545
Nb1 O5 2.093114 1_545
Nb2 O14 1.975785 1_555
Nb2 O2 1.983609 1_555
Nb2 O18 1.990177 1_654
Nb2 O6 2.023946 1_554
Nb2 O10 2.027529 1_564
Nb2 O22 2.053817 1_555
Nb3 O23 1.951431 1_455
Nb3 O7 1.955927 1_555
Nb3 O15 1.984262 1_555
Nb3 O11 1.985905 1_555
Nb3 O19 2.079393 1_555
Nb3 O3 2.086417 1_555
Co0 O10 1.933490 1_555
Co0 O20 1.939347 1_555
Co0 O0 1.939396 1_555
Co0 O18 1.941490 1_555
Co0 O6 1.946615 1_555
Co0 O12 1.967977 1_555
Co1 O13 1.909759 1_555
Co1 O21 1.909807 1_655
Co1 O8 1.922677 1_555
Co1 O16 1.925786 1_555
Co1 O1 2.118063 1_555
Co1 O4 2.121159 1_655
Co2 O19 1.879649 1_555
Co2 O22 1.905582 1_645
Co2 O11 2.047112 1_645
Co2 O2 2.054513 1_545
Co2 O7 2.076710 1_655
Co2 O14 2.080170 1_555
Co3 O5 1.906158 1_555
Co3 O3 1.915199 1_555
Co3 O15 2.018584 1_565
Co3 O17 2.043088 1_455
Co3 O23 2.058554 1_555
Co3 O9 2.068516 1_555
O0 Sr0 2.754973 1_555
O0 Sr2 2.786624 1_455
O0 Sr4 2.800749 1_545
O0 Sr4 2.818238 1_455
O1 Sr0 2.679604 1_555
O1 Sr5 2.782465 1_645
O1 Sr5 2.842922 1_555
O1 Sr1 2.947546 1_555
O2 Sr6 2.714030 1_565
O2 Sr3 2.761447 1_555
O2 Sr2 2.869029 1_564
O2 Sr6 2.906366 1_655
O3 Sr3 2.741564 1_555
O3 Sr7 2.794383 1_555
O3 Sr7 2.830303 1_465
O3 Sr1 2.947644 1_455
O4 Sr5 2.641836 1_555
O4 Sr0 2.796962 1_465
O4 Sr0 2.830402 1_555
O4 Sr4 2.894571 1_455
O5 Sr5 2.706323 1_555
O5 Sr1 2.803335 1_465
O5 Sr1 2.823787 1_555
O5 Sr7 2.951734 1_565
O6 Sr6 2.790932 1_556
O6 Sr4 2.791278 1_555
O6 Sr2 2.799523 1_555
O6 Sr2 2.818389 1_465
O7 Sr3 2.703767 1_545
O7 Sr6 2.784796 1_555
O7 Sr3 2.916755 1_455
O7 Sr7 2.928426 1_455
O8 Sr4 2.714836 1_555
O8 Sr0 2.743074 1_655
O8 Sr0 2.901119 1_555
O8 Sr5 2.922685 1_645
O9 Sr1 2.732533 1_455
O9 Sr7 2.776513 1_555
O9 Sr5 2.878219 1_555
O9 Sr1 2.910423 1_555
O10 Sr4 2.764954 1_545
O10 Sr2 2.795057 1_555
O10 Sr6 2.802162 1_556
O10 Sr2 2.847307 1_455
O11 Sr3 2.684678 1_555
O11 Sr6 2.713987 1_555
O11 Sr3 2.961576 1_455
O11 Sr7 2.964372 1_465
O12 Sr2 2.769973 1_465
O12 Sr0 2.795220 1_555
O12 Sr4 2.815180 1_455
O12 Sr4 2.826793 1_555
O13 Sr1 2.733959 1_555
O13 Sr5 2.738267 1_555
O13 Sr5 2.908276 1_655
O13 Sr0 2.966106 1_565
O14 Sr3 2.701444 1_555
O14 Sr6 2.723280 1_555
O14 Sr2 2.898513 1_554
O14 Sr6 2.923930 1_655
O15 Sr7 2.744250 1_555
O15 Sr1 2.772369 1_455
O15 Sr3 2.896087 1_545
O15 Sr7 2.898272 1_455
O16 Sr4 2.747949 1_555
O16 Sr0 2.766499 1_565
O16 Sr5 2.873152 1_555
O16 Sr0 2.896321 1_555
O17 Sr1 2.736824 1_555
O17 Sr7 2.737005 1_565
O17 Sr5 2.918797 1_655
O17 Sr1 2.927442 1_565
O18 Sr6 2.770719 1_556
O18 Sr2 2.819522 1_455
O18 Sr2 2.842400 1_465
O18 Sr4 2.851611 1_455
O19 Sr7 2.670350 1_555
O19 Sr3 2.835283 1_555
O19 Sr3 2.843357 1_545
O19 Sr6 3.078949 1_555
O20 Sr0 2.779703 1_555
O20 Sr2 2.801131 1_555
O20 Sr4 2.821208 1_555
O20 Sr4 2.840068 1_545
O21 Sr5 2.751542 1_545
O21 Sr1 2.781639 1_455
O21 Sr0 2.902415 1_555
O21 Sr5 2.911800 1_555
O22 Sr2 2.661704 1_464
O22 Sr6 2.801464 1_565
O22 Sr6 2.870382 1_555
O22 Sr3 3.031356 1_555
O23 Sr7 2.737703 1_565
O23 Sr1 2.810695 1_555
O23 Sr3 2.880026 1_555
O23 Sr7 2.924810 1_555
