# generated using pymatgen
data_KSc(MoO4)2
_symmetry_space_group_name_H-M   'P 1'
_cell_length_a   5.88498927
_cell_length_b   5.88498927
_cell_length_c   7.40486600
_cell_angle_alpha   90.00000000
_cell_angle_beta   90.00000000
_cell_angle_gamma   119.99999181
_symmetry_Int_Tables_number   1
_chemical_formula_structural   KSc(MoO4)2
_chemical_formula_sum   'K1 Sc1 Mo2 O8'
_cell_volume   222.09522545
_cell_formula_units_Z   1
loop_
 _symmetry_equiv_pos_site_id
 _symmetry_equiv_pos_as_xyz
  1  'x, y, z'
loop_
 _atom_site_type_symbol
 _atom_site_label
 _atom_site_symmetry_multiplicity
 _atom_site_fract_x
 _atom_site_fract_y
 _atom_site_fract_z
 _atom_site_occupancy
  K  K0  1  0.00000000  0.00000000  0.50000000  1
  Sc  Sc0  1  0.00000000  0.00000000  0.00000000  1
  Mo  Mo0  1  0.33333300  0.66666700  0.24818000  1
  Mo  Mo1  1  0.66666700  0.33333300  0.75182000  1
  O  O0  1  0.32900000  0.16450000  0.82807700  1
  O  O1  1  0.83550000  0.16450000  0.82807700  1
  O  O2  1  0.83550000  0.67100000  0.82807700  1
  O  O3  1  0.16450000  0.83550000  0.17192300  1
  O  O4  1  0.33333300  0.66666700  0.48436800  1
  O  O5  1  0.66666700  0.33333300  0.51563200  1
  O  O6  1  0.16450000  0.32900000  0.17192300  1
  O  O7  1  0.67100000  0.83550000  0.17192300  1
loop_
_geom_bond_atom_site_label_1
_geom_bond_atom_site_label_2
_geom_bond_distance
_geom_bond_site_symmetry_2
K0 O1 2.951840 1_455
K0 O3 2.951840 1_545
K0 O0 2.951840 1_555
K0 O6 2.951840 1_555
K0 O2 2.951840 1_445
K0 O7 2.951840 1_445
Mo0 O4 1.748940 1_555
Mo0 O3 1.811204 1_555
Mo0 O6 1.811209 1_555
Mo0 O7 1.811209 1_555
Mo1 O5 1.748940 1_555
Mo1 O1 1.811204 1_555
Mo1 O0 1.811209 1_555
Mo1 O2 1.811209 1_555
O0 Sc0 2.105289 1_556
O1 Sc0 2.105289 1_656
O2 Sc0 2.105289 1_666
O3 Sc0 2.105289 1_565
O6 Sc0 2.105289 1_555
O7 Sc0 2.105289 1_665
