# generated using pymatgen
data_CaMg6Fe
_symmetry_space_group_name_H-M   'P 1'
_cell_length_a   4.84174400
_cell_length_b   6.17505200
_cell_length_c   11.89596200
_cell_angle_alpha   90.00000000
_cell_angle_beta   90.00000000
_cell_angle_gamma   90.00000000
_symmetry_Int_Tables_number   1
_chemical_formula_structural   CaMg6Fe
_chemical_formula_sum   'Ca2 Mg12 Fe2'
_cell_volume   355.66572134
_cell_formula_units_Z   2
loop_
 _symmetry_equiv_pos_site_id
 _symmetry_equiv_pos_as_xyz
  1  'x, y, z'
loop_
 _atom_site_type_symbol
 _atom_site_label
 _atom_site_symmetry_multiplicity
 _atom_site_fract_x
 _atom_site_fract_y
 _atom_site_fract_z
 _atom_site_occupancy
  Ca  Ca0  1  0.00000000  0.50000000  0.30545300  1
  Ca  Ca1  1  0.00000000  0.00000000  0.80545300  1
  Mg  Mg0  1  0.00000000  0.26178200  0.07954700  1
  Mg  Mg1  1  0.00000000  0.73821800  0.07954700  1
  Mg  Mg2  1  0.00000000  0.00000000  0.33657400  1
  Mg  Mg3  1  0.50000000  0.75846800  0.44069000  1
  Mg  Mg4  1  0.50000000  0.24153200  0.44069000  1
  Mg  Mg5  1  0.50000000  0.00000000  0.17957700  1
  Mg  Mg6  1  0.00000000  0.76178200  0.57954700  1
  Mg  Mg7  1  0.00000000  0.23821800  0.57954700  1
  Mg  Mg8  1  0.00000000  0.50000000  0.83657400  1
  Mg  Mg9  1  0.50000000  0.25846800  0.94069000  1
  Mg  Mg10  1  0.50000000  0.74153200  0.94069000  1
  Mg  Mg11  1  0.50000000  0.50000000  0.67957700  1
  Fe  Fe0  1  0.50000000  0.50000000  0.13792200  1
  Fe  Fe1  1  0.50000000  0.00000000  0.63792200  1
loop_
_geom_bond_atom_site_label_1
_geom_bond_atom_site_label_2
_geom_bond_distance
_geom_bond_site_symmetry_2
Ca0 Mg1 3.063628 1_555
Ca0 Mg0 3.063628 1_555
Ca0 Mg2 3.109642 1_565
Ca0 Mg2 3.109642 1_555
Ca0 Fe0 3.135672 1_555
Ca0 Fe0 3.135672 1_455
Ca0 Mg3 3.316046 1_555
Ca0 Mg3 3.316046 1_455
Ca0 Mg4 3.316046 1_555
Ca0 Mg4 3.316046 1_455
Ca0 Mg6 3.639329 1_555
Ca0 Mg7 3.639329 1_555
Ca1 Mg7 3.063628 1_555
Ca1 Mg6 3.063628 1_545
Ca1 Mg8 3.109642 1_545
Ca1 Mg8 3.109642 1_555
Ca1 Fe1 3.135672 1_455
Ca1 Fe1 3.135672 1_555
Ca1 Mg10 3.316046 1_545
Ca1 Mg9 3.316046 1_455
Ca1 Mg9 3.316046 1_555
Ca1 Mg10 3.316046 1_445
Ca1 Mg0 3.639329 1_556
Ca1 Mg1 3.639329 1_546
Fe0 Mg10 2.780188 1_554
Fe0 Mg9 2.780188 1_554
Fe0 Mg1 2.916627 1_655
Fe0 Mg1 2.916627 1_555
Fe0 Mg0 2.916627 1_555
Fe0 Mg0 2.916627 1_655
Fe0 Mg5 3.127037 1_565
Fe0 Mg5 3.127037 1_555
Fe1 Mg4 2.780188 1_555
Fe1 Mg3 2.780188 1_545
Fe1 Mg7 2.916627 1_555
Fe1 Mg7 2.916627 1_655
Fe1 Mg6 2.916627 1_645
Fe1 Mg6 2.916627 1_545
Fe1 Mg11 3.127037 1_555
Fe1 Mg11 3.127037 1_545
