# generated using pymatgen
data_KCu24Ag9H48Pb26(Cl31O24)2
_symmetry_space_group_name_H-M   'P 1'
_cell_length_a   15.49360569
_cell_length_b   15.49360569
_cell_length_c   15.49360569
_cell_angle_alpha   90.00000000
_cell_angle_beta   90.00000000
_cell_angle_gamma   90.00000000
_symmetry_Int_Tables_number   1
_chemical_formula_structural   KCu24Ag9H48Pb26(Cl31O24)2
_chemical_formula_sum   'K1 Cu24 Ag9 H48 Pb26 Cl62 O48'
_cell_volume   3719.26820206
_cell_formula_units_Z   1
loop_
 _symmetry_equiv_pos_site_id
 _symmetry_equiv_pos_as_xyz
  1  'x, y, z'
loop_
 _atom_site_type_symbol
 _atom_site_label
 _atom_site_symmetry_multiplicity
 _atom_site_fract_x
 _atom_site_fract_y
 _atom_site_fract_z
 _atom_site_occupancy
  K  K0  1  0.50000000  0.50000000  0.50000000  1
  Cu  Cu0  1  0.09410298  0.25608970  0.74391030  1
  Cu  Cu1  1  0.25608970  0.25608970  0.90589702  1
  Cu  Cu2  1  0.25608970  0.09410298  0.74391030  1
  Cu  Cu3  1  0.09410298  0.74391030  0.25608970  1
  Cu  Cu4  1  0.25608970  0.74391030  0.09410298  1
  Cu  Cu5  1  0.25608970  0.90589702  0.25608970  1
  Cu  Cu6  1  0.90589702  0.25608970  0.25608970  1
  Cu  Cu7  1  0.74391030  0.25608970  0.09410298  1
  Cu  Cu8  1  0.74391030  0.09410298  0.25608970  1
  Cu  Cu9  1  0.90589702  0.74391030  0.74391030  1
  Cu  Cu10  1  0.74391030  0.74391030  0.90589702  1
  Cu  Cu11  1  0.74391030  0.90589702  0.74391030  1
  Cu  Cu12  1  0.90589702  0.74391030  0.25608970  1
  Cu  Cu13  1  0.74391030  0.74391030  0.09410298  1
  Cu  Cu14  1  0.74391030  0.90589702  0.25608970  1
  Cu  Cu15  1  0.90589702  0.25608970  0.74391030  1
  Cu  Cu16  1  0.74391030  0.25608970  0.90589702  1
  Cu  Cu17  1  0.74391030  0.09410298  0.74391030  1
  Cu  Cu18  1  0.09410298  0.74391030  0.74391030  1
  Cu  Cu19  1  0.25608970  0.74391030  0.90589702  1
  Cu  Cu20  1  0.25608970  0.90589702  0.74391030  1
  Cu  Cu21  1  0.09410298  0.25608970  0.25608970  1
  Cu  Cu22  1  0.25608970  0.25608970  0.09410298  1
  Cu  Cu23  1  0.25608970  0.09410298  0.25608970  1
  Ag  Ag0  1  0.00000000  0.15492020  0.00000000  1
  Ag  Ag1  1  0.15492020  0.00000000  0.00000000  1
  Ag  Ag2  1  0.00000000  0.00000000  0.84507980  1
  Ag  Ag3  1  0.00000000  0.84507980  0.00000000  1
  Ag  Ag4  1  0.00000000  0.00000000  0.15492020  1
  Ag  Ag5  1  0.84507980  0.00000000  0.00000000  1
  Ag  Ag6  1  0.00000000  0.50000000  0.00000000  1
  Ag  Ag7  1  0.50000000  0.00000000  0.00000000  1
  Ag  Ag8  1  0.00000000  0.00000000  0.50000000  1
  H  H0  1  0.14814699  0.33516953  0.00000000  1
  H  H1  1  0.33516953  0.00000000  0.85185301  1
  H  H2  1  0.00000000  0.14814699  0.66483047  1
  H  H3  1  0.14814699  0.00000000  0.66483047  1
  H  H4  1  0.33516953  0.14814699  0.00000000  1
  H  H5  1  0.00000000  0.33516953  0.85185301  1
  H  H6  1  0.14814699  0.66483047  0.00000000  1
  H  H7  1  0.33516953  0.00000000  0.14814699  1
  H  H8  1  0.00000000  0.85185301  0.33516953  1
  H  H9  1  0.14814699  0.00000000  0.33516953  1
  H  H10  1  0.33516953  0.85185301  0.00000000  1
  H  H11  1  0.00000000  0.66483047  0.14814699  1
  H  H12  1  0.85185301  0.33516953  0.00000000  1
  H  H13  1  0.66483047  0.00000000  0.14814699  1
  H  H14  1  0.00000000  0.14814699  0.33516953  1
  H  H15  1  0.85185301  0.00000000  0.33516953  1
  H  H16  1  0.66483047  0.14814699  0.00000000  1
  H  H17  1  0.00000000  0.33516953  0.14814699  1
  H  H18  1  0.85185301  0.66483047  0.00000000  1
  H  H19  1  0.66483047  0.00000000  0.85185301  1
  H  H20  1  0.00000000  0.85185301  0.66483047  1
  H  H21  1  0.85185301  0.00000000  0.66483047  1
  H  H22  1  0.66483047  0.85185301  0.00000000  1
  H  H23  1  0.00000000  0.66483047  0.85185301  1
  H  H24  1  0.36717710  0.16652277  0.83347723  1
  H  H25  1  0.16652277  0.16652277  0.63282290  1
  H  H26  1  0.16652277  0.36717710  0.83347723  1
  H  H27  1  0.36717710  0.83347723  0.16652277  1
  H  H28  1  0.16652277  0.83347723  0.36717710  1
  H  H29  1  0.16652277  0.63282290  0.16652277  1
  H  H30  1  0.63282290  0.16652277  0.16652277  1
  H  H31  1  0.83347723  0.16652277  0.36717710  1
  H  H32  1  0.83347723  0.36717710  0.16652277  1
  H  H33  1  0.63282290  0.83347723  0.83347723  1
  H  H34  1  0.83347723  0.83347723  0.63282290  1
  H  H35  1  0.83347723  0.63282290  0.83347723  1
  H  H36  1  0.63282290  0.83347723  0.16652277  1
  H  H37  1  0.83347723  0.83347723  0.36717710  1
  H  H38  1  0.83347723  0.63282290  0.16652277  1
  H  H39  1  0.63282290  0.16652277  0.83347723  1
  H  H40  1  0.83347723  0.16652277  0.63282290  1
  H  H41  1  0.83347723  0.36717710  0.83347723  1
  H  H42  1  0.36717710  0.83347723  0.83347723  1
  H  H43  1  0.16652277  0.83347723  0.63282290  1
  H  H44  1  0.16652277  0.63282290  0.83347723  1
  H  H45  1  0.36717710  0.16652277  0.16652277  1
  H  H46  1  0.16652277  0.16652277  0.36717710  1
  H  H47  1  0.16652277  0.36717710  0.16652277  1
  Pb  Pb0  1  0.50000000  0.50000000  0.77618899  1
  Pb  Pb1  1  0.50000000  0.22381101  0.50000000  1
  Pb  Pb2  1  0.22381101  0.50000000  0.50000000  1
  Pb  Pb3  1  0.50000000  0.50000000  0.22381101  1
  Pb  Pb4  1  0.50000000  0.77618899  0.50000000  1
  Pb  Pb5  1  0.77618899  0.50000000  0.50000000  1
  Pb  Pb6  1  0.30383457  0.30383457  0.69616543  1
  Pb  Pb7  1  0.30383457  0.69616543  0.30383457  1
  Pb  Pb8  1  0.69616543  0.30383457  0.30383457  1
  Pb  Pb9  1  0.69616543  0.69616543  0.69616543  1
  Pb  Pb10  1  0.69616543  0.69616543  0.30383457  1
  Pb  Pb11  1  0.69616543  0.30383457  0.69616543  1
  Pb  Pb12  1  0.30383457  0.69616543  0.69616543  1
  Pb  Pb13  1  0.30383457  0.30383457  0.30383457  1
  Pb  Pb14  1  0.00000000  0.50000000  0.72483288  1
  Pb  Pb15  1  0.50000000  0.27516712  0.00000000  1
  Pb  Pb16  1  0.27516712  0.00000000  0.50000000  1
  Pb  Pb17  1  0.00000000  0.27516712  0.50000000  1
  Pb  Pb18  1  0.50000000  0.00000000  0.72483288  1
  Pb  Pb19  1  0.27516712  0.50000000  0.00000000  1
  Pb  Pb20  1  0.00000000  0.50000000  0.27516712  1
  Pb  Pb21  1  0.50000000  0.72483288  0.00000000  1
  Pb  Pb22  1  0.00000000  0.72483288  0.50000000  1
  Pb  Pb23  1  0.50000000  0.00000000  0.27516712  1
  Pb  Pb24  1  0.72483288  0.00000000  0.50000000  1
  Pb  Pb25  1  0.72483288  0.50000000  0.00000000  1
  Cl  Cl0  1  0.12082746  0.12082746  0.87917254  1
  Cl  Cl1  1  0.12082746  0.87917254  0.12082746  1
  Cl  Cl2  1  0.87917254  0.12082746  0.12082746  1
  Cl  Cl3  1  0.87917254  0.87917254  0.87917254  1
  Cl  Cl4  1  0.87917254  0.87917254  0.12082746  1
  Cl  Cl5  1  0.87917254  0.12082746  0.87917254  1
  Cl  Cl6  1  0.12082746  0.87917254  0.87917254  1
  Cl  Cl7  1  0.12082746  0.12082746  0.12082746  1
  Cl  Cl8  1  0.12126639  0.38568877  0.61431123  1
  Cl  Cl9  1  0.38568877  0.38568877  0.87873361  1
  Cl  Cl10  1  0.38568877  0.12126639  0.61431123  1
  Cl  Cl11  1  0.12126639  0.61431123  0.38568877  1
  Cl  Cl12  1  0.38568877  0.61431123  0.12126639  1
  Cl  Cl13  1  0.38568877  0.87873361  0.38568877  1
  Cl  Cl14  1  0.87873361  0.38568877  0.38568877  1
  Cl  Cl15  1  0.61431123  0.38568877  0.12126639  1
  Cl  Cl16  1  0.61431123  0.12126639  0.38568877  1
  Cl  Cl17  1  0.87873361  0.61431123  0.61431123  1
  Cl  Cl18  1  0.61431123  0.61431123  0.87873361  1
  Cl  Cl19  1  0.61431123  0.87873361  0.61431123  1
  Cl  Cl20  1  0.87873361  0.61431123  0.38568877  1
  Cl  Cl21  1  0.61431123  0.61431123  0.12126639  1
  Cl  Cl22  1  0.61431123  0.87873361  0.38568877  1
  Cl  Cl23  1  0.87873361  0.38568877  0.61431123  1
  Cl  Cl24  1  0.61431123  0.38568877  0.87873361  1
  Cl  Cl25  1  0.61431123  0.12126639  0.61431123  1
  Cl  Cl26  1  0.12126639  0.61431123  0.61431123  1
  Cl  Cl27  1  0.38568877  0.61431123  0.87873361  1
  Cl  Cl28  1  0.38568877  0.87873361  0.61431123  1
  Cl  Cl29  1  0.12126639  0.38568877  0.38568877  1
  Cl  Cl30  1  0.38568877  0.38568877  0.12126639  1
  Cl  Cl31  1  0.38568877  0.12126639  0.38568877  1
  Cl  Cl32  1  0.00000000  0.33227094  0.00000000  1
  Cl  Cl33  1  0.33227094  0.00000000  0.00000000  1
  Cl  Cl34  1  0.00000000  0.00000000  0.66772906  1
  Cl  Cl35  1  0.00000000  0.66772906  0.00000000  1
  Cl  Cl36  1  0.00000000  0.00000000  0.33227094  1
  Cl  Cl37  1  0.66772906  0.00000000  0.00000000  1
  Cl  Cl38  1  0.13278925  0.50000000  0.86721075  1
  Cl  Cl39  1  0.50000000  0.13278925  0.86721075  1
  Cl  Cl40  1  0.13278925  0.13278925  0.50000000  1
  Cl  Cl41  1  0.13278925  0.50000000  0.13278925  1
  Cl  Cl42  1  0.50000000  0.86721075  0.13278925  1
  Cl  Cl43  1  0.13278925  0.86721075  0.50000000  1
  Cl  Cl44  1  0.86721075  0.50000000  0.13278925  1
  Cl  Cl45  1  0.50000000  0.13278925  0.13278925  1
  Cl  Cl46  1  0.86721075  0.13278925  0.50000000  1
  Cl  Cl47  1  0.86721075  0.50000000  0.86721075  1
  Cl  Cl48  1  0.50000000  0.86721075  0.86721075  1
  Cl  Cl49  1  0.86721075  0.86721075  0.50000000  1
  Cl  Cl50  1  0.33170997  0.50000000  0.66829003  1
  Cl  Cl51  1  0.50000000  0.33170997  0.66829003  1
  Cl  Cl52  1  0.33170997  0.33170997  0.50000000  1
  Cl  Cl53  1  0.33170997  0.50000000  0.33170997  1
  Cl  Cl54  1  0.50000000  0.66829003  0.33170997  1
  Cl  Cl55  1  0.33170997  0.66829003  0.50000000  1
  Cl  Cl56  1  0.66829003  0.50000000  0.33170997  1
  Cl  Cl57  1  0.50000000  0.33170997  0.33170997  1
  Cl  Cl58  1  0.66829003  0.33170997  0.50000000  1
  Cl  Cl59  1  0.66829003  0.50000000  0.66829003  1
  Cl  Cl60  1  0.50000000  0.66829003  0.66829003  1
  Cl  Cl61  1  0.66829003  0.66829003  0.50000000  1
  O  O0  1  0.21176877  0.33079710  0.00000000  1
  O  O1  1  0.33079710  0.00000000  0.78823123  1
  O  O2  1  0.00000000  0.21176877  0.66920290  1
  O  O3  1  0.21176877  0.00000000  0.66920290  1
  O  O4  1  0.33079710  0.21176877  0.00000000  1
  O  O5  1  0.00000000  0.33079710  0.78823123  1
  O  O6  1  0.21176877  0.66920290  0.00000000  1
  O  O7  1  0.33079710  0.00000000  0.21176877  1
  O  O8  1  0.00000000  0.78823123  0.33079710  1
  O  O9  1  0.21176877  0.00000000  0.33079710  1
  O  O10  1  0.33079710  0.78823123  0.00000000  1
  O  O11  1  0.00000000  0.66920290  0.21176877  1
  O  O12  1  0.78823123  0.33079710  0.00000000  1
  O  O13  1  0.66920290  0.00000000  0.21176877  1
  O  O14  1  0.00000000  0.21176877  0.33079710  1
  O  O15  1  0.78823123  0.00000000  0.33079710  1
  O  O16  1  0.66920290  0.21176877  0.00000000  1
  O  O17  1  0.00000000  0.33079710  0.21176877  1
  O  O18  1  0.78823123  0.66920290  0.00000000  1
  O  O19  1  0.66920290  0.00000000  0.78823123  1
  O  O20  1  0.00000000  0.78823123  0.66920290  1
  O  O21  1  0.78823123  0.00000000  0.66920290  1
  O  O22  1  0.66920290  0.78823123  0.00000000  1
  O  O23  1  0.00000000  0.66920290  0.78823123  1
  O  O24  1  0.30960786  0.18619638  0.81380362  1
  O  O25  1  0.18619638  0.18619638  0.69039214  1
  O  O26  1  0.18619638  0.30960786  0.81380362  1
  O  O27  1  0.30960786  0.81380362  0.18619638  1
  O  O28  1  0.18619638  0.81380362  0.30960786  1
  O  O29  1  0.18619638  0.69039214  0.18619638  1
  O  O30  1  0.69039214  0.18619638  0.18619638  1
  O  O31  1  0.81380362  0.18619638  0.30960786  1
  O  O32  1  0.81380362  0.30960786  0.18619638  1
  O  O33  1  0.69039214  0.81380362  0.81380362  1
  O  O34  1  0.81380362  0.81380362  0.69039214  1
  O  O35  1  0.81380362  0.69039214  0.81380362  1
  O  O36  1  0.69039214  0.81380362  0.18619638  1
  O  O37  1  0.81380362  0.81380362  0.30960786  1
  O  O38  1  0.81380362  0.69039214  0.18619638  1
  O  O39  1  0.69039214  0.18619638  0.81380362  1
  O  O40  1  0.81380362  0.18619638  0.69039214  1
  O  O41  1  0.81380362  0.30960786  0.81380362  1
  O  O42  1  0.30960786  0.81380362  0.81380362  1
  O  O43  1  0.18619638  0.81380362  0.69039214  1
  O  O44  1  0.18619638  0.69039214  0.81380362  1
  O  O45  1  0.30960786  0.18619638  0.18619638  1
  O  O46  1  0.18619638  0.18619638  0.30960786  1
  O  O47  1  0.18619638  0.30960786  0.18619638  1
loop_
_geom_bond_atom_site_label_1
_geom_bond_atom_site_label_2
_geom_bond_distance
_geom_bond_site_symmetry_2
Cu0 O25 1.973867 1_555
Cu0 O26 1.973867 1_555
Cu0 O2 1.984205 1_555
Cu0 O5 1.984205 1_555
Cu1 O24 1.973867 1_555
Cu1 O26 1.973867 1_555
Cu1 O4 1.984205 1_556
Cu1 O0 1.984205 1_556
Cu2 O25 1.973867 1_555
Cu2 O24 1.973867 1_555
Cu2 O3 1.984205 1_555
Cu2 O1 1.984205 1_555
Cu3 O29 1.973867 1_555
Cu3 O28 1.973867 1_555
Cu3 O11 1.984205 1_555
Cu3 O8 1.984205 1_555
Cu4 O29 1.973867 1_555
Cu4 O27 1.973867 1_555
Cu4 O6 1.984205 1_555
Cu4 O10 1.984205 1_555
Cu5 O28 1.973867 1_555
Cu5 O27 1.973867 1_555
Cu5 O9 1.984205 1_565
Cu5 O7 1.984205 1_565
Cu6 O31 1.973867 1_555
Cu6 O32 1.973867 1_555
Cu6 O17 1.984205 1_655
Cu6 O14 1.984205 1_655
Cu7 O30 1.973867 1_555
Cu7 O32 1.973867 1_555
Cu7 O16 1.984205 1_555
Cu7 O12 1.984205 1_555
Cu8 O30 1.973867 1_555
Cu8 O31 1.973867 1_555
Cu8 O13 1.984205 1_555
Cu8 O15 1.984205 1_555
Cu9 O35 1.973867 1_555
Cu9 O34 1.973867 1_555
Cu9 O20 1.984205 1_655
Cu9 O23 1.984205 1_655
Cu10 O35 1.973867 1_555
Cu10 O33 1.973867 1_555
Cu10 O22 1.984205 1_556
Cu10 O18 1.984205 1_556
Cu11 O33 1.973867 1_555
Cu11 O34 1.973867 1_555
Cu11 O21 1.984205 1_565
Cu11 O19 1.984205 1_565
Cu12 O38 1.973867 1_555
Cu12 O37 1.973867 1_555
Cu12 O11 1.984205 1_655
Cu12 O8 1.984205 1_655
Cu13 O36 1.973867 1_555
Cu13 O38 1.973867 1_555
Cu13 O22 1.984205 1_555
Cu13 O18 1.984205 1_555
Cu14 O36 1.973867 1_555
Cu14 O37 1.973867 1_555
Cu14 O13 1.984205 1_565
Cu14 O15 1.984205 1_565
Cu15 O40 1.973867 1_555
Cu15 O41 1.973867 1_555
Cu15 O2 1.984205 1_655
Cu15 O5 1.984205 1_655
Cu16 O39 1.973867 1_555
Cu16 O41 1.973867 1_555
Cu16 O16 1.984205 1_556
Cu16 O12 1.984205 1_556
Cu17 O39 1.973867 1_555
Cu17 O40 1.973867 1_555
Cu17 O21 1.984205 1_555
Cu17 O19 1.984205 1_555
Cu18 O43 1.973867 1_555
Cu18 O44 1.973867 1_555
Cu18 O20 1.984205 1_555
Cu18 O23 1.984205 1_555
Cu19 O44 1.973867 1_555
Cu19 O42 1.973867 1_555
Cu19 O6 1.984205 1_556
Cu19 O10 1.984205 1_556
Cu20 O43 1.973867 1_555
Cu20 O42 1.973867 1_555
Cu20 O3 1.984205 1_565
Cu20 O1 1.984205 1_565
Cu21 O46 1.973867 1_555
Cu21 O47 1.973867 1_555
Cu21 O17 1.984205 1_555
Cu21 O14 1.984205 1_555
Cu22 O47 1.973867 1_555
Cu22 O45 1.973867 1_555
Cu22 O0 1.984205 1_555
Cu22 O4 1.984205 1_555
Cu23 O46 1.973867 1_555
Cu23 O45 1.973867 1_555
Cu23 O9 1.984205 1_555
Cu23 O7 1.984205 1_555
Ag0 Cl5 2.699663 1_454
Ag0 Cl7 2.699663 1_555
Ag0 Cl2 2.699663 1_455
Ag0 Cl0 2.699663 1_554
Ag0 Cl32 2.747802 1_555
Ag1 Cl6 2.699663 1_544
Ag1 Cl7 2.699663 1_555
Ag1 Cl1 2.699663 1_545
Ag1 Cl0 2.699663 1_554
Ag1 Cl33 2.747802 1_555
Ag2 Cl6 2.699663 1_545
Ag2 Cl0 2.699663 1_555
Ag2 Cl5 2.699663 1_455
Ag2 Cl3 2.699663 1_445
Ag2 Cl34 2.747802 1_555
Ag3 Cl3 2.699663 1_454
Ag3 Cl4 2.699663 1_455
Ag3 Cl1 2.699663 1_555
Ag3 Cl6 2.699663 1_554
Ag3 Cl35 2.747802 1_555
Ag4 Cl7 2.699663 1_555
Ag4 Cl1 2.699663 1_545
Ag4 Cl2 2.699663 1_455
Ag4 Cl4 2.699663 1_445
Ag4 Cl36 2.747802 1_555
Ag5 Cl3 2.699663 1_544
Ag5 Cl5 2.699663 1_554
Ag5 Cl4 2.699663 1_545
Ag5 Cl2 2.699663 1_555
Ag5 Cl37 2.747802 1_555
Ag6 Cl32 2.598728 1_555
Ag6 Cl35 2.598728 1_555
Ag6 Cl44 2.909581 1_455
Ag6 Cl38 2.909581 1_554
Ag6 Cl47 2.909581 1_454
Ag6 Cl41 2.909581 1_555
Ag7 Cl37 2.598728 1_555
Ag7 Cl33 2.598728 1_555
Ag7 Cl42 2.909581 1_545
Ag7 Cl39 2.909581 1_554
Ag7 Cl48 2.909581 1_544
Ag7 Cl45 2.909581 1_555
Ag8 Cl36 2.598728 1_555
Ag8 Cl34 2.598728 1_555
Ag8 Cl49 2.909581 1_445
Ag8 Cl43 2.909581 1_545
Ag8 Cl46 2.909581 1_455
Ag8 Cl40 2.909581 1_555
H0 O0 0.988056 1_555
H1 O1 0.988056 1_555
H2 O2 0.988056 1_555
H3 O3 0.988056 1_555
H4 O4 0.988056 1_555
H5 O5 0.988056 1_555
H6 O6 0.988056 1_555
H7 O7 0.988056 1_555
H8 O8 0.988056 1_555
H9 O9 0.988056 1_555
H10 O10 0.988056 1_555
H11 O11 0.988056 1_555
H12 O12 0.988056 1_555
H13 O13 0.988056 1_555
H14 O14 0.988056 1_555
H15 O15 0.988056 1_555
H16 O16 0.988056 1_555
H17 O17 0.988056 1_555
H18 O18 0.988056 1_555
H19 O19 0.988056 1_555
H20 O20 0.988056 1_555
H21 O21 0.988056 1_555
H22 O22 0.988056 1_555
H23 O23 0.988056 1_555
H24 O24 0.990661 1_555
H25 O25 0.990661 1_555
H26 O26 0.990661 1_555
H27 O27 0.990661 1_555
H28 O28 0.990661 1_555
H29 O29 0.990661 1_555
H30 O30 0.990661 1_555
H31 O31 0.990661 1_555
H32 O32 0.990661 1_555
H33 O33 0.990661 1_555
H34 O34 0.990661 1_555
H35 O35 0.990661 1_555
H36 O36 0.990661 1_555
H37 O37 0.990661 1_555
H38 O38 0.990661 1_555
H39 O39 0.990661 1_555
H40 O40 0.990661 1_555
H41 O41 0.990661 1_555
H42 O42 0.990661 1_555
H43 O43 0.990661 1_555
H44 O44 0.990661 1_555
H45 O45 0.990661 1_555
H46 O46 0.990661 1_555
H47 O47 0.990661 1_555
Cl0 Cu1 2.992551 1_555
Cl0 Cu0 2.992551 1_555
Cl0 Cu2 2.992551 1_555
Cl1 Cu5 2.992551 1_555
Cl1 Cu3 2.992551 1_555
Cl1 Cu4 2.992551 1_555
Cl2 Cu6 2.992551 1_555
Cl2 Cu7 2.992551 1_555
Cl2 Cu8 2.992551 1_555
Cl3 Cu10 2.992551 1_555
Cl3 Cu9 2.992551 1_555
Cl3 Cu11 2.992551 1_555
Cl4 Cu12 2.992551 1_555
Cl4 Cu14 2.992551 1_555
Cl4 Cu13 2.992551 1_555
Cl5 Cu16 2.992551 1_555
Cl5 Cu15 2.992551 1_555
Cl5 Cu17 2.992551 1_555
Cl6 Cu19 2.992551 1_555
Cl6 Cu20 2.992551 1_555
Cl6 Cu18 2.992551 1_555
Cl7 Cu21 2.992551 1_555
Cl7 Cu22 2.992551 1_555
Cl7 Cu23 2.992551 1_555
Cl8 Cu0 2.870698 1_555
Cl8 Pb2 2.966106 1_555
Cl8 Pb17 3.098242 1_555
Cl8 Pb14 3.098242 1_555
Cl9 Cu1 2.870698 1_555
Cl9 Pb0 2.966106 1_555
Cl9 Pb19 3.098242 1_556
Cl9 Pb15 3.098242 1_556
Cl10 Cu2 2.870698 1_555
Cl10 Pb1 2.966106 1_555
Cl10 Pb18 3.098242 1_555
Cl10 Pb16 3.098242 1_555
Cl11 Cu3 2.870698 1_555
Cl11 Pb2 2.966106 1_555
Cl11 Pb22 3.098242 1_555
Cl11 Pb20 3.098242 1_555
Cl12 Cu4 2.870698 1_555
Cl12 Pb3 2.966106 1_555
Cl12 Pb21 3.098242 1_555
Cl12 Pb19 3.098242 1_555
Cl13 Cu5 2.870698 1_555
Cl13 Pb4 2.966106 1_555
Cl13 Pb16 3.098242 1_565
Cl13 Pb23 3.098242 1_565
Cl14 Cu6 2.870698 1_555
Cl14 Pb5 2.966106 1_555
Cl14 Pb17 3.098242 1_655
Cl14 Pb20 3.098242 1_655
Cl15 Cu7 2.870698 1_555
Cl15 Pb3 2.966106 1_555
Cl15 Pb25 3.098242 1_555
Cl15 Pb15 3.098242 1_555
Cl16 Cu8 2.870698 1_555
Cl16 Pb1 2.966106 1_555
Cl16 Pb23 3.098242 1_555
Cl16 Pb24 3.098242 1_555
Cl17 Cu9 2.870698 1_555
Cl17 Pb5 2.966106 1_555
Cl17 Pb22 3.098242 1_655
Cl17 Pb14 3.098242 1_655
Cl18 Cu10 2.870698 1_555
Cl18 Pb0 2.966106 1_555
Cl18 Pb25 3.098242 1_556
Cl18 Pb21 3.098242 1_556
Cl19 Cu11 2.870698 1_555
Cl19 Pb4 2.966106 1_555
Cl19 Pb18 3.098242 1_565
Cl19 Pb24 3.098242 1_565
Cl20 Cu12 2.870698 1_555
Cl20 Pb5 2.966106 1_555
Cl20 Pb22 3.098242 1_655
Cl20 Pb20 3.098242 1_655
Cl21 Cu13 2.870698 1_555
Cl21 Pb3 2.966106 1_555
Cl21 Pb21 3.098242 1_555
Cl21 Pb25 3.098242 1_555
Cl22 Cu14 2.870698 1_555
Cl22 Pb4 2.966106 1_555
Cl22 Pb23 3.098242 1_565
Cl22 Pb24 3.098242 1_565
Cl23 Cu15 2.870698 1_555
Cl23 Pb5 2.966106 1_555
Cl23 Pb14 3.098242 1_655
Cl23 Pb17 3.098242 1_655
Cl24 Cu16 2.870698 1_555
Cl24 Pb0 2.966106 1_555
Cl24 Pb15 3.098242 1_556
Cl24 Pb25 3.098242 1_556
Cl25 Cu17 2.870698 1_555
Cl25 Pb1 2.966106 1_555
Cl25 Pb18 3.098242 1_555
Cl25 Pb24 3.098242 1_555
Cl26 Cu18 2.870698 1_555
Cl26 Pb2 2.966106 1_555
Cl26 Pb22 3.098242 1_555
Cl26 Pb14 3.098242 1_555
Cl27 Cu19 2.870698 1_555
Cl27 Pb0 2.966106 1_555
Cl27 Pb19 3.098242 1_556
Cl27 Pb21 3.098242 1_556
Cl28 Cu20 2.870698 1_555
Cl28 Pb4 2.966106 1_555
Cl28 Pb16 3.098242 1_565
Cl28 Pb18 3.098242 1_565
Cl29 Cu21 2.870698 1_555
Cl29 Pb2 2.966106 1_555
Cl29 Pb20 3.098242 1_555
Cl29 Pb17 3.098242 1_555
Cl30 Cu22 2.870698 1_555
Cl30 Pb3 2.966106 1_555
Cl30 Pb19 3.098242 1_555
Cl30 Pb15 3.098242 1_555
Cl31 Cu23 2.870698 1_555
Cl31 Pb1 2.966106 1_555
Cl31 Pb23 3.098242 1_555
Cl31 Pb16 3.098242 1_555
Cl38 Pb14 3.016460 1_555
Cl38 Pb19 3.016460 1_556
Cl39 Pb18 3.016460 1_555
Cl39 Pb15 3.016460 1_556
Cl40 Pb16 3.016460 1_555
Cl40 Pb17 3.016460 1_555
Cl41 Pb19 3.016460 1_555
Cl41 Pb20 3.016460 1_555
Cl42 Pb23 3.016460 1_565
Cl42 Pb21 3.016460 1_555
Cl43 Pb16 3.016460 1_565
Cl43 Pb22 3.016460 1_555
Cl44 Pb20 3.016460 1_655
Cl44 Pb25 3.016460 1_555
Cl45 Pb23 3.016460 1_555
Cl45 Pb15 3.016460 1_555
Cl46 Pb17 3.016460 1_655
Cl46 Pb24 3.016460 1_555
Cl47 Pb14 3.016460 1_655
Cl47 Pb25 3.016460 1_556
Cl48 Pb21 3.016460 1_556
Cl48 Pb18 3.016460 1_565
Cl49 Pb22 3.016460 1_655
Cl49 Pb24 3.016460 1_565
Cl50 Pb0 3.097316 1_555
Cl50 Pb2 3.097316 1_555
Cl50 Pb12 3.100075 1_555
Cl50 Pb6 3.100075 1_555
Cl50 K0 3.687448 1_555
Cl51 Pb1 3.097316 1_555
Cl51 Pb0 3.097316 1_555
Cl51 Pb11 3.100075 1_555
Cl51 Pb6 3.100075 1_555
Cl51 K0 3.687448 1_555
Cl52 Pb1 3.097316 1_555
Cl52 Pb2 3.097316 1_555
Cl52 Pb6 3.100075 1_555
Cl52 Pb13 3.100075 1_555
Cl52 K0 3.687448 1_555
Cl53 Pb3 3.097316 1_555
Cl53 Pb2 3.097316 1_555
Cl53 Pb7 3.100075 1_555
Cl53 Pb13 3.100075 1_555
Cl53 K0 3.687448 1_555
Cl54 Pb4 3.097316 1_555
Cl54 Pb3 3.097316 1_555
Cl54 Pb7 3.100075 1_555
Cl54 Pb10 3.100075 1_555
Cl54 K0 3.687448 1_555
Cl55 Pb4 3.097316 1_555
Cl55 Pb2 3.097316 1_555
Cl55 Pb12 3.100075 1_555
Cl55 Pb7 3.100075 1_555
Cl55 K0 3.687448 1_555
Cl56 Pb5 3.097316 1_555
Cl56 Pb3 3.097316 1_555
Cl56 Pb8 3.100075 1_555
Cl56 Pb10 3.100075 1_555
Cl56 K0 3.687448 1_555
Cl57 Pb1 3.097316 1_555
Cl57 Pb3 3.097316 1_555
Cl57 Pb8 3.100075 1_555
Cl57 Pb13 3.100075 1_555
Cl57 K0 3.687448 1_555
Cl58 Pb1 3.097316 1_555
Cl58 Pb5 3.097316 1_555
Cl58 Pb11 3.100075 1_555
Cl58 Pb8 3.100075 1_555
Cl58 K0 3.687448 1_555
Cl59 Pb5 3.097316 1_555
Cl59 Pb0 3.097316 1_555
Cl59 Pb11 3.100075 1_555
Cl59 Pb9 3.100075 1_555
Cl59 K0 3.687448 1_555
Cl60 Pb4 3.097316 1_555
Cl60 Pb0 3.097316 1_555
Cl60 Pb12 3.100075 1_555
Cl60 Pb9 3.100075 1_555
Cl60 K0 3.687448 1_555
Cl61 Pb4 3.097316 1_555
Cl61 Pb5 3.097316 1_555
Cl61 Pb9 3.100075 1_555
Cl61 Pb10 3.100075 1_555
Cl61 K0 3.687448 1_555
O0 Pb19 2.799544 1_555
O1 Pb18 2.799544 1_555
O2 Pb17 2.799544 1_555
O3 Pb16 2.799544 1_555
O4 Pb15 2.799544 1_555
O5 Pb14 2.799544 1_555
O6 Pb19 2.799544 1_555
O7 Pb23 2.799544 1_555
O8 Pb22 2.799544 1_555
O9 Pb16 2.799544 1_555
O10 Pb21 2.799544 1_555
O11 Pb20 2.799544 1_555
O12 Pb25 2.799544 1_555
O13 Pb23 2.799544 1_555
O14 Pb17 2.799544 1_555
O15 Pb24 2.799544 1_555
O16 Pb15 2.799544 1_555
O17 Pb20 2.799544 1_555
O18 Pb25 2.799544 1_555
O19 Pb18 2.799544 1_555
O20 Pb22 2.799544 1_555
O21 Pb24 2.799544 1_555
O22 Pb21 2.799544 1_555
O23 Pb14 2.799544 1_555
O24 Pb6 2.579153 1_555
O25 Pb6 2.579153 1_555
O26 Pb6 2.579153 1_555
O27 Pb7 2.579153 1_555
O28 Pb7 2.579153 1_555
O29 Pb7 2.579153 1_555
O30 Pb8 2.579153 1_555
O31 Pb8 2.579153 1_555
O32 Pb8 2.579153 1_555
O33 Pb9 2.579153 1_555
O34 Pb9 2.579153 1_555
O35 Pb9 2.579153 1_555
O36 Pb10 2.579153 1_555
O37 Pb10 2.579153 1_555
O38 Pb10 2.579153 1_555
O39 Pb11 2.579153 1_555
O40 Pb11 2.579153 1_555
O41 Pb11 2.579153 1_555
O42 Pb12 2.579153 1_555
O43 Pb12 2.579153 1_555
O44 Pb12 2.579153 1_555
O45 Pb13 2.579153 1_555
O46 Pb13 2.579153 1_555
O47 Pb13 2.579153 1_555
