# generated using pymatgen
data_Ca2AlFeO5
_symmetry_space_group_name_H-M   'P 1'
_cell_length_a   5.43698800
_cell_length_b   5.68636800
_cell_length_c   8.23714271
_cell_angle_alpha   110.19194713
_cell_angle_beta   109.27052116
_cell_angle_gamma   90.00000000
_symmetry_Int_Tables_number   1
_chemical_formula_structural   Ca2AlFeO5
_chemical_formula_sum   'Ca4 Al2 Fe2 O10'
_cell_volume   223.74948834
_cell_formula_units_Z   2
loop_
 _symmetry_equiv_pos_site_id
 _symmetry_equiv_pos_as_xyz
  1  'x, y, z'
loop_
 _atom_site_type_symbol
 _atom_site_label
 _atom_site_symmetry_multiplicity
 _atom_site_fract_x
 _atom_site_fract_y
 _atom_site_fract_z
 _atom_site_occupancy
  Ca  Ca0  1  0.88175800  0.85869700  0.78014800  1
  Ca  Ca1  1  0.60161000  0.57854900  0.21985200  1
  Ca  Ca2  1  0.10161000  0.14130300  0.21985200  1
  Ca  Ca3  1  0.38175800  0.42145100  0.78014800  1
  Al  Al0  1  0.71236900  0.17266200  0.50000000  1
  Al  Al1  1  0.21236900  0.82733800  0.49999900  1
  Fe  Fe0  1  0.50352100  0.00000000  0.00000000  1
  Fe  Fe1  1  0.00352100  0.50000000  0.00000000  1
  O  O0  1  0.38315800  0.10302700  0.50000000  1
  O  O1  1  0.88315800  0.89697300  0.50000000  1
  O  O2  1  0.38720500  0.78254600  0.70603800  1
  O  O3  1  0.68116700  0.21745400  0.29396200  1
  O  O4  1  0.88720500  0.42349200  0.70603800  1
  O  O5  1  0.18116700  0.57650800  0.29396200  1
  O  O6  1  0.76644700  0.76087200  0.02801800  1
  O  O7  1  0.73842900  0.23912800  0.97198200  1
  O  O8  1  0.23842900  0.23285400  0.97198200  1
  O  O9  1  0.26644700  0.76714600  0.02801800  1
loop_
_geom_bond_atom_site_label_1
_geom_bond_atom_site_label_2
_geom_bond_distance
_geom_bond_site_symmetry_2
Ca0 O4 2.338138 1_555
Ca0 O1 2.393920 1_555
Ca0 O7 2.497387 1_565
Ca0 O8 2.537848 1_665
Ca0 O6 2.549541 1_556
Ca0 O2 2.554272 1_555
Ca0 O9 2.594100 1_656
Ca0 O2 3.006176 1_655
Ca1 O3 2.338138 1_555
Ca1 O1 2.393920 1_555
Ca1 O9 2.497387 1_555
Ca1 O6 2.537848 1_555
Ca1 O8 2.549541 1_554
Ca1 O5 2.554272 1_555
Ca1 O7 2.594100 1_554
Ca1 O5 3.006176 1_655
Ca2 O5 2.338138 1_555
Ca2 O0 2.393920 1_555
Ca2 O6 2.497387 1_445
Ca2 O9 2.537848 1_545
Ca2 O7 2.549541 1_454
Ca2 O3 2.554272 1_455
Ca2 O8 2.594100 1_554
Ca2 O3 3.006176 1_555
Ca3 O2 2.338138 1_555
Ca3 O0 2.393920 1_555
Ca3 O8 2.497387 1_555
Ca3 O7 2.537848 1_555
Ca3 O9 2.549541 1_556
Ca3 O4 2.554272 1_455
Ca3 O6 2.594100 1_556
Ca3 O4 3.006176 1_555
Al0 O4 1.755674 1_555
Al0 O3 1.755674 1_555
Al0 O1 1.822044 1_545
Al0 O0 1.833192 1_555
Al1 O5 1.755669 1_555
Al1 O2 1.755681 1_555
Al1 O0 1.822040 1_565
Al1 O1 1.833194 1_455
Fe0 O9 1.968562 1_545
Fe0 O8 1.968562 1_554
Fe0 O6 1.986116 1_545
Fe0 O7 1.986116 1_554
Fe0 O3 2.171276 1_555
Fe0 O2 2.171276 1_544
Fe1 O6 1.968562 1_455
Fe1 O7 1.968562 1_454
Fe1 O9 1.986116 1_555
Fe1 O8 1.986116 1_554
Fe1 O5 2.171276 1_555
Fe1 O4 2.171276 1_454
