# generated using pymatgen
data_Zr2TiSnO8
_symmetry_space_group_name_H-M   'P 1'
_cell_length_a   5.76084800
_cell_length_b   4.89521800
_cell_length_c   5.19664941
_cell_angle_alpha   89.16912051
_cell_angle_beta   90.00000000
_cell_angle_gamma   90.00000000
_symmetry_Int_Tables_number   1
_chemical_formula_structural   Zr2TiSnO8
_chemical_formula_sum   'Zr2 Ti1 Sn1 O8'
_cell_volume   146.53325772
_cell_formula_units_Z   1
loop_
 _symmetry_equiv_pos_site_id
 _symmetry_equiv_pos_as_xyz
  1  'x, y, z'
loop_
 _atom_site_type_symbol
 _atom_site_label
 _atom_site_symmetry_multiplicity
 _atom_site_fract_x
 _atom_site_fract_y
 _atom_site_fract_z
 _atom_site_occupancy
  Zr  Zr0  1  0.17570900  0.00000000  0.00000000  1
  Zr  Zr1  1  0.30318500  0.50000000  0.50000000  1
  Ti  Ti0  1  0.81526800  0.00000000  0.50000000  1
  Sn  Sn0  1  0.68216900  0.50000000  0.00000000  1
  O  O0  1  0.40062400  0.71640700  0.16891900  1
  O  O1  1  0.09846200  0.78068000  0.67177600  1
  O  O2  1  0.09846200  0.21932000  0.32822400  1
  O  O3  1  0.40062400  0.28359300  0.83108100  1
  O  O4  1  0.61852700  0.25333900  0.33366000  1
  O  O5  1  0.89422100  0.22966500  0.80961600  1
  O  O6  1  0.89422100  0.77033500  0.19038400  1
  O  O7  1  0.61852700  0.74666100  0.66634000  1
loop_
_geom_bond_atom_site_label_1
_geom_bond_atom_site_label_2
_geom_bond_distance
_geom_bond_site_symmetry_2
O0 Zr0 2.083576 1_565
O0 Zr1 2.084379 1_555
O0 Sn0 2.133178 1_555
O1 Zr1 2.027608 1_555
O1 Zr0 2.076799 1_566
O1 Ti0 2.140863 1_465
O2 Zr1 2.027608 1_555
O2 Zr0 2.076799 1_555
O2 Ti0 2.140863 1_455
O3 Zr0 2.083576 1_556
O3 Zr1 2.084379 1_555
O3 Sn0 2.133178 1_556
O4 Ti0 1.881136 1_555
O4 Sn0 2.130285 1_555
O4 Zr1 2.352787 1_555
O5 Ti0 2.027824 1_555
O5 Sn0 2.064064 1_556
O5 Zr0 2.200034 1_656
O6 Ti0 2.027824 1_565
O6 Sn0 2.064064 1_555
O6 Zr0 2.200034 1_665
O7 Ti0 1.881136 1_565
O7 Sn0 2.130285 1_556
O7 Zr1 2.352787 1_555
