# generated using pymatgen
data_Mn(NbS2)2
_symmetry_space_group_name_H-M   'P 1'
_cell_length_a   3.36084800
_cell_length_b   10.90681600
_cell_length_c   13.12111200
_cell_angle_alpha   90.00000000
_cell_angle_beta   90.00000000
_cell_angle_gamma   90.00000000
_symmetry_Int_Tables_number   1
_chemical_formula_structural   Mn(NbS2)2
_chemical_formula_sum   'Mn4 Nb8 S16'
_cell_volume   480.96945935
_cell_formula_units_Z   4
loop_
 _symmetry_equiv_pos_site_id
 _symmetry_equiv_pos_as_xyz
  1  'x, y, z'
loop_
 _atom_site_type_symbol
 _atom_site_label
 _atom_site_symmetry_multiplicity
 _atom_site_fract_x
 _atom_site_fract_y
 _atom_site_fract_z
 _atom_site_occupancy
  Mn  Mn0  1  0.25000000  0.25219500  0.33912600  1
  Mn  Mn1  1  0.25000000  0.75219500  0.16087400  1
  Mn  Mn2  1  0.75000000  0.74780500  0.66087400  1
  Mn  Mn3  1  0.75000000  0.24780500  0.83912600  1
  Nb  Nb0  1  0.25000000  0.04166200  0.58313300  1
  Nb  Nb1  1  0.25000000  0.54166200  0.91686700  1
  Nb  Nb2  1  0.75000000  0.95833800  0.41686700  1
  Nb  Nb3  1  0.75000000  0.45833800  0.08313300  1
  Nb  Nb4  1  0.25000000  0.11436700  0.10193300  1
  Nb  Nb5  1  0.25000000  0.61436700  0.39806700  1
  Nb  Nb6  1  0.75000000  0.88563300  0.89806700  1
  Nb  Nb7  1  0.75000000  0.38563300  0.60193300  1
  S  S0  1  0.25000000  0.32529400  0.99192200  1
  S  S1  1  0.25000000  0.82529400  0.50807800  1
  S  S2  1  0.75000000  0.67470600  0.00807800  1
  S  S3  1  0.75000000  0.17470600  0.49192200  1
  S  S4  1  0.25000000  0.24375500  0.68967800  1
  S  S5  1  0.25000000  0.74375500  0.81032200  1
  S  S6  1  0.75000000  0.75624500  0.31032200  1
  S  S7  1  0.75000000  0.25624500  0.18967800  1
  S  S8  1  0.25000000  0.06108500  0.91296300  1
  S  S9  1  0.25000000  0.56108500  0.58703700  1
  S  S10  1  0.75000000  0.93891500  0.08703700  1
  S  S11  1  0.75000000  0.43891500  0.41296300  1
  S  S12  1  0.25000000  0.03219800  0.28860200  1
  S  S13  1  0.25000000  0.53219800  0.21139800  1
  S  S14  1  0.75000000  0.96780200  0.71139800  1
  S  S15  1  0.75000000  0.46780200  0.78860200  1
loop_
_geom_bond_atom_site_label_1
_geom_bond_atom_site_label_2
_geom_bond_distance
_geom_bond_site_symmetry_2
Mn0 S12 2.489361 1_555
Mn0 S7 2.582828 1_455
Mn0 S7 2.582828 1_555
Mn0 S3 2.749101 1_455
Mn0 S3 2.749101 1_555
Mn0 S11 2.812447 1_555
Mn0 S11 2.812447 1_455
Mn1 S13 2.489361 1_555
Mn1 S6 2.582828 1_455
Mn1 S6 2.582828 1_555
Mn1 S2 2.749101 1_455
Mn1 S2 2.749101 1_555
Mn1 S10 2.812447 1_555
Mn1 S10 2.812447 1_455
Mn2 S14 2.489361 1_555
Mn2 S5 2.582828 1_555
Mn2 S5 2.582828 1_655
Mn2 S1 2.749101 1_655
Mn2 S1 2.749101 1_555
Mn2 S9 2.812447 1_555
Mn2 S9 2.812447 1_655
Mn3 S15 2.489361 1_555
Mn3 S4 2.582828 1_555
Mn3 S4 2.582828 1_655
Mn3 S0 2.749101 1_655
Mn3 S0 2.749101 1_555
Mn3 S8 2.812447 1_555
Mn3 S8 2.812447 1_655
Nb0 S14 2.511016 1_545
Nb0 S14 2.511016 1_445
Nb0 S3 2.522257 1_455
Nb0 S3 2.522257 1_555
Nb0 S1 2.557128 1_545
Nb0 S4 2.610140 1_555
Nb1 S15 2.511016 1_455
Nb1 S15 2.511016 1_555
Nb1 S2 2.522257 1_556
Nb1 S2 2.522257 1_456
Nb1 S0 2.557128 1_555
Nb1 S5 2.610140 1_555
Nb2 S12 2.511016 1_565
Nb2 S12 2.511016 1_665
Nb2 S1 2.522257 1_555
Nb2 S1 2.522257 1_655
Nb2 S3 2.557128 1_565
Nb2 S6 2.610140 1_555
Nb3 S13 2.511016 1_555
Nb3 S13 2.511016 1_655
Nb3 S0 2.522257 1_554
Nb3 S0 2.522257 1_654
Nb3 S2 2.557128 1_555
Nb3 S7 2.610140 1_555
Nb4 S8 2.546689 1_554
Nb4 S10 2.554208 1_545
Nb4 S10 2.554208 1_445
Nb4 S7 2.558106 1_455
Nb4 S7 2.558106 1_555
Nb4 S12 2.608117 1_555
Nb4 S0 2.715896 1_554
Nb5 S9 2.546689 1_555
Nb5 S11 2.554208 1_555
Nb5 S11 2.554208 1_455
Nb5 S6 2.558106 1_555
Nb5 S6 2.558106 1_455
Nb5 S13 2.608117 1_555
Nb5 S1 2.715896 1_555
Nb6 S10 2.546689 1_556
Nb6 S8 2.554208 1_565
Nb6 S8 2.554208 1_665
Nb6 S5 2.558106 1_655
Nb6 S5 2.558106 1_555
Nb6 S14 2.608117 1_555
Nb6 S2 2.715896 1_556
Nb7 S11 2.546689 1_555
Nb7 S9 2.554208 1_655
Nb7 S9 2.554208 1_555
Nb7 S4 2.558106 1_555
Nb7 S4 2.558106 1_655
Nb7 S15 2.608117 1_555
Nb7 S3 2.715896 1_555
