# generated using pymatgen
data_MnSb3XeF23
_symmetry_space_group_name_H-M   'P 1'
_cell_length_a   10.83821500
_cell_length_b   11.35735400
_cell_length_c   19.57109969
_cell_angle_alpha   54.65795601
_cell_angle_beta   90.00000000
_cell_angle_gamma   90.00000000
_symmetry_Int_Tables_number   1
_chemical_formula_structural   MnSb3XeF23
_chemical_formula_sum   'Mn4 Sb12 Xe4 F92'
_cell_volume   1965.11384676
_cell_formula_units_Z   4
loop_
 _symmetry_equiv_pos_site_id
 _symmetry_equiv_pos_as_xyz
  1  'x, y, z'
loop_
 _atom_site_type_symbol
 _atom_site_label
 _atom_site_symmetry_multiplicity
 _atom_site_fract_x
 _atom_site_fract_y
 _atom_site_fract_z
 _atom_site_occupancy
  Mn  Mn0  1  0.50000000  0.50000000  0.50000000  1
  Mn  Mn1  1  0.00000000  0.50000000  0.00000000  1
  Mn  Mn2  1  0.00000000  0.00000000  0.50000000  1
  Mn  Mn3  1  0.50000000  0.00000000  0.00000000  1
  Sb  Sb0  1  0.70480500  0.21125600  0.49377600  1
  Sb  Sb1  1  0.79519500  0.21125600  0.99377600  1
  Sb  Sb2  1  0.29519500  0.78874400  0.50622400  1
  Sb  Sb3  1  0.20480500  0.78874400  0.00622400  1
  Sb  Sb4  1  0.80033100  0.68522100  0.51603400  1
  Sb  Sb5  1  0.69966900  0.68522100  0.01603400  1
  Sb  Sb6  1  0.19966900  0.31477900  0.48396600  1
  Sb  Sb7  1  0.30033100  0.31477900  0.98396600  1
  Sb  Sb8  1  0.99813600  0.21363900  0.24578600  1
  Sb  Sb9  1  0.50186400  0.21363900  0.74578600  1
  Sb  Sb10  1  0.00186400  0.78636100  0.75421400  1
  Sb  Sb11  1  0.49813600  0.78636100  0.25421400  1
  Xe  Xe0  1  0.94830200  0.79928100  0.24440300  1
  Xe  Xe1  1  0.55169800  0.79928100  0.74440300  1
  Xe  Xe2  1  0.05169800  0.20071900  0.75559700  1
  Xe  Xe3  1  0.44830200  0.20071900  0.25559700  1
  F  F0  1  0.05814800  0.66386000  0.24361700  1
  F  F1  1  0.44185200  0.66386000  0.74361700  1
  F  F2  1  0.94185200  0.33614000  0.75638300  1
  F  F3  1  0.55814800  0.33614000  0.25638300  1
  F  F4  1  0.05588900  0.75365700  0.33712300  1
  F  F5  1  0.44411100  0.75365700  0.83712300  1
  F  F6  1  0.94411100  0.24634300  0.66287700  1
  F  F7  1  0.55588900  0.24634300  0.16287700  1
  F  F8  1  0.87220700  0.80471200  0.15180500  1
  F  F9  1  0.62779300  0.80471200  0.65180500  1
  F  F10  1  0.12779300  0.19528800  0.84819500  1
  F  F11  1  0.37220700  0.19528800  0.34819500  1
  F  F12  1  0.07393700  0.93706100  0.16784300  1
  F  F13  1  0.42606300  0.93706100  0.66784300  1
  F  F14  1  0.92606300  0.06293900  0.83215700  1
  F  F15  1  0.57393700  0.06293900  0.33215700  1
  F  F16  1  0.85597300  0.62023400  0.32131500  1
  F  F17  1  0.64402700  0.62023400  0.82131500  1
  F  F18  1  0.14402700  0.37976600  0.67868500  1
  F  F19  1  0.35597300  0.37976600  0.17868500  1
  F  F20  1  0.59006200  0.36439700  0.47182400  1
  F  F21  1  0.90993800  0.36439700  0.97182400  1
  F  F22  1  0.40993800  0.63560300  0.52817600  1
  F  F23  1  0.09006200  0.63560300  0.02817600  1
  F  F24  1  0.64619100  0.08817700  0.60747200  1
  F  F25  1  0.85380900  0.08817700  0.10747200  1
  F  F26  1  0.35380900  0.91182300  0.39252800  1
  F  F27  1  0.14619100  0.91182300  0.89252800  1
  F  F28  1  0.58320200  0.13500700  0.46063000  1
  F  F29  1  0.91679800  0.13500700  0.96063000  1
  F  F30  1  0.41679800  0.86499300  0.53937000  1
  F  F31  1  0.08320200  0.86499300  0.03937000  1
  F  F32  1  0.82123400  0.05752000  0.51790500  1
  F  F33  1  0.67876600  0.05752000  0.01790500  1
  F  F34  1  0.17876600  0.94248000  0.48209500  1
  F  F35  1  0.32123400  0.94248000  0.98209500  1
  F  F36  1  0.76763600  0.32876500  0.38294100  1
  F  F37  1  0.73236400  0.32876500  0.88294100  1
  F  F38  1  0.23236400  0.67123500  0.61705900  1
  F  F39  1  0.26763600  0.67123500  0.11705900  1
  F  F40  1  0.82404900  0.28480600  0.53064400  1
  F  F41  1  0.67595100  0.28480600  0.03064400  1
  F  F42  1  0.17595100  0.71519400  0.46935600  1
  F  F43  1  0.32404900  0.71519400  0.96935600  1
  F  F44  1  0.67509400  0.54838600  0.52734600  1
  F  F45  1  0.82490600  0.54838600  0.02734600  1
  F  F46  1  0.32490600  0.45161400  0.47265400  1
  F  F47  1  0.17509400  0.45161400  0.97265400  1
  F  F48  1  0.92727100  0.55030300  0.54471800  1
  F  F49  1  0.57272900  0.55030300  0.04471800  1
  F  F50  1  0.07272900  0.44969700  0.45528200  1
  F  F51  1  0.42727100  0.44969700  0.95528200  1
  F  F52  1  0.82078900  0.76028700  0.40016000  1
  F  F53  1  0.67921100  0.76028700  0.90016000  1
  F  F54  1  0.17921100  0.23971300  0.59984000  1
  F  F55  1  0.32078900  0.23971300  0.09984000  1
  F  F56  1  0.92264700  0.82573700  0.50317300  1
  F  F57  1  0.57735300  0.82573700  0.00317300  1
  F  F58  1  0.07735300  0.17426300  0.49682700  1
  F  F59  1  0.42264700  0.17426300  0.99682700  1
  F  F60  1  0.67381000  0.82331800  0.48368400  1
  F  F61  1  0.82619000  0.82331800  0.98368400  1
  F  F62  1  0.32619000  0.17668200  0.51631600  1
  F  F63  1  0.17381000  0.17668200  0.01631600  1
  F  F64  1  0.77983800  0.61353300  0.63005500  1
  F  F65  1  0.72016200  0.61353300  0.13005500  1
  F  F66  1  0.22016200  0.38646700  0.36994500  1
  F  F67  1  0.27983800  0.38646700  0.86994500  1
  F  F68  1  0.97719700  0.12311700  0.36580000  1
  F  F69  1  0.52280300  0.12311700  0.86580000  1
  F  F70  1  0.02280300  0.87688300  0.63420000  1
  F  F71  1  0.47719700  0.87688300  0.13420000  1
  F  F72  1  0.96479100  0.03085700  0.26376200  1
  F  F73  1  0.53520900  0.03085700  0.76376200  1
  F  F74  1  0.03520900  0.96914300  0.73623800  1
  F  F75  1  0.46479100  0.96914300  0.23623800  1
  F  F76  1  0.16879200  0.15899300  0.26481500  1
  F  F77  1  0.33120800  0.15899300  0.76481500  1
  F  F78  1  0.83120800  0.84100700  0.73518500  1
  F  F79  1  0.66879200  0.84100700  0.23518500  1
  F  F80  1  0.02172300  0.30541500  0.12549500  1
  F  F81  1  0.47827700  0.30541500  0.62549500  1
  F  F82  1  0.97827700  0.69458500  0.87450500  1
  F  F83  1  0.52172300  0.69458500  0.37450500  1
  F  F84  1  0.03631800  0.39180900  0.22792300  1
  F  F85  1  0.46368200  0.39180900  0.72792300  1
  F  F86  1  0.96368200  0.60819100  0.77207700  1
  F  F87  1  0.53631800  0.60819100  0.27207700  1
  F  F88  1  0.82752700  0.25575800  0.22739700  1
  F  F89  1  0.67247300  0.25575800  0.72739700  1
  F  F90  1  0.17247300  0.74424200  0.77260300  1
  F  F91  1  0.32752700  0.74424200  0.27260300  1
loop_
_geom_bond_atom_site_label_1
_geom_bond_atom_site_label_2
_geom_bond_distance
_geom_bond_site_symmetry_2
F0 Xe0 1.952050 1_455
F1 Xe1 1.952050 1_555
F2 Xe2 1.952050 1_655
F3 Xe3 1.952050 1_555
F4 Xe0 1.957865 1_455
F5 Xe1 1.957865 1_555
F6 Xe2 1.957865 1_655
F7 Xe3 1.957865 1_555
F8 Xe0 1.959311 1_555
F9 Xe1 1.959311 1_555
F10 Xe2 1.959311 1_555
F11 Xe3 1.959311 1_555
F12 Xe0 1.958389 1_455
F13 Xe1 1.958389 1_555
F14 Xe2 1.958389 1_655
F15 Xe3 1.958389 1_555
F16 Xe0 1.964953 1_555
F17 Xe1 1.964953 1_555
F18 Xe2 1.964953 1_555
F19 Xe3 1.964953 1_555
F20 Sb0 1.972749 1_555
F20 Mn0 2.147388 1_555
F21 Sb1 1.972749 1_555
F21 Mn1 2.147388 1_656
F22 Sb2 1.972749 1_555
F22 Mn0 2.147388 1_555
F23 Sb3 1.972749 1_555
F23 Mn1 2.147388 1_555
F24 Sb0 1.926233 1_555
F25 Sb1 1.926233 1_554
F26 Sb2 1.926233 1_555
F27 Sb3 1.926233 1_556
F28 Sb0 1.886182 1_555
F29 Sb1 1.886182 1_555
F30 Sb2 1.886182 1_555
F31 Sb3 1.886182 1_555
F32 Sb0 1.977391 1_555
F32 Mn2 2.137365 1_655
F33 Sb1 1.977391 1_554
F33 Mn3 2.137365 1_555
F34 Sb2 1.977391 1_555
F34 Mn2 2.137365 1_565
F35 Sb3 1.977391 1_556
F35 Mn3 2.137365 1_566
F36 Sb0 1.897612 1_555
F37 Sb1 1.897612 1_555
F38 Sb2 1.897612 1_555
F39 Sb3 1.897612 1_555
F40 Sb0 1.893673 1_555
F41 Sb1 1.893673 1_554
F42 Sb2 1.893673 1_555
F43 Sb3 1.893673 1_556
F44 Sb4 1.977001 1_555
F44 Mn0 2.128372 1_555
F45 Sb5 1.977001 1_555
F45 Mn1 2.128372 1_655
F46 Sb6 1.977001 1_555
F46 Mn0 2.128372 1_555
F47 Sb7 1.977001 1_555
F47 Mn1 2.128372 1_556
F48 Sb4 1.887002 1_555
F49 Sb5 1.887002 1_555
F50 Sb6 1.887002 1_555
F51 Sb7 1.887002 1_555
F52 Sb4 1.918871 1_555
F53 Sb5 1.918871 1_556
F54 Sb6 1.918871 1_555
F55 Sb7 1.918871 1_554
F56 Sb4 1.975587 1_555
F56 Mn2 2.116986 1_665
F57 Sb5 1.975587 1_555
F57 Mn3 2.116986 1_565
F58 Sb6 1.975587 1_555
F58 Mn2 2.116986 1_555
F59 Sb7 1.975587 1_555
F59 Mn3 2.116986 1_556
F60 Sb4 1.895341 1_555
F61 Sb5 1.895341 1_556
F62 Sb6 1.895341 1_555
F63 Sb7 1.895341 1_554
F64 Sb4 1.894713 1_555
F65 Sb5 1.894713 1_555
F66 Sb6 1.894713 1_555
F67 Sb7 1.894713 1_555
F68 Sb8 1.957464 1_555
F68 Mn2 2.160023 1_655
F69 Sb9 1.957464 1_555
F69 Mn3 2.160023 1_556
F70 Sb10 1.957464 1_555
F70 Mn2 2.160023 1_565
F71 Sb11 1.957464 1_555
F71 Mn3 2.160023 1_565
F72 Sb8 1.928444 1_555
F73 Sb9 1.928444 1_555
F74 Sb10 1.928444 1_555
F75 Sb11 1.928444 1_555
F76 Sb8 1.917687 1_455
F77 Sb9 1.917687 1_555
F78 Sb10 1.917687 1_655
F79 Sb11 1.917687 1_555
F80 Sb8 1.963482 1_455
F80 Mn1 2.166138 1_555
F81 Sb9 1.963482 1_555
F81 Mn0 2.166138 1_555
F82 Sb10 1.963482 1_655
F82 Mn1 2.166138 1_656
F83 Sb11 1.963482 1_555
F83 Mn0 2.166138 1_555
F84 Sb8 1.889379 1_455
F85 Sb9 1.889379 1_555
F86 Sb10 1.889379 1_655
F87 Sb11 1.889379 1_555
F88 Sb8 1.891650 1_555
F89 Sb9 1.891650 1_555
F90 Sb10 1.891650 1_555
F91 Sb11 1.891650 1_555
