# generated using pymatgen
data_CeGa2Ni
_symmetry_space_group_name_H-M   'P 1'
_cell_length_a   8.95572641
_cell_length_b   8.95572641
_cell_length_c   4.14243002
_cell_angle_alpha   90.00000000
_cell_angle_beta   90.00000000
_cell_angle_gamma   153.07926644
_symmetry_Int_Tables_number   1
_chemical_formula_structural   CeGa2Ni
_chemical_formula_sum   'Ce2 Ga4 Ni2'
_cell_volume   150.42581269
_cell_formula_units_Z   2
loop_
 _symmetry_equiv_pos_site_id
 _symmetry_equiv_pos_as_xyz
  1  'x, y, z'
loop_
 _atom_site_type_symbol
 _atom_site_label
 _atom_site_symmetry_multiplicity
 _atom_site_fract_x
 _atom_site_fract_y
 _atom_site_fract_z
 _atom_site_occupancy
  Ce  Ce0  1  0.35884669  0.64115331  0.50000000  1
  Ce  Ce1  1  0.64115331  0.35884669  0.50000000  1
  Ga  Ga0  1  0.20989930  0.79010070  -0.00000000  1
  Ga  Ga1  1  0.79010070  0.20989930  0.00000000  1
  Ga  Ga2  1  0.00000000  -0.00000000  0.50000000  1
  Ga  Ga3  1  0.50000000  0.50000000  -0.00000000  1
  Ni  Ni0  1  0.07283892  0.92716108  0.00000000  1
  Ni  Ni1  1  0.92716108  0.07283892  -0.00000000  1
loop_
_geom_bond_atom_site_label_1
_geom_bond_atom_site_label_2
_geom_bond_distance
_geom_bond_site_symmetry_2
Ce0 Ni1 3.170456 1_456
Ce0 Ni1 3.170456 1_455
Ce0 Ni1 3.170456 1_565
Ce0 Ni1 3.170456 1_566
Ce0 Ga1 3.173285 1_565
Ce0 Ga1 3.173285 1_456
Ce0 Ga1 3.173285 1_455
Ce0 Ga1 3.173285 1_566
Ce0 Ga3 3.214917 1_555
Ce0 Ga3 3.214917 1_556
Ce0 Ga2 3.223588 1_665
Ce0 Ga2 3.223588 1_555
Ce0 Ga0 3.319907 1_555
Ce0 Ga0 3.319907 1_556
Ce1 Ni0 3.170456 1_546
Ce1 Ni0 3.170456 1_545
Ce1 Ni0 3.170456 1_655
Ce1 Ni0 3.170456 1_656
Ce1 Ga0 3.173285 1_546
Ce1 Ga0 3.173285 1_656
Ce1 Ga0 3.173285 1_655
Ce1 Ga0 3.173285 1_545
Ce1 Ga3 3.214917 1_555
Ce1 Ga3 3.214917 1_556
Ce1 Ga2 3.223588 1_555
Ce1 Ga2 3.223588 1_665
Ce1 Ga1 3.319907 1_555
Ce1 Ga1 3.319907 1_556
Ga0 Ni0 2.387516 1_555
Ga0 Ga1 2.509491 1_565
Ga0 Ga1 2.509491 1_455
Ga1 Ni1 2.387516 1_555
Ga2 Ni0 2.428954 1_546
Ga2 Ni1 2.428954 1_456
Ga2 Ni0 2.428954 1_545
Ga2 Ni1 2.428954 1_455
Ga2 Ga3 2.938655 1_556
Ga2 Ga3 2.938655 1_445
Ga2 Ga3 2.938655 1_555
Ga2 Ga3 2.938655 1_446
Ga3 Ni1 2.440420 1_565
Ga3 Ni0 2.440420 1_655
Ga3 Ni0 2.440420 1_545
Ga3 Ni1 2.440420 1_455
Ni0 Ni1 2.537627 1_465
