# generated using pymatgen
data_CdS2O7
_symmetry_space_group_name_H-M   'P 1'
_cell_length_a   13.00147062
_cell_length_b   5.18407184
_cell_length_c   9.63244034
_cell_angle_alpha   59.00438182
_cell_angle_beta   90.00000000
_cell_angle_gamma   90.00000000
_symmetry_Int_Tables_number   1
_chemical_formula_structural   CdS2O7
_chemical_formula_sum   'Cd4 S8 O28'
_cell_volume   556.52588467
_cell_formula_units_Z   4
loop_
 _symmetry_equiv_pos_site_id
 _symmetry_equiv_pos_as_xyz
  1  'x, y, z'
loop_
 _atom_site_type_symbol
 _atom_site_label
 _atom_site_symmetry_multiplicity
 _atom_site_fract_x
 _atom_site_fract_y
 _atom_site_fract_z
 _atom_site_occupancy
  Cd  Cd0  1  0.34576854  0.13508152  0.66943405  1
  Cd  Cd1  1  0.84576854  0.86491848  0.83056595  1
  Cd  Cd2  1  0.65423146  0.86491848  0.33056595  1
  Cd  Cd3  1  0.15423146  0.13508152  0.16943405  1
  S  S0  1  0.52226623  0.63548694  0.69200080  1
  S  S1  1  0.02226623  0.36451306  0.80799920  1
  S  S2  1  0.47773377  0.36451306  0.30799920  1
  S  S3  1  0.97773377  0.63548694  0.19200080  1
  S  S4  1  0.18206809  0.72338369  0.58762959  1
  S  S5  1  0.68206809  0.27661631  0.91237041  1
  S  S6  1  0.81793191  0.27661631  0.41237041  1
  S  S7  1  0.31793191  0.72338369  0.08762959  1
  O  O0  1  0.44180683  0.52970438  0.63090910  1
  O  O1  1  0.94180683  0.47029562  0.86909090  1
  O  O2  1  0.55819317  0.47029562  0.36909090  1
  O  O3  1  0.05819317  0.52970438  0.13090910  1
  O  O4  1  0.60907847  0.76608625  0.58402610  1
  O  O5  1  0.10907847  0.23391375  0.91597390  1
  O  O6  1  0.39092153  0.23391375  0.41597390  1
  O  O7  1  0.89092153  0.76608625  0.08402610  1
  O  O8  1  0.82750136  0.00358034  0.56720069  1
  O  O9  1  0.32750136  0.99641966  0.93279931  1
  O  O10  1  0.17249864  0.99641966  0.43279931  1
  O  O11  1  0.67249864  0.00358034  0.06720069  1
  O  O12  1  0.43655050  0.67471934  0.15165230  1
  O  O13  1  0.93655050  0.32528066  0.34834770  1
  O  O14  1  0.56344950  0.32528066  0.84834770  1
  O  O15  1  0.06344950  0.67471934  0.65165230  1
  O  O16  1  0.51366265  0.18448469  0.24301433  1
  O  O17  1  0.01366265  0.81551531  0.25698567  1
  O  O18  1  0.48633735  0.81551531  0.75698567  1
  O  O19  1  0.98633735  0.18448469  0.74301433  1
  O  O20  1  0.29172853  0.45799230  0.08224619  1
  O  O21  1  0.79172853  0.54200770  0.41775381  1
  O  O22  1  0.70827147  0.54200770  0.91775381  1
  O  O23  1  0.20827147  0.45799230  0.58224619  1
  O  O24  1  0.25931980  0.75952008  0.20402881  1
  O  O25  1  0.75931980  0.24047992  0.29597119  1
  O  O26  1  0.74068020  0.24047992  0.79597119  1
  O  O27  1  0.24068020  0.75952008  0.70402881  1
loop_
_geom_bond_atom_site_label_1
_geom_bond_atom_site_label_2
_geom_bond_distance
_geom_bond_site_symmetry_2
Cd0 O0 2.258323 1_555
Cd0 O27 2.258359 1_545
Cd0 O9 2.265073 1_545
Cd0 O23 2.292453 1_555
Cd0 O6 2.297701 1_555
Cd0 O18 2.314496 1_545
Cd1 O1 2.258323 1_555
Cd1 O26 2.258359 1_565
Cd1 O8 2.265073 1_565
Cd1 O22 2.292453 1_555
Cd1 O7 2.297701 1_556
Cd1 O19 2.314496 1_565
Cd2 O2 2.258323 1_555
Cd2 O25 2.258359 1_565
Cd2 O11 2.265073 1_565
Cd2 O21 2.292453 1_555
Cd2 O4 2.297701 1_555
Cd2 O16 2.314496 1_565
Cd3 O3 2.258323 1_555
Cd3 O24 2.258359 1_545
Cd3 O10 2.265073 1_545
Cd3 O20 2.292453 1_555
Cd3 O5 2.297701 1_554
Cd3 O17 2.314496 1_545
O0 S0 1.440030 1_555
O1 S1 1.440030 1_655
O2 S2 1.440030 1_555
O3 S3 1.440030 1_455
O4 S0 1.445265 1_555
O5 S1 1.445265 1_555
O6 S2 1.445265 1_555
O7 S3 1.445265 1_555
O8 S6 1.438406 1_555
O9 S7 1.438406 1_556
O10 S4 1.438406 1_555
O11 S5 1.438406 1_554
O12 S2 1.626794 1_555
O12 S7 1.631610 1_555
O13 S3 1.626794 1_555
O13 S6 1.631610 1_555
O14 S0 1.626794 1_555
O14 S5 1.631610 1_555
O15 S1 1.626794 1_555
O15 S4 1.631610 1_555
O16 S2 1.443171 1_555
O17 S3 1.443171 1_455
O18 S0 1.443171 1_555
O19 S1 1.443171 1_655
O20 S7 1.443981 1_555
O21 S6 1.443981 1_555
O22 S5 1.443981 1_555
O23 S4 1.443981 1_555
O24 S7 1.445421 1_555
O25 S6 1.445421 1_555
O26 S5 1.445421 1_555
O27 S4 1.445421 1_555
