# generated using pymatgen
data_Mn7Zn4Si2(AsO12)2
_symmetry_space_group_name_H-M   'P 1'
_cell_length_a   8.65741700
_cell_length_b   9.99879772
_cell_length_c   11.67458100
_cell_angle_alpha   90.00000000
_cell_angle_beta   90.00000000
_cell_angle_gamma   115.65319503
_symmetry_Int_Tables_number   1
_chemical_formula_structural   Mn7Zn4Si2(AsO12)2
_chemical_formula_sum   'Mn14 Zn8 Si4 As4 O48'
_cell_volume   910.98221867
_cell_formula_units_Z   2
loop_
 _symmetry_equiv_pos_site_id
 _symmetry_equiv_pos_as_xyz
  1  'x, y, z'
loop_
 _atom_site_type_symbol
 _atom_site_label
 _atom_site_symmetry_multiplicity
 _atom_site_fract_x
 _atom_site_fract_y
 _atom_site_fract_z
 _atom_site_occupancy
  Mn  Mn0  1  0.50000000  0.00000000  0.50000000  1
  Mn  Mn1  1  0.00000000  0.00000000  0.00000000  1
  Mn  Mn2  1  0.66689700  0.33379300  0.50000000  1
  Mn  Mn3  1  0.16689700  0.33379300  0.00000000  1
  Mn  Mn4  1  0.33310300  0.66620700  0.50000000  1
  Mn  Mn5  1  0.83310300  0.66620700  0.00000000  1
  Mn  Mn6  1  0.84666100  0.18267400  0.36811200  1
  Mn  Mn7  1  0.33601300  0.18267400  0.63188800  1
  Mn  Mn8  1  0.83601300  0.18267400  0.86811200  1
  Mn  Mn9  1  0.34666100  0.18267400  0.13188800  1
  Mn  Mn10  1  0.15333900  0.81732600  0.63188800  1
  Mn  Mn11  1  0.66398700  0.81732600  0.36811200  1
  Mn  Mn12  1  0.16398700  0.81732600  0.13188800  1
  Mn  Mn13  1  0.65333900  0.81732600  0.86811200  1
  Zn  Zn0  1  0.31608700  0.34801800  0.38380000  1
  Zn  Zn1  1  0.03193100  0.34801800  0.61620000  1
  Zn  Zn2  1  0.53193100  0.34801800  0.88380000  1
  Zn  Zn3  1  0.81608700  0.34801800  0.11619900  1
  Zn  Zn4  1  0.68391300  0.65198200  0.61620000  1
  Zn  Zn5  1  0.96806900  0.65198200  0.38380000  1
  Zn  Zn6  1  0.46806900  0.65198200  0.11619900  1
  Zn  Zn7  1  0.18391300  0.65198200  0.88380000  1
  Si  Si0  1  0.13749500  0.50000000  0.25000000  1
  Si  Si1  1  0.36250500  0.50000000  0.75000000  1
  Si  Si2  1  0.86250500  0.50000000  0.75000000  1
  Si  Si3  1  0.63749500  0.50000000  0.25000000  1
  As  As0  1  0.12108500  0.00000000  0.36432700  1
  As  As1  1  0.87891500  0.00000000  0.63567300  1
  As  As2  1  0.37891500  0.00000000  0.86432700  1
  As  As3  1  0.62108500  0.00000000  0.13567300  1
  O  O0  1  0.76587500  0.00000000  0.51439200  1
  O  O1  1  0.23412500  0.00000000  0.48560800  1
  O  O2  1  0.73412500  0.00000000  0.01439200  1
  O  O3  1  0.26587500  0.00000000  0.98560800  1
  O  O4  1  0.08875300  0.15863600  0.36579100  1
  O  O5  1  0.06988400  0.15863600  0.63420900  1
  O  O6  1  0.56988400  0.15863600  0.86579100  1
  O  O7  1  0.58875300  0.15863600  0.13420900  1
  O  O8  1  0.91124700  0.84136400  0.63420900  1
  O  O9  1  0.93011600  0.84136400  0.36579100  1
  O  O10  1  0.43011600  0.84136400  0.13420900  1
  O  O11  1  0.41124700  0.84136400  0.86579100  1
  O  O12  1  0.73863600  0.49558600  0.36944800  1
  O  O13  1  0.75695000  0.49558600  0.63055200  1
  O  O14  1  0.25695000  0.49558600  0.86944800  1
  O  O15  1  0.23863600  0.49558600  0.13055200  1
  O  O16  1  0.26136400  0.50441400  0.63055200  1
  O  O17  1  0.24305000  0.50441400  0.36944800  1
  O  O18  1  0.74305000  0.50441400  0.13055200  1
  O  O19  1  0.76136400  0.50441400  0.86944800  1
  O  O20  1  0.74466500  0.00000000  0.25615300  1
  O  O21  1  0.25533500  0.00000000  0.74384700  1
  O  O22  1  0.75533500  0.00000000  0.75615300  1
  O  O23  1  0.24466500  0.00000000  0.24384700  1
  O  O24  1  0.95683800  0.34847600  0.24762500  1
  O  O25  1  0.39163700  0.34847600  0.75237500  1
  O  O26  1  0.89163700  0.34847600  0.74762500  1
  O  O27  1  0.45683800  0.34847600  0.25237500  1
  O  O28  1  0.04316200  0.65152400  0.75237500  1
  O  O29  1  0.60836300  0.65152400  0.24762500  1
  O  O30  1  0.10836300  0.65152400  0.25237500  1
  O  O31  1  0.54316200  0.65152400  0.74762500  1
  O  O32  1  0.88792200  0.32673200  0.48560200  1
  O  O33  1  0.43881000  0.32673200  0.51439800  1
  O  O34  1  0.93881000  0.32673200  0.98560200  1
  O  O35  1  0.38792200  0.32673200  0.01439800  1
  O  O36  1  0.11207800  0.67326800  0.51439800  1
  O  O37  1  0.56119000  0.67326800  0.48560200  1
  O  O38  1  0.06119000  0.67326800  0.01439800  1
  O  O39  1  0.61207800  0.67326800  0.98560200  1
  O  O40  1  0.61462400  0.15859900  0.39185100  1
  O  O41  1  0.54397500  0.15859900  0.60814900  1
  O  O42  1  0.04397500  0.15859900  0.89185100  1
  O  O43  1  0.11462400  0.15859900  0.10814900  1
  O  O44  1  0.38537600  0.84140100  0.60814900  1
  O  O45  1  0.45602500  0.84140100  0.39185100  1
  O  O46  1  0.95602500  0.84140100  0.10814900  1
  O  O47  1  0.88537600  0.84140100  0.89185100  1
loop_
_geom_bond_atom_site_label_1
_geom_bond_atom_site_label_2
_geom_bond_distance
_geom_bond_site_symmetry_2
Mn0 O41 1.931607 1_555
Mn0 O45 1.931607 1_545
Mn0 O40 1.931607 1_555
Mn0 O44 1.931607 1_545
Mn0 O0 2.307915 1_555
Mn0 O1 2.307915 1_555
Mn1 O42 1.931607 1_554
Mn1 O46 1.931607 1_445
Mn1 O43 1.931607 1_555
Mn1 O47 1.931607 1_444
Mn1 O3 2.307915 1_554
Mn1 O2 2.307915 1_455
Mn2 O32 1.952361 1_555
Mn2 O33 1.952370 1_555
Mn2 O40 2.044776 1_555
Mn2 O41 2.044777 1_555
Mn2 O13 2.110890 1_555
Mn2 O12 2.110891 1_555
Mn3 O35 1.952361 1_555
Mn3 O34 1.952370 1_454
Mn3 O43 2.044776 1_555
Mn3 O42 2.044777 1_554
Mn3 O14 2.110890 1_554
Mn3 O15 2.110891 1_555
Mn4 O36 1.952361 1_555
Mn4 O37 1.952370 1_555
Mn4 O44 2.044776 1_555
Mn4 O45 2.044777 1_555
Mn4 O17 2.110890 1_555
Mn4 O16 2.110891 1_555
Mn5 O39 1.952361 1_554
Mn5 O38 1.952370 1_655
Mn5 O47 2.044776 1_554
Mn5 O46 2.044777 1_555
Mn5 O18 2.110890 1_555
Mn5 O19 2.110891 1_554
Mn6 O32 1.907428 1_555
Mn6 O40 1.936879 1_555
Mn6 O24 2.065829 1_555
Mn6 O20 2.104249 1_555
Mn6 O4 2.210754 1_655
Mn6 O0 2.373959 1_555
Mn7 O33 1.907428 1_555
Mn7 O41 1.936879 1_555
Mn7 O25 2.065830 1_555
Mn7 O21 2.104249 1_555
Mn7 O5 2.210745 1_555
Mn7 O1 2.373959 1_555
Mn8 O34 1.907428 1_555
Mn8 O42 1.936879 1_655
Mn8 O26 2.065830 1_555
Mn8 O22 2.104249 1_555
Mn8 O6 2.210745 1_555
Mn8 O2 2.373959 1_556
Mn9 O35 1.907428 1_555
Mn9 O43 1.936879 1_555
Mn9 O27 2.065829 1_555
Mn9 O23 2.104249 1_555
Mn9 O7 2.210754 1_555
Mn9 O3 2.373959 1_554
Mn10 O36 1.907428 1_555
Mn10 O44 1.936879 1_555
Mn10 O28 2.065829 1_555
Mn10 O21 2.104249 1_565
Mn10 O8 2.210754 1_455
Mn10 O1 2.373959 1_565
Mn11 O37 1.907428 1_555
Mn11 O45 1.936879 1_555
Mn11 O29 2.065830 1_555
Mn11 O20 2.104249 1_565
Mn11 O9 2.210745 1_555
Mn11 O0 2.373959 1_565
Mn12 O38 1.907428 1_555
Mn12 O46 1.936879 1_455
Mn12 O30 2.065830 1_555
Mn12 O23 2.104249 1_565
Mn12 O10 2.210745 1_555
Mn12 O3 2.373959 1_564
Mn13 O39 1.907428 1_555
Mn13 O47 1.936879 1_555
Mn13 O31 2.065829 1_555
Mn13 O22 2.104249 1_565
Mn13 O11 2.210754 1_555
Mn13 O2 2.373959 1_566
As0 O1 1.721195 1_555
As0 O4 1.725978 1_555
As0 O9 1.725983 1_445
As0 O23 1.767214 1_555
As1 O0 1.721195 1_555
As1 O8 1.725978 1_545
As1 O5 1.725983 1_655
As1 O22 1.767214 1_555
As2 O3 1.721195 1_555
As2 O11 1.725978 1_545
As2 O6 1.725983 1_555
As2 O21 1.767214 1_555
As3 O2 1.721195 1_555
As3 O7 1.725978 1_555
As3 O10 1.725983 1_545
As3 O20 1.767214 1_555
O4 Zn0 2.067984 1_555
O5 Zn1 2.067988 1_555
O6 Zn2 2.067988 1_555
O7 Zn3 2.067985 1_555
O8 Zn4 2.067984 1_555
O9 Zn5 2.067988 1_555
O10 Zn6 2.067989 1_555
O11 Zn7 2.067984 1_555
O12 Si3 1.657336 1_555
O12 Zn5 1.931170 1_555
O13 Si2 1.657336 1_555
O13 Zn4 1.931170 1_555
O14 Si1 1.657336 1_555
O14 Zn7 1.931170 1_555
O15 Si0 1.657336 1_555
O15 Zn6 1.931171 1_555
O16 Si1 1.657336 1_555
O16 Zn1 1.931170 1_555
O17 Si0 1.657336 1_555
O17 Zn0 1.931170 1_555
O18 Si3 1.657336 1_555
O18 Zn3 1.931171 1_555
O19 Si2 1.657336 1_555
O19 Zn2 1.931170 1_555
O24 Si0 1.640318 1_655
O24 Zn3 1.958121 1_555
O25 Si1 1.640313 1_555
O25 Zn2 1.958118 1_555
O26 Si2 1.640313 1_555
O26 Zn1 1.958118 1_655
O27 Si3 1.640318 1_555
O27 Zn0 1.958112 1_555
O28 Si2 1.640318 1_455
O28 Zn7 1.958112 1_555
O29 Si3 1.640313 1_555
O29 Zn6 1.958127 1_555
O30 Si0 1.640313 1_555
O30 Zn5 1.958118 1_455
O31 Si1 1.640318 1_555
O31 Zn4 1.958112 1_555
O32 Zn1 1.922124 1_655
O33 Zn0 1.922124 1_555
O34 Zn3 1.922115 1_556
O35 Zn2 1.922124 1_554
O36 Zn5 1.922124 1_455
O37 Zn4 1.922124 1_555
O38 Zn7 1.922124 1_554
O39 Zn6 1.922115 1_556
