# generated using pymatgen
data_NaMnFe(PO4)2
_symmetry_space_group_name_H-M   'P 1'
_cell_length_a   13.07120696
_cell_length_b   9.36352970
_cell_length_c   9.35754727
_cell_angle_alpha   85.45283715
_cell_angle_beta   64.43168874
_cell_angle_gamma   64.10543765
_symmetry_Int_Tables_number   1
_chemical_formula_structural   NaMnFe(PO4)2
_chemical_formula_sum   'Na6 Mn6 Fe6 P12 O48'
_cell_volume   920.95643966
_cell_formula_units_Z   6
loop_
 _symmetry_equiv_pos_site_id
 _symmetry_equiv_pos_as_xyz
  1  'x, y, z'
loop_
 _atom_site_type_symbol
 _atom_site_label
 _atom_site_symmetry_multiplicity
 _atom_site_fract_x
 _atom_site_fract_y
 _atom_site_fract_z
 _atom_site_occupancy
  Na  Na0  1  0.11895100  0.98680600  0.01368000  1
  Na  Na1  1  0.25000000  0.50000000  0.50000000  1
  Na  Na2  1  0.38104900  0.01319400  0.98632000  1
  Na  Na3  1  0.49949300  0.49801300  0.50212100  1
  Na  Na4  1  0.75000000  0.50000000  0.50000000  1
  Na  Na5  1  0.00050700  0.50198700  0.49787900  1
  Mn  Mn0  1  0.09659700  0.06933200  0.37846600  1
  Mn  Mn1  1  0.12449800  0.26521000  0.72877900  1
  Mn  Mn2  1  0.37550200  0.73479000  0.27122100  1
  Mn  Mn3  1  0.40340300  0.93066800  0.62153400  1
  Mn  Mn4  1  0.62586600  0.26283800  0.73679600  1
  Mn  Mn5  1  0.87413400  0.73716200  0.26320400  1
  Fe  Fe0  1  0.34712600  0.38019100  0.06365500  1
  Fe  Fe1  1  0.15287400  0.61980900  0.93634500  1
  Fe  Fe2  1  0.59518400  0.06438100  0.37232700  1
  Fe  Fe3  1  0.84567900  0.36903100  0.06423000  1
  Fe  Fe4  1  0.65432100  0.63096900  0.93577000  1
  Fe  Fe5  1  0.90481600  0.93561900  0.62767300  1
  P  P0  1  0.07584300  0.34730800  0.12568200  1
  P  P1  1  0.12663700  0.71294000  0.28305900  1
  P  P2  1  0.32925900  0.13128700  0.33958000  1
  P  P3  1  0.17074100  0.86871300  0.66042000  1
  P  P4  1  0.37336300  0.28706000  0.71694100  1
  P  P5  1  0.57200700  0.35057600  0.13584000  1
  P  P6  1  0.42415700  0.65269200  0.87431800  1
  P  P7  1  0.62966400  0.70945800  0.28071000  1
  P  P8  1  0.81995000  0.13300300  0.35195000  1
  P  P9  1  0.68005000  0.86699700  0.64805000  1
  P  P10  1  0.87033600  0.29054200  0.71929000  1
  P  P11  1  0.92799300  0.64942400  0.86416000  1
  O  O0  1  0.02769700  0.33374500  0.00142600  1
  O  O1  1  0.13935000  0.17589400  0.16215800  1
  O  O2  1  0.18116700  0.40877400  0.04344200  1
  O  O3  1  0.06348300  0.73951500  0.16647900  1
  O  O4  1  0.29556300  0.99660300  0.31866100  1
  O  O5  1  0.02422300  0.74074500  0.45736700  1
  O  O6  1  0.21671500  0.26925400  0.47033100  1
  O  O7  1  0.03972700  0.52065600  0.72335500  1
  O  O8  1  0.37212500  0.19149300  0.17322100  1
  O  O9  1  0.22482000  0.53442700  0.26070500  1
  O  O10  1  0.19302700  0.82219800  0.25142700  1
  O  O11  1  0.44018800  0.05595500  0.38839300  1
  O  O12  1  0.05981200  0.94404500  0.61160700  1
  O  O13  1  0.30697300  0.17780200  0.74857300  1
  O  O14  1  0.52809700  0.33587700  0.00748500  1
  O  O15  1  0.27518000  0.46557300  0.73929500  1
  O  O16  1  0.12787500  0.80850700  0.82677900  1
  O  O17  1  0.46027300  0.47934400  0.27664500  1
  O  O18  1  0.28328500  0.73074600  0.52966900  1
  O  O19  1  0.62265500  0.18714900  0.19301600  1
  O  O20  1  0.47577700  0.25925500  0.54263300  1
  O  O21  1  0.20443700  0.00339700  0.68133900  1
  O  O22  1  0.43651700  0.26048500  0.83352100  1
  O  O23  1  0.68096000  0.40372900  0.05315900  1
  O  O24  1  0.31883300  0.59122600  0.95655800  1
  O  O25  1  0.56800200  0.73537500  0.16372300  1
  O  O26  1  0.77507800  0.00835500  0.33184700  1
  O  O27  1  0.52855400  0.72772700  0.45070300  1
  O  O28  1  0.36065000  0.82410600  0.83784200  1
  O  O29  1  0.70879700  0.27748800  0.47649400  1
  O  O30  1  0.53309700  0.52963900  0.72851700  1
  O  O31  1  0.87882500  0.18516000  0.18506400  1
  O  O32  1  0.73646800  0.53520400  0.25031800  1
  O  O33  1  0.47230300  0.66625500  0.99857400  1
  O  O34  1  0.68931300  0.82683400  0.26168100  1
  O  O35  1  0.92607100  0.04671100  0.40786200  1
  O  O36  1  0.57392900  0.95328900  0.59213800  1
  O  O37  1  0.81068700  0.17316600  0.73831900  1
  O  O38  1  0.76353200  0.46479600  0.74968200  1
  O  O39  1  0.62117500  0.81484000  0.81493600  1
  O  O40  1  0.96690300  0.47036100  0.27148300  1
  O  O41  1  0.79120300  0.72251200  0.52350600  1
  O  O42  1  0.97144600  0.27227300  0.54929700  1
  O  O43  1  0.72492200  0.99164500  0.66815300  1
  O  O44  1  0.93199800  0.26462500  0.83627700  1
  O  O45  1  0.81904000  0.59627100  0.94684100  1
  O  O46  1  0.87734500  0.81285100  0.80698400  1
  O  O47  1  0.97190300  0.66412300  0.99251500  1
loop_
_geom_bond_atom_site_label_1
_geom_bond_atom_site_label_2
_geom_bond_distance
_geom_bond_site_symmetry_2
Na0 O16 2.444671 1_554
Na0 O1 2.501689 1_565
Na0 O28 2.591518 1_554
Na0 O31 2.628455 1_465
Na0 O3 2.824579 1_555
Na0 O21 2.831900 1_564
Na0 O10 2.876590 1_555
Na0 O0 2.943414 1_565
Na1 O15 2.378100 1_555
Na1 O9 2.378100 1_555
Na1 O18 2.440280 1_555
Na1 O6 2.440280 1_555
Na1 O7 2.569306 1_555
Na1 O17 2.569306 1_555
Na2 O8 2.444671 1_556
Na2 O28 2.501689 1_545
Na2 O1 2.591518 1_556
Na2 O39 2.628455 1_545
Na2 O22 2.824579 1_555
Na2 O4 2.831900 1_546
Na2 O13 2.876590 1_555
Na2 O33 2.943414 1_545
Na3 O27 2.322521 1_555
Na3 O20 2.367973 1_555
Na3 O30 2.405208 1_555
Na3 O17 2.411527 1_555
Na3 O29 2.526690 1_555
Na3 O18 2.623602 1_555
Na4 O38 2.404670 1_555
Na4 O32 2.404670 1_555
Na4 O29 2.415454 1_555
Na4 O41 2.415454 1_555
Na4 O30 2.619466 1_555
Na4 O40 2.619466 1_555
Na5 O42 2.322521 1_455
Na5 O5 2.367973 1_555
Na5 O40 2.405208 1_455
Na5 O7 2.411527 1_555
Na5 O41 2.526690 1_455
Na5 O6 2.623602 1_555
Mn0 O42 2.086072 1_455
Mn0 O1 2.143675 1_555
Mn0 O4 2.190415 1_545
Mn0 O10 2.225299 1_545
Mn0 O35 2.227729 1_455
Mn0 O12 2.355492 1_545
Mn1 O7 2.160057 1_555
Mn1 O6 2.193696 1_555
Mn1 O21 2.198526 1_555
Mn1 O13 2.246205 1_555
Mn1 O44 2.273673 1_455
Mn1 O0 2.299106 1_556
Mn2 O17 2.160057 1_555
Mn2 O18 2.193696 1_555
Mn2 O4 2.198526 1_555
Mn2 O10 2.246205 1_555
Mn2 O25 2.273673 1_555
Mn2 O33 2.299106 1_554
Mn3 O27 2.086072 1_555
Mn3 O28 2.143675 1_555
Mn3 O21 2.190415 1_565
Mn3 O13 2.225299 1_565
Mn3 O36 2.227729 1_555
Mn3 O11 2.355492 1_565
Mn4 O37 2.190336 1_555
Mn4 O29 2.219171 1_555
Mn4 O22 2.248610 1_555
Mn4 O30 2.263161 1_555
Mn4 O43 2.281714 1_545
Mn4 O14 2.287810 1_556
Mn5 O34 2.190336 1_555
Mn5 O41 2.219171 1_555
Mn5 O3 2.248610 1_655
Mn5 O40 2.263161 1_555
Mn5 O26 2.281714 1_565
Mn5 O47 2.287810 1_554
Fe0 O8 1.943575 1_555
Fe0 O9 1.975509 1_555
Fe0 O14 2.036696 1_555
Fe0 O22 2.079903 1_554
Fe0 O24 2.100818 1_554
Fe0 O2 2.156905 1_555
Fe1 O16 1.943575 1_555
Fe1 O15 1.975509 1_555
Fe1 O47 2.036696 1_455
Fe1 O3 2.079903 1_556
Fe1 O2 2.100818 1_556
Fe1 O24 2.156905 1_555
Fe2 O19 1.949462 1_555
Fe2 O11 2.002065 1_555
Fe2 O20 2.032702 1_555
Fe2 O26 2.033017 1_555
Fe2 O34 2.099637 1_545
Fe2 O36 2.193156 1_545
Fe3 O32 1.958307 1_555
Fe3 O31 1.973087 1_555
Fe3 O44 2.017074 1_554
Fe3 O0 2.062132 1_655
Fe3 O23 2.080441 1_555
Fe3 O45 2.273262 1_554
Fe4 O38 1.958307 1_555
Fe4 O39 1.973087 1_555
Fe4 O25 2.017074 1_556
Fe4 O33 2.062132 1_555
Fe4 O45 2.080441 1_555
Fe4 O23 2.273262 1_556
Fe5 O46 1.949462 1_555
Fe5 O12 2.002065 1_655
Fe5 O5 2.032702 1_655
Fe5 O43 2.033017 1_555
Fe5 O37 2.099637 1_565
Fe5 O35 2.193156 1_565
O0 P0 1.577644 1_555
O1 P0 1.541337 1_555
O2 P0 1.589384 1_555
O3 P1 1.577435 1_555
O4 P2 1.556100 1_565
O5 P1 1.548702 1_555
O6 P2 1.538528 1_555
O7 P11 1.541313 1_455
O8 P2 1.561714 1_555
O9 P1 1.560386 1_555
O10 P1 1.546930 1_555
O11 P2 1.560735 1_555
O12 P3 1.560735 1_555
O13 P4 1.546930 1_555
O14 P5 1.575195 1_555
O15 P4 1.560386 1_555
O16 P3 1.561714 1_555
O17 P5 1.541313 1_555
O18 P3 1.538528 1_555
O19 P5 1.535345 1_555
O20 P4 1.548702 1_555
O21 P3 1.556100 1_545
O22 P4 1.577435 1_555
O23 P5 1.575259 1_555
O24 P6 1.589384 1_555
O25 P7 1.567023 1_555
O26 P8 1.571499 1_555
O27 P7 1.528838 1_555
O28 P6 1.541337 1_555
O29 P8 1.539822 1_555
O30 P6 1.534912 1_555
O31 P8 1.561877 1_555
O32 P7 1.559935 1_555
O33 P6 1.577644 1_555
O34 P7 1.563689 1_555
O35 P8 1.559230 1_555
O36 P9 1.559230 1_555
O37 P10 1.563689 1_555
O38 P10 1.559935 1_555
O39 P9 1.561877 1_555
O40 P0 1.534912 1_655
O41 P9 1.539822 1_555
O42 P10 1.528838 1_555
O43 P9 1.571499 1_555
O44 P10 1.567023 1_555
O45 P11 1.575259 1_555
O46 P11 1.535345 1_555
O47 P11 1.575195 1_555
