# generated using pymatgen
data_NbFe2
_symmetry_space_group_name_H-M   'P 1'
_cell_length_a   4.78265995
_cell_length_b   4.78265995
_cell_length_c   15.58585900
_cell_angle_alpha   90.00000000
_cell_angle_beta   90.00000000
_cell_angle_gamma   119.99999931
_symmetry_Int_Tables_number   1
_chemical_formula_structural   NbFe2
_chemical_formula_sum   'Nb8 Fe16'
_cell_volume   308.74532089
_cell_formula_units_Z   8
loop_
 _symmetry_equiv_pos_site_id
 _symmetry_equiv_pos_as_xyz
  1  'x, y, z'
loop_
 _atom_site_type_symbol
 _atom_site_label
 _atom_site_symmetry_multiplicity
 _atom_site_fract_x
 _atom_site_fract_y
 _atom_site_fract_z
 _atom_site_occupancy
  Nb  Nb0  1  0.00000000  0.00000000  0.40749700  1
  Nb  Nb1  1  0.00000000  0.00000000  0.59250300  1
  Nb  Nb2  1  0.00000000  0.00000000  0.90749700  1
  Nb  Nb3  1  0.00000000  0.00000000  0.09250300  1
  Nb  Nb4  1  0.33333300  0.66666700  0.65592500  1
  Nb  Nb5  1  0.66666700  0.33333300  0.34407500  1
  Nb  Nb6  1  0.66666700  0.33333300  0.15592500  1
  Nb  Nb7  1  0.33333300  0.66666700  0.84407500  1
  Fe  Fe0  1  0.33333300  0.66666700  0.37348400  1
  Fe  Fe1  1  0.66666700  0.33333300  0.62651600  1
  Fe  Fe2  1  0.66666700  0.33333300  0.87348400  1
  Fe  Fe3  1  0.33333300  0.66666700  0.12651600  1
  Fe  Fe4  1  0.50000000  0.50000000  0.50000000  1
  Fe  Fe5  1  0.50000000  0.00000000  0.50000000  1
  Fe  Fe6  1  0.00000000  0.50000000  0.50000000  1
  Fe  Fe7  1  0.50000000  0.50000000  0.00000000  1
  Fe  Fe8  1  0.50000000  0.00000000  0.00000000  1
  Fe  Fe9  1  0.00000000  0.50000000  0.00000000  1
  Fe  Fe10  1  0.16234400  0.83765600  0.25000000  1
  Fe  Fe11  1  0.16234400  0.32468800  0.25000000  1
  Fe  Fe12  1  0.67531200  0.83765600  0.25000000  1
  Fe  Fe13  1  0.83765600  0.16234400  0.75000000  1
  Fe  Fe14  1  0.83765600  0.67531200  0.75000000  1
  Fe  Fe15  1  0.32468800  0.16234400  0.75000000  1
loop_
_geom_bond_atom_site_label_1
_geom_bond_atom_site_label_2
_geom_bond_distance
_geom_bond_site_symmetry_2
Nb0 Nb1 2.883477 1_555
Nb0 Nb5 2.932866 1_455
Nb0 Nb5 2.932870 1_445
Nb0 Nb5 2.932870 1_555
Nb1 Nb4 2.932866 1_545
Nb1 Nb4 2.932870 1_555
Nb1 Nb4 2.932870 1_445
Nb2 Nb3 2.883477 1_556
Nb2 Nb7 2.932866 1_545
Nb2 Nb7 2.932870 1_555
Nb2 Nb7 2.932870 1_445
Nb3 Nb6 2.932866 1_455
Nb3 Nb6 2.932870 1_555
Nb3 Nb6 2.932870 1_445
Nb4 Nb7 2.932479 1_555
Nb5 Nb6 2.932479 1_555
Fe0 Fe10 2.389645 1_555
Fe0 Fe11 2.389648 1_555
Fe0 Fe12 2.389648 1_555
Fe0 Fe5 2.407153 1_565
Fe0 Fe6 2.407153 1_555
Fe0 Fe4 2.407155 1_555
Fe0 Nb5 2.799053 1_455
Fe0 Nb5 2.799053 1_565
Fe0 Nb5 2.799061 1_555
Fe0 Nb0 2.811694 1_565
Fe0 Nb0 2.811699 1_555
Fe0 Nb0 2.811699 1_665
Fe1 Fe13 2.389645 1_555
Fe1 Fe15 2.389648 1_555
Fe1 Fe14 2.389648 1_555
Fe1 Fe6 2.407153 1_655
Fe1 Fe5 2.407153 1_555
Fe1 Fe4 2.407155 1_555
Fe1 Nb4 2.799053 1_545
Fe1 Nb4 2.799053 1_655
Fe1 Nb4 2.799061 1_555
Fe1 Nb1 2.811694 1_655
Fe1 Nb1 2.811699 1_665
Fe1 Nb1 2.811699 1_555
Fe2 Fe9 2.407153 1_656
Fe2 Fe8 2.407153 1_556
Fe2 Fe7 2.407155 1_556
Fe2 Nb7 2.799053 1_545
Fe2 Nb7 2.799053 1_655
Fe2 Nb7 2.799061 1_555
Fe2 Nb2 2.811694 1_655
Fe2 Nb2 2.811699 1_665
Fe2 Nb2 2.811699 1_555
Fe3 Fe9 2.407153 1_555
Fe3 Fe8 2.407153 1_565
Fe3 Fe7 2.407155 1_555
Fe3 Nb6 2.799053 1_455
Fe3 Nb6 2.799053 1_565
Fe3 Nb6 2.799061 1_555
Fe3 Nb3 2.811694 1_565
Fe3 Nb3 2.811699 1_555
Fe3 Nb3 2.811699 1_665
Fe4 Fe6 2.391330 1_655
Fe4 Fe5 2.391330 1_555
Fe4 Fe5 2.391330 1_565
Fe4 Fe6 2.391330 1_555
Fe4 Nb0 2.792323 1_665
Fe4 Nb1 2.792323 1_665
Fe4 Nb0 2.792323 1_555
Fe4 Nb1 2.792323 1_555
Fe4 Nb4 2.795023 1_555
Fe4 Nb5 2.795023 1_555
Fe5 Fe6 2.391330 1_545
Fe5 Fe6 2.391330 1_655
Fe5 Nb1 2.792323 1_655
Fe5 Nb0 2.792323 1_555
Fe5 Nb0 2.792323 1_655
Fe5 Nb1 2.792323 1_555
Fe5 Nb4 2.795021 1_545
Fe5 Nb5 2.795021 1_555
Fe6 Nb1 2.792323 1_565
Fe6 Nb0 2.792323 1_555
Fe6 Nb0 2.792323 1_565
Fe6 Nb1 2.792323 1_555
Fe6 Nb4 2.795021 1_555
Fe6 Nb5 2.795021 1_455
Fe7 Fe9 2.391330 1_655
Fe7 Fe8 2.391330 1_555
Fe7 Fe9 2.391330 1_555
Fe7 Fe8 2.391330 1_565
Fe7 Nb2 2.792323 1_664
Fe7 Nb3 2.792323 1_555
Fe7 Nb3 2.792323 1_665
Fe7 Nb2 2.792323 1_554
Fe7 Nb6 2.795023 1_555
Fe7 Nb7 2.795023 1_554
Fe8 Fe9 2.391330 1_545
Fe8 Fe9 2.391330 1_655
Fe8 Nb2 2.792323 1_554
Fe8 Nb3 2.792323 1_655
Fe8 Nb2 2.792323 1_654
Fe8 Nb3 2.792323 1_555
Fe8 Nb6 2.795021 1_555
Fe8 Nb7 2.795021 1_544
Fe9 Nb2 2.792323 1_554
Fe9 Nb2 2.792323 1_564
Fe9 Nb3 2.792323 1_555
Fe9 Nb3 2.792323 1_565
Fe9 Nb6 2.795021 1_455
Fe9 Nb7 2.795021 1_554
Fe10 Fe12 2.329308 1_455
Fe10 Fe11 2.329308 1_565
Fe10 Fe3 2.389645 1_555
Fe10 Fe11 2.453352 1_555
Fe10 Fe12 2.453352 1_555
Fe10 Nb3 2.798971 1_565
Fe10 Nb0 2.798971 1_565
Fe10 Nb5 2.805281 1_455
Fe10 Nb5 2.805281 1_565
Fe10 Nb6 2.805281 1_455
Fe10 Nb6 2.805281 1_565
Fe11 Fe12 2.329308 1_445
Fe11 Fe3 2.389648 1_555
Fe11 Fe12 2.453352 1_555
Fe11 Nb3 2.798971 1_555
Fe11 Nb0 2.798971 1_555
Fe11 Nb5 2.805279 1_455
Fe11 Nb6 2.805279 1_455
Fe11 Nb5 2.805283 1_555
Fe11 Nb6 2.805283 1_555
Fe12 Fe3 2.389648 1_555
Fe12 Nb3 2.798971 1_665
Fe12 Nb0 2.798971 1_665
Fe12 Nb5 2.805279 1_565
Fe12 Nb6 2.805279 1_565
Fe12 Nb5 2.805283 1_555
Fe12 Nb6 2.805283 1_555
Fe13 Fe14 2.329308 1_545
Fe13 Fe15 2.329308 1_655
Fe13 Fe2 2.389645 1_555
Fe13 Fe15 2.453352 1_555
Fe13 Fe14 2.453352 1_555
Fe13 Nb1 2.798971 1_655
Fe13 Nb2 2.798971 1_655
Fe13 Nb7 2.805281 1_545
Fe13 Nb7 2.805281 1_655
Fe13 Nb4 2.805281 1_545
Fe13 Nb4 2.805281 1_655
Fe14 Fe15 2.329308 1_665
Fe14 Fe2 2.389648 1_555
Fe14 Fe15 2.453352 1_555
Fe14 Nb2 2.798971 1_665
Fe14 Nb1 2.798971 1_665
Fe14 Nb7 2.805279 1_655
Fe14 Nb4 2.805279 1_655
Fe14 Nb7 2.805283 1_555
Fe14 Nb4 2.805283 1_555
Fe15 Fe2 2.389648 1_555
Fe15 Nb1 2.798971 1_555
Fe15 Nb2 2.798971 1_555
Fe15 Nb7 2.805279 1_545
Fe15 Nb4 2.805279 1_545
Fe15 Nb7 2.805283 1_555
Fe15 Nb4 2.805283 1_555
