# generated using pymatgen
data_ThAgPO
_symmetry_space_group_name_H-M   'P 1'
_cell_length_a   3.99342900
_cell_length_b   3.99342900
_cell_length_c   8.81065600
_cell_angle_alpha   90.00000000
_cell_angle_beta   90.00000000
_cell_angle_gamma   90.00000000
_symmetry_Int_Tables_number   1
_chemical_formula_structural   ThAgPO
_chemical_formula_sum   'Th2 Ag2 P2 O2'
_cell_volume   140.50771786
_cell_formula_units_Z   2
loop_
 _symmetry_equiv_pos_site_id
 _symmetry_equiv_pos_as_xyz
  1  'x, y, z'
loop_
 _atom_site_type_symbol
 _atom_site_label
 _atom_site_symmetry_multiplicity
 _atom_site_fract_x
 _atom_site_fract_y
 _atom_site_fract_z
 _atom_site_occupancy
  Th  Th0  1  0.00000000  0.50000000  0.84610600  1
  Th  Th1  1  0.50000000  0.00000000  0.15389400  1
  Ag  Ag0  1  0.00000000  0.00000000  0.50000000  1
  Ag  Ag1  1  0.50000000  0.50000000  0.50000000  1
  P  P0  1  0.00000000  0.50000000  0.29768300  1
  P  P1  1  0.50000000  0.00000000  0.70231700  1
  O  O0  1  0.00000000  0.00000000  0.00000000  1
  O  O1  1  0.50000000  0.50000000  0.00000000  1
loop_
_geom_bond_atom_site_label_1
_geom_bond_atom_site_label_2
_geom_bond_distance
_geom_bond_site_symmetry_2
Ag0 P0 2.676628 1_555
Ag0 P1 2.676628 1_555
Ag0 P0 2.676628 1_545
Ag0 P1 2.676628 1_455
Ag1 P0 2.676628 1_555
Ag1 P1 2.676628 1_555
Ag1 P1 2.676628 1_565
Ag1 P0 2.676628 1_655
P0 Th1 3.094949 1_455
P0 Th1 3.094949 1_565
P0 Th1 3.094949 1_555
P0 Th1 3.094949 1_465
P1 Th0 3.094949 1_555
P1 Th0 3.094949 1_545
P1 Th0 3.094949 1_655
P1 Th0 3.094949 1_645
O0 Th0 2.413577 1_554
O0 Th0 2.413577 1_544
O0 Th1 2.413577 1_455
O0 Th1 2.413577 1_555
O1 Th0 2.413577 1_554
O1 Th1 2.413577 1_565
O1 Th0 2.413577 1_654
O1 Th1 2.413577 1_555
