# generated using pymatgen
data_Li4MnCo2O7
_symmetry_space_group_name_H-M   'P 1'
_cell_length_a   2.90674400
_cell_length_b   9.80015371
_cell_length_c   9.83756206
_cell_angle_alpha   114.30877645
_cell_angle_beta   97.86804790
_cell_angle_gamma   90.74736276
_symmetry_Int_Tables_number   1
_chemical_formula_structural   Li4MnCo2O7
_chemical_formula_sum   'Li8 Mn2 Co4 O14'
_cell_volume   252.23939640
_cell_formula_units_Z   2
loop_
 _symmetry_equiv_pos_site_id
 _symmetry_equiv_pos_as_xyz
  1  'x, y, z'
loop_
 _atom_site_type_symbol
 _atom_site_label
 _atom_site_symmetry_multiplicity
 _atom_site_fract_x
 _atom_site_fract_y
 _atom_site_fract_z
 _atom_site_occupancy
  Li  Li0  1  0.09034100  0.77555900  0.14814700  1
  Li  Li1  1  0.78336700  0.62499500  0.55187800  1
  Li  Li2  1  0.50802000  0.50355300  0.01282900  1
  Li  Li3  1  0.20573000  0.36133400  0.42557300  1
  Li  Li4  1  0.91685100  0.22576500  0.86023500  1
  Li  Li5  1  0.62741700  0.08055200  0.28697000  1
  Li  Li6  1  0.36341400  0.92563500  0.71291200  1
  Li  Li7  1  0.14273900  0.57393900  0.28146800  1
  Mn  Mn0  1  0.00109700  0.00308900  0.00231900  1
  Mn  Mn1  1  0.72318300  0.84729800  0.42129700  1
  Co  Co0  1  0.42397500  0.71029300  0.85308600  1
  Co  Co1  1  0.84899500  0.42894600  0.71409500  1
  Co  Co2  1  0.57892100  0.30951300  0.15938000  1
  Co  Co3  1  0.28391100  0.14284800  0.57548700  1
  O  O0  1  0.52641800  0.90500700  0.06221500  1
  O  O1  1  0.25461000  0.76269100  0.49300500  1
  O  O2  1  0.95857200  0.60459700  0.91658800  1
  O  O3  1  0.67310500  0.45202000  0.34749100  1
  O  O4  1  0.37679600  0.32185100  0.77638800  1
  O  O5  1  0.09432700  0.17079400  0.19498700  1
  O  O6  1  0.83429300  0.03237700  0.62900600  1
  O  O7  1  0.62585000  0.69571200  0.23072400  1
  O  O8  1  0.31653500  0.53425000  0.64854100  1
  O  O9  1  0.03897400  0.38264100  0.07262800  1
  O  O10  1  0.72602100  0.24571400  0.50991600  1
  O  O11  1  0.47466100  0.09493300  0.93857300  1
  O  O12  1  0.20171100  0.95495500  0.36944000  1
  O  O13  1  0.90016500  0.82914100  0.80482400  1
loop_
_geom_bond_atom_site_label_1
_geom_bond_atom_site_label_2
_geom_bond_distance
_geom_bond_site_symmetry_2
Li0 O7 1.972627 1_455
Li0 O7 1.975892 1_555
Li0 O12 2.139182 1_555
Li0 O2 2.178332 1_454
Li0 O0 2.250577 1_555
Li0 O0 2.359815 1_455
Li1 O3 2.005578 1_555
Li1 O8 2.103733 1_655
Li1 O8 2.134137 1_555
Li1 O1 2.201175 1_655
Li1 O1 2.229917 1_555
Li1 O13 2.441750 1_555
Li2 O9 2.088157 1_555
Li2 O9 2.122536 1_655
Li2 O2 2.160940 1_554
Li2 O7 2.171921 1_555
Li2 O2 2.197014 1_454
Li2 O4 2.248553 1_554
Li3 O3 2.010416 1_555
Li3 O3 2.012256 1_455
Li3 O8 2.125737 1_555
Li3 O10 2.175949 1_555
Li3 O10 2.228512 1_455
Li3 O5 2.243462 1_555
Li4 O9 1.998332 1_656
Li4 O4 2.064722 1_655
Li4 O4 2.086842 1_555
Li4 O11 2.220740 1_555
Li4 O6 2.261233 1_555
Li4 O11 2.322176 1_655
Li5 O5 2.076731 1_555
Li5 O10 2.098909 1_555
Li5 O5 2.099217 1_655
Li5 O0 2.147548 1_545
Li5 O12 2.182143 1_545
Li5 O12 2.337707 1_645
Li6 O1 2.070125 1_555
Li6 O13 2.121856 1_555
Li6 O13 2.128170 1_455
Li6 O11 2.131329 1_565
Li6 O6 2.132238 1_465
Li6 O6 2.152188 1_565
Li7 O7 2.064629 1_455
Li7 O7 2.069801 1_555
Li7 O9 2.114486 1_555
Li7 O1 2.118455 1_555
Li7 O3 2.133565 1_455
Li7 O3 2.153822 1_555
Mn0 O5 1.910541 1_555
Mn0 O11 1.940871 1_554
Mn0 O11 1.944966 1_454
Mn0 O0 1.956833 1_445
Mn0 O0 1.964954 1_545
Mn0 O13 1.967470 1_444
Mn1 O7 1.830997 1_555
Mn1 O1 1.937887 1_555
Mn1 O1 1.946265 1_655
Mn1 O12 1.976684 1_655
Mn1 O12 1.985985 1_555
Mn1 O6 2.078974 1_565
Co0 O2 2.005213 1_455
Co0 O8 2.019596 1_555
Co0 O13 2.022638 1_555
Co0 O2 2.046193 1_555
Co0 O13 2.050339 1_455
Co0 O0 2.132568 1_556
Co1 O2 2.005412 1_555
Co1 O8 2.019685 1_655
Co1 O4 2.020705 1_555
Co1 O4 2.035912 1_655
Co1 O8 2.047604 1_555
Co1 O10 2.050363 1_555
Co2 O3 1.781424 1_555
Co2 O9 1.954792 1_655
Co2 O9 1.967592 1_555
Co2 O5 2.105273 1_555
Co2 O5 2.125284 1_655
Co2 O11 2.296709 1_554
Co3 O6 1.943736 1_455
Co3 O10 1.952537 1_555
Co3 O4 2.010835 1_555
Co3 O6 2.071854 1_555
Co3 O12 2.083133 1_545
Co3 O10 2.086561 1_455
