# generated using pymatgen
data_Sr2ZnSi2O7
_symmetry_space_group_name_H-M   'P 1'
_cell_length_a   8.09770100
_cell_length_b   8.09770100
_cell_length_c   5.24027700
_cell_angle_alpha   90.00000000
_cell_angle_beta   90.00000000
_cell_angle_gamma   90.00000000
_symmetry_Int_Tables_number   1
_chemical_formula_structural   Sr2ZnSi2O7
_chemical_formula_sum   'Sr4 Zn2 Si4 O14'
_cell_volume   343.61943384
_cell_formula_units_Z   2
loop_
 _symmetry_equiv_pos_site_id
 _symmetry_equiv_pos_as_xyz
  1  'x, y, z'
loop_
 _atom_site_type_symbol
 _atom_site_label
 _atom_site_symmetry_multiplicity
 _atom_site_fract_x
 _atom_site_fract_y
 _atom_site_fract_z
 _atom_site_occupancy
  Sr  Sr0  1  0.33378000  0.83378000  0.50701900  1
  Sr  Sr1  1  0.16622000  0.33378000  0.49298100  1
  Sr  Sr2  1  0.66622000  0.16622000  0.50701900  1
  Sr  Sr3  1  0.83378000  0.66622000  0.49298100  1
  Zn  Zn0  1  0.50000000  0.50000000  0.00000000  1
  Zn  Zn1  1  0.00000000  0.00000000  0.00000000  1
  Si  Si0  1  0.13852800  0.63852800  0.94939900  1
  Si  Si1  1  0.36147200  0.13852800  0.05060100  1
  Si  Si2  1  0.86147200  0.36147200  0.94939900  1
  Si  Si3  1  0.63852800  0.86147200  0.05060100  1
  O  O0  1  0.50000000  0.00000000  0.15839800  1
  O  O1  1  0.00000000  0.50000000  0.84160200  1
  O  O2  1  0.14028700  0.64028700  0.25817700  1
  O  O3  1  0.35971300  0.14028700  0.74182300  1
  O  O4  1  0.85971300  0.35971300  0.25817700  1
  O  O5  1  0.64028700  0.85971300  0.74182300  1
  O  O6  1  0.30887400  0.57982700  0.80209700  1
  O  O7  1  0.19112600  0.07982700  0.19790300  1
  O  O8  1  0.69112600  0.42017300  0.80209700  1
  O  O9  1  0.80887400  0.92017300  0.19790300  1
  O  O10  1  0.57982700  0.69112600  0.19790300  1
  O  O11  1  0.92017300  0.19112600  0.80209700  1
  O  O12  1  0.42017300  0.30887400  0.19790300  1
  O  O13  1  0.07982700  0.80887400  0.80209700  1
loop_
_geom_bond_atom_site_label_1
_geom_bond_atom_site_label_2
_geom_bond_distance
_geom_bond_site_symmetry_2
O0 Si1 1.683977 1_555
O0 Si3 1.683977 1_545
O0 Sr0 2.638349 1_545
O0 Sr2 2.638349 1_555
O1 Si0 1.683977 1_555
O1 Si2 1.683977 1_455
O1 Sr3 2.638349 1_455
O1 Sr1 2.638349 1_555
O2 Si0 1.618208 1_554
O2 Sr0 2.571079 1_555
O2 Sr1 2.778203 1_555
O2 Sr3 2.778203 1_455
O3 Si1 1.618208 1_556
O3 Sr1 2.571079 1_555
O3 Sr0 2.778203 1_545
O3 Sr2 2.778203 1_555
O4 Si2 1.618208 1_554
O4 Sr2 2.571079 1_555
O4 Sr3 2.778203 1_555
O4 Sr1 2.778203 1_655
O5 Si3 1.618208 1_556
O5 Sr3 2.571079 1_555
O5 Sr0 2.778203 1_555
O5 Sr2 2.778203 1_565
O6 Si0 1.650624 1_555
O6 Zn0 1.971973 1_556
O6 Sr0 2.580817 1_555
O6 Sr1 2.815681 1_555
O7 Si1 1.650624 1_555
O7 Zn1 1.971973 1_555
O7 Sr1 2.580817 1_555
O7 Sr0 2.815681 1_545
O8 Si2 1.650624 1_555
O8 Zn0 1.971973 1_556
O8 Sr2 2.580817 1_555
O8 Sr3 2.815681 1_555
O9 Si3 1.650624 1_555
O9 Zn1 1.971973 1_665
O9 Sr3 2.580817 1_555
O9 Sr2 2.815681 1_565
O10 Si3 1.650624 1_555
O10 Zn0 1.971973 1_555
O10 Sr3 2.580817 1_555
O10 Sr0 2.815681 1_555
O11 Si2 1.650624 1_555
O11 Zn1 1.971973 1_656
O11 Sr2 2.580817 1_555
O11 Sr1 2.815681 1_655
O12 Si1 1.650624 1_555
O12 Zn0 1.971973 1_555
O12 Sr1 2.580817 1_555
O12 Sr2 2.815681 1_555
O13 Si0 1.650624 1_555
O13 Zn1 1.971973 1_566
O13 Sr0 2.580817 1_555
O13 Sr3 2.815681 1_455
