# generated using pymatgen
data_Mg14CuNi
_symmetry_space_group_name_H-M   'P 1'
_cell_length_a   6.28264140
_cell_length_b   6.39265309
_cell_length_c   9.62203863
_cell_angle_alpha   90.00000000
_cell_angle_beta   90.00000000
_cell_angle_gamma   120.58095565
_symmetry_Int_Tables_number   1
_chemical_formula_structural   Mg14CuNi
_chemical_formula_sum   'Mg14 Cu1 Ni1'
_cell_volume   332.69697460
_cell_formula_units_Z   1
loop_
 _symmetry_equiv_pos_site_id
 _symmetry_equiv_pos_as_xyz
  1  'x, y, z'
loop_
 _atom_site_type_symbol
 _atom_site_label
 _atom_site_symmetry_multiplicity
 _atom_site_fract_x
 _atom_site_fract_y
 _atom_site_fract_z
 _atom_site_occupancy
  Mg  Mg0  1  0.17599002  0.33799451  0.62500000  1
  Mg  Mg1  1  0.17594050  0.83796975  0.62500000  1
  Mg  Mg2  1  0.72558509  0.36393967  0.12500000  1
  Mg  Mg3  1  0.66266534  0.33266777  0.62500000  1
  Mg  Mg4  1  0.72558509  0.86164442  0.12500000  1
  Mg  Mg5  1  0.66266534  0.82999658  0.62500000  1
  Mg  Mg6  1  0.31426674  0.15374905  0.33791603  1
  Mg  Mg7  1  0.31426674  0.15374905  0.91208397  1
  Mg  Mg8  1  0.31426674  0.66051869  0.33791603  1
  Mg  Mg9  1  0.31426674  0.66051869  0.91208397  1
  Mg  Mg10  1  0.83245750  0.16622925  0.37591267  1
  Mg  Mg11  1  0.83245750  0.16622925  0.87408733  1
  Mg  Mg12  1  0.83629990  0.66815045  0.37201134  1
  Mg  Mg13  1  0.83629990  0.66815045  0.87798866  1
  Cu  Cu0  1  0.14014823  0.32007362  0.12500000  1
  Ni  Ni0  1  0.13683862  0.81841881  0.12500000  1
loop_
_geom_bond_atom_site_label_1
_geom_bond_atom_site_label_2
_geom_bond_distance
_geom_bond_site_symmetry_2
Mg0 Mg10 3.032628 1_455
Mg0 Mg11 3.032628 1_455
Mg0 Mg5 3.075070 1_555
Mg0 Mg3 3.075070 1_555
Mg0 Mg1 3.196327 1_545
Mg0 Mg1 3.196327 1_555
Mg0 Mg5 3.207844 1_445
Mg0 Mg3 3.207845 1_455
Mg0 Mg6 3.288402 1_555
Mg0 Mg7 3.288402 1_555
Mg0 Mg8 3.288409 1_555
Mg0 Mg9 3.288409 1_555
Mg1 Mg12 3.049655 1_455
Mg1 Mg13 3.049655 1_455
Mg1 Mg3 3.084161 1_565
Mg1 Mg5 3.084161 1_555
Mg1 Mg3 3.199093 1_455
Mg1 Mg5 3.199094 1_455
Mg1 Mg8 3.267364 1_555
Mg1 Mg9 3.267364 1_555
Mg1 Mg6 3.267370 1_565
Mg1 Mg7 3.267370 1_565
Mg2 Ni0 2.734707 1_655
Mg2 Mg7 3.024469 1_554
Mg2 Mg6 3.024469 1_555
Mg2 Mg4 3.181654 1_555
Mg2 Mg4 3.210999 1_545
Mg3 Mg5 3.179251 1_555
Mg3 Mg5 3.213403 1_545
Mg3 Mg6 3.344013 1_555
Mg3 Mg7 3.344013 1_555
Mg4 Ni0 2.734708 1_655
Mg4 Mg8 3.024469 1_555
Mg4 Mg9 3.024469 1_554
Mg5 Mg8 3.344013 1_555
Mg5 Mg9 3.344013 1_555
Mg6 Ni0 2.757451 1_545
Mg6 Mg8 3.153051 1_545
Mg6 Mg8 3.239603 1_555
Mg7 Ni0 2.757451 1_546
Mg7 Mg9 3.153051 1_545
Mg7 Mg9 3.239603 1_555
Mg8 Ni0 2.757444 1_555
Mg9 Ni0 2.757444 1_556
Mg10 Mg2 2.956443 1_555
Mg10 Mg4 2.956450 1_545
Mg10 Mg3 3.028065 1_555
Mg10 Mg5 3.028072 1_545
Mg10 Mg8 3.090097 1_655
Mg10 Mg6 3.090097 1_655
Mg10 Mg12 3.196615 1_555
Mg10 Mg12 3.196615 1_545
Mg10 Mg8 3.236467 1_545
Mg10 Mg6 3.236467 1_555
Mg11 Mg2 2.956443 1_556
Mg11 Mg4 2.956450 1_546
Mg11 Mg3 3.028065 1_555
Mg11 Mg5 3.028072 1_545
Mg11 Mg9 3.090097 1_655
Mg11 Mg7 3.090097 1_655
Mg11 Mg13 3.196615 1_555
Mg11 Mg13 3.196615 1_545
Mg11 Mg9 3.236467 1_545
Mg11 Mg7 3.236467 1_555
Mg12 Ni0 2.879475 1_655
Mg12 Mg4 2.922031 1_555
Mg12 Mg2 2.922038 1_555
Mg12 Mg6 3.045726 1_665
Mg12 Mg8 3.045726 1_655
Mg12 Mg5 3.055250 1_555
Mg12 Mg3 3.055257 1_555
Mg12 Mg6 3.271687 1_555
Mg12 Mg8 3.271687 1_555
Mg13 Ni0 2.879475 1_656
Mg13 Mg4 2.922031 1_556
Mg13 Mg2 2.922038 1_556
Mg13 Mg7 3.045726 1_665
Mg13 Mg9 3.045726 1_655
Mg13 Mg5 3.055250 1_555
Mg13 Mg3 3.055257 1_555
Mg13 Mg7 3.271687 1_555
Mg13 Mg9 3.271687 1_555
Cu0 Mg4 2.757804 1_445
Cu0 Mg2 2.757804 1_455
Cu0 Mg6 2.776290 1_555
Cu0 Mg7 2.776290 1_554
Cu0 Mg8 2.776297 1_555
Cu0 Mg9 2.776297 1_554
Cu0 Mg11 2.932318 1_454
Cu0 Mg10 2.932318 1_455
