# generated using pymatgen
data_Na6OsN4
_symmetry_space_group_name_H-M   'P 1'
_cell_length_a   7.67486100
_cell_length_b   7.67486100
_cell_length_c   6.06762000
_cell_angle_alpha   90.00000000
_cell_angle_beta   90.00000000
_cell_angle_gamma   90.00000000
_symmetry_Int_Tables_number   1
_chemical_formula_structural   Na6OsN4
_chemical_formula_sum   'Na12 Os2 N8'
_cell_volume   357.40400230
_cell_formula_units_Z   2
loop_
 _symmetry_equiv_pos_site_id
 _symmetry_equiv_pos_as_xyz
  1  'x, y, z'
loop_
 _atom_site_type_symbol
 _atom_site_label
 _atom_site_symmetry_multiplicity
 _atom_site_fract_x
 _atom_site_fract_y
 _atom_site_fract_z
 _atom_site_occupancy
  Na  Na0  1  0.00000000  0.50000000  0.70194600  1
  Na  Na1  1  0.50000000  0.00000000  0.79805400  1
  Na  Na2  1  0.50000000  0.00000000  0.29805400  1
  Na  Na3  1  0.00000000  0.50000000  0.20194600  1
  Na  Na4  1  0.20785100  0.20785100  0.50000000  1
  Na  Na5  1  0.79214900  0.79214900  0.50000000  1
  Na  Na6  1  0.70785100  0.70785100  0.00000000  1
  Na  Na7  1  0.29214900  0.29214900  0.00000000  1
  Na  Na8  1  0.79214900  0.20785100  0.50000000  1
  Na  Na9  1  0.20785100  0.79214900  0.50000000  1
  Na  Na10  1  0.29214900  0.70785100  0.00000000  1
  Na  Na11  1  0.70785100  0.29214900  0.00000000  1
  Os  Os0  1  0.50000000  0.50000000  0.50000000  1
  Os  Os1  1  0.00000000  0.00000000  0.00000000  1
  N  N0  1  0.29596600  0.50000000  0.33361900  1
  N  N1  1  0.70403400  0.50000000  0.33361900  1
  N  N2  1  0.79596600  0.00000000  0.16638100  1
  N  N3  1  0.20403400  0.00000000  0.16638100  1
  N  N4  1  0.50000000  0.29596600  0.66638100  1
  N  N5  1  0.50000000  0.70403400  0.66638100  1
  N  N6  1  0.00000000  0.79596600  0.83361900  1
  N  N7  1  0.00000000  0.20403400  0.83361900  1
loop_
_geom_bond_atom_site_label_1
_geom_bond_atom_site_label_2
_geom_bond_distance
_geom_bond_site_symmetry_2
N0 Os0 1.863145 1_555
N0 Na3 2.407906 1_555
N0 Na9 2.550290 1_555
N0 Na4 2.550290 1_555
N0 Na10 2.577458 1_555
N0 Na7 2.577458 1_555
N1 Os0 1.863145 1_555
N1 Na3 2.407906 1_655
N1 Na5 2.550290 1_555
N1 Na8 2.550290 1_555
N1 Na11 2.577458 1_555
N1 Na6 2.577458 1_555
N2 Os1 1.863145 1_655
N2 Na2 2.407906 1_555
N2 Na11 2.550290 1_555
N2 Na6 2.550290 1_545
N2 Na8 2.577458 1_555
N2 Na5 2.577458 1_545
N3 Os1 1.863145 1_555
N3 Na2 2.407906 1_555
N3 Na10 2.550290 1_545
N3 Na7 2.550290 1_555
N3 Na4 2.577458 1_555
N3 Na9 2.577458 1_545
N4 Os0 1.863145 1_555
N4 Na1 2.407906 1_555
N4 Na8 2.550290 1_555
N4 Na4 2.550290 1_555
N4 Na7 2.577458 1_556
N4 Na11 2.577458 1_556
N5 Os0 1.863145 1_555
N5 Na1 2.407906 1_565
N5 Na5 2.550290 1_555
N5 Na9 2.550290 1_555
N5 Na6 2.577458 1_556
N5 Na10 2.577458 1_556
N6 Os1 1.863145 1_566
N6 Na0 2.407906 1_555
N6 Na6 2.550290 1_456
N6 Na10 2.550290 1_556
N6 Na9 2.577458 1_555
N6 Na5 2.577458 1_455
N7 Os1 1.863145 1_556
N7 Na0 2.407906 1_555
N7 Na11 2.550290 1_456
N7 Na7 2.550290 1_556
N7 Na4 2.577458 1_555
N7 Na8 2.577458 1_455
