# generated using pymatgen
data_NaCeMg14O16
_symmetry_space_group_name_H-M   'P 1'
_cell_length_a   8.72889167
_cell_length_b   8.72889167
_cell_length_c   4.39320901
_cell_angle_alpha   90.00000000
_cell_angle_beta   90.00000000
_cell_angle_gamma   90.00000000
_symmetry_Int_Tables_number   1
_chemical_formula_structural   NaCeMg14O16
_chemical_formula_sum   'Na1 Ce1 Mg14 O16'
_cell_volume   334.73418943
_cell_formula_units_Z   1
loop_
 _symmetry_equiv_pos_site_id
 _symmetry_equiv_pos_as_xyz
  1  'x, y, z'
loop_
 _atom_site_type_symbol
 _atom_site_label
 _atom_site_symmetry_multiplicity
 _atom_site_fract_x
 _atom_site_fract_y
 _atom_site_fract_z
 _atom_site_occupancy
  Na  Na0  1  0.50000000  0.50000000  -0.00000000  1
  Ce  Ce0  1  -0.00000000  0.00000000  -0.00000000  1
  Mg  Mg0  1  -0.00000000  0.50000000  -0.00000000  1
  Mg  Mg1  1  0.50000000  0.00000000  -0.00000000  1
  Mg  Mg2  1  -0.00000000  0.26874988  0.50000000  1
  Mg  Mg3  1  -0.00000000  0.73125012  0.50000000  1
  Mg  Mg4  1  0.50000000  0.25679721  0.50000000  1
  Mg  Mg5  1  0.50000000  0.74320279  0.50000000  1
  Mg  Mg6  1  0.26874988  -0.00000000  0.50000000  1
  Mg  Mg7  1  0.25679721  0.50000000  0.50000000  1
  Mg  Mg8  1  0.73125012  0.00000000  0.50000000  1
  Mg  Mg9  1  0.74320279  0.50000000  0.50000000  1
  Mg  Mg10  1  0.26242086  0.26242086  0.00000000  1
  Mg  Mg11  1  0.26242086  0.73757914  -0.00000000  1
  Mg  Mg12  1  0.73757914  0.26242086  0.00000000  1
  Mg  Mg13  1  0.73757914  0.73757914  -0.00000000  1
  O  O0  1  0.26375600  0.00000000  -0.00000000  1
  O  O1  1  0.23717199  0.50000000  -0.00000000  1
  O  O2  1  0.73624400  -0.00000000  -0.00000000  1
  O  O3  1  0.76282801  0.50000000  -0.00000000  1
  O  O4  1  0.24839341  0.24839341  0.50000000  1
  O  O5  1  0.24839341  0.75160659  0.50000000  1
  O  O6  1  0.75160659  0.24839341  0.50000000  1
  O  O7  1  0.75160659  0.75160659  0.50000000  1
  O  O8  1  -0.00000000  0.00000000  0.50000000  1
  O  O9  1  -0.00000000  0.50000000  0.50000000  1
  O  O10  1  0.50000000  0.00000000  0.50000000  1
  O  O11  1  0.50000000  0.50000000  0.50000000  1
  O  O12  1  -0.00000000  0.26375600  -0.00000000  1
  O  O13  1  -0.00000000  0.73624400  -0.00000000  1
  O  O14  1  0.50000000  0.23717199  0.00000000  1
  O  O15  1  0.50000000  0.76282801  -0.00000000  1
loop_
_geom_bond_atom_site_label_1
_geom_bond_atom_site_label_2
_geom_bond_distance
_geom_bond_site_symmetry_2
Na0 O11 2.196605 1_554
Na0 O11 2.196605 1_555
Na0 O1 2.294197 1_555
Na0 O3 2.294197 1_555
Na0 O15 2.294197 1_555
Na0 O14 2.294197 1_555
Ce0 O8 2.196605 1_554
Ce0 O8 2.196605 1_555
Ce0 O12 2.302298 1_555
Ce0 O0 2.302298 1_555
Ce0 O2 2.302298 1_455
Ce0 O13 2.302298 1_545
Mg0 O13 2.062148 1_555
Mg0 O12 2.062148 1_555
Mg0 O1 2.070249 1_555
Mg0 O3 2.070249 1_455
Mg0 O9 2.196605 1_555
Mg0 O9 2.196605 1_554
Mg1 O2 2.062148 1_555
Mg1 O0 2.062148 1_555
Mg1 O15 2.070249 1_545
Mg1 O14 2.070249 1_555
Mg1 O10 2.196605 1_555
Mg1 O10 2.196605 1_554
Mg2 O9 2.018557 1_555
Mg2 O4 2.175468 1_555
Mg2 O6 2.175468 1_455
Mg2 O12 2.197037 1_556
Mg2 O12 2.197037 1_555
Mg2 O8 2.345889 1_555
Mg3 O9 2.018557 1_555
Mg3 O5 2.175468 1_555
Mg3 O7 2.175468 1_455
Mg3 O13 2.197037 1_555
Mg3 O13 2.197037 1_556
Mg3 O8 2.345889 1_565
Mg4 O11 2.122891 1_555
Mg4 O4 2.197471 1_555
Mg4 O6 2.197471 1_555
Mg4 O14 2.203274 1_556
Mg4 O14 2.203274 1_555
Mg4 O10 2.241555 1_555
Mg5 O11 2.122891 1_555
Mg5 O7 2.197471 1_555
Mg5 O5 2.197471 1_555
Mg5 O15 2.203274 1_556
Mg5 O15 2.203274 1_555
Mg5 O10 2.241555 1_565
Mg6 O10 2.018557 1_555
Mg6 O4 2.175468 1_555
Mg6 O5 2.175468 1_545
Mg6 O0 2.197037 1_555
Mg6 O0 2.197037 1_556
Mg6 O8 2.345889 1_555
Mg7 O11 2.122891 1_555
Mg7 O4 2.197471 1_555
Mg7 O5 2.197471 1_555
Mg7 O1 2.203274 1_556
Mg7 O1 2.203274 1_555
Mg7 O9 2.241555 1_555
Mg8 O10 2.018557 1_555
Mg8 O6 2.175468 1_555
Mg8 O7 2.175468 1_545
Mg8 O2 2.197037 1_556
Mg8 O2 2.197037 1_555
Mg8 O8 2.345889 1_655
Mg9 O11 2.122891 1_555
Mg9 O6 2.197471 1_555
Mg9 O7 2.197471 1_555
Mg9 O3 2.203274 1_556
Mg9 O3 2.203274 1_555
Mg9 O9 2.241555 1_655
Mg10 O1 2.085481 1_555
Mg10 O14 2.085481 1_555
Mg10 O4 2.203419 1_554
Mg10 O4 2.203419 1_555
Mg10 O12 2.290673 1_555
Mg10 O0 2.290673 1_555
Mg11 O1 2.085481 1_555
Mg11 O15 2.085481 1_555
Mg11 O5 2.203419 1_555
Mg11 O5 2.203419 1_554
Mg11 O13 2.290673 1_555
Mg11 O0 2.290673 1_565
Mg12 O3 2.085481 1_555
Mg12 O14 2.085481 1_555
Mg12 O6 2.203419 1_555
Mg12 O6 2.203419 1_554
Mg12 O12 2.290673 1_655
Mg12 O2 2.290673 1_555
Mg13 O3 2.085481 1_555
Mg13 O15 2.085481 1_555
Mg13 O7 2.203419 1_555
Mg13 O7 2.203419 1_554
Mg13 O13 2.290673 1_655
Mg13 O2 2.290673 1_565
