# generated using pymatgen
data_Lu3Fe2Si3
_symmetry_space_group_name_H-M   'P 1'
_cell_length_a   5.49885391
_cell_length_b   5.49885391
_cell_length_c   13.43949661
_cell_angle_alpha   90.00000000
_cell_angle_beta   90.00000000
_cell_angle_gamma   136.59508234
_symmetry_Int_Tables_number   1
_chemical_formula_structural   Lu3Fe2Si3
_chemical_formula_sum   'Lu6 Fe4 Si6'
_cell_volume   279.24077513
_cell_formula_units_Z   2
loop_
 _symmetry_equiv_pos_site_id
 _symmetry_equiv_pos_as_xyz
  1  'x, y, z'
loop_
 _atom_site_type_symbol
 _atom_site_label
 _atom_site_symmetry_multiplicity
 _atom_site_fract_x
 _atom_site_fract_y
 _atom_site_fract_z
 _atom_site_occupancy
  Lu  Lu0  1  0.63307549  0.36692451  0.24994260  1
  Lu  Lu1  1  0.36692451  0.63307549  0.74994260  1
  Lu  Lu2  1  0.91800342  0.08199658  0.11276958  1
  Lu  Lu3  1  0.08204897  0.91795103  0.88723009  1
  Lu  Lu4  1  0.08199658  0.91800342  0.61276958  1
  Lu  Lu5  1  0.91795103  0.08204897  0.38723009  1
  Fe  Fe0  1  0.78638275  0.21361725  0.58248284  1
  Fe  Fe1  1  0.21362671  0.78637329  0.41757745  1
  Fe  Fe2  1  0.21361725  0.78638275  0.08248284  1
  Fe  Fe3  1  0.78637329  0.21362671  0.91757745  1
  Si  Si0  1  0.32858238  0.67141762  0.24998272  1
  Si  Si1  1  0.67141762  0.32858238  0.74998272  1
  Si  Si2  1  0.61613018  0.38386982  0.03899752  1
  Si  Si3  1  0.38383862  0.61616138  0.96101820  1
  Si  Si4  1  0.38386982  0.61613018  0.53899752  1
  Si  Si5  1  0.61616138  0.38383862  0.46101820  1
loop_
_geom_bond_atom_site_label_1
_geom_bond_atom_site_label_2
_geom_bond_distance
_geom_bond_site_symmetry_2
Lu0 Si2 2.840278 1_555
Lu0 Si5 2.842010 1_555
Lu0 Si0 2.850546 1_545
Lu0 Si0 2.850546 1_655
Lu0 Si0 3.111358 1_555
Lu1 Si4 2.840278 1_555
Lu1 Si3 2.842010 1_555
Lu1 Si1 2.850546 1_455
Lu1 Si1 2.850546 1_565
Lu1 Si1 3.111358 1_555
Lu2 Si0 2.893134 1_545
Lu2 Si0 2.893134 1_655
Lu2 Si3 2.901035 1_544
Lu2 Si3 2.901035 1_654
Lu2 Si2 3.035832 1_655
Lu2 Si2 3.035832 1_545
Lu2 Si2 3.240011 1_555
Lu3 Si1 2.893258 1_455
Lu3 Si1 2.893258 1_565
Lu3 Si2 2.901084 1_566
Lu3 Si2 2.901084 1_456
Lu3 Si3 3.036472 1_565
Lu3 Si3 3.036472 1_455
Lu3 Si3 3.239264 1_555
Lu4 Si1 2.893134 1_565
Lu4 Si1 2.893134 1_455
Lu4 Si5 2.901035 1_455
Lu4 Si5 2.901035 1_565
Lu4 Si4 3.035832 1_565
Lu4 Si4 3.035832 1_455
Lu4 Si4 3.240011 1_555
Lu5 Si0 2.893258 1_545
Lu5 Si0 2.893258 1_655
Lu5 Si4 2.901084 1_545
Lu5 Si4 2.901084 1_655
Lu5 Si5 3.036472 1_655
Lu5 Si5 3.036472 1_545
Lu5 Si5 3.239264 1_555
Fe0 Si4 2.338496 1_655
Fe0 Si4 2.338496 1_545
Fe0 Si5 2.385401 1_555
Fe0 Si1 2.539194 1_555
Fe0 Lu4 2.943132 1_545
Fe0 Lu4 2.943132 1_655
Fe0 Lu5 2.948434 1_555
Fe0 Lu4 3.047929 1_645
Fe0 Lu1 3.142789 1_545
Fe0 Lu1 3.142789 1_655
Fe1 Si5 2.338252 1_455
Fe1 Si5 2.338252 1_565
Fe1 Si4 2.385153 1_555
Fe1 Si0 2.540280 1_555
Fe1 Lu5 2.942797 1_455
Fe1 Lu5 2.942797 1_565
Fe1 Lu4 2.947998 1_555
Fe1 Lu5 3.048664 1_465
Fe1 Lu0 3.144500 1_455
Fe1 Lu0 3.144500 1_565
Fe2 Si2 2.338496 1_455
Fe2 Si2 2.338496 1_565
Fe2 Si3 2.385401 1_554
Fe2 Si0 2.539194 1_555
Fe2 Lu2 2.943132 1_565
Fe2 Lu2 2.943132 1_455
Fe2 Lu3 2.948434 1_554
Fe2 Lu2 3.047929 1_465
Fe2 Lu0 3.142789 1_455
Fe2 Lu0 3.142789 1_565
Fe3 Si3 2.338252 1_655
Fe3 Si3 2.338252 1_545
Fe3 Si2 2.385153 1_556
Fe3 Si1 2.540280 1_555
Fe3 Lu3 2.942797 1_655
Fe3 Lu3 2.942797 1_545
Fe3 Lu2 2.947998 1_556
Fe3 Lu3 3.048664 1_645
Fe3 Lu1 3.144500 1_545
Fe3 Lu1 3.144500 1_655
Si2 Si3 2.594657 1_554
Si4 Si5 2.594657 1_555
