# generated using pymatgen
data_SrEu2BeO5
_symmetry_space_group_name_H-M   'P 1'
_cell_length_a   6.64189600
_cell_length_b   7.25606700
_cell_length_c   9.63504100
_cell_angle_alpha   90.00000000
_cell_angle_beta   90.00000000
_cell_angle_gamma   90.00000000
_symmetry_Int_Tables_number   1
_chemical_formula_structural   SrEu2BeO5
_chemical_formula_sum   'Sr4 Eu8 Be4 O20'
_cell_volume   464.35157432
_cell_formula_units_Z   4
loop_
 _symmetry_equiv_pos_site_id
 _symmetry_equiv_pos_as_xyz
  1  'x, y, z'
loop_
 _atom_site_type_symbol
 _atom_site_label
 _atom_site_symmetry_multiplicity
 _atom_site_fract_x
 _atom_site_fract_y
 _atom_site_fract_z
 _atom_site_occupancy
  Sr  Sr0  1  0.58479600  0.98076200  0.67438600  1
  Sr  Sr1  1  0.41520400  0.48076200  0.32561400  1
  Sr  Sr2  1  0.08479600  0.48076200  0.82561400  1
  Sr  Sr3  1  0.91520400  0.98076200  0.17438600  1
  Eu  Eu0  1  0.08792100  0.74776400  0.52198600  1
  Eu  Eu1  1  0.41207900  0.74776400  0.02198600  1
  Eu  Eu2  1  0.91207900  0.24776400  0.47801400  1
  Eu  Eu3  1  0.58792100  0.24776400  0.97801400  1
  Eu  Eu4  1  0.91952500  0.52203200  0.17358600  1
  Eu  Eu5  1  0.08047500  0.02203200  0.82641400  1
  Eu  Eu6  1  0.41952500  0.02203200  0.32641400  1
  Eu  Eu7  1  0.58047500  0.52203200  0.67358600  1
  Be  Be0  1  0.69157200  0.74959800  0.39948800  1
  Be  Be1  1  0.80842800  0.74959800  0.89948800  1
  Be  Be2  1  0.30842800  0.24959800  0.60051200  1
  Be  Be3  1  0.19157200  0.24959800  0.10051200  1
  O  O0  1  0.01869900  0.74987100  0.99123500  1
  O  O1  1  0.48130100  0.74987100  0.49123500  1
  O  O2  1  0.98130100  0.24987100  0.00876500  1
  O  O3  1  0.51869900  0.24987100  0.50876500  1
  O  O4  1  0.31366200  0.05861500  0.06867700  1
  O  O5  1  0.19065400  0.44093800  0.56698900  1
  O  O6  1  0.68633800  0.55861500  0.93132300  1
  O  O7  1  0.80934600  0.94093800  0.43301100  1
  O  O8  1  0.69065400  0.94093800  0.93301100  1
  O  O9  1  0.81366200  0.55861500  0.43132300  1
  O  O10  1  0.30934600  0.44093800  0.06698900  1
  O  O11  1  0.18633800  0.05861500  0.56867700  1
  O  O12  1  0.63033900  0.75062000  0.22779500  1
  O  O13  1  0.86966100  0.75062000  0.72779500  1
  O  O14  1  0.36966100  0.25062000  0.77220500  1
  O  O15  1  0.13033900  0.25062000  0.27220500  1
  O  O16  1  0.16333700  0.74980000  0.28333600  1
  O  O17  1  0.33666300  0.74980000  0.78333600  1
  O  O18  1  0.83666300  0.24980000  0.71666400  1
  O  O19  1  0.66333700  0.24980000  0.21666400  1
loop_
_geom_bond_atom_site_label_1
_geom_bond_atom_site_label_2
_geom_bond_distance
_geom_bond_site_symmetry_2
Eu0 O16 2.353376 1_555
Eu0 O5 2.368594 1_555
Eu0 O11 2.391068 1_565
Eu0 O9 2.442334 1_455
Eu0 O13 2.456450 1_455
Eu0 O7 2.474495 1_455
Eu0 O1 2.629579 1_555
Eu0 O17 3.011749 1_555
Eu1 O17 2.353376 1_554
Eu1 O10 2.368594 1_555
Eu1 O4 2.391068 1_565
Eu1 O6 2.442334 1_554
Eu1 O12 2.456450 1_555
Eu1 O8 2.474495 1_554
Eu1 O0 2.629579 1_554
Eu1 O16 3.011749 1_555
Eu2 O18 2.353376 1_555
Eu2 O7 2.368594 1_545
Eu2 O9 2.391068 1_555
Eu2 O11 2.442334 1_655
Eu2 O15 2.456450 1_655
Eu2 O5 2.474495 1_655
Eu2 O3 2.629579 1_555
Eu2 O19 3.011749 1_555
Eu3 O19 2.353376 1_556
Eu3 O8 2.368594 1_545
Eu3 O6 2.391068 1_555
Eu3 O4 2.442334 1_556
Eu3 O14 2.456450 1_555
Eu3 O10 2.474495 1_556
Eu3 O2 2.629579 1_556
Eu3 O18 3.011749 1_555
Eu4 O0 2.500783 1_654
Eu4 O16 2.544009 1_655
Eu4 O2 2.567136 1_555
Eu4 O12 2.590980 1_555
Eu4 O9 2.594546 1_555
Eu4 O15 2.596521 1_655
Eu4 O19 2.639994 1_555
Eu4 O6 2.813861 1_554
Eu4 O10 2.846894 1_655
Eu5 O2 2.500783 1_456
Eu5 O18 2.544009 1_455
Eu5 O0 2.567136 1_545
Eu5 O14 2.590980 1_555
Eu5 O11 2.594546 1_555
Eu5 O13 2.596521 1_445
Eu5 O17 2.639994 1_545
Eu5 O4 2.813861 1_556
Eu5 O8 2.846894 1_445
Eu6 O3 2.500783 1_555
Eu6 O19 2.544009 1_555
Eu6 O1 2.567136 1_545
Eu6 O15 2.590980 1_555
Eu6 O4 2.594546 1_555
Eu6 O12 2.596521 1_545
Eu6 O16 2.639994 1_545
Eu6 O11 2.813861 1_555
Eu6 O7 2.846894 1_545
Eu7 O1 2.500783 1_555
Eu7 O17 2.544009 1_555
Eu7 O3 2.567136 1_555
Eu7 O13 2.590980 1_555
Eu7 O6 2.594546 1_555
Eu7 O14 2.596521 1_555
Eu7 O18 2.639994 1_555
Eu7 O9 2.813861 1_555
Eu7 O5 2.846894 1_555
Be0 O7 1.625982 1_555
Be0 O9 1.634643 1_555
Be0 O1 1.652853 1_555
Be0 O12 1.703546 1_555
Be1 O8 1.625982 1_555
Be1 O6 1.634643 1_555
Be1 O0 1.652853 1_655
Be1 O13 1.703546 1_555
Be2 O5 1.625982 1_555
Be2 O11 1.634643 1_555
Be2 O3 1.652853 1_555
Be2 O14 1.703546 1_555
Be3 O10 1.625982 1_555
Be3 O4 1.634643 1_555
Be3 O2 1.652853 1_455
Be3 O15 1.703546 1_555
O0 Sr3 2.528519 1_456
O0 Sr2 2.559712 1_555
O1 Sr0 2.528519 1_555
O1 Sr1 2.559712 1_555
O2 Sr2 2.528519 1_654
O2 Sr3 2.559712 1_545
O3 Sr1 2.528519 1_555
O3 Sr0 2.559712 1_545
O4 Sr3 2.891459 1_445
O5 Sr2 2.605231 1_555
O5 Sr1 2.777872 1_555
O6 Sr2 2.891459 1_655
O7 Sr3 2.605231 1_555
O7 Sr0 2.777872 1_555
O8 Sr0 2.605231 1_555
O8 Sr3 2.777872 1_556
O9 Sr1 2.891459 1_555
O10 Sr1 2.605231 1_555
O10 Sr2 2.777872 1_554
O11 Sr0 2.891459 1_545
O12 Sr3 2.575518 1_555
O12 Sr1 2.600815 1_555
O13 Sr0 2.575518 1_555
O13 Sr2 2.600815 1_655
O14 Sr2 2.575518 1_555
O14 Sr0 2.600815 1_545
O15 Sr1 2.575518 1_555
O15 Sr3 2.600815 1_445
O16 Sr3 2.574229 1_455
O16 Sr1 2.602953 1_555
O17 Sr0 2.574229 1_555
O17 Sr2 2.602953 1_555
O18 Sr2 2.574229 1_655
O18 Sr0 2.602953 1_545
O19 Sr1 2.574229 1_555
O19 Sr3 2.602953 1_545
