# generated using pymatgen
data_K2TcC2S4NO4
_symmetry_space_group_name_H-M   'P 1'
_cell_length_a   9.26912545
_cell_length_b   16.43347600
_cell_length_c   7.90584485
_cell_angle_alpha   90.00000000
_cell_angle_beta   87.28073231
_cell_angle_gamma   90.00000000
_symmetry_Int_Tables_number   1
_chemical_formula_structural   K2TcC2S4NO4
_chemical_formula_sum   'K8 Tc4 C8 S16 N4 O16'
_cell_volume   1202.89350851
_cell_formula_units_Z   4
loop_
 _symmetry_equiv_pos_site_id
 _symmetry_equiv_pos_as_xyz
  1  'x, y, z'
loop_
 _atom_site_type_symbol
 _atom_site_label
 _atom_site_symmetry_multiplicity
 _atom_site_fract_x
 _atom_site_fract_y
 _atom_site_fract_z
 _atom_site_occupancy
  K  K0  1  0.41129200  0.68142900  0.73458100  1
  K  K1  1  0.91129200  0.81857100  0.23458100  1
  K  K2  1  0.58870800  0.31857100  0.26541900  1
  K  K3  1  0.08870800  0.18142900  0.76541900  1
  K  K4  1  0.13033500  0.45507700  0.71734800  1
  K  K5  1  0.63033500  0.04492300  0.21734800  1
  K  K6  1  0.86966500  0.54492300  0.28265200  1
  K  K7  1  0.36966500  0.95507700  0.78265200  1
  Tc  Tc0  1  0.24628400  0.68420600  0.24911100  1
  Tc  Tc1  1  0.74628400  0.81579400  0.74911100  1
  Tc  Tc2  1  0.75371600  0.31579400  0.75088900  1
  Tc  Tc3  1  0.25371600  0.18420600  0.25088900  1
  C  C0  1  0.34720200  0.50866400  0.18028900  1
  C  C1  1  0.84720200  0.99133600  0.68028900  1
  C  C2  1  0.65279800  0.49133600  0.81971100  1
  C  C3  1  0.15279800  0.00866400  0.31971100  1
  C  C4  1  0.36130100  0.85576500  0.16754600  1
  C  C5  1  0.86130100  0.64423500  0.66754600  1
  C  C6  1  0.63869900  0.14423500  0.83245400  1
  C  C7  1  0.13869900  0.35576500  0.33245400  1
  S  S0  1  0.24885400  0.57500000  0.04943200  1
  S  S1  1  0.74885400  0.92500000  0.54943200  1
  S  S2  1  0.75114600  0.42500000  0.95056800  1
  S  S3  1  0.25114600  0.07500000  0.45056800  1
  S  S4  1  0.39637300  0.57863900  0.35647400  1
  S  S5  1  0.89637300  0.92136100  0.85647400  1
  S  S6  1  0.60362700  0.42136100  0.64352600  1
  S  S7  1  0.10362700  0.07863900  0.14352600  1
  S  S8  1  0.25595100  0.79134800  0.04084300  1
  S  S9  1  0.75595100  0.70865200  0.54084300  1
  S  S10  1  0.74404900  0.20865200  0.95915700  1
  S  S11  1  0.24404900  0.29134800  0.45915700  1
  S  S12  1  0.41291600  0.78658800  0.33651200  1
  S  S13  1  0.91291600  0.71341200  0.83651200  1
  S  S14  1  0.58708400  0.21341200  0.66348800  1
  S  S15  1  0.08708400  0.28658800  0.16348800  1
  N  N0  1  0.09160400  0.68646400  0.36199300  1
  N  N1  1  0.59160400  0.81353600  0.86199200  1
  N  N2  1  0.90839600  0.31353600  0.63800800  1
  N  N3  1  0.40839600  0.18646400  0.13800800  1
  O  O0  1  0.38697700  0.43943000  0.15497600  1
  O  O1  1  0.88697700  0.06057000  0.65497600  1
  O  O2  1  0.61302300  0.56057000  0.84502400  1
  O  O3  1  0.11302300  0.93943000  0.34502400  1
  O  O4  1  0.40452100  0.92482700  0.13882600  1
  O  O5  1  0.90452100  0.57517300  0.63882600  1
  O  O6  1  0.59547900  0.07517300  0.86117400  1
  O  O7  1  0.09547900  0.42482700  0.36117400  1
  O  O8  1  0.35672200  0.54748800  0.53622300  1
  O  O9  1  0.85672200  0.95251200  0.03622300  1
  O  O10  1  0.64327800  0.45251200  0.46377700  1
  O  O11  1  0.14327800  0.04748800  0.96377700  1
  O  O12  1  0.40831200  0.82262800  0.51548500  1
  O  O13  1  0.90831200  0.67737200  0.01548500  1
  O  O14  1  0.59168800  0.17737200  0.48451500  1
  O  O15  1  0.09168800  0.32262800  0.98451500  1
loop_
_geom_bond_atom_site_label_1
_geom_bond_atom_site_label_2
_geom_bond_distance
_geom_bond_site_symmetry_2
K0 O8 2.763194 1_555
K0 O2 2.891096 1_555
K0 O12 2.896519 1_555
K0 N1 2.946333 1_555
K0 S8 3.296642 1_556
K0 S0 3.341605 1_556
K0 S9 3.505406 1_555
K1 O9 2.763194 1_555
K1 O3 2.891096 1_655
K1 O13 2.896519 1_555
K1 N0 2.946336 1_655
K1 S9 3.296642 1_555
K1 S1 3.341605 1_555
K1 S8 3.505406 1_655
K2 O10 2.763194 1_555
K2 O0 2.891096 1_555
K2 O14 2.896519 1_555
K2 N3 2.946333 1_555
K2 S10 3.296642 1_554
K2 S2 3.341605 1_554
K2 S11 3.505406 1_555
K3 O11 2.763194 1_555
K3 O1 2.891096 1_455
K3 O15 2.896519 1_555
K3 N2 2.946333 1_455
K3 S11 3.296642 1_555
K3 S3 3.341605 1_555
K3 S10 3.505406 1_455
K4 O7 2.892555 1_555
K4 O8 2.911173 1_555
K4 O5 2.963916 1_455
K4 O15 3.042271 1_555
K4 N2 3.187192 1_455
K4 S0 3.501018 1_556
K4 S11 3.508978 1_555
K5 O6 2.892555 1_554
K5 O9 2.911173 1_545
K5 O4 2.963916 1_545
K5 O14 3.042271 1_555
K5 N3 3.187192 1_555
K5 S1 3.501018 1_545
K5 S10 3.508978 1_554
K6 O5 2.892555 1_555
K6 O10 2.911173 1_555
K6 O7 2.963916 1_655
K6 O13 3.042271 1_555
K6 N0 3.187194 1_655
K6 S2 3.501018 1_554
K6 S9 3.508978 1_555
K7 O4 2.892555 1_556
K7 O11 2.911173 1_565
K7 O6 2.963916 1_565
K7 O12 3.042271 1_555
K7 N1 3.187192 1_555
K7 S3 3.501018 1_565
K7 S8 3.508978 1_556
C0 O0 1.209735 1_555
C0 S0 1.783016 1_555
C1 O1 1.209735 1_565
C1 S1 1.783016 1_555
C2 O2 1.209735 1_555
C2 S2 1.783016 1_555
C3 O3 1.209735 1_545
C3 S3 1.783016 1_555
C4 O4 1.221260 1_555
C4 S8 1.780557 1_555
C4 S12 1.834748 1_555
C5 O5 1.221260 1_555
C5 S9 1.780557 1_555
C5 S13 1.834748 1_555
C6 O6 1.221260 1_555
C6 S10 1.780557 1_555
C6 S14 1.834748 1_555
C7 O7 1.221260 1_555
C7 S11 1.780557 1_555
C7 S15 1.834748 1_555
S0 Tc0 2.389516 1_555
S1 Tc1 2.389516 1_555
S2 Tc2 2.389516 1_555
S3 Tc3 2.389516 1_555
S4 Tc0 2.403656 1_555
S5 Tc1 2.403656 1_555
S6 Tc2 2.403656 1_555
S7 Tc3 2.403656 1_555
S8 Tc0 2.409403 1_555
S9 Tc1 2.409403 1_555
S10 Tc2 2.409403 1_555
S11 Tc3 2.409403 1_555
S12 Tc0 2.407297 1_555
S13 Tc1 2.407297 1_555
S14 Tc2 2.407297 1_555
S15 Tc3 2.407297 1_555
N0 Tc0 1.652886 1_555
N1 Tc1 1.652882 1_555
N2 Tc2 1.652882 1_555
N3 Tc3 1.652882 1_555
O8 S4 1.538511 1_555
O9 S5 1.538511 1_554
O10 S6 1.538511 1_555
O11 S7 1.538511 1_556
O12 S12 1.532613 1_555
O13 S13 1.532613 1_554
O14 S14 1.532613 1_555
O15 S15 1.532613 1_556
