# generated using pymatgen
data_NdPO4
_symmetry_space_group_name_H-M   'P 1'
_cell_length_a   7.11355540
_cell_length_b   7.11355365
_cell_length_c   6.35113757
_cell_angle_alpha   90.00000000
_cell_angle_beta   90.00000000
_cell_angle_gamma   119.99999409
_symmetry_Int_Tables_number   1
_chemical_formula_structural   NdPO4
_chemical_formula_sum   'Nd3 P3 O12'
_cell_volume   278.32710798
_cell_formula_units_Z   3
loop_
 _symmetry_equiv_pos_site_id
 _symmetry_equiv_pos_as_xyz
  1  'x, y, z'
loop_
 _atom_site_type_symbol
 _atom_site_label
 _atom_site_symmetry_multiplicity
 _atom_site_fract_x
 _atom_site_fract_y
 _atom_site_fract_z
 _atom_site_occupancy
  Nd  Nd0  1  -0.00000000  0.50000000  0.66666700  1
  Nd  Nd1  1  0.50000000  0.50000000  0.33333300  1
  Nd  Nd2  1  0.50000000  -0.00000000  -0.00000000  1
  P  P0  1  -0.00000000  0.50000000  0.16666700  1
  P  P1  1  0.50000000  0.50000000  0.83333300  1
  P  P2  1  0.50000000  -0.00000000  0.50000000  1
  O  O0  1  0.44635226  0.30942347  0.98166573  1
  O  O1  1  0.69057653  0.13692979  0.64833273  1
  O  O2  1  0.86307021  0.55364774  0.31499873  1
  O  O3  1  0.13692979  0.44635226  0.31499873  1
  O  O4  1  0.55364774  0.86307021  0.35166727  1
  O  O5  1  0.55364774  0.69057653  0.98166573  1
  O  O6  1  0.44635226  0.13692979  0.35166727  1
  O  O7  1  0.30942347  0.44635226  0.68500127  1
  O  O8  1  0.13692979  0.69057653  0.01833427  1
  O  O9  1  0.86307021  0.30942347  0.01833427  1
  O  O10  1  0.69057653  0.55364774  0.68500127  1
  O  O11  1  0.30942347  0.86307021  0.64833273  1
loop_
_geom_bond_atom_site_label_1
_geom_bond_atom_site_label_2
_geom_bond_distance
_geom_bond_site_symmetry_2
Nd0 O11 2.417441 1_555
Nd0 O1 2.417441 1_455
Nd0 O7 2.417445 1_555
Nd0 O10 2.417445 1_455
Nd0 O9 2.540591 1_456
Nd0 O8 2.540591 1_556
Nd0 O3 2.540600 1_555
Nd0 O2 2.540600 1_455
Nd1 O4 2.417437 1_555
Nd1 O6 2.417437 1_555
Nd1 O3 2.417438 1_555
Nd1 O2 2.417438 1_555
Nd1 O5 2.540591 1_554
Nd1 O0 2.540591 1_554
Nd1 O10 2.540596 1_555
Nd1 O7 2.540596 1_555
Nd2 O9 2.417441 1_555
Nd2 O8 2.417441 1_545
Nd2 O0 2.417445 1_554
Nd2 O5 2.417445 1_544
Nd2 O11 2.540592 1_544
Nd2 O1 2.540592 1_554
Nd2 O6 2.540594 1_555
Nd2 O4 2.540594 1_545
O0 P1 1.534162 1_555
O1 P2 1.534164 1_555
O2 P0 1.534164 1_655
O3 P0 1.534164 1_555
O4 P2 1.534167 1_565
O5 P1 1.534162 1_555
O6 P2 1.534167 1_555
O7 P1 1.534158 1_555
O8 P0 1.534164 1_555
O9 P0 1.534164 1_655
O10 P1 1.534158 1_555
O11 P2 1.534164 1_565
