# generated using pymatgen
data_Mg2ZnSb2
_symmetry_space_group_name_H-M   'P 1'
_cell_length_a   4.43724395
_cell_length_b   4.43724395
_cell_length_c   7.26547851
_cell_angle_alpha   90.00000000
_cell_angle_beta   90.00000000
_cell_angle_gamma   119.99999302
_symmetry_Int_Tables_number   1
_chemical_formula_structural   Mg2ZnSb2
_chemical_formula_sum   'Mg2 Zn1 Sb2'
_cell_volume   123.88579069
_cell_formula_units_Z   1
loop_
 _symmetry_equiv_pos_site_id
 _symmetry_equiv_pos_as_xyz
  1  'x, y, z'
loop_
 _atom_site_type_symbol
 _atom_site_label
 _atom_site_symmetry_multiplicity
 _atom_site_fract_x
 _atom_site_fract_y
 _atom_site_fract_z
 _atom_site_occupancy
  Mg  Mg0  1  0.00000000  -0.00000000  0.37669802  1
  Mg  Mg1  1  0.33333300  0.66666700  0.00969235  1
  Zn  Zn0  1  0.66666700  0.33333300  0.62299330  1
  Sb  Sb0  1  0.66666700  0.33333300  0.22694831  1
  Sb  Sb1  1  0.00000000  0.00000000  0.76366702  1
loop_
_geom_bond_atom_site_label_1
_geom_bond_atom_site_label_2
_geom_bond_distance
_geom_bond_site_symmetry_2
Mg0 Sb0 2.783304 1_455
Mg0 Sb0 2.783308 1_555
Mg0 Sb0 2.783308 1_445
Mg0 Sb1 2.811515 1_555
Mg0 Zn0 3.124928 1_455
Mg0 Zn0 3.124931 1_445
Mg0 Zn0 3.124931 1_555
Mg1 Sb0 3.009085 1_455
Mg1 Sb0 3.009085 1_565
Mg1 Sb0 3.009092 1_555
Mg1 Sb1 3.123805 1_564
Mg1 Sb1 3.123808 1_664
Mg1 Sb1 3.123808 1_554
Sb0 Zn0 2.877456 1_555
Sb1 Zn0 2.758195 1_455
Sb1 Zn0 2.758199 1_555
Sb1 Zn0 2.758199 1_445
