# generated using pymatgen
data_NaMn2O4
_symmetry_space_group_name_H-M   'P 1'
_cell_length_a   3.01549300
_cell_length_b   5.15293693
_cell_length_c   5.86204607
_cell_angle_alpha   106.94053110
_cell_angle_beta   91.05598670
_cell_angle_gamma   93.35809724
_symmetry_Int_Tables_number   1
_chemical_formula_structural   NaMn2O4
_chemical_formula_sum   'Na1 Mn2 O4'
_cell_volume   86.92599248
_cell_formula_units_Z   1
loop_
 _symmetry_equiv_pos_site_id
 _symmetry_equiv_pos_as_xyz
  1  'x, y, z'
loop_
 _atom_site_type_symbol
 _atom_site_label
 _atom_site_symmetry_multiplicity
 _atom_site_fract_x
 _atom_site_fract_y
 _atom_site_fract_z
 _atom_site_occupancy
  Na  Na0  1  0.50000000  0.00000000  0.50000000  1
  Mn  Mn0  1  0.00000000  0.00000000  0.00000000  1
  Mn  Mn1  1  0.50000000  0.50000000  0.00000000  1
  O  O0  1  0.47459700  0.78390100  0.82456500  1
  O  O1  1  0.03590300  0.24902000  0.80999100  1
  O  O2  1  0.96409700  0.75098000  0.19000900  1
  O  O3  1  0.52540300  0.21609900  0.17543500  1
loop_
_geom_bond_atom_site_label_1
_geom_bond_atom_site_label_2
_geom_bond_distance
_geom_bond_site_symmetry_2
Na0 O1 2.418713 1_655
Na0 O2 2.418713 1_445
Na0 O1 2.419197 1_555
Na0 O2 2.419197 1_545
Na0 O0 2.468973 1_545
Na0 O3 2.468973 1_555
Mn0 O2 1.928733 1_445
Mn0 O1 1.928733 1_554
Mn0 O3 1.968162 1_555
Mn0 O0 1.968162 1_444
Mn0 O3 1.979738 1_455
Mn0 O0 1.979738 1_544
Mn1 O2 1.939797 1_555
Mn1 O1 1.939797 1_554
Mn1 O0 2.022526 1_554
Mn1 O3 2.022526 1_555
Mn1 O2 2.235272 1_455
Mn1 O1 2.235272 1_654
