# generated using pymatgen
data_Na4WO5
_symmetry_space_group_name_H-M   'P 1'
_cell_length_a   5.62316891
_cell_length_b   5.64614086
_cell_length_c   8.43697876
_cell_angle_alpha   109.42757272
_cell_angle_beta   101.49111575
_cell_angle_gamma   102.05254733
_symmetry_Int_Tables_number   1
_chemical_formula_structural   Na4WO5
_chemical_formula_sum   'Na8 W2 O10'
_cell_volume   236.33233153
_cell_formula_units_Z   2
loop_
 _symmetry_equiv_pos_site_id
 _symmetry_equiv_pos_as_xyz
  1  'x, y, z'
loop_
 _atom_site_type_symbol
 _atom_site_label
 _atom_site_symmetry_multiplicity
 _atom_site_fract_x
 _atom_site_fract_y
 _atom_site_fract_z
 _atom_site_occupancy
  Na  Na0  1  0.21049496  0.41741055  0.90390602  1
  Na  Na1  1  0.41420725  0.80139793  0.29271627  1
  Na  Na2  1  0.70066135  0.39571616  0.39725404  1
  Na  Na3  1  0.29933865  0.60428384  0.60274596  1
  Na  Na4  1  0.78950504  0.58258945  0.09609398  1
  Na  Na5  1  -0.00000000  -0.00000000  0.50000000  1
  Na  Na6  1  0.50000000  -0.00000000  0.00000000  1
  Na  Na7  1  0.58579275  0.19860207  0.70728373  1
  W  W0  1  0.89490717  0.79575940  0.79263329  1
  W  W1  1  0.10509283  0.20424060  0.20736671  1
  O  O0  1  0.60230139  0.62989797  0.84387370  1
  O  O1  1  0.39769861  0.37010203  0.15612630  1
  O  O2  1  0.68992708  0.81871541  0.59734582  1
  O  O3  1  0.31007292  0.18128459  0.40265418  1
  O  O4  1  0.80447942  0.02018361  0.24166162  1
  O  O5  1  0.19552058  0.97981639  0.75833838  1
  O  O6  1  0.88516521  0.15667300  0.96298140  1
  O  O7  1  0.11483479  0.84332700  0.03701860  1
  O  O8  1  0.05627383  0.52835525  0.31689412  1
  O  O9  1  0.94372617  0.47164475  0.68310588  1
loop_
_geom_bond_atom_site_label_1
_geom_bond_atom_site_label_2
_geom_bond_distance
_geom_bond_site_symmetry_2
Na0 O9 2.296141 1_455
Na0 O1 2.304516 1_556
Na0 O5 2.339492 1_545
Na0 O6 2.342866 1_455
Na0 O0 2.508970 1_555
Na0 O7 2.513548 1_556
Na1 O3 2.285005 1_565
Na1 O1 2.294077 1_555
Na1 O8 2.355051 1_555
Na1 O4 2.475094 1_565
Na1 O7 2.569663 1_555
Na1 O2 2.683447 1_555
Na2 O3 2.293009 1_555
Na2 O8 2.296029 1_655
Na2 O1 2.320010 1_555
Na2 O4 2.351691 1_555
Na2 O9 2.371176 1_555
Na2 O2 2.444643 1_555
Na3 O2 2.293009 1_555
Na3 O9 2.296029 1_455
Na3 O0 2.320010 1_555
Na3 O5 2.351691 1_555
Na3 O8 2.371176 1_555
Na3 O3 2.444643 1_555
Na4 O8 2.296141 1_655
Na4 O0 2.304516 1_554
Na4 O4 2.339492 1_565
Na4 O7 2.342866 1_655
Na4 O1 2.508970 1_555
Na4 O6 2.513548 1_554
Na5 O2 2.268658 1_445
Na5 O3 2.268658 1_555
Na5 O5 2.288052 1_545
Na5 O4 2.288052 1_455
Na5 O9 2.718112 1_455
Na5 O8 2.718112 1_545
Na6 O6 2.285642 1_554
Na6 O7 2.285642 1_545
Na6 O0 2.324973 1_544
Na6 O1 2.324973 1_555
Na6 O5 2.339780 1_544
Na6 O4 2.339780 1_555
Na7 O2 2.285005 1_545
Na7 O0 2.294077 1_555
Na7 O9 2.355051 1_555
Na7 O5 2.475094 1_545
Na7 O6 2.569663 1_555
Na7 O3 2.683447 1_555
O0 W0 1.918431 1_555
O1 W1 1.918431 1_555
O2 W0 1.872928 1_555
O3 W1 1.872928 1_555
O4 W1 1.918963 1_655
O5 W0 1.918963 1_455
O6 W1 2.080819 1_656
O6 W0 2.085863 1_545
O7 W0 2.080819 1_454
O7 W1 2.085863 1_565
O8 W1 1.861208 1_555
O9 W0 1.861208 1_555
