# generated using pymatgen
data_Sn17Os4
_symmetry_space_group_name_H-M   'P 1'
_cell_length_a   7.08319000
_cell_length_b   14.45987200
_cell_length_c   19.48516900
_cell_angle_alpha   90.00000000
_cell_angle_beta   90.00000000
_cell_angle_gamma   90.00000000
_symmetry_Int_Tables_number   1
_chemical_formula_structural   Sn17Os4
_chemical_formula_sum   'Sn68 Os16'
_cell_volume   1995.71038367
_cell_formula_units_Z   4
loop_
 _symmetry_equiv_pos_site_id
 _symmetry_equiv_pos_as_xyz
  1  'x, y, z'
loop_
 _atom_site_type_symbol
 _atom_site_label
 _atom_site_symmetry_multiplicity
 _atom_site_fract_x
 _atom_site_fract_y
 _atom_site_fract_z
 _atom_site_occupancy
  Sn  Sn0  1  0.55907200  0.09866700  0.00342200  1
  Sn  Sn1  1  0.44092800  0.90133300  0.99657800  1
  Sn  Sn2  1  0.44092800  0.90133300  0.50342200  1
  Sn  Sn3  1  0.44092800  0.59866700  0.49657800  1
  Sn  Sn4  1  0.55907200  0.09866700  0.49657800  1
  Sn  Sn5  1  0.55907200  0.40133300  0.50342200  1
  Sn  Sn6  1  0.55907200  0.40133300  0.99657800  1
  Sn  Sn7  1  0.44092800  0.59866700  0.00342200  1
  Sn  Sn8  1  0.13653600  0.06067100  0.07313900  1
  Sn  Sn9  1  0.86346400  0.93932900  0.92686100  1
  Sn  Sn10  1  0.86346400  0.93932900  0.57313900  1
  Sn  Sn11  1  0.86346400  0.56067100  0.42686100  1
  Sn  Sn12  1  0.13653600  0.06067100  0.42686100  1
  Sn  Sn13  1  0.13653600  0.43932900  0.57313900  1
  Sn  Sn14  1  0.13653600  0.43932900  0.92686100  1
  Sn  Sn15  1  0.86346400  0.56067100  0.07313900  1
  Sn  Sn16  1  0.20893100  0.61320900  0.17201500  1
  Sn  Sn17  1  0.79106900  0.38679100  0.82798500  1
  Sn  Sn18  1  0.79106900  0.38679100  0.67201500  1
  Sn  Sn19  1  0.79106900  0.11320900  0.32798500  1
  Sn  Sn20  1  0.20893100  0.61320900  0.32798500  1
  Sn  Sn21  1  0.20893100  0.88679100  0.67201500  1
  Sn  Sn22  1  0.20893100  0.88679100  0.82798500  1
  Sn  Sn23  1  0.79106900  0.11320900  0.17201500  1
  Sn  Sn24  1  0.04845600  0.30723100  0.25000000  1
  Sn  Sn25  1  0.95154400  0.69276900  0.75000000  1
  Sn  Sn26  1  0.95154400  0.80723100  0.25000000  1
  Sn  Sn27  1  0.04845600  0.19276900  0.75000000  1
  Sn  Sn28  1  0.37245200  0.18635600  0.17136800  1
  Sn  Sn29  1  0.62754800  0.81364400  0.82863200  1
  Sn  Sn30  1  0.62754800  0.81364400  0.67136800  1
  Sn  Sn31  1  0.62754800  0.68635600  0.32863200  1
  Sn  Sn32  1  0.37245200  0.18635600  0.32863200  1
  Sn  Sn33  1  0.37245200  0.31364400  0.67136800  1
  Sn  Sn34  1  0.37245200  0.31364400  0.82863200  1
  Sn  Sn35  1  0.62754800  0.68635600  0.17136800  1
  Sn  Sn36  1  0.25837700  0.25000000  0.00000000  1
  Sn  Sn37  1  0.74162300  0.75000000  0.00000000  1
  Sn  Sn38  1  0.74162300  0.75000000  0.50000000  1
  Sn  Sn39  1  0.25837700  0.25000000  0.50000000  1
  Sn  Sn40  1  0.22481500  0.00682100  0.25000000  1
  Sn  Sn41  1  0.77518500  0.99317900  0.75000000  1
  Sn  Sn42  1  0.77518500  0.50682100  0.25000000  1
  Sn  Sn43  1  0.22481500  0.49317900  0.75000000  1
  Sn  Sn44  1  0.68300300  0.33412300  0.15015900  1
  Sn  Sn45  1  0.31699700  0.66587700  0.84984100  1
  Sn  Sn46  1  0.31699700  0.66587700  0.65015900  1
  Sn  Sn47  1  0.31699700  0.83412300  0.34984100  1
  Sn  Sn48  1  0.68300300  0.33412300  0.34984100  1
  Sn  Sn49  1  0.68300300  0.16587700  0.65015900  1
  Sn  Sn50  1  0.68300300  0.16587700  0.84984100  1
  Sn  Sn51  1  0.31699700  0.83412300  0.15015900  1
  Sn  Sn52  1  0.83114000  0.25000000  0.00000000  1
  Sn  Sn53  1  0.16886000  0.75000000  0.00000000  1
  Sn  Sn54  1  0.16886000  0.75000000  0.50000000  1
  Sn  Sn55  1  0.83114000  0.25000000  0.50000000  1
  Sn  Sn56  1  0.37104700  0.43683800  0.25000000  1
  Sn  Sn57  1  0.62895300  0.56316200  0.75000000  1
  Sn  Sn58  1  0.62895300  0.93683800  0.25000000  1
  Sn  Sn59  1  0.37104700  0.06316200  0.75000000  1
  Sn  Sn60  1  0.16839300  0.41744700  0.09014000  1
  Sn  Sn61  1  0.83160700  0.58255300  0.90986000  1
  Sn  Sn62  1  0.83160700  0.58255300  0.59014000  1
  Sn  Sn63  1  0.83160700  0.91744700  0.40986000  1
  Sn  Sn64  1  0.16839300  0.41744700  0.40986000  1
  Sn  Sn65  1  0.16839300  0.08255300  0.59014000  1
  Sn  Sn66  1  0.16839300  0.08255300  0.90986000  1
  Sn  Sn67  1  0.83160700  0.91744700  0.09014000  1
  Os  Os0  1  0.48734800  0.00321500  0.12447400  1
  Os  Os1  1  0.51265200  0.99678500  0.87552600  1
  Os  Os2  1  0.51265200  0.99678500  0.62447400  1
  Os  Os3  1  0.51265200  0.50321500  0.37552600  1
  Os  Os4  1  0.48734800  0.00321500  0.37552600  1
  Os  Os5  1  0.48734800  0.49678500  0.62447400  1
  Os  Os6  1  0.48734800  0.49678500  0.87552600  1
  Os  Os7  1  0.51265200  0.50321500  0.12447400  1
  Os  Os8  1  0.02789000  0.24404300  0.11940100  1
  Os  Os9  1  0.97211000  0.75595700  0.88059900  1
  Os  Os10  1  0.97211000  0.75595700  0.61940100  1
  Os  Os11  1  0.97211000  0.74404300  0.38059900  1
  Os  Os12  1  0.02789000  0.24404300  0.38059900  1
  Os  Os13  1  0.02789000  0.25595700  0.61940100  1
  Os  Os14  1  0.02789000  0.25595700  0.88059900  1
  Os  Os15  1  0.97211000  0.74404300  0.11940100  1
loop_
_geom_bond_atom_site_label_1
_geom_bond_atom_site_label_2
_geom_bond_distance
_geom_bond_site_symmetry_2
Os0 Sn51 2.772128 1_545
Os0 Sn0 2.779689 1_555
Os0 Sn8 2.804523 1_555
Os0 Sn58 2.812413 1_545
Os0 Sn67 2.816327 1_545
Os0 Sn23 2.831246 1_555
Os0 Sn1 2.913566 1_544
Os0 Sn28 2.917220 1_555
Os0 Sn40 3.072967 1_555
Os1 Sn50 2.772128 1_565
Os1 Sn1 2.779689 1_555
Os1 Sn9 2.804523 1_555
Os1 Sn59 2.812413 1_565
Os1 Sn66 2.816327 1_565
Os1 Sn22 2.831246 1_555
Os1 Sn0 2.913566 1_566
Os1 Sn29 2.917220 1_555
Os1 Sn41 3.072967 1_555
Os2 Sn49 2.772128 1_565
Os2 Sn2 2.779689 1_555
Os2 Sn10 2.804523 1_555
Os2 Sn59 2.812413 1_565
Os2 Sn65 2.816327 1_565
Os2 Sn21 2.831246 1_555
Os2 Sn4 2.913566 1_565
Os2 Sn30 2.917220 1_555
Os2 Sn41 3.072967 1_555
Os3 Sn48 2.772128 1_555
Os3 Sn3 2.779689 1_555
Os3 Sn11 2.804523 1_555
Os3 Sn56 2.812413 1_555
Os3 Sn64 2.816327 1_555
Os3 Sn20 2.831246 1_555
Os3 Sn5 2.913566 1_555
Os3 Sn31 2.917220 1_555
Os3 Sn42 3.072967 1_555
Os4 Sn47 2.772128 1_545
Os4 Sn4 2.779689 1_555
Os4 Sn12 2.804523 1_555
Os4 Sn58 2.812413 1_545
Os4 Sn63 2.816327 1_545
Os4 Sn19 2.831246 1_555
Os4 Sn2 2.913566 1_545
Os4 Sn32 2.917220 1_555
Os4 Sn40 3.072967 1_555
Os5 Sn46 2.772128 1_555
Os5 Sn5 2.779689 1_555
Os5 Sn13 2.804523 1_555
Os5 Sn57 2.812413 1_555
Os5 Sn62 2.816327 1_555
Os5 Sn18 2.831246 1_555
Os5 Sn3 2.913566 1_555
Os5 Sn33 2.917220 1_555
Os5 Sn43 3.072967 1_555
Os6 Sn45 2.772128 1_555
Os6 Sn6 2.779689 1_555
Os6 Sn14 2.804523 1_555
Os6 Sn57 2.812413 1_555
Os6 Sn61 2.816327 1_555
Os6 Sn17 2.831246 1_555
Os6 Sn7 2.913566 1_556
Os6 Sn34 2.917220 1_555
Os6 Sn43 3.072967 1_555
Os7 Sn44 2.772128 1_555
Os7 Sn7 2.779689 1_555
Os7 Sn15 2.804523 1_555
Os7 Sn56 2.812413 1_555
Os7 Sn60 2.816327 1_555
Os7 Sn16 2.831246 1_555
Os7 Sn6 2.913566 1_554
Os7 Sn35 2.917220 1_555
Os7 Sn42 3.072967 1_555
Os8 Sn24 2.707724 1_555
Os8 Sn52 2.713378 1_455
Os8 Sn23 2.728355 1_455
Os8 Sn60 2.757276 1_555
Os8 Sn28 2.770857 1_555
Os8 Sn44 2.832592 1_455
Os8 Sn36 2.843515 1_555
Os8 Sn8 2.904381 1_555
Os9 Sn25 2.707724 1_555
Os9 Sn53 2.713378 1_656
Os9 Sn22 2.728355 1_655
Os9 Sn61 2.757276 1_555
Os9 Sn29 2.770857 1_555
Os9 Sn45 2.832592 1_655
Os9 Sn37 2.843515 1_556
Os9 Sn9 2.904381 1_555
Os10 Sn25 2.707724 1_555
Os10 Sn54 2.713378 1_655
Os10 Sn21 2.728355 1_655
Os10 Sn62 2.757276 1_555
Os10 Sn30 2.770857 1_555
Os10 Sn46 2.832592 1_655
Os10 Sn38 2.843515 1_555
Os10 Sn10 2.904381 1_555
Os11 Sn26 2.707724 1_555
Os11 Sn54 2.713378 1_655
Os11 Sn20 2.728355 1_655
Os11 Sn63 2.757276 1_555
Os11 Sn31 2.770857 1_555
Os11 Sn47 2.832592 1_655
Os11 Sn38 2.843515 1_555
Os11 Sn11 2.904381 1_555
Os12 Sn24 2.707724 1_555
Os12 Sn55 2.713378 1_455
Os12 Sn19 2.728355 1_455
Os12 Sn64 2.757276 1_555
Os12 Sn32 2.770857 1_555
Os12 Sn48 2.832592 1_455
Os12 Sn39 2.843515 1_555
Os12 Sn12 2.904381 1_555
Os13 Sn27 2.707724 1_555
Os13 Sn55 2.713378 1_455
Os13 Sn18 2.728355 1_455
Os13 Sn65 2.757276 1_555
Os13 Sn33 2.770857 1_555
Os13 Sn49 2.832592 1_455
Os13 Sn39 2.843515 1_555
Os13 Sn13 2.904381 1_555
Os14 Sn27 2.707724 1_555
Os14 Sn52 2.713378 1_456
Os14 Sn17 2.728355 1_455
Os14 Sn66 2.757276 1_555
Os14 Sn34 2.770857 1_555
Os14 Sn50 2.832592 1_455
Os14 Sn36 2.843515 1_556
Os14 Sn14 2.904381 1_555
Os15 Sn26 2.707724 1_555
Os15 Sn53 2.713378 1_655
Os15 Sn16 2.728355 1_655
Os15 Sn67 2.757276 1_555
Os15 Sn35 2.770857 1_555
Os15 Sn51 2.832592 1_655
Os15 Sn37 2.843515 1_555
Os15 Sn15 2.904381 1_555
