# generated using pymatgen
data_MgSn
_symmetry_space_group_name_H-M   'P 1'
_cell_length_a   3.51078985
_cell_length_b   3.51079120
_cell_length_c   13.43272153
_cell_angle_alpha   90.00000000
_cell_angle_beta   90.00000000
_cell_angle_gamma   119.99999714
_symmetry_Int_Tables_number   1
_chemical_formula_structural   MgSn
_chemical_formula_sum   'Mg3 Sn3'
_cell_volume   143.38525438
_cell_formula_units_Z   3
loop_
 _symmetry_equiv_pos_site_id
 _symmetry_equiv_pos_as_xyz
  1  'x, y, z'
loop_
 _atom_site_type_symbol
 _atom_site_label
 _atom_site_symmetry_multiplicity
 _atom_site_fract_x
 _atom_site_fract_y
 _atom_site_fract_z
 _atom_site_occupancy
  Mg  Mg0  1  0.00000000  0.00000000  0.00000000  1
  Mg  Mg1  1  0.66666700  0.33333300  0.33333300  1
  Mg  Mg2  1  0.33333300  0.66666700  0.66666700  1
  Sn  Sn0  1  0.33333300  0.66666700  0.16666700  1
  Sn  Sn1  1  -0.00000000  -0.00000000  0.50000000  1
  Sn  Sn2  1  0.66666700  0.33333300  0.83333300  1
loop_
_geom_bond_atom_site_label_1
_geom_bond_atom_site_label_2
_geom_bond_distance
_geom_bond_site_symmetry_2
Mg0 Sn0 3.020054 1_545
Mg0 Sn2 3.020054 1_454
Mg0 Sn2 3.020056 1_554
Mg0 Sn0 3.020056 1_445
Mg0 Sn2 3.020057 1_444
Mg0 Sn0 3.020057 1_555
Mg1 Sn0 3.020044 1_655
Mg1 Sn0 3.020045 1_545
Mg1 Sn0 3.020049 1_555
Mg1 Sn1 3.020054 1_655
Mg1 Sn1 3.020056 1_555
Mg1 Sn1 3.020057 1_665
Mg2 Sn2 3.020044 1_455
Mg2 Sn2 3.020045 1_565
Mg2 Sn2 3.020049 1_555
Mg2 Sn1 3.020054 1_565
Mg2 Sn1 3.020056 1_665
Mg2 Sn1 3.020057 1_555
