# generated using pymatgen
data_YPO4
_symmetry_space_group_name_H-M   'P 1'
_cell_length_a   6.96041147
_cell_length_b   6.96041147
_cell_length_c   6.29244000
_cell_angle_alpha   90.00000000
_cell_angle_beta   90.00000000
_cell_angle_gamma   119.99999496
_symmetry_Int_Tables_number   1
_chemical_formula_structural   YPO4
_chemical_formula_sum   'Y3 P3 O12'
_cell_volume   264.00950623
_cell_formula_units_Z   3
loop_
 _symmetry_equiv_pos_site_id
 _symmetry_equiv_pos_as_xyz
  1  'x, y, z'
loop_
 _atom_site_type_symbol
 _atom_site_label
 _atom_site_symmetry_multiplicity
 _atom_site_fract_x
 _atom_site_fract_y
 _atom_site_fract_z
 _atom_site_occupancy
  Y  Y0  1  0.00000000  0.50000000  0.16666700  1
  Y  Y1  1  0.50000000  0.50000000  0.83333300  1
  Y  Y2  1  0.50000000  0.00000000  0.50000000  1
  P  P0  1  0.00000000  0.50000000  0.66666700  1
  P  P1  1  0.50000000  0.50000000  0.33333300  1
  P  P2  1  0.50000000  0.00000000  0.00000000  1
  O  O0  1  0.14083300  0.44522900  0.81918100  1
  O  O1  1  0.55477100  0.69560500  0.48584800  1
  O  O2  1  0.30439500  0.85916700  0.15251400  1
  O  O3  1  0.85916700  0.55477100  0.81918100  1
  O  O4  1  0.44522900  0.30439500  0.48584800  1
  O  O5  1  0.69560500  0.14083300  0.15251400  1
  O  O6  1  0.44522900  0.14083300  0.84748600  1
  O  O7  1  0.69560500  0.55477100  0.18081900  1
  O  O8  1  0.85916700  0.30439500  0.51415200  1
  O  O9  1  0.55477100  0.85916700  0.84748600  1
  O  O10  1  0.30439500  0.44522900  0.18081900  1
  O  O11  1  0.14083300  0.69560500  0.51415200  1
loop_
_geom_bond_atom_site_label_1
_geom_bond_atom_site_label_2
_geom_bond_distance
_geom_bond_site_symmetry_2
O0 P0 1.549495 1_555
O0 Y1 2.334516 1_555
O0 Y0 2.502174 1_556
O1 P1 1.549504 1_555
O1 Y2 2.334509 1_565
O1 Y1 2.502171 1_555
O2 P2 1.549499 1_565
O2 Y0 2.334513 1_555
O2 Y2 2.502176 1_565
O3 P0 1.549495 1_655
O3 Y1 2.334516 1_555
O3 Y0 2.502174 1_656
O4 P1 1.549504 1_555
O4 Y2 2.334509 1_555
O4 Y1 2.502171 1_555
O5 P2 1.549499 1_555
O5 Y0 2.334513 1_655
O5 Y2 2.502176 1_555
O6 P2 1.549495 1_556
O6 Y1 2.334516 1_555
O6 Y2 2.502174 1_555
O7 P1 1.549500 1_555
O7 Y0 2.334509 1_655
O7 Y1 2.502177 1_554
O8 P0 1.549503 1_655
O8 Y2 2.334513 1_555
O8 Y0 2.502171 1_655
O9 P2 1.549495 1_566
O9 Y1 2.334516 1_555
O9 Y2 2.502174 1_565
O10 P1 1.549500 1_555
O10 Y0 2.334509 1_555
O10 Y1 2.502177 1_554
O11 P0 1.549503 1_555
O11 Y2 2.334513 1_565
O11 Y0 2.502171 1_555
