# generated using pymatgen
data_Na4Zn3Se5
_symmetry_space_group_name_H-M   'P 1'
_cell_length_a   4.13433100
_cell_length_b   13.78183500
_cell_length_c   19.68580400
_cell_angle_alpha   90.00000000
_cell_angle_beta   90.00000000
_cell_angle_gamma   90.00000000
_symmetry_Int_Tables_number   1
_chemical_formula_structural   Na4Zn3Se5
_chemical_formula_sum   'Na16 Zn12 Se20'
_cell_volume   1121.67088408
_cell_formula_units_Z   4
loop_
 _symmetry_equiv_pos_site_id
 _symmetry_equiv_pos_as_xyz
  1  'x, y, z'
loop_
 _atom_site_type_symbol
 _atom_site_label
 _atom_site_symmetry_multiplicity
 _atom_site_fract_x
 _atom_site_fract_y
 _atom_site_fract_z
 _atom_site_occupancy
  Na  Na0  1  0.25000000  0.99894400  0.76719300  1
  Na  Na1  1  0.25000000  0.49894400  0.73280700  1
  Na  Na2  1  0.75000000  0.00105600  0.23280700  1
  Na  Na3  1  0.75000000  0.50105600  0.26719300  1
  Na  Na4  1  0.25000000  0.00718900  0.41722300  1
  Na  Na5  1  0.25000000  0.50718900  0.08277700  1
  Na  Na6  1  0.75000000  0.99281100  0.58277700  1
  Na  Na7  1  0.75000000  0.49281100  0.91722300  1
  Na  Na8  1  0.25000000  0.11107000  0.95028300  1
  Na  Na9  1  0.25000000  0.61107000  0.54971700  1
  Na  Na10  1  0.75000000  0.88893000  0.04971700  1
  Na  Na11  1  0.75000000  0.38893000  0.45028300  1
  Na  Na12  1  0.25000000  0.27339100  0.83284600  1
  Na  Na13  1  0.25000000  0.77339100  0.66715400  1
  Na  Na14  1  0.75000000  0.72660900  0.16715400  1
  Na  Na15  1  0.75000000  0.22660900  0.33284600  1
  Zn  Zn0  1  0.25000000  0.20867100  0.53968200  1
  Zn  Zn1  1  0.25000000  0.70867100  0.96031800  1
  Zn  Zn2  1  0.75000000  0.79132900  0.46031800  1
  Zn  Zn3  1  0.75000000  0.29132900  0.03968200  1
  Zn  Zn4  1  0.25000000  0.31902800  0.21730700  1
  Zn  Zn5  1  0.25000000  0.81902800  0.28269300  1
  Zn  Zn6  1  0.75000000  0.68097200  0.78269300  1
  Zn  Zn7  1  0.75000000  0.18097200  0.71730700  1
  Zn  Zn8  1  0.25000000  0.57513800  0.36880700  1
  Zn  Zn9  1  0.25000000  0.07513800  0.13119300  1
  Zn  Zn10  1  0.75000000  0.42486200  0.63119300  1
  Zn  Zn11  1  0.75000000  0.92486200  0.86880700  1
  Se  Se0  1  0.25000000  0.12442200  0.65311300  1
  Se  Se1  1  0.25000000  0.62442200  0.84688700  1
  Se  Se2  1  0.75000000  0.87557800  0.34688700  1
  Se  Se3  1  0.75000000  0.37557800  0.15311300  1
  Se  Se4  1  0.25000000  0.14656000  0.24661200  1
  Se  Se5  1  0.25000000  0.64656000  0.25338800  1
  Se  Se6  1  0.75000000  0.85344000  0.75338800  1
  Se  Se7  1  0.75000000  0.35344000  0.74661200  1
  Se  Se8  1  0.25000000  0.34424800  0.97556800  1
  Se  Se9  1  0.25000000  0.84424800  0.52443200  1
  Se  Se10  1  0.75000000  0.65575200  0.02443200  1
  Se  Se11  1  0.75000000  0.15575200  0.47556800  1
  Se  Se12  1  0.25000000  0.39068200  0.34029100  1
  Se  Se13  1  0.25000000  0.89068200  0.15970900  1
  Se  Se14  1  0.75000000  0.60931800  0.65970900  1
  Se  Se15  1  0.75000000  0.10931800  0.84029100  1
  Se  Se16  1  0.25000000  0.38867300  0.56226800  1
  Se  Se17  1  0.25000000  0.88867300  0.93773200  1
  Se  Se18  1  0.75000000  0.61132700  0.43773200  1
  Se  Se19  1  0.75000000  0.11132700  0.06226800  1
loop_
_geom_bond_atom_site_label_1
_geom_bond_atom_site_label_2
_geom_bond_distance
_geom_bond_site_symmetry_2
Na0 Se0 2.834424 1_565
Na0 Se6 2.892802 1_455
Na0 Se6 2.892802 1_555
Na0 Se15 2.942412 1_465
Na0 Se15 2.942412 1_565
Na1 Se1 2.834424 1_555
Na1 Se7 2.892802 1_455
Na1 Se7 2.892802 1_555
Na1 Se14 2.942412 1_455
Na1 Se14 2.942412 1_555
Na2 Se2 2.834424 1_545
Na2 Se4 2.892802 1_555
Na2 Se4 2.892802 1_655
Na2 Se13 2.942412 1_645
Na2 Se13 2.942412 1_545
Na3 Se3 2.834424 1_555
Na3 Se5 2.892802 1_555
Na3 Se5 2.892802 1_655
Na3 Se12 2.942412 1_655
Na3 Se12 2.942412 1_555
Na4 Se2 3.079020 1_545
Na4 Se2 3.079020 1_445
Na4 Se9 3.081725 1_545
Na4 Se11 3.128022 1_555
Na4 Se11 3.128022 1_455
Na5 Se3 3.079020 1_555
Na5 Se3 3.079020 1_455
Na5 Se8 3.081725 1_554
Na5 Se10 3.128022 1_455
Na5 Se10 3.128022 1_555
Na6 Se0 3.079020 1_665
Na6 Se0 3.079020 1_565
Na6 Se11 3.081725 1_565
Na6 Se9 3.128022 1_555
Na6 Se9 3.128022 1_655
Na7 Se1 3.079020 1_655
Na7 Se1 3.079020 1_555
Na7 Se10 3.081725 1_556
Na7 Se8 3.128022 1_655
Na7 Se8 3.128022 1_555
Na8 Se15 2.993693 1_555
Na8 Se15 2.993693 1_455
Na8 Se19 3.022097 1_456
Na8 Se19 3.022097 1_556
Na8 Se17 3.074981 1_545
Na8 Se8 3.251941 1_555
Na9 Se14 2.993693 1_455
Na9 Se14 2.993693 1_555
Na9 Se18 3.022097 1_455
Na9 Se18 3.022097 1_555
Na9 Se16 3.074981 1_555
Na9 Se9 3.251941 1_555
Na10 Se13 2.993693 1_655
Na10 Se13 2.993693 1_555
Na10 Se17 3.022097 1_654
Na10 Se17 3.022097 1_554
Na10 Se19 3.074981 1_565
Na10 Se10 3.251941 1_555
Na11 Se12 2.993693 1_655
Na11 Se12 2.993693 1_555
Na11 Se16 3.022097 1_655
Na11 Se16 3.022097 1_555
Na11 Se18 3.074981 1_555
Na11 Se11 3.251941 1_555
Na12 Se7 2.893453 1_555
Na12 Se7 2.893453 1_455
Na12 Se8 2.974469 1_555
Na12 Se15 3.067214 1_555
Na12 Se15 3.067214 1_455
Na13 Se6 2.893453 1_455
Na13 Se6 2.893453 1_555
Na13 Se9 2.974469 1_555
Na13 Se14 3.067214 1_455
Na13 Se14 3.067214 1_555
Na14 Se5 2.893453 1_555
Na14 Se5 2.893453 1_655
Na14 Se10 2.974469 1_555
Na14 Se13 3.067214 1_655
Na14 Se13 3.067214 1_555
Na15 Se4 2.893453 1_655
Na15 Se4 2.893453 1_555
Na15 Se11 2.974469 1_555
Na15 Se12 3.067214 1_555
Na15 Se12 3.067214 1_655
Se0 Zn0 2.516817 1_555
Se0 Zn7 2.545102 1_455
Se0 Zn7 2.545102 1_555
Se1 Zn1 2.516817 1_555
Se1 Zn6 2.545102 1_555
Se1 Zn6 2.545102 1_455
Se2 Zn2 2.516817 1_555
Se2 Zn5 2.545102 1_655
Se2 Zn5 2.545102 1_555
Se3 Zn3 2.516817 1_555
Se3 Zn4 2.545102 1_555
Se3 Zn4 2.545102 1_655
Se4 Zn4 2.445931 1_555
Se4 Zn9 2.476168 1_555
Se5 Zn5 2.445931 1_555
Se5 Zn8 2.476168 1_555
Se6 Zn6 2.445931 1_555
Se6 Zn11 2.476168 1_555
Se7 Zn7 2.445931 1_555
Se7 Zn10 2.476168 1_555
Se8 Zn3 2.529440 1_556
Se8 Zn3 2.529440 1_456
Se9 Zn2 2.529440 1_455
Se9 Zn2 2.529440 1_555
Se10 Zn1 2.529440 1_654
Se10 Zn1 2.529440 1_554
Se11 Zn0 2.529440 1_555
Se11 Zn0 2.529440 1_655
Se12 Zn8 2.603385 1_555
Se12 Zn4 2.614695 1_555
Se13 Zn9 2.603385 1_565
Se13 Zn5 2.614695 1_555
Se14 Zn10 2.603385 1_555
Se14 Zn6 2.614695 1_555
Se15 Zn11 2.603385 1_545
Se15 Zn7 2.614695 1_555
Se16 Zn0 2.520288 1_555
Se16 Zn10 2.522489 1_555
Se16 Zn10 2.522489 1_455
Se17 Zn1 2.520288 1_555
Se17 Zn11 2.522489 1_455
Se17 Zn11 2.522489 1_555
Se18 Zn2 2.520288 1_555
Se18 Zn8 2.522489 1_655
Se18 Zn8 2.522489 1_555
Se19 Zn3 2.520288 1_555
Se19 Zn9 2.522489 1_555
Se19 Zn9 2.522489 1_655
