# generated using pymatgen
data_DySiNi
_symmetry_space_group_name_H-M   'P 1'
_cell_length_a   4.13959062
_cell_length_b   6.85209853
_cell_length_c   7.10998766
_cell_angle_alpha   90.00000000
_cell_angle_beta   90.00000000
_cell_angle_gamma   90.00000000
_symmetry_Int_Tables_number   1
_chemical_formula_structural   DySiNi
_chemical_formula_sum   'Dy4 Si4 Ni4'
_cell_volume   201.67396670
_cell_formula_units_Z   4
loop_
 _symmetry_equiv_pos_site_id
 _symmetry_equiv_pos_as_xyz
  1  'x, y, z'
loop_
 _atom_site_type_symbol
 _atom_site_label
 _atom_site_symmetry_multiplicity
 _atom_site_fract_x
 _atom_site_fract_y
 _atom_site_fract_z
 _atom_site_occupancy
  Dy  Dy0  1  0.75000000  0.00979393  0.29843414  1
  Dy  Dy1  1  0.25000000  0.99020607  0.70156586  1
  Dy  Dy2  1  0.25000000  0.49020607  0.79843414  1
  Dy  Dy3  1  0.75000000  0.50979393  0.20156586  1
  Si  Si0  1  0.75000000  0.69182501  0.58907068  1
  Si  Si1  1  0.25000000  0.30817499  0.41092932  1
  Si  Si2  1  0.25000000  0.80817499  0.08907068  1
  Si  Si3  1  0.75000000  0.19182501  0.91092932  1
  Ni  Ni0  1  0.75000000  0.81567003  0.91946869  1
  Ni  Ni1  1  0.25000000  0.18432997  0.08053131  1
  Ni  Ni2  1  0.25000000  0.68432997  0.41946869  1
  Ni  Ni3  1  0.75000000  0.31567003  0.58053131  1
loop_
_geom_bond_atom_site_label_1
_geom_bond_atom_site_label_2
_geom_bond_distance
_geom_bond_site_symmetry_2
Dy0 Ni1 2.848615 1_655
Dy0 Ni1 2.848615 1_555
Dy0 Si2 2.899737 1_545
Dy0 Si2 2.899737 1_645
Dy0 Ni3 2.900971 1_555
Dy0 Si0 3.002844 1_545
Dy0 Ni0 3.004883 1_544
Dy0 Si1 3.017271 1_555
Dy0 Si1 3.017271 1_655
Dy0 Si3 3.024338 1_554
Dy0 Ni2 3.161962 1_645
Dy0 Ni2 3.161962 1_545
Dy1 Ni0 2.848615 1_455
Dy1 Ni0 2.848615 1_555
Dy1 Si3 2.899737 1_565
Dy1 Si3 2.899737 1_465
Dy1 Ni2 2.900971 1_555
Dy1 Si1 3.002844 1_565
Dy1 Ni1 3.004883 1_566
Dy1 Si0 3.017271 1_555
Dy1 Si0 3.017271 1_455
Dy1 Si2 3.024338 1_556
Dy1 Ni3 3.161962 1_465
Dy1 Ni3 3.161962 1_565
Dy2 Ni3 2.848615 1_455
Dy2 Ni3 2.848615 1_555
Dy2 Si0 2.899737 1_555
Dy2 Si0 2.899737 1_455
Dy2 Ni1 2.900971 1_556
Dy2 Si2 3.002844 1_556
Dy2 Ni2 3.004883 1_555
Dy2 Si3 3.017271 1_455
Dy2 Si3 3.017271 1_555
Dy2 Si1 3.024338 1_555
Dy2 Ni0 3.161962 1_555
Dy2 Ni0 3.161962 1_455
Dy3 Ni2 2.848615 1_555
Dy3 Ni2 2.848615 1_655
Dy3 Si1 2.899737 1_555
Dy3 Si1 2.899737 1_655
Dy3 Ni0 2.900971 1_554
Dy3 Si3 3.002844 1_554
Dy3 Ni3 3.004883 1_555
Dy3 Si2 3.017271 1_555
Dy3 Si2 3.017271 1_655
Dy3 Si0 3.024338 1_555
Dy3 Ni1 3.161962 1_555
Dy3 Ni1 3.161962 1_655
Ni0 Si2 2.395998 1_556
Ni0 Si2 2.395998 1_656
Ni0 Si0 2.497701 1_555
Ni0 Si3 2.578166 1_565
Ni1 Si3 2.395998 1_554
Ni1 Si3 2.395998 1_454
Ni1 Si1 2.497701 1_555
Ni1 Si2 2.578166 1_545
Ni2 Si0 2.395998 1_455
Ni2 Si0 2.395998 1_555
Ni2 Si2 2.497701 1_555
Ni2 Si1 2.578166 1_555
Ni3 Si1 2.395998 1_655
Ni3 Si1 2.395998 1_555
Ni3 Si3 2.497701 1_555
Ni3 Si0 2.578166 1_555
