# generated using pymatgen
data_Ca3Co2(RhO6)2
_symmetry_space_group_name_H-M   'P 1'
_cell_length_a   6.33365200
_cell_length_b   6.37412201
_cell_length_c   6.47592031
_cell_angle_alpha   92.56163041
_cell_angle_beta   93.16506376
_cell_angle_gamma   93.42062034
_symmetry_Int_Tables_number   1
_chemical_formula_structural   Ca3Co2(RhO6)2
_chemical_formula_sum   'Ca3 Co2 Rh2 O12'
_cell_volume   260.27634815
_cell_formula_units_Z   1
loop_
 _symmetry_equiv_pos_site_id
 _symmetry_equiv_pos_as_xyz
  1  'x, y, z'
loop_
 _atom_site_type_symbol
 _atom_site_label
 _atom_site_symmetry_multiplicity
 _atom_site_fract_x
 _atom_site_fract_y
 _atom_site_fract_z
 _atom_site_occupancy
  Ca  Ca0  1  0.12216300  0.74800800  0.38062500  1
  Ca  Ca1  1  0.36922500  0.12301400  0.74583600  1
  Ca  Ca2  1  0.74601500  0.36879500  0.11796400  1
  Co  Co0  1  0.74594400  0.77643000  0.76446700  1
  Co  Co1  1  0.25122800  0.25038900  0.25126900  1
  Rh  Rh0  1  0.99636200  0.99079100  0.99960900  1
  Rh  Rh1  1  0.51422100  0.50695900  0.50550000  1
  O  O0  1  0.10072700  0.29116100  0.99258300  1
  O  O1  1  0.46950400  0.79495900  0.59125700  1
  O  O2  1  0.69563300  0.03669800  0.90773500  1
  O  O3  1  0.99587900  0.10264500  0.29551300  1
  O  O4  1  0.59668300  0.46814900  0.79174100  1
  O  O5  1  0.20939500  0.39996100  0.50855200  1
  O  O6  1  0.02556700  0.89988400  0.70049900  1
  O  O7  1  0.50977800  0.20556600  0.40128300  1
  O  O8  1  0.90700700  0.70322200  0.04149300  1
  O  O9  1  0.29893000  0.99651700  0.10519800  1
  O  O10  1  0.79568000  0.57858600  0.44093200  1
  O  O11  1  0.40064500  0.50819400  0.20745300  1
loop_
_geom_bond_atom_site_label_1
_geom_bond_atom_site_label_2
_geom_bond_distance
_geom_bond_site_symmetry_2
Ca0 O10 2.335608 1_455
Ca0 O6 2.373577 1_555
Ca0 O5 2.484612 1_555
Ca0 O8 2.515715 1_455
Ca0 O3 2.516316 1_465
Ca0 O1 2.518623 1_555
Ca0 O11 2.663122 1_555
Ca0 O9 2.684291 1_555
Ca1 O2 2.371465 1_555
Ca1 O1 2.412385 1_545
Ca1 O7 2.513254 1_555
Ca1 O6 2.523756 1_545
Ca1 O9 2.550200 1_546
Ca1 O4 2.553345 1_555
Ca1 O5 2.605037 1_555
Ca1 O0 2.637895 1_555
Ca2 O8 2.391602 1_555
Ca2 O4 2.393556 1_554
Ca2 O10 2.426670 1_555
Ca2 O2 2.459690 1_554
Ca2 O11 2.497240 1_555
Ca2 O0 2.499929 1_654
Ca2 O7 2.641133 1_555
Ca2 O3 2.645433 1_555
Co0 O2 1.916428 1_565
Co0 O6 1.967548 1_655
Co0 O1 2.038960 1_555
Co0 O8 2.099134 1_556
Co0 O4 2.148024 1_555
Co0 O10 2.442022 1_555
Co1 O3 1.864976 1_455
Co1 O9 1.886205 1_545
Co1 O11 1.887387 1_555
Co1 O7 1.900524 1_555
Co1 O0 1.916953 1_554
Co1 O5 1.921481 1_555
O0 Rh0 1.991172 1_445
O1 Rh1 1.935687 1_555
O2 Rh0 2.006110 1_545
O3 Rh0 2.014730 1_544
O4 Rh1 1.928623 1_555
O5 Rh1 2.010295 1_555
O6 Rh0 2.018421 1_455
O7 Rh1 2.005623 1_555
O8 Rh0 1.921289 1_554
O9 Rh0 1.996511 1_454
O10 Rh1 1.887704 1_555
O11 Rh1 2.022780 1_555
