# generated using pymatgen
data_Li3IrF6
_symmetry_space_group_name_H-M   'P 1'
_cell_length_a   5.55275170
_cell_length_b   5.98294567
_cell_length_c   7.00524325
_cell_angle_alpha   58.40810288
_cell_angle_beta   137.52038001
_cell_angle_gamma   119.29523738
_symmetry_Int_Tables_number   1
_chemical_formula_structural   Li3IrF6
_chemical_formula_sum   'Li3 Ir1 F6'
_cell_volume   131.71356759
_cell_formula_units_Z   1
loop_
 _symmetry_equiv_pos_site_id
 _symmetry_equiv_pos_as_xyz
  1  'x, y, z'
loop_
 _atom_site_type_symbol
 _atom_site_label
 _atom_site_symmetry_multiplicity
 _atom_site_fract_x
 _atom_site_fract_y
 _atom_site_fract_z
 _atom_site_occupancy
  Li  Li0  1  0.00000000  0.00000000  0.50000000  1
  Li  Li1  1  0.50000000  0.50000000  0.00000000  1
  Li  Li2  1  0.00000000  0.50000000  0.00000000  1
  Ir  Ir0  1  0.00000000  0.00000000  0.00000000  1
  F  F0  1  0.97905200  0.39579700  0.77120400  1
  F  F1  1  0.02094800  0.60420300  0.22879600  1
  F  F2  1  0.85972900  0.84012400  0.72763000  1
  F  F3  1  0.14027100  0.15987600  0.27237000  1
  F  F4  1  0.48313800  0.86919200  0.85261700  1
  F  F5  1  0.51686200  0.13080800  0.14738300  1
loop_
_geom_bond_atom_site_label_1
_geom_bond_atom_site_label_2
_geom_bond_distance
_geom_bond_site_symmetry_2
F0 Li2 1.916260 1_656
F0 Li1 1.941276 1_656
F0 Ir0 2.051334 1_656
F1 Li2 1.916260 1_555
F1 Li1 1.941276 1_455
F1 Ir0 2.051334 1_565
F2 Li0 1.889236 1_665
F2 Li2 1.918116 1_656
F2 Ir0 2.037924 1_666
F3 Li0 1.889236 1_555
F3 Li2 1.918116 1_555
F3 Ir0 2.037924 1_555
F4 Li1 1.903728 1_556
F4 Li0 2.041014 1_565
F4 Ir0 2.047713 1_666
F5 Li1 1.903728 1_555
F5 Li0 2.041014 1_655
F5 Ir0 2.047713 1_555
