# generated using pymatgen
data_Rb2TiV3(PO6)3
_symmetry_space_group_name_H-M   'P 1'
_cell_length_a   13.78954141
_cell_length_b   13.78954141
_cell_length_c   9.63748100
_cell_angle_alpha   90.00000000
_cell_angle_beta   90.00000000
_cell_angle_gamma   119.99999718
_symmetry_Int_Tables_number   1
_chemical_formula_structural   Rb2TiV3(PO6)3
_chemical_formula_sum   'Rb8 Ti4 V12 P12 O72'
_cell_volume   1587.06175361
_cell_formula_units_Z   4
loop_
 _symmetry_equiv_pos_site_id
 _symmetry_equiv_pos_as_xyz
  1  'x, y, z'
loop_
 _atom_site_type_symbol
 _atom_site_label
 _atom_site_symmetry_multiplicity
 _atom_site_fract_x
 _atom_site_fract_y
 _atom_site_fract_z
 _atom_site_occupancy
  Rb  Rb0  1  0.00000000  0.50000000  0.51488700  1
  Rb  Rb1  1  0.50000000  0.00000000  0.51488700  1
  Rb  Rb2  1  0.50000000  0.50000000  0.51488700  1
  Rb  Rb3  1  0.50000000  0.50000000  0.01488700  1
  Rb  Rb4  1  0.50000000  0.00000000  0.01488700  1
  Rb  Rb5  1  0.00000000  0.50000000  0.01488700  1
  Rb  Rb6  1  0.00000000  0.00000000  0.07424000  1
  Rb  Rb7  1  0.00000000  0.00000000  0.57424000  1
  Ti  Ti0  1  0.33333300  0.66666700  0.50918400  1
  Ti  Ti1  1  0.66666700  0.33333300  0.50918400  1
  Ti  Ti2  1  0.66666700  0.33333300  0.00918400  1
  Ti  Ti3  1  0.33333300  0.66666700  0.00918400  1
  V  V0  1  0.76632300  0.73547200  0.30668700  1
  V  V1  1  0.96915000  0.23367700  0.30668700  1
  V  V2  1  0.26452800  0.03085000  0.30668700  1
  V  V3  1  0.23367700  0.26452800  0.30668700  1
  V  V4  1  0.03085000  0.76632300  0.30668700  1
  V  V5  1  0.73547200  0.96915000  0.30668700  1
  V  V6  1  0.03085000  0.26452800  0.80668700  1
  V  V7  1  0.73547200  0.76632300  0.80668700  1
  V  V8  1  0.23367700  0.96915000  0.80668700  1
  V  V9  1  0.96915000  0.73547200  0.80668700  1
  V  V10  1  0.26452800  0.23367700  0.80668700  1
  V  V11  1  0.76632300  0.03085000  0.80668700  1
  P  P0  1  0.52405400  0.71697100  0.25845000  1
  P  P1  1  0.19291700  0.47594600  0.25845000  1
  P  P2  1  0.28302900  0.80708300  0.25845000  1
  P  P3  1  0.47594600  0.28302900  0.25845000  1
  P  P4  1  0.80708300  0.52405400  0.25845000  1
  P  P5  1  0.71697100  0.19291700  0.25845000  1
  P  P6  1  0.80708300  0.28302900  0.75845000  1
  P  P7  1  0.71697100  0.52405400  0.75845000  1
  P  P8  1  0.47594600  0.19291700  0.75845000  1
  P  P9  1  0.19291700  0.71697100  0.75845000  1
  P  P10  1  0.28302900  0.47594600  0.75845000  1
  P  P11  1  0.52405400  0.80708300  0.75845000  1
  O  O0  1  0.45156400  0.67224500  0.39144100  1
  O  O1  1  0.22068100  0.54843600  0.39144100  1
  O  O2  1  0.32775500  0.77931900  0.39144100  1
  O  O3  1  0.54843600  0.32775500  0.39144100  1
  O  O4  1  0.77931900  0.45156400  0.39144100  1
  O  O5  1  0.67224500  0.22068100  0.39144100  1
  O  O6  1  0.77931900  0.32775500  0.89144100  1
  O  O7  1  0.67224500  0.45156400  0.89144100  1
  O  O8  1  0.54843600  0.22068100  0.89144100  1
  O  O9  1  0.22068100  0.67224500  0.89144100  1
  O  O10  1  0.32775500  0.54843600  0.89144100  1
  O  O11  1  0.45156400  0.77931900  0.89144100  1
  O  O12  1  0.78499100  0.87198700  0.26197100  1
  O  O13  1  0.08699600  0.21500900  0.26197100  1
  O  O14  1  0.12801300  0.91300400  0.26197100  1
  O  O15  1  0.21500900  0.12801300  0.26197100  1
  O  O16  1  0.91300400  0.78499100  0.26197100  1
  O  O17  1  0.87198700  0.08699600  0.26197100  1
  O  O18  1  0.91300400  0.12801300  0.76197100  1
  O  O19  1  0.87198700  0.78499100  0.76197100  1
  O  O20  1  0.21500900  0.08699600  0.76197100  1
  O  O21  1  0.08699600  0.87198700  0.76197100  1
  O  O22  1  0.12801300  0.21500900  0.76197100  1
  O  O23  1  0.78499100  0.91300400  0.76197100  1
  O  O24  1  0.44933400  0.66789800  0.12850800  1
  O  O25  1  0.21856400  0.55066600  0.12850800  1
  O  O26  1  0.33210200  0.78143600  0.12850800  1
  O  O27  1  0.55066600  0.33210200  0.12850800  1
  O  O28  1  0.78143600  0.44933400  0.12850800  1
  O  O29  1  0.66789800  0.21856400  0.12850800  1
  O  O30  1  0.78143600  0.33210200  0.62850800  1
  O  O31  1  0.66789800  0.44933400  0.62850800  1
  O  O32  1  0.55066600  0.21856400  0.62850800  1
  O  O33  1  0.21856400  0.66789800  0.62850800  1
  O  O34  1  0.33210200  0.55066600  0.62850800  1
  O  O35  1  0.44933400  0.78143600  0.62850800  1
  O  O36  1  0.60534500  0.66924300  0.25910400  1
  O  O37  1  0.06389700  0.39465500  0.25910400  1
  O  O38  1  0.33075700  0.93610300  0.25910400  1
  O  O39  1  0.39465500  0.33075700  0.25910400  1
  O  O40  1  0.93610300  0.60534500  0.25910400  1
  O  O41  1  0.66924300  0.06389700  0.25910400  1
  O  O42  1  0.93610300  0.33075700  0.75910400  1
  O  O43  1  0.66924300  0.60534500  0.75910400  1
  O  O44  1  0.39465500  0.06389700  0.75910400  1
  O  O45  1  0.06389700  0.66924300  0.75910400  1
  O  O46  1  0.33075700  0.39465500  0.75910400  1
  O  O47  1  0.60534500  0.93610300  0.75910400  1
  O  O48  1  0.58507200  0.84639800  0.25415600  1
  O  O49  1  0.26132600  0.41492800  0.25415600  1
  O  O50  1  0.15360200  0.73867400  0.25415600  1
  O  O51  1  0.41492800  0.15360200  0.25415600  1
  O  O52  1  0.73867400  0.58507200  0.25415600  1
  O  O53  1  0.84639800  0.26132600  0.25415600  1
  O  O54  1  0.73867400  0.15360200  0.75415600  1
  O  O55  1  0.84639800  0.58507200  0.75415600  1
  O  O56  1  0.41492800  0.26132600  0.75415600  1
  O  O57  1  0.26132600  0.84639800  0.75415600  1
  O  O58  1  0.15360200  0.41492800  0.75415600  1
  O  O59  1  0.58507200  0.73867400  0.75415600  1
  O  O60  1  0.76125500  0.73274400  0.47493200  1
  O  O61  1  0.97148900  0.23874500  0.47493200  1
  O  O62  1  0.26725600  0.02851100  0.47493200  1
  O  O63  1  0.23874500  0.26725600  0.47493200  1
  O  O64  1  0.02851100  0.76125500  0.47493200  1
  O  O65  1  0.73274400  0.97148900  0.47493200  1
  O  O66  1  0.02851100  0.26725600  0.97493200  1
  O  O67  1  0.73274400  0.76125500  0.97493200  1
  O  O68  1  0.23874500  0.97148900  0.97493200  1
  O  O69  1  0.97148900  0.73274400  0.97493200  1
  O  O70  1  0.26725600  0.23874500  0.97493200  1
  O  O71  1  0.76125500  0.02851100  0.97493200  1
loop_
_geom_bond_atom_site_label_1
_geom_bond_atom_site_label_2
_geom_bond_distance
_geom_bond_site_symmetry_2
O0 P0 1.551075 1_555
O0 Ti0 1.956069 1_555
O0 Rb2 3.014862 1_555
O1 P1 1.551075 1_555
O1 Ti0 1.956064 1_555
O1 Rb0 3.014862 1_555
O2 P2 1.551075 1_555
O2 Ti0 1.956058 1_555
O2 Rb1 3.014862 1_565
O3 P3 1.551075 1_555
O3 Ti1 1.956069 1_555
O3 Rb2 3.014862 1_555
O4 P4 1.551075 1_555
O4 Ti1 1.956064 1_555
O4 Rb0 3.014862 1_655
O5 P5 1.551075 1_555
O5 Ti1 1.956058 1_555
O5 Rb1 3.014862 1_555
O6 P6 1.551075 1_555
O6 Ti2 1.956058 1_556
O6 Rb5 3.014862 1_656
O7 P7 1.551075 1_555
O7 Ti2 1.956069 1_556
O7 Rb3 3.014862 1_556
O8 P8 1.551075 1_555
O8 Ti2 1.956064 1_556
O8 Rb4 3.014862 1_556
O9 P9 1.551075 1_555
O9 Ti3 1.956058 1_556
O9 Rb5 3.014862 1_556
O10 P10 1.551075 1_555
O10 Ti3 1.956069 1_556
O10 Rb3 3.014862 1_556
O11 P11 1.551075 1_555
O11 Ti3 1.956064 1_556
O11 Rb4 3.014862 1_566
O12 V0 1.819648 1_555
O12 V5 1.833588 1_555
O12 Rb6 3.153766 1_665
O13 V1 1.819635 1_455
O13 V3 1.833575 1_555
O13 Rb6 3.153766 1_555
O14 V2 1.819643 1_565
O14 V4 1.833578 1_555
O14 Rb6 3.153766 1_565
O15 V3 1.819648 1_555
O15 V2 1.833588 1_555
O15 Rb6 3.153766 1_555
O16 V4 1.819635 1_655
O16 V0 1.833575 1_555
O16 Rb6 3.153766 1_665
O17 V5 1.819643 1_545
O17 V1 1.833578 1_555
O17 Rb6 3.153766 1_655
O18 V6 1.819643 1_655
O18 V11 1.833578 1_555
O18 Rb7 3.153766 1_655
O19 V7 1.819648 1_555
O19 V9 1.833588 1_555
O19 Rb7 3.153766 1_665
O20 V8 1.819635 1_545
O20 V10 1.833575 1_555
O20 Rb7 3.153766 1_555
O21 V9 1.819643 1_455
O21 V8 1.833578 1_555
O21 Rb7 3.153766 1_565
O22 V10 1.819648 1_555
O22 V6 1.833588 1_555
O22 Rb7 3.153766 1_555
O23 V11 1.819635 1_565
O23 V7 1.833575 1_555
O23 Rb7 3.153766 1_665
O24 P0 1.546156 1_555
O24 Ti3 1.963242 1_555
O24 Rb3 2.943651 1_555
O25 P1 1.546156 1_555
O25 Ti3 1.963236 1_555
O25 Rb5 2.943651 1_555
O26 P2 1.546156 1_555
O26 Ti3 1.963230 1_555
O26 Rb4 2.943651 1_565
O27 P3 1.546156 1_555
O27 Ti2 1.963242 1_555
O27 Rb3 2.943651 1_555
O28 P4 1.546156 1_555
O28 Ti2 1.963236 1_555
O28 Rb5 2.943651 1_655
O29 P5 1.546156 1_555
O29 Ti2 1.963230 1_555
O29 Rb4 2.943651 1_555
O30 P6 1.546156 1_555
O30 Ti1 1.963230 1_555
O30 Rb0 2.943651 1_655
O31 P7 1.546156 1_555
O31 Ti1 1.963242 1_555
O31 Rb2 2.943651 1_555
O32 P8 1.546156 1_555
O32 Ti1 1.963236 1_555
O32 Rb1 2.943651 1_555
O33 P9 1.546156 1_555
O33 Ti0 1.963230 1_555
O33 Rb0 2.943651 1_555
O34 P10 1.546156 1_555
O34 Ti0 1.963242 1_555
O34 Rb2 2.943651 1_555
O35 P11 1.546156 1_555
O35 Ti0 1.963236 1_555
O35 Rb1 2.943651 1_565
O36 P0 1.558051 1_555
O36 V0 1.986112 1_555
O36 Rb3 3.115474 1_555
O36 Rb2 3.200517 1_555
O37 P1 1.558061 1_555
O37 V1 1.986109 1_455
O37 Rb5 3.115467 1_555
O37 Rb0 3.200510 1_555
O38 P2 1.558064 1_555
O38 V2 1.986087 1_565
O38 Rb4 3.115475 1_565
O38 Rb1 3.200518 1_565
O39 P3 1.558051 1_555
O39 V3 1.986112 1_555
O39 Rb3 3.115474 1_555
O39 Rb2 3.200517 1_555
O40 P4 1.558061 1_555
O40 V4 1.986109 1_655
O40 Rb5 3.115467 1_655
O40 Rb0 3.200510 1_655
O41 P5 1.558064 1_555
O41 V5 1.986087 1_545
O41 Rb4 3.115475 1_555
O41 Rb1 3.200518 1_555
O42 P6 1.558064 1_555
O42 V6 1.986087 1_655
O42 Rb0 3.115475 1_655
O42 Rb5 3.200518 1_656
O43 P7 1.558051 1_555
O43 V7 1.986112 1_555
O43 Rb2 3.115474 1_555
O43 Rb3 3.200517 1_556
O44 P8 1.558061 1_555
O44 V8 1.986109 1_545
O44 Rb1 3.115467 1_555
O44 Rb4 3.200510 1_556
O45 P9 1.558064 1_555
O45 V9 1.986087 1_455
O45 Rb0 3.115475 1_555
O45 Rb5 3.200518 1_556
O46 P10 1.558051 1_555
O46 V10 1.986112 1_555
O46 Rb2 3.115474 1_555
O46 Rb3 3.200517 1_556
O47 P11 1.558061 1_555
O47 V11 1.986109 1_565
O47 Rb1 3.115467 1_565
O47 Rb4 3.200510 1_566
O48 P0 1.547023 1_555
O48 V5 1.977933 1_555
O49 P1 1.547023 1_555
O49 V3 1.977928 1_555
O50 P2 1.547023 1_555
O50 V4 1.977941 1_555
O51 P3 1.547023 1_555
O51 V2 1.977933 1_555
O52 P4 1.547023 1_555
O52 V0 1.977928 1_555
O53 P5 1.547023 1_555
O53 V1 1.977941 1_555
O54 P6 1.547023 1_555
O54 V11 1.977941 1_555
O55 P7 1.547023 1_555
O55 V9 1.977933 1_555
O56 P8 1.547023 1_555
O56 V10 1.977928 1_555
O57 P9 1.547023 1_555
O57 V8 1.977941 1_555
O58 P10 1.547023 1_555
O58 V6 1.977933 1_555
O59 P11 1.547023 1_555
O59 V7 1.977928 1_555
O60 V0 1.622589 1_555
O60 Rb2 3.444576 1_555
O61 V1 1.622589 1_555
O61 Rb0 3.444576 1_655
O62 V2 1.622589 1_555
O62 Rb1 3.444576 1_555
O63 V3 1.622589 1_555
O63 Rb2 3.444576 1_555
O64 V4 1.622589 1_555
O64 Rb0 3.444576 1_555
O65 V5 1.622589 1_555
O65 Rb1 3.444576 1_565
O66 V6 1.622589 1_555
O66 Rb5 3.444576 1_556
O67 V7 1.622589 1_555
O67 Rb3 3.444576 1_556
O68 V8 1.622589 1_555
O68 Rb4 3.444576 1_566
O69 V9 1.622589 1_555
O69 Rb5 3.444576 1_656
O70 V10 1.622589 1_555
O70 Rb3 3.444576 1_556
O71 V11 1.622589 1_555
O71 Rb4 3.444576 1_556
