# generated using pymatgen
data_ErMnB4
_symmetry_space_group_name_H-M   'P 1'
_cell_length_a   3.37930400
_cell_length_b   5.87981400
_cell_length_c   11.36913900
_cell_angle_alpha   90.00000000
_cell_angle_beta   90.00000000
_cell_angle_gamma   90.00000000
_symmetry_Int_Tables_number   1
_chemical_formula_structural   ErMnB4
_chemical_formula_sum   'Er4 Mn4 B16'
_cell_volume   225.90114209
_cell_formula_units_Z   4
loop_
 _symmetry_equiv_pos_site_id
 _symmetry_equiv_pos_as_xyz
  1  'x, y, z'
loop_
 _atom_site_type_symbol
 _atom_site_label
 _atom_site_symmetry_multiplicity
 _atom_site_fract_x
 _atom_site_fract_y
 _atom_site_fract_z
 _atom_site_occupancy
  Er  Er0  1  0.00000000  0.62629600  0.34958000  1
  Er  Er1  1  0.00000000  0.37370400  0.65042000  1
  Er  Er2  1  0.00000000  0.12629600  0.15042000  1
  Er  Er3  1  0.00000000  0.87370400  0.84958000  1
  Mn  Mn0  1  0.00000000  0.62846800  0.08415200  1
  Mn  Mn1  1  0.00000000  0.37153200  0.91584800  1
  Mn  Mn2  1  0.00000000  0.12846800  0.41584800  1
  Mn  Mn3  1  0.00000000  0.87153200  0.58415200  1
  B  B0  1  0.50000000  0.78249200  0.18430900  1
  B  B1  1  0.50000000  0.21750800  0.81569100  1
  B  B2  1  0.50000000  0.28249200  0.31569100  1
  B  B3  1  0.50000000  0.71750800  0.68430900  1
  B  B4  1  0.50000000  0.86295900  0.03230000  1
  B  B5  1  0.50000000  0.13704100  0.96770000  1
  B  B6  1  0.50000000  0.36295900  0.46770000  1
  B  B7  1  0.50000000  0.63704100  0.53230000  1
  B  B8  1  0.50000000  0.88738500  0.45362000  1
  B  B9  1  0.50000000  0.11261500  0.54638000  1
  B  B10  1  0.50000000  0.38738500  0.04638000  1
  B  B11  1  0.50000000  0.61261500  0.95362000  1
  B  B12  1  0.50000000  0.97571500  0.30879900  1
  B  B13  1  0.50000000  0.02428500  0.69120100  1
  B  B14  1  0.50000000  0.47571500  0.19120100  1
  B  B15  1  0.50000000  0.52428500  0.80879900  1
loop_
_geom_bond_atom_site_label_1
_geom_bond_atom_site_label_2
_geom_bond_distance
_geom_bond_site_symmetry_2
B0 B4 1.791806 1_555
B0 B14 1.805493 1_555
B0 B12 1.814926 1_555
B0 Mn0 2.229737 1_555
B0 Mn0 2.229737 1_655
B0 Er2 2.662677 1_565
B0 Er2 2.662677 1_665
B0 Er0 2.688678 1_655
B0 Er0 2.688678 1_555
B1 B5 1.791806 1_555
B1 B15 1.805493 1_555
B1 B13 1.814926 1_555
B1 Mn1 2.229737 1_655
B1 Mn1 2.229737 1_555
B1 Er3 2.662677 1_545
B1 Er3 2.662677 1_645
B1 Er1 2.688678 1_655
B1 Er1 2.688678 1_555
B2 B6 1.791806 1_555
B2 Mn2 2.229737 1_655
B2 Mn2 2.229737 1_555
B2 Er0 2.662677 1_655
B2 Er0 2.662677 1_555
B2 Er2 2.688678 1_555
B2 Er2 2.688678 1_655
B3 B7 1.791806 1_555
B3 Mn3 2.229737 1_555
B3 Mn3 2.229737 1_655
B3 Er1 2.662677 1_555
B3 Er1 2.662677 1_655
B3 Er3 2.688678 1_655
B3 Er3 2.688678 1_555
B4 B5 1.771019 1_564
B4 Mn0 2.259079 1_555
B4 Mn0 2.259079 1_655
B4 Er2 2.656280 1_565
B4 Er2 2.656280 1_665
B4 Er3 2.678503 1_654
B4 Er3 2.678503 1_554
B5 Mn1 2.259079 1_655
B5 Mn1 2.259079 1_555
B5 Er3 2.656280 1_545
B5 Er3 2.656280 1_645
B5 Er2 2.678503 1_556
B5 Er2 2.678503 1_656
B6 B9 1.722465 1_555
B6 B7 1.771019 1_555
B6 Mn2 2.259079 1_555
B6 Mn2 2.259079 1_655
B6 Er0 2.656280 1_655
B6 Er0 2.656280 1_555
B6 Er1 2.678503 1_555
B6 Er1 2.678503 1_655
B7 B8 1.722465 1_555
B7 Mn3 2.259079 1_655
B7 Mn3 2.259079 1_555
B7 Er1 2.656280 1_655
B7 Er1 2.656280 1_555
B7 Er0 2.678503 1_655
B7 Er0 2.678503 1_555
B8 B9 1.692921 1_565
B8 Mn2 2.246934 1_665
B8 Mn2 2.246934 1_565
B8 Mn3 2.250772 1_555
B8 Mn3 2.250772 1_655
B8 Er0 2.571137 1_555
B8 Er0 2.571137 1_655
B9 Mn3 2.246934 1_645
B9 Mn3 2.246934 1_545
B9 Mn2 2.250772 1_655
B9 Mn2 2.250772 1_555
B9 Er1 2.571137 1_555
B9 Er1 2.571137 1_655
B10 B11 1.692921 1_554
B10 B5 1.722465 1_554
B10 B14 1.726461 1_555
B10 Mn0 2.246934 1_655
B10 Mn0 2.246934 1_555
B10 Mn1 2.250772 1_654
B10 Mn1 2.250772 1_554
B10 Er2 2.571137 1_555
B10 Er2 2.571137 1_655
B11 B4 1.722465 1_556
B11 B15 1.726461 1_555
B11 Mn1 2.246934 1_555
B11 Mn1 2.246934 1_655
B11 Mn0 2.250772 1_656
B11 Mn0 2.250772 1_556
B11 Er3 2.571137 1_655
B11 Er3 2.571137 1_555
B12 B8 1.726461 1_555
B12 B2 1.805493 1_565
B12 Mn2 2.267782 1_565
B12 Mn2 2.267782 1_665
B12 Er2 2.623188 1_565
B12 Er2 2.623188 1_665
B12 Er0 2.700174 1_655
B12 Er0 2.700174 1_555
B13 B9 1.726461 1_555
B13 B3 1.805493 1_545
B13 Mn3 2.267782 1_545
B13 Mn3 2.267782 1_645
B13 Er3 2.623188 1_645
B13 Er3 2.623188 1_545
B13 Er1 2.700174 1_655
B13 Er1 2.700174 1_555
B14 B2 1.814926 1_555
B14 Mn0 2.267782 1_655
B14 Mn0 2.267782 1_555
B14 Er0 2.623188 1_555
B14 Er0 2.623188 1_655
B14 Er2 2.700174 1_555
B14 Er2 2.700174 1_655
B15 B3 1.814926 1_555
B15 Mn1 2.267782 1_655
B15 Mn1 2.267782 1_555
B15 Er1 2.623188 1_655
B15 Er1 2.623188 1_555
B15 Er3 2.700174 1_655
B15 Er3 2.700174 1_555
