# generated using pymatgen
data_RbIn(PO4)2
_symmetry_space_group_name_H-M   'P 1'
_cell_length_a   8.65510700
_cell_length_b   9.76203300
_cell_length_c   9.87005253
_cell_angle_alpha   63.47111742
_cell_angle_beta   90.00000000
_cell_angle_gamma   90.00000000
_symmetry_Int_Tables_number   1
_chemical_formula_structural   RbIn(PO4)2
_chemical_formula_sum   'Rb4 In4 P8 O32'
_cell_volume   746.12937546
_cell_formula_units_Z   4
loop_
 _symmetry_equiv_pos_site_id
 _symmetry_equiv_pos_as_xyz
  1  'x, y, z'
loop_
 _atom_site_type_symbol
 _atom_site_label
 _atom_site_symmetry_multiplicity
 _atom_site_fract_x
 _atom_site_fract_y
 _atom_site_fract_z
 _atom_site_occupancy
  Rb  Rb0  1  0.36613600  0.08775200  0.82538400  1
  Rb  Rb1  1  0.86613600  0.41224800  0.17461600  1
  Rb  Rb2  1  0.63386400  0.91224800  0.17461600  1
  Rb  Rb3  1  0.13386400  0.58775200  0.82538400  1
  In  In0  1  0.62504900  0.49203300  0.74430000  1
  In  In1  1  0.12504900  0.00796700  0.25570000  1
  In  In2  1  0.37495100  0.50796700  0.25570000  1
  In  In3  1  0.87495100  0.99203300  0.74430000  1
  P  P0  1  0.67486700  0.32670100  0.51177700  1
  P  P1  1  0.17486700  0.17329900  0.48822300  1
  P  P2  1  0.32513300  0.67329900  0.48822300  1
  P  P3  1  0.82513300  0.82670100  0.51177700  1
  P  P4  1  0.56924800  0.73352100  0.90701600  1
  P  P5  1  0.06924800  0.76647900  0.09298400  1
  P  P6  1  0.43075200  0.26647900  0.09298400  1
  P  P7  1  0.93075200  0.23352100  0.90701600  1
  O  O0  1  0.58541000  0.34399800  0.63791300  1
  O  O1  1  0.08541000  0.15600200  0.36208700  1
  O  O2  1  0.41459000  0.65600200  0.36208700  1
  O  O3  1  0.91459000  0.84399800  0.63791300  1
  O  O4  1  0.58058800  0.37980000  0.36491400  1
  O  O5  1  0.08058800  0.12020000  0.63508600  1
  O  O6  1  0.41941200  0.62020000  0.63508600  1
  O  O7  1  0.91941200  0.87980000  0.36491400  1
  O  O8  1  0.73239500  0.15954900  0.56144300  1
  O  O9  1  0.23239500  0.34045100  0.43855700  1
  O  O10  1  0.26760500  0.84045100  0.43855700  1
  O  O11  1  0.76760500  0.65954900  0.56144300  1
  O  O12  1  0.66292800  0.90434400  0.47877800  1
  O  O13  1  0.16292800  0.59565600  0.52122200  1
  O  O14  1  0.33707200  0.09565600  0.52122200  1
  O  O15  1  0.83707200  0.40434400  0.47877800  1
  O  O16  1  0.66437400  0.88114400  0.85950000  1
  O  O17  1  0.16437400  0.61885600  0.14050000  1
  O  O18  1  0.33562600  0.11885600  0.14050000  1
  O  O19  1  0.83562600  0.38114400  0.85950000  1
  O  O20  1  0.52067600  0.68034400  0.07541500  1
  O  O21  1  0.02067600  0.81965600  0.92458500  1
  O  O22  1  0.47932400  0.31965600  0.92458500  1
  O  O23  1  0.97932400  0.18034400  0.07541500  1
  O  O24  1  0.65665500  0.60928100  0.88317300  1
  O  O25  1  0.15665500  0.89071900  0.11682700  1
  O  O26  1  0.34334500  0.39071900  0.11682700  1
  O  O27  1  0.84334500  0.10928100  0.88317300  1
  O  O28  1  0.59587500  0.23238200  0.16334600  1
  O  O29  1  0.09587500  0.26761800  0.83665400  1
  O  O30  1  0.40412500  0.76761800  0.83665400  1
  O  O31  1  0.90412500  0.73238200  0.16334600  1
loop_
_geom_bond_atom_site_label_1
_geom_bond_atom_site_label_2
_geom_bond_distance
_geom_bond_site_symmetry_2
In0 O0 2.159678 1_555
In0 O24 2.159889 1_555
In0 O19 2.164923 1_555
In0 O6 2.165718 1_555
In0 O11 2.194859 1_555
In0 O22 2.216745 1_555
In1 O1 2.159678 1_555
In1 O25 2.159889 1_545
In1 O18 2.164923 1_555
In1 O7 2.165718 1_445
In1 O10 2.194859 1_545
In1 O23 2.216745 1_455
In2 O2 2.159678 1_555
In2 O26 2.159889 1_555
In2 O17 2.164923 1_555
In2 O4 2.165718 1_555
In2 O9 2.194859 1_555
In2 O20 2.216745 1_555
In3 O3 2.159678 1_555
In3 O27 2.159889 1_565
In3 O16 2.164923 1_555
In3 O5 2.165718 1_665
In3 O8 2.194859 1_565
In3 O21 2.216745 1_655
O0 P0 1.538091 1_555
O0 Rb0 3.024610 1_555
O1 P1 1.538091 1_555
O1 Rb1 3.024610 1_455
O2 P2 1.538091 1_555
O2 Rb2 3.024610 1_555
O3 P3 1.538091 1_555
O3 Rb3 3.024610 1_655
O4 P0 1.537698 1_555
O4 Rb1 3.033933 1_555
O5 P1 1.537698 1_555
O5 Rb0 3.033933 1_555
O6 P2 1.537698 1_555
O6 Rb3 3.033933 1_555
O7 P3 1.537698 1_555
O7 Rb2 3.033933 1_555
O8 P0 1.560853 1_555
O9 P1 1.560853 1_555
O10 P2 1.560853 1_555
O11 P3 1.560853 1_555
O12 P3 1.559163 1_555
O12 Rb2 2.979074 1_555
O13 P2 1.559163 1_555
O13 Rb3 2.979074 1_555
O14 P1 1.559163 1_555
O14 Rb0 2.979074 1_555
O15 P0 1.559163 1_555
O15 Rb1 2.979074 1_555
O16 P4 1.539754 1_555
O16 Rb0 3.199635 1_565
O16 Rb2 3.267867 1_556
O17 P5 1.539754 1_555
O17 Rb1 3.199635 1_455
O17 Rb3 3.267867 1_554
O18 P6 1.539754 1_555
O18 Rb2 3.199635 1_545
O18 Rb0 3.267867 1_554
O19 P7 1.539754 1_555
O19 Rb3 3.199635 1_655
O19 Rb1 3.267867 1_556
O20 P4 1.561427 1_554
O20 Rb2 3.003915 1_555
O21 P5 1.561427 1_556
O21 Rb3 3.003915 1_555
O22 P6 1.561427 1_556
O22 Rb0 3.003915 1_555
O23 P7 1.561427 1_554
O23 Rb1 3.003915 1_555
O24 P4 1.534155 1_555
O24 Rb1 3.212313 1_556
O25 P5 1.534155 1_555
O25 Rb0 3.212313 1_564
O26 P6 1.534155 1_555
O26 Rb3 3.212313 1_554
O27 P7 1.534155 1_555
O27 Rb2 3.212313 1_546
O28 P6 1.558553 1_555
O28 Rb1 2.956594 1_555
O28 Rb2 3.094602 1_545
O29 P7 1.558553 1_455
O29 Rb0 2.956594 1_555
O29 Rb3 3.094602 1_555
O30 P4 1.558553 1_555
O30 Rb3 2.956594 1_555
O30 Rb0 3.094602 1_565
O31 P5 1.558553 1_655
O31 Rb2 2.956594 1_555
O31 Rb1 3.094602 1_555
