# generated using pymatgen
data_HfZnN2
_symmetry_space_group_name_H-M   'P 1'
_cell_length_a   3.23933620
_cell_length_b   3.23933674
_cell_length_c   5.27934611
_cell_angle_alpha   90.00000000
_cell_angle_beta   90.00000000
_cell_angle_gamma   120.00000547
_symmetry_Int_Tables_number   1
_chemical_formula_structural   HfZnN2
_chemical_formula_sum   'Hf1 Zn1 N2'
_cell_volume   47.97587060
_cell_formula_units_Z   1
loop_
 _symmetry_equiv_pos_site_id
 _symmetry_equiv_pos_as_xyz
  1  'x, y, z'
loop_
 _atom_site_type_symbol
 _atom_site_label
 _atom_site_symmetry_multiplicity
 _atom_site_fract_x
 _atom_site_fract_y
 _atom_site_fract_z
 _atom_site_occupancy
  Hf  Hf0  1  0.66666700  0.33333300  0.79272253  1
  Zn  Zn0  1  0.00000000  0.00000000  0.34324712  1
  N  N0  1  0.00000000  -0.00000000  0.97707097  1
  N  N1  1  0.33333300  0.66666700  0.53965838  1
loop_
_geom_bond_atom_site_label_1
_geom_bond_atom_site_label_2
_geom_bond_distance
_geom_bond_site_symmetry_2
Hf0 N0 2.108306 1_655
Hf0 N0 2.108308 1_555
Hf0 N0 2.108309 1_665
Hf0 N1 2.298410 1_655
Hf0 N1 2.298411 1_545
Hf0 N1 2.298415 1_555
N0 Zn0 1.933171 1_556
N1 Zn0 2.138450 1_565
N1 Zn0 2.138452 1_665
N1 Zn0 2.138453 1_555
