# generated using pymatgen
data_Li4Fe3(NiO4)3
_symmetry_space_group_name_H-M   'P 1'
_cell_length_a   9.58463634
_cell_length_b   8.99063189
_cell_length_c   5.22678119
_cell_angle_alpha   80.02149447
_cell_angle_beta   67.49343557
_cell_angle_gamma   32.48506996
_symmetry_Int_Tables_number   1
_chemical_formula_structural   Li4Fe3(NiO4)3
_chemical_formula_sum   'Li4 Fe3 Ni3 O12'
_cell_volume   213.07539286
_cell_formula_units_Z   1
loop_
 _symmetry_equiv_pos_site_id
 _symmetry_equiv_pos_as_xyz
  1  'x, y, z'
loop_
 _atom_site_type_symbol
 _atom_site_label
 _atom_site_symmetry_multiplicity
 _atom_site_fract_x
 _atom_site_fract_y
 _atom_site_fract_z
 _atom_site_occupancy
  Li  Li0  1  0.07977100  0.07977100  0.42022900  1
  Li  Li1  1  0.42022900  0.42022900  0.07977100  1
  Li  Li2  1  0.82975100  0.82975100  0.17024900  1
  Li  Li3  1  0.17024900  0.17024900  0.82975100  1
  Fe  Fe0  1  0.33619000  0.33619000  0.66381000  1
  Fe  Fe1  1  0.66381000  0.66381000  0.33619000  1
  Fe  Fe2  1  0.00000000  0.00000000  0.00000000  1
  Ni  Ni0  1  0.25000000  0.25000000  0.25000000  1
  Ni  Ni1  1  0.91457800  0.91457800  0.58542200  1
  Ni  Ni2  1  0.58542200  0.58542200  0.91457800  1
  O  O0  1  0.46705300  0.03294700  0.46705300  1
  O  O1  1  0.70099500  0.12575400  0.35309800  1
  O  O2  1  0.12754300  0.54575700  0.43294300  1
  O  O3  1  0.35309800  0.82015400  0.70099500  1
  O  O4  1  0.54575700  0.12754300  0.89375700  1
  O  O5  1  0.89375700  0.43294300  0.54575700  1
  O  O6  1  0.78350700  0.21649300  0.78350700  1
  O  O7  1  0.12575400  0.70099500  0.82015400  1
  O  O8  1  0.03294700  0.46705300  0.03294700  1
  O  O9  1  0.43294300  0.89375700  0.12754300  1
  O  O10  1  0.82015400  0.35309800  0.12575400  1
  O  O11  1  0.21649300  0.78350700  0.21649300  1
loop_
_geom_bond_atom_site_label_1
_geom_bond_atom_site_label_2
_geom_bond_distance
_geom_bond_site_symmetry_2
Li0 O5 1.991770 1_455
Li0 O9 1.991770 1_545
Li0 O11 1.992986 1_545
Li0 O6 1.992986 1_455
Li0 O10 2.429988 1_455
Li0 O3 2.429992 1_545
Li1 O2 1.991770 1_555
Li1 O4 1.991770 1_554
Li1 O6 1.992986 1_554
Li1 O11 1.992986 1_555
Li1 O7 2.429987 1_554
Li1 O1 2.429991 1_555
Li2 O7 1.989080 1_654
Li2 O1 1.989083 1_565
Li2 O8 1.992037 1_655
Li2 O0 1.992037 1_565
Li2 O2 2.457993 1_655
Li2 O4 2.457993 1_564
Li3 O3 1.989074 1_545
Li3 O10 1.989076 1_456
Li3 O0 1.992037 1_555
Li3 O8 1.992037 1_556
Li3 O9 2.457993 1_546
Li3 O5 2.457993 1_455
Fe0 O4 1.925651 1_555
Fe0 O2 1.925651 1_555
Fe0 O1 1.999948 1_555
Fe0 O7 1.999950 1_555
Fe0 O8 2.068546 1_556
Fe0 O0 2.068546 1_555
Fe1 O5 1.925651 1_555
Fe1 O9 1.925651 1_555
Fe1 O10 1.999942 1_555
Fe1 O3 1.999945 1_555
Fe1 O0 2.068546 1_565
Fe1 O8 2.068546 1_655
Fe2 O11 1.896089 1_545
Fe2 O6 1.896089 1_454
Fe2 O7 2.026090 1_544
Fe2 O1 2.026092 1_455
Fe2 O3 2.026097 1_544
Fe2 O10 2.026098 1_455
Ni0 O8 1.900994 1_555
Ni0 O0 1.900994 1_555
Ni0 O2 2.029568 1_555
Ni0 O4 2.029568 1_554
Ni0 O5 2.029568 1_455
Ni0 O9 2.029568 1_545
Ni1 O1 1.953711 1_565
Ni1 O7 1.953716 1_655
Ni1 O4 2.012129 1_565
Ni1 O2 2.012129 1_655
Ni1 O6 2.059955 1_565
Ni1 O11 2.059955 1_655
Ni2 O3 1.953712 1_555
Ni2 O10 1.953716 1_556
Ni2 O9 2.012129 1_556
Ni2 O5 2.012129 1_555
Ni2 O6 2.059955 1_555
Ni2 O11 2.059955 1_556
