# generated using pymatgen
data_V2FeTe4
_symmetry_space_group_name_H-M   'P 1'
_cell_length_a   7.15760828
_cell_length_b   7.15760828
_cell_length_c   6.82437748
_cell_angle_alpha   61.76758657
_cell_angle_beta   61.76758657
_cell_angle_gamma   31.80727843
_symmetry_Int_Tables_number   1
_chemical_formula_structural   V2FeTe4
_chemical_formula_sum   'V2 Fe1 Te4'
_cell_volume   160.44018767
_cell_formula_units_Z   1
loop_
 _symmetry_equiv_pos_site_id
 _symmetry_equiv_pos_as_xyz
  1  'x, y, z'
loop_
 _atom_site_type_symbol
 _atom_site_label
 _atom_site_symmetry_multiplicity
 _atom_site_fract_x
 _atom_site_fract_y
 _atom_site_fract_z
 _atom_site_occupancy
  V  V0  1  0.24903800  0.24903800  0.79373100  1
  V  V1  1  0.75096200  0.75096200  0.20626900  1
  Fe  Fe0  1  0.00000000  0.00000000  0.00000000  1
  Te  Te0  1  0.10777600  0.10777600  0.23234100  1
  Te  Te1  1  0.89222400  0.89222400  0.76765900  1
  Te  Te2  1  0.36423900  0.36423900  0.30234300  1
  Te  Te3  1  0.63576100  0.63576100  0.69765700  1
loop_
_geom_bond_atom_site_label_1
_geom_bond_atom_site_label_2
_geom_bond_distance
_geom_bond_site_symmetry_2
Fe0 Te0 2.651438 1_555
Fe0 Te1 2.651438 1_444
Fe0 Te2 2.793500 1_545
Fe0 Te2 2.793500 1_455
Fe0 Te3 2.793500 1_454
Fe0 Te3 2.793500 1_544
Fe0 V1 2.998132 1_445
Fe0 V0 2.998132 1_554
Te0 V0 2.648595 1_554
Te0 V1 2.723855 1_455
Te0 V1 2.723855 1_545
Te1 V1 2.648595 1_556
Te1 V0 2.723855 1_565
Te1 V0 2.723855 1_655
Te2 V1 2.777527 1_545
Te2 V1 2.777527 1_455
Te2 V0 2.920393 1_555
Te3 V0 2.777527 1_655
Te3 V0 2.777527 1_565
Te3 V1 2.920393 1_555
