# generated using pymatgen
data_KTh3
_symmetry_space_group_name_H-M   'P 1'
_cell_length_a   7.41341773
_cell_length_b   7.41341773
_cell_length_c   6.01181100
_cell_angle_alpha   90.00000000
_cell_angle_beta   90.00000000
_cell_angle_gamma   119.99999755
_symmetry_Int_Tables_number   1
_chemical_formula_structural   KTh3
_chemical_formula_sum   'K2 Th6'
_cell_volume   286.13626595
_cell_formula_units_Z   2
loop_
 _symmetry_equiv_pos_site_id
 _symmetry_equiv_pos_as_xyz
  1  'x, y, z'
loop_
 _atom_site_type_symbol
 _atom_site_label
 _atom_site_symmetry_multiplicity
 _atom_site_fract_x
 _atom_site_fract_y
 _atom_site_fract_z
 _atom_site_occupancy
  K  K0  1  0.66666700  0.33333300  0.25000000  1
  K  K1  1  0.33333300  0.66666700  0.75000000  1
  Th  Th0  1  0.84417600  0.15582400  0.75000000  1
  Th  Th1  1  0.31164800  0.15582400  0.75000000  1
  Th  Th2  1  0.84417600  0.68835200  0.75000000  1
  Th  Th3  1  0.15582400  0.84417600  0.25000000  1
  Th  Th4  1  0.68835200  0.84417600  0.25000000  1
  Th  Th5  1  0.15582400  0.31164800  0.25000000  1
loop_
_geom_bond_atom_site_label_1
_geom_bond_atom_site_label_2
_geom_bond_distance
_geom_bond_site_symmetry_2
K0 Th5 3.709319 1_655
K0 Th4 3.709319 1_545
K0 Th3 3.709323 1_655
K0 Th3 3.709323 1_545
K0 Th4 3.709326 1_555
K0 Th5 3.709326 1_555
K0 Th0 3.772350 1_554
K0 Th0 3.772350 1_555
K0 Th1 3.772354 1_554
K0 Th2 3.772354 1_554
K0 Th1 3.772354 1_555
K0 Th2 3.772354 1_555
K1 Th1 3.709319 1_565
K1 Th2 3.709319 1_455
K1 Th0 3.709323 1_565
K1 Th0 3.709323 1_455
K1 Th2 3.709326 1_555
K1 Th1 3.709326 1_555
K1 Th3 3.772350 1_555
K1 Th3 3.772350 1_556
K1 Th4 3.772354 1_556
K1 Th5 3.772354 1_556
K1 Th4 3.772354 1_555
K1 Th5 3.772354 1_555
Th0 Th2 3.465565 1_545
Th0 Th1 3.465565 1_655
Th0 Th4 3.610935 1_546
Th0 Th4 3.610935 1_545
Th0 Th5 3.610935 1_655
Th0 Th5 3.610935 1_656
Th0 Th1 3.947853 1_555
Th0 Th2 3.947853 1_555
Th1 Th2 3.465565 1_445
Th1 Th5 3.610935 1_556
Th1 Th5 3.610935 1_555
Th1 Th3 3.610935 1_545
Th1 Th3 3.610935 1_546
Th1 Th2 3.947853 1_555
Th2 Th4 3.610935 1_556
Th2 Th4 3.610935 1_555
Th2 Th3 3.610935 1_656
Th2 Th3 3.610935 1_655
Th3 Th4 3.465565 1_455
Th3 Th5 3.465565 1_565
Th3 Th5 3.947853 1_555
Th3 Th4 3.947853 1_555
Th4 Th5 3.465565 1_665
Th4 Th5 3.947853 1_555
