# generated using pymatgen
data_VSiW
_symmetry_space_group_name_H-M   'P 1'
_cell_length_a   4.80040099
_cell_length_b   4.80040099
_cell_length_c   8.14959600
_cell_angle_alpha   90.00000000
_cell_angle_beta   90.00000000
_cell_angle_gamma   118.66821950
_symmetry_Int_Tables_number   1
_chemical_formula_structural   VSiW
_chemical_formula_sum   'V4 Si4 W4'
_cell_volume   164.77635036
_cell_formula_units_Z   4
loop_
 _symmetry_equiv_pos_site_id
 _symmetry_equiv_pos_as_xyz
  1  'x, y, z'
loop_
 _atom_site_type_symbol
 _atom_site_label
 _atom_site_symmetry_multiplicity
 _atom_site_fract_x
 _atom_site_fract_y
 _atom_site_fract_z
 _atom_site_occupancy
  V  V0  1  0.83898900  0.16101100  0.00000000  1
  V  V1  1  0.16583200  0.34501900  0.50000000  1
  V  V2  1  0.65498100  0.83416800  0.50000000  1
  V  V3  1  0.16836800  0.83163200  0.50000000  1
  Si  Si0  1  0.99432600  0.00567400  0.25351900  1
  Si  Si1  1  0.99432600  0.00567400  0.74648100  1
  Si  Si2  1  0.83210100  0.65271700  0.00000000  1
  Si  Si3  1  0.34728300  0.16789900  0.00000000  1
  W  W0  1  0.34014000  0.65986000  0.18783900  1
  W  W1  1  0.66177500  0.33822500  0.31040300  1
  W  W2  1  0.66177500  0.33822500  0.68959700  1
  W  W3  1  0.34014000  0.65986000  0.81216100  1
loop_
_geom_bond_atom_site_label_1
_geom_bond_atom_site_label_2
_geom_bond_distance
_geom_bond_site_symmetry_2
V0 W3 2.887544 1_544
V0 W3 2.887544 1_654
V0 W0 2.887544 1_655
V0 W0 2.887544 1_545
V0 W2 2.922483 1_554
V0 W1 2.922483 1_555
V1 V3 2.330122 1_555
V1 V2 2.395219 1_555
V1 V3 2.470327 1_545
V1 V2 2.501487 1_445
V1 W1 2.851468 1_555
V1 W2 2.851468 1_555
V1 W1 2.857907 1_455
V1 W2 2.857907 1_455
V1 W0 2.871037 1_555
V1 W3 2.871037 1_555
V2 V3 2.330122 1_555
V2 V3 2.470327 1_655
V2 W1 2.851468 1_555
V2 W2 2.851468 1_555
V2 W2 2.857907 1_565
V2 W1 2.857907 1_565
V2 W0 2.871037 1_555
V2 W3 2.871037 1_555
V3 W2 2.895661 1_455
V3 W1 2.895661 1_565
V3 W2 2.895661 1_565
V3 W1 2.895661 1_455
V3 W0 2.912744 1_555
V3 W3 2.912744 1_555
Si0 V0 2.431925 1_555
Si0 V2 2.465684 1_545
Si0 V1 2.465684 1_655
Si0 V3 2.469961 1_645
Si0 Si3 2.545566 1_655
Si0 Si2 2.545566 1_545
Si0 W1 2.785121 1_555
Si0 W0 2.811090 1_655
Si0 W0 2.811090 1_545
Si0 W1 2.849833 1_545
Si0 W1 2.849833 1_655
Si0 W0 2.905527 1_645
Si1 V0 2.431925 1_556
Si1 V2 2.465684 1_545
Si1 V1 2.465684 1_655
Si1 V3 2.469961 1_645
Si1 Si3 2.545566 1_656
Si1 Si2 2.545566 1_546
Si1 W2 2.785121 1_555
Si1 W3 2.811090 1_655
Si1 W3 2.811090 1_545
Si1 W2 2.849833 1_655
Si1 W2 2.849833 1_545
Si1 W3 2.905527 1_645
Si2 Si3 2.374011 1_555
Si2 V0 2.376426 1_555
Si2 V0 2.424326 1_565
Si2 Si3 2.522695 1_665
Si2 W0 2.828332 1_555
Si2 W3 2.828332 1_554
Si2 W1 2.857011 1_555
Si2 W2 2.857011 1_554
Si2 W3 2.865663 1_654
Si2 W0 2.865663 1_655
Si3 V0 2.376426 1_555
Si3 V0 2.424326 1_455
Si3 W0 2.828332 1_555
Si3 W3 2.828332 1_554
Si3 W1 2.857011 1_555
Si3 W2 2.857011 1_554
Si3 W3 2.865663 1_544
Si3 W0 2.865663 1_545
W0 W1 2.837725 1_555
W0 W1 3.026842 1_455
W0 W1 3.026842 1_565
W0 W3 3.061624 1_554
W1 W2 3.090278 1_555
W2 W3 2.837725 1_555
W2 W3 3.026842 1_655
W2 W3 3.026842 1_545
