# generated using pymatgen
data_Ca2La2Ti3CuO12
_symmetry_space_group_name_H-M   'P 1'
_cell_length_a   3.88876400
_cell_length_b   3.88876400
_cell_length_c   15.88928500
_cell_angle_alpha   90.00000000
_cell_angle_beta   90.00000000
_cell_angle_gamma   90.00000000
_symmetry_Int_Tables_number   1
_chemical_formula_structural   Ca2La2Ti3CuO12
_chemical_formula_sum   'Ca2 La2 Ti3 Cu1 O12'
_cell_volume   240.28548119
_cell_formula_units_Z   1
loop_
 _symmetry_equiv_pos_site_id
 _symmetry_equiv_pos_as_xyz
  1  'x, y, z'
loop_
 _atom_site_type_symbol
 _atom_site_label
 _atom_site_symmetry_multiplicity
 _atom_site_fract_x
 _atom_site_fract_y
 _atom_site_fract_z
 _atom_site_occupancy
  Ca  Ca0  1  0.50000000  0.50000000  0.62311900  1
  Ca  Ca1  1  0.50000000  0.50000000  0.37688100  1
  La  La0  1  0.50000000  0.50000000  0.88516900  1
  La  La1  1  0.50000000  0.50000000  0.11483100  1
  Ti  Ti0  1  0.00000000  0.00000000  0.74717300  1
  Ti  Ti1  1  0.00000000  0.00000000  0.25282700  1
  Ti  Ti2  1  0.00000000  0.00000000  0.50000000  1
  Cu  Cu0  1  0.00000000  0.00000000  0.00000000  1
  O  O0  1  0.00000000  0.00000000  0.86747600  1
  O  O1  1  0.00000000  0.00000000  0.13252400  1
  O  O2  1  0.50000000  0.00000000  0.74847400  1
  O  O3  1  0.00000000  0.50000000  0.74847400  1
  O  O4  1  0.50000000  0.00000000  0.25152600  1
  O  O5  1  0.00000000  0.50000000  0.25152600  1
  O  O6  1  0.50000000  0.00000000  0.00000000  1
  O  O7  1  0.00000000  0.50000000  0.00000000  1
  O  O8  1  0.00000000  0.00000000  0.62338000  1
  O  O9  1  0.00000000  0.00000000  0.37662000  1
  O  O10  1  0.50000000  0.00000000  0.50000000  1
  O  O11  1  0.00000000  0.50000000  0.50000000  1
loop_
_geom_bond_atom_site_label_1
_geom_bond_atom_site_label_2
_geom_bond_distance
_geom_bond_site_symmetry_2
Ca0 O8 2.749775 1_555
Ca0 O8 2.749775 1_565
Ca0 O8 2.749775 1_655
Ca0 O8 2.749775 1_665
Ca0 O10 2.758192 1_565
Ca0 O11 2.758192 1_555
Ca0 O11 2.758192 1_655
Ca0 O10 2.758192 1_555
Ca0 O2 2.783504 1_555
Ca0 O3 2.783504 1_555
Ca0 O3 2.783504 1_655
Ca0 O2 2.783504 1_565
Ca1 O9 2.749775 1_555
Ca1 O9 2.749775 1_655
Ca1 O9 2.749775 1_565
Ca1 O9 2.749775 1_665
Ca1 O10 2.758192 1_565
Ca1 O11 2.758192 1_555
Ca1 O10 2.758192 1_555
Ca1 O11 2.758192 1_655
Ca1 O5 2.783504 1_655
Ca1 O5 2.783504 1_555
Ca1 O4 2.783504 1_555
Ca1 O4 2.783504 1_565
La0 O7 2.666406 1_656
La0 O6 2.666406 1_556
La0 O6 2.666406 1_566
La0 O7 2.666406 1_556
La0 O0 2.764105 1_555
La0 O0 2.764105 1_655
La0 O0 2.764105 1_565
La0 O0 2.764105 1_665
La0 O2 2.915158 1_555
La0 O3 2.915158 1_555
La0 O3 2.915158 1_655
La0 O2 2.915158 1_565
La1 O7 2.666406 1_655
La1 O6 2.666406 1_555
La1 O6 2.666406 1_565
La1 O7 2.666406 1_555
La1 O1 2.764105 1_555
La1 O1 2.764105 1_655
La1 O1 2.764105 1_565
La1 O1 2.764105 1_665
La1 O5 2.915158 1_655
La1 O5 2.915158 1_555
La1 O4 2.915158 1_555
La1 O4 2.915158 1_565
Cu0 O7 1.944382 1_555
Cu0 O7 1.944382 1_545
Cu0 O6 1.944382 1_455
Cu0 O6 1.944382 1_555
Cu0 O0 2.105712 1_554
Cu0 O1 2.105712 1_555
O0 Ti0 1.911529 1_555
O1 Ti1 1.911529 1_555
O2 Ti0 1.944492 1_555
O2 Ti0 1.944492 1_655
O3 Ti0 1.944492 1_555
O3 Ti0 1.944492 1_565
O4 Ti1 1.944492 1_555
O4 Ti1 1.944492 1_655
O5 Ti1 1.944492 1_555
O5 Ti1 1.944492 1_565
O8 Ti2 1.960420 1_555
O8 Ti0 1.966982 1_555
O9 Ti2 1.960420 1_555
O9 Ti1 1.966982 1_555
O10 Ti2 1.944382 1_555
O10 Ti2 1.944382 1_655
O11 Ti2 1.944382 1_555
O11 Ti2 1.944382 1_565
