# generated using pymatgen
data_Y3TaO7
_symmetry_space_group_name_H-M   'P 1'
_cell_length_a   6.41946327
_cell_length_b   6.41946327
_cell_length_c   7.47065815
_cell_angle_alpha   90.00000000
_cell_angle_beta   90.00000000
_cell_angle_gamma   109.59686764
_symmetry_Int_Tables_number   1
_chemical_formula_structural   Y3TaO7
_chemical_formula_sum   'Y6 Ta2 O14'
_cell_volume   290.02948017
_cell_formula_units_Z   2
loop_
 _symmetry_equiv_pos_site_id
 _symmetry_equiv_pos_as_xyz
  1  'x, y, z'
loop_
 _atom_site_type_symbol
 _atom_site_label
 _atom_site_symmetry_multiplicity
 _atom_site_fract_x
 _atom_site_fract_y
 _atom_site_fract_z
 _atom_site_occupancy
  Y  Y0  1  0.50000000  0.50000000  0.50000000  1
  Y  Y1  1  0.50000000  0.50000000  0.00000000  1
  Y  Y2  1  0.53410064  0.00009664  0.75000000  1
  Y  Y3  1  0.00009664  0.53410064  0.25000000  1
  Y  Y4  1  0.46589936  -0.00009664  0.25000000  1
  Y  Y5  1  -0.00009664  0.46589936  0.75000000  1
  Ta  Ta0  1  -0.00000000  -0.00000000  0.50000000  1
  Ta  Ta1  1  -0.00000000  -0.00000000  0.00000000  1
  O  O0  1  0.67799067  0.92734897  0.46822258  1
  O  O1  1  0.92734897  0.67799067  0.53177742  1
  O  O2  1  0.67799067  0.92734897  0.03177742  1
  O  O3  1  0.92734897  0.67799067  0.96822258  1
  O  O4  1  0.32200933  0.07265103  0.53177742  1
  O  O5  1  0.07265103  0.32200933  0.46822258  1
  O  O6  1  0.32200933  0.07265103  0.96822258  1
  O  O7  1  0.07265103  0.32200933  0.03177742  1
  O  O8  1  0.93408635  0.06591365  0.75000000  1
  O  O9  1  0.06591365  0.93408635  0.25000000  1
  O  O10  1  0.37092433  0.62907567  0.75000000  1
  O  O11  1  0.62907567  0.37092433  0.25000000  1
  O  O12  1  0.63781848  0.36218152  0.75000000  1
  O  O13  1  0.36218152  0.63781848  0.25000000  1
loop_
_geom_bond_atom_site_label_1
_geom_bond_atom_site_label_2
_geom_bond_distance
_geom_bond_site_symmetry_2
O0 Ta0 1.974889 1_665
O0 Y4 2.270198 1_565
O0 Y2 2.406648 1_565
O0 Y0 2.604844 1_555
O1 Ta0 1.974889 1_665
O1 Y5 2.270198 1_655
O1 Y3 2.406648 1_655
O1 Y0 2.604844 1_555
O2 Ta1 1.974889 1_665
O2 Y4 2.270198 1_565
O2 Y2 2.406648 1_564
O2 Y1 2.604844 1_555
O3 Ta1 1.974889 1_666
O3 Y5 2.270198 1_655
O3 Y3 2.406648 1_656
O3 Y1 2.604844 1_556
O4 Ta0 1.974889 1_555
O4 Y2 2.270198 1_555
O4 Y4 2.406648 1_555
O4 Y0 2.604844 1_555
O5 Ta0 1.974889 1_555
O5 Y3 2.270198 1_555
O5 Y5 2.406648 1_555
O5 Y0 2.604844 1_555
O6 Ta1 1.974889 1_556
O6 Y2 2.270198 1_555
O6 Y4 2.406648 1_556
O6 Y1 2.604844 1_556
O7 Ta1 1.974889 1_555
O7 Y3 2.270198 1_555
O7 Y5 2.406648 1_554
O7 Y1 2.604844 1_555
O8 Ta1 1.991569 1_656
O8 Ta0 1.991569 1_655
O8 Y5 2.458420 1_655
O8 Y2 2.458420 1_555
O9 Ta0 1.991569 1_565
O9 Ta1 1.991569 1_565
O9 Y4 2.458420 1_565
O9 Y3 2.458420 1_555
O10 Y5 2.257531 1_555
O10 Y2 2.257531 1_565
O10 Y1 2.306917 1_556
O10 Y0 2.306917 1_555
O11 Y4 2.257531 1_555
O11 Y3 2.257531 1_655
O11 Y1 2.306917 1_555
O11 Y0 2.306917 1_555
O12 Y2 2.192707 1_555
O12 Y5 2.192707 1_655
O12 Y0 2.361925 1_555
O12 Y1 2.361925 1_556
O13 Y4 2.192707 1_565
O13 Y3 2.192707 1_555
O13 Y0 2.361925 1_555
O13 Y1 2.361925 1_555
