# generated using pymatgen
data_LiAl4Tl4O12
_symmetry_space_group_name_H-M   'P 1'
_cell_length_a   5.31226456
_cell_length_b   5.43064073
_cell_length_c   7.88130136
_cell_angle_alpha   90.80263461
_cell_angle_beta   92.32272184
_cell_angle_gamma   90.17520353
_symmetry_Int_Tables_number   1
_chemical_formula_structural   LiAl4Tl4O12
_chemical_formula_sum   'Li1 Al4 Tl4 O12'
_cell_volume   227.15707382
_cell_formula_units_Z   1
loop_
 _symmetry_equiv_pos_site_id
 _symmetry_equiv_pos_as_xyz
  1  'x, y, z'
loop_
 _atom_site_type_symbol
 _atom_site_label
 _atom_site_symmetry_multiplicity
 _atom_site_fract_x
 _atom_site_fract_y
 _atom_site_fract_z
 _atom_site_occupancy
  Li  Li0  1  0.35398800  0.39556800  0.42936200  1
  Al  Al0  1  0.02084700  0.49962300  0.00355400  1
  Al  Al1  1  0.95643600  0.49933700  0.52676400  1
  Al  Al2  1  0.50977600  0.01536900  0.99437800  1
  Al  Al3  1  0.50003800  0.97455800  0.50800900  1
  Tl  Tl0  1  0.01035700  0.96426000  0.76118600  1
  Tl  Tl1  1  0.48749400  0.46151000  0.76238500  1
  Tl  Tl2  1  0.54962200  0.57389700  0.20772200  1
  Tl  Tl3  1  0.99059900  0.04334800  0.26556100  1
  O  O0  1  0.11071800  0.46139700  0.24433600  1
  O  O1  1  0.17795700  0.18947800  0.55077800  1
  O  O2  1  0.22977100  0.22508900  0.94326800  1
  O  O3  1  0.30371700  0.72152900  0.95495800  1
  O  O4  1  0.28275200  0.68847800  0.55559400  1
  O  O5  1  0.41074400  0.97798700  0.25519300  1
  O  O6  1  0.59071000  0.02503000  0.74859600  1
  O  O7  1  0.72702000  0.29248600  0.03836100  1
  O  O8  1  0.68543400  0.29149800  0.46194900  1
  O  O9  1  0.81265100  0.80690900  0.04752600  1
  O  O10  1  0.78392400  0.78196200  0.45514900  1
  O  O11  1  0.90544300  0.53568700  0.76037300  1
loop_
_geom_bond_atom_site_label_1
_geom_bond_atom_site_label_2
_geom_bond_distance
_geom_bond_site_symmetry_2
Li0 O1 1.771691 1_555
Li0 O8 1.859849 1_555
Li0 O4 1.911316 1_555
Li0 O0 1.946545 1_555
Li0 Tl2 2.292962 1_555
Al0 O2 1.926999 1_554
Al0 O7 1.951821 1_455
Al0 O0 1.952025 1_555
Al0 O3 1.976231 1_554
Al0 O11 2.000874 1_454
Al0 O9 2.038193 1_455
Al1 O10 1.872185 1_555
Al1 O8 1.876633 1_555
Al1 O11 1.879555 1_555
Al1 O4 2.015507 1_655
Al1 O1 2.062813 1_655
Al1 O0 2.409328 1_655
Al2 O2 1.909599 1_555
Al2 O7 1.912888 1_556
Al2 O3 1.946537 1_545
Al2 O6 2.002525 1_555
Al2 O9 2.003888 1_546
Al2 O5 2.154531 1_546
Al3 O10 1.894774 1_555
Al3 O6 1.952711 1_565
Al3 O4 1.981697 1_555
Al3 O8 2.024933 1_565
Al3 O5 2.029772 1_555
Al3 O1 2.109800 1_565
O0 Tl3 2.366376 1_455
O0 Tl2 2.437935 1_555
O1 Tl0 2.282187 1_545
O1 Tl3 2.537163 1_455
O2 Tl0 2.285103 1_545
O2 Tl1 2.398730 1_555
O3 Tl1 2.306302 1_555
O3 Tl2 2.481522 1_556
O3 Tl0 2.524789 1_555
O4 Tl1 2.297654 1_555
O4 Tl0 2.664156 1_555
O5 Tl3 2.265603 1_465
O5 Tl2 2.347173 1_555
O6 Tl0 2.252980 1_645
O6 Tl1 2.436525 1_555
O7 Tl2 2.249196 1_555
O7 Tl3 2.621776 1_555
O7 Tl1 2.651643 1_554
O8 Tl2 2.619680 1_555
O8 Tl3 2.645383 1_555
O9 Tl3 2.300932 1_565
O9 Tl2 2.307514 1_555
O9 Tl0 2.677079 1_654
O10 Tl3 2.373999 1_565
O10 Tl2 2.522213 1_555
O10 Tl0 2.816956 1_655
O11 Tl1 2.256019 1_555
O11 Tl0 2.391428 1_655
