# generated using pymatgen
data_Ba3SrSi8(NO)8
_symmetry_space_group_name_H-M   'P 1'
_cell_length_a   4.85336917
_cell_length_b   5.52660773
_cell_length_c   14.47861146
_cell_angle_alpha   90.96789905
_cell_angle_beta   89.98276609
_cell_angle_gamma   90.02588723
_symmetry_Int_Tables_number   1
_chemical_formula_structural   Ba3SrSi8(NO)8
_chemical_formula_sum   'Ba3 Sr1 Si8 N8 O8'
_cell_volume   388.29951449
_cell_formula_units_Z   1
loop_
 _symmetry_equiv_pos_site_id
 _symmetry_equiv_pos_as_xyz
  1  'x, y, z'
loop_
 _atom_site_type_symbol
 _atom_site_label
 _atom_site_symmetry_multiplicity
 _atom_site_fract_x
 _atom_site_fract_y
 _atom_site_fract_z
 _atom_site_occupancy
  Ba  Ba0  1  0.70574600  0.74161100  0.47409300  1
  Ba  Ba1  1  0.20607900  0.25825100  0.52604800  1
  Ba  Ba2  1  0.20827600  0.75481100  0.97388000  1
  Sr  Sr0  1  0.71039900  0.23145800  0.02994300  1
  Si  Si0  1  0.75244500  0.44207100  0.70457300  1
  Si  Si1  1  0.25245500  0.56182000  0.29536000  1
  Si  Si2  1  0.25253400  0.05994800  0.20037900  1
  Si  Si3  1  0.75244600  0.94841000  0.79945800  1
  Si  Si4  1  0.25356700  0.25008600  0.80288200  1
  Si  Si5  1  0.75478700  0.74436000  0.19619800  1
  Si  Si6  1  0.75421600  0.25135500  0.29889500  1
  Si  Si7  1  0.25437400  0.74747000  0.70046300  1
  N  N0  1  0.10486400  0.27717500  0.27402000  1
  N  N1  1  0.60360600  0.72502400  0.72825400  1
  N  N2  1  0.60263700  0.22773600  0.77542600  1
  N  N3  1  0.10555200  0.77586400  0.22231400  1
  N  N4  1  0.10612200  0.46555700  0.72871900  1
  N  N5  1  0.60689100  0.53529400  0.27246600  1
  N  N6  1  0.60896200  0.03340200  0.22186000  1
  N  N7  1  0.10504300  0.96691900  0.77384700  1
  O  O0  1  0.70642200  0.37020600  0.59583400  1
  O  O1  1  0.20492200  0.63398600  0.40369700  1
  O  O2  1  0.20544500  0.13376900  0.09325300  1
  O  O3  1  0.70717600  0.89631700  0.90884200  1
  O  O4  1  0.20187600  0.30443600  0.91223000  1
  O  O5  1  0.70594000  0.66692500  0.08833300  1
  O  O6  1  0.70187000  0.19689200  0.40780400  1
  O  O7  1  0.20574800  0.79884700  0.59092800  1
loop_
_geom_bond_atom_site_label_1
_geom_bond_atom_site_label_2
_geom_bond_distance
_geom_bond_site_symmetry_2
Ba0 O1 2.690980 1_655
Ba0 O1 2.698251 1_555
Ba0 O6 2.708176 1_565
Ba0 O0 2.728069 1_555
Ba0 O7 2.971615 1_555
Ba0 O7 2.972228 1_655
Ba0 O6 3.144306 1_555
Ba0 N5 3.152840 1_555
Ba1 O0 2.695038 1_455
Ba1 O0 2.698078 1_555
Ba1 O7 2.721992 1_545
Ba1 O1 2.752173 1_555
Ba1 O6 2.968954 1_555
Ba1 O6 3.002746 1_455
Ba1 O7 3.116686 1_555
Ba1 N4 3.169339 1_555
Ba2 O4 2.630199 1_555
Ba2 O2 2.692848 1_566
Ba2 O3 2.717174 1_555
Ba2 O3 2.727826 1_455
Ba2 O5 2.974311 1_556
Ba2 O5 2.991589 1_456
Ba2 O4 3.180597 1_565
Ba2 N7 3.182648 1_555
N0 Si6 1.745688 1_455
N0 Si2 1.746087 1_555
N0 Si1 1.750992 1_555
N1 Si7 1.747124 1_555
N1 Si3 1.750843 1_555
N1 Si0 1.751432 1_555
N2 Si0 1.738961 1_555
N2 Si4 1.744020 1_555
N2 Si3 1.747030 1_545
N3 Si5 1.751949 1_455
N3 Si1 1.752051 1_555
N3 Si2 1.757955 1_565
N4 Si0 1.756176 1_455
N4 Si4 1.768497 1_555
N4 Si7 1.769988 1_555
N5 Si1 1.757477 1_555
N5 Si5 1.763943 1_555
N5 Si6 1.772455 1_555
N6 Si2 1.764319 1_555
N6 Si6 1.773766 1_555
N6 Si5 1.780875 1_545
N6 Sr0 3.043525 1_555
N7 Si3 1.754194 1_455
N7 Si7 1.755528 1_555
N7 Si4 1.767018 1_565
O0 Si0 1.632589 1_555
O1 Si1 1.628321 1_555
O2 Si2 1.626673 1_555
O2 Sr0 2.631275 1_455
O2 Sr0 2.674313 1_555
O3 Si3 1.629261 1_555
O3 Sr0 2.528924 1_566
O4 Si4 1.625875 1_555
O4 Sr0 2.962606 1_456
O4 Sr0 3.030726 1_556
O5 Si5 1.629698 1_555
O5 Sr0 2.537414 1_555
O5 Sr0 3.246278 1_565
O6 Si6 1.630131 1_555
O7 Si7 1.633078 1_555
