# generated using pymatgen
data_Li4Co5NiO12
_symmetry_space_group_name_H-M   'P 1'
_cell_length_a   5.02605476
_cell_length_b   10.82659111
_cell_length_c   8.59546488
_cell_angle_alpha   112.34285174
_cell_angle_beta   89.27609489
_cell_angle_gamma   84.97428503
_symmetry_Int_Tables_number   1
_chemical_formula_structural   Li4Co5NiO12
_chemical_formula_sum   'Li8 Co10 Ni2 O24'
_cell_volume   430.40950329
_cell_formula_units_Z   2
loop_
 _symmetry_equiv_pos_site_id
 _symmetry_equiv_pos_as_xyz
  1  'x, y, z'
loop_
 _atom_site_type_symbol
 _atom_site_label
 _atom_site_symmetry_multiplicity
 _atom_site_fract_x
 _atom_site_fract_y
 _atom_site_fract_z
 _atom_site_occupancy
  Li  Li0  1  0.04092000  0.74550000  0.20501900  1
  Li  Li1  1  0.54306200  0.74710200  0.70906500  1
  Li  Li2  1  0.46303400  0.25414600  0.96515500  1
  Li  Li3  1  0.95652800  0.25347300  0.46380900  1
  Li  Li4  1  0.53661900  0.74574900  0.03471200  1
  Li  Li5  1  0.04386100  0.74665000  0.53611900  1
  Li  Li6  1  0.95903700  0.25451300  0.79487100  1
  Li  Li7  1  0.45716200  0.25287700  0.29081700  1
  Co  Co0  1  0.24989400  0.49994400  0.24995000  1
  Co  Co1  1  0.75024400  0.50001200  0.74996400  1
  Co  Co2  1  0.25065500  0.50002000  0.91480000  1
  Co  Co3  1  0.75050500  0.50070300  0.41518300  1
  Co  Co4  1  0.74952200  0.49971900  0.08501000  1
  Co  Co5  1  0.24964900  0.49944700  0.58482300  1
  Co  Co6  1  0.50263100  0.99868100  0.16932900  1
  Co  Co7  1  0.99783300  0.00098000  0.66993000  1
  Co  Co8  1  0.49736300  0.00125000  0.83078800  1
  Co  Co9  1  0.00184100  0.99909300  0.33032800  1
  Ni  Ni0  1  0.49955300  0.00040400  0.50036400  1
  Ni  Ni1  1  0.00022600  0.99979600  0.99965600  1
  O  O0  1  0.91644900  0.60516500  0.30394800  1
  O  O1  1  0.41646100  0.60478200  0.80351300  1
  O  O2  1  0.08377800  0.39483300  0.69615300  1
  O  O3  1  0.58366400  0.39510900  0.19618900  1
  O  O4  1  0.34188600  0.10271200  0.05087800  1
  O  O5  1  0.83837400  0.10231600  0.55025600  1
  O  O6  1  0.65819600  0.89714700  0.94922200  1
  O  O7  1  0.16114500  0.89786200  0.44999200  1
  O  O8  1  0.29966800  0.10586800  0.73438500  1
  O  O9  1  0.79983700  0.10487900  0.23487700  1
  O  O10  1  0.19996300  0.89370000  0.12940900  1
  O  O11  1  0.69929200  0.89585500  0.63195400  1
  O  O12  1  0.79995800  0.10623000  0.87088200  1
  O  O13  1  0.30033400  0.10437400  0.36799700  1
  O  O14  1  0.70012800  0.89437700  0.26615600  1
  O  O15  1  0.20022600  0.89501000  0.76490500  1
  O  O16  1  0.12339900  0.39498600  0.03559400  1
  O  O17  1  0.62382800  0.39530900  0.53561000  1
  O  O18  1  0.62102500  0.39335200  0.85887200  1
  O  O19  1  0.12094700  0.39336400  0.35896800  1
  O  O20  1  0.37877600  0.60642600  0.14070200  1
  O  O21  1  0.87950800  0.60670700  0.64120300  1
  O  O22  1  0.87638600  0.60488100  0.96451700  1
  O  O23  1  0.37663500  0.60469900  0.46412600  1
loop_
_geom_bond_atom_site_label_1
_geom_bond_atom_site_label_2
_geom_bond_distance
_geom_bond_site_symmetry_2
Li0 O20 2.086067 1_555
Li0 O0 2.135004 1_455
Li0 O10 2.154106 1_555
Li0 O14 2.158131 1_455
Li0 O7 2.255202 1_555
Li0 O22 2.268487 1_454
Li1 O21 2.088242 1_555
Li1 O1 2.132582 1_555
Li1 O11 2.160911 1_555
Li1 O15 2.162192 1_555
Li1 O6 2.209141 1_555
Li1 O23 2.304732 1_555
Li2 O16 2.102737 1_556
Li2 O3 2.128054 1_556
Li2 O12 2.142981 1_555
Li2 O4 2.164190 1_556
Li2 O18 2.230406 1_555
Li2 O8 2.244317 1_555
Li3 O17 2.082929 1_555
Li3 O2 2.149347 1_655
Li3 O5 2.160236 1_555
Li3 O13 2.175894 1_655
Li3 O9 2.221433 1_555
Li3 O19 2.242092 1_655
Li4 O22 2.103393 1_554
Li4 O1 2.128162 1_554
Li4 O10 2.142523 1_555
Li4 O6 2.163325 1_554
Li4 O20 2.229528 1_555
Li4 O14 2.249764 1_555
Li5 O23 2.083903 1_555
Li5 O0 2.149187 1_455
Li5 O7 2.157581 1_555
Li5 O11 2.179296 1_455
Li5 O15 2.218898 1_555
Li5 O21 2.243803 1_455
Li6 O18 2.085310 1_555
Li6 O2 2.134130 1_655
Li6 O8 2.156363 1_655
Li6 O12 2.156987 1_555
Li6 O5 2.253219 1_555
Li6 O16 2.268805 1_656
Li7 O19 2.087912 1_555
Li7 O3 2.132562 1_555
Li7 O13 2.160119 1_555
Li7 O9 2.162114 1_555
Li7 O4 2.208675 1_555
Li7 O17 2.304531 1_555
Co0 O3 1.887853 1_555
Co0 O0 1.888306 1_455
Co0 O19 1.888745 1_555
Co0 O20 1.889169 1_555
Co0 O23 1.910476 1_555
Co0 O16 1.911698 1_555
Co1 O1 1.887596 1_555
Co1 O2 1.888473 1_655
Co1 O21 1.888802 1_555
Co1 O18 1.889313 1_555
Co1 O17 1.910819 1_555
Co1 O22 1.912004 1_555
Co2 O16 1.946424 1_556
Co2 O1 1.966284 1_555
Co2 O20 1.993235 1_556
Co2 O2 2.027897 1_555
Co2 O18 2.051489 1_555
Co2 O22 2.060748 1_455
Co3 O17 1.946154 1_555
Co3 O0 1.963703 1_555
Co3 O21 1.994698 1_555
Co3 O3 2.031038 1_555
Co3 O19 2.054694 1_655
Co3 O23 2.055451 1_555
Co4 O22 1.944878 1_554
Co4 O3 1.964442 1_555
Co4 O18 1.995404 1_554
Co4 O0 2.030502 1_555
Co4 O20 2.053255 1_555
Co4 O16 2.058542 1_655
Co5 O23 1.947219 1_555
Co5 O2 1.965416 1_555
Co5 O19 1.993235 1_555
Co5 O1 2.028401 1_555
Co5 O21 2.053076 1_455
Co5 O17 2.057358 1_555
Co6 O14 1.868759 1_555
Co6 O13 1.877732 1_565
Co6 O6 1.905234 1_554
Co6 O4 1.921224 1_565
Co6 O9 1.923646 1_565
Co6 O10 1.934762 1_555
Co7 O12 1.879530 1_555
Co7 O15 1.883106 1_645
Co7 O5 1.904979 1_555
Co7 O11 1.918985 1_545
Co7 O7 1.920831 1_645
Co7 O8 1.934587 1_655
Co8 O8 1.869232 1_555
Co8 O11 1.877115 1_545
Co8 O4 1.904840 1_556
Co8 O6 1.921865 1_545
Co8 O15 1.923829 1_545
Co8 O12 1.934394 1_555
Co9 O10 1.880240 1_555
Co9 O9 1.883450 1_465
Co9 O7 1.903773 1_555
Co9 O13 1.919914 1_565
Co9 O5 1.921242 1_465
Co9 O14 1.932877 1_455
Ni0 O5 2.071038 1_555
Ni0 O7 2.072888 1_545
Ni0 O8 2.088292 1_555
Ni0 O13 2.090253 1_555
Ni0 O11 2.090779 1_545
Ni0 O14 2.091807 1_545
Ni1 O12 2.088260 1_465
Ni1 O6 2.089363 1_455
Ni1 O4 2.089376 1_566
Ni1 O10 2.090774 1_556
Ni1 O15 2.092247 1_555
Ni1 O9 2.096538 1_466
