# generated using pymatgen
data_DyZn12
_symmetry_space_group_name_H-M   'P 1'
_cell_length_a   6.70345637
_cell_length_b   6.70345637
_cell_length_c   6.70345637
_cell_angle_alpha   98.32478853
_cell_angle_beta   98.32478853
_cell_angle_gamma   135.27002648
_symmetry_Int_Tables_number   1
_chemical_formula_structural   DyZn12
_chemical_formula_sum   'Dy1 Zn12'
_cell_volume   196.04815253
_cell_formula_units_Z   1
loop_
 _symmetry_equiv_pos_site_id
 _symmetry_equiv_pos_as_xyz
  1  'x, y, z'
loop_
 _atom_site_type_symbol
 _atom_site_label
 _atom_site_symmetry_multiplicity
 _atom_site_fract_x
 _atom_site_fract_y
 _atom_site_fract_z
 _atom_site_occupancy
  Dy  Dy0  1  -0.00000000  0.00000000  -0.00000000  1
  Zn  Zn0  1  -0.00000000  0.00000000  0.50000000  1
  Zn  Zn1  1  0.50000000  0.50000000  0.50000000  1
  Zn  Zn2  1  0.50000000  0.00000000  -0.00000000  1
  Zn  Zn3  1  -0.00000000  0.50000000  -0.00000000  1
  Zn  Zn4  1  -0.00000000  0.35380882  0.35380882  1
  Zn  Zn5  1  0.00000000  0.64619118  0.64619118  1
  Zn  Zn6  1  0.64619118  0.00000000  0.64619118  1
  Zn  Zn7  1  0.35380882  -0.00000000  0.35380882  1
  Zn  Zn8  1  0.50000000  0.28327433  0.78327433  1
  Zn  Zn9  1  0.50000000  0.71672567  0.21672567  1
  Zn  Zn10  1  0.71672567  0.50000000  0.21672567  1
  Zn  Zn11  1  0.28327433  0.50000000  0.78327433  1
loop_
_geom_bond_atom_site_label_1
_geom_bond_atom_site_label_2
_geom_bond_distance
_geom_bond_site_symmetry_2
Dy0 Zn7 3.101846 1_555
Dy0 Zn6 3.101846 1_454
Dy0 Zn4 3.101846 1_555
Dy0 Zn5 3.101846 1_544
Dy0 Zn8 3.180600 1_554
Dy0 Zn10 3.180600 1_445
Dy0 Zn11 3.180600 1_554
Dy0 Zn10 3.180600 1_555
Dy0 Zn11 3.180600 1_444
Dy0 Zn9 3.180600 1_445
Dy0 Zn8 3.180600 1_444
Dy0 Zn9 3.180600 1_555
Dy0 Zn0 3.351728 1_555
Dy0 Zn0 3.351728 1_554
Dy0 Zn3 3.351728 1_555
Dy0 Zn1 3.351728 1_555
Dy0 Zn2 3.351728 1_555
Dy0 Zn1 3.351728 1_444
Dy0 Zn2 3.351728 1_455
Dy0 Zn3 3.351728 1_545
Zn0 Zn1 2.550701 1_445
Zn0 Zn1 2.550701 1_555
Zn0 Zn11 2.552528 1_555
Zn0 Zn8 2.552528 1_555
Zn0 Zn10 2.552528 1_445
Zn0 Zn9 2.552528 1_445
Zn0 Zn7 2.694173 1_555
Zn0 Zn6 2.694173 1_455
Zn0 Zn4 2.694173 1_555
Zn0 Zn5 2.694173 1_545
Zn1 Zn11 2.552528 1_555
Zn1 Zn8 2.552528 1_555
Zn1 Zn10 2.552528 1_555
Zn1 Zn9 2.552528 1_555
Zn1 Zn6 2.694173 1_565
Zn1 Zn7 2.694173 1_555
Zn1 Zn4 2.694173 1_555
Zn1 Zn5 2.694173 1_655
Zn2 Zn3 2.550701 1_545
Zn2 Zn3 2.550701 1_655
Zn2 Zn8 2.552528 1_554
Zn2 Zn9 2.552528 1_545
Zn2 Zn5 2.694173 1_544
Zn2 Zn7 2.694173 1_555
Zn2 Zn4 2.694173 1_655
Zn2 Zn6 2.694173 1_554
Zn3 Zn9 2.552528 1_555
Zn3 Zn8 2.552528 1_454
Zn3 Zn5 2.694173 1_554
Zn3 Zn4 2.694173 1_555
Zn3 Zn6 2.694173 1_454
Zn3 Zn7 2.694173 1_565
Zn4 Zn5 2.563320 1_555
Zn4 Zn9 2.819649 1_445
Zn4 Zn9 2.819649 1_555
Zn5 Zn8 2.819649 1_455
Zn5 Zn8 2.819649 1_565
Zn6 Zn7 2.563320 1_555
Zn6 Zn9 2.794687 1_545
Zn6 Zn8 2.794687 1_555
Zn7 Zn9 2.794687 1_545
Zn7 Zn8 2.794687 1_555
Zn10 Zn3 2.552528 1_655
Zn10 Zn2 2.552528 1_555
Zn10 Zn9 2.687058 1_555
Zn10 Zn8 2.687058 1_554
Zn10 Zn5 2.794687 1_655
Zn10 Zn4 2.794687 1_655
Zn10 Zn7 2.819649 1_555
Zn10 Zn7 2.819649 1_665
Zn11 Zn3 2.552528 1_556
Zn11 Zn2 2.552528 1_566
Zn11 Zn9 2.687058 1_556
Zn11 Zn8 2.687058 1_555
Zn11 Zn4 2.794687 1_555
Zn11 Zn5 2.794687 1_555
Zn11 Zn6 2.819649 1_455
Zn11 Zn6 2.819649 1_565
