# generated using pymatgen
data_Mg6NiW
_symmetry_space_group_name_H-M   'P 1'
_cell_length_a   4.70423100
_cell_length_b   5.85284700
_cell_length_c   10.72225000
_cell_angle_alpha   90.00000000
_cell_angle_beta   90.00000000
_cell_angle_gamma   90.00000000
_symmetry_Int_Tables_number   1
_chemical_formula_structural   Mg6NiW
_chemical_formula_sum   'Mg12 Ni2 W2'
_cell_volume   295.21725642
_cell_formula_units_Z   2
loop_
 _symmetry_equiv_pos_site_id
 _symmetry_equiv_pos_as_xyz
  1  'x, y, z'
loop_
 _atom_site_type_symbol
 _atom_site_label
 _atom_site_symmetry_multiplicity
 _atom_site_fract_x
 _atom_site_fract_y
 _atom_site_fract_z
 _atom_site_occupancy
  Mg  Mg0  1  0.00000000  0.73857200  0.08487100  1
  Mg  Mg1  1  0.00000000  0.26142800  0.08487100  1
  Mg  Mg2  1  0.00000000  0.00000000  0.32775300  1
  Mg  Mg3  1  0.50000000  0.25630500  0.42176100  1
  Mg  Mg4  1  0.50000000  0.74369500  0.42176100  1
  Mg  Mg5  1  0.50000000  0.00000000  0.16977800  1
  Mg  Mg6  1  0.00000000  0.23857200  0.58487100  1
  Mg  Mg7  1  0.00000000  0.76142800  0.58487100  1
  Mg  Mg8  1  0.00000000  0.50000000  0.82775300  1
  Mg  Mg9  1  0.50000000  0.75630500  0.92176100  1
  Mg  Mg10  1  0.50000000  0.24369500  0.92176100  1
  Mg  Mg11  1  0.50000000  0.50000000  0.66977800  1
  Ni  Ni0  1  0.00000000  0.50000000  0.30234100  1
  Ni  Ni1  1  0.00000000  0.00000000  0.80234100  1
  W  W0  1  0.50000000  0.50000000  0.18686400  1
  W  W1  1  0.50000000  0.00000000  0.68686400  1
loop_
_geom_bond_atom_site_label_1
_geom_bond_atom_site_label_2
_geom_bond_distance
_geom_bond_site_symmetry_2
Mg0 Ni0 2.717879 1_555
Mg0 Mg9 2.932898 1_554
Mg0 Mg9 2.932898 1_454
Mg0 W0 2.945865 1_455
Mg0 W0 2.945865 1_555
Mg1 Ni0 2.717879 1_555
Mg1 Mg10 2.932898 1_454
Mg1 Mg10 2.932898 1_554
Mg1 W0 2.945865 1_455
Mg1 W0 2.945865 1_555
Mg2 Ni0 2.939081 1_545
Mg2 Ni0 2.939081 1_555
Mg2 Mg4 2.966278 1_445
Mg2 Mg4 2.966278 1_545
Mg2 Mg3 2.966278 1_455
Mg2 Mg3 2.966278 1_555
Mg3 Mg4 2.852619 1_555
Mg3 W0 2.894448 1_555
Mg3 Mg6 2.932898 1_555
Mg3 Mg6 2.932898 1_655
Mg3 Mg4 3.000228 1_545
Mg3 Ni0 3.034199 1_555
Mg3 Ni0 3.034199 1_655
Mg3 Mg5 3.090340 1_555
Mg3 W1 3.214055 1_555
Mg4 W0 2.894448 1_555
Mg4 Mg7 2.932898 1_655
Mg4 Mg7 2.932898 1_555
Mg4 Ni0 3.034199 1_555
Mg4 Ni0 3.034199 1_655
Mg4 Mg5 3.090340 1_565
Mg4 W1 3.214055 1_565
Mg5 W0 2.932152 1_545
Mg5 W0 2.932152 1_555
Mg5 Mg9 3.017654 1_544
Mg6 Ni1 2.717879 1_555
Mg6 W1 2.945865 1_555
Mg6 W1 2.945865 1_455
Mg7 Ni1 2.717879 1_565
Mg7 W1 2.945865 1_565
Mg7 W1 2.945865 1_465
Mg8 Ni1 2.939081 1_565
Mg8 Ni1 2.939081 1_555
Mg8 Mg9 2.966278 1_555
Mg8 Mg9 2.966278 1_455
Mg9 W1 2.894448 1_565
Mg9 Ni1 3.034199 1_565
Mg9 Ni1 3.034199 1_665
Mg9 W0 3.214055 1_556
Mg10 Mg9 2.852619 1_545
Mg10 W1 2.894448 1_555
Mg10 Mg8 2.966278 1_655
Mg10 Mg8 2.966278 1_555
Mg10 Mg9 3.000228 1_555
Mg10 Mg5 3.017654 1_556
Mg10 Ni1 3.034199 1_655
Mg10 Ni1 3.034199 1_555
Mg10 Mg11 3.090340 1_555
Mg10 W0 3.214055 1_556
Mg11 W1 2.932152 1_565
Mg11 W1 2.932152 1_555
Mg11 Mg4 3.017654 1_555
Mg11 Mg3 3.017654 1_555
Mg11 Mg9 3.090340 1_555
Ni0 W0 2.658105 1_455
Ni0 W0 2.658105 1_555
Ni1 W1 2.658105 1_555
Ni1 W1 2.658105 1_455
