# generated using pymatgen
data_Ce2Ni12As7
_symmetry_space_group_name_H-M   'P 1'
_cell_length_a   9.40230750
_cell_length_b   9.40230750
_cell_length_c   3.89754600
_cell_angle_alpha   90.00000000
_cell_angle_beta   90.00000000
_cell_angle_gamma   119.99999645
_symmetry_Int_Tables_number   1
_chemical_formula_structural   Ce2Ni12As7
_chemical_formula_sum   'Ce2 Ni12 As7'
_cell_volume   298.39448871
_cell_formula_units_Z   1
loop_
 _symmetry_equiv_pos_site_id
 _symmetry_equiv_pos_as_xyz
  1  'x, y, z'
loop_
 _atom_site_type_symbol
 _atom_site_label
 _atom_site_symmetry_multiplicity
 _atom_site_fract_x
 _atom_site_fract_y
 _atom_site_fract_z
 _atom_site_occupancy
  Ce  Ce0  1  0.00000000  0.00000000  0.00000000  1
  Ce  Ce1  1  0.33333300  0.66666700  0.50000000  1
  Ni  Ni0  1  0.10063300  0.71590300  0.00000000  1
  Ni  Ni1  1  0.28409700  0.38473000  0.00000000  1
  Ni  Ni2  1  0.61527000  0.89936700  0.00000000  1
  Ni  Ni3  1  0.81777500  0.20673500  0.00000000  1
  Ni  Ni4  1  0.79326500  0.61103900  0.00000000  1
  Ni  Ni5  1  0.38896100  0.18222500  0.00000000  1
  Ni  Ni6  1  0.04759300  0.28888300  0.50000000  1
  Ni  Ni7  1  0.71111700  0.75871000  0.50000000  1
  Ni  Ni8  1  0.24129000  0.95240700  0.50000000  1
  Ni  Ni9  1  0.87791400  0.44834700  0.50000000  1
  Ni  Ni10  1  0.55165300  0.42956700  0.50000000  1
  Ni  Ni11  1  0.57043300  0.12208600  0.50000000  1
  As  As0  1  0.06801800  0.44710200  0.00000000  1
  As  As1  1  0.55289800  0.62091600  0.00000000  1
  As  As2  1  0.37908400  0.93198200  0.00000000  1
  As  As3  1  0.77406200  0.03956800  0.50000000  1
  As  As4  1  0.96043200  0.73449400  0.50000000  1
  As  As5  1  0.26550600  0.22593800  0.50000000  1
  As  As6  1  0.66666700  0.33333300  0.00000000  1
loop_
_geom_bond_atom_site_label_1
_geom_bond_atom_site_label_2
_geom_bond_distance
_geom_bond_site_symmetry_2
Ce0 Ni3 3.169255 1_455
Ce0 Ni4 3.169264 1_445
Ce0 Ni5 3.169264 1_555
Ce0 Ni8 3.187488 1_544
Ce0 Ni8 3.187488 1_545
Ce0 Ni6 3.187488 1_555
Ce0 Ni6 3.187488 1_554
Ce0 Ni7 3.187488 1_445
Ce0 Ni7 3.187488 1_444
Ce0 Ni0 3.249278 1_545
Ce0 Ni2 3.249278 1_445
Ce0 Ni1 3.249278 1_555
Ce1 Ni0 3.132389 1_556
Ce1 Ni0 3.132389 1_555
Ce1 Ni2 3.132394 1_556
Ce1 Ni2 3.132394 1_555
Ce1 Ni1 3.132396 1_556
Ce1 Ni1 3.132396 1_555
Ce1 Ni8 3.208097 1_555
Ce1 Ni6 3.208104 1_555
Ce1 Ni7 3.208107 1_555
As0 Ni3 2.307835 1_455
As0 Ni1 2.379688 1_555
As0 Ni0 2.388830 1_555
As0 Ni6 2.400403 1_555
As0 Ni6 2.400403 1_554
As0 Ni9 2.648327 1_455
As0 Ni9 2.648327 1_454
As0 Ce1 3.022018 1_554
As0 Ce1 3.022018 1_555
As1 Ni4 2.307840 1_555
As1 Ni2 2.379688 1_555
As1 Ni1 2.388830 1_555
As1 Ni7 2.400403 1_554
As1 Ni7 2.400403 1_555
As1 Ni10 2.648327 1_555
As1 Ni10 2.648327 1_554
As1 Ce1 3.022022 1_554
As1 Ce1 3.022022 1_555
As2 Ni5 2.307830 1_565
As2 Ni0 2.379688 1_555
As2 Ni2 2.388830 1_555
As2 Ni8 2.400403 1_554
As2 Ni8 2.400403 1_555
As2 Ni11 2.648327 1_564
As2 Ni11 2.648327 1_565
As2 Ce1 3.022015 1_555
As2 Ce1 3.022015 1_554
As3 Ni11 2.398548 1_555
As3 Ni7 2.400162 1_545
As3 Ni3 2.406462 1_556
As3 Ni3 2.406462 1_555
As3 Ni2 2.407567 1_546
As3 Ni2 2.407567 1_545
As3 Ni6 2.465876 1_655
As3 Ce0 3.039614 1_656
As3 Ce0 3.039614 1_655
As4 Ni9 2.398548 1_555
As4 Ni8 2.400162 1_655
As4 Ni4 2.406463 1_556
As4 Ni4 2.406463 1_555
As4 Ni0 2.407567 1_655
As4 Ni0 2.407567 1_656
As4 Ni7 2.465876 1_555
As4 Ce0 3.039614 1_665
As4 Ce0 3.039614 1_666
As5 Ni10 2.398548 1_555
As5 Ni6 2.400162 1_555
As5 Ni5 2.406467 1_555
As5 Ni5 2.406467 1_556
As5 Ni1 2.407567 1_556
As5 Ni1 2.407567 1_555
As5 Ni8 2.465876 1_545
As5 Ce0 3.039615 1_556
As5 Ce0 3.039615 1_555
As6 Ni3 2.264193 1_555
As6 Ni4 2.264193 1_555
As6 Ni5 2.264193 1_555
As6 Ni11 2.600823 1_554
As6 Ni11 2.600823 1_555
As6 Ni9 2.600823 1_554
As6 Ni9 2.600823 1_555
As6 Ni10 2.600829 1_555
As6 Ni10 2.600829 1_554
