# generated using pymatgen
data_LiAlH8C16(O2F9)4
_symmetry_space_group_name_H-M   'P 1'
_cell_length_a   10.63616946
_cell_length_b   10.63616946
_cell_length_c   10.63616946
_cell_angle_alpha   101.21698498
_cell_angle_beta   101.21698498
_cell_angle_gamma   127.65820553
_symmetry_Int_Tables_number   1
_chemical_formula_structural   LiAlH8C16(O2F9)4
_chemical_formula_sum   'Li1 Al1 H8 C16 O8 F36'
_cell_volume   854.92023874
_cell_formula_units_Z   1
loop_
 _symmetry_equiv_pos_site_id
 _symmetry_equiv_pos_as_xyz
  1  'x, y, z'
loop_
 _atom_site_type_symbol
 _atom_site_label
 _atom_site_symmetry_multiplicity
 _atom_site_fract_x
 _atom_site_fract_y
 _atom_site_fract_z
 _atom_site_occupancy
  Li  Li0  1  0.75000000  0.25000000  0.50000000  1
  Al  Al0  1  0.00000000  0.00000000  0.00000000  1
  H  H0  1  0.68892800  0.96649900  0.47515600  1
  H  H1  1  0.49134300  0.21377200  0.52484400  1
  H  H2  1  0.78622800  0.31107200  0.27757100  1
  H  H3  1  0.03350100  0.50865700  0.72242900  1
  H  H4  1  0.58373200  0.94185600  0.33336300  1
  H  H5  1  0.60849200  0.25036900  0.66663700  1
  H  H6  1  0.74963100  0.41626800  0.35812400  1
  H  H7  1  0.05814400  0.39150800  0.64187600  1
  C  C0  1  0.11523500  0.00589800  0.76482300  1
  C  C1  1  0.24107500  0.35041200  0.23517700  1
  C  C2  1  0.64958800  0.88476500  0.89066300  1
  C  C3  1  0.99410200  0.75892500  0.10933700  1
  C  C4  1  0.31735100  0.13099800  0.85287400  1
  C  C5  1  0.27812400  0.46447700  0.14712600  1
  C  C6  1  0.53552300  0.68264900  0.81364700  1
  C  C7  1  0.86900200  0.72187600  0.18635300  1
  C  C8  1  0.08551100  0.06616000  0.64571700  1
  C  C9  1  0.42044300  0.43979400  0.35428300  1
  C  C10  1  0.56020600  0.91448900  0.98064900  1
  C  C11  1  0.93384000  0.57955700  0.01935100  1
  C  C12  1  0.03799100  0.81446400  0.69252900  1
  C  C13  1  0.12193500  0.34546300  0.30747100  1
  C  C14  1  0.65453700  0.96200900  0.77647200  1
  C  C15  1  0.18553600  0.87806500  0.22352800  1
  O  O0  1  0.03518100  0.01367200  0.84656500  1
  O  O1  1  0.16710700  0.18861600  0.15343500  1
  O  O2  1  0.81138400  0.96481900  0.97849100  1
  O  O3  1  0.98632800  0.83289300  0.02150900  1
  O  O4  1  0.68060500  0.02873300  0.42330300  1
  O  O5  1  0.60543000  0.25730200  0.57669700  1
  O  O6  1  0.74269800  0.31939500  0.34812800  1
  O  O7  1  0.97126700  0.39457000  0.65187200  1
  F  F0  1  0.39698600  0.09750500  0.78522300  1
  F  F1  1  0.31228200  0.61176300  0.21477700  1
  F  F2  1  0.38823700  0.60301400  0.70051900  1
  F  F3  1  0.90249500  0.68771800  0.29948100  1
  F  F4  1  0.34774000  0.11577100  0.97615700  1
  F  F5  1  0.13961400  0.37158300  0.02384300  1
  F  F6  1  0.62841700  0.65226000  0.76803100  1
  F  F7  1  0.88422900  0.86038600  0.23196900  1
  F  F8  1  0.39553000  0.29815400  0.88180800  1
  F  F9  1  0.41634600  0.51372200  0.11819200  1
  F  F10  1  0.48627800  0.60447000  0.90262400  1
  F  F11  1  0.70184600  0.58365400  0.09737600  1
  F  F12  1  0.19692900  0.10778000  0.58180700  1
  F  F13  1  0.52597200  0.61512100  0.41819300  1
  F  F14  1  0.38487900  0.80307100  0.91085100  1
  F  F15  1  0.89222000  0.47402800  0.08914900  1
  F  F16  1  0.10684700  0.20751800  0.69980400  1
  F  F17  1  0.50771400  0.40704300  0.30019600  1
  F  F18  1  0.59295700  0.89315300  0.10067100  1
  F  F19  1  0.79248200  0.49228600  0.89932900  1
  F  F20  1  0.92129900  0.93934900  0.54480500  1
  F  F21  1  0.39454400  0.37649400  0.45519500  1
  F  F22  1  0.62350600  0.07870100  0.01804900  1
  F  F23  1  0.06065100  0.60545600  0.98195100  1
  F  F24  1  0.08131700  0.79174300  0.58340300  1
  F  F25  1  0.20833900  0.49791400  0.41659700  1
  F  F26  1  0.50208600  0.91868300  0.71042600  1
  F  F27  1  0.20825700  0.79166100  0.28957400  1
  F  F28  1  0.86294100  0.69787900  0.64404700  1
  F  F29  1  0.05383200  0.21889400  0.35595300  1
  F  F30  1  0.78110600  0.13705900  0.83493800  1
  F  F31  1  0.30212100  0.94616800  0.16506200  1
  F  F32  1  0.09757500  0.77298800  0.78662700  1
  F  F33  1  0.98636000  0.31094700  0.21337300  1
  F  F34  1  0.68905300  0.90242500  0.67541300  1
  F  F35  1  0.22701200  0.01364000  0.32458700  1
loop_
_geom_bond_atom_site_label_1
_geom_bond_atom_site_label_2
_geom_bond_distance
_geom_bond_site_symmetry_2
Li0 O6 1.909246 1_555
Li0 O5 1.909246 1_555
Li0 O4 1.909246 1_555
Li0 O7 1.909246 1_555
Al0 O0 1.757236 1_554
Al0 O2 1.757236 1_444
Al0 O3 1.757236 1_445
Al0 O1 1.757236 1_555
H0 O4 0.972006 1_565
H1 O5 0.972006 1_555
H2 O6 0.972006 1_555
H3 O7 0.972006 1_455
H4 O4 0.969469 1_565
H5 O5 0.969470 1_555
H6 O6 0.969469 1_555
H7 O7 0.969463 1_455
C0 O0 1.354177 1_555
C1 O1 1.354177 1_555
C2 O2 1.354177 1_555
C3 O3 1.354177 1_555
C4 F8 1.352120 1_555
C4 F4 1.353439 1_555
C4 F0 1.366807 1_555
C5 F9 1.352120 1_555
C5 F5 1.353439 1_555
C5 F1 1.366807 1_555
C6 F10 1.352120 1_555
C6 F6 1.353439 1_555
C6 F2 1.366807 1_555
C7 F11 1.352120 1_555
C7 F7 1.353439 1_555
C7 F3 1.366807 1_555
C8 F16 1.356016 1_555
C8 F20 1.360417 1_445
C8 F12 1.360833 1_555
C9 F17 1.356016 1_555
C9 F21 1.360417 1_555
C9 F13 1.360826 1_555
C10 F18 1.356016 1_556
C10 F22 1.360417 1_566
C10 F14 1.360825 1_555
C11 F19 1.356016 1_554
C11 F23 1.360411 1_654
C11 F15 1.360825 1_555
C12 F28 1.351568 1_455
C12 F24 1.361243 1_555
C12 F32 1.365484 1_555
C13 F29 1.351576 1_555
C13 F25 1.361239 1_555
C13 F33 1.365481 1_455
C14 F30 1.351568 1_565
C14 F26 1.361232 1_555
C14 F34 1.365491 1_555
C15 F31 1.351576 1_555
C15 F27 1.361227 1_555
C15 F35 1.365486 1_565
