# generated using pymatgen
data_SrCaNiWO6
_symmetry_space_group_name_H-M   'P 1'
_cell_length_a   5.56925359
_cell_length_b   7.89676534
_cell_length_c   5.65267200
_cell_angle_alpha   90.00001157
_cell_angle_beta   89.99991831
_cell_angle_gamma   89.93364845
_symmetry_Int_Tables_number   1
_chemical_formula_structural   SrCaNiWO6
_chemical_formula_sum   'Sr2 Ca2 Ni2 W2 O12'
_cell_volume   248.59919668
_cell_formula_units_Z   2
loop_
 _symmetry_equiv_pos_site_id
 _symmetry_equiv_pos_as_xyz
  1  'x, y, z'
loop_
 _atom_site_type_symbol
 _atom_site_label
 _atom_site_symmetry_multiplicity
 _atom_site_fract_x
 _atom_site_fract_y
 _atom_site_fract_z
 _atom_site_occupancy
  Sr  Sr0  1  0.99468200  0.24952500  0.53108500  1
  Sr  Sr1  1  0.49467700  0.74952500  0.96891300  1
  Ca  Ca0  1  0.01017000  0.75312300  0.45126900  1
  Ca  Ca1  1  0.51017000  0.25312200  0.04873100  1
  Ni  Ni0  1  0.50008800  0.50021900  0.50244600  1
  Ni  Ni1  1  0.00007800  0.00021300  0.99755900  1
  W  W0  1  0.49986100  0.99927200  0.50065200  1
  W  W1  1  0.99986400  0.49927800  0.99935000  1
  O  O0  1  0.79100800  0.46220100  0.27245100  1
  O  O1  1  0.29100700  0.96220800  0.22754600  1
  O  O2  1  0.19188100  0.54476600  0.71619800  1
  O  O3  1  0.69188100  0.04476000  0.78380100  1
  O  O4  1  0.71549800  0.45803000  0.80382400  1
  O  O5  1  0.21549900  0.95802500  0.69617700  1
  O  O6  1  0.27389600  0.53249300  0.20964600  1
  O  O7  1  0.77389300  0.03249800  0.29035200  1
  O  O8  1  0.93650900  0.74114500  0.02486600  1
  O  O9  1  0.43650800  0.24114600  0.47514600  1
  O  O10  1  0.08641400  0.25922500  0.98372300  1
  O  O11  1  0.58641400  0.75922500  0.51626500  1
loop_
_geom_bond_atom_site_label_1
_geom_bond_atom_site_label_2
_geom_bond_distance
_geom_bond_site_symmetry_2
Ca0 O11 2.388862 1_455
Ca0 O5 2.417974 1_555
Ca0 O2 2.443383 1_555
Ca0 O8 2.446826 1_455
Ca0 O1 2.603392 1_555
Ca0 O6 2.655607 1_555
Ca0 O7 2.723851 1_465
Ca0 O0 2.792093 1_455
Ca1 O10 2.388874 1_554
Ca1 O4 2.417998 1_554
Ca1 O3 2.443411 1_554
Ca1 O9 2.446892 1_555
Ca1 O0 2.603358 1_555
Ca1 O7 2.655563 1_555
Ca1 O6 2.723813 1_555
Ca1 O1 2.792037 1_545
Ni0 O9 2.082386 1_555
Ni0 O6 2.095346 1_555
Ni0 O0 2.098641 1_555
Ni0 O11 2.103048 1_555
Ni0 O4 2.109860 1_555
Ni0 O2 2.128044 1_555
Ni1 O8 2.082339 1_446
Ni1 O7 2.095299 1_456
Ni1 O1 2.098640 1_546
Ni1 O10 2.103111 1_555
Ni1 O5 2.109909 1_545
Ni1 O3 2.128022 1_455
O0 W1 1.955158 1_554
O0 Sr0 2.498036 1_555
O1 W0 1.955161 1_555
O1 Sr1 2.498057 1_554
O2 W1 1.958398 1_455
O2 Sr1 2.739566 1_555
O2 Sr0 2.782564 1_455
O3 W0 1.958396 1_545
O3 Sr0 2.739612 1_555
O3 Sr1 2.782532 1_545
O4 W1 1.958823 1_555
O4 Sr0 2.738517 1_555
O4 Sr1 2.770436 1_555
O5 W0 1.958798 1_555
O5 Sr1 2.738467 1_555
O5 Sr0 2.770466 1_465
O6 W1 1.952425 1_454
O6 Sr1 2.511131 1_554
O7 W0 1.952448 1_545
O7 Sr0 2.511127 1_555
O8 W1 1.947232 1_554
O8 Sr1 2.481725 1_554
O9 W0 1.947280 1_545
O9 Sr0 2.481681 1_455
O10 W1 1.957419 1_455
O10 Sr0 2.610262 1_455
O11 W0 1.957373 1_555
O11 Sr1 2.610321 1_555
