# generated using pymatgen
data_Ca3(SiIr)4
_symmetry_space_group_name_H-M   'P 1'
_cell_length_a   6.43603474
_cell_length_b   6.43603387
_cell_length_c   6.43603396
_cell_angle_alpha   109.47121776
_cell_angle_beta   109.47121505
_cell_angle_gamma   109.47122000
_symmetry_Int_Tables_number   1
_chemical_formula_structural   Ca3(SiIr)4
_chemical_formula_sum   'Ca3 Si4 Ir4'
_cell_volume   205.22638036
_cell_formula_units_Z   1
loop_
 _symmetry_equiv_pos_site_id
 _symmetry_equiv_pos_as_xyz
  1  'x, y, z'
loop_
 _atom_site_type_symbol
 _atom_site_label
 _atom_site_symmetry_multiplicity
 _atom_site_fract_x
 _atom_site_fract_y
 _atom_site_fract_z
 _atom_site_occupancy
  Ca  Ca0  1  0.50000000  0.50000000  0.00000000  1
  Ca  Ca1  1  0.00000000  0.50000000  0.50000000  1
  Ca  Ca2  1  0.50000000  0.00000000  0.50000000  1
  Si  Si0  1  0.00000000  0.00000000  0.36640070  1
  Si  Si1  1  0.63359930  0.63359930  0.63359930  1
  Si  Si2  1  0.36640070  0.00000000  0.00000000  1
  Si  Si3  1  -0.00000000  0.36640070  0.00000000  1
  Ir  Ir0  1  -0.00000000  -0.00000000  0.72159276  1
  Ir  Ir1  1  0.72159276  -0.00000000  -0.00000000  1
  Ir  Ir2  1  0.27840724  0.27840724  0.27840724  1
  Ir  Ir3  1  0.00000000  0.72159276  -0.00000000  1
loop_
_geom_bond_atom_site_label_1
_geom_bond_atom_site_label_2
_geom_bond_distance
_geom_bond_site_symmetry_2
Ca0 Si1 3.041431 1_554
Ca0 Si2 3.041431 1_555
Ca0 Si3 3.041431 1_555
Ca0 Si0 3.041431 1_665
Ca0 Ir2 3.054501 1_555
Ca0 Ir1 3.054501 1_565
Ca0 Ir3 3.054501 1_655
Ca0 Ir0 3.054501 1_554
Ca1 Si0 3.041431 1_555
Ca1 Si3 3.041431 1_555
Ca1 Si1 3.041431 1_455
Ca1 Si2 3.041431 1_566
Ca1 Ir0 3.054501 1_565
Ca1 Ir3 3.054501 1_556
Ca1 Ir2 3.054501 1_555
Ca1 Ir1 3.054501 1_455
Ca2 Si1 3.041431 1_545
Ca2 Si2 3.041431 1_555
Ca2 Si0 3.041431 1_555
Ca2 Si3 3.041431 1_656
Ca2 Ir2 3.054501 1_555
Ca2 Ir1 3.054501 1_556
Ca2 Ir0 3.054501 1_655
Ca2 Ir3 3.054501 1_545
Ir0 Si0 2.286028 1_555
Ir0 Si3 2.440219 1_556
Ir0 Si1 2.440219 1_445
Ir0 Si2 2.440219 1_556
Ir1 Si2 2.286028 1_555
Ir1 Si3 2.440219 1_655
Ir1 Si1 2.440219 1_544
Ir1 Si0 2.440219 1_655
Ir2 Si1 2.286029 1_555
Ir2 Si2 2.440219 1_555
Ir2 Si0 2.440219 1_555
Ir2 Si3 2.440219 1_555
Ir3 Si3 2.286028 1_555
Ir3 Si0 2.440219 1_565
Ir3 Si2 2.440219 1_565
Ir3 Si1 2.440219 1_454
