# generated using pymatgen
data_Ho3Ga8Rh3
_symmetry_space_group_name_H-M   'P 1'
_cell_length_a   8.15055534
_cell_length_b   8.15055534
_cell_length_c   8.15055534
_cell_angle_alpha   150.16581047
_cell_angle_beta   105.17161710
_cell_angle_gamma   82.57779866
_symmetry_Int_Tables_number   1
_chemical_formula_structural   Ho3Ga8Rh3
_chemical_formula_sum   'Ho3 Ga8 Rh3'
_cell_volume   254.52502196
_cell_formula_units_Z   1
loop_
 _symmetry_equiv_pos_site_id
 _symmetry_equiv_pos_as_xyz
  1  'x, y, z'
loop_
 _atom_site_type_symbol
 _atom_site_label
 _atom_site_symmetry_multiplicity
 _atom_site_fract_x
 _atom_site_fract_y
 _atom_site_fract_z
 _atom_site_occupancy
  Ho  Ho0  1  0.50000000  0.50000000  0.00000000  1
  Ho  Ho1  1  0.17226200  0.17226200  0.00000000  1
  Ho  Ho2  1  0.82773800  0.82773800  0.00000000  1
  Ga  Ga0  1  0.66110200  0.37504000  0.28606200  1
  Ga  Ga1  1  0.33889800  0.62496000  0.71393800  1
  Ga  Ga2  1  0.08897800  0.37504000  0.71393800  1
  Ga  Ga3  1  0.91102200  0.62496000  0.28606200  1
  Ga  Ga4  1  0.53654600  0.16491000  0.37163600  1
  Ga  Ga5  1  0.46345400  0.83509000  0.62836400  1
  Ga  Ga6  1  0.79327400  0.16491000  0.62836400  1
  Ga  Ga7  1  0.20672600  0.83509000  0.37163600  1
  Rh  Rh0  1  0.00000000  0.50000000  0.50000000  1
  Rh  Rh1  1  0.21469000  0.00000000  0.21469000  1
  Rh  Rh2  1  0.78531000  0.00000000  0.78531000  1
loop_
_geom_bond_atom_site_label_1
_geom_bond_atom_site_label_2
_geom_bond_distance
_geom_bond_site_symmetry_2
Ho1 Rh0 2.975574 1_544
Ho1 Rh0 2.975574 1_555
Ho1 Rh2 2.995516 1_454
Ho1 Rh1 2.995516 1_555
Ho2 Rh0 2.975574 1_665
Ho2 Rh0 2.975574 1_654
Ho2 Rh2 2.995516 1_564
Ho2 Rh1 2.995516 1_665
Ga0 Rh2 2.597084 1_565
Ga0 Rh2 2.597084 1_554
Ga0 Rh0 2.613857 1_655
Ga0 Ga5 2.661009 1_555
Ga0 Ga5 2.661009 1_544
Ga0 Ga4 2.709736 1_555
Ga0 Ho2 3.037663 1_556
Ga0 Ho2 3.037663 1_545
Ga0 Ho0 3.220190 1_555
Ga1 Rh1 2.597084 1_555
Ga1 Rh1 2.597084 1_566
Ga1 Rh0 2.613857 1_555
Ga1 Ga4 2.661009 1_566
Ga1 Ga4 2.661009 1_555
Ga1 Ga5 2.709736 1_555
Ga1 Ho1 3.037663 1_566
Ga1 Ho1 3.037663 1_555
Ga1 Ho0 3.220190 1_556
Ga2 Rh1 2.597084 1_566
Ga2 Rh1 2.597084 1_555
Ga2 Rh0 2.613857 1_555
Ga2 Ga7 2.661009 1_556
Ga2 Ga7 2.661009 1_545
Ga2 Ga6 2.709736 1_455
Ga2 Ho2 3.037663 1_445
Ga2 Ho2 3.037663 1_456
Ga2 Ho0 3.220190 1_556
Ga3 Rh2 2.597084 1_565
Ga3 Rh2 2.597084 1_554
Ga3 Rh0 2.613857 1_655
Ga3 Ga6 2.661009 1_565
Ga3 Ga6 2.661009 1_554
Ga3 Ga7 2.709736 1_655
Ga3 Ho1 3.037663 1_655
Ga3 Ho1 3.037663 1_666
Ga3 Ho0 3.220190 1_555
Ga4 Ga6 2.542662 1_555
Ga4 Rh1 2.548765 1_555
Ga4 Ho2 3.161653 1_545
Ga4 Ho2 3.161653 1_556
Ga4 Ho0 3.177802 1_545
Ga4 Ho0 3.177802 1_556
Ga5 Ga7 2.542662 1_555
Ga5 Rh2 2.548765 1_565
Ga5 Ho1 3.161653 1_555
Ga5 Ho1 3.161653 1_566
Ga5 Ho0 3.177802 1_555
Ga5 Ho0 3.177802 1_566
Ga6 Rh2 2.548765 1_555
Ga6 Ho2 3.161653 1_556
Ga6 Ho2 3.161653 1_545
Ga6 Ho0 3.177802 1_556
Ga6 Ho0 3.177802 1_545
Ga7 Rh1 2.548765 1_565
Ga7 Ho1 3.161653 1_555
Ga7 Ho1 3.161653 1_566
Ga7 Ho0 3.177802 1_555
Ga7 Ho0 3.177802 1_566
