# generated using pymatgen
data_Sr3CaAl8H24(C2O11)4
_symmetry_space_group_name_H-M   'P 1'
_cell_length_a   5.67317200
_cell_length_b   9.14614600
_cell_length_c   16.15802914
_cell_angle_alpha   89.89307141
_cell_angle_beta   90.00000000
_cell_angle_gamma   90.00000000
_symmetry_Int_Tables_number   1
_chemical_formula_structural   Sr3CaAl8H24(C2O11)4
_chemical_formula_sum   'Sr3 Ca1 Al8 H24 C8 O44'
_cell_volume   838.40085239
_cell_formula_units_Z   1
loop_
 _symmetry_equiv_pos_site_id
 _symmetry_equiv_pos_as_xyz
  1  'x, y, z'
loop_
 _atom_site_type_symbol
 _atom_site_label
 _atom_site_symmetry_multiplicity
 _atom_site_fract_x
 _atom_site_fract_y
 _atom_site_fract_z
 _atom_site_occupancy
  Sr  Sr0  1  0.50000000  0.52401600  0.58581600  1
  Sr  Sr1  1  0.00000000  0.02334000  0.91490600  1
  Sr  Sr2  1  0.00000000  0.47615500  0.41408100  1
  Ca  Ca0  1  0.50000000  0.98027700  0.08816600  1
  Al  Al0  1  0.74800500  0.17152200  0.29549500  1
  Al  Al1  1  0.25192200  0.32782900  0.79618400  1
  Al  Al2  1  0.24834500  0.82819500  0.70454800  1
  Al  Al3  1  0.75176600  0.67382600  0.20318600  1
  Al  Al4  1  0.75165500  0.82819500  0.70454800  1
  Al  Al5  1  0.24823400  0.67382600  0.20318600  1
  Al  Al6  1  0.25199500  0.17152200  0.29549500  1
  Al  Al7  1  0.74807800  0.32782900  0.79618400  1
  H  H0  1  0.50000000  0.36874400  0.21962000  1
  H  H1  1  0.50000000  0.13151200  0.71992500  1
  H  H2  1  0.00000000  0.63136200  0.78037000  1
  H  H3  1  0.00000000  0.86873300  0.28019600  1
  H  H4  1  0.00000000  0.03392000  0.39379400  1
  H  H5  1  0.00000000  0.46633900  0.89406700  1
  H  H6  1  0.50000000  0.96615400  0.60602900  1
  H  H7  1  0.50000000  0.53434200  0.10594000  1
  H  H8  1  0.00000000  0.38744100  0.24383300  1
  H  H9  1  0.00000000  0.11282300  0.74423100  1
  H  H10  1  0.50000000  0.61260200  0.75605900  1
  H  H11  1  0.50000000  0.88823100  0.25484400  1
  H  H12  1  0.50000000  0.98398200  0.36769500  1
  H  H13  1  0.50000000  0.51590100  0.86759100  1
  H  H14  1  0.00000000  0.01594000  0.63252200  1
  H  H15  1  0.00000000  0.48420200  0.13241700  1
  H  H16  1  0.63768200  0.65919900  0.97013200  1
  H  H17  1  0.36204900  0.84098600  0.47010200  1
  H  H18  1  0.13751700  0.34079800  0.02989800  1
  H  H19  1  0.86207400  0.15900100  0.52992100  1
  H  H20  1  0.86248300  0.34079800  0.02989800  1
  H  H21  1  0.13792600  0.15900100  0.52992100  1
  H  H22  1  0.36231800  0.65919900  0.97013200  1
  H  H23  1  0.63795100  0.84098600  0.47010200  1
  C  C0  1  0.50000000  0.24852900  0.94973200  1
  C  C1  1  0.50000000  0.24791400  0.44894500  1
  C  C2  1  0.00000000  0.75011800  0.05063100  1
  C  C3  1  0.00000000  0.75208600  0.55097500  1
  C  C4  1  0.00000000  0.07912700  0.14483500  1
  C  C5  1  0.00000000  0.41835500  0.64621900  1
  C  C6  1  0.50000000  0.91809100  0.85580600  1
  C  C7  1  0.50000000  0.58218500  0.35352700  1
  O  O0  1  0.50000000  0.28547900  0.25812400  1
  O  O1  1  0.50000000  0.21427800  0.75866300  1
  O  O2  1  0.00000000  0.71443300  0.74174400  1
  O  O3  1  0.00000000  0.78565200  0.24178500  1
  O  O4  1  0.00000000  0.30447900  0.28485800  1
  O  O5  1  0.00000000  0.19466400  0.78585100  1
  O  O6  1  0.50000000  0.69481100  0.71450600  1
  O  O7  1  0.50000000  0.80939500  0.21141100  1
  O  O8  1  0.79933700  0.09536000  0.18323200  1
  O  O9  1  0.19956900  0.40178100  0.68472700  1
  O  O10  1  0.30084800  0.90212200  0.81669700  1
  O  O11  1  0.69932500  0.59931600  0.31492300  1
  O  O12  1  0.69915200  0.90212200  0.81669700  1
  O  O13  1  0.30067500  0.59931600  0.31492300  1
  O  O14  1  0.20066300  0.09536000  0.18323200  1
  O  O15  1  0.80043100  0.40178100  0.68472700  1
  O  O16  1  0.50000000  0.59700200  0.95918600  1
  O  O17  1  0.50000000  0.90290600  0.45904900  1
  O  O18  1  0.00000000  0.40286300  0.04097800  1
  O  O19  1  0.00000000  0.09704700  0.54092200  1
  O  O20  1  0.70097500  0.23986000  0.40886300  1
  O  O21  1  0.29934200  0.26012200  0.90990600  1
  O  O22  1  0.20095400  0.76016700  0.59104400  1
  O  O23  1  0.79863600  0.74357200  0.09084700  1
  O  O24  1  0.79904600  0.76016700  0.59104400  1
  O  O25  1  0.20136400  0.74357200  0.09084700  1
  O  O26  1  0.29902500  0.23986000  0.40886300  1
  O  O27  1  0.70065800  0.26012200  0.90990600  1
  O  O28  1  0.50000000  0.03400600  0.31221900  1
  O  O29  1  0.50000000  0.46580700  0.81225100  1
  O  O30  1  0.00000000  0.96591000  0.68798100  1
  O  O31  1  0.00000000  0.53509900  0.18744900  1
  O  O32  1  0.00000000  0.04449300  0.06817400  1
  O  O33  1  0.00000000  0.45381900  0.56930800  1
  O  O34  1  0.50000000  0.95236000  0.93311100  1
  O  O35  1  0.50000000  0.54606500  0.43034300  1
  O  O36  1  0.50000000  0.22552800  0.02777000  1
  O  O37  1  0.50000000  0.26439000  0.52722400  1
  O  O38  1  0.00000000  0.76366400  0.97234200  1
  O  O39  1  0.00000000  0.73554500  0.47271100  1
  O  O40  1  0.00000000  0.04768100  0.33384200  1
  O  O41  1  0.00000000  0.45200700  0.83422700  1
  O  O42  1  0.50000000  0.95239200  0.66597200  1
  O  O43  1  0.50000000  0.54849100  0.16581300  1
loop_
_geom_bond_atom_site_label_1
_geom_bond_atom_site_label_2
_geom_bond_distance
_geom_bond_site_symmetry_2
Ca0 O36 2.444520 1_565
Ca0 O34 2.518835 1_554
Ca0 O8 2.521373 1_565
Ca0 O14 2.521373 1_565
Ca0 O7 2.529177 1_555
Ca0 O25 2.749335 1_555
Ca0 O23 2.749335 1_555
Ca0 O32 2.914587 1_565
Ca0 O32 2.914587 1_665
Al0 O0 1.851533 1_555
Al0 O4 1.884492 1_655
Al0 O28 1.906108 1_555
Al0 O40 1.925623 1_655
Al0 O20 1.954898 1_555
Al0 O8 1.966003 1_555
Al1 O1 1.851823 1_555
Al1 O5 1.885373 1_555
Al1 O29 1.908383 1_555
Al1 O41 1.926913 1_555
Al1 O9 1.945375 1_555
Al1 O21 1.956553 1_555
Al2 O2 1.851081 1_555
Al2 O6 1.884598 1_555
Al2 O30 1.908378 1_555
Al2 O42 1.927297 1_555
Al2 O22 1.956330 1_555
Al2 O10 1.958111 1_555
Al3 O3 1.849506 1_655
Al3 O7 1.896256 1_555
Al3 O31 1.912850 1_655
Al3 O43 1.929093 1_555
Al3 O23 1.941179 1_555
Al3 O11 1.951405 1_555
Al4 O2 1.851081 1_655
Al4 O6 1.884598 1_555
Al4 O30 1.908378 1_655
Al4 O42 1.927297 1_555
Al4 O24 1.956330 1_555
Al4 O12 1.958111 1_555
Al5 O3 1.849506 1_555
Al5 O7 1.896256 1_555
Al5 O31 1.912850 1_555
Al5 O43 1.929093 1_555
Al5 O25 1.941179 1_555
Al5 O13 1.951405 1_555
Al6 O0 1.851533 1_555
Al6 O4 1.884492 1_555
Al6 O28 1.906108 1_555
Al6 O40 1.925623 1_555
Al6 O26 1.954898 1_555
Al6 O14 1.966003 1_555
Al7 O1 1.851823 1_555
Al7 O5 1.885373 1_655
Al7 O29 1.908383 1_555
Al7 O41 1.926913 1_655
Al7 O15 1.945375 1_555
Al7 O27 1.956553 1_555
H0 O0 0.982479 1_555
H1 O1 0.983153 1_555
H2 O2 0.982355 1_555
H3 O3 0.982021 1_555
H4 O40 0.976615 1_555
H5 O41 0.975984 1_555
H6 O42 0.976472 1_555
H7 O43 0.976286 1_555
H8 O4 1.006622 1_555
H8 O31 1.627662 1_555
H9 O5 1.007188 1_555
H9 O30 1.623618 1_545
H10 O6 1.007105 1_555
H10 O29 1.619390 1_555
H11 O7 1.007128 1_555
H11 O28 1.625331 1_565
H12 O28 1.005635 1_565
H13 O29 1.005492 1_555
H14 O30 1.005415 1_545
H15 O31 1.004459 1_555
H16 O16 0.982532 1_555
H17 O17 0.982212 1_555
H18 O18 0.981484 1_555
H19 O19 0.982127 1_655
H20 O18 0.981484 1_655
H21 O19 0.982127 1_555
H22 O16 0.982532 1_555
H23 O17 0.982212 1_555
C0 O36 1.277981 1_556
C0 O21 1.311859 1_555
C0 O27 1.311859 1_555
C1 O37 1.274059 1_555
C1 O20 1.313403 1_555
C1 O26 1.313403 1_555
C2 O38 1.270818 1_554
C2 O23 1.315564 1_455
C2 O25 1.315564 1_555
C3 O39 1.273890 1_555
C3 O22 1.313210 1_555
C3 O24 1.313210 1_455
C4 O32 1.279125 1_555
C4 O14 1.305087 1_555
C4 O8 1.305087 1_455
C5 O33 1.283777 1_555
C5 O9 1.300626 1_555
C5 O15 1.300626 1_455
C6 O34 1.288387 1_555
C6 O10 1.302884 1_555
C6 O12 1.302884 1_555
C7 O35 1.283811 1_555
C7 O11 1.300764 1_555
C7 O13 1.300764 1_555
O4 Sr2 2.614839 1_555
O5 Sr1 2.606054 1_555
O6 Sr0 2.603102 1_555
O9 Sr0 2.588907 1_555
O10 Sr1 2.582036 1_565
O11 Sr2 2.595935 1_655
O12 Sr1 2.582036 1_665
O13 Sr2 2.595935 1_555
O15 Sr0 2.588907 1_555
O20 Sr2 2.748885 1_655
O21 Sr1 2.753149 1_555
O22 Sr0 2.747928 1_555
O24 Sr0 2.747928 1_555
O26 Sr2 2.748885 1_555
O27 Sr1 2.753149 1_655
O32 Sr1 2.484414 1_554
O33 Sr2 2.516088 1_555
O33 Sr0 2.920653 1_555
O33 Sr0 2.920653 1_455
O34 Sr1 2.924635 1_665
O34 Sr1 2.924635 1_565
O35 Sr0 2.519843 1_555
O35 Sr2 2.919714 1_655
O35 Sr2 2.919714 1_555
O37 Sr0 2.557989 1_555
O38 Sr1 2.548302 1_565
O39 Sr2 2.556213 1_555
