# generated using pymatgen
data_Eu8Ni18P11
_symmetry_space_group_name_H-M   'P 1'
_cell_length_a   3.93471300
_cell_length_b   18.31918647
_cell_length_c   18.31918647
_cell_angle_alpha   120.00000171
_cell_angle_beta   90.00000000
_cell_angle_gamma   90.00000000
_symmetry_Int_Tables_number   1
_chemical_formula_structural   Eu8Ni18P11
_chemical_formula_sum   'Eu16 Ni36 P22'
_cell_volume   1143.55235144
_cell_formula_units_Z   2
loop_
 _symmetry_equiv_pos_site_id
 _symmetry_equiv_pos_as_xyz
  1  'x, y, z'
loop_
 _atom_site_type_symbol
 _atom_site_label
 _atom_site_symmetry_multiplicity
 _atom_site_fract_x
 _atom_site_fract_y
 _atom_site_fract_z
 _atom_site_occupancy
  Eu  Eu0  1  0.50000000  0.52379900  0.04759900  1
  Eu  Eu1  1  0.50000000  0.52379900  0.47620100  1
  Eu  Eu2  1  0.50000000  0.95240100  0.47620100  1
  Eu  Eu3  1  0.50000000  0.73869600  0.47739300  1
  Eu  Eu4  1  0.50000000  0.73869600  0.26130400  1
  Eu  Eu5  1  0.50000000  0.52260700  0.26130400  1
  Eu  Eu6  1  0.00000000  0.21991700  0.43983300  1
  Eu  Eu7  1  0.00000000  0.21991700  0.78008300  1
  Eu  Eu8  1  0.00000000  0.56016700  0.78008300  1
  Eu  Eu9  1  0.00000000  0.00012300  0.21540300  1
  Eu  Eu10  1  0.00000000  0.21528000  0.99987700  1
  Eu  Eu11  1  0.00000000  0.21528000  0.21540300  1
  Eu  Eu12  1  0.00000000  0.78459700  0.78472000  1
  Eu  Eu13  1  0.00000000  0.78459700  0.99987700  1
  Eu  Eu14  1  0.00000000  0.00012300  0.78472000  1
  Eu  Eu15  1  0.00000000  0.00000000  0.00000000  1
  Ni  Ni0  1  0.50000000  0.29018500  0.58036900  1
  Ni  Ni1  1  0.50000000  0.29018500  0.70981500  1
  Ni  Ni2  1  0.50000000  0.41963100  0.70981500  1
  Ni  Ni3  1  0.50000000  0.92409600  0.29426300  1
  Ni  Ni4  1  0.50000000  0.37016800  0.07590400  1
  Ni  Ni5  1  0.50000000  0.37016800  0.29426300  1
  Ni  Ni6  1  0.50000000  0.70573700  0.62983200  1
  Ni  Ni7  1  0.50000000  0.70573700  0.07590400  1
  Ni  Ni8  1  0.50000000  0.92409600  0.62983200  1
  Ni  Ni9  1  0.00000000  0.60040900  0.63157500  1
  Ni  Ni10  1  0.00000000  0.03116600  0.39959100  1
  Ni  Ni11  1  0.00000000  0.03116600  0.63157500  1
  Ni  Ni12  1  0.00000000  0.36842500  0.96883400  1
  Ni  Ni13  1  0.00000000  0.36842500  0.39959100  1
  Ni  Ni14  1  0.00000000  0.60040900  0.96883400  1
  Ni  Ni15  1  0.00000000  0.81593200  0.63186300  1
  Ni  Ni16  1  0.00000000  0.81593200  0.18406800  1
  Ni  Ni17  1  0.00000000  0.36813700  0.18406800  1
  Ni  Ni18  1  0.00000000  0.59337700  0.18675400  1
  Ni  Ni19  1  0.00000000  0.59337700  0.40662300  1
  Ni  Ni20  1  0.00000000  0.81324600  0.40662300  1
  Ni  Ni21  1  0.50000000  0.92672200  0.85344300  1
  Ni  Ni22  1  0.50000000  0.92672200  0.07327800  1
  Ni  Ni23  1  0.50000000  0.14655700  0.07327800  1
  Ni  Ni24  1  0.50000000  0.50077200  0.63043100  1
  Ni  Ni25  1  0.50000000  0.12965900  0.49922800  1
  Ni  Ni26  1  0.50000000  0.12965900  0.63043100  1
  Ni  Ni27  1  0.50000000  0.36956900  0.87034100  1
  Ni  Ni28  1  0.50000000  0.36956900  0.49922800  1
  Ni  Ni29  1  0.50000000  0.50077200  0.87034100  1
  Ni  Ni30  1  0.00000000  0.38406300  0.76812600  1
  Ni  Ni31  1  0.00000000  0.38406300  0.61593700  1
  Ni  Ni32  1  0.00000000  0.23187400  0.61593700  1
  Ni  Ni33  1  0.50000000  0.14541300  0.29082600  1
  Ni  Ni34  1  0.50000000  0.14541300  0.85458700  1
  Ni  Ni35  1  0.50000000  0.70917400  0.85458700  1
  P  P0  1  0.00000000  0.66666700  0.33333300  1
  P  P1  1  0.50000000  0.85435500  0.70871100  1
  P  P2  1  0.50000000  0.85435500  0.14564500  1
  P  P3  1  0.50000000  0.29128900  0.14564500  1
  P  P4  1  0.00000000  0.88367200  0.33107400  1
  P  P5  1  0.00000000  0.44740200  0.11632800  1
  P  P6  1  0.00000000  0.44740200  0.33107400  1
  P  P7  1  0.00000000  0.66892600  0.55259800  1
  P  P8  1  0.00000000  0.66892600  0.11632800  1
  P  P9  1  0.00000000  0.88367200  0.55259800  1
  P  P10  1  0.00000000  0.45198400  0.90396800  1
  P  P11  1  0.00000000  0.45198400  0.54801600  1
  P  P12  1  0.00000000  0.09603200  0.54801600  1
  P  P13  1  0.50000000  0.64057500  0.71143200  1
  P  P14  1  0.50000000  0.07085700  0.35942500  1
  P  P15  1  0.50000000  0.07085700  0.71143200  1
  P  P16  1  0.50000000  0.28856800  0.92914300  1
  P  P17  1  0.50000000  0.28856800  0.35942500  1
  P  P18  1  0.50000000  0.64057500  0.92914300  1
  P  P19  1  0.50000000  0.07245900  0.14491700  1
  P  P20  1  0.50000000  0.07245900  0.92754100  1
  P  P21  1  0.50000000  0.85508300  0.92754100  1
loop_
_geom_bond_atom_site_label_1
_geom_bond_atom_site_label_2
_geom_bond_distance
_geom_bond_site_symmetry_2
Eu0 Ni18 2.957082 1_555
Eu0 Ni18 2.957082 1_655
Eu0 P10 3.010467 1_654
Eu0 P10 3.010467 1_554
Eu0 P5 3.029274 1_655
Eu0 P5 3.029274 1_555
Eu0 P8 3.029286 1_555
Eu0 P8 3.029286 1_655
Eu0 Ni27 3.058195 1_554
Eu0 Ni29 3.058203 1_554
Eu0 Ni4 3.106287 1_555
Eu0 Ni7 3.106323 1_555
Eu0 Ni12 3.153896 1_554
Eu0 Ni12 3.153896 1_654
Eu0 Ni14 3.153908 1_554
Eu0 Ni14 3.153908 1_654
Eu1 Ni19 2.957093 1_655
Eu1 Ni19 2.957093 1_555
Eu1 P11 3.010455 1_555
Eu1 P11 3.010455 1_655
Eu1 P6 3.029286 1_655
Eu1 P7 3.029286 1_555
Eu1 P7 3.029286 1_655
Eu1 P6 3.029286 1_555
Eu1 Ni24 3.058184 1_555
Eu1 Ni28 3.058184 1_555
Eu1 Ni6 3.106310 1_555
Eu1 Ni5 3.106310 1_555
Eu1 Ni13 3.153895 1_655
Eu1 Ni13 3.153895 1_555
Eu1 Ni9 3.153895 1_555
Eu1 Ni9 3.153895 1_655
Eu2 Ni20 2.957082 1_655
Eu2 Ni20 2.957082 1_555
Eu2 P12 3.010467 1_665
Eu2 P12 3.010467 1_565
Eu2 P9 3.029274 1_555
Eu2 P9 3.029274 1_655
Eu2 P4 3.029286 1_655
Eu2 P4 3.029286 1_555
Eu2 Ni26 3.058195 1_565
Eu2 Ni25 3.058203 1_565
Eu2 Ni8 3.106287 1_555
Eu2 Ni3 3.106323 1_555
Eu2 Ni11 3.153896 1_665
Eu2 Ni11 3.153896 1_565
Eu2 Ni10 3.153908 1_565
Eu2 Ni10 3.153908 1_665
Eu3 P0 3.015622 1_655
Eu3 P0 3.015622 1_555
Eu3 P7 3.027048 1_555
Eu3 P7 3.027048 1_655
Eu3 P9 3.027060 1_555
Eu3 P9 3.027060 1_655
Eu3 Ni19 3.030986 1_555
Eu3 Ni19 3.030986 1_655
Eu3 Ni20 3.030998 1_555
Eu3 Ni20 3.030998 1_655
Eu3 Ni6 3.138317 1_555
Eu3 Ni8 3.138340 1_555
Eu3 Ni15 3.142637 1_655
Eu3 Ni15 3.142637 1_555
Eu4 P0 3.015598 1_655
Eu4 P0 3.015598 1_555
Eu4 P8 3.027060 1_655
Eu4 P4 3.027060 1_555
Eu4 P4 3.027060 1_655
Eu4 P8 3.027060 1_555
Eu4 Ni18 3.030986 1_655
Eu4 Ni18 3.030986 1_555
Eu4 Ni20 3.030986 1_555
Eu4 Ni20 3.030986 1_655
Eu4 Ni7 3.138353 1_555
Eu4 Ni3 3.138353 1_555
Eu4 Ni16 3.142662 1_555
Eu4 Ni16 3.142662 1_655
Eu5 P0 3.015622 1_655
Eu5 P0 3.015622 1_555
Eu5 P6 3.027048 1_655
Eu5 P6 3.027048 1_555
Eu5 P5 3.027060 1_655
Eu5 P5 3.027060 1_555
Eu5 Ni19 3.030986 1_555
Eu5 Ni19 3.030986 1_655
Eu5 Ni18 3.030998 1_655
Eu5 Ni18 3.030998 1_555
Eu5 Ni5 3.138317 1_555
Eu5 Ni4 3.138340 1_555
Eu5 Ni17 3.142637 1_555
Eu5 Ni17 3.142637 1_655
Eu6 Ni0 2.973474 1_455
Eu6 Ni0 2.973474 1_555
Eu6 Ni33 3.075530 1_555
Eu6 Ni33 3.075530 1_455
Eu6 P17 3.078049 1_555
Eu6 P17 3.078049 1_455
Eu6 P14 3.078060 1_455
Eu6 P14 3.078060 1_555
Eu6 Ni28 3.096333 1_555
Eu6 Ni28 3.096333 1_455
Eu6 Ni25 3.096346 1_555
Eu6 Ni25 3.096346 1_455
Eu6 Ni31 3.122320 1_555
Eu6 Ni32 3.122329 1_555
Eu6 Ni13 3.154429 1_555
Eu6 Ni10 3.154447 1_555
Eu7 Ni1 2.973474 1_555
Eu7 Ni1 2.973474 1_455
Eu7 Ni34 3.075542 1_555
Eu7 Ni34 3.075542 1_455
Eu7 P15 3.078061 1_455
Eu7 P15 3.078061 1_555
Eu7 P16 3.078061 1_555
Eu7 P16 3.078061 1_455
Eu7 Ni27 3.096335 1_555
Eu7 Ni27 3.096335 1_455
Eu7 Ni26 3.096335 1_455
Eu7 Ni26 3.096335 1_555
Eu7 Ni30 3.122310 1_555
Eu7 Ni32 3.122310 1_555
Eu7 Ni11 3.154441 1_555
Eu7 Ni12 3.154441 1_555
Eu8 Ni2 2.973474 1_455
Eu8 Ni2 2.973474 1_555
Eu8 Ni35 3.075530 1_455
Eu8 Ni35 3.075530 1_555
Eu8 P13 3.078049 1_555
Eu8 P13 3.078049 1_455
Eu8 P18 3.078060 1_555
Eu8 P18 3.078060 1_455
Eu8 Ni24 3.096333 1_555
Eu8 Ni24 3.096333 1_455
Eu8 Ni29 3.096346 1_455
Eu8 Ni29 3.096346 1_555
Eu8 Ni31 3.122320 1_555
Eu8 Ni30 3.122329 1_555
Eu8 Ni9 3.154429 1_555
Eu8 Ni14 3.154447 1_555
Eu9 Ni22 2.992730 1_445
Eu9 Ni22 2.992730 1_545
Eu9 P19 3.000812 1_555
Eu9 P19 3.000812 1_455
Eu9 P14 3.015256 1_555
Eu9 P14 3.015256 1_455
Eu9 Ni33 3.030865 1_555
Eu9 Ni33 3.030865 1_455
Eu9 P2 3.036750 1_445
Eu9 P2 3.036750 1_545
Eu9 Ni16 3.126983 1_545
Eu9 Ni10 3.128837 1_555
Eu9 Ni3 3.147906 1_545
Eu9 Ni3 3.147906 1_445
Eu10 Ni23 2.992718 1_456
Eu10 Ni23 2.992718 1_556
Eu10 P20 3.000800 1_555
Eu10 P20 3.000800 1_455
Eu10 P16 3.015256 1_455
Eu10 P16 3.015256 1_555
Eu10 Ni34 3.030865 1_555
Eu10 Ni34 3.030865 1_455
Eu10 P3 3.036750 1_456
Eu10 P3 3.036750 1_556
Eu10 Ni17 3.126989 1_556
Eu10 Ni12 3.128837 1_555
Eu10 Ni4 3.147918 1_556
Eu10 Ni4 3.147918 1_456
Eu11 Ni23 2.992730 1_455
Eu11 Ni23 2.992730 1_555
Eu11 P19 3.000800 1_455
Eu11 P19 3.000800 1_555
Eu11 P17 3.015256 1_455
Eu11 P17 3.015256 1_555
Eu11 Ni33 3.030866 1_555
Eu11 Ni33 3.030866 1_455
Eu11 P3 3.036738 1_455
Eu11 P3 3.036738 1_555
Eu11 Ni17 3.127001 1_555
Eu11 Ni13 3.128836 1_555
Eu11 Ni5 3.147918 1_555
Eu11 Ni5 3.147918 1_455
Eu12 Ni21 2.992730 1_555
Eu12 Ni21 2.992730 1_455
Eu12 P21 3.000800 1_455
Eu12 P21 3.000800 1_555
Eu12 P13 3.015256 1_455
Eu12 P13 3.015256 1_555
Eu12 Ni35 3.030866 1_555
Eu12 Ni35 3.030866 1_455
Eu12 P1 3.036738 1_555
Eu12 P1 3.036738 1_455
Eu12 Ni15 3.127001 1_555
Eu12 Ni9 3.128836 1_555
Eu12 Ni6 3.147918 1_455
Eu12 Ni6 3.147918 1_555
Eu13 Ni22 2.992730 1_456
Eu13 Ni22 2.992730 1_556
Eu13 P21 3.000812 1_455
Eu13 P21 3.000812 1_555
Eu13 P18 3.015256 1_555
Eu13 P18 3.015256 1_455
Eu13 Ni35 3.030865 1_455
Eu13 Ni35 3.030865 1_555
Eu13 P2 3.036750 1_556
Eu13 P2 3.036750 1_456
Eu13 Ni16 3.126983 1_556
Eu13 Ni14 3.128837 1_555
Eu13 Ni7 3.147906 1_556
Eu13 Ni7 3.147906 1_456
Eu14 Ni21 2.992718 1_545
Eu14 Ni21 2.992718 1_445
Eu14 P20 3.000800 1_555
Eu14 P20 3.000800 1_455
Eu14 P15 3.015256 1_555
Eu14 P15 3.015256 1_455
Eu14 Ni34 3.030865 1_555
Eu14 Ni34 3.030865 1_455
Eu14 P1 3.036750 1_445
Eu14 P1 3.036750 1_545
Eu14 Ni15 3.126989 1_545
Eu14 Ni11 3.128837 1_555
Eu14 Ni8 3.147918 1_445
Eu14 Ni8 3.147918 1_545
Eu15 P21 3.025940 1_444
Eu15 P21 3.025940 1_544
Eu15 P19 3.025940 1_455
Eu15 P19 3.025940 1_555
Eu15 P20 3.025952 1_454
Eu15 P20 3.025952 1_554
Eu15 Ni22 3.045743 1_445
Eu15 Ni22 3.045743 1_545
Eu15 Ni23 3.045755 1_455
Eu15 Ni23 3.045755 1_555
Eu15 Ni21 3.045755 1_444
Eu15 Ni21 3.045755 1_544
Ni0 Ni2 2.371345 1_555
Ni0 Ni1 2.371345 1_555
Ni0 Ni31 2.476305 1_555
Ni0 Ni31 2.476305 1_655
Ni0 Ni32 2.476315 1_655
Ni0 Ni32 2.476315 1_555
Ni0 Ni28 2.546761 1_555
Ni0 Ni25 2.546777 1_555
Ni1 Ni2 2.371345 1_555
Ni1 Ni30 2.476307 1_555
Ni1 Ni30 2.476307 1_655
Ni1 Ni32 2.476307 1_655
Ni1 Ni32 2.476307 1_555
Ni1 Ni26 2.546777 1_555
Ni1 Ni27 2.546777 1_555
Ni2 Ni31 2.476305 1_655
Ni2 Ni31 2.476305 1_555
Ni2 Ni30 2.476315 1_655
Ni2 Ni30 2.476315 1_555
Ni2 Ni24 2.546761 1_555
Ni2 Ni29 2.546777 1_555
Ni3 P4 2.317975 1_555
Ni3 P4 2.317975 1_655
Ni3 P14 2.333208 1_565
Ni3 P2 2.359291 1_555
Ni4 P5 2.317966 1_655
Ni4 P5 2.317966 1_555
Ni4 P16 2.333209 1_554
Ni4 P3 2.359324 1_555
Ni5 P6 2.317966 1_555
Ni5 P6 2.317966 1_655
Ni5 P17 2.333225 1_555
Ni5 P3 2.359293 1_555
Ni6 P7 2.317966 1_555
Ni6 P7 2.317966 1_655
Ni6 P13 2.333225 1_555
Ni6 P1 2.359293 1_555
Ni7 P8 2.317975 1_555
Ni7 P8 2.317975 1_655
Ni7 P18 2.333208 1_554
Ni7 P2 2.359291 1_555
Ni8 P9 2.317966 1_655
Ni8 P9 2.317966 1_555
Ni8 P15 2.333209 1_565
Ni8 P1 2.359324 1_555
Ni9 P13 2.340000 1_555
Ni9 P13 2.340000 1_455
Ni9 P7 2.341935 1_555
Ni9 P11 2.360962 1_555
Ni10 P14 2.340000 1_555
Ni10 P14 2.340000 1_455
Ni10 P4 2.341935 1_545
Ni10 P12 2.360962 1_555
Ni11 P15 2.340000 1_555
Ni11 P15 2.340000 1_455
Ni11 P9 2.341935 1_545
Ni11 P12 2.360962 1_555
Ni12 P16 2.340000 1_455
Ni12 P16 2.340000 1_555
Ni12 P5 2.341935 1_556
Ni12 P10 2.360962 1_555
Ni13 P17 2.340000 1_455
Ni13 P17 2.340000 1_555
Ni13 P6 2.341935 1_555
Ni13 P11 2.360962 1_555
Ni14 P18 2.340000 1_555
Ni14 P18 2.340000 1_455
Ni14 P8 2.341935 1_556
Ni14 P10 2.360962 1_555
Ni15 P1 2.314498 1_455
Ni15 P1 2.314498 1_555
Ni15 P9 2.334605 1_555
Ni15 P7 2.334620 1_555
Ni16 P2 2.314482 1_555
Ni16 P2 2.314482 1_455
Ni16 P4 2.334621 1_555
Ni16 P8 2.334621 1_555
Ni17 P3 2.314498 1_455
Ni17 P3 2.314498 1_555
Ni17 P5 2.334605 1_555
Ni17 P6 2.334620 1_555
Ni18 P5 2.316351 1_555
Ni18 P8 2.316351 1_555
Ni18 P0 2.325458 1_555
Ni19 P7 2.316351 1_555
Ni19 P6 2.316351 1_555
Ni19 P0 2.325474 1_555
Ni20 P9 2.316351 1_555
Ni20 P4 2.316351 1_555
Ni20 P0 2.325458 1_555
Ni21 P1 2.296156 1_555
Ni21 P20 2.312210 1_565
Ni21 P21 2.312210 1_555
Ni22 P2 2.296188 1_555
Ni22 P19 2.312210 1_565
Ni22 P21 2.312210 1_554
Ni23 P3 2.296156 1_555
Ni23 P20 2.312210 1_554
Ni23 P19 2.312210 1_555
Ni24 P13 2.227259 1_555
Ni24 P11 2.366293 1_555
Ni24 P11 2.366293 1_655
Ni25 P14 2.227259 1_555
Ni25 P12 2.366293 1_555
Ni25 P12 2.366293 1_655
Ni26 P15 2.227259 1_555
Ni26 P12 2.366293 1_555
Ni26 P12 2.366293 1_655
Ni27 P16 2.227259 1_555
Ni27 P10 2.366293 1_655
Ni27 P10 2.366293 1_555
Ni28 P17 2.227259 1_555
Ni28 P11 2.366293 1_555
Ni28 P11 2.366293 1_655
Ni29 P18 2.227259 1_555
Ni29 P10 2.366293 1_655
Ni29 P10 2.366293 1_555
Ni30 P10 2.155117 1_555
Ni31 P11 2.155117 1_555
Ni32 P12 2.155117 1_555
Ni33 P17 2.271792 1_555
Ni33 P14 2.271792 1_555
Ni33 P19 2.314829 1_555
Ni34 P16 2.271792 1_555
Ni34 P15 2.271792 1_555
Ni34 P20 2.314813 1_555
Ni35 P13 2.271792 1_555
Ni35 P18 2.271792 1_555
Ni35 P21 2.314829 1_555
