# generated using pymatgen
data_CuH44C12N8(ClO5)2
_symmetry_space_group_name_H-M   'P 1'
_cell_length_a   9.59528100
_cell_length_b   9.61966215
_cell_length_c   9.67636391
_cell_angle_alpha   105.45886559
_cell_angle_beta   119.72384512
_cell_angle_gamma   86.94287387
_symmetry_Int_Tables_number   1
_chemical_formula_structural   CuH44C12N8(ClO5)2
_chemical_formula_sum   'Cu1 H44 C12 N8 Cl2 O10'
_cell_volume   744.25959430
_cell_formula_units_Z   1
loop_
 _symmetry_equiv_pos_site_id
 _symmetry_equiv_pos_as_xyz
  1  'x, y, z'
loop_
 _atom_site_type_symbol
 _atom_site_label
 _atom_site_symmetry_multiplicity
 _atom_site_fract_x
 _atom_site_fract_y
 _atom_site_fract_z
 _atom_site_occupancy
  Cu  Cu0  1  0.00000000  0.50000000  0.00000000  1
  H  H0  1  0.96573400  0.38172400  0.24577500  1
  H  H1  1  0.03426600  0.61827600  0.75422500  1
  H  H2  1  0.13738300  0.29884100  0.08807600  1
  H  H3  1  0.86261700  0.70115900  0.91192400  1
  H  H4  1  0.68233600  0.62325600  0.25796800  1
  H  H5  1  0.31766400  0.37674400  0.74203200  1
  H  H6  1  0.80354600  0.68902800  0.31252600  1
  H  H7  1  0.19645400  0.31097200  0.68747400  1
  H  H8  1  0.76965500  0.31368600  0.05666500  1
  H  H9  1  0.23034500  0.68631400  0.94333500  1
  H  H10  1  0.80658000  0.36490500  0.89755400  1
  H  H11  1  0.19342000  0.63509500  0.10244600  1
  H  H12  1  0.32105800  0.20299900  0.40954800  1
  H  H13  1  0.67894200  0.79700100  0.59045200  1
  H  H14  1  0.22522300  0.09159100  0.49990800  1
  H  H15  1  0.77477700  0.90840900  0.50009200  1
  H  H16  1  0.36696600  0.16933400  0.09491200  1
  H  H17  1  0.63303400  0.83066600  0.90508800  1
  H  H18  1  0.32802100  0.05240700  0.98653300  1
  H  H19  1  0.67197900  0.94759300  0.01346700  1
  H  H20  1  0.49476300  0.34219600  0.89445400  1
  H  H21  1  0.50523700  0.65780400  0.10554600  1
  H  H22  1  0.54770400  0.50296400  0.82886600  1
  H  H23  1  0.45229600  0.49703600  0.17113400  1
  H  H24  1  0.62782500  0.35041700  0.41381800  1
  H  H25  1  0.37217500  0.64958300  0.58618200  1
  H  H26  1  0.62395000  0.50805500  0.55607400  1
  H  H27  1  0.37605000  0.49194500  0.44392600  1
  H  H28  1  0.98683700  0.14123500  0.36282300  1
  H  H29  1  0.01316300  0.85876500  0.63717700  1
  H  H30  1  0.83658600  0.13905500  0.30383100  1
  H  H31  1  0.16341400  0.86094500  0.69616900  1
  H  H32  1  0.70110100  0.13286900  0.78622700  1
  H  H33  1  0.29889900  0.86713100  0.21377300  1
  H  H34  1  0.90914000  0.13655500  0.63939100  1
  H  H35  1  0.09086000  0.86344500  0.36060900  1
  H  H36  1  0.82430400  0.50745500  0.63460300  1
  H  H37  1  0.17569600  0.49254500  0.36539700  1
  H  H38  1  0.97934900  0.35045100  0.55239900  1
  H  H39  1  0.02065100  0.64954900  0.44760100  1
  H  H40  1  0.50082700  0.13135800  0.70419800  1
  H  H41  1  0.49917300  0.86864200  0.29580200  1
  H  H42  1  0.56053700  0.13658700  0.49836400  1
  H  H43  1  0.43946300  0.86341300  0.50163600  1
  C  C0  1  0.57432200  0.38419500  0.79052500  1
  C  C1  1  0.42567800  0.61580500  0.20947500  1
  C  C2  1  0.65055300  0.38905600  0.51506500  1
  C  C3  1  0.34944700  0.61094400  0.48493500  1
  C  C4  1  0.85836100  0.17816700  0.40539300  1
  C  C5  1  0.14163900  0.82183300  0.59460700  1
  C  C6  1  0.78092500  0.17399300  0.68114800  1
  C  C7  1  0.21907500  0.82600700  0.31885200  1
  C  C8  1  0.85154400  0.38875100  0.59388100  1
  C  C9  1  0.14845600  0.61124900  0.40611900  1
  C  C10  1  0.58134600  0.17369000  0.60089500  1
  C  C11  1  0.41865400  0.82631000  0.39910500  1
  N  N0  1  0.74604500  0.33412400  0.73665000  1
  N  N1  1  0.25395500  0.66587600  0.26335000  1
  N  N2  1  0.54089000  0.33378700  0.65617400  1
  N  N3  1  0.45911000  0.66621300  0.34382600  1
  N  N4  1  0.82432600  0.33841100  0.45489600  1
  N  N5  1  0.17567400  0.66158900  0.54510400  1
  N  N6  1  0.75320400  0.11839100  0.54355500  1
  N  N7  1  0.24679600  0.88160900  0.45644500  1
  Cl  Cl0  1  0.54887100  0.19198100  0.17840000  1
  Cl  Cl1  1  0.45112900  0.80801900  0.82160000  1
  O  O0  1  0.05407000  0.38806100  0.13626500  1
  O  O1  1  0.94593000  0.61193900  0.86373500  1
  O  O2  1  0.79954700  0.61375400  0.22607900  1
  O  O3  1  0.20045300  0.38624600  0.77392100  1
  O  O4  1  0.85077400  0.35184900  0.96919800  1
  O  O5  1  0.14922600  0.64815100  0.03080200  1
  O  O6  1  0.22050400  0.19726600  0.51061000  1
  O  O7  1  0.77949600  0.80273400  0.48939000  1
  O  O8  1  0.29341800  0.15483700  0.05125400  1
  O  O9  1  0.70658200  0.84516300  0.94874600  1
loop_
_geom_bond_atom_site_label_1
_geom_bond_atom_site_label_2
_geom_bond_distance
_geom_bond_site_symmetry_2
Cu0 O0 1.784999 1_555
Cu0 O1 1.784999 1_454
H0 O0 1.666028 1_655
H1 O1 1.666028 1_455
H2 O0 1.294692 1_555
H3 O1 1.294692 1_555
H4 H6 1.150326 1_555
H4 O2 1.298690 1_555
H5 H7 1.150326 1_555
H5 O3 1.298690 1_555
H6 O2 0.934752 1_555
H7 O3 0.934752 1_555
H8 O4 1.518661 1_554
H9 O5 1.518661 1_556
H10 O4 0.652236 1_555
H10 N0 1.313385 1_555
H11 O5 0.652236 1_555
H11 N1 1.313385 1_555
H12 O6 1.691257 1_555
H13 O7 1.691257 1_555
H14 O6 0.994879 1_555
H15 O7 0.994879 1_555
H16 O8 0.615953 1_555
H17 O9 0.615953 1_555
H18 O8 1.147033 1_556
H19 O9 1.147033 1_554
H24 N4 1.727552 1_555
H25 N5 1.727552 1_555
H28 H30 1.259184 1_555
H29 H31 1.259184 1_555
H34 N6 1.301856 1_555
H35 N7 1.301856 1_555
H38 N4 1.297933 1_555
H39 N5 1.297933 1_555
C0 N2 1.138025 1_555
C0 H22 1.159783 1_555
C0 H20 1.663767 1_555
C1 N3 1.138025 1_555
C1 H23 1.159783 1_555
C1 H21 1.663767 1_555
C2 H24 0.864977 1_555
C2 H26 1.166256 1_555
C3 H25 0.864977 1_555
C3 H27 1.166256 1_555
C4 H30 0.871016 1_555
C4 H28 1.481362 1_555
C4 N4 1.555667 1_555
C5 H31 0.871016 1_555
C5 H29 1.481362 1_555
C5 N5 1.555667 1_555
C6 N6 1.189046 1_555
C6 H34 1.474654 1_555
C6 N0 1.567012 1_555
C6 H32 1.672133 1_555
C7 N7 1.189046 1_555
C7 H35 1.474654 1_555
C7 N1 1.567012 1_555
C7 H33 1.672133 1_555
C8 H36 1.165304 1_555
C8 N4 1.195573 1_555
C8 H38 1.470316 1_555
C9 H37 1.165304 1_555
C9 N5 1.195573 1_555
C9 H39 1.470316 1_555
C10 H42 0.879752 1_555
C10 N2 1.584813 1_555
C10 H40 1.666832 1_555
C10 C6 1.671837 1_555
C10 H32 1.724666 1_555
C11 H43 0.879752 1_555
C11 N3 1.584813 1_555
C11 H41 1.666832 1_555
C11 C7 1.671837 1_555
C11 H33 1.724666 1_555
Cl0 H16 1.514954 1_555
Cl1 H17 1.514954 1_555
