# generated using pymatgen
data_Ca3V3(AsO4)4
_symmetry_space_group_name_H-M   'P 1'
_cell_length_a   5.29487500
_cell_length_b   9.11683100
_cell_length_c   17.40719695
_cell_angle_alpha   65.18746833
_cell_angle_beta   90.00000000
_cell_angle_gamma   90.00000000
_symmetry_Int_Tables_number   1
_chemical_formula_structural   Ca3V3(AsO4)4
_chemical_formula_sum   'Ca6 V6 As8 O32'
_cell_volume   762.71793648
_cell_formula_units_Z   2
loop_
 _symmetry_equiv_pos_site_id
 _symmetry_equiv_pos_as_xyz
  1  'x, y, z'
loop_
 _atom_site_type_symbol
 _atom_site_label
 _atom_site_symmetry_multiplicity
 _atom_site_fract_x
 _atom_site_fract_y
 _atom_site_fract_z
 _atom_site_occupancy
  Ca  Ca0  1  0.53994700  0.29112500  0.23223800  1
  Ca  Ca1  1  0.03994700  0.70887500  0.26776200  1
  Ca  Ca2  1  0.46005300  0.70887500  0.76776200  1
  Ca  Ca3  1  0.96005300  0.29112500  0.73223800  1
  Ca  Ca4  1  0.50000000  0.00000000  0.50000000  1
  Ca  Ca5  1  0.00000000  0.00000000  0.00000000  1
  V  V0  1  0.45894200  0.21673100  0.62166800  1
  V  V1  1  0.54105800  0.78326900  0.37833200  1
  V  V2  1  0.95894200  0.78326900  0.87833200  1
  V  V3  1  0.04105800  0.21673100  0.12166800  1
  V  V4  1  0.00000000  0.50000000  0.50000000  1
  V  V5  1  0.50000000  0.50000000  0.00000000  1
  As  As0  1  0.02207400  0.04167000  0.34473100  1
  As  As1  1  0.47448600  0.43992100  0.39943900  1
  As  As2  1  0.97448600  0.56007900  0.10056100  1
  As  As3  1  0.02551400  0.43992100  0.89943900  1
  As  As4  1  0.97792600  0.95833000  0.65526900  1
  As  As5  1  0.52551400  0.56007900  0.60056100  1
  As  As6  1  0.47792600  0.04167000  0.84473100  1
  As  As7  1  0.52207400  0.95833000  0.15526900  1
  O  O0  1  0.46888300  0.80369000  0.25465700  1
  O  O1  1  0.93712600  0.73486800  0.01090000  1
  O  O2  1  0.39955400  0.42257200  0.30974800  1
  O  O3  1  0.41488500  0.13610200  0.15689400  1
  O  O4  1  0.60044600  0.57742800  0.69025200  1
  O  O5  1  0.03111700  0.80369000  0.75465700  1
  O  O6  1  0.89955400  0.57742800  0.19025200  1
  O  O7  1  0.74065000  0.54050500  0.89692500  1
  O  O8  1  0.64463700  0.09239300  0.91308900  1
  O  O9  1  0.53111700  0.19631000  0.74534300  1
  O  O10  1  0.08511500  0.13610200  0.65689400  1
  O  O11  1  0.25935000  0.45949500  0.10307500  1
  O  O12  1  0.26878600  0.58646800  0.40563400  1
  O  O13  1  0.35536300  0.90760700  0.08691100  1
  O  O14  1  0.65231700  0.98176900  0.63704700  1
  O  O15  1  0.15231700  0.01823100  0.86295300  1
  O  O16  1  0.76878600  0.41353200  0.09436600  1
  O  O17  1  0.10044600  0.42257200  0.80974800  1
  O  O18  1  0.14463700  0.90760700  0.58691100  1
  O  O19  1  0.24065000  0.45949500  0.60307500  1
  O  O20  1  0.84768300  0.98176900  0.13704700  1
  O  O21  1  0.34768300  0.01823100  0.36295300  1
  O  O22  1  0.06287400  0.26513200  0.98910000  1
  O  O23  1  0.43712600  0.26513200  0.48910000  1
  O  O24  1  0.73121400  0.41353200  0.59436600  1
  O  O25  1  0.96888300  0.19631000  0.24534300  1
  O  O26  1  0.58511500  0.86389800  0.84310600  1
  O  O27  1  0.85536300  0.09239300  0.41308900  1
  O  O28  1  0.56287400  0.73486800  0.51090000  1
  O  O29  1  0.75935000  0.54050500  0.39692500  1
  O  O30  1  0.23121400  0.58646800  0.90563400  1
  O  O31  1  0.91488500  0.86389800  0.34310600  1
loop_
_geom_bond_atom_site_label_1
_geom_bond_atom_site_label_2
_geom_bond_distance
_geom_bond_site_symmetry_2
Ca0 O2 2.272926 1_555
Ca0 O3 2.389937 1_555
Ca0 O25 2.406642 1_555
Ca0 O16 2.495092 1_555
Ca0 O11 2.592706 1_555
Ca0 O21 2.766266 1_555
Ca1 O6 2.272926 1_455
Ca1 O31 2.389937 1_455
Ca1 O0 2.406642 1_555
Ca1 O12 2.495092 1_555
Ca1 O29 2.592706 1_455
Ca1 O20 2.766266 1_455
Ca2 O4 2.272926 1_555
Ca2 O26 2.389937 1_555
Ca2 O5 2.406642 1_555
Ca2 O30 2.495092 1_555
Ca2 O7 2.592706 1_555
Ca2 O14 2.766266 1_555
Ca3 O17 2.272926 1_655
Ca3 O10 2.389937 1_655
Ca3 O9 2.406642 1_555
Ca3 O24 2.495092 1_555
Ca3 O19 2.592706 1_655
Ca3 O15 2.766266 1_655
Ca4 O18 2.338630 1_545
Ca4 O27 2.338630 1_555
Ca4 O23 2.367400 1_555
Ca4 O28 2.367400 1_545
Ca4 O21 2.456905 1_555
Ca4 O14 2.456905 1_545
Ca5 O8 2.338630 1_454
Ca5 O13 2.338630 1_545
Ca5 O22 2.367400 1_554
Ca5 O1 2.367400 1_445
Ca5 O20 2.456905 1_445
Ca5 O15 2.456905 1_554
As0 O27 1.694336 1_455
As0 O31 1.728617 1_445
As0 O25 1.735779 1_455
As0 O21 1.749790 1_555
As1 O2 1.681443 1_555
As1 O23 1.710836 1_555
As1 O29 1.756179 1_555
As1 O12 1.761768 1_555
As2 O6 1.681443 1_555
As2 O1 1.710836 1_555
As2 O11 1.756179 1_655
As2 O16 1.761768 1_555
As3 O17 1.681443 1_555
As3 O22 1.710836 1_555
As3 O7 1.756179 1_455
As3 O30 1.761768 1_555
As4 O18 1.694336 1_655
As4 O10 1.728617 1_665
As4 O5 1.735779 1_655
As4 O14 1.749790 1_555
As5 O4 1.681443 1_555
As5 O28 1.710836 1_555
As5 O19 1.756179 1_555
As5 O24 1.761768 1_555
As6 O8 1.694336 1_555
As6 O26 1.728617 1_545
As6 O9 1.735779 1_555
As6 O15 1.749790 1_555
As7 O13 1.694336 1_555
As7 O3 1.728617 1_565
As7 O0 1.735779 1_555
As7 O20 1.749790 1_555
O0 V1 2.116367 1_555
O1 V2 2.163009 1_554
O3 V3 2.110907 1_555
O5 V2 2.116367 1_455
O7 V5 2.103141 1_556
O7 V2 2.395393 1_555
O9 V0 2.116367 1_555
O10 V0 2.110907 1_555
O11 V5 2.103141 1_555
O11 V3 2.395393 1_555
O12 V4 2.063581 1_555
O12 V1 2.192646 1_555
O14 V0 2.286342 1_565
O15 V2 2.286342 1_445
O16 V5 2.063581 1_555
O16 V3 2.192646 1_655
O19 V4 2.103141 1_555
O19 V0 2.395393 1_555
O20 V3 2.286342 1_665
O21 V1 2.286342 1_545
O22 V3 2.163009 1_556
O23 V0 2.163009 1_555
O24 V4 2.063581 1_655
O24 V0 2.192646 1_555
O25 V3 2.116367 1_655
O26 V2 2.110907 1_555
O28 V1 2.163009 1_555
O29 V4 2.103141 1_655
O29 V1 2.395393 1_555
O30 V5 2.063581 1_556
O30 V2 2.192646 1_455
O31 V1 2.110907 1_555
