# generated using pymatgen
data_NaGdCu2F8
_symmetry_space_group_name_H-M   'P 1'
_cell_length_a   6.49037989
_cell_length_b   6.49037989
_cell_length_c   6.49037989
_cell_angle_alpha   130.05115253
_cell_angle_beta   130.05115253
_cell_angle_gamma   73.32500229
_symmetry_Int_Tables_number   1
_chemical_formula_structural   NaGdCu2F8
_chemical_formula_sum   'Na1 Gd1 Cu2 F8'
_cell_volume   156.38657415
_cell_formula_units_Z   1
loop_
 _symmetry_equiv_pos_site_id
 _symmetry_equiv_pos_as_xyz
  1  'x, y, z'
loop_
 _atom_site_type_symbol
 _atom_site_label
 _atom_site_symmetry_multiplicity
 _atom_site_fract_x
 _atom_site_fract_y
 _atom_site_fract_z
 _atom_site_occupancy
  Na  Na0  1  0.50000000  0.50000000  0.00000000  1
  Gd  Gd0  1  0.00000000  0.00000000  0.00000000  1
  Cu  Cu0  1  0.75000000  0.25000000  0.50000000  1
  Cu  Cu1  1  0.25000000  0.75000000  0.50000000  1
  F  F0  1  0.43476700  0.29095200  0.47998800  1
  F  F1  1  0.81096400  0.95477900  0.52001200  1
  F  F2  1  0.29095200  0.81096400  0.85618500  1
  F  F3  1  0.18903600  0.70904800  0.14381500  1
  F  F4  1  0.95477900  0.43476700  0.14381500  1
  F  F5  1  0.56523300  0.04522100  0.85618500  1
  F  F6  1  0.04522100  0.18903600  0.47998800  1
  F  F7  1  0.70904800  0.56523300  0.52001200  1
loop_
_geom_bond_atom_site_label_1
_geom_bond_atom_site_label_2
_geom_bond_distance
_geom_bond_site_symmetry_2
Cu0 F6 1.914133 1_655
Cu0 F1 1.914133 1_545
Cu0 F7 1.914133 1_555
Cu0 F0 1.914133 1_555
Cu1 F5 1.914133 1_565
Cu1 F4 1.914133 1_455
Cu1 F3 1.914133 1_555
Cu1 F2 1.914133 1_555
F0 Gd0 2.325416 1_555
F0 Na0 2.451259 1_556
F1 Gd0 2.325416 1_666
F1 Na0 2.451259 1_555
F2 Gd0 2.325416 1_566
F2 Na0 2.451259 1_556
F3 Gd0 2.325416 1_565
F3 Na0 2.451259 1_555
F4 Gd0 2.325416 1_655
F4 Na0 2.451259 1_555
F5 Gd0 2.325416 1_656
F5 Na0 2.451259 1_556
F6 Gd0 2.325416 1_555
F6 Na0 2.451259 1_556
F7 Gd0 2.325416 1_666
F7 Na0 2.451259 1_555
