# generated using pymatgen
data_Pr2(CuGe)3
_symmetry_space_group_name_H-M   'P 1'
_cell_length_a   4.29820300
_cell_length_b   4.22574000
_cell_length_c   8.86316296
_cell_angle_alpha   90.00000000
_cell_angle_beta   104.03270009
_cell_angle_gamma   90.00000000
_symmetry_Int_Tables_number   1
_chemical_formula_structural   Pr2(CuGe)3
_chemical_formula_sum   'Pr2 Cu3 Ge3'
_cell_volume   156.17829388
_cell_formula_units_Z   1
loop_
 _symmetry_equiv_pos_site_id
 _symmetry_equiv_pos_as_xyz
  1  'x, y, z'
loop_
 _atom_site_type_symbol
 _atom_site_label
 _atom_site_symmetry_multiplicity
 _atom_site_fract_x
 _atom_site_fract_y
 _atom_site_fract_z
 _atom_site_occupancy
  Pr  Pr0  1  0.15307600  0.50000000  0.30615200  1
  Pr  Pr1  1  0.36571300  0.00000000  0.73142500  1
  Cu  Cu0  1  0.78836400  0.50000000  0.57672800  1
  Cu  Cu1  1  0.00418000  0.00000000  0.00836000  1
  Cu  Cu2  1  0.58321800  0.00000000  0.16643700  1
  Ge  Ge0  1  0.92739600  0.50000000  0.85479300  1
  Ge  Ge1  1  0.51428100  0.50000000  0.02856200  1
  Ge  Ge2  1  0.72397200  0.00000000  0.44794300  1
loop_
_geom_bond_atom_site_label_1
_geom_bond_atom_site_label_2
_geom_bond_distance
_geom_bond_site_symmetry_2
Cu0 Ge2 2.385479 1_555
Cu0 Ge2 2.385479 1_565
Cu0 Ge0 2.390988 1_555
Cu0 Pr0 3.167281 1_655
Cu0 Pr0 3.167281 1_555
Cu0 Pr1 3.294275 1_565
Cu0 Pr1 3.294275 1_555
Cu0 Pr1 3.294278 1_655
Cu0 Pr1 3.294278 1_665
Cu1 Ge0 2.491558 1_454
Cu1 Ge0 2.491558 1_444
Cu1 Cu2 2.542871 1_555
Cu1 Cu2 2.542874 1_455
Cu1 Ge1 3.018780 1_455
Cu1 Ge1 3.018780 1_445
Cu1 Ge1 3.018780 1_545
Cu1 Ge1 3.018780 1_555
Cu1 Pr1 3.207660 1_454
Cu1 Pr1 3.207662 1_554
Cu1 Pr0 3.319783 1_555
Cu1 Pr0 3.319783 1_545
Cu2 Ge2 2.420576 1_555
Cu2 Ge1 2.422752 1_545
Cu2 Ge1 2.422752 1_555
Cu2 Pr0 3.244398 1_545
Cu2 Pr0 3.244398 1_555
Cu2 Pr0 3.244401 1_655
Cu2 Pr0 3.244401 1_645
Ge0 Ge1 2.617481 1_556
Ge0 Ge1 2.617484 1_656
Ge0 Pr1 3.195017 1_565
Ge0 Pr1 3.195017 1_555
Ge0 Pr1 3.195023 1_655
Ge0 Pr1 3.195023 1_665
Ge1 Pr0 3.211844 1_555
Ge1 Pr0 3.211844 1_655
Ge1 Pr1 3.315441 1_564
Ge1 Pr1 3.315441 1_554
Ge2 Pr1 3.249672 1_555
Ge2 Pr1 3.249672 1_655
Ge2 Pr0 3.251050 1_655
Ge2 Pr0 3.251050 1_645
Ge2 Pr0 3.251053 1_545
Ge2 Pr0 3.251053 1_555
