# generated using pymatgen
data_Rb2UCr2O10
_symmetry_space_group_name_H-M   'P 1'
_cell_length_a   8.09576164
_cell_length_b   10.34807702
_cell_length_c   13.73558792
_cell_angle_alpha   102.73145455
_cell_angle_beta   106.52911867
_cell_angle_gamma   94.05676866
_symmetry_Int_Tables_number   1
_chemical_formula_structural   Rb2UCr2O10
_chemical_formula_sum   'Rb8 U4 Cr8 O40'
_cell_volume   1065.01865791
_cell_formula_units_Z   4
loop_
 _symmetry_equiv_pos_site_id
 _symmetry_equiv_pos_as_xyz
  1  'x, y, z'
loop_
 _atom_site_type_symbol
 _atom_site_label
 _atom_site_symmetry_multiplicity
 _atom_site_fract_x
 _atom_site_fract_y
 _atom_site_fract_z
 _atom_site_occupancy
  Rb  Rb0  1  0.94291932  0.50426386  0.66874659  1
  Rb  Rb1  1  0.05708068  0.49573614  0.33125341  1
  Rb  Rb2  1  0.36934036  0.24016438  0.49241241  1
  Rb  Rb3  1  0.63065964  0.75983562  0.50758759  1
  Rb  Rb4  1  0.05376313  0.31640826  0.97233560  1
  Rb  Rb5  1  0.94623687  0.68359174  0.02766440  1
  Rb  Rb6  1  0.65590022  0.95564129  0.85879402  1
  Rb  Rb7  1  0.34409978  0.04435871  0.14120598  1
  U  U0  1  0.17583071  0.89509131  0.57965932  1
  U  U1  1  0.82416929  0.10490869  0.42034068  1
  U  U2  1  0.39174747  0.65509262  0.94530238  1
  U  U3  1  0.60825253  0.34490738  0.05469762  1
  Cr  Cr0  1  0.11385582  0.90257950  0.84393857  1
  Cr  Cr1  1  0.88614418  0.09742050  0.15606143  1
  Cr  Cr2  1  0.39406090  0.61387971  0.65506498  1
  Cr  Cr3  1  0.60593910  0.38612029  0.34493502  1
  Cr  Cr4  1  0.38880294  0.63566605  0.17174324  1
  Cr  Cr5  1  0.61119706  0.36433395  0.82825676  1
  Cr  Cr6  1  0.12514120  0.85366798  0.33670723  1
  Cr  Cr7  1  0.87485880  0.14633202  0.66329277  1
  O  O0  1  0.24473613  0.78219990  0.42592646  1
  O  O1  1  0.75526387  0.21780010  0.57407354  1
  O  O2  1  0.34187005  0.75602874  0.10777582  1
  O  O3  1  0.65812995  0.24397126  0.89222418  1
  O  O4  1  0.39213934  0.77013996  0.63784956  1
  O  O5  1  0.60786066  0.22986004  0.36215044  1
  O  O6  1  0.17680203  0.55967731  0.90917202  1
  O  O7  1  0.82319797  0.44032269  0.09082798  1
  O  O8  1  0.48042478  0.54082348  0.08814024  1
  O  O9  1  0.51957522  0.45917652  0.91185976  1
  O  O10  1  0.27539194  0.84613975  0.92514572  1
  O  O11  1  0.72460806  0.15386025  0.07485428  1
  O  O12  1  0.00503972  0.75810515  0.55493260  1
  O  O13  1  0.99496028  0.24189485  0.44506740  1
  O  O14  1  0.18958631  0.94373256  0.75091307  1
  O  O15  1  0.81041369  0.05626744  0.24908693  1
  O  O16  1  0.60469740  0.75344684  0.98200934  1
  O  O17  1  0.39530260  0.24655316  0.01799066  1
  O  O18  1  0.02854469  0.95218381  0.41492527  1
  O  O19  1  0.97145531  0.04781619  0.58507473  1
  O  O20  1  0.34631226  0.02882558  0.60022081  1
  O  O21  1  0.65368774  0.97117442  0.39977919  1
  O  O22  1  0.05860379  0.03112540  0.91119946  1
  O  O23  1  0.94139621  0.96887460  0.08880054  1
  O  O24  1  0.57617519  0.56749177  0.64632456  1
  O  O25  1  0.42382481  0.43250823  0.35367544  1
  O  O26  1  0.36979812  0.62054079  0.77446700  1
  O  O27  1  0.63020188  0.37945921  0.22553300  1
  O  O28  1  0.23538659  0.51305013  0.56518701  1
  O  O29  1  0.76461341  0.48694987  0.43481299  1
  O  O30  1  0.21140475  0.55193225  0.16976358  1
  O  O31  1  0.78859525  0.44806775  0.83023642  1
  O  O32  1  0.52044627  0.68914776  0.28770218  1
  O  O33  1  0.47955373  0.31085224  0.71229782  1
  O  O34  1  0.94700638  0.78715230  0.79187030  1
  O  O35  1  0.05299362  0.21284770  0.20812970  1
  O  O36  1  0.98470715  0.74249440  0.24416920  1
  O  O37  1  0.01529285  0.25750560  0.75583080  1
  O  O38  1  0.24197692  0.94479812  0.29326470  1
  O  O39  1  0.75802308  0.05520188  0.70673530  1
loop_
_geom_bond_atom_site_label_1
_geom_bond_atom_site_label_2
_geom_bond_distance
_geom_bond_site_symmetry_2
Cr0 O22 1.612674 1_565
Cr0 O34 1.615021 1_455
Cr0 O14 1.684802 1_555
Cr0 O10 1.691363 1_555
Cr1 O23 1.612674 1_545
Cr1 O35 1.615021 1_655
Cr1 O15 1.684802 1_555
Cr1 O11 1.691363 1_555
Cr2 O24 1.610593 1_555
Cr2 O28 1.613426 1_555
Cr2 O4 1.685473 1_555
Cr2 O26 1.693669 1_555
Cr3 O25 1.610593 1_555
Cr3 O29 1.613426 1_555
Cr3 O5 1.685473 1_555
Cr3 O27 1.693669 1_555
Cr4 O32 1.594099 1_555
Cr4 O30 1.614140 1_555
Cr4 O2 1.681380 1_555
Cr4 O8 1.709680 1_555
Cr5 O33 1.594099 1_555
Cr5 O31 1.614140 1_555
Cr5 O3 1.681380 1_555
Cr5 O9 1.709680 1_555
Cr6 O36 1.606188 1_455
Cr6 O38 1.607171 1_555
Cr6 O0 1.676849 1_555
Cr6 O18 1.706817 1_555
Cr7 O37 1.606188 1_655
Cr7 O39 1.607171 1_555
Cr7 O1 1.676849 1_555
Cr7 O19 1.706817 1_555
O0 U0 2.410392 1_555
O0 Rb3 3.048915 1_555
O0 Rb1 3.053854 1_555
O1 U1 2.410392 1_555
O1 Rb2 3.048915 1_555
O1 Rb0 3.053854 1_555
O2 U2 2.404035 1_554
O2 Rb7 2.914996 1_565
O2 Rb5 3.053346 1_455
O3 U3 2.404035 1_556
O3 Rb6 2.914996 1_545
O3 Rb4 3.053346 1_655
O4 U0 2.314479 1_555
O4 Rb3 2.975302 1_555
O4 Rb6 3.258759 1_555
O5 U1 2.314479 1_555
O5 Rb2 2.975302 1_555
O5 Rb7 3.258759 1_555
O6 U2 1.816267 1_555
O6 Rb5 2.987444 1_456
O6 Rb4 3.030122 1_555
O6 Rb0 3.205232 1_455
O7 U3 1.816267 1_555
O7 Rb4 2.987444 1_654
O7 Rb5 3.030122 1_555
O7 Rb1 3.205232 1_655
O8 U3 2.355628 1_555
O8 U2 2.470653 1_554
O9 U2 2.355628 1_555
O9 U3 2.470653 1_556
O10 U2 2.286647 1_555
O10 Rb7 3.088737 1_566
O11 U3 2.286647 1_555
O11 Rb6 3.088737 1_544
O12 U0 1.811038 1_555
O12 Rb3 2.915617 1_455
O12 Rb0 3.415722 1_455
O13 U1 1.811038 1_555
O13 Rb2 2.915617 1_655
O13 Rb1 3.415722 1_655
O14 U0 2.262761 1_555
O15 U1 2.262761 1_555
O16 U2 1.814715 1_555
O16 Rb5 2.838506 1_556
O16 Rb6 3.041588 1_555
O17 U3 1.814715 1_555
O17 Rb4 2.838506 1_554
O17 Rb7 3.041588 1_555
O18 U1 2.372559 1_465
O18 U0 2.458541 1_555
O19 U0 2.372559 1_645
O19 U1 2.458541 1_555
O20 U0 1.798749 1_545
O20 Rb2 2.921832 1_555
O21 U1 1.798749 1_565
O21 Rb3 2.921832 1_555
O22 Rb4 2.892092 1_555
O22 Rb6 3.132680 1_445
O22 Rb7 3.309310 1_556
O23 Rb5 2.892092 1_555
O23 Rb7 3.132680 1_665
O23 Rb6 3.309310 1_554
O24 Rb0 3.030134 1_555
O24 Rb3 3.132652 1_555
O25 Rb1 3.030134 1_555
O25 Rb2 3.132652 1_555
O26 U2 2.247120 1_555
O26 Rb0 3.359432 1_455
O27 U3 2.247120 1_555
O27 Rb1 3.359432 1_655
O28 Rb1 3.083995 1_555
O28 Rb0 3.095288 1_455
O28 Rb2 3.155201 1_555
O29 Rb0 3.083995 1_555
O29 Rb1 3.095288 1_655
O29 Rb3 3.155201 1_555
O30 Rb1 2.976903 1_555
O30 Rb5 3.078312 1_455
O30 Rb4 3.098411 1_554
O31 Rb0 2.976903 1_555
O31 Rb4 3.078312 1_655
O31 Rb5 3.098411 1_556
O32 Rb3 2.802435 1_555
O33 Rb2 2.802435 1_555
O34 Rb0 3.033635 1_555
O34 Rb6 3.247572 1_555
O35 Rb1 3.033635 1_555
O35 Rb7 3.247572 1_555
O36 Rb5 2.821228 1_555
O36 Rb1 3.074647 1_655
O37 Rb4 2.821228 1_555
O37 Rb0 3.074647 1_455
O38 Rb7 2.813853 1_565
O38 Rb2 3.485942 1_565
O39 Rb6 2.813853 1_545
O39 Rb3 3.485942 1_545
