# generated using pymatgen
data_AgSb(PbS2)2
_symmetry_space_group_name_H-M   'P 1'
_cell_length_a   7.27875511
_cell_length_b   7.27875511
_cell_length_c   7.27875511
_cell_angle_alpha   133.49771869
_cell_angle_beta   133.49771869
_cell_angle_gamma   67.87358455
_symmetry_Int_Tables_number   1
_chemical_formula_structural   AgSb(PbS2)2
_chemical_formula_sum   'Ag1 Sb1 Pb2 S4'
_cell_volume   199.43405147
_cell_formula_units_Z   1
loop_
 _symmetry_equiv_pos_site_id
 _symmetry_equiv_pos_as_xyz
  1  'x, y, z'
loop_
 _atom_site_type_symbol
 _atom_site_label
 _atom_site_symmetry_multiplicity
 _atom_site_fract_x
 _atom_site_fract_y
 _atom_site_fract_z
 _atom_site_occupancy
  Ag  Ag0  1  0.00000000  0.00000000  0.00000000  1
  Sb  Sb0  1  0.50000000  0.50000000  0.00000000  1
  Pb  Pb0  1  0.25000000  0.75000000  0.50000000  1
  Pb  Pb1  1  0.75000000  0.25000000  0.50000000  1
  S  S0  1  0.00000000  0.50000000  0.50000000  1
  S  S1  1  0.27547300  0.27547300  0.00000000  1
  S  S2  1  0.50000000  0.00000000  0.50000000  1
  S  S3  1  0.72452700  0.72452700  0.00000000  1
loop_
_geom_bond_atom_site_label_1
_geom_bond_atom_site_label_2
_geom_bond_distance
_geom_bond_site_symmetry_2
Ag0 S0 2.873377 1_544
Ag0 S2 2.873377 1_454
Ag0 S0 2.873377 1_555
Ag0 S2 2.873377 1_555
Pb0 S1 2.889801 1_555
Pb0 S3 2.889801 1_455
Pb0 S3 2.889801 1_556
Pb0 S1 2.889801 1_566
Pb0 S2 3.019424 1_565
Pb0 S0 3.019424 1_555
Pb1 S1 2.889801 1_555
Pb1 S3 2.889801 1_545
Pb1 S3 2.889801 1_556
Pb1 S1 2.889801 1_656
Pb1 S0 3.019424 1_655
Pb1 S2 3.019424 1_555
S0 Sb0 2.873377 1_455
S0 Sb0 2.873377 1_556
S1 Sb0 2.711769 1_555
S2 Sb0 2.873377 1_545
S2 Sb0 2.873377 1_556
S3 Sb0 2.711769 1_555
