# generated using pymatgen
data_CaP2PdO7
_symmetry_space_group_name_H-M   'P 1'
_cell_length_a   5.96703800
_cell_length_b   7.29666100
_cell_length_c   13.12704100
_cell_angle_alpha   90.00000000
_cell_angle_beta   90.00000000
_cell_angle_gamma   90.00000000
_symmetry_Int_Tables_number   1
_chemical_formula_structural   CaP2PdO7
_chemical_formula_sum   'Ca4 P8 Pd4 O28'
_cell_volume   571.54419069
_cell_formula_units_Z   4
loop_
 _symmetry_equiv_pos_site_id
 _symmetry_equiv_pos_as_xyz
  1  'x, y, z'
loop_
 _atom_site_type_symbol
 _atom_site_label
 _atom_site_symmetry_multiplicity
 _atom_site_fract_x
 _atom_site_fract_y
 _atom_site_fract_z
 _atom_site_occupancy
  Ca  Ca0  1  0.25000000  0.74092600  0.24405600  1
  Ca  Ca1  1  0.75000000  0.25907400  0.75594400  1
  Ca  Ca2  1  0.75000000  0.24092600  0.25594400  1
  Ca  Ca3  1  0.25000000  0.75907400  0.74405600  1
  P  P0  1  0.25000000  0.29179900  0.12468100  1
  P  P1  1  0.75000000  0.70820100  0.87531900  1
  P  P2  1  0.75000000  0.79179900  0.37531900  1
  P  P3  1  0.25000000  0.20820100  0.62468100  1
  P  P4  1  0.25000000  0.17187800  0.40534200  1
  P  P5  1  0.75000000  0.82812200  0.59465800  1
  P  P6  1  0.75000000  0.67187800  0.09465800  1
  P  P7  1  0.25000000  0.32812200  0.90534200  1
  Pd  Pd0  1  0.00000000  0.00000000  0.00000000  1
  Pd  Pd1  1  0.00000000  0.50000000  0.50000000  1
  Pd  Pd2  1  0.50000000  0.00000000  0.00000000  1
  Pd  Pd3  1  0.50000000  0.50000000  0.50000000  1
  O  O0  1  0.25000000  0.01587900  0.33212800  1
  O  O1  1  0.75000000  0.98412100  0.66787200  1
  O  O2  1  0.75000000  0.51587900  0.16787200  1
  O  O3  1  0.25000000  0.48412100  0.83212800  1
  O  O4  1  0.25000000  0.40903800  0.02038500  1
  O  O5  1  0.75000000  0.59096200  0.97961500  1
  O  O6  1  0.75000000  0.90903800  0.47961500  1
  O  O7  1  0.25000000  0.09096200  0.52038500  1
  O  O8  1  0.25000000  0.42661700  0.21071800  1
  O  O9  1  0.75000000  0.57338300  0.78928200  1
  O  O10  1  0.75000000  0.92661700  0.28928200  1
  O  O11  1  0.25000000  0.07338300  0.71071800  1
  O  O12  1  0.02974400  0.28726700  0.39755300  1
  O  O13  1  0.97025600  0.71273300  0.60244700  1
  O  O14  1  0.97025600  0.78726700  0.10244700  1
  O  O15  1  0.52974400  0.71273300  0.60244700  1
  O  O16  1  0.02974400  0.21273300  0.89755300  1
  O  O17  1  0.47025600  0.28726700  0.39755300  1
  O  O18  1  0.47025600  0.21273300  0.89755300  1
  O  O19  1  0.52974400  0.78726700  0.10244700  1
  O  O20  1  0.03422100  0.17088200  0.12415900  1
  O  O21  1  0.96577900  0.82911800  0.87584100  1
  O  O22  1  0.96577900  0.67088200  0.37584100  1
  O  O23  1  0.53422100  0.82911800  0.87584100  1
  O  O24  1  0.03422100  0.32911800  0.62415900  1
  O  O25  1  0.46577900  0.17088200  0.12415900  1
  O  O26  1  0.46577900  0.32911800  0.62415900  1
  O  O27  1  0.53422100  0.67088200  0.37584100  1
loop_
_geom_bond_atom_site_label_1
_geom_bond_atom_site_label_2
_geom_bond_distance
_geom_bond_site_symmetry_2
Ca0 O0 2.315517 1_565
Ca0 O8 2.334787 1_555
Ca0 O27 2.475924 1_555
Ca0 O22 2.475924 1_455
Ca0 O14 2.521159 1_455
Ca0 O19 2.521159 1_555
Ca1 O1 2.315517 1_545
Ca1 O9 2.334787 1_555
Ca1 O24 2.475924 1_655
Ca1 O26 2.475924 1_555
Ca1 O16 2.521159 1_655
Ca1 O18 2.521159 1_555
Ca2 O2 2.315517 1_555
Ca2 O10 2.334787 1_545
Ca2 O20 2.475924 1_655
Ca2 O25 2.475924 1_555
Ca2 O12 2.521159 1_655
Ca2 O17 2.521159 1_555
Ca3 O3 2.315517 1_555
Ca3 O11 2.334787 1_565
Ca3 O23 2.475924 1_555
Ca3 O21 2.475924 1_455
Ca3 O15 2.521159 1_555
Ca3 O13 2.521159 1_455
O0 P4 1.489746 1_555
O1 P5 1.489746 1_555
O2 P6 1.489746 1_555
O3 P7 1.489746 1_555
O4 P0 1.614382 1_555
O4 P7 1.621486 1_554
O5 P1 1.614382 1_555
O5 P6 1.621486 1_556
O6 P2 1.614382 1_555
O6 P5 1.621486 1_555
O7 P3 1.614382 1_555
O7 P4 1.621486 1_555
O8 P0 1.497757 1_555
O9 P1 1.497757 1_555
O10 P2 1.497757 1_555
O11 P3 1.497757 1_555
O12 P4 1.564181 1_555
O12 Pd1 2.061434 1_555
O13 P5 1.564181 1_555
O13 Pd1 2.061434 1_655
O14 P6 1.564181 1_555
O14 Pd0 2.061434 1_665
O15 P5 1.564181 1_555
O15 Pd3 2.061434 1_555
O16 P7 1.564181 1_555
O16 Pd0 2.061434 1_556
O17 P4 1.564181 1_555
O17 Pd3 2.061434 1_555
O18 P7 1.564181 1_555
O18 Pd2 2.061434 1_556
O19 P6 1.564181 1_555
O19 Pd2 2.061434 1_565
O20 P0 1.560864 1_555
O20 Pd0 2.062221 1_555
O21 P1 1.560864 1_555
O21 Pd0 2.062221 1_666
O22 P2 1.560864 1_555
O22 Pd1 2.062221 1_655
O23 P1 1.560864 1_555
O23 Pd2 2.062221 1_566
O24 P3 1.560864 1_555
O24 Pd1 2.062221 1_555
O25 P0 1.560864 1_555
O25 Pd2 2.062221 1_555
O26 P3 1.560864 1_555
O26 Pd3 2.062221 1_555
O27 P2 1.560864 1_555
O27 Pd3 2.062221 1_555
