# generated using pymatgen
data_NdFe2
_symmetry_space_group_name_H-M   'P 1'
_cell_length_a   5.26394471
_cell_length_b   5.26394471
_cell_length_c   5.26394471
_cell_angle_alpha   60.00000000
_cell_angle_beta   60.00000000
_cell_angle_gamma   60.00000000
_symmetry_Int_Tables_number   1
_chemical_formula_structural   NdFe2
_chemical_formula_sum   'Nd2 Fe4'
_cell_volume   103.13806022
_cell_formula_units_Z   2
loop_
 _symmetry_equiv_pos_site_id
 _symmetry_equiv_pos_as_xyz
  1  'x, y, z'
loop_
 _atom_site_type_symbol
 _atom_site_label
 _atom_site_symmetry_multiplicity
 _atom_site_fract_x
 _atom_site_fract_y
 _atom_site_fract_z
 _atom_site_occupancy
  Nd  Nd0  1  0.25000000  0.25000000  0.25000000  1
  Nd  Nd1  1  0.00000000  0.00000000  0.00000000  1
  Fe  Fe0  1  0.62500000  0.12500000  0.62500000  1
  Fe  Fe1  1  0.62500000  0.62500000  0.12500000  1
  Fe  Fe2  1  0.12500000  0.62500000  0.62500000  1
  Fe  Fe3  1  0.62500000  0.62500000  0.62500000  1
loop_
_geom_bond_atom_site_label_1
_geom_bond_atom_site_label_2
_geom_bond_distance
_geom_bond_site_symmetry_2
Fe0 Fe3 2.631972 1_555
Fe0 Fe2 2.631972 1_555
Fe0 Fe2 2.631972 1_645
Fe0 Fe1 2.631972 1_555
Fe0 Fe3 2.631972 1_545
Fe0 Fe1 2.631972 1_546
Fe0 Nd0 3.086261 1_555
Fe0 Nd1 3.086261 1_655
Fe0 Nd0 3.086261 1_556
Fe0 Nd0 3.086261 1_655
Fe0 Nd1 3.086261 1_656
Fe0 Nd1 3.086261 1_556
Fe1 Fe3 2.631972 1_555
Fe1 Fe2 2.631972 1_555
Fe1 Fe2 2.631972 1_654
Fe1 Fe3 2.631972 1_554
Fe1 Nd0 3.086261 1_555
Fe1 Nd1 3.086261 1_655
Fe1 Nd1 3.086261 1_665
Fe1 Nd0 3.086261 1_565
Fe1 Nd0 3.086261 1_655
Fe1 Nd1 3.086261 1_565
Fe2 Fe3 2.631972 1_555
Fe2 Fe3 2.631972 1_455
Fe2 Nd0 3.086261 1_555
Fe2 Nd0 3.086261 1_556
Fe2 Nd0 3.086261 1_565
Fe2 Nd1 3.086261 1_556
Fe2 Nd1 3.086261 1_566
Fe2 Nd1 3.086261 1_565
Fe3 Nd0 3.086261 1_556
Fe3 Nd0 3.086261 1_565
Fe3 Nd0 3.086261 1_655
Fe3 Nd1 3.086261 1_656
Fe3 Nd1 3.086261 1_665
Fe3 Nd1 3.086261 1_566
