# generated using pymatgen
data_RbCrN2
_symmetry_space_group_name_H-M   'P 1'
_cell_length_a   5.76594100
_cell_length_b   8.15476400
_cell_length_c   11.53180200
_cell_angle_alpha   90.00000000
_cell_angle_beta   90.00000000
_cell_angle_gamma   90.00000000
_symmetry_Int_Tables_number   1
_chemical_formula_structural   RbCrN2
_chemical_formula_sum   'Rb8 Cr8 N16'
_cell_volume   542.22403955
_cell_formula_units_Z   8
loop_
 _symmetry_equiv_pos_site_id
 _symmetry_equiv_pos_as_xyz
  1  'x, y, z'
loop_
 _atom_site_type_symbol
 _atom_site_label
 _atom_site_symmetry_multiplicity
 _atom_site_fract_x
 _atom_site_fract_y
 _atom_site_fract_z
 _atom_site_occupancy
  Rb  Rb0  1  0.75000000  0.12524300  0.00000000  1
  Rb  Rb1  1  0.25000000  0.87475700  0.50000000  1
  Rb  Rb2  1  0.25000000  0.87475700  0.00000000  1
  Rb  Rb3  1  0.75000000  0.12524300  0.50000000  1
  Rb  Rb4  1  0.73867400  0.37502300  0.25000000  1
  Rb  Rb5  1  0.23867400  0.62497700  0.25000000  1
  Rb  Rb6  1  0.26132600  0.62497700  0.75000000  1
  Rb  Rb7  1  0.76132600  0.37502300  0.75000000  1
  Cr  Cr0  1  0.25000000  0.37493100  0.00000000  1
  Cr  Cr1  1  0.75000000  0.62506900  0.50000000  1
  Cr  Cr2  1  0.75000000  0.62506900  0.00000000  1
  Cr  Cr3  1  0.25000000  0.37493100  0.50000000  1
  Cr  Cr4  1  0.24165100  0.12494700  0.25000000  1
  Cr  Cr5  1  0.74165100  0.87505300  0.25000000  1
  Cr  Cr6  1  0.75834900  0.87505300  0.75000000  1
  Cr  Cr7  1  0.25834900  0.12494700  0.75000000  1
  N  N0  1  0.98540200  0.00606400  0.25000000  1
  N  N1  1  0.48540200  0.99393600  0.25000000  1
  N  N2  1  0.01459800  0.99393600  0.75000000  1
  N  N3  1  0.51459800  0.00606400  0.75000000  1
  N  N4  1  0.24822200  0.24975300  0.37502300  1
  N  N5  1  0.74822200  0.75024700  0.12497700  1
  N  N6  1  0.75177800  0.75024700  0.87502300  1
  N  N7  1  0.25177800  0.24975300  0.62497700  1
  N  N8  1  0.75177800  0.75024700  0.62497700  1
  N  N9  1  0.25177800  0.24975300  0.87502300  1
  N  N10  1  0.24822200  0.24975300  0.12497700  1
  N  N11  1  0.74822200  0.75024700  0.37502300  1
  N  N12  1  0.50000000  0.50000000  0.50000000  1
  N  N13  1  0.00000000  0.50000000  0.00000000  1
  N  N14  1  0.50000000  0.50000000  0.00000000  1
  N  N15  1  0.00000000  0.50000000  0.50000000  1
loop_
_geom_bond_atom_site_label_1
_geom_bond_atom_site_label_2
_geom_bond_distance
_geom_bond_site_symmetry_2
Cr0 N13 1.765812 1_555
Cr0 N14 1.765812 1_555
Cr0 N10 1.766131 1_555
Cr0 N9 1.766131 1_554
Cr1 N12 1.765812 1_555
Cr1 N15 1.765812 1_655
Cr1 N8 1.766131 1_555
Cr1 N11 1.766131 1_555
Cr2 N13 1.765812 1_655
Cr2 N14 1.765812 1_555
Cr2 N5 1.766131 1_555
Cr2 N6 1.766131 1_554
Cr3 N15 1.765812 1_555
Cr3 N12 1.765812 1_555
Cr3 N4 1.766131 1_555
Cr3 N7 1.766131 1_555
Cr4 N4 1.765189 1_555
Cr4 N10 1.765189 1_555
Cr4 N1 1.765418 1_545
Cr4 N0 1.767177 1_455
Cr5 N11 1.765189 1_555
Cr5 N5 1.765189 1_555
Cr5 N0 1.765418 1_565
Cr5 N1 1.767177 1_555
Cr6 N6 1.765189 1_555
Cr6 N8 1.765189 1_555
Cr6 N3 1.765418 1_565
Cr6 N2 1.767177 1_655
Cr7 N7 1.765189 1_555
Cr7 N9 1.765189 1_555
Cr7 N2 1.765418 1_545
Cr7 N3 1.767177 1_555
N0 Rb4 3.328147 1_555
N0 Rb0 3.331403 1_555
N0 Rb3 3.331403 1_555
N0 Rb1 3.433016 1_645
N0 Rb2 3.433016 1_645
N0 Rb5 3.433696 1_645
N1 Rb5 3.328147 1_555
N1 Rb1 3.331403 1_555
N1 Rb2 3.331403 1_555
N1 Rb3 3.433016 1_565
N1 Rb0 3.433016 1_565
N1 Rb4 3.433696 1_565
N2 Rb6 3.328147 1_555
N2 Rb2 3.331403 1_556
N2 Rb1 3.331403 1_555
N2 Rb0 3.433016 1_466
N2 Rb3 3.433016 1_465
N2 Rb7 3.433696 1_465
N3 Rb7 3.328147 1_555
N3 Rb0 3.331403 1_556
N3 Rb3 3.331403 1_555
N3 Rb1 3.433016 1_545
N3 Rb2 3.433016 1_546
N3 Rb6 3.433696 1_545
N4 Rb4 3.334560 1_555
N4 Rb3 3.370539 1_455
N4 Rb1 3.380618 1_545
N4 Rb5 3.382959 1_555
N4 Rb3 3.388031 1_555
N4 Rb4 3.428434 1_455
N5 Rb5 3.334560 1_655
N5 Rb2 3.370539 1_555
N5 Rb0 3.380618 1_565
N5 Rb4 3.382959 1_555
N5 Rb2 3.388031 1_655
N5 Rb5 3.428434 1_555
N6 Rb6 3.334560 1_555
N6 Rb2 3.370539 1_656
N6 Rb0 3.380618 1_566
N6 Rb7 3.382959 1_555
N6 Rb2 3.388031 1_556
N6 Rb6 3.428434 1_655
N7 Rb7 3.334560 1_455
N7 Rb3 3.370539 1_555
N7 Rb1 3.380618 1_545
N7 Rb6 3.382959 1_555
N7 Rb3 3.388031 1_455
N7 Rb7 3.428434 1_555
N8 Rb6 3.334560 1_555
N8 Rb1 3.370539 1_655
N8 Rb3 3.380618 1_565
N8 Rb7 3.382959 1_555
N8 Rb1 3.388031 1_555
N8 Rb6 3.428434 1_655
N9 Rb7 3.334560 1_455
N9 Rb0 3.370539 1_556
N9 Rb2 3.380618 1_546
N9 Rb6 3.382959 1_555
N9 Rb0 3.388031 1_456
N9 Rb7 3.428434 1_555
N10 Rb4 3.334560 1_555
N10 Rb0 3.370539 1_455
N10 Rb2 3.380618 1_545
N10 Rb5 3.382959 1_555
N10 Rb0 3.388031 1_555
N10 Rb4 3.428434 1_455
N11 Rb5 3.334560 1_655
N11 Rb1 3.370539 1_555
N11 Rb3 3.380618 1_565
N11 Rb4 3.382959 1_555
N11 Rb1 3.388031 1_655
N11 Rb5 3.428434 1_555
N12 Rb4 3.353201 1_555
N12 Rb6 3.353201 1_555
N12 Rb1 3.378957 1_555
N12 Rb3 3.378957 1_555
N12 Rb5 3.408886 1_555
N12 Rb7 3.408886 1_555
N13 Rb7 3.353201 1_454
N13 Rb5 3.353201 1_555
N13 Rb0 3.378957 1_455
N13 Rb2 3.378957 1_555
N13 Rb6 3.408886 1_554
N13 Rb4 3.408886 1_455
N14 Rb4 3.353201 1_555
N14 Rb6 3.353201 1_554
N14 Rb2 3.378957 1_555
N14 Rb0 3.378957 1_555
N14 Rb5 3.408886 1_555
N14 Rb7 3.408886 1_554
N15 Rb5 3.353201 1_555
N15 Rb7 3.353201 1_455
N15 Rb1 3.378957 1_555
N15 Rb3 3.378957 1_455
N15 Rb6 3.408886 1_555
N15 Rb4 3.408886 1_455
