# generated using pymatgen
data_Rb3Dy
_symmetry_space_group_name_H-M   'P 1'
_cell_length_a   9.08158584
_cell_length_b   9.08158584
_cell_length_c   7.46682600
_cell_angle_alpha   90.00000000
_cell_angle_beta   90.00000000
_cell_angle_gamma   119.99999885
_symmetry_Int_Tables_number   1
_chemical_formula_structural   Rb3Dy
_chemical_formula_sum   'Rb6 Dy2'
_cell_volume   533.32267966
_cell_formula_units_Z   2
loop_
 _symmetry_equiv_pos_site_id
 _symmetry_equiv_pos_as_xyz
  1  'x, y, z'
loop_
 _atom_site_type_symbol
 _atom_site_label
 _atom_site_symmetry_multiplicity
 _atom_site_fract_x
 _atom_site_fract_y
 _atom_site_fract_z
 _atom_site_occupancy
  Rb  Rb0  1  0.17230900  0.34461800  0.25000000  1
  Rb  Rb1  1  0.65538200  0.82769100  0.25000000  1
  Rb  Rb2  1  0.17230900  0.82769100  0.25000000  1
  Rb  Rb3  1  0.82769100  0.65538200  0.75000000  1
  Rb  Rb4  1  0.34461800  0.17230900  0.75000000  1
  Rb  Rb5  1  0.82769100  0.17230900  0.75000000  1
  Dy  Dy0  1  0.33333300  0.66666700  0.75000000  1
  Dy  Dy1  1  0.66666700  0.33333300  0.25000000  1
loop_
_geom_bond_atom_site_label_1
_geom_bond_atom_site_label_2
_geom_bond_distance
_geom_bond_site_symmetry_2
Rb0 Rb2 4.387069 1_555
Rb0 Rb1 4.387069 1_555
Rb0 Rb4 4.613517 1_555
Rb0 Rb4 4.613517 1_554
Rb0 Rb5 4.613517 1_454
Rb0 Rb5 4.613517 1_455
Rb0 Rb2 4.694517 1_545
Rb0 Rb1 4.694517 1_445
Rb1 Rb2 4.387069 1_555
Rb1 Rb3 4.613517 1_555
Rb1 Rb3 4.613517 1_554
Rb1 Rb5 4.613517 1_564
Rb1 Rb5 4.613517 1_565
Rb1 Rb2 4.694517 1_655
Rb2 Rb4 4.613517 1_565
Rb2 Rb4 4.613517 1_564
Rb2 Rb3 4.613517 1_454
Rb2 Rb3 4.613517 1_455
Rb3 Rb5 4.387069 1_555
Rb3 Rb4 4.387069 1_555
Rb3 Rb5 4.694517 1_565
Rb3 Rb4 4.694517 1_665
Rb4 Rb5 4.387069 1_555
Rb4 Rb5 4.694517 1_455
Dy0 Rb2 4.511519 1_556
Dy0 Rb2 4.511519 1_555
Dy0 Rb0 4.511523 1_555
Dy0 Rb1 4.511523 1_555
Dy0 Rb0 4.511523 1_556
Dy0 Rb1 4.511523 1_556
Dy0 Rb3 4.541656 1_455
Dy0 Rb4 4.541656 1_565
Dy0 Rb5 4.541660 1_455
Dy0 Rb5 4.541660 1_565
Dy0 Rb4 4.541665 1_555
Dy0 Rb3 4.541665 1_555
Dy1 Rb5 4.511519 1_555
Dy1 Rb5 4.511519 1_554
Dy1 Rb3 4.511523 1_554
Dy1 Rb4 4.511523 1_554
Dy1 Rb4 4.511523 1_555
Dy1 Rb3 4.511523 1_555
Dy1 Rb0 4.541656 1_655
Dy1 Rb1 4.541656 1_545
Dy1 Rb2 4.541660 1_655
Dy1 Rb2 4.541660 1_545
Dy1 Rb1 4.541665 1_555
Dy1 Rb0 4.541665 1_555
