# generated using pymatgen
data_LiAlSiO4
_symmetry_space_group_name_H-M   'P 1'
_cell_length_a   10.59727667
_cell_length_b   10.59727667
_cell_length_c   11.38671500
_cell_angle_alpha   90.00000000
_cell_angle_beta   90.00000000
_cell_angle_gamma   120.00000418
_symmetry_Int_Tables_number   1
_chemical_formula_structural   LiAlSiO4
_chemical_formula_sum   'Li12 Al12 Si12 O48'
_cell_volume   1107.43338033
_cell_formula_units_Z   12
loop_
 _symmetry_equiv_pos_site_id
 _symmetry_equiv_pos_as_xyz
  1  'x, y, z'
loop_
 _atom_site_type_symbol
 _atom_site_label
 _atom_site_symmetry_multiplicity
 _atom_site_fract_x
 _atom_site_fract_y
 _atom_site_fract_z
 _atom_site_occupancy
  Li  Li0  1  0.00000000  0.50000000  0.33884900  1
  Li  Li1  1  0.50000000  0.50000000  0.00551600  1
  Li  Li2  1  0.50000000  0.00000000  0.67218300  1
  Li  Li3  1  0.00000000  0.50000000  0.99448400  1
  Li  Li4  1  0.50000000  0.50000000  0.66115100  1
  Li  Li5  1  0.50000000  0.00000000  0.32781700  1
  Li  Li6  1  0.00000000  0.50000000  0.66666700  1
  Li  Li7  1  0.50000000  0.50000000  0.33333300  1
  Li  Li8  1  0.50000000  0.00000000  0.00000000  1
  Li  Li9  1  0.00000000  0.00000000  0.16666700  1
  Li  Li10  1  0.00000000  0.00000000  0.83333300  1
  Li  Li11  1  0.00000000  0.00000000  0.50000000  1
  Al  Al0  1  0.25086300  0.00000000  0.50000000  1
  Al  Al1  1  0.25086300  0.25086300  0.83333300  1
  Al  Al2  1  0.00000000  0.74913700  0.16666700  1
  Al  Al3  1  0.00000000  0.25086300  0.16666700  1
  Al  Al4  1  0.74913700  0.74913700  0.83333300  1
  Al  Al5  1  0.74873200  0.49746400  0.50000000  1
  Al  Al6  1  0.25126800  0.50253600  0.50000000  1
  Al  Al7  1  0.74873200  0.25126800  0.83333300  1
  Al  Al8  1  0.50253600  0.25126800  0.16666700  1
  Al  Al9  1  0.49746400  0.74873200  0.16666700  1
  Al  Al10  1  0.25126800  0.74873200  0.83333300  1
  Al  Al11  1  0.74913700  0.00000000  0.50000000  1
  Si  Si0  1  0.75182500  0.50365000  0.00000000  1
  Si  Si1  1  0.50365000  0.75182500  0.66666700  1
  Si  Si2  1  0.49635000  0.24817500  0.66666700  1
  Si  Si3  1  0.75182500  0.24817500  0.33333300  1
  Si  Si4  1  0.24817500  0.49635000  0.00000000  1
  Si  Si5  1  0.75244100  0.00000000  0.00000000  1
  Si  Si6  1  0.75244100  0.75244100  0.33333300  1
  Si  Si7  1  0.00000000  0.24755900  0.66666700  1
  Si  Si8  1  0.00000000  0.75244100  0.66666700  1
  Si  Si9  1  0.24755900  0.24755900  0.33333300  1
  Si  Si10  1  0.24755900  0.00000000  0.00000000  1
  Si  Si11  1  0.24817500  0.75182500  0.33333300  1
  O  O0  1  0.30274700  0.90343000  0.40627900  1
  O  O1  1  0.39931700  0.09657000  0.59372100  1
  O  O2  1  0.69725300  0.60068300  0.92705500  1
  O  O3  1  0.30274700  0.39931700  0.92705500  1
  O  O4  1  0.60068300  0.90343000  0.59372100  1
  O  O5  1  0.39931700  0.30274700  0.73961200  1
  O  O6  1  0.90343000  0.60068300  0.07294500  1
  O  O7  1  0.90343000  0.30274700  0.26038800  1
  O  O8  1  0.69725300  0.09657000  0.40627900  1
  O  O9  1  0.09657000  0.69725300  0.26038800  1
  O  O10  1  0.60068300  0.69725300  0.73961200  1
  O  O11  1  0.09657000  0.39931700  0.07294500  1
  O  O12  1  0.60046500  0.70646200  0.26278700  1
  O  O13  1  0.89400300  0.60046500  0.59612000  1
  O  O14  1  0.70646200  0.10599700  0.92945300  1
  O  O15  1  0.29353800  0.89400300  0.92945300  1
  O  O16  1  0.10599700  0.39953500  0.59612000  1
  O  O17  1  0.89400300  0.29353800  0.73721300  1
  O  O18  1  0.39953500  0.10599700  0.07054700  1
  O  O19  1  0.39953500  0.29353800  0.26278700  1
  O  O20  1  0.70646200  0.60046500  0.40388000  1
  O  O21  1  0.29353800  0.39953500  0.40388000  1
  O  O22  1  0.10599700  0.70646200  0.73721300  1
  O  O23  1  0.60046500  0.89400300  0.07054700  1
  O  O24  1  0.60857600  0.20026000  0.25076600  1
  O  O25  1  0.40831600  0.60857600  0.58410000  1
  O  O26  1  0.20026000  0.59168400  0.91743300  1
  O  O27  1  0.79974000  0.40831600  0.91743300  1
  O  O28  1  0.59168400  0.39142400  0.58410000  1
  O  O29  1  0.40831600  0.79974000  0.74923400  1
  O  O30  1  0.39142400  0.59168400  0.08256700  1
  O  O31  1  0.39142400  0.79974000  0.25076600  1
  O  O32  1  0.20026000  0.60857600  0.41590000  1
  O  O33  1  0.79974000  0.39142400  0.41590000  1
  O  O34  1  0.59168400  0.20026000  0.74923400  1
  O  O35  1  0.60857600  0.40831600  0.08256700  1
  O  O36  1  0.91303300  0.11111600  0.57583600  1
  O  O37  1  0.19808300  0.08696700  0.90917000  1
  O  O38  1  0.80191700  0.91303300  0.90917000  1
  O  O39  1  0.08696700  0.88888400  0.57583600  1
  O  O40  1  0.91303300  0.80191700  0.75749700  1
  O  O41  1  0.88888400  0.08696700  0.09083000  1
  O  O42  1  0.88888400  0.80191700  0.24250300  1
  O  O43  1  0.19808300  0.11111600  0.42416400  1
  O  O44  1  0.80191700  0.88888400  0.42416400  1
  O  O45  1  0.08696700  0.19808300  0.75749700  1
  O  O46  1  0.11111600  0.91303300  0.09083000  1
  O  O47  1  0.11111600  0.19808300  0.24250300  1
loop_
_geom_bond_atom_site_label_1
_geom_bond_atom_site_label_2
_geom_bond_distance
_geom_bond_site_symmetry_2
Li0 O7 2.018865 1_455
Li0 O9 2.018865 1_555
Li0 O33 2.038529 1_455
Li0 O32 2.038529 1_555
Li1 O3 2.018865 1_554
Li1 O2 2.018865 1_554
Li1 O35 2.038529 1_555
Li1 O30 2.038529 1_555
Li2 O4 2.018870 1_545
Li2 O1 2.018870 1_555
Li2 O34 2.038529 1_555
Li2 O29 2.038529 1_545
Li3 O6 2.018865 1_456
Li3 O11 2.018865 1_556
Li3 O26 2.038529 1_555
Li3 O27 2.038529 1_455
Li4 O10 2.018865 1_555
Li4 O5 2.018865 1_555
Li4 O25 2.038529 1_555
Li4 O28 2.038529 1_555
Li5 O0 2.018870 1_545
Li5 O8 2.018870 1_555
Li5 O24 2.038529 1_555
Li5 O31 2.038529 1_545
Li6 O17 2.058257 1_455
Li6 O22 2.058257 1_555
Li6 O13 2.058262 1_455
Li6 O16 2.058262 1_555
Li7 O19 2.058257 1_555
Li7 O12 2.058257 1_555
Li7 O21 2.058262 1_555
Li7 O20 2.058262 1_555
Li8 O15 2.058262 1_544
Li8 O14 2.058262 1_554
Li8 O23 2.058262 1_545
Li8 O18 2.058262 1_555
Li9 O47 2.016640 1_555
Li9 O42 2.016640 1_445
Li9 O41 2.016645 1_455
Li9 O46 2.016645 1_545
Li10 O45 2.016640 1_555
Li10 O40 2.016640 1_445
Li10 O37 2.016645 1_555
Li10 O38 2.016645 1_445
Li11 O43 2.016640 1_555
Li11 O44 2.016640 1_445
Li11 O39 2.016640 1_545
Li11 O36 2.016640 1_455
Al0 O1 1.746757 1_555
Al0 O0 1.746757 1_545
Al0 O39 1.761733 1_545
Al0 O43 1.761733 1_555
Al1 O5 1.746757 1_555
Al1 O3 1.746764 1_555
Al1 O45 1.761733 1_555
Al1 O37 1.761739 1_555
Al2 O9 1.746757 1_555
Al2 O6 1.746764 1_455
Al2 O42 1.761733 1_455
Al2 O46 1.761739 1_555
Al3 O7 1.746757 1_455
Al3 O11 1.746764 1_555
Al3 O47 1.761733 1_555
Al3 O41 1.761739 1_455
Al4 O10 1.746757 1_555
Al4 O2 1.746764 1_555
Al4 O40 1.761733 1_555
Al4 O38 1.761739 1_555
Al5 O13 1.754694 1_555
Al5 O20 1.754694 1_555
Al5 O28 1.754834 1_555
Al5 O33 1.754834 1_555
Al6 O16 1.754694 1_555
Al6 O21 1.754694 1_555
Al6 O25 1.754834 1_555
Al6 O32 1.754834 1_555
Al7 O14 1.754694 1_555
Al7 O17 1.754694 1_555
Al7 O34 1.754828 1_555
Al7 O27 1.754834 1_555
Al8 O18 1.754694 1_555
Al8 O19 1.754694 1_555
Al8 O24 1.754828 1_555
Al8 O35 1.754834 1_555
Al9 O23 1.754694 1_555
Al9 O12 1.754694 1_555
Al9 O31 1.754828 1_555
Al9 O30 1.754834 1_555
Al10 O15 1.754694 1_555
Al10 O22 1.754694 1_555
Al10 O29 1.754828 1_555
Al10 O26 1.754834 1_555
Al11 O4 1.746757 1_545
Al11 O8 1.746757 1_555
Al11 O36 1.761733 1_555
Al11 O44 1.761733 1_545
O0 Si11 1.635975 1_555
O1 Si2 1.635975 1_555
O2 Si0 1.635969 1_556
O3 Si4 1.635969 1_556
O4 Si1 1.635975 1_555
O5 Si2 1.635969 1_555
O6 Si0 1.635969 1_555
O7 Si3 1.635969 1_555
O8 Si3 1.635975 1_555
O9 Si11 1.635969 1_555
O10 Si1 1.635969 1_555
O11 Si4 1.635969 1_555
O12 Si6 1.640659 1_555
O13 Si8 1.640665 1_655
O14 Si5 1.640665 1_556
O15 Si10 1.640665 1_566
O16 Si7 1.640665 1_555
O17 Si7 1.640659 1_655
O18 Si10 1.640665 1_555
O19 Si9 1.640659 1_555
O20 Si6 1.640665 1_555
O21 Si9 1.640665 1_555
O22 Si8 1.640659 1_555
O23 Si5 1.640665 1_565
O24 Si3 1.635665 1_555
O25 Si1 1.635665 1_555
O26 Si4 1.635665 1_556
O27 Si0 1.635665 1_556
O28 Si2 1.635665 1_555
O29 Si1 1.635665 1_555
O30 Si4 1.635665 1_555
O31 Si11 1.635665 1_555
O32 Si11 1.635665 1_555
O33 Si3 1.635665 1_555
O34 Si2 1.635665 1_555
O35 Si0 1.635665 1_555
O36 Si7 1.636213 1_655
O37 Si10 1.636206 1_556
O38 Si5 1.636206 1_566
O39 Si8 1.636213 1_555
O40 Si8 1.636206 1_655
O41 Si5 1.636206 1_555
O42 Si6 1.636206 1_555
O43 Si9 1.636213 1_555
O44 Si6 1.636213 1_555
O45 Si7 1.636206 1_555
O46 Si10 1.636206 1_565
O47 Si9 1.636206 1_555
