# generated using pymatgen
data_Sr5FeN4
_symmetry_space_group_name_H-M   'P 1'
_cell_length_a   10.12069611
_cell_length_b   15.46539497
_cell_length_c   12.99040302
_cell_angle_alpha   90.00000000
_cell_angle_beta   113.11027881
_cell_angle_gamma   90.00000000
_symmetry_Int_Tables_number   1
_chemical_formula_structural   Sr5FeN4
_chemical_formula_sum   'Sr40 Fe8 N32'
_cell_volume   1870.09789013
_cell_formula_units_Z   8
loop_
 _symmetry_equiv_pos_site_id
 _symmetry_equiv_pos_as_xyz
  1  'x, y, z'
loop_
 _atom_site_type_symbol
 _atom_site_label
 _atom_site_symmetry_multiplicity
 _atom_site_fract_x
 _atom_site_fract_y
 _atom_site_fract_z
 _atom_site_occupancy
  Sr  Sr0  1  0.42963762  0.75000000  0.71396603  1
  Sr  Sr1  1  0.57036238  0.25000000  0.28603397  1
  Sr  Sr2  1  0.56299731  0.75000000  0.30291340  1
  Sr  Sr3  1  0.43700269  0.25000000  0.69708660  1
  Sr  Sr4  1  0.12988187  0.61560166  0.79553356  1
  Sr  Sr5  1  0.87011813  0.11560166  0.20446644  1
  Sr  Sr6  1  0.87011813  0.38439834  0.20446644  1
  Sr  Sr7  1  0.12988187  0.88439834  0.79553356  1
  Sr  Sr8  1  0.78630484  0.36265523  0.57493910  1
  Sr  Sr9  1  0.21369516  0.86265523  0.42506090  1
  Sr  Sr10  1  0.21369516  0.63734477  0.42506090  1
  Sr  Sr11  1  0.78630484  0.13734477  0.57493910  1
  Sr  Sr12  1  0.85794725  0.25000000  0.86253424  1
  Sr  Sr13  1  0.14205275  0.75000000  0.13746576  1
  Sr  Sr14  1  0.21123381  0.49788106  0.04636271  1
  Sr  Sr15  1  0.78876619  0.99788106  0.95363729  1
  Sr  Sr16  1  0.78876619  0.50211894  0.95363729  1
  Sr  Sr17  1  0.21123381  0.00211894  0.04636271  1
  Sr  Sr18  1  -0.00000000  0.50000000  0.50000000  1
  Sr  Sr19  1  -0.00000000  -0.00000000  0.50000000  1
  Sr  Sr20  1  0.48619967  0.39130183  0.01769037  1
  Sr  Sr21  1  0.51380033  0.89130183  0.98230963  1
  Sr  Sr22  1  0.51380033  0.60869817  0.98230963  1
  Sr  Sr23  1  0.48619967  0.10869817  0.01769037  1
  Sr  Sr24  1  0.16867422  0.36247407  0.78686800  1
  Sr  Sr25  1  0.83132578  0.86247407  0.21313200  1
  Sr  Sr26  1  0.83132578  0.63752593  0.21313200  1
  Sr  Sr27  1  0.16867422  0.13752593  0.78686800  1
  Sr  Sr28  1  0.74502221  0.62764769  0.67397895  1
  Sr  Sr29  1  0.25497779  0.12764769  0.32602105  1
  Sr  Sr30  1  0.25497779  0.37235231  0.32602105  1
  Sr  Sr31  1  0.74502221  0.87235231  0.67397895  1
  Sr  Sr32  1  0.80726033  0.75000000  0.90590635  1
  Sr  Sr33  1  0.19273967  0.25000000  0.09409365  1
  Sr  Sr34  1  0.59313485  0.47582105  0.28254104  1
  Sr  Sr35  1  0.40686515  0.97582105  0.71745896  1
  Sr  Sr36  1  0.40686515  0.52417895  0.71745896  1
  Sr  Sr37  1  0.59313485  0.02417895  0.28254104  1
  Sr  Sr38  1  0.99552035  0.25000000  0.45205270  1
  Sr  Sr39  1  0.00447965  0.75000000  0.54794730  1
  Fe  Fe0  1  0.93744110  0.45318258  0.80488942  1
  Fe  Fe1  1  0.06255890  0.95318258  0.19511058  1
  Fe  Fe2  1  0.06255890  0.54681742  0.19511058  1
  Fe  Fe3  1  0.93744110  0.04681742  0.80488942  1
  Fe  Fe4  1  0.50974925  0.75000000  0.49313047  1
  Fe  Fe5  1  0.49025075  0.25000000  0.50686953  1
  Fe  Fe6  1  0.61338454  0.25000000  0.93853206  1
  Fe  Fe7  1  0.38661546  0.75000000  0.06146794  1
  N  N0  1  0.98552244  0.25000000  0.64850267  1
  N  N1  1  0.01447756  0.75000000  0.35149733  1
  N  N2  1  0.92784083  0.75000000  0.75883195  1
  N  N3  1  0.07215917  0.25000000  0.24116805  1
  N  N4  1  0.38374964  0.37353718  0.18166425  1
  N  N5  1  0.61625036  0.87353718  0.81833575  1
  N  N6  1  0.61625036  0.62646282  0.81833575  1
  N  N7  1  0.38374964  0.12646282  0.18166425  1
  N  N8  1  0.32548965  0.49375425  0.87125138  1
  N  N9  1  0.67451035  0.99375425  0.12874862  1
  N  N10  1  0.67451035  0.50624575  0.12874862  1
  N  N11  1  0.32548965  0.00624575  0.87125138  1
  N  N12  1  0.92567490  0.49497528  0.68186019  1
  N  N13  1  0.07432510  0.99497528  0.31813981  1
  N  N14  1  0.07432510  0.50502472  0.31813981  1
  N  N15  1  0.92567490  0.00502472  0.68186019  1
  N  N16  1  0.70358117  0.34311706  0.96124612  1
  N  N17  1  0.29641883  0.84311706  0.03875388  1
  N  N18  1  0.29641883  0.65688294  0.03875388  1
  N  N19  1  0.70358117  0.15688294  0.96124612  1
  N  N20  1  0.98067895  0.61535244  0.08957016  1
  N  N21  1  0.01932105  0.11535244  0.91042984  1
  N  N22  1  0.01932105  0.38464756  0.91042984  1
  N  N23  1  0.98067895  0.88464756  0.08957016  1
  N  N24  1  0.57902289  0.75000000  0.11559555  1
  N  N25  1  0.42097711  0.25000000  0.88440445  1
  N  N26  1  0.80914498  0.37983239  0.38867126  1
  N  N27  1  0.19085502  0.87983239  0.61132874  1
  N  N28  1  0.19085502  0.62016761  0.61132874  1
  N  N29  1  0.80914498  0.12016761  0.38867126  1
  N  N30  1  0.68631498  0.75000000  0.51821402  1
  N  N31  1  0.31368502  0.25000000  0.48178598  1
loop_
_geom_bond_atom_site_label_1
_geom_bond_atom_site_label_2
_geom_bond_distance
_geom_bond_site_symmetry_2
Fe0 N22 1.672708 1_655
Fe0 N12 1.684274 1_555
Fe0 Sr24 2.815950 1_655
Fe0 Sr16 2.975408 1_555
Fe1 N23 1.672708 1_455
Fe1 N13 1.684274 1_555
Fe1 Sr25 2.815950 1_455
Fe1 Sr17 2.975408 1_565
Fe2 N20 1.672708 1_455
Fe2 N14 1.684274 1_555
Fe2 Sr26 2.815950 1_455
Fe2 Sr14 2.975408 1_555
Fe3 N21 1.672708 1_655
Fe3 N15 1.684274 1_555
Fe3 Sr27 2.815950 1_655
Fe3 Sr15 2.975408 1_545
Fe4 N30 1.685925 1_555
Fe4 Sr2 2.727927 1_555
Fe4 Sr0 3.273061 1_555
Fe5 N31 1.685925 1_555
Fe5 Sr3 2.727927 1_555
Fe5 Sr1 3.273061 1_555
Fe6 N19 1.668169 1_555
Fe6 N16 1.668169 1_555
Fe6 N25 1.792073 1_555
Fe6 Sr3 2.937496 1_555
Fe7 N17 1.668169 1_555
Fe7 N18 1.668169 1_555
Fe7 N24 1.792073 1_555
Fe7 Sr2 2.937496 1_555
N0 Sr11 2.549768 1_555
N0 Sr8 2.549768 1_555
N0 Sr38 2.593350 1_555
N0 Sr24 2.660248 1_655
N0 Sr27 2.660248 1_655
N1 Sr9 2.549768 1_555
N1 Sr10 2.549768 1_555
N1 Sr39 2.593350 1_555
N1 Sr26 2.660248 1_455
N1 Sr25 2.660248 1_455
N2 Sr31 2.572539 1_555
N2 Sr28 2.572539 1_555
N2 Sr32 2.640035 1_555
N2 Sr4 2.821961 1_655
N2 Sr7 2.821961 1_655
N2 Sr39 3.126397 1_655
N3 Sr29 2.572539 1_555
N3 Sr30 2.572539 1_555
N3 Sr33 2.640035 1_555
N3 Sr5 2.821961 1_455
N3 Sr6 2.821961 1_455
N3 Sr38 3.126397 1_455
N4 Sr34 2.555439 1_555
N4 Sr33 2.637245 1_555
N4 Sr1 2.654298 1_555
N4 Sr30 2.670937 1_555
N4 Sr20 2.724264 1_555
N4 Sr14 2.725200 1_555
N5 Sr35 2.555439 1_555
N5 Sr32 2.637245 1_555
N5 Sr0 2.654298 1_555
N5 Sr31 2.670937 1_555
N5 Sr21 2.724264 1_555
N5 Sr15 2.725200 1_555
N6 Sr36 2.555439 1_555
N6 Sr32 2.637245 1_555
N6 Sr0 2.654298 1_555
N6 Sr28 2.670937 1_555
N6 Sr22 2.724264 1_555
N6 Sr16 2.725200 1_555
N7 Sr37 2.555439 1_555
N7 Sr33 2.637245 1_555
N7 Sr1 2.654298 1_555
N7 Sr29 2.670937 1_555
N7 Sr23 2.724264 1_555
N7 Sr17 2.725200 1_555
N8 Sr36 2.486484 1_555
N8 Sr20 2.519109 1_556
N8 Sr24 2.544967 1_555
N8 Sr22 2.591375 1_555
N8 Sr4 2.628514 1_555
N8 Sr14 2.929279 1_556
N9 Sr37 2.486484 1_565
N9 Sr21 2.519109 1_554
N9 Sr25 2.544967 1_555
N9 Sr23 2.591375 1_565
N9 Sr5 2.628514 1_565
N9 Sr15 2.929279 1_554
N10 Sr34 2.486484 1_555
N10 Sr22 2.519109 1_554
N10 Sr26 2.544967 1_555
N10 Sr20 2.591375 1_555
N10 Sr6 2.628514 1_555
N10 Sr16 2.929279 1_554
N11 Sr35 2.486484 1_545
N11 Sr23 2.519109 1_556
N11 Sr27 2.544967 1_555
N11 Sr21 2.591375 1_545
N11 Sr7 2.628514 1_545
N11 Sr17 2.929279 1_556
N12 Sr8 2.562907 1_555
N12 Sr28 2.723297 1_555
N12 Sr4 2.745243 1_655
N12 Sr18 2.747362 1_655
N12 Sr24 3.078097 1_655
N13 Sr9 2.562907 1_555
N13 Sr29 2.723297 1_565
N13 Sr5 2.745243 1_465
N13 Sr19 2.747362 1_565
N13 Sr25 3.078097 1_455
N14 Sr10 2.562907 1_555
N14 Sr30 2.723297 1_555
N14 Sr6 2.745243 1_455
N14 Sr18 2.747362 1_555
N14 Sr26 3.078097 1_455
N15 Sr11 2.562907 1_555
N15 Sr31 2.723297 1_545
N15 Sr7 2.745243 1_645
N15 Sr19 2.747362 1_655
N15 Sr27 3.078097 1_655
N16 Sr16 2.620448 1_555
N16 Sr20 2.683190 1_556
N16 Sr12 2.780569 1_555
N16 Sr6 3.008431 1_556
N17 Sr17 2.620448 1_565
N17 Sr21 2.683190 1_554
N17 Sr13 2.780569 1_555
N17 Sr7 3.008431 1_554
N18 Sr14 2.620448 1_555
N18 Sr22 2.683190 1_554
N18 Sr13 2.780569 1_555
N18 Sr4 3.008431 1_554
N19 Sr15 2.620448 1_545
N19 Sr23 2.683190 1_556
N19 Sr12 2.780569 1_555
N19 Sr5 3.008431 1_556
N20 Sr13 2.567705 1_655
N20 Sr26 2.623625 1_555
N20 Sr16 2.695360 1_554
N20 Sr32 3.133992 1_554
N20 Sr14 3.176214 1_655
N21 Sr12 2.567705 1_455
N21 Sr27 2.623625 1_555
N21 Sr17 2.695360 1_556
N21 Sr33 3.133992 1_556
N21 Sr15 3.176214 1_445
N22 Sr12 2.567705 1_455
N22 Sr24 2.623625 1_555
N22 Sr14 2.695360 1_556
N22 Sr33 3.133992 1_556
N22 Sr16 3.176214 1_455
N23 Sr13 2.567705 1_655
N23 Sr25 2.623625 1_555
N23 Sr15 2.695360 1_554
N23 Sr32 3.133992 1_554
N23 Sr17 3.176214 1_665
N24 Sr2 2.501446 1_555
N24 Sr22 2.704052 1_554
N24 Sr21 2.704052 1_554
N24 Sr25 2.934551 1_555
N24 Sr26 2.934551 1_555
N25 Sr3 2.501446 1_555
N25 Sr23 2.704052 1_556
N25 Sr20 2.704052 1_556
N25 Sr24 2.934551 1_555
N25 Sr27 2.934551 1_555
N26 Sr8 2.533378 1_555
N26 Sr34 2.553003 1_555
N26 Sr38 2.654881 1_555
N26 Sr18 2.661474 1_655
N26 Sr6 2.696460 1_555
N26 Sr1 3.019966 1_555
N27 Sr9 2.533378 1_555
N27 Sr35 2.553003 1_555
N27 Sr39 2.654881 1_555
N27 Sr19 2.661474 1_565
N27 Sr7 2.696460 1_555
N27 Sr0 3.019966 1_555
N28 Sr10 2.533378 1_555
N28 Sr36 2.553003 1_555
N28 Sr39 2.654881 1_555
N28 Sr18 2.661474 1_555
N28 Sr4 2.696460 1_555
N28 Sr0 3.019966 1_555
N29 Sr11 2.533378 1_555
N29 Sr37 2.553003 1_555
N29 Sr38 2.654881 1_555
N29 Sr19 2.661474 1_655
N29 Sr5 2.696460 1_555
N29 Sr1 3.019966 1_555
N30 Sr2 2.576785 1_555
N30 Sr28 2.661601 1_555
N30 Sr31 2.661601 1_555
N30 Sr39 3.088941 1_655
N31 Sr3 2.576785 1_555
N31 Sr29 2.661601 1_555
N31 Sr30 2.661601 1_555
N31 Sr38 3.088941 1_455
