# generated using pymatgen
data_KTi2(PO4)3
_symmetry_space_group_name_H-M   'P 1'
_cell_length_a   9.92241800
_cell_length_b   9.92241800
_cell_length_c   9.92241800
_cell_angle_alpha   90.00000000
_cell_angle_beta   90.00000000
_cell_angle_gamma   90.00000000
_symmetry_Int_Tables_number   1
_chemical_formula_structural   KTi2(PO4)3
_chemical_formula_sum   'K4 Ti8 P12 O48'
_cell_volume   976.90550204
_cell_formula_units_Z   4
loop_
 _symmetry_equiv_pos_site_id
 _symmetry_equiv_pos_as_xyz
  1  'x, y, z'
loop_
 _atom_site_type_symbol
 _atom_site_label
 _atom_site_symmetry_multiplicity
 _atom_site_fract_x
 _atom_site_fract_y
 _atom_site_fract_z
 _atom_site_occupancy
  K  K0  1  0.42607300  0.92607300  0.57392700  1
  K  K1  1  0.92607300  0.57392700  0.42607300  1
  K  K2  1  0.57392700  0.42607300  0.92607300  1
  K  K3  1  0.07392700  0.07392700  0.07392700  1
  Ti  Ti0  1  0.91354100  0.41354100  0.08645900  1
  Ti  Ti1  1  0.41354100  0.08645900  0.91354100  1
  Ti  Ti2  1  0.08645900  0.91354100  0.41354100  1
  Ti  Ti3  1  0.58645900  0.58645900  0.58645900  1
  Ti  Ti4  1  0.63993000  0.13993000  0.36007000  1
  Ti  Ti5  1  0.13993000  0.36007000  0.63993000  1
  Ti  Ti6  1  0.36007000  0.63993000  0.13993000  1
  Ti  Ti7  1  0.86007000  0.86007000  0.86007000  1
  P  P0  1  0.22729300  0.37444800  0.95449600  1
  P  P1  1  0.04550400  0.72729300  0.12555200  1
  P  P2  1  0.87444800  0.54550400  0.77270700  1
  P  P3  1  0.72729300  0.12555200  0.04550400  1
  P  P4  1  0.54550400  0.77270700  0.87444800  1
  P  P5  1  0.37444800  0.95449600  0.22729300  1
  P  P6  1  0.77270700  0.87444800  0.54550400  1
  P  P7  1  0.95449600  0.22729300  0.37444800  1
  P  P8  1  0.12555200  0.04550400  0.72729300  1
  P  P9  1  0.27270700  0.62555200  0.45449600  1
  P  P10  1  0.45449600  0.27270700  0.62555200  1
  P  P11  1  0.62555200  0.45449600  0.27270700  1
  O  O0  1  0.30389900  0.23976600  0.97607800  1
  O  O1  1  0.02392200  0.80389900  0.26023400  1
  O  O2  1  0.73976600  0.52392200  0.69610100  1
  O  O3  1  0.80389900  0.26023400  0.02392200  1
  O  O4  1  0.52392200  0.69610100  0.73976600  1
  O  O5  1  0.23976600  0.97607800  0.30389900  1
  O  O6  1  0.69610100  0.73976600  0.52392200  1
  O  O7  1  0.97607800  0.30389900  0.23976600  1
  O  O8  1  0.26023400  0.02392200  0.80389900  1
  O  O9  1  0.19610100  0.76023400  0.47607800  1
  O  O10  1  0.47607800  0.19610100  0.76023400  1
  O  O11  1  0.76023400  0.47607800  0.19610100  1
  O  O12  1  0.07912000  0.35375400  0.99846200  1
  O  O13  1  0.00153800  0.57912000  0.14624600  1
  O  O14  1  0.85375400  0.50153800  0.92088000  1
  O  O15  1  0.57912000  0.14624600  0.00153800  1
  O  O16  1  0.50153800  0.92088000  0.85375400  1
  O  O17  1  0.35375400  0.99846200  0.07912000  1
  O  O18  1  0.92088000  0.85375400  0.50153800  1
  O  O19  1  0.99846200  0.07912000  0.35375400  1
  O  O20  1  0.14624600  0.00153800  0.57912000  1
  O  O21  1  0.42088000  0.64624600  0.49846200  1
  O  O22  1  0.49846200  0.42088000  0.64624600  1
  O  O23  1  0.64624600  0.49846200  0.42088000  1
  O  O24  1  0.29841000  0.48181600  0.04058400  1
  O  O25  1  0.95941600  0.79841000  0.01818400  1
  O  O26  1  0.98181600  0.45941600  0.70159000  1
  O  O27  1  0.79841000  0.01818400  0.95941600  1
  O  O28  1  0.45941600  0.70159000  0.98181600  1
  O  O29  1  0.48181600  0.04058400  0.29841000  1
  O  O30  1  0.70159000  0.98181600  0.45941600  1
  O  O31  1  0.04058400  0.29841000  0.48181600  1
  O  O32  1  0.01818400  0.95941600  0.79841000  1
  O  O33  1  0.20159000  0.51818400  0.54058400  1
  O  O34  1  0.54058400  0.20159000  0.51818400  1
  O  O35  1  0.51818400  0.54058400  0.20159000  1
  O  O36  1  0.23419000  0.41624200  0.80503100  1
  O  O37  1  0.19496900  0.73419000  0.08375800  1
  O  O38  1  0.91624200  0.69496900  0.76581000  1
  O  O39  1  0.73419000  0.08375800  0.19496900  1
  O  O40  1  0.69496900  0.76581000  0.91624200  1
  O  O41  1  0.41624200  0.80503100  0.23419000  1
  O  O42  1  0.76581000  0.91624200  0.69496900  1
  O  O43  1  0.80503100  0.23419000  0.41624200  1
  O  O44  1  0.08375800  0.19496900  0.73419000  1
  O  O45  1  0.26581000  0.58375800  0.30503100  1
  O  O46  1  0.30503100  0.26581000  0.58375800  1
  O  O47  1  0.58375800  0.30503100  0.26581000  1
loop_
_geom_bond_atom_site_label_1
_geom_bond_atom_site_label_2
_geom_bond_distance
_geom_bond_site_symmetry_2
K0 O20 2.876219 1_565
K0 O21 2.876219 1_555
K0 O16 2.876219 1_555
K0 O9 2.976132 1_555
K0 O8 2.976132 1_565
K0 O4 2.976132 1_555
K0 O34 3.011739 1_565
K0 O29 3.011739 1_565
K0 O30 3.011739 1_555
K0 O5 3.292777 1_555
K0 O6 3.292777 1_555
K0 O10 3.292777 1_565
K1 O13 2.876219 1_655
K1 O23 2.876219 1_555
K1 O18 2.876219 1_555
K1 O11 2.976132 1_555
K1 O1 2.976132 1_655
K1 O6 2.976132 1_555
K1 O33 3.011739 1_655
K1 O31 3.011739 1_655
K1 O26 3.011739 1_555
K1 O7 3.292777 1_555
K1 O9 3.292777 1_655
K1 O2 3.292777 1_555
K2 O15 2.876219 1_556
K2 O22 2.876219 1_555
K2 O14 2.876219 1_555
K2 O3 2.976132 1_556
K2 O10 2.976132 1_555
K2 O2 2.976132 1_555
K2 O35 3.011739 1_556
K2 O24 3.011739 1_556
K2 O28 3.011739 1_555
K2 O0 3.292777 1_555
K2 O11 3.292777 1_556
K2 O4 3.292777 1_555
K3 O19 2.876219 1_455
K3 O17 2.876219 1_545
K3 O12 2.876219 1_554
K3 O0 2.976132 1_554
K3 O7 2.976132 1_455
K3 O5 2.976132 1_545
K3 O27 3.011739 1_454
K3 O25 3.011739 1_445
K3 O32 3.011739 1_544
K3 O8 3.292777 1_554
K3 O1 3.292777 1_545
K3 O3 3.292777 1_455
O0 P0 1.552264 1_555
O0 Ti1 1.970425 1_555
O1 P1 1.552264 1_555
O1 Ti2 1.970425 1_555
O2 P2 1.552264 1_555
O2 Ti3 1.970425 1_555
O3 P3 1.552264 1_555
O3 Ti0 1.970425 1_555
O4 P4 1.552264 1_555
O4 Ti3 1.970425 1_555
O5 P5 1.552264 1_555
O5 Ti2 1.970425 1_555
O6 P6 1.552264 1_555
O6 Ti3 1.970425 1_555
O7 P7 1.552264 1_555
O7 Ti0 1.970425 1_555
O8 P8 1.552264 1_555
O8 Ti1 1.970425 1_555
O9 P9 1.552264 1_555
O9 Ti2 1.970425 1_555
O10 P10 1.552264 1_555
O10 Ti1 1.970425 1_555
O11 P11 1.552264 1_555
O11 Ti0 1.970425 1_555
O12 P0 1.547277 1_555
O12 Ti0 1.952836 1_456
O13 P1 1.547277 1_555
O13 Ti0 1.952836 1_455
O14 P2 1.547277 1_555
O14 Ti0 1.952836 1_556
O15 P3 1.547277 1_555
O15 Ti1 1.952836 1_554
O16 P4 1.547277 1_555
O16 Ti1 1.952836 1_565
O17 P5 1.547277 1_555
O17 Ti1 1.952836 1_564
O18 P6 1.547277 1_555
O18 Ti2 1.952836 1_655
O19 P7 1.547277 1_555
O19 Ti2 1.952836 1_645
O20 P8 1.547277 1_555
O20 Ti2 1.952836 1_545
O21 P9 1.547277 1_555
O21 Ti3 1.952836 1_555
O22 P10 1.547277 1_555
O22 Ti3 1.952836 1_555
O23 P11 1.547277 1_555
O23 Ti3 1.952836 1_555
O24 P0 1.537067 1_554
O24 Ti6 1.951254 1_555
O25 P1 1.537067 1_655
O25 Ti7 1.951254 1_554
O26 P2 1.537067 1_555
O26 Ti5 1.951254 1_655
O27 P3 1.537067 1_556
O27 Ti7 1.951254 1_545
O28 P4 1.537067 1_555
O28 Ti6 1.951254 1_556
O29 P5 1.537067 1_545
O29 Ti4 1.951254 1_555
O30 P6 1.537067 1_555
O30 Ti4 1.951254 1_565
O31 P7 1.537067 1_455
O31 Ti5 1.951254 1_555
O32 P8 1.537067 1_565
O32 Ti7 1.951254 1_455
O33 P9 1.537067 1_555
O33 Ti5 1.951254 1_555
O34 P10 1.537067 1_555
O34 Ti4 1.951254 1_555
O35 P11 1.537067 1_555
O35 Ti6 1.951254 1_555
O36 P0 1.541463 1_555
O36 Ti5 1.967007 1_555
O37 P1 1.541463 1_555
O37 Ti6 1.967007 1_555
O38 P2 1.541463 1_555
O38 Ti7 1.967007 1_555
O39 P3 1.541463 1_555
O39 Ti4 1.967007 1_555
O40 P4 1.541463 1_555
O40 Ti7 1.967007 1_555
O41 P5 1.541463 1_555
O41 Ti6 1.967007 1_555
O42 P6 1.541463 1_555
O42 Ti7 1.967007 1_555
O43 P7 1.541463 1_555
O43 Ti4 1.967007 1_555
O44 P8 1.541463 1_555
O44 Ti5 1.967007 1_555
O45 P9 1.541463 1_555
O45 Ti6 1.967007 1_555
O46 P10 1.541463 1_555
O46 Ti5 1.967007 1_555
O47 P11 1.541463 1_555
O47 Ti4 1.967007 1_555
