# generated using pymatgen
data_B2Pb4O7
_symmetry_space_group_name_H-M   'P 1'
_cell_length_a   7.53949608
_cell_length_b   7.53949608
_cell_length_c   15.76275000
_cell_angle_alpha   90.00000000
_cell_angle_beta   90.00000000
_cell_angle_gamma   94.79173480
_symmetry_Int_Tables_number   1
_chemical_formula_structural   B2Pb4O7
_chemical_formula_sum   'B8 Pb16 O28'
_cell_volume   892.88612501
_cell_formula_units_Z   4
loop_
 _symmetry_equiv_pos_site_id
 _symmetry_equiv_pos_as_xyz
  1  'x, y, z'
loop_
 _atom_site_type_symbol
 _atom_site_label
 _atom_site_symmetry_multiplicity
 _atom_site_fract_x
 _atom_site_fract_y
 _atom_site_fract_z
 _atom_site_occupancy
  B  B0  1  0.60910800  0.36364200  0.75459600  1
  B  B1  1  0.36364200  0.60910800  0.24540400  1
  B  B2  1  0.10910800  0.86364200  0.74540400  1
  B  B3  1  0.86364200  0.10910800  0.25459600  1
  B  B4  1  0.59708800  0.37308800  0.00796000  1
  B  B5  1  0.37308800  0.59708800  0.99204000  1
  B  B6  1  0.09708800  0.87308800  0.49204000  1
  B  B7  1  0.87308800  0.09708800  0.50796000  1
  Pb  Pb0  1  0.77317700  0.68081200  0.88221700  1
  Pb  Pb1  1  0.68081200  0.77317700  0.11778300  1
  Pb  Pb2  1  0.27317700  0.18081200  0.61778300  1
  Pb  Pb3  1  0.18081200  0.27317700  0.38221700  1
  Pb  Pb4  1  0.42083500  0.02456000  0.87641200  1
  Pb  Pb5  1  0.02456000  0.42083500  0.12358800  1
  Pb  Pb6  1  0.92083500  0.52456000  0.62358800  1
  Pb  Pb7  1  0.52456000  0.92083500  0.37641200  1
  Pb  Pb8  1  0.76834200  0.01845000  0.69995900  1
  Pb  Pb9  1  0.01845000  0.76834200  0.30004100  1
  Pb  Pb10  1  0.26834200  0.51845000  0.80004100  1
  Pb  Pb11  1  0.51845000  0.26834200  0.19995900  1
  Pb  Pb12  1  0.90346000  0.15142600  0.91798700  1
  Pb  Pb13  1  0.15142600  0.90346000  0.08201300  1
  Pb  Pb14  1  0.40346000  0.65142600  0.58201300  1
  Pb  Pb15  1  0.65142600  0.40346000  0.41798700  1
  O  O0  1  0.46998700  0.23049800  0.75861400  1
  O  O1  1  0.23049800  0.46998700  0.24138600  1
  O  O2  1  0.96998700  0.73049800  0.74138600  1
  O  O3  1  0.73049800  0.96998700  0.25861400  1
  O  O4  1  0.70837000  0.96275000  0.84092300  1
  O  O5  1  0.96275000  0.70837000  0.15907700  1
  O  O6  1  0.20837000  0.46275000  0.65907700  1
  O  O7  1  0.46275000  0.20837000  0.34092300  1
  O  O8  1  0.48051400  0.71812500  0.94614000  1
  O  O9  1  0.71812500  0.48051400  0.05386000  1
  O  O10  1  0.98051400  0.21812500  0.55386000  1
  O  O11  1  0.21812500  0.98051400  0.44614000  1
  O  O12  1  0.78215600  0.32215300  0.73772300  1
  O  O13  1  0.32215300  0.78215600  0.26227700  1
  O  O14  1  0.28215600  0.82215300  0.76227700  1
  O  O15  1  0.82215300  0.28215600  0.23772300  1
  O  O16  1  0.07086300  0.04046300  0.73429400  1
  O  O17  1  0.04046300  0.07086300  0.26570600  1
  O  O18  1  0.57086300  0.54046300  0.76570600  1
  O  O19  1  0.54046300  0.57086300  0.23429400  1
  O  O20  1  0.91022800  0.91022800  0.00000000  1
  O  O21  1  0.41022800  0.41022800  0.50000000  1
  O  O22  1  0.63579400  0.21744700  0.97017500  1
  O  O23  1  0.21744700  0.63579400  0.02982500  1
  O  O24  1  0.13579400  0.71744700  0.52982500  1
  O  O25  1  0.71744700  0.13579400  0.47017500  1
  O  O26  1  0.41906200  0.41906200  0.00000000  1
  O  O27  1  0.91906200  0.91906200  0.50000000  1
loop_
_geom_bond_atom_site_label_1
_geom_bond_atom_site_label_2
_geom_bond_distance
_geom_bond_site_symmetry_2
B0 O0 1.391398 1_555
B0 O12 1.392479 1_555
B0 O18 1.398321 1_555
B1 O1 1.391398 1_555
B1 O13 1.392479 1_555
B1 O19 1.398321 1_555
B2 O2 1.391398 1_455
B2 O14 1.392479 1_555
B2 O16 1.398321 1_565
B3 O3 1.391398 1_545
B3 O15 1.392479 1_555
B3 O17 1.398321 1_655
B4 O22 1.368979 1_554
B4 O9 1.374317 1_555
B4 O26 1.419573 1_555
B5 O23 1.368979 1_556
B5 O8 1.374317 1_555
B5 O26 1.419573 1_556
B6 O24 1.368979 1_555
B6 O11 1.374317 1_555
B6 O27 1.419573 1_455
B7 O25 1.368979 1_555
B7 O10 1.374317 1_555
B7 O27 1.419573 1_545
O0 Pb4 2.428943 1_555
O0 Pb2 2.679021 1_555
O1 Pb5 2.428943 1_555
O1 Pb3 2.679021 1_555
O2 Pb6 2.428943 1_555
O2 Pb0 2.679021 1_555
O3 Pb7 2.428943 1_555
O3 Pb1 2.679021 1_555
O4 Pb8 2.299191 1_565
O4 Pb12 2.305013 1_565
O4 Pb0 2.313962 1_555
O4 Pb4 2.323476 1_565
O5 Pb9 2.299191 1_655
O5 Pb13 2.305013 1_655
O5 Pb1 2.313962 1_555
O5 Pb5 2.323476 1_655
O6 Pb10 2.299191 1_555
O6 Pb14 2.305013 1_555
O6 Pb2 2.313962 1_555
O6 Pb6 2.323476 1_455
O7 Pb11 2.299191 1_555
O7 Pb15 2.305013 1_555
O7 Pb3 2.313962 1_555
O7 Pb7 2.323476 1_545
O8 Pb0 2.463106 1_555
O8 Pb4 2.630960 1_565
O9 Pb1 2.463106 1_555
O9 Pb5 2.630960 1_655
O10 Pb2 2.463106 1_655
O10 Pb6 2.630960 1_555
O11 Pb3 2.463106 1_565
O11 Pb7 2.630960 1_555
O12 Pb8 2.359742 1_555
O12 Pb6 2.528272 1_555
O13 Pb9 2.359742 1_555
O13 Pb7 2.528272 1_555
O14 Pb10 2.359742 1_555
O14 Pb4 2.528272 1_565
O15 Pb11 2.359742 1_555
O15 Pb5 2.528272 1_655
O16 Pb8 2.336561 1_455
O16 Pb2 2.559215 1_555
O17 Pb9 2.336561 1_545
O17 Pb3 2.559215 1_555
O18 Pb10 2.336561 1_555
O18 Pb0 2.559215 1_555
O19 Pb11 2.336561 1_555
O19 Pb1 2.559215 1_555
O20 Pb13 2.235239 1_655
O20 Pb12 2.235239 1_564
O20 Pb1 2.684735 1_555
O20 Pb0 2.684735 1_554
O21 Pb14 2.235239 1_555
O21 Pb15 2.235239 1_555
O21 Pb2 2.684735 1_555
O21 Pb3 2.684735 1_555
O22 Pb12 2.272642 1_555
O22 Pb4 2.555802 1_555
O23 Pb13 2.272642 1_555
O23 Pb5 2.555802 1_555
O24 Pb14 2.272642 1_555
O24 Pb6 2.555802 1_455
O25 Pb15 2.272642 1_555
O25 Pb7 2.555802 1_545
