# generated using pymatgen
data_YMg14Sb
_symmetry_space_group_name_H-M   'P 1'
_cell_length_a   6.50210296
_cell_length_b   6.36672228
_cell_length_c   10.44820511
_cell_angle_alpha   90.00000000
_cell_angle_beta   90.00000000
_cell_angle_gamma   119.31360773
_symmetry_Int_Tables_number   1
_chemical_formula_structural   YMg14Sb
_chemical_formula_sum   'Y1 Mg14 Sb1'
_cell_volume   377.14167353
_cell_formula_units_Z   1
loop_
 _symmetry_equiv_pos_site_id
 _symmetry_equiv_pos_as_xyz
  1  'x, y, z'
loop_
 _atom_site_type_symbol
 _atom_site_label
 _atom_site_symmetry_multiplicity
 _atom_site_fract_x
 _atom_site_fract_y
 _atom_site_fract_z
 _atom_site_occupancy
  Y  Y0  1  0.16445313  0.33222607  0.12500000  1
  Mg  Mg0  1  0.16585056  0.33292478  0.62500000  1
  Mg  Mg1  1  0.16383981  0.83191941  0.62500000  1
  Mg  Mg2  1  0.66552032  0.32891803  0.12500000  1
  Mg  Mg3  1  0.66637261  0.33445249  0.62500000  1
  Mg  Mg4  1  0.66552032  0.83660129  0.12500000  1
  Mg  Mg5  1  0.66637261  0.83191911  0.62500000  1
  Mg  Mg6  1  0.33701640  0.16876652  0.38202540  1
  Mg  Mg7  1  0.33701640  0.16876652  0.86797460  1
  Mg  Mg8  1  0.33701640  0.66825088  0.38202540  1
  Mg  Mg9  1  0.33701640  0.66825088  0.86797460  1
  Mg  Mg10  1  0.83167668  0.16583884  0.38004027  1
  Mg  Mg11  1  0.83167668  0.16583884  0.86995973  1
  Mg  Mg12  1  0.83076258  0.66538179  0.37489714  1
  Mg  Mg13  1  0.83076258  0.66538179  0.87510286  1
  Sb  Sb0  1  0.16912651  0.83456275  0.12500000  1
loop_
_geom_bond_atom_site_label_1
_geom_bond_atom_site_label_2
_geom_bond_distance
_geom_bond_site_symmetry_2
Mg0 Mg7 3.148758 1_555
Mg0 Mg6 3.148758 1_555
Mg0 Mg9 3.148764 1_555
Mg0 Mg8 3.148764 1_555
Mg0 Mg1 3.183382 1_545
Mg0 Mg1 3.183382 1_555
Mg0 Mg10 3.184339 1_455
Mg0 Mg11 3.184339 1_455
Mg0 Mg5 3.249695 1_555
Mg0 Mg3 3.249695 1_555
Mg0 Mg5 3.252430 1_445
Mg0 Mg3 3.252430 1_455
Mg1 Mg9 3.153947 1_555
Mg1 Mg8 3.153947 1_555
Mg1 Mg7 3.153953 1_565
Mg1 Mg6 3.153953 1_565
Mg1 Mg12 3.224042 1_455
Mg1 Mg13 3.224042 1_455
Mg1 Mg3 3.234582 1_455
Mg1 Mg5 3.234582 1_455
Mg1 Mg3 3.267521 1_565
Mg1 Mg5 3.267521 1_555
Mg2 Mg4 3.134444 1_545
Mg2 Sb0 3.221269 1_545
Mg2 Mg4 3.232278 1_555
Mg2 Y0 3.233853 1_655
Mg2 Mg6 3.268197 1_555
Mg2 Mg7 3.268197 1_554
Mg2 Y0 3.268353 1_555
Mg2 Sb0 3.280873 1_655
Mg3 Mg7 3.151439 1_555
Mg3 Mg6 3.151439 1_555
Mg3 Mg5 3.167232 1_555
Mg3 Mg5 3.199490 1_545
Mg4 Sb0 3.221269 1_555
Mg4 Y0 3.233853 1_665
Mg4 Mg8 3.268197 1_555
Mg4 Mg9 3.268197 1_554
Mg4 Y0 3.268353 1_555
Mg4 Sb0 3.280873 1_655
Mg5 Mg9 3.151439 1_555
Mg5 Mg8 3.151439 1_555
Mg6 Mg8 3.180078 1_555
Mg6 Mg8 3.186644 1_545
Mg6 Sb0 3.264413 1_545
Mg6 Y0 3.270633 1_555
Mg7 Mg9 3.180078 1_555
Mg7 Mg9 3.186644 1_545
Mg7 Sb0 3.264413 1_546
Mg7 Y0 3.270633 1_556
Mg8 Sb0 3.264406 1_555
Mg8 Y0 3.270639 1_555
Mg9 Sb0 3.264406 1_556
Mg9 Y0 3.270639 1_556
Mg10 Mg3 3.160376 1_555
Mg10 Mg5 3.160382 1_545
Mg10 Mg12 3.183819 1_545
Mg10 Mg12 3.183819 1_555
Mg10 Mg8 3.225565 1_545
Mg10 Mg6 3.225566 1_555
Mg10 Mg2 3.231761 1_555
Mg10 Mg4 3.231767 1_545
Mg10 Y0 3.265008 1_655
Mg10 Mg8 3.276751 1_655
Mg10 Mg6 3.276751 1_655
Mg11 Mg3 3.160376 1_555
Mg11 Mg5 3.160382 1_545
Mg11 Mg13 3.183819 1_545
Mg11 Mg13 3.183819 1_555
Mg11 Mg9 3.225565 1_545
Mg11 Mg7 3.225566 1_555
Mg11 Mg2 3.231761 1_556
Mg11 Mg4 3.231767 1_546
Mg11 Y0 3.265008 1_656
Mg11 Mg9 3.276751 1_655
Mg11 Mg7 3.276751 1_655
Mg12 Mg5 3.194510 1_555
Mg12 Mg3 3.194517 1_555
Mg12 Mg4 3.210415 1_555
Mg12 Mg2 3.210421 1_555
Mg12 Mg6 3.220232 1_555
Mg12 Mg8 3.220232 1_555
Mg12 Sb0 3.239957 1_655
Mg12 Mg6 3.283654 1_665
Mg12 Mg8 3.283655 1_655
Mg13 Mg5 3.194510 1_555
Mg13 Mg3 3.194517 1_555
Mg13 Mg4 3.210415 1_556
Mg13 Mg2 3.210421 1_556
Mg13 Mg7 3.220232 1_555
Mg13 Mg9 3.220232 1_555
Mg13 Sb0 3.239957 1_656
Mg13 Mg7 3.283654 1_665
Mg13 Mg9 3.283655 1_655
Sb0 Y0 3.183471 1_555
Sb0 Y0 3.183471 1_565
