# generated using pymatgen
data_NaMg14CO16
_symmetry_space_group_name_H-M   'P 1'
_cell_length_a   8.58138652
_cell_length_b   8.39653882
_cell_length_c   4.27870205
_cell_angle_alpha   90.00000000
_cell_angle_beta   90.00000000
_cell_angle_gamma   90.00000000
_symmetry_Int_Tables_number   1
_chemical_formula_structural   NaMg14CO16
_chemical_formula_sum   'Na1 Mg14 C1 O16'
_cell_volume   308.29736237
_cell_formula_units_Z   1
loop_
 _symmetry_equiv_pos_site_id
 _symmetry_equiv_pos_as_xyz
  1  'x, y, z'
loop_
 _atom_site_type_symbol
 _atom_site_label
 _atom_site_symmetry_multiplicity
 _atom_site_fract_x
 _atom_site_fract_y
 _atom_site_fract_z
 _atom_site_occupancy
  Na  Na0  1  -0.00000000  -0.00000000  0.00000000  1
  Mg  Mg0  1  0.50000000  -0.00000000  0.00000000  1
  Mg  Mg1  1  0.50000000  0.50000000  0.00000000  1
  Mg  Mg2  1  -0.00000000  0.25127797  0.50000000  1
  Mg  Mg3  1  -0.00000000  0.74872203  0.50000000  1
  Mg  Mg4  1  0.50000000  0.24932276  0.50000000  1
  Mg  Mg5  1  0.50000000  0.75067724  0.50000000  1
  Mg  Mg6  1  0.24694547  -0.00000000  0.50000000  1
  Mg  Mg7  1  0.24517885  0.50000000  0.50000000  1
  Mg  Mg8  1  0.75305453  -0.00000000  0.50000000  1
  Mg  Mg9  1  0.75482115  0.50000000  0.50000000  1
  Mg  Mg10  1  0.25197440  0.25014053  -0.00000000  1
  Mg  Mg11  1  0.25197440  0.74985947  -0.00000000  1
  Mg  Mg12  1  0.74802560  0.25014053  0.00000000  1
  Mg  Mg13  1  0.74802560  0.74985947  0.00000000  1
  C  C0  1  -0.00000000  0.50000000  0.00000000  1
  O  O0  1  0.26108118  -0.00000000  0.00000000  1
  O  O1  1  0.24535764  0.50000000  0.00000000  1
  O  O2  1  0.73891882  -0.00000000  0.00000000  1
  O  O3  1  0.75464236  0.50000000  0.00000000  1
  O  O4  1  0.24734157  0.25145977  0.50000000  1
  O  O5  1  0.24734157  0.74854023  0.50000000  1
  O  O6  1  0.75265843  0.25145977  0.50000000  1
  O  O7  1  0.75265843  0.74854023  0.50000000  1
  O  O8  1  -0.00000000  -0.00000000  0.50000000  1
  O  O9  1  -0.00000000  0.50000000  0.50000000  1
  O  O10  1  0.50000000  -0.00000000  0.50000000  1
  O  O11  1  0.50000000  0.50000000  0.50000000  1
  O  O12  1  -0.00000000  0.29291318  0.00000000  1
  O  O13  1  -0.00000000  0.70708682  -0.00000000  1
  O  O14  1  0.50000000  0.25475778  0.00000000  1
  O  O15  1  0.50000000  0.74524222  -0.00000000  1
loop_
_geom_bond_atom_site_label_1
_geom_bond_atom_site_label_2
_geom_bond_distance
_geom_bond_site_symmetry_2
Na0 O8 2.139351 1_554
Na0 O8 2.139351 1_555
Na0 O0 2.240439 1_555
Na0 O2 2.240439 1_455
Na0 O13 2.459457 1_545
Na0 O12 2.459457 1_555
Mg0 O0 2.050255 1_555
Mg0 O2 2.050255 1_555
Mg0 O14 2.139084 1_555
Mg0 O15 2.139084 1_545
Mg0 O10 2.139351 1_555
Mg0 O10 2.139351 1_554
Mg1 O15 2.059186 1_555
Mg1 O14 2.059186 1_555
Mg1 O11 2.139351 1_554
Mg1 O11 2.139351 1_555
Mg1 O3 2.185185 1_555
Mg1 O1 2.185185 1_555
Mg2 O9 2.088404 1_555
Mg2 O8 2.109865 1_555
Mg2 O4 2.122534 1_555
Mg2 O6 2.122534 1_455
Mg2 O12 2.167726 1_556
Mg2 O12 2.167726 1_555
Mg3 O9 2.088404 1_555
Mg3 O8 2.109865 1_565
Mg3 O7 2.122534 1_455
Mg3 O5 2.122534 1_555
Mg3 O13 2.167726 1_555
Mg3 O13 2.167726 1_556
Mg4 O10 2.093448 1_555
Mg4 O11 2.104821 1_555
Mg4 O14 2.139838 1_556
Mg4 O14 2.139838 1_555
Mg4 O4 2.168234 1_555
Mg4 O6 2.168234 1_555
Mg5 O10 2.093448 1_565
Mg5 O11 2.104821 1_555
Mg5 O15 2.139838 1_555
Mg5 O15 2.139838 1_556
Mg5 O5 2.168234 1_555
Mg5 O7 2.168234 1_555
Mg6 O5 2.111394 1_545
Mg6 O4 2.111394 1_555
Mg6 O8 2.119135 1_555
Mg6 O0 2.142787 1_555
Mg6 O0 2.142787 1_556
Mg6 O10 2.171559 1_555
Mg7 O4 2.086960 1_555
Mg7 O5 2.086960 1_555
Mg7 O9 2.103974 1_555
Mg7 O1 2.139352 1_555
Mg7 O1 2.139352 1_556
Mg7 O11 2.186719 1_555
Mg8 O7 2.111394 1_545
Mg8 O6 2.111394 1_555
Mg8 O8 2.119135 1_655
Mg8 O2 2.142787 1_555
Mg8 O2 2.142787 1_556
Mg8 O10 2.171559 1_555
Mg9 O6 2.086960 1_555
Mg9 O7 2.086960 1_555
Mg9 O9 2.103974 1_655
Mg9 O3 2.139352 1_556
Mg9 O3 2.139352 1_555
Mg9 O11 2.186719 1_555
Mg10 O1 2.098723 1_555
Mg10 O0 2.101768 1_555
Mg10 O14 2.128757 1_555
Mg10 O4 2.139749 1_554
Mg10 O4 2.139749 1_555
Mg10 O12 2.191912 1_555
Mg11 O1 2.098723 1_555
Mg11 O0 2.101768 1_565
Mg11 O15 2.128757 1_555
Mg11 O5 2.139749 1_554
Mg11 O5 2.139749 1_555
Mg11 O13 2.191912 1_555
Mg12 O3 2.098723 1_555
Mg12 O2 2.101768 1_555
Mg12 O14 2.128757 1_555
Mg12 O6 2.139749 1_554
Mg12 O6 2.139749 1_555
Mg12 O12 2.191912 1_655
Mg13 O3 2.098723 1_555
Mg13 O2 2.101768 1_565
Mg13 O15 2.128757 1_555
Mg13 O7 2.139749 1_555
Mg13 O7 2.139749 1_554
Mg13 O13 2.191912 1_655
C0 O12 1.738813 1_555
C0 O13 1.738813 1_555
C0 O1 2.105509 1_555
C0 O3 2.105509 1_455
