# generated using pymatgen
data_Mg3Ti
_symmetry_space_group_name_H-M   'P 1'
_cell_length_a   11.93742549
_cell_length_b   11.93742549
_cell_length_c   11.93742549
_cell_angle_alpha   150.19858508
_cell_angle_beta   125.96808376
_cell_angle_gamma   62.92942389
_symmetry_Int_Tables_number   1
_chemical_formula_structural   Mg3Ti
_chemical_formula_sum   'Mg24 Ti8'
_cell_volume   677.92757474
_cell_formula_units_Z   8
loop_
 _symmetry_equiv_pos_site_id
 _symmetry_equiv_pos_as_xyz
  1  'x, y, z'
loop_
 _atom_site_type_symbol
 _atom_site_label
 _atom_site_symmetry_multiplicity
 _atom_site_fract_x
 _atom_site_fract_y
 _atom_site_fract_z
 _atom_site_occupancy
  Mg  Mg0_0  1  0.08371050  0.25000000  0.33371050  1
  Mg  Mg0_1  1  0.08371050  0.25000000  0.83371050  1
  Mg  Mg0_2  1  0.08371050  0.75000000  0.33371050  1
  Mg  Mg0_3  1  0.08371050  0.75000000  0.83371050  1
  Mg  Mg0_4  1  0.58371050  0.25000000  0.33371050  1
  Mg  Mg0_5  1  0.58371050  0.25000000  0.83371050  1
  Mg  Mg0_6  1  0.58371050  0.75000000  0.33371050  1
  Mg  Mg0_7  1  0.58371050  0.75000000  0.83371050  1
  Mg  Mg1_0  1  0.12499500  0.12518550  0.49981000  1
  Mg  Mg1_1  1  0.12499500  0.12518550  0.99981000  1
  Mg  Mg1_2  1  0.12499500  0.62518550  0.49981000  1
  Mg  Mg1_3  1  0.12499500  0.62518550  0.99981000  1
  Mg  Mg1_4  1  0.62499500  0.12518550  0.49981000  1
  Mg  Mg1_5  1  0.62499500  0.12518550  0.99981000  1
  Mg  Mg1_6  1  0.62499500  0.62518550  0.49981000  1
  Mg  Mg1_7  1  0.62499500  0.62518550  0.99981000  1
  Mg  Mg2_0  1  0.37462450  0.37481450  0.49981000  1
  Mg  Mg2_1  1  0.37462450  0.37481450  0.99981000  1
  Mg  Mg2_2  1  0.37462450  0.87481450  0.49981000  1
  Mg  Mg2_3  1  0.37462450  0.87481450  0.99981000  1
  Mg  Mg2_4  1  0.87462450  0.37481450  0.49981000  1
  Mg  Mg2_5  1  0.87462450  0.37481450  0.99981000  1
  Mg  Mg2_6  1  0.87462450  0.87481450  0.49981000  1
  Mg  Mg2_7  1  0.87462450  0.87481450  0.99981000  1
  Ti  Ti0_0  1  0.33333650  0.00000000  0.33333650  1
  Ti  Ti0_1  1  0.33333650  0.00000000  0.83333650  1
  Ti  Ti0_2  1  0.33333650  0.50000000  0.33333650  1
  Ti  Ti0_3  1  0.33333650  0.50000000  0.83333650  1
  Ti  Ti0_4  1  0.83333650  0.00000000  0.33333650  1
  Ti  Ti0_5  1  0.83333650  0.00000000  0.83333650  1
  Ti  Ti0_6  1  0.83333650  0.50000000  0.33333650  1
  Ti  Ti0_7  1  0.83333650  0.50000000  0.83333650  1
loop_
_geom_bond_atom_site_label_1
_geom_bond_atom_site_label_2
_geom_bond_distance
_geom_bond_site_symmetry_2
Mg0_0 Mg0_3 3.069646 1_555
Mg0_0 Mg0_3 3.069646 1_544
Mg0_0 Mg1_1 3.111686 1_554
Mg0_0 Mg1_2 3.111687 1_555
Mg0_0 Mg2_4 3.111690 1_455
Mg0_0 Mg2_7 3.111690 1_444
Mg0_0 Ti0_3 3.111980 1_555
Mg0_0 Ti0_0 3.111980 1_555
Mg0_0 Mg2_0 3.115342 1_555
Mg0_0 Mg1_0 3.115344 1_555
Mg0_0 Ti0_6 3.119039 1_455
Mg0_0 Ti0_5 3.119039 1_454
Mg0_1 Mg0_2 3.069646 1_545
Mg0_1 Mg0_2 3.069646 1_556
Mg0_1 Mg1_0 3.111686 1_555
Mg0_1 Mg1_3 3.111687 1_555
Mg0_1 Mg2_6 3.111690 1_445
Mg0_1 Mg2_5 3.111690 1_455
Mg0_1 Ti0_2 3.111980 1_556
Mg0_1 Ti0_1 3.111980 1_555
Mg0_1 Mg2_1 3.115342 1_555
Mg0_1 Mg1_1 3.115344 1_555
Mg0_1 Ti0_4 3.119039 1_455
Mg0_1 Ti0_7 3.119039 1_455
Mg0_2 Mg1_3 3.111686 1_554
Mg0_2 Mg1_0 3.111687 1_565
Mg0_2 Mg2_6 3.111690 1_455
Mg0_2 Mg2_5 3.111690 1_454
Mg0_2 Ti0_1 3.111980 1_565
Mg0_2 Ti0_2 3.111980 1_555
Mg0_2 Mg2_2 3.115342 1_555
Mg0_2 Mg1_2 3.115344 1_555
Mg0_2 Ti0_4 3.119039 1_465
Mg0_2 Ti0_7 3.119039 1_454
Mg0_3 Mg1_2 3.111686 1_555
Mg0_3 Mg1_1 3.111687 1_565
Mg0_3 Mg2_4 3.111690 1_455
Mg0_3 Mg2_7 3.111690 1_455
Mg0_3 Ti0_3 3.111980 1_555
Mg0_3 Ti0_0 3.111980 1_566
Mg0_3 Mg2_3 3.115342 1_555
Mg0_3 Mg1_3 3.115344 1_555
Mg0_3 Ti0_6 3.119039 1_455
Mg0_3 Ti0_5 3.119039 1_465
Mg0_4 Mg0_7 3.069646 1_544
Mg0_4 Mg0_7 3.069646 1_555
Mg0_4 Mg1_5 3.111686 1_554
Mg0_4 Mg1_6 3.111687 1_555
Mg0_4 Mg2_3 3.111690 1_544
Mg0_4 Mg2_0 3.111690 1_555
Mg0_4 Ti0_7 3.111980 1_555
Mg0_4 Ti0_4 3.111980 1_555
Mg0_4 Mg2_4 3.115342 1_555
Mg0_4 Mg1_4 3.115344 1_555
Mg0_4 Ti0_2 3.119039 1_555
Mg0_4 Ti0_1 3.119039 1_554
Mg0_5 Mg0_6 3.069646 1_556
Mg0_5 Mg0_6 3.069646 1_545
Mg0_5 Mg1_4 3.111686 1_555
Mg0_5 Mg1_7 3.111687 1_555
Mg0_5 Mg2_1 3.111690 1_555
Mg0_5 Mg2_2 3.111690 1_545
Mg0_5 Ti0_6 3.111980 1_556
Mg0_5 Ti0_5 3.111980 1_555
Mg0_5 Mg2_5 3.115342 1_555
Mg0_5 Mg1_5 3.115344 1_555
Mg0_5 Ti0_3 3.119039 1_555
Mg0_5 Ti0_0 3.119039 1_555
Mg0_6 Mg1_7 3.111686 1_554
Mg0_6 Mg1_4 3.111687 1_565
Mg0_6 Mg2_2 3.111690 1_555
Mg0_6 Mg2_1 3.111690 1_554
Mg0_6 Ti0_5 3.111980 1_565
Mg0_6 Ti0_6 3.111980 1_555
Mg0_6 Mg2_6 3.115342 1_555
Mg0_6 Mg1_6 3.115344 1_555
Mg0_6 Ti0_0 3.119039 1_565
Mg0_6 Ti0_3 3.119039 1_554
Mg0_7 Mg1_6 3.111686 1_555
Mg0_7 Mg1_5 3.111687 1_565
Mg0_7 Mg2_3 3.111690 1_555
Mg0_7 Mg2_0 3.111690 1_555
Mg0_7 Ti0_7 3.111980 1_555
Mg0_7 Ti0_4 3.111980 1_566
Mg0_7 Mg2_7 3.115342 1_555
Mg0_7 Mg1_7 3.115344 1_555
Mg0_7 Ti0_1 3.119039 1_565
Mg0_7 Ti0_2 3.119039 1_555
Mg1_0 Mg1_3 3.069646 1_555
Mg1_0 Mg1_3 3.069646 1_544
Mg1_0 Ti0_3 3.104321 1_555
Mg1_0 Ti0_0 3.104323 1_555
Mg1_0 Mg2_4 3.115515 1_455
Mg1_0 Mg2_7 3.115516 1_444
Mg1_0 Mg2_1 3.115520 1_555
Mg1_0 Mg2_2 3.115521 1_545
Mg1_0 Ti0_4 3.123845 1_455
Mg1_1 Mg1_2 3.069646 1_545
Mg1_1 Mg1_2 3.069646 1_556
Mg1_1 Ti0_2 3.104321 1_556
Mg1_1 Ti0_1 3.104323 1_555
Mg1_1 Mg2_5 3.115515 1_455
Mg1_1 Mg2_6 3.115516 1_445
Mg1_1 Mg2_0 3.115520 1_556
Mg1_1 Mg2_3 3.115521 1_545
Mg1_1 Ti0_5 3.123845 1_455
Mg1_2 Ti0_1 3.104321 1_565
Mg1_2 Ti0_2 3.104323 1_555
Mg1_2 Mg2_6 3.115515 1_455
Mg1_2 Mg2_5 3.115516 1_454
Mg1_2 Mg2_3 3.115520 1_555
Mg1_2 Mg2_0 3.115521 1_555
Mg1_2 Ti0_6 3.123845 1_455
Mg1_3 Ti0_0 3.104321 1_566
Mg1_3 Ti0_3 3.104323 1_555
Mg1_3 Mg2_7 3.115515 1_455
Mg1_3 Mg2_4 3.115516 1_455
Mg1_3 Mg2_2 3.115520 1_556
Mg1_3 Mg2_1 3.115521 1_555
Mg1_3 Ti0_7 3.123845 1_455
Mg1_4 Mg1_7 3.069646 1_555
Mg1_4 Mg1_7 3.069646 1_544
Mg1_4 Ti0_7 3.104321 1_555
Mg1_4 Ti0_4 3.104323 1_555
Mg1_4 Mg2_0 3.115515 1_555
Mg1_4 Mg2_3 3.115516 1_544
Mg1_4 Mg2_5 3.115520 1_555
Mg1_4 Mg2_6 3.115521 1_545
Mg1_4 Ti0_0 3.123845 1_555
Mg1_5 Mg1_6 3.069646 1_556
Mg1_5 Mg1_6 3.069646 1_545
Mg1_5 Ti0_6 3.104321 1_556
Mg1_5 Ti0_5 3.104323 1_555
Mg1_5 Mg2_1 3.115515 1_555
Mg1_5 Mg2_2 3.115516 1_545
Mg1_5 Mg2_4 3.115520 1_556
Mg1_5 Mg2_7 3.115521 1_545
Mg1_5 Ti0_1 3.123845 1_555
Mg1_6 Ti0_5 3.104321 1_565
Mg1_6 Ti0_6 3.104323 1_555
Mg1_6 Mg2_2 3.115515 1_555
Mg1_6 Mg2_1 3.115516 1_554
Mg1_6 Mg2_7 3.115520 1_555
Mg1_6 Mg2_4 3.115521 1_555
Mg1_6 Ti0_2 3.123845 1_555
Mg1_7 Ti0_4 3.104321 1_566
Mg1_7 Ti0_7 3.104323 1_555
Mg1_7 Mg2_3 3.115515 1_555
Mg1_7 Mg2_0 3.115516 1_555
Mg1_7 Mg2_6 3.115520 1_556
Mg1_7 Mg2_5 3.115521 1_555
Mg1_7 Ti0_3 3.123845 1_555
Mg2_0 Mg2_3 3.069646 1_555
Mg2_0 Mg2_3 3.069646 1_544
Mg2_0 Ti0_3 3.104317 1_555
Mg2_0 Ti0_0 3.104317 1_555
Mg2_0 Ti0_2 3.123851 1_555
Mg2_1 Mg2_2 3.069646 1_545
Mg2_1 Mg2_2 3.069646 1_556
Mg2_1 Ti0_1 3.104317 1_555
Mg2_1 Ti0_2 3.104317 1_556
Mg2_1 Ti0_3 3.123851 1_555
Mg2_2 Ti0_2 3.104317 1_555
Mg2_2 Ti0_1 3.104317 1_565
Mg2_2 Ti0_0 3.123851 1_565
Mg2_3 Ti0_3 3.104317 1_555
Mg2_3 Ti0_0 3.104317 1_566
Mg2_3 Ti0_1 3.123851 1_565
Mg2_4 Mg2_7 3.069646 1_555
Mg2_4 Mg2_7 3.069646 1_544
Mg2_4 Ti0_4 3.104317 1_555
Mg2_4 Ti0_7 3.104317 1_555
Mg2_4 Ti0_6 3.123851 1_555
Mg2_5 Mg2_6 3.069646 1_556
Mg2_5 Mg2_6 3.069646 1_545
Mg2_5 Ti0_6 3.104317 1_556
Mg2_5 Ti0_5 3.104317 1_555
Mg2_5 Ti0_7 3.123851 1_555
Mg2_6 Ti0_5 3.104317 1_565
Mg2_6 Ti0_6 3.104317 1_555
Mg2_6 Ti0_4 3.123851 1_565
Mg2_7 Ti0_7 3.104317 1_555
Mg2_7 Ti0_4 3.104317 1_566
Mg2_7 Ti0_5 3.123851 1_565
Ti0_0 Ti0_3 3.069646 1_555
Ti0_0 Ti0_3 3.069646 1_544
Ti0_1 Ti0_2 3.069646 1_556
Ti0_1 Ti0_2 3.069646 1_545
Ti0_4 Ti0_7 3.069646 1_544
Ti0_4 Ti0_7 3.069646 1_555
Ti0_5 Ti0_6 3.069646 1_556
Ti0_5 Ti0_6 3.069646 1_545
