# generated using pymatgen
data_Ba3Y5(CuO5)3
_symmetry_space_group_name_H-M   'P 1'
_cell_length_a   11.97608500
_cell_length_b   7.39579400
_cell_length_c   18.52182806
_cell_angle_alpha   66.54769401
_cell_angle_beta   90.00000000
_cell_angle_gamma   90.00000000
_symmetry_Int_Tables_number   1
_chemical_formula_structural   Ba3Y5(CuO5)3
_chemical_formula_sum   'Ba12 Y20 Cu12 O60'
_cell_volume   1505.00631457
_cell_formula_units_Z   4
loop_
 _symmetry_equiv_pos_site_id
 _symmetry_equiv_pos_as_xyz
  1  'x, y, z'
loop_
 _atom_site_type_symbol
 _atom_site_label
 _atom_site_symmetry_multiplicity
 _atom_site_fract_x
 _atom_site_fract_y
 _atom_site_fract_z
 _atom_site_occupancy
  Ba  Ba0  1  0.90079000  0.30633100  0.75804100  1
  Ba  Ba1  1  0.89600400  0.61622400  0.41717900  1
  Ba  Ba2  1  0.89204200  0.99249100  0.07472100  1
  Ba  Ba3  1  0.10795800  0.00750900  0.92527900  1
  Ba  Ba4  1  0.10399600  0.38377600  0.58282100  1
  Ba  Ba5  1  0.09921000  0.69366900  0.24195900  1
  Ba  Ba6  1  0.60399600  0.61622400  0.91717900  1
  Ba  Ba7  1  0.60795800  0.99249100  0.57472100  1
  Ba  Ba8  1  0.59921000  0.30633100  0.25804100  1
  Ba  Ba9  1  0.40079000  0.69366900  0.74195900  1
  Ba  Ba10  1  0.39204200  0.00750900  0.42527900  1
  Ba  Ba11  1  0.39600400  0.38377600  0.08282100  1
  Y  Y0  1  0.71278200  0.53017600  0.58382100  1
  Y  Y1  1  0.71470700  0.85858200  0.24997700  1
  Y  Y2  1  0.28529300  0.14141800  0.75002300  1
  Y  Y3  1  0.28721800  0.46982400  0.41617900  1
  Y  Y4  1  0.78529300  0.85858200  0.74997700  1
  Y  Y5  1  0.78721800  0.53017600  0.08382100  1
  Y  Y6  1  0.21278200  0.46982400  0.91617900  1
  Y  Y7  1  0.21470700  0.14141800  0.25002300  1
  Y  Y8  1  0.91174200  0.45315400  0.91730400  1
  Y  Y9  1  0.93953200  0.80689300  0.57916900  1
  Y  Y10  1  0.92526200  0.13577400  0.25457000  1
  Y  Y11  1  0.07473800  0.86422600  0.74543000  1
  Y  Y12  1  0.06046800  0.19310700  0.42083100  1
  Y  Y13  1  0.08825800  0.54684600  0.08269600  1
  Y  Y14  1  0.57473800  0.13577400  0.75457000  1
  Y  Y15  1  0.58825800  0.45315400  0.41730400  1
  Y  Y16  1  0.56046800  0.80689300  0.07916900  1
  Y  Y17  1  0.43953200  0.19310700  0.92083100  1
  Y  Y18  1  0.41174200  0.54684600  0.58269600  1
  Y  Y19  1  0.42526200  0.86422600  0.24543000  1
  Cu  Cu0  1  0.65986200  0.52001200  0.75161900  1
  Cu  Cu1  1  0.66491800  0.86409600  0.41625200  1
  Cu  Cu2  1  0.65902200  0.19192000  0.08342400  1
  Cu  Cu3  1  0.34097800  0.80808000  0.91657600  1
  Cu  Cu4  1  0.33508200  0.13590400  0.58374800  1
  Cu  Cu5  1  0.34013800  0.47998800  0.24838100  1
  Cu  Cu6  1  0.83508200  0.86409600  0.91625200  1
  Cu  Cu7  1  0.84097800  0.19192000  0.58342400  1
  Cu  Cu8  1  0.84013800  0.52001200  0.25161900  1
  Cu  Cu9  1  0.15986200  0.47998800  0.74838100  1
  Cu  Cu10  1  0.15902200  0.80808000  0.41657600  1
  Cu  Cu11  1  0.16491800  0.13590400  0.08374800  1
  O  O0  1  0.55903500  0.35155300  0.82220100  1
  O  O1  1  0.56974400  0.66822300  0.49331100  1
  O  O2  1  0.57221400  0.99338200  0.16130600  1
  O  O3  1  0.43873500  0.83599000  0.98734800  1
  O  O4  1  0.42910900  0.17694200  0.66235700  1
  O  O5  1  0.43003500  0.52031900  0.32647900  1
  O  O6  1  0.92910900  0.82305800  0.83764300  1
  O  O7  1  0.93873500  0.16401000  0.51265200  1
  O  O8  1  0.93003500  0.47968100  0.17352100  1
  O  O9  1  0.05903500  0.64844700  0.67779900  1
  O  O10  1  0.07221400  0.00661800  0.33869400  1
  O  O11  1  0.06974400  0.33177700  0.00668900  1
  O  O12  1  0.42778600  0.00661800  0.83869400  1
  O  O13  1  0.43025600  0.33177700  0.50668900  1
  O  O14  1  0.44096500  0.64844700  0.17779900  1
  O  O15  1  0.56996500  0.47968100  0.67352100  1
  O  O16  1  0.57089100  0.82305800  0.33764300  1
  O  O17  1  0.56126500  0.16401000  0.01265200  1
  O  O18  1  0.06996500  0.52031900  0.82647900  1
  O  O19  1  0.06126500  0.83599000  0.48734800  1
  O  O20  1  0.07089100  0.17694200  0.16235700  1
  O  O21  1  0.93025600  0.66822300  0.99331100  1
  O  O22  1  0.92778600  0.99338200  0.66130600  1
  O  O23  1  0.94096500  0.35155300  0.32220100  1
  O  O24  1  0.76815300  0.53331100  0.82540500  1
  O  O25  1  0.76773500  0.83143700  0.49770800  1
  O  O26  1  0.76378100  0.18678400  0.16387600  1
  O  O27  1  0.23241000  0.64718100  0.99077200  1
  O  O28  1  0.23130300  0.00400800  0.66491400  1
  O  O29  1  0.23744900  0.32361300  0.32859800  1
  O  O30  1  0.73130300  0.99599200  0.83508600  1
  O  O31  1  0.73241000  0.35281900  0.50922800  1
  O  O32  1  0.73744900  0.67638700  0.17140200  1
  O  O33  1  0.26815300  0.46668900  0.67459500  1
  O  O34  1  0.26378100  0.81321600  0.33612400  1
  O  O35  1  0.26773500  0.16856300  0.00229200  1
  O  O36  1  0.23621900  0.81321600  0.83612400  1
  O  O37  1  0.23226500  0.16856300  0.50229200  1
  O  O38  1  0.23184700  0.46668900  0.17459500  1
  O  O39  1  0.76255100  0.67638700  0.67140200  1
  O  O40  1  0.76869700  0.99599200  0.33508600  1
  O  O41  1  0.76759000  0.35281900  0.00922800  1
  O  O42  1  0.26255100  0.32361300  0.82859800  1
  O  O43  1  0.26759000  0.64718100  0.49077200  1
  O  O44  1  0.26869700  0.00400800  0.16491400  1
  O  O45  1  0.73226500  0.83143700  0.99770800  1
  O  O46  1  0.73621900  0.18678400  0.66387600  1
  O  O47  1  0.73184700  0.53331100  0.32540500  1
  O  O48  1  0.91870800  0.16550200  0.91595600  1
  O  O49  1  0.90141200  0.50475200  0.58571000  1
  O  O50  1  0.90409400  0.84260700  0.24845200  1
  O  O51  1  0.09590600  0.15739300  0.75154800  1
  O  O52  1  0.09858800  0.49524800  0.41429000  1
  O  O53  1  0.08129200  0.83449800  0.08404400  1
  O  O54  1  0.59590600  0.84260700  0.74845200  1
  O  O55  1  0.58129200  0.16550200  0.41595500  1
  O  O56  1  0.59858800  0.50475200  0.08571000  1
  O  O57  1  0.40141200  0.49524800  0.91429000  1
  O  O58  1  0.41870800  0.83449800  0.58404400  1
  O  O59  1  0.40409400  0.15739300  0.25154800  1
loop_
_geom_bond_atom_site_label_1
_geom_bond_atom_site_label_2
_geom_bond_distance
_geom_bond_site_symmetry_2
Ba0 O51 2.606440 1_655
Ba0 O48 2.694609 1_555
Ba0 O24 2.926638 1_555
Ba0 O49 2.934848 1_555
Ba0 O30 2.969401 1_545
Ba0 O46 2.989240 1_555
Ba0 O39 3.051324 1_555
Ba1 O52 2.593791 1_655
Ba1 O31 2.810095 1_555
Ba1 O47 2.821362 1_555
Ba1 O49 2.894695 1_555
Ba1 O50 2.900734 1_555
Ba1 O25 3.001264 1_555
Ba1 O40 3.020909 1_555
Ba1 O7 3.141170 1_555
Ba1 O19 3.151097 1_655
Ba1 O23 3.155493 1_555
Ba2 O53 2.524177 1_655
Ba2 O48 2.718731 1_564
Ba2 O41 2.867327 1_565
Ba2 O45 2.909868 1_554
Ba2 O50 2.960532 1_555
Ba2 O32 2.961020 1_555
Ba2 O26 3.006640 1_565
Ba3 O48 2.524177 1_455
Ba3 O53 2.718731 1_546
Ba3 O27 2.867327 1_545
Ba3 O35 2.909868 1_556
Ba3 O51 2.960532 1_555
Ba3 O42 2.961020 1_555
Ba3 O36 3.006640 1_545
Ba4 O49 2.593791 1_455
Ba4 O43 2.810095 1_555
Ba4 O33 2.821362 1_555
Ba4 O52 2.894695 1_555
Ba4 O51 2.900734 1_555
Ba4 O37 3.001264 1_555
Ba4 O28 3.020909 1_555
Ba4 O19 3.141170 1_555
Ba4 O7 3.151097 1_455
Ba4 O9 3.155493 1_555
Ba5 O50 2.606440 1_455
Ba5 O53 2.694609 1_555
Ba5 O38 2.926638 1_555
Ba5 O52 2.934848 1_555
Ba5 O44 2.969401 1_565
Ba5 O34 2.989240 1_555
Ba5 O29 3.051324 1_555
Ba6 O57 2.593791 1_555
Ba6 O41 2.810095 1_556
Ba6 O24 2.821362 1_555
Ba6 O56 2.894695 1_556
Ba6 O54 2.900734 1_555
Ba6 O45 3.001264 1_555
Ba6 O30 3.020909 1_555
Ba6 O17 3.141170 1_556
Ba6 O3 3.151097 1_555
Ba6 O0 3.155493 1_555
Ba7 O58 2.524177 1_555
Ba7 O55 2.718747 1_565
Ba7 O31 2.867327 1_565
Ba7 O25 2.909868 1_555
Ba7 O54 2.960532 1_555
Ba7 O39 2.961020 1_555
Ba7 O46 3.006640 1_565
Ba8 O59 2.606440 1_555
Ba8 O55 2.694592 1_555
Ba8 O47 2.926638 1_555
Ba8 O56 2.934848 1_555
Ba8 O40 2.969401 1_545
Ba8 O26 2.989240 1_555
Ba8 O32 3.051324 1_555
Ba9 O54 2.606440 1_555
Ba9 O58 2.694609 1_555
Ba9 O33 2.926638 1_555
Ba9 O57 2.934848 1_555
Ba9 O28 2.969401 1_565
Ba9 O36 2.989240 1_555
Ba9 O42 3.051324 1_555
Ba10 O55 2.524175 1_555
Ba10 O58 2.718731 1_545
Ba10 O43 2.867327 1_545
Ba10 O37 2.909868 1_555
Ba10 O59 2.960532 1_555
Ba10 O29 2.961020 1_555
Ba10 O34 3.006640 1_545
Ba11 O56 2.593791 1_555
Ba11 O27 2.810095 1_554
Ba11 O38 2.821362 1_555
Ba11 O57 2.894695 1_554
Ba11 O59 2.900734 1_555
Ba11 O35 3.001264 1_555
Ba11 O44 3.020909 1_555
Ba11 O3 3.141170 1_554
Ba11 O17 3.151097 1_555
Ba11 O14 3.155493 1_555
Cu0 O0 1.850117 1_555
Cu0 O24 1.914774 1_555
Cu0 O15 1.919353 1_555
Cu0 O39 1.920870 1_555
Cu0 O54 2.484145 1_555
Cu1 O25 1.886984 1_555
Cu1 O40 1.894475 1_555
Cu1 O1 1.946555 1_555
Cu1 O16 1.957496 1_555
Cu1 O55 2.441792 1_565
Cu2 O17 1.829451 1_555
Cu2 O2 1.905714 1_545
Cu2 O41 1.921847 1_555
Cu2 O26 1.936716 1_555
Cu2 O56 2.440601 1_555
Cu3 O3 1.829451 1_555
Cu3 O12 1.905714 1_565
Cu3 O27 1.921847 1_555
Cu3 O36 1.936716 1_555
Cu3 O57 2.440601 1_555
Cu4 O37 1.886984 1_555
Cu4 O28 1.894475 1_555
Cu4 O13 1.946555 1_555
Cu4 O4 1.957496 1_555
Cu4 O58 2.441798 1_545
Cu5 O14 1.850117 1_555
Cu5 O38 1.914774 1_555
Cu5 O5 1.919353 1_555
Cu5 O29 1.920870 1_555
Cu5 O59 2.484145 1_555
Cu6 O45 1.886984 1_555
Cu6 O30 1.894475 1_555
Cu6 O21 1.946555 1_555
Cu6 O6 1.957496 1_555
Cu6 O48 2.441798 1_565
Cu7 O7 1.829451 1_555
Cu7 O22 1.905714 1_545
Cu7 O31 1.921847 1_555
Cu7 O46 1.936716 1_555
Cu7 O49 2.440601 1_555
Cu8 O23 1.850117 1_555
Cu8 O47 1.914774 1_555
Cu8 O8 1.919353 1_555
Cu8 O32 1.920870 1_555
Cu8 O50 2.484145 1_555
Cu9 O9 1.850117 1_555
Cu9 O33 1.914774 1_555
Cu9 O18 1.919353 1_555
Cu9 O42 1.920870 1_555
Cu9 O51 2.484145 1_555
Cu10 O19 1.829451 1_555
Cu10 O10 1.905714 1_565
Cu10 O43 1.921847 1_555
Cu10 O34 1.936716 1_555
Cu10 O52 2.440601 1_555
Cu11 O35 1.886984 1_555
Cu11 O44 1.894475 1_555
Cu11 O11 1.946555 1_555
Cu11 O20 1.957496 1_555
Cu11 O53 2.441798 1_545
O0 Y17 2.248276 1_555
O0 Y14 2.396340 1_555
O1 Y0 2.329134 1_555
O1 Y18 2.438113 1_555
O1 Y15 2.518616 1_555
O2 Y19 2.291899 1_555
O2 Y1 2.302198 1_555
O2 Y16 2.430365 1_555
O3 Y16 2.184670 1_556
O3 Y17 2.429742 1_565
O4 Y2 2.309216 1_555
O4 Y14 2.374373 1_555
O4 Y18 2.547857 1_555
O5 Y3 2.308962 1_555
O5 Y19 2.384710 1_555
O5 Y15 2.449933 1_555
O6 Y4 2.309216 1_555
O6 Y11 2.374373 1_655
O6 Y8 2.547857 1_555
O7 Y12 2.184670 1_655
O7 Y9 2.429742 1_545
O8 Y5 2.308962 1_555
O8 Y10 2.384710 1_555
O8 Y13 2.449933 1_655
O9 Y9 2.248276 1_455
O9 Y11 2.396340 1_555
O10 Y10 2.291899 1_455
O10 Y7 2.302198 1_555
O10 Y12 2.430365 1_555
O11 Y6 2.329134 1_554
O11 Y8 2.438113 1_454
O11 Y13 2.518616 1_555
O12 Y14 2.291899 1_555
O12 Y2 2.302198 1_555
O12 Y17 2.430365 1_555
O13 Y3 2.329134 1_555
O13 Y15 2.438113 1_555
O13 Y18 2.518616 1_555
O14 Y16 2.248276 1_555
O14 Y19 2.396340 1_555
O15 Y0 2.308962 1_555
O15 Y14 2.384710 1_555
O15 Y18 2.449933 1_555
O16 Y1 2.309216 1_555
O16 Y19 2.374373 1_555
O16 Y15 2.547857 1_555
O17 Y17 2.184670 1_554
O17 Y16 2.429742 1_545
O18 Y6 2.308962 1_555
O18 Y11 2.384710 1_555
O18 Y8 2.449933 1_455
O19 Y9 2.184670 1_455
O19 Y12 2.429742 1_565
O20 Y7 2.309216 1_555
O20 Y10 2.374373 1_455
O20 Y13 2.547857 1_555
O21 Y5 2.329134 1_556
O21 Y13 2.438113 1_656
O21 Y8 2.518616 1_555
O22 Y11 2.291899 1_655
O22 Y4 2.302198 1_555
O22 Y9 2.430365 1_555
O23 Y12 2.248276 1_655
O23 Y10 2.396340 1_555
O24 Y4 2.259622 1_555
O24 Y8 2.324363 1_555
O25 Y0 2.261125 1_555
O25 Y9 2.514869 1_555
O26 Y1 2.387324 1_545
O26 Y5 2.393707 1_555
O26 Y10 2.489919 1_555
O27 Y6 2.264311 1_555
O27 Y13 2.328996 1_556
O28 Y2 2.282752 1_555
O28 Y11 2.362484 1_545
O29 Y3 2.356311 1_555
O29 Y7 2.359845 1_555
O29 Y12 2.651409 1_555
O30 Y4 2.282752 1_555
O30 Y14 2.362484 1_565
O31 Y0 2.264311 1_555
O31 Y15 2.328996 1_555
O32 Y5 2.356311 1_555
O32 Y1 2.359845 1_555
O32 Y16 2.651409 1_555
O33 Y2 2.259622 1_555
O33 Y18 2.324363 1_555
O34 Y7 2.387324 1_565
O34 Y3 2.393707 1_555
O34 Y19 2.489919 1_555
O35 Y6 2.261125 1_554
O35 Y17 2.514869 1_554
O36 Y2 2.387324 1_565
O36 Y6 2.393707 1_555
O36 Y11 2.489919 1_555
O37 Y3 2.261125 1_555
O37 Y12 2.514869 1_555
O38 Y7 2.259622 1_555
O38 Y13 2.324363 1_555
O39 Y0 2.356311 1_555
O39 Y4 2.359845 1_555
O39 Y9 2.651409 1_555
O40 Y1 2.282752 1_555
O40 Y10 2.362484 1_565
O41 Y5 2.264311 1_555
O41 Y8 2.328996 1_554
O42 Y6 2.356311 1_555
O42 Y2 2.359845 1_555
O42 Y17 2.651409 1_555
O43 Y3 2.264311 1_555
O43 Y18 2.328996 1_555
O44 Y7 2.282752 1_555
O44 Y19 2.362484 1_545
O45 Y5 2.261125 1_556
O45 Y16 2.514869 1_556
O46 Y4 2.387324 1_545
O46 Y0 2.393707 1_555
O46 Y14 2.489919 1_555
O47 Y1 2.259622 1_555
O47 Y15 2.324363 1_555
O48 Y8 2.139102 1_555
O49 Y9 2.236275 1_555
O49 Y0 2.265976 1_555
O50 Y10 2.230196 1_565
O50 Y1 2.271950 1_555
O51 Y11 2.230196 1_545
O51 Y2 2.271950 1_555
O52 Y12 2.236275 1_555
O52 Y3 2.265976 1_555
O53 Y13 2.139102 1_555
O54 Y14 2.230196 1_565
O54 Y4 2.271950 1_555
O55 Y15 2.139109 1_555
O56 Y16 2.236275 1_555
O56 Y5 2.265976 1_555
O57 Y17 2.236275 1_555
O57 Y6 2.265976 1_555
O58 Y18 2.139102 1_555
O59 Y19 2.230196 1_545
O59 Y7 2.271950 1_555
