# generated using pymatgen
data_MgFe10O9F11
_symmetry_space_group_name_H-M   'P 1'
_cell_length_a   4.93596409
_cell_length_b   4.87331522
_cell_length_c   15.44554791
_cell_angle_alpha   90.00000000
_cell_angle_beta   90.00000000
_cell_angle_gamma   96.21247239
_symmetry_Int_Tables_number   1
_chemical_formula_structural   MgFe10O9F11
_chemical_formula_sum   'Mg1 Fe10 O9 F11'
_cell_volume   369.35320503
_cell_formula_units_Z   1
loop_
 _symmetry_equiv_pos_site_id
 _symmetry_equiv_pos_as_xyz
  1  'x, y, z'
loop_
 _atom_site_type_symbol
 _atom_site_label
 _atom_site_symmetry_multiplicity
 _atom_site_fract_x
 _atom_site_fract_y
 _atom_site_fract_z
 _atom_site_occupancy
  Mg  Mg0  1  0.54068020  0.02493144  0.70000000  1
  Fe  Fe0  1  0.00116895  0.98090368  0.00175553  1
  Fe  Fe1  1  0.00520615  0.98605101  0.20000000  1
  Fe  Fe2  1  0.00116895  0.98090368  0.39824447  1
  Fe  Fe3  1  0.03912046  0.00476848  0.58924112  1
  Fe  Fe4  1  0.03912046  0.00476848  0.81075888  1
  Fe  Fe5  1  0.50427421  0.48657876  0.10302404  1
  Fe  Fe6  1  0.49942768  0.47367245  0.48877170  1
  Fe  Fe7  1  0.50427421  0.48657876  0.29697596  1
  Fe  Fe8  1  0.27236808  0.47735459  0.70000000  1
  Fe  Fe9  1  0.49942768  0.47367245  0.91122830  1
  O  O0  1  0.17052092  0.84591933  0.70000000  1
  O  O1  1  0.31174260  0.27181580  0.00614656  1
  O  O2  1  0.30803554  0.28118583  0.20000000  1
  O  O3  1  0.31174260  0.27181580  0.39385344  1
  O  O4  1  0.36779108  0.28564767  0.59183658  1
  O  O5  1  0.36779108  0.28564767  0.80816342  1
  O  O6  1  0.69638353  0.69161025  0.00278240  1
  O  O7  1  0.70064980  0.69010818  0.20000000  1
  O  O8  1  0.69638353  0.69161025  0.39721760  1
  F  F0  1  0.18502733  0.78712084  0.10239556  1
  F  F1  1  0.18502733  0.78712084  0.29760444  1
  F  F2  1  0.19235355  0.76312904  0.48870491  1
  F  F3  1  0.19235355  0.76312904  0.91129509  1
  F  F4  1  0.66631237  0.78125926  0.60031278  1
  F  F5  1  0.66631237  0.78125926  0.79968722  1
  F  F6  1  0.82203762  0.17889312  0.10225465  1
  F  F7  1  0.82928295  0.20954595  0.48805990  1
  F  F8  1  0.82203762  0.17889312  0.29774535  1
  F  F9  1  0.82928295  0.20954595  0.91194010  1
  F  F10  1  0.86991866  0.26733402  0.70000000  1
loop_
_geom_bond_atom_site_label_1
_geom_bond_atom_site_label_2
_geom_bond_distance
_geom_bond_site_symmetry_2
Mg0 O0 1.937613 1_545
Mg0 O5 2.316952 1_555
Mg0 O4 2.316952 1_555
Fe0 O6 1.947318 1_455
Fe0 O1 1.973359 1_565
Fe1 O2 1.958993 1_565
Fe1 O7 1.967388 1_455
Fe2 O8 1.947318 1_455
Fe2 O3 1.973359 1_565
Fe3 O4 2.006619 1_555
Fe3 O0 2.013753 1_545
Fe4 O5 2.006619 1_555
Fe4 O0 2.013753 1_545
Fe5 O7 1.989675 1_555
Fe5 O2 1.993448 1_555
Fe5 O1 2.005551 1_555
Fe5 O6 2.022292 1_555
Fe6 O4 1.914957 1_555
Fe6 O3 1.943714 1_555
Fe6 O8 1.961974 1_555
Fe7 O7 1.989675 1_555
Fe7 O2 1.993448 1_555
Fe7 O3 2.005551 1_555
Fe7 O8 2.022292 1_555
Fe8 O0 1.916830 1_555
Fe8 O4 1.995232 1_555
Fe8 O5 1.995232 1_555
Fe9 O5 1.914957 1_555
Fe9 O1 1.943714 1_556
Fe9 O6 1.961974 1_556
F0 Fe1 2.046119 1_555
F0 Fe0 2.077784 1_555
F0 Fe5 2.264484 1_555
F1 Fe1 2.046119 1_555
F1 Fe2 2.077784 1_555
F1 Fe7 2.264484 1_555
F2 Fe2 2.045926 1_555
F2 Fe3 2.136082 1_565
F2 Fe6 2.179437 1_555
F3 Fe0 2.045926 1_556
F3 Fe4 2.136082 1_565
F3 Fe9 2.179437 1_555
F4 Fe3 2.041586 1_665
F4 Mg0 2.079617 1_565
F4 Fe6 2.371980 1_555
F5 Fe4 2.041586 1_665
F5 Mg0 2.079617 1_565
F5 Fe9 2.371980 1_555
F6 Fe1 2.040536 1_645
F6 Fe0 2.075311 1_645
F6 Fe5 2.284206 1_555
F7 Fe2 2.022481 1_645
F7 Fe3 2.175942 1_655
F7 Fe6 2.182062 1_555
F8 Fe1 2.040536 1_645
F8 Fe2 2.075311 1_645
F8 Fe7 2.284206 1_555
F9 Fe0 2.022481 1_646
F9 Fe4 2.175942 1_655
F9 Fe9 2.182062 1_555
F10 Mg0 1.902883 1_555
F10 Fe8 2.133915 1_655
F10 Fe4 2.343650 1_655
F10 Fe3 2.343650 1_655
