# generated using pymatgen
data_Sr7CaMn2(FeO4)6
_symmetry_space_group_name_H-M   'P 1'
_cell_length_a   7.82344996
_cell_length_b   7.82344996
_cell_length_c   7.77963000
_cell_angle_alpha   90.00000000
_cell_angle_beta   90.00000000
_cell_angle_gamma   90.00962177
_symmetry_Int_Tables_number   1
_chemical_formula_structural   Sr7CaMn2(FeO4)6
_chemical_formula_sum   'Sr7 Ca1 Mn2 Fe6 O24'
_cell_volume   476.16289999
_cell_formula_units_Z   1
loop_
 _symmetry_equiv_pos_site_id
 _symmetry_equiv_pos_as_xyz
  1  'x, y, z'
loop_
 _atom_site_type_symbol
 _atom_site_label
 _atom_site_symmetry_multiplicity
 _atom_site_fract_x
 _atom_site_fract_y
 _atom_site_fract_z
 _atom_site_occupancy
  Sr  Sr0  1  0.74941000  0.25062000  0.50000000  1
  Sr  Sr1  1  0.25059100  0.25059100  0.50000000  1
  Sr  Sr2  1  0.25062000  0.74941000  0.50000000  1
  Sr  Sr3  1  0.74938700  0.25057900  0.00000000  1
  Sr  Sr4  1  0.25057600  0.25057600  0.00000000  1
  Sr  Sr5  1  0.74942000  0.74942000  0.00000000  1
  Sr  Sr6  1  0.25057900  0.74938700  0.00000000  1
  Ca  Ca0  1  0.74935500  0.74935500  0.50000000  1
  Mn  Mn0  1  0.50049800  0.50049800  0.74943800  1
  Mn  Mn1  1  0.50049800  0.50049800  0.25056200  1
  Fe  Fe0  1  0.99942800  0.99942800  0.74942300  1
  Fe  Fe1  1  0.50056500  0.99938800  0.74944500  1
  Fe  Fe2  1  0.99938800  0.50056500  0.74944500  1
  Fe  Fe3  1  0.99942800  0.99942800  0.25057700  1
  Fe  Fe4  1  0.50056500  0.99938800  0.25055500  1
  Fe  Fe5  1  0.99938800  0.50056500  0.25055500  1
  O  O0  1  0.99735400  0.99735400  0.50000000  1
  O  O1  1  0.50260600  0.99737900  0.50000000  1
  O  O2  1  0.99737900  0.50260600  0.50000000  1
  O  O3  1  0.50277200  0.50277200  0.50000000  1
  O  O4  1  0.99966100  0.99966100  0.00000000  1
  O  O5  1  0.50033900  0.99966600  0.00000000  1
  O  O6  1  0.99966600  0.50033900  0.00000000  1
  O  O7  1  0.50025100  0.50025100  0.00000000  1
  O  O8  1  0.99964100  0.24905600  0.74966000  1
  O  O9  1  0.50034800  0.25448000  0.74968000  1
  O  O10  1  0.99737100  0.75094200  0.74733300  1
  O  O11  1  0.50274200  0.74555800  0.74727600  1
  O  O12  1  0.99964100  0.24905600  0.25034000  1
  O  O13  1  0.50034800  0.25448000  0.25032000  1
  O  O14  1  0.99737100  0.75094200  0.25266700  1
  O  O15  1  0.50274200  0.74555800  0.25272400  1
  O  O16  1  0.75094200  0.99737100  0.74733300  1
  O  O17  1  0.24905600  0.99964100  0.74966000  1
  O  O18  1  0.74555800  0.50274200  0.74727600  1
  O  O19  1  0.25448000  0.50034800  0.74968000  1
  O  O20  1  0.75094200  0.99737100  0.25266700  1
  O  O21  1  0.24905600  0.99964100  0.25034000  1
  O  O22  1  0.74555800  0.50274200  0.25272400  1
  O  O23  1  0.25448000  0.50034800  0.25032000  1
loop_
_geom_bond_atom_site_label_1
_geom_bond_atom_site_label_2
_geom_bond_distance
_geom_bond_site_symmetry_2
Ca0 O11 2.724701 1_555
Ca0 O18 2.724701 1_555
Ca0 O15 2.724701 1_555
Ca0 O22 2.724701 1_555
Ca0 O3 2.727972 1_555
Ca0 O16 2.732665 1_555
Ca0 O10 2.732665 1_555
Ca0 O20 2.732665 1_555
Ca0 O14 2.732665 1_555
Ca0 O2 2.737330 1_555
Ca0 O1 2.737330 1_555
Ca0 O0 2.743638 1_555
Mn0 O18 1.917366 1_555
Mn0 O11 1.917366 1_555
Mn0 O9 1.924711 1_555
Mn0 O19 1.924711 1_555
Mn0 O3 1.940698 1_555
Mn0 O7 1.949282 1_556
Mn1 O22 1.917366 1_555
Mn1 O15 1.917366 1_555
Mn1 O13 1.924711 1_555
Mn1 O23 1.924711 1_555
Mn1 O3 1.940698 1_555
Mn1 O7 1.949282 1_555
Fe0 O0 1.940554 1_555
Fe0 O10 1.944150 1_555
Fe0 O16 1.944150 1_555
Fe0 O4 1.949398 1_556
Fe0 O8 1.952953 1_565
Fe0 O17 1.952953 1_655
Fe1 O1 1.940719 1_555
Fe1 O5 1.949227 1_556
Fe1 O16 1.958947 1_555
Fe1 O17 1.967670 1_555
Fe1 O11 1.985974 1_555
Fe1 O9 1.995701 1_565
Fe2 O2 1.940719 1_555
Fe2 O6 1.949227 1_556
Fe2 O10 1.958947 1_555
Fe2 O8 1.967670 1_555
Fe2 O18 1.985974 1_555
Fe2 O19 1.995701 1_655
Fe3 O0 1.940554 1_555
Fe3 O20 1.944150 1_555
Fe3 O14 1.944150 1_555
Fe3 O4 1.949398 1_555
Fe3 O12 1.952953 1_565
Fe3 O21 1.952953 1_655
Fe4 O1 1.940719 1_555
Fe4 O5 1.949227 1_555
Fe4 O20 1.958947 1_555
Fe4 O21 1.967670 1_555
Fe4 O15 1.985974 1_555
Fe4 O13 1.995701 1_565
Fe5 O2 1.940719 1_555
Fe5 O6 1.949227 1_555
Fe5 O14 1.958947 1_555
Fe5 O12 1.967670 1_555
Fe5 O22 1.985974 1_555
Fe5 O23 1.995701 1_655
O0 Sr0 2.773090 1_565
O0 Sr2 2.773090 1_655
O0 Sr1 2.801586 1_665
O1 Sr2 2.765615 1_555
O1 Sr0 2.766253 1_565
O1 Sr1 2.795166 1_565
O2 Sr0 2.765615 1_555
O2 Sr2 2.766253 1_655
O2 Sr1 2.795166 1_655
O3 Sr2 2.759714 1_555
O3 Sr0 2.759714 1_555
O3 Sr1 2.789904 1_555
O4 Sr5 2.768441 1_555
O4 Sr3 2.772837 1_565
O4 Sr6 2.772837 1_655
O4 Sr4 2.775898 1_665
O5 Sr5 2.762524 1_555
O5 Sr3 2.765579 1_565
O5 Sr6 2.765992 1_555
O5 Sr4 2.769970 1_565
O6 Sr5 2.762524 1_555
O6 Sr6 2.765579 1_655
O6 Sr3 2.765992 1_555
O6 Sr4 2.769970 1_655
O7 Sr5 2.756582 1_555
O7 Sr6 2.759646 1_555
O7 Sr3 2.759646 1_555
O7 Sr4 2.762179 1_555
O8 Sr0 2.757719 1_555
O8 Sr3 2.761573 1_556
O8 Sr1 2.761711 1_655
O8 Sr4 2.765350 1_656
O9 Sr0 2.751484 1_555
O9 Sr3 2.754878 1_556
O9 Sr1 2.755333 1_555
O9 Sr4 2.758929 1_556
O10 Sr5 2.761682 1_556
O10 Sr2 2.761886 1_655
O10 Sr6 2.790728 1_656
O11 Sr5 2.755150 1_556
O11 Sr2 2.755399 1_555
O11 Sr6 2.785380 1_556
O12 Sr0 2.757719 1_555
O12 Sr3 2.761573 1_555
O12 Sr1 2.761711 1_655
O12 Sr4 2.765350 1_655
O13 Sr0 2.751484 1_555
O13 Sr3 2.754878 1_555
O13 Sr1 2.755333 1_555
O13 Sr4 2.758929 1_555
O14 Sr5 2.761682 1_555
O14 Sr2 2.761886 1_655
O14 Sr6 2.790728 1_655
O15 Sr5 2.755150 1_555
O15 Sr2 2.755399 1_555
O15 Sr6 2.785380 1_555
O16 Sr5 2.761682 1_556
O16 Sr0 2.761886 1_565
O16 Sr3 2.790728 1_566
O17 Sr2 2.757719 1_555
O17 Sr6 2.761573 1_556
O17 Sr1 2.761711 1_565
O17 Sr4 2.765350 1_566
O18 Sr5 2.755150 1_556
O18 Sr0 2.755399 1_555
O18 Sr3 2.785380 1_556
O19 Sr2 2.751484 1_555
O19 Sr6 2.754878 1_556
O19 Sr1 2.755333 1_555
O19 Sr4 2.758929 1_556
O20 Sr5 2.761682 1_555
O20 Sr0 2.761886 1_565
O20 Sr3 2.790728 1_565
O21 Sr2 2.757719 1_555
O21 Sr6 2.761573 1_555
O21 Sr1 2.761711 1_565
O21 Sr4 2.765350 1_565
O22 Sr5 2.755150 1_555
O22 Sr0 2.755399 1_555
O22 Sr3 2.785380 1_555
O23 Sr2 2.751484 1_555
O23 Sr6 2.754878 1_555
O23 Sr1 2.755333 1_555
O23 Sr4 2.758929 1_555
