# generated using pymatgen
data_LiAl
_symmetry_space_group_name_H-M   'P 1'
_cell_length_a   8.86769133
_cell_length_b   8.86769133
_cell_length_c   5.90077500
_cell_angle_alpha   90.00000000
_cell_angle_beta   90.00000000
_cell_angle_gamma   92.32010405
_symmetry_Int_Tables_number   1
_chemical_formula_structural   LiAl
_chemical_formula_sum   'Li12 Al12'
_cell_volume   463.63267082
_cell_formula_units_Z   12
loop_
 _symmetry_equiv_pos_site_id
 _symmetry_equiv_pos_as_xyz
  1  'x, y, z'
loop_
 _atom_site_type_symbol
 _atom_site_label
 _atom_site_symmetry_multiplicity
 _atom_site_fract_x
 _atom_site_fract_y
 _atom_site_fract_z
 _atom_site_occupancy
  Li  Li0  1  0.51351600  0.01351600  0.75000000  1
  Li  Li1  1  0.98648400  0.48648400  0.25000000  1
  Li  Li2  1  0.48648400  0.98648400  0.25000000  1
  Li  Li3  1  0.01351600  0.51351600  0.75000000  1
  Li  Li4  1  0.30577600  0.69422400  0.50000000  1
  Li  Li5  1  0.80577600  0.19422400  0.00000000  1
  Li  Li6  1  0.69422400  0.30577600  0.50000000  1
  Li  Li7  1  0.19422400  0.80577600  0.00000000  1
  Li  Li8  1  0.28933200  0.28933200  0.39056400  1
  Li  Li9  1  0.71066800  0.71066800  0.60943600  1
  Li  Li10  1  0.21066800  0.21066800  0.89056400  1
  Li  Li11  1  0.78933200  0.78933200  0.10943600  1
  Al  Al0  1  0.22522700  0.99686400  0.53745600  1
  Al  Al1  1  0.00313600  0.77477300  0.46254400  1
  Al  Al2  1  0.50313600  0.27477300  0.03745600  1
  Al  Al3  1  0.72522700  0.49686400  0.96254400  1
  Al  Al4  1  0.77477300  0.00313600  0.46254400  1
  Al  Al5  1  0.99686400  0.22522700  0.53745600  1
  Al  Al6  1  0.49686400  0.72522700  0.96254400  1
  Al  Al7  1  0.27477300  0.50313600  0.03745600  1
  Al  Al8  1  0.97250500  0.97250500  0.79147200  1
  Al  Al9  1  0.02749500  0.02749500  0.20852800  1
  Al  Al10  1  0.52749500  0.52749500  0.29147200  1
  Al  Al11  1  0.47250500  0.47250500  0.70852800  1
loop_
_geom_bond_atom_site_label_1
_geom_bond_atom_site_label_2
_geom_bond_distance
_geom_bond_site_symmetry_2
Li0 Li2 2.969016 1_546
Li0 Li2 2.969016 1_545
Li1 Li3 2.969016 1_655
Li1 Li3 2.969016 1_654
Li10 Li8 3.104608 1_555
Li10 Li8 3.104608 1_556
Li11 Li9 3.104608 1_554
Li11 Li9 3.104608 1_555
Al0 Al9 2.637054 1_565
Al0 Al8 2.697498 1_455
Al0 Al1 2.763821 1_555
Al0 Li8 2.771536 1_565
Al0 Li4 2.813645 1_555
Al0 Li10 2.823568 1_565
Al0 Li0 2.845992 1_565
Al0 Li2 2.875794 1_555
Al0 Al5 2.921250 1_465
Al0 Li7 3.218490 1_556
Al1 Al8 2.637054 1_455
Al1 Al9 2.697498 1_565
Al1 Li9 2.771536 1_455
Al1 Li4 2.813645 1_555
Al1 Li11 2.823568 1_455
Al1 Li1 2.845992 1_455
Al1 Li3 2.875794 1_555
Al1 Al4 2.921250 1_465
Al1 Li7 3.218490 1_555
Al2 Al3 2.763821 1_554
Al2 Li10 2.771536 1_554
Al2 Li5 2.813645 1_555
Al2 Li8 2.823568 1_555
Al2 Li2 2.845992 1_545
Al2 Li0 2.875794 1_554
Al2 Al7 2.921250 1_555
Al2 Li6 3.218490 1_555
Al3 Li11 2.771536 1_556
Al3 Li5 2.813645 1_556
Al3 Li9 2.823568 1_555
Al3 Li3 2.845992 1_655
Al3 Li1 2.875794 1_556
Al3 Al6 2.921250 1_555
Al3 Li6 3.218490 1_555
Al4 Al8 2.637054 1_545
Al4 Al9 2.697498 1_655
Al4 Al5 2.763821 1_555
Al4 Li9 2.771536 1_545
Al4 Li6 2.813645 1_555
Al4 Li11 2.823568 1_545
Al4 Li2 2.845992 1_545
Al4 Li0 2.875794 1_555
Al4 Li5 3.218490 1_555
Al5 Al9 2.637054 1_655
Al5 Al8 2.697498 1_545
Al5 Li8 2.771536 1_655
Al5 Li6 2.813645 1_555
Al5 Li10 2.823568 1_655
Al5 Li3 2.845992 1_655
Al5 Li1 2.875794 1_555
Al5 Li5 3.218490 1_556
Al6 Al7 2.763821 1_556
Al6 Li11 2.771536 1_556
Al6 Li7 2.813645 1_556
Al6 Li9 2.823568 1_555
Al6 Li0 2.845992 1_565
Al6 Li2 2.875794 1_556
Al6 Li4 3.218490 1_555
Al7 Li10 2.771536 1_554
Al7 Li7 2.813645 1_555
Al7 Li8 2.823568 1_555
Al7 Li1 2.845992 1_455
Al7 Li3 2.875794 1_554
Al7 Li4 3.218490 1_555
Al8 Al9 2.551983 1_666
Al8 Li5 2.793043 1_566
Al8 Li7 2.793043 1_656
Al8 Li11 2.929757 1_556
Al8 Li10 2.983535 1_665
Al9 Li5 2.793043 1_455
Al9 Li7 2.793043 1_545
Al9 Li10 2.929757 1_554
Al9 Li11 2.983535 1_445
Al10 Al11 2.551983 1_555
Al10 Al6 2.637054 1_554
Al10 Al3 2.637054 1_554
Al10 Al2 2.697498 1_555
Al10 Al7 2.697498 1_555
Al10 Li4 2.793043 1_555
Al10 Li6 2.793043 1_555
Al10 Li9 2.929757 1_555
Al10 Li8 2.983535 1_555
Al11 Al7 2.637054 1_556
Al11 Al2 2.637054 1_556
Al11 Al3 2.697498 1_555
Al11 Al6 2.697498 1_555
Al11 Li6 2.793043 1_555
Al11 Li4 2.793043 1_555
Al11 Li8 2.929757 1_555
Al11 Li9 2.983535 1_555
