# generated using pymatgen
data_ScCoB4
_symmetry_space_group_name_H-M   'P 1'
_cell_length_a   5.76905700
_cell_length_b   11.13366100
_cell_length_c   3.21620800
_cell_angle_alpha   90.00000000
_cell_angle_beta   90.00000000
_cell_angle_gamma   90.00000000
_symmetry_Int_Tables_number   1
_chemical_formula_structural   ScCoB4
_chemical_formula_sum   'Sc4 Co4 B16'
_cell_volume   206.57937136
_cell_formula_units_Z   4
loop_
 _symmetry_equiv_pos_site_id
 _symmetry_equiv_pos_as_xyz
  1  'x, y, z'
loop_
 _atom_site_type_symbol
 _atom_site_label
 _atom_site_symmetry_multiplicity
 _atom_site_fract_x
 _atom_site_fract_y
 _atom_site_fract_z
 _atom_site_occupancy
  Sc  Sc0  1  0.63039500  0.35046100  0.00000000  1
  Sc  Sc1  1  0.36960500  0.64953900  0.00000000  1
  Sc  Sc2  1  0.13039500  0.14953900  0.00000000  1
  Sc  Sc3  1  0.86960500  0.85046100  0.00000000  1
  Co  Co0  1  0.63577300  0.08999200  0.00000000  1
  Co  Co1  1  0.36422700  0.91000800  0.00000000  1
  Co  Co2  1  0.13577300  0.41000800  0.00000000  1
  Co  Co3  1  0.86422700  0.58999200  0.00000000  1
  B  B0  1  0.78917200  0.18612600  0.50000000  1
  B  B1  1  0.21082800  0.81387400  0.50000000  1
  B  B2  1  0.28917200  0.31387400  0.50000000  1
  B  B3  1  0.71082800  0.68612600  0.50000000  1
  B  B4  1  0.86507700  0.03104800  0.50000000  1
  B  B5  1  0.13492300  0.96895200  0.50000000  1
  B  B6  1  0.36507700  0.46895200  0.50000000  1
  B  B7  1  0.63492300  0.53104800  0.50000000  1
  B  B8  1  0.88667800  0.45182700  0.50000000  1
  B  B9  1  0.11332200  0.54817300  0.50000000  1
  B  B10  1  0.38667800  0.04817300  0.50000000  1
  B  B11  1  0.61332200  0.95182700  0.50000000  1
  B  B12  1  0.97841300  0.30589100  0.50000000  1
  B  B13  1  0.02158700  0.69410900  0.50000000  1
  B  B14  1  0.47841300  0.19410900  0.50000000  1
  B  B15  1  0.52158700  0.80589100  0.50000000  1
loop_
_geom_bond_atom_site_label_1
_geom_bond_atom_site_label_2
_geom_bond_distance
_geom_bond_site_symmetry_2
B0 B12 1.723345 1_555
B0 B4 1.781251 1_555
B0 B14 1.794988 1_555
B0 Co0 2.124796 1_556
B0 Co0 2.124796 1_555
B0 Sc2 2.574308 1_656
B0 Sc2 2.574308 1_655
B0 Sc0 2.602434 1_556
B0 Sc0 2.602434 1_555
B1 B13 1.723345 1_555
B1 B5 1.781251 1_555
B1 B15 1.794988 1_555
B1 Co1 2.124796 1_555
B1 Co1 2.124796 1_556
B1 Sc3 2.574308 1_455
B1 Sc3 2.574308 1_456
B1 Sc1 2.602434 1_555
B1 Sc1 2.602434 1_556
B2 B6 1.781251 1_555
B2 Co2 2.124796 1_556
B2 Co2 2.124796 1_555
B2 Sc0 2.574308 1_555
B2 Sc0 2.574308 1_556
B2 Sc2 2.602434 1_556
B2 Sc2 2.602434 1_555
B3 B7 1.781251 1_555
B3 Co3 2.124796 1_555
B3 Co3 2.124796 1_556
B3 Sc1 2.574308 1_555
B3 Sc1 2.574308 1_556
B3 Sc3 2.602434 1_555
B3 Sc3 2.602434 1_556
B4 B5 1.703369 1_645
B4 Co0 2.183268 1_556
B4 Co0 2.183268 1_555
B4 Sc3 2.574718 1_545
B4 Sc3 2.574718 1_546
B4 Sc2 2.582486 1_656
B4 Sc2 2.582486 1_655
B5 Co1 2.183268 1_555
B5 Co1 2.183268 1_556
B5 Sc2 2.574718 1_565
B5 Sc2 2.574718 1_566
B5 Sc3 2.582486 1_455
B5 Sc3 2.582486 1_456
B6 B9 1.699233 1_555
B6 B7 1.703369 1_555
B6 Co2 2.183268 1_556
B6 Co2 2.183268 1_555
B6 Sc1 2.574718 1_555
B6 Sc1 2.574718 1_556
B6 Sc0 2.582486 1_556
B6 Sc0 2.582486 1_555
B7 B8 1.699233 1_555
B7 Co3 2.183268 1_555
B7 Co3 2.183268 1_556
B7 Sc0 2.574718 1_555
B7 Sc0 2.574718 1_556
B7 Sc1 2.582486 1_555
B7 Sc1 2.582486 1_556
B8 B9 1.691232 1_655
B8 Co2 2.206326 1_656
B8 Co2 2.206326 1_655
B8 Co3 2.229145 1_556
B8 Co3 2.229145 1_555
B8 Sc0 2.458795 1_555
B8 Sc0 2.458795 1_556
B9 Co3 2.206326 1_455
B9 Co3 2.206326 1_456
B9 Co2 2.229145 1_556
B9 Co2 2.229145 1_555
B9 Sc1 2.458795 1_555
B9 Sc1 2.458795 1_556
B10 B11 1.691232 1_545
B10 B5 1.699233 1_545
B10 B14 1.708818 1_555
B10 Co0 2.206326 1_556
B10 Co0 2.206326 1_555
B10 Co1 2.229145 1_545
B10 Co1 2.229145 1_546
B10 Sc2 2.458795 1_555
B10 Sc2 2.458795 1_556
B11 B4 1.699233 1_565
B11 B15 1.708818 1_555
B11 Co1 2.206326 1_555
B11 Co1 2.206326 1_556
B11 Co0 2.229145 1_565
B11 Co0 2.229145 1_566
B11 Sc3 2.458795 1_555
B11 Sc3 2.458795 1_556
B12 B8 1.708818 1_555
B12 B2 1.794988 1_655
B12 Co2 2.180341 1_656
B12 Co2 2.180341 1_655
B12 Sc2 2.526865 1_656
B12 Sc2 2.526865 1_655
B12 Sc0 2.619779 1_555
B12 Sc0 2.619779 1_556
B13 B9 1.708818 1_555
B13 B3 1.794988 1_455
B13 Co3 2.180341 1_455
B13 Co3 2.180341 1_456
B13 Sc3 2.526865 1_455
B13 Sc3 2.526865 1_456
B13 Sc1 2.619779 1_556
B13 Sc1 2.619779 1_555
B14 B2 1.723345 1_555
B14 Co0 2.180341 1_556
B14 Co0 2.180341 1_555
B14 Sc0 2.526865 1_555
B14 Sc0 2.526865 1_556
B14 Sc2 2.619779 1_556
B14 Sc2 2.619779 1_555
B15 B3 1.723345 1_555
B15 Co1 2.180341 1_555
B15 Co1 2.180341 1_556
B15 Sc1 2.526865 1_555
B15 Sc1 2.526865 1_556
B15 Sc3 2.619779 1_555
B15 Sc3 2.619779 1_556
