# generated using pymatgen
data_MgMn3(P2O7)2
_symmetry_space_group_name_H-M   'P 1'
_cell_length_a   7.63282900
_cell_length_b   7.53893000
_cell_length_c   9.74597385
_cell_angle_alpha   67.66051488
_cell_angle_beta   90.00000000
_cell_angle_gamma   90.00000000
_symmetry_Int_Tables_number   1
_chemical_formula_structural   MgMn3(P2O7)2
_chemical_formula_sum   'Mg2 Mn6 P8 O28'
_cell_volume   518.72574389
_cell_formula_units_Z   2
loop_
 _symmetry_equiv_pos_site_id
 _symmetry_equiv_pos_as_xyz
  1  'x, y, z'
loop_
 _atom_site_type_symbol
 _atom_site_label
 _atom_site_symmetry_multiplicity
 _atom_site_fract_x
 _atom_site_fract_y
 _atom_site_fract_z
 _atom_site_occupancy
  Mg  Mg0  1  0.00000000  0.50000000  0.00000000  1
  Mg  Mg1  1  0.50000000  0.50000000  0.50000000  1
  Mn  Mn0  1  0.12096000  0.80680400  0.52724200  1
  Mn  Mn1  1  0.62096000  0.19319600  0.97275800  1
  Mn  Mn2  1  0.87904000  0.19319600  0.47275800  1
  Mn  Mn3  1  0.37904000  0.80680400  0.02724200  1
  Mn  Mn4  1  0.00000000  0.00000000  0.00000000  1
  Mn  Mn5  1  0.50000000  0.00000000  0.50000000  1
  P  P0  1  0.91870000  0.40763200  0.70628100  1
  P  P1  1  0.41870000  0.59236800  0.79371900  1
  P  P2  1  0.08130000  0.59236800  0.29371900  1
  P  P3  1  0.58130000  0.40763200  0.20628100  1
  P  P4  1  0.20895300  0.14185900  0.68475800  1
  P  P5  1  0.70895300  0.85814100  0.81524200  1
  P  P6  1  0.79104700  0.85814100  0.31524200  1
  P  P7  1  0.29104700  0.14185900  0.18475800  1
  O  O0  1  0.38099700  0.21219600  0.59989700  1
  O  O1  1  0.88099700  0.78780400  0.90010300  1
  O  O2  1  0.61900300  0.78780400  0.40010300  1
  O  O3  1  0.11900300  0.21219600  0.09989700  1
  O  O4  1  0.38096500  0.71937000  0.62787500  1
  O  O5  1  0.88096500  0.28063000  0.87212500  1
  O  O6  1  0.61903500  0.28063000  0.37212500  1
  O  O7  1  0.11903500  0.71937000  0.12787500  1
  O  O8  1  0.78143400  0.38522400  0.59988900  1
  O  O9  1  0.28143400  0.61477600  0.90011100  1
  O  O10  1  0.21856600  0.61477600  0.40011100  1
  O  O11  1  0.71856600  0.38522400  0.09988900  1
  O  O12  1  0.10408600  0.33490500  0.66633900  1
  O  O13  1  0.60408600  0.66509500  0.83366100  1
  O  O14  1  0.89591400  0.66509500  0.33366100  1
  O  O15  1  0.39591400  0.33490500  0.16633900  1
  O  O16  1  0.53703600  0.60825900  0.19664100  1
  O  O17  1  0.03703600  0.39174100  0.30335900  1
  O  O18  1  0.46296400  0.39174100  0.80335900  1
  O  O19  1  0.96296400  0.60825900  0.69664100  1
  O  O20  1  0.77989000  0.97253700  0.14794600  1
  O  O21  1  0.27989000  0.02746300  0.35205400  1
  O  O22  1  0.22011000  0.02746300  0.85205400  1
  O  O23  1  0.72011000  0.97253700  0.64794600  1
  O  O24  1  0.40448300  0.03819300  0.10846000  1
  O  O25  1  0.90448300  0.96180700  0.39154000  1
  O  O26  1  0.59551700  0.96180700  0.89154000  1
  O  O27  1  0.09551700  0.03819300  0.60846000  1
loop_
_geom_bond_atom_site_label_1
_geom_bond_atom_site_label_2
_geom_bond_distance
_geom_bond_site_symmetry_2
Mg0 O3 2.207905 1_555
Mg0 O1 2.207905 1_454
Mg0 O9 2.381300 1_554
Mg0 O11 2.381300 1_455
Mg0 O7 2.584687 1_555
Mg0 O5 2.584687 1_454
Mg0 O17 2.766363 1_555
Mg0 O19 2.766363 1_454
Mg1 O2 2.207905 1_555
Mg1 O0 2.207905 1_555
Mg1 O8 2.381300 1_555
Mg1 O10 2.381300 1_555
Mg1 O4 2.584687 1_555
Mg1 O6 2.584687 1_555
Mg1 O18 2.766363 1_555
Mg1 O16 2.766363 1_555
Mn0 O19 2.131172 1_455
Mn0 O25 2.161021 1_455
Mn0 O27 2.181043 1_565
Mn0 O4 2.200791 1_555
Mn0 O21 2.234930 1_565
Mn0 O10 2.355747 1_555
Mn1 O18 2.131172 1_555
Mn1 O24 2.161021 1_556
Mn1 O26 2.181043 1_545
Mn1 O5 2.200791 1_555
Mn1 O20 2.234930 1_546
Mn1 O11 2.355747 1_556
Mn2 O17 2.131172 1_655
Mn2 O27 2.161021 1_655
Mn2 O25 2.181043 1_545
Mn2 O6 2.200791 1_555
Mn2 O23 2.234930 1_545
Mn2 O8 2.355747 1_555
Mn3 O16 2.131172 1_555
Mn3 O26 2.161021 1_554
Mn3 O24 2.181043 1_565
Mn3 O7 2.200791 1_555
Mn3 O22 2.234930 1_564
Mn3 O9 2.355747 1_554
Mn4 O20 2.171992 1_445
Mn4 O22 2.171992 1_554
Mn4 O7 2.202340 1_545
Mn4 O5 2.202340 1_454
Mn4 O3 2.348631 1_555
Mn4 O1 2.348631 1_444
Mn5 O23 2.171992 1_545
Mn5 O21 2.171992 1_555
Mn5 O4 2.202340 1_545
Mn5 O6 2.202340 1_555
Mn5 O0 2.348631 1_555
Mn5 O2 2.348631 1_545
O0 P4 1.535012 1_555
O1 P5 1.535012 1_555
O2 P6 1.535012 1_555
O3 P7 1.535012 1_555
O4 P1 1.560679 1_555
O5 P0 1.560679 1_555
O6 P3 1.560679 1_555
O7 P2 1.560679 1_555
O8 P0 1.527933 1_555
O9 P1 1.527933 1_555
O10 P2 1.527933 1_555
O11 P3 1.527933 1_555
O12 P4 1.610089 1_555
O12 P0 1.617615 1_455
O13 P5 1.610089 1_555
O13 P1 1.617615 1_555
O14 P6 1.610089 1_555
O14 P2 1.617615 1_655
O15 P7 1.610089 1_555
O15 P3 1.617615 1_555
O16 P3 1.517447 1_555
O17 P2 1.517447 1_555
O18 P1 1.517447 1_555
O19 P0 1.517447 1_555
O20 P6 1.529868 1_555
O21 P7 1.529868 1_555
O22 P4 1.529868 1_555
O23 P5 1.529868 1_555
O24 P7 1.534660 1_555
O25 P6 1.534660 1_555
O26 P5 1.534660 1_555
O27 P4 1.534660 1_555
