# generated using pymatgen
data_K3AsSe3
_symmetry_space_group_name_H-M   'P 1'
_cell_length_a   9.76369225
_cell_length_b   9.76365498
_cell_length_c   9.76359329
_cell_angle_alpha   90.00081593
_cell_angle_beta   89.99955336
_cell_angle_gamma   90.00021807
_symmetry_Int_Tables_number   1
_chemical_formula_structural   K3AsSe3
_chemical_formula_sum   'K12 As4 Se12'
_cell_volume   930.75673305
_cell_formula_units_Z   4
loop_
 _symmetry_equiv_pos_site_id
 _symmetry_equiv_pos_as_xyz
  1  'x, y, z'
loop_
 _atom_site_type_symbol
 _atom_site_label
 _atom_site_symmetry_multiplicity
 _atom_site_fract_x
 _atom_site_fract_y
 _atom_site_fract_z
 _atom_site_occupancy
  K  K0  1  0.81686877  0.18313437  0.68314680  1
  K  K1  1  0.68313778  0.81686690  0.18313074  1
  K  K2  1  0.18314407  0.68312601  0.81685464  1
  K  K3  1  0.31686045  0.31685757  0.31687089  1
  K  K4  1  0.18686642  0.31313447  0.68686877  1
  K  K5  1  0.31313452  0.68686212  0.18685633  1
  K  K6  1  0.68685971  0.18686669  0.31314077  1
  K  K7  1  0.81313619  0.81313930  0.81312602  1
  K  K8  1  0.42092531  0.07907688  0.92091894  1
  K  K9  1  0.07907796  0.92093265  0.42093245  1
  K  K10  1  0.92092459  0.42092460  0.07906261  1
  K  K11  1  0.57907445  0.57907169  0.57908938  1
  As  As0  1  0.02275490  0.02275781  0.02273221  1
  As  As1  1  0.47723540  0.97725535  0.52276927  1
  As  As2  1  0.97724907  0.52275219  0.47725395  1
  As  As3  1  0.52274864  0.47724170  0.97722785  1
  Se  Se0  1  0.28842918  0.40108237  0.99503934  1
  Se  Se1  1  0.78841568  0.09891424  0.00493379  1
  Se  Se2  1  0.71156512  0.90109356  0.50496596  1
  Se  Se3  1  0.09892819  0.00494594  0.78841500  1
  Se  Se4  1  0.50494592  0.71157940  0.90108351  1
  Se  Se5  1  0.00495573  0.78843553  0.09889327  1
  Se  Se6  1  0.40108415  0.99505039  0.28842918  1
  Se  Se7  1  0.99505978  0.28841342  0.40110629  1
  Se  Se8  1  0.90109120  0.50494174  0.71158809  1
  Se  Se9  1  0.59889531  0.49504442  0.21156578  1
  Se  Se10  1  0.49504802  0.21158537  0.59892015  1
  Se  Se11  1  0.21158349  0.59891132  0.49507502  1
loop_
_geom_bond_atom_site_label_1
_geom_bond_atom_site_label_2
_geom_bond_distance
_geom_bond_site_symmetry_2
K0 Se1 3.259493 1_556
K0 Se8 3.259685 1_555
K0 Se10 3.259854 1_555
K0 Se7 3.415629 1_555
K0 Se2 3.415641 1_545
K0 Se3 3.415771 1_655
K1 Se5 3.259824 1_655
K1 Se9 3.259878 1_555
K1 Se2 3.259923 1_555
K1 Se4 3.415709 1_554
K1 Se1 3.415729 1_565
K1 Se6 3.415762 1_555
K2 Se11 3.259377 1_555
K2 Se4 3.259679 1_555
K2 Se3 3.259800 1_565
K2 Se8 3.415668 1_455
K2 Se5 3.415671 1_556
K2 Se0 3.415675 1_555
K3 Se7 3.259666 1_455
K3 Se6 3.259692 1_545
K3 Se0 3.259911 1_554
K3 Se9 3.415654 1_555
K3 Se10 3.415687 1_555
K3 Se11 3.415779 1_555
K4 Se0 3.282352 1_555
K4 Se10 3.282437 1_555
K4 Se3 3.282468 1_555
K4 Se7 3.368970 1_455
K4 Se11 3.369029 1_555
K4 Se8 3.369088 1_455
K5 Se5 3.282540 1_555
K5 Se6 3.282551 1_555
K5 Se11 3.282764 1_555
K5 Se9 3.369028 1_555
K5 Se4 3.369058 1_554
K5 Se0 3.369128 1_554
K6 Se9 3.282533 1_555
K6 Se7 3.282643 1_555
K6 Se1 3.282658 1_555
K6 Se10 3.369109 1_555
K6 Se6 3.369126 1_545
K6 Se2 3.369165 1_545
K7 Se2 3.282323 1_555
K7 Se8 3.282547 1_555
K7 Se4 3.282569 1_555
K7 Se1 3.369050 1_566
K7 Se5 3.369073 1_656
K7 Se3 3.369207 1_665
K8 Se10 3.475853 1_555
K8 Se3 3.475856 1_555
K8 Se0 3.475863 1_555
K8 Se1 3.685731 1_556
K8 Se4 3.685794 1_545
K8 Se6 3.685918 1_546
K9 Se6 3.475896 1_555
K9 Se11 3.476105 1_555
K9 Se5 3.476144 1_555
K9 Se3 3.685611 1_565
K9 Se7 3.685631 1_465
K9 Se2 3.685975 1_455
K10 Se1 3.475965 1_555
K10 Se9 3.476101 1_555
K10 Se7 3.476297 1_555
K10 Se8 3.685558 1_554
K10 Se0 3.685876 1_654
K10 Se5 3.685937 1_655
K11 Se4 3.475789 1_555
K11 Se2 3.476004 1_555
K11 Se8 3.476021 1_555
K11 Se10 3.685698 1_555
K11 Se11 3.685740 1_555
K11 Se9 3.686014 1_555
As0 Se3 2.411902 1_554
As0 Se5 2.411932 1_545
As0 Se1 2.412080 1_455
As1 Se10 2.411963 1_565
As1 Se2 2.412007 1_555
As1 Se6 2.412052 1_555
As2 Se8 2.412016 1_555
As2 Se7 2.412033 1_555
As2 Se11 2.412052 1_655
As3 Se0 2.411906 1_555
As3 Se9 2.412018 1_556
As3 Se4 2.412029 1_555
