# generated using pymatgen
data_Li2VO2F
_symmetry_space_group_name_H-M   'P 1'
_cell_length_a   4.15381902
_cell_length_b   5.88144426
_cell_length_c   5.15815960
_cell_angle_alpha   108.06109111
_cell_angle_beta   113.73609439
_cell_angle_gamma   90.00893574
_symmetry_Int_Tables_number   1
_chemical_formula_structural   Li2VO2F
_chemical_formula_sum   'Li4 V2 O4 F2'
_cell_volume   108.53614767
_cell_formula_units_Z   2
loop_
 _symmetry_equiv_pos_site_id
 _symmetry_equiv_pos_as_xyz
  1  'x, y, z'
loop_
 _atom_site_type_symbol
 _atom_site_label
 _atom_site_symmetry_multiplicity
 _atom_site_fract_x
 _atom_site_fract_y
 _atom_site_fract_z
 _atom_site_occupancy
  Li  Li0  1  0.66515400  0.83421900  0.33039500  1
  Li  Li1  1  0.66441300  0.33047400  0.32876300  1
  Li  Li2  1  0.00206600  0.50136200  0.00409200  1
  Li  Li3  1  0.33383600  0.16401500  0.66771900  1
  V  V0  1  0.01805800  0.99975000  0.03610900  1
  V  V1  1  0.32021900  0.66628100  0.64061100  1
  O  O0  1  0.16438800  0.83520000  0.32888600  1
  O  O1  1  0.16614100  0.33450900  0.33202900  1
  O  O2  1  0.83731100  0.68073700  0.67458800  1
  O  O3  1  0.49394200  0.98803800  0.98780600  1
  F  F0  1  0.48777700  0.49803100  0.97558900  1
  F  F1  1  0.84669600  0.16738200  0.69340900  1
loop_
_geom_bond_atom_site_label_1
_geom_bond_atom_site_label_2
_geom_bond_distance
_geom_bond_site_symmetry_2
Li0 O0 2.076887 1_655
Li0 O0 2.076986 1_555
Li0 O3 2.103973 1_554
Li0 O2 2.109536 1_555
Li1 O1 2.076650 1_555
Li1 O1 2.077436 1_655
Li1 O3 2.109840 1_544
Li1 O2 2.152027 1_555
Li2 O0 2.041337 1_555
Li2 O1 2.095294 1_555
Li2 O2 2.155399 1_454
Li3 O0 2.050239 1_545
Li3 O3 2.101272 1_545
Li3 O1 2.143546 1_555
O0 V0 1.937576 1_555
O0 V1 2.035746 1_555
O1 V0 1.991230 1_545
O1 V1 2.001093 1_555
O2 V0 2.065044 1_656
O2 V1 2.082177 1_655
O2 V1 2.083050 1_555
O3 V1 2.041304 1_555
O3 V0 2.087856 1_656
O3 V0 2.088111 1_556
F0 Li3 2.009407 1_555
F0 Li2 2.080758 1_556
F0 Li2 2.081099 1_656
F0 Li0 2.114727 1_556
F0 V1 2.131062 1_555
F0 Li1 2.205799 1_556
F1 Li2 2.014500 1_656
F1 Li3 2.080077 1_655
F1 Li3 2.080227 1_555
F1 Li0 2.121824 1_545
F1 V0 2.161337 1_646
F1 Li1 2.236876 1_555
