# generated using pymatgen
data_Sm6N8O33
_symmetry_space_group_name_H-M   'P 1'
_cell_length_a   9.65905339
_cell_length_b   10.29451392
_cell_length_c   10.72162329
_cell_angle_alpha   118.83346426
_cell_angle_beta   115.42750312
_cell_angle_gamma   89.55335950
_symmetry_Int_Tables_number   1
_chemical_formula_structural   Sm6N8O33
_chemical_formula_sum   'Sm6 N8 O33'
_cell_volume   816.27224987
_cell_formula_units_Z   1
loop_
 _symmetry_equiv_pos_site_id
 _symmetry_equiv_pos_as_xyz
  1  'x, y, z'
loop_
 _atom_site_type_symbol
 _atom_site_label
 _atom_site_symmetry_multiplicity
 _atom_site_fract_x
 _atom_site_fract_y
 _atom_site_fract_z
 _atom_site_occupancy
  Sm  Sm0  1  0.83793400  0.91489200  0.60715200  1
  Sm  Sm1  1  0.16206600  0.08510800  0.39284800  1
  Sm  Sm2  1  0.80525500  0.78835300  0.18992700  1
  Sm  Sm3  1  0.19474500  0.21164700  0.81007300  1
  Sm  Sm4  1  0.16155200  0.81398000  0.52080800  1
  Sm  Sm5  1  0.83844800  0.18602000  0.47919200  1
  N  N0  1  0.35007100  0.70994100  0.85451500  1
  N  N1  1  0.64992900  0.29005900  0.14548500  1
  N  N2  1  0.58388500  0.88570800  0.68202200  1
  N  N3  1  0.41611500  0.11429200  0.31797800  1
  N  N4  1  0.83111100  0.51665700  0.65635000  1
  N  N5  1  0.16888900  0.48334300  0.34365000  1
  N  N6  1  0.67463500  0.46608900  0.91268700  1
  N  N7  1  0.32536500  0.53391100  0.08731300  1
  O  O0  1  0.88187600  0.73726700  0.39524400  1
  O  O1  1  0.11812400  0.26273300  0.60475600  1
  O  O2  1  0.46629700  0.87707300  0.70192700  1
  O  O3  1  0.53370300  0.12292700  0.29807300  1
  O  O4  1  0.61483100  0.32894500  0.81004000  1
  O  O5  1  0.38516900  0.67105500  0.18996000  1
  O  O6  1  0.35734700  0.62124100  0.72796000  1
  O  O7  1  0.64265300  0.37875900  0.27204000  1
  O  O8  1  0.10972300  0.96105100  0.73590600  1
  O  O9  1  0.89027700  0.03894900  0.26409400  1
  O  O10  1  0.92587400  0.16782800  0.70404400  1
  O  O11  1  0.07412600  0.83217200  0.29595600  1
  O  O12  1  0.60716100  0.76811200  0.58162700  1
  O  O13  1  0.39283900  0.23188800  0.41837300  1
  O  O14  1  0.82319100  0.52603800  0.98686600  1
  O  O15  1  0.17680900  0.47396200  0.01313400  1
  O  O16  1  0.71770900  0.92867600  0.37630600  1
  O  O17  1  0.28229100  0.07132400  0.62369400  1
  O  O18  1  0.22079000  0.69735100  0.85426200  1
  O  O19  1  0.77921000  0.30264900  0.14573800  1
  O  O20  1  0.31568300  0.98606500  0.23777900  1
  O  O21  1  0.68431700  0.01393500  0.76222100  1
  O  O22  1  0.00000000  0.00000000  0.50000000  1
  O  O23  1  0.46981800  0.81254800  0.98041600  1
  O  O24  1  0.53018200  0.18745200  0.01958400  1
  O  O25  1  0.91755200  0.47759100  0.58733900  1
  O  O26  1  0.08244800  0.52240900  0.41266100  1
  O  O27  1  0.83861900  0.65249800  0.74520000  1
  O  O28  1  0.16138100  0.34750200  0.25480000  1
  O  O29  1  0.58987500  0.55828600  0.95331800  1
  O  O30  1  0.41012500  0.44171400  0.04668200  1
  O  O31  1  0.73709800  0.40747900  0.62850300  1
  O  O32  1  0.26290200  0.59252100  0.37149700  1
loop_
_geom_bond_atom_site_label_1
_geom_bond_atom_site_label_2
_geom_bond_distance
_geom_bond_site_symmetry_2
N0 O6 1.251273 1_555
N0 O18 1.255154 1_555
N0 O23 1.256471 1_555
N1 O7 1.251273 1_555
N1 O19 1.255154 1_555
N1 O24 1.256471 1_555
N2 O2 1.253590 1_555
N2 O12 1.273352 1_555
N2 O21 1.277411 1_565
N3 O3 1.253590 1_555
N3 O13 1.273352 1_555
N3 O20 1.277411 1_545
N4 O27 1.235176 1_555
N4 O31 1.279218 1_555
N4 O25 1.282415 1_555
N5 O28 1.235176 1_555
N5 O32 1.279218 1_555
N5 O26 1.282415 1_555
N6 O4 1.227299 1_555
N6 O14 1.277793 1_555
N6 O29 1.286948 1_555
N7 O5 1.227299 1_555
N7 O15 1.277793 1_555
N7 O30 1.286948 1_555
O0 Sm2 2.319848 1_555
O0 Sm0 2.344063 1_555
O0 Sm4 2.370321 1_655
O1 Sm3 2.319848 1_555
O1 Sm1 2.344063 1_555
O1 Sm5 2.370321 1_455
O2 Sm4 2.600377 1_555
O3 Sm5 2.600377 1_555
O8 Sm0 2.301725 1_455
O8 Sm3 2.335708 1_565
O8 Sm4 2.339502 1_555
O9 Sm1 2.301725 1_655
O9 Sm2 2.335708 1_545
O9 Sm5 2.339502 1_555
O10 Sm3 2.286657 1_655
O10 Sm5 2.290158 1_555
O10 Sm0 2.290946 1_545
O11 Sm2 2.286657 1_455
O11 Sm4 2.290158 1_555
O11 Sm1 2.290946 1_565
O12 Sm0 2.540978 1_555
O13 Sm1 2.540978 1_555
O14 Sm2 2.590004 1_556
O15 Sm3 2.590004 1_554
O16 Sm0 2.315713 1_555
O16 Sm2 2.332965 1_555
O16 Sm5 2.391663 1_565
O17 Sm1 2.315713 1_555
O17 Sm3 2.332965 1_555
O17 Sm4 2.391663 1_545
O20 Sm1 2.542688 1_565
O21 Sm0 2.542688 1_545
O22 Sm4 2.493681 1_545
O22 Sm5 2.493681 1_455
O22 Sm3 2.654246 1_555
O22 Sm2 2.654246 1_445
O22 Sm1 2.659803 1_555
O22 Sm0 2.659803 1_445
O23 Sm2 3.143674 1_556
O24 Sm3 3.143674 1_554
O25 Sm5 2.618358 1_555
O26 Sm4 2.618358 1_555
O29 Sm2 2.474368 1_556
O30 Sm3 2.474368 1_554
O31 Sm5 2.551351 1_555
O32 Sm4 2.551351 1_555
