# generated using pymatgen
data_Sr3NiIrO6
_symmetry_space_group_name_H-M   'P 1'
_cell_length_a   6.73850083
_cell_length_b   6.73850178
_cell_length_c   6.73850099
_cell_angle_alpha   91.72416420
_cell_angle_beta   91.72416110
_cell_angle_gamma   91.72416765
_symmetry_Int_Tables_number   1
_chemical_formula_structural   Sr3NiIrO6
_chemical_formula_sum   'Sr6 Ni2 Ir2 O12'
_cell_volume   305.55368879
_cell_formula_units_Z   2
loop_
 _symmetry_equiv_pos_site_id
 _symmetry_equiv_pos_as_xyz
  1  'x, y, z'
loop_
 _atom_site_type_symbol
 _atom_site_label
 _atom_site_symmetry_multiplicity
 _atom_site_fract_x
 _atom_site_fract_y
 _atom_site_fract_z
 _atom_site_occupancy
  Sr  Sr0  1  0.74999900  0.38637400  0.11362600  1
  Sr  Sr1  1  0.61362500  0.88637400  0.25000000  1
  Sr  Sr2  1  0.11362600  0.75000000  0.38637400  1
  Sr  Sr3  1  0.25000000  0.61362600  0.88637300  1
  Sr  Sr4  1  0.88637400  0.25000100  0.61362700  1
  Sr  Sr5  1  0.38637400  0.11362600  0.75000000  1
  Ni  Ni0  1  0.75000100  0.75000000  0.75000000  1
  Ni  Ni1  1  0.25000000  0.24999900  0.25000000  1
  Ir  Ir0  1  0.50000000  0.50000000  0.49999900  1
  Ir  Ir1  1  0.00000000  0.00000000  0.00000000  1
  O  O0  1  0.78769400  0.59114400  0.46424100  1
  O  O1  1  0.59114300  0.46424000  0.78769400  1
  O  O2  1  0.46424100  0.78769300  0.59114400  1
  O  O3  1  0.03575900  0.90885700  0.71230600  1
  O  O4  1  0.90885700  0.71230700  0.03575800  1
  O  O5  1  0.71230700  0.03575900  0.90885700  1
  O  O6  1  0.21230700  0.40885700  0.53575900  1
  O  O7  1  0.40885600  0.53575900  0.21230700  1
  O  O8  1  0.53575800  0.21230600  0.40885600  1
  O  O9  1  0.96424100  0.09114300  0.28769300  1
  O  O10  1  0.28769300  0.96424100  0.09114300  1
  O  O11  1  0.09114400  0.28769400  0.96424100  1
loop_
_geom_bond_atom_site_label_1
_geom_bond_atom_site_label_2
_geom_bond_distance
_geom_bond_site_symmetry_2
Ni0 O4 2.199999 1_556
Ni0 O3 2.200003 1_655
Ni0 O0 2.200005 1_555
Ni0 O5 2.200009 1_565
Ni0 O2 2.200011 1_555
Ni0 O1 2.200018 1_555
Ni1 O8 2.199999 1_555
Ni1 O10 2.200002 1_545
Ni1 O9 2.200005 1_455
Ni1 O11 2.200007 1_554
Ni1 O7 2.200011 1_555
Ni1 O6 2.200011 1_555
Ir0 O7 2.039328 1_555
Ir0 O6 2.039334 1_555
Ir0 O2 2.039337 1_555
Ir0 O8 2.039338 1_555
Ir0 O0 2.039340 1_555
Ir0 O1 2.039347 1_555
Ir1 O4 2.039332 1_445
Ir1 O10 2.039333 1_545
Ir1 O5 2.039333 1_454
Ir1 O9 2.039333 1_455
Ir1 O3 2.039339 1_544
Ir1 O11 2.039341 1_554
O0 Sr2 2.491296 1_655
O0 Sr4 2.632658 1_555
O0 Sr0 2.701311 1_555
O0 Sr1 2.762082 1_555
O1 Sr0 2.491295 1_556
O1 Sr3 2.632656 1_555
O1 Sr5 2.701301 1_555
O1 Sr4 2.762074 1_555
O2 Sr5 2.491303 1_565
O2 Sr1 2.632660 1_555
O2 Sr2 2.701310 1_555
O2 Sr3 2.762071 1_555
O3 Sr2 2.491299 1_555
O3 Sr4 2.632659 1_465
O3 Sr5 2.701307 1_565
O3 Sr3 2.762082 1_555
O4 Sr0 2.491310 1_555
O4 Sr3 2.632657 1_654
O4 Sr2 2.701312 1_655
O4 Sr1 2.762090 1_555
O5 Sr5 2.491305 1_555
O5 Sr1 2.632658 1_546
O5 Sr0 2.701306 1_556
O5 Sr4 2.762080 1_555
O6 Sr4 2.491304 1_455
O6 Sr2 2.632657 1_555
O6 Sr3 2.701301 1_555
O6 Sr5 2.762082 1_555
O7 Sr3 2.491308 1_554
O7 Sr0 2.632657 1_555
O7 Sr1 2.701307 1_555
O7 Sr2 2.762076 1_555
O8 Sr1 2.491297 1_545
O8 Sr5 2.632658 1_555
O8 Sr4 2.701320 1_555
O8 Sr0 2.762079 1_555
O9 Sr4 2.491314 1_555
O9 Sr2 2.632657 1_645
O9 Sr1 2.701312 1_545
O9 Sr0 2.762085 1_555
O10 Sr1 2.491299 1_555
O10 Sr5 2.632657 1_564
O10 Sr3 2.701310 1_554
O10 Sr2 2.762081 1_555
O11 Sr3 2.491298 1_555
O11 Sr0 2.632667 1_456
O11 Sr4 2.701304 1_455
O11 Sr5 2.762079 1_555
