# generated using pymatgen
data_Sc3(VGe2)2
_symmetry_space_group_name_H-M   'P 1'
_cell_length_a   6.84513500
_cell_length_b   7.06733600
_cell_length_c   13.50315000
_cell_angle_alpha   90.00000000
_cell_angle_beta   90.00000000
_cell_angle_gamma   90.00000000
_symmetry_Int_Tables_number   1
_chemical_formula_structural   Sc3(VGe2)2
_chemical_formula_sum   'Sc12 V8 Ge16'
_cell_volume   653.24011878
_cell_formula_units_Z   4
loop_
 _symmetry_equiv_pos_site_id
 _symmetry_equiv_pos_as_xyz
  1  'x, y, z'
loop_
 _atom_site_type_symbol
 _atom_site_label
 _atom_site_symmetry_multiplicity
 _atom_site_fract_x
 _atom_site_fract_y
 _atom_site_fract_z
 _atom_site_occupancy
  Sc  Sc0  1  0.15915200  0.50687600  0.75000000  1
  Sc  Sc1  1  0.84084800  0.49312400  0.25000000  1
  Sc  Sc2  1  0.34084800  0.00687600  0.25000000  1
  Sc  Sc3  1  0.65915200  0.99312400  0.75000000  1
  Sc  Sc4  1  0.33128300  0.16820300  0.62374000  1
  Sc  Sc5  1  0.66871700  0.83179700  0.37626000  1
  Sc  Sc6  1  0.16871700  0.66820300  0.37626000  1
  Sc  Sc7  1  0.66871700  0.83179700  0.12374000  1
  Sc  Sc8  1  0.83128300  0.33179700  0.62374000  1
  Sc  Sc9  1  0.33128300  0.16820300  0.87626000  1
  Sc  Sc10  1  0.83128300  0.33179700  0.87626000  1
  Sc  Sc11  1  0.16871700  0.66820300  0.12374000  1
  V  V0  1  0.01196200  0.18521400  0.09692400  1
  V  V1  1  0.98803800  0.81478600  0.90307600  1
  V  V2  1  0.48803800  0.68521400  0.90307600  1
  V  V3  1  0.98803800  0.81478600  0.59692400  1
  V  V4  1  0.51196200  0.31478600  0.09692400  1
  V  V5  1  0.01196200  0.18521400  0.40307600  1
  V  V6  1  0.51196200  0.31478600  0.40307600  1
  V  V7  1  0.48803800  0.68521400  0.59692400  1
  Ge  Ge0  1  0.02577200  0.10195100  0.75000000  1
  Ge  Ge1  1  0.97422800  0.89804900  0.25000000  1
  Ge  Ge2  1  0.47422800  0.60195100  0.25000000  1
  Ge  Ge3  1  0.52577200  0.39804900  0.75000000  1
  Ge  Ge4  1  0.29643700  0.85204500  0.75000000  1
  Ge  Ge5  1  0.70356300  0.14795500  0.25000000  1
  Ge  Ge6  1  0.20356300  0.35204500  0.25000000  1
  Ge  Ge7  1  0.79643700  0.64795500  0.75000000  1
  Ge  Ge8  1  0.17958700  0.47367600  0.54316300  1
  Ge  Ge9  1  0.82041300  0.52632400  0.45683700  1
  Ge  Ge10  1  0.32041300  0.97367600  0.45683700  1
  Ge  Ge11  1  0.82041300  0.52632400  0.04316300  1
  Ge  Ge12  1  0.67958700  0.02632400  0.54316300  1
  Ge  Ge13  1  0.17958700  0.47367600  0.95683700  1
  Ge  Ge14  1  0.67958700  0.02632400  0.95683700  1
  Ge  Ge15  1  0.32041300  0.97367600  0.04316300  1
loop_
_geom_bond_atom_site_label_1
_geom_bond_atom_site_label_2
_geom_bond_distance
_geom_bond_site_symmetry_2
Ge0 Ge4 2.559687 1_545
Ge0 Sc3 2.624776 1_445
Ge0 Sc8 2.705134 1_455
Ge0 Sc10 2.705134 1_455
Ge0 Sc4 2.738491 1_555
Ge0 Sc9 2.738491 1_555
Ge0 V3 2.908277 1_445
Ge0 V1 2.908277 1_445
Ge0 Sc0 3.003854 1_555
Ge1 Ge5 2.559687 1_565
Ge1 Sc2 2.624776 1_665
Ge1 Sc6 2.705134 1_655
Ge1 Sc11 2.705134 1_655
Ge1 Sc5 2.738491 1_555
Ge1 Sc7 2.738491 1_555
Ge1 V5 2.908277 1_665
Ge1 V0 2.908277 1_665
Ge1 Sc1 3.003854 1_555
Ge2 Ge6 2.559687 1_555
Ge2 Sc1 2.624776 1_555
Ge2 Sc5 2.705134 1_555
Ge2 Sc7 2.705134 1_555
Ge2 Sc6 2.738491 1_555
Ge2 Sc11 2.738491 1_555
Ge2 V6 2.908277 1_555
Ge2 V4 2.908277 1_555
Ge2 Sc2 3.003854 1_565
Ge3 Ge7 2.559687 1_555
Ge3 Sc0 2.624776 1_555
Ge3 Sc9 2.705134 1_555
Ge3 Sc4 2.705134 1_555
Ge3 Sc8 2.738491 1_555
Ge3 Sc10 2.738491 1_555
Ge3 V2 2.908277 1_555
Ge3 V7 2.908277 1_555
Ge3 Sc3 3.003854 1_545
Ge4 Sc0 2.614172 1_555
Ge4 Sc3 2.675551 1_555
Ge4 V2 2.717132 1_555
Ge4 V7 2.717132 1_555
Ge4 Sc4 2.820660 1_565
Ge4 Sc9 2.820660 1_565
Ge4 V1 2.966196 1_455
Ge4 V3 2.966196 1_455
Ge5 Sc1 2.614172 1_555
Ge5 Sc2 2.675551 1_555
Ge5 V4 2.717132 1_555
Ge5 V6 2.717132 1_555
Ge5 Sc5 2.820660 1_545
Ge5 Sc7 2.820660 1_545
Ge5 V5 2.966196 1_655
Ge5 V0 2.966196 1_655
Ge6 Sc2 2.614172 1_555
Ge6 Sc1 2.675551 1_455
Ge6 V0 2.717132 1_555
Ge6 V5 2.717132 1_555
Ge6 Sc6 2.820660 1_555
Ge6 Sc11 2.820660 1_555
Ge6 V6 2.966196 1_555
Ge6 V4 2.966196 1_555
Ge7 Sc3 2.614172 1_555
Ge7 Sc0 2.675551 1_655
Ge7 V1 2.717132 1_555
Ge7 V3 2.717132 1_555
Ge7 Sc10 2.820660 1_555
Ge7 Sc8 2.820660 1_555
Ge7 V2 2.966196 1_555
Ge7 V7 2.966196 1_555
Ge8 Sc4 2.631128 1_555
Ge8 Sc6 2.640987 1_555
Ge8 V7 2.687008 1_555
Ge8 Ge9 2.746256 1_455
Ge8 Sc8 2.805995 1_455
Ge8 Sc0 2.806278 1_555
Ge8 V3 2.838634 1_455
Ge8 V5 3.008471 1_555
Ge8 V6 3.164727 1_555
Ge9 Sc5 2.631128 1_555
Ge9 Sc8 2.640987 1_555
Ge9 V6 2.687008 1_555
Ge9 Sc6 2.805995 1_655
Ge9 Sc1 2.806278 1_555
Ge9 V5 2.838634 1_655
Ge9 V3 3.008471 1_555
Ge9 V7 3.164727 1_555
Ge10 Sc6 2.631128 1_555
Ge10 Sc4 2.640987 1_565
Ge10 V5 2.687008 1_565
Ge10 Ge12 2.746256 1_565
Ge10 Sc5 2.805995 1_555
Ge10 Sc2 2.806278 1_565
Ge10 V6 2.838634 1_565
Ge10 V7 3.008471 1_555
Ge10 V3 3.164727 1_455
Ge11 Sc7 2.631128 1_555
Ge11 Sc10 2.640987 1_554
Ge11 V4 2.687008 1_555
Ge11 Ge13 2.746256 1_654
Ge11 Sc11 2.805995 1_655
Ge11 Sc1 2.806278 1_555
Ge11 V0 2.838634 1_655
Ge11 V1 3.008471 1_554
Ge11 V2 3.164727 1_554
Ge12 Sc8 2.631128 1_555
Ge12 Sc5 2.640987 1_545
Ge12 V3 2.687008 1_545
Ge12 Sc4 2.805995 1_555
Ge12 Sc3 2.806278 1_545
Ge12 V7 2.838634 1_545
Ge12 V6 3.008471 1_555
Ge12 V5 3.164727 1_655
Ge13 Sc9 2.631128 1_555
Ge13 Sc11 2.640987 1_556
Ge13 V2 2.687008 1_555
Ge13 Sc10 2.805995 1_455
Ge13 Sc0 2.806278 1_555
Ge13 V1 2.838634 1_455
Ge13 V0 3.008471 1_556
Ge13 V4 3.164727 1_556
Ge14 Sc10 2.631128 1_555
Ge14 Sc7 2.640987 1_546
Ge14 V1 2.687008 1_545
Ge14 Ge15 2.746256 1_546
Ge14 Sc9 2.805995 1_555
Ge14 Sc3 2.806278 1_545
Ge14 V2 2.838634 1_545
Ge14 V4 3.008471 1_556
Ge14 V0 3.164727 1_656
Ge15 Sc11 2.631128 1_555
Ge15 Sc9 2.640987 1_564
Ge15 V0 2.687008 1_565
Ge15 Sc7 2.805995 1_555
Ge15 Sc2 2.806278 1_565
Ge15 V4 2.838634 1_565
Ge15 V2 3.008471 1_554
Ge15 V1 3.164727 1_454
