# generated using pymatgen
data_TbWC2
_symmetry_space_group_name_H-M   'P 1'
_cell_length_a   3.39415467
_cell_length_b   5.73388329
_cell_length_c   10.78950805
_cell_angle_alpha   90.00000000
_cell_angle_beta   90.00000000
_cell_angle_gamma   90.00000000
_symmetry_Int_Tables_number   1
_chemical_formula_structural   TbWC2
_chemical_formula_sum   'Tb4 W4 C8'
_cell_volume   209.98202581
_cell_formula_units_Z   4
loop_
 _symmetry_equiv_pos_site_id
 _symmetry_equiv_pos_as_xyz
  1  'x, y, z'
loop_
 _atom_site_type_symbol
 _atom_site_label
 _atom_site_symmetry_multiplicity
 _atom_site_fract_x
 _atom_site_fract_y
 _atom_site_fract_z
 _atom_site_occupancy
  Tb  Tb0  1  0.25000000  0.08584759  0.86256106  1
  Tb  Tb1  1  0.25000000  0.58584759  0.63743894  1
  Tb  Tb2  1  0.75000000  0.91415241  0.13743894  1
  Tb  Tb3  1  0.75000000  0.41415241  0.36256106  1
  W  W0  1  0.25000000  0.40400650  0.11104373  1
  W  W1  1  0.25000000  0.90400650  0.38895627  1
  W  W2  1  0.75000000  0.59599350  0.88895627  1
  W  W3  1  0.75000000  0.09599350  0.61104373  1
  C  C0  1  0.25000000  0.15976124  0.24717717  1
  C  C1  1  0.25000000  0.65976124  0.25282283  1
  C  C2  1  0.75000000  0.84023876  0.75282283  1
  C  C3  1  0.75000000  0.34023876  0.74717717  1
  C  C4  1  0.25000000  0.71934750  0.98183797  1
  C  C5  1  0.25000000  0.21934750  0.51816203  1
  C  C6  1  0.75000000  0.28065250  0.01816203  1
  C  C7  1  0.75000000  0.78065250  0.48183797  1
loop_
_geom_bond_atom_site_label_1
_geom_bond_atom_site_label_2
_geom_bond_distance
_geom_bond_site_symmetry_2
C0 W0 2.029467 1_555
C0 W1 2.119102 1_545
C0 Tb2 2.503051 1_445
C0 Tb2 2.503051 1_545
C0 Tb3 2.560780 1_455
C0 Tb3 2.560780 1_555
C1 W1 2.029467 1_555
C1 W0 2.119102 1_555
C1 Tb3 2.503051 1_555
C1 Tb3 2.503051 1_455
C1 Tb2 2.560780 1_455
C1 Tb2 2.560780 1_555
C2 W2 2.029467 1_555
C2 W3 2.119102 1_565
C2 Tb0 2.503051 1_565
C2 Tb0 2.503051 1_665
C2 Tb1 2.560780 1_555
C2 Tb1 2.560780 1_655
C3 W3 2.029467 1_555
C3 W2 2.119102 1_555
C3 Tb1 2.503051 1_555
C3 Tb1 2.503051 1_655
C3 Tb0 2.560780 1_655
C3 Tb0 2.560780 1_555
C4 W2 2.093954 1_455
C4 W2 2.093954 1_555
C4 W0 2.283145 1_556
C4 Tb0 2.464221 1_565
C4 Tb2 2.635583 1_456
C4 Tb2 2.635583 1_556
C5 W3 2.093954 1_455
C5 W3 2.093954 1_555
C5 W1 2.283145 1_545
C5 Tb1 2.464221 1_555
C5 Tb3 2.635583 1_455
C5 Tb3 2.635583 1_555
C6 W0 2.093954 1_655
C6 W0 2.093954 1_555
C6 W2 2.283145 1_554
C6 Tb2 2.464221 1_545
C6 Tb0 2.635583 1_554
C6 Tb0 2.635583 1_654
C7 W1 2.093954 1_555
C7 W1 2.093954 1_655
C7 W3 2.283145 1_565
C7 Tb3 2.464221 1_555
C7 Tb1 2.635583 1_555
C7 Tb1 2.635583 1_655
