# generated using pymatgen
data_B10H33C10I
_symmetry_space_group_name_H-M   'P 1'
_cell_length_a   9.61898600
_cell_length_b   10.01187975
_cell_length_c   13.57716956
_cell_angle_alpha   106.61211507
_cell_angle_beta   105.22083861
_cell_angle_gamma   90.41430995
_symmetry_Int_Tables_number   1
_chemical_formula_structural   B10H33C10I
_chemical_formula_sum   'B20 H66 C20 I2'
_cell_volume   1204.21382877
_cell_formula_units_Z   2
loop_
 _symmetry_equiv_pos_site_id
 _symmetry_equiv_pos_as_xyz
  1  'x, y, z'
loop_
 _atom_site_type_symbol
 _atom_site_label
 _atom_site_symmetry_multiplicity
 _atom_site_fract_x
 _atom_site_fract_y
 _atom_site_fract_z
 _atom_site_occupancy
  B  B0  1  0.11673600  0.63307800  0.38280100  1
  B  B1  1  0.88326400  0.36692200  0.61719900  1
  B  B2  1  0.22220300  0.66412100  0.30017400  1
  B  B3  1  0.77779700  0.33587900  0.69982600  1
  B  B4  1  0.14522200  0.80381700  0.37515600  1
  B  B5  1  0.85477800  0.19618300  0.62484400  1
  B  B6  1  0.11187400  0.78026600  0.49158700  1
  B  B7  1  0.88812600  0.21973400  0.50841300  1
  B  B8  1  0.28109200  0.55773900  0.38671300  1
  B  B9  1  0.71890800  0.44226100  0.61328700  1
  B  B10  1  0.40669200  0.66659900  0.35739700  1
  B  B11  1  0.59330800  0.33340100  0.64260300  1
  B  B12  1  0.32480600  0.82967800  0.37526500  1
  B  B13  1  0.67519400  0.17032200  0.62473500  1
  B  B14  1  0.25325500  0.90493800  0.50015900  1
  B  B15  1  0.74674500  0.09506200  0.49984100  1
  B  B16  1  0.26859200  0.80977100  0.59657000  1
  B  B17  1  0.73140800  0.19022900  0.40343000  1
  B  B18  1  0.20632300  0.63316900  0.51335800  1
  B  B19  1  0.79367700  0.36683100  0.48664200  1
  H  H0  1  0.53721300  0.50865300  0.28505400  1
  H  H1  1  0.46278700  0.49134700  0.71494600  1
  H  H2  1  0.64119500  0.66318400  0.37185100  1
  H  H3  1  0.35880500  0.33681600  0.62814900  1
  H  H4  1  0.52855000  0.79027300  0.23408500  1
  H  H5  1  0.47145000  0.20972700  0.76591500  1
  H  H6  1  0.43750700  0.62957000  0.14788100  1
  H  H7  1  0.56249300  0.37043000  0.85211900  1
  H  H8  1  0.68518000  0.53326500  0.15186600  1
  H  H9  1  0.31482000  0.46673500  0.84813400  1
  H  H10  1  0.76661900  0.70241100  0.22806700  1
  H  H11  1  0.23338100  0.29758900  0.77193300  1
  H  H12  1  0.55339800  0.62431100  0.00357200  1
  H  H13  1  0.44660200  0.37568900  0.99642800  1
  H  H14  1  0.62640500  0.79623600  0.07925400  1
  H  H15  1  0.37359500  0.20376400  0.92074600  1
  H  H16  1  0.80566300  0.55289600  0.00410000  1
  H  H17  1  0.19433700  0.44710400  0.99590000  1
  H  H18  1  0.76219200  0.69115400  0.94623900  1
  H  H19  1  0.23780800  0.30884600  0.05376100  1
  H  H20  1  0.87720100  0.72700800  0.07878500  1
  H  H21  1  0.12279900  0.27299200  0.92121500  1
  H  H22  1  0.26799000  0.98378300  0.73539400  1
  H  H23  1  0.73201000  0.01621700  0.26460600  1
  H  H24  1  0.41892000  0.88817400  0.75944400  1
  H  H25  1  0.58108000  0.11182600  0.24055600  1
  H  H26  1  0.11069200  0.77393700  0.73800600  1
  H  H27  1  0.88930800  0.22606300  0.26199400  1
  H  H28  1  0.27182500  0.69710500  0.77742500  1
  H  H29  1  0.72817500  0.30289500  0.22257500  1
  H  H30  1  0.19337700  0.98205800  0.89958200  1
  H  H31  1  0.80662300  0.01794200  0.10041800  1
  H  H32  1  0.35875300  0.91157700  0.93970900  1
  H  H33  1  0.64124700  0.08842300  0.06029100  1
  H  H34  1  0.06021100  0.77308200  0.91492800  1
  H  H35  1  0.93978900  0.22691800  0.08507200  1
  H  H36  1  0.22742300  0.70812800  0.95924600  1
  H  H37  1  0.77257700  0.29187200  0.04075400  1
  H  H38  1  0.13178600  0.99067100  0.07261100  1
  H  H39  1  0.86821400  0.00932900  0.92738900  1
  H  H40  1  0.14207900  0.83754700  0.11542100  1
  H  H41  1  0.85792100  0.16245300  0.88457900  1
  H  H42  1  0.30222700  0.92845500  0.11638500  1
  H  H43  1  0.69777300  0.07154500  0.88361500  1
  H  H44  1  0.01099800  0.55342000  0.34027300  1
  H  H45  1  0.98900200  0.44658000  0.65972700  1
  H  H46  1  0.17252800  0.62111800  0.20529600  1
  H  H47  1  0.82747200  0.37888200  0.79470400  1
  H  H48  1  0.06240400  0.86661700  0.32723000  1
  H  H49  1  0.93759600  0.13338300  0.67277000  1
  H  H50  1  0.99773700  0.80752100  0.50790900  1
  H  H51  1  0.00226300  0.19247900  0.49209100  1
  H  H52  1  0.36079800  0.91445500  0.33831800  1
  H  H53  1  0.63920200  0.08554500  0.66168200  1
  H  H54  1  0.25279300  0.02910800  0.52845300  1
  H  H55  1  0.74720700  0.97089200  0.47154700  1
  H  H56  1  0.16938200  0.54741900  0.54902300  1
  H  H57  1  0.83061800  0.45258100  0.45097700  1
  H  H58  1  0.41438400  0.60799200  0.43978900  1
  H  H59  1  0.58561600  0.39200800  0.56021100  1
  H  H60  1  0.44260700  0.79515800  0.43340000  1
  H  H61  1  0.55739300  0.20484200  0.56660000  1
  H  H62  1  0.36754900  0.87459600  0.56441300  1
  H  H63  1  0.63245100  0.12540400  0.43558700  1
  H  H64  1  0.33579700  0.68785000  0.57391600  1
  H  H65  1  0.66420300  0.31215000  0.42608400  1
  C  C0  1  0.53853100  0.62362400  0.30889100  1
  C  C1  1  0.46146900  0.37637600  0.69110900  1
  C  C2  1  0.53682500  0.67653700  0.21254400  1
  C  C3  1  0.46317500  0.32346300  0.78745600  1
  C  C4  1  0.66728200  0.64515900  0.16774600  1
  C  C5  1  0.33271800  0.35484100  0.83225400  1
  C  C6  1  0.64948500  0.68568900  0.06491000  1
  C  C7  1  0.35051500  0.31431100  0.93509000  1
  C  C8  1  0.78066700  0.66289200  0.02087600  1
  C  C9  1  0.21933300  0.33710800  0.97912400  1
  C  C10  1  0.30090800  0.87619000  0.72205300  1
  C  C11  1  0.69909200  0.12381000  0.27794700  1
  C  C12  1  0.22710700  0.79871800  0.78029900  1
  C  C13  1  0.77289300  0.20128200  0.21970100  1
  C  C14  1  0.24274200  0.88244600  0.89674900  1
  C  C15  1  0.75725800  0.11755400  0.10325100  1
  C  C16  1  0.17539800  0.80548600  0.95776300  1
  C  C17  1  0.82460200  0.19451400  0.04223700  1
  C  C18  1  0.18800600  0.89522700  0.07184900  1
  C  C19  1  0.81199400  0.10477300  0.92815100  1
  I  I0  1  0.28533500  0.32972600  0.33734300  1
  I  I1  1  0.71466500  0.67027400  0.66265700  1
loop_
_geom_bond_atom_site_label_1
_geom_bond_atom_site_label_2
_geom_bond_distance
_geom_bond_site_symmetry_2
B0 H44 1.191857 1_555
B1 H45 1.191857 1_555
B2 H46 1.195736 1_555
B3 H47 1.195736 1_555
B4 H48 1.192617 1_555
B5 H49 1.192617 1_555
B6 H50 1.194329 1_455
B7 H51 1.194329 1_655
B8 H58 1.309398 1_555
B8 I0 2.191598 1_555
B9 H59 1.309398 1_555
B9 I1 2.191598 1_555
B10 H60 1.373972 1_555
B10 H58 1.390548 1_555
B10 C0 1.584763 1_555
B11 H61 1.373972 1_555
B11 H59 1.390548 1_555
B11 C1 1.584763 1_555
B12 H52 1.192607 1_555
B12 H60 1.310895 1_555
B13 H53 1.192607 1_555
B13 H61 1.310895 1_555
B14 H54 1.192052 1_565
B14 H62 1.309490 1_555
B15 H55 1.192052 1_545
B15 H63 1.309490 1_555
B16 H62 1.374482 1_555
B16 H64 1.379725 1_555
B16 C10 1.585111 1_555
B17 H63 1.374482 1_555
B17 H65 1.379725 1_555
B17 C11 1.585111 1_555
B18 H56 1.192238 1_555
B18 H64 1.312201 1_555
B19 H57 1.192238 1_555
B19 H65 1.312201 1_555
C0 H0 1.102046 1_555
C0 H2 1.104671 1_555
C0 C2 1.541811 1_555
C1 H1 1.102046 1_555
C1 H3 1.104671 1_555
C1 C3 1.541811 1_555
C2 H4 1.100748 1_555
C2 H6 1.105268 1_555
C3 H5 1.100748 1_555
C3 H7 1.105268 1_555
C4 H8 1.102407 1_555
C4 H10 1.106830 1_555
C5 H9 1.102407 1_555
C5 H11 1.106830 1_555
C6 H14 1.102358 1_555
C6 H12 1.104732 1_555
C7 H15 1.102358 1_555
C7 H13 1.104732 1_555
C8 H18 1.099391 1_554
C8 H16 1.100745 1_555
C8 H20 1.100869 1_555
C9 H19 1.099391 1_556
C9 H17 1.100745 1_555
C9 H21 1.100869 1_555
C10 H22 1.103145 1_555
C10 H24 1.105128 1_555
C10 C12 1.538990 1_555
C11 H23 1.103145 1_555
C11 H25 1.105128 1_555
C11 C13 1.538990 1_555
C12 H28 1.101800 1_555
C12 H26 1.105493 1_555
C13 H29 1.101800 1_555
C13 H27 1.105493 1_555
C14 H30 1.102757 1_555
C14 H32 1.107602 1_555
C15 H31 1.102757 1_555
C15 H33 1.107602 1_555
C16 H36 1.101785 1_555
C16 H34 1.104390 1_555
C17 H37 1.101785 1_555
C17 H35 1.104390 1_555
C18 H40 1.098863 1_555
C18 H38 1.100195 1_555
C18 H42 1.101944 1_555
C19 H41 1.098863 1_555
C19 H39 1.100195 1_555
C19 H43 1.101944 1_555
