# generated using pymatgen
data_TiCo5O12
_symmetry_space_group_name_H-M   'P 1'
_cell_length_a   4.95490316
_cell_length_b   4.95558237
_cell_length_c   21.05450132
_cell_angle_alpha   89.81074062
_cell_angle_beta   90.24991191
_cell_angle_gamma   119.97018929
_symmetry_Int_Tables_number   1
_chemical_formula_structural   TiCo5O12
_chemical_formula_sum   'Ti2 Co10 O24'
_cell_volume   447.84872848
_cell_formula_units_Z   2
loop_
 _symmetry_equiv_pos_site_id
 _symmetry_equiv_pos_as_xyz
  1  'x, y, z'
loop_
 _atom_site_type_symbol
 _atom_site_label
 _atom_site_symmetry_multiplicity
 _atom_site_fract_x
 _atom_site_fract_y
 _atom_site_fract_z
 _atom_site_occupancy
  Ti  Ti0  1  0.99985100  0.99975900  0.99602800  1
  Ti  Ti1  1  0.99999500  0.99995300  0.49892000  1
  Co  Co0  1  0.50000100  0.99998900  0.75209700  1
  Co  Co1  1  0.83341200  0.66668000  0.75207300  1
  Co  Co2  1  0.16659600  0.33329200  0.75207700  1
  Co  Co3  1  0.33338200  0.66670600  0.49856500  1
  Co  Co4  1  0.66668500  0.33326500  0.49856500  1
  Co  Co5  1  0.50010600  0.99995000  0.25250300  1
  Co  Co6  1  0.83338300  0.66665500  0.25247400  1
  Co  Co7  1  0.16661100  0.33336200  0.25246100  1
  Co  Co8  1  0.33395200  0.66715900  0.99704200  1
  Co  Co9  1  0.66598200  0.33295000  0.99704000  1
  O  O0  1  0.16675100  0.99961400  0.29668000  1
  O  O1  1  0.16736700  0.99947300  0.79614100  1
  O  O2  1  0.83254500  0.00011400  0.20820100  1
  O  O3  1  0.83254000  0.00049900  0.70803600  1
  O  O4  1  0.34630000  0.00125800  0.04326900  1
  O  O5  1  0.34588400  0.99968300  0.54503500  1
  O  O6  1  0.65446100  0.00030700  0.45226200  1
  O  O7  1  0.65278400  0.99888500  0.95037800  1
  O  O8  1  0.65515900  0.65609100  0.04322800  1
  O  O9  1  0.65571500  0.65475800  0.54501800  1
  O  O10  1  0.99943100  0.65555200  0.45229100  1
  O  O11  1  0.99959400  0.65559200  0.95052000  1
  O  O12  1  0.00031400  0.34377000  0.04302200  1
  O  O13  1  0.00064300  0.34469500  0.54501900  1
  O  O14  1  0.34407900  0.34494500  0.45230000  1
  O  O15  1  0.34559200  0.34489500  0.95045600  1
  O  O16  1  0.49962900  0.33346600  0.20834900  1
  O  O17  1  0.49918300  0.33279000  0.70817300  1
  O  O18  1  0.16605900  0.66660600  0.20825100  1
  O  O19  1  0.16632400  0.66761800  0.70809700  1
  O  O20  1  0.83439000  0.33314600  0.29670200  1
  O  O21  1  0.83372800  0.33242100  0.79606000  1
  O  O22  1  0.50076800  0.66699200  0.29668800  1
  O  O23  1  0.50080300  0.66711100  0.79598000  1
loop_
_geom_bond_atom_site_label_1
_geom_bond_atom_site_label_2
_geom_bond_distance
_geom_bond_site_symmetry_2
Co0 O23 1.889792 1_555
Co0 O17 1.889914 1_565
Co0 O21 1.892113 1_565
Co0 O19 1.892254 1_555
Co0 O3 1.893322 1_565
Co0 O1 1.893543 1_555
Co1 O19 1.893129 1_655
Co1 O23 1.894061 1_555
Co1 O1 1.894466 1_655
Co1 O3 1.895587 1_565
Co1 O17 1.895708 1_555
Co1 O21 1.895778 1_555
Co2 O21 1.893156 1_455
Co2 O17 1.894089 1_555
Co2 O3 1.894407 1_455
Co2 O23 1.895537 1_555
Co2 O1 1.895645 1_545
Co2 O19 1.895901 1_555
Co3 O10 1.893461 1_455
Co3 O14 1.894538 1_555
Co3 O6 1.894628 1_565
Co3 O9 1.895091 1_555
Co3 O5 1.895240 1_555
Co3 O13 1.896429 1_555
Co4 O14 1.893626 1_555
Co4 O6 1.893895 1_555
Co4 O13 1.894876 1_655
Co4 O10 1.895044 1_555
Co4 O5 1.895842 1_545
Co4 O9 1.896060 1_555
Co5 O22 1.892934 1_555
Co5 O16 1.894625 1_565
Co5 O2 1.896147 1_565
Co5 O20 1.897397 1_565
Co5 O18 1.897752 1_555
Co5 O0 1.898428 1_555
Co6 O0 1.894981 1_655
Co6 O16 1.895475 1_555
Co6 O2 1.896381 1_565
Co6 O20 1.896499 1_555
Co6 O18 1.896806 1_655
Co6 O22 1.897071 1_555
Co7 O18 1.894188 1_555
Co7 O20 1.894458 1_455
Co7 O0 1.895569 1_545
Co7 O16 1.896798 1_555
Co7 O2 1.897667 1_455
Co7 O22 1.898350 1_555
Co8 O8 1.885473 1_556
Co8 O7 1.889867 1_555
Co8 O12 1.896086 1_556
Co8 O11 1.897032 1_455
Co8 O4 1.897668 1_566
Co8 O15 1.902282 1_555
Co9 O4 1.886747 1_556
Co9 O15 1.888269 1_555
Co9 O12 1.892623 1_656
Co9 O8 1.899851 1_556
Co9 O11 1.900367 1_555
Co9 O7 1.900561 1_545
O4 Ti0 1.977007 1_444
O5 Ti1 1.966657 1_455
O6 Ti1 1.970938 1_545
O7 Ti0 1.964506 1_555
O8 Ti0 1.975490 1_554
O9 Ti1 1.966285 1_555
O10 Ti1 1.970526 1_555
O11 Ti0 1.958458 1_555
O12 Ti0 1.972932 1_444
O13 Ti1 1.966247 1_445
O14 Ti1 1.970885 1_445
O15 Ti0 1.963874 1_445
