# generated using pymatgen
data_CeSe2
_symmetry_space_group_name_H-M   'P 1'
_cell_length_a   17.14075557
_cell_length_b   17.14075524
_cell_length_c   17.14075557
_cell_angle_alpha   84.71158604
_cell_angle_beta   84.71158834
_cell_angle_gamma   84.71158604
_symmetry_Int_Tables_number   1
_chemical_formula_structural   CeSe2
_chemical_formula_sum   'Ce24 Se48'
_cell_volume   4975.45374164
_cell_formula_units_Z   24
loop_
 _symmetry_equiv_pos_site_id
 _symmetry_equiv_pos_as_xyz
  1  'x, y, z'
loop_
 _atom_site_type_symbol
 _atom_site_label
 _atom_site_symmetry_multiplicity
 _atom_site_fract_x
 _atom_site_fract_y
 _atom_site_fract_z
 _atom_site_occupancy
  Ce  Ce0  1  0.81528788  0.00471333  0.77059962  1
  Ce  Ce1  1  0.00471333  0.77059962  0.81528788  1
  Ce  Ce2  1  0.77059962  0.81528788  0.00471333  1
  Ce  Ce3  1  0.18471212  0.99528667  0.22940038  1
  Ce  Ce4  1  0.99528667  0.22940038  0.18471212  1
  Ce  Ce5  1  0.22940038  0.18471212  0.99528667  1
  Ce  Ce6  1  0.63659606  0.32645606  0.82695144  1
  Ce  Ce7  1  0.32645606  0.82695144  0.63659606  1
  Ce  Ce8  1  0.82695144  0.63659606  0.32645606  1
  Ce  Ce9  1  0.36340394  0.67354394  0.17304856  1
  Ce  Ce10  1  0.67354394  0.17304856  0.36340394  1
  Ce  Ce11  1  0.17304856  0.36340394  0.67354394  1
  Ce  Ce12  1  0.57325240  0.11421002  0.64142276  1
  Ce  Ce13  1  0.11421002  0.64142276  0.57325240  1
  Ce  Ce14  1  0.64142276  0.57325240  0.11421002  1
  Ce  Ce15  1  0.42674760  0.88578998  0.35857724  1
  Ce  Ce16  1  0.88578998  0.35857724  0.42674760  1
  Ce  Ce17  1  0.35857724  0.42674760  0.88578998  1
  Ce  Ce18  1  0.90604941  0.29263086  0.72249084  1
  Ce  Ce19  1  0.29263086  0.72249084  0.90604941  1
  Ce  Ce20  1  0.72249084  0.90604941  0.29263086  1
  Ce  Ce21  1  0.09395059  0.70736914  0.27750916  1
  Ce  Ce22  1  0.70736914  0.27750916  0.09395059  1
  Ce  Ce23  1  0.27750916  0.09395059  0.70736914  1
  Se  Se0  1  0.87243633  0.14574578  0.78289726  1
  Se  Se1  1  0.14574578  0.78289726  0.87243633  1
  Se  Se2  1  0.78289726  0.87243633  0.14574578  1
  Se  Se3  1  0.12756367  0.85425422  0.21710274  1
  Se  Se4  1  0.85425422  0.21710274  0.12756367  1
  Se  Se5  1  0.21710274  0.12756367  0.85425422  1
  Se  Se6  1  0.58560923  0.24514383  0.71555104  1
  Se  Se7  1  0.24514383  0.71555104  0.58560923  1
  Se  Se8  1  0.71555104  0.58560923  0.24514383  1
  Se  Se9  1  0.41439077  0.75485617  0.28444896  1
  Se  Se10  1  0.75485617  0.28444896  0.41439077  1
  Se  Se11  1  0.28444896  0.41439077  0.75485617  1
  Se  Se12  1  0.09412576  0.26223935  0.05462388  1
  Se  Se13  1  0.26223935  0.05462388  0.09412576  1
  Se  Se14  1  0.05462388  0.09412576  0.26223935  1
  Se  Se15  1  0.90587424  0.73776065  0.94537612  1
  Se  Se16  1  0.73776065  0.94537612  0.90587424  1
  Se  Se17  1  0.94537612  0.90587424  0.73776065  1
  Se  Se18  1  0.66205417  0.22896869  0.95942161  1
  Se  Se19  1  0.22896869  0.95942161  0.66205417  1
  Se  Se20  1  0.95942161  0.66205417  0.22896869  1
  Se  Se21  1  0.33794583  0.77103131  0.04057839  1
  Se  Se22  1  0.77103131  0.04057839  0.33794583  1
  Se  Se23  1  0.04057839  0.33794583  0.77103131  1
  Se  Se24  1  0.56088494  0.14589718  0.48395566  1
  Se  Se25  1  0.14589718  0.48395566  0.56088494  1
  Se  Se26  1  0.48395566  0.56088494  0.14589718  1
  Se  Se27  1  0.43911506  0.85410282  0.51604434  1
  Se  Se28  1  0.85410282  0.51604434  0.43911506  1
  Se  Se29  1  0.51604434  0.43911506  0.85410282  1
  Se  Se30  1  0.94404175  0.29664656  0.56437115  1
  Se  Se31  1  0.29664656  0.56437115  0.94404175  1
  Se  Se32  1  0.56437115  0.94404175  0.29664656  1
  Se  Se33  1  0.05595825  0.70335344  0.43562885  1
  Se  Se34  1  0.70335344  0.43562885  0.05595825  1
  Se  Se35  1  0.43562885  0.05595825  0.70335344  1
  Se  Se36  1  0.70589525  0.01605381  0.66323655  1
  Se  Se37  1  0.01605381  0.66323655  0.70589525  1
  Se  Se38  1  0.66323655  0.70589525  0.01605381  1
  Se  Se39  1  0.29410475  0.98394619  0.33676345  1
  Se  Se40  1  0.98394619  0.33676345  0.29410475  1
  Se  Se41  1  0.33676345  0.29410475  0.98394619  1
  Se  Se42  1  0.77411802  0.38599830  0.76544552  1
  Se  Se43  1  0.38599830  0.76544552  0.77411802  1
  Se  Se44  1  0.76544552  0.77411802  0.38599830  1
  Se  Se45  1  0.22588198  0.61400170  0.23455448  1
  Se  Se46  1  0.61400170  0.23455448  0.22588198  1
  Se  Se47  1  0.23455448  0.22588198  0.61400170  1
loop_
_geom_bond_atom_site_label_1
_geom_bond_atom_site_label_2
_geom_bond_distance
_geom_bond_site_symmetry_2
Ce0 Se17 2.721613 1_545
Ce0 Se0 2.723294 1_555
Ce0 Se16 2.724556 1_545
Ce0 Se36 2.728239 1_555
Ce1 Se15 2.721613 1_455
Ce1 Se1 2.723294 1_555
Ce1 Se17 2.724556 1_455
Ce1 Se37 2.728239 1_555
Ce2 Se16 2.721613 1_554
Ce2 Se2 2.723294 1_555
Ce2 Se15 2.724556 1_554
Ce2 Se38 2.728239 1_555
Ce3 Se14 2.721613 1_565
Ce3 Se3 2.723294 1_555
Ce3 Se13 2.724556 1_565
Ce3 Se39 2.728239 1_555
Ce4 Se12 2.721613 1_655
Ce4 Se4 2.723294 1_555
Ce4 Se14 2.724556 1_655
Ce4 Se40 2.728239 1_555
Ce5 Se13 2.721613 1_556
Ce5 Se5 2.723294 1_555
Ce5 Se12 2.724556 1_556
Ce5 Se41 2.728239 1_555
Ce6 Se6 2.715738 1_555
Ce6 Se29 2.732804 1_555
Ce6 Se18 2.736292 1_555
Ce6 Se42 2.738001 1_555
Ce7 Se7 2.715738 1_555
Ce7 Se27 2.732804 1_555
Ce7 Se19 2.736292 1_555
Ce7 Se43 2.738001 1_555
Ce8 Se8 2.715738 1_555
Ce8 Se28 2.732804 1_555
Ce8 Se20 2.736292 1_555
Ce8 Se44 2.738001 1_555
Ce9 Se9 2.715738 1_555
Ce9 Se26 2.732804 1_555
Ce9 Se21 2.736292 1_555
Ce9 Se45 2.738001 1_555
Ce10 Se10 2.715738 1_555
Ce10 Se24 2.732804 1_555
Ce10 Se22 2.736292 1_555
Ce10 Se46 2.738001 1_555
Ce11 Se11 2.715738 1_555
Ce11 Se25 2.732804 1_555
Ce11 Se23 2.736292 1_555
Ce11 Se47 2.738001 1_555
Ce12 Se6 2.712772 1_555
Ce12 Se24 2.727475 1_555
Ce12 Se35 2.732355 1_555
Ce12 Se36 2.734112 1_555
Ce13 Se7 2.712772 1_555
Ce13 Se25 2.727475 1_555
Ce13 Se33 2.732355 1_555
Ce13 Se37 2.734112 1_555
Ce14 Se8 2.712772 1_555
Ce14 Se26 2.727475 1_555
Ce14 Se34 2.732355 1_555
Ce14 Se38 2.734112 1_555
Ce15 Se9 2.712772 1_555
Ce15 Se27 2.727475 1_555
Ce15 Se32 2.732355 1_555
Ce15 Se39 2.734112 1_555
Ce16 Se10 2.712772 1_555
Ce16 Se28 2.727475 1_555
Ce16 Se30 2.732355 1_555
Ce16 Se40 2.734112 1_555
Ce17 Se11 2.712772 1_555
Ce17 Se29 2.727475 1_555
Ce17 Se31 2.732355 1_555
Ce17 Se41 2.734112 1_555
Ce18 Se23 2.723204 1_655
Ce18 Se0 2.723937 1_555
Ce18 Se30 2.724522 1_555
Ce18 Se42 2.731379 1_555
Ce19 Se21 2.723204 1_556
Ce19 Se1 2.723937 1_555
Ce19 Se31 2.724521 1_555
Ce19 Se43 2.731379 1_555
Ce20 Se22 2.723204 1_565
Ce20 Se2 2.723937 1_555
Ce20 Se32 2.724521 1_555
Ce20 Se44 2.731379 1_555
Ce21 Se20 2.723204 1_455
Ce21 Se3 2.723937 1_555
Ce21 Se33 2.724522 1_555
Ce21 Se45 2.731379 1_555
Ce22 Se18 2.723204 1_554
Ce22 Se4 2.723937 1_555
Ce22 Se34 2.724521 1_555
Ce22 Se46 2.731379 1_555
Ce23 Se19 2.723204 1_545
Ce23 Se5 2.723937 1_555
Ce23 Se35 2.724521 1_555
Ce23 Se47 2.731379 1_555
