# generated using pymatgen
data_MgZn2
_symmetry_space_group_name_H-M   'P 1'
_cell_length_a   10.78592830
_cell_length_b   10.78592830
_cell_length_c   13.49902445
_cell_angle_alpha   78.80490497
_cell_angle_beta   78.80490497
_cell_angle_gamma   32.76083376
_symmetry_Int_Tables_number   1
_chemical_formula_structural   MgZn2
_chemical_formula_sum   'Mg16 Zn32'
_cell_volume   832.22773802
_cell_formula_units_Z   16
loop_
 _symmetry_equiv_pos_site_id
 _symmetry_equiv_pos_as_xyz
  1  'x, y, z'
loop_
 _atom_site_type_symbol
 _atom_site_label
 _atom_site_symmetry_multiplicity
 _atom_site_fract_x
 _atom_site_fract_y
 _atom_site_fract_z
 _atom_site_occupancy
  Mg  Mg0_0  1  0.30903050  0.30903050  0.13340000  1
  Mg  Mg0_1  1  0.30903050  0.30903050  0.63340000  1
  Mg  Mg0_2  1  0.30903050  0.80903050  0.13340000  1
  Mg  Mg0_3  1  0.30903050  0.80903050  0.63340000  1
  Mg  Mg0_4  1  0.80903050  0.30903050  0.13340000  1
  Mg  Mg0_5  1  0.80903050  0.30903050  0.63340000  1
  Mg  Mg0_6  1  0.80903050  0.80903050  0.13340000  1
  Mg  Mg0_7  1  0.80903050  0.80903050  0.63340000  1
  Mg  Mg1_0  1  0.47000100  0.47000100  0.30877250  1
  Mg  Mg1_1  1  0.47000100  0.47000100  0.80877250  1
  Mg  Mg1_2  1  0.47000100  0.97000100  0.30877250  1
  Mg  Mg1_3  1  0.47000100  0.97000100  0.80877250  1
  Mg  Mg1_4  1  0.97000100  0.47000100  0.30877250  1
  Mg  Mg1_5  1  0.97000100  0.47000100  0.80877250  1
  Mg  Mg1_6  1  0.97000100  0.97000100  0.30877250  1
  Mg  Mg1_7  1  0.97000100  0.97000100  0.80877250  1
  Zn  Zn0_0  1  0.49816400  0.49816400  0.00055500  1
  Zn  Zn0_1  1  0.49816400  0.49816400  0.50055500  1
  Zn  Zn0_2  1  0.49816400  0.99816400  0.00055500  1
  Zn  Zn0_3  1  0.49816400  0.99816400  0.50055500  1
  Zn  Zn0_4  1  0.99816400  0.49816400  0.00055500  1
  Zn  Zn0_5  1  0.99816400  0.49816400  0.50055500  1
  Zn  Zn0_6  1  0.99816400  0.99816400  0.00055500  1
  Zn  Zn0_7  1  0.99816400  0.99816400  0.50055500  1
  Zn  Zn1_0  1  0.16805200  0.16805200  0.16466000  1
  Zn  Zn1_1  1  0.16805200  0.16805200  0.66466000  1
  Zn  Zn1_2  1  0.16805200  0.66805200  0.16466000  1
  Zn  Zn1_3  1  0.16805200  0.66805200  0.66466000  1
  Zn  Zn1_4  1  0.66805200  0.16805200  0.16466000  1
  Zn  Zn1_5  1  0.66805200  0.16805200  0.66466000  1
  Zn  Zn1_6  1  0.66805200  0.66805200  0.16466000  1
  Zn  Zn1_7  1  0.66805200  0.66805200  0.66466000  1
  Zn  Zn2_0  1  0.33304350  0.33304350  0.33620100  1
  Zn  Zn2_1  1  0.33304350  0.33304350  0.83620100  1
  Zn  Zn2_2  1  0.33304350  0.83304350  0.33620100  1
  Zn  Zn2_3  1  0.33304350  0.83304350  0.83620100  1
  Zn  Zn2_4  1  0.83304350  0.33304350  0.33620100  1
  Zn  Zn2_5  1  0.83304350  0.33304350  0.83620100  1
  Zn  Zn2_6  1  0.83304350  0.83304350  0.33620100  1
  Zn  Zn2_7  1  0.83304350  0.83304350  0.83620100  1
  Zn  Zn3_0  1  0.13837550  0.13837550  0.47307800  1
  Zn  Zn3_1  1  0.13837550  0.13837550  0.97307800  1
  Zn  Zn3_2  1  0.13837550  0.63837550  0.47307800  1
  Zn  Zn3_3  1  0.13837550  0.63837550  0.97307800  1
  Zn  Zn3_4  1  0.63837550  0.13837550  0.47307800  1
  Zn  Zn3_5  1  0.63837550  0.13837550  0.97307800  1
  Zn  Zn3_6  1  0.63837550  0.63837550  0.47307800  1
  Zn  Zn3_7  1  0.63837550  0.63837550  0.97307800  1
loop_
_geom_bond_atom_site_label_1
_geom_bond_atom_site_label_2
_geom_bond_distance
_geom_bond_site_symmetry_2
Mg0_0 Zn1_4 2.822691 1_555
Mg0_0 Zn1_2 2.822691 1_555
Mg0_0 Zn0_2 2.833743 1_545
Mg0_0 Zn0_4 2.833743 1_455
Mg0_0 Zn1_0 2.862323 1_555
Mg0_0 Zn3_5 2.873168 1_554
Mg0_0 Zn3_3 2.873168 1_554
Mg0_0 Zn2_0 2.879614 1_555
Mg0_0 Mg0_6 3.041778 1_455
Mg0_0 Mg0_6 3.041778 1_545
Mg0_0 Mg1_4 3.089844 1_455
Mg0_0 Mg1_2 3.089844 1_545
Mg0_1 Zn1_5 2.822691 1_555
Mg0_1 Zn1_3 2.822691 1_555
Mg0_1 Zn0_5 2.833743 1_455
Mg0_1 Zn0_3 2.833743 1_545
Mg0_1 Zn1_1 2.862323 1_555
Mg0_1 Zn3_4 2.873168 1_555
Mg0_1 Zn3_2 2.873168 1_555
Mg0_1 Zn2_1 2.879614 1_555
Mg0_1 Mg0_7 3.041778 1_545
Mg0_1 Mg0_7 3.041778 1_455
Mg0_1 Mg1_5 3.089844 1_455
Mg0_1 Mg1_3 3.089844 1_545
Mg0_2 Zn1_0 2.822691 1_565
Mg0_2 Zn1_6 2.822691 1_555
Mg0_2 Zn0_0 2.833743 1_555
Mg0_2 Zn0_6 2.833743 1_455
Mg0_2 Zn1_2 2.862323 1_555
Mg0_2 Zn3_7 2.873168 1_554
Mg0_2 Zn3_1 2.873168 1_564
Mg0_2 Zn2_2 2.879614 1_555
Mg0_2 Mg0_4 3.041778 1_555
Mg0_2 Mg0_4 3.041778 1_465
Mg0_2 Mg1_6 3.089844 1_455
Mg0_2 Mg1_0 3.089844 1_555
Mg0_3 Zn1_1 2.822691 1_565
Mg0_3 Zn1_7 2.822691 1_555
Mg0_3 Zn0_1 2.833743 1_555
Mg0_3 Zn0_7 2.833743 1_455
Mg0_3 Zn1_3 2.862323 1_555
Mg0_3 Zn3_6 2.873168 1_555
Mg0_3 Zn3_0 2.873168 1_565
Mg0_3 Zn2_3 2.879614 1_555
Mg0_3 Mg0_5 3.041778 1_555
Mg0_3 Mg0_5 3.041778 1_465
Mg0_3 Mg1_7 3.089844 1_455
Mg0_3 Mg1_1 3.089844 1_555
Mg0_4 Zn1_0 2.822691 1_655
Mg0_4 Zn1_6 2.822691 1_555
Mg0_4 Zn0_0 2.833743 1_555
Mg0_4 Zn0_6 2.833743 1_545
Mg0_4 Zn1_4 2.862323 1_555
Mg0_4 Zn3_1 2.873168 1_654
Mg0_4 Zn3_7 2.873168 1_554
Mg0_4 Zn2_4 2.879614 1_555
Mg0_4 Mg1_6 3.089844 1_545
Mg0_4 Mg1_0 3.089844 1_555
Mg0_5 Zn1_1 2.822691 1_655
Mg0_5 Zn1_7 2.822691 1_555
Mg0_5 Zn0_1 2.833743 1_555
Mg0_5 Zn0_7 2.833743 1_545
Mg0_5 Zn1_5 2.862323 1_555
Mg0_5 Zn3_6 2.873168 1_555
Mg0_5 Zn3_0 2.873168 1_655
Mg0_5 Zn2_5 2.879614 1_555
Mg0_5 Mg1_7 3.089844 1_545
Mg0_5 Mg1_1 3.089844 1_555
Mg0_6 Zn1_2 2.822691 1_655
Mg0_6 Zn1_4 2.822691 1_565
Mg0_6 Zn0_4 2.833743 1_555
Mg0_6 Zn0_2 2.833743 1_555
Mg0_6 Zn1_6 2.862323 1_555
Mg0_6 Zn3_5 2.873168 1_564
Mg0_6 Zn3_3 2.873168 1_654
Mg0_6 Zn2_6 2.879614 1_555
Mg0_6 Mg1_2 3.089844 1_555
Mg0_6 Mg1_4 3.089844 1_555
Mg0_7 Zn1_3 2.822691 1_655
Mg0_7 Zn1_5 2.822691 1_565
Mg0_7 Zn0_3 2.833743 1_555
Mg0_7 Zn0_5 2.833743 1_555
Mg0_7 Zn1_7 2.862323 1_555
Mg0_7 Zn3_2 2.873168 1_655
Mg0_7 Zn3_4 2.873168 1_565
Mg0_7 Zn2_7 2.879614 1_555
Mg0_7 Mg1_5 3.089844 1_555
Mg0_7 Mg1_3 3.089844 1_555
Mg1_0 Zn0_1 2.766359 1_555
Mg1_0 Zn2_0 2.783302 1_555
Mg1_0 Zn1_4 2.846062 1_555
Mg1_0 Zn1_2 2.846062 1_555
Mg1_0 Zn2_2 2.876511 1_555
Mg1_0 Zn2_4 2.876511 1_555
Mg1_0 Zn3_4 2.927434 1_555
Mg1_0 Zn3_2 2.927434 1_555
Mg1_0 Mg1_6 3.041778 1_545
Mg1_0 Mg1_6 3.041778 1_455
Mg1_1 Zn0_0 2.766359 1_556
Mg1_1 Zn2_1 2.783302 1_555
Mg1_1 Zn1_3 2.846062 1_555
Mg1_1 Zn1_5 2.846062 1_555
Mg1_1 Zn2_3 2.876511 1_555
Mg1_1 Zn2_5 2.876511 1_555
Mg1_1 Zn3_3 2.927434 1_555
Mg1_1 Zn3_5 2.927434 1_555
Mg1_1 Mg1_7 3.041778 1_455
Mg1_1 Mg1_7 3.041778 1_545
Mg1_2 Zn0_3 2.766359 1_555
Mg1_2 Zn2_2 2.783302 1_555
Mg1_2 Zn1_6 2.846062 1_555
Mg1_2 Zn1_0 2.846062 1_565
Mg1_2 Zn2_6 2.876511 1_555
Mg1_2 Zn2_0 2.876511 1_565
Mg1_2 Zn3_6 2.927434 1_555
Mg1_2 Zn3_0 2.927434 1_565
Mg1_2 Mg1_4 3.041778 1_555
Mg1_2 Mg1_4 3.041778 1_465
Mg1_3 Zn0_2 2.766359 1_556
Mg1_3 Zn2_3 2.783302 1_555
Mg1_3 Zn1_7 2.846062 1_555
Mg1_3 Zn1_1 2.846062 1_565
Mg1_3 Zn2_7 2.876511 1_555
Mg1_3 Zn2_1 2.876511 1_565
Mg1_3 Zn3_7 2.927434 1_555
Mg1_3 Zn3_1 2.927434 1_565
Mg1_3 Mg1_5 3.041778 1_555
Mg1_3 Mg1_5 3.041778 1_465
Mg1_4 Zn0_5 2.766359 1_555
Mg1_4 Zn2_4 2.783302 1_555
Mg1_4 Zn1_6 2.846062 1_555
Mg1_4 Zn1_0 2.846062 1_655
Mg1_4 Zn2_6 2.876511 1_555
Mg1_4 Zn2_0 2.876511 1_655
Mg1_4 Zn3_6 2.927434 1_555
Mg1_4 Zn3_0 2.927434 1_655
Mg1_5 Zn0_4 2.766359 1_556
Mg1_5 Zn2_5 2.783302 1_555
Mg1_5 Zn1_1 2.846062 1_655
Mg1_5 Zn1_7 2.846062 1_555
Mg1_5 Zn2_7 2.876511 1_555
Mg1_5 Zn2_1 2.876511 1_655
Mg1_5 Zn3_7 2.927434 1_555
Mg1_5 Zn3_1 2.927434 1_655
Mg1_6 Zn0_7 2.766359 1_555
Mg1_6 Zn2_6 2.783302 1_555
Mg1_6 Zn1_2 2.846062 1_655
Mg1_6 Zn1_4 2.846062 1_565
Mg1_6 Zn2_2 2.876511 1_655
Mg1_6 Zn2_4 2.876511 1_565
Mg1_6 Zn3_2 2.927434 1_655
Mg1_6 Zn3_4 2.927434 1_565
Mg1_7 Zn0_6 2.766359 1_556
Mg1_7 Zn2_7 2.783302 1_555
Mg1_7 Zn1_3 2.846062 1_655
Mg1_7 Zn1_5 2.846062 1_565
Mg1_7 Zn2_5 2.876511 1_565
Mg1_7 Zn2_3 2.876511 1_655
Mg1_7 Zn3_3 2.927434 1_655
Mg1_7 Zn3_5 2.927434 1_565
Zn0_0 Zn3_5 2.820413 1_554
Zn0_0 Zn3_3 2.820413 1_554
Zn0_0 Zn3_7 2.850037 1_554
Zn0_0 Zn1_2 2.912551 1_555
Zn0_0 Zn1_4 2.912551 1_555
Zn0_0 Zn2_5 2.957014 1_554
Zn0_0 Zn2_3 2.957014 1_554
Zn0_0 Zn0_6 3.041778 1_455
Zn0_0 Zn0_6 3.041778 1_545
Zn0_1 Zn3_4 2.820413 1_555
Zn0_1 Zn3_2 2.820413 1_555
Zn0_1 Zn3_6 2.850037 1_555
Zn0_1 Zn1_3 2.912551 1_555
Zn0_1 Zn1_5 2.912551 1_555
Zn0_1 Zn2_4 2.957014 1_555
Zn0_1 Zn2_2 2.957014 1_555
Zn0_1 Zn0_7 3.041778 1_455
Zn0_1 Zn0_7 3.041778 1_545
Zn0_2 Zn3_7 2.820413 1_554
Zn0_2 Zn3_1 2.820413 1_564
Zn0_2 Zn3_5 2.850037 1_564
Zn0_2 Zn1_0 2.912551 1_565
Zn0_2 Zn1_6 2.912551 1_555
Zn0_2 Zn2_7 2.957014 1_554
Zn0_2 Zn2_1 2.957014 1_564
Zn0_2 Zn0_4 3.041778 1_555
Zn0_2 Zn0_4 3.041778 1_465
Zn0_3 Zn3_6 2.820413 1_555
Zn0_3 Zn3_0 2.820413 1_565
Zn0_3 Zn3_4 2.850037 1_565
Zn0_3 Zn1_1 2.912551 1_565
Zn0_3 Zn1_7 2.912551 1_555
Zn0_3 Zn2_0 2.957014 1_565
Zn0_3 Zn2_6 2.957014 1_555
Zn0_3 Zn0_5 3.041778 1_465
Zn0_3 Zn0_5 3.041778 1_555
Zn0_4 Zn3_7 2.820413 1_554
Zn0_4 Zn3_1 2.820413 1_654
Zn0_4 Zn3_3 2.850037 1_654
Zn0_4 Zn1_6 2.912551 1_555
Zn0_4 Zn1_0 2.912551 1_655
Zn0_4 Zn2_7 2.957014 1_554
Zn0_4 Zn2_1 2.957014 1_654
Zn0_5 Zn3_6 2.820413 1_555
Zn0_5 Zn3_0 2.820413 1_655
Zn0_5 Zn3_2 2.850037 1_655
Zn0_5 Zn1_7 2.912551 1_555
Zn0_5 Zn1_1 2.912551 1_655
Zn0_5 Zn2_0 2.957014 1_655
Zn0_5 Zn2_6 2.957014 1_555
Zn0_6 Zn3_3 2.820413 1_654
Zn0_6 Zn3_5 2.820413 1_564
Zn0_6 Zn3_1 2.850037 1_664
Zn0_6 Zn1_2 2.912551 1_655
Zn0_6 Zn1_4 2.912551 1_565
Zn0_6 Zn2_3 2.957014 1_654
Zn0_6 Zn2_5 2.957014 1_564
Zn0_7 Zn3_2 2.820413 1_655
Zn0_7 Zn3_4 2.820413 1_565
Zn0_7 Zn3_0 2.850037 1_665
Zn0_7 Zn1_5 2.912551 1_565
Zn0_7 Zn1_3 2.912551 1_655
Zn0_7 Zn2_2 2.957014 1_655
Zn0_7 Zn2_4 2.957014 1_565
Zn1_0 Zn3_1 2.776397 1_554
Zn1_0 Zn2_4 3.020222 1_455
Zn1_0 Zn2_2 3.020222 1_545
Zn1_0 Zn1_6 3.041778 1_455
Zn1_0 Zn1_6 3.041778 1_545
Zn1_1 Zn3_0 2.776397 1_555
Zn1_1 Zn2_3 3.020222 1_545
Zn1_1 Zn2_5 3.020222 1_455
Zn1_1 Zn1_7 3.041778 1_545
Zn1_1 Zn1_7 3.041778 1_455
Zn1_2 Zn3_3 2.776397 1_554
Zn1_2 Zn2_0 3.020222 1_555
Zn1_2 Zn2_6 3.020222 1_455
Zn1_2 Zn1_4 3.041778 1_465
Zn1_2 Zn1_4 3.041778 1_555
Zn1_3 Zn3_2 2.776397 1_555
Zn1_3 Zn2_1 3.020222 1_555
Zn1_3 Zn2_7 3.020222 1_455
Zn1_3 Zn1_5 3.041778 1_465
Zn1_3 Zn1_5 3.041778 1_555
Zn1_4 Zn3_5 2.776397 1_554
Zn1_4 Zn2_0 3.020222 1_555
Zn1_4 Zn2_6 3.020222 1_545
Zn1_5 Zn3_4 2.776397 1_555
Zn1_5 Zn2_1 3.020222 1_555
Zn1_5 Zn2_7 3.020222 1_545
Zn1_6 Zn3_7 2.776397 1_554
Zn1_6 Zn2_2 3.020222 1_555
Zn1_6 Zn2_4 3.020222 1_555
Zn1_7 Zn3_6 2.776397 1_555
Zn1_7 Zn2_3 3.020222 1_555
Zn1_7 Zn2_5 3.020222 1_555
Zn2_0 Zn3_2 2.809787 1_555
Zn2_0 Zn3_4 2.809787 1_555
Zn2_0 Zn2_6 3.041778 1_545
Zn2_0 Zn2_6 3.041778 1_455
Zn2_1 Zn3_5 2.809787 1_555
Zn2_1 Zn3_3 2.809787 1_555
Zn2_1 Zn2_7 3.041778 1_545
Zn2_1 Zn2_7 3.041778 1_455
Zn2_2 Zn3_0 2.809787 1_565
Zn2_2 Zn3_6 2.809787 1_555
Zn2_2 Zn2_4 3.041778 1_555
Zn2_2 Zn2_4 3.041778 1_465
Zn2_3 Zn3_1 2.809787 1_565
Zn2_3 Zn3_7 2.809787 1_555
Zn2_3 Zn2_5 3.041778 1_465
Zn2_3 Zn2_5 3.041778 1_555
Zn2_4 Zn3_0 2.809787 1_655
Zn2_4 Zn3_6 2.809787 1_555
Zn2_5 Zn3_1 2.809787 1_655
Zn2_5 Zn3_7 2.809787 1_555
Zn2_6 Zn3_2 2.809787 1_655
Zn2_6 Zn3_4 2.809787 1_565
Zn2_7 Zn3_3 2.809787 1_655
Zn2_7 Zn3_5 2.809787 1_565
Zn3_0 Zn3_6 3.041778 1_545
Zn3_0 Zn3_6 3.041778 1_455
Zn3_1 Zn3_7 3.041778 1_545
Zn3_1 Zn3_7 3.041778 1_455
Zn3_2 Zn3_4 3.041778 1_465
Zn3_2 Zn3_4 3.041778 1_555
Zn3_3 Zn3_5 3.041778 1_555
Zn3_3 Zn3_5 3.041778 1_465
