# generated using pymatgen
data_K4Ge(SeO)4
_symmetry_space_group_name_H-M   'P 1'
_cell_length_a   8.25062000
_cell_length_b   8.99879262
_cell_length_c   12.04170043
_cell_angle_alpha   101.75209573
_cell_angle_beta   93.26124938
_cell_angle_gamma   113.03197104
_symmetry_Int_Tables_number   1
_chemical_formula_structural   K4Ge(SeO)4
_chemical_formula_sum   'K8 Ge2 Se8 O8'
_cell_volume   796.22090444
_cell_formula_units_Z   2
loop_
 _symmetry_equiv_pos_site_id
 _symmetry_equiv_pos_as_xyz
  1  'x, y, z'
loop_
 _atom_site_type_symbol
 _atom_site_label
 _atom_site_symmetry_multiplicity
 _atom_site_fract_x
 _atom_site_fract_y
 _atom_site_fract_z
 _atom_site_occupancy
  K  K0  1  0.20722200  0.51364500  0.92551600  1
  K  K1  1  0.79277800  0.48635500  0.07448400  1
  K  K2  1  0.82460900  0.11498900  0.16310700  1
  K  K3  1  0.17539100  0.88501100  0.83689300  1
  K  K4  1  0.38430800  0.44481300  0.66137500  1
  K  K5  1  0.61569200  0.55518700  0.33862500  1
  K  K6  1  0.17019500  0.72302100  0.45210200  1
  K  K7  1  0.82980500  0.27697900  0.54789800  1
  Ge  Ge0  1  0.23583200  0.14968000  0.27630000  1
  Ge  Ge1  1  0.76416800  0.85032000  0.72370000  1
  Se  Se0  1  0.18548400  0.35688000  0.40138300  1
  Se  Se1  1  0.81451600  0.64312000  0.59861700  1
  Se  Se2  1  0.50546100  0.10506500  0.31260800  1
  Se  Se3  1  0.49453900  0.89493500  0.68739200  1
  Se  Se4  1  0.99116700  0.90838500  0.30924400  1
  Se  Se5  1  0.00883300  0.09161500  0.69075600  1
  Se  Se6  1  0.26536100  0.24867800  0.08158400  1
  Se  Se7  1  0.73463900  0.75132200  0.91841600  1
  O  O0  1  0.08261100  0.29458000  0.06130600  1
  O  O1  1  0.91738900  0.70542000  0.93869400  1
  O  O2  1  0.99398700  0.71085000  0.25296700  1
  O  O3  1  0.00601300  0.28915000  0.74703300  1
  O  O4  1  0.68967900  0.28643100  0.29768200  1
  O  O5  1  0.31032100  0.71356900  0.70231800  1
  O  O6  1  0.44756800  0.43576100  0.12306500  1
  O  O7  1  0.55243200  0.56423900  0.87693500  1
loop_
_geom_bond_atom_site_label_1
_geom_bond_atom_site_label_2
_geom_bond_distance
_geom_bond_site_symmetry_2
K0 O3 2.580200 1_555
K0 O0 2.745041 1_556
K0 O7 2.818708 1_555
K1 O2 2.580200 1_555
K1 O1 2.745041 1_554
K1 O6 2.818708 1_555
K2 O4 2.603134 1_555
K2 O0 2.656652 1_655
K2 Se0 3.639827 1_655
K3 O5 2.603134 1_555
K3 O1 2.656652 1_455
K3 Se1 3.639827 1_455
K4 O7 2.665387 1_555
K4 O5 2.677404 1_555
K4 O3 3.209606 1_555
K4 Se0 3.241835 1_555
K4 Se1 3.500373 1_555
K5 O6 2.665387 1_555
K5 O4 2.677404 1_555
K5 O2 3.209606 1_555
K5 Se1 3.241835 1_555
K5 Se0 3.500373 1_555
K6 O2 2.692103 1_455
K6 O5 3.194870 1_555
K6 Se4 3.275852 1_455
K6 Se0 3.280102 1_555
K6 Se3 3.419710 1_555
K6 Se1 3.419969 1_455
K7 O3 2.692103 1_655
K7 O4 3.194870 1_555
K7 Se5 3.275852 1_655
K7 Se1 3.280102 1_555
K7 Se2 3.419710 1_555
K7 Se0 3.419969 1_655
Ge0 Se0 2.334741 1_555
Ge0 Se4 2.441165 1_445
Ge0 Se2 2.441501 1_555
Ge0 Se6 2.663966 1_555
Ge1 Se1 2.334741 1_555
Ge1 Se5 2.441165 1_665
Ge1 Se3 2.441501 1_555
Ge1 Se7 2.663966 1_555
O0 Se6 1.729235 1_555
O1 Se7 1.729235 1_555
O2 Se4 1.778485 1_555
O3 Se5 1.778485 1_555
O4 Se2 1.793218 1_555
O5 Se3 1.793218 1_555
O6 Se6 1.713285 1_555
O7 Se7 1.713285 1_555
