# generated using pymatgen
data_MnFeCo(PO4)3
_symmetry_space_group_name_H-M   'P 1'
_cell_length_a   5.94781300
_cell_length_b   9.91599100
_cell_length_c   14.58014507
_cell_angle_alpha   89.30940703
_cell_angle_beta   90.00000000
_cell_angle_gamma   90.00000000
_symmetry_Int_Tables_number   1
_chemical_formula_structural   MnFeCo(PO4)3
_chemical_formula_sum   'Mn4 Fe4 Co4 P12 O48'
_cell_volume   859.85204308
_cell_formula_units_Z   4
loop_
 _symmetry_equiv_pos_site_id
 _symmetry_equiv_pos_as_xyz
  1  'x, y, z'
loop_
 _atom_site_type_symbol
 _atom_site_label
 _atom_site_symmetry_multiplicity
 _atom_site_fract_x
 _atom_site_fract_y
 _atom_site_fract_z
 _atom_site_occupancy
  Mn  Mn0  1  0.50000000  0.78459100  0.48042700  1
  Mn  Mn1  1  0.00000000  0.71780700  0.31436500  1
  Mn  Mn2  1  0.00000000  0.71380300  0.64614900  1
  Mn  Mn3  1  0.50000000  0.28382800  0.01962500  1
  Fe  Fe0  1  0.50000000  0.77509000  0.15318300  1
  Fe  Fe1  1  0.50000000  0.77802100  0.81921500  1
  Fe  Fe2  1  0.00000000  0.72533800  0.98666100  1
  Fe  Fe3  1  0.50000000  0.27533000  0.34693400  1
  Co  Co0  1  0.50000000  0.27588100  0.67963100  1
  Co  Co1  1  0.00000000  0.21839100  0.84773200  1
  Co  Co2  1  0.00000000  0.22323800  0.18300200  1
  Co  Co3  1  0.00000000  0.21909200  0.51940400  1
  P  P0  1  0.00000000  0.90242200  0.47129800  1
  P  P1  1  0.00000000  0.90286900  0.13866500  1
  P  P2  1  0.00000000  0.90190800  0.80309500  1
  P  P3  1  0.50000000  0.59809000  0.97252800  1
  P  P4  1  0.50000000  0.59951400  0.30649200  1
  P  P5  1  0.50000000  0.59679300  0.63973600  1
  P  P6  1  0.00000000  0.40168700  0.02814900  1
  P  P7  1  0.00000000  0.40083400  0.36196300  1
  P  P8  1  0.00000000  0.39977600  0.69626700  1
  P  P9  1  0.50000000  0.09646100  0.52811700  1
  P  P10  1  0.50000000  0.09910500  0.19312300  1
  P  P11  1  0.50000000  0.10097700  0.86044800  1
  O  O0  1  0.50000000  0.94546100  0.55275100  1
  O  O1  1  0.50000000  0.94901800  0.21560200  1
  O  O2  1  0.50000000  0.95045600  0.88254900  1
  O  O3  1  0.00000000  0.88111400  0.24341800  1
  O  O4  1  0.00000000  0.87904200  0.57590500  1
  O  O5  1  0.00000000  0.88159600  0.90806800  1
  O  O6  1  0.20196800  0.82999900  0.42278200  1
  O  O7  1  0.79803200  0.82999900  0.42278200  1
  O  O8  1  0.20169100  0.82811200  0.09077400  1
  O  O9  1  0.79830900  0.82811200  0.09077400  1
  O  O10  1  0.20490500  0.82859700  0.75785400  1
  O  O11  1  0.79509500  0.82859700  0.75785400  1
  O  O12  1  0.70187900  0.67227400  0.92404400  1
  O  O13  1  0.29812100  0.67227400  0.92404400  1
  O  O14  1  0.69938800  0.67384000  0.25548400  1
  O  O15  1  0.30061200  0.67384000  0.25548400  1
  O  O16  1  0.29821000  0.66691500  0.58957400  1
  O  O17  1  0.70179000  0.66691500  0.58957400  1
  O  O18  1  0.50000000  0.61791100  0.07629300  1
  O  O19  1  0.50000000  0.61837900  0.74302000  1
  O  O20  1  0.50000000  0.62168800  0.40999900  1
  O  O21  1  0.00000000  0.55209400  0.05097500  1
  O  O22  1  0.00000000  0.55280300  0.38433800  1
  O  O23  1  0.00000000  0.55182100  0.71798900  1
  O  O24  1  0.50000000  0.44684800  0.94993300  1
  O  O25  1  0.50000000  0.44946300  0.28545100  1
  O  O26  1  0.50000000  0.44274700  0.61989600  1
  O  O27  1  0.00000000  0.38404400  0.25722200  1
  O  O28  1  0.00000000  0.38111300  0.59153700  1
  O  O29  1  0.00000000  0.38096800  0.92502700  1
  O  O30  1  0.19991300  0.32737100  0.07979000  1
  O  O31  1  0.80008700  0.32737100  0.07979000  1
  O  O32  1  0.20326200  0.32761900  0.41023500  1
  O  O33  1  0.79673800  0.32761900  0.41023500  1
  O  O34  1  0.20195200  0.32812800  0.74584400  1
  O  O35  1  0.79804800  0.32812800  0.74584400  1
  O  O36  1  0.70386100  0.17080800  0.57558500  1
  O  O37  1  0.29613900  0.17080800  0.57558500  1
  O  O38  1  0.70182000  0.17442600  0.24156400  1
  O  O39  1  0.29818000  0.17442600  0.24156400  1
  O  O40  1  0.70527200  0.17365600  0.90646000  1
  O  O41  1  0.29472800  0.17365600  0.90646000  1
  O  O42  1  0.50000000  0.12359800  0.75508600  1
  O  O43  1  0.50000000  0.11657200  0.42410300  1
  O  O44  1  0.50000000  0.11941800  0.08858800  1
  O  O45  1  0.00000000  0.05408600  0.44942100  1
  O  O46  1  0.00000000  0.05383200  0.11653900  1
  O  O47  1  0.00000000  0.05349000  0.77845600  1
loop_
_geom_bond_atom_site_label_1
_geom_bond_atom_site_label_2
_geom_bond_distance
_geom_bond_site_symmetry_2
Mn0 O0 1.922791 1_555
Mn0 O20 1.924512 1_555
Mn0 O6 2.010537 1_555
Mn0 O7 2.010537 1_555
Mn0 O16 2.299961 1_555
Mn0 O17 2.299961 1_555
Mn1 O3 1.911004 1_555
Mn1 O22 1.917728 1_555
Mn1 O14 2.032977 1_455
Mn1 O15 2.032977 1_555
Mn1 O6 2.285127 1_555
Mn1 O7 2.285127 1_455
Mn2 O23 1.906958 1_555
Mn2 O4 1.921764 1_555
Mn2 O16 2.012916 1_555
Mn2 O17 2.012916 1_455
Mn2 O11 2.340579 1_455
Mn2 O10 2.340579 1_555
Mn3 O24 1.898945 1_554
Mn3 O44 1.905081 1_555
Mn3 O31 2.037349 1_555
Mn3 O30 2.037349 1_555
Mn3 O41 2.334513 1_554
Mn3 O40 2.334513 1_554
Fe0 O18 1.930829 1_555
Fe0 O1 1.959734 1_555
Fe0 O8 2.059360 1_555
Fe0 O9 2.059360 1_555
Fe0 O15 2.145479 1_555
Fe0 O14 2.145479 1_555
Fe1 O19 1.944861 1_555
Fe1 O2 1.953048 1_555
Fe1 O10 2.030202 1_555
Fe1 O11 2.030202 1_555
Fe1 O12 2.199715 1_555
Fe1 O13 2.199715 1_555
Fe2 O5 1.916008 1_555
Fe2 O21 1.947202 1_556
Fe2 O12 2.065448 1_455
Fe2 O13 2.065448 1_555
Fe2 O8 2.195274 1_556
Fe2 O9 2.195274 1_456
Fe3 O43 1.923921 1_555
Fe3 O25 1.935917 1_555
Fe3 O33 2.060876 1_555
Fe3 O32 2.060876 1_555
Fe3 O39 2.199854 1_555
Fe3 O38 2.199854 1_555
Co0 O42 1.857548 1_555
Co0 O26 1.860550 1_555
Co0 O34 2.086873 1_555
Co0 O35 2.086873 1_555
Co0 O37 2.212508 1_555
Co0 O36 2.212508 1_555
Co1 O47 1.932294 1_555
Co1 O29 1.978072 1_555
Co1 O40 1.998441 1_455
Co1 O41 1.998441 1_555
Co1 O34 2.189693 1_555
Co1 O35 2.189693 1_455
Co2 O27 1.937837 1_555
Co2 O46 1.949385 1_555
Co2 O39 2.024532 1_555
Co2 O38 2.024532 1_455
Co2 O30 2.169599 1_555
Co2 O31 2.169599 1_455
Co3 O28 1.930799 1_555
Co3 O45 1.938692 1_555
Co3 O37 1.998301 1_555
Co3 O36 1.998301 1_455
Co3 O33 2.260955 1_455
Co3 O32 2.260955 1_555
O0 P9 1.535574 1_565
O1 P10 1.520060 1_565
O2 P11 1.523152 1_565
O3 P1 1.539897 1_555
O4 P0 1.539940 1_555
O5 P2 1.541309 1_555
O6 P0 1.572068 1_555
O7 P0 1.572068 1_655
O8 P1 1.577543 1_555
O9 P1 1.577543 1_655
O10 P2 1.568577 1_555
O11 P2 1.568577 1_655
O12 P3 1.571646 1_555
O13 P3 1.571646 1_555
O14 P4 1.577811 1_555
O15 P4 1.577811 1_555
O16 P5 1.564170 1_555
O17 P5 1.564170 1_555
O18 P3 1.527969 1_554
O19 P5 1.523584 1_555
O20 P4 1.527701 1_555
O21 P6 1.532025 1_555
O22 P7 1.545670 1_555
O23 P8 1.544314 1_555
O24 P3 1.539345 1_555
O25 P4 1.522819 1_555
O26 P5 1.558089 1_555
O27 P7 1.538181 1_555
O28 P8 1.540365 1_555
O29 P6 1.519957 1_556
O30 P6 1.584427 1_555
O31 P6 1.584427 1_655
O32 P7 1.572166 1_555
O33 P7 1.572166 1_655
O34 P8 1.567702 1_555
O35 P8 1.567702 1_655
O36 P9 1.582722 1_555
O37 P9 1.582722 1_555
O38 P10 1.584395 1_555
O39 P10 1.584395 1_555
O40 P11 1.572177 1_555
O41 P11 1.572177 1_555
O42 P11 1.549806 1_555
O43 P9 1.527210 1_555
O44 P10 1.534979 1_555
O45 P0 1.533587 1_545
O46 P1 1.527509 1_545
O47 P2 1.541202 1_545
