# generated using pymatgen
data_TiZnBi(PO4)3
_symmetry_space_group_name_H-M   'P 1'
_cell_length_a   8.44805585
_cell_length_b   8.44805628
_cell_length_c   8.44805664
_cell_angle_alpha   64.04831774
_cell_angle_beta   64.04831926
_cell_angle_gamma   64.04832302
_symmetry_Int_Tables_number   1
_chemical_formula_structural   TiZnBi(PO4)3
_chemical_formula_sum   'Ti2 Zn2 Bi2 P6 O24'
_cell_volume   464.33612495
_cell_formula_units_Z   2
loop_
 _symmetry_equiv_pos_site_id
 _symmetry_equiv_pos_as_xyz
  1  'x, y, z'
loop_
 _atom_site_type_symbol
 _atom_site_label
 _atom_site_symmetry_multiplicity
 _atom_site_fract_x
 _atom_site_fract_y
 _atom_site_fract_z
 _atom_site_occupancy
  Ti  Ti0  1  0.14943800  0.14943800  0.14943800  1
  Ti  Ti1  1  0.64943800  0.64943800  0.64943800  1
  Zn  Zn0  1  0.99354900  0.99354900  0.99354900  1
  Zn  Zn1  1  0.49354900  0.49354900  0.49354900  1
  Bi  Bi0  1  0.33211300  0.33211300  0.33211300  1
  Bi  Bi1  1  0.83211300  0.83211300  0.83211300  1
  P  P0  1  0.06499400  0.42934400  0.75957400  1
  P  P1  1  0.42934400  0.75957400  0.06499400  1
  P  P2  1  0.75957400  0.06499400  0.42934400  1
  P  P3  1  0.25957400  0.92934400  0.56499400  1
  P  P4  1  0.56499400  0.25957400  0.92934400  1
  P  P5  1  0.92934400  0.56499400  0.25957400  1
  O  O0  1  0.05701900  0.56407900  0.34159900  1
  O  O1  1  0.34159900  0.05701900  0.56407900  1
  O  O2  1  0.07141000  0.23540000  0.90808200  1
  O  O3  1  0.56407900  0.34159900  0.05701900  1
  O  O4  1  0.06407900  0.55701900  0.84159900  1
  O  O5  1  0.24170500  0.41864500  0.58982900  1
  O  O6  1  0.23540000  0.90808200  0.07141000  1
  O  O7  1  0.41864500  0.58982900  0.24170500  1
  O  O8  1  0.21003900  0.00556900  0.37761000  1
  O  O9  1  0.58982900  0.24170500  0.41864500  1
  O  O10  1  0.08982900  0.91864500  0.74170500  1
  O  O11  1  0.37761000  0.21003900  0.00556900  1
  O  O12  1  0.55701900  0.84159900  0.06407900  1
  O  O13  1  0.90808200  0.07141000  0.23540000  1
  O  O14  1  0.40808200  0.73540000  0.57141000  1
  O  O15  1  0.84159900  0.06407900  0.55701900  1
  O  O16  1  0.57141000  0.40808200  0.73540000  1
  O  O17  1  0.74170500  0.08982900  0.91864500  1
  O  O18  1  0.73540000  0.57141000  0.40808200  1
  O  O19  1  0.00556900  0.37761000  0.21003900  1
  O  O20  1  0.50556900  0.71003900  0.87761000  1
  O  O21  1  0.91864500  0.74170500  0.08982900  1
  O  O22  1  0.71003900  0.87761000  0.50556900  1
  O  O23  1  0.87761000  0.50556900  0.71003900  1
loop_
_geom_bond_atom_site_label_1
_geom_bond_atom_site_label_2
_geom_bond_distance
_geom_bond_site_symmetry_2
Bi0 O1 2.288262 1_555
Bi0 O3 2.288262 1_555
Bi0 O0 2.288262 1_555
Bi0 O7 2.303666 1_555
Bi0 O9 2.303666 1_555
Bi0 O5 2.303666 1_555
Bi1 O12 2.288262 1_556
Bi1 O15 2.288262 1_565
Bi1 O4 2.288262 1_655
Bi1 O10 2.303666 1_655
Bi1 O21 2.303666 1_556
Bi1 O17 2.303666 1_565
O0 P5 1.511889 1_455
O1 P3 1.511889 1_545
O2 P0 1.563380 1_555
O2 Ti0 2.140279 1_556
O2 Zn0 2.144286 1_445
O3 P4 1.511889 1_554
O4 P0 1.511889 1_555
O5 P0 1.553989 1_555
O5 Zn1 2.191326 1_555
O6 P1 1.563380 1_555
O6 Ti0 2.140279 1_565
O6 Zn0 2.144286 1_454
O7 P1 1.553989 1_555
O7 Zn1 2.191326 1_555
O8 P3 1.596097 1_545
O8 Ti0 1.929668 1_555
O9 P2 1.553989 1_555
O9 Zn1 2.191326 1_555
O10 P3 1.553989 1_555
O10 Zn0 2.191326 1_455
O11 P4 1.596097 1_554
O11 Ti0 1.929668 1_555
O12 P1 1.511889 1_555
O13 P2 1.563380 1_555
O13 Ti0 2.140278 1_655
O13 Zn0 2.144286 1_544
O14 P3 1.563380 1_555
O14 Ti1 2.140279 1_555
O14 Zn1 2.144286 1_555
O15 P2 1.511889 1_555
O16 P4 1.563380 1_555
O16 Ti1 2.140279 1_555
O16 Zn1 2.144286 1_555
O17 P4 1.553989 1_555
O17 Zn0 2.191326 1_545
O18 P5 1.563380 1_555
O18 Ti1 2.140279 1_555
O18 Zn1 2.144286 1_555
O19 P5 1.596097 1_455
O19 Ti0 1.929668 1_555
O20 P1 1.596097 1_556
O20 Ti1 1.929668 1_555
O21 P5 1.553989 1_555
O21 Zn0 2.191326 1_554
O22 P2 1.596097 1_565
O22 Ti1 1.929668 1_555
O23 P0 1.596097 1_655
O23 Ti1 1.929668 1_555
