# generated using pymatgen
data_U2O5
_symmetry_space_group_name_H-M   'P 1'
_cell_length_a   3.84055142
_cell_length_b   3.84055142
_cell_length_c   19.39418460
_cell_angle_alpha   84.86830009
_cell_angle_beta   84.86830009
_cell_angle_gamma   60.81014675
_symmetry_Int_Tables_number   1
_chemical_formula_structural   U2O5
_chemical_formula_sum   'U6 O15'
_cell_volume   248.38706664
_cell_formula_units_Z   3
loop_
 _symmetry_equiv_pos_site_id
 _symmetry_equiv_pos_as_xyz
  1  'x, y, z'
loop_
 _atom_site_type_symbol
 _atom_site_label
 _atom_site_symmetry_multiplicity
 _atom_site_fract_x
 _atom_site_fract_y
 _atom_site_fract_z
 _atom_site_occupancy
  U  U0  1  0.92897800  0.92897800  0.73847800  1
  U  U1  1  0.19080800  0.19080800  0.91972600  1
  U  U2  1  0.07102200  0.07102200  0.26152200  1
  U  U3  1  0.80919200  0.80919200  0.08027400  1
  U  U4  1  0.35162400  0.35162400  0.42807700  1
  U  U5  1  0.64837600  0.64837600  0.57192300  1
  O  O0  1  0.52884900  0.52884900  0.90633400  1
  O  O1  1  0.15625700  0.15625700  0.03089600  1
  O  O2  1  0.89012800  0.89012800  0.83893300  1
  O  O3  1  0.84374300  0.84374300  0.96910400  1
  O  O4  1  0.47115100  0.47115100  0.09366600  1
  O  O5  1  0.10987200  0.10987200  0.16106700  1
  O  O6  1  0.68085400  0.68085400  0.44585600  1
  O  O7  1  0.74920500  0.74920500  0.23312400  1
  O  O8  1  0.39161300  0.39161300  0.30077400  1
  O  O9  1  0.96675100  0.96675100  0.63038100  1
  O  O10  1  0.03324900  0.03324900  0.36961900  1
  O  O11  1  0.00000000  0.00000000  0.50000000  1
  O  O12  1  0.31914600  0.31914600  0.55414400  1
  O  O13  1  0.25079500  0.25079500  0.76687600  1
  O  O14  1  0.60838700  0.60838700  0.69922600  1
loop_
_geom_bond_atom_site_label_1
_geom_bond_atom_site_label_2
_geom_bond_distance
_geom_bond_site_symmetry_2
O0 U1 2.227518 1_555
O0 U1 2.248238 1_565
O0 U1 2.248238 1_655
O1 U1 2.144432 1_554
O1 U3 2.397235 1_445
O1 U3 2.433708 1_455
O1 U3 2.433708 1_545
O2 U0 1.938527 1_555
O2 U1 2.659012 1_665
O2 U1 2.747319 1_565
O2 U1 2.747319 1_655
O3 U3 2.144432 1_556
O3 U1 2.397235 1_665
O3 U1 2.433708 1_655
O3 U1 2.433708 1_565
O4 U3 2.227518 1_555
O4 U3 2.248238 1_455
O4 U3 2.248238 1_545
O5 U2 1.938527 1_555
O5 U3 2.659012 1_445
O5 U3 2.747319 1_545
O5 U3 2.747319 1_455
O6 U4 2.243185 1_555
O6 U4 2.257423 1_565
O6 U4 2.257423 1_655
O6 U5 2.432086 1_555
O7 U2 2.256561 1_665
O7 U2 2.310842 1_655
O7 U2 2.310842 1_565
O7 U3 2.949788 1_555
O8 U2 2.329268 1_555
O8 U2 2.362751 1_565
O8 U2 2.362751 1_655
O8 U4 2.455641 1_555
O9 U0 2.085407 1_555
O9 U5 2.495654 1_565
O9 U5 2.495654 1_655
O9 U5 2.495965 1_555
O10 U2 2.085407 1_555
O10 U4 2.495654 1_455
O10 U4 2.495654 1_545
O10 U4 2.495965 1_555
O11 U5 2.588030 1_445
O11 U4 2.588030 1_555
O11 U5 2.640913 1_455
O11 U5 2.640913 1_545
O11 U4 2.640913 1_455
O11 U4 2.640913 1_545
O12 U5 2.243185 1_555
O12 U5 2.257423 1_545
O12 U5 2.257423 1_455
O12 U4 2.432086 1_555
O13 U0 2.256561 1_445
O13 U0 2.310842 1_545
O13 U0 2.310842 1_455
O13 U1 2.949788 1_555
O14 U0 2.329268 1_555
O14 U0 2.362751 1_455
O14 U0 2.362751 1_545
O14 U5 2.455641 1_555
