# generated using pymatgen
data_FeBP(HO3)2
_symmetry_space_group_name_H-M   'P 1'
_cell_length_a   7.61564695
_cell_length_b   7.61564695
_cell_length_c   12.91176400
_cell_angle_alpha   90.00000000
_cell_angle_beta   90.00000000
_cell_angle_gamma   120.00000826
_symmetry_Int_Tables_number   1
_chemical_formula_structural   FeBP(HO3)2
_chemical_formula_sum   'Fe6 B6 P6 H12 O36'
_cell_volume   648.52956636
_cell_formula_units_Z   6
loop_
 _symmetry_equiv_pos_site_id
 _symmetry_equiv_pos_as_xyz
  1  'x, y, z'
loop_
 _atom_site_type_symbol
 _atom_site_label
 _atom_site_symmetry_multiplicity
 _atom_site_fract_x
 _atom_site_fract_y
 _atom_site_fract_z
 _atom_site_occupancy
  Fe  Fe0  1  0.12760800  0.00000000  0.33333300  1
  Fe  Fe1  1  0.00000000  0.12760800  0.66666700  1
  Fe  Fe2  1  0.87239200  0.87239200  0.00000000  1
  Fe  Fe3  1  0.24381500  0.00000000  0.83333300  1
  Fe  Fe4  1  0.00000000  0.24381500  0.16666700  1
  Fe  Fe5  1  0.75618500  0.75618500  0.50000000  1
  B  B0  1  0.24977900  0.56189200  0.54145000  1
  B  B1  1  0.43810800  0.68788600  0.87478400  1
  B  B2  1  0.56189200  0.24977900  0.45855000  1
  B  B3  1  0.31211400  0.75022100  0.20811700  1
  B  B4  1  0.68788600  0.43810800  0.12521600  1
  B  B5  1  0.75022100  0.31211400  0.79188300  1
  P  P0  1  0.07376500  0.32457800  0.90426900  1
  P  P1  1  0.67542200  0.74918700  0.23760200  1
  P  P2  1  0.32457800  0.07376500  0.09573100  1
  P  P3  1  0.25081300  0.92623500  0.57093600  1
  P  P4  1  0.74918700  0.67542200  0.76239800  1
  P  P5  1  0.92623500  0.25081300  0.42906400  1
  H  H0  1  0.57745800  0.26712200  0.92389900  1
  H  H1  1  0.73287800  0.31033600  0.25723300  1
  H  H2  1  0.26712200  0.57745800  0.07610100  1
  H  H3  1  0.68966400  0.42254200  0.59056600  1
  H  H4  1  0.31033600  0.73287800  0.74276700  1
  H  H5  1  0.42254200  0.68966400  0.40943400  1
  H  H6  1  0.36128100  0.45030300  0.65375500  1
  H  H7  1  0.54969700  0.91097700  0.98708800  1
  H  H8  1  0.45030300  0.36128100  0.34624500  1
  H  H9  1  0.08902300  0.63871900  0.32042100  1
  H  H10  1  0.91097700  0.54969700  0.01291200  1
  H  H11  1  0.63871900  0.08902300  0.67957900  1
  O  O0  1  0.56285400  0.21529700  0.85227900  1
  O  O1  1  0.78470300  0.34755700  0.18561200  1
  O  O2  1  0.21529700  0.56285400  0.14772100  1
  O  O3  1  0.65244300  0.43714600  0.51894600  1
  O  O4  1  0.34755700  0.78470300  0.81438800  1
  O  O5  1  0.43714600  0.65244300  0.48105400  1
  O  O6  1  0.46948800  0.06732300  0.52624200  1
  O  O7  1  0.93267700  0.40216500  0.85957600  1
  O  O8  1  0.06732300  0.46948800  0.47375800  1
  O  O9  1  0.59783500  0.53051200  0.19290900  1
  O  O10  1  0.40216500  0.93267700  0.14042400  1
  O  O11  1  0.53051200  0.59783500  0.80709100  1
  O  O12  1  0.23712400  0.40993800  0.61509800  1
  O  O13  1  0.59006200  0.82718700  0.94843100  1
  O  O14  1  0.40993800  0.23712400  0.38490200  1
  O  O15  1  0.17281300  0.76287600  0.28176400  1
  O  O16  1  0.82718700  0.59006200  0.05156900  1
  O  O17  1  0.76287600  0.17281300  0.71823600  1
  O  O18  1  0.22216700  0.02355400  0.66890300  1
  O  O19  1  0.97644600  0.19861300  0.00223600  1
  O  O20  1  0.02355400  0.22216700  0.33109700  1
  O  O21  1  0.80138700  0.77783300  0.33557000  1
  O  O22  1  0.19861300  0.97644600  0.99776400  1
  O  O23  1  0.77783300  0.80138700  0.66443000  1
  O  O24  1  0.12084200  0.20831600  0.82261100  1
  O  O25  1  0.79168400  0.91252700  0.15594400  1
  O  O26  1  0.20831600  0.12084200  0.17738900  1
  O  O27  1  0.08747300  0.87915800  0.48927700  1
  O  O28  1  0.91252700  0.79168400  0.84405600  1
  O  O29  1  0.87915800  0.08747300  0.51072300  1
  O  O30  1  0.27417300  0.51840500  0.94027000  1
  O  O31  1  0.48159500  0.75576700  0.27360400  1
  O  O32  1  0.51840500  0.27417300  0.05973000  1
  O  O33  1  0.24423300  0.72582700  0.60693700  1
  O  O34  1  0.75576700  0.48159500  0.72639600  1
  O  O35  1  0.72582700  0.24423300  0.39306300  1
loop_
_geom_bond_atom_site_label_1
_geom_bond_atom_site_label_2
_geom_bond_distance
_geom_bond_site_symmetry_2
Fe0 O15 2.108238 1_545
Fe0 O14 2.108242 1_555
Fe0 O27 2.171013 1_545
Fe0 O26 2.171014 1_555
Fe0 O21 2.198234 1_445
Fe0 O20 2.198234 1_555
Fe1 O17 2.108238 1_455
Fe1 O12 2.108242 1_555
Fe1 O29 2.171013 1_455
Fe1 O24 2.171014 1_555
Fe1 O23 2.198234 1_445
Fe1 O18 2.198234 1_555
Fe2 O16 2.108245 1_555
Fe2 O13 2.108245 1_554
Fe2 O25 2.171016 1_555
Fe2 O28 2.171016 1_554
Fe2 O22 2.198234 1_654
Fe2 O19 2.198234 1_565
Fe3 O18 2.143923 1_555
Fe3 O22 2.143935 1_545
Fe3 O4 2.160513 1_545
Fe3 O0 2.160514 1_555
Fe3 O28 2.213328 1_445
Fe3 O24 2.213333 1_555
Fe4 O20 2.143923 1_555
Fe4 O19 2.143935 1_455
Fe4 O1 2.160513 1_455
Fe4 O2 2.160514 1_555
Fe4 O25 2.213328 1_445
Fe4 O26 2.213333 1_555
Fe5 O21 2.143923 1_555
Fe5 O23 2.143923 1_555
Fe5 O3 2.160514 1_555
Fe5 O5 2.160514 1_555
Fe5 O29 2.213327 1_565
Fe5 O27 2.213327 1_655
B0 O5 1.461425 1_555
B0 O12 1.463282 1_555
B0 O8 1.487304 1_555
B0 O33 1.525829 1_555
B1 O4 1.461431 1_555
B1 O13 1.463279 1_555
B1 O11 1.487306 1_555
B1 O30 1.525822 1_555
B2 O3 1.461425 1_555
B2 O14 1.463282 1_555
B2 O6 1.487304 1_555
B2 O35 1.525829 1_555
B3 O2 1.461425 1_555
B3 O15 1.463286 1_555
B3 O10 1.487311 1_555
B3 O31 1.525829 1_555
B4 O1 1.461431 1_555
B4 O16 1.463279 1_555
B4 O9 1.487306 1_555
B4 O32 1.525822 1_555
B5 O0 1.461425 1_555
B5 O17 1.463286 1_555
B5 O7 1.487311 1_555
B5 O34 1.525829 1_555
H0 O0 0.989642 1_555
H1 O1 0.989654 1_555
H2 O2 0.989642 1_555
H3 O3 0.989642 1_555
H4 O4 0.989654 1_555
H5 O5 0.989642 1_555
H6 O12 0.973141 1_555
H7 O13 0.973129 1_555
H8 O14 0.973141 1_555
H9 O15 0.973139 1_555
H10 O16 0.973129 1_555
H11 O17 0.973139 1_555
O6 P3 1.572111 1_545
O7 P0 1.572107 1_655
O8 P5 1.572111 1_455
O9 P1 1.572106 1_555
O10 P2 1.572107 1_565
O11 P4 1.572106 1_555
O18 P3 1.535780 1_545
O19 P0 1.535779 1_654
O20 P5 1.535780 1_455
O21 P1 1.535790 1_555
O22 P2 1.535779 1_566
O23 P4 1.535790 1_555
O24 P0 1.530222 1_555
O25 P1 1.530226 1_555
O26 P2 1.530222 1_555
O27 P3 1.530236 1_555
O28 P4 1.530226 1_555
O29 P5 1.530236 1_555
O30 P0 1.572097 1_555
O31 P1 1.572097 1_555
O32 P2 1.572097 1_555
O33 P3 1.572101 1_555
O34 P4 1.572097 1_555
O35 P5 1.572101 1_555
