# generated using pymatgen
data_BC7
_symmetry_space_group_name_H-M   'P 1'
_cell_length_a   2.51836500
_cell_length_b   2.51836500
_cell_length_c   7.49430100
_cell_angle_alpha   90.00000000
_cell_angle_beta   90.00000000
_cell_angle_gamma   90.00000000
_symmetry_Int_Tables_number   1
_chemical_formula_structural   BC7
_chemical_formula_sum   'B1 C7'
_cell_volume   47.53007307
_cell_formula_units_Z   1
loop_
 _symmetry_equiv_pos_site_id
 _symmetry_equiv_pos_as_xyz
  1  'x, y, z'
loop_
 _atom_site_type_symbol
 _atom_site_label
 _atom_site_symmetry_multiplicity
 _atom_site_fract_x
 _atom_site_fract_y
 _atom_site_fract_z
 _atom_site_occupancy
  B  B0  1  0.00000000  0.00000000  0.50000000  1
  C  C0  1  0.00000000  0.00000000  0.00000000  1
  C  C1  1  0.00000000  0.50000000  0.11909500  1
  C  C2  1  0.50000000  0.00000000  0.88090500  1
  C  C3  1  0.00000000  0.50000000  0.64234500  1
  C  C4  1  0.50000000  0.00000000  0.35765500  1
  C  C5  1  0.50000000  0.50000000  0.24207700  1
  C  C6  1  0.50000000  0.50000000  0.75792300  1
loop_
_geom_bond_atom_site_label_1
_geom_bond_atom_site_label_2
_geom_bond_distance
_geom_bond_site_symmetry_2
B0 C4 1.650319 1_455
B0 C4 1.650319 1_555
B0 C3 1.650319 1_555
B0 C3 1.650319 1_545
C0 C2 1.543424 1_454
C0 C1 1.543424 1_555
C0 C1 1.543424 1_545
C0 C2 1.543424 1_554
C1 C5 1.560450 1_455
C1 C5 1.560450 1_555
C2 C6 1.560450 1_555
C2 C6 1.560450 1_545
C3 C6 1.528333 1_555
C3 C6 1.528333 1_455
C4 C5 1.528333 1_545
C4 C5 1.528333 1_555
