# generated using pymatgen
data_Mn2Al4Si5O18
_symmetry_space_group_name_H-M   'P 1'
_cell_length_a   10.12621734
_cell_length_b   10.12621734
_cell_length_c   9.39429400
_cell_angle_alpha   90.00000000
_cell_angle_beta   90.00000000
_cell_angle_gamma   120.83316806
_symmetry_Int_Tables_number   1
_chemical_formula_structural   Mn2Al4Si5O18
_chemical_formula_sum   'Mn4 Al8 Si10 O36'
_cell_volume   827.14482193
_cell_formula_units_Z   2
loop_
 _symmetry_equiv_pos_site_id
 _symmetry_equiv_pos_as_xyz
  1  'x, y, z'
loop_
 _atom_site_type_symbol
 _atom_site_label
 _atom_site_symmetry_multiplicity
 _atom_site_fract_x
 _atom_site_fract_y
 _atom_site_fract_z
 _atom_site_occupancy
  Mn  Mn0  1  0.16287400  0.83712600  0.75000000  1
  Mn  Mn1  1  0.83712600  0.16287400  0.75000000  1
  Mn  Mn2  1  0.83712600  0.16287400  0.25000000  1
  Mn  Mn3  1  0.16287400  0.83712600  0.25000000  1
  Al  Al0  1  0.75822000  0.85283800  0.50000000  1
  Al  Al1  1  0.24178000  0.14716200  0.50000000  1
  Al  Al2  1  0.85283800  0.75822000  0.00000000  1
  Al  Al3  1  0.14716200  0.24178000  0.00000000  1
  Al  Al4  1  0.00000000  0.50000000  0.74992300  1
  Al  Al5  1  0.50000000  0.00000000  0.75007700  1
  Al  Al6  1  0.00000000  0.50000000  0.25007700  1
  Al  Al7  1  0.50000000  0.00000000  0.24992300  1
  Si  Si0  1  0.59551300  0.86542100  0.00000000  1
  Si  Si1  1  0.60603400  0.23014900  0.50000000  1
  Si  Si2  1  0.76985100  0.39396600  0.00000000  1
  Si  Si3  1  0.40448700  0.13457900  0.00000000  1
  Si  Si4  1  0.00000000  0.00000000  0.75000000  1
  Si  Si5  1  0.00000000  0.00000000  0.25000000  1
  Si  Si6  1  0.86542100  0.59551300  0.50000000  1
  Si  Si7  1  0.13457900  0.40448700  0.50000000  1
  Si  Si8  1  0.39396600  0.76985100  0.50000000  1
  Si  Si9  1  0.23014900  0.60603400  0.00000000  1
  O  O0  1  0.26466800  0.58763600  0.50000000  1
  O  O1  1  0.73533200  0.41236400  0.50000000  1
  O  O2  1  0.58763600  0.26466800  0.00000000  1
  O  O3  1  0.41236400  0.73533200  0.00000000  1
  O  O4  1  0.56745200  0.80461900  0.50000000  1
  O  O5  1  0.43254800  0.19538100  0.50000000  1
  O  O6  1  0.80461900  0.56745200  0.00000000  1
  O  O7  1  0.19538100  0.43254800  0.00000000  1
  O  O8  1  0.20828000  0.29814000  0.50000000  1
  O  O9  1  0.79172000  0.70186000  0.50000000  1
  O  O10  1  0.29814000  0.20828000  0.00000000  1
  O  O11  1  0.70186000  0.79172000  0.00000000  1
  O  O12  1  0.62865900  0.97562700  0.85820400  1
  O  O13  1  0.37134100  0.02437300  0.85820400  1
  O  O14  1  0.97562700  0.62865900  0.64179600  1
  O  O15  1  0.02437300  0.37134100  0.64179600  1
  O  O16  1  0.37134100  0.02437300  0.14179600  1
  O  O17  1  0.62865900  0.97562700  0.14179600  1
  O  O18  1  0.02437300  0.37134100  0.35820400  1
  O  O19  1  0.97562700  0.62865900  0.35820400  1
  O  O20  1  0.97321300  0.85439300  0.84925000  1
  O  O21  1  0.02678700  0.14560700  0.84925000  1
  O  O22  1  0.36385100  0.84867600  0.35849700  1
  O  O23  1  0.63614900  0.15132400  0.35849700  1
  O  O24  1  0.84867600  0.36385100  0.14150300  1
  O  O25  1  0.15132400  0.63614900  0.14150300  1
  O  O26  1  0.63614900  0.15132400  0.64150300  1
  O  O27  1  0.36385100  0.84867600  0.64150300  1
  O  O28  1  0.15132400  0.63614900  0.85849700  1
  O  O29  1  0.85439300  0.97321300  0.65075000  1
  O  O30  1  0.85439300  0.97321300  0.34925000  1
  O  O31  1  0.14560700  0.02678700  0.34925000  1
  O  O32  1  0.97321300  0.85439300  0.15075000  1
  O  O33  1  0.02678700  0.14560700  0.15075000  1
  O  O34  1  0.14560700  0.02678700  0.65075000  1
  O  O35  1  0.84867600  0.36385100  0.85849700  1
loop_
_geom_bond_atom_site_label_1
_geom_bond_atom_site_label_2
_geom_bond_distance
_geom_bond_site_symmetry_2
Mn0 O34 2.220956 1_565
Mn0 O20 2.220956 1_455
Mn0 O27 2.224936 1_555
Mn0 O28 2.224936 1_555
Mn0 O13 2.231972 1_565
Mn0 O14 2.231972 1_455
Mn1 O21 2.220956 1_655
Mn1 O29 2.220956 1_545
Mn1 O35 2.224936 1_555
Mn1 O26 2.224936 1_555
Mn1 O15 2.231972 1_655
Mn1 O12 2.231972 1_545
Mn2 O33 2.220956 1_655
Mn2 O30 2.220956 1_545
Mn2 O24 2.224936 1_555
Mn2 O23 2.224936 1_555
Mn2 O18 2.231972 1_655
Mn2 O17 2.231972 1_545
Mn3 O31 2.220956 1_565
Mn3 O32 2.220956 1_455
Mn3 O22 2.224936 1_555
Mn3 O25 2.224936 1_555
Mn3 O16 2.231972 1_565
Mn3 O19 2.231972 1_455
Al0 O9 1.727439 1_555
Al0 O4 1.732979 1_555
Al0 O30 1.795264 1_555
Al0 O29 1.795264 1_555
Al1 O8 1.727439 1_555
Al1 O5 1.732979 1_555
Al1 O31 1.795264 1_555
Al1 O34 1.795264 1_555
Al2 O11 1.727439 1_555
Al2 O6 1.732979 1_555
Al2 O32 1.795264 1_555
Al2 O20 1.795264 1_554
Al3 O10 1.727439 1_555
Al3 O7 1.732979 1_555
Al3 O33 1.795264 1_555
Al3 O21 1.795264 1_554
Al4 O14 1.766264 1_455
Al4 O15 1.766264 1_555
Al4 O28 1.767365 1_555
Al4 O35 1.767365 1_455
Al5 O12 1.766264 1_545
Al5 O13 1.766264 1_555
Al5 O26 1.767365 1_555
Al5 O27 1.767365 1_545
Al6 O19 1.766264 1_455
Al6 O18 1.766264 1_555
Al6 O25 1.767365 1_555
Al6 O24 1.767365 1_455
Al7 O17 1.766264 1_545
Al7 O16 1.766264 1_555
Al7 O23 1.767365 1_555
Al7 O22 1.767365 1_545
O0 Si8 1.625545 1_555
O0 Si7 1.634168 1_555
O1 Si1 1.625545 1_555
O1 Si6 1.634168 1_555
O2 Si2 1.625545 1_555
O2 Si3 1.634168 1_555
O3 Si9 1.625545 1_555
O3 Si0 1.634168 1_555
O4 Si8 1.605035 1_555
O5 Si1 1.605035 1_555
O6 Si2 1.605035 1_555
O7 Si9 1.605035 1_555
O8 Si7 1.593906 1_555
O9 Si6 1.593906 1_555
O10 Si3 1.593906 1_555
O11 Si0 1.593906 1_555
O12 Si0 1.657861 1_556
O13 Si3 1.657861 1_556
O14 Si6 1.657861 1_555
O15 Si7 1.657861 1_555
O16 Si3 1.657861 1_555
O17 Si0 1.657861 1_555
O18 Si7 1.657861 1_555
O19 Si6 1.657861 1_555
O20 Si4 1.645277 1_665
O21 Si4 1.645277 1_555
O22 Si8 1.657325 1_555
O23 Si1 1.657325 1_555
O24 Si2 1.657325 1_555
O25 Si9 1.657325 1_555
O26 Si1 1.657325 1_555
O27 Si8 1.657325 1_555
O28 Si9 1.657325 1_556
O29 Si4 1.645277 1_665
O30 Si5 1.645277 1_665
O31 Si5 1.645277 1_555
O32 Si5 1.645277 1_665
O33 Si5 1.645277 1_555
O34 Si4 1.645277 1_555
O35 Si2 1.657325 1_556
