# generated using pymatgen
data_Sc2Al3Ru
_symmetry_space_group_name_H-M   'P 1'
_cell_length_a   5.27760745
_cell_length_b   5.27760785
_cell_length_c   8.53972171
_cell_angle_alpha   90.00000000
_cell_angle_beta   90.00000000
_cell_angle_gamma   119.99998018
_symmetry_Int_Tables_number   1
_chemical_formula_structural   Sc2Al3Ru
_chemical_formula_sum   'Sc4 Al6 Ru2'
_cell_volume   205.99118603
_cell_formula_units_Z   2
loop_
 _symmetry_equiv_pos_site_id
 _symmetry_equiv_pos_as_xyz
  1  'x, y, z'
loop_
 _atom_site_type_symbol
 _atom_site_label
 _atom_site_symmetry_multiplicity
 _atom_site_fract_x
 _atom_site_fract_y
 _atom_site_fract_z
 _atom_site_occupancy
  Sc  Sc0  1  0.33333300  0.66666700  0.05511442  1
  Sc  Sc1  1  0.66666700  0.33333300  0.55511042  1
  Sc  Sc2  1  0.33333300  0.66666700  0.44488958  1
  Sc  Sc3  1  0.66666700  0.33333300  0.94488558  1
  Al  Al0  1  0.83530460  0.67060919  0.25000200  1
  Al  Al1  1  0.16469540  0.83530460  0.74999800  1
  Al  Al2  1  0.67060919  0.83530460  0.74999800  1
  Al  Al3  1  0.32939081  0.16469540  0.25000200  1
  Al  Al4  1  0.83530460  0.16469540  0.25000200  1
  Al  Al5  1  0.16469540  0.32939081  0.74999800  1
  Ru  Ru0  1  -0.00000000  -0.00000000  0.50000000  1
  Ru  Ru1  1  -0.00000000  -0.00000000  0.00000000  1
loop_
_geom_bond_atom_site_label_1
_geom_bond_atom_site_label_2
_geom_bond_distance
_geom_bond_site_symmetry_2
Sc0 Sc3 3.189115 1_454
Sc0 Sc3 3.189115 1_564
Sc0 Sc3 3.189123 1_554
Sc0 Sc2 3.328571 1_555
Sc1 Sc2 3.189095 1_655
Sc1 Sc2 3.189095 1_545
Sc1 Sc2 3.189103 1_555
Sc1 Sc3 3.328571 1_555
Al0 Al4 2.607593 1_565
Al0 Al3 2.607594 1_665
Al0 Ru0 2.612350 1_665
Al0 Ru1 2.612377 1_665
Al0 Al4 2.670015 1_555
Al0 Al3 2.670015 1_555
Al0 Sc1 3.027404 1_555
Al0 Sc3 3.027463 1_554
Al0 Sc2 3.119847 1_655
Al0 Sc0 3.119847 1_655
Al0 Sc0 3.119851 1_555
Al0 Sc2 3.119851 1_555
Al1 Al2 2.607593 1_455
Al1 Al5 2.607593 1_565
Al1 Ru0 2.612349 1_565
Al1 Ru1 2.612377 1_566
Al1 Al2 2.670014 1_555
Al1 Al5 2.670015 1_555
Al1 Sc2 3.027402 1_555
Al1 Sc0 3.027460 1_556
Al1 Sc1 3.119850 1_565
Al1 Sc3 3.119850 1_565
Al1 Sc1 3.119850 1_455
Al1 Sc3 3.119850 1_455
Al2 Al5 2.607594 1_665
Al2 Ru0 2.612349 1_665
Al2 Ru1 2.612377 1_666
Al2 Al5 2.670015 1_555
Al2 Sc2 3.027404 1_555
Al2 Sc0 3.027463 1_556
Al2 Sc1 3.119847 1_565
Al2 Sc3 3.119847 1_565
Al2 Sc1 3.119851 1_555
Al2 Sc3 3.119851 1_555
Al3 Al4 2.607593 1_455
Al3 Ru0 2.612349 1_555
Al3 Ru1 2.612377 1_555
Al3 Al4 2.670014 1_555
Al3 Sc1 3.027404 1_555
Al3 Sc3 3.027463 1_554
Al3 Sc2 3.119847 1_545
Al3 Sc0 3.119847 1_545
Al3 Sc0 3.119851 1_555
Al3 Sc2 3.119851 1_555
Al4 Ru0 2.612349 1_655
Al4 Ru1 2.612377 1_655
Al4 Sc1 3.027402 1_555
Al4 Sc3 3.027460 1_554
Al4 Sc0 3.119850 1_545
Al4 Sc2 3.119850 1_545
Al4 Sc2 3.119850 1_655
Al4 Sc0 3.119850 1_655
Al5 Ru0 2.612350 1_555
Al5 Ru1 2.612377 1_556
Al5 Sc2 3.027404 1_555
Al5 Sc0 3.027463 1_556
Al5 Sc1 3.119847 1_455
Al5 Sc3 3.119847 1_455
Al5 Sc1 3.119851 1_555
Al5 Sc3 3.119851 1_555
Ru0 Sc2 3.083156 1_545
Ru0 Sc1 3.083156 1_455
Ru0 Sc2 3.083161 1_445
Ru0 Sc1 3.083161 1_555
Ru0 Sc1 3.083162 1_445
Ru0 Sc2 3.083162 1_555
Ru1 Sc3 3.083161 1_454
Ru1 Sc0 3.083161 1_545
Ru1 Sc0 3.083166 1_445
Ru1 Sc3 3.083166 1_554
Ru1 Sc3 3.083167 1_444
Ru1 Sc0 3.083167 1_555
