# generated using pymatgen
data_RbCN2
_symmetry_space_group_name_H-M   'P 1'
_cell_length_a   7.69289400
_cell_length_b   9.32746300
_cell_length_c   9.41050500
_cell_angle_alpha   90.00000000
_cell_angle_beta   90.00000000
_cell_angle_gamma   90.00000000
_symmetry_Int_Tables_number   1
_chemical_formula_structural   RbCN2
_chemical_formula_sum   'Rb8 C8 N16'
_cell_volume   675.25251920
_cell_formula_units_Z   8
loop_
 _symmetry_equiv_pos_site_id
 _symmetry_equiv_pos_as_xyz
  1  'x, y, z'
loop_
 _atom_site_type_symbol
 _atom_site_label
 _atom_site_symmetry_multiplicity
 _atom_site_fract_x
 _atom_site_fract_y
 _atom_site_fract_z
 _atom_site_occupancy
  Rb  Rb0  1  0.51584500  0.25189300  0.15213200  1
  Rb  Rb1  1  0.48415500  0.75189300  0.34786800  1
  Rb  Rb2  1  0.01584500  0.24810700  0.84786800  1
  Rb  Rb3  1  0.98415500  0.74810700  0.65213200  1
  Rb  Rb4  1  0.73374200  0.09834200  0.50904700  1
  Rb  Rb5  1  0.26625800  0.59834200  0.99095300  1
  Rb  Rb6  1  0.23374200  0.40165800  0.49095300  1
  Rb  Rb7  1  0.76625800  0.90165800  0.00904700  1
  C  C0  1  0.73156800  0.43943800  0.48986400  1
  C  C1  1  0.26843200  0.93943800  0.01013600  1
  C  C2  1  0.23156800  0.06056200  0.51013600  1
  C  C3  1  0.76843200  0.56056200  0.98986400  1
  C  C4  1  0.98473300  0.74906000  0.31371900  1
  C  C5  1  0.01526700  0.24906000  0.18628100  1
  C  C6  1  0.48473300  0.75094000  0.68628100  1
  C  C7  1  0.51526700  0.25094000  0.81371900  1
  N  N0  1  0.85931100  0.43712600  0.56966600  1
  N  N1  1  0.14068900  0.93712600  0.93033400  1
  N  N2  1  0.35931100  0.06287400  0.43033400  1
  N  N3  1  0.64068900  0.56287400  0.06966600  1
  N  N4  1  0.60416000  0.43809100  0.40980300  1
  N  N5  1  0.39584000  0.93809100  0.09019700  1
  N  N6  1  0.10416000  0.06190900  0.59019700  1
  N  N7  1  0.89584000  0.56190900  0.90980300  1
  N  N8  1  0.11123700  0.66831400  0.29992400  1
  N  N9  1  0.88876300  0.16831400  0.20007600  1
  N  N10  1  0.61123700  0.83168600  0.70007600  1
  N  N11  1  0.38876300  0.33168600  0.79992400  1
  N  N12  1  0.85948000  0.83026000  0.33123300  1
  N  N13  1  0.14052000  0.33026000  0.16876700  1
  N  N14  1  0.35948000  0.66974000  0.66876700  1
  N  N15  1  0.64052000  0.16974000  0.83123300  1
loop_
_geom_bond_atom_site_label_1
_geom_bond_atom_site_label_2
_geom_bond_distance
_geom_bond_site_symmetry_2
C0 N4 1.236308 1_555
C0 N0 1.236995 1_555
C1 N5 1.236308 1_555
C1 N1 1.236995 1_554
C2 N6 1.236308 1_555
C2 N2 1.236995 1_555
C3 N7 1.236308 1_555
C3 N3 1.236995 1_556
C4 N12 1.236628 1_555
C4 N8 1.237408 1_655
C4 Rb3 3.184653 1_555
C5 N13 1.236628 1_555
C5 N9 1.237408 1_455
C5 Rb2 3.184653 1_554
C6 N14 1.236628 1_555
C6 N10 1.237408 1_555
C6 Rb1 3.184653 1_555
C7 N15 1.236628 1_555
C7 N11 1.237408 1_555
C7 Rb0 3.184653 1_556
N0 Rb6 2.992518 1_655
N0 Rb3 3.152537 1_555
N0 Rb2 3.378245 1_655
N1 Rb7 2.992518 1_456
N1 Rb2 3.152537 1_565
N1 Rb3 3.378245 1_455
N2 Rb4 2.992518 1_555
N2 Rb1 3.152537 1_545
N2 Rb0 3.378245 1_555
N3 Rb5 2.992518 1_554
N3 Rb0 3.152537 1_555
N3 Rb1 3.378245 1_555
N4 Rb6 2.969647 1_555
N4 Rb0 3.059023 1_555
N4 Rb1 3.123966 1_555
N5 Rb7 2.969647 1_555
N5 Rb1 3.059023 1_555
N5 Rb0 3.123966 1_565
N6 Rb4 2.969647 1_455
N6 Rb2 3.059023 1_555
N6 Rb3 3.123966 1_445
N7 Rb5 2.969647 1_655
N7 Rb3 3.059023 1_555
N7 Rb2 3.123966 1_655
N8 Rb1 3.006896 1_555
N8 Rb5 3.209696 1_554
N8 Rb6 3.210309 1_555
N9 Rb0 3.006896 1_555
N9 Rb4 3.209696 1_555
N9 Rb7 3.210309 1_545
N10 Rb3 3.006896 1_555
N10 Rb7 3.209696 1_556
N10 Rb4 3.210309 1_565
N11 Rb2 3.006896 1_555
N11 Rb6 3.209696 1_555
N11 Rb5 3.210309 1_555
N12 Rb1 2.982536 1_555
N12 Rb4 3.160423 1_565
N12 Rb7 3.185973 1_555
N12 Rb3 3.259816 1_555
N13 Rb0 2.982536 1_555
N13 Rb5 3.160423 1_554
N13 Rb6 3.185973 1_555
N13 Rb2 3.259816 1_554
N14 Rb3 2.982536 1_455
N14 Rb6 3.160423 1_555
N14 Rb5 3.185973 1_555
N14 Rb1 3.259816 1_555
N15 Rb2 2.982536 1_655
N15 Rb7 3.160423 1_546
N15 Rb4 3.185973 1_555
N15 Rb0 3.259816 1_556
