# generated using pymatgen
data_Sr4LiSm2Ta2O12
_symmetry_space_group_name_H-M   'P 1'
_cell_length_a   5.81825632
_cell_length_b   6.18197850
_cell_length_c   8.44291609
_cell_angle_alpha   91.71550059
_cell_angle_beta   90.83793032
_cell_angle_gamma   89.24736788
_symmetry_Int_Tables_number   1
_chemical_formula_structural   Sr4LiSm2Ta2O12
_chemical_formula_sum   'Sr4 Li1 Sm2 Ta2 O12'
_cell_volume   303.48457302
_cell_formula_units_Z   1
loop_
 _symmetry_equiv_pos_site_id
 _symmetry_equiv_pos_as_xyz
  1  'x, y, z'
loop_
 _atom_site_type_symbol
 _atom_site_label
 _atom_site_symmetry_multiplicity
 _atom_site_fract_x
 _atom_site_fract_y
 _atom_site_fract_z
 _atom_site_occupancy
  Sr  Sr0  1  0.03847900  0.44801600  0.24799400  1
  Sr  Sr1  1  0.98070700  0.56029200  0.74113400  1
  Sr  Sr2  1  0.47043200  0.89915100  0.28216400  1
  Sr  Sr3  1  0.51547400  0.06100500  0.75193500  1
  Li  Li0  1  0.63621600  0.22346100  0.14795000  1
  Sm  Sm0  1  0.99286100  0.00012600  0.49978500  1
  Sm  Sm1  1  0.49914900  0.53882100  0.98181400  1
  Ta  Ta0  1  0.01275000  0.00929100  0.99953400  1
  Ta  Ta1  1  0.49902000  0.48538300  0.49991100  1
  O  O0  1  0.88637300  0.04858000  0.22967400  1
  O  O1  1  0.09204900  0.97569700  0.77065100  1
  O  O2  1  0.58553000  0.50261200  0.26117400  1
  O  O3  1  0.40105200  0.47464700  0.72772600  1
  O  O4  1  0.18420300  0.73799900  0.06058300  1
  O  O5  1  0.81268600  0.28457000  0.95946900  1
  O  O6  1  0.31154200  0.21747800  0.44887300  1
  O  O7  1  0.68527700  0.76408500  0.54354000  1
  O  O8  1  0.29912600  0.18900200  0.05188400  1
  O  O9  1  0.72988500  0.82115600  0.94674600  1
  O  O10  1  0.21848900  0.68491300  0.45616700  1
  O  O11  1  0.77370000  0.30288200  0.55535600  1
loop_
_geom_bond_atom_site_label_1
_geom_bond_atom_site_label_2
_geom_bond_distance
_geom_bond_site_symmetry_2
Li0 O0 1.933197 1_555
Li0 O5 1.955307 1_554
Li0 O2 1.968490 1_555
Li0 O8 2.122247 1_555
O0 Ta0 2.093787 1_654
O0 Sm0 2.380985 1_555
O0 Sr0 2.633465 1_655
O0 Sr2 2.649717 1_545
O1 Ta0 1.997463 1_565
O1 Sm0 2.359141 1_465
O1 Sr3 2.534344 1_565
O1 Sr1 2.660298 1_455
O2 Ta1 2.090794 1_555
O2 Sm1 2.420690 1_554
O2 Sr2 2.534470 1_555
O2 Sr0 2.656022 1_655
O3 Ta1 2.017317 1_555
O3 Sm1 2.237051 1_555
O3 Sr1 2.498991 1_455
O3 Sr3 2.646973 1_555
O4 Ta0 2.016505 1_564
O4 Sm1 2.289885 1_554
O4 Sr0 2.585573 1_555
O4 Sr2 2.665825 1_555
O4 Sr1 3.105855 1_454
O5 Ta0 2.082379 1_655
O5 Sm1 2.398103 1_555
O5 Sr1 2.746580 1_555
O5 Sr3 2.792813 1_555
O5 Sr0 2.911146 1_656
O6 Ta1 2.027176 1_555
O6 Sm0 2.356159 1_455
O6 Sr2 2.555922 1_545
O6 Sr0 2.727293 1_555
O6 Sr3 2.986615 1_555
O7 Ta1 2.068317 1_555
O7 Sm0 2.364028 1_565
O7 Sr2 2.670547 1_555
O7 Sr3 2.692741 1_565
O7 Sr1 2.703698 1_555
O8 Ta0 2.050256 1_554
O8 Sm1 2.558117 1_554
O8 Sr0 2.730585 1_555
O8 Sr2 2.844150 1_545
O8 Sr3 2.927623 1_554
O9 Ta0 2.063421 1_665
O9 Sm1 2.245089 1_555
O9 Sr3 2.549012 1_565
O9 Sr1 2.754737 1_555
O10 Ta1 2.068510 1_555
O10 Sm0 2.357992 1_465
O10 Sr0 2.482564 1_555
O10 Sr2 2.508299 1_555
O10 Sr1 2.921040 1_455
O11 Ta1 2.002122 1_555
O11 Sm0 2.291577 1_555
O11 Sr1 2.507737 1_555
O11 Sr3 2.743772 1_555
