# generated using pymatgen
data_TlN
_symmetry_space_group_name_H-M   'P 1'
_cell_length_a   3.72944739
_cell_length_b   3.72944739
_cell_length_c   6.08580800
_cell_angle_alpha   90.00000000
_cell_angle_beta   90.00000000
_cell_angle_gamma   119.99998909
_symmetry_Int_Tables_number   1
_chemical_formula_structural   TlN
_chemical_formula_sum   'Tl2 N2'
_cell_volume   73.30572532
_cell_formula_units_Z   2
loop_
 _symmetry_equiv_pos_site_id
 _symmetry_equiv_pos_as_xyz
  1  'x, y, z'
loop_
 _atom_site_type_symbol
 _atom_site_label
 _atom_site_symmetry_multiplicity
 _atom_site_fract_x
 _atom_site_fract_y
 _atom_site_fract_z
 _atom_site_occupancy
  Tl  Tl0  1  0.66666700  0.33333300  0.50032400  1
  Tl  Tl1  1  0.33333300  0.66666700  0.00032400  1
  N  N0  1  0.66666700  0.33333300  0.12467600  1
  N  N1  1  0.33333300  0.66666700  0.62467600  1
loop_
_geom_bond_atom_site_label_1
_geom_bond_atom_site_label_2
_geom_bond_distance
_geom_bond_site_symmetry_2
N0 Tl1 2.282317 1_545
N0 Tl1 2.282317 1_655
N0 Tl1 2.282323 1_555
N0 Tl0 2.286122 1_555
N1 Tl0 2.282317 1_455
N1 Tl0 2.282317 1_565
N1 Tl0 2.282323 1_555
N1 Tl1 2.286122 1_556
