# generated using pymatgen
data_Ba3Mn2IrO9
_symmetry_space_group_name_H-M   'P 1'
_cell_length_a   8.08217878
_cell_length_b   8.08217878
_cell_length_c   8.08217890
_cell_angle_alpha   42.37123620
_cell_angle_beta   42.37123620
_cell_angle_gamma   42.37123758
_symmetry_Int_Tables_number   1
_chemical_formula_structural   Ba3Mn2IrO9
_chemical_formula_sum   'Ba3 Mn2 Ir1 O9'
_cell_volume   217.06180917
_cell_formula_units_Z   1
loop_
 _symmetry_equiv_pos_site_id
 _symmetry_equiv_pos_as_xyz
  1  'x, y, z'
loop_
 _atom_site_type_symbol
 _atom_site_label
 _atom_site_symmetry_multiplicity
 _atom_site_fract_x
 _atom_site_fract_y
 _atom_site_fract_z
 _atom_site_occupancy
  Ba  Ba0  1  0.00000000  0.00000000  0.00000000  1
  Ba  Ba1  1  0.77976400  0.77976400  0.77976400  1
  Ba  Ba2  1  0.22023600  0.22023600  0.22023600  1
  Mn  Mn0  1  0.62206400  0.62206400  0.62206400  1
  Mn  Mn1  1  0.37793600  0.37793600  0.37793600  1
  Ir  Ir0  1  0.50000000  0.50000000  0.50000000  1
  O  O0  1  0.29127100  0.75043500  0.29127100  1
  O  O1  1  0.29127100  0.29127100  0.75043500  1
  O  O2  1  0.75043500  0.29127100  0.29127100  1
  O  O3  1  0.70872900  0.24956500  0.70872900  1
  O  O4  1  0.70872900  0.70872900  0.24956500  1
  O  O5  1  0.24956500  0.70872900  0.70872900  1
  O  O6  1  0.50000000  0.50000000  0.00000000  1
  O  O7  1  0.00000000  0.50000000  0.50000000  1
  O  O8  1  0.50000000  0.00000000  0.50000000  1
loop_
_geom_bond_atom_site_label_1
_geom_bond_atom_site_label_2
_geom_bond_distance
_geom_bond_site_symmetry_2
Ba0 O7 2.920823 1_545
Ba0 O8 2.920823 1_455
Ba0 O7 2.920823 1_554
Ba0 O8 2.920823 1_554
Ba0 O6 2.920823 1_455
Ba0 O6 2.920823 1_545
Ba0 O1 3.050980 1_554
Ba0 O4 3.050980 1_445
Ba0 O0 3.050980 1_545
Ba0 O2 3.050980 1_455
Ba0 O3 3.050980 1_454
Ba0 O5 3.050980 1_544
Ba1 O2 2.924436 1_556
Ba1 O0 2.924436 1_556
Ba1 O0 2.924436 1_655
Ba1 O2 2.924436 1_565
Ba1 O1 2.924436 1_565
Ba1 O1 2.924436 1_655
Ba1 O6 3.008991 1_556
Ba1 O7 3.008991 1_655
Ba1 O8 3.008991 1_565
Ba1 O5 3.020181 1_655
Ba1 O3 3.020181 1_565
Ba1 O4 3.020181 1_556
Ba2 O3 2.924436 1_554
Ba2 O5 2.924436 1_554
Ba2 O3 2.924436 1_455
Ba2 O5 2.924436 1_545
Ba2 O4 2.924436 1_455
Ba2 O4 2.924436 1_545
Ba2 O6 3.008991 1_555
Ba2 O7 3.008991 1_555
Ba2 O8 3.008991 1_555
Ba2 O2 3.020181 1_455
Ba2 O0 3.020181 1_545
Ba2 O1 3.020181 1_554
Mn0 O7 1.951827 1_655
Mn0 O8 1.951827 1_565
Mn0 O6 1.951827 1_556
Mn0 O5 2.130298 1_555
Mn0 O3 2.130298 1_555
Mn0 O4 2.130298 1_555
Mn1 O7 1.951827 1_555
Mn1 O8 1.951827 1_555
Mn1 O6 1.951827 1_555
Mn1 O2 2.130298 1_555
Mn1 O0 2.130298 1_555
Mn1 O1 2.130298 1_555
Ir0 O4 1.975634 1_555
Ir0 O1 1.975634 1_555
Ir0 O5 1.975634 1_555
Ir0 O3 1.975634 1_555
Ir0 O2 1.975634 1_555
Ir0 O0 1.975634 1_555
