# generated using pymatgen
data_SmCu4Pd
_symmetry_space_group_name_H-M   'P 1'
_cell_length_a   5.19157586
_cell_length_b   5.19157586
_cell_length_c   5.19157666
_cell_angle_alpha   56.80054056
_cell_angle_beta   56.80054056
_cell_angle_gamma   56.80054040
_symmetry_Int_Tables_number   1
_chemical_formula_structural   SmCu4Pd
_chemical_formula_sum   'Sm1 Cu4 Pd1'
_cell_volume   91.63610912
_cell_formula_units_Z   1
loop_
 _symmetry_equiv_pos_site_id
 _symmetry_equiv_pos_as_xyz
  1  'x, y, z'
loop_
 _atom_site_type_symbol
 _atom_site_label
 _atom_site_symmetry_multiplicity
 _atom_site_fract_x
 _atom_site_fract_y
 _atom_site_fract_z
 _atom_site_occupancy
  Sm  Sm0  1  0.99970812  0.99970812  0.99970812  1
  Cu  Cu0  1  0.63082791  0.13247017  0.63082791  1
  Cu  Cu1  1  0.13247017  0.63082791  0.63082791  1
  Cu  Cu2  1  0.63082791  0.63082791  0.13247017  1
  Cu  Cu3  1  0.22785742  0.22785742  0.22785742  1
  Pd  Pd0  1  0.62830847  0.62830847  0.62830847  1
loop_
_geom_bond_atom_site_label_1
_geom_bond_atom_site_label_2
_geom_bond_distance
_geom_bond_site_symmetry_2
Cu0 Cu1 2.461150 1_555
Cu0 Cu2 2.461151 1_555
Cu0 Cu1 2.477371 1_645
Cu0 Cu2 2.477371 1_546
Cu0 Pd0 2.559922 1_555
Cu0 Pd0 2.631779 1_545
Cu0 Cu3 2.770240 1_655
Cu0 Cu3 2.770240 1_556
Cu0 Sm0 2.989208 1_545
Cu0 Sm0 3.005681 1_445
Cu0 Sm0 3.005682 1_544
Cu1 Cu2 2.461151 1_555
Cu1 Cu2 2.477371 1_456
Cu1 Pd0 2.559922 1_555
Cu1 Pd0 2.631779 1_455
Cu1 Cu3 2.770240 1_565
Cu1 Cu3 2.770240 1_556
Cu1 Sm0 2.989208 1_455
Cu1 Sm0 3.005681 1_445
Cu1 Sm0 3.005682 1_454
Cu2 Pd0 2.559922 1_555
Cu2 Pd0 2.631780 1_554
Cu2 Cu3 2.770240 1_655
Cu2 Cu3 2.770240 1_565
Cu2 Sm0 2.989208 1_554
Cu2 Sm0 3.005682 1_544
Cu2 Sm0 3.005682 1_454
Cu3 Sm0 2.969494 1_444
Cu3 Pd0 2.982080 1_554
Cu3 Pd0 2.982080 1_545
Cu3 Pd0 2.982080 1_455
Cu3 Sm0 3.162896 1_544
Cu3 Sm0 3.162896 1_454
Cu3 Sm0 3.162896 1_445
Pd0 Sm0 2.893984 1_545
Pd0 Sm0 2.893984 1_455
Pd0 Sm0 2.893984 1_554
