# generated using pymatgen
data_CeSe2
_symmetry_space_group_name_H-M   'P 1'
_cell_length_a   4.18606110
_cell_length_b   4.18606110
_cell_length_c   25.69201200
_cell_angle_alpha   90.00000000
_cell_angle_beta   90.00000000
_cell_angle_gamma   119.99998585
_symmetry_Int_Tables_number   1
_chemical_formula_structural   CeSe2
_chemical_formula_sum   'Ce4 Se8'
_cell_volume   389.88806123
_cell_formula_units_Z   4
loop_
 _symmetry_equiv_pos_site_id
 _symmetry_equiv_pos_as_xyz
  1  'x, y, z'
loop_
 _atom_site_type_symbol
 _atom_site_label
 _atom_site_symmetry_multiplicity
 _atom_site_fract_x
 _atom_site_fract_y
 _atom_site_fract_z
 _atom_site_occupancy
  Ce  Ce0  1  0.00000000  0.00000000  0.50000000  1
  Ce  Ce1  1  0.00000000  0.00000000  0.00000000  1
  Ce  Ce2  1  0.00000000  0.00000000  0.25000000  1
  Ce  Ce3  1  0.00000000  0.00000000  0.75000000  1
  Se  Se0  1  0.33333300  0.66666700  0.44084500  1
  Se  Se1  1  0.66666700  0.33333300  0.55915500  1
  Se  Se2  1  0.66666700  0.33333300  0.94084500  1
  Se  Se3  1  0.33333300  0.66666700  0.05915500  1
  Se  Se4  1  0.66666700  0.33333300  0.31423400  1
  Se  Se5  1  0.33333300  0.66666700  0.68576600  1
  Se  Se6  1  0.33333300  0.66666700  0.81423400  1
  Se  Se7  1  0.66666700  0.33333300  0.18576600  1
loop_
_geom_bond_atom_site_label_1
_geom_bond_atom_site_label_2
_geom_bond_distance
_geom_bond_site_symmetry_2
Ce0 Se1 2.854969 1_455
Ce0 Se0 2.854969 1_545
Ce0 Se1 2.854973 1_445
Ce0 Se1 2.854973 1_555
Ce0 Se0 2.854973 1_445
Ce0 Se0 2.854973 1_555
Ce1 Se2 2.854969 1_454
Ce1 Se3 2.854969 1_545
Ce1 Se2 2.854973 1_554
Ce1 Se2 2.854973 1_444
Ce1 Se3 2.854973 1_445
Ce1 Se3 2.854973 1_555
Ce2 Se7 2.926519 1_455
Ce2 Se4 2.926519 1_455
Ce2 Se7 2.926523 1_445
Ce2 Se4 2.926523 1_445
Ce2 Se7 2.926523 1_555
Ce2 Se4 2.926523 1_555
Ce3 Se5 2.926519 1_545
Ce3 Se6 2.926519 1_545
Ce3 Se5 2.926523 1_445
Ce3 Se6 2.926523 1_555
Ce3 Se5 2.926523 1_555
Ce3 Se6 2.926523 1_445
