# generated using pymatgen
data_Mn(NbS2)2
_symmetry_space_group_name_H-M   'P 1'
_cell_length_a   3.28912765
_cell_length_b   3.28912765
_cell_length_c   13.76900900
_cell_angle_alpha   90.00000000
_cell_angle_beta   90.00000000
_cell_angle_gamma   119.99999296
_symmetry_Int_Tables_number   1
_chemical_formula_structural   Mn(NbS2)2
_chemical_formula_sum   'Mn1 Nb2 S4'
_cell_volume   129.00151288
_cell_formula_units_Z   1
loop_
 _symmetry_equiv_pos_site_id
 _symmetry_equiv_pos_as_xyz
  1  'x, y, z'
loop_
 _atom_site_type_symbol
 _atom_site_label
 _atom_site_symmetry_multiplicity
 _atom_site_fract_x
 _atom_site_fract_y
 _atom_site_fract_z
 _atom_site_occupancy
  Mn  Mn0  1  0.00000000  0.00000000  0.00000000  1
  Nb  Nb0  1  0.33333300  0.66666700  0.27545200  1
  Nb  Nb1  1  0.66666700  0.33333300  0.72454800  1
  S  S0  1  0.33333300  0.66666700  0.09883300  1
  S  S1  1  0.66666700  0.33333300  0.90116700  1
  S  S2  1  0.33333300  0.66666700  0.61374800  1
  S  S3  1  0.66666700  0.33333300  0.38625200  1
loop_
_geom_bond_atom_site_label_1
_geom_bond_atom_site_label_2
_geom_bond_distance
_geom_bond_site_symmetry_2
Mn0 S0 2.336232 1_545
Mn0 S1 2.336232 1_454
Mn0 S0 2.336234 1_445
Mn0 S0 2.336234 1_555
Mn0 S1 2.336234 1_444
Mn0 S1 2.336234 1_554
Nb0 S0 2.431869 1_555
Nb0 S3 2.435896 1_455
Nb0 S3 2.435896 1_565
Nb0 S3 2.435900 1_555
Nb1 S1 2.431869 1_555
Nb1 S2 2.435896 1_545
Nb1 S2 2.435896 1_655
Nb1 S2 2.435900 1_555
