# generated using pymatgen
data_Mn3VP4
_symmetry_space_group_name_H-M   'P 1'
_cell_length_a   3.14149700
_cell_length_b   5.30865400
_cell_length_c   5.94707164
_cell_angle_alpha   89.78559813
_cell_angle_beta   90.00000000
_cell_angle_gamma   90.00000000
_symmetry_Int_Tables_number   1
_chemical_formula_structural   Mn3VP4
_chemical_formula_sum   'Mn3 V1 P4'
_cell_volume   99.17933661
_cell_formula_units_Z   1
loop_
 _symmetry_equiv_pos_site_id
 _symmetry_equiv_pos_as_xyz
  1  'x, y, z'
loop_
 _atom_site_type_symbol
 _atom_site_label
 _atom_site_symmetry_multiplicity
 _atom_site_fract_x
 _atom_site_fract_y
 _atom_site_fract_z
 _atom_site_occupancy
  Mn  Mn0  1  0.50000000  0.00394600  0.19442000  1
  Mn  Mn1  1  0.00000000  0.49445500  0.69417200  1
  Mn  Mn2  1  0.00000000  0.99480300  0.80337100  1
  V  V0  1  0.50000000  0.50739800  0.30694600  1
  P  P0  1  0.50000000  0.69006400  0.92850900  1
  P  P1  1  0.50000000  0.18630300  0.57279400  1
  P  P2  1  0.00000000  0.30557800  0.06328100  1
  P  P3  1  0.00000000  0.81745400  0.43650700  1
loop_
_geom_bond_atom_site_label_1
_geom_bond_atom_site_label_2
_geom_bond_distance
_geom_bond_site_symmetry_2
Mn0 P0 2.301531 1_544
Mn0 P3 2.347230 1_645
Mn0 P3 2.347230 1_545
Mn0 P2 2.372798 1_555
Mn0 P2 2.372798 1_655
Mn0 P1 2.452945 1_555
Mn1 P3 2.295343 1_555
Mn1 P0 2.344903 1_455
Mn1 P0 2.344903 1_555
Mn1 P1 2.381853 1_555
Mn1 P1 2.381853 1_455
Mn1 P2 2.409863 1_556
Mn2 P2 2.264975 1_566
Mn2 P1 2.317468 1_565
Mn2 P1 2.317468 1_465
Mn2 P0 2.372595 1_455
Mn2 P0 2.372595 1_555
Mn2 P3 2.379469 1_555
P0 V0 2.447278 1_556
P1 V0 2.320570 1_555
P2 V0 2.393036 1_455
P2 V0 2.393036 1_555
P3 V0 2.404096 1_455
P3 V0 2.404096 1_555
