# generated using pymatgen
data_Li2Mn3GaO8
_symmetry_space_group_name_H-M   'P 1'
_cell_length_a   5.90525285
_cell_length_b   8.25998436
_cell_length_c   6.00300141
_cell_angle_alpha   89.99998578
_cell_angle_beta   90.00340287
_cell_angle_gamma   89.96009707
_symmetry_Int_Tables_number   1
_chemical_formula_structural   Li2Mn3GaO8
_chemical_formula_sum   'Li4 Mn6 Ga2 O16'
_cell_volume   292.81010623
_cell_formula_units_Z   2
loop_
 _symmetry_equiv_pos_site_id
 _symmetry_equiv_pos_as_xyz
  1  'x, y, z'
loop_
 _atom_site_type_symbol
 _atom_site_label
 _atom_site_symmetry_multiplicity
 _atom_site_fract_x
 _atom_site_fract_y
 _atom_site_fract_z
 _atom_site_occupancy
  Li  Li0  1  0.23884300  0.12387200  0.99793500  1
  Li  Li1  1  0.73884600  0.62397000  0.50213900  1
  Li  Li2  1  0.76180400  0.87696400  0.99850200  1
  Li  Li3  1  0.26182100  0.37698300  0.50152700  1
  Mn  Mn0  1  0.24969600  0.74992100  0.74986500  1
  Mn  Mn1  1  0.25093600  0.74990500  0.24906600  1
  Mn  Mn2  1  0.00026800  0.00049400  0.51198200  1
  Mn  Mn3  1  0.75091700  0.25000100  0.25087600  1
  Mn  Mn4  1  0.74971400  0.24992800  0.75012500  1
  Mn  Mn5  1  0.50031600  0.50048300  0.98801500  1
  Ga  Ga0  1  0.00072000  0.49964600  0.99885800  1
  Ga  Ga1  1  0.50064900  0.99969300  0.50113500  1
  O  O0  1  0.51049000  0.26706700  0.97018100  1
  O  O1  1  0.01047500  0.76708000  0.52980100  1
  O  O2  1  0.48947200  0.73367200  0.97044900  1
  O  O3  1  0.98945800  0.23368300  0.52954700  1
  O  O4  1  0.96258000  0.25823000  0.99764000  1
  O  O5  1  0.46257000  0.75824400  0.50236800  1
  O  O6  1  0.74620600  0.48399000  0.77115400  1
  O  O7  1  0.23839400  0.98996000  0.28680600  1
  O  O8  1  0.73846000  0.48999700  0.21318700  1
  O  O9  1  0.24619600  0.98398300  0.72884200  1
  O  O10  1  0.25999600  0.50882800  0.21374800  1
  O  O11  1  0.75378000  0.01578400  0.72923000  1
  O  O12  1  0.25378500  0.51577100  0.77076800  1
  O  O13  1  0.75991400  0.00888600  0.28625600  1
  O  O14  1  0.03685900  0.74145800  0.99742100  1
  O  O15  1  0.53683600  0.24150800  0.50257600  1
loop_
_geom_bond_atom_site_label_1
_geom_bond_atom_site_label_2
_geom_bond_distance
_geom_bond_site_symmetry_2
Li0 O4 1.972461 1_455
Li0 O9 1.986547 1_545
Li0 O0 2.000675 1_555
Li0 O7 2.056835 1_546
Li1 O5 1.972134 1_555
Li1 O6 1.986599 1_555
Li1 O1 2.000112 1_655
Li1 O8 2.057516 1_555
Li2 O14 1.971939 1_655
Li2 O11 1.982384 1_565
Li2 O2 2.004529 1_555
Li2 O13 2.042393 1_566
Li3 O15 1.971598 1_555
Li3 O12 1.982086 1_555
Li3 O3 2.004714 1_455
Li3 O10 2.042177 1_555
Mn0 O9 1.937559 1_555
Mn0 O12 1.938275 1_555
Mn0 O1 1.939164 1_555
Mn0 O2 1.943148 1_555
Mn0 O5 1.947481 1_555
Mn0 O14 1.947652 1_555
Mn1 O5 1.969431 1_555
Mn1 O14 1.971015 1_554
Mn1 O7 1.997074 1_555
Mn1 O10 2.003225 1_555
Mn1 O2 2.190794 1_554
Mn1 O1 2.208293 1_555
Mn2 O3 1.930033 1_455
Mn2 O1 1.931859 1_545
Mn2 O7 1.952482 1_545
Mn2 O9 1.954966 1_545
Mn2 O11 1.958417 1_455
Mn2 O13 1.963444 1_455
Mn3 O4 1.969317 1_554
Mn3 O15 1.971412 1_555
Mn3 O8 1.996536 1_555
Mn3 O13 2.003566 1_555
Mn3 O3 2.190975 1_555
Mn3 O0 2.207795 1_554
Mn4 O6 1.937562 1_555
Mn4 O11 1.938221 1_555
Mn4 O0 1.939246 1_555
Mn4 O3 1.943098 1_555
Mn4 O4 1.947413 1_555
Mn4 O15 1.947650 1_555
Mn5 O2 1.930040 1_555
Mn5 O0 1.931875 1_555
Mn5 O8 1.952409 1_556
Mn5 O6 1.954907 1_555
Mn5 O12 1.958485 1_555
Mn5 O10 1.963431 1_556
Ga0 O10 2.003492 1_556
Ga0 O4 2.006941 1_455
Ga0 O14 2.008898 1_555
Ga0 O8 2.015106 1_456
Ga0 O12 2.031331 1_555
Ga0 O6 2.035707 1_455
Ga1 O13 2.003520 1_565
Ga1 O5 2.007171 1_555
Ga1 O15 2.008953 1_565
Ga1 O7 2.014994 1_555
Ga1 O11 2.031500 1_565
Ga1 O9 2.035602 1_555
