# generated using pymatgen
data_Mg3Al7(Si2O11)2
_symmetry_space_group_name_H-M   'P 1'
_cell_length_a   6.79968900
_cell_length_b   10.68113494
_cell_length_c   10.68113494
_cell_angle_alpha   99.12501959
_cell_angle_beta   90.00000000
_cell_angle_gamma   90.00000000
_symmetry_Int_Tables_number   1
_chemical_formula_structural   Mg3Al7(Si2O11)2
_chemical_formula_sum   'Mg6 Al14 Si8 O44'
_cell_volume   765.93626044
_cell_formula_units_Z   2
loop_
 _symmetry_equiv_pos_site_id
 _symmetry_equiv_pos_as_xyz
  1  'x, y, z'
loop_
 _atom_site_type_symbol
 _atom_site_label
 _atom_site_symmetry_multiplicity
 _atom_site_fract_x
 _atom_site_fract_y
 _atom_site_fract_z
 _atom_site_occupancy
  Mg  Mg0  1  0.25000000  0.64729400  0.64729400  1
  Mg  Mg1  1  0.75000000  0.35093600  0.35093600  1
  Mg  Mg2  1  0.25000000  0.01634200  0.25937100  1
  Mg  Mg3  1  0.75000000  0.74930100  0.98677500  1
  Mg  Mg4  1  0.75000000  0.98677500  0.74930100  1
  Mg  Mg5  1  0.25000000  0.25937100  0.01634200  1
  Al  Al0  1  0.25000000  0.82783800  0.45535300  1
  Al  Al1  1  0.75000000  0.54739900  0.17378700  1
  Al  Al2  1  0.75000000  0.17378700  0.54739900  1
  Al  Al3  1  0.25000000  0.45535300  0.82783800  1
  Al  Al4  1  0.49956000  0.40162900  0.59466000  1
  Al  Al5  1  0.00044000  0.40162900  0.59466000  1
  Al  Al6  1  0.49956000  0.59466000  0.40162900  1
  Al  Al7  1  0.00044000  0.59466000  0.40162900  1
  Al  Al8  1  0.49877800  0.78509900  0.21055500  1
  Al  Al9  1  0.00122200  0.78509900  0.21055500  1
  Al  Al10  1  0.49877800  0.21055500  0.78509900  1
  Al  Al11  1  0.00122200  0.21055500  0.78509900  1
  Al  Al12  1  0.25000000  0.14919600  0.51794200  1
  Al  Al13  1  0.25000000  0.51794200  0.14919600  1
  Si  Si0  1  0.25000000  0.94961800  0.75542900  1
  Si  Si1  1  0.75000000  0.24459400  0.04810000  1
  Si  Si2  1  0.75000000  0.04810000  0.24459400  1
  Si  Si3  1  0.25000000  0.75542900  0.94961800  1
  Si  Si4  1  0.25000000  0.34078900  0.34078900  1
  Si  Si5  1  0.75000000  0.65532100  0.65532100  1
  Si  Si6  1  0.75000000  0.48923100  0.84982900  1
  Si  Si7  1  0.75000000  0.84982900  0.48923100  1
  O  O0  1  0.55221500  0.95886900  0.24164500  1
  O  O1  1  0.44827400  0.75637900  0.03731600  1
  O  O2  1  0.94778500  0.95886900  0.24164500  1
  O  O3  1  0.05172600  0.75637900  0.03731600  1
  O  O4  1  0.44827400  0.03731600  0.75637900  1
  O  O5  1  0.55221500  0.24164500  0.95886900  1
  O  O6  1  0.05172600  0.03731600  0.75637900  1
  O  O7  1  0.94778500  0.24164500  0.95886900  1
  O  O8  1  0.25000000  0.99196000  0.46267700  1
  O  O9  1  0.75000000  0.53191600  0.99910300  1
  O  O10  1  0.75000000  0.99910300  0.53191600  1
  O  O11  1  0.25000000  0.46267700  0.99196000  1
  O  O12  1  0.25000000  0.09451000  0.09451000  1
  O  O13  1  0.75000000  0.90257100  0.90257100  1
  O  O14  1  0.25000000  0.64584900  0.44823000  1
  O  O15  1  0.75000000  0.54987800  0.35921700  1
  O  O16  1  0.75000000  0.35921700  0.54987800  1
  O  O17  1  0.25000000  0.44823000  0.64584900  1
  O  O18  1  0.54970500  0.58893100  0.58893100  1
  O  O19  1  0.44662700  0.41259900  0.41259900  1
  O  O20  1  0.95029500  0.58893100  0.58893100  1
  O  O21  1  0.05337300  0.41259900  0.41259900  1
  O  O22  1  0.25000000  0.81322100  0.27180300  1
  O  O23  1  0.75000000  0.72968300  0.17958700  1
  O  O24  1  0.75000000  0.17958700  0.72968300  1
  O  O25  1  0.25000000  0.27180300  0.81322100  1
  O  O26  1  0.25000000  0.19614200  0.36334400  1
  O  O27  1  0.75000000  0.63501200  0.80366900  1
  O  O28  1  0.75000000  0.80366900  0.63501200  1
  O  O29  1  0.25000000  0.36334400  0.19614200  1
  O  O30  1  0.25000000  0.87920500  0.87920500  1
  O  O31  1  0.75000000  0.12293400  0.12293400  1
  O  O32  1  0.54990000  0.78145400  0.41938700  1
  O  O33  1  0.46663600  0.59130200  0.22312600  1
  O  O34  1  0.95010000  0.78145400  0.41938700  1
  O  O35  1  0.03336400  0.59130200  0.22312600  1
  O  O36  1  0.46663600  0.22312600  0.59130200  1
  O  O37  1  0.54990000  0.41938700  0.78145400  1
  O  O38  1  0.03336400  0.22312600  0.59130200  1
  O  O39  1  0.95010000  0.41938700  0.78145400  1
  O  O40  1  0.25000000  0.83226900  0.63286100  1
  O  O41  1  0.75000000  0.36948500  0.16452000  1
  O  O42  1  0.75000000  0.16452000  0.36948500  1
  O  O43  1  0.25000000  0.63286100  0.83226900  1
loop_
_geom_bond_atom_site_label_1
_geom_bond_atom_site_label_2
_geom_bond_distance
_geom_bond_site_symmetry_2
Mg0 O40 2.005974 1_555
Mg0 O43 2.005974 1_555
Mg0 O17 2.123836 1_555
Mg0 O14 2.123836 1_555
Mg0 O18 2.192486 1_555
Mg0 O20 2.192486 1_455
Mg1 O41 2.031993 1_555
Mg1 O42 2.031993 1_555
Mg1 O15 2.112705 1_555
Mg1 O16 2.112705 1_555
Mg1 O21 2.232782 1_655
Mg1 O19 2.232782 1_555
Mg2 O26 2.060351 1_555
Mg2 O12 2.064993 1_555
Mg2 O2 2.144463 1_445
Mg2 O0 2.144463 1_545
Mg2 O22 2.194541 1_545
Mg2 O8 2.227729 1_545
Mg3 O13 1.988972 1_555
Mg3 O23 2.102884 1_556
Mg3 O3 2.119772 1_656
Mg3 O1 2.119772 1_556
Mg3 O27 2.134950 1_555
Mg3 O9 2.346406 1_555
Mg4 O13 1.988972 1_555
Mg4 O24 2.102884 1_565
Mg4 O6 2.119772 1_665
Mg4 O4 2.119772 1_565
Mg4 O28 2.134950 1_555
Mg4 O10 2.346406 1_555
Mg5 O29 2.060351 1_555
Mg5 O12 2.064993 1_555
Mg5 O7 2.144463 1_454
Mg5 O5 2.144463 1_554
Mg5 O25 2.194541 1_554
Mg5 O11 2.227729 1_554
Al0 O8 1.742316 1_555
Al0 O40 1.889059 1_555
Al0 O14 1.933243 1_555
Al0 O22 1.941890 1_555
Al0 O32 2.119224 1_555
Al0 O34 2.119224 1_455
Al1 O9 1.846829 1_554
Al1 O41 1.887158 1_555
Al1 O23 1.938141 1_555
Al1 O15 1.976577 1_555
Al1 O35 2.032671 1_655
Al1 O33 2.032671 1_555
Al2 O10 1.846829 1_545
Al2 O42 1.887158 1_555
Al2 O24 1.938141 1_555
Al2 O16 1.976577 1_555
Al2 O38 2.032671 1_655
Al2 O36 2.032671 1_555
Al3 O11 1.742316 1_555
Al3 O43 1.889059 1_555
Al3 O17 1.933243 1_555
Al3 O25 1.941890 1_555
Al3 O39 2.119224 1_455
Al3 O37 2.119224 1_555
Al4 O16 1.806986 1_555
Al4 O17 1.827554 1_555
Al4 O36 1.914391 1_555
Al4 O19 1.999272 1_555
Al4 O37 2.003453 1_555
Al4 O18 2.039909 1_555
Al5 O16 1.806986 1_455
Al5 O17 1.827554 1_555
Al5 O38 1.914391 1_555
Al5 O21 1.999272 1_555
Al5 O39 2.003453 1_455
Al5 O20 2.039909 1_455
Al6 O15 1.806986 1_555
Al6 O14 1.827554 1_555
Al6 O33 1.914391 1_555
Al6 O19 1.999272 1_555
Al6 O32 2.003453 1_555
Al6 O18 2.039909 1_555
Al7 O15 1.806986 1_455
Al7 O14 1.827554 1_555
Al7 O35 1.914391 1_555
Al7 O21 1.999272 1_555
Al7 O34 2.003453 1_455
Al7 O20 2.039909 1_455
Al8 O23 1.820912 1_555
Al8 O22 1.821381 1_555
Al8 O1 1.859014 1_555
Al8 O0 1.868628 1_555
Al8 O33 2.106831 1_555
Al8 O32 2.263914 1_555
Al9 O23 1.820912 1_455
Al9 O22 1.821381 1_555
Al9 O3 1.859014 1_555
Al9 O2 1.868628 1_455
Al9 O35 2.106831 1_555
Al9 O34 2.263914 1_455
Al10 O24 1.820912 1_555
Al10 O25 1.821381 1_555
Al10 O4 1.859014 1_555
Al10 O5 1.868628 1_555
Al10 O36 2.106831 1_555
Al10 O37 2.263914 1_555
Al11 O24 1.820912 1_455
Al11 O25 1.821381 1_555
Al11 O6 1.859014 1_555
Al11 O7 1.868628 1_455
Al11 O38 2.106831 1_555
Al11 O39 2.263914 1_455
Al12 O8 1.689552 1_545
Al12 O38 1.791977 1_555
Al12 O36 1.791977 1_555
Al12 O26 1.800222 1_555
Al13 O11 1.689552 1_554
Al13 O33 1.791977 1_555
Al13 O35 1.791977 1_555
Al13 O29 1.800222 1_555
O0 Si2 1.645764 1_565
O1 Si3 1.640783 1_554
O2 Si2 1.645764 1_565
O3 Si3 1.640783 1_554
O4 Si0 1.640783 1_545
O5 Si1 1.645764 1_556
O6 Si0 1.640783 1_545
O7 Si1 1.645764 1_556
O9 Si6 1.587281 1_555
O10 Si7 1.587281 1_555
O18 Si5 1.643503 1_555
O19 Si4 1.666611 1_555
O20 Si5 1.643503 1_555
O21 Si4 1.666611 1_555
O26 Si4 1.600969 1_555
O27 Si5 1.633033 1_555
O27 Si6 1.706216 1_555
O28 Si5 1.633033 1_555
O28 Si7 1.706216 1_555
O29 Si4 1.600969 1_555
O30 Si3 1.621382 1_555
O30 Si0 1.621382 1_555
O31 Si1 1.630019 1_555
O31 Si2 1.630019 1_555
O32 Si7 1.663845 1_555
O34 Si7 1.663845 1_555
O37 Si6 1.663845 1_555
O39 Si6 1.663845 1_555
O40 Si0 1.662681 1_555
O41 Si1 1.673215 1_555
O42 Si2 1.673215 1_555
O43 Si3 1.662681 1_555
