# generated using pymatgen
data_Mg4Fe5(TeO6)3
_symmetry_space_group_name_H-M   'P 1'
_cell_length_a   8.73255991
_cell_length_b   8.73255991
_cell_length_c   10.67856115
_cell_angle_alpha   84.82941252
_cell_angle_beta   84.82941252
_cell_angle_gamma   63.24252261
_symmetry_Int_Tables_number   1
_chemical_formula_structural   Mg4Fe5(TeO6)3
_chemical_formula_sum   'Mg8 Fe10 Te6 O36'
_cell_volume   723.04039886
_cell_formula_units_Z   2
loop_
 _symmetry_equiv_pos_site_id
 _symmetry_equiv_pos_as_xyz
  1  'x, y, z'
loop_
 _atom_site_type_symbol
 _atom_site_label
 _atom_site_symmetry_multiplicity
 _atom_site_fract_x
 _atom_site_fract_y
 _atom_site_fract_z
 _atom_site_occupancy
  Mg  Mg0  1  0.12792600  0.45204500  0.67396200  1
  Mg  Mg1  1  0.52147000  0.43941300  0.77565600  1
  Mg  Mg2  1  0.54795500  0.87207400  0.32603800  1
  Mg  Mg3  1  0.56058700  0.47853000  0.22434400  1
  Mg  Mg4  1  0.82452100  0.12098400  0.28476500  1
  Mg  Mg5  1  0.85026700  0.75046400  0.16756600  1
  Mg  Mg6  1  0.24953600  0.14973300  0.83243400  1
  Mg  Mg7  1  0.87901600  0.17547900  0.71523500  1
  Fe  Fe0  1  0.21043000  0.50767200  0.02090800  1
  Fe  Fe1  1  0.90423100  0.81235500  0.52404100  1
  Fe  Fe2  1  0.66913200  0.66856700  0.69963400  1
  Fe  Fe3  1  0.05257600  0.27432200  0.19373100  1
  Fe  Fe4  1  0.33143300  0.33086800  0.30036600  1
  Fe  Fe5  1  0.02019400  0.97980600  0.00000000  1
  Fe  Fe6  1  0.37813300  0.62186700  0.50000000  1
  Fe  Fe7  1  0.72567800  0.94742400  0.80626900  1
  Fe  Fe8  1  0.18764500  0.09576900  0.47595900  1
  Fe  Fe9  1  0.49232800  0.78957000  0.97909200  1
  Te  Te0  1  0.53609100  0.13736600  0.04884900  1
  Te  Te1  1  0.19283700  0.80459900  0.74401100  1
  Te  Te2  1  0.19540100  0.80716300  0.25598900  1
  Te  Te3  1  0.53357300  0.14841200  0.56060100  1
  Te  Te4  1  0.85158800  0.46642700  0.43939900  1
  Te  Te5  1  0.86263400  0.46390900  0.95115100  1
  O  O0  1  0.59961000  0.91174900  0.13846800  1
  O  O1  1  0.29471100  0.53571700  0.17601200  1
  O  O2  1  0.44180900  0.41073200  0.40737700  1
  O  O3  1  0.27820300  0.87100300  0.56546700  1
  O  O4  1  0.46428300  0.70528900  0.82398800  1
  O  O5  1  0.12899700  0.72179700  0.43453300  1
  O  O6  1  0.63914100  0.19625300  0.70992600  1
  O  O7  1  0.94531200  0.91903500  0.17179700  1
  O  O8  1  0.44616100  0.70990100  0.32468800  1
  O  O9  1  0.90526600  0.59633000  0.60158900  1
  O  O10  1  0.43937400  0.35522500  0.94367000  1
  O  O11  1  0.47234800  0.02881700  0.91679400  1
  O  O12  1  0.10649100  0.04797800  0.31732400  1
  O  O13  1  0.30042100  0.23712700  0.12937600  1
  O  O14  1  0.64477500  0.56062600  0.05633000  1
  O  O15  1  0.77380200  0.40558700  0.81059600  1
  O  O16  1  0.97492700  0.23342500  0.55715900  1
  O  O17  1  0.76287300  0.69957900  0.87062400  1
  O  O18  1  0.58926800  0.55819100  0.59262300  1
  O  O19  1  0.76657500  0.02507300  0.44284100  1
  O  O20  1  0.29415300  0.20650200  0.65271400  1
  O  O21  1  0.09362100  0.37140200  0.36216200  1
  O  O22  1  0.08096500  0.05468800  0.82820300  1
  O  O23  1  0.59441300  0.22619800  0.18940400  1
  O  O24  1  0.94454400  0.24009600  0.04095400  1
  O  O25  1  0.26470100  0.89169200  0.06337300  1
  O  O26  1  0.97118300  0.52765200  0.08320600  1
  O  O27  1  0.80374700  0.36085900  0.29007400  1
  O  O28  1  0.95202200  0.89350900  0.68267600  1
  O  O29  1  0.62859800  0.90637900  0.63783800  1
  O  O30  1  0.79349800  0.70584700  0.34728600  1
  O  O31  1  0.10830800  0.73529900  0.93662700  1
  O  O32  1  0.29009900  0.55383900  0.67531200  1
  O  O33  1  0.40367000  0.09473400  0.39841100  1
  O  O34  1  0.75990400  0.05545600  0.95904600  1
  O  O35  1  0.08825100  0.40039000  0.86153200  1
loop_
_geom_bond_atom_site_label_1
_geom_bond_atom_site_label_2
_geom_bond_distance
_geom_bond_site_symmetry_2
Mg0 O9 1.963382 1_455
Mg0 O32 1.983808 1_555
Mg0 O20 1.995491 1_555
Mg0 O35 2.046515 1_555
Mg1 O6 2.057031 1_555
Mg1 O10 2.068431 1_555
Mg1 O32 2.146684 1_555
Mg1 O15 2.150381 1_555
Mg1 O4 2.243196 1_555
Mg1 O18 2.285943 1_555
Mg2 O33 1.963382 1_565
Mg2 O8 1.983808 1_555
Mg2 O30 1.995491 1_555
Mg2 O0 2.046515 1_555
Mg3 O27 2.057031 1_555
Mg3 O14 2.068431 1_555
Mg3 O8 2.146684 1_555
Mg3 O23 2.150381 1_555
Mg3 O1 2.243196 1_555
Mg3 O2 2.285943 1_555
Mg4 O19 1.944170 1_555
Mg4 O27 2.025184 1_555
Mg4 O7 2.038883 1_545
Mg4 O23 2.111097 1_555
Mg4 O12 2.300262 1_655
Mg5 O30 1.987049 1_555
Mg5 O7 1.994179 1_555
Mg5 O26 2.001706 1_555
Mg5 O0 2.034503 1_555
Mg6 O20 1.987049 1_555
Mg6 O22 1.994179 1_555
Mg6 O11 2.001706 1_555
Mg6 O35 2.034503 1_555
Mg7 O16 1.944170 1_555
Mg7 O6 2.025184 1_555
Mg7 O22 2.038883 1_655
Mg7 O15 2.111097 1_555
Mg7 O28 2.300262 1_545
Fe0 O31 1.944878 1_554
Fe0 O1 1.949378 1_555
Fe0 O10 1.988405 1_554
Fe0 O26 2.068841 1_455
Fe0 O13 2.353700 1_555
Fe0 O35 2.535196 1_554
Fe1 O19 1.879995 1_565
Fe1 O5 1.947290 1_655
Fe1 O9 1.987198 1_555
Fe1 O28 2.038660 1_555
Fe1 O29 2.411953 1_555
Fe1 O30 2.611121 1_555
Fe2 O18 1.915384 1_555
Fe2 O29 2.001666 1_555
Fe2 O4 2.048971 1_555
Fe2 O9 2.074805 1_555
Fe2 O17 2.153046 1_555
Fe2 O15 2.308251 1_555
Fe3 O24 2.064002 1_455
Fe3 O13 2.097906 1_555
Fe3 O27 2.147023 1_455
Fe3 O12 2.161989 1_555
Fe3 O21 2.178706 1_555
Fe3 O26 2.248749 1_455
Fe4 O2 1.915384 1_555
Fe4 O21 2.001666 1_555
Fe4 O1 2.048971 1_555
Fe4 O33 2.074805 1_555
Fe4 O13 2.153046 1_555
Fe4 O23 2.308251 1_555
Fe5 O7 1.998887 1_455
Fe5 O22 1.998887 1_564
Fe5 O25 2.072736 1_555
Fe5 O31 2.072736 1_554
Fe5 O24 2.137573 1_465
Fe5 O34 2.137573 1_464
Fe6 O2 1.998326 1_555
Fe6 O18 1.998326 1_555
Fe6 O32 2.097605 1_555
Fe6 O8 2.097605 1_555
Fe6 O3 2.106691 1_555
Fe6 O5 2.106691 1_555
Fe7 O34 2.064002 1_565
Fe7 O17 2.097906 1_555
Fe7 O6 2.147023 1_565
Fe7 O28 2.161989 1_555
Fe7 O29 2.178706 1_555
Fe7 O11 2.248749 1_565
Fe8 O16 1.879995 1_455
Fe8 O3 1.947290 1_545
Fe8 O33 1.987198 1_555
Fe8 O12 2.038660 1_555
Fe8 O21 2.411953 1_555
Fe8 O20 2.611121 1_555
Fe9 O25 1.944878 1_556
Fe9 O4 1.949378 1_555
Fe9 O14 1.988405 1_556
Fe9 O11 2.068841 1_565
Fe9 O17 2.353700 1_555
Fe9 O0 2.535196 1_556
O0 Te0 1.969028 1_565
O1 Te2 2.341097 1_555
O2 Te3 2.544532 1_555
O3 Te1 2.112073 1_555
O4 Te1 2.341097 1_555
O5 Te2 2.112073 1_555
O6 Te3 2.073376 1_555
O7 Te2 2.192411 1_655
O8 Te2 2.134769 1_555
O9 Te4 2.342109 1_555
O10 Te0 1.983237 1_556
O11 Te0 2.013565 1_556
O12 Te2 2.034835 1_545
O13 Te0 1.983798 1_555
O14 Te5 1.983237 1_554
O15 Te5 1.953792 1_555
O16 Te4 2.165885 1_555
O17 Te5 1.983798 1_555
O18 Te4 2.544532 1_555
O19 Te3 2.165885 1_555
O20 Te3 2.088152 1_555
O21 Te4 2.016418 1_455
O22 Te1 2.192411 1_545
O23 Te0 1.953792 1_555
O24 Te5 1.943754 1_554
O25 Te2 2.246328 1_555
O26 Te5 2.013565 1_554
O27 Te4 2.073376 1_555
O28 Te1 2.034835 1_655
O29 Te3 2.016418 1_565
O30 Te4 2.088152 1_555
O31 Te1 2.246328 1_555
O32 Te1 2.134769 1_555
O33 Te3 2.342109 1_555
O34 Te0 1.943754 1_556
O35 Te5 1.969028 1_455
