# generated using pymatgen
data_ZnCu2P2O9
_symmetry_space_group_name_H-M   'P 1'
_cell_length_a   6.12679600
_cell_length_b   7.08626100
_cell_length_c   14.76007700
_cell_angle_alpha   90.00000000
_cell_angle_beta   90.00000000
_cell_angle_gamma   90.00000000
_symmetry_Int_Tables_number   1
_chemical_formula_structural   ZnCu2P2O9
_chemical_formula_sum   'Zn4 Cu8 P8 O36'
_cell_volume   640.82461815
_cell_formula_units_Z   4
loop_
 _symmetry_equiv_pos_site_id
 _symmetry_equiv_pos_as_xyz
  1  'x, y, z'
loop_
 _atom_site_type_symbol
 _atom_site_label
 _atom_site_symmetry_multiplicity
 _atom_site_fract_x
 _atom_site_fract_y
 _atom_site_fract_z
 _atom_site_occupancy
  Zn  Zn0  1  0.25000000  0.89874600  0.22147100  1
  Zn  Zn1  1  0.25000000  0.60125400  0.72147100  1
  Zn  Zn2  1  0.75000000  0.39874600  0.27852900  1
  Zn  Zn3  1  0.75000000  0.10125400  0.77852900  1
  Cu  Cu0  1  0.25000000  0.35496800  0.11936300  1
  Cu  Cu1  1  0.75000000  0.64503200  0.88063700  1
  Cu  Cu2  1  0.75000000  0.85496800  0.38063700  1
  Cu  Cu3  1  0.25000000  0.14503200  0.61936300  1
  Cu  Cu4  1  0.50000000  0.00000000  0.00000000  1
  Cu  Cu5  1  0.50000000  0.50000000  0.50000000  1
  Cu  Cu6  1  0.00000000  0.50000000  0.50000000  1
  Cu  Cu7  1  0.00000000  0.00000000  0.00000000  1
  P  P0  1  0.75000000  0.36769700  0.07029300  1
  P  P1  1  0.25000000  0.63230300  0.92970700  1
  P  P2  1  0.25000000  0.86769700  0.42970700  1
  P  P3  1  0.75000000  0.13230300  0.57029300  1
  P  P4  1  0.25000000  0.38078600  0.29697800  1
  P  P5  1  0.25000000  0.11921400  0.79697800  1
  P  P6  1  0.75000000  0.88078600  0.20302200  1
  P  P7  1  0.75000000  0.61921400  0.70302200  1
  O  O0  1  0.96351400  0.61432800  0.64643900  1
  O  O1  1  0.46351400  0.38567200  0.35356100  1
  O  O2  1  0.03648600  0.11432800  0.85356100  1
  O  O3  1  0.53648600  0.88567200  0.14643900  1
  O  O4  1  0.03648600  0.38567200  0.35356100  1
  O  O5  1  0.53648600  0.61432800  0.64643900  1
  O  O6  1  0.96351400  0.88567200  0.14643900  1
  O  O7  1  0.46351400  0.11432800  0.85356100  1
  O  O8  1  0.75000000  0.32808000  0.52112800  1
  O  O9  1  0.25000000  0.67192000  0.47887200  1
  O  O10  1  0.25000000  0.82808000  0.97887200  1
  O  O11  1  0.75000000  0.17192000  0.02112800  1
  O  O12  1  0.25000000  0.12770900  0.04713200  1
  O  O13  1  0.75000000  0.87229100  0.95286800  1
  O  O14  1  0.75000000  0.62770900  0.45286800  1
  O  O15  1  0.25000000  0.37229100  0.54713200  1
  O  O16  1  0.25000000  0.19730700  0.23663600  1
  O  O17  1  0.75000000  0.80269300  0.76336400  1
  O  O18  1  0.75000000  0.69730700  0.26336400  1
  O  O19  1  0.25000000  0.30269300  0.73663600  1
  O  O20  1  0.56109700  0.12772800  0.64029500  1
  O  O21  1  0.06109700  0.87227200  0.35970500  1
  O  O22  1  0.43890300  0.62772800  0.85970500  1
  O  O23  1  0.93890300  0.37227200  0.14029500  1
  O  O24  1  0.43890300  0.87227200  0.35970500  1
  O  O25  1  0.93890300  0.12772800  0.64029500  1
  O  O26  1  0.56109700  0.37227200  0.14029500  1
  O  O27  1  0.06109700  0.62772800  0.85970500  1
  O  O28  1  0.25000000  0.47388700  0.99743000  1
  O  O29  1  0.75000000  0.04583900  0.27420600  1
  O  O30  1  0.75000000  0.45416100  0.77420600  1
  O  O31  1  0.25000000  0.54583900  0.22579400  1
  O  O32  1  0.25000000  0.02611300  0.49743000  1
  O  O33  1  0.75000000  0.97388700  0.50257000  1
  O  O34  1  0.75000000  0.52611300  0.00257000  1
  O  O35  1  0.25000000  0.95416100  0.72579400  1
loop_
_geom_bond_atom_site_label_1
_geom_bond_atom_site_label_2
_geom_bond_distance
_geom_bond_site_symmetry_2
Cu0 O12 1.931343 1_555
Cu0 O23 1.934795 1_455
Cu0 O26 1.934795 1_555
Cu0 O28 1.987258 1_554
Cu0 O16 2.060197 1_555
Cu0 O31 2.072979 1_555
Cu1 O13 1.931343 1_555
Cu1 O27 1.934795 1_655
Cu1 O22 1.934795 1_555
Cu1 O34 1.987258 1_556
Cu1 O17 2.060197 1_555
Cu1 O30 2.072979 1_555
Cu2 O14 1.931343 1_555
Cu2 O21 1.934795 1_655
Cu2 O24 1.934795 1_555
Cu2 O33 1.987258 1_555
Cu2 O18 2.060197 1_555
Cu2 O29 2.072979 1_565
Cu3 O15 1.931343 1_555
Cu3 O20 1.934795 1_555
Cu3 O25 1.934795 1_455
Cu3 O32 1.987258 1_555
Cu3 O19 2.060197 1_555
Cu3 O35 2.072979 1_545
Cu4 O13 1.910248 1_544
Cu4 O12 1.910248 1_555
Cu4 O11 1.981801 1_555
Cu4 O10 1.981801 1_544
Cu4 O7 2.319094 1_554
Cu4 O3 2.319094 1_545
Cu5 O15 1.910248 1_555
Cu5 O14 1.910248 1_555
Cu5 O9 1.981801 1_555
Cu5 O8 1.981801 1_555
Cu5 O1 2.319094 1_555
Cu5 O5 2.319094 1_555
Cu6 O15 1.910248 1_555
Cu6 O14 1.910248 1_455
Cu6 O9 1.981801 1_555
Cu6 O8 1.981801 1_455
Cu6 O4 2.319094 1_555
Cu6 O0 2.319094 1_455
Cu7 O13 1.910248 1_444
Cu7 O12 1.910248 1_555
Cu7 O11 1.981801 1_455
Cu7 O10 1.981801 1_544
Cu7 O2 2.319094 1_554
Cu7 O6 2.319094 1_445
O0 P7 1.552411 1_555
O0 Zn1 2.077490 1_655
O1 P4 1.552411 1_555
O1 Zn2 2.077490 1_555
O2 P5 1.552411 1_555
O2 Zn3 2.077490 1_455
O3 P6 1.552411 1_555
O3 Zn0 2.077490 1_555
O4 P4 1.552411 1_555
O4 Zn2 2.077490 1_455
O5 P7 1.552411 1_555
O5 Zn1 2.077490 1_555
O6 P6 1.552411 1_555
O6 Zn0 2.077490 1_655
O7 P5 1.552411 1_555
O7 Zn3 2.077490 1_555
O8 P3 1.565658 1_555
O9 P2 1.565658 1_555
O10 P1 1.565658 1_555
O11 P0 1.565658 1_555
O16 P4 1.575985 1_555
O16 Zn0 2.127489 1_545
O17 P7 1.575985 1_555
O17 Zn3 2.127489 1_565
O18 P6 1.575985 1_555
O18 Zn2 2.127489 1_555
O19 P5 1.575985 1_555
O19 Zn1 2.127489 1_555
O20 P3 1.551815 1_555
O20 Zn3 2.353233 1_555
O21 P2 1.551815 1_555
O21 Zn0 2.353233 1_555
O22 P1 1.551815 1_555
O22 Zn1 2.353233 1_555
O23 P0 1.551815 1_555
O23 Zn2 2.353233 1_555
O24 P2 1.551815 1_555
O24 Zn0 2.353233 1_555
O25 P3 1.551815 1_555
O25 Zn3 2.353233 1_555
O26 P0 1.551815 1_555
O26 Zn2 2.353233 1_555
O27 P1 1.551815 1_555
O27 Zn1 2.353233 1_555
O28 P1 1.503121 1_555
O29 P6 1.572233 1_545
O29 Zn2 2.501605 1_555
O30 P7 1.572233 1_555
O30 Zn3 2.501605 1_555
O31 P4 1.572233 1_555
O31 Zn0 2.501605 1_555
O32 P2 1.503121 1_545
O33 P3 1.503121 1_565
O34 P0 1.503121 1_555
O35 P5 1.572233 1_565
O35 Zn1 2.501605 1_555
