# generated using pymatgen
data_U(CuSn)2
_symmetry_space_group_name_H-M   'P 1'
_cell_length_a   4.40575600
_cell_length_b   4.40575600
_cell_length_c   10.50375900
_cell_angle_alpha   90.00000000
_cell_angle_beta   90.00000000
_cell_angle_gamma   90.00000000
_symmetry_Int_Tables_number   1
_chemical_formula_structural   U(CuSn)2
_chemical_formula_sum   'U2 Cu4 Sn4'
_cell_volume   203.88516705
_cell_formula_units_Z   2
loop_
 _symmetry_equiv_pos_site_id
 _symmetry_equiv_pos_as_xyz
  1  'x, y, z'
loop_
 _atom_site_type_symbol
 _atom_site_label
 _atom_site_symmetry_multiplicity
 _atom_site_fract_x
 _atom_site_fract_y
 _atom_site_fract_z
 _atom_site_occupancy
  U  U0  1  0.00000000  0.50000000  0.24074100  1
  U  U1  1  0.50000000  0.00000000  0.75925900  1
  Cu  Cu0  1  0.00000000  0.00000000  0.00000000  1
  Cu  Cu1  1  0.50000000  0.50000000  0.00000000  1
  Cu  Cu2  1  0.00000000  0.50000000  0.63405600  1
  Cu  Cu3  1  0.50000000  0.00000000  0.36594400  1
  Sn  Sn0  1  0.00000000  0.00000000  0.50000000  1
  Sn  Sn1  1  0.50000000  0.50000000  0.50000000  1
  Sn  Sn2  1  0.00000000  0.50000000  0.86947700  1
  Sn  Sn3  1  0.50000000  0.00000000  0.13052300  1
loop_
_geom_bond_atom_site_label_1
_geom_bond_atom_site_label_2
_geom_bond_distance
_geom_bond_site_symmetry_2
Cu0 Sn3 2.594661 1_555
Cu0 Sn3 2.594661 1_455
Cu0 Sn2 2.594661 1_554
Cu0 Sn2 2.594661 1_544
Cu0 U0 3.353643 1_545
Cu0 U0 3.353643 1_555
Cu0 U1 3.353643 1_454
Cu0 U1 3.353643 1_554
Cu1 Sn3 2.594661 1_565
Cu1 Sn3 2.594661 1_555
Cu1 Sn2 2.594661 1_654
Cu1 Sn2 2.594661 1_554
Cu1 U0 3.353643 1_655
Cu1 U0 3.353643 1_555
Cu1 U1 3.353643 1_564
Cu1 U1 3.353643 1_554
Cu2 Sn2 2.472805 1_555
Cu2 Sn1 2.614459 1_555
Cu2 Sn0 2.614459 1_565
Cu2 Sn1 2.614459 1_455
Cu2 Sn0 2.614459 1_555
Cu2 U1 3.381544 1_455
Cu2 U1 3.381544 1_565
Cu2 U1 3.381544 1_465
Cu2 U1 3.381544 1_555
Cu3 Sn3 2.472805 1_555
Cu3 Sn0 2.614459 1_655
Cu3 Sn1 2.614459 1_555
Cu3 Sn1 2.614459 1_545
Cu3 Sn0 2.614459 1_555
Cu3 U0 3.381544 1_645
Cu3 U0 3.381544 1_545
Cu3 U0 3.381544 1_655
Cu3 U0 3.381544 1_555
Sn0 U1 3.502636 1_455
Sn0 U1 3.502636 1_555
Sn0 U0 3.502636 1_545
Sn0 U0 3.502636 1_555
Sn1 U1 3.502636 1_555
Sn1 U1 3.502636 1_565
Sn1 U0 3.502636 1_655
Sn1 U0 3.502636 1_555
Sn2 U1 3.323495 1_455
Sn2 U1 3.323495 1_565
Sn2 U1 3.323495 1_465
Sn2 U1 3.323495 1_555
Sn3 U0 3.323495 1_655
Sn3 U0 3.323495 1_555
Sn3 U0 3.323495 1_645
Sn3 U0 3.323495 1_545
