# generated using pymatgen
data_YRe(WO4)2
_symmetry_space_group_name_H-M   'P 1'
_cell_length_a   5.81742500
_cell_length_b   5.42944100
_cell_length_c   10.96619135
_cell_angle_alpha   62.06868514
_cell_angle_beta   90.00000000
_cell_angle_gamma   90.00000000
_symmetry_Int_Tables_number   1
_chemical_formula_structural   YRe(WO4)2
_chemical_formula_sum   'Y2 Re2 W4 O16'
_cell_volume   306.02230238
_cell_formula_units_Z   2
loop_
 _symmetry_equiv_pos_site_id
 _symmetry_equiv_pos_as_xyz
  1  'x, y, z'
loop_
 _atom_site_type_symbol
 _atom_site_label
 _atom_site_symmetry_multiplicity
 _atom_site_fract_x
 _atom_site_fract_y
 _atom_site_fract_z
 _atom_site_occupancy
  Y  Y0  1  0.66360700  0.00000000  0.75000000  1
  Y  Y1  1  0.33639300  0.00000000  0.25000000  1
  Re  Re0  1  0.34137900  0.50000000  0.75000000  1
  Re  Re1  1  0.65862100  0.50000000  0.25000000  1
  W  W0  1  0.15230400  0.25497100  0.49923700  1
  W  W1  1  0.15230400  0.74502900  0.00076300  1
  W  W2  1  0.84769600  0.74502900  0.50076300  1
  W  W3  1  0.84769600  0.25497100  0.99923700  1
  O  O0  1  0.35423000  0.70215900  0.85794900  1
  O  O1  1  0.35423000  0.29784100  0.64205100  1
  O  O2  1  0.64577000  0.29784100  0.14205100  1
  O  O3  1  0.64577000  0.70215900  0.35794900  1
  O  O4  1  0.88850300  0.20822600  0.38108600  1
  O  O5  1  0.88850300  0.79177400  0.11891400  1
  O  O6  1  0.11149700  0.79177400  0.61891400  1
  O  O7  1  0.11149700  0.20822600  0.88108600  1
  O  O8  1  0.59150900  0.24379100  0.86976000  1
  O  O9  1  0.59150900  0.75620900  0.63024000  1
  O  O10  1  0.40849100  0.75620900  0.13024000  1
  O  O11  1  0.40849100  0.24379100  0.36976000  1
  O  O12  1  0.88512900  0.68587800  0.89730600  1
  O  O13  1  0.11487100  0.31412200  0.10269400  1
  O  O14  1  0.88512900  0.31412200  0.60269400  1
  O  O15  1  0.11487100  0.68587800  0.39730600  1
loop_
_geom_bond_atom_site_label_1
_geom_bond_atom_site_label_2
_geom_bond_distance
_geom_bond_site_symmetry_2
O0 Re0 1.956770 1_555
O0 W1 2.056289 1_556
O0 Y0 2.337139 1_565
O1 Re0 1.956770 1_555
O1 W0 2.056289 1_555
O1 Y0 2.337139 1_555
O2 Re1 1.956770 1_555
O2 W3 2.056289 1_554
O2 Y1 2.337139 1_555
O3 Re1 1.956770 1_555
O3 W2 2.056289 1_555
O3 Y1 2.337139 1_565
O4 Re1 2.056956 1_555
O4 W0 2.099133 1_655
O4 W2 2.238622 1_545
O5 Re1 2.056956 1_555
O5 W1 2.099133 1_655
O5 W3 2.238622 1_564
O6 Re0 2.056956 1_555
O6 W2 2.099133 1_455
O6 W0 2.238622 1_565
O7 Re0 2.056956 1_555
O7 W3 2.099133 1_455
O7 W1 2.238622 1_546
O8 Re0 2.016364 1_555
O8 W3 2.078845 1_555
O8 Y0 2.298106 1_555
O9 Re0 2.016364 1_555
O9 W2 2.078845 1_555
O9 Y0 2.298106 1_565
O10 Re1 2.016364 1_555
O10 W1 2.078845 1_555
O10 Y1 2.298106 1_565
O11 Re1 2.016364 1_555
O11 W0 2.078845 1_555
O11 Y1 2.298106 1_555
O12 W1 2.036516 1_656
O12 W3 2.078600 1_555
O12 Y0 2.144280 1_565
O13 W3 2.036516 1_454
O13 W1 2.078600 1_555
O13 Y1 2.144280 1_555
O14 W0 2.036516 1_655
O14 W2 2.078600 1_555
O14 Y0 2.144280 1_555
O15 W2 2.036516 1_455
O15 W0 2.078600 1_555
O15 Y1 2.144280 1_565
