# generated using pymatgen
data_Ba2CaSi4(BO7)2
_symmetry_space_group_name_H-M   'P 1'
_cell_length_a   9.39175882
_cell_length_b   9.39175882
_cell_length_c   9.39175882
_cell_angle_alpha   107.88662579
_cell_angle_beta   107.88662579
_cell_angle_gamma   112.68913107
_symmetry_Int_Tables_number   1
_chemical_formula_structural   Ba2CaSi4(BO7)2
_chemical_formula_sum   'Ba4 Ca2 Si8 B4 O28'
_cell_volume   636.18588176
_cell_formula_units_Z   2
loop_
 _symmetry_equiv_pos_site_id
 _symmetry_equiv_pos_as_xyz
  1  'x, y, z'
loop_
 _atom_site_type_symbol
 _atom_site_label
 _atom_site_symmetry_multiplicity
 _atom_site_fract_x
 _atom_site_fract_y
 _atom_site_fract_z
 _atom_site_occupancy
  Ba  Ba0  1  0.20380000  0.79406600  0.00000000  1
  Ba  Ba1  1  0.79406600  0.20380000  0.00000000  1
  Ba  Ba2  1  0.20593400  0.20593400  0.40973400  1
  Ba  Ba3  1  0.79620000  0.79620000  0.59026600  1
  Ca  Ca0  1  0.24462400  0.24462400  0.00000000  1
  Ca  Ca1  1  0.75537600  0.75537600  0.00000000  1
  Si  Si0  1  0.75072300  0.03502700  0.31329000  1
  Si  Si1  1  0.72173700  0.43743300  0.68671000  1
  Si  Si2  1  0.27826300  0.96497300  0.71569600  1
  Si  Si3  1  0.24927700  0.56256700  0.28430400  1
  Si  Si4  1  0.96497300  0.27826300  0.71569600  1
  Si  Si5  1  0.56256700  0.24927700  0.28430400  1
  Si  Si6  1  0.43743300  0.72173700  0.68671000  1
  Si  Si7  1  0.03502700  0.75072300  0.31329000  1
  B  B0  1  0.50000000  0.66698400  0.16698400  1
  B  B1  1  0.50000000  0.33301600  0.83301600  1
  B  B2  1  0.33301600  0.50000000  0.83301600  1
  B  B3  1  0.66698400  0.50000000  0.16698400  1
  O  O0  1  0.47192400  0.65966800  0.00000000  1
  O  O1  1  0.65966800  0.47192400  0.00000000  1
  O  O2  1  0.34033200  0.34033200  0.81225600  1
  O  O3  1  0.52807600  0.52807600  0.18774400  1
  O  O4  1  0.65754100  0.84393100  0.30644900  1
  O  O5  1  0.53748200  0.35109300  0.69355100  1
  O  O6  1  0.46251800  0.15606900  0.81361100  1
  O  O7  1  0.34245900  0.64890700  0.18638900  1
  O  O8  1  0.15606900  0.46251800  0.81361100  1
  O  O9  1  0.64890700  0.34245900  0.18638900  1
  O  O10  1  0.35109300  0.53748200  0.69355100  1
  O  O11  1  0.84393100  0.65754100  0.30644900  1
  O  O12  1  0.84252700  0.04237300  0.19421200  1
  O  O13  1  0.84816100  0.64831500  0.80578800  1
  O  O14  1  0.15183900  0.95762700  0.80015400  1
  O  O15  1  0.15747300  0.35168500  0.19984600  1
  O  O16  1  0.95762700  0.15183900  0.80015400  1
  O  O17  1  0.35168500  0.15747300  0.19984600  1
  O  O18  1  0.64831500  0.84816100  0.80578800  1
  O  O19  1  0.04237300  0.84252700  0.19421200  1
  O  O20  1  0.91181000  0.17751600  0.51252400  1
  O  O21  1  0.66499300  0.39928700  0.48747600  1
  O  O22  1  0.33500700  0.82248400  0.73429400  1
  O  O23  1  0.08819000  0.60071300  0.26570600  1
  O  O24  1  0.82248400  0.33500700  0.73429400  1
  O  O25  1  0.60071300  0.08819000  0.26570600  1
  O  O26  1  0.39928700  0.66499300  0.48747600  1
  O  O27  1  0.17751600  0.91181000  0.51252400  1
loop_
_geom_bond_atom_site_label_1
_geom_bond_atom_site_label_2
_geom_bond_distance
_geom_bond_site_symmetry_2
Ba0 O19 2.748389 1_555
Ba0 O13 2.748389 1_454
Ba0 O17 2.811997 1_565
Ba0 O14 2.811997 1_554
Ba0 O8 2.837958 1_554
Ba0 O7 2.837962 1_555
Ba0 O25 3.140265 1_565
Ba0 O22 3.140265 1_554
Ba0 O0 3.222799 1_555
Ba1 O12 2.748389 1_555
Ba1 O18 2.748389 1_544
Ba1 O15 2.811997 1_655
Ba1 O16 2.811997 1_554
Ba1 O6 2.837958 1_554
Ba1 O9 2.837962 1_555
Ba1 O23 3.140265 1_655
Ba1 O24 3.140265 1_554
Ba1 O1 3.222799 1_555
Ba2 O15 2.748389 1_555
Ba2 O17 2.748389 1_555
Ba2 O12 2.811997 1_455
Ba2 O19 2.811997 1_545
Ba2 O5 2.837958 1_555
Ba2 O10 2.837958 1_555
Ba2 O27 3.140271 1_545
Ba2 O20 3.140271 1_455
Ba2 O2 3.222799 1_555
Ba3 O16 2.748389 1_565
Ba3 O14 2.748389 1_655
Ba3 O13 2.811997 1_555
Ba3 O18 2.811997 1_555
Ba3 O4 2.837960 1_555
Ba3 O11 2.837960 1_555
Ba3 O21 3.140263 1_555
Ba3 O26 3.140263 1_555
Ba3 O3 3.222799 1_555
Ca0 O15 2.371298 1_555
Ca0 O17 2.371298 1_555
Ca0 O14 2.371298 1_544
Ca0 O16 2.371298 1_454
Ca0 O2 2.459428 1_554
Ca0 O3 2.459428 1_555
Ca1 O18 2.371298 1_554
Ca1 O13 2.371298 1_554
Ca1 O19 2.371298 1_655
Ca1 O12 2.371298 1_565
Ca1 O0 2.459428 1_555
Ca1 O1 2.459428 1_555
B0 O0 1.483087 1_555
B0 O3 1.483087 1_555
B0 O7 1.497355 1_555
B0 O4 1.497361 1_555
B1 O1 1.483087 1_556
B1 O2 1.483087 1_555
B1 O6 1.497364 1_555
B1 O5 1.497364 1_555
B2 O0 1.483087 1_556
B2 O2 1.483087 1_555
B2 O10 1.497364 1_555
B2 O8 1.497364 1_555
B3 O1 1.483087 1_555
B3 O3 1.483087 1_555
B3 O9 1.497355 1_555
B3 O11 1.497361 1_555
O4 Si0 1.635234 1_565
O5 Si1 1.635233 1_555
O6 Si2 1.635233 1_545
O7 Si3 1.635237 1_555
O8 Si4 1.635233 1_455
O9 Si5 1.635237 1_555
O10 Si6 1.635233 1_555
O11 Si7 1.635234 1_655
O12 Si0 1.610177 1_555
O13 Si1 1.610177 1_555
O14 Si2 1.610177 1_555
O15 Si3 1.610177 1_555
O16 Si4 1.610177 1_555
O17 Si5 1.610177 1_555
O18 Si6 1.610177 1_555
O19 Si7 1.610177 1_555
O20 Si4 1.651317 1_555
O20 Si0 1.655888 1_555
O21 Si5 1.651319 1_555
O21 Si1 1.655892 1_555
O22 Si6 1.651325 1_555
O22 Si2 1.655883 1_555
O23 Si7 1.651325 1_555
O23 Si3 1.655883 1_555
O24 Si1 1.651325 1_555
O24 Si4 1.655883 1_555
O25 Si0 1.651325 1_555
O25 Si5 1.655883 1_555
O26 Si3 1.651319 1_555
O26 Si6 1.655892 1_555
O27 Si2 1.651317 1_555
O27 Si7 1.655888 1_555
