# generated using pymatgen
data_CaV2Bi2(PbO5)2
_symmetry_space_group_name_H-M   'P 1'
_cell_length_a   7.01203621
_cell_length_b   7.19258677
_cell_length_c   6.90560083
_cell_angle_alpha   96.54089667
_cell_angle_beta   120.51118397
_cell_angle_gamma   89.99999670
_symmetry_Int_Tables_number   1
_chemical_formula_structural   CaV2Bi2(PbO5)2
_chemical_formula_sum   'Ca1 V2 Bi2 Pb2 O10'
_cell_volume   297.42080534
_cell_formula_units_Z   1
loop_
 _symmetry_equiv_pos_site_id
 _symmetry_equiv_pos_as_xyz
  1  'x, y, z'
loop_
 _atom_site_type_symbol
 _atom_site_label
 _atom_site_symmetry_multiplicity
 _atom_site_fract_x
 _atom_site_fract_y
 _atom_site_fract_z
 _atom_site_occupancy
  Ca  Ca0  1  0.81554300  0.50000000  0.00000000  1
  V  V0  1  0.28676500  0.60630800  0.42655000  1
  V  V1  1  0.86021700  0.39369200  0.57345000  1
  Bi  Bi0  1  0.35017000  0.23969900  0.01637400  1
  Bi  Bi1  1  0.33379600  0.76030100  0.98362600  1
  Pb  Pb0  1  0.00395600  0.09340200  0.28325400  1
  Pb  Pb1  1  0.72070200  0.90659800  0.71674600  1
  O  O0  1  0.14869900  0.00000000  0.00000000  1
  O  O1  1  0.55034300  0.00000000  0.00000000  1
  O  O2  1  0.74868000  0.37982300  0.26824900  1
  O  O3  1  0.48043100  0.62017700  0.73175100  1
  O  O4  1  0.73067200  0.27035500  0.68639000  1
  O  O5  1  0.04428300  0.72964500  0.31361000  1
  O  O6  1  0.94875700  0.62289300  0.76689500  1
  O  O7  1  0.18186300  0.37710700  0.23310400  1
  O  O8  1  0.11408600  0.25901700  0.64733500  1
  O  O9  1  0.46675200  0.74098300  0.35266500  1
loop_
_geom_bond_atom_site_label_1
_geom_bond_atom_site_label_2
_geom_bond_distance
_geom_bond_site_symmetry_2
Ca0 O3 2.375945 1_554
Ca0 O2 2.375945 1_555
Ca0 O4 2.376736 1_554
Ca0 O5 2.376738 1_655
Ca0 O6 2.469024 1_554
Ca0 O7 2.469028 1_655
Bi0 O0 2.185022 1_555
Bi0 O8 2.247481 1_554
Bi0 O1 2.252121 1_555
Bi0 O7 2.462944 1_555
Bi0 O2 2.552434 1_555
Bi1 O0 2.185022 1_566
Bi1 O9 2.247480 1_556
Bi1 O1 2.252121 1_566
Bi1 O6 2.462955 1_455
Bi1 O3 2.552434 1_555
O0 Pb1 2.650284 1_444
O0 Pb0 2.650284 1_555
O1 Pb0 2.788841 1_655
O1 Pb1 2.788842 1_544
O2 V1 1.828097 1_555
O2 Pb0 2.705401 1_655
O3 V0 1.828099 1_555
O3 Pb1 2.705401 1_555
O4 V1 1.759940 1_555
O4 Pb1 2.652163 1_545
O5 V0 1.759924 1_555
O5 Pb0 2.652164 1_565
O6 V1 1.882499 1_555
O6 Pb1 2.537667 1_555
O7 V0 1.882502 1_555
O7 Pb0 2.537674 1_555
O8 V1 1.886229 1_455
O8 Pb0 2.383842 1_555
O9 V0 1.886246 1_555
O9 Pb1 2.383841 1_555
