# generated using pymatgen
data_CaEuDyNiO6
_symmetry_space_group_name_H-M   'P 1'
_cell_length_a   5.64656214
_cell_length_b   5.64656214
_cell_length_c   5.64656214
_cell_angle_alpha   60.00000000
_cell_angle_beta   60.00000000
_cell_angle_gamma   60.00000000
_symmetry_Int_Tables_number   1
_chemical_formula_structural   CaEuDyNiO6
_chemical_formula_sum   'Ca1 Eu1 Dy1 Ni1 O6'
_cell_volume   127.30261884
_cell_formula_units_Z   1
loop_
 _symmetry_equiv_pos_site_id
 _symmetry_equiv_pos_as_xyz
  1  'x, y, z'
loop_
 _atom_site_type_symbol
 _atom_site_label
 _atom_site_symmetry_multiplicity
 _atom_site_fract_x
 _atom_site_fract_y
 _atom_site_fract_z
 _atom_site_occupancy
  Ca  Ca0  1  0.25000000  0.25000000  0.25000000  1
  Eu  Eu0  1  0.75000000  0.75000000  0.75000000  1
  Dy  Dy0  1  0.00000000  -0.00000000  0.00000000  1
  Ni  Ni0  1  0.50000000  0.50000000  0.50000000  1
  O  O0  1  0.73051313  0.26948687  0.26948687  1
  O  O1  1  0.26948687  0.73051313  0.73051313  1
  O  O2  1  0.73051313  0.26948687  0.73051313  1
  O  O3  1  0.26948687  0.73051313  0.26948687  1
  O  O4  1  0.73051313  0.73051313  0.26948687  1
  O  O5  1  0.26948687  0.26948687  0.73051313  1
loop_
_geom_bond_atom_site_label_1
_geom_bond_atom_site_label_2
_geom_bond_distance
_geom_bond_site_symmetry_2
Ca0 O5 2.827566 1_555
Ca0 O3 2.827566 1_555
Ca0 O0 2.827566 1_555
Ca0 O0 2.827566 1_455
Ca0 O2 2.827566 1_554
Ca0 O4 2.827566 1_545
Ca0 O1 2.827566 1_545
Ca0 O2 2.827566 1_455
Ca0 O4 2.827566 1_455
Ca0 O1 2.827566 1_554
Ca0 O3 2.827566 1_545
Ca0 O5 2.827566 1_554
Eu0 O1 2.827566 1_655
Eu0 O2 2.827566 1_565
Eu0 O4 2.827566 1_556
Eu0 O0 2.827566 1_565
Eu0 O3 2.827566 1_655
Eu0 O5 2.827566 1_565
Eu0 O5 2.827566 1_655
Eu0 O0 2.827566 1_556
Eu0 O3 2.827566 1_556
Eu0 O2 2.827566 1_555
Eu0 O1 2.827566 1_555
Eu0 O4 2.827566 1_555
Dy0 O3 2.151973 1_545
Dy0 O5 2.151973 1_554
Dy0 O0 2.151973 1_455
Dy0 O4 2.151973 1_445
Dy0 O2 2.151973 1_454
Dy0 O1 2.151973 1_544
Ni0 O2 1.840750 1_555
Ni0 O4 1.840750 1_555
Ni0 O1 1.840750 1_555
Ni0 O5 1.840750 1_555
Ni0 O3 1.840750 1_555
Ni0 O0 1.840750 1_555
