# generated using pymatgen
data_Sm2ZrCo16
_symmetry_space_group_name_H-M   'P 1'
_cell_length_a   8.19427356
_cell_length_b   8.38775400
_cell_length_c   8.38665542
_cell_angle_alpha   59.99566676
_cell_angle_beta   90.03663030
_cell_angle_gamma   90.00000000
_symmetry_Int_Tables_number   1
_chemical_formula_structural   Sm2ZrCo16
_chemical_formula_sum   'Sm4 Zr2 Co32'
_cell_volume   499.17921261
_cell_formula_units_Z   2
loop_
 _symmetry_equiv_pos_site_id
 _symmetry_equiv_pos_as_xyz
  1  'x, y, z'
loop_
 _atom_site_type_symbol
 _atom_site_label
 _atom_site_symmetry_multiplicity
 _atom_site_fract_x
 _atom_site_fract_y
 _atom_site_fract_z
 _atom_site_occupancy
  Sm  Sm0  1  0.26528100  0.66657600  0.66684800  1
  Sm  Sm1  1  0.73471900  0.33342400  0.33315200  1
  Sm  Sm2  1  0.74681200  0.99985300  0.00029300  1
  Sm  Sm3  1  0.25318800  0.00014700  0.99970700  1
  Zr  Zr0  1  0.11395100  0.33330300  0.33339300  1
  Zr  Zr1  1  0.88604900  0.66669700  0.66660700  1
  Co  Co0  1  0.74837200  0.67184100  0.36820600  1
  Co  Co1  1  0.74838600  0.36828000  0.95983700  1
  Co  Co2  1  0.74841000  0.95983000  0.67177100  1
  Co  Co3  1  0.74841000  0.36839900  0.67177100  1
  Co  Co4  1  0.74837200  0.95995300  0.36820600  1
  Co  Co5  1  0.74838600  0.67188300  0.95983700  1
  Co  Co6  1  0.25162800  0.32815900  0.63179400  1
  Co  Co7  1  0.25161400  0.63172000  0.04016300  1
  Co  Co8  1  0.25159000  0.04017000  0.32822900  1
  Co  Co9  1  0.25159000  0.63160100  0.32822900  1
  Co  Co10  1  0.25162800  0.04004700  0.63179400  1
  Co  Co11  1  0.25161400  0.32811700  0.04016300  1
  Co  Co12  1  0.50000000  0.50000000  0.50000000  1
  Co  Co13  1  0.50000000  0.50000000  0.00000000  1
  Co  Co14  1  0.50000000  0.00000000  0.50000000  1
  Co  Co15  1  0.00000000  0.50000000  0.50000000  1
  Co  Co16  1  0.00000000  0.50000000  0.00000000  1
  Co  Co17  1  0.00000000  0.00000000  0.50000000  1
  Co  Co18  1  0.48514900  0.83275600  0.83289700  1
  Co  Co19  1  0.48533500  0.83280400  0.33439100  1
  Co  Co20  1  0.48514900  0.33434700  0.83289700  1
  Co  Co21  1  0.51485100  0.16724400  0.16710300  1
  Co  Co22  1  0.51466500  0.16719600  0.66560900  1
  Co  Co23  1  0.51485100  0.66565300  0.16710300  1
  Co  Co24  1  0.97665100  0.16181300  0.16189800  1
  Co  Co25  1  0.97681300  0.16181600  0.67636900  1
  Co  Co26  1  0.97665100  0.67628900  0.16189800  1
  Co  Co27  1  0.02334900  0.83818700  0.83810200  1
  Co  Co28  1  0.02318700  0.83818400  0.32363100  1
  Co  Co29  1  0.02334900  0.32371100  0.83810200  1
  Co  Co30  1  0.59368900  0.66663700  0.66672700  1
  Co  Co31  1  0.40631100  0.33336300  0.33327300  1
loop_
_geom_bond_atom_site_label_1
_geom_bond_atom_site_label_2
_geom_bond_distance
_geom_bond_site_symmetry_2
Sm0 Zr1 3.107530 1_455
Sm1 Zr0 3.107530 1_655
Co0 Co4 2.416613 1_555
Co0 Co12 2.418864 1_555
Co0 Co15 2.440169 1_655
Co0 Co19 2.482995 1_555
Co0 Co26 2.536484 1_555
Co0 Co3 2.545379 1_555
Co0 Co23 2.567546 1_555
Co0 Co28 2.576232 1_655
Co0 Zr1 2.725060 1_555
Co0 Co30 2.787694 1_555
Co0 Sm2 2.932574 1_555
Co0 Sm1 2.998487 1_555
Co1 Co3 2.415411 1_555
Co1 Co13 2.418638 1_556
Co1 Co16 2.440577 1_656
Co1 Co20 2.483406 1_555
Co1 Co24 2.535806 1_556
Co1 Co5 2.546547 1_555
Co1 Co21 2.569002 1_556
Co1 Co29 2.577461 1_655
Co1 Zr1 2.726298 1_555
Co1 Co30 2.784932 1_555
Co1 Sm2 2.935379 1_546
Co1 Sm1 2.997550 1_556
Co2 Co5 2.415411 1_555
Co2 Co25 2.537706 1_565
Co2 Co4 2.545379 1_555
Co2 Co22 2.570326 1_565
Co2 Co27 2.575874 1_655
Co2 Zr1 2.725037 1_555
Co2 Co30 2.785851 1_555
Co2 Sm2 2.937532 1_556
Co2 Sm1 2.999397 1_565
Co3 Zr1 2.725045 1_555
Co3 Co30 2.785858 1_555
Co3 Sm2 2.937537 1_546
Co3 Sm1 2.999397 1_555
Co4 Zr1 2.725056 1_555
Co4 Sm2 2.932578 1_555
Co4 Sm1 2.998487 1_565
Co5 Zr1 2.726294 1_555
Co5 Sm2 2.935371 1_556
Co5 Sm1 2.997550 1_556
Co6 Co9 2.545379 1_555
Co6 Zr0 2.725060 1_555
Co6 Sm3 2.932574 1_555
Co6 Sm0 2.998487 1_555
Co7 Co9 2.415411 1_555
Co7 Zr0 2.726298 1_555
Co7 Sm3 2.935379 1_564
Co7 Sm0 2.997550 1_554
Co8 Zr0 2.725037 1_555
Co8 Sm3 2.937532 1_554
Co8 Sm0 2.999397 1_545
Co9 Zr0 2.725045 1_555
Co9 Sm3 2.937537 1_564
Co9 Sm0 2.999397 1_555
Co10 Co6 2.416613 1_555
Co10 Co14 2.418864 1_555
Co10 Co17 2.440169 1_555
Co10 Co22 2.482999 1_555
Co10 Co27 2.536484 1_545
Co10 Co8 2.545379 1_555
Co10 Co18 2.567546 1_545
Co10 Co25 2.576236 1_455
Co10 Zr0 2.725056 1_555
Co10 Co31 2.787690 1_555
Co10 Sm3 2.932578 1_555
Co10 Sm0 2.998487 1_545
Co11 Co8 2.415411 1_555
Co11 Co13 2.418638 1_555
Co11 Co16 2.440577 1_555
Co11 Co21 2.483406 1_555
Co11 Co29 2.535806 1_554
Co11 Co7 2.546547 1_555
Co11 Co20 2.569002 1_554
Co11 Co24 2.577461 1_455
Co11 Zr0 2.726294 1_555
Co11 Co31 2.784928 1_555
Co11 Sm3 2.935371 1_554
Co11 Sm0 2.997550 1_554
Co12 Co9 2.417236 1_555
Co12 Co3 2.417236 1_555
Co12 Co6 2.418864 1_555
Co12 Co19 2.420336 1_555
Co12 Co22 2.420336 1_555
Co12 Co20 2.420904 1_555
Co12 Co23 2.420904 1_555
Co12 Co30 2.539970 1_555
Co12 Co31 2.539970 1_555
Co12 Sm0 3.093262 1_555
Co12 Sm1 3.093262 1_555
Co13 Co5 2.418638 1_554
Co13 Co7 2.418638 1_555
Co13 Co23 2.420060 1_555
Co13 Co18 2.420060 1_554
Co13 Co20 2.420060 1_554
Co13 Co21 2.420060 1_555
Co13 Co31 2.539848 1_555
Co13 Co30 2.539848 1_554
Co13 Sm0 3.089799 1_554
Co13 Sm1 3.089799 1_555
Co14 Co8 2.417236 1_555
Co14 Co2 2.417236 1_545
Co14 Co4 2.418864 1_545
Co14 Co22 2.420344 1_555
Co14 Co19 2.420344 1_545
Co14 Co21 2.420904 1_555
Co14 Co18 2.420904 1_545
Co14 Co31 2.539963 1_555
Co14 Co30 2.539963 1_545
Co14 Sm1 3.093262 1_555
Co14 Sm0 3.093262 1_545
Co15 Co6 2.440169 1_555
Co15 Co3 2.440767 1_455
Co15 Co9 2.440767 1_555
Co15 Co29 2.463597 1_555
Co15 Co26 2.463597 1_455
Co15 Co28 2.464621 1_555
Co15 Co25 2.464621 1_455
Co15 Zr1 2.595164 1_455
Co15 Zr0 2.595164 1_555
Co15 Sm0 3.253767 1_555
Co15 Sm1 3.253767 1_455
Co16 Co5 2.440577 1_454
Co16 Co7 2.440577 1_555
Co16 Co26 2.464741 1_455
Co16 Co27 2.464741 1_554
Co16 Co29 2.464741 1_554
Co16 Co24 2.464741 1_455
Co16 Zr1 2.594506 1_454
Co16 Zr0 2.594506 1_555
Co16 Sm0 3.253852 1_554
Co16 Sm1 3.253852 1_455
Co17 Co4 2.440169 1_445
Co17 Co2 2.440767 1_445
Co17 Co8 2.440767 1_555
Co17 Co27 2.463597 1_545
Co17 Co24 2.463597 1_455
Co17 Co25 2.464628 1_455
Co17 Co28 2.464628 1_545
Co17 Zr0 2.595157 1_555
Co17 Zr1 2.595157 1_445
Co17 Sm1 3.253767 1_455
Co17 Sm0 3.253767 1_545
Co18 Co23 2.439244 1_556
Co18 Co22 2.441368 1_565
Co18 Co5 2.483406 1_555
Co18 Co2 2.485756 1_555
Co18 Co7 2.569002 1_556
Co18 Co30 2.572607 1_555
Co18 Sm0 3.011037 1_555
Co18 Sm3 3.083696 1_565
Co18 Sm2 3.239861 1_556
Co19 Co23 2.441361 1_555
Co19 Co21 2.441368 1_565
Co19 Co4 2.482999 1_555
Co19 Co9 2.570321 1_555
Co19 Co8 2.570326 1_565
Co19 Co30 2.571181 1_555
Co19 Sm0 3.014621 1_555
Co19 Sm3 3.085489 1_564
Co19 Sm2 3.238242 1_555
Co20 Co21 2.439244 1_556
Co20 Co22 2.441361 1_555
Co20 Co3 2.485756 1_555
Co20 Co6 2.567546 1_555
Co20 Co30 2.572614 1_555
Co20 Sm0 3.011037 1_555
Co20 Sm3 3.083690 1_555
Co20 Sm2 3.239866 1_546
Co21 Co8 2.485756 1_555
Co21 Co4 2.567546 1_545
Co21 Co31 2.572607 1_555
Co21 Sm1 3.011037 1_555
Co21 Sm2 3.083696 1_545
Co21 Sm3 3.239861 1_554
Co22 Co6 2.482995 1_555
Co22 Co3 2.570321 1_555
Co22 Co31 2.571181 1_555
Co22 Sm1 3.014621 1_555
Co22 Sm2 3.085489 1_546
Co22 Sm3 3.238242 1_555
Co23 Co7 2.483406 1_555
Co23 Co9 2.485756 1_555
Co23 Co5 2.569002 1_554
Co23 Co31 2.572614 1_555
Co23 Sm1 3.011037 1_555
Co23 Sm2 3.083690 1_555
Co23 Sm3 3.239866 1_564
Co24 Co28 2.381330 1_645
Co24 Co29 2.382854 1_654
Co24 Co4 2.536484 1_545
Co24 Co8 2.575874 1_655
Co24 Zr0 2.733218 1_655
Co24 Sm2 3.011245 1_545
Co24 Sm1 3.183740 1_555
Co24 Sm3 3.266889 1_654
Co25 Co29 2.381323 1_655
Co25 Co27 2.381330 1_645
Co25 Co3 2.537701 1_555
Co25 Co6 2.576232 1_655
Co25 Zr0 2.733450 1_655
Co25 Sm2 3.015497 1_546
Co25 Sm1 3.184593 1_555
Co25 Sm3 3.261224 1_655
Co26 Co28 2.381323 1_655
Co26 Co27 2.382854 1_654
Co26 Co5 2.535806 1_554
Co26 Co9 2.575874 1_655
Co26 Co7 2.577461 1_655
Co26 Zr0 2.733225 1_655
Co26 Sm2 3.011239 1_555
Co26 Sm1 3.183740 1_555
Co26 Sm3 3.266894 1_664
Co27 Co7 2.535806 1_556
Co27 Co5 2.577461 1_455
Co27 Zr1 2.733218 1_455
Co27 Sm3 3.011245 1_565
Co27 Sm0 3.183740 1_555
Co27 Sm2 3.266889 1_456
Co28 Co9 2.537701 1_555
Co28 Co8 2.537706 1_565
Co28 Co4 2.576236 1_455
Co28 Zr1 2.733450 1_455
Co28 Sm3 3.015497 1_564
Co28 Sm0 3.184593 1_555
Co28 Sm2 3.261224 1_455
Co29 Co6 2.536484 1_555
Co29 Co3 2.575874 1_455
Co29 Zr1 2.733225 1_455
Co29 Sm3 3.011239 1_555
Co29 Sm0 3.183740 1_555
Co29 Sm2 3.266894 1_446
Co30 Zr1 2.395679 1_555
Co30 Sm0 2.691066 1_555
Co30 Co5 2.784928 1_555
Co30 Co4 2.787690 1_555
Co31 Zr0 2.395679 1_555
Co31 Sm1 2.691066 1_555
Co31 Co7 2.784932 1_555
Co31 Co8 2.785851 1_555
Co31 Co9 2.785858 1_555
Co31 Co6 2.787694 1_555
