# generated using pymatgen
data_ZrB6
_symmetry_space_group_name_H-M   'P 1'
_cell_length_a   4.05877400
_cell_length_b   4.05877400
_cell_length_c   4.05877400
_cell_angle_alpha   90.00000000
_cell_angle_beta   90.00000000
_cell_angle_gamma   90.00000000
_symmetry_Int_Tables_number   1
_chemical_formula_structural   ZrB6
_chemical_formula_sum   'Zr1 B6'
_cell_volume   66.86280762
_cell_formula_units_Z   1
loop_
 _symmetry_equiv_pos_site_id
 _symmetry_equiv_pos_as_xyz
  1  'x, y, z'
loop_
 _atom_site_type_symbol
 _atom_site_label
 _atom_site_symmetry_multiplicity
 _atom_site_fract_x
 _atom_site_fract_y
 _atom_site_fract_z
 _atom_site_occupancy
  Zr  Zr0  1  0.00000000  0.00000000  0.00000000  1
  B  B0  1  0.19761400  0.50000000  0.50000000  1
  B  B1  1  0.50000000  0.50000000  0.80238600  1
  B  B2  1  0.50000000  0.50000000  0.19761400  1
  B  B3  1  0.50000000  0.19761400  0.50000000  1
  B  B4  1  0.50000000  0.80238600  0.50000000  1
  B  B5  1  0.80238600  0.50000000  0.50000000  1
loop_
_geom_bond_atom_site_label_1
_geom_bond_atom_site_label_2
_geom_bond_distance
_geom_bond_site_symmetry_2
B0 B5 1.604141 1_455
B0 B1 1.735688 1_555
B0 B4 1.735688 1_555
B0 B2 1.735688 1_555
B0 B3 1.735688 1_555
B0 Zr0 2.979956 1_555
B0 Zr0 2.979956 1_556
B0 Zr0 2.979956 1_565
B0 Zr0 2.979956 1_566
B1 B2 1.604141 1_556
B1 B4 1.735688 1_555
B1 B5 1.735688 1_555
B1 B3 1.735688 1_555
B1 Zr0 2.979956 1_556
B1 Zr0 2.979956 1_566
B1 Zr0 2.979956 1_656
B1 Zr0 2.979956 1_666
B2 B4 1.735688 1_555
B2 B5 1.735688 1_555
B2 B3 1.735688 1_555
B2 Zr0 2.979956 1_665
B2 Zr0 2.979956 1_555
B2 Zr0 2.979956 1_655
B2 Zr0 2.979956 1_565
B3 B4 1.604141 1_545
B3 B5 1.735688 1_555
B3 Zr0 2.979956 1_555
B3 Zr0 2.979956 1_556
B3 Zr0 2.979956 1_655
B3 Zr0 2.979956 1_656
B4 B5 1.735688 1_555
B4 Zr0 2.979956 1_566
B4 Zr0 2.979956 1_665
B4 Zr0 2.979956 1_565
B4 Zr0 2.979956 1_666
B5 Zr0 2.979956 1_655
B5 Zr0 2.979956 1_656
B5 Zr0 2.979956 1_665
B5 Zr0 2.979956 1_666
