# generated using pymatgen
data_Ca2P2O7
_symmetry_space_group_name_H-M   'P 1'
_cell_length_a   8.49548206
_cell_length_b   5.32402922
_cell_length_c   13.73525958
_cell_angle_alpha   67.04385311
_cell_angle_beta   90.00000000
_cell_angle_gamma   90.00000000
_symmetry_Int_Tables_number   1
_chemical_formula_structural   Ca2P2O7
_chemical_formula_sum   'Ca8 P8 O28'
_cell_volume   572.04785006
_cell_formula_units_Z   4
loop_
 _symmetry_equiv_pos_site_id
 _symmetry_equiv_pos_as_xyz
  1  'x, y, z'
loop_
 _atom_site_type_symbol
 _atom_site_label
 _atom_site_symmetry_multiplicity
 _atom_site_fract_x
 _atom_site_fract_y
 _atom_site_fract_z
 _atom_site_occupancy
  Ca  Ca0  1  0.38736726  0.82721486  0.40996356  1
  Ca  Ca1  1  0.88736726  0.17278514  0.09003644  1
  Ca  Ca2  1  0.61263274  0.17278514  0.59003644  1
  Ca  Ca3  1  0.11263274  0.82721486  0.90996356  1
  Ca  Ca4  1  0.18701270  0.50796823  0.23464925  1
  Ca  Ca5  1  0.68701270  0.49203177  0.26535075  1
  Ca  Ca6  1  0.81298730  0.49203177  0.76535075  1
  Ca  Ca7  1  0.31298730  0.50796823  0.73464925  1
  P  P0  1  0.51198425  0.95364252  0.81909974  1
  P  P1  1  0.01198425  0.04635748  0.68090026  1
  P  P2  1  0.48801575  0.04635748  0.18090026  1
  P  P3  1  0.98801575  0.95364252  0.31909974  1
  P  P4  1  0.76459256  0.75898175  0.97281637  1
  P  P5  1  0.26459256  0.24101825  0.52718363  1
  P  P6  1  0.23540744  0.24101825  0.02718363  1
  P  P7  1  0.73540744  0.75898175  0.47281637  1
  O  O0  1  0.34351037  0.01113491  0.83676499  1
  O  O1  1  0.84351037  0.98886509  0.66323501  1
  O  O2  1  0.65648963  0.98886509  0.16323501  1
  O  O3  1  0.15648963  0.01113491  0.33676499  1
  O  O4  1  0.59776605  0.22140570  0.76344510  1
  O  O5  1  0.09776605  0.77859430  0.73655490  1
  O  O6  1  0.40223395  0.77859430  0.23655490  1
  O  O7  1  0.90223395  0.22140570  0.26344510  1
  O  O8  1  0.53278250  0.77028800  0.75802148  1
  O  O9  1  0.03278250  0.22971200  0.74197852  1
  O  O10  1  0.46721750  0.22971200  0.24197852  1
  O  O11  1  0.96721750  0.77028800  0.25802148  1
  O  O12  1  0.75959408  0.58178694  0.08896471  1
  O  O13  1  0.25959408  0.41821306  0.41103529  1
  O  O14  1  0.24040592  0.41821306  0.91103529  1
  O  O15  1  0.74040592  0.58178694  0.58896471  1
  O  O16  1  0.91382321  0.79894526  0.43441120  1
  O  O17  1  0.41382321  0.20105474  0.06558880  1
  O  O18  1  0.08617679  0.20105474  0.56558880  1
  O  O19  1  0.58617679  0.79894526  0.93441120  1
  O  O20  1  0.65909315  0.03623136  0.44596969  1
  O  O21  1  0.15909315  -0.03623136  0.05403031  1
  O  O22  1  0.34090685  -0.03623136  0.55403031  1
  O  O23  1  0.84090685  0.03623136  0.94596969  1
  O  O24  1  0.64583685  0.60448346  0.41607716  1
  O  O25  1  0.14583685  0.39551654  0.08392284  1
  O  O26  1  0.35416315  0.39551654  0.58392284  1
  O  O27  1  0.85416315  0.60448346  0.91607716  1
loop_
_geom_bond_atom_site_label_1
_geom_bond_atom_site_label_2
_geom_bond_distance
_geom_bond_site_symmetry_2
Ca0 O3 2.246967 1_565
Ca0 O22 2.392105 1_565
Ca0 O13 2.427999 1_555
Ca0 O24 2.481372 1_555
Ca0 O6 2.497385 1_555
Ca0 O10 2.553249 1_565
Ca0 O26 2.605266 1_555
Ca0 O20 2.690935 1_565
Ca1 O2 2.246967 1_545
Ca1 O23 2.392105 1_554
Ca1 O12 2.427999 1_555
Ca1 O25 2.481372 1_655
Ca1 O7 2.497385 1_555
Ca1 O11 2.553249 1_545
Ca1 O27 2.605266 1_554
Ca1 O21 2.690935 1_655
Ca2 O1 2.246967 1_545
Ca2 O20 2.392105 1_555
Ca2 O15 2.427999 1_555
Ca2 O26 2.481372 1_555
Ca2 O4 2.497385 1_555
Ca2 O8 2.553249 1_545
Ca2 O24 2.605266 1_555
Ca2 O22 2.690935 1_555
Ca3 O0 2.246967 1_565
Ca3 O21 2.392105 1_566
Ca3 O14 2.427999 1_555
Ca3 O27 2.481372 1_455
Ca3 O5 2.497385 1_555
Ca3 O9 2.553249 1_565
Ca3 O25 2.605266 1_556
Ca3 O23 2.690935 1_465
Ca4 O6 2.334340 1_555
Ca4 O13 2.361144 1_555
Ca4 O25 2.394504 1_555
Ca4 O11 2.426923 1_455
Ca4 O3 2.477356 1_555
Ca4 O21 2.720954 1_565
Ca4 O10 2.784805 1_555
Ca4 O7 2.804739 1_455
Ca5 O7 2.334340 1_555
Ca5 O12 2.361144 1_555
Ca5 O24 2.394504 1_555
Ca5 O10 2.426923 1_555
Ca5 O2 2.477356 1_555
Ca5 O20 2.720954 1_555
Ca5 O11 2.784805 1_555
Ca5 O6 2.804739 1_555
Ca6 O4 2.334340 1_555
Ca6 O15 2.361144 1_555
Ca6 O27 2.394504 1_555
Ca6 O9 2.426923 1_655
Ca6 O1 2.477356 1_555
Ca6 O23 2.720954 1_555
Ca6 O8 2.784805 1_555
Ca6 O5 2.804739 1_655
Ca7 O5 2.334340 1_555
Ca7 O14 2.361144 1_555
Ca7 O26 2.394504 1_555
Ca7 O8 2.426923 1_555
Ca7 O0 2.477356 1_555
Ca7 O22 2.720954 1_565
Ca7 O9 2.784805 1_555
Ca7 O4 2.804739 1_555
O0 P0 1.503005 1_545
O1 P1 1.503005 1_665
O2 P2 1.503005 1_565
O3 P3 1.503005 1_445
O4 P0 1.515800 1_545
O5 P1 1.515800 1_565
O6 P2 1.515800 1_565
O7 P3 1.515800 1_545
O8 P0 1.525377 1_555
O9 P1 1.525377 1_555
O10 P2 1.525377 1_555
O11 P3 1.525377 1_555
O12 P4 1.504283 1_554
O13 P5 1.504283 1_555
O14 P6 1.504283 1_556
O15 P7 1.504283 1_555
O16 P7 1.591670 1_555
O16 P3 1.602059 1_555
O17 P6 1.591670 1_555
O17 P2 1.602059 1_555
O18 P5 1.591670 1_555
O18 P1 1.602059 1_555
O19 P4 1.591670 1_555
O19 P0 1.602059 1_555
O20 P7 1.520048 1_545
O21 P6 1.520048 1_555
O22 P5 1.520048 1_555
O23 P4 1.520048 1_545
O24 P7 1.537214 1_555
O25 P6 1.537214 1_555
O26 P5 1.537214 1_555
O27 P4 1.537214 1_555
