# generated using pymatgen
data_Na6Mn(SO4)4
_symmetry_space_group_name_H-M   'P 1'
_cell_length_a   8.15748444
_cell_length_b   9.23825809
_cell_length_c   9.61849246
_cell_angle_alpha   90.00000000
_cell_angle_beta   112.80626021
_cell_angle_gamma   90.00000000
_symmetry_Int_Tables_number   1
_chemical_formula_structural   Na6Mn(SO4)4
_chemical_formula_sum   'Na12 Mn2 S8 O32'
_cell_volume   668.18982739
_cell_formula_units_Z   2
loop_
 _symmetry_equiv_pos_site_id
 _symmetry_equiv_pos_as_xyz
  1  'x, y, z'
loop_
 _atom_site_type_symbol
 _atom_site_label
 _atom_site_symmetry_multiplicity
 _atom_site_fract_x
 _atom_site_fract_y
 _atom_site_fract_z
 _atom_site_occupancy
  Na  Na0  1  0.92272217  0.84828012  0.56756833  1
  Na  Na1  1  0.07727783  0.15171988  0.43243167  1
  Na  Na2  1  0.57727783  0.34828012  0.43243167  1
  Na  Na3  1  0.42272217  0.65171988  0.56756833  1
  Na  Na4  1  0.53568684  0.98784194  0.68368511  1
  Na  Na5  1  0.46431316  0.01215806  0.31631489  1
  Na  Na6  1  0.96431316  0.48784194  0.31631489  1
  Na  Na7  1  0.03568684  0.51215806  0.68368511  1
  Na  Na8  1  0.81575314  0.36557315  0.88469981  1
  Na  Na9  1  0.18424686  0.63442685  0.11530019  1
  Na  Na10  1  0.68424686  0.86557315  0.11530019  1
  Na  Na11  1  0.31575314  0.13442685  0.88469981  1
  Mn  Mn0  1  0.00000000  -0.00000000  0.00000000  1
  Mn  Mn1  1  0.50000000  0.50000000  0.00000000  1
  S  S0  1  0.78598161  0.69301026  0.85617132  1
  S  S1  1  0.21401839  0.30698974  0.14382868  1
  S  S2  1  0.71401839  0.19301026  0.14382868  1
  S  S3  1  0.28598161  0.80698974  0.85617132  1
  S  S4  1  0.66566053  0.65583385  0.34663172  1
  S  S5  1  0.33433947  0.34416615  0.65336828  1
  S  S6  1  0.83433947  0.15583385  0.65336828  1
  S  S7  1  0.16566053  0.84416615  0.34663172  1
  O  O0  1  0.84890774  0.80426869  0.97767388  1
  O  O1  1  0.15109226  0.19573131  0.02232612  1
  O  O2  1  0.65109226  0.30426869  0.02232612  1
  O  O3  1  0.34890774  0.69573131  0.97767388  1
  O  O4  1  0.93834195  0.60313490  0.86367004  1
  O  O5  1  0.06165805  0.39686510  0.13632996  1
  O  O6  1  0.56165805  0.10313490  0.13632996  1
  O  O7  1  0.43834195  0.89686510  0.86367004  1
  O  O8  1  0.01213669  0.90997920  0.36470434  1
  O  O9  1  0.98786331  0.09002080  0.63529566  1
  O  O10  1  0.48786331  0.40997920  0.63529566  1
  O  O11  1  0.51213669  0.59002080  0.36470434  1
  O  O12  1  0.70367526  0.76460650  0.70884050  1
  O  O13  1  0.29632474  0.23539350  0.29115950  1
  O  O14  1  0.79632474  0.26460650  0.29115950  1
  O  O15  1  0.20367526  0.73539350  0.70884050  1
  O  O16  1  0.65492971  0.59922990  0.88422553  1
  O  O17  1  0.34506929  0.40077010  0.11577447  1
  O  O18  1  0.84507029  0.09922990  0.11577447  1
  O  O19  1  0.15493071  0.90077010  0.88422553  1
  O  O20  1  0.83277900  0.61179308  0.46994579  1
  O  O21  1  0.16722100  0.38820692  0.53005421  1
  O  O22  1  0.66722100  0.11179308  0.53005421  1
  O  O23  1  0.33277900  0.88820692  0.46994579  1
  O  O24  1  0.32125629  0.39466795  0.79727161  1
  O  O25  1  0.67874371  0.60533205  0.20272839  1
  O  O26  1  0.17874371  0.89466795  0.20272839  1
  O  O27  1  0.82125629  0.10533205  0.79727161  1
  O  O28  1  0.84924725  0.31469020  0.65857371  1
  O  O29  1  0.15075275  0.68530980  0.34142629  1
  O  O30  1  0.65075275  0.81469020  0.34142629  1
  O  O31  1  0.34924725  0.18530980  0.65857371  1
loop_
_geom_bond_atom_site_label_1
_geom_bond_atom_site_label_2
_geom_bond_distance
_geom_bond_site_symmetry_2
Na0 O9 2.329344 1_565
Na0 O20 2.378858 1_555
Na0 O8 2.401585 1_655
Na0 O15 2.402581 1_655
Na0 O30 2.451245 1_555
Na0 O12 2.742106 1_555
Na1 O8 2.329344 1_545
Na1 O21 2.378858 1_555
Na1 O9 2.401585 1_455
Na1 O14 2.402581 1_455
Na1 O31 2.451245 1_555
Na1 O13 2.742106 1_555
Na2 O11 2.329344 1_555
Na2 O22 2.378858 1_555
Na2 O10 2.401585 1_555
Na2 O13 2.402581 1_555
Na2 O28 2.451245 1_555
Na2 O14 2.742106 1_555
Na3 O10 2.329344 1_555
Na3 O23 2.378858 1_555
Na3 O11 2.401585 1_555
Na3 O12 2.402581 1_555
Na3 O29 2.451245 1_555
Na3 O15 2.742106 1_555
Na4 O23 2.274968 1_555
Na4 O7 2.323722 1_555
Na4 O31 2.326919 1_565
Na4 O27 2.413586 1_565
Na4 O22 2.423902 1_565
Na4 O12 2.435673 1_555
Na5 O22 2.274968 1_555
Na5 O6 2.323722 1_555
Na5 O30 2.326919 1_545
Na5 O26 2.413586 1_545
Na5 O23 2.423902 1_545
Na5 O13 2.435673 1_555
Na6 O21 2.274968 1_655
Na6 O5 2.323722 1_655
Na6 O29 2.326919 1_655
Na6 O25 2.413586 1_555
Na6 O20 2.423902 1_555
Na6 O14 2.435673 1_555
Na7 O20 2.274968 1_455
Na7 O4 2.323722 1_455
Na7 O28 2.326919 1_455
Na7 O24 2.413586 1_555
Na7 O21 2.423902 1_555
Na7 O15 2.435673 1_555
Na8 O2 2.292544 1_556
Na8 O28 2.342415 1_555
Na8 O4 2.452403 1_555
Na8 O5 2.490290 1_656
Na8 O16 2.525069 1_555
Na8 O27 2.553134 1_555
Na8 O10 2.846586 1_555
Na8 O1 2.981622 1_656
Na9 O3 2.292544 1_554
Na9 O29 2.342415 1_555
Na9 O5 2.452403 1_555
Na9 O4 2.490290 1_454
Na9 O17 2.525065 1_555
Na9 O26 2.553134 1_555
Na9 O11 2.846586 1_555
Na9 O0 2.981622 1_454
Na10 O0 2.292544 1_554
Na10 O30 2.342415 1_555
Na10 O6 2.452403 1_565
Na10 O7 2.490290 1_554
Na10 O18 2.525069 1_565
Na10 O25 2.553134 1_555
Na10 O8 2.846586 1_655
Na10 O3 2.981622 1_554
Na11 O1 2.292544 1_556
Na11 O31 2.342415 1_555
Na11 O7 2.452403 1_545
Na11 O6 2.490290 1_556
Na11 O19 2.525065 1_545
Na11 O24 2.553134 1_555
Na11 O9 2.846586 1_455
Na11 O2 2.981622 1_556
Mn0 O1 2.151676 1_555
Mn0 O0 2.151676 1_444
Mn0 O27 2.161266 1_454
Mn0 O26 2.161266 1_545
Mn0 O18 2.183744 1_455
Mn0 O19 2.183751 1_544
Mn1 O3 2.151676 1_554
Mn1 O2 2.151676 1_555
Mn1 O24 2.161266 1_554
Mn1 O25 2.161266 1_555
Mn1 O16 2.183744 1_554
Mn1 O17 2.183751 1_555
O0 S0 1.490191 1_555
O1 S1 1.490191 1_555
O2 S2 1.490191 1_555
O3 S3 1.490191 1_555
O4 S0 1.473036 1_555
O5 S1 1.473036 1_555
O6 S2 1.473036 1_555
O7 S3 1.473036 1_555
O8 S7 1.461873 1_555
O9 S6 1.461873 1_555
O10 S5 1.461873 1_555
O11 S4 1.461873 1_555
O12 S0 1.469302 1_555
O13 S1 1.469302 1_555
O14 S2 1.469302 1_555
O15 S3 1.469302 1_555
O16 S0 1.479836 1_555
O17 S1 1.479830 1_555
O18 S2 1.479836 1_555
O19 S3 1.479830 1_555
O20 S4 1.475578 1_555
O21 S5 1.475578 1_555
O22 S6 1.475578 1_555
O23 S7 1.475578 1_555
O24 S5 1.503131 1_555
O25 S4 1.503131 1_555
O26 S7 1.503131 1_555
O27 S6 1.503131 1_555
O28 S6 1.471834 1_555
O29 S7 1.471834 1_555
O30 S4 1.471834 1_555
O31 S5 1.471834 1_555
