# generated using pymatgen
data_SrMg14Ga
_symmetry_space_group_name_H-M   'P 1'
_cell_length_a   6.51832003
_cell_length_b   6.44230731
_cell_length_c   10.55981074
_cell_angle_alpha   90.00000000
_cell_angle_beta   90.00000000
_cell_angle_gamma   119.61499357
_symmetry_Int_Tables_number   1
_chemical_formula_structural   SrMg14Ga
_chemical_formula_sum   'Sr1 Mg14 Ga1'
_cell_volume   385.51006739
_cell_formula_units_Z   1
loop_
 _symmetry_equiv_pos_site_id
 _symmetry_equiv_pos_as_xyz
  1  'x, y, z'
loop_
 _atom_site_type_symbol
 _atom_site_label
 _atom_site_symmetry_multiplicity
 _atom_site_fract_x
 _atom_site_fract_y
 _atom_site_fract_z
 _atom_site_occupancy
  Sr  Sr0  1  0.15818821  0.32909360  0.12500000  1
  Mg  Mg0  1  0.16818775  0.33409338  0.62500000  1
  Mg  Mg1  1  0.16241605  0.83120753  0.62500000  1
  Mg  Mg2  1  0.65462153  0.31956034  0.12500000  1
  Mg  Mg3  1  0.66705253  0.33761513  0.62500000  1
  Mg  Mg4  1  0.65462153  0.83506019  0.12500000  1
  Mg  Mg5  1  0.66705253  0.82943639  0.62500000  1
  Mg  Mg6  1  0.33599063  0.16110903  0.38510190  1
  Mg  Mg7  1  0.33599063  0.16110903  0.86489810  1
  Mg  Mg8  1  0.33599063  0.67488259  0.38510190  1
  Mg  Mg9  1  0.33599063  0.67488259  0.86489810  1
  Mg  Mg10  1  0.82601660  0.16300880  0.38891245  1
  Mg  Mg11  1  0.82601660  0.16300880  0.86108755  1
  Mg  Mg12  1  0.83952145  0.66976123  0.36524639  1
  Mg  Mg13  1  0.83952145  0.66976123  0.88475361  1
  Ga  Ga0  1  0.19282127  0.84641014  0.12500000  1
loop_
_geom_bond_atom_site_label_1
_geom_bond_atom_site_label_2
_geom_bond_distance
_geom_bond_site_symmetry_2
Mg0 Mg10 3.158328 1_455
Mg0 Mg11 3.158328 1_455
Mg0 Mg6 3.171835 1_555
Mg0 Mg7 3.171835 1_555
Mg0 Mg8 3.171842 1_555
Mg0 Mg9 3.171842 1_555
Mg0 Mg1 3.221320 1_545
Mg0 Mg1 3.221320 1_555
Mg0 Mg5 3.240608 1_555
Mg0 Mg3 3.240609 1_555
Mg0 Mg5 3.277831 1_445
Mg0 Mg3 3.277831 1_455
Mg1 Mg8 3.136557 1_555
Mg1 Mg9 3.136557 1_555
Mg1 Mg7 3.136563 1_565
Mg1 Mg6 3.136563 1_565
Mg1 Mg3 3.223314 1_455
Mg1 Mg5 3.223315 1_455
Mg1 Mg3 3.295035 1_565
Mg1 Mg5 3.295036 1_555
Mg1 Mg13 3.297251 1_455
Mg1 Mg12 3.297251 1_455
Mg2 Sr0 3.252497 1_655
Mg2 Sr0 3.266698 1_555
Mg2 Mg6 3.286982 1_555
Mg2 Mg7 3.286982 1_554
Mg3 Mg6 3.153111 1_555
Mg3 Mg7 3.153111 1_555
Mg3 Mg5 3.168464 1_555
Mg3 Mg5 3.273844 1_545
Mg4 Sr0 3.252497 1_665
Mg4 Sr0 3.266697 1_555
Mg4 Mg8 3.286982 1_555
Mg4 Mg9 3.286982 1_554
Mg5 Mg8 3.153112 1_555
Mg5 Mg9 3.153112 1_555
Mg6 Mg8 3.132420 1_545
Mg6 Mg8 3.309887 1_555
Mg6 Sr0 3.361246 1_555
Mg7 Mg9 3.132420 1_545
Mg7 Mg9 3.309887 1_555
Mg7 Sr0 3.361246 1_556
Mg8 Sr0 3.361252 1_555
Mg9 Sr0 3.361252 1_556
Mg10 Mg3 3.115480 1_555
Mg10 Mg5 3.115486 1_545
Mg10 Mg8 3.188369 1_545
Mg10 Mg6 3.188370 1_555
Mg10 Mg12 3.231740 1_545
Mg10 Mg12 3.231740 1_555
Mg10 Mg8 3.330482 1_655
Mg10 Mg6 3.330482 1_655
Mg10 Mg2 3.338499 1_555
Mg10 Mg4 3.338505 1_545
Mg10 Sr0 3.363014 1_655
Mg11 Mg3 3.115480 1_555
Mg11 Mg5 3.115486 1_545
Mg11 Mg9 3.188369 1_545
Mg11 Mg7 3.188370 1_555
Mg11 Mg13 3.231740 1_545
Mg11 Mg13 3.231740 1_555
Mg11 Mg9 3.330482 1_655
Mg11 Mg7 3.330482 1_655
Mg11 Mg2 3.338499 1_556
Mg11 Mg4 3.338505 1_546
Mg11 Sr0 3.363014 1_656
Mg12 Mg4 3.208001 1_555
Mg12 Mg2 3.208007 1_555
Mg12 Mg6 3.226787 1_665
Mg12 Mg8 3.226788 1_655
Mg12 Mg6 3.305261 1_555
Mg12 Mg8 3.305261 1_555
Mg12 Mg5 3.314928 1_555
Mg12 Mg3 3.314934 1_555
Mg13 Mg4 3.208001 1_556
Mg13 Mg2 3.208007 1_556
Mg13 Mg7 3.226787 1_665
Mg13 Mg9 3.226788 1_655
Mg13 Mg7 3.305261 1_555
Mg13 Mg9 3.305261 1_555
Mg13 Mg5 3.314928 1_555
Mg13 Mg3 3.314934 1_555
Ga0 Mg2 3.046958 1_565
Ga0 Mg4 3.046959 1_555
Ga0 Sr0 3.227127 1_565
Ga0 Sr0 3.227127 1_555
Ga0 Mg12 3.231791 1_455
Ga0 Mg13 3.231791 1_454
Ga0 Mg8 3.264228 1_555
Ga0 Mg9 3.264228 1_554
Ga0 Mg6 3.264234 1_565
Ga0 Mg7 3.264234 1_564
