# generated using pymatgen
data_Pb7O16
_symmetry_space_group_name_H-M   'P 1'
_cell_length_a   7.88762910
_cell_length_b   7.88762910
_cell_length_c   7.58446622
_cell_angle_alpha   63.91418413
_cell_angle_beta   63.91418413
_cell_angle_gamma   98.82515239
_symmetry_Int_Tables_number   1
_chemical_formula_structural   Pb7O16
_chemical_formula_sum   'Pb7 O16'
_cell_volume   343.66336104
_cell_formula_units_Z   1
loop_
 _symmetry_equiv_pos_site_id
 _symmetry_equiv_pos_as_xyz
  1  'x, y, z'
loop_
 _atom_site_type_symbol
 _atom_site_label
 _atom_site_symmetry_multiplicity
 _atom_site_fract_x
 _atom_site_fract_y
 _atom_site_fract_z
 _atom_site_occupancy
  Pb  Pb0  1  0.71188300  0.28811700  0.50000000  1
  Pb  Pb1  1  0.21617600  0.28793600  0.50071500  1
  Pb  Pb2  1  0.28714700  0.71285300  0.00000000  1
  Pb  Pb3  1  0.79175000  0.71030600  0.97843100  1
  Pb  Pb4  1  0.71206400  0.78382400  0.49928500  1
  Pb  Pb5  1  0.79051200  0.20948800  0.00000000  1
  Pb  Pb6  1  0.28969400  0.20825000  0.02156900  1
  O  O0  1  0.60751200  0.95171500  0.67699300  1
  O  O1  1  0.72410200  0.37168700  0.17449200  1
  O  O2  1  0.13704200  0.81382200  0.81581900  1
  O  O3  1  0.04828500  0.39248800  0.32300700  1
  O  O4  1  0.45289400  0.61210800  0.17504400  1
  O  O5  1  0.09912100  0.45231700  0.67852400  1
  O  O6  1  0.18617800  0.86295800  0.18418100  1
  O  O7  1  0.36997800  0.22276300  0.68614800  1
  O  O8  1  0.77723700  0.63002200  0.31385200  1
  O  O9  1  0.62831300  0.27589800  0.82550800  1
  O  O10  1  0.89977600  0.04240200  0.82291400  1
  O  O11  1  0.54768300  0.90087900  0.32147600  1
  O  O12  1  0.95759800  0.10022400  0.17708600  1
  O  O13  1  0.86154500  0.69468200  0.67898400  1
  O  O14  1  0.30531800  0.13845500  0.32101600  1
  O  O15  1  0.38789200  0.54710600  0.82495600  1
loop_
_geom_bond_atom_site_label_1
_geom_bond_atom_site_label_2
_geom_bond_distance
_geom_bond_site_symmetry_2
O0 Pb0 2.178472 1_565
O0 Pb2 2.229924 1_556
O0 Pb4 2.275442 1_555
O1 Pb5 2.178902 1_555
O1 Pb0 2.208820 1_555
O1 Pb3 2.236458 1_554
O2 Pb2 2.180108 1_556
O2 Pb3 2.254651 1_455
O3 Pb0 2.178472 1_455
O3 Pb2 2.229924 1_555
O3 Pb1 2.275442 1_555
O4 Pb3 2.193453 1_554
O4 Pb2 2.240661 1_555
O4 Pb1 2.247271 1_555
O5 Pb5 2.186703 1_456
O5 Pb1 2.272068 1_555
O6 Pb2 2.180108 1_555
O6 Pb6 2.254651 1_565
O7 Pb1 2.184018 1_555
O7 Pb0 2.262041 1_555
O7 Pb6 2.278352 1_556
O8 Pb4 2.184018 1_555
O8 Pb0 2.262041 1_555
O8 Pb3 2.278352 1_554
O9 Pb5 2.178902 1_556
O9 Pb0 2.208820 1_555
O9 Pb6 2.236458 1_556
O10 Pb3 2.166315 1_545
O10 Pb1 2.223113 1_655
O10 Pb5 2.273939 1_556
O11 Pb5 2.186703 1_565
O11 Pb4 2.272068 1_555
O12 Pb6 2.166315 1_655
O12 Pb4 2.223113 1_545
O12 Pb5 2.273939 1_555
O13 Pb4 2.137034 1_555
O13 Pb3 2.154938 1_555
O14 Pb1 2.137034 1_555
O14 Pb6 2.154938 1_555
O15 Pb6 2.193453 1_556
O15 Pb2 2.240661 1_556
O15 Pb4 2.247271 1_555
