# generated using pymatgen
data_P2W
_symmetry_space_group_name_H-M   'P 1'
_cell_length_a   3.18546580
_cell_length_b   4.98374023
_cell_length_c   5.80820296
_cell_angle_alpha   90.00000000
_cell_angle_beta   105.91560532
_cell_angle_gamma   90.00000000
_symmetry_Int_Tables_number   1
_chemical_formula_structural   P2W
_chemical_formula_sum   'P4 W2'
_cell_volume   88.67367068
_cell_formula_units_Z   2
loop_
 _symmetry_equiv_pos_site_id
 _symmetry_equiv_pos_as_xyz
  1  'x, y, z'
loop_
 _atom_site_type_symbol
 _atom_site_label
 _atom_site_symmetry_multiplicity
 _atom_site_fract_x
 _atom_site_fract_y
 _atom_site_fract_z
 _atom_site_occupancy
  P  P0  1  0.43063927  0.61728709  0.86127755  1
  P  P1  1  0.56936073  0.11728709  0.13872145  1
  P  P2  1  0.70046009  0.80067079  0.40092217  1
  P  P3  1  0.29953991  0.30066979  0.59907983  1
  W  W0  1  0.09351542  0.49904111  0.18703283  1
  W  W1  1  0.90648358  -0.00095889  0.81296717  1
loop_
_geom_bond_atom_site_label_1
_geom_bond_atom_site_label_2
_geom_bond_distance
_geom_bond_site_symmetry_2
P0 P3 2.152837 1_555
P0 W0 2.488922 1_656
P0 W0 2.488928 1_556
P0 W1 2.495867 1_565
P0 W1 2.495869 1_465
P1 P2 2.152845 1_545
P1 W1 2.488921 1_554
P1 W1 2.488921 1_454
P1 W0 2.495867 1_655
P1 W0 2.495871 1_555
P2 W0 2.494760 1_655
P2 W0 2.494760 1_555
P2 W1 2.504852 1_565
P3 W1 2.494751 1_455
P3 W1 2.494752 1_555
P3 W0 2.504864 1_555
