# generated using pymatgen
data_Sr4Nb2O9
_symmetry_space_group_name_H-M   'P 1'
_cell_length_a   5.87655600
_cell_length_b   5.88220029
_cell_length_c   14.67784719
_cell_angle_alpha   89.61161979
_cell_angle_beta   89.32792128
_cell_angle_gamma   60.70668581
_symmetry_Int_Tables_number   1
_chemical_formula_structural   Sr4Nb2O9
_chemical_formula_sum   'Sr8 Nb4 O18'
_cell_volume   442.46027177
_cell_formula_units_Z   2
loop_
 _symmetry_equiv_pos_site_id
 _symmetry_equiv_pos_as_xyz
  1  'x, y, z'
loop_
 _atom_site_type_symbol
 _atom_site_label
 _atom_site_symmetry_multiplicity
 _atom_site_fract_x
 _atom_site_fract_y
 _atom_site_fract_z
 _atom_site_occupancy
  Sr  Sr0  1  0.73608100  0.63065400  0.91919100  1
  Sr  Sr1  1  0.39528200  0.34943300  0.80567500  1
  Sr  Sr2  1  0.30357700  0.37527300  0.56057300  1
  Sr  Sr3  1  0.04373300  0.00998800  0.76288500  1
  Sr  Sr4  1  0.02804300  0.98215600  0.25131500  1
  Sr  Sr5  1  0.98197600  0.03455300  0.52531200  1
  Sr  Sr6  1  0.66866000  0.67446000  0.39427900  1
  Sr  Sr7  1  0.38459600  0.30709000  0.07115800  1
  Nb  Nb0  1  0.05445300  0.97684000  0.99740100  1
  Nb  Nb1  1  0.70762800  0.63702500  0.66811100  1
  Nb  Nb2  1  0.36555200  0.31135800  0.32965600  1
  Nb  Nb3  1  0.70411800  0.64953900  0.16208800  1
  O  O0  1  0.73892500  0.17525900  0.92805000  1
  O  O1  1  0.26053500  0.09634400  0.93783200  1
  O  O2  1  0.48483100  0.73832200  0.78340800  1
  O  O3  1  0.39307600  0.94740500  0.61648400  1
  O  O4  1  0.97434500  0.43829700  0.77160900  1
  O  O5  1  0.15828700  0.65886300  0.93444700  1
  O  O6  1  0.97287700  0.75199700  0.64860800  1
  O  O7  1  0.83736700  0.49421000  0.53734200  1
  O  O8  1  0.20049700  0.15299700  0.39544700  1
  O  O9  1  0.01472600  0.53389900  0.24984300  1
  O  O10  1  0.69711700  0.09695900  0.38907700  1
  O  O11  1  0.65492200  0.32236200  0.66446800  1
  O  O12  1  0.26275700  0.61091900  0.40618400  1
  O  O13  1  0.57317700  0.44439900  0.23975400  1
  O  O14  1  0.83943500  0.85994900  0.09312500  1
  O  O15  1  0.39156200  0.75660100  0.08418300  1
  O  O16  1  0.48223800  0.98179200  0.23438400  1
  O  O17  1  0.92129600  0.32312300  0.08797800  1
loop_
_geom_bond_atom_site_label_1
_geom_bond_atom_site_label_2
_geom_bond_distance
_geom_bond_site_symmetry_2
Nb0 O1 1.877536 1_565
Nb0 O5 1.902090 1_555
Nb0 O0 1.935703 1_465
Nb0 O15 2.179619 1_556
Nb0 O14 2.199744 1_456
Nb0 O17 2.231904 1_466
Nb1 O6 1.996870 1_555
Nb1 O3 2.008980 1_555
Nb1 O11 2.021728 1_555
Nb1 O2 2.032597 1_555
Nb1 O7 2.081321 1_555
Nb1 O4 2.090394 1_555
Nb2 O8 1.895001 1_555
Nb2 O12 1.923761 1_555
Nb2 O10 1.941136 1_555
Nb2 O13 2.173699 1_555
Nb2 O9 2.175154 1_555
Nb2 O16 2.212963 1_545
Nb3 O15 1.996345 1_555
Nb3 O17 2.023974 1_555
Nb3 O14 2.028795 1_555
Nb3 O16 2.036604 1_555
Nb3 O13 2.053553 1_555
Nb3 O9 2.069254 1_655
O0 Sr1 2.527777 1_555
O0 Sr0 2.672877 1_555
O0 Sr7 2.772835 1_556
O0 Sr3 2.873447 1_655
O0 Sr0 3.215204 1_545
O1 Sr7 2.616985 1_556
O1 Sr1 2.772083 1_555
O1 Sr0 2.808804 1_545
O1 Sr3 3.033609 1_555
O1 Sr0 3.159238 1_455
O2 Sr3 2.306919 1_565
O2 Sr0 2.385380 1_555
O2 Sr1 2.603904 1_555
O3 Sr2 2.443604 1_565
O3 Sr5 2.597037 1_465
O3 Sr3 2.852247 1_565
O4 Sr1 2.324309 1_655
O4 Sr3 2.351148 1_655
O4 Sr0 2.518902 1_555
O5 Sr1 2.515809 1_555
O5 Sr0 2.578764 1_455
O5 Sr7 2.718501 1_556
O5 Sr3 3.109472 1_565
O6 Sr3 2.441119 1_665
O6 Sr5 2.466633 1_565
O6 Sr2 2.474406 1_655
O7 Sr6 2.346592 1_555
O7 Sr5 2.412129 1_555
O7 Sr2 2.500954 1_655
O8 Sr5 2.562789 1_455
O8 Sr4 2.754663 1_545
O8 Sr6 2.813200 1_545
O8 Sr6 3.129909 1_455
O9 Sr4 2.676137 1_555
O9 Sr6 2.755195 1_455
O9 Sr4 3.207830 1_545
O10 Sr5 2.530374 1_555
O10 Sr6 2.571761 1_545
O10 Sr4 2.639650 1_645
O11 Sr2 2.474659 1_555
O11 Sr1 2.518264 1_555
O11 Sr3 2.572293 1_655
O11 Sr5 2.739087 1_555
O12 Sr6 2.592625 1_555
O12 Sr2 2.599780 1_555
O12 Sr5 2.820884 1_465
O12 Sr4 2.982789 1_555
O13 Sr4 2.731142 1_645
O13 Sr6 2.846918 1_555
O13 Sr7 2.995256 1_555
O13 Sr4 3.221105 1_555
O14 Sr7 2.700996 1_565
O14 Sr4 2.828258 1_655
O14 Sr0 3.096840 1_554
O15 Sr7 2.672549 1_555
O15 Sr0 2.992342 1_554
O15 Sr4 3.080482 1_555
O16 Sr4 2.676700 1_555
O16 Sr6 2.835676 1_555
O16 Sr7 2.937037 1_565
O16 Sr4 3.221017 1_655
O17 Sr7 2.686210 1_655
O17 Sr0 2.944564 1_554
O17 Sr4 2.983740 1_645
