# generated using pymatgen
data_Mg5NiN4
_symmetry_space_group_name_H-M   'P 1'
_cell_length_a   7.90033620
_cell_length_b   6.42939843
_cell_length_c   5.46090559
_cell_angle_alpha   90.00000000
_cell_angle_beta   90.00000000
_cell_angle_gamma   90.00000000
_symmetry_Int_Tables_number   1
_chemical_formula_structural   Mg5NiN4
_chemical_formula_sum   'Mg10 Ni2 N8'
_cell_volume   277.38347293
_cell_formula_units_Z   2
loop_
 _symmetry_equiv_pos_site_id
 _symmetry_equiv_pos_as_xyz
  1  'x, y, z'
loop_
 _atom_site_type_symbol
 _atom_site_label
 _atom_site_symmetry_multiplicity
 _atom_site_fract_x
 _atom_site_fract_y
 _atom_site_fract_z
 _atom_site_occupancy
  Mg  Mg0  1  0.55841022  0.51190887  0.27675084  1
  Mg  Mg1  1  0.94158978  0.51190887  0.27675084  1
  Mg  Mg2  1  0.55841022  0.98809113  0.27675084  1
  Mg  Mg3  1  0.94158978  0.98809113  0.27675084  1
  Mg  Mg4  1  0.44158978  0.48809113  0.72324916  1
  Mg  Mg5  1  0.05841022  0.48809113  0.72324916  1
  Mg  Mg6  1  0.44158978  0.01190887  0.72324916  1
  Mg  Mg7  1  0.05841022  0.01190887  0.72324916  1
  Mg  Mg8  1  0.75000000  0.75000000  0.74443800  1
  Mg  Mg9  1  0.25000000  0.25000000  0.25556200  1
  Ni  Ni0  1  0.75000000  0.25000000  0.93800484  1
  Ni  Ni1  1  0.25000000  0.75000000  0.06199516  1
  N  N0  1  0.75000000  0.98532730  0.01004359  1
  N  N1  1  0.75000000  0.51467270  0.01004359  1
  N  N2  1  0.25000000  0.01467270  0.98995641  1
  N  N3  1  0.25000000  0.48532730  0.98995641  1
  N  N4  1  0.53160859  0.75000000  0.53576579  1
  N  N5  1  0.96839141  0.75000000  0.53576579  1
  N  N6  1  0.46839141  0.25000000  0.46423421  1
  N  N7  1  0.03160859  0.25000000  0.46423421  1
loop_
_geom_bond_atom_site_label_1
_geom_bond_atom_site_label_2
_geom_bond_distance
_geom_bond_site_symmetry_2
Mg0 N4 2.094950 1_555
Mg0 N6 2.095131 1_555
Mg0 N1 2.100633 1_555
Mg1 N5 2.094950 1_555
Mg1 N7 2.095131 1_655
Mg1 N1 2.100633 1_555
Mg2 N4 2.094950 1_555
Mg2 N6 2.095131 1_565
Mg2 N0 2.100633 1_555
Mg3 N5 2.094950 1_555
Mg3 N7 2.095131 1_665
Mg3 N0 2.100633 1_555
Mg4 N6 2.094950 1_555
Mg4 N4 2.095131 1_555
Mg4 N3 2.100633 1_555
Mg5 N7 2.094950 1_555
Mg5 N5 2.095131 1_455
Mg5 N3 2.100633 1_555
Mg6 N6 2.094950 1_555
Mg6 N4 2.095131 1_545
Mg6 N2 2.100633 1_555
Mg7 N7 2.094950 1_555
Mg7 N5 2.095131 1_445
Mg7 N2 2.100633 1_555
Mg8 N5 2.067713 1_555
Mg8 N4 2.067713 1_555
Mg8 N1 2.095950 1_556
Mg8 N0 2.095950 1_556
Mg9 N7 2.067713 1_555
Mg9 N6 2.067713 1_555
Mg9 N2 2.095950 1_554
Mg9 N3 2.095950 1_554
N0 Ni0 1.746567 1_564
N1 Ni0 1.746567 1_554
N2 Ni1 1.746567 1_546
N3 Ni1 1.746567 1_556
