# generated using pymatgen
data_Fe2Ni
_symmetry_space_group_name_H-M   'P 1'
_cell_length_a   4.61619530
_cell_length_b   4.61619530
_cell_length_c   4.61619530
_cell_angle_alpha   60.00000000
_cell_angle_beta   60.00000000
_cell_angle_gamma   60.00000000
_symmetry_Int_Tables_number   1
_chemical_formula_structural   Fe2Ni
_chemical_formula_sum   'Fe4 Ni2'
_cell_volume   69.55646876
_cell_formula_units_Z   2
loop_
 _symmetry_equiv_pos_site_id
 _symmetry_equiv_pos_as_xyz
  1  'x, y, z'
loop_
 _atom_site_type_symbol
 _atom_site_label
 _atom_site_symmetry_multiplicity
 _atom_site_fract_x
 _atom_site_fract_y
 _atom_site_fract_z
 _atom_site_occupancy
  Fe  Fe0  1  0.62500000  0.62500000  0.12500000  1
  Fe  Fe1  1  0.62500000  0.12500000  0.62500000  1
  Fe  Fe2  1  0.12500000  0.62500000  0.62500000  1
  Fe  Fe3  1  0.62500000  0.62500000  0.62500000  1
  Ni  Ni0  1  0.25000000  0.25000000  0.25000000  1
  Ni  Ni1  1  0.00000000  0.00000000  0.00000000  1
loop_
_geom_bond_atom_site_label_1
_geom_bond_atom_site_label_2
_geom_bond_distance
_geom_bond_site_symmetry_2
Fe0 Fe1 2.308098 1_555
Fe0 Fe2 2.308098 1_654
Fe0 Fe1 2.308098 1_564
Fe0 Fe3 2.308098 1_554
Fe0 Fe2 2.308098 1_555
Fe0 Fe3 2.308098 1_555
Fe0 Ni1 2.706484 1_665
Fe0 Ni0 2.706484 1_555
Fe0 Ni1 2.706484 1_565
Fe0 Ni0 2.706484 1_565
Fe0 Ni0 2.706484 1_655
Fe0 Ni1 2.706484 1_655
Fe1 Fe2 2.308098 1_645
Fe1 Fe3 2.308098 1_545
Fe1 Fe2 2.308098 1_555
Fe1 Fe3 2.308098 1_555
Fe1 Ni1 2.706484 1_656
Fe1 Ni0 2.706484 1_555
Fe1 Ni1 2.706484 1_556
Fe1 Ni0 2.706484 1_556
Fe1 Ni0 2.706484 1_655
Fe1 Ni1 2.706484 1_655
Fe2 Fe3 2.308098 1_455
Fe2 Fe3 2.308098 1_555
Fe2 Ni1 2.706484 1_565
Fe2 Ni1 2.706484 1_566
Fe2 Ni0 2.706484 1_555
Fe2 Ni0 2.706484 1_556
Fe2 Ni0 2.706484 1_565
Fe2 Ni1 2.706484 1_556
Fe3 Ni0 2.706484 1_556
Fe3 Ni0 2.706484 1_565
Fe3 Ni1 2.706484 1_665
Fe3 Ni1 2.706484 1_656
Fe3 Ni1 2.706484 1_566
Fe3 Ni0 2.706484 1_655
Ni0 Ni1 2.826831 1_655
Ni0 Ni1 2.826831 1_555
Ni0 Ni1 2.826831 1_556
Ni0 Ni1 2.826831 1_565
