# generated using pymatgen
data_Cr13Si2(SbO14)2
_symmetry_space_group_name_H-M   'P 1'
_cell_length_a   5.73072786
_cell_length_b   8.62994409
_cell_length_c   11.67843599
_cell_angle_alpha   86.88155321
_cell_angle_beta   75.72601728
_cell_angle_gamma   77.35272600
_symmetry_Int_Tables_number   1
_chemical_formula_structural   Cr13Si2(SbO14)2
_chemical_formula_sum   'Cr13 Si2 Sb2 O28'
_cell_volume   546.15508645
_cell_formula_units_Z   1
loop_
 _symmetry_equiv_pos_site_id
 _symmetry_equiv_pos_as_xyz
  1  'x, y, z'
loop_
 _atom_site_type_symbol
 _atom_site_label
 _atom_site_symmetry_multiplicity
 _atom_site_fract_x
 _atom_site_fract_y
 _atom_site_fract_z
 _atom_site_occupancy
  Cr  Cr0  1  0.93561200  0.62574000  0.69168100  1
  Cr  Cr1  1  0.65563800  0.34935900  0.13386200  1
  Cr  Cr2  1  0.37279500  0.37439200  0.69182000  1
  Cr  Cr3  1  0.06256000  0.37265000  0.30897700  1
  Cr  Cr4  1  0.34733800  0.64875100  0.86560600  1
  Cr  Cr5  1  0.28417500  0.99879400  0.43227600  1
  Cr  Cr6  1  0.20956600  0.64868600  0.13381600  1
  Cr  Cr7  1  0.00159400  0.99905700  0.00027800  1
  Cr  Cr8  1  0.42691000  0.99915900  0.14783700  1
  Cr  Cr9  1  0.79213900  0.34950200  0.86743400  1
  Cr  Cr10  1  0.62559600  0.62384000  0.30781300  1
  Cr  Cr11  1  0.57461800  0.99939200  0.85254900  1
  Cr  Cr12  1  0.71672600  0.99933000  0.56814800  1
  Si  Si0  1  0.24953200  0.31971900  0.99941000  1
  Si  Si1  1  0.75401100  0.67886200  0.00104800  1
  Sb  Sb0  1  0.85069400  0.99853500  0.29839500  1
  Sb  Sb1  1  0.15062100  0.99948500  0.70204900  1
  O  O0  1  0.73942900  0.39278300  0.28051600  1
  O  O1  1  0.15021000  0.36820300  0.42936400  1
  O  O2  1  0.95933000  0.34758300  0.99871200  1
  O  O3  1  0.34656200  0.12749900  0.00013800  1
  O  O4  1  0.84979900  0.63075400  0.57078100  1
  O  O5  1  0.25837500  0.60529100  0.72031600  1
  O  O6  1  0.00605900  0.10370200  0.56724100  1
  O  O7  1  0.99488900  0.89442700  0.43329100  1
  O  O8  1  0.65617300  0.87099500  0.00028300  1
  O  O9  1  0.16117800  0.88210600  0.13601900  1
  O  O10  1  0.28708300  0.39716900  0.11869900  1
  O  O11  1  0.97951700  0.60658300  0.27778800  1
  O  O12  1  0.42848900  0.89447900  0.56734100  1
  O  O13  1  0.70526700  0.11463400  0.13644100  1
  O  O14  1  0.59398300  0.60220800  0.12041700  1
  O  O15  1  0.04424000  0.65098100  0.00190500  1
  O  O16  1  0.29712900  0.88364000  0.86382000  1
  O  O17  1  0.84114600  0.11607800  0.86451500  1
  O  O18  1  0.57265700  0.10357500  0.43295500  1
  O  O19  1  0.16888900  0.12636000  0.28203700  1
  O  O20  1  0.83051500  0.87212200  0.71836000  1
  O  O21  1  0.40898500  0.39615500  0.87982500  1
  O  O22  1  0.45318400  0.12616900  0.71830000  1
  O  O23  1  0.57824800  0.36591600  0.57003800  1
  O  O24  1  0.71574500  0.60116100  0.88204800  1
  O  O25  1  0.54641800  0.87250200  0.28199900  1
  O  O26  1  0.01860400  0.39161800  0.72201000  1
  O  O27  1  0.41879900  0.63398200  0.42934700  1
loop_
_geom_bond_atom_site_label_1
_geom_bond_atom_site_label_2
_geom_bond_distance
_geom_bond_site_symmetry_2
Cr0 O4 1.601145 1_555
Cr0 O5 1.928705 1_655
Cr0 O26 2.004576 1_655
Cr0 O20 2.097518 1_555
Cr0 O24 2.293372 1_555
Cr1 O0 1.964303 1_555
Cr1 O13 1.982527 1_555
Cr1 O2 2.038800 1_554
Cr1 O10 2.111253 1_555
Cr1 O14 2.136212 1_555
Cr2 O23 1.600687 1_555
Cr2 O26 1.946036 1_555
Cr2 O5 1.975786 1_555
Cr2 O22 2.112512 1_555
Cr2 O21 2.277154 1_555
Cr3 O1 1.601358 1_555
Cr3 O0 1.930305 1_455
Cr3 O11 2.004889 1_455
Cr3 O19 2.097375 1_555
Cr3 O10 2.301393 1_555
Cr4 O5 1.964465 1_555
Cr4 O16 1.983741 1_555
Cr4 O15 2.043635 1_556
Cr4 O24 2.115304 1_555
Cr4 O21 2.134623 1_555
Cr5 O6 2.031955 1_565
Cr5 O12 2.035970 1_555
Cr5 O7 2.050057 1_455
Cr5 O18 2.052490 1_565
Cr5 O25 2.171796 1_555
Cr5 O19 2.184005 1_565
Cr6 O11 1.935793 1_455
Cr6 O9 1.973040 1_555
Cr6 O15 1.994845 1_555
Cr6 O14 2.118592 1_555
Cr6 O10 2.126193 1_555
Cr7 O16 2.122068 1_554
Cr7 O9 2.122416 1_555
Cr7 O13 2.122859 1_465
Cr7 O17 2.125367 1_464
Cr7 O3 2.468732 1_565
Cr7 O8 2.469371 1_455
Cr8 O13 2.032838 1_565
Cr8 O25 2.033141 1_555
Cr8 O9 2.037386 1_555
Cr8 O19 2.044832 1_565
Cr8 O8 2.091303 1_555
Cr8 O3 2.091519 1_565
Cr9 O26 1.937326 1_655
Cr9 O17 1.973069 1_555
Cr9 O2 1.995842 1_555
Cr9 O21 2.113504 1_555
Cr9 O24 2.127123 1_555
Cr10 O27 1.601642 1_555
Cr10 O11 1.944618 1_555
Cr10 O0 1.974906 1_555
Cr10 O25 2.114830 1_555
Cr10 O14 2.260960 1_555
Cr11 O16 2.030285 1_555
Cr11 O22 2.038954 1_565
Cr11 O17 2.039755 1_565
Cr11 O20 2.039963 1_555
Cr11 O3 2.089245 1_566
Cr11 O8 2.094218 1_556
Cr12 O7 2.031310 1_555
Cr12 O18 2.036352 1_565
Cr12 O6 2.050602 1_665
Cr12 O12 2.051934 1_555
Cr12 O22 2.175550 1_565
Cr12 O20 2.179183 1_555
O2 Si0 1.629429 1_655
O3 Si0 1.630313 1_554
O6 Sb1 2.033866 1_545
O7 Sb0 2.033394 1_555
O8 Si1 1.630181 1_555
O9 Sb0 2.352029 1_455
O10 Si0 1.657085 1_554
O12 Sb1 2.029699 1_555
O13 Sb0 2.341188 1_545
O14 Si1 1.660389 1_555
O15 Si1 1.630034 1_455
O16 Sb1 2.341521 1_555
O17 Sb1 2.350461 1_645
O18 Sb0 2.029226 1_545
O19 Sb0 2.294477 1_445
O20 Sb1 2.301607 1_655
O21 Si0 1.659801 1_555
O22 Sb1 2.291864 1_545
O24 Si1 1.656852 1_556
O25 Sb0 2.297399 1_555
