# generated using pymatgen
data_Dy5Tl3
_symmetry_space_group_name_H-M   'P 1'
_cell_length_a   8.95511876
_cell_length_b   8.95525361
_cell_length_c   6.64710589
_cell_angle_alpha   90.00000222
_cell_angle_beta   89.99999846
_cell_angle_gamma   120.00027852
_symmetry_Int_Tables_number   1
_chemical_formula_structural   Dy5Tl3
_chemical_formula_sum   'Dy10 Tl6'
_cell_volume   461.64830926
_cell_formula_units_Z   2
loop_
 _symmetry_equiv_pos_site_id
 _symmetry_equiv_pos_as_xyz
  1  'x, y, z'
loop_
 _atom_site_type_symbol
 _atom_site_label
 _atom_site_symmetry_multiplicity
 _atom_site_fract_x
 _atom_site_fract_y
 _atom_site_fract_z
 _atom_site_occupancy
  Dy  Dy0  1  0.66664727  0.33332727  0.49999936  1
  Dy  Dy1  1  0.33335424  0.66667377  0.50000148  1
  Dy  Dy2  1  0.33335284  0.66667241  -0.00000058  1
  Dy  Dy3  1  0.66664580  0.33332580  0.00000154  1
  Dy  Dy4  1  0.76356100  0.76356367  0.24999955  1
  Dy  Dy5  1  0.23644786  0.99999591  0.25000063  1
  Dy  Dy6  1  -0.00000835  0.23642877  0.25000020  1
  Dy  Dy7  1  0.23643877  0.23643629  0.74999943  1
  Dy  Dy8  1  0.76355191  0.00000388  0.74999999  1
  Dy  Dy9  1  0.00000848  0.76357134  0.75000011  1
  Tl  Tl0  1  0.40275313  0.40273776  0.25000044  1
  Tl  Tl1  1  0.59723116  -0.00000148  0.25000025  1
  Tl  Tl2  1  0.00001237  0.59725342  0.25000026  1
  Tl  Tl3  1  0.59724666  0.59726241  0.75000023  1
  Tl  Tl4  1  0.40276892  0.00000144  0.75000007  1
  Tl  Tl5  1  -0.00001206  0.40274636  0.75000005  1
loop_
_geom_bond_atom_site_label_1
_geom_bond_atom_site_label_2
_geom_bond_distance
_geom_bond_site_symmetry_2
Dy0 Tl0 3.193984 1_555
Dy0 Tl4 3.194067 1_555
Dy0 Tl1 3.194179 1_555
Dy0 Tl5 3.194227 1_655
Dy0 Tl3 3.194272 1_555
Dy0 Tl2 3.194361 1_655
Dy1 Tl3 3.193975 1_555
Dy1 Tl1 3.194060 1_565
Dy1 Tl4 3.194173 1_565
Dy1 Tl2 3.194235 1_555
Dy1 Tl0 3.194271 1_555
Dy1 Tl5 3.194369 1_555
Dy2 Tl3 3.193980 1_554
Dy2 Tl1 3.194069 1_565
Dy2 Tl4 3.194183 1_564
Dy2 Tl2 3.194226 1_555
Dy2 Tl0 3.194268 1_555
Dy2 Tl5 3.194361 1_554
Dy3 Tl0 3.193980 1_555
Dy3 Tl4 3.194059 1_554
Dy3 Tl1 3.194171 1_555
Dy3 Tl5 3.194237 1_654
Dy3 Tl3 3.194278 1_554
Dy3 Tl2 3.194371 1_655
Dy4 Tl2 3.139333 1_655
Dy4 Tl1 3.139351 1_565
Dy4 Tl0 3.231169 1_555
Dy4 Tl3 3.641980 1_554
Dy4 Tl3 3.641989 1_555
Dy5 Tl2 3.139191 1_555
Dy5 Tl0 3.139196 1_565
Dy5 Tl1 3.230846 1_565
Dy5 Tl4 3.642018 1_565
Dy5 Tl4 3.642024 1_564
Dy6 Tl1 3.139276 1_455
Dy6 Tl0 3.139301 1_555
Dy6 Tl2 3.231183 1_555
Dy6 Tl5 3.642033 1_555
Dy6 Tl5 3.642035 1_554
Dy7 Tl5 3.139327 1_555
Dy7 Tl4 3.139354 1_555
Dy7 Tl3 3.231170 1_555
Dy7 Tl0 3.641979 1_555
Dy7 Tl0 3.641991 1_556
Dy8 Tl5 3.139192 1_655
Dy8 Tl3 3.139193 1_545
Dy8 Tl4 3.230844 1_555
Dy8 Tl1 3.642019 1_555
Dy8 Tl1 3.642022 1_556
Dy9 Tl4 3.139276 1_565
Dy9 Tl3 3.139304 1_455
Dy9 Tl5 3.231187 1_555
Dy9 Tl2 3.642035 1_555
Dy9 Tl2 3.642037 1_556
