# generated using pymatgen
data_LiNd2(HO)6
_symmetry_space_group_name_H-M   'P 1'
_cell_length_a   6.70340835
_cell_length_b   7.62103293
_cell_length_c   3.58575100
_cell_angle_alpha   90.00000000
_cell_angle_beta   90.00000000
_cell_angle_gamma   113.33863229
_symmetry_Int_Tables_number   1
_chemical_formula_structural   LiNd2(HO)6
_chemical_formula_sum   'Li1 Nd2 H6 O6'
_cell_volume   168.19660335
_cell_formula_units_Z   1
loop_
 _symmetry_equiv_pos_site_id
 _symmetry_equiv_pos_as_xyz
  1  'x, y, z'
loop_
 _atom_site_type_symbol
 _atom_site_label
 _atom_site_symmetry_multiplicity
 _atom_site_fract_x
 _atom_site_fract_y
 _atom_site_fract_z
 _atom_site_occupancy
  Li  Li0  1  0.39862200  0.03056100  0.25000000  1
  Nd  Nd0  1  0.30087100  0.60360400  0.25000000  1
  Nd  Nd1  1  0.70974000  0.39003900  0.75000000  1
  H  H0  1  0.92236700  0.72904700  0.25000000  1
  H  H1  1  0.81070900  0.11268900  0.25000000  1
  H  H2  1  0.25503400  0.22451300  0.25000000  1
  H  H3  1  0.08092300  0.26791400  0.75000000  1
  H  H4  1  0.16626700  0.86393900  0.75000000  1
  H  H5  1  0.69144200  0.77768300  0.75000000  1
  O  O0  1  0.92420100  0.60018300  0.25000000  1
  O  O1  1  0.70335800  0.17103300  0.25000000  1
  O  O2  1  0.40906700  0.31682700  0.25000000  1
  O  O3  1  0.08866200  0.39995000  0.75000000  1
  O  O4  1  0.30880300  0.85318200  0.75000000  1
  O  O5  1  0.57368500  0.64883700  0.75000000  1
loop_
_geom_bond_atom_site_label_1
_geom_bond_atom_site_label_2
_geom_bond_distance
_geom_bond_site_symmetry_2
Li0 O1 1.893739 1_555
Li0 O2 2.154864 1_555
Li0 O4 2.181610 1_544
Li0 O4 2.181610 1_545
Nd0 O3 2.428480 1_555
Nd0 O3 2.428480 1_554
Nd0 O5 2.485595 1_555
Nd0 O5 2.485595 1_554
Nd0 O0 2.514758 1_455
Nd0 O2 2.560967 1_555
Nd0 O4 2.599012 1_554
Nd0 O4 2.599012 1_555
Nd1 O1 2.438317 1_556
Nd1 O1 2.438317 1_555
Nd1 O0 2.453929 1_555
Nd1 O0 2.453929 1_556
Nd1 O5 2.479325 1_555
Nd1 O3 2.511104 1_655
Nd1 O2 2.587868 1_555
Nd1 O2 2.587868 1_556
H0 O0 0.987012 1_555
H1 O1 0.984418 1_555
H2 O2 0.992741 1_555
H2 Li0 2.058775 1_555
H3 O3 0.986849 1_555
H4 O4 0.990818 1_555
H5 O5 0.986493 1_555
