# generated using pymatgen
data_Ge3Ir2S3
_symmetry_space_group_name_H-M   'P 1'
_cell_length_a   8.46086400
_cell_length_b   8.46086400
_cell_length_c   8.46086400
_cell_angle_alpha   90.00000000
_cell_angle_beta   90.00000000
_cell_angle_gamma   90.00000000
_symmetry_Int_Tables_number   1
_chemical_formula_structural   Ge3Ir2S3
_chemical_formula_sum   'Ge12 Ir8 S12'
_cell_volume   605.68126853
_cell_formula_units_Z   4
loop_
 _symmetry_equiv_pos_site_id
 _symmetry_equiv_pos_as_xyz
  1  'x, y, z'
loop_
 _atom_site_type_symbol
 _atom_site_label
 _atom_site_symmetry_multiplicity
 _atom_site_fract_x
 _atom_site_fract_y
 _atom_site_fract_z
 _atom_site_occupancy
  Ge  Ge0  1  0.66910900  0.00000000  0.14447200  1
  Ge  Ge1  1  0.33089100  0.00000000  0.85552800  1
  Ge  Ge2  1  0.33089100  0.00000000  0.14447200  1
  Ge  Ge3  1  0.66910900  0.00000000  0.85552800  1
  Ge  Ge4  1  0.14447200  0.66910900  0.00000000  1
  Ge  Ge5  1  0.85552800  0.33089100  0.00000000  1
  Ge  Ge6  1  0.14447200  0.33089100  0.00000000  1
  Ge  Ge7  1  0.85552800  0.66910900  0.00000000  1
  Ge  Ge8  1  0.00000000  0.14447200  0.66910900  1
  Ge  Ge9  1  0.00000000  0.85552800  0.33089100  1
  Ge  Ge10  1  0.00000000  0.14447200  0.33089100  1
  Ge  Ge11  1  0.00000000  0.85552800  0.66910900  1
  Ir  Ir0  1  0.73575700  0.26424300  0.26424300  1
  Ir  Ir1  1  0.26424300  0.26424300  0.73575700  1
  Ir  Ir2  1  0.26424300  0.73575700  0.26424300  1
  Ir  Ir3  1  0.73575700  0.73575700  0.73575700  1
  Ir  Ir4  1  0.26424300  0.73575700  0.73575700  1
  Ir  Ir5  1  0.73575700  0.73575700  0.26424300  1
  Ir  Ir6  1  0.73575700  0.26424300  0.73575700  1
  Ir  Ir7  1  0.26424300  0.26424300  0.26424300  1
  S  S0  1  0.16929200  0.50000000  0.62877700  1
  S  S1  1  0.83070800  0.50000000  0.37122300  1
  S  S2  1  0.83070800  0.50000000  0.62877700  1
  S  S3  1  0.16929200  0.50000000  0.37122300  1
  S  S4  1  0.62877700  0.16929200  0.50000000  1
  S  S5  1  0.37122300  0.83070800  0.50000000  1
  S  S6  1  0.62877700  0.83070800  0.50000000  1
  S  S7  1  0.37122300  0.16929200  0.50000000  1
  S  S8  1  0.50000000  0.62877700  0.16929200  1
  S  S9  1  0.50000000  0.37122300  0.83070800  1
  S  S10  1  0.50000000  0.62877700  0.83070800  1
  S  S11  1  0.50000000  0.37122300  0.16929200  1
loop_
_geom_bond_atom_site_label_1
_geom_bond_atom_site_label_2
_geom_bond_distance
_geom_bond_site_symmetry_2
Ge0 Ge3 2.444716 1_554
Ge0 Ir0 2.518602 1_555
Ge0 Ir5 2.518602 1_545
Ge0 Ge2 2.861617 1_555
Ge1 Ge2 2.444716 1_556
Ge1 Ir4 2.518602 1_545
Ge1 Ir1 2.518602 1_555
Ge1 Ge3 2.861617 1_555
Ge2 Ir2 2.518602 1_545
Ge2 Ir7 2.518602 1_555
Ge3 Ir6 2.518602 1_555
Ge3 Ir3 2.518602 1_545
Ge4 Ge7 2.444716 1_455
Ge4 Ir4 2.518602 1_554
Ge4 Ir2 2.518602 1_555
Ge4 Ge6 2.861617 1_555
Ge5 Ge6 2.444716 1_655
Ge5 Ir0 2.518602 1_555
Ge5 Ir6 2.518602 1_554
Ge5 Ge7 2.861617 1_555
Ge6 Ir1 2.518602 1_554
Ge6 Ir7 2.518602 1_555
Ge7 Ir3 2.518602 1_554
Ge7 Ir5 2.518602 1_555
Ge8 Ir6 2.518602 1_455
Ge8 Ir1 2.518602 1_555
Ge9 Ir5 2.518602 1_455
Ge9 Ir2 2.518602 1_555
Ge10 Ge9 2.444716 1_545
Ge10 Ir0 2.518602 1_455
Ge10 Ir7 2.518602 1_555
Ge10 Ge8 2.861617 1_555
Ge11 Ge8 2.444716 1_565
Ge11 Ir4 2.518602 1_555
Ge11 Ir3 2.518602 1_455
Ge11 Ge9 2.861617 1_555
Ir0 S1 2.333140 1_555
Ir0 S11 2.333140 1_555
Ir0 S4 2.333140 1_555
Ir1 S7 2.333140 1_555
Ir1 S9 2.333140 1_555
Ir1 S0 2.333140 1_555
Ir2 S5 2.333140 1_555
Ir2 S3 2.333140 1_555
Ir2 S8 2.333140 1_555
Ir3 S2 2.333140 1_555
Ir3 S6 2.333140 1_555
Ir3 S10 2.333140 1_555
Ir4 S5 2.333140 1_555
Ir4 S0 2.333140 1_555
Ir4 S10 2.333140 1_555
Ir5 S1 2.333140 1_555
Ir5 S6 2.333140 1_555
Ir5 S8 2.333140 1_555
Ir6 S9 2.333140 1_555
Ir6 S2 2.333140 1_555
Ir6 S4 2.333140 1_555
Ir7 S3 2.333140 1_555
Ir7 S7 2.333140 1_555
Ir7 S11 2.333140 1_555
S0 S3 2.179129 1_555
S1 S2 2.179129 1_555
S4 S7 2.179129 1_555
S5 S6 2.179129 1_555
S10 S9 2.179129 1_555
S11 S8 2.179129 1_555
