# generated using pymatgen
data_Gd3Lu2(GaO4)3
_symmetry_space_group_name_H-M   'P 1'
_cell_length_a   11.13908977
_cell_length_b   11.13908977
_cell_length_c   11.13908977
_cell_angle_alpha   109.47122063
_cell_angle_beta   109.47122063
_cell_angle_gamma   109.47122063
_symmetry_Int_Tables_number   1
_chemical_formula_structural   Gd3Lu2(GaO4)3
_chemical_formula_sum   'Gd12 Lu8 Ga12 O48'
_cell_volume   1063.96470580
_cell_formula_units_Z   4
loop_
 _symmetry_equiv_pos_site_id
 _symmetry_equiv_pos_as_xyz
  1  'x, y, z'
loop_
 _atom_site_type_symbol
 _atom_site_label
 _atom_site_symmetry_multiplicity
 _atom_site_fract_x
 _atom_site_fract_y
 _atom_site_fract_z
 _atom_site_occupancy
  Gd  Gd0  1  0.87500000  0.62500000  0.75000000  1
  Gd  Gd1  1  0.12500000  0.37500000  0.25000000  1
  Gd  Gd2  1  0.62500000  0.87500000  0.25000000  1
  Gd  Gd3  1  0.62500000  0.75000000  0.87500000  1
  Gd  Gd4  1  0.87500000  0.25000000  0.62500000  1
  Gd  Gd5  1  0.37500000  0.12500000  0.75000000  1
  Gd  Gd6  1  0.37500000  0.25000000  0.12500000  1
  Gd  Gd7  1  0.12500000  0.75000000  0.37500000  1
  Gd  Gd8  1  0.75000000  0.87500000  0.62500000  1
  Gd  Gd9  1  0.25000000  0.12500000  0.37500000  1
  Gd  Gd10  1  0.25000000  0.62500000  0.87500000  1
  Gd  Gd11  1  0.75000000  0.37500000  0.12500000  1
  Lu  Lu0  1  -0.00000000  -0.00000000  -0.00000000  1
  Lu  Lu1  1  0.50000000  -0.00000000  0.50000000  1
  Lu  Lu2  1  0.50000000  0.50000000  -0.00000000  1
  Lu  Lu3  1  -0.00000000  -0.00000000  0.50000000  1
  Lu  Lu4  1  -0.00000000  0.50000000  0.50000000  1
  Lu  Lu5  1  0.50000000  0.50000000  0.50000000  1
  Lu  Lu6  1  0.50000000  -0.00000000  -0.00000000  1
  Lu  Lu7  1  -0.00000000  0.50000000  -0.00000000  1
  Ga  Ga0  1  0.62500000  0.37500000  0.75000000  1
  Ga  Ga1  1  0.37500000  0.62500000  0.25000000  1
  Ga  Ga2  1  0.87500000  0.12500000  0.25000000  1
  Ga  Ga3  1  0.37500000  0.75000000  0.62500000  1
  Ga  Ga4  1  0.62500000  0.25000000  0.37500000  1
  Ga  Ga5  1  0.12500000  0.87500000  0.75000000  1
  Ga  Ga6  1  0.12500000  0.25000000  0.87500000  1
  Ga  Ga7  1  0.87500000  0.75000000  0.12500000  1
  Ga  Ga8  1  0.75000000  0.62500000  0.37500000  1
  Ga  Ga9  1  0.25000000  0.37500000  0.62500000  1
  Ga  Ga10  1  0.25000000  0.87500000  0.12500000  1
  Ga  Ga11  1  0.75000000  0.12500000  0.87500000  1
  O  O0  1  0.71606416  0.62895116  0.53030721  1
  O  O1  1  0.28393584  0.37104884  0.46969279  1
  O  O2  1  0.78393584  0.81424305  0.41288700  1
  O  O3  1  0.40135605  0.87104884  0.08711300  1
  O  O4  1  0.62895116  0.53030721  0.71606416  1
  O  O5  1  0.71606416  0.08711300  0.68575695  1
  O  O6  1  0.21606416  0.18575695  0.58711300  1
  O  O7  1  0.59864395  0.12895116  0.91288700  1
  O  O8  1  0.37104884  0.46969279  0.28393584  1
  O  O9  1  0.28393584  0.91288700  0.31424305  1
  O  O10  1  0.09864395  0.68575695  0.96969279  1
  O  O11  1  0.81424305  0.41288700  0.78393584  1
  O  O12  1  0.78393584  0.96969279  0.87104884  1
  O  O13  1  0.90135605  0.31424305  0.03030721  1
  O  O14  1  0.18575695  0.58711300  0.21606416  1
  O  O15  1  0.21606416  0.03030721  0.12895116  1
  O  O16  1  0.87104884  0.08711300  0.40135605  1
  O  O17  1  0.40135605  0.53030721  0.81424305  1
  O  O18  1  0.12895116  0.91288700  0.59864395  1
  O  O19  1  0.59864395  0.46969279  0.18575695  1
  O  O20  1  0.68575695  0.96969279  0.09864395  1
  O  O21  1  0.09864395  0.41288700  0.62895116  1
  O  O22  1  0.31424305  0.03030721  0.90135605  1
  O  O23  1  0.90135605  0.58711300  0.37104884  1
  O  O24  1  0.53030721  0.71606416  0.62895116  1
  O  O25  1  0.62895116  0.09864395  0.41288700  1
  O  O26  1  0.46969279  0.28393584  0.37104884  1
  O  O27  1  0.37104884  0.90135605  0.58711300  1
  O  O28  1  0.08711300  0.40135605  0.87104884  1
  O  O29  1  0.87104884  0.78393584  0.96969279  1
  O  O30  1  0.91288700  0.59864395  0.12895116  1
  O  O31  1  0.12895116  0.21606416  0.03030721  1
  O  O32  1  0.96969279  0.09864395  0.68575695  1
  O  O33  1  0.68575695  0.71606416  0.08711300  1
  O  O34  1  0.03030721  0.90135605  0.31424305  1
  O  O35  1  0.31424305  0.28393584  0.91288700  1
  O  O36  1  0.41288700  0.78393584  0.81424305  1
  O  O37  1  0.81424305  0.40135605  0.53030721  1
  O  O38  1  0.58711300  0.21606416  0.18575695  1
  O  O39  1  0.18575695  0.59864395  0.46969279  1
  O  O40  1  0.08711300  0.68575695  0.71606416  1
  O  O41  1  0.91288700  0.31424305  0.28393584  1
  O  O42  1  0.96969279  0.87104884  0.78393584  1
  O  O43  1  0.03030721  0.12895116  0.21606416  1
  O  O44  1  0.41288700  0.62895116  0.09864395  1
  O  O45  1  0.58711300  0.37104884  0.90135605  1
  O  O46  1  0.53030721  0.81424305  0.40135605  1
  O  O47  1  0.46969279  0.18575695  0.59864395  1
loop_
_geom_bond_atom_site_label_1
_geom_bond_atom_site_label_2
_geom_bond_distance
_geom_bond_site_symmetry_2
Gd0 O4 2.425581 1_555
Gd0 O40 2.425581 1_655
Gd0 O11 2.425581 1_555
Gd0 O42 2.425581 1_555
Gd0 O37 2.521976 1_555
Gd0 O29 2.521976 1_555
Gd0 O10 2.521976 1_655
Gd0 O0 2.521976 1_555
Gd1 O14 2.425581 1_555
Gd1 O8 2.425581 1_555
Gd1 O43 2.425581 1_555
Gd1 O41 2.425581 1_455
Gd1 O1 2.521976 1_555
Gd1 O31 2.521976 1_555
Gd1 O13 2.521976 1_455
Gd1 O39 2.521976 1_555
Gd2 O44 2.425581 1_555
Gd2 O46 2.425581 1_555
Gd2 O20 2.425581 1_555
Gd2 O16 2.425581 1_565
Gd2 O25 2.521976 1_565
Gd2 O33 2.521976 1_555
Gd2 O3 2.521976 1_555
Gd2 O2 2.521976 1_555
Gd3 O33 2.425581 1_556
Gd3 O24 2.425581 1_555
Gd3 O29 2.425581 1_555
Gd3 O36 2.425581 1_555
Gd3 O12 2.521976 1_555
Gd3 O4 2.521976 1_555
Gd3 O17 2.521976 1_555
Gd3 O20 2.521976 1_556
Gd4 O25 2.425581 1_555
Gd4 O37 2.425581 1_555
Gd4 O32 2.425581 1_555
Gd4 O28 2.425581 1_655
Gd4 O5 2.521976 1_555
Gd4 O16 2.521976 1_555
Gd4 O21 2.521976 1_655
Gd4 O11 2.521976 1_555
Gd5 O22 2.425581 1_555
Gd5 O47 2.425581 1_555
Gd5 O45 2.425581 1_555
Gd5 O18 2.425581 1_545
Gd5 O35 2.521976 1_555
Gd5 O7 2.521976 1_555
Gd5 O27 2.521976 1_545
Gd5 O6 2.521976 1_555
Gd6 O31 2.425581 1_555
Gd6 O35 2.425581 1_554
Gd6 O38 2.425581 1_555
Gd6 O26 2.425581 1_555
Gd6 O8 2.521976 1_555
Gd6 O22 2.521976 1_554
Gd6 O15 2.521976 1_555
Gd6 O19 2.521976 1_555
Gd7 O34 2.425581 1_555
Gd7 O27 2.425581 1_555
Gd7 O30 2.425581 1_455
Gd7 O39 2.425581 1_555
Gd7 O9 2.521976 1_555
Gd7 O14 2.521976 1_555
Gd7 O18 2.521976 1_555
Gd7 O23 2.521976 1_455
Gd8 O5 2.425581 1_565
Gd8 O0 2.425581 1_555
Gd8 O2 2.425581 1_555
Gd8 O12 2.425581 1_555
Gd8 O42 2.521976 1_555
Gd8 O46 2.521976 1_555
Gd8 O24 2.521976 1_555
Gd8 O32 2.521976 1_565
Gd9 O6 2.425581 1_555
Gd9 O15 2.425581 1_555
Gd9 O1 2.425581 1_555
Gd9 O9 2.425581 1_545
Gd9 O43 2.521976 1_555
Gd9 O34 2.521976 1_545
Gd9 O26 2.521976 1_555
Gd9 O47 2.521976 1_555
Gd10 O21 2.425581 1_555
Gd10 O3 2.425581 1_556
Gd10 O10 2.425581 1_555
Gd10 O17 2.425581 1_555
Gd10 O40 2.521976 1_555
Gd10 O44 2.521976 1_556
Gd10 O28 2.521976 1_555
Gd10 O36 2.521976 1_555
Gd11 O13 2.425581 1_555
Gd11 O19 2.425581 1_555
Gd11 O23 2.425581 1_555
Gd11 O7 2.425581 1_554
Gd11 O41 2.521976 1_555
Gd11 O38 2.521976 1_555
Gd11 O30 2.521976 1_555
Gd11 O45 2.521976 1_554
Lu0 O42 2.190898 1_444
Lu0 O29 2.190898 1_444
Lu0 O12 2.190898 1_444
Lu0 O31 2.190898 1_555
Lu0 O43 2.190898 1_555
Lu0 O15 2.190898 1_555
Lu1 O9 2.190898 1_545
Lu1 O47 2.190898 1_555
Lu1 O27 2.190898 1_545
Lu1 O5 2.190898 1_555
Lu1 O25 2.190898 1_555
Lu1 O46 2.190898 1_545
Lu2 O45 2.190898 1_554
Lu2 O35 2.190898 1_554
Lu2 O19 2.190898 1_555
Lu2 O44 2.190898 1_555
Lu2 O17 2.190898 1_554
Lu2 O33 2.190898 1_555
Lu3 O16 2.190898 1_455
Lu3 O2 2.190898 1_445
Lu3 O34 2.190898 1_545
Lu3 O6 2.190898 1_555
Lu3 O32 2.190898 1_455
Lu3 O18 2.190898 1_545
Lu4 O39 2.190898 1_555
Lu4 O41 2.190898 1_455
Lu4 O23 2.190898 1_455
Lu4 O21 2.190898 1_555
Lu4 O37 2.190898 1_455
Lu4 O40 2.190898 1_555
Lu5 O1 2.190898 1_555
Lu5 O0 2.190898 1_555
Lu5 O26 2.190898 1_555
Lu5 O8 2.190898 1_555
Lu5 O4 2.190898 1_555
Lu5 O24 2.190898 1_555
Lu6 O22 2.190898 1_554
Lu6 O3 2.190898 1_545
Lu6 O36 2.190898 1_544
Lu6 O38 2.190898 1_555
Lu6 O7 2.190898 1_554
Lu6 O20 2.190898 1_545
Lu7 O13 2.190898 1_455
Lu7 O28 2.190898 1_554
Lu7 O14 2.190898 1_555
Lu7 O11 2.190898 1_454
Lu7 O30 2.190898 1_455
Lu7 O10 2.190898 1_554
Ga0 O11 1.879885 1_555
Ga0 O47 1.879885 1_555
Ga0 O4 1.879885 1_555
Ga0 O45 1.879885 1_555
Ga1 O8 1.879885 1_555
Ga1 O14 1.879885 1_555
Ga1 O44 1.879885 1_555
Ga1 O46 1.879885 1_555
Ga2 O43 1.879885 1_655
Ga2 O20 1.879885 1_545
Ga2 O16 1.879885 1_555
Ga2 O41 1.879885 1_555
Ga3 O27 1.879885 1_555
Ga3 O36 1.879885 1_555
Ga3 O24 1.879885 1_555
Ga3 O39 1.879885 1_555
Ga4 O26 1.879885 1_555
Ga4 O37 1.879885 1_555
Ga4 O38 1.879885 1_555
Ga4 O25 1.879885 1_555
Ga5 O40 1.879885 1_555
Ga5 O18 1.879885 1_555
Ga5 O22 1.879885 1_565
Ga5 O42 1.879885 1_455
Ga6 O31 1.879885 1_556
Ga6 O32 1.879885 1_455
Ga6 O28 1.879885 1_555
Ga6 O35 1.879885 1_555
Ga7 O30 1.879885 1_555
Ga7 O33 1.879885 1_555
Ga7 O34 1.879885 1_655
Ga7 O29 1.879885 1_554
Ga8 O2 1.879885 1_555
Ga8 O19 1.879885 1_555
Ga8 O23 1.879885 1_555
Ga8 O0 1.879885 1_555
Ga9 O1 1.879885 1_555
Ga9 O6 1.879885 1_555
Ga9 O17 1.879885 1_555
Ga9 O21 1.879885 1_555
Ga10 O15 1.879885 1_565
Ga10 O3 1.879885 1_555
Ga10 O10 1.879885 1_554
Ga10 O9 1.879885 1_555
Ga11 O7 1.879885 1_555
Ga11 O13 1.879885 1_556
Ga11 O5 1.879885 1_555
Ga11 O12 1.879885 1_545
