# generated using pymatgen
data_Li3VF6
_symmetry_space_group_name_H-M   'P 1'
_cell_length_a   5.49559600
_cell_length_b   5.49559535
_cell_length_c   5.49559574
_cell_angle_alpha   59.99999628
_cell_angle_beta   59.99999846
_cell_angle_gamma   59.99999612
_symmetry_Int_Tables_number   1
_chemical_formula_structural   Li3VF6
_chemical_formula_sum   'Li3 V1 F6'
_cell_volume   117.36248516
_cell_formula_units_Z   1
loop_
 _symmetry_equiv_pos_site_id
 _symmetry_equiv_pos_as_xyz
  1  'x, y, z'
loop_
 _atom_site_type_symbol
 _atom_site_label
 _atom_site_symmetry_multiplicity
 _atom_site_fract_x
 _atom_site_fract_y
 _atom_site_fract_z
 _atom_site_occupancy
  Li  Li0  1  0.25000000  0.25000000  0.25000000  1
  Li  Li1  1  0.75000000  0.75000000  0.75000000  1
  Li  Li2  1  0.50000000  0.50000000  0.50000000  1
  V  V0  1  0.00000000  0.00000000  0.00000000  1
  F  F0  1  0.24846800  0.75153200  0.24846800  1
  F  F1  1  0.75153200  0.75153200  0.24846800  1
  F  F2  1  0.75153200  0.24846800  0.75153200  1
  F  F3  1  0.75153200  0.24846800  0.24846800  1
  F  F4  1  0.24846800  0.75153200  0.75153200  1
  F  F5  1  0.24846800  0.24846800  0.75153200  1
loop_
_geom_bond_atom_site_label_1
_geom_bond_atom_site_label_2
_geom_bond_distance
_geom_bond_site_symmetry_2
F0 V0 1.931080 1_565
F0 Li2 1.954893 1_555
F1 V0 1.931080 1_665
F1 Li2 1.954893 1_555
F2 V0 1.931080 1_656
F2 Li2 1.954893 1_555
F3 V0 1.931080 1_655
F3 Li2 1.954893 1_555
F4 V0 1.931080 1_566
F4 Li2 1.954893 1_555
F5 V0 1.931080 1_556
F5 Li2 1.954893 1_555
