# generated using pymatgen
data_Hg3Sb3H6C2Se8N
_symmetry_space_group_name_H-M   'P 1'
_cell_length_a   9.89667840
_cell_length_b   9.89667840
_cell_length_c   11.96038000
_cell_angle_alpha   90.00000000
_cell_angle_beta   90.00000000
_cell_angle_gamma   110.37753097
_symmetry_Int_Tables_number   1
_chemical_formula_structural   Hg3Sb3H6C2Se8N
_chemical_formula_sum   'Hg6 Sb6 H12 C4 Se16 N2'
_cell_volume   1098.13938144
_cell_formula_units_Z   2
loop_
 _symmetry_equiv_pos_site_id
 _symmetry_equiv_pos_as_xyz
  1  'x, y, z'
loop_
 _atom_site_type_symbol
 _atom_site_label
 _atom_site_symmetry_multiplicity
 _atom_site_fract_x
 _atom_site_fract_y
 _atom_site_fract_z
 _atom_site_occupancy
  Hg  Hg0  1  0.92982100  0.92982100  0.00000000  1
  Hg  Hg1  1  0.42982100  0.42982100  0.00000000  1
  Hg  Hg2  1  0.30834700  0.06014300  0.82277900  1
  Hg  Hg3  1  0.06014300  0.30834700  0.17722100  1
  Hg  Hg4  1  0.80834700  0.56014300  0.17722100  1
  Hg  Hg5  1  0.56014300  0.80834700  0.82277900  1
  Sb  Sb0  1  0.92361500  0.89651200  0.66356000  1
  Sb  Sb1  1  0.89651200  0.92361500  0.33644000  1
  Sb  Sb2  1  0.42361500  0.39651200  0.33644000  1
  Sb  Sb3  1  0.39651200  0.42361500  0.66356000  1
  Sb  Sb4  1  0.19380800  0.69380800  0.01632700  1
  Sb  Sb5  1  0.69380800  0.19380800  0.98367300  1
  H  H0  1  0.93168100  0.53955000  0.63803200  1
  H  H1  1  0.53955000  0.93168100  0.36196800  1
  H  H2  1  0.43168100  0.03955000  0.36196800  1
  H  H3  1  0.03955000  0.43168100  0.63803200  1
  H  H4  1  0.72484000  0.22484000  0.47507900  1
  H  H5  1  0.22484000  0.72484000  0.52492100  1
  H  H6  1  0.93399500  0.43399500  0.76076900  1
  H  H7  1  0.43399500  0.93399500  0.23923100  1
  H  H8  1  0.91905100  0.31107100  0.47170200  1
  H  H9  1  0.31107100  0.91905100  0.52829800  1
  H  H10  1  0.41905100  0.81107100  0.52829800  1
  H  H11  1  0.81107100  0.41905100  0.47170200  1
  C  C0  1  0.93409900  0.43409900  0.66927100  1
  C  C1  1  0.43409900  0.93409900  0.33072900  1
  C  C2  1  0.81587700  0.31587700  0.50636400  1
  C  C3  1  0.31587700  0.81587700  0.49363600  1
  Se  Se0  1  0.06384000  0.06384000  0.50000000  1
  Se  Se1  1  0.56384000  0.56384000  0.50000000  1
  Se  Se2  1  0.04549500  0.09443900  0.81706300  1
  Se  Se3  1  0.09443900  0.04549500  0.18293700  1
  Se  Se4  1  0.54549500  0.59443900  0.18293700  1
  Se  Se5  1  0.59443900  0.54549500  0.81706300  1
  Se  Se6  1  0.46005000  0.19332800  0.64382300  1
  Se  Se7  1  0.19332800  0.46005000  0.35617700  1
  Se  Se8  1  0.96005000  0.69332800  0.35617700  1
  Se  Se9  1  0.69332800  0.96005000  0.64382300  1
  Se  Se10  1  0.27366800  0.77366800  0.81096800  1
  Se  Se11  1  0.77366800  0.27366800  0.18903200  1
  Se  Se12  1  0.42340400  0.15530600  0.02896000  1
  Se  Se13  1  0.15530600  0.42340400  0.97104000  1
  Se  Se14  1  0.92340400  0.65530600  0.97104000  1
  Se  Se15  1  0.65530600  0.92340400  0.02896000  1
  N  N0  1  0.81756100  0.31756100  0.62451100  1
  N  N1  1  0.31756100  0.81756100  0.37548900  1
loop_
_geom_bond_atom_site_label_1
_geom_bond_atom_site_label_2
_geom_bond_distance
_geom_bond_site_symmetry_2
Hg0 Se14 2.717496 1_554
Hg0 Se15 2.717496 1_555
Hg0 Se3 2.730059 1_665
Hg0 Se2 2.730059 1_664
Hg1 Se13 2.717496 1_554
Hg1 Se12 2.717496 1_555
Hg1 Se4 2.730059 1_555
Hg1 Se5 2.730059 1_554
Hg2 Se6 2.682261 1_555
Hg2 Se10 2.738283 1_545
Hg2 Se2 2.738951 1_555
Hg2 Se12 2.741882 1_556
Hg3 Se7 2.682261 1_555
Hg3 Se11 2.738283 1_455
Hg3 Se3 2.738951 1_555
Hg3 Se13 2.741882 1_554
Hg4 Se8 2.682261 1_555
Hg4 Se11 2.738283 1_555
Hg4 Se4 2.738951 1_555
Hg4 Se14 2.741882 1_554
Hg5 Se9 2.682261 1_555
Hg5 Se10 2.738283 1_555
Hg5 Se5 2.738951 1_555
Hg5 Se15 2.741882 1_556
Sb0 Se9 2.577471 1_555
Sb0 Se0 2.625763 1_665
Sb0 Se2 2.649001 1_665
Sb1 Se8 2.577471 1_555
Sb1 Se0 2.625763 1_665
Sb1 Se3 2.649001 1_665
Sb2 Se7 2.577471 1_555
Sb2 Se1 2.625763 1_555
Sb2 Se4 2.649001 1_555
Sb3 Se6 2.577471 1_555
Sb3 Se1 2.625763 1_555
Sb3 Se5 2.649001 1_555
Sb4 Se10 2.616690 1_554
Sb4 Se14 2.624874 1_454
Sb4 Se13 2.624874 1_554
Sb5 Se11 2.616690 1_556
Sb5 Se15 2.624874 1_546
Sb5 Se12 2.624874 1_556
C0 H6 1.094351 1_555
C0 H3 1.116555 1_655
C0 H0 1.116555 1_555
C0 N0 1.421486 1_555
C1 H7 1.094351 1_555
C1 H2 1.116555 1_565
C1 H1 1.116555 1_555
C1 N1 1.421486 1_555
C2 H4 1.094615 1_555
C2 H8 1.118283 1_555
C2 H11 1.118283 1_555
C2 N0 1.413211 1_555
C3 H5 1.094615 1_555
C3 H9 1.118283 1_555
C3 H10 1.118283 1_555
C3 N1 1.413211 1_555
