# generated using pymatgen
data_PrMoBrO4
_symmetry_space_group_name_H-M   'P 1'
_cell_length_a   7.08648600
_cell_length_b   7.56456108
_cell_length_c   11.39033871
_cell_angle_alpha   106.12206067
_cell_angle_beta   106.64374850
_cell_angle_gamma   92.44190066
_symmetry_Int_Tables_number   1
_chemical_formula_structural   PrMoBrO4
_chemical_formula_sum   'Pr4 Mo4 Br4 O16'
_cell_volume   557.03360688
_cell_formula_units_Z   4
loop_
 _symmetry_equiv_pos_site_id
 _symmetry_equiv_pos_as_xyz
  1  'x, y, z'
loop_
 _atom_site_type_symbol
 _atom_site_label
 _atom_site_symmetry_multiplicity
 _atom_site_fract_x
 _atom_site_fract_y
 _atom_site_fract_z
 _atom_site_occupancy
  Pr  Pr0  1  0.64664200  0.12756200  0.73040400  1
  Pr  Pr1  1  0.35335800  0.87243800  0.26959600  1
  Pr  Pr2  1  0.39466200  0.64562600  0.76858500  1
  Pr  Pr3  1  0.60533800  0.35437400  0.23141500  1
  Mo  Mo0  1  0.73172300  0.81753700  0.13390600  1
  Mo  Mo1  1  0.26827700  0.18246300  0.86609400  1
  Mo  Mo2  1  0.77621700  0.59378000  0.63090600  1
  Mo  Mo3  1  0.22378300  0.40622000  0.36909400  1
  Br  Br0  1  0.25722800  0.96613500  0.51937300  1
  Br  Br1  1  0.74277200  0.03386500  0.48062700  1
  Br  Br2  1  0.19274700  0.71134600  0.98024300  1
  Br  Br3  1  0.80725300  0.28865400  0.01975700  1
  O  O0  1  0.67391100  0.73140100  0.96417500  1
  O  O1  1  0.32608900  0.26859900  0.03582500  1
  O  O2  1  0.99363600  0.86718900  0.20646900  1
  O  O3  1  0.00636400  0.13281100  0.79353100  1
  O  O4  1  0.62190000  0.66051800  0.19990900  1
  O  O5  1  0.37810000  0.33948200  0.80009100  1
  O  O6  1  0.39431200  0.98131900  0.82235400  1
  O  O7  1  0.60568800  0.01868100  0.17764600  1
  O  O8  1  0.03864500  0.63852900  0.67684300  1
  O  O9  1  0.96135500  0.36147100  0.32315700  1
  O  O10  1  0.69678900  0.43144300  0.70265400  1
  O  O11  1  0.30321100  0.56855700  0.29734600  1
  O  O12  1  0.68206200  0.51261400  0.45966200  1
  O  O13  1  0.31793800  0.48738600  0.54033800  1
  O  O14  1  0.66307800  0.79597100  0.69687800  1
  O  O15  1  0.33692200  0.20402900  0.30312200  1
loop_
_geom_bond_atom_site_label_1
_geom_bond_atom_site_label_2
_geom_bond_distance
_geom_bond_site_symmetry_2
Mo0 O0 1.775941 1_554
Mo0 O2 1.777223 1_555
Mo0 O7 1.819556 1_565
Mo0 O4 1.825932 1_555
Mo1 O1 1.775941 1_556
Mo1 O3 1.777223 1_555
Mo1 O6 1.819556 1_545
Mo1 O5 1.825932 1_555
Mo2 O8 1.771271 1_655
Mo2 O12 1.783589 1_555
Mo2 O10 1.804064 1_555
Mo2 O14 1.832520 1_555
Mo3 O9 1.771271 1_455
Mo3 O13 1.783589 1_555
Mo3 O11 1.804064 1_555
Mo3 O15 1.832520 1_555
Br0 Pr1 3.015324 1_555
Br0 Pr0 3.027736 1_565
Br1 Pr0 3.015324 1_555
Br1 Pr1 3.027736 1_545
Br2 Pr1 3.024126 1_556
Br2 Pr2 3.078607 1_555
Br3 Pr0 3.024126 1_554
Br3 Pr3 3.078607 1_555
O0 Pr2 2.421283 1_555
O1 Pr3 2.421283 1_555
O2 Pr1 2.437697 1_655
O3 Pr0 2.437697 1_455
O4 Pr3 2.442993 1_555
O4 Pr1 2.690720 1_555
O5 Pr2 2.442993 1_555
O5 Pr0 2.690720 1_555
O6 Pr2 2.441553 1_555
O6 Pr0 2.658172 1_565
O7 Pr3 2.441553 1_555
O7 Pr1 2.658172 1_545
O8 Pr2 2.430433 1_555
O9 Pr3 2.430433 1_555
O10 Pr0 2.430760 1_555
O10 Pr2 2.883379 1_555
O11 Pr1 2.430760 1_555
O11 Pr3 2.883379 1_555
O12 Pr3 2.427751 1_555
O13 Pr2 2.427751 1_555
O14 Pr0 2.443270 1_565
O14 Pr2 2.607707 1_555
O15 Pr1 2.443270 1_545
O15 Pr3 2.607707 1_555
