# generated using pymatgen
data_NbAgN2
_symmetry_space_group_name_H-M   'P 1'
_cell_length_a   5.92532688
_cell_length_b   11.89018789
_cell_length_c   14.47552089
_cell_angle_alpha   90.00000000
_cell_angle_beta   90.00000000
_cell_angle_gamma   90.00000000
_symmetry_Int_Tables_number   1
_chemical_formula_structural   NbAgN2
_chemical_formula_sum   'Nb16 Ag16 N32'
_cell_volume   1019.84749088
_cell_formula_units_Z   16
loop_
 _symmetry_equiv_pos_site_id
 _symmetry_equiv_pos_as_xyz
  1  'x, y, z'
loop_
 _atom_site_type_symbol
 _atom_site_label
 _atom_site_symmetry_multiplicity
 _atom_site_fract_x
 _atom_site_fract_y
 _atom_site_fract_z
 _atom_site_occupancy
  Nb  Nb0  1  0.66348194  0.03102750  0.31522213  1
  Nb  Nb1  1  0.16348194  0.46897250  0.68477787  1
  Nb  Nb2  1  0.33651806  0.53102750  0.18477787  1
  Nb  Nb3  1  0.83651806  0.96897250  0.81522213  1
  Nb  Nb4  1  0.33651806  0.96897250  0.68477787  1
  Nb  Nb5  1  0.83651806  0.53102750  0.31522213  1
  Nb  Nb6  1  0.66348194  0.46897250  0.81522213  1
  Nb  Nb7  1  0.16348194  0.03102750  0.18477787  1
  Nb  Nb8  1  0.77112518  0.28436923  0.44004346  1
  Nb  Nb9  1  0.27112518  0.21563077  0.55995654  1
  Nb  Nb10  1  0.22887482  0.78436923  0.05995654  1
  Nb  Nb11  1  0.72887482  0.71563077  0.94004346  1
  Nb  Nb12  1  0.22887482  0.71563077  0.55995654  1
  Nb  Nb13  1  0.72887482  0.78436923  0.44004346  1
  Nb  Nb14  1  0.77112518  0.21563077  0.94004346  1
  Nb  Nb15  1  0.27112518  0.28436923  0.05995654  1
  Ag  Ag0  1  0.20989111  0.99786277  0.43400326  1
  Ag  Ag1  1  0.70989111  0.50213723  0.56599674  1
  Ag  Ag2  1  0.79010889  0.49786277  0.06599674  1
  Ag  Ag3  1  0.29010889  0.00213723  0.93400326  1
  Ag  Ag4  1  0.79010889  0.00213723  0.56599674  1
  Ag  Ag5  1  0.29010889  0.49786277  0.43400326  1
  Ag  Ag6  1  0.20989111  0.50213723  0.93400326  1
  Ag  Ag7  1  0.70989111  0.99786277  0.06599674  1
  Ag  Ag8  1  0.19062701  0.27485548  0.30265426  1
  Ag  Ag9  1  0.69062701  0.22514452  0.69734574  1
  Ag  Ag10  1  0.80937299  0.77485548  0.19734574  1
  Ag  Ag11  1  0.30937299  0.72514452  0.80265426  1
  Ag  Ag12  1  0.80937299  0.72514452  0.69734574  1
  Ag  Ag13  1  0.30937299  0.77485548  0.30265426  1
  Ag  Ag14  1  0.19062701  0.22514452  0.80265426  1
  Ag  Ag15  1  0.69062701  0.27485548  0.19734574  1
  N  N0  1  0.09945939  0.26750365  0.45318984  1
  N  N1  1  0.59945939  0.23249635  0.54681016  1
  N  N2  1  0.90054061  0.76750365  0.04681016  1
  N  N3  1  0.40054061  0.73249635  0.95318984  1
  N  N4  1  0.90054061  0.73249635  0.54681016  1
  N  N5  1  0.40054061  0.76750365  0.45318984  1
  N  N6  1  0.09945939  0.23249635  0.95318984  1
  N  N7  1  0.59945939  0.26750365  0.04681016  1
  N  N8  1  0.71043695  0.44688601  0.41984246  1
  N  N9  1  0.21043695  0.05311399  0.58015754  1
  N  N10  1  0.28956305  0.94688601  0.08015754  1
  N  N11  1  0.78956305  0.55311399  0.91984246  1
  N  N12  1  0.28956305  0.55311399  0.58015754  1
  N  N13  1  0.78956305  0.94688601  0.41984246  1
  N  N14  1  0.71043695  0.05311399  0.91984246  1
  N  N15  1  0.21043695  0.44688601  0.08015754  1
  N  N16  1  0.67564811  0.19408257  0.33362574  1
  N  N17  1  0.17564811  0.30591743  0.66637426  1
  N  N18  1  0.32435189  0.69408257  0.16637426  1
  N  N19  1  0.82435189  0.80591743  0.83362574  1
  N  N20  1  0.32435189  0.80591743  0.66637426  1
  N  N21  1  0.82435189  0.69408257  0.33362574  1
  N  N22  1  0.67564811  0.30591743  0.83362574  1
  N  N23  1  0.17564811  0.19408257  0.16637426  1
  N  N24  1  0.65449946  0.48823878  0.20680891  1
  N  N25  1  0.15449946  0.01176122  0.79319109  1
  N  N26  1  0.34550054  0.98823878  0.29319109  1
  N  N27  1  0.84550054  0.51176122  0.70680891  1
  N  N28  1  0.34550054  0.51176122  0.79319109  1
  N  N29  1  0.84550054  0.98823878  0.20680891  1
  N  N30  1  0.65449946  0.01176122  0.70680891  1
  N  N31  1  0.15449946  0.48823878  0.29319109  1
loop_
_geom_bond_atom_site_label_1
_geom_bond_atom_site_label_2
_geom_bond_distance
_geom_bond_site_symmetry_2
Ag0 N26 2.193979 1_555
Ag0 N9 2.215311 1_565
Ag0 N13 2.571458 1_455
Ag1 N27 2.193979 1_555
Ag1 N8 2.215311 1_555
Ag1 N12 2.571458 1_555
Ag2 N24 2.193979 1_555
Ag2 N11 2.215311 1_554
Ag2 N15 2.571458 1_655
Ag3 N25 2.193979 1_555
Ag3 N10 2.215311 1_546
Ag3 N14 2.571458 1_555
Ag4 N30 2.193979 1_555
Ag4 N13 2.215311 1_545
Ag4 N9 2.571458 1_655
Ag5 N31 2.193979 1_555
Ag5 N12 2.215311 1_555
Ag5 N8 2.571458 1_555
Ag6 N28 2.193979 1_555
Ag6 N15 2.215311 1_556
Ag6 N11 2.571458 1_455
Ag7 N29 2.193979 1_555
Ag7 N14 2.215311 1_564
Ag7 N10 2.571458 1_555
Ag8 N23 2.195881 1_555
Ag8 N0 2.246742 1_555
Ag8 N31 2.549864 1_555
Ag9 N22 2.195881 1_555
Ag9 N1 2.246742 1_555
Ag9 N30 2.549864 1_555
Ag10 N21 2.195881 1_555
Ag10 N2 2.246742 1_555
Ag10 N29 2.549864 1_555
Ag11 N20 2.195881 1_555
Ag11 N3 2.246742 1_555
Ag11 N28 2.549864 1_555
Ag12 N19 2.195881 1_555
Ag12 N4 2.246742 1_555
Ag12 N27 2.549864 1_555
Ag13 N18 2.195881 1_555
Ag13 N5 2.246742 1_555
Ag13 N26 2.549864 1_555
Ag14 N17 2.195881 1_555
Ag14 N6 2.246742 1_555
Ag14 N25 2.549864 1_555
Ag15 N16 2.195881 1_555
Ag15 N7 2.246742 1_555
Ag15 N24 2.549864 1_555
N0 Nb9 1.950293 1_555
N0 Nb8 1.965032 1_455
N1 Nb8 1.950293 1_555
N1 Nb9 1.965032 1_555
N2 Nb11 1.950293 1_554
N2 Nb10 1.965032 1_655
N3 Nb10 1.950293 1_556
N3 Nb11 1.965032 1_555
N4 Nb13 1.950293 1_555
N4 Nb12 1.965032 1_655
N5 Nb12 1.950293 1_555
N5 Nb13 1.965032 1_555
N6 Nb15 1.950293 1_556
N6 Nb14 1.965032 1_455
N7 Nb14 1.950293 1_554
N7 Nb15 1.965032 1_555
N8 Nb5 1.962789 1_555
N8 Nb8 1.987163 1_555
N9 Nb4 1.962789 1_545
N9 Nb9 1.987163 1_555
N10 Nb7 1.962789 1_565
N10 Nb10 1.987163 1_555
N11 Nb6 1.962789 1_555
N11 Nb11 1.987163 1_555
N12 Nb1 1.962789 1_555
N12 Nb12 1.987163 1_555
N13 Nb0 1.962789 1_565
N13 Nb13 1.987163 1_555
N14 Nb3 1.962789 1_545
N14 Nb14 1.987163 1_555
N15 Nb2 1.962789 1_555
N15 Nb15 1.987163 1_555
N16 Nb0 1.958300 1_555
N16 Nb8 1.960995 1_555
N17 Nb1 1.958300 1_555
N17 Nb9 1.960995 1_555
N18 Nb2 1.958300 1_555
N18 Nb10 1.960995 1_555
N19 Nb3 1.958300 1_555
N19 Nb11 1.960995 1_555
N20 Nb4 1.958300 1_555
N20 Nb12 1.960995 1_555
N21 Nb5 1.958300 1_555
N21 Nb13 1.960995 1_555
N22 Nb6 1.958300 1_555
N22 Nb14 1.960995 1_555
N23 Nb7 1.958300 1_555
N23 Nb15 1.960995 1_555
N24 Nb5 1.971007 1_555
N24 Nb2 1.977510 1_555
N25 Nb4 1.971007 1_545
N25 Nb3 1.977510 1_445
N26 Nb7 1.971007 1_565
N26 Nb0 1.977510 1_565
N27 Nb6 1.971007 1_555
N27 Nb1 1.977510 1_655
N28 Nb1 1.971007 1_555
N28 Nb6 1.977510 1_555
N29 Nb0 1.971007 1_565
N29 Nb7 1.977510 1_665
N30 Nb3 1.971007 1_545
N30 Nb4 1.977510 1_545
N31 Nb2 1.971007 1_555
N31 Nb5 1.977510 1_455
