# generated using pymatgen
data_MgFeF5
_symmetry_space_group_name_H-M   'P 1'
_cell_length_a   5.30389021
_cell_length_b   5.30389021
_cell_length_c   7.56052637
_cell_angle_alpha   68.74858685
_cell_angle_beta   68.74858685
_cell_angle_gamma   71.52659481
_symmetry_Int_Tables_number   1
_chemical_formula_structural   MgFeF5
_chemical_formula_sum   'Mg2 Fe2 F10'
_cell_volume   180.48336382
_cell_formula_units_Z   2
loop_
 _symmetry_equiv_pos_site_id
 _symmetry_equiv_pos_as_xyz
  1  'x, y, z'
loop_
 _atom_site_type_symbol
 _atom_site_label
 _atom_site_symmetry_multiplicity
 _atom_site_fract_x
 _atom_site_fract_y
 _atom_site_fract_z
 _atom_site_occupancy
  Mg  Mg0  1  0.52525500  0.47474500  0.75000000  1
  Mg  Mg1  1  0.47474500  0.52525500  0.25000000  1
  Fe  Fe0  1  0.00000000  0.00000000  0.50000000  1
  Fe  Fe1  1  0.00000000  0.00000000  0.00000000  1
  F  F0  1  0.12385700  0.87614300  0.25000000  1
  F  F1  1  0.87614300  0.12385700  0.75000000  1
  F  F2  1  0.72158100  0.78408600  0.13384700  1
  F  F3  1  0.21591400  0.27841900  0.36615300  1
  F  F4  1  0.68210900  0.28671300  0.44982400  1
  F  F5  1  0.71328700  0.31789100  0.05017600  1
  F  F6  1  0.31789100  0.71328700  0.55017600  1
  F  F7  1  0.28671300  0.68210900  0.94982400  1
  F  F8  1  0.78408600  0.72158100  0.63384700  1
  F  F9  1  0.27841900  0.21591400  0.86615300  1
loop_
_geom_bond_atom_site_label_1
_geom_bond_atom_site_label_2
_geom_bond_distance
_geom_bond_site_symmetry_2
F0 Fe1 2.040150 1_565
F0 Fe0 2.040150 1_565
F0 Mg1 2.175362 1_555
F1 Fe0 2.040150 1_655
F1 Fe1 2.040150 1_656
F1 Mg0 2.175362 1_555
F2 Fe1 1.914279 1_665
F2 Mg1 1.949713 1_555
F3 Fe0 1.914279 1_555
F3 Mg1 1.949713 1_555
F4 Fe0 1.928685 1_655
F4 Mg1 2.007452 1_555
F4 Mg0 2.565846 1_555
F5 Fe1 1.928685 1_655
F5 Mg1 2.007452 1_555
F5 Mg0 2.565846 1_554
F6 Fe0 1.928685 1_565
F6 Mg0 2.007452 1_555
F6 Mg1 2.565846 1_555
F7 Fe1 1.928685 1_566
F7 Mg0 2.007452 1_555
F7 Mg1 2.565846 1_556
F8 Fe0 1.914279 1_665
F8 Mg0 1.949713 1_555
F9 Fe1 1.914279 1_556
F9 Mg0 1.949713 1_555
