# generated using pymatgen
data_Li7Mn4(P2O7)4
_symmetry_space_group_name_H-M   'P 1'
_cell_length_a   9.90622000
_cell_length_b   9.88335000
_cell_length_c   11.38481111
_cell_angle_alpha   77.00167483
_cell_angle_beta   90.00000000
_cell_angle_gamma   90.00000000
_symmetry_Int_Tables_number   1
_chemical_formula_structural   Li7Mn4(P2O7)4
_chemical_formula_sum   'Li14 Mn8 P16 O56'
_cell_volume   1086.08755450
_cell_formula_units_Z   2
loop_
 _symmetry_equiv_pos_site_id
 _symmetry_equiv_pos_as_xyz
  1  'x, y, z'
loop_
 _atom_site_type_symbol
 _atom_site_label
 _atom_site_symmetry_multiplicity
 _atom_site_fract_x
 _atom_site_fract_y
 _atom_site_fract_z
 _atom_site_occupancy
  Li  Li0  1  0.57913400  0.07342600  0.55114800  1
  Li  Li1  1  0.89247800  0.16343700  0.02966200  1
  Li  Li2  1  0.09290000  0.90654600  0.95840300  1
  Li  Li3  1  0.59290000  0.09345400  0.04159700  1
  Li  Li4  1  0.39247800  0.83656300  0.97033800  1
  Li  Li5  1  0.07913400  0.92657400  0.44885200  1
  Li  Li6  1  0.21919800  0.63789500  0.44933700  1
  Li  Li7  1  0.92128900  0.58798300  0.53982900  1
  Li  Li8  1  0.60646800  0.66404900  0.02909700  1
  Li  Li9  1  0.41129000  0.40217000  0.95747300  1
  Li  Li10  1  0.91129000  0.59783000  0.04252700  1
  Li  Li11  1  0.10646800  0.33595100  0.97090300  1
  Li  Li12  1  0.42128900  0.41201700  0.46017100  1
  Li  Li13  1  0.71919800  0.36210500  0.55066300  1
  Mn  Mn0  1  0.07636400  0.04924100  0.66682100  1
  Mn  Mn1  1  0.78576100  0.99334900  0.82100400  1
  Mn  Mn2  1  0.28576100  0.00665100  0.17899600  1
  Mn  Mn3  1  0.57636400  0.95075900  0.33317900  1
  Mn  Mn4  1  0.41994100  0.54960200  0.67640600  1
  Mn  Mn5  1  0.71595500  0.50196300  0.82033200  1
  Mn  Mn6  1  0.21595500  0.49803700  0.17966800  1
  Mn  Mn7  1  0.91994100  0.45039800  0.32359400  1
  P  P0  1  0.54804700  0.22468000  0.76187500  1
  P  P1  1  0.29613300  0.13142200  0.89016900  1
  P  P2  1  0.06626900  0.18730400  0.24398000  1
  P  P3  1  0.84639200  0.12580300  0.42426400  1
  P  P4  1  0.34639200  0.87419700  0.57573600  1
  P  P5  1  0.56626900  0.81269600  0.75602000  1
  P  P6  1  0.95930600  0.72930800  0.75359100  1
  P  P7  1  0.79613300  0.86857800  0.10983100  1
  P  P8  1  0.20485400  0.63133500  0.89395100  1
  P  P9  1  0.04804700  0.77532000  0.23812500  1
  P  P10  1  0.43335900  0.68926400  0.24356700  1
  P  P11  1  0.64730200  0.62857500  0.42114500  1
  P  P12  1  0.14730200  0.37142500  0.57885500  1
  P  P13  1  0.93335900  0.31073600  0.75643300  1
  P  P14  1  0.70485400  0.36866500  0.10604900  1
  P  P15  1  0.45930600  0.27069200  0.24640900  1
  O  O0  1  0.58678100  0.22776600  0.63242200  1
  O  O1  1  0.15171800  0.21913500  0.56892900  1
  O  O2  1  0.92248200  0.16300800  0.72928200  1
  O  O3  1  0.63911800  0.13497400  0.85805600  1
  O  O4  1  0.40037200  0.15323500  0.77730300  1
  O  O5  1  0.17183600  0.06705000  0.84383800  1
  O  O6  1  0.36497100  0.02809600  0.99781600  1
  O  O7  1  0.72295000  0.22998700  0.07353200  1
  O  O8  1  0.91568200  0.13742500  0.29320700  1
  O  O9  1  0.06147200  0.19058800  0.11003400  1
  O  O10  1  0.47632600  0.11657700  0.22627500  1
  O  O11  1  0.70394700  0.06654000  0.41125100  1
  O  O12  1  0.16598400  0.07671100  0.30869700  1
  O  O13  1  0.93840700  0.03328100  0.51543700  1
  O  O14  1  0.43840700  0.96671900  0.48456300  1
  O  O15  1  0.66598400  0.92328900  0.69130300  1
  O  O16  1  0.20394700  0.93346000  0.58874900  1
  O  O17  1  0.97632600  0.88342300  0.77372500  1
  O  O18  1  0.41568200  0.86257500  0.70679300  1
  O  O19  1  0.56147200  0.80941200  0.88996600  1
  O  O20  1  0.22295000  0.77001300  0.92646800  1
  O  O21  1  0.86497100  0.97190400  0.00218400  1
  O  O22  1  0.67183600  0.93295000  0.15616200  1
  O  O23  1  0.90037200  0.84676500  0.22269700  1
  O  O24  1  0.42248200  0.83699200  0.27071800  1
  O  O25  1  0.13911800  0.86502600  0.14194400  1
  O  O26  1  0.92355500  0.72460100  0.62730500  1
  O  O27  1  0.65171800  0.78086500  0.43107100  1
  O  O28  1  0.33204900  0.72570600  0.55647800  1
  O  O29  1  0.08678100  0.77223400  0.36757800  1
  O  O30  1  0.86527000  0.65119300  0.85425200  1
  O  O31  1  0.58790700  0.66771600  0.72759200  1
  O  O32  1  0.10512600  0.65528300  0.77808800  1
  O  O33  1  0.33080100  0.56741400  0.85076800  1
  O  O34  1  0.13371800  0.52576200  0.99871600  1
  O  O35  1  0.77538900  0.72880300  0.07897800  1
  O  O36  1  0.43188200  0.68748700  0.11151900  1
  O  O37  1  0.57954500  0.62827300  0.29143300  1
  O  O38  1  0.03406700  0.62675000  0.21279200  1
  O  O39  1  0.78893300  0.56836000  0.41704300  1
  O  O40  1  0.32605900  0.58878100  0.31361700  1
  O  O41  1  0.56254600  0.52967100  0.51598500  1
  O  O42  1  0.06254600  0.47032900  0.48401500  1
  O  O43  1  0.82605900  0.41121900  0.68638300  1
  O  O44  1  0.28893300  0.43164000  0.58295700  1
  O  O45  1  0.53406700  0.37325000  0.78720800  1
  O  O46  1  0.93188200  0.31251300  0.88848100  1
  O  O47  1  0.07954500  0.37172700  0.70856700  1
  O  O48  1  0.27538900  0.27119700  0.92102200  1
  O  O49  1  0.63371800  0.47423800  0.00128400  1
  O  O50  1  0.83080100  0.43258600  0.14923200  1
  O  O51  1  0.60512600  0.34471700  0.22191200  1
  O  O52  1  0.36527000  0.34880700  0.14574800  1
  O  O53  1  0.08790700  0.33228400  0.27240800  1
  O  O54  1  0.83204900  0.27429400  0.44352200  1
  O  O55  1  0.42355500  0.27539900  0.37269500  1
loop_
_geom_bond_atom_site_label_1
_geom_bond_atom_site_label_2
_geom_bond_distance
_geom_bond_site_symmetry_2
Li0 O0 1.955418 1_555
Li0 O14 1.997487 1_545
Li0 O11 2.029491 1_555
Li0 O15 2.103094 1_545
Li1 O7 1.910542 1_555
Li1 O9 1.955072 1_655
Li1 O46 1.959936 1_554
Li1 O21 2.005470 1_545
Li2 O20 1.957933 1_555
Li2 O5 1.974415 1_565
Li2 O25 2.087733 1_556
Li2 O21 2.430785 1_456
Li2 O17 2.454091 1_455
Li3 O7 1.957933 1_555
Li3 O22 1.974415 1_545
Li3 O3 2.087733 1_554
Li3 O6 2.430785 1_554
Li3 O10 2.454091 1_555
Li4 O20 1.910542 1_555
Li4 O19 1.955072 1_555
Li4 O36 1.959936 1_556
Li4 O6 2.005470 1_565
Li5 O29 1.955418 1_555
Li5 O13 1.997487 1_465
Li5 O16 2.029491 1_555
Li5 O12 2.103094 1_565
Li6 O29 1.947819 1_555
Li6 O28 1.991739 1_555
Li6 O40 2.020176 1_555
Li6 O42 2.238890 1_555
Li6 O44 2.356235 1_555
Li7 O26 1.849428 1_555
Li7 O39 1.957751 1_555
Li7 O42 2.011568 1_655
Li7 O43 2.326937 1_555
Li8 O35 1.922428 1_555
Li8 O19 1.935978 1_554
Li8 O49 1.989876 1_555
Li8 O36 2.005763 1_555
Li9 O33 1.971362 1_555
Li9 O48 1.975323 1_555
Li9 O52 2.138208 1_556
Li9 O45 2.359607 1_555
Li9 O49 2.402289 1_556
Li10 O50 1.971362 1_555
Li10 O35 1.975323 1_555
Li10 O30 2.138208 1_554
Li10 O38 2.359607 1_655
Li10 O34 2.402289 1_654
Li11 O48 1.922428 1_555
Li11 O9 1.935978 1_556
Li11 O34 1.989876 1_555
Li11 O46 2.005763 1_455
Li12 O55 1.849428 1_555
Li12 O44 1.957751 1_555
Li12 O41 2.011568 1_555
Li12 O40 2.326937 1_555
Li13 O0 1.947819 1_555
Li13 O54 1.991739 1_555
Li13 O43 2.020176 1_555
Li13 O41 2.238890 1_555
Li13 O39 2.356235 1_555
Mn0 O1 1.943431 1_555
Mn0 O16 2.038223 1_545
Mn0 O17 2.062012 1_445
Mn0 O2 2.110306 1_455
Mn0 O13 2.232764 1_455
Mn0 O5 2.268585 1_555
Mn1 O3 2.124398 1_565
Mn1 O15 2.127835 1_555
Mn1 O21 2.172256 1_556
Mn1 O2 2.224587 1_565
Mn1 O17 2.301488 1_555
Mn2 O25 2.124398 1_545
Mn2 O12 2.127835 1_555
Mn2 O6 2.172256 1_554
Mn2 O24 2.224587 1_545
Mn2 O10 2.301488 1_555
Mn3 O27 1.943431 1_555
Mn3 O11 2.038223 1_565
Mn3 O10 2.062012 1_565
Mn3 O24 2.110306 1_555
Mn3 O14 2.232764 1_555
Mn3 O22 2.268585 1_555
Mn4 O28 2.140701 1_555
Mn4 O44 2.175626 1_555
Mn4 O31 2.185619 1_555
Mn4 O33 2.215511 1_555
Mn4 O45 2.217714 1_555
Mn4 O41 2.351999 1_555
Mn5 O31 2.151604 1_555
Mn5 O49 2.174590 1_556
Mn5 O30 2.183696 1_555
Mn5 O43 2.221448 1_555
Mn5 O45 2.285357 1_555
Mn6 O53 2.151604 1_555
Mn6 O34 2.174590 1_554
Mn6 O52 2.183696 1_555
Mn6 O40 2.221448 1_555
Mn6 O38 2.285357 1_555
Mn7 O54 2.140701 1_555
Mn7 O39 2.175626 1_555
Mn7 O53 2.185619 1_655
Mn7 O50 2.215511 1_555
Mn7 O38 2.217714 1_655
Mn7 O42 2.351999 1_655
O0 P0 1.516582 1_555
O1 P12 1.535132 1_555
O2 P13 1.562664 1_555
O3 P0 1.536968 1_555
O4 P0 1.616706 1_555
O4 P1 1.624584 1_555
O5 P1 1.532998 1_555
O6 P1 1.564238 1_555
O7 P14 1.508637 1_555
O8 P3 1.622802 1_555
O8 P2 1.630381 1_655
O9 P2 1.518723 1_555
O10 P15 1.599402 1_555
O11 P3 1.547652 1_555
O12 P2 1.533312 1_555
O13 P3 1.522330 1_555
O14 P4 1.522330 1_555
O15 P5 1.533312 1_555
O16 P4 1.547652 1_555
O17 P6 1.599402 1_555
O18 P4 1.622802 1_555
O18 P5 1.630381 1_555
O19 P5 1.518723 1_555
O20 P8 1.508637 1_555
O21 P7 1.564238 1_555
O22 P7 1.532998 1_555
O23 P9 1.616706 1_655
O23 P7 1.624584 1_555
O24 P10 1.562664 1_555
O25 P9 1.536968 1_555
O26 P6 1.491570 1_555
O27 P11 1.535132 1_555
O28 P4 1.538447 1_555
O29 P9 1.516582 1_555
O30 P6 1.542445 1_555
O31 P5 1.553215 1_555
O32 P6 1.614902 1_455
O32 P8 1.622203 1_555
O33 P8 1.528785 1_555
O34 P8 1.564630 1_555
O35 P7 1.514029 1_555
O36 P10 1.507460 1_555
O37 P10 1.615456 1_555
O37 P11 1.622745 1_555
O38 P9 1.564920 1_555
O39 P11 1.528838 1_555
O40 P10 1.547848 1_555
O41 P11 1.533461 1_555
O42 P12 1.533461 1_555
O43 P13 1.547848 1_555
O44 P12 1.528838 1_555
O45 P0 1.564920 1_555
O46 P13 1.507460 1_555
O47 P13 1.615456 1_455
O47 P12 1.622745 1_555
O48 P1 1.514029 1_555
O49 P14 1.564630 1_555
O50 P14 1.528785 1_555
O51 P15 1.614902 1_555
O51 P14 1.622203 1_555
O52 P15 1.542445 1_555
O53 P2 1.553215 1_555
O54 P3 1.538447 1_555
O55 P15 1.491570 1_555
