# generated using pymatgen
data_PrEu2SbO6
_symmetry_space_group_name_H-M   'P 1'
_cell_length_a   8.49680174
_cell_length_b   8.49680174
_cell_length_c   8.49680174
_cell_angle_alpha   90.00000000
_cell_angle_beta   90.00000000
_cell_angle_gamma   90.00000000
_symmetry_Int_Tables_number   1
_chemical_formula_structural   PrEu2SbO6
_chemical_formula_sum   'Pr4 Eu8 Sb4 O24'
_cell_volume   613.43203795
_cell_formula_units_Z   4
loop_
 _symmetry_equiv_pos_site_id
 _symmetry_equiv_pos_as_xyz
  1  'x, y, z'
loop_
 _atom_site_type_symbol
 _atom_site_label
 _atom_site_symmetry_multiplicity
 _atom_site_fract_x
 _atom_site_fract_y
 _atom_site_fract_z
 _atom_site_occupancy
  Pr  Pr0  1  0.75000000  0.75000000  0.75000000  1
  Pr  Pr1  1  0.75000000  0.25000000  0.25000000  1
  Pr  Pr2  1  0.25000000  0.75000000  0.25000000  1
  Pr  Pr3  1  0.25000000  0.25000000  0.75000000  1
  Eu  Eu0  1  0.50000000  0.50000000  0.50000000  1
  Eu  Eu1  1  0.00000000  -0.00000000  0.00000000  1
  Eu  Eu2  1  0.00000000  -0.00000000  0.50000000  1
  Eu  Eu3  1  0.00000000  0.50000000  0.00000000  1
  Eu  Eu4  1  0.50000000  -0.00000000  0.00000000  1
  Eu  Eu5  1  0.50000000  0.50000000  0.00000000  1
  Eu  Eu6  1  0.50000000  -0.00000000  0.50000000  1
  Eu  Eu7  1  0.00000000  0.50000000  0.50000000  1
  Sb  Sb0  1  0.25000000  0.25000000  0.25000000  1
  Sb  Sb1  1  0.25000000  0.75000000  0.75000000  1
  Sb  Sb2  1  0.75000000  0.25000000  0.75000000  1
  Sb  Sb3  1  0.75000000  0.75000000  0.25000000  1
  O  O0  1  0.21071999  0.29847577  0.47915157  1
  O  O1  1  0.21071999  0.70152423  0.52084843  1
  O  O2  1  0.78928001  0.29847577  0.52084843  1
  O  O3  1  0.78928001  0.70152423  0.47915157  1
  O  O4  1  0.29847577  0.47915157  0.21071999  1
  O  O5  1  0.70152423  0.52084843  0.21071999  1
  O  O6  1  0.29847577  0.52084843  0.78928001  1
  O  O7  1  0.70152423  0.47915157  0.78928001  1
  O  O8  1  0.47915157  0.21071999  0.29847577  1
  O  O9  1  0.52084843  0.21071999  0.70152423  1
  O  O10  1  0.52084843  0.78928001  0.29847577  1
  O  O11  1  0.47915157  0.78928001  0.70152423  1
  O  O12  1  0.28928001  0.20152423  0.02084843  1
  O  O13  1  0.28928001  0.79847577  0.97915157  1
  O  O14  1  0.71071999  0.20152423  0.97915157  1
  O  O15  1  0.71071999  0.79847577  0.02084843  1
  O  O16  1  0.20152423  0.02084843  0.28928001  1
  O  O17  1  0.79847577  0.97915157  0.28928001  1
  O  O18  1  0.20152423  0.97915157  0.71071999  1
  O  O19  1  0.79847577  0.02084843  0.71071999  1
  O  O20  1  0.02084843  0.28928001  0.20152423  1
  O  O21  1  0.97915157  0.28928001  0.79847577  1
  O  O22  1  0.97915157  0.71071999  0.20152423  1
  O  O23  1  0.02084843  0.71071999  0.79847577  1
loop_
_geom_bond_atom_site_label_1
_geom_bond_atom_site_label_2
_geom_bond_distance
_geom_bond_site_symmetry_2
Eu0 O9 3.000822 1_555
Eu0 O10 3.000822 1_555
Eu0 O2 3.000822 1_555
Eu0 O3 3.000822 1_555
Eu0 O4 3.000822 1_555
Eu0 O11 3.000822 1_555
Eu0 O1 3.000822 1_555
Eu0 O8 3.000822 1_555
Eu0 O5 3.000822 1_555
Eu0 O6 3.000822 1_555
Eu0 O7 3.000822 1_555
Eu0 O0 3.000822 1_555
Eu1 O17 3.000822 1_445
Eu1 O12 3.000822 1_555
Eu1 O16 3.000822 1_555
Eu1 O21 3.000822 1_454
Eu1 O20 3.000822 1_555
Eu1 O13 3.000822 1_544
Eu1 O18 3.000822 1_544
Eu1 O22 3.000822 1_445
Eu1 O19 3.000822 1_454
Eu1 O14 3.000822 1_454
Eu1 O23 3.000822 1_544
Eu1 O15 3.000822 1_445
Eu2 O19 2.483765 1_455
Eu2 O18 2.483765 1_545
Eu2 O17 2.483765 1_445
Eu2 O16 2.483765 1_555
Eu3 O23 2.483765 1_554
Eu3 O22 2.483765 1_455
Eu3 O21 2.483765 1_454
Eu3 O20 2.483765 1_555
Eu4 O14 2.483765 1_554
Eu4 O15 2.483765 1_545
Eu4 O12 2.483765 1_555
Eu4 O13 2.483765 1_544
Eu5 O6 2.483765 1_554
Eu5 O5 2.483765 1_555
Eu5 O7 2.483765 1_554
Eu5 O4 2.483765 1_555
Eu6 O11 2.483765 1_545
Eu6 O9 2.483765 1_555
Eu6 O10 2.483765 1_545
Eu6 O8 2.483765 1_555
Eu7 O3 2.483765 1_455
Eu7 O1 2.483765 1_555
Eu7 O0 2.483765 1_555
Eu7 O2 2.483765 1_455
O0 Sb0 2.017937 1_555
O0 Pr3 2.361617 1_555
O1 Sb1 2.017937 1_555
O1 Pr2 2.361617 1_555
O2 Sb2 2.017937 1_555
O2 Pr1 2.361617 1_555
O3 Sb3 2.017937 1_555
O3 Pr0 2.361617 1_555
O4 Sb0 2.017937 1_555
O4 Pr2 2.361617 1_555
O5 Sb3 2.017937 1_555
O5 Pr1 2.361617 1_555
O6 Sb1 2.017937 1_555
O6 Pr3 2.361617 1_555
O7 Sb2 2.017937 1_555
O7 Pr0 2.361617 1_555
O8 Sb0 2.017937 1_555
O8 Pr1 2.361617 1_555
O9 Sb2 2.017937 1_555
O9 Pr3 2.361617 1_555
O10 Sb3 2.017937 1_555
O10 Pr2 2.361617 1_555
O11 Sb1 2.017937 1_555
O11 Pr0 2.361617 1_555
O12 Sb0 2.017937 1_555
O12 Pr3 2.361617 1_554
O13 Sb1 2.017937 1_555
O13 Pr2 2.361617 1_556
O14 Sb2 2.017937 1_555
O14 Pr1 2.361617 1_556
O15 Sb3 2.017937 1_555
O15 Pr0 2.361617 1_554
O16 Sb0 2.017937 1_555
O16 Pr2 2.361617 1_545
O17 Sb3 2.017937 1_555
O17 Pr1 2.361617 1_565
O18 Sb1 2.017937 1_555
O18 Pr3 2.361617 1_565
O19 Sb2 2.017937 1_555
O19 Pr0 2.361617 1_545
O20 Sb0 2.017937 1_555
O20 Pr1 2.361617 1_455
O21 Sb2 2.017937 1_555
O21 Pr3 2.361617 1_655
O22 Sb3 2.017937 1_555
O22 Pr2 2.361617 1_655
O23 Sb1 2.017937 1_555
O23 Pr0 2.361617 1_455
