# generated using pymatgen
data_Ce2MgNi2
_symmetry_space_group_name_H-M   'P 1'
_cell_length_a   7.56932200
_cell_length_b   10.42141200
_cell_length_c   10.42419023
_cell_angle_alpha   87.24409628
_cell_angle_beta   90.00000000
_cell_angle_gamma   90.00000000
_symmetry_Int_Tables_number   1
_chemical_formula_structural   Ce2MgNi2
_chemical_formula_sum   'Ce16 Mg8 Ni16'
_cell_volume   821.34060708
_cell_formula_units_Z   8
loop_
 _symmetry_equiv_pos_site_id
 _symmetry_equiv_pos_as_xyz
  1  'x, y, z'
loop_
 _atom_site_type_symbol
 _atom_site_label
 _atom_site_symmetry_multiplicity
 _atom_site_fract_x
 _atom_site_fract_y
 _atom_site_fract_z
 _atom_site_occupancy
  Ce  Ce0  1  0.66589000  0.16815900  0.67225500  1
  Ce  Ce1  1  0.16589000  0.83184100  0.82774500  1
  Ce  Ce2  1  0.33411000  0.83184100  0.32774500  1
  Ce  Ce3  1  0.83411000  0.16815900  0.17225500  1
  Ce  Ce4  1  0.67097800  0.41590600  0.41789900  1
  Ce  Ce5  1  0.17097800  0.58409400  0.08210100  1
  Ce  Ce6  1  0.32902200  0.58409400  0.58210100  1
  Ce  Ce7  1  0.82902200  0.41590600  0.91789900  1
  Ce  Ce8  1  0.16864900  0.08496100  0.58686000  1
  Ce  Ce9  1  0.66864900  0.91503900  0.91314000  1
  Ce  Ce10  1  0.83135100  0.91503900  0.41314000  1
  Ce  Ce11  1  0.33135100  0.08496100  0.08686000  1
  Ce  Ce12  1  0.33274000  0.33276400  0.83655100  1
  Ce  Ce13  1  0.83274000  0.66723600  0.66344900  1
  Ce  Ce14  1  0.66726000  0.66723600  0.16344900  1
  Ce  Ce15  1  0.16726000  0.33276400  0.33655100  1
  Mg  Mg0  1  0.50061700  0.12294100  0.37943400  1
  Mg  Mg1  1  0.00061700  0.87705900  0.12056600  1
  Mg  Mg2  1  0.49938300  0.87705900  0.62056600  1
  Mg  Mg3  1  0.99938300  0.12294100  0.87943400  1
  Mg  Mg4  1  0.50049300  0.37411400  0.12876100  1
  Mg  Mg5  1  0.00049300  0.62588600  0.37123900  1
  Mg  Mg6  1  0.49950700  0.62588600  0.87123900  1
  Mg  Mg7  1  0.99950700  0.37411400  0.62876100  1
  Ni  Ni0  1  0.87246000  0.18857200  0.44972300  1
  Ni  Ni1  1  0.37246000  0.81142800  0.05027700  1
  Ni  Ni2  1  0.12754000  0.81142800  0.55027700  1
  Ni  Ni3  1  0.62754000  0.18857200  0.94972300  1
  Ni  Ni4  1  0.62590400  0.68703700  0.43867100  1
  Ni  Ni5  1  0.12590400  0.31296300  0.06132900  1
  Ni  Ni6  1  0.37409600  0.31296300  0.56132900  1
  Ni  Ni7  1  0.87409600  0.68703700  0.93867100  1
  Ni  Ni8  1  0.63040800  0.94239500  0.18479700  1
  Ni  Ni9  1  0.13040800  0.05760500  0.31520300  1
  Ni  Ni10  1  0.36959200  0.05760500  0.81520300  1
  Ni  Ni11  1  0.86959200  0.94239500  0.68479700  1
  Ni  Ni12  1  0.87027600  0.44338000  0.18946700  1
  Ni  Ni13  1  0.37027600  0.55662000  0.31053300  1
  Ni  Ni14  1  0.12972400  0.55662000  0.81053300  1
  Ni  Ni15  1  0.62972400  0.44338000  0.68946700  1
loop_
_geom_bond_atom_site_label_1
_geom_bond_atom_site_label_2
_geom_bond_distance
_geom_bond_site_symmetry_2
Ce0 Ni0 2.797090 1_555
Ce0 Ni11 2.810782 1_545
Ce0 Ni6 2.885275 1_555
Ce0 Ni15 2.895365 1_555
Ce0 Ni10 2.900482 1_555
Ce0 Ni3 2.924816 1_555
Ce0 Mg7 3.331018 1_555
Ce1 Ni1 2.797090 1_556
Ce1 Ni10 2.810782 1_565
Ce1 Ni7 2.885275 1_455
Ce1 Ni14 2.895365 1_555
Ce1 Ni11 2.900482 1_455
Ce1 Ni2 2.924816 1_555
Ce1 Mg6 3.331018 1_555
Ce2 Ni2 2.797090 1_555
Ce2 Ni9 2.810782 1_565
Ce2 Ni4 2.885275 1_555
Ce2 Ni13 2.895365 1_555
Ce2 Ni8 2.900482 1_555
Ce2 Ni1 2.924816 1_555
Ce2 Mg5 3.331018 1_555
Ce3 Ni3 2.797090 1_554
Ce3 Ni8 2.810782 1_545
Ce3 Ni5 2.885275 1_655
Ce3 Ni12 2.895365 1_555
Ce3 Ni9 2.900482 1_655
Ce3 Ni0 2.924816 1_555
Ce3 Mg4 3.331018 1_555
Ce4 Ni12 2.821762 1_555
Ce4 Ni0 2.823682 1_555
Ce4 Ni4 2.864604 1_555
Ce4 Ni15 2.875985 1_555
Ce4 Ni6 2.877849 1_555
Ce4 Ni13 2.902742 1_555
Ce4 Mg4 3.326495 1_555
Ce4 Mg7 3.333618 1_555
Ce4 Mg5 3.338247 1_655
Ce5 Ni13 2.821762 1_555
Ce5 Ni1 2.823682 1_555
Ce5 Ni5 2.864604 1_555
Ce5 Ni14 2.875985 1_554
Ce5 Ni7 2.877849 1_454
Ce5 Ni12 2.902742 1_455
Ce5 Mg5 3.326495 1_555
Ce5 Mg6 3.333618 1_554
Ce5 Mg4 3.338247 1_555
Ce6 Ni14 2.821762 1_555
Ce6 Ni2 2.823682 1_555
Ce6 Ni6 2.864604 1_555
Ce6 Ni13 2.875985 1_555
Ce6 Ni4 2.877849 1_555
Ce6 Ni15 2.902742 1_555
Ce6 Mg6 3.326495 1_555
Ce6 Mg5 3.333618 1_555
Ce6 Mg7 3.338247 1_455
Ce7 Ni15 2.821762 1_555
Ce7 Ni3 2.823682 1_555
Ce7 Ni7 2.864604 1_555
Ce7 Ni12 2.875985 1_556
Ce7 Ni5 2.877849 1_656
Ce7 Ni14 2.902742 1_655
Ce7 Mg7 3.326495 1_555
Ce7 Mg4 3.333618 1_556
Ce7 Mg6 3.338247 1_555
Ce8 Ni10 2.827588 1_555
Ce8 Ni6 2.841514 1_555
Ce8 Ni0 2.843836 1_455
Ce8 Ni11 2.868445 1_445
Ce8 Ni9 2.874336 1_555
Ce8 Ni2 2.910792 1_545
Ce8 Mg7 3.322193 1_455
Ce9 Ni11 2.827588 1_555
Ce9 Ni7 2.841514 1_555
Ce9 Ni1 2.843836 1_556
Ce9 Ni10 2.868445 1_565
Ce9 Ni8 2.874336 1_556
Ce9 Ni3 2.910792 1_565
Ce9 Mg6 3.322193 1_555
Ce10 Ni8 2.827588 1_555
Ce10 Ni4 2.841514 1_555
Ce10 Ni2 2.843836 1_655
Ce10 Ni9 2.868445 1_665
Ce10 Ni11 2.874336 1_555
Ce10 Ni0 2.910792 1_565
Ce10 Mg5 3.322193 1_655
Ce11 Ni9 2.827588 1_555
Ce11 Ni5 2.841514 1_555
Ce11 Ni3 2.843836 1_554
Ce11 Ni8 2.868445 1_545
Ce11 Ni10 2.874336 1_554
Ce11 Ni1 2.910792 1_545
Ce11 Mg4 3.322193 1_555
Ce12 Ni14 2.795808 1_555
Ce12 Ni5 2.817351 1_556
Ce12 Ni10 2.900261 1_555
Ce12 Ni6 2.903183 1_555
Ce12 Ni3 2.908376 1_555
Ce12 Ni15 2.926275 1_555
Ce12 Mg7 3.339149 1_455
Ce12 Mg6 3.340939 1_555
Ce12 Mg4 3.347042 1_556
Ce13 Ni15 2.795808 1_555
Ce13 Ni4 2.817351 1_555
Ce13 Ni11 2.900261 1_555
Ce13 Ni7 2.903183 1_555
Ce13 Ni2 2.908376 1_655
Ce13 Ni14 2.926275 1_655
Ce13 Mg6 3.339149 1_555
Ce13 Mg7 3.340939 1_555
Ce13 Mg5 3.347042 1_655
Ce14 Ni12 2.795808 1_555
Ce14 Ni7 2.817351 1_554
Ce14 Ni8 2.900261 1_555
Ce14 Ni4 2.903183 1_555
Ce14 Ni1 2.908376 1_555
Ce14 Ni13 2.926275 1_555
Ce14 Mg5 3.339149 1_655
Ce14 Mg4 3.340939 1_555
Ce14 Mg6 3.347042 1_554
Ce15 Ni13 2.795808 1_555
Ce15 Ni6 2.817351 1_555
Ce15 Ni9 2.900261 1_555
Ce15 Ni5 2.903183 1_555
Ce15 Ni0 2.908376 1_455
Ce15 Ni12 2.926275 1_455
Ce15 Mg4 3.339149 1_555
Ce15 Mg5 3.340939 1_555
Ce15 Mg7 3.347042 1_455
Mg0 Ni6 2.965641 1_555
Mg0 Ni9 2.967871 1_555
Mg0 Ni0 2.995802 1_555
Mg0 Ni8 2.998174 1_545
Mg1 Ni7 2.965641 1_454
Mg1 Ni8 2.967871 1_455
Mg1 Ni1 2.995802 1_555
Mg1 Ni9 2.998174 1_565
Mg2 Ni4 2.965641 1_555
Mg2 Ni11 2.967871 1_555
Mg2 Ni2 2.995802 1_555
Mg2 Ni10 2.998174 1_565
Mg3 Ni5 2.965641 1_656
Mg3 Ni10 2.967871 1_655
Mg3 Ni3 2.995802 1_555
Mg3 Ni11 2.998174 1_545
Mg4 Ni3 2.914418 1_554
Mg4 Ni13 2.919919 1_555
Mg4 Ni12 2.966459 1_555
Mg4 Ni5 2.997117 1_555
Mg5 Ni2 2.914418 1_555
Mg5 Ni12 2.919919 1_455
Mg5 Ni13 2.966459 1_555
Mg5 Ni4 2.997117 1_455
Mg6 Ni1 2.914418 1_556
Mg6 Ni15 2.919919 1_555
Mg6 Ni14 2.966459 1_555
Mg6 Ni7 2.997117 1_555
Mg7 Ni0 2.914418 1_555
Mg7 Ni14 2.919919 1_655
Mg7 Ni15 2.966459 1_555
Mg7 Ni6 2.997117 1_655
Ni0 Ni9 2.797401 1_655
Ni1 Ni8 2.797401 1_555
Ni10 Ni3 2.797401 1_555
Ni11 Ni2 2.797401 1_655
Ni12 Ni5 2.747718 1_655
Ni13 Ni4 2.747718 1_555
Ni14 Ni7 2.747718 1_455
Ni15 Ni6 2.747718 1_555
