# generated using pymatgen
data_CaZrNbFeO7
_symmetry_space_group_name_H-M   'P 1'
_cell_length_a   7.38783900
_cell_length_b   7.41397494
_cell_length_c   11.59668426
_cell_angle_alpha   81.32952060
_cell_angle_beta   81.02552128
_cell_angle_gamma   61.08102357
_symmetry_Int_Tables_number   1
_chemical_formula_structural   CaZrNbFeO7
_chemical_formula_sum   'Ca4 Zr4 Nb4 Fe4 O28'
_cell_volume   547.08885652
_cell_formula_units_Z   4
loop_
 _symmetry_equiv_pos_site_id
 _symmetry_equiv_pos_as_xyz
  1  'x, y, z'
loop_
 _atom_site_type_symbol
 _atom_site_label
 _atom_site_symmetry_multiplicity
 _atom_site_fract_x
 _atom_site_fract_y
 _atom_site_fract_z
 _atom_site_occupancy
  Ca  Ca0  1  0.25251500  0.50270800  0.99795500  1
  Ca  Ca1  1  0.49773200  0.74658900  0.49734900  1
  Ca  Ca2  1  0.74748500  0.49729200  0.00204500  1
  Ca  Ca3  1  0.50226800  0.25341100  0.50265100  1
  Zr  Zr0  1  0.98981000  0.23612200  0.52872500  1
  Zr  Zr1  1  0.76292500  0.00892200  0.97332500  1
  Zr  Zr2  1  0.01019000  0.76387800  0.47127500  1
  Zr  Zr3  1  0.23707500  0.99107800  0.02667500  1
  Nb  Nb0  1  0.11182400  0.38507700  0.75458800  1
  Nb  Nb1  1  0.61970100  0.89169200  0.74377900  1
  Nb  Nb2  1  0.88817600  0.61492300  0.24541200  1
  Nb  Nb3  1  0.38029900  0.10830800  0.25622100  1
  Fe  Fe0  1  0.86425600  0.13401700  0.25110700  1
  Fe  Fe1  1  0.13574400  0.86598300  0.74889300  1
  Fe  Fe2  1  0.43023700  0.53262800  0.24635600  1
  Fe  Fe3  1  0.56976300  0.46737200  0.75364400  1
  O  O0  1  0.52850900  0.89120200  0.91470700  1
  O  O1  1  0.10803100  0.47654900  0.58526700  1
  O  O2  1  0.47149100  0.10879800  0.08529300  1
  O  O3  1  0.89196900  0.52345100  0.41473300  1
  O  O4  1  0.24930000  0.54963800  0.78114000  1
  O  O5  1  0.44154900  0.76897300  0.71446700  1
  O  O6  1  0.75070000  0.45036200  0.21886000  1
  O  O7  1  0.55845100  0.23102700  0.28553300  1
  O  O8  1  0.06120600  0.16589100  0.70759100  1
  O  O9  1  0.83977500  0.93170500  0.79279300  1
  O  O10  1  0.93879400  0.83410900  0.29240900  1
  O  O11  1  0.16022500  0.06829500  0.20720700  1
  O  O12  1  0.33188800  0.60554500  0.40108100  1
  O  O13  1  0.39110600  0.67205500  0.09495900  1
  O  O14  1  0.66811200  0.39445500  0.59891900  1
  O  O15  1  0.60889400  0.32794500  0.90504100  1
  O  O16  1  0.88135100  0.12219600  0.07846600  1
  O  O17  1  0.87598300  0.11863900  0.42348800  1
  O  O18  1  0.11864900  0.87780400  0.92153400  1
  O  O19  1  0.12401700  0.88136100  0.57651200  1
  O  O20  1  0.12481400  0.28940100  0.92925000  1
  O  O21  1  0.71554800  0.87210200  0.56984200  1
  O  O22  1  0.87518600  0.71059900  0.07075000  1
  O  O23  1  0.28445200  0.12789800  0.43015800  1
  O  O24  1  0.18774500  0.44058600  0.21426200  1
  O  O25  1  0.57602400  0.82979200  0.28972100  1
  O  O26  1  0.81225500  0.55941400  0.78573800  1
  O  O27  1  0.42397600  0.17020800  0.71027900  1
loop_
_geom_bond_atom_site_label_1
_geom_bond_atom_site_label_2
_geom_bond_distance
_geom_bond_site_symmetry_2
Ca0 O13 2.432826 1_556
Ca0 O15 2.451195 1_555
Ca0 O20 2.466428 1_555
Ca0 O4 2.488048 1_555
Ca0 O24 2.494738 1_556
Ca0 O22 2.522277 1_456
Ca0 O18 2.523413 1_555
Ca0 O2 2.687373 1_556
Ca1 O12 2.420504 1_555
Ca1 O25 2.444446 1_555
Ca1 O14 2.478874 1_555
Ca1 O21 2.503660 1_555
Ca1 O5 2.504535 1_555
Ca1 O19 2.506331 1_555
Ca1 O23 2.548079 1_565
Ca1 O3 2.661762 1_555
Ca2 O15 2.432826 1_554
Ca2 O13 2.451195 1_555
Ca2 O22 2.466428 1_555
Ca2 O6 2.488048 1_555
Ca2 O26 2.494738 1_554
Ca2 O20 2.522277 1_654
Ca2 O16 2.523413 1_555
Ca2 O0 2.687373 1_554
Ca3 O14 2.420504 1_555
Ca3 O27 2.444446 1_555
Ca3 O12 2.478874 1_555
Ca3 O23 2.503660 1_555
Ca3 O7 2.504535 1_555
Ca3 O17 2.506331 1_555
Ca3 O21 2.548079 1_545
Ca3 O1 2.661762 1_555
Nb0 O26 1.955501 1_455
Nb0 O1 1.978276 1_555
Nb0 O8 1.998995 1_555
Nb0 O4 2.006029 1_555
Nb0 O20 2.043683 1_555
Nb0 O27 2.108098 1_555
Nb1 O27 1.884494 1_565
Nb1 O9 1.964734 1_555
Nb1 O0 1.991624 1_555
Nb1 O5 2.016579 1_555
Nb1 O21 2.033325 1_555
Nb1 O26 2.189631 1_555
Nb2 O24 1.955501 1_655
Nb2 O3 1.978276 1_555
Nb2 O10 1.998995 1_555
Nb2 O6 2.006029 1_555
Nb2 O22 2.043683 1_555
Nb2 O25 2.108098 1_555
Nb3 O25 1.884494 1_545
Nb3 O11 1.964734 1_555
Nb3 O2 1.991624 1_555
Nb3 O7 2.016579 1_555
Nb3 O23 2.033325 1_555
Nb3 O24 2.189631 1_555
Fe0 O11 1.993681 1_655
Fe0 O17 1.998114 1_555
Fe0 O16 1.998799 1_555
Fe0 O7 2.003617 1_555
Fe0 O10 2.013365 1_545
Fe0 O6 2.067585 1_555
Fe1 O9 1.993681 1_455
Fe1 O19 1.998114 1_555
Fe1 O18 1.998799 1_555
Fe1 O5 2.003617 1_555
Fe1 O8 2.013365 1_565
Fe1 O4 2.067585 1_555
Fe2 O12 1.882952 1_555
Fe2 O13 1.885938 1_555
Fe2 O7 1.970564 1_555
Fe2 O6 2.122598 1_555
Fe2 O24 2.297949 1_555
Fe3 O14 1.882952 1_555
Fe3 O15 1.885938 1_555
Fe3 O5 1.970564 1_555
Fe3 O4 2.122598 1_555
Fe3 O26 2.297949 1_555
O0 Zr3 2.178475 1_556
O0 Zr1 2.496208 1_565
O1 Zr2 2.183529 1_555
O1 Zr0 2.531187 1_455
O2 Zr1 2.178475 1_554
O2 Zr3 2.496208 1_545
O3 Zr0 2.183529 1_555
O3 Zr2 2.531187 1_655
O8 Zr0 2.145214 1_455
O9 Zr1 2.170092 1_565
O10 Zr2 2.145214 1_655
O11 Zr3 2.170092 1_545
O12 Zr2 2.162261 1_555
O13 Zr3 2.151661 1_555
O14 Zr0 2.162261 1_555
O15 Zr1 2.151661 1_555
O16 Zr1 2.075954 1_554
O16 Zr3 2.329177 1_645
O17 Zr0 2.074681 1_555
O17 Zr2 2.327635 1_645
O18 Zr3 2.075954 1_556
O18 Zr1 2.329177 1_465
O19 Zr2 2.074681 1_555
O19 Zr0 2.327635 1_465
O20 Zr3 2.149658 1_546
O21 Zr2 2.121258 1_655
O22 Zr1 2.149658 1_564
O23 Zr0 2.121258 1_455
