# generated using pymatgen
data_La4Cu4Se3SO4
_symmetry_space_group_name_H-M   'P 1'
_cell_length_a   5.74364400
_cell_length_b   5.74364400
_cell_length_c   8.75318600
_cell_angle_alpha   90.00000000
_cell_angle_beta   90.00000000
_cell_angle_gamma   90.00000000
_symmetry_Int_Tables_number   1
_chemical_formula_structural   La4Cu4Se3SO4
_chemical_formula_sum   'La4 Cu4 Se3 S1 O4'
_cell_volume   288.76276037
_cell_formula_units_Z   1
loop_
 _symmetry_equiv_pos_site_id
 _symmetry_equiv_pos_as_xyz
  1  'x, y, z'
loop_
 _atom_site_type_symbol
 _atom_site_label
 _atom_site_symmetry_multiplicity
 _atom_site_fract_x
 _atom_site_fract_y
 _atom_site_fract_z
 _atom_site_occupancy
  La  La0  1  0.00000000  0.50000000  0.85713000  1
  La  La1  1  0.50000000  0.00000000  0.85713000  1
  La  La2  1  0.50000000  0.50000000  0.14138200  1
  La  La3  1  0.00000000  0.00000000  0.14163900  1
  Cu  Cu0  1  0.75222900  0.75222900  0.50156100  1
  Cu  Cu1  1  0.24777100  0.24777100  0.50156100  1
  Cu  Cu2  1  0.75222900  0.24777100  0.50156100  1
  Cu  Cu3  1  0.24777100  0.75222900  0.50156100  1
  Se  Se0  1  0.00000000  0.50000000  0.32915900  1
  Se  Se1  1  0.50000000  0.00000000  0.32915900  1
  Se  Se2  1  0.50000000  0.50000000  0.66965200  1
  S  S0  1  0.00000000  0.00000000  0.65415600  1
  O  O0  1  0.75037300  0.75037300  0.99858700  1
  O  O1  1  0.24962700  0.24962700  0.99858700  1
  O  O2  1  0.75037300  0.24962700  0.99858700  1
  O  O3  1  0.24962700  0.75037300  0.99858700  1
loop_
_geom_bond_atom_site_label_1
_geom_bond_atom_site_label_2
_geom_bond_distance
_geom_bond_site_symmetry_2
La0 O3 2.378409 1_555
La0 O0 2.378409 1_455
La0 O1 2.378409 1_555
La0 O2 2.378409 1_455
La0 Se2 3.307619 1_455
La0 Se2 3.307619 1_555
La0 S0 3.376968 1_565
La0 S0 3.376968 1_555
La1 O2 2.378409 1_555
La1 O1 2.378409 1_555
La1 O0 2.378409 1_545
La1 O3 2.378409 1_545
La1 Se2 3.307619 1_555
La1 Se2 3.307619 1_545
La1 S0 3.376968 1_555
La1 S0 3.376968 1_655
La2 O0 2.387106 1_554
La2 O2 2.387106 1_554
La2 O3 2.387106 1_554
La2 O1 2.387106 1_554
La2 Se1 3.308918 1_555
La2 Se0 3.308918 1_555
La2 Se0 3.308918 1_655
La2 Se1 3.308918 1_565
La3 O1 2.383126 1_554
La3 O2 2.383126 1_454
La3 O3 2.383126 1_544
La3 O0 2.383126 1_444
La3 Se0 3.307801 1_545
La3 Se1 3.307801 1_455
La3 Se0 3.307801 1_555
La3 Se1 3.307801 1_555
Cu0 S0 2.415481 1_665
Cu0 Se2 2.522372 1_555
Cu0 Se0 2.530077 1_655
Cu0 Se1 2.530077 1_565
Cu1 S0 2.415481 1_555
Cu1 Se2 2.522372 1_555
Cu1 Se0 2.530077 1_555
Cu1 Se1 2.530077 1_555
Cu2 S0 2.415481 1_655
Cu2 Se2 2.522372 1_555
Cu2 Se1 2.530077 1_555
Cu2 Se0 2.530077 1_655
Cu3 S0 2.415481 1_565
Cu3 Se2 2.522372 1_555
Cu3 Se0 2.530077 1_555
Cu3 Se1 2.530077 1_565
