# generated using pymatgen
data_KSm2N7
_symmetry_space_group_name_H-M   'P 1'
_cell_length_a   6.46077300
_cell_length_b   12.32851800
_cell_length_c   15.00443100
_cell_angle_alpha   90.00000000
_cell_angle_beta   90.00000000
_cell_angle_gamma   90.00000000
_symmetry_Int_Tables_number   1
_chemical_formula_structural   KSm2N7
_chemical_formula_sum   'K4 Sm8 N28'
_cell_volume   1195.12928030
_cell_formula_units_Z   4
loop_
 _symmetry_equiv_pos_site_id
 _symmetry_equiv_pos_as_xyz
  1  'x, y, z'
loop_
 _atom_site_type_symbol
 _atom_site_label
 _atom_site_symmetry_multiplicity
 _atom_site_fract_x
 _atom_site_fract_y
 _atom_site_fract_z
 _atom_site_occupancy
  K  K0  1  0.67103900  0.81280000  0.50000000  1
  K  K1  1  0.32896100  0.18720000  0.50000000  1
  K  K2  1  0.17103900  0.68720000  0.00000000  1
  K  K3  1  0.82896100  0.31280000  0.00000000  1
  Sm  Sm0  1  0.61994100  0.33252400  0.72878300  1
  Sm  Sm1  1  0.38005900  0.66747600  0.72878300  1
  Sm  Sm2  1  0.11994100  0.16747600  0.77121700  1
  Sm  Sm3  1  0.88005900  0.83252400  0.77121700  1
  Sm  Sm4  1  0.38005900  0.66747600  0.27121700  1
  Sm  Sm5  1  0.61994100  0.33252400  0.27121700  1
  Sm  Sm6  1  0.88005900  0.83252400  0.22878300  1
  Sm  Sm7  1  0.11994100  0.16747600  0.22878300  1
  N  N0  1  0.50000000  0.50000000  0.75414400  1
  N  N1  1  0.00000000  0.00000000  0.74585600  1
  N  N2  1  0.50000000  0.50000000  0.24585600  1
  N  N3  1  0.00000000  0.00000000  0.25414400  1
  N  N4  1  0.84277900  0.21213000  0.61602300  1
  N  N5  1  0.15722100  0.78787000  0.61602300  1
  N  N6  1  0.34277900  0.28787000  0.88397700  1
  N  N7  1  0.65722100  0.71213000  0.88397700  1
  N  N8  1  0.15722100  0.78787000  0.38397700  1
  N  N9  1  0.84277900  0.21213000  0.38397700  1
  N  N10  1  0.65722100  0.71213000  0.11602300  1
  N  N11  1  0.34277900  0.28787000  0.11602300  1
  N  N12  1  0.36415300  0.23325500  0.67839900  1
  N  N13  1  0.63584700  0.76674500  0.67839900  1
  N  N14  1  0.86415300  0.26674500  0.82160100  1
  N  N15  1  0.13584700  0.73325500  0.82160100  1
  N  N16  1  0.63584700  0.76674500  0.32160100  1
  N  N17  1  0.36415300  0.23325500  0.32160100  1
  N  N18  1  0.13584700  0.73325500  0.17839900  1
  N  N19  1  0.86415300  0.26674500  0.17839900  1
  N  N20  1  0.40040900  0.37193700  0.90158600  1
  N  N21  1  0.59959100  0.62806300  0.90158600  1
  N  N22  1  0.90040900  0.12806300  0.59841400  1
  N  N23  1  0.09959100  0.87193700  0.59841400  1
  N  N24  1  0.59959100  0.62806300  0.09841400  1
  N  N25  1  0.40040900  0.37193700  0.09841400  1
  N  N26  1  0.09959100  0.87193700  0.40158600  1
  N  N27  1  0.90040900  0.12806300  0.40158600  1
loop_
_geom_bond_atom_site_label_1
_geom_bond_atom_site_label_2
_geom_bond_distance
_geom_bond_site_symmetry_2
K0 N13 2.745762 1_555
K0 N16 2.745762 1_555
K0 N26 3.221515 1_655
K0 N23 3.221515 1_655
K1 N12 2.745762 1_555
K1 N17 2.745762 1_555
K1 N22 3.221515 1_455
K1 N27 3.221515 1_455
K2 N15 2.745762 1_554
K2 N18 2.745762 1_555
K2 N21 3.221515 1_554
K2 N24 3.221515 1_555
K3 N14 2.745762 1_554
K3 N19 2.745762 1_555
K3 N20 3.221515 1_554
K3 N25 3.221515 1_555
N0 Sm1 2.237946 1_555
N0 Sm0 2.237946 1_555
N1 Sm3 2.237946 1_445
N1 Sm2 2.237946 1_555
N2 Sm4 2.237946 1_555
N2 Sm5 2.237946 1_555
N3 Sm6 2.237946 1_445
N3 Sm7 2.237946 1_555
N4 Sm0 2.671771 1_555
N4 Sm2 2.988641 1_655
N5 Sm1 2.671771 1_555
N5 Sm3 2.988641 1_455
N6 Sm2 2.671771 1_555
N6 Sm0 2.988641 1_555
N7 Sm3 2.671771 1_555
N7 Sm1 2.988641 1_555
N8 Sm4 2.671771 1_555
N8 Sm6 2.988641 1_455
N9 Sm5 2.671771 1_555
N9 Sm7 2.988641 1_655
N10 N24 1.132524 1_555
N10 Sm6 2.671771 1_555
N10 Sm4 2.988641 1_555
N11 N25 1.132524 1_555
N11 Sm7 2.671771 1_555
N11 Sm5 2.988641 1_555
N12 Sm0 2.190968 1_555
N12 Sm2 2.255363 1_555
N13 Sm1 2.190968 1_555
N13 Sm3 2.255363 1_555
N14 Sm2 2.190968 1_655
N14 Sm0 2.255363 1_555
N15 Sm3 2.190968 1_455
N15 Sm1 2.255363 1_555
N16 Sm4 2.190968 1_555
N16 Sm6 2.255363 1_555
N17 Sm5 2.190968 1_555
N17 Sm7 2.255363 1_555
N18 Sm6 2.190968 1_455
N18 Sm4 2.255363 1_555
N19 Sm7 2.190968 1_655
N19 Sm5 2.255363 1_555
N20 N6 1.132524 1_555
N20 Sm0 2.995075 1_555
N21 N7 1.132524 1_555
N21 Sm1 2.995075 1_555
N22 N4 1.132524 1_555
N22 Sm2 2.995075 1_655
N23 N5 1.132524 1_555
N23 Sm3 2.995075 1_455
N24 Sm4 2.995075 1_555
N25 Sm5 2.995075 1_555
N26 N8 1.132524 1_555
N26 Sm6 2.995075 1_455
N27 N9 1.132524 1_555
N27 Sm7 2.995075 1_655
