# generated using pymatgen
data_Hf2CrIr
_symmetry_space_group_name_H-M   'P 1'
_cell_length_a   10.76838087
_cell_length_b   10.76838087
_cell_length_c   10.76838087
_cell_angle_alpha   124.85412707
_cell_angle_beta   119.51786225
_cell_angle_gamma   86.32000248
_symmetry_Int_Tables_number   1
_chemical_formula_structural   Hf2CrIr
_chemical_formula_sum   'Hf2 Cr1 Ir1'
_cell_volume   849.35677583
_cell_formula_units_Z   1
loop_
 _symmetry_equiv_pos_site_id
 _symmetry_equiv_pos_as_xyz
  1  'x, y, z'
loop_
 _atom_site_type_symbol
 _atom_site_label
 _atom_site_symmetry_multiplicity
 _atom_site_fract_x
 _atom_site_fract_y
 _atom_site_fract_z
 _atom_site_occupancy
  Hf  Hf0  1  0.00000000  0.26643900  0.26643900  1
  Hf  Hf1  1  0.00000000  0.73356100  0.73356100  1
  Cr  Cr0  1  0.00000000  0.00000000  0.00000000  1
  Ir  Ir0  1  0.00000000  0.50000000  0.50000000  1
loop_
_geom_bond_atom_site_label_1
_geom_bond_atom_site_label_2
_geom_bond_distance
_geom_bond_site_symmetry_2
Hf0 Ir0 2.328342 1_555
Hf1 Ir0 2.328342 1_555
Cr0 Hf0 2.656098 1_555
Cr0 Hf1 2.656098 1_544
