# generated using pymatgen
data_WO3
_symmetry_space_group_name_H-M   'P 1'
_cell_length_a   11.99931824
_cell_length_b   12.09348762
_cell_length_c   11.66963241
_cell_angle_alpha   93.60588331
_cell_angle_beta   88.52293071
_cell_angle_gamma   78.74433900
_symmetry_Int_Tables_number   1
_chemical_formula_structural   WO3
_chemical_formula_sum   'W25 O75'
_cell_volume   1656.31008367
_cell_formula_units_Z   25
loop_
 _symmetry_equiv_pos_site_id
 _symmetry_equiv_pos_as_xyz
  1  'x, y, z'
loop_
 _atom_site_type_symbol
 _atom_site_label
 _atom_site_symmetry_multiplicity
 _atom_site_fract_x
 _atom_site_fract_y
 _atom_site_fract_z
 _atom_site_occupancy
  W  W0  1  0.07330352  0.83995336  0.82261191  1
  W  W1  1  0.28893658  0.01295277  0.50454332  1
  W  W2  1  0.26690819  0.05840190  0.18446445  1
  W  W3  1  0.99843954  0.44748394  0.08359025  1
  W  W4  1  0.81891527  0.62574541  0.48503420  1
  W  W5  1  0.08395086  0.82265763  0.55584108  1
  W  W6  1  0.38482680  0.80649205  0.86657355  1
  W  W7  1  0.04512994  0.13600526  0.97430696  1
  W  W8  1  0.44427711  0.53180196  0.68182449  1
  W  W9  1  0.50088336  0.50293806  0.22916690  1
  W  W10  1  0.51223750  0.28077473  0.84530314  1
  W  W11  1  0.77909531  0.19725032  0.81380631  1
  W  W12  1  0.15346347  0.51884865  0.82383729  1
  W  W13  1  0.54465978  0.99856544  0.00924987  1
  W  W14  1  0.88801401  0.03546089  0.39630292  1
  W  W15  1  0.80218926  0.78106921  0.94500114  1
  W  W16  1  0.37764625  0.71624602  0.44193492  1
  W  W17  1  0.93387427  0.75596649  0.22867816  1
  W  W18  1  0.31390031  0.43631955  0.07984066  1
  W  W19  1  0.68713638  0.54821479  0.04966776  1
  W  W20  1  0.07007500  0.38852216  0.54615252  1
  W  W21  1  0.24361070  0.20079251  0.76817258  1
  W  W22  1  0.64140494  0.40565319  0.50062341  1
  W  W23  1  0.99266737  0.21468453  0.28291972  1
  W  W24  1  0.67935887  0.11191726  0.57542141  1
  O  O0  1  0.15639899  0.18554580  0.24842676  1
  O  O1  1  0.07642034  0.74995741  0.25264526  1
  O  O2  1  0.83807997  0.46429377  0.05060361  1
  O  O3  1  0.78673878  0.35482506  0.49465607  1
  O  O4  1  0.53862277  0.11744380  0.91785159  1
  O  O5  1  0.69399571  0.56461625  0.45964797  1
  O  O6  1  0.78157786  0.72713366  0.59809437  1
  O  O7  1  0.66482185  0.27400643  0.92187742  1
  O  O8  1  0.19124362  0.09842731  0.04201582  1
  O  O9  1  0.81748279  0.67565951  0.83582867  1
  O  O10  1  0.72742781  0.02396611  0.43302365  1
  O  O11  1  0.18350045  0.80794275  0.68829038  1
  O  O12  1  0.40868415  0.24460996  0.74771589  1
  O  O13  1  0.37794688  0.88179372  0.52920763  1
  O  O14  1  0.15073777  0.98516489  0.53143719  1
  O  O15  1  0.16680427  0.41620788  0.11990369  1
  O  O16  1  0.40765539  0.32569718  0.97969299  1
  O  O17  1  0.54881407  0.64358848  0.15448429  1
  O  O18  1  0.25160132  0.52398987  0.95393373  1
  O  O19  1  0.31102808  0.10791697  0.62626296  1
  O  O20  1  0.48938098  0.43069849  0.80921064  1
  O  O21  1  0.03351015  0.06043566  0.34225678  1
  O  O22  1  0.63014474  0.60132399  0.24316439  1
  O  O23  1  0.29203883  0.54224002  0.72679529  1
  O  O24  1  0.61571430  0.48775032  0.64631579  1
  O  O25  1  0.23447362  0.80815886  0.90173497  1
  O  O26  1  0.72678133  0.69724074  0.05414522  1
  O  O27  1  0.86594791  0.12204209  0.53018943  1
  O  O28  1  0.31772505  0.12033145  0.87146250  1
  O  O29  1  0.97047382  0.90410916  0.46669241  1
  O  O30  1  0.23808651  0.92382136  0.17988072  1
  O  O31  1  0.46293613  0.86802028  0.98619786  1
  O  O32  1  0.84129662  0.29530605  0.74735410  1
  O  O33  1  0.66894754  0.89062360  0.92122991  1
  O  O34  1  0.14037926  0.26970835  0.62456623  1
  O  O35  1  0.58222936  0.42115396  0.35072046  1
  O  O36  1  0.43721308  0.65763940  0.57936125  1
  O  O37  1  0.03500089  0.50654081  0.94728718  1
  O  O38  1  0.91520940  0.85586886  0.88692152  1
  O  O39  1  0.46166148  0.77397100  0.34749914  1
  O  O40  1  0.44491308  0.43249100  0.56046896  1
  O  O41  1  0.92944523  0.50523011  0.52291372  1
  O  O42  1  0.56479929  0.04686669  0.59756641  1
  O  O43  1  0.37440532  0.56436993  0.11978962  1
  O  O44  1  0.07653317  0.48539207  0.69090346  1
  O  O45  1  0.62790926  0.23103596  0.72230000  1
  O  O46  1  0.85524725  0.69882515  0.35418462  1
  O  O47  1  0.87424119  0.90905341  0.27112649  1
  O  O48  1  0.08648386  0.68520779  0.83599892  1
  O  O49  1  0.45414960  0.66451018  0.80677909  1
  O  O50  1  0.38897924  0.89645596  0.75795514  1
  O  O51  1  0.40923728  0.06000284  0.11466813  1
  O  O52  1  0.07051108  0.97553336  0.91281718  1
  O  O53  1  0.98463286  0.13714279  0.12527995  1
  O  O54  1  0.20739902  0.34871580  0.82918895  1
  O  O55  1  0.91204049  0.76860585  0.07215325  1
  O  O56  1  0.89092334  0.13815789  0.91452519  1
  O  O57  1  0.17774118  0.42785900  0.46700802  1
  O  O58  1  0.65207118  0.53959954  0.90736621  1
  O  O59  1  0.77336192  0.06704680  0.70933903  1
  O  O60  1  0.98792556  0.89232074  0.69312798  1
  O  O61  1  0.01455652  0.29096855  0.42673236  1
  O  O62  1  0.63297995  0.01423012  0.12172131  1
  O  O63  1  0.96862527  0.35304951  0.21100441  1
  O  O64  1  0.61725360  0.25021371  0.50953353  1
  O  O65  1  0.31315294  0.05114580  0.35364533  1
  O  O66  1  0.97049297  0.57970978  0.17581673  1
  O  O67  1  0.21819182  0.77106300  0.44970462  1
  O  O68  1  0.39617659  0.38339783  0.20725889  1
  O  O69  1  0.03757283  0.69415190  0.54291703  1
  O  O70  1  0.02756718  0.29390241  0.99567572  1
  O  O71  1  0.60886661  0.43355826  0.10153358  1
  O  O72  1  0.84709654  0.17705656  0.31015046  1
  O  O73  1  0.38464074  0.58087933  0.35811146  1
  O  O74  1  0.10795755  0.15650105  0.81812658  1
loop_
_geom_bond_atom_site_label_1
_geom_bond_atom_site_label_2
_geom_bond_distance
_geom_bond_site_symmetry_2
O0 W2 1.920527 1_555
O0 W23 1.953776 1_455
O1 W17 1.728543 1_455
O2 W19 1.896176 1_555
O2 W3 1.946124 1_555
O3 W22 1.730258 1_555
O4 W13 1.834640 1_546
O4 W10 2.167627 1_555
O5 W4 1.819080 1_555
O5 W22 2.212740 1_555
O6 W4 1.731031 1_555
O7 W11 1.897120 1_555
O7 W10 2.047554 1_555
O8 W7 1.926220 1_554
O8 W2 1.956886 1_555
O9 W15 1.724570 1_555
O10 W24 1.927207 1_555
O10 W14 1.996367 1_555
O11 W5 1.973410 1_555
O11 W0 1.993064 1_555
O12 W10 1.804049 1_555
O12 W21 2.159285 1_555
O13 W1 1.775237 1_565
O13 W16 2.189057 1_555
O14 W1 1.779140 1_565
O14 W5 2.293278 1_555
O15 W18 1.879492 1_555
O15 W3 2.042081 1_455
O16 W18 1.889236 1_556
O16 W10 1.963335 1_555
O17 O22 1.486094 1_555
O17 W9 2.127461 1_555
O17 W19 2.133513 1_555
O18 W18 1.945485 1_556
O18 W12 1.950466 1_555
O19 W1 1.827530 1_555
O19 W21 2.000172 1_555
O20 W10 1.856838 1_555
O20 W8 2.002374 1_555
O21 W14 1.926150 1_455
O21 W23 2.005614 1_455
O22 W9 2.134753 1_555
O22 W19 2.354869 1_555
O23 W8 1.865638 1_555
O23 W12 2.062579 1_555
O24 W22 1.900667 1_555
O24 W8 2.046404 1_555
O25 W6 1.835831 1_555
O25 W0 2.141709 1_555
O26 W19 1.949676 1_555
O26 W15 1.982379 1_554
O27 W14 1.808933 1_555
O27 W24 2.315316 1_555
O28 W21 1.748025 1_555
O29 W5 1.893409 1_655
O29 W14 1.941534 1_565
O30 W2 1.726590 1_565
O31 W6 1.894705 1_555
O31 W13 2.022617 1_556
O32 W11 1.730890 1_555
O33 W15 1.905432 1_555
O33 W13 1.993907 1_556
O34 W20 1.829097 1_555
O34 W21 2.217456 1_555
O35 W22 1.911217 1_555
O35 W9 1.952966 1_555
O36 W16 1.894579 1_555
O36 W8 1.984080 1_555
O37 W3 1.860597 1_456
O37 W12 2.030295 1_555
O38 W15 1.904066 1_555
O38 W0 1.991191 1_655
O39 W16 1.741366 1_555
O40 W8 1.797212 1_555
O40 W22 2.395832 1_555
O41 W4 1.853446 1_555
O41 W20 2.013733 1_655
O42 W24 1.733407 1_555
O43 W18 1.872981 1_555
O43 W9 2.064794 1_555
O44 W12 1.887595 1_555
O44 W20 2.006251 1_555
O45 W10 1.952295 1_555
O45 W11 2.112746 1_555
O45 W24 2.163769 1_555
O46 W4 1.894363 1_555
O46 W17 1.955339 1_555
O47 W17 1.879930 1_555
O47 W14 2.080449 1_565
O48 W0 1.863898 1_555
O48 W12 2.010141 1_555
O49 W6 1.840900 1_555
O49 W8 2.122447 1_555
O50 W6 1.727483 1_555
O51 W2 1.877157 1_555
O51 W13 2.004150 1_545
O52 W0 1.886068 1_555
O52 W7 1.989139 1_565
O53 W7 1.886322 1_654
O53 W23 2.024904 1_555
O54 W21 1.848346 1_555
O54 W12 2.038256 1_555
O55 W17 1.863487 1_555
O55 W15 2.003331 1_554
O56 W11 1.872261 1_555
O56 W7 1.990297 1_655
O57 W20 1.726863 1_555
O58 W19 1.725364 1_556
O59 W11 1.943062 1_555
O59 W24 1.991892 1_555
O60 W0 1.918525 1_655
O60 W5 1.990026 1_655
O61 W23 1.912885 1_455
O61 W20 1.981313 1_555
O62 W13 1.732192 1_545
O63 W23 1.894250 1_555
O63 W3 1.997176 1_555
O64 W24 1.910104 1_555
O64 W22 1.965746 1_555
O65 W1 1.878018 1_555
O65 W2 2.067041 1_555
O66 W3 1.839397 1_555
O66 W17 2.138258 1_555
O67 W16 1.896555 1_555
O67 W5 1.981324 1_555
O68 W18 1.882540 1_555
O68 W9 2.100709 1_555
O69 W5 1.749308 1_555
O70 W7 1.879679 1_555
O70 W3 2.028005 1_456
O71 W19 1.937959 1_555
O71 W9 1.979955 1_555
O72 W23 1.912867 1_555
O72 W14 2.024323 1_555
O73 W16 1.839715 1_555
O73 W9 2.073257 1_555
O74 W21 1.899212 1_555
O74 W7 2.002617 1_555
