# generated using pymatgen
data_MnAlN2
_symmetry_space_group_name_H-M   'P 1'
_cell_length_a   5.49499727
_cell_length_b   4.48955748
_cell_length_c   8.97038220
_cell_angle_alpha   90.00000912
_cell_angle_beta   144.70932872
_cell_angle_gamma   114.11144999
_symmetry_Int_Tables_number   1
_chemical_formula_structural   MnAlN2
_chemical_formula_sum   'Mn2 Al2 N4'
_cell_volume   90.40407542
_cell_formula_units_Z   2
loop_
 _symmetry_equiv_pos_site_id
 _symmetry_equiv_pos_as_xyz
  1  'x, y, z'
loop_
 _atom_site_type_symbol
 _atom_site_label
 _atom_site_symmetry_multiplicity
 _atom_site_fract_x
 _atom_site_fract_y
 _atom_site_fract_z
 _atom_site_occupancy
  Mn  Mn0  1  0.00000000  0.50000000  0.75000000  1
  Mn  Mn1  1  0.00000000  0.00000000  0.50000000  1
  Al  Al0  1  0.00000000  0.50000000  0.25000000  1
  Al  Al1  1  0.00000000  0.00000000  0.00000000  1
  N  N0  1  0.50000000  0.01451900  0.12500000  1
  N  N1  1  0.50000000  0.98548100  0.62500000  1
  N  N2  1  0.47096300  0.48548100  0.36048100  1
  N  N3  1  0.52903700  0.51451900  0.88951900  1
loop_
_geom_bond_atom_site_label_1
_geom_bond_atom_site_label_2
_geom_bond_distance
_geom_bond_site_symmetry_2
Mn0 N3 1.981761 1_555
Mn0 N2 1.981766 1_455
Mn0 N0 1.981766 1_566
Mn0 N1 1.981766 1_445
Mn1 N2 1.981764 1_445
Mn1 N1 1.981766 1_545
Mn1 N0 1.981766 1_455
Mn1 N3 1.981769 1_555
Al0 N3 1.906502 1_454
Al0 N1 1.906502 1_555
Al0 N0 1.906502 1_455
Al0 N2 1.906507 1_555
Al1 N2 1.906499 1_555
Al1 N0 1.906502 1_555
Al1 N1 1.906502 1_444
Al1 N3 1.906505 1_444
