# generated using pymatgen
data_LuNbO4
_symmetry_space_group_name_H-M   'P 1'
_cell_length_a   6.97607599
_cell_length_b   6.97607599
_cell_length_c   7.12914834
_cell_angle_alpha   73.44098669
_cell_angle_beta   73.44098669
_cell_angle_gamma   33.29881608
_symmetry_Int_Tables_number   1
_chemical_formula_structural   LuNbO4
_chemical_formula_sum   'Lu2 Nb2 O8'
_cell_volume   181.85167604
_cell_formula_units_Z   2
loop_
 _symmetry_equiv_pos_site_id
 _symmetry_equiv_pos_as_xyz
  1  'x, y, z'
loop_
 _atom_site_type_symbol
 _atom_site_label
 _atom_site_symmetry_multiplicity
 _atom_site_fract_x
 _atom_site_fract_y
 _atom_site_fract_z
 _atom_site_occupancy
  Lu  Lu0  1  0.80431500  0.80431500  0.79545800  1
  Lu  Lu1  1  0.19568500  0.19568500  0.20454200  1
  Nb  Nb0  1  0.89905400  0.89905400  0.21397800  1
  Nb  Nb1  1  0.10094600  0.10094600  0.78602200  1
  O  O0  1  0.95104400  0.95104400  0.86764200  1
  O  O1  1  0.86718800  0.86718800  0.48210600  1
  O  O2  1  0.24571800  0.24571800  0.85856600  1
  O  O3  1  0.36998200  0.36998200  0.19945800  1
  O  O4  1  0.63001800  0.63001800  0.80054200  1
  O  O5  1  0.75428200  0.75428200  0.14143400  1
  O  O6  1  0.13281200  0.13281200  0.51789400  1
  O  O7  1  0.04895600  0.04895600  0.13235800  1
loop_
_geom_bond_atom_site_label_1
_geom_bond_atom_site_label_2
_geom_bond_distance
_geom_bond_site_symmetry_2
Lu0 O1 2.140044 1_555
Lu0 O2 2.145058 1_655
Lu0 O2 2.145058 1_565
Lu0 O0 2.170773 1_555
Lu0 O4 2.319343 1_555
Lu0 O5 2.355750 1_556
Lu1 O6 2.140044 1_555
Lu1 O5 2.145058 1_545
Lu1 O5 2.145058 1_455
Lu1 O7 2.170773 1_555
Lu1 O3 2.319343 1_555
Lu1 O2 2.355750 1_554
Nb0 O1 1.830557 1_555
Nb0 O7 1.913115 1_665
Nb0 O3 2.044667 1_565
Nb0 O3 2.044667 1_655
Nb0 O5 2.146606 1_555
Nb0 O0 2.357637 1_554
Nb1 O6 1.830557 1_555
Nb1 O0 1.913115 1_445
Nb1 O4 2.044667 1_545
Nb1 O4 2.044667 1_455
Nb1 O2 2.146606 1_555
Nb1 O7 2.357637 1_556
