# generated using pymatgen
data_Ni3Te(MoO7)6
_symmetry_space_group_name_H-M   'P 1'
_cell_length_a   11.70030803
_cell_length_b   11.70030803
_cell_length_c   11.70030774
_cell_angle_alpha   98.41423743
_cell_angle_beta   98.41423743
_cell_angle_gamma   98.41423529
_symmetry_Int_Tables_number   1
_chemical_formula_structural   Ni3Te(MoO7)6
_chemical_formula_sum   'Ni6 Te2 Mo12 O84'
_cell_volume   1544.24397852
_cell_formula_units_Z   2
loop_
 _symmetry_equiv_pos_site_id
 _symmetry_equiv_pos_as_xyz
  1  'x, y, z'
loop_
 _atom_site_type_symbol
 _atom_site_label
 _atom_site_symmetry_multiplicity
 _atom_site_fract_x
 _atom_site_fract_y
 _atom_site_fract_z
 _atom_site_occupancy
  Ni  Ni0  1  0.75000000  0.91991000  0.58009000  1
  Ni  Ni1  1  0.58009000  0.75000000  0.91991000  1
  Ni  Ni2  1  0.91991000  0.58009000  0.75000000  1
  Ni  Ni3  1  0.08009000  0.41991000  0.25000000  1
  Ni  Ni4  1  0.25000000  0.08009000  0.41991000  1
  Ni  Ni5  1  0.41991000  0.25000000  0.08009000  1
  Te  Te0  1  0.00000000  0.00000000  0.00000000  1
  Te  Te1  1  0.50000000  0.50000000  0.50000000  1
  Mo  Mo0  1  0.82302400  0.19933100  0.96788700  1
  Mo  Mo1  1  0.96788700  0.82302400  0.19933100  1
  Mo  Mo2  1  0.19933100  0.96788700  0.82302400  1
  Mo  Mo3  1  0.46788700  0.69933100  0.32302400  1
  Mo  Mo4  1  0.32302400  0.46788700  0.69933100  1
  Mo  Mo5  1  0.69933100  0.32302400  0.46788700  1
  Mo  Mo6  1  0.17697600  0.80066900  0.03211300  1
  Mo  Mo7  1  0.03211300  0.17697600  0.80066900  1
  Mo  Mo8  1  0.80066900  0.03211300  0.17697600  1
  Mo  Mo9  1  0.53211300  0.30066900  0.67697600  1
  Mo  Mo10  1  0.67697600  0.53211300  0.30066900  1
  Mo  Mo11  1  0.30066900  0.67697600  0.53211300  1
  O  O0  1  0.83193900  0.00718700  0.98295100  1
  O  O1  1  0.98295100  0.83193900  0.00718700  1
  O  O2  1  0.00718700  0.98295100  0.83193900  1
  O  O3  1  0.48295100  0.50718700  0.33193900  1
  O  O4  1  0.33193900  0.48295100  0.50718700  1
  O  O5  1  0.50718700  0.33193900  0.48295100  1
  O  O6  1  0.16806100  0.99281300  0.01704900  1
  O  O7  1  0.01704900  0.16806100  0.99281300  1
  O  O8  1  0.99281300  0.01704900  0.16806100  1
  O  O9  1  0.51704900  0.49281300  0.66806100  1
  O  O10  1  0.66806100  0.51704900  0.49281300  1
  O  O11  1  0.49281300  0.66806100  0.51704900  1
  O  O12  1  0.86291200  0.15876800  0.81265800  1
  O  O13  1  0.81265800  0.86291200  0.15876800  1
  O  O14  1  0.15876800  0.81265800  0.86291200  1
  O  O15  1  0.31265800  0.65876800  0.36291200  1
  O  O16  1  0.36291200  0.31265800  0.65876800  1
  O  O17  1  0.65876800  0.36291200  0.31265800  1
  O  O18  1  0.13708800  0.84123200  0.18734200  1
  O  O19  1  0.18734200  0.13708800  0.84123200  1
  O  O20  1  0.84123200  0.18734200  0.13708800  1
  O  O21  1  0.68734200  0.34123200  0.63708800  1
  O  O22  1  0.63708800  0.68734200  0.34123200  1
  O  O23  1  0.34123200  0.63708800  0.68734200  1
  O  O24  1  0.67218000  0.16787200  0.93196300  1
  O  O25  1  0.93196300  0.67218000  0.16787200  1
  O  O26  1  0.16787200  0.93196300  0.67218000  1
  O  O27  1  0.43196300  0.66787200  0.17218000  1
  O  O28  1  0.17218000  0.43196300  0.66787200  1
  O  O29  1  0.66787200  0.17218000  0.43196300  1
  O  O30  1  0.32782000  0.83212800  0.06803700  1
  O  O31  1  0.06803700  0.32782000  0.83212800  1
  O  O32  1  0.83212800  0.06803700  0.32782000  1
  O  O33  1  0.56803700  0.33212800  0.82782000  1
  O  O34  1  0.82782000  0.56803700  0.33212800  1
  O  O35  1  0.33212800  0.82782000  0.56803700  1
  O  O36  1  0.86192500  0.35402300  0.99081200  1
  O  O37  1  0.99081200  0.86192500  0.35402300  1
  O  O38  1  0.35402300  0.99081200  0.86192500  1
  O  O39  1  0.49081200  0.85402300  0.36192500  1
  O  O40  1  0.36192500  0.49081200  0.85402300  1
  O  O41  1  0.85402300  0.36192500  0.49081200  1
  O  O42  1  0.13807500  0.64597700  0.00918800  1
  O  O43  1  0.00918800  0.13807500  0.64597700  1
  O  O44  1  0.64597700  0.00918800  0.13807500  1
  O  O45  1  0.50918800  0.14597700  0.63807500  1
  O  O46  1  0.63807500  0.50918800  0.14597700  1
  O  O47  1  0.14597700  0.63807500  0.50918800  1
  O  O48  1  0.65111000  0.82177500  0.64818200  1
  O  O49  1  0.64818200  0.65111000  0.82177500  1
  O  O50  1  0.82177500  0.64818200  0.65111000  1
  O  O51  1  0.14818200  0.32177500  0.15111000  1
  O  O52  1  0.15111000  0.14818200  0.32177500  1
  O  O53  1  0.32177500  0.15111000  0.14818200  1
  O  O54  1  0.34889000  0.17822500  0.35181800  1
  O  O55  1  0.35181800  0.34889000  0.17822500  1
  O  O56  1  0.17822500  0.35181800  0.34889000  1
  O  O57  1  0.85181800  0.67822500  0.84889000  1
  O  O58  1  0.84889000  0.85181800  0.67822500  1
  O  O59  1  0.67822500  0.84889000  0.85181800  1
  O  O60  1  0.79774400  0.81202500  0.47715100  1
  O  O61  1  0.47715100  0.79774400  0.81202500  1
  O  O62  1  0.81202500  0.47715100  0.79774400  1
  O  O63  1  0.97715100  0.31202500  0.29774400  1
  O  O64  1  0.29774400  0.97715100  0.31202500  1
  O  O65  1  0.31202500  0.29774400  0.97715100  1
  O  O66  1  0.20225600  0.18797500  0.52284900  1
  O  O67  1  0.52284900  0.20225600  0.18797500  1
  O  O68  1  0.18797500  0.52284900  0.20225600  1
  O  O69  1  0.02284900  0.68797500  0.70225600  1
  O  O70  1  0.70225600  0.02284900  0.68797500  1
  O  O71  1  0.68797500  0.70225600  0.02284900  1
  O  O72  1  0.63858400  0.97214000  0.48281900  1
  O  O73  1  0.48281900  0.63858400  0.97214000  1
  O  O74  1  0.97214000  0.48281900  0.63858400  1
  O  O75  1  0.98281900  0.47214000  0.13858400  1
  O  O76  1  0.13858400  0.98281900  0.47214000  1
  O  O77  1  0.47214000  0.13858400  0.98281900  1
  O  O78  1  0.36141600  0.02786000  0.51718100  1
  O  O79  1  0.51718100  0.36141600  0.02786000  1
  O  O80  1  0.02786000  0.51718100  0.36141600  1
  O  O81  1  0.01718100  0.52786000  0.86141600  1
  O  O82  1  0.86141600  0.01718100  0.52786000  1
  O  O83  1  0.52786000  0.86141600  0.01718100  1
loop_
_geom_bond_atom_site_label_1
_geom_bond_atom_site_label_2
_geom_bond_distance
_geom_bond_site_symmetry_2
Ni0 O70 1.820545 1_565
Ni0 O60 1.820545 1_555
Ni0 O72 1.835917 1_555
Ni0 O82 1.835917 1_565
Ni0 O58 1.854872 1_555
Ni0 O48 1.854872 1_555
Ni1 O61 1.820545 1_555
Ni1 O71 1.820545 1_556
Ni1 O83 1.835917 1_556
Ni1 O73 1.835917 1_555
Ni1 O49 1.854872 1_555
Ni1 O59 1.854872 1_555
Ni2 O69 1.820545 1_655
Ni2 O62 1.820545 1_555
Ni2 O81 1.835917 1_655
Ni2 O74 1.835917 1_555
Ni2 O50 1.854872 1_555
Ni2 O57 1.854872 1_555
Ni3 O68 1.820545 1_555
Ni3 O63 1.820545 1_455
Ni3 O75 1.835917 1_455
Ni3 O80 1.835917 1_555
Ni3 O56 1.854872 1_555
Ni3 O51 1.854872 1_555
Ni4 O64 1.820545 1_545
Ni4 O66 1.820545 1_555
Ni4 O78 1.835917 1_555
Ni4 O76 1.835917 1_545
Ni4 O52 1.854872 1_555
Ni4 O54 1.854872 1_555
Ni5 O67 1.820545 1_555
Ni5 O65 1.820545 1_554
Ni5 O77 1.835917 1_554
Ni5 O79 1.835917 1_555
Ni5 O55 1.854872 1_555
Ni5 O53 1.854872 1_555
Mo0 O24 1.724703 1_555
Mo0 O36 1.770906 1_555
Mo0 O12 1.949964 1_555
Mo0 O20 1.987682 1_556
Mo0 O0 2.296804 1_555
Mo0 O7 2.335176 1_655
Mo1 O25 1.724703 1_555
Mo1 O37 1.770906 1_555
Mo1 O13 1.949964 1_555
Mo1 O18 1.987682 1_655
Mo1 O1 2.296804 1_555
Mo1 O8 2.335176 1_565
Mo2 O26 1.724703 1_555
Mo2 O38 1.770906 1_555
Mo2 O14 1.949964 1_555
Mo2 O19 1.987682 1_565
Mo2 O2 2.296804 1_555
Mo2 O6 2.335176 1_556
Mo3 O27 1.724703 1_555
Mo3 O39 1.770906 1_555
Mo3 O15 1.949964 1_555
Mo3 O22 1.987682 1_555
Mo3 O3 2.296804 1_555
Mo3 O11 2.335176 1_555
Mo4 O28 1.724703 1_555
Mo4 O40 1.770906 1_555
Mo4 O16 1.949964 1_555
Mo4 O23 1.987682 1_555
Mo4 O4 2.296804 1_555
Mo4 O9 2.335176 1_555
Mo5 O29 1.724703 1_555
Mo5 O41 1.770906 1_555
Mo5 O17 1.949964 1_555
Mo5 O21 1.987682 1_555
Mo5 O5 2.296804 1_555
Mo5 O10 2.335176 1_555
Mo6 O30 1.724703 1_555
Mo6 O42 1.770906 1_555
Mo6 O18 1.949964 1_555
Mo6 O14 1.987682 1_554
Mo6 O6 2.296804 1_555
Mo6 O1 2.335176 1_455
Mo7 O31 1.724703 1_555
Mo7 O43 1.770906 1_555
Mo7 O19 1.949964 1_555
Mo7 O12 1.987682 1_455
Mo7 O7 2.296804 1_555
Mo7 O2 2.335176 1_545
Mo8 O32 1.724703 1_555
Mo8 O44 1.770906 1_555
Mo8 O20 1.949964 1_555
Mo8 O13 1.987682 1_545
Mo8 O8 2.296804 1_555
Mo8 O0 2.335176 1_554
Mo9 O33 1.724703 1_555
Mo9 O45 1.770906 1_555
Mo9 O21 1.949964 1_555
Mo9 O16 1.987682 1_555
Mo9 O9 2.296804 1_555
Mo9 O5 2.335176 1_555
Mo10 O34 1.724703 1_555
Mo10 O46 1.770906 1_555
Mo10 O22 1.949964 1_555
Mo10 O17 1.987682 1_555
Mo10 O10 2.296804 1_555
Mo10 O3 2.335176 1_555
Mo11 O35 1.724703 1_555
Mo11 O47 1.770906 1_555
Mo11 O23 1.949964 1_555
Mo11 O15 1.987682 1_555
Mo11 O11 2.296804 1_555
Mo11 O4 2.335176 1_555
O0 Te0 1.962642 1_656
O1 Te0 1.962642 1_665
O2 Te0 1.962642 1_566
O3 Te1 1.962642 1_555
O4 Te1 1.962642 1_555
O5 Te1 1.962642 1_555
O6 Te0 1.962642 1_565
O7 Te0 1.962642 1_556
O8 Te0 1.962642 1_655
O9 Te1 1.962642 1_555
O10 Te1 1.962642 1_555
O11 Te1 1.962642 1_555
