# generated using pymatgen
data_LaCeSi2(BO5)2
_symmetry_space_group_name_H-M   'P 1'
_cell_length_a   6.85529035
_cell_length_b   6.85797706
_cell_length_c   11.90464296
_cell_angle_alpha   89.81637888
_cell_angle_beta   89.95278968
_cell_angle_gamma   90.08494802
_symmetry_Int_Tables_number   1
_chemical_formula_structural   LaCeSi2(BO5)2
_chemical_formula_sum   'La3 Ce3 Si6 B6 O30'
_cell_volume   559.67434504
_cell_formula_units_Z   3
loop_
 _symmetry_equiv_pos_site_id
 _symmetry_equiv_pos_as_xyz
  1  'x, y, z'
loop_
 _atom_site_type_symbol
 _atom_site_label
 _atom_site_symmetry_multiplicity
 _atom_site_fract_x
 _atom_site_fract_y
 _atom_site_fract_z
 _atom_site_occupancy
  La  La0  1  0.00002500  0.40237800  0.00005800  1
  La  La1  1  0.33351300  0.79930900  0.20106900  1
  La  La2  1  0.33307000  0.29921700  0.70063100  1
  Ce  Ce0  1  0.66682900  0.29865600  0.29894300  1
  Ce  Ce1  1  0.66653100  0.79850000  0.79834500  1
  Ce  Ce2  1  0.00007000  0.90324200  0.50009200  1
  Si  Si0  1  0.16675400  0.29097000  0.29141600  1
  Si  Si1  1  0.16643800  0.79180400  0.79072500  1
  Si  Si2  1  0.50006800  0.91810000  0.49981200  1
  Si  Si3  1  0.50028700  0.41812800  0.99969500  1
  Si  Si4  1  0.83337400  0.79087400  0.20969800  1
  Si  Si5  1  0.83298300  0.29005100  0.70890000  1
  B  B0  1  0.66668500  0.05388300  0.05406500  1
  B  B1  1  0.66695600  0.55406800  0.55393400  1
  B  B2  1  0.99961200  0.89213100  0.99996100  1
  B  B3  1  0.99962500  0.39165100  0.49993300  1
  B  B4  1  0.33336200  0.55395500  0.44601100  1
  B  B5  1  0.33360200  0.05390700  0.94590600  1
  O  O0  1  0.99536200  0.83746000  0.30496900  1
  O  O1  1  0.99627800  0.33667600  0.80351100  1
  O  O2  1  0.33056200  0.12712800  0.26673800  1
  O  O3  1  0.33007000  0.62717800  0.76675200  1
  O  O4  1  0.66299400  0.03791100  0.42921200  1
  O  O5  1  0.66205200  0.53842500  0.92890600  1
  O  O6  1  0.67122600  0.62404400  0.23377300  1
  O  O7  1  0.67081400  0.12398200  0.73354100  1
  O  O8  1  0.00304400  0.33655400  0.19695300  1
  O  O9  1  0.00387800  0.83722900  0.69558200  1
  O  O10  1  0.33708100  0.53682500  0.07023600  1
  O  O11  1  0.33628000  0.03608400  0.56974900  1
  O  O12  1  0.16677200  0.01871300  0.01891500  1
  O  O13  1  0.16667500  0.51858000  0.51900900  1
  O  O14  1  0.50002200  0.96185900  0.00021800  1
  O  O15  1  0.49989600  0.46212500  0.50020500  1
  O  O16  1  0.83327000  0.51891900  0.48085300  1
  O  O17  1  0.83313100  0.01917100  0.98111200  1
  O  O18  1  0.35956800  0.76857800  0.42380100  1
  O  O19  1  0.35985700  0.26867000  0.92387000  1
  O  O20  1  0.69267400  0.97963100  0.17264100  1
  O  O21  1  0.69282000  0.47943100  0.67236200  1
  O  O22  1  0.02606500  0.25115200  0.40401300  1
  O  O23  1  0.02543300  0.75236100  0.90346500  1
  O  O24  1  0.30742700  0.47991900  0.32795100  1
  O  O25  1  0.30733400  0.98028000  0.82776500  1
  O  O26  1  0.64087400  0.26883600  0.07593000  1
  O  O27  1  0.64125800  0.76891100  0.57584500  1
  O  O28  1  0.97354400  0.75190400  0.09681100  1
  O  O29  1  0.97315500  0.25064200  0.59612100  1
loop_
_geom_bond_atom_site_label_1
_geom_bond_atom_site_label_2
_geom_bond_distance
_geom_bond_site_symmetry_2
La0 O1 2.384381 1_454
La0 O8 2.385729 1_555
La0 O10 2.624665 1_555
La0 O5 2.638294 1_454
La0 O23 2.663494 1_554
La0 O28 2.669095 1_455
La0 O26 2.775026 1_455
La0 O19 2.785082 1_554
La0 O17 2.874313 1_454
La0 O12 2.878482 1_555
La1 O2 2.382694 1_565
La1 O10 2.384303 1_555
La1 O6 2.638715 1_555
La1 O0 2.640303 1_455
La1 O24 2.662414 1_555
La1 O18 2.665393 1_555
La1 O20 2.773614 1_555
La1 O28 2.782250 1_455
La1 O14 2.870097 1_555
La1 O12 2.874226 1_565
La2 O3 2.385404 1_555
La2 O11 2.388031 1_555
La2 O1 2.625969 1_455
La2 O7 2.639168 1_555
La2 O25 2.661405 1_545
La2 O19 2.671646 1_555
La2 O21 2.776641 1_555
La2 O29 2.784214 1_455
La2 O15 2.867702 1_555
La2 O13 2.868365 1_555
Ce0 O6 2.360315 1_555
Ce0 O4 2.363326 1_555
Ce0 O2 2.615538 1_555
Ce0 O8 2.616419 1_655
Ce0 O20 2.664714 1_545
Ce0 O26 2.669471 1_555
Ce0 O22 2.782132 1_655
Ce0 O24 2.783040 1_555
Ce0 O16 2.879811 1_555
Ce0 O15 2.885043 1_555
Ce1 O7 2.359500 1_565
Ce1 O5 2.362184 1_555
Ce1 O3 2.615003 1_555
Ce1 O9 2.628070 1_655
Ce1 O27 2.662957 1_555
Ce1 O21 2.663018 1_555
Ce1 O23 2.779292 1_655
Ce1 O25 2.784003 1_555
Ce1 O17 2.889411 1_565
Ce1 O14 2.889649 1_556
Ce2 O0 2.367928 1_455
Ce2 O9 2.369611 1_555
Ce2 O11 2.613725 1_565
Ce2 O4 2.628514 1_465
Ce2 O22 2.648342 1_565
Ce2 O29 2.652445 1_465
Ce2 O27 2.774287 1_455
Ce2 O18 2.785636 1_555
Ce2 O16 2.881341 1_455
Ce2 O13 2.884402 1_555
B0 O17 1.453749 1_554
B0 O14 1.454725 1_545
B0 O26 1.508415 1_555
B0 O20 1.509884 1_545
B1 O16 1.454453 1_555
B1 O15 1.456002 1_555
B1 O27 1.507682 1_555
B1 O21 1.509023 1_555
B2 O17 1.453971 1_565
B2 O12 1.454783 1_666
B2 O23 1.508968 1_655
B2 O28 1.509345 1_556
B3 O16 1.454655 1_555
B3 O13 1.455839 1_655
B3 O29 1.507098 1_555
B3 O22 1.507451 1_655
B4 O13 1.454637 1_555
B4 O15 1.454964 1_555
B4 O18 1.505077 1_555
B4 O24 1.506469 1_555
B5 O12 1.455282 1_556
B5 O14 1.455620 1_546
B5 O19 1.505699 1_555
B5 O25 1.506691 1_545
O0 Si4 1.620156 1_555
O1 Si5 1.620887 1_555
O2 Si0 1.617150 1_555
O3 Si1 1.618547 1_555
O4 Si2 1.618733 1_545
O5 Si3 1.616119 1_555
O6 Si4 1.618746 1_555
O7 Si5 1.616359 1_555
O8 Si0 1.619480 1_555
O9 Si1 1.619461 1_555
O10 Si3 1.620228 1_554
O11 Si2 1.616805 1_545
O18 Si2 1.674051 1_555
O19 Si3 1.672304 1_555
O20 Si4 1.673738 1_555
O21 Si5 1.673321 1_555
O22 Si0 1.672198 1_555
O23 Si1 1.674400 1_555
O24 Si0 1.672981 1_555
O25 Si1 1.672944 1_555
O26 Si3 1.673067 1_554
O27 Si2 1.673728 1_555
O28 Si4 1.673832 1_555
O29 Si5 1.673302 1_555
