# generated using pymatgen
data_Zr5Co4Ni
_symmetry_space_group_name_H-M   'P 1'
_cell_length_a   3.22084300
_cell_length_b   3.22084300
_cell_length_c   16.06086600
_cell_angle_alpha   90.00000000
_cell_angle_beta   90.00000000
_cell_angle_gamma   90.00000000
_symmetry_Int_Tables_number   1
_chemical_formula_structural   Zr5Co4Ni
_chemical_formula_sum   'Zr5 Co4 Ni1'
_cell_volume   166.61268760
_cell_formula_units_Z   1
loop_
 _symmetry_equiv_pos_site_id
 _symmetry_equiv_pos_as_xyz
  1  'x, y, z'
loop_
 _atom_site_type_symbol
 _atom_site_label
 _atom_site_symmetry_multiplicity
 _atom_site_fract_x
 _atom_site_fract_y
 _atom_site_fract_z
 _atom_site_occupancy
  Zr  Zr0  1  0.50000000  0.50000000  0.10073700  1
  Zr  Zr1  1  0.50000000  0.50000000  0.29989200  1
  Zr  Zr2  1  0.50000000  0.50000000  0.50000000  1
  Zr  Zr3  1  0.50000000  0.50000000  0.70010800  1
  Zr  Zr4  1  0.50000000  0.50000000  0.89926300  1
  Co  Co0  1  0.00000000  0.00000000  0.20099300  1
  Co  Co1  1  0.00000000  0.00000000  0.40036400  1
  Co  Co2  1  0.00000000  0.00000000  0.59963600  1
  Co  Co3  1  0.00000000  0.00000000  0.79900700  1
  Ni  Ni0  1  0.00000000  0.00000000  0.00000000  1
loop_
_geom_bond_atom_site_label_1
_geom_bond_atom_site_label_2
_geom_bond_distance
_geom_bond_site_symmetry_2
Co0 Zr1 2.776678 1_445
Co0 Zr1 2.776678 1_455
Co0 Zr1 2.776678 1_555
Co0 Zr1 2.776678 1_545
Co0 Zr0 2.789203 1_545
Co0 Zr0 2.789203 1_555
Co0 Zr0 2.789203 1_455
Co0 Zr0 2.789203 1_445
Co1 Zr2 2.783466 1_555
Co1 Zr2 2.783466 1_445
Co1 Zr2 2.783466 1_545
Co1 Zr2 2.783466 1_455
Co1 Zr1 2.791207 1_445
Co1 Zr1 2.791207 1_555
Co1 Zr1 2.791207 1_455
Co1 Zr1 2.791207 1_545
Co2 Zr2 2.783466 1_455
Co2 Zr2 2.783466 1_445
Co2 Zr2 2.783466 1_555
Co2 Zr2 2.783466 1_545
Co2 Zr3 2.791207 1_455
Co2 Zr3 2.791207 1_555
Co2 Zr3 2.791207 1_545
Co2 Zr3 2.791207 1_445
Co3 Zr3 2.776678 1_455
Co3 Zr3 2.776678 1_555
Co3 Zr3 2.776678 1_545
Co3 Zr3 2.776678 1_445
Co3 Zr4 2.789203 1_545
Co3 Zr4 2.789203 1_455
Co3 Zr4 2.789203 1_555
Co3 Zr4 2.789203 1_445
Ni0 Zr0 2.793670 1_445
Ni0 Zr0 2.793670 1_545
Ni0 Zr0 2.793670 1_455
Ni0 Zr0 2.793670 1_555
Ni0 Zr4 2.793670 1_554
Ni0 Zr4 2.793670 1_444
Ni0 Zr4 2.793670 1_454
Ni0 Zr4 2.793670 1_544
