# generated using pymatgen
data_Mg15Ti
_symmetry_space_group_name_H-M   'P 1'
_cell_length_a   6.38272475
_cell_length_b   6.38272475
_cell_length_c   10.14419400
_cell_angle_alpha   90.00000000
_cell_angle_beta   90.00000000
_cell_angle_gamma   120.00000782
_symmetry_Int_Tables_number   1
_chemical_formula_structural   Mg15Ti
_chemical_formula_sum   'Mg15 Ti1'
_cell_volume   357.89891077
_cell_formula_units_Z   1
loop_
 _symmetry_equiv_pos_site_id
 _symmetry_equiv_pos_as_xyz
  1  'x, y, z'
loop_
 _atom_site_type_symbol
 _atom_site_label
 _atom_site_symmetry_multiplicity
 _atom_site_fract_x
 _atom_site_fract_y
 _atom_site_fract_z
 _atom_site_occupancy
  Mg  Mg0  1  0.00000000  0.00000000  0.00000000  1
  Mg  Mg1  1  0.00287400  0.50143700  0.50000000  1
  Mg  Mg2  1  0.00017700  0.50008900  0.00000000  1
  Mg  Mg3  1  0.49856300  0.50143700  0.50000000  1
  Mg  Mg4  1  0.49991100  0.50008900  0.00000000  1
  Mg  Mg5  1  0.49856300  0.99712600  0.50000000  1
  Mg  Mg6  1  0.49991100  0.99982300  0.00000000  1
  Mg  Mg7  1  0.16350000  0.32700100  0.25359000  1
  Mg  Mg8  1  0.16350000  0.32700100  0.74641000  1
  Mg  Mg9  1  0.16350000  0.83650000  0.25359000  1
  Mg  Mg10  1  0.16350000  0.83650000  0.74641000  1
  Mg  Mg11  1  0.67299900  0.83650000  0.25359000  1
  Mg  Mg12  1  0.67299900  0.83650000  0.74641000  1
  Mg  Mg13  1  0.66666700  0.33333300  0.25044300  1
  Mg  Mg14  1  0.66666700  0.33333300  0.74955700  1
  Ti  Ti0  1  0.00000000  0.00000000  0.50000000  1
loop_
_geom_bond_atom_site_label_1
_geom_bond_atom_site_label_2
_geom_bond_distance
_geom_bond_site_symmetry_2
Mg0 Mg10 3.143999 1_544
Mg0 Mg9 3.143999 1_545
Mg0 Mg7 3.144002 1_555
Mg0 Mg12 3.144002 1_444
Mg0 Mg11 3.144002 1_445
Mg0 Mg8 3.144002 1_554
Mg0 Mg2 3.191359 1_545
Mg0 Mg6 3.191359 1_545
Mg0 Mg4 3.191362 1_555
Mg0 Mg4 3.191362 1_445
Mg0 Mg6 3.191366 1_445
Mg0 Mg2 3.191366 1_555
Mg1 Mg7 3.111323 1_555
Mg1 Mg8 3.111323 1_555
Mg1 Mg9 3.111326 1_555
Mg1 Mg10 3.111326 1_555
Mg1 Mg14 3.140460 1_455
Mg1 Mg13 3.140460 1_455
Mg1 Mg5 3.163846 1_555
Mg1 Mg3 3.163846 1_555
Mg1 Ti0 3.191402 1_555
Mg1 Ti0 3.191402 1_565
Mg1 Mg5 3.218878 1_445
Mg1 Mg3 3.218878 1_455
Mg2 Mg9 3.174345 1_555
Mg2 Mg8 3.174345 1_554
Mg2 Mg7 3.174345 1_555
Mg2 Mg6 3.189664 1_555
Mg2 Mg4 3.189665 1_555
Mg2 Mg6 3.193060 1_445
Mg2 Mg4 3.193060 1_455
Mg3 Mg7 3.111326 1_555
Mg3 Mg8 3.111326 1_555
Mg3 Mg5 3.163846 1_555
Mg3 Ti0 3.191402 1_555
Mg3 Ti0 3.191402 1_665
Mg3 Mg5 3.218878 1_545
Mg4 Mg8 3.174345 1_554
Mg4 Mg7 3.174345 1_555
Mg4 Mg6 3.189665 1_555
Mg4 Mg6 3.193060 1_545
Mg5 Mg9 3.111326 1_555
Mg5 Ti0 3.191402 1_665
Mg5 Ti0 3.191402 1_565
Mg6 Mg9 3.174345 1_555
Mg7 Ti0 3.084692 1_555
Mg7 Mg9 3.130733 1_545
Mg7 Mg9 3.251992 1_555
Mg8 Ti0 3.084692 1_555
Mg9 Ti0 3.084689 1_565
Mg10 Ti0 3.084689 1_565
Mg10 Mg5 3.111326 1_555
Mg10 Mg12 3.130733 1_455
Mg10 Mg8 3.130733 1_565
Mg10 Mg6 3.174345 1_556
Mg10 Mg2 3.174345 1_556
Mg10 Mg14 3.191714 1_455
Mg10 Mg14 3.191714 1_565
Mg10 Mg8 3.251992 1_555
Mg10 Mg12 3.251992 1_555
Mg11 Ti0 3.084692 1_665
Mg11 Mg5 3.111323 1_555
Mg11 Mg3 3.111326 1_555
Mg11 Mg7 3.130733 1_665
Mg11 Mg9 3.130733 1_655
Mg11 Mg4 3.174345 1_555
Mg11 Mg6 3.174345 1_555
Mg11 Mg13 3.191708 1_565
Mg11 Mg13 3.191720 1_555
Mg11 Mg7 3.251991 1_555
Mg11 Mg9 3.251992 1_555
Mg12 Ti0 3.084692 1_665
Mg12 Mg5 3.111323 1_555
Mg12 Mg3 3.111326 1_555
Mg12 Mg8 3.130733 1_665
Mg12 Mg4 3.174345 1_556
Mg12 Mg6 3.174345 1_556
Mg12 Mg14 3.191708 1_565
Mg12 Mg14 3.191720 1_555
Mg12 Mg8 3.251991 1_555
Mg13 Mg2 3.138931 1_655
Mg13 Mg6 3.138931 1_545
Mg13 Mg4 3.138937 1_555
Mg13 Mg5 3.140460 1_545
Mg13 Mg3 3.140463 1_555
Mg13 Mg7 3.191708 1_655
Mg13 Mg9 3.191714 1_545
Mg13 Mg9 3.191714 1_655
Mg13 Mg7 3.191720 1_555
Mg14 Mg2 3.138931 1_656
Mg14 Mg6 3.138931 1_546
Mg14 Mg4 3.138937 1_556
Mg14 Mg5 3.140460 1_545
Mg14 Mg3 3.140463 1_555
Mg14 Mg8 3.191708 1_655
Mg14 Mg8 3.191720 1_555
