# generated using pymatgen
data_SnPd2
_symmetry_space_group_name_H-M   'P 1'
_cell_length_a   4.36724980
_cell_length_b   5.67275184
_cell_length_c   8.16829068
_cell_angle_alpha   89.99416307
_cell_angle_beta   90.00000000
_cell_angle_gamma   90.00000000
_symmetry_Int_Tables_number   1
_chemical_formula_structural   SnPd2
_chemical_formula_sum   'Sn4 Pd8'
_cell_volume   202.36388147
_cell_formula_units_Z   4
loop_
 _symmetry_equiv_pos_site_id
 _symmetry_equiv_pos_as_xyz
  1  'x, y, z'
loop_
 _atom_site_type_symbol
 _atom_site_label
 _atom_site_symmetry_multiplicity
 _atom_site_fract_x
 _atom_site_fract_y
 _atom_site_fract_z
 _atom_site_occupancy
  Sn  Sn0  1  0.75000000  0.29659403  0.38727511  1
  Sn  Sn1  1  0.25000000  0.70340892  0.61253460  1
  Sn  Sn2  1  0.75000000  0.79658284  0.11269640  1
  Sn  Sn3  1  0.25000000  0.20341006  0.88753672  1
  Pd  Pd0  1  0.75000000  0.95057308  0.79191485  1
  Pd  Pd1  1  0.25000000  0.04939832  0.20809900  1
  Pd  Pd2  1  0.75000000  0.45060945  0.70811962  1
  Pd  Pd3  1  0.25000000  0.54939628  0.29190624  1
  Pd  Pd4  1  0.75000000  0.82681258  0.44102298  1
  Pd  Pd5  1  0.25000000  0.17318558  0.55874573  1
  Pd  Pd6  1  0.75000000  0.32681243  0.05886329  1
  Pd  Pd7  1  0.25000000  0.67321544  0.94128646  1
loop_
_geom_bond_atom_site_label_1
_geom_bond_atom_site_label_2
_geom_bond_distance
_geom_bond_site_symmetry_2
Pd0 Sn3 2.726843 1_565
Pd0 Sn3 2.726843 1_665
Pd0 Sn2 2.761931 1_556
Pd0 Pd2 2.917661 1_555
Pd0 Pd2 2.917926 1_565
Pd0 Pd4 2.950988 1_555
Pd0 Pd7 2.955000 1_555
Pd0 Pd7 2.955000 1_655
Pd0 Sn1 2.980172 1_655
Pd0 Sn1 2.980172 1_555
Pd0 Pd6 3.051372 1_566
Pd0 Pd5 3.160685 1_665
Pd0 Pd5 3.160685 1_565
Pd1 Sn2 2.726267 1_445
Pd1 Sn2 2.726267 1_545
Pd1 Sn3 2.760270 1_554
Pd1 Pd3 2.917760 1_545
Pd1 Pd3 2.917873 1_555
Pd1 Pd5 2.949079 1_555
Pd1 Pd6 2.954712 1_555
Pd1 Pd6 2.954712 1_455
Pd1 Sn0 2.979436 1_455
Pd1 Sn0 2.979436 1_555
Pd1 Pd7 3.050355 1_544
Pd1 Pd4 3.159418 1_445
Pd1 Pd4 3.159418 1_545
Pd2 Sn1 2.726562 1_555
Pd2 Sn1 2.726562 1_655
Pd2 Sn0 2.762633 1_555
Pd2 Pd6 2.949722 1_556
Pd2 Pd5 2.955340 1_655
Pd2 Pd5 2.955340 1_555
Pd2 Sn3 2.980273 1_555
Pd2 Sn3 2.980273 1_655
Pd2 Pd4 3.051783 1_555
Pd2 Pd7 3.160814 1_655
Pd2 Pd7 3.160814 1_555
Pd3 Sn0 2.726065 1_555
Pd3 Sn0 2.726065 1_455
Pd3 Sn1 2.760953 1_555
Pd3 Pd7 2.948769 1_554
Pd3 Pd4 2.954451 1_555
Pd3 Pd4 2.954451 1_455
Pd3 Sn2 2.979407 1_455
Pd3 Sn2 2.979407 1_555
Pd3 Pd5 3.050312 1_555
Pd3 Pd6 3.160154 1_455
Pd3 Pd6 3.160154 1_555
Pd4 Sn1 2.687146 1_555
Pd4 Sn1 2.687146 1_655
Pd4 Sn2 2.687361 1_555
Pd4 Sn0 2.700830 1_565
Pd4 Sn0 3.039715 1_555
Pd5 Sn0 2.686978 1_555
Pd5 Sn0 2.686978 1_455
Pd5 Sn3 2.691145 1_555
Pd5 Sn1 2.700858 1_545
Pd5 Sn1 3.039790 1_555
Pd6 Sn3 2.686430 1_654
Pd6 Sn3 2.686430 1_554
Pd6 Sn0 2.688017 1_555
Pd6 Sn2 2.700970 1_555
Pd6 Sn2 3.039789 1_545
Pd7 Sn2 2.686733 1_456
Pd7 Sn2 2.686733 1_556
Pd7 Sn1 2.690780 1_555
Pd7 Sn3 2.701055 1_555
Pd7 Sn3 3.039494 1_565
