# generated using pymatgen
data_TiCoO3
_symmetry_space_group_name_H-M   'P 1'
_cell_length_a   5.45520144
_cell_length_b   5.45449087
_cell_length_c   5.45522950
_cell_angle_alpha   55.22301684
_cell_angle_beta   55.20988828
_cell_angle_gamma   55.21195340
_symmetry_Int_Tables_number   1
_chemical_formula_structural   TiCoO3
_chemical_formula_sum   'Ti2 Co2 O6'
_cell_volume   102.01173446
_cell_formula_units_Z   2
loop_
 _symmetry_equiv_pos_site_id
 _symmetry_equiv_pos_as_xyz
  1  'x, y, z'
loop_
 _atom_site_type_symbol
 _atom_site_label
 _atom_site_symmetry_multiplicity
 _atom_site_fract_x
 _atom_site_fract_y
 _atom_site_fract_z
 _atom_site_occupancy
  Ti  Ti0  1  0.85476907  0.85474104  0.85477863  1
  Ti  Ti1  1  0.14523093  0.14525896  0.14522137  1
  Co  Co0  1  0.64431169  0.64427227  0.64427564  1
  Co  Co1  1  0.35568831  0.35572773  0.35572436  1
  O  O0  1  0.56049215  0.94947221  0.22996564  1
  O  O1  1  0.23000375  0.56052129  0.94931374  1
  O  O2  1  0.94942316  0.22999335  0.56054945  1
  O  O3  1  0.43950785  0.05052779  0.77003436  1
  O  O4  1  0.76999625  0.43947871  0.05068626  1
  O  O5  1  0.05057684  0.77000665  0.43945055  1
loop_
_geom_bond_atom_site_label_1
_geom_bond_atom_site_label_2
_geom_bond_distance
_geom_bond_site_symmetry_2
Co0 O2 2.025650 1_555
Co0 O1 2.026104 1_555
Co0 O0 2.026634 1_555
Co0 O3 2.159564 1_565
Co0 O5 2.159853 1_655
Co0 O4 2.160737 1_556
Co1 O5 2.025650 1_555
Co1 O4 2.026104 1_555
Co1 O3 2.026634 1_555
Co1 O0 2.159564 1_545
Co1 O2 2.159853 1_455
Co1 O1 2.160737 1_554
O0 Ti0 1.882465 1_554
O0 Ti1 2.087412 1_565
O1 Ti0 1.882433 1_455
O1 Ti1 2.087167 1_556
O2 Ti0 1.882766 1_545
O2 Ti1 2.087469 1_655
O3 Ti1 1.882465 1_556
O3 Ti0 2.087412 1_545
O4 Ti1 1.882433 1_655
O4 Ti0 2.087167 1_554
O5 Ti1 1.882766 1_565
O5 Ti0 2.087469 1_455
