# generated using pymatgen
data_Sm(CrB3)2
_symmetry_space_group_name_H-M   'P 1'
_cell_length_a   5.50128585
_cell_length_b   5.50128585
_cell_length_c   5.50128585
_cell_angle_alpha   147.48219885
_cell_angle_beta   107.20037178
_cell_angle_gamma   82.01356074
_symmetry_Int_Tables_number   1
_chemical_formula_structural   Sm(CrB3)2
_chemical_formula_sum   'Sm1 Cr2 B6'
_cell_volume   83.49710148
_cell_formula_units_Z   1
loop_
 _symmetry_equiv_pos_site_id
 _symmetry_equiv_pos_as_xyz
  1  'x, y, z'
loop_
 _atom_site_type_symbol
 _atom_site_label
 _atom_site_symmetry_multiplicity
 _atom_site_fract_x
 _atom_site_fract_y
 _atom_site_fract_z
 _atom_site_occupancy
  Sm  Sm0  1  0.50000000  0.00000000  0.50000000  1
  Cr  Cr0  1  0.84530035  0.84530035  0.00000000  1
  Cr  Cr1  1  0.15469965  0.15469965  -0.00000000  1
  B  B0  1  0.86092729  0.50000000  0.36092729  1
  B  B1  1  0.13907271  0.50000000  0.63907271  1
  B  B2  1  0.96126336  0.69714300  0.26412037  1
  B  B3  1  0.56697637  0.30285600  0.26412037  1
  B  B4  1  0.43302363  0.69714300  0.73587963  1
  B  B5  1  0.03873664  0.30285600  0.73587963  1
loop_
_geom_bond_atom_site_label_1
_geom_bond_atom_site_label_2
_geom_bond_distance
_geom_bond_site_symmetry_2
B0 B2 1.754652 1_555
B0 B3 1.754660 1_555
B0 B1 1.816041 1_655
B0 Cr0 2.201514 1_545
B0 Cr1 2.201514 1_655
B0 Cr0 2.201514 1_556
B0 Cr1 2.201514 1_666
B0 Sm0 2.815241 1_565
B0 Sm0 2.815241 1_554
B1 B5 1.754657 1_555
B1 B4 1.754657 1_555
B1 Cr1 2.201514 1_566
B1 Cr0 2.201514 1_456
B1 Cr1 2.201514 1_555
B1 Cr0 2.201514 1_445
B1 Sm0 2.815241 1_555
B1 Sm0 2.815241 1_566
B2 B5 1.782340 1_665
B2 B5 1.782343 1_654
B2 Cr0 2.118260 1_555
B2 Cr1 2.206441 1_666
B2 Cr1 2.206441 1_655
B2 Sm0 2.832920 1_565
B2 Sm0 2.832920 1_554
B2 Sm0 2.948731 1_665
B3 B4 1.782336 1_555
B3 B4 1.782339 1_544
B3 Cr1 2.118255 1_555
B3 Cr0 2.206442 1_545
B3 Cr0 2.206442 1_556
B3 Sm0 2.832925 1_554
B3 Sm0 2.832925 1_565
B3 Sm0 2.948724 1_555
B4 Cr0 2.118255 1_556
B4 Cr1 2.206443 1_555
B4 Cr1 2.206445 1_566
B4 Sm0 2.832919 1_555
B4 Sm0 2.832921 1_566
B4 Sm0 2.948729 1_565
B5 Cr1 2.118255 1_556
B5 Cr0 2.206443 1_445
B5 Cr0 2.206445 1_456
B5 Sm0 2.832919 1_555
B5 Sm0 2.832921 1_566
B5 Sm0 2.948729 1_455
