# generated using pymatgen
data_ZnBiWO5
_symmetry_space_group_name_H-M   'P 1'
_cell_length_a   5.47619300
_cell_length_b   10.89349200
_cell_length_c   16.42524500
_cell_angle_alpha   90.00000000
_cell_angle_beta   90.00000000
_cell_angle_gamma   90.00000000
_symmetry_Int_Tables_number   1
_chemical_formula_structural   ZnBiWO5
_chemical_formula_sum   'Zn8 Bi8 W8 O40'
_cell_volume   979.84576709
_cell_formula_units_Z   8
loop_
 _symmetry_equiv_pos_site_id
 _symmetry_equiv_pos_as_xyz
  1  'x, y, z'
loop_
 _atom_site_type_symbol
 _atom_site_label
 _atom_site_symmetry_multiplicity
 _atom_site_fract_x
 _atom_site_fract_y
 _atom_site_fract_z
 _atom_site_occupancy
  Zn  Zn0  1  0.46252100  0.37402600  0.53951100  1
  Zn  Zn1  1  0.96252100  0.12597400  0.53951100  1
  Zn  Zn2  1  0.96252100  0.62597400  0.96048900  1
  Zn  Zn3  1  0.03747900  0.37402600  0.03951100  1
  Zn  Zn4  1  0.53747900  0.12597400  0.03951100  1
  Zn  Zn5  1  0.03747900  0.87402600  0.46048900  1
  Zn  Zn6  1  0.53747900  0.62597400  0.46048900  1
  Zn  Zn7  1  0.46252100  0.87402600  0.96048900  1
  Bi  Bi0  1  0.03365900  0.85716400  0.79154600  1
  Bi  Bi1  1  0.96634100  0.14283600  0.20845400  1
  Bi  Bi2  1  0.46634100  0.35716400  0.20845400  1
  Bi  Bi3  1  0.96634100  0.64283600  0.29154600  1
  Bi  Bi4  1  0.53365900  0.14283600  0.70845400  1
  Bi  Bi5  1  0.53365900  0.64283600  0.79154600  1
  Bi  Bi6  1  0.46634100  0.85716400  0.29154600  1
  Bi  Bi7  1  0.03365900  0.35716400  0.70845400  1
  W  W0  1  0.93151300  0.35852200  0.40675600  1
  W  W1  1  0.56848700  0.85852200  0.59324400  1
  W  W2  1  0.06848700  0.64147800  0.59324400  1
  W  W3  1  0.43151300  0.14147800  0.40675600  1
  W  W4  1  0.06848700  0.14147800  0.90675600  1
  W  W5  1  0.93151300  0.85852200  0.09324400  1
  W  W6  1  0.56848700  0.35852200  0.90675600  1
  W  W7  1  0.43151300  0.64147800  0.09324400  1
  O  O0  1  0.80744000  0.31036100  0.30690900  1
  O  O1  1  0.29888400  0.04222600  0.96403400  1
  O  O2  1  0.20111600  0.54222600  0.03596600  1
  O  O3  1  0.37262700  0.79780600  0.85505400  1
  O  O4  1  0.12737300  0.29780600  0.14494600  1
  O  O5  1  0.80744000  0.81036100  0.19309100  1
  O  O6  1  0.12737300  0.79780600  0.35505400  1
  O  O7  1  0.69256000  0.81036100  0.69309100  1
  O  O8  1  0.29888400  0.54222600  0.53596600  1
  O  O9  1  0.19256000  0.68963900  0.69309100  1
  O  O10  1  0.69256000  0.31036100  0.80690900  1
  O  O11  1  0.70656400  0.21567800  0.46747200  1
  O  O12  1  0.79888400  0.95777400  0.53596600  1
  O  O13  1  0.62737300  0.70219400  0.35505400  1
  O  O14  1  0.12689700  0.99605500  0.13323200  1
  O  O15  1  0.79888400  0.45777400  0.96403400  1
  O  O16  1  0.19256000  0.18963900  0.80690900  1
  O  O17  1  0.87262700  0.20219400  0.64494600  1
  O  O18  1  0.20656400  0.78432200  0.03252800  1
  O  O19  1  0.20111600  0.04222600  0.46403400  1
  O  O20  1  0.29343600  0.78432200  0.53252800  1
  O  O21  1  0.87310300  0.00394500  0.86676800  1
  O  O22  1  0.62737300  0.20219400  0.14494600  1
  O  O23  1  0.62689700  0.00394500  0.36676800  1
  O  O24  1  0.29343600  0.28432200  0.96747200  1
  O  O25  1  0.20656400  0.28432200  0.46747200  1
  O  O26  1  0.70111600  0.45777400  0.46403400  1
  O  O27  1  0.70111600  0.95777400  0.03596600  1
  O  O28  1  0.62689700  0.50394500  0.13323200  1
  O  O29  1  0.79343600  0.71567800  0.53252800  1
  O  O30  1  0.79343600  0.21567800  0.96747200  1
  O  O31  1  0.70656400  0.71567800  0.03252800  1
  O  O32  1  0.87310300  0.50394500  0.63323200  1
  O  O33  1  0.87262700  0.70219400  0.85505400  1
  O  O34  1  0.37262700  0.29780600  0.64494600  1
  O  O35  1  0.12689700  0.49605500  0.36676800  1
  O  O36  1  0.37310300  0.49605500  0.86676800  1
  O  O37  1  0.30744000  0.18963900  0.30690900  1
  O  O38  1  0.37310300  0.99605500  0.63323200  1
  O  O39  1  0.30744000  0.68963900  0.19309100  1
loop_
_geom_bond_atom_site_label_1
_geom_bond_atom_site_label_2
_geom_bond_distance
_geom_bond_site_symmetry_2
Bi0 O33 2.171560 1_455
Bi0 O21 2.203697 1_465
Bi0 O3 2.225291 1_555
Bi0 O7 2.522747 1_455
Bi0 O9 2.588966 1_555
Bi1 O4 2.171560 1_655
Bi1 O14 2.203697 1_645
Bi1 O22 2.225291 1_555
Bi1 O37 2.522747 1_655
Bi1 O0 2.588966 1_555
Bi2 O22 2.171560 1_555
Bi2 O28 2.203697 1_555
Bi2 O4 2.225291 1_555
Bi2 O0 2.522747 1_555
Bi2 O37 2.588966 1_555
Bi3 O6 2.171560 1_655
Bi3 O35 2.203697 1_655
Bi3 O13 2.225291 1_555
Bi3 O39 2.522747 1_655
Bi3 O5 2.588966 1_555
Bi4 O34 2.171560 1_555
Bi4 O38 2.203697 1_545
Bi4 O17 2.225291 1_555
Bi4 O16 2.522747 1_555
Bi4 O10 2.588966 1_555
Bi5 O3 2.171560 1_555
Bi5 O36 2.203697 1_555
Bi5 O33 2.225291 1_555
Bi5 O9 2.522747 1_555
Bi5 O7 2.588966 1_555
Bi6 O13 2.171560 1_555
Bi6 O23 2.203697 1_565
Bi6 O6 2.225291 1_555
Bi6 O5 2.522747 1_555
Bi6 O39 2.588966 1_555
Bi7 O17 2.171560 1_455
Bi7 O32 2.203697 1_455
Bi7 O34 2.225291 1_555
Bi7 O10 2.522747 1_455
Bi7 O16 2.588966 1_555
O0 W0 1.851090 1_555
O1 W4 1.909448 1_555
O1 Zn4 2.019014 1_556
O1 Zn7 2.040507 1_545
O2 W7 1.909448 1_555
O2 Zn2 2.019014 1_454
O2 Zn3 2.040507 1_555
O3 Zn7 1.982638 1_555
O4 Zn3 1.982638 1_555
O5 W5 1.851090 1_555
O6 Zn5 1.982638 1_555
O7 W1 1.851090 1_555
O8 W2 1.909448 1_555
O8 Zn6 2.019014 1_555
O8 Zn0 2.040507 1_555
O9 W2 1.851090 1_555
O10 W6 1.851090 1_555
O11 W3 1.979050 1_555
O11 Zn1 2.078384 1_555
O11 W0 2.221126 1_555
O11 Zn0 2.482264 1_555
O12 W1 1.909448 1_555
O12 Zn5 2.019014 1_655
O12 Zn1 2.040507 1_565
O13 Zn6 1.982638 1_555
O14 W5 1.954703 1_455
O15 W6 1.909448 1_555
O15 Zn3 2.019014 1_656
O15 Zn2 2.040507 1_555
O16 W4 1.851090 1_555
O17 Zn1 1.982638 1_555
O18 W5 1.979050 1_455
O18 Zn7 2.078384 1_554
O18 W7 2.221126 1_555
O18 Zn2 2.482264 1_454
O19 W3 1.909448 1_555
O19 Zn1 2.019014 1_455
O19 Zn5 2.040507 1_545
O20 W1 1.979050 1_555
O20 Zn5 2.078384 1_555
O20 W2 2.221126 1_555
O20 Zn6 2.482264 1_555
O21 W4 1.954703 1_655
O22 Zn4 1.982638 1_555
O23 W3 1.954703 1_555
O24 W6 1.979050 1_555
O24 Zn3 2.078384 1_556
O24 W4 2.221126 1_555
O24 Zn4 2.482264 1_556
O25 W0 1.979050 1_455
O25 Zn0 2.078384 1_555
O25 W3 2.221126 1_555
O25 Zn1 2.482264 1_455
O26 W0 1.909448 1_555
O26 Zn0 2.019014 1_555
O26 Zn6 2.040507 1_555
O27 W5 1.909448 1_555
O27 Zn7 2.019014 1_554
O27 Zn4 2.040507 1_565
O28 W7 1.954703 1_555
O29 W2 1.979050 1_655
O29 Zn6 2.078384 1_555
O29 W1 2.221126 1_555
O29 Zn5 2.482264 1_655
O30 W4 1.979050 1_655
O30 Zn4 2.078384 1_556
O30 W6 2.221126 1_555
O30 Zn3 2.482264 1_656
O31 W7 1.979050 1_555
O31 Zn2 2.078384 1_554
O31 W5 2.221126 1_555
O31 Zn7 2.482264 1_554
O32 W2 1.954703 1_655
O33 Zn2 1.982638 1_555
O34 Zn0 1.982638 1_555
O35 W0 1.954703 1_455
O36 W6 1.954703 1_555
O37 W3 1.851090 1_555
O38 W1 1.954703 1_555
O39 W7 1.851090 1_555
