# generated using pymatgen
data_Sr4LiY2(RuO6)2
_symmetry_space_group_name_H-M   'P 1'
_cell_length_a   5.83190319
_cell_length_b   5.95173536
_cell_length_c   8.32937704
_cell_angle_alpha   89.22294941
_cell_angle_beta   92.50530033
_cell_angle_gamma   89.95747609
_symmetry_Int_Tables_number   1
_chemical_formula_structural   Sr4LiY2(RuO6)2
_chemical_formula_sum   'Sr4 Li1 Y2 Ru2 O12'
_cell_volume   288.80905519
_cell_formula_units_Z   1
loop_
 _symmetry_equiv_pos_site_id
 _symmetry_equiv_pos_as_xyz
  1  'x, y, z'
loop_
 _atom_site_type_symbol
 _atom_site_label
 _atom_site_symmetry_multiplicity
 _atom_site_fract_x
 _atom_site_fract_y
 _atom_site_fract_z
 _atom_site_occupancy
  Sr  Sr0  1  0.51231200  0.54670000  0.24363100  1
  Sr  Sr1  1  0.94369900  0.06937200  0.29066500  1
  Sr  Sr2  1  0.00168100  0.95356400  0.73389200  1
  Sr  Sr3  1  0.48245900  0.45712000  0.74344800  1
  Li  Li0  1  0.15121100  0.91581400  0.06016600  1
  Y  Y0  1  0.47717800  0.00023600  0.49692000  1
  Y  Y1  1  0.00898200  0.48072400  0.99486100  1
  Ru  Ru0  1  0.52932900  0.00033400  0.99231700  1
  Ru  Ru1  1  0.98632000  0.50531000  0.50075800  1
  O  O0  1  0.91895800  0.51709100  0.73259200  1
  O  O1  1  0.58159100  0.01781000  0.76338600  1
  O  O2  1  0.06233900  0.48489100  0.26965900  1
  O  O3  1  0.41701200  0.97513200  0.22370200  1
  O  O4  1  0.78004500  0.77347000  0.46217900  1
  O  O5  1  0.70096700  0.27774700  0.04526800  1
  O  O6  1  0.18424700  0.22873800  0.54095800  1
  O  O7  1  0.32561000  0.70722900  0.95879100  1
  O  O8  1  0.23175600  0.18348900  0.94902900  1
  O  O9  1  0.25244100  0.70959700  0.54119000  1
  O  O10  1  0.82582600  0.82208400  0.04032800  1
  O  O11  1  0.70937000  0.30063000  0.46313400  1
loop_
_geom_bond_atom_site_label_1
_geom_bond_atom_site_label_2
_geom_bond_distance
_geom_bond_site_symmetry_2
Li0 O7 1.841266 1_554
Li0 O8 1.901253 1_564
Li0 O10 1.978915 1_455
Li0 O3 2.052377 1_555
Li0 Sr1 2.496995 1_465
O0 Ru1 1.989494 1_555
O0 Y1 2.231912 1_655
O0 Sr3 2.576112 1_555
O0 Sr2 2.642621 1_655
O1 Ru0 1.945579 1_555
O1 Y0 2.279502 1_555
O1 Sr2 2.502492 1_645
O1 Sr3 2.678774 1_555
O2 Ru1 1.999367 1_455
O2 Y1 2.296905 1_554
O2 Sr1 2.574246 1_455
O2 Sr0 2.667912 1_555
O3 Ru0 2.066079 1_564
O3 Y0 2.294321 1_565
O3 Sr0 2.610911 1_555
O3 Sr1 2.895828 1_465
O3 Sr1 3.149859 1_565
O4 Ru1 2.011747 1_555
O4 Y0 2.253179 1_565
O4 Sr1 2.471205 1_565
O4 Sr0 2.719301 1_555
O4 Sr2 2.784566 1_655
O5 Ru0 1.976406 1_554
O5 Y1 2.217621 1_654
O5 Sr0 2.594374 1_555
O5 Sr1 2.719486 1_555
O5 Sr3 2.954452 1_554
O6 Ru1 2.025472 1_455
O6 Y0 2.228769 1_555
O6 Sr2 2.545421 1_545
O6 Sr1 2.648379 1_455
O6 Sr3 2.743385 1_555
O7 Ru0 2.126029 1_565
O7 Y1 2.314858 1_555
O7 Sr3 2.546312 1_555
O7 Sr0 2.727355 1_556
O7 Sr2 2.973121 1_555
O8 Ru0 2.064413 1_555
O8 Y1 2.240870 1_555
O8 Sr2 2.596761 1_545
O8 Sr3 2.805154 1_555
O9 Ru1 1.992142 1_455
O9 Y0 2.207783 1_565
O9 Sr3 2.574187 1_555
O9 Sr2 2.662442 1_555
O10 Ru0 2.049554 1_564
O10 Y1 2.337759 1_654
O10 Sr1 2.635529 1_565
O10 Sr2 2.890479 1_654
O10 Sr0 3.016083 1_555
O11 Ru1 2.039594 1_555
O11 Y0 2.265516 1_555
O11 Sr1 2.459301 1_555
O11 Sr0 2.559209 1_555
O11 Sr3 2.897830 1_555
