# generated using pymatgen
data_CaBi2O5
_symmetry_space_group_name_H-M   'P 1'
_cell_length_a   6.10278705
_cell_length_b   6.10278705
_cell_length_c   13.12884200
_cell_angle_alpha   90.00000000
_cell_angle_beta   90.00000000
_cell_angle_gamma   139.07218009
_symmetry_Int_Tables_number   1
_chemical_formula_structural   CaBi2O5
_chemical_formula_sum   'Ca2 Bi4 O10'
_cell_volume   320.32850347
_cell_formula_units_Z   2
loop_
 _symmetry_equiv_pos_site_id
 _symmetry_equiv_pos_as_xyz
  1  'x, y, z'
loop_
 _atom_site_type_symbol
 _atom_site_label
 _atom_site_symmetry_multiplicity
 _atom_site_fract_x
 _atom_site_fract_y
 _atom_site_fract_z
 _atom_site_occupancy
  Ca  Ca0  1  0.10230800  0.89769200  0.75000000  1
  Ca  Ca1  1  0.89769200  0.10230800  0.25000000  1
  Bi  Bi0  1  0.80229500  0.19770500  0.59985900  1
  Bi  Bi1  1  0.19770500  0.80229500  0.40014100  1
  Bi  Bi2  1  0.19770500  0.80229500  0.09985900  1
  Bi  Bi3  1  0.80229500  0.19770500  0.90014100  1
  O  O0  1  0.29237300  0.70762700  0.25000000  1
  O  O1  1  0.70762700  0.29237300  0.75000000  1
  O  O2  1  0.75665600  0.24334400  0.08149700  1
  O  O3  1  0.24334400  0.75665600  0.91850300  1
  O  O4  1  0.24334400  0.75665600  0.58149700  1
  O  O5  1  0.75665600  0.24334400  0.41850300  1
  O  O6  1  0.97434500  0.02565500  0.62644700  1
  O  O7  1  0.02565500  0.97434500  0.37355300  1
  O  O8  1  0.97434500  0.02565500  0.87355300  1
  O  O9  1  0.02565500  0.97434500  0.12644700  1
loop_
_geom_bond_atom_site_label_1
_geom_bond_atom_site_label_2
_geom_bond_distance
_geom_bond_site_symmetry_2
Ca0 O8 2.184599 1_465
Ca0 O6 2.184599 1_465
Ca0 O1 2.450080 1_455
Ca0 O1 2.450080 1_565
Ca0 O3 2.737725 1_555
Ca0 O4 2.737725 1_555
Ca1 O7 2.184599 1_645
Ca1 O9 2.184599 1_645
Ca1 O0 2.450080 1_545
Ca1 O0 2.450080 1_655
Ca1 O5 2.737725 1_555
Ca1 O2 2.737725 1_555
Bi0 O6 1.998172 1_555
Bi0 O1 2.248883 1_555
Bi0 O4 2.250550 1_655
Bi0 O4 2.250550 1_545
Bi0 O5 2.437521 1_555
Bi1 O7 1.998172 1_555
Bi1 O0 2.248883 1_555
Bi1 O5 2.250550 1_565
Bi1 O5 2.250550 1_455
Bi1 O4 2.437521 1_555
Bi2 O9 1.998172 1_555
Bi2 O0 2.248883 1_555
Bi2 O2 2.250550 1_565
Bi2 O2 2.250550 1_455
Bi2 O3 2.437521 1_554
Bi3 O8 1.998172 1_555
Bi3 O1 2.248883 1_555
Bi3 O3 2.250550 1_655
Bi3 O3 2.250550 1_545
Bi3 O2 2.437521 1_556
