# generated using pymatgen
data_K2Nd4Ge4O17
_symmetry_space_group_name_H-M   'P 1'
_cell_length_a   18.46180000
_cell_length_b   6.88511200
_cell_length_c   7.10401397
_cell_angle_alpha   64.83440196
_cell_angle_beta   90.00000000
_cell_angle_gamma   90.00000000
_symmetry_Int_Tables_number   1
_chemical_formula_structural   K2Nd4Ge4O17
_chemical_formula_sum   'K4 Nd8 Ge8 O34'
_cell_volume   817.29161709
_cell_formula_units_Z   2
loop_
 _symmetry_equiv_pos_site_id
 _symmetry_equiv_pos_as_xyz
  1  'x, y, z'
loop_
 _atom_site_type_symbol
 _atom_site_label
 _atom_site_symmetry_multiplicity
 _atom_site_fract_x
 _atom_site_fract_y
 _atom_site_fract_z
 _atom_site_occupancy
  K  K0  1  0.25000000  0.72675200  0.00275000  1
  K  K1  1  0.75000000  0.27324800  0.99725000  1
  K  K2  1  0.25000000  0.72077800  0.55469500  1
  K  K3  1  0.75000000  0.27922200  0.44530500  1
  Nd  Nd0  1  0.03724100  0.71304400  0.72921800  1
  Nd  Nd1  1  0.53724100  0.28695600  0.27078200  1
  Nd  Nd2  1  0.46275900  0.71304400  0.72921800  1
  Nd  Nd3  1  0.96275900  0.28695600  0.27078200  1
  Nd  Nd4  1  0.87675700  0.77603700  0.33493300  1
  Nd  Nd5  1  0.37675700  0.22396300  0.66506700  1
  Nd  Nd6  1  0.62324300  0.77603700  0.33493300  1
  Nd  Nd7  1  0.12324300  0.22396300  0.66506700  1
  Ge  Ge0  1  0.44026700  0.77972200  0.23570800  1
  Ge  Ge1  1  0.94026700  0.22027800  0.76429200  1
  Ge  Ge2  1  0.05973300  0.77972200  0.23570800  1
  Ge  Ge3  1  0.55973300  0.22027800  0.76429200  1
  Ge  Ge4  1  0.15685300  0.20460900  0.13204800  1
  Ge  Ge5  1  0.65685300  0.79539100  0.86795200  1
  Ge  Ge6  1  0.34314700  0.20460900  0.13204800  1
  Ge  Ge7  1  0.84314700  0.79539100  0.86795200  1
  O  O0  1  0.01772500  0.66010400  0.08828000  1
  O  O1  1  0.51772500  0.33989600  0.91172000  1
  O  O2  1  0.09389000  0.59270300  0.47328500  1
  O  O3  1  0.59389000  0.40729700  0.52671500  1
  O  O4  1  0.50450900  0.90959300  0.33087300  1
  O  O5  1  0.00450900  0.09040700  0.66912700  1
  O  O6  1  0.25000000  0.32054100  0.54543200  1
  O  O7  1  0.75000000  0.67945900  0.45456800  1
  O  O8  1  0.10389000  0.22987300  0.32192700  1
  O  O9  1  0.60389000  0.77012700  0.67807300  1
  O  O10  1  0.14417800  0.88334500  0.69793300  1
  O  O11  1  0.64417800  0.11665500  0.30206700  1
  O  O12  1  0.75000000  0.82020700  0.24752000  1
  O  O13  1  0.25000000  0.17979300  0.75248000  1
  O  O14  1  0.99549100  0.90959300  0.33087300  1
  O  O15  1  0.49549100  0.09040700  0.66912700  1
  O  O16  1  0.48227500  0.66010400  0.08828000  1
  O  O17  1  0.98227500  0.33989600  0.91172000  1
  O  O18  1  0.85202900  0.58189800  0.11105500  1
  O  O19  1  0.35202900  0.41810200  0.88894500  1
  O  O20  1  0.64797100  0.58189800  0.11105500  1
  O  O21  1  0.14797100  0.41810200  0.88894500  1
  O  O22  1  0.35582200  0.88334500  0.69793300  1
  O  O23  1  0.85582200  0.11665500  0.30206700  1
  O  O24  1  0.40611000  0.59270300  0.47328500  1
  O  O25  1  0.90611000  0.40729700  0.52671500  1
  O  O26  1  0.39611000  0.22987300  0.32192700  1
  O  O27  1  0.89611000  0.77012700  0.67807300  1
  O  O28  1  0.37128600  0.97115100  0.08306000  1
  O  O29  1  0.87128600  0.02884900  0.91694000  1
  O  O30  1  0.25000000  0.13126700  0.21697800  1
  O  O31  1  0.75000000  0.86873300  0.78302200  1
  O  O32  1  0.12871400  0.97115100  0.08306000  1
  O  O33  1  0.62871400  0.02884900  0.91694000  1
loop_
_geom_bond_atom_site_label_1
_geom_bond_atom_site_label_2
_geom_bond_distance
_geom_bond_site_symmetry_2
K0 O22 2.771772 1_554
K0 O10 2.771772 1_554
K0 O13 2.859045 1_564
K0 O32 2.997888 1_555
K0 O28 2.997888 1_555
K0 O19 3.190440 1_554
K0 O21 3.190440 1_554
K1 O23 2.771772 1_556
K1 O11 2.771772 1_556
K1 O12 2.859045 1_546
K1 O29 2.997888 1_555
K1 O33 2.997888 1_555
K1 O18 3.190440 1_556
K1 O20 3.190440 1_556
K2 O22 2.659644 1_555
K2 O10 2.659644 1_555
K2 O6 2.784296 1_555
K2 O30 2.824348 1_565
K2 O21 3.053005 1_555
K2 O19 3.053005 1_555
K2 O2 3.138810 1_555
K2 O24 3.138810 1_555
K3 O23 2.659644 1_555
K3 O11 2.659644 1_555
K3 O7 2.784296 1_555
K3 O31 2.824348 1_545
K3 O18 3.053005 1_555
K3 O20 3.053005 1_555
K3 O3 3.138810 1_555
K3 O25 3.138810 1_555
Nd0 O10 2.258380 1_555
Nd0 O0 2.445083 1_556
Nd0 O5 2.520851 1_565
Nd0 O2 2.523325 1_555
Nd0 O17 2.545276 1_455
Nd0 O27 2.637012 1_455
Nd0 O14 2.678910 1_455
Nd0 O21 2.762370 1_555
Nd1 O11 2.258380 1_555
Nd1 O1 2.445083 1_554
Nd1 O4 2.520851 1_545
Nd1 O3 2.523325 1_555
Nd1 O16 2.545276 1_555
Nd1 O26 2.637012 1_555
Nd1 O15 2.678910 1_555
Nd1 O20 2.762370 1_555
Nd2 O22 2.258380 1_555
Nd2 O16 2.445083 1_556
Nd2 O15 2.520851 1_565
Nd2 O24 2.523325 1_555
Nd2 O1 2.545276 1_555
Nd2 O9 2.637012 1_555
Nd2 O4 2.678910 1_555
Nd2 O19 2.762370 1_555
Nd3 O23 2.258380 1_555
Nd3 O17 2.445083 1_554
Nd3 O14 2.520851 1_545
Nd3 O25 2.523325 1_555
Nd3 O0 2.545276 1_655
Nd3 O8 2.637012 1_655
Nd3 O5 2.678910 1_655
Nd3 O18 2.762370 1_555
Nd4 O23 2.288699 1_565
Nd4 O14 2.372530 1_555
Nd4 O25 2.377755 1_555
Nd4 O12 2.407043 1_555
Nd4 O27 2.446875 1_555
Nd4 O7 2.481975 1_555
Nd4 O18 2.516461 1_555
Nd4 O29 2.731610 1_564
Nd5 O22 2.288699 1_545
Nd5 O15 2.372530 1_555
Nd5 O24 2.377755 1_555
Nd5 O13 2.407043 1_555
Nd5 O26 2.446875 1_555
Nd5 O6 2.481975 1_555
Nd5 O19 2.516461 1_555
Nd5 O28 2.731610 1_546
Nd6 O11 2.288699 1_565
Nd6 O4 2.372530 1_555
Nd6 O3 2.377755 1_555
Nd6 O12 2.407043 1_555
Nd6 O9 2.446875 1_555
Nd6 O7 2.481975 1_555
Nd6 O20 2.516461 1_555
Nd6 O33 2.731610 1_564
Nd7 O10 2.288699 1_545
Nd7 O5 2.372530 1_555
Nd7 O2 2.377755 1_555
Nd7 O13 2.407043 1_555
Nd7 O8 2.446875 1_555
Nd7 O6 2.481975 1_555
Nd7 O21 2.516461 1_555
Nd7 O32 2.731610 1_546
Ge0 O24 1.748120 1_555
Ge0 O16 1.763589 1_555
Ge0 O4 1.782518 1_555
Ge0 O28 1.821919 1_555
Ge1 O25 1.748120 1_555
Ge1 O17 1.763589 1_555
Ge1 O5 1.782518 1_655
Ge1 O29 1.821919 1_555
Ge2 O2 1.748120 1_555
Ge2 O0 1.763589 1_555
Ge2 O14 1.782518 1_455
Ge2 O32 1.821919 1_555
Ge3 O3 1.748120 1_555
Ge3 O1 1.763589 1_555
Ge3 O15 1.782518 1_555
Ge3 O33 1.821919 1_555
Ge4 O8 1.733616 1_555
Ge4 O21 1.735263 1_554
Ge4 O30 1.821301 1_555
Ge4 O32 1.857530 1_545
Ge5 O9 1.733616 1_555
Ge5 O20 1.735263 1_556
Ge5 O31 1.821301 1_555
Ge5 O33 1.857530 1_565
Ge6 O26 1.733616 1_555
Ge6 O19 1.735263 1_554
Ge6 O30 1.821301 1_555
Ge6 O28 1.857530 1_545
Ge7 O27 1.733616 1_555
Ge7 O18 1.735263 1_556
Ge7 O31 1.821301 1_555
Ge7 O29 1.857530 1_565
O12 O7 1.374887 1_555
O13 O6 1.374887 1_555
