# generated using pymatgen
data_HoTaTiO6
_symmetry_space_group_name_H-M   'P 1'
_cell_length_a   14.68829800
_cell_length_b   5.22788500
_cell_length_c   5.63195635
_cell_angle_alpha   89.67011761
_cell_angle_beta   90.00000000
_cell_angle_gamma   90.00000000
_symmetry_Int_Tables_number   1
_chemical_formula_structural   HoTaTiO6
_chemical_formula_sum   'Ho4 Ta4 Ti4 O24'
_cell_volume   432.46362302
_cell_formula_units_Z   4
loop_
 _symmetry_equiv_pos_site_id
 _symmetry_equiv_pos_as_xyz
  1  'x, y, z'
loop_
 _atom_site_type_symbol
 _atom_site_label
 _atom_site_symmetry_multiplicity
 _atom_site_fract_x
 _atom_site_fract_y
 _atom_site_fract_z
 _atom_site_occupancy
  Ho  Ho0  1  0.00020800  0.74671100  0.76933400  1
  Ho  Ho1  1  0.50020800  0.25328900  0.73066600  1
  Ho  Ho2  1  0.99979200  0.25328900  0.23066600  1
  Ho  Ho3  1  0.49979200  0.74671100  0.26933400  1
  Ta  Ta0  1  0.33161800  0.82600300  0.82507800  1
  Ta  Ta1  1  0.83161800  0.17399700  0.67492200  1
  Ta  Ta2  1  0.66838200  0.17399700  0.17492200  1
  Ta  Ta3  1  0.16838200  0.82600300  0.32507800  1
  Ti  Ti0  1  0.16490100  0.32172600  0.68403000  1
  Ti  Ti1  1  0.66490000  0.67827400  0.81597000  1
  Ti  Ti2  1  0.83509900  0.67827400  0.31597000  1
  Ti  Ti3  1  0.33509900  0.32172600  0.18403000  1
  O  O0  1  0.25946500  0.15092300  0.85721000  1
  O  O1  1  0.23840900  0.65539900  0.63628300  1
  O  O2  1  0.75946500  0.84907700  0.64279000  1
  O  O3  1  0.73840900  0.34460100  0.86371700  1
  O  O4  1  0.74053500  0.84907700  0.14279000  1
  O  O5  1  0.76159100  0.34460100  0.36371700  1
  O  O6  1  0.24053500  0.15092300  0.35721000  1
  O  O7  1  0.26159100  0.65539900  0.13628300  1
  O  O8  1  0.90772300  0.96504300  0.43250700  1
  O  O9  1  0.59199400  0.46689700  0.06416700  1
  O  O10  1  0.40772300  0.03495700  0.06749300  1
  O  O11  1  0.09199400  0.53310300  0.43583300  1
  O  O12  1  0.09227700  0.03495700  0.56749300  1
  O  O13  1  0.40800600  0.53310300  0.93583300  1
  O  O14  1  0.59227700  0.96504300  0.93250700  1
  O  O15  1  0.90800600  0.46689700  0.56416700  1
  O  O16  1  0.08586100  0.41818800  0.90659000  1
  O  O17  1  0.41558100  0.91854900  0.59071800  1
  O  O18  1  0.58586100  0.58181200  0.59341000  1
  O  O19  1  0.91558100  0.08145100  0.90928200  1
  O  O20  1  0.91413900  0.58181200  0.09341000  1
  O  O21  1  0.58441900  0.08145100  0.40928200  1
  O  O22  1  0.41413900  0.41818800  0.40659000  1
  O  O23  1  0.08441900  0.91854900  0.09071800  1
loop_
_geom_bond_atom_site_label_1
_geom_bond_atom_site_label_2
_geom_bond_distance
_geom_bond_site_symmetry_2
Ho0 O16 2.261596 1_555
Ho0 O19 2.290123 1_465
Ho0 O15 2.308379 1_455
Ho0 O12 2.317782 1_565
Ho0 O23 2.373161 1_556
Ho0 O20 2.377932 1_456
Ho0 O11 2.572290 1_555
Ho0 O8 2.592656 1_455
Ho1 O18 2.261596 1_555
Ho1 O17 2.290123 1_545
Ho1 O13 2.308379 1_555
Ho1 O14 2.317782 1_545
Ho1 O21 2.373161 1_555
Ho1 O22 2.377932 1_555
Ho1 O9 2.572290 1_556
Ho1 O10 2.592656 1_556
Ho2 O20 2.261596 1_555
Ho2 O23 2.290123 1_645
Ho2 O11 2.308379 1_655
Ho2 O8 2.317782 1_545
Ho2 O19 2.373161 1_554
Ho2 O16 2.377932 1_654
Ho2 O15 2.572290 1_555
Ho2 O12 2.592656 1_655
Ho3 O22 2.261596 1_555
Ho3 O21 2.290123 1_565
Ho3 O9 2.308379 1_555
Ho3 O10 2.317782 1_565
Ho3 O17 2.373161 1_555
Ho3 O18 2.377932 1_555
Ho3 O13 2.572290 1_554
Ho3 O14 2.592656 1_554
O0 Ti0 1.915171 1_555
O0 Ta0 2.011186 1_545
O0 Ti3 2.332034 1_556
O1 Ta0 1.952271 1_555
O1 Ti0 2.067758 1_555
O1 Ta3 2.215262 1_555
O2 Ti1 1.915182 1_555
O2 Ta1 2.011186 1_565
O2 Ti2 2.332034 1_555
O3 Ta1 1.952271 1_555
O3 Ti1 2.067766 1_555
O3 Ta2 2.215262 1_556
O4 Ti2 1.915171 1_555
O4 Ta2 2.011186 1_565
O4 Ti1 2.332041 1_554
O5 Ta2 1.952271 1_555
O5 Ti2 2.067758 1_555
O5 Ta1 2.215262 1_555
O6 Ti3 1.915171 1_555
O6 Ta3 2.011186 1_545
O6 Ti0 2.332034 1_555
O7 Ta3 1.952271 1_555
O7 Ti3 2.067758 1_555
O7 Ta0 2.215262 1_554
O8 Ti2 1.956422 1_555
O8 Ta1 2.079433 1_565
O9 Ta2 1.995423 1_555
O9 Ti1 2.074621 1_554
O10 Ti3 1.956422 1_555
O10 Ta0 2.079433 1_544
O11 Ta3 1.995423 1_555
O11 Ti0 2.074629 1_555
O12 Ti0 1.956422 1_555
O12 Ta3 2.079433 1_545
O13 Ta0 1.995423 1_555
O13 Ti3 2.074629 1_556
O14 Ti1 1.956414 1_555
O14 Ta2 2.079433 1_566
O15 Ta1 1.995423 1_555
O15 Ti2 2.074629 1_555
O16 Ti0 1.783412 1_555
O17 Ta0 1.868112 1_555
O18 Ti1 1.783402 1_555
O19 Ta1 1.868112 1_555
O20 Ti2 1.783412 1_555
O21 Ta2 1.868112 1_555
O22 Ti3 1.783412 1_555
O23 Ta3 1.868112 1_555
