# generated using pymatgen
data_TiAl(WO4)2
_symmetry_space_group_name_H-M   'P 1'
_cell_length_a   5.57998800
_cell_length_b   5.08225600
_cell_length_c   10.48944196
_cell_angle_alpha   61.79166237
_cell_angle_beta   90.00000000
_cell_angle_gamma   90.00000000
_symmetry_Int_Tables_number   1
_chemical_formula_structural   TiAl(WO4)2
_chemical_formula_sum   'Ti2 Al2 W4 O16'
_cell_volume   262.14028371
_cell_formula_units_Z   2
loop_
 _symmetry_equiv_pos_site_id
 _symmetry_equiv_pos_as_xyz
  1  'x, y, z'
loop_
 _atom_site_type_symbol
 _atom_site_label
 _atom_site_symmetry_multiplicity
 _atom_site_fract_x
 _atom_site_fract_y
 _atom_site_fract_z
 _atom_site_occupancy
  Ti  Ti0  1  0.36487700  0.50000000  0.75000000  1
  Ti  Ti1  1  0.63512300  0.50000000  0.25000000  1
  Al  Al0  1  0.65710400  0.00000000  0.75000000  1
  Al  Al1  1  0.34289600  0.00000000  0.25000000  1
  W  W0  1  0.15475700  0.24289100  0.50167100  1
  W  W1  1  0.15475700  0.75710900  0.99832900  1
  W  W2  1  0.84524300  0.75710900  0.49832900  1
  W  W3  1  0.84524300  0.24289100  0.00167100  1
  O  O0  1  0.38714200  0.72545200  0.86325100  1
  O  O1  1  0.38714200  0.27454800  0.63674900  1
  O  O2  1  0.61285800  0.27454800  0.13674900  1
  O  O3  1  0.61285800  0.72545200  0.36325100  1
  O  O4  1  0.86945100  0.22023700  0.37900100  1
  O  O5  1  0.86945100  0.77976300  0.12099900  1
  O  O6  1  0.13054900  0.77976300  0.62099900  1
  O  O7  1  0.13054900  0.22023700  0.87900100  1
  O  O8  1  0.62857200  0.21198500  0.85605700  1
  O  O9  1  0.62857200  0.78801500  0.64394300  1
  O  O10  1  0.37142800  0.78801500  0.14394300  1
  O  O11  1  0.37142800  0.21198500  0.35605700  1
  O  O12  1  0.87537600  0.70525700  0.88447000  1
  O  O13  1  0.12462400  0.29474300  0.11553000  1
  O  O14  1  0.87537600  0.29474300  0.61553000  1
  O  O15  1  0.12462400  0.70525700  0.38447000  1
loop_
_geom_bond_atom_site_label_1
_geom_bond_atom_site_label_2
_geom_bond_distance
_geom_bond_site_symmetry_2
Al0 O8 1.885926 1_555
Al0 O9 1.885926 1_545
Al0 O14 1.928577 1_555
Al0 O12 1.928577 1_545
Al0 O1 2.015027 1_555
Al0 O0 2.015027 1_545
Al1 O11 1.885926 1_555
Al1 O10 1.885926 1_545
Al1 O13 1.928577 1_555
Al1 O15 1.928577 1_545
Al1 O3 2.015027 1_545
Al1 O2 2.015027 1_555
O0 W1 1.982529 1_555
O0 Ti0 2.006558 1_555
O1 W0 1.982529 1_555
O1 Ti0 2.006558 1_555
O2 W3 1.982529 1_555
O2 Ti1 2.006558 1_555
O3 W2 1.982529 1_555
O3 Ti1 2.006558 1_555
O4 Ti1 1.934804 1_555
O4 W2 2.083237 1_545
O4 W0 2.084103 1_655
O5 Ti1 1.934804 1_555
O5 W3 2.083237 1_565
O5 W1 2.084103 1_654
O6 Ti0 1.934804 1_555
O6 W0 2.083237 1_565
O6 W2 2.084103 1_455
O7 Ti0 1.934804 1_555
O7 W1 2.083237 1_545
O7 W3 2.084103 1_456
O8 Ti0 2.001463 1_555
O8 W3 2.011514 1_556
O9 Ti0 2.001463 1_555
O9 W2 2.011514 1_555
O10 Ti1 2.001463 1_555
O10 W1 2.011514 1_554
O11 Ti1 2.001463 1_555
O11 W0 2.011514 1_555
O12 W1 2.055159 1_655
O12 W3 2.080980 1_556
O13 W3 2.055159 1_455
O13 W1 2.080980 1_554
O14 W0 2.055159 1_655
O14 W2 2.080980 1_555
O15 W2 2.055159 1_455
O15 W0 2.080980 1_555
