# generated using pymatgen
data_PrTiFe11
_symmetry_space_group_name_H-M   'P 1'
_cell_length_a   4.69022500
_cell_length_b   6.51907229
_cell_length_c   6.51907229
_cell_angle_alpha   97.02574383
_cell_angle_beta   111.08367301
_cell_angle_gamma   68.91632699
_symmetry_Int_Tables_number   1
_chemical_formula_structural   PrTiFe11
_chemical_formula_sum   'Pr1 Ti1 Fe11'
_cell_volume   173.52672124
_cell_formula_units_Z   1
loop_
 _symmetry_equiv_pos_site_id
 _symmetry_equiv_pos_as_xyz
  1  'x, y, z'
loop_
 _atom_site_type_symbol
 _atom_site_label
 _atom_site_symmetry_multiplicity
 _atom_site_fract_x
 _atom_site_fract_y
 _atom_site_fract_z
 _atom_site_occupancy
  Pr  Pr0  1  0.00573100  0.99426900  0.00573100  1
  Ti  Ti0  1  0.63229500  0.36770500  0.63229500  1
  Fe  Fe0  1  0.50033700  0.99774800  0.49948400  1
  Fe  Fe1  1  0.00139900  0.99774800  0.49948400  1
  Fe  Fe2  1  0.50033700  0.50051600  0.00225200  1
  Fe  Fe3  1  0.00139900  0.50051600  0.00225200  1
  Fe  Fe4  1  0.73414800  0.76585200  0.23414800  1
  Fe  Fe5  1  0.27014400  0.22985600  0.77014400  1
  Fe  Fe6  1  0.49887900  0.77255200  0.77031100  1
  Fe  Fe7  1  0.49887900  0.22968900  0.22744800  1
  Fe  Fe8  1  0.35691500  0.64308500  0.35691500  1
  Fe  Fe9  1  0.99976800  0.35872400  0.35826000  1
  Fe  Fe10  1  0.99976800  0.64174000  0.64127600  1
loop_
_geom_bond_atom_site_label_1
_geom_bond_atom_site_label_2
_geom_bond_distance
_geom_bond_site_symmetry_2
Pr0 Ti0 3.199255 1_464
Fe0 Fe1 2.340131 1_555
Fe0 Fe1 2.350094 1_655
Fe0 Fe6 2.433595 1_555
Fe0 Fe4 2.451996 1_555
Fe0 Fe7 2.463970 1_565
Fe0 Fe5 2.471964 1_565
Fe0 Fe10 2.604507 1_555
Fe0 Fe8 2.608732 1_555
Fe0 Fe9 2.626274 1_465
Fe0 Ti0 2.669628 1_565
Fe0 Pr0 3.223436 1_555
Fe0 Pr0 3.295813 1_656
Fe1 Fe6 2.433593 1_555
Fe1 Fe4 2.451996 1_455
Fe1 Fe7 2.463972 1_465
Fe1 Fe5 2.471964 1_565
Fe1 Fe10 2.604506 1_455
Fe1 Fe8 2.608732 1_555
Fe1 Fe9 2.626273 1_465
Fe1 Ti0 2.669628 1_465
Fe1 Pr0 3.223436 1_555
Fe1 Pr0 3.295813 1_556
Fe2 Fe3 2.340131 1_555
Fe2 Fe3 2.350094 1_655
Fe2 Fe7 2.433595 1_555
Fe2 Fe4 2.451996 1_555
Fe2 Fe6 2.463970 1_554
Fe2 Fe5 2.471964 1_554
Fe2 Fe9 2.604507 1_555
Fe2 Fe8 2.608732 1_555
Fe2 Ti0 2.669628 1_554
Fe2 Pr0 3.223436 1_555
Fe2 Pr0 3.295813 1_645
Fe3 Fe7 2.433593 1_555
Fe3 Fe4 2.451996 1_455
Fe3 Fe6 2.463972 1_454
Fe3 Fe5 2.471964 1_554
Fe3 Fe9 2.604506 1_455
Fe3 Fe8 2.608732 1_555
Fe3 Ti0 2.669628 1_454
Fe3 Pr0 3.223436 1_555
Fe3 Pr0 3.295813 1_545
Fe4 Fe8 2.570163 1_555
Fe4 Fe8 2.570163 1_655
Fe4 Fe9 2.583046 1_555
Fe4 Fe7 2.821325 1_565
Fe4 Fe6 2.821325 1_554
Fe4 Pr0 3.054321 1_655
Fe4 Pr0 3.054321 1_555
Fe5 Fe9 2.619012 1_455
Fe5 Ti0 2.625686 1_555
Fe5 Ti0 2.625686 1_455
Fe5 Fe6 2.781617 1_545
Fe5 Fe7 2.781617 1_556
Fe5 Pr0 3.094035 1_546
Fe5 Pr0 3.094035 1_646
Fe6 Ti0 2.608176 1_555
Fe6 Fe8 2.641092 1_555
Fe6 Pr0 3.066002 1_556
Fe6 Pr0 3.066006 1_656
Fe7 Fe9 2.599781 1_455
Fe7 Fe9 2.599785 1_555
Fe7 Ti0 2.608176 1_555
Fe7 Fe8 2.641092 1_555
Fe7 Pr0 3.066002 1_545
Fe7 Pr0 3.066006 1_645
Fe8 Ti0 2.359201 1_555
Fe8 Fe9 2.913958 1_455
Fe8 Fe9 2.913958 1_555
Fe8 Pr0 3.008620 1_555
Fe9 Ti0 2.877924 1_555
Fe9 Ti0 2.877924 1_655
Fe9 Pr0 3.096768 1_645
Fe10 Fe9 2.444449 1_555
Fe10 Fe4 2.583046 1_555
Fe10 Fe6 2.599781 1_655
Fe10 Fe6 2.599785 1_555
Fe10 Fe5 2.619012 1_655
Fe10 Fe3 2.626273 1_656
Fe10 Fe2 2.626274 1_656
Fe10 Ti0 2.877924 1_555
Fe10 Ti0 2.877924 1_655
Fe10 Fe8 2.913958 1_655
Fe10 Fe8 2.913958 1_555
Fe10 Pr0 3.096768 1_656
