# generated using pymatgen
data_SnH2C4O3
_symmetry_space_group_name_H-M   'P 1'
_cell_length_a   5.14278358
_cell_length_b   13.22832532
_cell_length_c   8.60139366
_cell_angle_alpha   89.94796264
_cell_angle_beta   92.68240549
_cell_angle_gamma   90.09191000
_symmetry_Int_Tables_number   1
_chemical_formula_structural   SnH2C4O3
_chemical_formula_sum   'Sn4 H8 C16 O12'
_cell_volume   584.51425894
_cell_formula_units_Z   4
loop_
 _symmetry_equiv_pos_site_id
 _symmetry_equiv_pos_as_xyz
  1  'x, y, z'
loop_
 _atom_site_type_symbol
 _atom_site_label
 _atom_site_symmetry_multiplicity
 _atom_site_fract_x
 _atom_site_fract_y
 _atom_site_fract_z
 _atom_site_occupancy
  Sn  Sn0  1  0.41717600  0.74549500  0.22621600  1
  Sn  Sn1  1  0.91708400  0.75451600  0.72623800  1
  Sn  Sn2  1  0.58282400  0.25450500  0.77378400  1
  Sn  Sn3  1  0.08291600  0.24548400  0.27376200  1
  H  H0  1  0.38659800  0.91344300  0.43323400  1
  H  H1  1  0.88694300  0.58651100  0.93349100  1
  H  H2  1  0.61340200  0.08655700  0.56676600  1
  H  H3  1  0.11305700  0.41348900  0.06650900  1
  H  H4  1  0.57149700  0.95939100  0.31428500  1
  H  H5  1  0.07104500  0.54071800  0.81424500  1
  H  H6  1  0.42850300  0.04060900  0.68571500  1
  H  H7  1  0.92895500  0.45928200  0.18575500  1
  C  C0  1  0.52685700  0.54247400  0.06270700  1
  C  C1  1  0.02699500  0.95759200  0.56271200  1
  C  C2  1  0.47314300  0.45752600  0.93729300  1
  C  C3  1  0.97300500  0.04240800  0.43728800  1
  C  C4  1  0.43497400  0.79936600  0.99222200  1
  C  C5  1  0.93461900  0.70075500  0.49237400  1
  C  C6  1  0.56502600  0.20063400  0.00777800  1
  C  C7  1  0.06538100  0.29924500  0.50762600  1
  C  C8  1  0.05846000  0.73588800  0.35149900  1
  C  C9  1  0.55838600  0.76419600  0.85150600  1
  C  C10  1  0.94154000  0.26411200  0.64850100  1
  C  C11  1  0.44161400  0.23580400  0.14849400  1
  C  C12  1  0.79502400  0.72546900  0.35009900  1
  C  C13  1  0.29519200  0.77467700  0.85005900  1
  C  C14  1  0.20497600  0.27453100  0.64990100  1
  C  C15  1  0.70480800  0.22532300  0.14994100  1
  O  O0  1  0.33151600  0.58352900  0.12223300  1
  O  O1  1  0.83147900  0.91632500  0.62267000  1
  O  O2  1  0.66848400  0.41647100  0.87776700  1
  O  O3  1  0.16852100  0.08367500  0.37733000  1
  O  O4  1  0.76098000  0.56752100  0.09624800  1
  O  O5  1  0.26092800  0.93262600  0.59607300  1
  O  O6  1  0.23902000  0.43247900  0.90375200  1
  O  O7  1  0.73907200  0.06737400  0.40392700  1
  O  O8  1  0.44721500  0.90260600  0.32409100  1
  O  O9  1  0.94732300  0.59736700  0.82418500  1
  O  O10  1  0.55278500  0.09739400  0.67590900  1
  O  O11  1  0.05267700  0.40263300  0.17581500  1
loop_
_geom_bond_atom_site_label_1
_geom_bond_atom_site_label_2
_geom_bond_distance
_geom_bond_site_symmetry_2
H0 O8 1.013323 1_555
H0 O5 1.590531 1_555
H1 O9 1.013869 1_555
H1 O4 1.589433 1_556
H2 O10 1.013323 1_555
H2 O7 1.590531 1_555
H3 O11 1.013869 1_555
H3 O6 1.589433 1_554
H4 O8 0.991605 1_555
H5 O9 0.990178 1_455
H6 O10 0.991605 1_555
H7 O11 0.990178 1_655
C0 O4 1.268508 1_555
C0 O0 1.271499 1_555
C1 O5 1.267900 1_555
C1 O1 1.273286 1_455
C2 O6 1.268508 1_555
C2 O2 1.271499 1_555
C3 O7 1.267900 1_555
C3 O3 1.273286 1_655
C4 C9 1.469046 1_555
C4 Sn0 2.140443 1_556
C5 C8 1.469744 1_655
C5 Sn1 2.140101 1_555
C6 Sn2 2.140443 1_554
C7 Sn3 2.140101 1_555
C8 Sn0 2.183059 1_555
C9 Sn1 2.183426 1_555
C10 C14 1.361060 1_655
C10 C7 1.469744 1_655
C10 Sn2 2.183059 1_555
C11 C15 1.360330 1_555
C11 C6 1.469046 1_555
C11 Sn3 2.183426 1_555
C12 C8 1.361060 1_655
C12 C5 1.427467 1_555
C12 Sn0 2.188363 1_555
C13 C9 1.360330 1_555
C13 C4 1.427015 1_555
C13 Sn1 2.188977 1_455
C14 C7 1.427467 1_555
C14 Sn2 2.188363 1_555
C15 C6 1.427015 1_555
C15 Sn3 2.188977 1_655
O0 Sn0 2.355433 1_555
O1 Sn1 2.351983 1_555
O2 Sn2 2.355433 1_555
O3 Sn3 2.351983 1_555
O8 Sn0 2.245432 1_555
O9 Sn1 2.245225 1_555
O10 Sn2 2.245432 1_555
O11 Sn3 2.245225 1_555
