# generated using pymatgen
data_Ce2Cd17
_symmetry_space_group_name_H-M   'P 1'
_cell_length_a   10.26401532
_cell_length_b   10.59211723
_cell_length_c   10.59934256
_cell_angle_alpha   120.03344595
_cell_angle_beta   90.05775761
_cell_angle_gamma   89.90359512
_symmetry_Int_Tables_number   1
_chemical_formula_structural   Ce2Cd17
_chemical_formula_sum   'Ce4 Cd34'
_cell_volume   997.61401500
_cell_formula_units_Z   2
loop_
 _symmetry_equiv_pos_site_id
 _symmetry_equiv_pos_as_xyz
  1  'x, y, z'
loop_
 _atom_site_type_symbol
 _atom_site_label
 _atom_site_symmetry_multiplicity
 _atom_site_fract_x
 _atom_site_fract_y
 _atom_site_fract_z
 _atom_site_occupancy
  Ce  Ce0  1  0.74999887  0.00001226  -0.00003926  1
  Ce  Ce1  1  0.24995909  -0.00005346  -0.00024715  1
  Ce  Ce2  1  0.75002664  0.66666823  0.33338750  1
  Ce  Ce3  1  0.25002274  0.33334262  0.66665547  1
  Cd  Cd0  1  0.99540646  0.83802792  0.16185647  1
  Cd  Cd1  1  0.00493623  0.16190797  0.83815838  1
  Cd  Cd2  1  0.99543301  0.32382627  0.16184842  1
  Cd  Cd3  1  0.49506201  0.16190226  0.83816296  1
  Cd  Cd4  1  0.00495495  0.67624999  0.83819827  1
  Cd  Cd5  1  0.50459140  0.83806857  0.16189213  1
  Cd  Cd6  1  0.99542102  0.83806796  0.67611426  1
  Cd  Cd7  1  0.49504079  0.67626623  0.83817635  1
  Cd  Cd8  1  0.00496573  0.16184872  0.32374240  1
  Cd  Cd9  1  0.50459644  0.32385058  0.16186411  1
  Cd  Cd10  1  0.49504213  0.16186158  0.32377632  1
  Cd  Cd11  1  0.50456075  0.83809458  0.67612585  1
  Cd  Cd12  1  0.40148878  0.66667649  0.33333905  1
  Cd  Cd13  1  0.59797189  0.33331902  0.66661749  1
  Cd  Cd14  1  0.90201602  0.33334778  0.66664865  1
  Cd  Cd15  1  0.09850530  0.66665386  0.33330532  1
  Cd  Cd16  1  0.75000127  0.00787633  0.33928953  1
  Cd  Cd17  1  0.25001780  0.99210002  0.66166800  1
  Cd  Cd18  1  0.75000444  0.33140435  0.99217083  1
  Cd  Cd19  1  0.24999152  0.66962005  0.66175562  1
  Cd  Cd20  1  0.24998081  0.66951317  0.00794028  1
  Cd  Cd21  1  0.74999277  0.33139493  0.33930851  1
  Cd  Cd22  1  0.74999413  0.66076354  0.66861167  1
  Cd  Cd23  1  0.24999629  0.33843023  0.00796322  1
  Cd  Cd24  1  0.25002009  0.33820741  0.33033899  1
  Cd  Cd25  1  0.75001526  0.66076693  0.99216790  1
  Cd  Cd26  1  0.24999773  0.99212062  0.33042316  1
  Cd  Cd27  1  0.74998605  0.00781175  0.66860589  1
  Cd  Cd28  1  -0.00004267  0.50005899  0.50000643  1
  Cd  Cd29  1  -0.00006369  -0.00007451  0.49997755  1
  Cd  Cd30  1  0.50004516  0.50003944  0.49999052  1
  Cd  Cd31  1  -0.00007642  0.50004687  0.00009329  1
  Cd  Cd32  1  0.50006082  -0.00004683  0.50002167  1
  Cd  Cd33  1  0.50007838  0.50002730  0.00008394  1
loop_
_geom_bond_atom_site_label_1
_geom_bond_atom_site_label_2
_geom_bond_distance
_geom_bond_site_symmetry_2
Cd0 Cd8 2.971175 1_665
Cd0 Cd4 2.971591 1_654
Cd0 Cd31 3.100513 1_655
Cd0 Cd29 3.104009 1_665
Cd0 Cd16 3.118581 1_565
Cd0 Cd25 3.119362 1_554
Cd0 Cd20 3.122981 1_655
Cd0 Cd26 3.125780 1_655
Cd0 Cd15 3.317962 1_655
Cd0 Ce0 3.893208 1_565
Cd0 Ce1 3.961553 1_665
Cd1 Cd6 2.971335 1_445
Cd1 Cd2 2.971867 1_456
Cd1 Cd31 3.102008 1_556
Cd1 Cd29 3.104617 1_555
Cd1 Cd17 3.112644 1_545
Cd1 Cd23 3.114502 1_556
Cd1 Cd18 3.129511 1_455
Cd1 Cd27 3.132116 1_455
Cd1 Cd14 3.318482 1_455
Cd1 Ce1 3.888388 1_556
Cd1 Ce0 3.961928 1_456
Cd2 Cd8 2.973859 1_655
Cd2 Cd31 3.103146 1_655
Cd2 Cd28 3.104200 1_655
Cd2 Cd21 3.122298 1_555
Cd2 Cd24 3.124170 1_655
Cd2 Cd23 3.126309 1_655
Cd2 Ce0 3.896603 1_555
Cd2 Ce1 3.952784 1_655
Cd3 Cd9 2.971941 1_556
Cd3 Cd33 3.102026 1_556
Cd3 Cd32 3.104282 1_555
Cd3 Ce1 3.894811 1_556
Cd3 Ce0 3.955754 1_556
Cd4 Cd6 2.974141 1_455
Cd4 Ce1 3.892928 1_566
Cd4 Ce0 3.954889 1_466
Cd5 Cd7 2.972082 1_554
Cd5 Ce0 3.899142 1_565
Cd5 Ce1 3.955962 1_565
Cd6 Ce0 3.896054 1_566
Cd6 Ce1 3.955017 1_666
Cd7 Ce1 3.888102 1_566
Cd7 Ce0 3.960135 1_566
Cd8 Ce1 3.894214 1_555
Cd8 Ce0 3.958909 1_455
Cd9 Ce0 3.891334 1_555
Cd9 Ce1 3.959044 1_555
Cd10 Cd5 2.970650 1_545
Cd10 Cd9 2.974443 1_555
Cd10 Cd30 3.102473 1_555
Cd10 Cd32 3.104816 1_555
Cd10 Cd24 3.110153 1_555
Cd10 Cd26 3.115407 1_545
Cd10 Cd16 3.128692 1_555
Cd10 Cd21 3.133441 1_555
Cd10 Cd13 3.318441 1_555
Cd10 Ce1 3.894301 1_555
Cd10 Ce0 3.959835 1_555
Cd11 Cd3 2.970768 1_565
Cd11 Cd7 2.974227 1_555
Cd11 Cd30 3.101258 1_555
Cd11 Cd32 3.102976 1_565
Cd11 Cd22 3.116914 1_555
Cd11 Cd27 3.121319 1_565
Cd11 Cd17 3.121758 1_555
Cd11 Cd19 3.126934 1_555
Cd11 Cd12 3.318433 1_555
Cd11 Ce0 3.895336 1_566
Cd11 Ce1 3.956125 1_566
Cd12 Cd15 3.109827 1_555
Cd12 Cd30 3.220267 1_555
Cd12 Cd32 3.220555 1_565
Cd12 Cd33 3.221283 1_555
Cd12 Cd9 3.315685 1_555
Cd12 Cd5 3.321229 1_555
Cd12 Ce2 3.577397 1_555
Cd13 Cd14 3.120714 1_555
Cd13 Cd30 3.218765 1_555
Cd13 Cd32 3.219199 1_555
Cd13 Cd33 3.220888 1_556
Cd13 Cd7 3.316164 1_555
Cd13 Cd3 3.321669 1_555
Cd13 Ce3 3.571355 1_555
Cd14 Cd29 3.217121 1_655
Cd14 Cd31 3.220373 1_656
Cd14 Cd28 3.221831 1_655
Cd14 Cd4 3.318524 1_655
Cd14 Cd8 3.319459 1_655
Cd14 Ce3 3.571946 1_655
Cd15 Cd29 3.217887 1_565
Cd15 Cd31 3.220511 1_555
Cd15 Cd28 3.223288 1_555
Cd15 Cd2 3.318313 1_455
Cd15 Cd6 3.319054 1_455
Cd15 Ce2 3.576791 1_455
Cd16 Cd29 3.102086 1_655
Cd16 Cd32 3.105379 1_555
Cd16 Cd5 3.120209 1_545
Cd16 Cd8 3.133640 1_655
Cd16 Cd21 3.426646 1_555
Cd16 Cd27 3.490879 1_555
Cd16 Ce0 3.555703 1_555
Cd16 Ce2 3.583215 1_545
Cd17 Cd29 3.108908 1_565
Cd17 Cd32 3.111488 1_565
Cd17 Cd3 3.114176 1_565
Cd17 Cd6 3.127185 1_455
Cd17 Cd19 3.416211 1_555
Cd17 Cd26 3.511087 1_555
Cd17 Ce1 3.542611 1_566
Cd17 Ce3 3.588315 1_565
Cd18 Cd33 3.100425 1_556
Cd18 Cd31 3.105286 1_656
Cd18 Cd2 3.117917 1_556
Cd18 Cd9 3.120910 1_556
Cd18 Cd3 3.131909 1_555
Cd18 Cd27 3.426820 1_555
Cd18 Cd25 3.488663 1_555
Cd18 Ce0 3.552189 1_556
Cd18 Ce2 3.582551 1_556
Cd19 Cd30 3.108683 1_555
Cd19 Cd28 3.110547 1_555
Cd19 Cd7 3.112421 1_555
Cd19 Cd4 3.115355 1_555
Cd19 Cd6 3.122055 1_455
Cd19 Cd24 3.509805 1_555
Cd19 Ce1 3.539655 1_566
Cd19 Ce3 3.588165 1_555
Cd20 Cd33 3.107173 1_555
Cd20 Cd31 3.111589 1_555
Cd20 Cd4 3.112202 1_554
Cd20 Cd7 3.115800 1_554
Cd20 Cd5 3.125787 1_555
Cd20 Cd26 3.415874 1_555
Cd20 Cd23 3.506991 1_555
Cd20 Ce1 3.544220 1_565
Cd20 Ce3 3.587597 1_554
Cd21 Cd30 3.101796 1_555
Cd21 Cd28 3.104178 1_655
Cd21 Cd9 3.119064 1_555
Cd21 Cd8 3.128850 1_655
Cd21 Cd22 3.487790 1_555
Cd21 Ce0 3.552453 1_555
Cd21 Ce2 3.583078 1_555
Cd22 Cd28 3.102117 1_655
Cd22 Cd30 3.103858 1_555
Cd22 Cd6 3.121703 1_555
Cd22 Cd4 3.130978 1_655
Cd22 Cd7 3.133313 1_555
Cd22 Cd25 3.429465 1_555
Cd22 Ce0 3.551624 1_566
Cd22 Ce2 3.584868 1_555
Cd23 Cd31 3.106986 1_555
Cd23 Cd33 3.111872 1_555
Cd23 Cd3 3.112403 1_554
Cd23 Cd9 3.123452 1_555
Cd23 Cd24 3.418153 1_555
Cd23 Ce1 3.542505 1_555
Cd23 Ce3 3.590970 1_554
Cd24 Cd28 3.109525 1_555
Cd24 Cd30 3.110869 1_555
Cd24 Cd8 3.115367 1_555
Cd24 Cd9 3.126630 1_555
Cd24 Ce1 3.542316 1_555
Cd24 Ce3 3.590801 1_555
Cd25 Cd31 3.100431 1_656
Cd25 Cd33 3.105636 1_556
Cd25 Cd5 3.117698 1_556
Cd25 Cd7 3.130215 1_555
Cd25 Cd4 3.132947 1_655
Cd25 Ce0 3.552705 1_566
Cd25 Ce2 3.585826 1_556
Cd26 Cd32 3.109372 1_565
Cd26 Cd8 3.110333 1_565
Cd26 Cd29 3.111931 1_565
Cd26 Cd5 3.124001 1_555
Cd26 Ce1 3.547102 1_565
Cd26 Ce3 3.587504 1_565
Cd27 Cd32 3.102080 1_555
Cd27 Cd29 3.105225 1_655
Cd27 Cd6 3.116511 1_545
Cd27 Cd3 3.130330 1_555
Cd27 Ce0 3.554211 1_556
Cd27 Ce2 3.581833 1_545
Cd28 Cd6 3.100713 1_455
Cd28 Cd8 3.102642 1_555
Cd28 Cd4 3.104571 1_555
Cd29 Cd6 3.103414 1_445
Cd29 Cd8 3.105015 1_555
Cd30 Cd9 3.103921 1_555
Cd30 Cd7 3.104543 1_555
Cd31 Cd4 3.104345 1_554
Cd32 Cd5 3.104113 1_545
Cd33 Cd5 3.101189 1_555
Cd33 Cd9 3.102823 1_555
Cd33 Cd7 3.104631 1_554
