# generated using pymatgen
data_EuMgGa3
_symmetry_space_group_name_H-M   'P 1'
_cell_length_a   4.31164196
_cell_length_b   4.31164196
_cell_length_c   6.44330259
_cell_angle_alpha   70.45280835
_cell_angle_beta   70.45280835
_cell_angle_gamma   90.00000000
_symmetry_Int_Tables_number   1
_chemical_formula_structural   EuMgGa3
_chemical_formula_sum   'Eu1 Mg1 Ga3'
_cell_volume   105.52492456
_cell_formula_units_Z   1
loop_
 _symmetry_equiv_pos_site_id
 _symmetry_equiv_pos_as_xyz
  1  'x, y, z'
loop_
 _atom_site_type_symbol
 _atom_site_label
 _atom_site_symmetry_multiplicity
 _atom_site_fract_x
 _atom_site_fract_y
 _atom_site_fract_z
 _atom_site_occupancy
  Eu  Eu0  1  -0.00000000  0.00000000  -0.00000000  1
  Mg  Mg0  1  0.75000000  0.25000000  0.50000000  1
  Ga  Ga0  1  0.39056293  0.39056293  0.21887314  1
  Ga  Ga1  1  0.60943707  0.60943707  0.78112686  1
  Ga  Ga2  1  0.25000000  0.75000000  0.50000000  1
loop_
_geom_bond_atom_site_label_1
_geom_bond_atom_site_label_2
_geom_bond_distance
_geom_bond_site_symmetry_2
Eu0 Ga1 3.292214 1_444
Eu0 Ga0 3.292214 1_555
Eu0 Ga1 3.292217 1_454
Eu0 Ga1 3.292217 1_544
Eu0 Ga0 3.292217 1_455
Eu0 Ga0 3.292217 1_545
Eu0 Ga1 3.292220 1_554
Eu0 Ga0 3.292220 1_445
Eu0 Mg0 3.564101 1_454
Eu0 Mg0 3.564101 1_455
Eu0 Ga2 3.564101 1_544
Eu0 Ga2 3.564101 1_545
Eu0 Mg0 3.564102 1_554
Eu0 Ga2 3.564102 1_445
Eu0 Ga2 3.564102 1_554
Eu0 Mg0 3.564102 1_445
Ga0 Ga1 2.484804 1_554
Ga0 Mg0 2.682174 1_455
Ga0 Ga2 2.682174 1_545
Ga0 Ga2 2.682177 1_555
Ga0 Mg0 2.682177 1_555
Ga1 Ga2 2.682174 1_655
Ga1 Mg0 2.682174 1_565
Ga1 Ga2 2.682177 1_555
Ga1 Mg0 2.682177 1_555
