# generated using pymatgen
data_PrZnPO
_symmetry_space_group_name_H-M   'P 1'
_cell_length_a   4.02469795
_cell_length_b   4.02469795
_cell_length_c   10.72355216
_cell_angle_alpha   79.18393248
_cell_angle_beta   79.18393248
_cell_angle_gamma   60.00000081
_symmetry_Int_Tables_number   1
_chemical_formula_structural   PrZnPO
_chemical_formula_sum   'Pr2 Zn2 P2 O2'
_cell_volume   146.85642540
_cell_formula_units_Z   2
loop_
 _symmetry_equiv_pos_site_id
 _symmetry_equiv_pos_as_xyz
  1  'x, y, z'
loop_
 _atom_site_type_symbol
 _atom_site_label
 _atom_site_symmetry_multiplicity
 _atom_site_fract_x
 _atom_site_fract_y
 _atom_site_fract_z
 _atom_site_occupancy
  Pr  Pr0  1  0.61836200  0.61836200  0.14491400  1
  Pr  Pr1  1  0.38163800  0.38163800  0.85508600  1
  Zn  Zn0  1  0.19604000  0.19604000  0.41188000  1
  Zn  Zn1  1  0.80396000  0.80396000  0.58812000  1
  P  P0  1  0.11470400  0.11470400  0.65588800  1
  P  P1  1  0.88529600  0.88529600  0.34411200  1
  O  O0  1  0.69500700  0.69500700  0.91497900  1
  O  O1  1  0.30499300  0.30499300  0.08502100  1
loop_
_geom_bond_atom_site_label_1
_geom_bond_atom_site_label_2
_geom_bond_distance
_geom_bond_site_symmetry_2
P0 Zn1 2.429550 1_445
P0 Zn1 2.429550 1_455
P0 Zn1 2.429550 1_545
P0 Zn0 2.554464 1_555
P0 Pr1 3.122197 1_555
P0 Pr1 3.122198 1_455
P0 Pr1 3.122198 1_545
P1 Zn0 2.429550 1_665
P1 Zn0 2.429550 1_565
P1 Zn0 2.429550 1_655
P1 Zn1 2.554464 1_555
P1 Pr0 3.122197 1_555
P1 Pr0 3.122198 1_565
P1 Pr0 3.122198 1_655
O0 Pr1 2.406768 1_555
O0 Pr1 2.406769 1_565
O0 Pr1 2.406769 1_655
O0 Pr0 2.407137 1_556
O1 Pr0 2.406768 1_555
O1 Pr0 2.406769 1_455
O1 Pr0 2.406769 1_545
O1 Pr1 2.407137 1_554
