# generated using pymatgen
data_CaV5O7
_symmetry_space_group_name_H-M   'P 1'
_cell_length_a   3.09628858
_cell_length_b   5.34999170
_cell_length_c   18.18011906
_cell_angle_alpha   90.14131797
_cell_angle_beta   89.96250188
_cell_angle_gamma   106.92805809
_symmetry_Int_Tables_number   1
_chemical_formula_structural   CaV5O7
_chemical_formula_sum   'Ca2 V10 O14'
_cell_volume   288.10619700
_cell_formula_units_Z   2
loop_
 _symmetry_equiv_pos_site_id
 _symmetry_equiv_pos_as_xyz
  1  'x, y, z'
loop_
 _atom_site_type_symbol
 _atom_site_label
 _atom_site_symmetry_multiplicity
 _atom_site_fract_x
 _atom_site_fract_y
 _atom_site_fract_z
 _atom_site_occupancy
  Ca  Ca0  1  0.78669800  0.57396600  0.74993800  1
  Ca  Ca1  1  0.21230100  0.42376400  0.25053300  1
  V  V0  1  0.00299400  0.00191500  0.00133600  1
  V  V1  1  0.72096100  0.45152100  0.07610400  1
  V  V2  1  0.27268100  0.54726400  0.92412600  1
  V  V3  1  0.53591500  0.07070500  0.65243700  1
  V  V4  1  0.46435900  0.92971800  0.34765000  1
  V  V5  1  0.00035700  0.00059700  0.49996900  1
  V  V6  1  0.27257400  0.54438900  0.57550800  1
  V  V7  1  0.72766000  0.45604400  0.42409600  1
  V  V8  1  0.46234100  0.92087000  0.14741900  1
  V  V9  1  0.53976500  0.07849500  0.85171200  1
  O  O0  1  0.45511600  0.90856900  0.74714400  1
  O  O1  1  0.54561100  0.09203300  0.25372900  1
  O  O2  1  0.63923400  0.27636000  0.96819300  1
  O  O3  1  0.35222100  0.71496300  0.03687400  1
  O  O4  1  0.36542500  0.73153100  0.46297500  1
  O  O5  1  0.63486800  0.26895700  0.53703900  1
  O  O6  1  0.16937000  0.33564300  0.82672100  1
  O  O7  1  0.82137900  0.64284300  0.16828600  1
  O  O8  1  0.83665400  0.67341800  0.32771600  1
  O  O9  1  0.16334400  0.32638500  0.67132800  1
  O  O10  1  0.91224200  0.82480200  0.89228400  1
  O  O11  1  0.10577800  0.20499600  0.10667400  1
  O  O12  1  0.08674600  0.17630300  0.39227900  1
  O  O13  1  0.91341000  0.82394500  0.60793300  1
loop_
_geom_bond_atom_site_label_1
_geom_bond_atom_site_label_2
_geom_bond_distance
_geom_bond_site_symmetry_2
Ca0 O0 2.309105 1_555
Ca0 O0 2.309381 1_655
Ca0 O6 2.411202 1_555
Ca0 O6 2.422582 1_655
Ca0 O9 2.455122 1_555
Ca0 O9 2.458647 1_655
Ca0 O13 2.884040 1_555
Ca0 O10 2.886079 1_555
Ca1 O1 2.298093 1_455
Ca1 O1 2.299003 1_555
Ca1 O7 2.425666 1_555
Ca1 O7 2.431422 1_455
Ca1 O8 2.445559 1_555
Ca1 O8 2.449292 1_455
Ca1 O11 2.842542 1_555
Ca1 O12 2.874091 1_555
O0 V3 1.913110 1_565
O0 V9 2.088674 1_565
O1 V4 1.900645 1_545
O1 V8 2.120116 1_545
O2 V1 2.155108 1_556
O2 V0 2.172126 1_556
O2 V0 2.180769 1_656
O2 V2 2.222054 1_655
O2 V2 2.235027 1_555
O2 V9 2.345158 1_555
O3 V1 2.171251 1_455
O3 V1 2.177556 1_555
O3 V0 2.217197 1_565
O3 V2 2.220379 1_554
O3 V0 2.244141 1_665
O3 V8 2.267158 1_555
O4 V5 2.176772 1_665
O4 V5 2.178069 1_565
O4 V7 2.207517 1_455
O4 V7 2.210488 1_555
O4 V6 2.261048 1_555
O4 V4 2.331282 1_555
O5 V5 2.174772 1_555
O5 V5 2.176358 1_655
O5 V6 2.204901 1_655
O5 V6 2.208019 1_555
O5 V7 2.267683 1_555
O5 V3 2.332623 1_555
O6 V2 2.073630 1_555
O6 V9 2.082526 1_555
O6 V9 2.083153 1_455
O7 V1 1.939029 1_555
O7 V8 2.135070 1_555
O7 V8 2.139577 1_655
O8 V4 2.058025 1_655
O8 V4 2.063442 1_555
O8 V7 2.077805 1_555
O9 V3 2.052851 1_455
O9 V3 2.058133 1_555
O9 V6 2.070956 1_555
O10 V9 2.151457 1_665
O10 V9 2.152648 1_565
O10 V0 2.178036 1_666
O10 V2 2.179846 1_555
O10 V2 2.180691 1_655
O11 V1 2.053253 1_555
O11 V1 2.094683 1_455
O11 V0 2.176774 1_555
O11 V8 2.249911 1_545
O11 V8 2.251337 1_445
O12 V4 2.151427 1_445
O12 V5 2.156435 1_555
O12 V4 2.158101 1_545
O12 V7 2.185064 1_455
O12 V7 2.186367 1_555
O13 V3 2.151165 1_665
O13 V3 2.157708 1_565
O13 V5 2.162992 1_665
O13 V6 2.187342 1_655
O13 V6 2.188719 1_555
