# generated using pymatgen
data_Sr3Ga2Cl2O5
_symmetry_space_group_name_H-M   'P 1'
_cell_length_a   9.58411601
_cell_length_b   9.57719784
_cell_length_c   9.59966293
_cell_angle_alpha   90.00000000
_cell_angle_beta   90.00000000
_cell_angle_gamma   90.00000000
_symmetry_Int_Tables_number   1
_chemical_formula_structural   Sr3Ga2Cl2O5
_chemical_formula_sum   'Sr12 Ga8 Cl8 O20'
_cell_volume   881.14322212
_cell_formula_units_Z   4
loop_
 _symmetry_equiv_pos_site_id
 _symmetry_equiv_pos_as_xyz
  1  'x, y, z'
loop_
 _atom_site_type_symbol
 _atom_site_label
 _atom_site_symmetry_multiplicity
 _atom_site_fract_x
 _atom_site_fract_y
 _atom_site_fract_z
 _atom_site_occupancy
  Sr  Sr0  1  0.29175993  0.16762452  0.99416222  1
  Sr  Sr1  1  0.79175993  0.33237548  0.00583778  1
  Sr  Sr2  1  0.70824007  0.66762452  0.50583778  1
  Sr  Sr3  1  0.20824007  0.83237548  0.49416222  1
  Sr  Sr4  1  0.47526148  0.75084012  0.16646764  1
  Sr  Sr5  1  0.97526148  0.74915988  0.83353236  1
  Sr  Sr6  1  0.66570692  0.02395411  0.73709650  1
  Sr  Sr7  1  0.16570692  0.47604589  0.26290350  1
  Sr  Sr8  1  0.52473852  0.25084012  0.33353236  1
  Sr  Sr9  1  0.02473852  0.24915988  0.66646764  1
  Sr  Sr10  1  0.33429308  0.52395411  0.76290350  1
  Sr  Sr11  1  0.83429308  0.97604589  0.23709650  1
  Ga  Ga0  1  0.33998877  0.85300177  0.85423985  1
  Ga  Ga1  1  0.83998877  0.64699823  0.14576015  1
  Ga  Ga2  1  0.64284151  0.65499666  0.84525447  1
  Ga  Ga3  1  0.14284151  0.84500334  0.15474553  1
  Ga  Ga4  1  0.66001123  0.35300177  0.64576015  1
  Ga  Ga5  1  0.16001123  0.14699823  0.35423985  1
  Ga  Ga6  1  0.35715849  0.15499666  0.65474553  1
  Ga  Ga7  1  0.85715849  0.34500334  0.34525447  1
  Cl  Cl0  1  0.09172289  0.46369661  0.95145015  1
  Cl  Cl1  1  0.59172289  0.03630339  0.04854985  1
  Cl  Cl2  1  0.01714464  0.57710261  0.56496404  1
  Cl  Cl3  1  0.51714464  0.92289739  0.43503596  1
  Cl  Cl4  1  0.48285536  0.42289739  0.06496404  1
  Cl  Cl5  1  0.98285536  0.07710261  0.93503596  1
  Cl  Cl6  1  0.40827711  0.53630339  0.45145015  1
  Cl  Cl7  1  0.90827711  0.96369661  0.54854985  1
  O  O0  1  0.72804607  0.40907897  0.47256464  1
  O  O1  1  0.22804607  0.09092103  0.52743536  1
  O  O2  1  0.71850922  0.73931438  0.25801071  1
  O  O3  1  0.21850922  0.76068562  0.74198929  1
  O  O4  1  0.78149078  0.26068562  0.75801071  1
  O  O5  1  0.28149078  0.23931438  0.24198929  1
  O  O6  1  0.77195393  0.59092103  0.97256464  1
  O  O7  1  0.27195393  0.90907897  0.02743536  1
  O  O8  1  0.23728708  0.71869253  0.26051021  1
  O  O9  1  0.73728708  0.78130747  0.73948979  1
  O  O10  1  0.59002165  0.51565470  0.72030955  1
  O  O11  1  0.09002165  0.98434530  0.27969045  1
  O  O12  1  0.40997835  0.01565470  0.77969045  1
  O  O13  1  0.90997835  0.48434530  0.22030955  1
  O  O14  1  0.52856541  0.21825725  0.59146855  1
  O  O15  1  0.02856541  0.28174275  0.40853145  1
  O  O16  1  0.47143459  0.71825725  0.90853145  1
  O  O17  1  0.97143459  0.78174275  0.09146855  1
  O  O18  1  0.26271292  0.28130747  0.76051021  1
  O  O19  1  0.76271292  0.21869253  0.23948979  1
loop_
_geom_bond_atom_site_label_1
_geom_bond_atom_site_label_2
_geom_bond_distance
_geom_bond_site_symmetry_2
Ga0 O3 1.816142 1_555
Ga0 O12 1.840849 1_565
Ga0 O7 1.864916 1_556
Ga0 O16 1.877240 1_555
Ga1 O2 1.816142 1_555
Ga1 O13 1.840849 1_555
Ga1 O6 1.864916 1_554
Ga1 O17 1.877240 1_555
Ga2 O9 1.820322 1_555
Ga2 O6 1.844296 1_555
Ga2 O16 1.853317 1_555
Ga2 O10 1.864351 1_555
Ga3 O8 1.820322 1_555
Ga3 O7 1.844296 1_555
Ga3 O17 1.853317 1_455
Ga3 O11 1.864351 1_555
Ga4 O4 1.816142 1_555
Ga4 O10 1.840849 1_555
Ga4 O0 1.864916 1_555
Ga4 O14 1.877240 1_555
Ga5 O5 1.816142 1_555
Ga5 O11 1.840849 1_545
Ga5 O1 1.864916 1_555
Ga5 O15 1.877240 1_555
Ga6 O18 1.820322 1_555
Ga6 O1 1.844296 1_555
Ga6 O14 1.853317 1_555
Ga6 O12 1.864351 1_555
Ga7 O19 1.820322 1_555
Ga7 O0 1.844296 1_555
Ga7 O15 1.853317 1_655
Ga7 O13 1.864351 1_555
Cl0 Sr10 3.002312 1_555
Cl0 Sr7 3.075054 1_556
Cl0 Sr5 3.162536 1_455
Cl0 Sr1 3.181086 1_456
Cl0 Sr0 3.447315 1_555
Cl0 Sr9 3.481096 1_555
Cl1 Sr11 3.002312 1_545
Cl1 Sr6 3.075054 1_554
Cl1 Sr4 3.162536 1_545
Cl1 Sr0 3.181086 1_554
Cl1 Sr1 3.447315 1_555
Cl1 Sr8 3.481096 1_555
Cl2 Sr5 3.086001 1_455
Cl2 Sr3 3.129428 1_555
Cl2 Sr2 3.136682 1_455
Cl2 Sr9 3.289256 1_555
Cl2 Sr7 3.372265 1_555
Cl2 Sr10 3.620603 1_555
Cl3 Sr4 3.086001 1_555
Cl3 Sr2 3.129428 1_555
Cl3 Sr3 3.136682 1_555
Cl3 Sr8 3.289256 1_565
Cl3 Sr6 3.372265 1_565
Cl3 Sr11 3.620603 1_555
Cl4 Sr8 3.086001 1_555
Cl4 Sr0 3.129428 1_554
Cl4 Sr1 3.136682 1_555
Cl4 Sr4 3.289256 1_555
Cl4 Sr10 3.372265 1_554
Cl4 Sr7 3.620603 1_555
Cl5 Sr9 3.086001 1_655
Cl5 Sr1 3.129428 1_556
Cl5 Sr0 3.136682 1_655
Cl5 Sr5 3.289256 1_545
Cl5 Sr11 3.372265 1_546
Cl5 Sr6 3.620603 1_555
Cl6 Sr7 3.002312 1_555
Cl6 Sr10 3.075054 1_555
Cl6 Sr8 3.162536 1_555
Cl6 Sr2 3.181086 1_555
Cl6 Sr3 3.447315 1_555
Cl6 Sr4 3.481096 1_555
Cl7 Sr6 3.002312 1_565
Cl7 Sr11 3.075054 1_555
Cl7 Sr9 3.162536 1_665
Cl7 Sr3 3.181086 1_655
Cl7 Sr2 3.447315 1_555
Cl7 Sr5 3.481096 1_555
O0 Sr2 2.503864 1_555
O0 Sr8 2.806201 1_555
O1 Sr3 2.503864 1_545
O1 Sr9 2.806201 1_555
O2 Sr2 2.478104 1_555
O2 Sr4 2.493887 1_555
O2 Sr11 2.532196 1_555
O3 Sr3 2.478104 1_555
O3 Sr5 2.493887 1_455
O3 Sr10 2.532196 1_555
O4 Sr1 2.478104 1_556
O4 Sr9 2.493887 1_655
O4 Sr6 2.532196 1_555
O5 Sr0 2.478104 1_554
O5 Sr8 2.493887 1_555
O5 Sr7 2.532196 1_555
O6 Sr1 2.503864 1_556
O6 Sr5 2.806201 1_555
O7 Sr0 2.503864 1_564
O7 Sr4 2.806201 1_555
O8 Sr7 2.423131 1_555
O8 Sr4 2.472191 1_555
O8 Sr3 2.508759 1_555
O9 Sr6 2.423131 1_565
O9 Sr5 2.472191 1_555
O9 Sr2 2.508759 1_555
O10 Sr10 2.486076 1_555
O10 Sr2 2.764226 1_555
O11 Sr11 2.486076 1_455
O11 Sr3 2.764226 1_555
O12 Sr6 2.486076 1_555
O12 Sr0 2.764226 1_555
O13 Sr7 2.486076 1_655
O13 Sr1 2.764226 1_555
O14 Sr8 2.495956 1_555
O14 Sr6 2.672978 1_555
O15 Sr9 2.495956 1_555
O15 Sr7 2.672978 1_555
O16 Sr4 2.495956 1_556
O16 Sr10 2.672978 1_555
O17 Sr5 2.495956 1_554
O17 Sr11 2.672978 1_555
O18 Sr10 2.423131 1_555
O18 Sr9 2.472191 1_555
O18 Sr0 2.508759 1_555
O19 Sr11 2.423131 1_545
O19 Sr8 2.472191 1_555
O19 Sr1 2.508759 1_555
