# generated using pymatgen
data_Cs2UNb6(Cl5O)3
_symmetry_space_group_name_H-M   'P 1'
_cell_length_a   9.28258438
_cell_length_b   9.28258438
_cell_length_c   17.69660600
_cell_angle_alpha   90.00000000
_cell_angle_beta   90.00000000
_cell_angle_gamma   120.00000274
_symmetry_Int_Tables_number   1
_chemical_formula_structural   Cs2UNb6(Cl5O)3
_chemical_formula_sum   'Cs4 U2 Nb12 Cl30 O6'
_cell_volume   1320.56083629
_cell_formula_units_Z   2
loop_
 _symmetry_equiv_pos_site_id
 _symmetry_equiv_pos_as_xyz
  1  'x, y, z'
loop_
 _atom_site_type_symbol
 _atom_site_label
 _atom_site_symmetry_multiplicity
 _atom_site_fract_x
 _atom_site_fract_y
 _atom_site_fract_z
 _atom_site_occupancy
  Cs  Cs0  1  0.33333300  0.66666700  0.95354600  1
  Cs  Cs1  1  0.66666700  0.33333300  0.45354600  1
  Cs  Cs2  1  0.66666700  0.33333300  0.04645400  1
  Cs  Cs3  1  0.33333300  0.66666700  0.54645400  1
  U  U0  1  0.33333300  0.66666700  0.25000000  1
  U  U1  1  0.66666700  0.33333300  0.75000000  1
  Nb  Nb0  1  0.18065900  0.19697500  0.31607300  1
  Nb  Nb1  1  0.01631600  0.81934100  0.31607300  1
  Nb  Nb2  1  0.80302500  0.98368400  0.31607300  1
  Nb  Nb3  1  0.98368400  0.80302500  0.81607300  1
  Nb  Nb4  1  0.81934100  0.01631600  0.81607300  1
  Nb  Nb5  1  0.19697500  0.18065900  0.81607300  1
  Nb  Nb6  1  0.81934100  0.80302500  0.68392700  1
  Nb  Nb7  1  0.98368400  0.18065900  0.68392700  1
  Nb  Nb8  1  0.19697500  0.01631600  0.68392700  1
  Nb  Nb9  1  0.01631600  0.19697500  0.18392700  1
  Nb  Nb10  1  0.18065900  0.98368400  0.18392700  1
  Nb  Nb11  1  0.80302500  0.81934100  0.18392700  1
  Cl  Cl0  1  0.39725100  0.47739900  0.38081800  1
  Cl  Cl1  1  0.08014800  0.60274900  0.38081800  1
  Cl  Cl2  1  0.52260100  0.91985200  0.38081800  1
  Cl  Cl3  1  0.91985200  0.52260100  0.88081800  1
  Cl  Cl4  1  0.60274900  0.08014800  0.88081800  1
  Cl  Cl5  1  0.47739900  0.39725100  0.88081800  1
  Cl  Cl6  1  0.60274900  0.52260100  0.61918200  1
  Cl  Cl7  1  0.91985200  0.39725100  0.61918200  1
  Cl  Cl8  1  0.47739900  0.08014800  0.61918200  1
  Cl  Cl9  1  0.08014800  0.47739900  0.11918200  1
  Cl  Cl10  1  0.39725100  0.91985200  0.11918200  1
  Cl  Cl11  1  0.52260100  0.60274900  0.11918200  1
  Cl  Cl12  1  0.57683500  0.78841800  0.75000000  1
  Cl  Cl13  1  0.21158200  0.42316500  0.75000000  1
  Cl  Cl14  1  0.21158200  0.78841800  0.75000000  1
  Cl  Cl15  1  0.78841800  0.21158200  0.25000000  1
  Cl  Cl16  1  0.42316500  0.21158200  0.25000000  1
  Cl  Cl17  1  0.78841800  0.57683500  0.25000000  1
  Cl  Cl18  1  0.78212800  0.80058900  0.91093400  1
  Cl  Cl19  1  0.01846100  0.21787200  0.91093400  1
  Cl  Cl20  1  0.19941100  0.98153900  0.91093400  1
  Cl  Cl21  1  0.98153900  0.19941100  0.41093400  1
  Cl  Cl22  1  0.21787200  0.01846100  0.41093400  1
  Cl  Cl23  1  0.80058900  0.78212800  0.41093400  1
  Cl  Cl24  1  0.21787200  0.19941100  0.08906600  1
  Cl  Cl25  1  0.98153900  0.78212800  0.08906600  1
  Cl  Cl26  1  0.80058900  0.01846100  0.08906600  1
  Cl  Cl27  1  0.01846100  0.80058900  0.58906600  1
  Cl  Cl28  1  0.78212800  0.98153900  0.58906600  1
  Cl  Cl29  1  0.19941100  0.21787200  0.58906600  1
  O  O0  1  0.81125800  0.18874200  0.75000000  1
  O  O1  1  0.37748400  0.18874200  0.75000000  1
  O  O2  1  0.81125800  0.62251600  0.75000000  1
  O  O3  1  0.62251600  0.81125800  0.25000000  1
  O  O4  1  0.18874200  0.37748400  0.25000000  1
  O  O5  1  0.18874200  0.81125800  0.25000000  1
loop_
_geom_bond_atom_site_label_1
_geom_bond_atom_site_label_2
_geom_bond_distance
_geom_bond_site_symmetry_2
Nb0 O4 2.013628 1_555
Nb1 O5 2.013628 1_555
Nb2 O3 2.013628 1_555
Nb3 O2 2.013628 1_555
Nb4 O0 2.013628 1_555
Nb5 O1 2.013628 1_555
Nb6 O2 2.013628 1_555
Nb7 O0 2.013628 1_555
Nb8 O1 2.013628 1_555
Nb9 O4 2.013628 1_555
Nb10 O5 2.013628 1_555
Nb11 O3 2.013628 1_555
Cl0 Nb0 2.626291 1_555
Cl0 U0 3.136959 1_555
Cl0 Cs1 3.611602 1_555
Cl0 Cs3 3.615665 1_555
Cl1 Nb1 2.626291 1_555
Cl1 U0 3.136953 1_555
Cl1 Cs1 3.611596 1_455
Cl1 Cs3 3.615659 1_555
Cl2 Nb2 2.626291 1_555
Cl2 U0 3.136955 1_555
Cl2 Cs1 3.611594 1_565
Cl2 Cs3 3.615661 1_555
Cl3 Nb3 2.626291 1_555
Cl3 U1 3.136955 1_555
Cl3 Cs0 3.611594 1_655
Cl3 Cs2 3.615661 1_556
Cl4 Nb4 2.626291 1_555
Cl4 U1 3.136953 1_555
Cl4 Cs0 3.611596 1_545
Cl4 Cs2 3.615659 1_556
Cl5 Nb5 2.626291 1_555
Cl5 U1 3.136959 1_555
Cl5 Cs0 3.611602 1_555
Cl5 Cs2 3.615665 1_556
Cl6 Nb6 2.626291 1_555
Cl6 U1 3.136959 1_555
Cl6 Cs3 3.611602 1_555
Cl6 Cs1 3.615665 1_555
Cl7 Nb7 2.626291 1_555
Cl7 U1 3.136953 1_555
Cl7 Cs3 3.611596 1_655
Cl7 Cs1 3.615659 1_555
Cl8 Nb8 2.626291 1_555
Cl8 U1 3.136955 1_555
Cl8 Cs3 3.611594 1_545
Cl8 Cs1 3.615661 1_555
Cl9 Nb9 2.626291 1_555
Cl9 U0 3.136955 1_555
Cl9 Cs2 3.611594 1_455
Cl9 Cs0 3.615661 1_554
Cl10 Nb10 2.626291 1_555
Cl10 U0 3.136953 1_555
Cl10 Cs2 3.611596 1_565
Cl10 Cs0 3.615659 1_554
Cl11 Nb11 2.626291 1_555
Cl11 U0 3.136959 1_555
Cl11 Cs2 3.611602 1_555
Cl11 Cs0 3.615665 1_554
Cl12 Nb4 2.479455 1_565
Cl12 Nb6 2.479459 1_555
Cl13 Nb7 2.479455 1_455
Cl13 Nb5 2.479459 1_555
Cl14 Nb3 2.479451 1_455
Cl14 Nb8 2.479451 1_565
Cl15 Nb9 2.479451 1_655
Cl15 Nb2 2.479451 1_545
Cl16 Nb10 2.479455 1_545
Cl16 Nb0 2.479459 1_555
Cl17 Nb1 2.479455 1_655
Cl17 Nb11 2.479459 1_555
Cl18 Nb4 2.501142 1_565
Cl18 Nb3 2.505353 1_555
Cl18 Cs0 3.780280 1_555
Cl19 Nb5 2.501142 1_555
Cl19 Nb4 2.505352 1_455
Cl19 Cs0 3.780278 1_555
Cl20 Nb3 2.501141 1_455
Cl20 Nb5 2.505353 1_565
Cl20 Cs0 3.780271 1_555
Cl21 Nb2 2.501141 1_545
Cl21 Nb0 2.505353 1_655
Cl21 Cs1 3.780271 1_555
Cl22 Nb0 2.501142 1_555
Cl22 Nb1 2.505352 1_545
Cl22 Cs1 3.780278 1_555
Cl23 Nb1 2.501142 1_655
Cl23 Nb2 2.505353 1_555
Cl23 Cs1 3.780280 1_555
Cl24 Nb10 2.501142 1_545
Cl24 Nb9 2.505353 1_555
Cl24 Cs2 3.780280 1_555
Cl25 Nb11 2.501142 1_555
Cl25 Nb10 2.505352 1_655
Cl25 Cs2 3.780278 1_555
Cl26 Nb9 2.501141 1_655
Cl26 Nb11 2.505353 1_545
Cl26 Cs2 3.780271 1_555
Cl27 Nb8 2.501141 1_565
Cl27 Nb6 2.505353 1_455
Cl27 Cs3 3.780271 1_555
Cl28 Nb6 2.501142 1_555
Cl28 Nb7 2.505352 1_565
Cl28 Cs3 3.780278 1_555
Cl29 Nb7 2.501142 1_455
Cl29 Nb8 2.505353 1_555
Cl29 Cs3 3.780280 1_555
O0 U1 2.324721 1_555
O1 U1 2.324729 1_555
O2 U1 2.324729 1_555
O3 U0 2.324729 1_555
O4 U0 2.324729 1_555
O5 U0 2.324721 1_555
