# generated using pymatgen
data_CaTiO2
_symmetry_space_group_name_H-M   'P 1'
_cell_length_a   9.27251227
_cell_length_b   9.27251227
_cell_length_c   11.76405020
_cell_angle_alpha   51.45701567
_cell_angle_beta   51.45701567
_cell_angle_gamma   18.33519992
_symmetry_Int_Tables_number   1
_chemical_formula_structural   CaTiO2
_chemical_formula_sum   'Ca4 Ti4 O8'
_cell_volume   246.79845008
_cell_formula_units_Z   4
loop_
 _symmetry_equiv_pos_site_id
 _symmetry_equiv_pos_as_xyz
  1  'x, y, z'
loop_
 _atom_site_type_symbol
 _atom_site_label
 _atom_site_symmetry_multiplicity
 _atom_site_fract_x
 _atom_site_fract_y
 _atom_site_fract_z
 _atom_site_occupancy
  Ca  Ca0  1  0.63451900  0.63451900  0.93429200  1
  Ca  Ca1  1  0.36548100  0.36548100  0.06570800  1
  Ca  Ca2  1  0.93252200  0.93252200  0.27434600  1
  Ca  Ca3  1  0.06747800  0.06747800  0.72565400  1
  Ti  Ti0  1  0.33655400  0.33655400  0.85015600  1
  Ti  Ti1  1  0.79424500  0.79424500  0.61552400  1
  Ti  Ti2  1  0.20575500  0.20575500  0.38447600  1
  Ti  Ti3  1  0.66344600  0.66344600  0.14984400  1
  O  O0  1  0.17334200  0.17334200  0.26690800  1
  O  O1  1  0.64396600  0.64396600  0.53874800  1
  O  O2  1  0.35603400  0.35603400  0.46125200  1
  O  O3  1  0.82665800  0.82665800  0.73309200  1
  O  O4  1  0.90999000  0.90999000  0.86608200  1
  O  O5  1  0.19269000  0.19269000  0.73796300  1
  O  O6  1  0.09001000  0.09001000  0.13391800  1
  O  O7  1  0.80731000  0.80731000  0.26203700  1
loop_
_geom_bond_atom_site_label_1
_geom_bond_atom_site_label_2
_geom_bond_distance
_geom_bond_site_symmetry_2
Ca0 O5 2.355008 1_565
Ca0 O5 2.355008 1_655
Ca0 O6 2.438415 1_656
Ca0 O6 2.438415 1_566
Ca0 O3 2.732448 1_555
Ca1 O7 2.355008 1_545
Ca1 O7 2.355008 1_455
Ca1 O4 2.438415 1_544
Ca1 O4 2.438415 1_454
Ca1 O0 2.732448 1_555
Ca2 O6 2.242729 1_665
Ca2 O2 2.256390 1_655
Ca2 O2 2.256390 1_565
Ca2 O7 2.386438 1_555
Ca3 O4 2.242729 1_445
Ca3 O1 2.256390 1_455
Ca3 O1 2.256390 1_545
Ca3 O5 2.386438 1_555
O0 Ti2 1.816893 1_555
O0 Ti3 2.103997 1_545
O0 Ti3 2.103997 1_455
O1 Ti2 2.040662 1_565
O1 Ti2 2.040662 1_655
O2 Ti1 2.040662 1_455
O2 Ti1 2.040662 1_545
O3 Ti1 1.816893 1_555
O3 Ti0 2.103997 1_565
O3 Ti0 2.103997 1_655
O4 Ti0 2.084029 1_565
O4 Ti0 2.084029 1_655
O5 Ti1 2.081708 1_545
O5 Ti1 2.081708 1_455
O6 Ti3 2.084029 1_455
O6 Ti3 2.084029 1_545
O7 Ti2 2.081708 1_655
O7 Ti2 2.081708 1_565
