# generated using pymatgen
data_Ce2Mg
_symmetry_space_group_name_H-M   'P 1'
_cell_length_a   13.59096212
_cell_length_b   13.59096212
_cell_length_c   13.59096212
_cell_angle_alpha   148.44809044
_cell_angle_beta   148.44809044
_cell_angle_gamma   45.22432727
_symmetry_Int_Tables_number   1
_chemical_formula_structural   Ce2Mg
_chemical_formula_sum   'Ce16 Mg8'
_cell_volume   685.19765057
_cell_formula_units_Z   8
loop_
 _symmetry_equiv_pos_site_id
 _symmetry_equiv_pos_as_xyz
  1  'x, y, z'
loop_
 _atom_site_type_symbol
 _atom_site_label
 _atom_site_symmetry_multiplicity
 _atom_site_fract_x
 _atom_site_fract_y
 _atom_site_fract_z
 _atom_site_occupancy
  Ce  Ce0_0  1  0.33237800  0.33237800  0.00000000  1
  Ce  Ce0_1  1  0.33237800  0.33237800  0.50000000  1
  Ce  Ce0_2  1  0.33237800  0.83237800  0.00000000  1
  Ce  Ce0_3  1  0.33237800  0.83237800  0.50000000  1
  Ce  Ce0_4  1  0.83237800  0.33237800  0.00000000  1
  Ce  Ce0_5  1  0.83237800  0.33237800  0.50000000  1
  Ce  Ce0_6  1  0.83237800  0.83237800  0.00000000  1
  Ce  Ce0_7  1  0.83237800  0.83237800  0.50000000  1
  Ce  Ce1_0  1  0.16762200  0.16762200  0.00000000  1
  Ce  Ce1_1  1  0.16762200  0.16762200  0.50000000  1
  Ce  Ce1_2  1  0.16762200  0.66762200  0.00000000  1
  Ce  Ce1_3  1  0.16762200  0.66762200  0.50000000  1
  Ce  Ce1_4  1  0.66762200  0.16762200  0.00000000  1
  Ce  Ce1_5  1  0.66762200  0.16762200  0.50000000  1
  Ce  Ce1_6  1  0.66762200  0.66762200  0.00000000  1
  Ce  Ce1_7  1  0.66762200  0.66762200  0.50000000  1
  Mg  Mg0_0  1  0.00000000  0.00000000  0.00000000  1
  Mg  Mg0_1  1  0.00000000  0.00000000  0.50000000  1
  Mg  Mg0_2  1  0.00000000  0.50000000  0.00000000  1
  Mg  Mg0_3  1  0.00000000  0.50000000  0.50000000  1
  Mg  Mg0_4  1  0.50000000  0.00000000  0.00000000  1
  Mg  Mg0_5  1  0.50000000  0.00000000  0.50000000  1
  Mg  Mg0_6  1  0.50000000  0.50000000  0.00000000  1
  Mg  Mg0_7  1  0.50000000  0.50000000  0.50000000  1
loop_
_geom_bond_atom_site_label_1
_geom_bond_atom_site_label_2
_geom_bond_distance
_geom_bond_site_symmetry_2
Ce0_0 Mg0_4 3.331590 1_555
Ce0_0 Mg0_7 3.331590 1_555
Ce0_0 Mg0_2 3.331590 1_555
Ce0_0 Mg0_1 3.331590 1_554
Ce0_0 Ce1_1 3.376680 1_554
Ce0_0 Ce1_2 3.376680 1_555
Ce0_0 Ce1_4 3.376680 1_555
Ce0_0 Ce1_7 3.376680 1_555
Ce0_0 Ce0_5 3.695062 1_555
Ce0_0 Ce0_5 3.695062 1_454
Ce0_0 Ce0_3 3.695062 1_544
Ce0_0 Ce0_3 3.695062 1_555
Ce0_1 Mg0_5 3.331590 1_555
Ce0_1 Mg0_6 3.331590 1_556
Ce0_1 Mg0_0 3.331590 1_555
Ce0_1 Mg0_3 3.331590 1_555
Ce0_1 Ce1_3 3.376680 1_555
Ce0_1 Ce1_5 3.376680 1_555
Ce0_1 Ce1_0 3.376680 1_555
Ce0_1 Ce1_6 3.376680 1_556
Ce0_1 Ce0_4 3.695062 1_556
Ce0_1 Ce0_2 3.695062 1_556
Ce0_1 Ce0_4 3.695062 1_455
Ce0_1 Ce0_2 3.695062 1_545
Ce0_2 Mg0_6 3.331590 1_555
Ce0_2 Mg0_5 3.331590 1_565
Ce0_2 Mg0_3 3.331590 1_554
Ce0_2 Mg0_0 3.331590 1_565
Ce0_2 Ce1_5 3.376680 1_565
Ce0_2 Ce1_3 3.376680 1_554
Ce0_2 Ce1_0 3.376680 1_565
Ce0_2 Ce1_6 3.376680 1_555
Ce0_2 Ce0_7 3.695062 1_555
Ce0_2 Ce0_7 3.695062 1_454
Ce0_3 Mg0_1 3.331590 1_565
Ce0_3 Mg0_4 3.331590 1_566
Ce0_3 Mg0_7 3.331590 1_555
Ce0_3 Mg0_2 3.331590 1_555
Ce0_3 Ce1_1 3.376680 1_565
Ce0_3 Ce1_2 3.376680 1_555
Ce0_3 Ce1_7 3.376680 1_555
Ce0_3 Ce1_4 3.376680 1_566
Ce0_3 Ce0_6 3.695062 1_556
Ce0_3 Ce0_6 3.695062 1_455
Ce0_4 Mg0_3 3.331590 1_655
Ce0_4 Mg0_0 3.331590 1_655
Ce0_4 Mg0_5 3.331590 1_554
Ce0_4 Mg0_6 3.331590 1_555
Ce0_4 Ce1_3 3.376680 1_655
Ce0_4 Ce1_5 3.376680 1_554
Ce0_4 Ce1_0 3.376680 1_655
Ce0_4 Ce1_6 3.376680 1_555
Ce0_4 Ce0_7 3.695062 1_544
Ce0_4 Ce0_7 3.695062 1_555
Ce0_5 Mg0_2 3.331590 1_656
Ce0_5 Mg0_1 3.331590 1_655
Ce0_5 Mg0_4 3.331590 1_555
Ce0_5 Mg0_7 3.331590 1_555
Ce0_5 Ce1_1 3.376680 1_655
Ce0_5 Ce1_2 3.376680 1_656
Ce0_5 Ce1_4 3.376680 1_555
Ce0_5 Ce1_7 3.376680 1_555
Ce0_5 Ce0_6 3.695062 1_556
Ce0_5 Ce0_6 3.695062 1_545
Ce0_6 Mg0_1 3.331590 1_665
Ce0_6 Mg0_2 3.331590 1_655
Ce0_6 Mg0_7 3.331590 1_554
Ce0_6 Mg0_4 3.331590 1_565
Ce0_6 Ce1_1 3.376680 1_665
Ce0_6 Ce1_2 3.376680 1_655
Ce0_6 Ce1_4 3.376680 1_565
Ce0_6 Ce1_7 3.376680 1_554
Ce0_7 Mg0_3 3.331590 1_655
Ce0_7 Mg0_0 3.331590 1_666
Ce0_7 Mg0_5 3.331590 1_565
Ce0_7 Mg0_6 3.331590 1_555
Ce0_7 Ce1_0 3.376680 1_666
Ce0_7 Ce1_3 3.376680 1_655
Ce0_7 Ce1_5 3.376680 1_565
Ce0_7 Ce1_6 3.376680 1_555
Ce1_0 Mg0_7 3.331590 1_555
Ce1_0 Mg0_2 3.331590 1_555
Ce1_0 Mg0_1 3.331590 1_554
Ce1_0 Mg0_4 3.331590 1_555
Ce1_0 Ce1_5 3.695062 1_454
Ce1_0 Ce1_5 3.695062 1_555
Ce1_0 Ce1_3 3.695062 1_544
Ce1_0 Ce1_3 3.695062 1_555
Ce1_1 Mg0_6 3.331590 1_556
Ce1_1 Mg0_3 3.331590 1_555
Ce1_1 Mg0_0 3.331590 1_555
Ce1_1 Mg0_5 3.331590 1_555
Ce1_1 Ce1_4 3.695062 1_455
Ce1_1 Ce1_4 3.695062 1_556
Ce1_1 Ce1_2 3.695062 1_556
Ce1_1 Ce1_2 3.695062 1_545
Ce1_2 Mg0_5 3.331590 1_565
Ce1_2 Mg0_3 3.331590 1_554
Ce1_2 Mg0_0 3.331590 1_565
Ce1_2 Mg0_6 3.331590 1_555
Ce1_2 Ce1_7 3.695062 1_454
Ce1_2 Ce1_7 3.695062 1_555
Ce1_3 Mg0_7 3.331590 1_555
Ce1_3 Mg0_2 3.331590 1_555
Ce1_3 Mg0_1 3.331590 1_565
Ce1_3 Mg0_4 3.331590 1_566
Ce1_3 Ce1_6 3.695062 1_556
Ce1_3 Ce1_6 3.695062 1_455
Ce1_4 Mg0_3 3.331590 1_655
Ce1_4 Mg0_0 3.331590 1_655
Ce1_4 Mg0_5 3.331590 1_554
Ce1_4 Mg0_6 3.331590 1_555
Ce1_4 Ce1_7 3.695062 1_544
Ce1_4 Ce1_7 3.695062 1_555
Ce1_5 Mg0_4 3.331590 1_555
Ce1_5 Mg0_7 3.331590 1_555
Ce1_5 Mg0_2 3.331590 1_656
Ce1_5 Mg0_1 3.331590 1_655
Ce1_5 Ce1_6 3.695062 1_556
Ce1_5 Ce1_6 3.695062 1_545
Ce1_6 Mg0_7 3.331590 1_554
Ce1_6 Mg0_4 3.331590 1_565
Ce1_6 Mg0_1 3.331590 1_665
Ce1_6 Mg0_2 3.331590 1_655
Ce1_7 Mg0_6 3.331590 1_555
Ce1_7 Mg0_5 3.331590 1_565
Ce1_7 Mg0_3 3.331590 1_655
Ce1_7 Mg0_0 3.331590 1_666
