# generated using pymatgen
data_GdHo3
_symmetry_space_group_name_H-M   'P 1'
_cell_length_a   6.16359879
_cell_length_b   6.16359879
_cell_length_c   6.16359879
_cell_angle_alpha   132.03864127
_cell_angle_beta   132.03864127
_cell_angle_gamma   70.16800405
_symmetry_Int_Tables_number   1
_chemical_formula_structural   GdHo3
_chemical_formula_sum   'Gd1 Ho3'
_cell_volume   126.60460620
_cell_formula_units_Z   1
loop_
 _symmetry_equiv_pos_site_id
 _symmetry_equiv_pos_as_xyz
  1  'x, y, z'
loop_
 _atom_site_type_symbol
 _atom_site_label
 _atom_site_symmetry_multiplicity
 _atom_site_fract_x
 _atom_site_fract_y
 _atom_site_fract_z
 _atom_site_occupancy
  Gd  Gd0  1  0.00000000  0.00000000  0.00000000  1
  Ho  Ho0  1  0.75000000  0.25000000  0.50000000  1
  Ho  Ho1  1  0.25000000  0.75000000  0.50000000  1
  Ho  Ho2  1  0.50000000  0.50000000  0.00000000  1
loop_
_geom_bond_atom_site_label_1
_geom_bond_atom_site_label_2
_geom_bond_distance
_geom_bond_site_symmetry_2
Gd0 Ho2 3.542694 1_556
Gd0 Ho2 3.542694 1_444
Gd0 Ho2 3.542694 1_545
Gd0 Ho2 3.542694 1_455
Gd0 Ho1 3.554597 1_545
Gd0 Ho0 3.554597 1_454
Gd0 Ho1 3.554597 1_544
Gd0 Ho0 3.554597 1_444
Gd0 Ho1 3.554597 1_555
Gd0 Ho0 3.554597 1_455
Gd0 Ho1 3.554597 1_444
Gd0 Ho0 3.554597 1_555
Ho0 Ho1 3.542694 1_555
Ho0 Ho1 3.542694 1_656
Ho0 Ho1 3.542694 1_645
Ho0 Ho1 3.542694 1_544
Ho0 Ho2 3.554597 1_556
Ho0 Ho2 3.554597 1_545
Ho0 Ho2 3.554597 1_555
Ho0 Ho2 3.554597 1_656
Ho1 Ho2 3.554597 1_556
Ho1 Ho2 3.554597 1_566
Ho1 Ho2 3.554597 1_555
Ho1 Ho2 3.554597 1_455
