# generated using pymatgen
data_CaP6(HN3)4
_symmetry_space_group_name_H-M   'P 1'
_cell_length_a   4.95135000
_cell_length_b   5.01894548
_cell_length_c   22.46550200
_cell_angle_alpha   90.00000000
_cell_angle_beta   90.00000000
_cell_angle_gamma   119.55547114
_symmetry_Int_Tables_number   1
_chemical_formula_structural   CaP6(HN3)4
_chemical_formula_sum   'Ca2 P12 H8 N24'
_cell_volume   485.63597670
_cell_formula_units_Z   2
loop_
 _symmetry_equiv_pos_site_id
 _symmetry_equiv_pos_as_xyz
  1  'x, y, z'
loop_
 _atom_site_type_symbol
 _atom_site_label
 _atom_site_symmetry_multiplicity
 _atom_site_fract_x
 _atom_site_fract_y
 _atom_site_fract_z
 _atom_site_occupancy
  Ca  Ca0  1  0.50000000  0.00000000  0.50000000  1
  Ca  Ca1  1  0.00000000  0.00000000  0.00000000  1
  P  P0  1  0.84099400  0.67244500  0.40553500  1
  P  P1  1  0.83145100  0.67244500  0.59446500  1
  P  P2  1  0.33145100  0.67244500  0.90553500  1
  P  P3  1  0.34099400  0.67244500  0.09446500  1
  P  P4  1  0.15900600  0.32755500  0.59446500  1
  P  P5  1  0.16854900  0.32755500  0.40553500  1
  P  P6  1  0.66854900  0.32755500  0.09446500  1
  P  P7  1  0.65900600  0.32755500  0.90553500  1
  P  P8  1  0.91982500  0.00000000  0.28648300  1
  P  P9  1  0.08017500  0.00000000  0.71351700  1
  P  P10  1  0.58017500  0.00000000  0.78648300  1
  P  P11  1  0.41982500  0.00000000  0.21351700  1
  H  H0  1  0.28001000  0.49904700  0.30780700  1
  H  H1  1  0.21903700  0.49904700  0.69219300  1
  H  H2  1  0.71903700  0.49904700  0.80780700  1
  H  H3  1  0.78001000  0.49904700  0.19219300  1
  H  H4  1  0.71999000  0.50095300  0.69219300  1
  H  H5  1  0.78096300  0.50095300  0.30780700  1
  H  H6  1  0.28096300  0.50095300  0.19219300  1
  H  H7  1  0.21999000  0.50095300  0.80780700  1
  N  N0  1  0.13872900  0.29916900  0.32998600  1
  N  N1  1  0.16044000  0.29916900  0.67001400  1
  N  N2  1  0.66044000  0.29916900  0.82998600  1
  N  N3  1  0.63872900  0.29916900  0.17001400  1
  N  N4  1  0.86127100  0.70083100  0.67001400  1
  N  N5  1  0.83956000  0.70083100  0.32998600  1
  N  N6  1  0.33956000  0.70083100  0.17001400  1
  N  N7  1  0.36127100  0.70083100  0.82998600  1
  N  N8  1  0.11664800  0.60677300  0.42663100  1
  N  N9  1  0.49012500  0.60677300  0.57336900  1
  N  N10  1  0.99012500  0.60677300  0.92663100  1
  N  N11  1  0.61664800  0.60677300  0.07336900  1
  N  N12  1  0.88335200  0.39322700  0.57336900  1
  N  N13  1  0.50987500  0.39322700  0.42663100  1
  N  N14  1  0.00987500  0.39322700  0.07336900  1
  N  N15  1  0.38335200  0.39322700  0.92663100  1
  N  N16  1  0.59833400  0.00000000  0.27251600  1
  N  N17  1  0.40166600  0.00000000  0.72748400  1
  N  N18  1  0.90166600  0.00000000  0.77251600  1
  N  N19  1  0.09833400  0.00000000  0.22748400  1
  N  N20  1  0.90417700  0.00000000  0.43042800  1
  N  N21  1  0.09582300  0.00000000  0.56957200  1
  N  N22  1  0.59582300  0.00000000  0.93042800  1
  N  N23  1  0.40417700  0.00000000  0.06957200  1
loop_
_geom_bond_atom_site_label_1
_geom_bond_atom_site_label_2
_geom_bond_distance
_geom_bond_site_symmetry_2
Ca0 N21 2.539245 1_555
Ca0 N20 2.539245 1_555
Ca0 N12 2.553239 1_555
Ca0 N13 2.553239 1_555
Ca0 N8 2.553239 1_545
Ca0 N9 2.553239 1_545
Ca1 N22 2.539245 1_454
Ca1 N23 2.539245 1_555
Ca1 N10 2.553239 1_444
Ca1 N15 2.553239 1_554
Ca1 N11 2.553239 1_445
Ca1 N14 2.553239 1_555
H0 N0 1.025510 1_555
H1 N1 1.025510 1_555
H2 N2 1.025510 1_555
H3 N3 1.025510 1_555
H4 N4 1.025510 1_555
H5 N5 1.025510 1_555
H6 N6 1.025510 1_555
H7 N7 1.025510 1_555
N0 P8 1.667014 1_455
N0 P5 1.703523 1_555
N1 P9 1.667014 1_555
N1 P4 1.703523 1_555
N2 P10 1.667014 1_555
N2 P7 1.703523 1_555
N3 P11 1.667014 1_555
N3 P6 1.703523 1_555
N4 P9 1.667014 1_665
N4 P1 1.703523 1_555
N5 P8 1.667014 1_565
N5 P0 1.703523 1_555
N6 P11 1.667014 1_565
N6 P3 1.703523 1_555
N7 P10 1.667014 1_565
N7 P2 1.703523 1_555
N8 P5 1.615485 1_555
N8 P0 1.624776 1_455
N9 P4 1.615485 1_555
N9 P1 1.624776 1_555
N10 P7 1.615485 1_555
N10 P2 1.624776 1_655
N11 P6 1.615485 1_555
N11 P3 1.624776 1_555
N12 P1 1.615485 1_555
N12 P4 1.624776 1_655
N13 P0 1.615485 1_555
N13 P5 1.624776 1_555
N14 P3 1.615485 1_555
N14 P6 1.624776 1_455
N15 P2 1.615485 1_555
N15 P7 1.624776 1_555
N16 P11 1.593112 1_555
N16 P8 1.622445 1_555
N17 P10 1.593112 1_555
N17 P9 1.622445 1_555
N18 P9 1.593112 1_655
N18 P10 1.622445 1_555
N19 P8 1.593112 1_455
N19 P11 1.622445 1_555
N20 P5 1.614282 1_655
N20 P0 1.614282 1_545
N21 P4 1.614282 1_555
N21 P1 1.614282 1_445
N22 P7 1.614282 1_555
N22 P2 1.614282 1_545
N23 P6 1.614282 1_555
N23 P3 1.614282 1_545
