# generated using pymatgen
data_Li9Mn2Co5O16
_symmetry_space_group_name_H-M   'P 1'
_cell_length_a   5.90593900
_cell_length_b   5.91649273
_cell_length_c   8.11604826
_cell_angle_alpha   90.80690047
_cell_angle_beta   90.77536170
_cell_angle_gamma   93.61859495
_symmetry_Int_Tables_number   1
_chemical_formula_structural   Li9Mn2Co5O16
_chemical_formula_sum   'Li9 Mn2 Co5 O16'
_cell_volume   282.97154894
_cell_formula_units_Z   1
loop_
 _symmetry_equiv_pos_site_id
 _symmetry_equiv_pos_as_xyz
  1  'x, y, z'
loop_
 _atom_site_type_symbol
 _atom_site_label
 _atom_site_symmetry_multiplicity
 _atom_site_fract_x
 _atom_site_fract_y
 _atom_site_fract_z
 _atom_site_occupancy
  Li  Li0  1  0.49984800  0.00140500  0.00507700  1
  Li  Li1  1  0.24680800  0.74212200  0.75502400  1
  Li  Li2  1  0.75390500  0.74012400  0.24780300  1
  Li  Li3  1  0.49777700  0.49785700  0.00387500  1
  Li  Li4  1  0.00033200  0.50035800  0.49579800  1
  Li  Li5  1  0.75333900  0.26107000  0.24599000  1
  Li  Li6  1  0.24551600  0.25878000  0.75214000  1
  Li  Li7  1  0.00412600  0.00113100  0.49585600  1
  Li  Li8  1  0.99982000  0.50233700  0.00359500  1
  Mn  Mn0  1  0.00230100  0.00154100  0.00111100  1
  Mn  Mn1  1  0.75298900  0.73949400  0.75029800  1
  Co  Co0  1  0.49908100  0.49752000  0.49967000  1
  Co  Co1  1  0.24253400  0.26205400  0.24814400  1
  Co  Co2  1  0.75324900  0.24481400  0.75044600  1
  Co  Co3  1  0.50201100  0.99596000  0.49819500  1
  Co  Co4  1  0.24607700  0.75304400  0.24927400  1
  O  O0  1  0.24267900  0.23946500  0.00864800  1
  O  O1  1  0.99871800  0.97673100  0.76029500  1
  O  O2  1  0.48107200  0.99336500  0.26330100  1
  O  O3  1  0.22747600  0.77663700  0.01427200  1
  O  O4  1  0.73940200  0.73270700  0.51078200  1
  O  O5  1  0.49163700  0.48612100  0.26206400  1
  O  O6  1  0.96387000  0.50505400  0.74830100  1
  O  O7  1  0.73588300  0.23568100  0.51472700  1
  O  O8  1  0.75697200  0.76251900  0.98650000  1
  O  O9  1  0.50432800  0.51156400  0.74205700  1
  O  O10  1  0.02069500  0.51616300  0.25109600  1
  O  O11  1  0.77267100  0.22956300  0.98170900  1
  O  O12  1  0.26357900  0.26290100  0.49180700  1
  O  O13  1  0.99985300  0.02567900  0.23652400  1
  O  O14  1  0.53491800  0.98425700  0.73751900  1
  O  O15  1  0.26653500  0.76198200  0.48810000  1
loop_
_geom_bond_atom_site_label_1
_geom_bond_atom_site_label_2
_geom_bond_distance
_geom_bond_site_symmetry_2
Li0 O3 2.024275 1_545
Li0 O11 2.048249 1_554
Li0 O2 2.101236 1_545
Li0 O0 2.135781 1_555
Li0 O8 2.144173 1_544
Li0 O14 2.185700 1_544
Li1 O1 2.081374 1_455
Li1 O9 2.108821 1_555
Li1 O6 2.112370 1_455
Li1 O3 2.116409 1_556
Li1 O14 2.161569 1_555
Li1 O15 2.175501 1_555
Li2 O5 2.094507 1_555
Li2 O10 2.121926 1_655
Li2 O8 2.126995 1_554
Li2 O4 2.138183 1_555
Li2 O13 2.161210 1_565
Li2 O2 2.272014 1_555
Li3 O0 2.078698 1_555
Li3 O5 2.098329 1_555
Li3 O8 2.127121 1_554
Li3 O9 2.128397 1_554
Li3 O11 2.347981 1_554
Li3 O3 2.368157 1_555
Li4 O10 1.994425 1_555
Li4 O6 2.063487 1_455
Li4 O4 2.132401 1_455
Li4 O15 2.137716 1_555
Li4 O7 2.149339 1_455
Li4 O12 2.160505 1_555
Li5 O13 2.078720 1_555
Li5 O5 2.106930 1_555
Li5 O10 2.113865 1_655
Li5 O11 2.155576 1_554
Li5 O7 2.191728 1_555
Li5 O2 2.192016 1_545
Li6 O9 2.073201 1_555
Li6 O0 2.086807 1_556
Li6 O12 2.117413 1_555
Li6 O1 2.147625 1_445
Li6 O6 2.279629 1_455
Li6 O14 2.433920 1_545
Li7 O12 2.109729 1_555
Li7 O13 2.111716 1_455
Li7 O1 2.153609 1_445
Li7 O4 2.162940 1_445
Li7 O15 2.164414 1_545
Li7 O7 2.176481 1_455
Li8 O10 2.011041 1_655
Li8 O11 2.036663 1_554
Li8 O3 2.041197 1_655
Li8 O6 2.080359 1_554
Li8 O8 2.173770 1_554
Li8 O0 2.181654 1_655
Mn0 O13 1.914265 1_455
Mn0 O0 1.934861 1_555
Mn0 O3 1.942705 1_545
Mn0 O1 1.957645 1_444
Mn0 O8 1.960927 1_444
Mn0 O11 1.978692 1_454
Mn1 O8 1.919667 1_555
Mn1 O6 1.921803 1_555
Mn1 O9 1.929917 1_555
Mn1 O4 1.944238 1_555
Mn1 O1 1.954313 1_555
Mn1 O14 2.000656 1_555
Co0 O12 1.901800 1_555
Co0 O4 1.924197 1_555
Co0 O5 1.928460 1_555
Co0 O9 1.967551 1_555
Co0 O15 2.148303 1_555
Co0 O7 2.155216 1_555
Co1 O5 1.918256 1_555
Co1 O13 1.938703 1_455
Co1 O0 1.946487 1_555
Co1 O12 1.979719 1_555
Co1 O10 2.055700 1_555
Co1 O2 2.193279 1_545
Co2 O11 1.882673 1_555
Co2 O7 1.914287 1_555
Co2 O6 1.917787 1_555
Co2 O14 1.947058 1_545
Co2 O1 2.216874 1_545
Co2 O9 2.224825 1_555
Co3 O15 1.899435 1_555
Co3 O2 1.908530 1_555
Co3 O7 1.918266 1_565
Co3 O14 1.952080 1_555
Co3 O4 2.162926 1_555
Co3 O12 2.181981 1_565
Co4 O10 1.871329 1_555
Co4 O3 1.916524 1_555
Co4 O2 1.924288 1_555
Co4 O15 1.940222 1_555
Co4 O5 2.213077 1_555
Co4 O13 2.241425 1_465
