# generated using pymatgen
data_Eu2Mg3H10
_symmetry_space_group_name_H-M   'P 1'
_cell_length_a   9.12648679
_cell_length_b   9.12648679
_cell_length_c   7.30441144
_cell_angle_alpha   69.95109052
_cell_angle_beta   69.95109052
_cell_angle_gamma   36.02671522
_symmetry_Int_Tables_number   1
_chemical_formula_structural   Eu2Mg3H10
_chemical_formula_sum   'Eu4 Mg6 H20'
_cell_volume   333.78034494
_cell_formula_units_Z   2
loop_
 _symmetry_equiv_pos_site_id
 _symmetry_equiv_pos_as_xyz
  1  'x, y, z'
loop_
 _atom_site_type_symbol
 _atom_site_label
 _atom_site_symmetry_multiplicity
 _atom_site_fract_x
 _atom_site_fract_y
 _atom_site_fract_z
 _atom_site_occupancy
  Eu  Eu0  1  0.61663500  0.61663500  0.27814900  1
  Eu  Eu1  1  0.38336500  0.38336500  0.72185100  1
  Eu  Eu2  1  0.72146400  0.72146400  0.68374300  1
  Eu  Eu3  1  0.27853600  0.27853600  0.31625700  1
  Mg  Mg0  1  0.74112300  0.25887700  0.00000000  1
  Mg  Mg1  1  0.25887700  0.74112300  0.00000000  1
  Mg  Mg2  1  0.82475300  0.82475300  0.02247000  1
  Mg  Mg3  1  0.17524700  0.17524700  0.97753000  1
  Mg  Mg4  1  0.92439800  0.92439800  0.44715800  1
  Mg  Mg5  1  0.07560200  0.07560200  0.55284200  1
  H  H0  1  0.86444900  0.86444900  0.74045300  1
  H  H1  1  0.13555100  0.13555100  0.25954700  1
  H  H2  1  0.60665500  0.16368900  0.02865300  1
  H  H3  1  0.39334500  0.83631100  0.97134700  1
  H  H4  1  0.83631100  0.39334500  0.97134700  1
  H  H5  1  0.16368900  0.60665500  0.02865300  1
  H  H6  1  0.76155700  0.23844300  0.50000000  1
  H  H7  1  0.23844300  0.76155700  0.50000000  1
  H  H8  1  0.97990900  0.97990900  0.17699600  1
  H  H9  1  0.02009100  0.02009100  0.82300400  1
  H  H10  1  0.48393300  0.48393300  0.19622400  1
  H  H11  1  0.51606700  0.51606700  0.80377600  1
  H  H12  1  0.75964300  0.75964300  0.29676300  1
  H  H13  1  0.24035700  0.24035700  0.70323700  1
  H  H14  1  0.50000000  0.00000000  0.00000000  1
  H  H15  1  0.00000000  0.50000000  0.00000000  1
  H  H16  1  0.59598800  0.09314100  0.48408900  1
  H  H17  1  0.40401200  0.90685900  0.51591100  1
  H  H18  1  0.90685900  0.40401200  0.51591100  1
  H  H19  1  0.09314100  0.59598800  0.48408900  1
loop_
_geom_bond_atom_site_label_1
_geom_bond_atom_site_label_2
_geom_bond_distance
_geom_bond_site_symmetry_2
Eu0 H17 2.515382 1_555
Eu0 H18 2.515382 1_555
Eu0 H12 2.534564 1_555
Eu0 H6 2.557180 1_555
Eu0 H7 2.557180 1_555
Eu0 H4 2.576179 1_554
Eu0 H3 2.576179 1_554
Eu0 H10 2.580300 1_555
Eu0 H1 2.838887 1_565
Eu0 H1 2.838887 1_655
Eu0 H15 2.843810 1_655
Eu0 H14 2.843810 1_565
Eu1 H16 2.515382 1_555
Eu1 H19 2.515382 1_555
Eu1 H13 2.534564 1_555
Eu1 H7 2.557180 1_555
Eu1 H6 2.557180 1_555
Eu1 H5 2.576179 1_556
Eu1 H2 2.576179 1_556
Eu1 H11 2.580300 1_555
Eu1 H0 2.838887 1_545
Eu1 H0 2.838887 1_455
Eu1 H15 2.843810 1_556
Eu1 H14 2.843810 1_556
Eu2 H17 2.417349 1_555
Eu2 H18 2.417349 1_555
Eu2 H19 2.532726 1_655
Eu2 H16 2.532726 1_565
Eu2 H4 2.568823 1_555
Eu2 H3 2.568823 1_555
Eu2 H0 2.659520 1_555
Eu2 H12 2.660564 1_555
Eu2 H13 2.850730 1_565
Eu2 H13 2.850730 1_655
Eu2 H15 2.897943 1_656
Eu2 H14 2.897943 1_566
Eu3 H16 2.417349 1_555
Eu3 H19 2.417349 1_555
Eu3 H18 2.532726 1_455
Eu3 H17 2.532726 1_545
Eu3 H5 2.568823 1_555
Eu3 H2 2.568823 1_555
Eu3 H1 2.659520 1_555
Eu3 H13 2.660564 1_555
Eu3 H12 2.850730 1_455
Eu3 H12 2.850730 1_545
Eu3 H15 2.897943 1_555
Eu3 H14 2.897943 1_555
H0 Mg2 1.922207 1_556
H0 Mg4 2.016234 1_555
H1 Mg3 1.922207 1_554
H1 Mg5 2.016234 1_555
H2 Mg2 1.899368 1_545
H2 Mg0 1.930865 1_555
H3 Mg3 1.899368 1_565
H3 Mg1 1.930865 1_556
H4 Mg3 1.899368 1_655
H4 Mg0 1.930865 1_556
H5 Mg2 1.899368 1_455
H5 Mg1 1.930865 1_555
H6 Mg4 2.011917 1_545
H6 Mg5 2.011917 1_655
H7 Mg5 2.011917 1_565
H7 Mg4 2.011917 1_455
H8 Mg4 1.857885 1_555
H8 Mg0 1.898218 1_565
H8 Mg1 1.898218 1_655
H9 Mg5 1.857885 1_555
H9 Mg0 1.898218 1_456
H9 Mg1 1.898218 1_546
H10 Mg1 1.922581 1_555
H10 Mg0 1.922581 1_555
H11 Mg0 1.922581 1_556
H11 Mg1 1.922581 1_556
H12 Mg2 1.912840 1_555
H13 Mg3 1.912840 1_555
H14 Mg2 1.963544 1_545
H14 Mg3 1.963544 1_554
H15 Mg2 1.963544 1_455
H15 Mg3 1.963544 1_554
H16 Mg4 1.921535 1_545
H17 Mg5 1.921535 1_565
H18 Mg5 1.921535 1_655
H19 Mg4 1.921535 1_455
