# generated using pymatgen
data_Eu(In2Au)2
_symmetry_space_group_name_H-M   'P 1'
_cell_length_a   4.71755100
_cell_length_b   7.54058100
_cell_length_c   18.89985600
_cell_angle_alpha   90.00000000
_cell_angle_beta   90.00000000
_cell_angle_gamma   90.00000000
_symmetry_Int_Tables_number   1
_chemical_formula_structural   Eu(In2Au)2
_chemical_formula_sum   'Eu4 In16 Au8'
_cell_volume   672.32600324
_cell_formula_units_Z   4
loop_
 _symmetry_equiv_pos_site_id
 _symmetry_equiv_pos_as_xyz
  1  'x, y, z'
loop_
 _atom_site_type_symbol
 _atom_site_label
 _atom_site_symmetry_multiplicity
 _atom_site_fract_x
 _atom_site_fract_y
 _atom_site_fract_z
 _atom_site_occupancy
  Eu  Eu0  1  0.75000000  0.97315700  0.85816700  1
  Eu  Eu1  1  0.75000000  0.52684300  0.35816700  1
  Eu  Eu2  1  0.25000000  0.02684300  0.14183300  1
  Eu  Eu3  1  0.25000000  0.47315700  0.64183300  1
  In  In0  1  0.25000000  0.00898100  0.56883700  1
  In  In1  1  0.25000000  0.49101900  0.06883700  1
  In  In2  1  0.75000000  0.99101900  0.43116300  1
  In  In3  1  0.75000000  0.50898100  0.93116300  1
  In  In4  1  0.25000000  0.14741100  0.96472100  1
  In  In5  1  0.25000000  0.35258900  0.46472100  1
  In  In6  1  0.75000000  0.85258900  0.03527900  1
  In  In7  1  0.75000000  0.64741100  0.53527900  1
  In  In8  1  0.25000000  0.26626900  0.81128800  1
  In  In9  1  0.25000000  0.23373100  0.31128800  1
  In  In10  1  0.75000000  0.73373100  0.18871200  1
  In  In11  1  0.75000000  0.76626900  0.68871200  1
  In  In12  1  0.25000000  0.67172800  0.81382800  1
  In  In13  1  0.25000000  0.82827200  0.31382800  1
  In  In14  1  0.75000000  0.32827200  0.18617200  1
  In  In15  1  0.75000000  0.17172800  0.68617200  1
  Au  Au0  1  0.25000000  0.96650500  0.71888300  1
  Au  Au1  1  0.25000000  0.53349500  0.21888300  1
  Au  Au2  1  0.75000000  0.03349500  0.28111700  1
  Au  Au3  1  0.75000000  0.46650500  0.78111700  1
  Au  Au4  1  0.25000000  0.75422200  0.96008200  1
  Au  Au5  1  0.25000000  0.74577800  0.46008200  1
  Au  Au6  1  0.75000000  0.24577800  0.03991800  1
  Au  Au7  1  0.75000000  0.25422200  0.53991800  1
loop_
_geom_bond_atom_site_label_1
_geom_bond_atom_site_label_2
_geom_bond_distance
_geom_bond_site_symmetry_2
Eu0 In8 3.351711 1_565
Eu0 In8 3.351711 1_665
Eu0 In4 3.368378 1_565
Eu0 In4 3.368378 1_665
Eu0 In12 3.381178 1_655
Eu0 In12 3.381178 1_555
Eu0 In6 3.468658 1_556
Eu0 In11 3.562429 1_555
Eu0 In15 3.578960 1_565
Eu0 In3 3.762238 1_555
Eu1 In9 3.351711 1_555
Eu1 In9 3.351711 1_655
Eu1 In5 3.368378 1_555
Eu1 In5 3.368378 1_655
Eu1 In13 3.381178 1_555
Eu1 In13 3.381178 1_655
Eu1 In7 3.468658 1_555
Eu1 In10 3.562429 1_555
Eu1 In14 3.578960 1_555
Eu1 In2 3.762238 1_555
Eu2 In10 3.351711 1_445
Eu2 In10 3.351711 1_545
Eu2 In6 3.368378 1_545
Eu2 In6 3.368378 1_445
Eu2 In14 3.381178 1_555
Eu2 In14 3.381178 1_455
Eu2 In4 3.468658 1_554
Eu2 In9 3.562429 1_555
Eu2 In13 3.578960 1_545
Eu2 In1 3.762238 1_555
Eu3 In11 3.351711 1_455
Eu3 In11 3.351711 1_555
Eu3 In7 3.368378 1_555
Eu3 In7 3.368378 1_455
Eu3 In15 3.381178 1_555
Eu3 In15 3.381178 1_455
Eu3 In5 3.468658 1_555
Eu3 In8 3.562429 1_555
Eu3 In12 3.578960 1_555
Eu3 In0 3.762238 1_555
In0 In5 3.253529 1_555
In0 In15 3.462322 1_555
In0 In15 3.462322 1_455
In1 In4 3.253529 1_554
In1 In14 3.462322 1_455
In1 In14 3.462322 1_555
In2 In7 3.253529 1_555
In3 In6 3.253529 1_556
In4 In8 3.035206 1_555
In5 In9 3.035206 1_555
In10 In6 3.035206 1_555
In10 In14 3.057773 1_555
In10 In13 3.415220 1_555
In10 In13 3.415220 1_655
In11 In7 3.035206 1_555
In11 In15 3.057773 1_565
In11 In12 3.415220 1_655
In11 In12 3.415220 1_555
In12 In8 3.057773 1_555
In12 In3 3.462322 1_555
In12 In3 3.462322 1_455
In13 In9 3.057773 1_565
In13 In2 3.462322 1_455
In13 In2 3.462322 1_555
In14 In9 3.415220 1_655
In14 In9 3.415220 1_555
In15 In8 3.415220 1_555
In15 In8 3.415220 1_655
Au0 In0 2.853878 1_565
Au0 In8 2.856474 1_565
Au0 In12 2.856717 1_555
Au0 In11 2.858105 1_455
Au0 In11 2.858105 1_555
Au0 In15 2.888043 1_465
Au0 In15 2.888043 1_565
Au0 Eu0 3.534985 1_455
Au0 Eu0 3.534985 1_555
Au1 In1 2.853878 1_555
Au1 In9 2.856474 1_555
Au1 In13 2.856717 1_555
Au1 In10 2.858105 1_455
Au1 In10 2.858105 1_555
Au1 In14 2.888043 1_455
Au1 In14 2.888043 1_555
Au1 Eu1 3.534985 1_555
Au1 Eu1 3.534985 1_455
Au2 In2 2.853878 1_545
Au2 In10 2.856474 1_545
Au2 In14 2.856717 1_555
Au2 In9 2.858105 1_655
Au2 In9 2.858105 1_555
Au2 In13 2.888043 1_645
Au2 In13 2.888043 1_545
Au2 Eu2 3.534985 1_555
Au2 Eu2 3.534985 1_655
Au3 In3 2.853878 1_555
Au3 In11 2.856474 1_555
Au3 In15 2.856717 1_555
Au3 In8 2.858105 1_555
Au3 In8 2.858105 1_655
Au3 In12 2.888043 1_555
Au3 In12 2.888043 1_655
Au3 Eu3 3.534985 1_655
Au3 Eu3 3.534985 1_555
Au4 In12 2.833309 1_555
Au4 In6 2.851991 1_556
Au4 In6 2.851991 1_456
Au4 In1 2.857261 1_556
Au4 In4 2.966170 1_565
Au4 In3 3.046689 1_455
Au4 In3 3.046689 1_555
Au4 Eu0 3.464022 1_455
Au4 Eu0 3.464022 1_555
Au5 In13 2.833309 1_555
Au5 In7 2.851991 1_455
Au5 In7 2.851991 1_555
Au5 In0 2.857261 1_565
Au5 In5 2.966170 1_555
Au5 In2 3.046689 1_455
Au5 In2 3.046689 1_555
Au5 Eu1 3.464022 1_455
Au5 Eu1 3.464022 1_555
Au6 In14 2.833309 1_555
Au6 In4 2.851991 1_554
Au6 In4 2.851991 1_654
Au6 In3 2.857261 1_554
Au6 In6 2.966170 1_545
Au6 In1 3.046689 1_555
Au6 In1 3.046689 1_655
Au6 Eu2 3.464022 1_655
Au6 Eu2 3.464022 1_555
Au7 In15 2.833309 1_555
Au7 In5 2.851991 1_555
Au7 In5 2.851991 1_655
Au7 In2 2.857261 1_545
Au7 In7 2.966170 1_555
Au7 In0 3.046689 1_555
Au7 In0 3.046689 1_655
Au7 Eu3 3.464022 1_555
Au7 Eu3 3.464022 1_655
