# generated using pymatgen
data_TaNiP2
_symmetry_space_group_name_H-M   'P 1'
_cell_length_a   3.32234745
_cell_length_b   5.40800607
_cell_length_c   12.15449616
_cell_angle_alpha   90.00000000
_cell_angle_beta   90.00000000
_cell_angle_gamma   90.00000000
_symmetry_Int_Tables_number   1
_chemical_formula_structural   TaNiP2
_chemical_formula_sum   'Ta4 Ni4 P8'
_cell_volume   218.38317714
_cell_formula_units_Z   4
loop_
 _symmetry_equiv_pos_site_id
 _symmetry_equiv_pos_as_xyz
  1  'x, y, z'
loop_
 _atom_site_type_symbol
 _atom_site_label
 _atom_site_symmetry_multiplicity
 _atom_site_fract_x
 _atom_site_fract_y
 _atom_site_fract_z
 _atom_site_occupancy
  Ta  Ta0  1  0.25000000  0.01515288  0.82986947  1
  Ta  Ta1  1  0.25000000  0.51515288  0.67013053  1
  Ta  Ta2  1  0.75000000  0.98484712  0.17013053  1
  Ta  Ta3  1  0.75000000  0.48484712  0.32986947  1
  Ni  Ni0  1  0.25000000  0.02294375  0.58597859  1
  Ni  Ni1  1  0.25000000  0.52294375  0.91402141  1
  Ni  Ni2  1  0.75000000  0.97705625  0.41402141  1
  Ni  Ni3  1  0.75000000  0.47705625  0.08597859  1
  P  P0  1  0.25000000  0.13858991  0.30948231  1
  P  P1  1  0.25000000  0.63858991  0.19051769  1
  P  P2  1  0.75000000  0.86141009  0.69051769  1
  P  P3  1  0.75000000  0.36141009  0.80948231  1
  P  P4  1  0.25000000  0.19297133  0.03573177  1
  P  P5  1  0.25000000  0.69297133  0.46426823  1
  P  P6  1  0.75000000  0.80702867  0.96426823  1
  P  P7  1  0.75000000  0.30702867  0.53573177  1
loop_
_geom_bond_atom_site_label_1
_geom_bond_atom_site_label_2
_geom_bond_distance
_geom_bond_site_symmetry_2
Ni0 P2 2.266519 1_445
Ni0 P2 2.266519 1_545
Ni0 P5 2.317936 1_545
Ni0 P7 2.343673 1_455
Ni0 P7 2.343673 1_555
Ni1 P3 2.266519 1_555
Ni1 P3 2.266519 1_455
Ni1 P4 2.317936 1_556
Ni1 P6 2.343673 1_555
Ni1 P6 2.343673 1_455
Ni2 P0 2.266519 1_565
Ni2 P0 2.266519 1_665
Ni2 P7 2.317936 1_565
Ni2 P5 2.343673 1_555
Ni2 P5 2.343673 1_655
Ni3 P1 2.266519 1_555
Ni3 P1 2.266519 1_655
Ni3 P6 2.317936 1_554
Ni3 P4 2.343673 1_655
Ni3 P4 2.343673 1_555
P0 Ta2 2.513879 1_545
P0 Ta2 2.513879 1_445
P0 Ta3 2.515430 1_555
P0 Ta3 2.515430 1_455
P1 Ta3 2.513879 1_455
P1 Ta3 2.513879 1_555
P1 Ta2 2.515430 1_455
P1 Ta2 2.515430 1_555
P2 Ta0 2.513879 1_665
P2 Ta0 2.513879 1_565
P2 Ta1 2.515430 1_555
P2 Ta1 2.515430 1_655
P3 Ta1 2.513879 1_555
P3 Ta1 2.513879 1_655
P3 Ta0 2.515430 1_555
P3 Ta0 2.515430 1_655
P4 Ta2 2.587434 1_545
P4 Ta2 2.587434 1_445
P4 Ta0 2.680583 1_554
P5 Ta3 2.587434 1_555
P5 Ta3 2.587434 1_455
P5 Ta1 2.680583 1_555
P6 Ta0 2.587434 1_565
P6 Ta0 2.587434 1_665
P6 Ta2 2.680583 1_556
P7 Ta1 2.587434 1_655
P7 Ta1 2.587434 1_555
P7 Ta3 2.680583 1_555
