# generated using pymatgen
data_YbH4I3O11
_symmetry_space_group_name_H-M   'P 1'
_cell_length_a   7.18686990
_cell_length_b   7.54698903
_cell_length_c   10.77988267
_cell_angle_alpha   94.58665540
_cell_angle_beta   106.02582794
_cell_angle_gamma   108.62887485
_symmetry_Int_Tables_number   1
_chemical_formula_structural   YbH4I3O11
_chemical_formula_sum   'Yb2 H8 I6 O22'
_cell_volume   523.37208145
_cell_formula_units_Z   2
loop_
 _symmetry_equiv_pos_site_id
 _symmetry_equiv_pos_as_xyz
  1  'x, y, z'
loop_
 _atom_site_type_symbol
 _atom_site_label
 _atom_site_symmetry_multiplicity
 _atom_site_fract_x
 _atom_site_fract_y
 _atom_site_fract_z
 _atom_site_occupancy
  Yb  Yb0  1  0.60143000  0.91677100  0.78421700  1
  Yb  Yb1  1  0.39857000  0.08322900  0.21578300  1
  H  H0  1  0.77943100  0.59977200  0.71375100  1
  H  H1  1  0.22056900  0.40022800  0.28624900  1
  H  H2  1  0.73932800  0.60627600  0.85200100  1
  H  H3  1  0.26067200  0.39372400  0.14799900  1
  H  H4  1  0.30018500  0.42855300  0.62159500  1
  H  H5  1  0.69981500  0.57144700  0.37840500  1
  H  H6  1  0.35993900  0.24512900  0.60327100  1
  H  H7  1  0.64006100  0.75487100  0.39672900  1
  I  I0  1  0.19856000  0.65315300  0.93212000  1
  I  I1  1  0.80144000  0.34684700  0.06788000  1
  I  I2  1  0.20946300  0.13308800  0.83243800  1
  I  I3  1  0.79053700  0.86691200  0.16756300  1
  I  I4  1  0.76804200  0.23163900  0.55316100  1
  I  I5  1  0.23195800  0.76836100  0.44683900  1
  O  O0  1  0.36658200  0.78142600  0.09841500  1
  O  O1  1  0.63341800  0.21857400  0.90158500  1
  O  O2  1  0.14173200  0.41024900  0.97118700  1
  O  O3  1  0.85826800  0.58975100  0.02881300  1
  O  O4  1  0.40308300  0.65649400  0.86311400  1
  O  O5  1  0.59691700  0.34350600  0.13688600  1
  O  O6  1  0.20408900  0.03074400  0.98178900  1
  O  O7  1  0.79591100  0.96925600  0.01821100  1
  O  O8  1  0.93074000  0.06497400  0.74642400  1
  O  O9  1  0.06926000  0.93502600  0.25357600  1
  O  O10  1  0.25771200  0.94062200  0.74750300  1
  O  O11  1  0.74228800  0.05937800  0.25249700  1
  O  O12  1  0.91422600  0.46281800  0.65987200  1
  O  O13  1  0.08577400  0.53718200  0.34012800  1
  O  O14  1  0.61265600  0.30445900  0.41528400  1
  O  O15  1  0.38734400  0.69554100  0.58471600  1
  O  O16  1  0.56174600  0.12921500  0.62556900  1
  O  O17  1  0.43825400  0.87078500  0.37443100  1
  O  O18  1  0.73440500  0.66886900  0.77482200  1
  O  O19  1  0.26559500  0.33113100  0.22517800  1
  O  O20  1  0.24989900  0.28961100  0.61733200  1
  O  O21  1  0.75010100  0.71038900  0.38266800  1
loop_
_geom_bond_atom_site_label_1
_geom_bond_atom_site_label_2
_geom_bond_distance
_geom_bond_site_symmetry_2
H0 O18 0.990246 1_555
H1 O19 0.990246 1_555
H2 O18 0.986852 1_555
H3 O19 0.986852 1_555
H4 O20 0.986552 1_555
H5 O21 0.986552 1_555
H6 O20 0.994369 1_555
H7 O21 0.994369 1_555
I0 O4 1.815922 1_555
I0 O0 1.841003 1_556
I0 O2 1.856037 1_555
I1 O5 1.815922 1_555
I1 O1 1.841003 1_554
I1 O3 1.856037 1_555
I2 O10 1.831066 1_545
I2 O8 1.837652 1_455
I2 O6 1.845072 1_555
I3 O11 1.831061 1_565
I3 O9 1.837650 1_655
I3 O7 1.845082 1_555
I4 O12 1.819809 1_555
I4 O14 1.834258 1_555
I4 O16 1.846139 1_555
I5 O13 1.819809 1_555
I5 O15 1.834258 1_555
I5 O17 1.846139 1_555
O0 Yb1 2.426010 1_565
O1 Yb0 2.426010 1_545
O4 Yb0 2.400327 1_555
O5 Yb1 2.400327 1_555
O6 Yb1 2.452140 1_556
O7 Yb0 2.452140 1_554
O8 Yb0 2.435646 1_545
O9 Yb1 2.435646 1_565
O10 Yb0 2.459038 1_555
O11 Yb1 2.459038 1_555
O14 Yb1 2.395319 1_555
O15 Yb0 2.395319 1_555
O16 Yb0 2.457259 1_545
O17 Yb1 2.457259 1_565
O18 Yb0 2.364174 1_555
O19 Yb1 2.364174 1_555
