# generated using pymatgen
data_Cs2(PSe2)3
_symmetry_space_group_name_H-M   'P 1'
_cell_length_a   10.76050465
_cell_length_b   11.02297027
_cell_length_c   15.49046420
_cell_angle_alpha   53.96831903
_cell_angle_beta   90.00000000
_cell_angle_gamma   90.00000000
_symmetry_Int_Tables_number   1
_chemical_formula_structural   Cs2(PSe2)3
_chemical_formula_sum   'Cs8 P12 Se24'
_cell_volume   1485.86304314
_cell_formula_units_Z   4
loop_
 _symmetry_equiv_pos_site_id
 _symmetry_equiv_pos_as_xyz
  1  'x, y, z'
loop_
 _atom_site_type_symbol
 _atom_site_label
 _atom_site_symmetry_multiplicity
 _atom_site_fract_x
 _atom_site_fract_y
 _atom_site_fract_z
 _atom_site_occupancy
  Cs  Cs0  1  -0.00087490  0.75604298  0.25454838  1
  Cs  Cs1  1  0.00087490  0.24395702  0.74545162  1
  Cs  Cs2  1  0.49912510  0.24395702  0.24545162  1
  Cs  Cs3  1  0.50087490  0.75604298  0.75454838  1
  Cs  Cs4  1  0.99916895  0.34359807  0.17857370  1
  Cs  Cs5  1  0.00083105  0.65640193  0.82142630  1
  Cs  Cs6  1  0.49916895  0.65640193  0.32142630  1
  Cs  Cs7  1  0.50083105  0.34359807  0.67857370  1
  P  P0  1  0.95123212  0.99579294  0.43850492  1
  P  P1  1  0.04876788  0.00420706  0.56149508  1
  P  P2  1  0.45123212  0.00420706  0.06149508  1
  P  P3  1  0.54876788  0.99579294  0.93850492  1
  P  P4  1  0.68407941  0.85259551  0.44412990  1
  P  P5  1  0.31592059  0.14740449  0.55587010  1
  P  P6  1  0.18407941  0.14740449  0.05587010  1
  P  P7  1  0.81592059  0.85259551  0.94412990  1
  P  P8  1  0.69985135  0.64095540  0.05491770  1
  P  P9  1  0.30014865  0.35904460  0.94508230  1
  P  P10  1  0.19985135  0.35904460  0.44508230  1
  P  P11  1  0.80014865  0.64095540  0.55491770  1
  Se  Se0  1  0.49412979  0.79969728  0.49046808  1
  Se  Se1  1  0.50587021  0.20030272  0.50953192  1
  Se  Se2  1  0.99412979  0.20030272  0.00953192  1
  Se  Se3  1  0.00587021  0.79969728  0.99046808  1
  Se  Se4  1  0.78878425  0.50308584  0.49988994  1
  Se  Se5  1  0.21121575  0.49691416  0.50011006  1
  Se  Se6  1  0.28878425  0.49691416  0.00011006  1
  Se  Se7  1  0.71121575  0.50308584  0.99988994  1
  Se  Se8  1  0.50263125  0.74742539  0.01351879  1
  Se  Se9  1  0.49736875  0.25257461  0.98648121  1
  Se  Se10  1  0.00263125  0.25257461  0.48648121  1
  Se  Se11  1  -0.00263125  0.74742539  0.51351879  1
  Se  Se12  1  0.73541521  0.95682965  0.28195569  1
  Se  Se13  1  0.26458479  0.04317035  0.71804431  1
  Se  Se14  1  0.23541521  0.04317035  0.21804431  1
  Se  Se15  1  0.76458479  0.95682965  0.78195569  1
  Se  Se16  1  0.74202716  0.98644573  0.00399654  1
  Se  Se17  1  0.25797284  0.01355427  0.99600346  1
  Se  Se18  1  0.24202716  0.01355427  0.49600346  1
  Se  Se19  1  0.75797284  0.98644573  0.50399654  1
  Se  Se20  1  0.74441344  0.53603332  0.21894243  1
  Se  Se21  1  0.25558656  0.46396668  0.78105757  1
  Se  Se22  1  0.24441344  0.46396668  0.28105757  1
  Se  Se23  1  0.75558656  0.53603332  0.71894243  1
loop_
_geom_bond_atom_site_label_1
_geom_bond_atom_site_label_2
_geom_bond_distance
_geom_bond_site_symmetry_2
Cs0 Se12 3.773131 1_455
Cs0 Se3 3.828191 1_554
Cs0 Se14 3.833570 1_565
Cs0 Se4 3.856709 1_455
Cs0 Se5 3.879962 1_555
Cs0 Se20 3.907862 1_455
Cs0 Se11 3.956486 1_555
Cs0 Se22 3.993158 1_555
Cs0 Se2 4.064856 1_465
Cs0 Se16 4.191737 1_455
Cs1 Se13 3.773131 1_555
Cs1 Se2 3.828191 1_456
Cs1 Se15 3.833570 1_445
Cs1 Se5 3.856709 1_555
Cs1 Se4 3.879962 1_455
Cs1 Se21 3.907862 1_555
Cs1 Se10 3.956486 1_555
Cs1 Se23 3.993158 1_455
Cs1 Se3 4.064856 1_545
Cs1 Se17 4.191737 1_555
Cs2 Se14 3.773131 1_555
Cs2 Se1 3.828191 1_555
Cs2 Se12 3.833570 1_545
Cs2 Se6 3.856709 1_555
Cs2 Se7 3.879962 1_554
Cs2 Se22 3.907862 1_555
Cs2 Se9 3.956486 1_554
Cs2 Se20 3.993158 1_555
Cs2 Se0 4.064856 1_545
Cs2 Se18 4.191737 1_555
Cs3 Se15 3.773131 1_555
Cs3 Se0 3.828191 1_555
Cs3 Se13 3.833570 1_565
Cs3 Se7 3.856709 1_555
Cs3 Se6 3.879962 1_556
Cs3 Se23 3.907862 1_555
Cs3 Se8 3.956486 1_556
Cs3 Se21 3.993158 1_555
Cs3 Se1 4.064856 1_565
Cs3 Se19 4.191737 1_555
Cs4 P0 3.607759 1_545
Cs4 Se22 3.704432 1_655
Cs4 Se20 3.737085 1_555
Cs4 Se2 3.771018 1_555
Cs4 Se7 3.824659 1_554
Cs4 Se6 3.835889 1_655
Cs4 Se14 3.926946 1_655
Cs4 Se3 4.066626 1_654
Cs5 P1 3.607759 1_565
Cs5 Se23 3.704432 1_455
Cs5 Se21 3.737085 1_555
Cs5 Se3 3.771018 1_555
Cs5 Se6 3.824659 1_556
Cs5 Se7 3.835889 1_455
Cs5 Se15 3.926946 1_455
Cs5 Se2 4.066626 1_456
Cs6 P2 3.607759 1_565
Cs6 Se20 3.704432 1_555
Cs6 Se22 3.737085 1_555
Cs6 Se0 3.771018 1_555
Cs6 Se5 3.824659 1_555
Cs6 Se4 3.835889 1_555
Cs6 Se12 3.926946 1_555
Cs6 Se1 4.066626 1_555
Cs7 P3 3.607759 1_545
Cs7 Se21 3.704432 1_555
Cs7 Se23 3.737085 1_555
Cs7 Se1 3.771018 1_555
Cs7 Se4 3.824659 1_555
Cs7 Se5 3.835889 1_555
Cs7 Se13 3.926946 1_555
Cs7 Se0 4.066626 1_555
P0 P1 2.224342 1_665
P0 Se19 2.289420 1_555
P0 Se11 2.312862 1_655
P1 Se18 2.289420 1_555
P1 Se10 2.312862 1_555
P2 P3 2.224342 1_544
P2 Se17 2.289420 1_554
P2 Se9 2.312862 1_554
P3 Se16 2.289420 1_556
P3 Se8 2.312862 1_556
P4 Se12 2.130835 1_555
P4 Se0 2.130864 1_555
P4 Se19 2.297569 1_555
P5 Se13 2.130835 1_555
P5 Se1 2.130864 1_555
P5 Se18 2.297569 1_555
P6 Se14 2.130835 1_555
P6 Se2 2.130864 1_455
P6 P9 2.288539 1_554
P6 Se17 2.297569 1_554
P7 Se15 2.130835 1_555
P7 Se3 2.130864 1_655
P7 P8 2.288539 1_556
P7 Se16 2.297569 1_556
P8 Se20 2.136857 1_555
P8 Se7 2.138962 1_554
P8 Se8 2.325267 1_555
P9 Se21 2.136857 1_555
P9 Se6 2.138962 1_556
P9 Se9 2.325267 1_555
P10 Se22 2.136857 1_555
P10 Se5 2.138962 1_555
P10 P5 2.288539 1_555
P10 Se10 2.325267 1_555
P11 Se23 2.136857 1_555
P11 Se4 2.138962 1_555
P11 P4 2.288539 1_555
P11 Se11 2.325267 1_655
