# generated using pymatgen
data_Mn3AsO8
_symmetry_space_group_name_H-M   'P 1'
_cell_length_a   9.15540400
_cell_length_b   12.45583400
_cell_length_c   5.15637200
_cell_angle_alpha   90.00000000
_cell_angle_beta   90.00000000
_cell_angle_gamma   90.00000000
_symmetry_Int_Tables_number   1
_chemical_formula_structural   Mn3AsO8
_chemical_formula_sum   'Mn12 As4 O32'
_cell_volume   588.02334236
_cell_formula_units_Z   4
loop_
 _symmetry_equiv_pos_site_id
 _symmetry_equiv_pos_as_xyz
  1  'x, y, z'
loop_
 _atom_site_type_symbol
 _atom_site_label
 _atom_site_symmetry_multiplicity
 _atom_site_fract_x
 _atom_site_fract_y
 _atom_site_fract_z
 _atom_site_occupancy
  Mn  Mn0  1  0.52574600  0.11793400  0.02978500  1
  Mn  Mn1  1  0.02574600  0.38206600  0.47021500  1
  Mn  Mn2  1  0.47425400  0.61793400  0.97021500  1
  Mn  Mn3  1  0.97425400  0.88206600  0.52978500  1
  Mn  Mn4  1  0.47425400  0.88206600  0.97021500  1
  Mn  Mn5  1  0.97425400  0.61793400  0.52978500  1
  Mn  Mn6  1  0.52574600  0.38206600  0.02978500  1
  Mn  Mn7  1  0.02574600  0.11793400  0.47021500  1
  Mn  Mn8  1  0.50000000  0.00000000  0.50000000  1
  Mn  Mn9  1  0.00000000  0.50000000  0.00000000  1
  Mn  Mn10  1  0.50000000  0.50000000  0.50000000  1
  Mn  Mn11  1  0.00000000  0.00000000  0.00000000  1
  As  As0  1  0.65076400  0.75000000  0.47773000  1
  As  As1  1  0.15076400  0.75000000  0.02227000  1
  As  As2  1  0.34923600  0.25000000  0.52227000  1
  As  As3  1  0.84923600  0.25000000  0.97773000  1
  O  O0  1  0.63023900  0.09135000  0.31947100  1
  O  O1  1  0.13023900  0.40865000  0.18052900  1
  O  O2  1  0.36976100  0.59135000  0.68052900  1
  O  O3  1  0.86976100  0.90865000  0.81947100  1
  O  O4  1  0.36976100  0.90865000  0.68052900  1
  O  O5  1  0.86976100  0.59135000  0.81947100  1
  O  O6  1  0.63023900  0.40865000  0.31947100  1
  O  O7  1  0.13023900  0.09135000  0.18052900  1
  O  O8  1  0.41267300  0.13765200  0.68102800  1
  O  O9  1  0.91267300  0.36234800  0.81897200  1
  O  O10  1  0.58732700  0.63765200  0.31897200  1
  O  O11  1  0.08732700  0.86234800  0.18102700  1
  O  O12  1  0.58732700  0.86234800  0.31897200  1
  O  O13  1  0.08732700  0.63765200  0.18102700  1
  O  O14  1  0.41267300  0.36234800  0.68102800  1
  O  O15  1  0.91267300  0.13765200  0.81897200  1
  O  O16  1  0.39524400  0.00522100  0.16809400  1
  O  O17  1  0.89524400  0.49477900  0.33190600  1
  O  O18  1  0.60475600  0.50522100  0.83190600  1
  O  O19  1  0.10475600  0.99477900  0.66809400  1
  O  O20  1  0.60475600  0.99477900  0.83190600  1
  O  O21  1  0.10475600  0.50522100  0.66809400  1
  O  O22  1  0.39524400  0.49477900  0.16809400  1
  O  O23  1  0.89524400  0.00522100  0.33190600  1
  O  O24  1  0.59030700  0.75000000  0.79772500  1
  O  O25  1  0.09030700  0.75000000  0.70227500  1
  O  O26  1  0.40969300  0.25000000  0.20227500  1
  O  O27  1  0.90969300  0.25000000  0.29772500  1
  O  O28  1  0.65970400  0.25000000  0.94066800  1
  O  O29  1  0.15970400  0.25000000  0.55933200  1
  O  O30  1  0.34029600  0.75000000  0.05933200  1
  O  O31  1  0.84029600  0.75000000  0.44066800  1
loop_
_geom_bond_atom_site_label_1
_geom_bond_atom_site_label_2
_geom_bond_distance
_geom_bond_site_symmetry_2
Mn0 O0 1.804466 1_555
Mn0 O16 1.976661 1_555
Mn0 O20 1.979268 1_544
Mn0 O8 2.089492 1_554
Mn0 O28 2.102692 1_554
Mn0 O26 2.150815 1_555
Mn1 O1 1.804466 1_555
Mn1 O17 1.976661 1_455
Mn1 O21 1.979268 1_555
Mn1 O9 2.089492 1_455
Mn1 O29 2.102692 1_555
Mn1 O27 2.150815 1_455
Mn2 O2 1.804466 1_555
Mn2 O18 1.976661 1_555
Mn2 O22 1.979268 1_556
Mn2 O10 2.089492 1_556
Mn2 O30 2.102692 1_556
Mn2 O24 2.150815 1_555
Mn3 O3 1.804466 1_555
Mn3 O19 1.976661 1_655
Mn3 O23 1.979268 1_565
Mn3 O11 2.089497 1_655
Mn3 O31 2.102692 1_555
Mn3 O25 2.150815 1_655
Mn4 O4 1.804466 1_555
Mn4 O20 1.976661 1_555
Mn4 O16 1.979268 1_566
Mn4 O12 2.089492 1_556
Mn4 O30 2.102692 1_556
Mn4 O24 2.150815 1_555
Mn5 O5 1.804466 1_555
Mn5 O21 1.976661 1_655
Mn5 O17 1.979268 1_555
Mn5 O13 2.089497 1_655
Mn5 O31 2.102692 1_555
Mn5 O25 2.150815 1_655
Mn6 O6 1.804466 1_555
Mn6 O22 1.976661 1_555
Mn6 O18 1.979268 1_554
Mn6 O14 2.089492 1_554
Mn6 O28 2.102692 1_554
Mn6 O26 2.150815 1_555
Mn7 O7 1.804466 1_555
Mn7 O23 1.976661 1_455
Mn7 O19 1.979268 1_545
Mn7 O15 2.089492 1_455
Mn7 O29 2.102692 1_555
Mn7 O27 2.150815 1_455
Mn8 O4 1.892882 1_545
Mn8 O0 1.892882 1_555
Mn8 O20 1.962923 1_545
Mn8 O16 1.962923 1_555
Mn8 O12 2.109573 1_545
Mn8 O8 2.109573 1_555
Mn9 O1 1.892882 1_555
Mn9 O5 1.892882 1_454
Mn9 O21 1.962923 1_554
Mn9 O17 1.962923 1_455
Mn9 O13 2.109571 1_555
Mn9 O9 2.109573 1_454
Mn10 O2 1.892882 1_555
Mn10 O6 1.892882 1_555
Mn10 O18 1.962923 1_555
Mn10 O22 1.962923 1_555
Mn10 O10 2.109573 1_555
Mn10 O14 2.109573 1_555
Mn11 O3 1.892882 1_444
Mn11 O7 1.892882 1_555
Mn11 O19 1.962923 1_544
Mn11 O23 1.962923 1_455
Mn11 O11 2.109571 1_545
Mn11 O15 2.109573 1_454
As0 O10 1.722131 1_555
As0 O12 1.722131 1_555
As0 O24 1.740378 1_555
As0 O31 1.745734 1_555
As1 O11 1.722129 1_555
As1 O13 1.722129 1_555
As1 O25 1.740378 1_554
As1 O30 1.745734 1_555
As2 O8 1.722131 1_555
As2 O14 1.722131 1_555
As2 O26 1.740378 1_555
As2 O29 1.745734 1_555
As3 O9 1.722131 1_555
As3 O15 1.722131 1_555
As3 O27 1.740378 1_556
As3 O28 1.745734 1_555
