# generated using pymatgen
data_Ca3Al7Ag2
_symmetry_space_group_name_H-M   'P 1'
_cell_length_a   9.46233923
_cell_length_b   9.46233955
_cell_length_c   9.46233948
_cell_angle_alpha   34.47393460
_cell_angle_beta   34.47393062
_cell_angle_gamma   34.47392857
_symmetry_Int_Tables_number   1
_chemical_formula_structural   Ca3Al7Ag2
_chemical_formula_sum   'Ca3 Al7 Ag2'
_cell_volume   242.14864776
_cell_formula_units_Z   1
loop_
 _symmetry_equiv_pos_site_id
 _symmetry_equiv_pos_as_xyz
  1  'x, y, z'
loop_
 _atom_site_type_symbol
 _atom_site_label
 _atom_site_symmetry_multiplicity
 _atom_site_fract_x
 _atom_site_fract_y
 _atom_site_fract_z
 _atom_site_occupancy
  Ca  Ca0  1  0.00000000  0.00000000  -0.00000000  1
  Ca  Ca1  1  0.14345046  0.14345046  0.14345046  1
  Ca  Ca2  1  0.85654954  0.85654954  0.85654954  1
  Al  Al0  1  0.41561071  0.41561071  0.92349499  1
  Al  Al1  1  0.41561071  0.92349499  0.41561071  1
  Al  Al2  1  0.50000000  0.50000000  0.50000000  1
  Al  Al3  1  0.58438929  0.58438929  0.07650501  1
  Al  Al4  1  0.92349499  0.41561071  0.41561071  1
  Al  Al5  1  0.58438929  0.07650501  0.58438929  1
  Al  Al6  1  0.07650501  0.58438929  0.58438929  1
  Ag  Ag0  1  0.66446187  0.66446187  0.66446187  1
  Ag  Ag1  1  0.33553813  0.33553813  0.33553813  1
loop_
_geom_bond_atom_site_label_1
_geom_bond_atom_site_label_2
_geom_bond_distance
_geom_bond_site_symmetry_2
Al0 Al4 2.759707 1_456
Al0 Al1 2.759708 1_546
Al0 Al2 2.798744 1_555
Al0 Al4 2.848135 1_555
Al0 Al1 2.848135 1_555
Al0 Ca2 3.251185 1_455
Al0 Ca2 3.251185 1_545
Al0 Ca1 3.294854 1_556
Al0 Ca0 3.552293 1_656
Al0 Ca0 3.552293 1_566
Al1 Al4 2.759707 1_465
Al1 Al2 2.798744 1_555
Al1 Al4 2.848135 1_555
Al1 Ca2 3.251185 1_455
Al1 Ca2 3.251185 1_554
Al1 Ca1 3.294854 1_565
Al1 Ca0 3.552293 1_665
Al1 Ca0 3.552293 1_566
Al2 Al4 2.798744 1_555
Al2 Al6 2.798744 1_555
Al2 Al3 2.798744 1_555
Al2 Al5 2.798744 1_555
Al2 Ca1 3.296379 1_655
Al2 Ca2 3.296379 1_455
Al2 Ca1 3.296379 1_565
Al2 Ca2 3.296379 1_545
Al2 Ca1 3.296379 1_556
Al2 Ca2 3.296379 1_554
Al3 Al6 2.759707 1_654
Al3 Al5 2.759708 1_564
Al3 Al6 2.848135 1_555
Al3 Al5 2.848135 1_555
Al3 Ca1 3.251185 1_655
Al3 Ca1 3.251185 1_565
Al3 Ca2 3.294854 1_554
Al3 Ca0 3.552293 1_565
Al3 Ca0 3.552293 1_655
Al4 Ca2 3.251186 1_554
Al4 Ca2 3.251186 1_545
Al4 Ca1 3.294854 1_655
Al4 Ca0 3.552293 1_656
Al4 Ca0 3.552294 1_665
Al5 Al6 2.759707 1_645
Al5 Al6 2.848135 1_555
Al5 Ca1 3.251185 1_655
Al5 Ca1 3.251185 1_556
Al5 Ca2 3.294854 1_545
Al5 Ca0 3.552293 1_556
Al5 Ca0 3.552293 1_655
Al6 Ca1 3.251186 1_556
Al6 Ca1 3.251186 1_565
Al6 Ca2 3.294854 1_455
Al6 Ca0 3.552293 1_565
Al6 Ca0 3.552294 1_556
Ag0 Al4 2.684598 1_555
Ag0 Al1 2.684598 1_555
Ag0 Al0 2.684598 1_555
Ag0 Al6 2.748598 1_655
Ag0 Al3 2.748599 1_556
Ag0 Al5 2.748599 1_565
Ag0 Ca0 3.238223 1_566
Ag0 Ca0 3.238223 1_656
Ag0 Ca0 3.238224 1_665
Ag1 Al6 2.684598 1_555
Ag1 Al5 2.684598 1_555
Ag1 Al3 2.684598 1_555
Ag1 Al4 2.748598 1_455
Ag1 Al0 2.748599 1_554
Ag1 Al1 2.748599 1_545
Ag1 Ca0 3.238223 1_655
Ag1 Ca0 3.238223 1_565
Ag1 Ca0 3.238224 1_556
