# generated using pymatgen
data_FeH7C3NO6
_symmetry_space_group_name_H-M   'P 1'
_cell_length_a   12.83154394
_cell_length_b   12.83154394
_cell_length_c   8.44141300
_cell_angle_alpha   90.00000000
_cell_angle_beta   90.00000000
_cell_angle_gamma   119.99999967
_symmetry_Int_Tables_number   1
_chemical_formula_structural   FeH7C3NO6
_chemical_formula_sum   'Fe6 H42 C18 N6 O36'
_cell_volume   1203.65940238
_cell_formula_units_Z   6
loop_
 _symmetry_equiv_pos_site_id
 _symmetry_equiv_pos_as_xyz
  1  'x, y, z'
loop_
 _atom_site_type_symbol
 _atom_site_label
 _atom_site_symmetry_multiplicity
 _atom_site_fract_x
 _atom_site_fract_y
 _atom_site_fract_z
 _atom_site_occupancy
  Fe  Fe0  1  0.00463700  0.33556300  0.08659300  1
  Fe  Fe1  1  0.33092600  0.99536300  0.08659300  1
  Fe  Fe2  1  0.66443700  0.66907400  0.08659300  1
  Fe  Fe3  1  0.99536300  0.66443700  0.58659300  1
  Fe  Fe4  1  0.66907400  0.00463700  0.58659300  1
  Fe  Fe5  1  0.33556300  0.33092600  0.58659300  1
  H  H0  1  0.13186400  0.27962300  0.81953600  1
  H  H1  1  0.14776000  0.86813600  0.81953600  1
  H  H2  1  0.72037700  0.85224000  0.81953600  1
  H  H3  1  0.86813600  0.72037700  0.31953600  1
  H  H4  1  0.85224000  0.13186400  0.31953600  1
  H  H5  1  0.27962300  0.14776000  0.31953600  1
  H  H6  1  0.05155100  0.50753900  0.80286700  1
  H  H7  1  0.45598800  0.94844900  0.80286700  1
  H  H8  1  0.49246100  0.54401200  0.80286700  1
  H  H9  1  0.94844900  0.49246100  0.30286700  1
  H  H10  1  0.54401200  0.05155100  0.30286700  1
  H  H11  1  0.50753900  0.45598800  0.30286700  1
  H  H12  1  0.78625300  0.16913000  0.88172000  1
  H  H13  1  0.38287600  0.21374700  0.88172000  1
  H  H14  1  0.83087000  0.61712400  0.88172000  1
  H  H15  1  0.21374700  0.83087000  0.38172000  1
  H  H16  1  0.61712400  0.78625300  0.38172000  1
  H  H17  1  0.16913000  0.38287600  0.38172000  1
  H  H18  1  0.27272100  0.57951100  0.00224500  1
  H  H19  1  0.30678900  0.72727900  0.00224500  1
  H  H20  1  0.42048900  0.69321100  0.00224500  1
  H  H21  1  0.72727900  0.42048900  0.50224500  1
  H  H22  1  0.69321100  0.27272100  0.50224500  1
  H  H23  1  0.57951100  0.30678900  0.50224500  1
  H  H24  1  0.33333300  0.66666700  0.16322600  1
  H  H25  1  0.66666700  0.33333300  0.66322600  1
  H  H26  1  0.75367100  0.35913100  0.00124100  1
  H  H27  1  0.60546000  0.24632900  0.00124100  1
  H  H28  1  0.64086900  0.39454000  0.00124100  1
  H  H29  1  0.24632900  0.64086900  0.50124100  1
  H  H30  1  0.39454000  0.75367100  0.50124100  1
  H  H31  1  0.35913100  0.60546000  0.50124100  1
  H  H32  1  0.66666700  0.33333300  0.16238600  1
  H  H33  1  0.33333300  0.66666700  0.66238600  1
  H  H34  1  0.94008300  0.02761700  0.67494400  1
  H  H35  1  0.08753500  0.05991700  0.67494400  1
  H  H36  1  0.97238300  0.91246500  0.67494400  1
  H  H37  1  0.05991700  0.97238300  0.17494400  1
  H  H38  1  0.91246500  0.94008300  0.17494400  1
  H  H39  1  0.02761700  0.08753500  0.17494400  1
  H  H40  1  0.00000000  0.00000000  0.51408900  1
  H  H41  1  0.00000000  0.00000000  0.01408900  1
  C  C0  1  0.18942900  0.37812600  0.82929600  1
  C  C1  1  0.18869700  0.81057100  0.82929600  1
  C  C2  1  0.62187400  0.81130300  0.82929600  1
  C  C3  1  0.81057100  0.62187400  0.32929600  1
  C  C4  1  0.81130300  0.18942900  0.32929600  1
  C  C5  1  0.37812600  0.18869700  0.32929600  1
  C  C6  1  0.95413700  0.47004700  0.82276400  1
  C  C7  1  0.51591000  0.04586300  0.82276400  1
  C  C8  1  0.52995300  0.48409000  0.82276400  1
  C  C9  1  0.04586300  0.52995300  0.32276400  1
  C  C10  1  0.48409000  0.95413700  0.32276400  1
  C  C11  1  0.47004700  0.51591000  0.32276400  1
  C  C12  1  0.85022900  0.13734200  0.85567500  1
  C  C13  1  0.28711300  0.14977100  0.85567500  1
  C  C14  1  0.86265800  0.71288700  0.85567500  1
  C  C15  1  0.14977100  0.86265800  0.35567500  1
  C  C16  1  0.71288700  0.85022900  0.35567500  1
  C  C17  1  0.13734200  0.28711300  0.35567500  1
  N  N0  1  0.33333300  0.66666700  0.04207200  1
  N  N1  1  0.66666700  0.33333300  0.54207200  1
  N  N2  1  0.66666700  0.33333300  0.04109800  1
  N  N3  1  0.33333300  0.66666700  0.54109800  1
  N  N4  1  0.00000000  0.00000000  0.63535800  1
  N  N5  1  0.00000000  0.00000000  0.13535800  1
  O  O0  1  0.16417300  0.42962100  0.94009400  1
  O  O1  1  0.26544900  0.83582700  0.94009400  1
  O  O2  1  0.57037900  0.73455100  0.94009400  1
  O  O3  1  0.83582700  0.57037900  0.44009400  1
  O  O4  1  0.73455100  0.16417300  0.44009400  1
  O  O5  1  0.42962100  0.26544900  0.44009400  1
  O  O6  1  0.27465400  0.43150100  0.73138400  1
  O  O7  1  0.15684800  0.72534600  0.73138400  1
  O  O8  1  0.56849900  0.84315200  0.73138400  1
  O  O9  1  0.72534600  0.56849900  0.23138400  1
  O  O10  1  0.84315200  0.27465400  0.23138400  1
  O  O11  1  0.43150100  0.15684800  0.23138400  1
  O  O12  1  0.90733600  0.39831200  0.93964100  1
  O  O13  1  0.49097600  0.09266400  0.93964100  1
  O  O14  1  0.60168800  0.50902400  0.93964100  1
  O  O15  1  0.09266400  0.60168800  0.43964100  1
  O  O16  1  0.50902400  0.90733600  0.43964100  1
  O  O17  1  0.39831200  0.49097600  0.43964100  1
  O  O18  1  0.89754200  0.50176600  0.73032600  1
  O  O19  1  0.60422400  0.10245800  0.73032600  1
  O  O20  1  0.49823400  0.39577600  0.73032600  1
  O  O21  1  0.10245800  0.49823400  0.23032600  1
  O  O22  1  0.39577600  0.89754200  0.23032600  1
  O  O23  1  0.50176600  0.60422400  0.23032600  1
  O  O24  1  0.94073200  0.17161200  0.94470800  1
  O  O25  1  0.23088000  0.05926800  0.94470800  1
  O  O26  1  0.82838800  0.76912000  0.94470800  1
  O  O27  1  0.05926800  0.82838800  0.44470800  1
  O  O28  1  0.76912000  0.94073200  0.44470800  1
  O  O29  1  0.17161200  0.23088000  0.44470800  1
  O  O30  1  0.82715700  0.06842800  0.73588800  1
  O  O31  1  0.24127100  0.17284300  0.73588800  1
  O  O32  1  0.93157200  0.75872900  0.73588800  1
  O  O33  1  0.17284300  0.93157200  0.23588800  1
  O  O34  1  0.75872900  0.82715700  0.23588800  1
  O  O35  1  0.06842800  0.24127100  0.23588800  1
loop_
_geom_bond_atom_site_label_1
_geom_bond_atom_site_label_2
_geom_bond_distance
_geom_bond_site_symmetry_2
Fe0 O0 2.169306 1_554
Fe0 O35 2.170830 1_555
Fe0 O12 2.179717 1_454
Fe0 O10 2.186057 1_455
Fe0 O21 2.187360 1_555
Fe0 O24 2.192619 1_454
Fe1 O1 2.169307 1_554
Fe1 O33 2.170830 1_555
Fe1 O13 2.179717 1_564
Fe1 O11 2.186055 1_565
Fe1 O22 2.187360 1_555
Fe1 O25 2.192619 1_564
Fe2 O2 2.169298 1_554
Fe2 O34 2.170830 1_555
Fe2 O14 2.179717 1_554
Fe2 O9 2.186047 1_555
Fe2 O23 2.187360 1_555
Fe2 O26 2.192619 1_554
Fe3 O3 2.169306 1_555
Fe3 O32 2.170830 1_555
Fe3 O15 2.179717 1_655
Fe3 O7 2.186057 1_655
Fe3 O18 2.187360 1_555
Fe3 O27 2.192619 1_655
Fe4 O4 2.169307 1_555
Fe4 O30 2.170830 1_555
Fe4 O16 2.179717 1_545
Fe4 O8 2.186055 1_545
Fe4 O19 2.187360 1_555
Fe4 O28 2.192619 1_545
Fe5 O5 2.169298 1_555
Fe5 O31 2.170830 1_555
Fe5 O17 2.179717 1_555
Fe5 O6 2.186047 1_555
Fe5 O20 2.187360 1_555
Fe5 O29 2.192619 1_555
H18 N0 1.048249 1_555
H19 N0 1.048249 1_555
H20 N0 1.048249 1_555
H21 N1 1.048249 1_555
H22 N1 1.048249 1_555
H23 N1 1.048249 1_555
H24 N0 1.022711 1_555
H25 N1 1.022711 1_555
H26 N2 1.048598 1_555
H27 N2 1.048601 1_555
H28 N2 1.048610 1_555
H29 N3 1.048598 1_555
H30 N3 1.048601 1_555
H31 N3 1.048610 1_555
H32 N2 1.023842 1_555
H33 N3 1.023842 1_555
H34 N4 1.049183 1_655
H35 N4 1.049192 1_555
H36 N4 1.049195 1_665
H37 N5 1.049183 1_565
H38 N5 1.049192 1_665
H39 N5 1.049195 1_555
H40 N4 1.023682 1_555
H41 N5 1.023682 1_555
C0 H0 1.102876 1_555
C0 O6 1.264563 1_555
C0 O0 1.276923 1_555
C1 H1 1.102866 1_555
C1 O7 1.264564 1_555
C1 O1 1.276932 1_555
C2 H2 1.102878 1_555
C2 O8 1.264555 1_555
C2 O2 1.276930 1_555
C3 H3 1.102876 1_555
C3 O9 1.264563 1_555
C3 O3 1.276923 1_555
C4 H4 1.102866 1_555
C4 O10 1.264564 1_555
C4 O4 1.276932 1_555
C5 H5 1.102878 1_555
C5 O11 1.264555 1_555
C5 O5 1.276930 1_555
C6 H6 1.104872 1_655
C6 O18 1.263909 1_555
C6 O12 1.276137 1_555
C7 H7 1.104872 1_545
C7 O19 1.263909 1_555
C7 O13 1.276137 1_555
C8 H8 1.104872 1_555
C8 O20 1.263909 1_555
C8 O14 1.276137 1_555
C9 H9 1.104872 1_455
C9 O21 1.263909 1_555
C9 O15 1.276137 1_555
C10 H10 1.104872 1_565
C10 O22 1.263909 1_555
C10 O16 1.276137 1_555
C11 H11 1.104872 1_555
C11 O23 1.263909 1_555
C11 O17 1.276137 1_555
C12 H12 1.106095 1_555
C12 O24 1.263391 1_555
C12 O30 1.276818 1_555
C13 H13 1.106085 1_555
C13 O25 1.263391 1_555
C13 O31 1.276818 1_555
C14 H14 1.106083 1_555
C14 O26 1.263391 1_555
C14 O32 1.276818 1_555
C15 H15 1.106095 1_555
C15 O27 1.263391 1_555
C15 O33 1.276818 1_555
C16 H16 1.106085 1_555
C16 O28 1.263391 1_555
C16 O34 1.276818 1_555
C17 H17 1.106083 1_555
C17 O29 1.263391 1_555
C17 O35 1.276818 1_555
