# generated using pymatgen
data_TiVN2
_symmetry_space_group_name_H-M   'P 1'
_cell_length_a   5.11346541
_cell_length_b   5.11346541
_cell_length_c   5.11346547
_cell_angle_alpha   33.71388607
_cell_angle_beta   33.71388607
_cell_angle_gamma   33.71387559
_symmetry_Int_Tables_number   1
_chemical_formula_structural   TiVN2
_chemical_formula_sum   'Ti1 V1 N2'
_cell_volume   36.69939502
_cell_formula_units_Z   1
loop_
 _symmetry_equiv_pos_site_id
 _symmetry_equiv_pos_as_xyz
  1  'x, y, z'
loop_
 _atom_site_type_symbol
 _atom_site_label
 _atom_site_symmetry_multiplicity
 _atom_site_fract_x
 _atom_site_fract_y
 _atom_site_fract_z
 _atom_site_occupancy
  Ti  Ti0  1  0.00000000  0.00000000  0.00000000  1
  V  V0  1  0.50000000  0.50000000  0.50000000  1
  N  N0  1  0.24889600  0.24889600  0.24889600  1
  N  N1  1  0.75110400  0.75110400  0.75110400  1
loop_
_geom_bond_atom_site_label_1
_geom_bond_atom_site_label_2
_geom_bond_distance
_geom_bond_site_symmetry_2
N0 V0 2.084338 1_545
N0 V0 2.084338 1_455
N0 V0 2.084339 1_554
N0 Ti0 2.102703 1_565
N0 Ti0 2.102703 1_655
N0 Ti0 2.102703 1_556
N1 V0 2.084338 1_655
N1 V0 2.084338 1_565
N1 V0 2.084339 1_556
N1 Ti0 2.102703 1_566
N1 Ti0 2.102703 1_656
N1 Ti0 2.102703 1_665
