# generated using pymatgen
data_Ce3Pt2
_symmetry_space_group_name_H-M   'P 1'
_cell_length_a   7.58317262
_cell_length_b   7.58317262
_cell_length_c   7.58317266
_cell_angle_alpha   72.39985713
_cell_angle_beta   72.39985713
_cell_angle_gamma   72.39985529
_symmetry_Int_Tables_number   1
_chemical_formula_structural   Ce3Pt2
_chemical_formula_sum   'Ce9 Pt6'
_cell_volume   385.37142994
_cell_formula_units_Z   3
loop_
 _symmetry_equiv_pos_site_id
 _symmetry_equiv_pos_as_xyz
  1  'x, y, z'
loop_
 _atom_site_type_symbol
 _atom_site_label
 _atom_site_symmetry_multiplicity
 _atom_site_fract_x
 _atom_site_fract_y
 _atom_site_fract_z
 _atom_site_occupancy
  Ce  Ce0  1  0.00000000  0.00000000  0.00000000  1
  Ce  Ce1  1  0.20705200  0.20705200  0.20705200  1
  Ce  Ce2  1  0.79294800  0.79294800  0.79294800  1
  Ce  Ce3  1  0.38897300  0.66124900  0.16710100  1
  Ce  Ce4  1  0.66124900  0.16710100  0.38897300  1
  Ce  Ce5  1  0.16710100  0.38897300  0.66124900  1
  Ce  Ce6  1  0.61102700  0.33875100  0.83289900  1
  Ce  Ce7  1  0.33875100  0.83289900  0.61102700  1
  Ce  Ce8  1  0.83289900  0.61102700  0.33875100  1
  Pt  Pt0  1  0.04492000  0.84108300  0.40614600  1
  Pt  Pt1  1  0.84108300  0.40614600  0.04492000  1
  Pt  Pt2  1  0.40614600  0.04492000  0.84108300  1
  Pt  Pt3  1  0.95508000  0.15891700  0.59385400  1
  Pt  Pt4  1  0.15891700  0.59385400  0.95508000  1
  Pt  Pt5  1  0.59385400  0.95508000  0.15891700  1
loop_
_geom_bond_atom_site_label_1
_geom_bond_atom_site_label_2
_geom_bond_distance
_geom_bond_site_symmetry_2
Ce0 Pt4 3.032422 1_544
Ce0 Pt1 3.032422 1_455
Ce0 Pt5 3.032422 1_445
Ce0 Pt2 3.032422 1_554
Ce0 Pt3 3.032422 1_454
Ce0 Pt0 3.032422 1_545
Ce1 Pt5 2.961881 1_545
Ce1 Pt4 2.961881 1_554
Ce1 Pt3 2.961881 1_455
Ce1 Pt1 3.146398 1_455
Ce1 Pt2 3.146398 1_554
Ce1 Pt0 3.146398 1_545
Ce2 Pt2 2.961881 1_565
Ce2 Pt1 2.961881 1_556
Ce2 Pt0 2.961881 1_655
Ce2 Pt4 3.146398 1_655
Ce2 Pt5 3.146398 1_556
Ce2 Pt3 3.146398 1_565
Ce3 Pt0 2.904450 1_555
Ce3 Pt4 2.936322 1_554
Ce3 Pt5 3.055157 1_555
Ce3 Pt2 3.205998 1_564
Ce3 Pt1 3.392185 1_555
Ce4 Pt1 2.904450 1_555
Ce4 Pt5 2.936322 1_545
Ce4 Pt3 3.055157 1_555
Ce4 Pt0 3.205998 1_645
Ce4 Pt2 3.392185 1_555
Ce5 Pt2 2.904450 1_555
Ce5 Pt3 2.936322 1_455
Ce5 Pt4 3.055157 1_555
Ce5 Pt1 3.205998 1_456
Ce5 Pt0 3.392185 1_555
Ce6 Pt3 2.904450 1_555
Ce6 Pt1 2.936322 1_556
Ce6 Pt2 3.055157 1_555
Ce6 Pt5 3.205998 1_546
Ce6 Pt4 3.392185 1_555
Ce7 Pt4 2.904450 1_555
Ce7 Pt2 2.936322 1_565
Ce7 Pt0 3.055157 1_555
Ce7 Pt3 3.205998 1_465
Ce7 Pt5 3.392185 1_555
Ce8 Pt5 2.904450 1_555
Ce8 Pt0 2.936322 1_655
Ce8 Pt1 3.055157 1_555
Ce8 Pt4 3.205998 1_654
Ce8 Pt3 3.392185 1_555
Pt0 Pt3 2.965562 1_465
Pt1 Pt4 2.965562 1_654
Pt2 Pt5 2.965562 1_546
