# generated using pymatgen
data_U2Cu3Si4Ni
_symmetry_space_group_name_H-M   'P 1'
_cell_length_a   3.94908500
_cell_length_b   3.94908500
_cell_length_c   9.90106100
_cell_angle_alpha   90.00000000
_cell_angle_beta   90.00000000
_cell_angle_gamma   90.00000000
_symmetry_Int_Tables_number   1
_chemical_formula_structural   U2Cu3Si4Ni
_chemical_formula_sum   'U2 Cu3 Si4 Ni1'
_cell_volume   154.40974272
_cell_formula_units_Z   1
loop_
 _symmetry_equiv_pos_site_id
 _symmetry_equiv_pos_as_xyz
  1  'x, y, z'
loop_
 _atom_site_type_symbol
 _atom_site_label
 _atom_site_symmetry_multiplicity
 _atom_site_fract_x
 _atom_site_fract_y
 _atom_site_fract_z
 _atom_site_occupancy
  U  U0  1  0.50000000  0.00000000  0.75407800  1
  U  U1  1  0.00000000  0.50000000  0.24592200  1
  Cu  Cu0  1  0.00000000  0.00000000  0.50000000  1
  Cu  Cu1  1  0.00000000  0.00000000  0.00000000  1
  Cu  Cu2  1  0.50000000  0.50000000  0.50000000  1
  Si  Si0  1  0.00000000  0.50000000  0.87340700  1
  Si  Si1  1  0.50000000  0.00000000  0.36278400  1
  Si  Si2  1  0.50000000  0.00000000  0.12659300  1
  Si  Si3  1  0.00000000  0.50000000  0.63721600  1
  Ni  Ni0  1  0.50000000  0.50000000  0.00000000  1
loop_
_geom_bond_atom_site_label_1
_geom_bond_atom_site_label_2
_geom_bond_distance
_geom_bond_site_symmetry_2
Cu0 Si1 2.396783 1_555
Cu0 Si1 2.396783 1_455
Cu0 Si3 2.396783 1_545
Cu0 Si3 2.396783 1_555
Cu0 Cu2 2.792425 1_455
Cu0 Cu2 2.792425 1_445
Cu0 Cu2 2.792425 1_555
Cu0 Cu2 2.792425 1_545
Cu0 U1 3.198011 1_555
Cu0 U0 3.198011 1_455
Cu0 U1 3.198011 1_545
Cu0 U0 3.198011 1_555
Cu1 Si0 2.338769 1_554
Cu1 Si2 2.338769 1_455
Cu1 Si2 2.338769 1_555
Cu1 Si0 2.338769 1_544
Cu1 Ni0 2.792425 1_445
Cu1 Ni0 2.792425 1_555
Cu1 Ni0 2.792425 1_455
Cu1 Ni0 2.792425 1_545
Cu1 U0 3.134885 1_454
Cu1 U1 3.134885 1_555
Cu1 U1 3.134885 1_545
Cu1 U0 3.134885 1_554
Cu2 Si1 2.396783 1_555
Cu2 Si3 2.396783 1_555
Cu2 Si3 2.396783 1_655
Cu2 Si1 2.396783 1_565
Cu2 U1 3.198011 1_555
Cu2 U0 3.198011 1_565
Cu2 U1 3.198011 1_655
Cu2 U0 3.198011 1_555
Si0 Si3 2.338541 1_555
Si0 U0 3.032085 1_465
Si0 U0 3.032085 1_565
Si0 U0 3.032085 1_555
Si0 U0 3.032085 1_455
Si1 Si2 2.338541 1_555
Si1 U1 3.022651 1_555
Si1 U1 3.022651 1_655
Si1 U1 3.022651 1_545
Si1 U1 3.022651 1_645
Si2 U1 3.032085 1_545
Si2 U1 3.032085 1_645
Si2 U1 3.032085 1_555
Si2 U1 3.032085 1_655
Si3 U0 3.022651 1_455
Si3 U0 3.022651 1_465
Si3 U0 3.022651 1_565
Si3 U0 3.022651 1_555
Ni0 Si0 2.338769 1_554
Ni0 Si0 2.338769 1_654
Ni0 Si2 2.338769 1_565
Ni0 Si2 2.338769 1_555
Ni0 U1 3.134885 1_655
Ni0 U0 3.134885 1_554
Ni0 U1 3.134885 1_555
Ni0 U0 3.134885 1_564
