# generated using pymatgen
data_AlSi9Ni16
_symmetry_space_group_name_H-M   'P 1'
_cell_length_a   7.08038926
_cell_length_b   7.08038926
_cell_length_c   12.07763300
_cell_angle_alpha   90.00000000
_cell_angle_beta   90.00000000
_cell_angle_gamma   105.68543746
_symmetry_Int_Tables_number   1
_chemical_formula_structural   AlSi9Ni16
_chemical_formula_sum   'Al2 Si18 Ni32'
_cell_volume   582.92725156
_cell_formula_units_Z   2
loop_
 _symmetry_equiv_pos_site_id
 _symmetry_equiv_pos_as_xyz
  1  'x, y, z'
loop_
 _atom_site_type_symbol
 _atom_site_label
 _atom_site_symmetry_multiplicity
 _atom_site_fract_x
 _atom_site_fract_y
 _atom_site_fract_z
 _atom_site_occupancy
  Al  Al0  1  0.28328900  0.64966000  0.25000000  1
  Al  Al1  1  0.35034000  0.71671100  0.75000000  1
  Si  Si0  1  0.41166700  0.41414500  0.40640700  1
  Si  Si1  1  0.58585500  0.58833300  0.59359300  1
  Si  Si2  1  0.41166700  0.41414500  0.09359300  1
  Si  Si3  1  0.58585500  0.58833300  0.90640700  1
  Si  Si4  1  0.15816300  0.15768000  0.85732800  1
  Si  Si5  1  0.84232000  0.84183700  0.14267200  1
  Si  Si6  1  0.15816300  0.15768000  0.64267200  1
  Si  Si7  1  0.84232000  0.84183700  0.35732800  1
  Si  Si8  1  0.00644900  0.38282600  0.39890300  1
  Si  Si9  1  0.61717400  0.99355100  0.60109700  1
  Si  Si10  1  0.00644900  0.38282600  0.10109700  1
  Si  Si11  1  0.61717400  0.99355100  0.89890300  1
  Si  Si12  1  0.99688900  0.62148500  0.60581200  1
  Si  Si13  1  0.37851500  0.00311100  0.39418800  1
  Si  Si14  1  0.99688900  0.62148500  0.89418800  1
  Si  Si15  1  0.37851500  0.00311100  0.10581200  1
  Si  Si16  1  0.71854000  0.33618900  0.75000000  1
  Si  Si17  1  0.66381100  0.28146000  0.25000000  1
  Ni  Ni0  1  0.10397200  0.71702000  0.42431800  1
  Ni  Ni1  1  0.28298000  0.89602800  0.57568200  1
  Ni  Ni2  1  0.10397200  0.71702000  0.07568200  1
  Ni  Ni3  1  0.28298000  0.89602800  0.92431800  1
  Ni  Ni4  1  0.89054800  0.28172900  0.57825400  1
  Ni  Ni5  1  0.71827100  0.10945200  0.42174600  1
  Ni  Ni6  1  0.89054800  0.28172900  0.92174600  1
  Ni  Ni7  1  0.71827100  0.10945200  0.07825400  1
  Ni  Ni8  1  0.12651400  0.12651000  0.44070300  1
  Ni  Ni9  1  0.87349000  0.87348600  0.55929700  1
  Ni  Ni10  1  0.12651400  0.12651000  0.05929700  1
  Ni  Ni11  1  0.87349000  0.87348600  0.94070300  1
  Ni  Ni12  1  0.58506200  0.57403500  0.25000000  1
  Ni  Ni13  1  0.42596500  0.41493800  0.75000000  1
  Ni  Ni14  1  0.74833200  0.51629800  0.44228800  1
  Ni  Ni15  1  0.48370200  0.25166800  0.55771200  1
  Ni  Ni16  1  0.74833200  0.51629800  0.05771200  1
  Ni  Ni17  1  0.48370200  0.25166800  0.94228800  1
  Ni  Ni18  1  0.24959100  0.48303700  0.56016900  1
  Ni  Ni19  1  0.51696300  0.75040900  0.43983100  1
  Ni  Ni20  1  0.24959100  0.48303700  0.93983100  1
  Ni  Ni21  1  0.51696300  0.75040900  0.06016900  1
  Ni  Ni22  1  0.93316500  0.55891500  0.25000000  1
  Ni  Ni23  1  0.44108500  0.06683500  0.75000000  1
  Ni  Ni24  1  0.06070200  0.42776500  0.75000000  1
  Ni  Ni25  1  0.57223500  0.93929800  0.25000000  1
  Ni  Ni26  1  0.93848500  0.16411800  0.25000000  1
  Ni  Ni27  1  0.83588200  0.06151500  0.75000000  1
  Ni  Ni28  1  0.07727700  0.85727100  0.75000000  1
  Ni  Ni29  1  0.14272900  0.92272300  0.25000000  1
  Ni  Ni30  1  0.73774400  0.69510300  0.75000000  1
  Ni  Ni31  1  0.30489700  0.26225600  0.25000000  1
loop_
_geom_bond_atom_site_label_1
_geom_bond_atom_site_label_2
_geom_bond_distance
_geom_bond_site_symmetry_2
Al0 Ni12 2.338951 1_555
Al0 Ni22 2.386858 1_455
Al0 Ni29 2.401849 1_555
Al0 Ni25 2.474370 1_555
Al0 Ni0 2.568920 1_555
Al0 Ni2 2.568920 1_555
Al0 Ni31 2.788227 1_555
Al0 Ni19 2.804388 1_555
Al0 Ni21 2.804388 1_555
Al0 Si0 2.827525 1_555
Al0 Si2 2.827525 1_555
Al1 Ni13 2.338951 1_555
Al1 Ni23 2.386858 1_565
Al1 Ni28 2.401849 1_555
Al1 Ni24 2.474370 1_555
Al1 Ni3 2.568920 1_555
Al1 Ni1 2.568920 1_555
Al1 Ni30 2.788227 1_555
Al1 Ni18 2.804388 1_555
Al1 Ni20 2.804388 1_555
Al1 Si3 2.827525 1_555
Al1 Si1 2.827525 1_555
Si4 Si6 2.592536 1_555
Si5 Si7 2.592536 1_555
Ni0 Si8 2.299254 1_555
Ni0 Si12 2.357973 1_455
Ni0 Ni1 2.384586 1_555
Ni0 Si7 2.398546 1_455
Ni0 Si13 2.425936 1_565
Ni0 Ni29 2.532382 1_555
Ni0 Ni22 2.533025 1_455
Ni0 Ni14 2.544119 1_455
Ni0 Ni18 2.724583 1_555
Ni0 Ni9 2.743283 1_455
Ni0 Ni8 2.867166 1_565
Ni0 Ni19 2.875375 1_555
Ni1 Si9 2.299254 1_555
Ni1 Si13 2.357973 1_565
Ni1 Si6 2.398546 1_565
Ni1 Si12 2.425936 1_455
Ni1 Ni28 2.532382 1_555
Ni1 Ni23 2.533025 1_565
Ni1 Ni15 2.544119 1_565
Ni1 Ni19 2.724583 1_555
Ni1 Ni8 2.743283 1_565
Ni1 Ni9 2.867166 1_455
Ni1 Ni18 2.875375 1_555
Ni2 Si10 2.299254 1_555
Ni2 Si14 2.357973 1_454
Ni2 Ni3 2.384586 1_554
Ni2 Si5 2.398546 1_455
Ni2 Si15 2.425936 1_565
Ni2 Ni29 2.532382 1_555
Ni2 Ni22 2.533025 1_455
Ni2 Ni20 2.724583 1_554
Ni2 Ni21 2.875375 1_555
Ni3 Si11 2.299254 1_555
Ni3 Si15 2.357973 1_566
Ni3 Si4 2.398546 1_565
Ni3 Si14 2.425936 1_455
Ni4 Si12 2.342062 1_555
Ni4 Si8 2.358035 1_655
Ni4 Ni5 2.396723 1_555
Ni4 Si9 2.418766 1_545
Ni4 Si6 2.422181 1_655
Ni4 Si16 2.487672 1_555
Ni4 Ni8 2.784220 1_655
Ni4 Ni9 2.869380 1_545
Ni5 Si13 2.342062 1_555
Ni5 Si9 2.358035 1_545
Ni5 Si8 2.418766 1_655
Ni5 Si7 2.422181 1_545
Ni5 Si17 2.487672 1_555
Ni5 Ni9 2.784220 1_545
Ni5 Ni8 2.869380 1_655
Ni6 Si14 2.342062 1_555
Ni6 Si10 2.358035 1_656
Ni6 Ni7 2.396723 1_556
Ni6 Si11 2.418766 1_545
Ni6 Si4 2.422181 1_655
Ni6 Si16 2.487672 1_555
Ni7 Si15 2.342062 1_555
Ni7 Si11 2.358035 1_544
Ni7 Si10 2.418766 1_655
Ni7 Si5 2.422181 1_545
Ni7 Si17 2.487672 1_555
Ni8 Si8 2.259494 1_555
Ni8 Si13 2.259540 1_555
Ni8 Si6 2.454058 1_555
Ni8 Si0 2.484394 1_555
Ni8 Ni9 2.595221 1_445
Ni8 Si7 2.632978 1_445
Ni9 Si9 2.259494 1_555
Ni9 Si12 2.259540 1_555
Ni9 Si7 2.454058 1_555
Ni9 Si1 2.484394 1_555
Ni9 Si6 2.632978 1_665
Ni10 Si10 2.259494 1_555
Ni10 Si15 2.259540 1_555
Ni10 Si4 2.454058 1_554
Ni10 Si2 2.484394 1_555
Ni10 Ni11 2.595221 1_444
Ni10 Si5 2.632978 1_445
Ni10 Ni31 2.677225 1_555
Ni10 Ni26 2.709228 1_455
Ni10 Ni29 2.736715 1_545
Ni10 Ni3 2.743283 1_544
Ni10 Ni6 2.784220 1_454
Ni10 Ni17 2.822514 1_554
Ni10 Ni20 2.832692 1_554
Ni10 Ni2 2.867166 1_545
Ni10 Ni7 2.869380 1_455
Ni11 Si11 2.259494 1_555
Ni11 Si14 2.259540 1_555
Ni11 Si5 2.454058 1_556
Ni11 Si3 2.484394 1_555
Ni11 Si4 2.632978 1_665
Ni11 Ni30 2.677225 1_555
Ni11 Ni27 2.709228 1_565
Ni11 Ni28 2.736715 1_655
Ni11 Ni2 2.743283 1_656
Ni11 Ni7 2.784220 1_566
Ni11 Ni16 2.822514 1_556
Ni11 Ni21 2.832692 1_556
Ni11 Ni3 2.867166 1_655
Ni11 Ni6 2.869380 1_565
Ni12 Si17 2.286204 1_555
Ni12 Si0 2.367652 1_555
Ni12 Si2 2.367652 1_555
Ni12 Ni22 2.495777 1_555
Ni12 Ni31 2.537780 1_555
Ni12 Si7 2.593448 1_555
Ni12 Si5 2.593448 1_555
Ni12 Ni25 2.612222 1_555
Ni12 Ni14 2.674413 1_555
Ni12 Ni16 2.674413 1_555
Ni12 Ni19 2.715524 1_555
Ni12 Ni21 2.715524 1_555
Ni13 Si16 2.286204 1_555
Ni13 Si3 2.367652 1_555
Ni13 Si1 2.367652 1_555
Ni13 Ni23 2.495777 1_555
Ni13 Ni30 2.537780 1_555
Ni13 Si6 2.593448 1_555
Ni13 Si4 2.593448 1_555
Ni13 Ni24 2.612222 1_555
Ni13 Ni17 2.674413 1_555
Ni13 Ni15 2.674413 1_555
Ni13 Ni20 2.715524 1_555
Ni13 Ni18 2.715524 1_555
Ni14 Si1 2.289155 1_555
Ni14 Si8 2.332709 1_655
Ni14 Si0 2.336838 1_555
Ni14 Si7 2.445229 1_555
Ni14 Si12 2.616047 1_555
Ni14 Ni19 2.626866 1_555
Ni14 Ni22 2.642662 1_555
Ni14 Ni15 2.658285 1_555
Ni14 Ni4 2.715372 1_555
Ni14 Ni9 2.822514 1_555
Ni14 Si17 2.824585 1_555
Ni14 Ni5 2.841364 1_555
Ni15 Si0 2.289155 1_555
Ni15 Si9 2.332709 1_545
Ni15 Si1 2.336838 1_555
Ni15 Si6 2.445229 1_555
Ni15 Si13 2.616047 1_555
Ni15 Ni18 2.626866 1_555
Ni15 Ni23 2.642662 1_555
Ni15 Ni5 2.715372 1_555
Ni15 Ni8 2.822514 1_555
Ni15 Si16 2.824585 1_555
Ni15 Ni4 2.841364 1_555
Ni16 Si3 2.289155 1_554
Ni16 Si10 2.332709 1_655
Ni16 Si2 2.336838 1_555
Ni16 Si5 2.445229 1_555
Ni16 Ni2 2.544119 1_655
Ni16 Si14 2.616047 1_554
Ni16 Ni21 2.626866 1_555
Ni16 Ni22 2.642662 1_555
Ni16 Ni17 2.658285 1_554
Ni16 Ni6 2.715372 1_554
Ni16 Si17 2.824585 1_555
Ni16 Ni7 2.841364 1_555
Ni17 Si2 2.289155 1_556
Ni17 Si11 2.332709 1_545
Ni17 Si3 2.336838 1_555
Ni17 Si4 2.445229 1_555
Ni17 Ni3 2.544119 1_545
Ni17 Si15 2.616047 1_556
Ni17 Ni20 2.626866 1_555
Ni17 Ni23 2.642662 1_555
Ni17 Ni7 2.715372 1_556
Ni17 Si16 2.824585 1_555
Ni17 Ni6 2.841364 1_555
Ni18 Si0 2.303529 1_555
Ni18 Si12 2.326910 1_455
Ni18 Si1 2.329720 1_555
Ni18 Si6 2.431549 1_555
Ni18 Ni4 2.565670 1_455
Ni18 Si8 2.569094 1_555
Ni18 Ni24 2.629700 1_555
Ni18 Ni19 2.709648 1_555
Ni18 Ni8 2.832692 1_555
Ni19 Si1 2.303529 1_555
Ni19 Si13 2.326910 1_565
Ni19 Si0 2.329720 1_555
Ni19 Si7 2.431549 1_555
Ni19 Ni5 2.565670 1_565
Ni19 Si9 2.569094 1_555
Ni19 Ni25 2.629700 1_555
Ni19 Ni9 2.832692 1_555
Ni20 Si2 2.303529 1_556
Ni20 Si14 2.326910 1_455
Ni20 Si3 2.329720 1_555
Ni20 Si4 2.431549 1_555
Ni20 Ni6 2.565670 1_455
Ni20 Si10 2.569094 1_556
Ni20 Ni24 2.629700 1_555
Ni20 Ni21 2.709648 1_556
Ni20 Ni3 2.875375 1_555
Ni21 Si3 2.303529 1_554
Ni21 Si15 2.326910 1_565
Ni21 Si2 2.329720 1_555
Ni21 Si5 2.431549 1_555
Ni21 Ni7 2.565670 1_565
Ni21 Si11 2.569094 1_554
Ni21 Ni25 2.629700 1_555
Ni21 Ni3 2.724583 1_554
Ni22 Si8 2.325451 1_655
Ni22 Si10 2.325451 1_655
Ni22 Si17 2.338925 1_555
Ni22 Si7 2.608361 1_555
Ni22 Si5 2.608361 1_555
Ni22 Ni26 2.805734 1_555
Ni23 Si9 2.325451 1_545
Ni23 Si11 2.325451 1_545
Ni23 Si16 2.338925 1_555
Ni23 Ni3 2.533025 1_545
Ni23 Si6 2.608361 1_555
Ni23 Si4 2.608361 1_555
Ni23 Ni27 2.805734 1_555
Ni24 Si16 2.332432 1_455
Ni24 Si14 2.335209 1_455
Ni24 Si12 2.335209 1_455
Ni24 Ni6 2.479852 1_455
Ni24 Ni4 2.479852 1_455
Ni24 Si4 2.554788 1_555
Ni24 Si6 2.554788 1_555
Ni24 Ni27 2.650759 1_455
Ni25 Si17 2.332432 1_565
Ni25 Si13 2.335209 1_565
Ni25 Si15 2.335209 1_565
Ni25 Ni5 2.479852 1_565
Ni25 Ni7 2.479852 1_565
Ni25 Si7 2.554788 1_555
Ni25 Si5 2.554788 1_555
Ni25 Ni26 2.650759 1_565
Ni26 Si17 2.312184 1_555
Ni26 Si8 2.336843 1_655
Ni26 Si10 2.336843 1_655
Ni26 Ni31 2.497736 1_655
Ni26 Ni29 2.519725 1_645
Ni26 Si7 2.551621 1_545
Ni26 Si5 2.551621 1_545
Ni26 Ni5 2.560715 1_555
Ni26 Ni7 2.560715 1_555
Ni26 Ni8 2.709228 1_655
Ni27 Si16 2.312184 1_555
Ni27 Si9 2.336843 1_545
Ni27 Si11 2.336843 1_545
Ni27 Ni30 2.497736 1_545
Ni27 Ni28 2.519725 1_645
Ni27 Si4 2.551621 1_655
Ni27 Si6 2.551621 1_655
Ni27 Ni6 2.560715 1_555
Ni27 Ni4 2.560715 1_555
Ni27 Ni9 2.709228 1_545
Ni28 Ni30 2.367528 1_455
Ni28 Si14 2.372742 1_455
Ni28 Si12 2.372742 1_455
Ni28 Si4 2.423596 1_565
Ni28 Si6 2.423596 1_565
Ni28 Ni3 2.532382 1_555
Ni28 Ni9 2.736715 1_455
Ni29 Ni31 2.367528 1_565
Ni29 Si13 2.372742 1_565
Ni29 Si15 2.372742 1_565
Ni29 Si7 2.423596 1_455
Ni29 Si5 2.423596 1_455
Ni29 Ni8 2.736715 1_565
Ni30 Si3 2.203832 1_555
Ni30 Si1 2.203832 1_555
Ni30 Si16 2.507909 1_555
Ni30 Ni9 2.677225 1_555
Ni30 Si12 2.681072 1_555
Ni30 Si14 2.681072 1_555
Ni31 Si0 2.203832 1_555
Ni31 Si2 2.203832 1_555
Ni31 Si17 2.507909 1_555
Ni31 Ni8 2.677225 1_555
Ni31 Si13 2.681072 1_555
Ni31 Si15 2.681072 1_555
