# generated using pymatgen
data_RbPr(SeO4)2
_symmetry_space_group_name_H-M   'P 1'
_cell_length_a   7.59118400
_cell_length_b   9.11031200
_cell_length_c   11.29442619
_cell_angle_alpha   88.40242523
_cell_angle_beta   90.00000000
_cell_angle_gamma   90.00000000
_symmetry_Int_Tables_number   1
_chemical_formula_structural   RbPr(SeO4)2
_chemical_formula_sum   'Rb4 Pr4 Se8 O32'
_cell_volume   780.79692713
_cell_formula_units_Z   4
loop_
 _symmetry_equiv_pos_site_id
 _symmetry_equiv_pos_as_xyz
  1  'x, y, z'
loop_
 _atom_site_type_symbol
 _atom_site_label
 _atom_site_symmetry_multiplicity
 _atom_site_fract_x
 _atom_site_fract_y
 _atom_site_fract_z
 _atom_site_occupancy
  Rb  Rb0  1  0.34980100  0.43327500  0.83840900  1
  Rb  Rb1  1  0.65019900  0.56672500  0.16159100  1
  Rb  Rb2  1  0.84980100  0.56672500  0.66159100  1
  Rb  Rb3  1  0.15019900  0.43327500  0.33840900  1
  Pr  Pr0  1  0.16501200  0.94483600  0.84791000  1
  Pr  Pr1  1  0.83498800  0.05516400  0.15209000  1
  Pr  Pr2  1  0.66501200  0.05516400  0.65209000  1
  Pr  Pr3  1  0.33498800  0.94483600  0.34791000  1
  Se  Se0  1  0.16481300  0.18593600  0.60682900  1
  Se  Se1  1  0.83518700  0.81406400  0.39317100  1
  Se  Se2  1  0.66481300  0.81406400  0.89317100  1
  Se  Se3  1  0.33518700  0.18593600  0.10682900  1
  Se  Se4  1  0.33942500  0.72551900  0.58838200  1
  Se  Se5  1  0.66057500  0.27448100  0.41161800  1
  Se  Se6  1  0.83942500  0.27448100  0.91161800  1
  Se  Se7  1  0.16057500  0.72551900  0.08838200  1
  O  O0  1  0.81975700  0.87223200  0.53109400  1
  O  O1  1  0.18024300  0.12776800  0.46890600  1
  O  O2  1  0.31975700  0.12776800  0.96890600  1
  O  O3  1  0.68024300  0.87223200  0.03109400  1
  O  O4  1  0.50335000  0.90988300  0.81952000  1
  O  O5  1  0.49665000  0.09011700  0.18048000  1
  O  O6  1  0.00335000  0.09011700  0.68048000  1
  O  O7  1  0.99665000  0.90988300  0.31952000  1
  O  O8  1  0.13946300  0.36482500  0.60602800  1
  O  O9  1  0.86053700  0.63517500  0.39397200  1
  O  O10  1  0.63946300  0.63517500  0.89397200  1
  O  O11  1  0.36053700  0.36482500  0.10602800  1
  O  O12  1  0.25382700  0.70589800  0.95487900  1
  O  O13  1  0.74617300  0.29410200  0.04512100  1
  O  O14  1  0.75382700  0.29410200  0.54512100  1
  O  O15  1  0.24617300  0.70589800  0.45487900  1
  O  O16  1  0.44278600  0.88882600  0.55896800  1
  O  O17  1  0.55721400  0.11117400  0.44103200  1
  O  O18  1  0.94278600  0.11117400  0.94103200  1
  O  O19  1  0.05721400  0.88882600  0.05896800  1
  O  O20  1  0.47653700  0.59381100  0.62747000  1
  O  O21  1  0.52346300  0.40618900  0.37253000  1
  O  O22  1  0.97653700  0.40618900  0.87253000  1
  O  O23  1  0.02346300  0.59381100  0.12747000  1
  O  O24  1  0.83871300  0.86367100  0.80482400  1
  O  O25  1  0.16128700  0.13632900  0.19517600  1
  O  O26  1  0.33871300  0.13632900  0.69517600  1
  O  O27  1  0.66128700  0.86367100  0.30482400  1
  O  O28  1  0.18617600  0.75038900  0.69338800  1
  O  O29  1  0.81382400  0.24961100  0.30661200  1
  O  O30  1  0.68617600  0.24961100  0.80661200  1
  O  O31  1  0.31382400  0.75038900  0.19338800  1
loop_
_geom_bond_atom_site_label_1
_geom_bond_atom_site_label_2
_geom_bond_distance
_geom_bond_site_symmetry_2
O0 Se1 1.663488 1_555
O0 Pr2 2.480301 1_565
O0 Rb2 3.121248 1_555
O1 Se0 1.663488 1_555
O1 Pr3 2.480301 1_545
O1 Rb3 3.121248 1_555
O2 Se3 1.663488 1_556
O2 Pr0 2.480301 1_545
O2 Rb0 3.121248 1_555
O3 Se2 1.663488 1_554
O3 Pr1 2.480301 1_565
O3 Rb1 3.121248 1_555
O4 Se2 1.707581 1_555
O4 Pr2 2.587326 1_565
O4 Pr0 2.608930 1_555
O5 Se3 1.707581 1_555
O5 Pr3 2.587326 1_545
O5 Pr1 2.608930 1_555
O6 Se0 1.707581 1_555
O6 Pr0 2.587326 1_545
O6 Pr2 2.608930 1_455
O7 Se1 1.707581 1_555
O7 Pr1 2.587326 1_565
O7 Pr3 2.608930 1_655
O8 Se0 1.640831 1_555
O8 Rb2 2.945596 1_455
O8 Rb3 3.070269 1_555
O8 Rb0 3.149320 1_555
O9 Se1 1.640831 1_555
O9 Rb3 2.945596 1_655
O9 Rb2 3.070269 1_555
O9 Rb1 3.149320 1_555
O10 Se2 1.640831 1_555
O10 Rb0 2.945596 1_555
O10 Rb1 3.070269 1_556
O10 Rb2 3.149320 1_555
O11 Se3 1.640831 1_555
O11 Rb1 2.945596 1_555
O11 Rb0 3.070269 1_554
O11 Rb3 3.149320 1_555
O12 Se7 1.679784 1_556
O12 Pr0 2.550689 1_555
O12 Rb0 2.934634 1_555
O13 Se6 1.679784 1_554
O13 Pr1 2.550689 1_555
O13 Rb1 2.934634 1_555
O14 Se5 1.679784 1_555
O14 Pr2 2.550689 1_555
O14 Rb2 2.934634 1_555
O15 Se4 1.679784 1_555
O15 Pr3 2.550689 1_555
O15 Rb3 2.934634 1_555
O16 Se4 1.706440 1_555
O16 Pr2 2.517401 1_565
O16 Pr3 2.558240 1_555
O17 Se5 1.706440 1_555
O17 Pr3 2.517401 1_545
O17 Pr2 2.558240 1_555
O18 Se6 1.706440 1_555
O18 Pr0 2.517401 1_645
O18 Pr1 2.558240 1_556
O19 Se7 1.706440 1_555
O19 Pr1 2.517401 1_465
O19 Pr0 2.558240 1_554
O20 Se4 1.639658 1_555
O20 Rb2 2.869306 1_555
O20 Rb0 2.923406 1_555
O21 Se5 1.639658 1_555
O21 Rb3 2.869306 1_555
O21 Rb1 2.923406 1_555
O22 Se6 1.639658 1_555
O22 Rb0 2.869306 1_655
O22 Rb2 2.923406 1_555
O23 Se7 1.639658 1_555
O23 Rb1 2.869306 1_455
O23 Rb3 2.923406 1_555
O24 Se2 1.708053 1_555
O24 Pr0 2.634227 1_655
O24 Pr2 2.755024 1_565
O24 Rb2 3.191655 1_555
O25 Se3 1.708053 1_555
O25 Pr1 2.634227 1_455
O25 Pr3 2.755024 1_545
O25 Rb3 3.191655 1_555
O26 Se0 1.708053 1_555
O26 Pr2 2.634227 1_555
O26 Pr0 2.755024 1_545
O26 Rb0 3.191655 1_555
O27 Se1 1.708053 1_555
O27 Pr3 2.634227 1_555
O27 Pr1 2.755024 1_565
O27 Rb1 3.191655 1_555
O28 Se4 1.681141 1_555
O28 Pr0 2.526295 1_555
O28 Rb2 3.079364 1_455
O29 Se5 1.681141 1_555
O29 Pr1 2.526295 1_555
O29 Rb3 3.079364 1_655
O30 Se6 1.681141 1_555
O30 Pr2 2.526295 1_555
O30 Rb0 3.079364 1_555
O31 Se7 1.681141 1_555
O31 Pr3 2.526295 1_555
O31 Rb1 3.079364 1_555
