# generated using pymatgen
data_Mg2Mo3O8
_symmetry_space_group_name_H-M   'P 1'
_cell_length_a   5.75499375
_cell_length_b   5.75499375
_cell_length_c   10.34168717
_cell_angle_alpha   90.00000000
_cell_angle_beta   90.00000000
_cell_angle_gamma   119.99999442
_symmetry_Int_Tables_number   1
_chemical_formula_structural   Mg2Mo3O8
_chemical_formula_sum   'Mg4 Mo6 O16'
_cell_volume   296.62774207
_cell_formula_units_Z   2
loop_
 _symmetry_equiv_pos_site_id
 _symmetry_equiv_pos_as_xyz
  1  'x, y, z'
loop_
 _atom_site_type_symbol
 _atom_site_label
 _atom_site_symmetry_multiplicity
 _atom_site_fract_x
 _atom_site_fract_y
 _atom_site_fract_z
 _atom_site_occupancy
  Mg  Mg0  1  0.66666700  0.33333300  0.57692489  1
  Mg  Mg1  1  0.33333300  0.66666700  0.07692489  1
  Mg  Mg2  1  0.66666700  0.33333300  0.97216526  1
  Mg  Mg3  1  0.33333300  0.66666700  0.47216526  1
  Mo  Mo0  1  0.36496400  0.18248200  0.25706650  1
  Mo  Mo1  1  0.81751800  0.63503600  0.25706650  1
  Mo  Mo2  1  0.81751800  0.18248200  0.25706650  1
  Mo  Mo3  1  0.63503600  0.81751800  0.75706650  1
  Mo  Mo4  1  0.18248200  0.36496400  0.75706650  1
  Mo  Mo5  1  0.18248200  0.81751800  0.75706650  1
  O  O0  1  -0.00000000  -0.00000000  0.16042107  1
  O  O1  1  -0.00000000  -0.00000000  0.66042107  1
  O  O2  1  0.66666700  0.33333300  0.39441598  1
  O  O3  1  0.33333300  0.66666700  0.89441598  1
  O  O4  1  0.96710611  0.48355255  0.12621505  1
  O  O5  1  0.51644745  0.03289389  0.12621505  1
  O  O6  1  0.51644745  0.48355255  0.12621505  1
  O  O7  1  0.03289389  0.51644745  0.62621505  1
  O  O8  1  0.48355255  0.96710611  0.62621505  1
  O  O9  1  0.48355255  0.51644745  0.62621505  1
  O  O10  1  0.33782630  0.16891315  0.85002738  1
  O  O11  1  0.83108685  0.66217370  0.85002738  1
  O  O12  1  0.83108685  0.16891315  0.85002738  1
  O  O13  1  0.66217370  0.83108685  0.35002738  1
  O  O14  1  0.16891315  0.33782630  0.35002738  1
  O  O15  1  0.16891315  0.83108685  0.35002738  1
loop_
_geom_bond_atom_site_label_1
_geom_bond_atom_site_label_2
_geom_bond_distance
_geom_bond_site_symmetry_2
Mg0 O2 1.887450 1_555
Mg0 O7 1.895106 1_655
Mg0 O8 1.895106 1_545
Mg0 O9 1.895116 1_555
Mg1 O3 1.887450 1_554
Mg1 O5 1.895106 1_565
Mg1 O4 1.895106 1_455
Mg1 O6 1.895116 1_555
Mg2 O12 2.069187 1_555
Mg2 O11 2.069191 1_555
Mg2 O10 2.069191 1_555
Mg2 O6 2.186372 1_556
Mg2 O5 2.186372 1_556
Mg2 O4 2.186372 1_556
Mg3 O15 2.069187 1_555
Mg3 O13 2.069191 1_555
Mg3 O14 2.069191 1_555
Mg3 O9 2.186372 1_555
Mg3 O8 2.186372 1_555
Mg3 O7 2.186372 1_555
Mo0 O14 2.001289 1_555
Mo0 O15 2.001290 1_545
Mo0 O6 2.020601 1_555
Mo0 O5 2.020605 1_555
Mo0 O2 2.068492 1_555
Mo0 O0 2.075477 1_555
Mo1 O13 2.001289 1_555
Mo1 O15 2.001290 1_655
Mo1 O6 2.020601 1_555
Mo1 O4 2.020605 1_555
Mo1 O2 2.068492 1_555
Mo1 O0 2.075477 1_665
Mo2 O13 2.001290 1_545
Mo2 O14 2.001290 1_655
Mo2 O5 2.020601 1_555
Mo2 O4 2.020601 1_555
Mo2 O2 2.068488 1_555
Mo2 O0 2.075477 1_655
Mo3 O11 2.001289 1_555
Mo3 O12 2.001290 1_565
Mo3 O9 2.020601 1_555
Mo3 O8 2.020605 1_555
Mo3 O3 2.068492 1_555
Mo3 O1 2.075477 1_665
Mo4 O10 2.001289 1_555
Mo4 O12 2.001290 1_455
Mo4 O9 2.020601 1_555
Mo4 O7 2.020605 1_555
Mo4 O3 2.068492 1_555
Mo4 O1 2.075477 1_555
Mo5 O11 2.001290 1_455
Mo5 O10 2.001290 1_565
Mo5 O7 2.020601 1_555
Mo5 O8 2.020601 1_555
Mo5 O3 2.068488 1_555
Mo5 O1 2.075477 1_565
