# generated using pymatgen
data_Nd5(BO3)4
_symmetry_space_group_name_H-M   'P 1'
_cell_length_a   7.91950400
_cell_length_b   8.73606000
_cell_length_c   15.20718000
_cell_angle_alpha   90.00000000
_cell_angle_beta   90.00000000
_cell_angle_gamma   90.00000000
_symmetry_Int_Tables_number   1
_chemical_formula_structural   Nd5(BO3)4
_chemical_formula_sum   'Nd20 B16 O48'
_cell_volume   1052.11273432
_cell_formula_units_Z   4
loop_
 _symmetry_equiv_pos_site_id
 _symmetry_equiv_pos_as_xyz
  1  'x, y, z'
loop_
 _atom_site_type_symbol
 _atom_site_label
 _atom_site_symmetry_multiplicity
 _atom_site_fract_x
 _atom_site_fract_y
 _atom_site_fract_z
 _atom_site_occupancy
  Nd  Nd0  1  0.33695700  0.45554900  0.75000000  1
  Nd  Nd1  1  0.66304300  0.54445100  0.25000000  1
  Nd  Nd2  1  0.16304300  0.95554900  0.25000000  1
  Nd  Nd3  1  0.83695700  0.04445100  0.75000000  1
  Nd  Nd4  1  0.00377000  0.32622900  0.59748000  1
  Nd  Nd5  1  0.99623000  0.67377100  0.40252000  1
  Nd  Nd6  1  0.49623000  0.82622900  0.40252000  1
  Nd  Nd7  1  0.99623000  0.67377100  0.09748000  1
  Nd  Nd8  1  0.50377000  0.17377100  0.59748000  1
  Nd  Nd9  1  0.00377000  0.32622900  0.90252000  1
  Nd  Nd10  1  0.50377000  0.17377100  0.90252000  1
  Nd  Nd11  1  0.49623000  0.82622900  0.09748000  1
  Nd  Nd12  1  0.33302400  0.33557500  0.12901000  1
  Nd  Nd13  1  0.66697600  0.66442500  0.87099000  1
  Nd  Nd14  1  0.16697600  0.83557500  0.87099000  1
  Nd  Nd15  1  0.66697600  0.66442500  0.62901000  1
  Nd  Nd16  1  0.83302400  0.16442500  0.12901000  1
  Nd  Nd17  1  0.33302400  0.33557500  0.37099000  1
  Nd  Nd18  1  0.83302400  0.16442500  0.37099000  1
  Nd  Nd19  1  0.16697600  0.83557500  0.62901000  1
  B  B0  1  0.51401000  0.86034000  0.75000000  1
  B  B1  1  0.48599000  0.13966000  0.25000000  1
  B  B2  1  0.98599000  0.36034000  0.25000000  1
  B  B3  1  0.01401000  0.63966000  0.75000000  1
  B  B4  1  0.15632900  0.16960700  0.75000000  1
  B  B5  1  0.84367100  0.83039300  0.25000000  1
  B  B6  1  0.34367100  0.66960700  0.25000000  1
  B  B7  1  0.65632900  0.33039300  0.75000000  1
  B  B8  1  0.15599500  0.05900200  0.04036800  1
  B  B9  1  0.84400500  0.94099800  0.95963200  1
  B  B10  1  0.34400500  0.55900200  0.95963200  1
  B  B11  1  0.84400500  0.94099800  0.54036800  1
  B  B12  1  0.65599500  0.44099800  0.04036800  1
  B  B13  1  0.15599500  0.05900200  0.45963200  1
  B  B14  1  0.65599500  0.44099800  0.45963200  1
  B  B15  1  0.34400500  0.55900200  0.54036800  1
  O  O0  1  0.24460200  0.22397000  0.66920000  1
  O  O1  1  0.75539800  0.77603000  0.33080000  1
  O  O2  1  0.25539800  0.72397000  0.33080000  1
  O  O3  1  0.75539800  0.77603000  0.16920000  1
  O  O4  1  0.74460200  0.27603000  0.66920000  1
  O  O5  1  0.24460200  0.22397000  0.83080000  1
  O  O6  1  0.74460200  0.27603000  0.83080000  1
  O  O7  1  0.25539800  0.72397000  0.16920000  1
  O  O8  1  0.10184800  0.21222400  0.04278300  1
  O  O9  1  0.89815200  0.78777600  0.95721700  1
  O  O10  1  0.39815200  0.71222400  0.95721700  1
  O  O11  1  0.89815200  0.78777600  0.54278300  1
  O  O12  1  0.60184800  0.28777600  0.04278300  1
  O  O13  1  0.10184800  0.21222400  0.45721700  1
  O  O14  1  0.60184800  0.28777600  0.45721700  1
  O  O15  1  0.39815200  0.71222400  0.54278300  1
  O  O16  1  0.06508600  0.57009700  0.67001400  1
  O  O17  1  0.93491400  0.42990300  0.32998600  1
  O  O18  1  0.43491400  0.07009700  0.32998600  1
  O  O19  1  0.93491400  0.42990300  0.17001400  1
  O  O20  1  0.56508600  0.92990300  0.67001400  1
  O  O21  1  0.06508600  0.57009700  0.82998600  1
  O  O22  1  0.56508600  0.92990300  0.82998600  1
  O  O23  1  0.43491400  0.07009700  0.17001400  1
  O  O24  1  0.14040300  0.00159000  0.75000000  1
  O  O25  1  0.85959700  0.99841000  0.25000000  1
  O  O26  1  0.35959700  0.50159000  0.25000000  1
  O  O27  1  0.64040300  0.49841000  0.75000000  1
  O  O28  1  0.38283700  0.74784100  0.75000000  1
  O  O29  1  0.61716300  0.25215900  0.25000000  1
  O  O30  1  0.11716300  0.24784100  0.25000000  1
  O  O31  1  0.88283700  0.75215900  0.75000000  1
  O  O32  1  0.29382200  0.01369700  0.50830200  1
  O  O33  1  0.70617800  0.98630300  0.49169800  1
  O  O34  1  0.20617800  0.51369700  0.49169800  1
  O  O35  1  0.70617800  0.98630300  0.00830200  1
  O  O36  1  0.79382200  0.48630300  0.50830200  1
  O  O37  1  0.29382200  0.01369700  0.99169800  1
  O  O38  1  0.79382200  0.48630300  0.99169800  1
  O  O39  1  0.20617800  0.51369700  0.00830200  1
  O  O40  1  0.43550500  0.46187800  0.59527800  1
  O  O41  1  0.56449500  0.53812200  0.40472200  1
  O  O42  1  0.06449500  0.96187800  0.40472200  1
  O  O43  1  0.56449500  0.53812200  0.09527800  1
  O  O44  1  0.93550500  0.03812200  0.59527800  1
  O  O45  1  0.43550500  0.46187800  0.90472200  1
  O  O46  1  0.93550500  0.03812200  0.90472200  1
  O  O47  1  0.06449500  0.96187800  0.09527800  1
loop_
_geom_bond_atom_site_label_1
_geom_bond_atom_site_label_2
_geom_bond_distance
_geom_bond_site_symmetry_2
Nd0 O27 2.432138 1_555
Nd0 O0 2.477426 1_555
Nd0 O5 2.477426 1_555
Nd0 O45 2.479563 1_555
Nd0 O40 2.479563 1_555
Nd0 O28 2.579202 1_555
Nd0 O21 2.667714 1_555
Nd0 O16 2.667714 1_555
Nd1 O26 2.432138 1_555
Nd1 O3 2.477426 1_555
Nd1 O1 2.477426 1_555
Nd1 O41 2.479563 1_555
Nd1 O43 2.479563 1_555
Nd1 O29 2.579202 1_555
Nd1 O19 2.667714 1_555
Nd1 O17 2.667714 1_555
Nd2 O25 2.432138 1_455
Nd2 O7 2.477426 1_555
Nd2 O2 2.477426 1_555
Nd2 O42 2.479563 1_555
Nd2 O47 2.479563 1_555
Nd2 O30 2.579202 1_565
Nd2 O23 2.667714 1_565
Nd2 O18 2.667714 1_565
Nd3 O24 2.432138 1_655
Nd3 O4 2.477426 1_555
Nd3 O6 2.477426 1_555
Nd3 O46 2.479563 1_555
Nd3 O44 2.479563 1_555
Nd3 O31 2.579202 1_545
Nd3 O20 2.667714 1_545
Nd3 O22 2.667714 1_545
Nd4 O4 2.365278 1_455
Nd4 O0 2.371766 1_555
Nd4 O16 2.447711 1_555
Nd4 O13 2.478899 1_555
Nd4 O36 2.561097 1_455
Nd4 O44 2.574545 1_455
Nd4 O34 2.799897 1_555
Nd5 O2 2.365278 1_655
Nd5 O1 2.371766 1_555
Nd5 O17 2.447711 1_555
Nd5 O11 2.478899 1_555
Nd5 O34 2.561097 1_655
Nd5 O42 2.574545 1_655
Nd5 O36 2.799897 1_555
Nd6 O1 2.365278 1_555
Nd6 O2 2.371766 1_555
Nd6 O18 2.447711 1_565
Nd6 O15 2.478899 1_555
Nd6 O33 2.561097 1_555
Nd6 O41 2.574545 1_555
Nd6 O32 2.799897 1_565
Nd7 O7 2.365278 1_655
Nd7 O3 2.371766 1_555
Nd7 O19 2.447711 1_555
Nd7 O9 2.478899 1_554
Nd7 O39 2.561097 1_655
Nd7 O47 2.574545 1_655
Nd7 O38 2.799897 1_554
Nd8 O0 2.365278 1_555
Nd8 O4 2.371766 1_555
Nd8 O20 2.447711 1_545
Nd8 O14 2.478899 1_555
Nd8 O32 2.561097 1_555
Nd8 O40 2.574545 1_555
Nd8 O33 2.799897 1_545
Nd9 O6 2.365278 1_455
Nd9 O5 2.371766 1_555
Nd9 O21 2.447711 1_555
Nd9 O8 2.478899 1_556
Nd9 O38 2.561097 1_455
Nd9 O46 2.574545 1_455
Nd9 O39 2.799897 1_556
Nd10 O5 2.365278 1_555
Nd10 O6 2.371766 1_555
Nd10 O22 2.447711 1_545
Nd10 O12 2.478899 1_556
Nd10 O37 2.561097 1_555
Nd10 O45 2.574545 1_555
Nd10 O35 2.799897 1_546
Nd11 O3 2.365278 1_555
Nd11 O7 2.371766 1_555
Nd11 O23 2.447711 1_565
Nd11 O10 2.478899 1_554
Nd11 O35 2.561097 1_555
Nd11 O43 2.574545 1_555
Nd11 O37 2.799897 1_564
Nd12 O26 2.352233 1_555
Nd12 O8 2.496493 1_555
Nd12 O23 2.533530 1_555
Nd12 O12 2.535002 1_555
Nd12 O43 2.598946 1_555
Nd12 O39 2.607694 1_555
Nd12 O30 2.625866 1_555
Nd13 O27 2.352233 1_555
Nd13 O9 2.496493 1_555
Nd13 O22 2.533530 1_555
Nd13 O10 2.535002 1_555
Nd13 O45 2.598946 1_555
Nd13 O38 2.607694 1_555
Nd13 O31 2.625866 1_555
Nd14 O24 2.352233 1_565
Nd14 O10 2.496493 1_555
Nd14 O21 2.533530 1_555
Nd14 O9 2.535002 1_455
Nd14 O46 2.598946 1_465
Nd14 O37 2.607694 1_565
Nd14 O28 2.625866 1_555
Nd15 O27 2.352233 1_555
Nd15 O11 2.496493 1_555
Nd15 O20 2.533530 1_555
Nd15 O15 2.535002 1_555
Nd15 O40 2.598946 1_555
Nd15 O36 2.607694 1_555
Nd15 O31 2.625866 1_555
Nd16 O25 2.352233 1_545
Nd16 O12 2.496493 1_555
Nd16 O19 2.533530 1_555
Nd16 O8 2.535002 1_655
Nd16 O47 2.598946 1_645
Nd16 O35 2.607694 1_545
Nd16 O29 2.625866 1_555
Nd17 O26 2.352233 1_555
Nd17 O13 2.496493 1_555
Nd17 O18 2.533530 1_555
Nd17 O14 2.535002 1_555
Nd17 O41 2.598946 1_555
Nd17 O34 2.607694 1_555
Nd17 O30 2.625866 1_555
Nd18 O25 2.352233 1_545
Nd18 O14 2.496493 1_555
Nd18 O17 2.533530 1_555
Nd18 O13 2.535002 1_655
Nd18 O42 2.598946 1_645
Nd18 O33 2.607694 1_545
Nd18 O29 2.625866 1_555
Nd19 O24 2.352233 1_565
Nd19 O15 2.496493 1_555
Nd19 O16 2.533530 1_555
Nd19 O11 2.535002 1_455
Nd19 O44 2.598946 1_465
Nd19 O32 2.607694 1_565
Nd19 O28 2.625866 1_555
B0 O20 1.418612 1_555
B0 O22 1.418612 1_555
B0 O28 1.430052 1_555
B1 O18 1.418612 1_555
B1 O23 1.418612 1_555
B1 O29 1.430052 1_555
B2 O19 1.418612 1_555
B2 O17 1.418612 1_555
B2 O30 1.430052 1_655
B3 O21 1.418612 1_555
B3 O16 1.418612 1_555
B3 O31 1.430052 1_455
B4 O24 1.473216 1_555
B4 O0 1.491328 1_555
B4 O5 1.491328 1_555
B5 O25 1.473216 1_555
B5 O3 1.491328 1_555
B5 O1 1.491328 1_555
B6 O26 1.473216 1_555
B6 O7 1.491328 1_555
B6 O2 1.491328 1_555
B7 O27 1.473216 1_555
B7 O4 1.491328 1_555
B7 O6 1.491328 1_555
B8 O37 1.376904 1_554
B8 O47 1.393659 1_545
B8 O8 1.406047 1_555
B9 O35 1.376904 1_556
B9 O46 1.393659 1_565
B9 O9 1.406047 1_555
B10 O39 1.376904 1_556
B10 O45 1.393659 1_555
B10 O10 1.406047 1_555
B11 O33 1.376904 1_555
B11 O44 1.393659 1_565
B11 O11 1.406047 1_555
B12 O38 1.376904 1_554
B12 O43 1.393659 1_555
B12 O12 1.406047 1_555
B13 O32 1.376904 1_555
B13 O42 1.393659 1_545
B13 O13 1.406047 1_555
B14 O36 1.376904 1_555
B14 O41 1.393659 1_555
B14 O14 1.406047 1_555
B15 O34 1.376904 1_555
B15 O40 1.393659 1_555
B15 O15 1.406047 1_555
