# generated using pymatgen
data_Ag3HSN3O2
_symmetry_space_group_name_H-M   'P 1'
_cell_length_a   7.10206500
_cell_length_b   9.02761700
_cell_length_c   11.37518300
_cell_angle_alpha   90.00000000
_cell_angle_beta   90.00000000
_cell_angle_gamma   90.00000000
_symmetry_Int_Tables_number   1
_chemical_formula_structural   Ag3HSN3O2
_chemical_formula_sum   'Ag12 H4 S4 N12 O8'
_cell_volume   729.31670404
_cell_formula_units_Z   4
loop_
 _symmetry_equiv_pos_site_id
 _symmetry_equiv_pos_as_xyz
  1  'x, y, z'
loop_
 _atom_site_type_symbol
 _atom_site_label
 _atom_site_symmetry_multiplicity
 _atom_site_fract_x
 _atom_site_fract_y
 _atom_site_fract_z
 _atom_site_occupancy
  Ag  Ag0  1  0.00850400  0.05019400  0.11983700  1
  Ag  Ag1  1  0.99149600  0.94980600  0.88016300  1
  Ag  Ag2  1  0.50850400  0.94980600  0.88016300  1
  Ag  Ag3  1  0.49149600  0.94980600  0.61983700  1
  Ag  Ag4  1  0.49149600  0.05019400  0.11983700  1
  Ag  Ag5  1  0.50850400  0.05019400  0.38016300  1
  Ag  Ag6  1  0.99149600  0.05019400  0.38016300  1
  Ag  Ag7  1  0.00850400  0.94980600  0.61983700  1
  Ag  Ag8  1  0.25000000  0.27659700  0.24873900  1
  Ag  Ag9  1  0.75000000  0.72340200  0.75126100  1
  Ag  Ag10  1  0.25000000  0.72340200  0.74873900  1
  Ag  Ag11  1  0.75000000  0.27659700  0.25126100  1
  H  H0  1  0.25000000  0.86293200  0.21994200  1
  H  H1  1  0.75000000  0.13706800  0.78005800  1
  H  H2  1  0.25000000  0.13706800  0.71994200  1
  H  H3  1  0.75000000  0.86293200  0.28005800  1
  S  S0  1  0.25000000  0.23760100  0.54388300  1
  S  S1  1  0.75000000  0.76239900  0.45611700  1
  S  S2  1  0.25000000  0.76239900  0.04388300  1
  S  S3  1  0.75000000  0.23760100  0.95611700  1
  N  N0  1  0.25000000  0.16101900  0.41483800  1
  N  N1  1  0.75000000  0.83898100  0.58516200  1
  N  N2  1  0.25000000  0.83898100  0.91483800  1
  N  N3  1  0.75000000  0.16101900  0.08516200  1
  N  N4  1  0.25000000  0.08698200  0.63834500  1
  N  N5  1  0.75000000  0.91301800  0.36165500  1
  N  N6  1  0.25000000  0.91301800  0.13834500  1
  N  N7  1  0.75000000  0.08698200  0.86165500  1
  N  N8  1  0.25000000  0.35159200  0.08173100  1
  N  N9  1  0.75000000  0.64840800  0.91826900  1
  N  N10  1  0.25000000  0.64840800  0.58173100  1
  N  N11  1  0.75000000  0.35159200  0.41826900  1
  O  O0  1  0.07457900  0.31437800  0.56659200  1
  O  O1  1  0.92542100  0.68562200  0.43340800  1
  O  O2  1  0.57457900  0.68562200  0.43340800  1
  O  O3  1  0.42542100  0.68562200  0.06659200  1
  O  O4  1  0.42542100  0.31437800  0.56659200  1
  O  O5  1  0.57457900  0.31437800  0.93340800  1
  O  O6  1  0.92542100  0.31437800  0.93340800  1
  O  O7  1  0.07457900  0.68562200  0.06659200  1
loop_
_geom_bond_atom_site_label_1
_geom_bond_atom_site_label_2
_geom_bond_distance
_geom_bond_site_symmetry_2
Ag0 N6 2.125918 1_545
Ag0 N3 2.127704 1_455
Ag1 N7 2.125918 1_565
Ag1 N2 2.127704 1_655
Ag2 N7 2.125918 1_565
Ag2 N2 2.127704 1_555
Ag3 N4 2.125918 1_565
Ag3 N1 2.127704 1_555
Ag4 N6 2.125918 1_545
Ag4 N3 2.127704 1_555
Ag5 N5 2.125918 1_545
Ag5 N0 2.127704 1_555
Ag6 N5 2.125918 1_545
Ag6 N0 2.127704 1_655
Ag7 N4 2.125918 1_565
Ag7 N1 2.127704 1_455
Ag8 N8 2.016780 1_555
Ag8 N0 2.158362 1_555
Ag9 N9 2.016777 1_555
Ag9 N1 2.158367 1_555
Ag10 N10 2.016777 1_555
Ag10 N2 2.158367 1_555
Ag11 N11 2.016780 1_555
Ag11 N3 2.158362 1_555
H0 N6 1.032456 1_555
H1 N7 1.032456 1_555
H2 N4 1.032456 1_555
H3 N5 1.032456 1_555
N0 S0 1.622569 1_555
N1 S1 1.622569 1_555
N2 S2 1.622569 1_556
N3 S3 1.622569 1_554
N4 S0 1.733051 1_555
N5 S1 1.733051 1_555
N6 S2 1.733051 1_555
N7 S3 1.733051 1_555
O0 S0 1.448889 1_555
O1 S1 1.448889 1_555
O2 S1 1.448889 1_555
O3 S2 1.448889 1_555
O4 S0 1.448889 1_555
O5 S3 1.448889 1_555
O6 S3 1.448889 1_555
O7 S2 1.448889 1_555
