# generated using pymatgen
data_P3RuW2O15
_symmetry_space_group_name_H-M   'P 1'
_cell_length_a   9.62887897
_cell_length_b   13.04457120
_cell_length_c   19.92732731
_cell_angle_alpha   109.10519398
_cell_angle_beta   101.51194872
_cell_angle_gamma   90.00000000
_symmetry_Int_Tables_number   1
_chemical_formula_structural   P3RuW2O15
_chemical_formula_sum   'P24 Ru8 W16 O120'
_cell_volume   2311.74604573
_cell_formula_units_Z   8
loop_
 _symmetry_equiv_pos_site_id
 _symmetry_equiv_pos_as_xyz
  1  'x, y, z'
loop_
 _atom_site_type_symbol
 _atom_site_label
 _atom_site_symmetry_multiplicity
 _atom_site_fract_x
 _atom_site_fract_y
 _atom_site_fract_z
 _atom_site_occupancy
  P  P0  1  0.91493674  0.42297550  0.26615716  1
  P  P1  1  0.58506326  0.15681834  0.73384284  1
  P  P2  1  0.08506326  0.57702450  0.73384284  1
  P  P3  1  0.41493674  0.84318166  0.26615716  1
  P  P4  1  0.93711051  0.90905711  0.27423893  1
  P  P5  1  0.56288949  0.63481818  0.72576107  1
  P  P6  1  0.06288949  0.09094289  0.72576107  1
  P  P7  1  0.43711051  0.36518182  0.27423893  1
  P  P8  1  0.54947036  0.14065750  0.23002889  1
  P  P9  1  0.95052964  0.91062860  0.76997111  1
  P  P10  1  0.45052964  0.85934250  0.76997111  1
  P  P11  1  0.04947036  0.08937140  0.23002889  1
  P  P12  1  0.73550189  0.93679481  0.50848670  1
  P  P13  1  0.76449811  0.42830810  0.49151330  1
  P  P14  1  0.26449811  0.06320519  0.49151330  1
  P  P15  1  0.23550189  0.57169190  0.50848670  1
  P  P16  1  0.08914130  0.58091280  0.22839760  1
  P  P17  1  0.41085870  0.35251520  0.77160240  1
  P  P18  1  0.91085870  0.41908720  0.77160240  1
  P  P19  1  0.58914130  0.64748480  0.22839760  1
  P  P20  1  0.75000000  0.92952570  0.00000000  1
  P  P21  1  0.25000000  0.07047430  1.00000000  1
  P  P22  1  0.75000000  0.43251333  0.00000000  1
  P  P23  1  0.25000000  0.56748667  1.00000000  1
  Ru  Ru0  1  0.50343897  0.25832136  0.48864004  1
  Ru  Ru1  1  0.99656103  0.76968132  0.51135996  1
  Ru  Ru2  1  0.49656103  0.74167864  0.51135996  1
  Ru  Ru3  1  0.00343897  0.23031868  0.48864004  1
  Ru  Ru4  1  0.49695697  0.24592293  0.98912673  1
  Ru  Ru5  1  0.00304303  0.25679620  0.01087327  1
  Ru  Ru6  1  0.50304303  0.75407707  0.01087327  1
  Ru  Ru7  1  0.99695697  0.74320380  0.98912673  1
  W  W0  1  0.79839865  0.19713412  0.61874130  1
  W  W1  1  0.70160135  0.57839282  0.38125870  1
  W  W2  1  0.20160135  0.80286588  0.38125870  1
  W  W3  1  0.29839865  0.42160718  0.61874130  1
  W  W4  1  0.78504822  0.18828883  0.12424508  1
  W  W5  1  0.71495178  0.06404375  0.87575492  1
  W  W6  1  0.21495178  0.81171117  0.87575492  1
  W  W7  1  0.28504822  0.93595625  0.12424508  1
  W  W8  1  0.81779688  0.68640743  0.12366432  1
  W  W9  1  0.68220312  0.56274312  0.87633568  1
  W  W10  1  0.18220312  0.31359257  0.87633568  1
  W  W11  1  0.31779688  0.43725688  0.12366432  1
  W  W12  1  0.19291492  0.32215944  0.37056595  1
  W  W13  1  0.30708508  0.95159349  0.62943405  1
  W  W14  1  0.80708508  0.67784056  0.62943405  1
  W  W15  1  0.69291492  0.04840651  0.37056595  1
  O  O0  1  0.88283956  0.90130529  0.53351570  1
  O  O1  1  0.61716044  0.36778959  0.46648430  1
  O  O2  1  0.11716044  0.09869471  0.46648430  1
  O  O3  1  0.38283956  0.63221041  0.53351570  1
  O  O4  1  0.50357081  0.25450659  0.27841861  1
  O  O5  1  0.99642919  0.97608798  0.72158139  1
  O  O6  1  0.49642919  0.74549341  0.72158139  1
  O  O7  1  0.00357081  0.02391202  0.27841861  1
  O  O8  1  0.61421733  0.35760158  0.97103501  1
  O  O9  1  0.88578267  0.38656656  0.02896499  1
  O  O10  1  0.38578267  0.64239842  0.02896499  1
  O  O11  1  0.11421733  0.61343344  0.97103501  1
  O  O12  1  0.11783740  0.65438741  0.30853226  1
  O  O13  1  0.38216260  0.34585515  0.69146774  1
  O  O14  1  0.88216260  0.34561259  0.69146774  1
  O  O15  1  0.61783740  0.65414485  0.30853226  1
  O  O16  1  0.00244323  0.47243594  0.22239711  1
  O  O17  1  0.49755677  0.25003883  0.77760289  1
  O  O18  1  0.99755677  0.52756406  0.77760289  1
  O  O19  1  0.50244323  0.74996117  0.22239711  1
  O  O20  1  0.71669929  0.04460616  0.56995814  1
  O  O21  1  0.78330071  0.47464802  0.43004186  1
  O  O22  1  0.28330071  0.95539384  0.43004186  1
  O  O23  1  0.21669929  0.52535198  0.56995814  1
  O  O24  1  0.02032947  0.38008436  0.31609918  1
  O  O25  1  0.47967053  0.06398518  0.68390082  1
  O  O26  1  0.97967053  0.61991564  0.68390082  1
  O  O27  1  0.52032947  0.93601482  0.31609918  1
  O  O28  1  0.76351005  0.47079082  0.93449076  1
  O  O29  1  0.73648995  0.53630007  0.06550924  1
  O  O30  1  0.23648995  0.52920918  0.06550924  1
  O  O31  1  0.26351005  0.46369993  0.93449076  1
  O  O32  1  0.89737295  0.83605006  0.19442480  1
  O  O33  1  0.60262705  0.64162526  0.80557520  1
  O  O34  1  0.10262705  0.16394994  0.80557520  1
  O  O35  1  0.39737295  0.35837474  0.19442480  1
  O  O36  1  0.88721114  0.87642527  0.01623621  1
  O  O37  1  0.61278886  0.86018906  0.98376379  1
  O  O38  1  0.11278886  0.12357473  0.98376379  1
  O  O39  1  0.38721114  0.13981094  0.01623621  1
  O  O40  1  0.81741018  0.33186764  0.20592485  1
  O  O41  1  0.68258982  0.12594279  0.79407515  1
  O  O42  1  0.18258982  0.66813236  0.79407515  1
  O  O43  1  0.31741018  0.87405721  0.20592485  1
  O  O44  1  0.80601542  0.93136398  0.30718747  1
  O  O45  1  0.69398458  0.62417651  0.69281253  1
  O  O46  1  0.19398458  0.06863602  0.69281253  1
  O  O47  1  0.30601542  0.37582349  0.30718747  1
  O  O48  1  0.99607139  0.62989376  0.17737651  1
  O  O49  1  0.50392861  0.45251724  0.82262349  1
  O  O50  1  0.00392861  0.37010624  0.82262349  1
  O  O51  1  0.49607139  0.54748276  0.17737651  1
  O  O52  1  0.22796048  0.54297368  0.20543513  1
  O  O53  1  0.27203952  0.33753854  0.79456487  1
  O  O54  1  0.77203952  0.45702632  0.79456487  1
  O  O55  1  0.72796048  0.66246146  0.20543513  1
  O  O56  1  0.65201236  0.10056700  0.28401061  1
  O  O57  1  0.84798764  0.81655639  0.71598939  1
  O  O58  1  0.34798764  0.89943300  0.71598939  1
  O  O59  1  0.15201236  0.18344361  0.28401061  1
  O  O60  1  0.05549162  0.86331540  0.31589528  1
  O  O61  1  0.44450838  0.54742012  0.68410472  1
  O  O62  1  0.94450838  0.13668460  0.68410472  1
  O  O63  1  0.55549162  0.45257988  0.31589528  1
  O  O64  1  0.82706012  0.50985454  0.30533266  1
  O  O65  1  0.67293988  0.20452188  0.69466734  1
  O  O66  1  0.17293988  0.49014546  0.69466734  1
  O  O67  1  0.32706012  0.79547812  0.30533266  1
  O  O68  1  0.73269810  0.96693014  0.43851959  1
  O  O69  1  0.76730190  0.52841055  0.56148041  1
  O  O70  1  0.26730190  0.03306986  0.56148041  1
  O  O71  1  0.23269810  0.47158945  0.43851959  1
  O  O72  1  0.74736202  0.03388181  0.06605822  1
  O  O73  1  0.75263798  0.96782358  0.93394178  1
  O  O74  1  0.25263798  0.96611819  0.93394178  1
  O  O75  1  0.24736202  0.03217642  0.06605822  1
  O  O76  1  0.62271373  0.15949489  0.17445230  1
  O  O77  1  0.87728627  0.98504259  0.82554770  1
  O  O78  1  0.37728627  0.84050511  0.82554770  1
  O  O79  1  0.12271373  0.01495741  0.17445230  1
  O  O80  1  0.61169131  0.85426389  0.49087026  1
  O  O81  1  0.88830869  0.36339363  0.50912974  1
  O  O82  1  0.38830869  0.14573611  0.50912974  1
  O  O83  1  0.11169131  0.63660637  0.49087026  1
  O  O84  1  0.41301132  0.06751444  0.19837183  1
  O  O85  1  0.08698868  0.86914262  0.80162817  1
  O  O86  1  0.58698868  0.93248556  0.80162817  1
  O  O87  1  0.91301132  0.13085738  0.19837183  1
  O  O88  1  0.65904785  0.24903997  0.56744767  1
  O  O89  1  0.84095215  0.68159231  0.43255233  1
  O  O90  1  0.34095215  0.75096003  0.43255233  1
  O  O91  1  0.15904785  0.31840769  0.56744767  1
  O  O92  1  0.92242997  0.69785554  0.06035798  1
  O  O93  1  0.57757003  0.63749756  0.93964202  1
  O  O94  1  0.07757003  0.30214446  0.93964202  1
  O  O95  1  0.42242997  0.36250244  0.06035798  1
  O  O96  1  0.92505640  0.19065181  0.56171430  1
  O  O97  1  0.57494360  0.62893751  0.43828570  1
  O  O98  1  0.07494360  0.80934819  0.43828570  1
  O  O99  1  0.42505640  0.37106249  0.56171430  1
  O  O100  1  0.35025174  0.27329889  0.41165415  1
  O  O101  1  0.14974826  0.86164474  0.58834585  1
  O  O102  1  0.64974826  0.72670111  0.58834585  1
  O  O103  1  0.85025174  0.13835526  0.41165415  1
  O  O104  1  0.07652862  0.27923488  0.41878358  1
  O  O105  1  0.42347138  0.86045130  0.58121642  1
  O  O106  1  0.92347138  0.72076512  0.58121642  1
  O  O107  1  0.57652862  0.13954870  0.41878358  1
  O  O108  1  0.93253672  0.21102312  0.08518199  1
  O  O109  1  0.56746328  0.12584113  0.91481801  1
  O  O110  1  0.06746328  0.78897688  0.91481801  1
  O  O111  1  0.43253672  0.87415887  0.08518199  1
  O  O112  1  0.66061234  0.74224666  0.08839323  1
  O  O113  1  0.83938766  0.65385342  0.91160677  1
  O  O114  1  0.33938766  0.25775334  0.91160677  1
  O  O115  1  0.16061234  0.34614658  0.08839323  1
  O  O116  1  0.65275174  0.23413435  0.06574382  1
  O  O117  1  0.84724826  0.16839053  0.93425618  1
  O  O118  1  0.34724826  0.76586565  0.93425618  1
  O  O119  1  0.15275174  0.83160947  0.06574382  1
loop_
_geom_bond_atom_site_label_1
_geom_bond_atom_site_label_2
_geom_bond_distance
_geom_bond_site_symmetry_2
O0 P12 1.531176 1_555
O0 Ru1 2.009659 1_555
O1 P13 1.531176 1_555
O1 Ru0 2.009659 1_555
O2 P14 1.531176 1_555
O2 Ru3 2.009659 1_555
O3 P15 1.531176 1_555
O3 Ru2 2.009659 1_555
O4 P7 1.599437 1_555
O4 P8 1.601058 1_555
O5 P6 1.599437 1_665
O5 P9 1.601059 1_555
O6 P5 1.599437 1_555
O6 P10 1.601058 1_555
O7 P4 1.599437 1_445
O7 P11 1.601059 1_555
O8 P22 1.525455 1_556
O8 Ru4 2.008321 1_555
O9 P22 1.525455 1_555
O9 Ru5 2.008321 1_655
O10 P23 1.525455 1_554
O10 Ru6 2.008321 1_555
O11 P23 1.525455 1_555
O11 Ru7 2.008321 1_455
O12 P16 1.538492 1_555
O12 W2 2.048944 1_555
O13 P17 1.538492 1_555
O13 W3 2.048944 1_555
O14 P18 1.538492 1_555
O14 W0 2.048944 1_555
O15 P19 1.538492 1_555
O15 W1 2.048944 1_555
O16 P0 1.596313 1_455
O16 P16 1.600911 1_555
O17 P1 1.596313 1_555
O17 P17 1.600911 1_555
O18 P2 1.596313 1_655
O18 P18 1.600911 1_555
O19 P3 1.596313 1_555
O19 P19 1.600911 1_555
O20 P12 1.572243 1_545
O20 W0 1.987775 1_555
O21 P13 1.572243 1_555
O21 W1 1.987775 1_555
O22 P14 1.572243 1_565
O22 W2 1.987775 1_555
O23 P15 1.572243 1_555
O23 W3 1.987775 1_555
O24 P0 1.514829 1_455
O24 W12 2.080265 1_555
O25 P1 1.514829 1_555
O25 W13 2.080265 1_545
O26 P2 1.514829 1_655
O26 W14 2.080265 1_555
O27 P3 1.514829 1_555
O27 W15 2.080265 1_565
O28 P22 1.569979 1_556
O28 W9 1.985564 1_555
O29 P22 1.569979 1_555
O29 W8 1.985564 1_555
O30 P23 1.569979 1_554
O30 W11 1.985564 1_555
O31 P23 1.569979 1_555
O31 W10 1.985564 1_555
O32 P4 1.532504 1_555
O32 W8 2.037829 1_555
O33 P5 1.532504 1_555
O33 W9 2.037829 1_555
O34 P6 1.532504 1_555
O34 W10 2.037829 1_555
O35 P7 1.532504 1_555
O35 W11 2.037829 1_555
O36 P20 1.518585 1_555
O36 Ru7 2.010431 1_554
O37 P20 1.518586 1_556
O37 Ru6 2.010431 1_556
O38 P21 1.518585 1_555
O38 Ru5 2.010431 1_556
O39 P21 1.518586 1_554
O39 Ru4 2.010431 1_554
O40 P0 1.533386 1_555
O40 W4 2.014005 1_555
O41 P1 1.533386 1_555
O41 W5 2.014005 1_555
O42 P2 1.533386 1_555
O42 W6 2.014005 1_555
O43 P3 1.533386 1_555
O43 W7 2.014005 1_555
O44 P4 1.521482 1_555
O44 W15 2.097338 1_565
O45 P5 1.521482 1_555
O45 W14 2.097338 1_555
O46 P6 1.521482 1_555
O46 W13 2.097338 1_545
O47 P7 1.521482 1_555
O47 W12 2.097338 1_555
O48 P16 1.518754 1_655
O48 W8 2.102119 1_555
O49 P17 1.518754 1_555
O49 W9 2.102119 1_555
O50 P18 1.518754 1_455
O50 W10 2.102119 1_555
O51 P19 1.518754 1_555
O51 W11 2.102119 1_555
O52 P16 1.528690 1_555
O52 W11 2.096859 1_555
O53 P17 1.528690 1_555
O53 W10 2.096859 1_555
O54 P18 1.528690 1_555
O54 W9 2.096859 1_555
O55 P19 1.528690 1_555
O55 W8 2.096859 1_555
O56 P8 1.532922 1_555
O56 W15 2.022414 1_555
O57 P9 1.532922 1_555
O57 W14 2.022414 1_555
O58 P10 1.532922 1_555
O58 W13 2.022414 1_555
O59 P11 1.532922 1_555
O59 W12 2.022414 1_555
O60 P4 1.513595 1_455
O60 W2 2.058774 1_555
O61 P5 1.513595 1_555
O61 W3 2.058774 1_555
O62 P6 1.513595 1_655
O62 W0 2.058774 1_555
O63 P7 1.513595 1_555
O63 W1 2.058774 1_555
O64 P0 1.514692 1_555
O64 W1 2.095682 1_555
O65 P1 1.514692 1_555
O65 W0 2.095682 1_555
O66 P2 1.514692 1_555
O66 W3 2.095682 1_555
O67 P3 1.514692 1_555
O67 W2 2.095682 1_555
O68 P12 1.563000 1_555
O68 W15 1.960889 1_565
O69 P13 1.563000 1_555
O69 W14 1.960889 1_555
O70 P14 1.563000 1_555
O70 W13 1.960889 1_545
O71 P15 1.563000 1_555
O71 W12 1.960889 1_555
O72 P20 1.557842 1_545
O72 W4 1.958644 1_555
O73 P20 1.557842 1_556
O73 W5 1.958644 1_565
O74 P21 1.557842 1_565
O74 W6 1.958644 1_555
O75 P21 1.557842 1_554
O75 W7 1.958644 1_545
O76 P8 1.508046 1_555
O76 W4 2.110819 1_555
O77 P9 1.508046 1_555
O77 W5 2.110819 1_565
O78 P10 1.508046 1_555
O78 W6 2.110819 1_555
O79 P11 1.508046 1_555
O79 W7 2.110819 1_545
O80 P12 1.512963 1_555
O80 Ru2 2.031186 1_555
O81 P13 1.512963 1_555
O81 Ru3 2.031186 1_655
O82 P14 1.512963 1_555
O82 Ru0 2.031186 1_555
O83 P15 1.512963 1_555
O83 Ru1 2.031186 1_455
O84 P8 1.519838 1_555
O84 W7 2.063816 1_545
O85 P9 1.519838 1_455
O85 W6 2.063816 1_555
O86 P10 1.519838 1_555
O86 W5 2.063816 1_565
O87 P11 1.519838 1_655
O87 W4 2.063816 1_555
O88 W0 1.791438 1_555
O88 Ru0 1.977670 1_555
O89 W1 1.791438 1_555
O89 Ru1 1.977670 1_555
O90 W2 1.791438 1_555
O90 Ru2 1.977670 1_555
O91 W3 1.791438 1_555
O91 Ru3 1.977670 1_555
O92 W8 1.805390 1_555
O92 Ru7 1.958560 1_554
O93 W9 1.805390 1_555
O93 Ru6 1.958561 1_556
O94 W10 1.805390 1_555
O94 Ru5 1.958560 1_556
O95 W11 1.805390 1_555
O95 Ru4 1.958561 1_554
O96 W0 1.810022 1_555
O96 Ru3 1.972236 1_655
O97 W1 1.810022 1_555
O97 Ru2 1.972237 1_555
O98 W2 1.810022 1_555
O98 Ru1 1.972236 1_455
O99 W3 1.810022 1_555
O99 Ru0 1.972237 1_555
O100 W12 1.793959 1_555
O100 Ru0 1.964787 1_555
O101 W13 1.793959 1_555
O101 Ru1 1.964787 1_455
O102 W14 1.793959 1_555
O102 Ru2 1.964787 1_555
O103 W15 1.793959 1_555
O103 Ru3 1.964787 1_655
O104 W12 1.809596 1_555
O104 Ru3 1.952629 1_555
O105 W13 1.809596 1_555
O105 Ru2 1.952629 1_555
O106 W14 1.809596 1_555
O106 Ru1 1.952629 1_555
O107 W15 1.809596 1_555
O107 Ru0 1.952629 1_555
O108 W4 1.817436 1_555
O108 Ru5 1.997534 1_655
O109 W5 1.817436 1_555
O109 Ru4 1.997534 1_555
O110 W6 1.817436 1_555
O110 Ru7 1.997534 1_455
O111 W7 1.817436 1_555
O111 Ru6 1.997534 1_555
O112 W8 1.796057 1_555
O112 Ru6 1.983084 1_555
O113 W9 1.796057 1_555
O113 Ru7 1.983084 1_555
O114 W10 1.796057 1_555
O114 Ru4 1.983084 1_555
O115 W11 1.796057 1_555
O115 Ru5 1.983084 1_555
O116 W4 1.789704 1_555
O116 Ru4 1.960760 1_554
O117 W5 1.789704 1_555
O117 Ru5 1.960760 1_656
O118 W6 1.789704 1_555
O118 Ru6 1.960760 1_556
O119 W7 1.789704 1_555
O119 Ru7 1.960760 1_454
