# generated using pymatgen
data_Rb7DyFe6(P4O17)2
_symmetry_space_group_name_H-M   'P 1'
_cell_length_a   9.40784500
_cell_length_b   10.00952323
_cell_length_c   10.14967355
_cell_angle_alpha   91.97441676
_cell_angle_beta   94.12274206
_cell_angle_gamma   116.23677711
_symmetry_Int_Tables_number   1
_chemical_formula_structural   Rb7DyFe6(P4O17)2
_chemical_formula_sum   'Rb7 Dy1 Fe6 P8 O34'
_cell_volume   852.74087152
_cell_formula_units_Z   1
loop_
 _symmetry_equiv_pos_site_id
 _symmetry_equiv_pos_as_xyz
  1  'x, y, z'
loop_
 _atom_site_type_symbol
 _atom_site_label
 _atom_site_symmetry_multiplicity
 _atom_site_fract_x
 _atom_site_fract_y
 _atom_site_fract_z
 _atom_site_occupancy
  Rb  Rb0  1  0.07294300  0.20926900  0.34236200  1
  Rb  Rb1  1  0.92705700  0.79073100  0.65763800  1
  Rb  Rb2  1  0.62649800  0.97375500  0.37653300  1
  Rb  Rb3  1  0.37350200  0.02624500  0.62346700  1
  Rb  Rb4  1  0.67692400  0.43921200  0.90594500  1
  Rb  Rb5  1  0.32307600  0.56078800  0.09405500  1
  Rb  Rb6  1  0.50000000  0.00000000  0.00000000  1
  Dy  Dy0  1  0.50000000  0.50000000  0.50000000  1
  Fe  Fe0  1  0.15616100  0.10787000  0.96642800  1
  Fe  Fe1  1  0.84383900  0.89213000  0.03357200  1
  Fe  Fe2  1  0.83478300  0.09449200  0.75357700  1
  Fe  Fe3  1  0.16521700  0.90550800  0.24642300  1
  Fe  Fe4  1  0.84511700  0.42326100  0.27710000  1
  Fe  Fe5  1  0.15488300  0.57673900  0.72290000  1
  P  P0  1  0.78549900  0.33376400  0.57180400  1
  P  P1  1  0.21450100  0.66623600  0.42819600  1
  P  P2  1  0.19403600  0.26625100  0.69223300  1
  P  P3  1  0.80596400  0.73374900  0.30776700  1
  P  P4  1  0.91012300  0.23095600  0.03791300  1
  P  P5  1  0.08987700  0.76904400  0.96208700  1
  P  P6  1  0.55767300  0.75561000  0.78073700  1
  P  P7  1  0.44232700  0.24439000  0.21926300  1
  O  O0  1  0.37495800  0.21980000  0.07075300  1
  O  O1  1  0.62504200  0.78020000  0.92924700  1
  O  O2  1  0.83826600  0.31242900  0.43289800  1
  O  O3  1  0.16173400  0.68757100  0.56710200  1
  O  O4  1  0.01657500  0.15697500  0.64218100  1
  O  O5  1  0.98342500  0.84302500  0.35781900  1
  O  O6  1  0.18071500  0.91579700  0.89312100  1
  O  O7  1  0.81928500  0.08420300  0.10687900  1
  O  O8  1  0.25876600  0.19698700  0.80063300  1
  O  O9  1  0.74123400  0.80301300  0.19936700  1
  O  O10  1  0.93244000  0.00644000  0.87657200  1
  O  O11  1  0.06756000  0.99356000  0.12342800  1
  O  O12  1  0.20575600  0.41568400  0.75174800  1
  O  O13  1  0.79424400  0.58431600  0.24825200  1
  O  O14  1  0.08706400  0.26744800  0.02880600  1
  O  O15  1  0.91293600  0.73255200  0.97119400  1
  O  O16  1  0.61789400  0.27153200  0.22041000  1
  O  O17  1  0.38210600  0.72846800  0.77959000  1
  O  O18  1  0.29488100  0.29443500  0.57309800  1
  O  O19  1  0.70511900  0.70556500  0.42690200  1
  O  O20  1  0.71564100  0.17661800  0.62824100  1
  O  O21  1  0.28435900  0.82338200  0.37175900  1
  O  O22  1  0.65531800  0.38833100  0.55582100  1
  O  O23  1  0.34468200  0.61166900  0.44417900  1
  O  O24  1  0.81761000  0.21938200  0.89952500  1
  O  O25  1  0.18239000  0.78061800  0.10047500  1
  O  O26  1  0.91007000  0.36518000  0.11869900  1
  O  O27  1  0.08993000  0.63482000  0.88130100  1
  O  O28  1  0.57617500  0.62661800  0.70787900  1
  O  O29  1  0.42382500  0.37338200  0.29212100  1
  O  O30  1  0.64698200  0.90251000  0.70831100  1
  O  O31  1  0.35301800  0.09749000  0.29168900  1
  O  O32  1  0.92636800  0.44615200  0.66550500  1
  O  O33  1  0.07363200  0.55384800  0.33449500  1
loop_
_geom_bond_atom_site_label_1
_geom_bond_atom_site_label_2
_geom_bond_distance
_geom_bond_site_symmetry_2
Dy0 O22 2.252593 1_555
Dy0 O23 2.252593 1_555
Dy0 O19 2.304000 1_555
Dy0 O18 2.304000 1_555
Dy0 O28 2.316638 1_555
Dy0 O29 2.316638 1_555
Fe0 O11 2.004137 1_546
Fe0 O10 2.015758 1_455
Fe0 O8 2.033436 1_555
Fe0 O0 2.044331 1_556
Fe0 O14 2.069377 1_556
Fe0 O6 2.149885 1_545
Fe1 O10 2.004137 1_564
Fe1 O11 2.015758 1_655
Fe1 O9 2.033436 1_555
Fe1 O1 2.044331 1_554
Fe1 O15 2.069377 1_554
Fe1 O7 2.149885 1_565
Fe2 O10 1.950930 1_555
Fe2 O30 1.961113 1_545
Fe2 O24 1.966858 1_555
Fe2 O4 1.993875 1_655
Fe2 O20 2.057206 1_555
Fe3 O11 1.950930 1_555
Fe3 O31 1.961113 1_565
Fe3 O25 1.966858 1_555
Fe3 O5 1.993875 1_455
Fe3 O21 2.057206 1_555
Fe4 O13 1.899516 1_555
Fe4 O26 1.920183 1_555
Fe4 O2 1.951330 1_555
Fe4 O33 1.988108 1_655
Fe4 O16 2.024778 1_555
Fe5 O12 1.899516 1_555
Fe5 O27 1.920183 1_555
Fe5 O3 1.951330 1_555
Fe5 O32 1.988108 1_455
Fe5 O17 2.024778 1_555
O0 P7 1.559955 1_555
O0 Rb6 3.006809 1_555
O0 Rb4 3.333449 1_554
O1 P6 1.559955 1_555
O1 Rb6 3.006809 1_566
O1 Rb5 3.333449 1_556
O2 P0 1.566314 1_555
O2 Rb0 3.004500 1_655
O2 Rb2 3.085350 1_545
O3 P1 1.566314 1_555
O3 Rb1 3.004500 1_455
O3 Rb3 3.085350 1_565
O4 P2 1.570655 1_555
O4 Rb0 3.148304 1_555
O4 Rb1 3.391431 1_445
O5 P3 1.570655 1_555
O5 Rb1 3.148304 1_555
O5 Rb0 3.391431 1_665
O6 P5 1.557239 1_555
O6 Rb6 2.853051 1_566
O6 Rb1 3.050699 1_455
O6 Rb3 3.339425 1_565
O7 P4 1.557239 1_555
O7 Rb6 2.853051 1_555
O7 Rb0 3.050699 1_655
O7 Rb2 3.339425 1_545
O8 P2 1.546454 1_555
O8 Rb3 3.002971 1_555
O9 P3 1.546454 1_555
O9 Rb2 3.002971 1_555
O10 Rb1 3.026346 1_545
O11 Rb0 3.026346 1_565
O12 P2 1.548117 1_555
O13 P3 1.548117 1_555
O14 P4 1.549134 1_455
O14 Rb5 2.807166 1_555
O14 Rb0 3.256550 1_555
O15 P5 1.549134 1_655
O15 Rb4 2.807166 1_555
O15 Rb1 3.256550 1_555
O16 P7 1.549950 1_555
O16 Rb6 3.190721 1_555
O16 Rb2 3.452801 1_545
O17 P6 1.549950 1_555
O17 Rb6 3.190721 1_566
O17 Rb3 3.452801 1_565
O18 P2 1.547131 1_555
O18 Rb0 2.855933 1_555
O18 Rb3 3.132171 1_555
O19 P3 1.547131 1_555
O19 Rb1 2.855933 1_555
O19 Rb2 3.132171 1_555
O20 P0 1.560909 1_555
O20 Rb3 2.883995 1_555
O20 Rb2 3.030196 1_545
O21 P1 1.560909 1_555
O21 Rb2 2.883995 1_555
O21 Rb3 3.030196 1_565
O22 P0 1.547116 1_555
O22 Rb3 3.545917 1_555
O23 P1 1.547116 1_555
O23 Rb2 3.545917 1_555
O24 P4 1.570881 1_556
O24 Rb4 3.029071 1_555
O24 Rb6 3.095376 1_556
O25 P5 1.570881 1_554
O25 Rb5 3.029071 1_555
O25 Rb6 3.095376 1_565
O26 P4 1.549872 1_555
O26 Rb4 3.299907 1_554
O26 Rb0 3.434381 1_655
O27 P5 1.549872 1_555
O27 Rb5 3.299907 1_556
O27 Rb1 3.434381 1_455
O28 P6 1.547781 1_555
O28 Rb1 3.059518 1_555
O28 Rb4 3.164870 1_555
O29 P7 1.547781 1_555
O29 Rb0 3.059518 1_555
O29 Rb5 3.164870 1_555
O30 P6 1.574595 1_555
O30 Rb1 3.349753 1_555
O30 Rb3 3.386365 1_565
O30 Rb2 3.475486 1_555
O31 P7 1.574595 1_555
O31 Rb0 3.349753 1_555
O31 Rb2 3.386365 1_545
O31 Rb3 3.475486 1_555
O32 P0 1.534019 1_555
O32 Rb1 3.449898 1_555
O33 P1 1.534019 1_555
O33 Rb0 3.449898 1_555
