# generated using pymatgen
data_TbSiPd
_symmetry_space_group_name_H-M   'P 1'
_cell_length_a   4.33173729
_cell_length_b   7.44174746
_cell_length_c   21.02049481
_cell_angle_alpha   90.00000000
_cell_angle_beta   90.00000000
_cell_angle_gamma   90.00000000
_symmetry_Int_Tables_number   1
_chemical_formula_structural   TbSiPd
_chemical_formula_sum   'Tb12 Si12 Pd12'
_cell_volume   677.61025892
_cell_formula_units_Z   12
loop_
 _symmetry_equiv_pos_site_id
 _symmetry_equiv_pos_as_xyz
  1  'x, y, z'
loop_
 _atom_site_type_symbol
 _atom_site_label
 _atom_site_symmetry_multiplicity
 _atom_site_fract_x
 _atom_site_fract_y
 _atom_site_fract_z
 _atom_site_occupancy
  Tb  Tb0  1  0.25000000  0.70679708  0.33259671  1
  Tb  Tb1  1  0.75000000  0.29320292  0.66740329  1
  Tb  Tb2  1  0.75000000  0.20679708  0.16740329  1
  Tb  Tb3  1  0.25000000  0.79320292  0.83259671  1
  Tb  Tb4  1  0.25000000  0.79422152  0.16609686  1
  Tb  Tb5  1  0.75000000  0.20577848  0.83390314  1
  Tb  Tb6  1  0.75000000  0.29422152  0.33390314  1
  Tb  Tb7  1  0.25000000  0.70577848  0.66609686  1
  Tb  Tb8  1  0.25000000  0.71266546  0.00119158  1
  Tb  Tb9  1  0.75000000  0.28733454  0.99880842  1
  Tb  Tb10  1  0.75000000  0.21266546  0.49880842  1
  Tb  Tb11  1  0.25000000  0.78733454  0.50119158  1
  Si  Si0  1  0.25000000  0.09201954  0.07213852  1
  Si  Si1  1  0.75000000  0.90798046  0.92786148  1
  Si  Si2  1  0.75000000  0.59201954  0.42786148  1
  Si  Si3  1  0.25000000  0.40798046  0.57213852  1
  Si  Si4  1  0.25000000  0.08682225  0.27141934  1
  Si  Si5  1  0.75000000  0.91317775  0.72858066  1
  Si  Si6  1  0.75000000  0.58682225  0.22858066  1
  Si  Si7  1  0.25000000  0.41317775  0.77141934  1
  Si  Si8  1  0.25000000  0.08823849  0.39532400  1
  Si  Si9  1  0.75000000  0.91176151  0.60467600  1
  Si  Si10  1  0.75000000  0.58823849  0.10467600  1
  Si  Si11  1  0.25000000  0.41176151  0.89532400  1
  Pd  Pd0  1  0.25000000  0.41763827  0.23698215  1
  Pd  Pd1  1  0.75000000  0.58236173  0.76301785  1
  Pd  Pd2  1  0.75000000  0.91763827  0.26301785  1
  Pd  Pd3  1  0.25000000  0.08236173  0.73698215  1
  Pd  Pd4  1  0.25000000  0.41778455  0.43711936  1
  Pd  Pd5  1  0.75000000  0.58221545  0.56288064  1
  Pd  Pd6  1  0.75000000  0.91778455  0.06288064  1
  Pd  Pd7  1  0.25000000  0.08221545  0.93711936  1
  Pd  Pd8  1  0.25000000  0.42148480  0.09365239  1
  Pd  Pd9  1  0.75000000  0.57851520  0.90634761  1
  Pd  Pd10  1  0.75000000  0.92148480  0.40634761  1
  Pd  Pd11  1  0.25000000  0.07851520  0.59365239  1
loop_
_geom_bond_atom_site_label_1
_geom_bond_atom_site_label_2
_geom_bond_distance
_geom_bond_site_symmetry_2
Si0 Tb4 2.968517 1_545
Si0 Tb9 3.029790 1_554
Si0 Tb9 3.029790 1_454
Si0 Tb2 3.070930 1_455
Si0 Tb2 3.070930 1_555
Si0 Tb8 3.192765 1_545
Si1 Tb5 2.968517 1_565
Si1 Tb8 3.029790 1_556
Si1 Tb8 3.029790 1_656
Si1 Tb3 3.070930 1_555
Si1 Tb3 3.070930 1_655
Si1 Tb9 3.192765 1_565
Si2 Tb6 2.968517 1_555
Si2 Tb11 3.029790 1_655
Si2 Tb11 3.029790 1_555
Si2 Tb0 3.070930 1_655
Si2 Tb0 3.070930 1_555
Si2 Tb10 3.192765 1_555
Si3 Tb7 2.968517 1_555
Si3 Tb10 3.029790 1_455
Si3 Tb10 3.029790 1_555
Si3 Tb1 3.070930 1_455
Si3 Tb1 3.070930 1_555
Si3 Tb11 3.192765 1_555
Si4 Si8 2.604559 1_555
Si4 Tb6 2.966182 1_455
Si4 Tb6 2.966182 1_555
Si4 Tb4 3.105290 1_545
Si4 Tb0 3.106705 1_545
Si4 Tb2 3.204491 1_555
Si4 Tb2 3.204491 1_455
Si5 Si9 2.604559 1_555
Si5 Tb7 2.966182 1_555
Si5 Tb7 2.966182 1_655
Si5 Tb5 3.105290 1_565
Si5 Tb1 3.106705 1_565
Si5 Tb3 3.204491 1_555
Si5 Tb3 3.204491 1_655
Si6 Tb4 2.966182 1_555
Si6 Tb4 2.966182 1_655
Si6 Tb6 3.105290 1_555
Si6 Tb2 3.106705 1_555
Si6 Tb0 3.204491 1_655
Si6 Tb0 3.204491 1_555
Si7 Tb5 2.966182 1_455
Si7 Tb5 2.966182 1_555
Si7 Tb7 3.105290 1_555
Si7 Tb3 3.106705 1_555
Si7 Tb1 3.204491 1_455
Si7 Tb1 3.204491 1_555
Si8 Tb6 2.950868 1_455
Si8 Tb6 2.950868 1_555
Si8 Tb0 3.129887 1_545
Si8 Tb11 3.156993 1_545
Si8 Tb10 3.206288 1_455
Si8 Tb10 3.206288 1_555
Si9 Tb7 2.950868 1_555
Si9 Tb7 2.950868 1_655
Si9 Tb1 3.129887 1_565
Si9 Tb10 3.156993 1_565
Si9 Tb11 3.206288 1_555
Si9 Tb11 3.206288 1_655
Si10 Si6 2.604559 1_555
Si10 Tb4 2.950868 1_555
Si10 Tb4 2.950868 1_655
Si10 Tb2 3.129887 1_555
Si10 Tb9 3.156993 1_554
Si10 Tb8 3.206288 1_655
Si10 Tb8 3.206288 1_555
Si11 Si7 2.604559 1_555
Si11 Tb5 2.950868 1_455
Si11 Tb5 2.950868 1_555
Si11 Tb3 3.129887 1_555
Si11 Tb8 3.156993 1_556
Si11 Tb9 3.206288 1_455
Si11 Tb9 3.206288 1_555
Pd0 Si6 2.511438 1_455
Pd0 Si6 2.511438 1_555
Pd0 Si4 2.566070 1_555
Pd0 Tb0 2.944487 1_555
Pd0 Pd8 3.012998 1_555
Pd0 Tb2 3.048275 1_455
Pd0 Tb2 3.048275 1_555
Pd0 Tb6 3.112108 1_455
Pd0 Tb6 3.112108 1_555
Pd0 Tb4 3.173939 1_555
Pd1 Si7 2.511438 1_655
Pd1 Si7 2.511438 1_555
Pd1 Si5 2.566070 1_555
Pd1 Tb1 2.944487 1_555
Pd1 Pd9 3.012998 1_555
Pd1 Tb3 3.048275 1_655
Pd1 Tb3 3.048275 1_555
Pd1 Tb7 3.112108 1_655
Pd1 Tb7 3.112108 1_555
Pd1 Tb5 3.173939 1_555
Pd2 Si4 2.511438 1_665
Pd2 Si4 2.511438 1_565
Pd2 Si6 2.566070 1_555
Pd2 Tb2 2.944487 1_565
Pd2 Tb0 3.048275 1_655
Pd2 Tb0 3.048275 1_555
Pd2 Tb4 3.112108 1_555
Pd2 Tb4 3.112108 1_655
Pd2 Tb6 3.173939 1_565
Pd3 Si5 2.511438 1_545
Pd3 Si5 2.511438 1_445
Pd3 Si7 2.566070 1_555
Pd3 Tb3 2.944487 1_545
Pd3 Tb1 3.048275 1_455
Pd3 Tb1 3.048275 1_555
Pd3 Tb5 3.112108 1_455
Pd3 Tb5 3.112108 1_555
Pd3 Tb7 3.173939 1_545
Pd4 Si2 2.531810 1_555
Pd4 Si2 2.531810 1_455
Pd4 Si8 2.605019 1_555
Pd4 Si3 2.839107 1_555
Pd4 Tb10 2.950007 1_455
Pd4 Tb10 2.950007 1_555
Pd4 Tb11 3.062187 1_555
Pd4 Tb0 3.074587 1_555
Pd4 Tb6 3.200612 1_455
Pd4 Tb6 3.200612 1_555
Pd5 Si3 2.531810 1_655
Pd5 Si3 2.531810 1_555
Pd5 Si9 2.605019 1_555
Pd5 Si2 2.839107 1_555
Pd5 Tb11 2.950007 1_555
Pd5 Tb11 2.950007 1_655
Pd5 Tb10 3.062187 1_555
Pd5 Tb1 3.074587 1_555
Pd5 Tb7 3.200612 1_655
Pd5 Tb7 3.200612 1_555
Pd6 Si0 2.531810 1_665
Pd6 Si0 2.531810 1_565
Pd6 Si10 2.605019 1_555
Pd6 Si1 2.839107 1_554
Pd6 Tb8 2.950007 1_555
Pd6 Tb8 2.950007 1_655
Pd6 Tb9 3.062187 1_564
Pd6 Tb2 3.074587 1_565
Pd6 Tb4 3.200612 1_555
Pd6 Tb4 3.200612 1_655
Pd7 Si1 2.531810 1_545
Pd7 Si1 2.531810 1_445
Pd7 Si11 2.605019 1_555
Pd7 Si0 2.839107 1_556
Pd7 Tb9 2.950007 1_455
Pd7 Tb9 2.950007 1_555
Pd7 Tb8 3.062187 1_546
Pd7 Tb3 3.074587 1_545
Pd7 Tb5 3.200612 1_455
Pd7 Tb5 3.200612 1_555
Pd8 Si0 2.493155 1_555
Pd8 Si10 2.506913 1_555
Pd8 Si10 2.506913 1_455
Pd8 Tb8 2.910824 1_555
Pd8 Tb2 3.105937 1_455
Pd8 Tb2 3.105937 1_555
Pd8 Tb9 3.108428 1_454
Pd8 Tb9 3.108428 1_554
Pd8 Tb4 3.164334 1_555
Pd9 Si1 2.493155 1_555
Pd9 Si11 2.506913 1_555
Pd9 Si11 2.506913 1_655
Pd9 Tb9 2.910824 1_555
Pd9 Tb3 3.105937 1_555
Pd9 Tb3 3.105937 1_655
Pd9 Tb8 3.108428 1_656
Pd9 Tb8 3.108428 1_556
Pd9 Tb5 3.164334 1_555
Pd10 Si2 2.493155 1_555
Pd10 Si8 2.506913 1_565
Pd10 Si8 2.506913 1_665
Pd10 Tb10 2.910824 1_565
Pd10 Pd2 3.012998 1_555
Pd10 Tb0 3.105937 1_555
Pd10 Tb0 3.105937 1_655
Pd10 Tb11 3.108428 1_555
Pd10 Tb11 3.108428 1_655
Pd10 Tb6 3.164334 1_565
Pd11 Si3 2.493155 1_555
Pd11 Si9 2.506913 1_445
Pd11 Si9 2.506913 1_545
Pd11 Tb11 2.910824 1_545
Pd11 Pd3 3.012998 1_555
Pd11 Tb1 3.105937 1_455
Pd11 Tb1 3.105937 1_555
Pd11 Tb10 3.108428 1_455
Pd11 Tb10 3.108428 1_555
Pd11 Tb7 3.164334 1_545
