# generated using pymatgen
data_Ba2LiMn2O6
_symmetry_space_group_name_H-M   'P 1'
_cell_length_a   6.24510184
_cell_length_b   5.64433747
_cell_length_c   5.25809243
_cell_angle_alpha   90.14061303
_cell_angle_beta   74.55834042
_cell_angle_gamma   116.96833983
_symmetry_Int_Tables_number   1
_chemical_formula_structural   Ba2LiMn2O6
_chemical_formula_sum   'Ba2 Li1 Mn2 O6'
_cell_volume   157.71027489
_cell_formula_units_Z   1
loop_
 _symmetry_equiv_pos_site_id
 _symmetry_equiv_pos_as_xyz
  1  'x, y, z'
loop_
 _atom_site_type_symbol
 _atom_site_label
 _atom_site_symmetry_multiplicity
 _atom_site_fract_x
 _atom_site_fract_y
 _atom_site_fract_z
 _atom_site_occupancy
  Ba  Ba0  1  0.61346800  0.30670300  0.19225300  1
  Ba  Ba1  1  0.38662100  0.69336800  0.80780900  1
  Li  Li0  1  0.00004800  0.49999700  0.50002300  1
  Mn  Mn0  1  0.99986300  0.99991800  0.50001200  1
  Mn  Mn1  1  0.99977100  0.99996800  0.00012300  1
  O  O0  1  0.84636100  0.68725100  0.76731000  1
  O  O1  1  0.15398500  0.83971200  0.23393900  1
  O  O2  1  0.72697900  0.86298000  0.32482800  1
  O  O3  1  0.27311000  0.13707700  0.67507100  1
  O  O4  1  0.15371200  0.31275100  0.23263200  1
  O  O5  1  0.84608100  0.16027300  0.76599900  1
loop_
_geom_bond_atom_site_label_1
_geom_bond_atom_site_label_2
_geom_bond_distance
_geom_bond_site_symmetry_2
Ba0 O5 2.676350 1_554
Ba0 O3 2.678115 1_555
Ba0 O0 2.679747 1_554
Ba0 O1 2.835070 1_545
Ba0 O4 2.838028 1_555
Ba0 O2 3.013392 1_555
Ba0 O2 3.023758 1_545
Ba1 O1 2.675696 1_556
Ba1 O2 2.678747 1_555
Ba1 O4 2.679523 1_556
Ba1 O5 2.834636 1_565
Ba1 O0 2.837989 1_555
Ba1 O3 3.013716 1_555
Ba1 O3 3.023937 1_565
Li0 O5 2.045015 1_455
Li0 O1 2.045322 1_555
Li0 O0 2.051334 1_455
Li0 O4 2.051532 1_555
Mn0 O5 1.940232 1_565
Mn0 O1 1.941012 1_655
Mn0 O0 1.941418 1_555
Mn0 O4 1.942078 1_665
Mn0 O2 1.996971 1_555
Mn0 O3 1.998333 1_665
Mn1 O2 1.917805 1_555
Mn1 O3 1.920602 1_664
Mn1 O4 2.147460 1_665
Mn1 O0 2.147578 1_554
Mn1 O5 2.162811 1_564
Mn1 O1 2.164095 1_655
