# generated using pymatgen
data_Fe2O3
_symmetry_space_group_name_H-M   'P 1'
_cell_length_a   5.03646200
_cell_length_b   5.26540500
_cell_length_c   7.77423900
_cell_angle_alpha   90.00000000
_cell_angle_beta   90.00000000
_cell_angle_gamma   90.00000000
_symmetry_Int_Tables_number   1
_chemical_formula_structural   Fe2O3
_chemical_formula_sum   'Fe8 O12'
_cell_volume   206.16513886
_cell_formula_units_Z   4
loop_
 _symmetry_equiv_pos_site_id
 _symmetry_equiv_pos_as_xyz
  1  'x, y, z'
loop_
 _atom_site_type_symbol
 _atom_site_label
 _atom_site_symmetry_multiplicity
 _atom_site_fract_x
 _atom_site_fract_y
 _atom_site_fract_z
 _atom_site_occupancy
  Fe  Fe0  1  0.50000000  0.50000000  0.50000000  1
  Fe  Fe1  1  0.00000000  0.00000000  0.00000000  1
  Fe  Fe2  1  0.50000000  0.50000000  0.00000000  1
  Fe  Fe3  1  0.00000000  0.00000000  0.50000000  1
  Fe  Fe4  1  0.97650100  0.56160100  0.75000000  1
  Fe  Fe5  1  0.47650100  0.93839900  0.25000000  1
  Fe  Fe6  1  0.02349900  0.43839900  0.25000000  1
  Fe  Fe7  1  0.52349900  0.06160100  0.75000000  1
  O  O0  1  0.18075300  0.68394800  0.42101400  1
  O  O1  1  0.68075300  0.81605200  0.92101400  1
  O  O2  1  0.81924700  0.31605200  0.57898600  1
  O  O3  1  0.31924700  0.18394800  0.07898600  1
  O  O4  1  0.18075300  0.68394800  0.07898600  1
  O  O5  1  0.68075300  0.81605200  0.57898600  1
  O  O6  1  0.81924700  0.31605200  0.92101400  1
  O  O7  1  0.31924700  0.18394800  0.42101400  1
  O  O8  1  0.65313800  0.58162700  0.25000000  1
  O  O9  1  0.15313800  0.91837300  0.75000000  1
  O  O10  1  0.34686200  0.41837300  0.75000000  1
  O  O11  1  0.84686200  0.08162700  0.25000000  1
loop_
_geom_bond_atom_site_label_1
_geom_bond_atom_site_label_2
_geom_bond_distance
_geom_bond_site_symmetry_2
Fe0 O2 1.974953 1_555
Fe0 O0 1.974953 1_555
Fe0 O7 1.993785 1_555
Fe0 O5 1.993785 1_555
Fe0 O10 2.134717 1_555
Fe0 O8 2.134717 1_555
Fe1 O1 1.974953 1_444
Fe1 O3 1.974953 1_555
Fe1 O4 1.993785 1_545
Fe1 O6 1.993785 1_454
Fe1 O9 2.134717 1_544
Fe1 O11 2.134717 1_455
Fe2 O6 1.974953 1_554
Fe2 O4 1.974953 1_555
Fe2 O3 1.993785 1_555
Fe2 O1 1.993785 1_554
Fe2 O10 2.134717 1_554
Fe2 O8 2.134717 1_555
Fe3 O5 1.974953 1_445
Fe3 O7 1.974953 1_555
Fe3 O2 1.993785 1_455
Fe3 O0 1.993785 1_545
Fe3 O9 2.134717 1_545
Fe3 O11 2.134717 1_455
Fe4 O10 2.011995 1_655
Fe4 O6 2.016551 1_555
Fe4 O2 2.016551 1_555
Fe4 O9 2.078552 1_655
Fe4 O1 2.404432 1_555
Fe4 O5 2.404432 1_555
Fe5 O11 2.011995 1_565
Fe5 O3 2.016551 1_565
Fe5 O7 2.016551 1_565
Fe5 O8 2.078552 1_555
Fe5 O0 2.404432 1_555
Fe5 O4 2.404432 1_555
Fe6 O8 2.011995 1_455
Fe6 O0 2.016551 1_555
Fe6 O4 2.016551 1_555
Fe6 O11 2.078552 1_455
Fe6 O3 2.404432 1_555
Fe6 O7 2.404432 1_555
Fe7 O9 2.011995 1_545
Fe7 O5 2.016551 1_545
Fe7 O1 2.016551 1_545
Fe7 O10 2.078552 1_555
Fe7 O6 2.404432 1_555
Fe7 O2 2.404432 1_555
