# generated using pymatgen
data_ThH18S2O17
_symmetry_space_group_name_H-M   'P 1'
_cell_length_a   12.34887400
_cell_length_b   7.25297800
_cell_length_c   8.14851333
_cell_angle_alpha   82.21436536
_cell_angle_beta   90.00000000
_cell_angle_gamma   90.00000000
_symmetry_Int_Tables_number   1
_chemical_formula_structural   ThH18S2O17
_chemical_formula_sum   'Th2 H36 S4 O34'
_cell_volume   723.10295459
_cell_formula_units_Z   2
loop_
 _symmetry_equiv_pos_site_id
 _symmetry_equiv_pos_as_xyz
  1  'x, y, z'
loop_
 _atom_site_type_symbol
 _atom_site_label
 _atom_site_symmetry_multiplicity
 _atom_site_fract_x
 _atom_site_fract_y
 _atom_site_fract_z
 _atom_site_occupancy
  Th  Th0  1  0.25000000  0.25833200  0.22221400  1
  Th  Th1  1  0.75000000  0.74166800  0.77778600  1
  H  H0  1  0.18622400  0.04361800  0.92355900  1
  H  H1  1  0.68622400  0.95638200  0.07644100  1
  H  H2  1  0.81377600  0.95638200  0.07644100  1
  H  H3  1  0.31377600  0.04361800  0.92355900  1
  H  H4  1  0.94793500  0.69885200  0.02315400  1
  H  H5  1  0.44793500  0.30114800  0.97684600  1
  H  H6  1  0.05206500  0.30114800  0.97684600  1
  H  H7  1  0.55206500  0.69885200  0.02315400  1
  H  H8  1  0.87820200  0.51566000  0.07539400  1
  H  H9  1  0.37820200  0.48434000  0.92460600  1
  H  H10  1  0.12179800  0.48434000  0.92460600  1
  H  H11  1  0.62179800  0.51566000  0.07539400  1
  H  H12  1  0.18453400  0.68458900  0.12983400  1
  H  H13  1  0.68453400  0.31541100  0.87016600  1
  H  H14  1  0.81546600  0.31541100  0.87016600  1
  H  H15  1  0.31546600  0.68458900  0.12983400  1
  H  H16  1  0.09963100  0.53923600  0.39235500  1
  H  H17  1  0.59963100  0.46076400  0.60764500  1
  H  H18  1  0.90036900  0.46076400  0.60764500  1
  H  H19  1  0.40036900  0.53923600  0.39235500  1
  H  H20  1  0.06135300  0.33514200  0.46629900  1
  H  H21  1  0.56135300  0.66485800  0.53370100  1
  H  H22  1  0.93864700  0.66485800  0.53370100  1
  H  H23  1  0.43864700  0.33514200  0.46629900  1
  H  H24  1  0.84505500  0.37552200  0.33720400  1
  H  H25  1  0.34505500  0.62447800  0.66279600  1
  H  H26  1  0.15494500  0.62447800  0.66279600  1
  H  H27  1  0.65494500  0.37552200  0.33720400  1
  H  H28  1  0.90694300  0.23102900  0.24665200  1
  H  H29  1  0.40694300  0.76897100  0.75334800  1
  H  H30  1  0.09305700  0.76897100  0.75334800  1
  H  H31  1  0.59305700  0.23102900  0.24665200  1
  H  H32  1  0.18587300  0.06109700  0.58023000  1
  H  H33  1  0.68587300  0.93890300  0.41977000  1
  H  H34  1  0.81412700  0.93890300  0.41977000  1
  H  H35  1  0.31412700  0.06109700  0.58023000  1
  S  S0  1  0.02598200  0.88928900  0.26203700  1
  S  S1  1  0.52598200  0.11071100  0.73796300  1
  S  S2  1  0.97401800  0.11071100  0.73796300  1
  S  S3  1  0.47401800  0.88928900  0.26203700  1
  O  O0  1  0.25000000  0.04480600  0.99677200  1
  O  O1  1  0.75000000  0.95519400  0.00322800  1
  O  O2  1  0.04718400  0.76065600  0.41769500  1
  O  O3  1  0.54718400  0.23934400  0.58230500  1
  O  O4  1  0.95281600  0.23934400  0.58230500  1
  O  O5  1  0.45281600  0.76065600  0.41769500  1
  O  O6  1  0.09577400  0.05937800  0.26093300  1
  O  O7  1  0.59577400  0.94062200  0.73906700  1
  O  O8  1  0.90422600  0.94062200  0.73906700  1
  O  O9  1  0.40422600  0.05937800  0.26093300  1
  O  O10  1  0.05397100  0.79680500  0.11599300  1
  O  O11  1  0.55397100  0.20319500  0.88400700  1
  O  O12  1  0.94602900  0.20319500  0.88400700  1
  O  O13  1  0.44602900  0.79680500  0.11599300  1
  O  O14  1  0.88534300  0.62696500  0.98737600  1
  O  O15  1  0.38534300  0.37303500  0.01262400  1
  O  O16  1  0.11465700  0.37303500  0.01262400  1
  O  O17  1  0.61465700  0.62696500  0.98737600  1
  O  O18  1  0.25000000  0.60677800  0.15739300  1
  O  O19  1  0.75000000  0.39322200  0.84260700  1
  O  O20  1  0.12183200  0.40634000  0.40629500  1
  O  O21  1  0.62183200  0.59366000  0.59370500  1
  O  O22  1  0.87816800  0.59366000  0.59370500  1
  O  O23  1  0.37816800  0.40634000  0.40629500  1
  O  O24  1  0.08922500  0.04932700  0.74457800  1
  O  O25  1  0.58922500  0.95067300  0.25542200  1
  O  O26  1  0.91077500  0.95067300  0.25542200  1
  O  O27  1  0.41077500  0.04932700  0.74457800  1
  O  O28  1  0.87289900  0.35445700  0.23008700  1
  O  O29  1  0.37289900  0.64554300  0.76991300  1
  O  O30  1  0.12710100  0.64554300  0.76991300  1
  O  O31  1  0.62710100  0.35445700  0.23008700  1
  O  O32  1  0.25000000  0.06583200  0.50660200  1
  O  O33  1  0.75000000  0.93416800  0.49339800  1
loop_
_geom_bond_atom_site_label_1
_geom_bond_atom_site_label_2
_geom_bond_distance
_geom_bond_site_symmetry_2
H0 O0 0.988749 1_555
H1 O1 0.988749 1_555
H2 O1 0.988749 1_555
H3 O0 0.988749 1_555
H4 O14 0.997731 1_554
H5 O15 0.997731 1_556
H6 O16 0.997731 1_556
H7 O17 0.997731 1_554
H8 O14 1.008476 1_554
H8 O28 1.600289 1_555
H9 O15 1.008476 1_556
H9 O29 1.600289 1_555
H10 O16 1.008476 1_556
H10 O30 1.600289 1_555
H11 O17 1.008476 1_554
H11 O31 1.600289 1_555
H12 O18 0.994061 1_555
H13 O19 0.994061 1_555
H14 O19 0.994061 1_555
H15 O18 0.994061 1_555
H16 O20 0.993724 1_555
H17 O21 0.993724 1_555
H18 O22 0.993724 1_555
H19 O23 0.993724 1_555
H20 O20 0.997550 1_555
H21 O21 0.997550 1_555
H22 O22 0.997550 1_555
H23 O23 0.997550 1_555
H24 O28 0.969308 1_555
H25 O29 0.969308 1_555
H26 O30 0.969308 1_555
H27 O31 0.969308 1_555
H28 O28 0.981652 1_555
H29 O29 0.981652 1_555
H30 O30 0.981652 1_555
H31 O31 0.981652 1_555
H32 O32 0.991286 1_555
H33 O33 0.991286 1_555
H34 O33 0.991286 1_555
H35 O32 0.991286 1_555
O0 Th0 2.558106 1_556
O1 Th1 2.558106 1_554
O2 S0 1.492369 1_555
O3 S1 1.492369 1_555
O4 S2 1.492369 1_555
O5 S3 1.492369 1_555
O6 S0 1.503915 1_545
O6 Th0 2.384461 1_555
O7 S1 1.503915 1_565
O7 Th1 2.384461 1_555
O8 S2 1.503915 1_565
O8 Th1 2.384461 1_555
O9 S3 1.503915 1_545
O9 Th0 2.384461 1_555
O10 S0 1.483876 1_555
O11 S1 1.483876 1_555
O12 S2 1.483876 1_555
O13 S3 1.483876 1_555
O14 Th1 2.453012 1_555
O15 Th0 2.453012 1_555
O16 Th0 2.453012 1_555
O17 Th1 2.453012 1_555
O18 Th0 2.510861 1_555
O19 Th1 2.510861 1_555
O20 Th0 2.518663 1_555
O21 Th1 2.518663 1_555
O22 Th1 2.518663 1_555
O23 Th0 2.518663 1_555
O24 S2 1.489507 1_455
O25 S3 1.489507 1_555
O26 S0 1.489507 1_655
O27 S1 1.489507 1_555
O32 Th0 2.538274 1_555
O33 Th1 2.538274 1_555
