# generated using pymatgen
data_V5SiB2
_symmetry_space_group_name_H-M   'P 1'
_cell_length_a   5.76016551
_cell_length_b   5.76016906
_cell_length_c   6.72663244
_cell_angle_alpha   115.35116341
_cell_angle_beta   115.35275449
_cell_angle_gamma   89.99740325
_symmetry_Int_Tables_number   1
_chemical_formula_structural   V5SiB2
_chemical_formula_sum   'V10 Si2 B4'
_cell_volume   177.61838463
_cell_formula_units_Z   2
loop_
 _symmetry_equiv_pos_site_id
 _symmetry_equiv_pos_as_xyz
  1  'x, y, z'
loop_
 _atom_site_type_symbol
 _atom_site_label
 _atom_site_symmetry_multiplicity
 _atom_site_fract_x
 _atom_site_fract_y
 _atom_site_fract_z
 _atom_site_occupancy
  V  V0  1  0.19309438  0.03228714  0.72538327  1
  V  V1  1  0.03228912  0.53229063  0.72538854  1
  V  V2  1  0.69311511  0.19311942  0.72536021  1
  V  V3  1  0.96771088  0.46770937  0.27461146  1
  V  V4  1  0.53223517  0.69312145  0.72535585  1
  V  V5  1  0.80690562  0.96771286  0.27461673  1
  V  V6  1  0.46776483  0.30687855  0.27464415  1
  V  V7  1  0.30688489  0.80688058  0.27463979  1
  V  V8  1  0.50000000  0.50000000  -0.00000000  1
  V  V9  1  -0.00000000  0.00000000  -0.00000000  1
  Si  Si0  1  0.74999713  0.75000198  0.50000036  1
  Si  Si1  1  0.25000287  0.24999802  0.49999964  1
  B  B0  1  0.61513497  0.11513719  -0.00000597  1
  B  B1  1  0.88485160  0.61514294  -0.00000737  1
  B  B2  1  0.11514840  0.38485706  1.00000737  1
  B  B3  1  0.38486503  0.88486281  1.00000597  1
loop_
_geom_bond_atom_site_label_1
_geom_bond_atom_site_label_2
_geom_bond_distance
_geom_bond_site_symmetry_2
Si0 V7 2.455971 1_555
Si0 V1 2.456011 1_655
Si0 V2 2.456046 1_565
Si0 V3 2.456071 1_555
Si0 V5 2.456073 1_555
Si0 V0 2.456080 1_665
Si0 V4 2.456082 1_555
Si0 V6 2.456111 1_555
Si0 V9 2.676624 1_666
Si0 V8 2.676628 1_555
Si1 V2 2.455971 1_555
Si1 V3 2.456011 1_455
Si1 V7 2.456046 1_545
Si1 V1 2.456071 1_555
Si1 V0 2.456073 1_555
Si1 V5 2.456080 1_445
Si1 V6 2.456082 1_555
Si1 V4 2.456111 1_555
Si1 V9 2.676624 1_555
Si1 V8 2.676628 1_556
B0 B3 1.875913 1_544
B0 V4 2.224658 1_544
B0 V6 2.224684 1_555
B0 V0 2.224713 1_554
B0 V5 2.224754 1_545
B0 V3 2.288313 1_555
B0 V2 2.288561 1_554
B0 V8 2.313909 1_555
B0 V9 2.313924 1_655
B1 B2 1.875935 1_654
B1 V2 2.224700 1_554
B1 V7 2.224729 1_655
B1 V1 2.224750 1_654
B1 V3 2.224790 1_555
B1 V5 2.288248 1_555
B1 V4 2.288487 1_554
B1 V9 2.313943 1_665
B1 V8 2.313955 1_555
B2 V7 2.224700 1_556
B2 V2 2.224729 1_455
B2 V3 2.224750 1_456
B2 V1 2.224790 1_555
B2 V0 2.288248 1_555
B2 V6 2.288487 1_556
B2 V9 2.313943 1_556
B2 V8 2.313955 1_556
B3 V6 2.224658 1_566
B3 V4 2.224684 1_555
B3 V5 2.224713 1_556
B3 V0 2.224754 1_565
B3 V1 2.288313 1_555
B3 V7 2.288561 1_556
B3 V8 2.313909 1_556
B3 V9 2.313924 1_566
