# generated using pymatgen
data_La3Sc2(GaO4)3
_symmetry_space_group_name_H-M   'P 1'
_cell_length_a   11.24177877
_cell_length_b   11.24177877
_cell_length_c   11.24177877
_cell_angle_alpha   109.47122063
_cell_angle_beta   109.47122063
_cell_angle_gamma   109.47122063
_symmetry_Int_Tables_number   1
_chemical_formula_structural   La3Sc2(GaO4)3
_chemical_formula_sum   'La12 Sc8 Ga12 O48'
_cell_volume   1093.66222725
_cell_formula_units_Z   4
loop_
 _symmetry_equiv_pos_site_id
 _symmetry_equiv_pos_as_xyz
  1  'x, y, z'
loop_
 _atom_site_type_symbol
 _atom_site_label
 _atom_site_symmetry_multiplicity
 _atom_site_fract_x
 _atom_site_fract_y
 _atom_site_fract_z
 _atom_site_occupancy
  La  La0  1  0.25000000  0.37500000  0.12500000  1
  La  La1  1  0.75000000  0.62500000  0.87500000  1
  La  La2  1  0.75000000  0.12500000  0.37500000  1
  La  La3  1  0.12500000  0.25000000  0.37500000  1
  La  La4  1  0.37500000  0.75000000  0.12500000  1
  La  La5  1  0.25000000  0.87500000  0.62500000  1
  La  La6  1  0.87500000  0.75000000  0.62500000  1
  La  La7  1  0.62500000  0.25000000  0.87500000  1
  La  La8  1  0.37500000  0.12500000  0.25000000  1
  La  La9  1  0.62500000  0.87500000  0.75000000  1
  La  La10  1  0.12500000  0.37500000  0.75000000  1
  La  La11  1  0.87500000  0.62500000  0.25000000  1
  Sc  Sc0  1  0.00000000  0.00000000  0.00000000  1
  Sc  Sc1  1  0.50000000  0.00000000  0.50000000  1
  Sc  Sc2  1  0.00000000  0.50000000  0.50000000  1
  Sc  Sc3  1  0.50000000  0.00000000  0.00000000  1
  Sc  Sc4  1  0.50000000  0.50000000  0.00000000  1
  Sc  Sc5  1  0.50000000  0.50000000  0.50000000  1
  Sc  Sc6  1  0.00000000  0.00000000  0.50000000  1
  Sc  Sc7  1  0.00000000  0.50000000  0.00000000  1
  Ga  Ga0  1  0.25000000  0.62500000  0.37500000  1
  Ga  Ga1  1  0.75000000  0.37500000  0.62500000  1
  Ga  Ga2  1  0.75000000  0.87500000  0.12500000  1
  Ga  Ga3  1  0.37500000  0.25000000  0.62500000  1
  Ga  Ga4  1  0.62500000  0.75000000  0.37500000  1
  Ga  Ga5  1  0.25000000  0.12500000  0.87500000  1
  Ga  Ga6  1  0.12500000  0.75000000  0.87500000  1
  Ga  Ga7  1  0.87500000  0.25000000  0.12500000  1
  Ga  Ga8  1  0.62500000  0.37500000  0.25000000  1
  Ga  Ga9  1  0.37500000  0.62500000  0.75000000  1
  Ga  Ga10  1  0.87500000  0.12500000  0.75000000  1
  Ga  Ga11  1  0.12500000  0.87500000  0.25000000  1
  O  O0  1  0.47783800  0.37800900  0.29453000  1
  O  O1  1  0.52216200  0.62199100  0.70547000  1
  O  O2  1  0.58347900  0.18330800  0.20547000  1
  O  O3  1  0.91652100  0.12199100  0.59983000  1
  O  O4  1  0.29453000  0.47783800  0.37800900  1
  O  O5  1  0.31669200  0.91652100  0.29453000  1
  O  O6  1  0.41652100  0.81669200  0.79453000  1
  O  O7  1  0.08347900  0.87800900  0.40017000  1
  O  O8  1  0.70547000  0.52216200  0.62199100  1
  O  O9  1  0.68330800  0.08347900  0.70547000  1
  O  O10  1  0.02216200  0.31669200  0.90017000  1
  O  O11  1  0.20547000  0.58347900  0.18330800  1
  O  O12  1  0.12199100  0.02216200  0.20547000  1
  O  O13  1  0.97783800  0.68330800  0.09983000  1
  O  O14  1  0.79453000  0.41652100  0.81669200  1
  O  O15  1  0.87800900  0.97783800  0.79453000  1
  O  O16  1  0.59983000  0.91652100  0.12199100  1
  O  O17  1  0.18330800  0.47783800  0.59983000  1
  O  O18  1  0.40017000  0.08347900  0.87800900  1
  O  O19  1  0.81669200  0.52216200  0.40017000  1
  O  O20  1  0.90017000  0.02216200  0.31669200  1
  O  O21  1  0.37800900  0.58347900  0.90017000  1
  O  O22  1  0.09983000  0.97783800  0.68330800  1
  O  O23  1  0.62199100  0.41652100  0.09983000  1
  O  O24  1  0.37800900  0.29453000  0.47783800  1
  O  O25  1  0.58347900  0.90017000  0.37800900  1
  O  O26  1  0.62199100  0.70547000  0.52216200  1
  O  O27  1  0.41652100  0.09983000  0.62199100  1
  O  O28  1  0.12199100  0.59983000  0.91652100  1
  O  O29  1  0.02216200  0.20547000  0.12199100  1
  O  O30  1  0.87800900  0.40017000  0.08347900  1
  O  O31  1  0.97783800  0.79453000  0.87800900  1
  O  O32  1  0.31669200  0.90017000  0.02216200  1
  O  O33  1  0.91652100  0.29453000  0.31669200  1
  O  O34  1  0.68330800  0.09983000  0.97783800  1
  O  O35  1  0.08347900  0.70547000  0.68330800  1
  O  O36  1  0.18330800  0.20547000  0.58347900  1
  O  O37  1  0.47783800  0.59983000  0.18330800  1
  O  O38  1  0.81669200  0.79453000  0.41652100  1
  O  O39  1  0.52216200  0.40017000  0.81669200  1
  O  O40  1  0.29453000  0.31669200  0.91652100  1
  O  O41  1  0.70547000  0.68330800  0.08347900  1
  O  O42  1  0.20547000  0.12199100  0.02216200  1
  O  O43  1  0.79453000  0.87800900  0.97783800  1
  O  O44  1  0.90017000  0.37800900  0.58347900  1
  O  O45  1  0.09983000  0.62199100  0.41652100  1
  O  O46  1  0.59983000  0.18330800  0.47783800  1
  O  O47  1  0.40017000  0.81669200  0.52216200  1
loop_
_geom_bond_atom_site_label_1
_geom_bond_atom_site_label_2
_geom_bond_distance
_geom_bond_site_symmetry_2
La0 O11 2.479883 1_555
La0 O4 2.479883 1_555
La0 O42 2.479883 1_555
La0 O40 2.479883 1_554
La0 O0 2.615067 1_555
La0 O29 2.615067 1_555
La0 O37 2.615074 1_555
La0 O10 2.615074 1_554
La1 O43 2.479883 1_555
La1 O41 2.479883 1_556
La1 O8 2.479883 1_555
La1 O14 2.479883 1_555
La1 O1 2.615067 1_555
La1 O31 2.615067 1_555
La1 O39 2.615074 1_555
La1 O13 2.615074 1_556
La2 O46 2.479872 1_555
La2 O20 2.479872 1_555
La2 O44 2.479883 1_555
La2 O16 2.479883 1_545
La2 O33 2.615067 1_555
La2 O2 2.615067 1_555
La2 O25 2.615075 1_545
La2 O3 2.615075 1_555
La3 O36 2.479883 1_555
La3 O24 2.479883 1_555
La3 O29 2.479883 1_555
La3 O33 2.479883 1_455
La3 O4 2.615067 1_555
La3 O12 2.615067 1_555
La3 O17 2.615074 1_555
La3 O20 2.615074 1_455
La4 O37 2.479872 1_555
La4 O32 2.479872 1_555
La4 O25 2.479883 1_555
La4 O28 2.479883 1_554
La4 O5 2.615067 1_555
La4 O11 2.615067 1_555
La4 O21 2.615075 1_554
La4 O16 2.615075 1_555
La5 O22 2.479872 1_555
La5 O47 2.479872 1_555
La5 O18 2.479883 1_565
La5 O45 2.479883 1_555
La5 O35 2.615067 1_555
La5 O6 2.615067 1_555
La5 O7 2.615075 1_555
La5 O27 2.615075 1_565
La6 O31 2.479883 1_555
La6 O26 2.479883 1_555
La6 O35 2.479883 1_655
La6 O38 2.479883 1_555
La6 O8 2.615067 1_555
La6 O15 2.615067 1_555
La6 O19 2.615074 1_555
La6 O22 2.615074 1_655
La7 O34 2.479872 1_555
La7 O39 2.479872 1_555
La7 O30 2.479883 1_556
La7 O27 2.479883 1_555
La7 O9 2.615067 1_555
La7 O14 2.615067 1_555
La7 O18 2.615075 1_555
La7 O23 2.615075 1_556
La8 O2 2.479883 1_555
La8 O0 2.479883 1_555
La8 O5 2.479883 1_545
La8 O12 2.479883 1_555
La8 O24 2.615067 1_555
La8 O42 2.615067 1_555
La8 O46 2.615074 1_555
La8 O32 2.615074 1_545
La9 O15 2.479883 1_555
La9 O9 2.479883 1_565
La9 O1 2.479883 1_555
La9 O6 2.479883 1_555
La9 O26 2.615067 1_555
La9 O43 2.615067 1_555
La9 O47 2.615074 1_555
La9 O34 2.615074 1_565
La10 O17 2.479872 1_555
La10 O10 2.479872 1_555
La10 O21 2.479883 1_555
La10 O3 2.479883 1_455
La10 O40 2.615067 1_555
La10 O36 2.615067 1_555
La10 O44 2.615075 1_455
La10 O28 2.615075 1_555
La11 O13 2.479872 1_555
La11 O19 2.479872 1_555
La11 O7 2.479883 1_655
La11 O23 2.479883 1_555
La11 O41 2.615067 1_555
La11 O38 2.615067 1_555
La11 O30 2.615075 1_555
La11 O45 2.615075 1_655
Ga0 O45 1.888583 1_555
Ga0 O47 1.888592 1_555
Ga0 O11 1.888594 1_555
Ga0 O4 1.888594 1_555
Ga1 O44 1.888583 1_555
Ga1 O46 1.888592 1_555
Ga1 O8 1.888594 1_555
Ga1 O14 1.888594 1_555
Ga2 O16 1.888583 1_555
Ga2 O20 1.888592 1_565
Ga2 O43 1.888594 1_554
Ga2 O41 1.888594 1_555
Ga3 O27 1.888583 1_555
Ga3 O39 1.888592 1_555
Ga3 O36 1.888594 1_555
Ga3 O24 1.888594 1_555
Ga4 O25 1.888583 1_555
Ga4 O37 1.888592 1_555
Ga4 O38 1.888594 1_555
Ga4 O26 1.888594 1_555
Ga5 O18 1.888583 1_555
Ga5 O22 1.888592 1_545
Ga5 O42 1.888594 1_556
Ga5 O40 1.888594 1_555
Ga6 O28 1.888583 1_555
Ga6 O32 1.888592 1_556
Ga6 O31 1.888594 1_455
Ga6 O35 1.888594 1_555
Ga7 O30 1.888583 1_555
Ga7 O34 1.888592 1_554
Ga7 O29 1.888594 1_655
Ga7 O33 1.888594 1_555
Ga8 O23 1.888583 1_555
Ga8 O19 1.888592 1_555
Ga8 O2 1.888594 1_555
Ga8 O0 1.888594 1_555
Ga9 O21 1.888583 1_555
Ga9 O17 1.888592 1_555
Ga9 O6 1.888594 1_555
Ga9 O1 1.888594 1_555
Ga10 O3 1.888583 1_555
Ga10 O10 1.888592 1_655
Ga10 O15 1.888594 1_545
Ga10 O9 1.888594 1_555
Ga11 O7 1.888583 1_555
Ga11 O13 1.888592 1_455
Ga11 O12 1.888594 1_565
Ga11 O5 1.888594 1_555
O0 Sc5 2.134234 1_555
O1 Sc5 2.134234 1_555
O2 Sc3 2.134234 1_555
O3 Sc6 2.134239 1_655
O4 Sc5 2.134234 1_555
O5 Sc1 2.134234 1_565
O6 Sc3 2.134234 1_566
O7 Sc6 2.134239 1_565
O8 Sc5 2.134234 1_555
O9 Sc1 2.134234 1_555
O10 Sc7 2.134237 1_556
O11 Sc7 2.134234 1_555
O12 Sc0 2.134234 1_555
O13 Sc7 2.134237 1_655
O14 Sc7 2.134234 1_656
O15 Sc0 2.134234 1_666
O16 Sc3 2.134239 1_565
O17 Sc2 2.134237 1_555
O18 Sc3 2.134239 1_556
O19 Sc2 2.134237 1_655
O20 Sc6 2.134237 1_655
O21 Sc4 2.134239 1_556
O22 Sc6 2.134237 1_565
O23 Sc4 2.134239 1_555
O24 Sc5 2.134234 1_555
O25 Sc1 2.134239 1_565
O26 Sc5 2.134234 1_555
O27 Sc1 2.134239 1_555
O28 Sc7 2.134239 1_556
O29 Sc0 2.134234 1_555
O30 Sc7 2.134239 1_655
O31 Sc0 2.134234 1_666
O32 Sc3 2.134237 1_565
O33 Sc2 2.134234 1_655
O34 Sc3 2.134237 1_556
O35 Sc2 2.134234 1_555
O36 Sc6 2.134234 1_555
O37 Sc4 2.134237 1_555
O38 Sc6 2.134234 1_665
O39 Sc4 2.134237 1_556
O40 Sc4 2.134234 1_556
O41 Sc4 2.134234 1_555
O42 Sc0 2.134234 1_555
O43 Sc0 2.134234 1_666
O44 Sc2 2.134239 1_655
O45 Sc2 2.134239 1_555
O46 Sc1 2.134237 1_555
O47 Sc1 2.134237 1_565
