# generated using pymatgen
data_BaYW4O7
_symmetry_space_group_name_H-M   'P 1'
_cell_length_a   6.35929473
_cell_length_b   6.35929473
_cell_length_c   11.50497100
_cell_angle_alpha   90.00000000
_cell_angle_beta   90.00000000
_cell_angle_gamma   120.00000762
_symmetry_Int_Tables_number   1
_chemical_formula_structural   BaYW4O7
_chemical_formula_sum   'Ba2 Y2 W8 O14'
_cell_volume   402.93411008
_cell_formula_units_Z   2
loop_
 _symmetry_equiv_pos_site_id
 _symmetry_equiv_pos_as_xyz
  1  'x, y, z'
loop_
 _atom_site_type_symbol
 _atom_site_label
 _atom_site_symmetry_multiplicity
 _atom_site_fract_x
 _atom_site_fract_y
 _atom_site_fract_z
 _atom_site_occupancy
  Ba  Ba0  1  0.66666700  0.33333300  0.46873900  1
  Ba  Ba1  1  0.33333300  0.66666700  0.96873900  1
  Y  Y0  1  0.66666700  0.33333300  0.85350800  1
  Y  Y1  1  0.33333300  0.66666700  0.35350800  1
  W  W0  1  0.83216700  0.16783300  0.17264600  1
  W  W1  1  0.66433400  0.83216700  0.67264600  1
  W  W2  1  0.16783300  0.33566600  0.67264600  1
  W  W3  1  0.83216700  0.66433400  0.17264600  1
  W  W4  1  0.33566600  0.16783300  0.17264600  1
  W  W5  1  0.16783300  0.83216700  0.67264600  1
  W  W6  1  0.00000000  0.00000000  0.49139100  1
  W  W7  1  0.00000000  0.00000000  0.99139100  1
  O  O0  1  0.81992900  0.18007100  0.98940400  1
  O  O1  1  0.63985900  0.81992900  0.48940400  1
  O  O2  1  0.18007100  0.36014100  0.48940400  1
  O  O3  1  0.81992900  0.63985900  0.98940400  1
  O  O4  1  0.36014100  0.18007100  0.98940400  1
  O  O5  1  0.18007100  0.81992900  0.48940400  1
  O  O6  1  0.00000000  0.00000000  0.79063500  1
  O  O7  1  0.00000000  0.00000000  0.29063500  1
  O  O8  1  0.51894500  0.48105500  0.28119100  1
  O  O9  1  0.03789000  0.51894500  0.78119100  1
  O  O10  1  0.48105500  0.96211000  0.78119100  1
  O  O11  1  0.51894500  0.03789000  0.28119100  1
  O  O12  1  0.48105500  0.51894500  0.78119100  1
  O  O13  1  0.96211000  0.48105500  0.28119100  1
loop_
_geom_bond_atom_site_label_1
_geom_bond_atom_site_label_2
_geom_bond_distance
_geom_bond_site_symmetry_2
Ba0 O11 2.702454 1_555
Ba0 O13 2.702454 1_555
Ba0 O8 2.702458 1_555
Ba0 O5 3.191940 1_655
Ba0 O5 3.191940 1_545
Ba0 O2 3.191940 1_655
Ba0 O1 3.191940 1_545
Ba0 O1 3.191940 1_555
Ba0 O2 3.191940 1_555
Ba1 O9 2.702454 1_555
Ba1 O10 2.702454 1_555
Ba1 O12 2.702458 1_555
Ba1 O0 3.191940 1_565
Ba1 O0 3.191940 1_455
Ba1 O4 3.191940 1_565
Ba1 O3 3.191940 1_455
Ba1 O3 3.191940 1_555
Ba1 O4 3.191940 1_555
O0 W7 1.983546 1_655
O0 W0 2.112499 1_556
O0 Y0 2.300919 1_555
O1 W6 1.983540 1_665
O1 W1 2.112499 1_555
O1 Y1 2.300927 1_555
O2 W6 1.983540 1_555
O2 W2 2.112499 1_555
O2 Y1 2.300927 1_555
O3 W7 1.983540 1_665
O3 W3 2.112499 1_556
O3 Y0 2.300927 1_555
O4 W7 1.983540 1_555
O4 W4 2.112499 1_556
O4 Y0 2.300927 1_555
O5 W6 1.983546 1_565
O5 W5 2.112499 1_555
O5 Y1 2.300919 1_555
O6 W2 2.293487 1_555
O6 W1 2.293487 1_445
O6 W5 2.293487 1_545
O6 W7 2.309692 1_555
O7 W4 2.293487 1_555
O7 W3 2.293487 1_445
O7 W0 2.293487 1_455
O7 W6 2.309692 1_555
O8 W3 2.136338 1_555
O8 W4 2.136338 1_555
O8 Y1 2.207259 1_555
O9 W5 2.136338 1_555
O9 W2 2.136339 1_555
O9 Y0 2.207254 1_455
O10 W5 2.136338 1_555
O10 W1 2.136339 1_555
O10 Y0 2.207254 1_565
O11 W0 2.136338 1_555
O11 W4 2.136339 1_555
O11 Y1 2.207254 1_545
O12 W2 2.136338 1_555
O12 W1 2.136338 1_555
O12 Y0 2.207259 1_555
O13 W0 2.136338 1_555
O13 W3 2.136339 1_555
O13 Y1 2.207254 1_655
