# generated using pymatgen
data_RbLiCrO4
_symmetry_space_group_name_H-M   'P 1'
_cell_length_a   5.34395391
_cell_length_b   5.34395412
_cell_length_c   9.14050689
_cell_angle_alpha   90.00000000
_cell_angle_beta   90.00000000
_cell_angle_gamma   119.99999945
_symmetry_Int_Tables_number   1
_chemical_formula_structural   RbLiCrO4
_chemical_formula_sum   'Rb2 Li2 Cr2 O8'
_cell_volume   226.06136135
_cell_formula_units_Z   2
loop_
 _symmetry_equiv_pos_site_id
 _symmetry_equiv_pos_as_xyz
  1  'x, y, z'
loop_
 _atom_site_type_symbol
 _atom_site_label
 _atom_site_symmetry_multiplicity
 _atom_site_fract_x
 _atom_site_fract_y
 _atom_site_fract_z
 _atom_site_occupancy
  Rb  Rb0  1  0.00000000  0.00000000  0.49654400  1
  Rb  Rb1  1  0.00000000  0.00000000  0.99654400  1
  Li  Li0  1  0.66666600  0.33333200  0.68190613  1
  Li  Li1  1  0.33333300  0.66666700  0.18190613  1
  Cr  Cr0  1  0.33333300  0.66666700  0.79209550  1
  Cr  Cr1  1  0.66666600  0.33333200  0.29209550  1
  O  O0  1  0.65524662  0.03576887  0.23520589  1
  O  O1  1  0.96423113  0.61947775  0.23520589  1
  O  O2  1  0.61947675  0.65524662  0.73520589  1
  O  O3  1  0.34475238  0.96423013  0.73520589  1
  O  O4  1  0.66666600  0.33333200  0.47223672  1
  O  O5  1  0.03576887  0.38052325  0.73520589  1
  O  O6  1  0.38052325  0.34475438  0.23520589  1
  O  O7  1  0.33333300  0.66666700  0.97223672  1
loop_
_geom_bond_atom_site_label_1
_geom_bond_atom_site_label_2
_geom_bond_distance
_geom_bond_site_symmetry_2
Li0 O4 1.916485 1_555
Li0 O5 1.922017 1_655
Li0 O3 1.922018 1_545
Li0 O2 1.922026 1_555
Li1 O7 1.916485 1_554
Li1 O1 1.922016 1_455
Li1 O0 1.922018 1_565
Li1 O6 1.922019 1_555
Cr0 O3 1.644903 1_555
Cr0 O2 1.644905 1_555
Cr0 O5 1.644905 1_555
Cr0 O7 1.646582 1_555
Cr1 O0 1.644903 1_555
Cr1 O6 1.644906 1_555
Cr1 O1 1.644913 1_555
Cr1 O4 1.646582 1_555
O0 Rb1 2.922642 1_654
O0 Rb0 3.080442 1_655
O1 Rb1 2.922642 1_664
O1 Rb0 3.080442 1_665
O2 Rb0 2.922644 1_665
O2 Rb1 3.080444 1_665
O3 Rb0 2.922641 1_565
O3 Rb1 3.080441 1_565
O4 Rb0 3.093320 1_555
O4 Rb0 3.093320 1_655
O4 Rb0 3.093329 1_665
O5 Rb0 2.922646 1_555
O5 Rb1 3.080446 1_555
O6 Rb1 2.922646 1_554
O6 Rb0 3.080446 1_555
O7 Rb1 3.093320 1_565
O7 Rb1 3.093324 1_665
O7 Rb1 3.093324 1_555
