# generated using pymatgen
data_NaCd2Ag
_symmetry_space_group_name_H-M   'P 1'
_cell_length_a   4.97880107
_cell_length_b   4.97880107
_cell_length_c   4.97880107
_cell_angle_alpha   60.00000000
_cell_angle_beta   60.00000000
_cell_angle_gamma   60.00000000
_symmetry_Int_Tables_number   1
_chemical_formula_structural   NaCd2Ag
_chemical_formula_sum   'Na1 Cd2 Ag1'
_cell_volume   87.26886452
_cell_formula_units_Z   1
loop_
 _symmetry_equiv_pos_site_id
 _symmetry_equiv_pos_as_xyz
  1  'x, y, z'
loop_
 _atom_site_type_symbol
 _atom_site_label
 _atom_site_symmetry_multiplicity
 _atom_site_fract_x
 _atom_site_fract_y
 _atom_site_fract_z
 _atom_site_occupancy
  Na  Na0  1  0.00000000  0.00000000  0.00000000  1
  Cd  Cd0  1  0.25000000  0.25000000  0.25000000  1
  Cd  Cd1  1  0.75000000  0.75000000  0.75000000  1
  Ag  Ag0  1  0.50000000  0.50000000  0.50000000  1
loop_
_geom_bond_atom_site_label_1
_geom_bond_atom_site_label_2
_geom_bond_distance
_geom_bond_site_symmetry_2
Cd0 Na0 3.048881 1_565
Cd0 Na0 3.048881 1_655
Cd0 Na0 3.048881 1_555
Cd0 Na0 3.048881 1_556
Cd1 Na0 3.048881 1_656
Cd1 Na0 3.048881 1_566
Cd1 Na0 3.048881 1_665
Cd1 Na0 3.048881 1_666
Ag0 Cd1 3.048881 1_545
Ag0 Cd1 3.048881 1_455
Ag0 Cd0 3.048881 1_565
Ag0 Cd0 3.048881 1_655
Ag0 Cd0 3.048881 1_555
Ag0 Cd0 3.048881 1_556
Ag0 Cd1 3.048881 1_555
Ag0 Cd1 3.048881 1_554
Ag0 Na0 3.520544 1_556
Ag0 Na0 3.520544 1_566
Ag0 Na0 3.520544 1_565
Ag0 Na0 3.520544 1_656
Ag0 Na0 3.520544 1_655
Ag0 Na0 3.520544 1_665
