# generated using pymatgen
data_Eu3Te
_symmetry_space_group_name_H-M   'P 1'
_cell_length_a   5.15585900
_cell_length_b   5.15585900
_cell_length_c   5.15585900
_cell_angle_alpha   90.00000000
_cell_angle_beta   90.00000000
_cell_angle_gamma   90.00000000
_symmetry_Int_Tables_number   1
_chemical_formula_structural   Eu3Te
_chemical_formula_sum   'Eu3 Te1'
_cell_volume   137.05759155
_cell_formula_units_Z   1
loop_
 _symmetry_equiv_pos_site_id
 _symmetry_equiv_pos_as_xyz
  1  'x, y, z'
loop_
 _atom_site_type_symbol
 _atom_site_label
 _atom_site_symmetry_multiplicity
 _atom_site_fract_x
 _atom_site_fract_y
 _atom_site_fract_z
 _atom_site_occupancy
  Eu  Eu0  1  0.00000000  0.50000000  0.50000000  1
  Eu  Eu1  1  0.50000000  0.00000000  0.50000000  1
  Eu  Eu2  1  0.50000000  0.50000000  0.00000000  1
  Te  Te0  1  0.00000000  0.00000000  0.00000000  1
loop_
_geom_bond_atom_site_label_1
_geom_bond_atom_site_label_2
_geom_bond_distance
_geom_bond_site_symmetry_2
Eu0 Te0 3.645743 1_566
Eu0 Te0 3.645743 1_556
Eu0 Te0 3.645743 1_565
Eu0 Te0 3.645743 1_555
Eu1 Te0 3.645743 1_556
Eu1 Te0 3.645743 1_656
Eu1 Te0 3.645743 1_555
Eu1 Te0 3.645743 1_655
Eu2 Te0 3.645743 1_665
Eu2 Te0 3.645743 1_565
Eu2 Te0 3.645743 1_555
Eu2 Te0 3.645743 1_655
