# generated using pymatgen
data_SbNClF3
_symmetry_space_group_name_H-M   'P 1'
_cell_length_a   7.41491800
_cell_length_b   8.95636900
_cell_length_c   16.47682100
_cell_angle_alpha   90.00000000
_cell_angle_beta   90.00000000
_cell_angle_gamma   90.00000000
_symmetry_Int_Tables_number   1
_chemical_formula_structural   SbNClF3
_chemical_formula_sum   'Sb8 N8 Cl8 F24'
_cell_volume   1094.23790368
_cell_formula_units_Z   8
loop_
 _symmetry_equiv_pos_site_id
 _symmetry_equiv_pos_as_xyz
  1  'x, y, z'
loop_
 _atom_site_type_symbol
 _atom_site_label
 _atom_site_symmetry_multiplicity
 _atom_site_fract_x
 _atom_site_fract_y
 _atom_site_fract_z
 _atom_site_occupancy
  Sb  Sb0  1  0.13829100  0.97787600  0.17528200  1
  Sb  Sb1  1  0.86170900  0.02212400  0.82471800  1
  Sb  Sb2  1  0.36170900  0.02212400  0.67528200  1
  Sb  Sb3  1  0.86170900  0.47787600  0.32471800  1
  Sb  Sb4  1  0.63829100  0.97787600  0.32471800  1
  Sb  Sb5  1  0.13829100  0.52212400  0.67528200  1
  Sb  Sb6  1  0.63829100  0.52212400  0.82471800  1
  Sb  Sb7  1  0.36170900  0.47787600  0.17528200  1
  N  N0  1  0.17784800  0.19106500  0.45178400  1
  N  N1  1  0.82215200  0.80893500  0.54821600  1
  N  N2  1  0.32215200  0.80893500  0.95178400  1
  N  N3  1  0.82215200  0.69106500  0.04821600  1
  N  N4  1  0.67784800  0.19106500  0.04821600  1
  N  N5  1  0.17784800  0.30893500  0.95178400  1
  N  N6  1  0.67784800  0.30893500  0.54821600  1
  N  N7  1  0.32215200  0.69106500  0.45178400  1
  Cl  Cl0  1  0.01089200  0.41285100  0.17301600  1
  Cl  Cl1  1  0.98910800  0.58714900  0.82698400  1
  Cl  Cl2  1  0.48910800  0.58714900  0.67301600  1
  Cl  Cl3  1  0.98910800  0.91285100  0.32698400  1
  Cl  Cl4  1  0.51089200  0.41285100  0.32698400  1
  Cl  Cl5  1  0.01089200  0.08714900  0.67301600  1
  Cl  Cl6  1  0.51089200  0.08714900  0.82698400  1
  Cl  Cl7  1  0.48910800  0.91285100  0.17301600  1
  F  F0  1  0.16678700  0.03341500  0.06377400  1
  F  F1  1  0.83321300  0.96658500  0.93622600  1
  F  F2  1  0.33321300  0.96658500  0.56377400  1
  F  F3  1  0.83321300  0.53341500  0.43622600  1
  F  F4  1  0.66678700  0.03341500  0.43622600  1
  F  F5  1  0.16678700  0.46658500  0.56377400  1
  F  F6  1  0.66678700  0.46658500  0.93622600  1
  F  F7  1  0.33321300  0.53341500  0.06377400  1
  F  F8  1  0.38234300  0.02156000  0.33462500  1
  F  F9  1  0.61765700  0.97844000  0.66537500  1
  F  F10  1  0.11765700  0.97844000  0.83462500  1
  F  F11  1  0.61765700  0.52156000  0.16537500  1
  F  F12  1  0.88234300  0.02156000  0.16537500  1
  F  F13  1  0.38234300  0.47844000  0.83462500  1
  F  F14  1  0.88234300  0.47844000  0.66537500  1
  F  F15  1  0.11765700  0.52156000  0.33462500  1
  F  F16  1  0.38572900  0.26547700  0.15949000  1
  F  F17  1  0.61427100  0.73452300  0.84051000  1
  F  F18  1  0.11427100  0.73452300  0.65949000  1
  F  F19  1  0.61427100  0.76547700  0.34051000  1
  F  F20  1  0.88572900  0.26547700  0.34051000  1
  F  F21  1  0.38572900  0.23452300  0.65949000  1
  F  F22  1  0.88572900  0.23452300  0.84051000  1
  F  F23  1  0.11427100  0.76547700  0.15949000  1
loop_
_geom_bond_atom_site_label_1
_geom_bond_atom_site_label_2
_geom_bond_distance
_geom_bond_site_symmetry_2
Cl0 Sb7 2.665938 1_555
Cl0 Sb3 2.794753 1_455
Cl1 Sb6 2.665938 1_555
Cl1 Sb5 2.794753 1_655
Cl2 Sb5 2.665938 1_555
Cl2 Sb6 2.794753 1_555
Cl3 Sb4 2.665938 1_555
Cl3 Sb0 2.794753 1_655
Cl4 Sb3 2.665938 1_555
Cl4 Sb7 2.794753 1_555
Cl5 Sb2 2.665938 1_555
Cl5 Sb1 2.794753 1_455
Cl6 Sb1 2.665938 1_555
Cl6 Sb2 2.794753 1_555
Cl7 Sb0 2.665938 1_555
Cl7 Sb4 2.794753 1_555
F0 Sb0 1.915135 1_545
F1 Sb1 1.915135 1_565
F2 Sb2 1.915135 1_565
F3 Sb3 1.915135 1_555
F4 Sb4 1.915135 1_545
F5 Sb5 1.915135 1_555
F6 Sb6 1.915135 1_555
F7 Sb7 1.915135 1_555
F8 Sb4 1.944606 1_545
F9 Sb2 1.944606 1_565
F10 Sb1 1.944606 1_465
F11 Sb7 1.944606 1_555
F12 Sb0 1.944606 1_645
F13 Sb6 1.944606 1_555
F14 Sb5 1.944606 1_655
F15 Sb3 1.944606 1_455
F16 Sb7 1.928280 1_555
F17 Sb6 1.928280 1_555
F18 Sb5 1.928280 1_555
F19 Sb4 1.928280 1_555
F20 Sb3 1.928280 1_555
F21 Sb2 1.928280 1_555
F22 Sb1 1.928280 1_555
F23 Sb0 1.928280 1_555
