# generated using pymatgen
data_CsHf6CCl15
_symmetry_space_group_name_H-M   'P 1'
_cell_length_a   9.86399900
_cell_length_b   14.12539300
_cell_length_c   18.74675700
_cell_angle_alpha   90.00000000
_cell_angle_beta   90.00000000
_cell_angle_gamma   90.00000000
_symmetry_Int_Tables_number   1
_chemical_formula_structural   CsHf6CCl15
_chemical_formula_sum   'Cs4 Hf24 C4 Cl60'
_cell_volume   2612.03931403
_cell_formula_units_Z   4
loop_
 _symmetry_equiv_pos_site_id
 _symmetry_equiv_pos_as_xyz
  1  'x, y, z'
loop_
 _atom_site_type_symbol
 _atom_site_label
 _atom_site_symmetry_multiplicity
 _atom_site_fract_x
 _atom_site_fract_y
 _atom_site_fract_z
 _atom_site_occupancy
  Cs  Cs0  1  0.82869200  0.24767600  0.75000000  1
  Cs  Cs1  1  0.17130800  0.75232400  0.25000000  1
  Cs  Cs2  1  0.82869200  0.75232400  0.75000000  1
  Cs  Cs3  1  0.17130800  0.24767600  0.25000000  1
  Hf  Hf0  1  0.11741800  0.50000000  0.75000000  1
  Hf  Hf1  1  0.88258200  0.50000000  0.25000000  1
  Hf  Hf2  1  0.07881500  0.00000000  0.11122700  1
  Hf  Hf3  1  0.92118500  0.00000000  0.88877300  1
  Hf  Hf4  1  0.07881500  0.00000000  0.38877300  1
  Hf  Hf5  1  0.92118500  0.00000000  0.61122700  1
  Hf  Hf6  1  0.34109100  0.38657100  0.66442500  1
  Hf  Hf7  1  0.65890900  0.61342900  0.33557500  1
  Hf  Hf8  1  0.34109100  0.61342900  0.83557500  1
  Hf  Hf9  1  0.65890900  0.38657100  0.33557500  1
  Hf  Hf10  1  0.65890900  0.38657100  0.16442500  1
  Hf  Hf11  1  0.34109100  0.61342900  0.66442500  1
  Hf  Hf12  1  0.65890900  0.61342900  0.16442500  1
  Hf  Hf13  1  0.34109100  0.38657100  0.83557500  1
  Hf  Hf14  1  0.56767200  0.50000000  0.75000000  1
  Hf  Hf15  1  0.43232800  0.50000000  0.25000000  1
  Hf  Hf16  1  0.15318800  0.11313500  0.52939400  1
  Hf  Hf17  1  0.84681200  0.88686500  0.47060600  1
  Hf  Hf18  1  0.15318800  0.88686500  0.97060600  1
  Hf  Hf19  1  0.84681200  0.11313500  0.47060600  1
  Hf  Hf20  1  0.84681200  0.11313500  0.02939400  1
  Hf  Hf21  1  0.15318800  0.88686500  0.52939400  1
  Hf  Hf22  1  0.84681200  0.88686500  0.02939400  1
  Hf  Hf23  1  0.15318800  0.11313500  0.97060600  1
  C  C0  1  0.00000000  0.00000000  0.50000000  1
  C  C1  1  0.00000000  0.00000000  0.00000000  1
  C  C2  1  0.34305800  0.50000000  0.75000000  1
  C  C3  1  0.65694200  0.50000000  0.25000000  1
  Cl  Cl0  1  0.82137900  0.00000000  0.75000000  1
  Cl  Cl1  1  0.17862100  0.00000000  0.25000000  1
  Cl  Cl2  1  0.84163300  0.50000000  0.75000000  1
  Cl  Cl3  1  0.15836700  0.50000000  0.25000000  1
  Cl  Cl4  1  0.34122500  0.50000000  0.56137400  1
  Cl  Cl5  1  0.65877500  0.50000000  0.43862600  1
  Cl  Cl6  1  0.34122500  0.50000000  0.93862600  1
  Cl  Cl7  1  0.65877500  0.50000000  0.06137400  1
  Cl  Cl8  1  0.00000000  0.24971900  0.50000000  1
  Cl  Cl9  1  0.00000000  0.75028100  0.50000000  1
  Cl  Cl10  1  0.00000000  0.75028100  0.00000000  1
  Cl  Cl11  1  0.00000000  0.24971900  0.00000000  1
  Cl  Cl12  1  0.34961100  0.24958600  0.75000000  1
  Cl  Cl13  1  0.65038900  0.75041400  0.25000000  1
  Cl  Cl14  1  0.34961100  0.75041400  0.75000000  1
  Cl  Cl15  1  0.65038900  0.24958600  0.25000000  1
  Cl  Cl16  1  0.33417000  0.24931400  0.56462500  1
  Cl  Cl17  1  0.66583000  0.75068600  0.43537500  1
  Cl  Cl18  1  0.33417000  0.75068600  0.93537500  1
  Cl  Cl19  1  0.66583000  0.24931400  0.43537500  1
  Cl  Cl20  1  0.66583000  0.24931400  0.06462500  1
  Cl  Cl21  1  0.33417000  0.75068600  0.56462500  1
  Cl  Cl22  1  0.66583000  0.75068600  0.06462500  1
  Cl  Cl23  1  0.33417000  0.24931400  0.93537500  1
  Cl  Cl24  1  0.08299800  0.12208500  0.65737500  1
  Cl  Cl25  1  0.91700200  0.87791500  0.34262500  1
  Cl  Cl26  1  0.08299800  0.87791500  0.84262500  1
  Cl  Cl27  1  0.91700200  0.12208500  0.34262500  1
  Cl  Cl28  1  0.91700200  0.12208500  0.15737500  1
  Cl  Cl29  1  0.08299800  0.87791500  0.65737500  1
  Cl  Cl30  1  0.91700200  0.87791500  0.15737500  1
  Cl  Cl31  1  0.08299800  0.12208500  0.84262500  1
  Cl  Cl32  1  0.08766300  0.37699300  0.65516900  1
  Cl  Cl33  1  0.91233700  0.62300700  0.34483100  1
  Cl  Cl34  1  0.08766300  0.62300700  0.84483100  1
  Cl  Cl35  1  0.91233700  0.37699300  0.34483100  1
  Cl  Cl36  1  0.91233700  0.37699300  0.15516900  1
  Cl  Cl37  1  0.08766300  0.62300700  0.65516900  1
  Cl  Cl38  1  0.91233700  0.62300700  0.15516900  1
  Cl  Cl39  1  0.08766300  0.37699300  0.84483100  1
  Cl  Cl40  1  0.33771500  0.00000000  0.56491600  1
  Cl  Cl41  1  0.66228500  0.00000000  0.43508400  1
  Cl  Cl42  1  0.33771500  0.00000000  0.93508400  1
  Cl  Cl43  1  0.66228500  0.00000000  0.06491600  1
  Cl  Cl44  1  0.59535100  0.37756400  0.65294500  1
  Cl  Cl45  1  0.40464900  0.62243600  0.34705500  1
  Cl  Cl46  1  0.59535100  0.62243600  0.84705500  1
  Cl  Cl47  1  0.40464900  0.37756400  0.34705500  1
  Cl  Cl48  1  0.40464900  0.37756400  0.15294500  1
  Cl  Cl49  1  0.59535100  0.62243600  0.65294500  1
  Cl  Cl50  1  0.40464900  0.62243600  0.15294500  1
  Cl  Cl51  1  0.59535100  0.37756400  0.84705500  1
  Cl  Cl52  1  0.25980900  0.12388000  0.09260600  1
  Cl  Cl53  1  0.74019100  0.87612000  0.90739400  1
  Cl  Cl54  1  0.25980900  0.87612000  0.40739400  1
  Cl  Cl55  1  0.74019100  0.12388000  0.90739400  1
  Cl  Cl56  1  0.74019100  0.12388000  0.59260600  1
  Cl  Cl57  1  0.25980900  0.87612000  0.09260600  1
  Cl  Cl58  1  0.74019100  0.87612000  0.59260600  1
  Cl  Cl59  1  0.25980900  0.12388000  0.40739400  1
loop_
_geom_bond_atom_site_label_1
_geom_bond_atom_site_label_2
_geom_bond_distance
_geom_bond_site_symmetry_2
C0 Hf4 2.225361 1_555
C0 Hf5 2.225361 1_455
C0 Hf21 2.267324 1_545
C0 Hf16 2.267324 1_555
C0 Hf17 2.267324 1_445
C0 Hf19 2.267324 1_455
C1 Hf2 2.225361 1_555
C1 Hf3 2.225361 1_454
C1 Hf22 2.267324 1_445
C1 Hf20 2.267324 1_455
C1 Hf18 2.267324 1_544
C1 Hf23 2.267324 1_554
C2 Hf14 2.215592 1_555
C2 Hf0 2.225713 1_555
C2 Hf8 2.267409 1_555
C2 Hf13 2.267409 1_555
C2 Hf6 2.267409 1_555
C2 Hf11 2.267409 1_555
C3 Hf15 2.215592 1_555
C3 Hf1 2.225713 1_555
C3 Hf12 2.267409 1_555
C3 Hf9 2.267409 1_555
C3 Hf7 2.267409 1_555
C3 Hf10 2.267409 1_555
Cl0 Hf3 2.781590 1_555
Cl0 Hf5 2.781590 1_555
Cl0 Cs0 3.499264 1_555
Cl0 Cs2 3.499264 1_545
Cl1 Hf4 2.781590 1_555
Cl1 Hf2 2.781590 1_555
Cl1 Cs3 3.499264 1_555
Cl1 Cs1 3.499264 1_545
Cl2 Hf14 2.702351 1_555
Cl2 Hf0 2.720343 1_655
Cl2 Cs2 3.566461 1_555
Cl2 Cs0 3.566461 1_555
Cl3 Hf15 2.702351 1_555
Cl3 Hf1 2.720343 1_455
Cl3 Cs1 3.566461 1_555
Cl3 Cs3 3.566461 1_555
Cl4 Hf6 2.509835 1_555
Cl4 Hf11 2.509835 1_555
Cl5 Hf7 2.509835 1_555
Cl5 Hf9 2.509835 1_555
Cl6 Hf13 2.509835 1_555
Cl6 Hf8 2.509835 1_555
Cl7 Hf10 2.509835 1_555
Cl7 Hf12 2.509835 1_555
Cl8 Hf16 2.511796 1_555
Cl8 Hf19 2.511796 1_455
Cl9 Hf21 2.511796 1_555
Cl9 Hf17 2.511796 1_455
Cl10 Hf18 2.511796 1_554
Cl10 Hf22 2.511796 1_455
Cl11 Hf20 2.511796 1_455
Cl11 Hf23 2.511796 1_554
Cl12 Hf13 2.514914 1_555
Cl12 Hf6 2.514914 1_555
Cl13 Hf12 2.514914 1_555
Cl13 Hf7 2.514914 1_555
Cl14 Hf8 2.514914 1_555
Cl14 Hf11 2.514914 1_555
Cl15 Hf9 2.514914 1_555
Cl15 Hf10 2.514914 1_555
Cl16 Hf6 2.695182 1_555
Cl16 Hf16 2.706168 1_555
Cl17 Hf7 2.695182 1_555
Cl17 Hf17 2.706168 1_555
Cl18 Hf8 2.695182 1_555
Cl18 Hf18 2.706168 1_555
Cl19 Hf9 2.695182 1_555
Cl19 Hf19 2.706168 1_555
Cl20 Hf10 2.695182 1_555
Cl20 Hf20 2.706168 1_555
Cl21 Hf11 2.695182 1_555
Cl21 Hf21 2.706168 1_555
Cl22 Hf12 2.695182 1_555
Cl22 Hf22 2.706168 1_555
Cl23 Hf13 2.695182 1_555
Cl23 Hf23 2.706168 1_555
Cl24 Hf16 2.500327 1_555
Cl24 Hf5 2.503986 1_455
Cl24 Cs0 3.529128 1_455
Cl25 Hf17 2.500327 1_555
Cl25 Hf4 2.503986 1_665
Cl25 Cs1 3.529128 1_655
Cl26 Hf18 2.500327 1_555
Cl26 Hf3 2.503986 1_465
Cl26 Cs2 3.529128 1_455
Cl27 Hf19 2.500327 1_555
Cl27 Hf4 2.503986 1_655
Cl27 Cs3 3.529128 1_655
Cl28 Hf20 2.500327 1_555
Cl28 Hf2 2.503986 1_655
Cl28 Cs3 3.529128 1_655
Cl29 Hf21 2.500327 1_555
Cl29 Hf5 2.503986 1_465
Cl29 Cs2 3.529128 1_455
Cl30 Hf22 2.500327 1_555
Cl30 Hf2 2.503986 1_665
Cl30 Cs1 3.529128 1_655
Cl31 Hf23 2.500327 1_555
Cl31 Hf3 2.503986 1_455
Cl31 Cs0 3.529128 1_455
Cl32 Hf0 2.503119 1_555
Cl32 Hf6 2.509478 1_555
Cl32 Cs0 3.608678 1_455
Cl33 Hf1 2.503119 1_555
Cl33 Hf7 2.509478 1_555
Cl33 Cs1 3.608678 1_655
Cl34 Hf0 2.503119 1_555
Cl34 Hf8 2.509478 1_555
Cl34 Cs2 3.608678 1_455
Cl35 Hf1 2.503119 1_555
Cl35 Hf9 2.509478 1_555
Cl35 Cs3 3.608678 1_655
Cl36 Hf1 2.503119 1_555
Cl36 Hf10 2.509478 1_555
Cl36 Cs3 3.608678 1_655
Cl37 Hf0 2.503119 1_555
Cl37 Hf11 2.509478 1_555
Cl37 Cs2 3.608678 1_455
Cl38 Hf1 2.503119 1_555
Cl38 Hf12 2.509478 1_555
Cl38 Cs1 3.608678 1_655
Cl39 Hf0 2.503119 1_555
Cl39 Hf13 2.509478 1_555
Cl39 Cs0 3.608678 1_455
Cl40 Hf16 2.512038 1_555
Cl40 Hf21 2.512038 1_545
Cl41 Hf17 2.512038 1_545
Cl41 Hf19 2.512038 1_555
Cl42 Hf18 2.512038 1_545
Cl42 Hf23 2.512038 1_555
Cl43 Hf22 2.512038 1_545
Cl43 Hf20 2.512038 1_555
Cl44 Hf6 2.520450 1_555
Cl44 Hf14 2.525079 1_555
Cl44 Cs0 3.460399 1_555
Cl45 Hf7 2.520450 1_555
Cl45 Hf15 2.525079 1_555
Cl45 Cs1 3.460399 1_555
Cl46 Hf8 2.520450 1_555
Cl46 Hf14 2.525079 1_555
Cl46 Cs2 3.460399 1_555
Cl47 Hf9 2.520450 1_555
Cl47 Hf15 2.525079 1_555
Cl47 Cs3 3.460399 1_555
Cl48 Hf10 2.520450 1_555
Cl48 Hf15 2.525079 1_555
Cl48 Cs3 3.460399 1_555
Cl49 Hf11 2.520450 1_555
Cl49 Hf14 2.525079 1_555
Cl49 Cs2 3.460399 1_555
Cl50 Hf12 2.520450 1_555
Cl50 Hf15 2.525079 1_555
Cl50 Cs1 3.460399 1_555
Cl51 Hf13 2.520450 1_555
Cl51 Hf14 2.525079 1_555
Cl51 Cs0 3.460399 1_555
Cl52 Hf23 2.521899 1_554
Cl52 Hf2 2.524130 1_555
Cl52 Cs3 3.539226 1_555
Cl53 Hf22 2.521899 1_556
Cl53 Hf3 2.524130 1_565
Cl53 Cs2 3.539226 1_555
Cl54 Hf21 2.521899 1_555
Cl54 Hf4 2.524130 1_565
Cl54 Cs1 3.539226 1_555
Cl55 Hf20 2.521899 1_556
Cl55 Hf3 2.524130 1_555
Cl55 Cs0 3.539226 1_555
Cl56 Hf19 2.521899 1_555
Cl56 Hf5 2.524130 1_555
Cl56 Cs0 3.539226 1_555
Cl57 Hf18 2.521899 1_554
Cl57 Hf2 2.524130 1_565
Cl57 Cs1 3.539226 1_555
Cl58 Hf17 2.521899 1_555
Cl58 Hf5 2.524130 1_565
Cl58 Cs2 3.539226 1_555
Cl59 Hf16 2.521899 1_555
Cl59 Hf4 2.524130 1_555
Cl59 Cs3 3.539226 1_555
