# generated using pymatgen
data_SrHfMg14O16
_symmetry_space_group_name_H-M   'P 1'
_cell_length_a   8.77900801
_cell_length_b   8.81540023
_cell_length_c   4.45130841
_cell_angle_alpha   90.00000000
_cell_angle_beta   90.00000000
_cell_angle_gamma   90.00000000
_symmetry_Int_Tables_number   1
_chemical_formula_structural   SrHfMg14O16
_chemical_formula_sum   'Sr1 Hf1 Mg14 O16'
_cell_volume   344.48884654
_cell_formula_units_Z   1
loop_
 _symmetry_equiv_pos_site_id
 _symmetry_equiv_pos_as_xyz
  1  'x, y, z'
loop_
 _atom_site_type_symbol
 _atom_site_label
 _atom_site_symmetry_multiplicity
 _atom_site_fract_x
 _atom_site_fract_y
 _atom_site_fract_z
 _atom_site_occupancy
  Sr  Sr0  1  0.00000000  -0.00000000  0.00000000  1
  Hf  Hf0  1  0.00000000  0.50000000  0.00000000  1
  Mg  Mg0  1  0.50000000  -0.00000000  0.00000000  1
  Mg  Mg1  1  0.50000000  0.50000000  0.00000000  1
  Mg  Mg2  1  0.00000000  0.25042555  0.50000000  1
  Mg  Mg3  1  0.00000000  0.74957445  0.50000000  1
  Mg  Mg4  1  0.50000000  0.25028124  0.50000000  1
  Mg  Mg5  1  0.50000000  0.74971876  0.50000000  1
  Mg  Mg6  1  0.26164803  -0.00000000  0.50000000  1
  Mg  Mg7  1  0.25781735  0.50000000  0.50000000  1
  Mg  Mg8  1  0.73835197  -0.00000000  0.50000000  1
  Mg  Mg9  1  0.74218265  0.50000000  0.50000000  1
  Mg  Mg10  1  0.26301604  0.24942538  -0.00000000  1
  Mg  Mg11  1  0.26301604  0.75057462  -0.00000000  1
  Mg  Mg12  1  0.73698396  0.24942538  0.00000000  1
  Mg  Mg13  1  0.73698396  0.75057462  0.00000000  1
  O  O0  1  0.27205109  -0.00000000  -0.00000000  1
  O  O1  1  0.25563341  0.50000000  0.00000000  1
  O  O2  1  0.72794891  -0.00000000  0.00000000  1
  O  O3  1  0.74436659  0.50000000  -0.00000000  1
  O  O4  1  0.25007910  0.24917785  0.50000000  1
  O  O5  1  0.25007910  0.75082215  0.50000000  1
  O  O6  1  0.74992090  0.24917785  0.50000000  1
  O  O7  1  0.74992090  0.75082215  0.50000000  1
  O  O8  1  0.00000000  -0.00000000  0.50000000  1
  O  O9  1  0.00000000  0.50000000  0.50000000  1
  O  O10  1  0.50000000  -0.00000000  0.50000000  1
  O  O11  1  0.50000000  0.50000000  0.50000000  1
  O  O12  1  0.00000000  0.26566918  0.00000000  1
  O  O13  1  0.00000000  0.73433082  -0.00000000  1
  O  O14  1  0.50000000  0.25509215  0.00000000  1
  O  O15  1  0.50000000  0.74490785  -0.00000000  1
loop_
_geom_bond_atom_site_label_1
_geom_bond_atom_site_label_2
_geom_bond_distance
_geom_bond_site_symmetry_2
Hf0 O12 2.065720 1_555
Hf0 O13 2.065720 1_555
Hf0 O9 2.225654 1_555
Hf0 O9 2.225654 1_554
Hf0 O3 2.244208 1_455
Hf0 O1 2.244208 1_555
Mg0 O2 2.001165 1_555
Mg0 O0 2.001165 1_555
Mg0 O10 2.225654 1_555
Mg0 O10 2.225654 1_554
Mg0 O15 2.248739 1_545
Mg0 O14 2.248739 1_555
Mg1 O1 2.145296 1_555
Mg1 O3 2.145296 1_555
Mg1 O14 2.158961 1_555
Mg1 O15 2.158961 1_555
Mg1 O11 2.225654 1_554
Mg1 O11 2.225654 1_555
Mg2 O4 2.195474 1_555
Mg2 O6 2.195474 1_455
Mg2 O9 2.200099 1_555
Mg2 O8 2.207601 1_555
Mg2 O12 2.229707 1_556
Mg2 O12 2.229707 1_555
Mg3 O7 2.195474 1_455
Mg3 O5 2.195474 1_555
Mg3 O9 2.200099 1_555
Mg3 O8 2.207601 1_565
Mg3 O13 2.229707 1_555
Mg3 O13 2.229707 1_556
Mg4 O4 2.194079 1_555
Mg4 O6 2.194079 1_555
Mg4 O11 2.201371 1_555
Mg4 O10 2.206329 1_555
Mg4 O14 2.226058 1_555
Mg4 O14 2.226058 1_556
Mg5 O5 2.194079 1_555
Mg5 O7 2.194079 1_555
Mg5 O11 2.201371 1_555
Mg5 O10 2.206329 1_565
Mg5 O15 2.226058 1_556
Mg5 O15 2.226058 1_555
Mg6 O10 2.092494 1_555
Mg6 O4 2.198949 1_555
Mg6 O5 2.198949 1_545
Mg6 O0 2.227527 1_555
Mg6 O0 2.227527 1_556
Mg6 O8 2.297010 1_555
Mg7 O11 2.126123 1_555
Mg7 O4 2.212141 1_555
Mg7 O5 2.212141 1_555
Mg7 O1 2.225737 1_556
Mg7 O1 2.225737 1_555
Mg7 O9 2.263381 1_555
Mg8 O10 2.092494 1_555
Mg8 O6 2.198949 1_555
Mg8 O7 2.198949 1_545
Mg8 O2 2.227527 1_556
Mg8 O2 2.227527 1_555
Mg8 O8 2.297010 1_655
Mg9 O11 2.126123 1_555
Mg9 O6 2.212141 1_555
Mg9 O7 2.212141 1_555
Mg9 O3 2.225737 1_556
Mg9 O3 2.225737 1_555
Mg9 O9 2.263381 1_655
Mg10 O14 2.081084 1_555
Mg10 O0 2.200215 1_555
Mg10 O1 2.209866 1_555
Mg10 O4 2.228551 1_554
Mg10 O4 2.228551 1_555
Mg10 O12 2.313456 1_555
Mg11 O15 2.081084 1_555
Mg11 O0 2.200215 1_565
Mg11 O1 2.209866 1_555
Mg11 O5 2.228551 1_554
Mg11 O5 2.228551 1_555
Mg11 O13 2.313456 1_555
Mg12 O14 2.081084 1_555
Mg12 O2 2.200215 1_555
Mg12 O3 2.209866 1_555
Mg12 O6 2.228551 1_555
Mg12 O6 2.228551 1_554
Mg12 O12 2.313456 1_655
Mg13 O15 2.081084 1_555
Mg13 O2 2.200215 1_565
Mg13 O3 2.209866 1_555
Mg13 O7 2.228551 1_554
Mg13 O7 2.228551 1_555
Mg13 O13 2.313456 1_655
O0 Sr0 2.388339 1_555
O2 Sr0 2.388339 1_655
O8 Sr0 2.225654 1_555
O8 Sr0 2.225654 1_556
O12 Sr0 2.341980 1_555
O13 Sr0 2.341980 1_565
