# generated using pymatgen
data_Sr2Co2O5
_symmetry_space_group_name_H-M   'P 1'
_cell_length_a   5.60033100
_cell_length_b   5.60033100
_cell_length_c   3.70867400
_cell_angle_alpha   90.00000000
_cell_angle_beta   90.00000000
_cell_angle_gamma   90.00000000
_symmetry_Int_Tables_number   1
_chemical_formula_structural   Sr2Co2O5
_chemical_formula_sum   'Sr2 Co2 O5'
_cell_volume   116.31776584
_cell_formula_units_Z   1
loop_
 _symmetry_equiv_pos_site_id
 _symmetry_equiv_pos_as_xyz
  1  'x, y, z'
loop_
 _atom_site_type_symbol
 _atom_site_label
 _atom_site_symmetry_multiplicity
 _atom_site_fract_x
 _atom_site_fract_y
 _atom_site_fract_z
 _atom_site_occupancy
  Sr  Sr0  1  0.50000000  0.00000000  0.00000000  1
  Sr  Sr1  1  0.00000000  0.50000000  0.00000000  1
  Co  Co0  1  0.00000000  0.00000000  0.50000000  1
  Co  Co1  1  0.50000000  0.50000000  0.50000000  1
  O  O0  1  0.72874600  0.27125400  0.50000000  1
  O  O1  1  0.27125400  0.72874600  0.50000000  1
  O  O2  1  0.00000000  0.00000000  0.00000000  1
  O  O3  1  0.72874600  0.72874600  0.50000000  1
  O  O4  1  0.27125400  0.27125400  0.50000000  1
loop_
_geom_bond_atom_site_label_1
_geom_bond_atom_site_label_2
_geom_bond_distance
_geom_bond_site_symmetry_2
Co0 O2 1.854337 1_556
Co0 O2 1.854337 1_555
Co0 O3 2.148349 1_445
Co0 O4 2.148349 1_555
Co0 O0 2.148349 1_455
Co0 O1 2.148349 1_545
Co1 O1 1.811683 1_555
Co1 O3 1.811683 1_555
Co1 O4 1.811683 1_555
Co1 O0 1.811683 1_555
O0 Sr0 2.717971 1_556
O0 Sr1 2.717971 1_655
O0 Sr1 2.717971 1_656
O0 Sr0 2.717971 1_555
O1 Sr0 2.717971 1_566
O1 Sr1 2.717971 1_555
O1 Sr0 2.717971 1_565
O1 Sr1 2.717971 1_556
O2 Sr1 2.800165 1_555
O2 Sr1 2.800165 1_545
O2 Sr0 2.800165 1_455
O2 Sr0 2.800165 1_555
O3 Sr0 2.717971 1_566
O3 Sr0 2.717971 1_565
O3 Sr1 2.717971 1_655
O3 Sr1 2.717971 1_656
O4 Sr0 2.717971 1_556
O4 Sr1 2.717971 1_555
O4 Sr1 2.717971 1_556
O4 Sr0 2.717971 1_555
