# generated using pymatgen
data_H10PtC2(NCl)2
_symmetry_space_group_name_H-M   'P 1'
_cell_length_a   6.48477900
_cell_length_b   16.67513900
_cell_length_c   9.20793081
_cell_angle_alpha   90.00000000
_cell_angle_beta   123.84835236
_cell_angle_gamma   90.00000000
_symmetry_Int_Tables_number   1
_chemical_formula_structural   H10PtC2(NCl)2
_chemical_formula_sum   'H40 Pt4 C8 N8 Cl8'
_cell_volume   826.94003832
_cell_formula_units_Z   4
loop_
 _symmetry_equiv_pos_site_id
 _symmetry_equiv_pos_as_xyz
  1  'x, y, z'
loop_
 _atom_site_type_symbol
 _atom_site_label
 _atom_site_symmetry_multiplicity
 _atom_site_fract_x
 _atom_site_fract_y
 _atom_site_fract_z
 _atom_site_occupancy
  H  H0  1  0.23599900  0.02569100  0.39319300  1
  H  H1  1  0.23599900  0.47430900  0.89319300  1
  H  H2  1  0.76400100  0.97430900  0.60680700  1
  H  H3  1  0.76400100  0.52569100  0.10680700  1
  H  H4  1  0.94327500  0.04974500  0.29948800  1
  H  H5  1  0.94327500  0.45025500  0.79948800  1
  H  H6  1  0.05672500  0.95025500  0.70051200  1
  H  H7  1  0.05672500  0.54974500  0.20051200  1
  H  H8  1  0.64607100  0.10347300  0.03367800  1
  H  H9  1  0.64607100  0.39652700  0.53367800  1
  H  H10  1  0.35392900  0.89652700  0.96632200  1
  H  H11  1  0.35392900  0.60347300  0.46632200  1
  H  H12  1  0.65387000  0.10655200  0.85941800  1
  H  H13  1  0.65387000  0.39344800  0.35941800  1
  H  H14  1  0.34613000  0.89344800  0.14058200  1
  H  H15  1  0.34613000  0.60655200  0.64058200  1
  H  H16  1  0.47504200  0.22703300  0.89438500  1
  H  H17  1  0.47504200  0.27296700  0.39438500  1
  H  H18  1  0.52495800  0.77296700  0.10561500  1
  H  H19  1  0.52495800  0.72703300  0.60561500  1
  H  H20  1  0.76886300  0.24548100  0.09618800  1
  H  H21  1  0.76886300  0.25451900  0.59618800  1
  H  H22  1  0.23113700  0.75451900  0.90381200  1
  H  H23  1  0.23113700  0.74548100  0.40381200  1
  H  H24  1  0.74660600  0.24752400  0.89504600  1
  H  H25  1  0.74660600  0.25247600  0.39504600  1
  H  H26  1  0.25339400  0.75247600  0.10495400  1
  H  H27  1  0.25339400  0.74752400  0.60495400  1
  H  H28  1  0.18319700  0.11570900  0.57642500  1
  H  H29  1  0.18319700  0.38429100  0.07642500  1
  H  H30  1  0.81680300  0.88429100  0.42357500  1
  H  H31  1  0.81680300  0.61570900  0.92357500  1
  H  H32  1  0.37419700  0.15766900  0.51091200  1
  H  H33  1  0.37419700  0.34233100  0.01091200  1
  H  H34  1  0.62580300  0.84233100  0.48908800  1
  H  H35  1  0.62580300  0.65766900  0.98908800  1
  H  H36  1  0.06005900  0.18858400  0.40467800  1
  H  H37  1  0.06005900  0.31141600  0.90467800  1
  H  H38  1  0.93994100  0.81141600  0.59532200  1
  H  H39  1  0.93994100  0.68858400  0.09532200  1
  Pt  Pt0  1  0.10150400  0.09870800  0.11145400  1
  Pt  Pt1  1  0.10150400  0.40129200  0.61145400  1
  Pt  Pt2  1  0.89849600  0.90129200  0.88854600  1
  Pt  Pt3  1  0.89849600  0.59870800  0.38854600  1
  C  C0  1  0.67675000  0.21838700  0.96582600  1
  C  C1  1  0.67675000  0.28161300  0.46582600  1
  C  C2  1  0.32325000  0.78161300  0.03417400  1
  C  C3  1  0.32325000  0.71838700  0.53417400  1
  C  C4  1  0.18657200  0.13757000  0.46514000  1
  C  C5  1  0.18657200  0.36243000  0.96514000  1
  C  C6  1  0.81342800  0.86243000  0.53486000  1
  C  C7  1  0.81342800  0.63757000  0.03486000  1
  N  N0  1  0.11324500  0.07235800  0.33533200  1
  N  N1  1  0.11324500  0.42764200  0.83533200  1
  N  N2  1  0.88675500  0.92764200  0.66466800  1
  N  N3  1  0.88675500  0.57235800  0.16466800  1
  N  N4  1  0.73270300  0.13119100  0.98152500  1
  N  N5  1  0.73270300  0.36880900  0.48152500  1
  N  N6  1  0.26729700  0.86880900  0.01847500  1
  N  N7  1  0.26729700  0.63119100  0.51847500  1
  Cl  Cl0  1  0.07183700  0.12524100  0.85249900  1
  Cl  Cl1  1  0.07183700  0.37475900  0.35249900  1
  Cl  Cl2  1  0.92816300  0.87475900  0.14750100  1
  Cl  Cl3  1  0.92816300  0.62524100  0.64750100  1
  Cl  Cl4  1  0.51729100  0.05857800  0.26339000  1
  Cl  Cl5  1  0.51729100  0.44142200  0.76339000  1
  Cl  Cl6  1  0.48270900  0.94142200  0.73661000  1
  Cl  Cl7  1  0.48270900  0.55857800  0.23661000  1
loop_
_geom_bond_atom_site_label_1
_geom_bond_atom_site_label_2
_geom_bond_distance
_geom_bond_site_symmetry_2
H0 N0 1.025002 1_555
H1 N1 1.025002 1_555
H2 N2 1.025002 1_555
H3 N3 1.025002 1_555
H4 N0 1.029926 1_655
H5 N1 1.029926 1_655
H6 N2 1.029926 1_455
H7 N3 1.029926 1_455
H8 N4 1.029751 1_554
H9 N5 1.029751 1_555
H10 N6 1.029751 1_556
H11 N7 1.029751 1_555
H12 N4 1.026649 1_555
H13 N5 1.026649 1_555
H14 N6 1.026649 1_555
H15 N7 1.026649 1_555
C0 H24 1.093127 1_555
C0 H20 1.096836 1_556
C0 H16 1.098146 1_555
C0 N4 1.486019 1_555
C1 H25 1.093127 1_555
C1 H21 1.096836 1_555
C1 H17 1.098146 1_555
C1 N5 1.486019 1_555
C2 H26 1.093127 1_555
C2 H22 1.096836 1_554
C2 H18 1.098146 1_555
C2 N6 1.486019 1_555
C3 H27 1.093127 1_555
C3 H23 1.096836 1_555
C3 H19 1.098146 1_555
C3 N7 1.486019 1_555
C4 H36 1.094458 1_555
C4 H32 1.095025 1_555
C4 H28 1.099258 1_555
C4 N0 1.484620 1_555
C5 H37 1.094458 1_555
C5 H33 1.095025 1_556
C5 H29 1.099258 1_556
C5 N1 1.484620 1_555
C6 H38 1.094458 1_555
C6 H34 1.095025 1_555
C6 H30 1.099258 1_555
C6 N2 1.484620 1_555
C7 H39 1.094458 1_555
C7 H35 1.095025 1_554
C7 H31 1.099258 1_554
C7 N3 1.484620 1_555
N0 Pt0 2.067270 1_555
N1 Pt1 2.067270 1_555
N2 Pt2 2.067270 1_555
N3 Pt3 2.067270 1_555
N4 Pt0 2.063254 1_656
N5 Pt1 2.063254 1_655
N6 Pt2 2.063254 1_454
N7 Pt3 2.063254 1_455
Cl0 Pt0 2.325360 1_556
Cl1 Pt1 2.325360 1_555
Cl2 Pt2 2.325360 1_554
Cl3 Pt3 2.325360 1_555
Cl4 Pt0 2.339413 1_555
Cl5 Pt1 2.339413 1_555
Cl6 Pt2 2.339413 1_555
Cl7 Pt3 2.339413 1_555
