# generated using pymatgen
data_TaMnO4
_symmetry_space_group_name_H-M   'P 1'
_cell_length_a   6.73853924
_cell_length_b   7.59315751
_cell_length_c   6.92098484
_cell_angle_alpha   60.98638477
_cell_angle_beta   94.08902977
_cell_angle_gamma   65.37278225
_symmetry_Int_Tables_number   1
_chemical_formula_structural   TaMnO4
_chemical_formula_sum   'Ta4 Mn4 O16'
_cell_volume   264.33925580
_cell_formula_units_Z   4
loop_
 _symmetry_equiv_pos_site_id
 _symmetry_equiv_pos_as_xyz
  1  'x, y, z'
loop_
 _atom_site_type_symbol
 _atom_site_label
 _atom_site_symmetry_multiplicity
 _atom_site_fract_x
 _atom_site_fract_y
 _atom_site_fract_z
 _atom_site_occupancy
  Ta  Ta0  1  0.70393198  0.33020136  0.45657894  1
  Ta  Ta1  1  0.20395356  0.33019566  0.95659429  1
  Ta  Ta2  1  0.79604623  0.66980399  0.04340568  1
  Ta  Ta3  1  0.29606804  0.66979845  0.54342080  1
  Mn  Mn0  1  0.70459803  0.84383095  0.45187932  1
  Mn  Mn1  1  0.29540232  0.15616790  0.54812151  1
  Mn  Mn2  1  0.20457882  0.84383874  0.95187865  1
  Mn  Mn3  1  0.79542100  0.15615989  0.04812145  1
  O  O0  1  0.46047181  0.88776979  0.87815339  1
  O  O1  1  0.96049225  0.88776931  0.37815630  1
  O  O2  1  0.03950791  0.11223068  0.62184371  1
  O  O3  1  0.53952845  0.11223003  0.12184643  1
  O  O4  1  0.91853182  0.86813132  0.98235273  1
  O  O5  1  0.41854921  0.86812995  0.48235049  1
  O  O6  1  0.58145096  0.13186962  0.51764976  1
  O  O7  1  0.08146829  0.13186813  0.01764707  1
  O  O8  1  0.36678883  0.62081813  0.28617496  1
  O  O9  1  0.86680266  0.62082382  0.78617036  1
  O  O10  1  0.13319750  0.37917618  0.21382896  1
  O  O11  1  0.63321123  0.37918204  0.71382430  1
  O  O12  1  0.77396677  0.60449879  0.34276842  1
  O  O13  1  0.27397934  0.60449639  0.84277993  1
  O  O14  1  0.72602073  0.39550319  0.15722006  1
  O  O15  1  0.22603326  0.39550070  0.65723150  1
loop_
_geom_bond_atom_site_label_1
_geom_bond_atom_site_label_2
_geom_bond_distance
_geom_bond_site_symmetry_2
Mn0 O5 1.895596 1_555
Mn0 O9 1.926498 1_555
Mn0 O1 1.945471 1_555
Mn0 O3 1.959797 1_565
Mn0 O12 2.182858 1_555
Mn0 O6 2.277349 1_565
Mn1 O6 1.895597 1_555
Mn1 O10 1.926506 1_555
Mn1 O2 1.945467 1_555
Mn1 O0 1.959790 1_545
Mn1 O15 2.182857 1_555
Mn1 O5 2.277347 1_545
Mn2 O4 1.895602 1_455
Mn2 O8 1.926535 1_556
Mn2 O0 1.945444 1_555
Mn2 O2 1.959793 1_565
Mn2 O13 2.182841 1_555
Mn2 O7 2.277281 1_566
Mn3 O7 1.895606 1_655
Mn3 O11 1.926540 1_554
Mn3 O3 1.945437 1_555
Mn3 O1 1.959790 1_545
Mn3 O14 2.182847 1_555
Mn3 O4 2.277277 1_544
O0 Ta2 1.958705 1_556
O1 Ta3 1.958723 1_655
O2 Ta0 1.958723 1_455
O3 Ta1 1.958707 1_554
O4 Ta2 1.896314 1_556
O5 Ta3 1.896302 1_555
O6 Ta0 1.896302 1_555
O7 Ta1 1.896313 1_554
O8 Ta3 2.037359 1_555
O8 Ta0 2.082523 1_555
O9 Ta2 2.037340 1_556
O9 Ta1 2.082580 1_655
O10 Ta1 2.037336 1_554
O10 Ta2 2.082580 1_455
O11 Ta0 2.037357 1_555
O11 Ta3 2.082522 1_555
O12 Ta2 1.915614 1_555
O12 Ta0 2.112334 1_555
O13 Ta3 1.915612 1_555
O13 Ta1 2.112314 1_555
O14 Ta0 1.915611 1_555
O14 Ta2 2.112313 1_555
O15 Ta1 1.915615 1_555
O15 Ta3 2.112336 1_555
