# generated using pymatgen
data_SnTePbSe
_symmetry_space_group_name_H-M   'P 1'
_cell_length_a   7.75039167
_cell_length_b   7.75039167
_cell_length_c   7.75039130
_cell_angle_alpha   33.55090930
_cell_angle_beta   33.55090930
_cell_angle_gamma   33.55091101
_symmetry_Int_Tables_number   1
_chemical_formula_structural   SnTePbSe
_chemical_formula_sum   'Sn1 Te1 Pb1 Se1'
_cell_volume   126.66399845
_cell_formula_units_Z   1
loop_
 _symmetry_equiv_pos_site_id
 _symmetry_equiv_pos_as_xyz
  1  'x, y, z'
loop_
 _atom_site_type_symbol
 _atom_site_label
 _atom_site_symmetry_multiplicity
 _atom_site_fract_x
 _atom_site_fract_y
 _atom_site_fract_z
 _atom_site_occupancy
  Sn  Sn0  1  0.49527400  0.49527400  0.49527400  1
  Te  Te0  1  0.24749400  0.24749400  0.24749400  1
  Pb  Pb0  1  0.00525600  0.00525600  0.00525600  1
  Se  Se0  1  0.75197600  0.75197600  0.75197600  1
loop_
_geom_bond_atom_site_label_1
_geom_bond_atom_site_label_2
_geom_bond_distance
_geom_bond_site_symmetry_2
Sn0 Te0 3.192066 1_556
Sn0 Te0 3.192067 1_565
Sn0 Te0 3.192067 1_655
Pb0 Se0 3.122750 1_445
Pb0 Se0 3.122750 1_454
Pb0 Se0 3.122750 1_544
Pb0 Te0 3.264929 1_554
Pb0 Te0 3.264929 1_455
Pb0 Te0 3.264929 1_545
Se0 Sn0 3.081217 1_556
Se0 Sn0 3.081217 1_655
Se0 Sn0 3.081217 1_565
