# generated using pymatgen
data_MgH4SeO5
_symmetry_space_group_name_H-M   'P 1'
_cell_length_a   6.53747304
_cell_length_b   7.77503122
_cell_length_c   8.97575200
_cell_angle_alpha   90.00000000
_cell_angle_beta   90.00000000
_cell_angle_gamma   99.31314063
_symmetry_Int_Tables_number   1
_chemical_formula_structural   MgH4SeO5
_chemical_formula_sum   'Mg4 H16 Se4 O20'
_cell_volume   450.21528510
_cell_formula_units_Z   4
loop_
 _symmetry_equiv_pos_site_id
 _symmetry_equiv_pos_as_xyz
  1  'x, y, z'
loop_
 _atom_site_type_symbol
 _atom_site_label
 _atom_site_symmetry_multiplicity
 _atom_site_fract_x
 _atom_site_fract_y
 _atom_site_fract_z
 _atom_site_occupancy
  Mg  Mg0  1  0.84498000  0.01295500  0.13854200  1
  Mg  Mg1  1  0.34498000  0.51295500  0.36145800  1
  Mg  Mg2  1  0.15502000  0.98704500  0.86145800  1
  Mg  Mg3  1  0.65502000  0.48704500  0.63854200  1
  H  H0  1  0.06677200  0.14337900  0.36183400  1
  H  H1  1  0.56677200  0.64337900  0.13816600  1
  H  H2  1  0.93322800  0.85662100  0.63816600  1
  H  H3  1  0.43322800  0.35662100  0.86183400  1
  H  H4  1  0.83163900  0.12877000  0.42361500  1
  H  H5  1  0.33163900  0.62877000  0.07638500  1
  H  H6  1  0.16836100  0.87123000  0.57638500  1
  H  H7  1  0.66836100  0.37123000  0.92361500  1
  H  H8  1  0.98559200  0.29601000  0.98698100  1
  H  H9  1  0.48559200  0.79601000  0.51301900  1
  H  H10  1  0.01440800  0.70399000  0.01301900  1
  H  H11  1  0.51440800  0.20399000  0.48698100  1
  H  H12  1  0.93131000  0.37069500  0.14592700  1
  H  H13  1  0.43131000  0.87069500  0.35407300  1
  H  H14  1  0.06869000  0.62930500  0.85407300  1
  H  H15  1  0.56869000  0.12930500  0.64592700  1
  Se  Se0  1  0.60262400  0.83658800  0.84457100  1
  Se  Se1  1  0.10262400  0.33658800  0.65542900  1
  Se  Se2  1  0.39737600  0.16341200  0.15542900  1
  Se  Se3  1  0.89737600  0.66341200  0.34457100  1
  O  O0  1  0.67818100  0.76432400  0.67259000  1
  O  O1  1  0.17818100  0.26432400  0.82741000  1
  O  O2  1  0.32181900  0.23567600  0.32741000  1
  O  O3  1  0.82181900  0.73567600  0.17259100  1
  O  O4  1  0.46456400  0.99879400  0.79525400  1
  O  O5  1  0.96456400  0.49879400  0.70474600  1
  O  O6  1  0.53543600  0.00120600  0.20474600  1
  O  O7  1  0.03543600  0.50120600  0.29525400  1
  O  O8  1  0.83063300  0.95943100  0.91040500  1
  O  O9  1  0.33063300  0.45943100  0.58959500  1
  O  O10  1  0.16936700  0.04056900  0.08959500  1
  O  O11  1  0.66936700  0.54056900  0.41040500  1
  O  O12  1  0.92211500  0.07975800  0.35302900  1
  O  O13  1  0.42211500  0.57975800  0.14697100  1
  O  O14  1  0.07788500  0.92024200  0.64697100  1
  O  O15  1  0.57788500  0.42024200  0.85302900  1
  O  O16  1  0.87546600  0.28822400  0.06382300  1
  O  O17  1  0.37546600  0.78822400  0.43617700  1
  O  O18  1  0.12453400  0.71177600  0.93617700  1
  O  O19  1  0.62453400  0.21177600  0.56382300  1
loop_
_geom_bond_atom_site_label_1
_geom_bond_atom_site_label_2
_geom_bond_distance
_geom_bond_site_symmetry_2
Mg0 O12 2.036078 1_555
Mg0 O8 2.088642 1_544
Mg0 O6 2.096837 1_555
Mg0 O10 2.142194 1_655
Mg0 O3 2.158327 1_545
Mg0 O16 2.220813 1_555
Mg1 O13 2.036078 1_555
Mg1 O9 2.088642 1_555
Mg1 O7 2.096837 1_555
Mg1 O11 2.142194 1_555
Mg1 O2 2.158326 1_555
Mg1 O17 2.220813 1_555
Mg2 O14 2.036078 1_555
Mg2 O10 2.088642 1_566
Mg2 O4 2.096837 1_555
Mg2 O8 2.142194 1_455
Mg2 O1 2.158326 1_565
Mg2 O18 2.220813 1_555
Mg3 O15 2.036078 1_555
Mg3 O11 2.088642 1_555
Mg3 O5 2.096837 1_555
Mg3 O9 2.142194 1_555
Mg3 O0 2.158326 1_555
Mg3 O19 2.220813 1_555
H0 O12 0.996923 1_455
H0 O2 1.732994 1_555
H1 O13 0.996923 1_555
H1 O3 1.732996 1_555
H2 O14 0.996923 1_655
H2 O0 1.732994 1_555
H3 O15 0.996923 1_555
H3 O1 1.732994 1_555
H4 O12 0.984592 1_555
H5 O13 0.984592 1_555
H6 O14 0.984592 1_555
H7 O15 0.984592 1_555
H8 O16 0.991759 1_556
H9 O17 0.991759 1_555
H10 O18 0.991759 1_554
H11 O19 0.991759 1_555
H12 O16 1.005863 1_555
H12 O7 1.750985 1_655
H13 O17 1.005863 1_555
H13 O6 1.750985 1_565
H14 O18 1.005863 1_555
H14 O5 1.750985 1_455
H15 O19 1.005863 1_555
H15 O4 1.750985 1_545
O0 Se0 1.741372 1_555
O1 Se1 1.741372 1_555
O2 Se2 1.741372 1_555
O3 Se3 1.741364 1_555
O4 Se0 1.723223 1_555
O5 Se1 1.723223 1_655
O6 Se2 1.723223 1_555
O7 Se3 1.723223 1_455
O8 Se0 1.738537 1_555
O9 Se1 1.738537 1_555
O10 Se2 1.738537 1_555
O11 Se3 1.738537 1_555
