# generated using pymatgen
data_Er2CuGe6
_symmetry_space_group_name_H-M   'P 1'
_cell_length_a   10.83878957
_cell_length_b   10.83878957
_cell_length_c   4.08374700
_cell_angle_alpha   90.00000000
_cell_angle_beta   90.00000000
_cell_angle_gamma   158.46363435
_symmetry_Int_Tables_number   1
_chemical_formula_structural   Er2CuGe6
_chemical_formula_sum   'Er2 Cu1 Ge6'
_cell_volume   176.11443348
_cell_formula_units_Z   1
loop_
 _symmetry_equiv_pos_site_id
 _symmetry_equiv_pos_as_xyz
  1  'x, y, z'
loop_
 _atom_site_type_symbol
 _atom_site_label
 _atom_site_symmetry_multiplicity
 _atom_site_fract_x
 _atom_site_fract_y
 _atom_site_fract_z
 _atom_site_occupancy
  Er  Er0  1  0.00501400  0.99498600  0.00000000  1
  Er  Er1  1  0.66882300  0.33117700  0.00000000  1
  Cu  Cu0  1  0.22414300  0.77585700  0.50000000  1
  Ge  Ge0  1  0.28533200  0.71466800  0.00000000  1
  Ge  Ge1  1  0.40237100  0.59762900  0.00000000  1
  Ge  Ge2  1  0.54177900  0.45822100  0.50000000  1
  Ge  Ge3  1  0.11542600  0.88457400  0.50000000  1
  Ge  Ge4  1  0.90305100  0.09694900  0.50000000  1
  Ge  Ge5  1  0.78506100  0.21493900  0.50000000  1
loop_
_geom_bond_atom_site_label_1
_geom_bond_atom_site_label_2
_geom_bond_distance
_geom_bond_site_symmetry_2
Er0 Ge1 2.979758 1_455
Er0 Ge1 2.979758 1_565
Er0 Ge2 2.980465 1_455
Er0 Ge2 2.980465 1_454
Er0 Ge2 2.980465 1_565
Er0 Ge2 2.980465 1_564
Er0 Ge4 2.980634 1_465
Er0 Ge4 2.980634 1_464
Er0 Ge3 3.114153 1_555
Er0 Ge3 3.114153 1_554
Er1 Ge3 3.092450 1_654
Er1 Ge3 3.092450 1_655
Er1 Ge3 3.092450 1_544
Er1 Ge3 3.092450 1_545
Er1 Ge0 3.202667 1_655
Er1 Ge0 3.202667 1_545
Er1 Ge5 3.208862 1_554
Er1 Ge5 3.208862 1_555
Er1 Ge2 3.389549 1_555
Er1 Ge2 3.389549 1_554
Cu0 Ge3 2.315222 1_555
Cu0 Ge5 2.404977 1_455
Cu0 Ge5 2.404977 1_565
Cu0 Ge0 2.422240 1_555
Cu0 Ge0 2.422240 1_556
Cu0 Er1 3.107742 1_455
Cu0 Er1 3.107742 1_456
Cu0 Er1 3.107742 1_565
Cu0 Er1 3.107742 1_566
Ge0 Ge1 2.492446 1_555
Ge0 Ge5 2.875796 1_455
Ge0 Ge5 2.875796 1_454
Ge0 Ge5 2.875796 1_564
Ge0 Ge5 2.875796 1_565
Ge1 Ge4 2.875827 1_565
Ge1 Ge4 2.875827 1_564
Ge1 Ge4 2.875827 1_454
Ge1 Ge4 2.875827 1_455
Ge2 Ge3 2.561392 1_545
Ge2 Ge3 2.561392 1_655
Ge4 Ge5 2.512699 1_555
