# generated using pymatgen
data_ErTlO3
_symmetry_space_group_name_H-M   'P 1'
_cell_length_a   4.40600000
_cell_length_b   4.40600000
_cell_length_c   4.40600000
_cell_angle_alpha   90.00000000
_cell_angle_beta   90.00000000
_cell_angle_gamma   90.00000000
_symmetry_Int_Tables_number   1
_chemical_formula_structural   ErTlO3
_chemical_formula_sum   'Er1 Tl1 O3'
_cell_volume   85.53295542
_cell_formula_units_Z   1
loop_
 _symmetry_equiv_pos_site_id
 _symmetry_equiv_pos_as_xyz
  1  'x, y, z'
loop_
 _atom_site_type_symbol
 _atom_site_label
 _atom_site_symmetry_multiplicity
 _atom_site_fract_x
 _atom_site_fract_y
 _atom_site_fract_z
 _atom_site_occupancy
  Er  Er0  1  0.50000000  0.50000000  0.50000000  1
  Tl  Tl0  1  0.00000000  0.00000000  0.00000000  1
  O  O0  1  0.50000000  0.50000000  0.00000000  1
  O  O1  1  0.50000000  0.00000000  0.50000000  1
  O  O2  1  0.00000000  0.50000000  0.50000000  1
loop_
_geom_bond_atom_site_label_1
_geom_bond_atom_site_label_2
_geom_bond_distance
_geom_bond_site_symmetry_2
Er0 O0 2.203000 1_555
Er0 O2 2.203000 1_555
Er0 O1 2.203000 1_565
Er0 O2 2.203000 1_655
Er0 O0 2.203000 1_556
Er0 O1 2.203000 1_555
