# generated using pymatgen
data_NaTiPO5
_symmetry_space_group_name_H-M   'P 1'
_cell_length_a   10.67405300
_cell_length_b   8.81578200
_cell_length_c   9.25172370
_cell_angle_alpha   89.97766810
_cell_angle_beta   90.00000000
_cell_angle_gamma   90.00000000
_symmetry_Int_Tables_number   1
_chemical_formula_structural   NaTiPO5
_chemical_formula_sum   'Na8 Ti8 P8 O40'
_cell_volume   870.58828433
_cell_formula_units_Z   8
loop_
 _symmetry_equiv_pos_site_id
 _symmetry_equiv_pos_as_xyz
  1  'x, y, z'
loop_
 _atom_site_type_symbol
 _atom_site_label
 _atom_site_symmetry_multiplicity
 _atom_site_fract_x
 _atom_site_fract_y
 _atom_site_fract_z
 _atom_site_occupancy
  Na  Na0  1  0.00001900  0.25003300  0.14332500  1
  Na  Na1  1  0.50001900  0.74996700  0.85667500  1
  Na  Na2  1  0.04833100  0.76790500  0.49037900  1
  Na  Na3  1  0.54833100  0.23209500  0.50962100  1
  Na  Na4  1  0.85382700  0.02289300  0.79883000  1
  Na  Na5  1  0.14669300  0.47568400  0.79924000  1
  Na  Na6  1  0.64669300  0.52431600  0.20076000  1
  Na  Na7  1  0.35382700  0.97710700  0.20117000  1
  Ti  Ti0  1  0.38028700  0.12202200  0.85162300  1
  Ti  Ti1  1  0.62023000  0.37847200  0.85222100  1
  Ti  Ti2  1  0.12023000  0.62152800  0.14777900  1
  Ti  Ti3  1  0.88028700  0.87797800  0.14837700  1
  Ti  Ti4  1  0.11397100  0.11536900  0.63882100  1
  Ti  Ti5  1  0.88544300  0.39039800  0.63612400  1
  Ti  Ti6  1  0.38544300  0.60960200  0.36387600  1
  Ti  Ti7  1  0.61397100  0.88463100  0.36117900  1
  P  P0  1  0.12463200  0.92426300  0.94303800  1
  P  P1  1  0.87550600  0.57568700  0.94357700  1
  P  P2  1  0.37550600  0.42431300  0.05642300  1
  P  P3  1  0.62463200  0.07573700  0.05696200  1
  P  P4  1  0.35939100  0.91154500  0.55944400  1
  P  P5  1  0.64069100  0.58895500  0.56009900  1
  P  P6  1  0.14069100  0.41104500  0.43990100  1
  P  P7  1  0.85939100  0.08845500  0.44055600  1
  O  O0  1  0.08496200  0.94726900  0.78279300  1
  O  O1  1  0.91537700  0.55187200  0.78365500  1
  O  O2  1  0.41537700  0.44812800  0.21634500  1
  O  O3  1  0.58496200  0.05273100  0.21720700  1
  O  O4  1  0.25395000  0.99407100  0.97551600  1
  O  O5  1  0.74607300  0.50580400  0.97564400  1
  O  O6  1  0.24607300  0.49419600  0.02435600  1
  O  O7  1  0.75395000  0.00592900  0.02448400  1
  O  O8  1  0.24813700  0.19168900  0.74127200  1
  O  O9  1  0.75126500  0.30930100  0.73885800  1
  O  O10  1  0.25126500  0.69069900  0.26114200  1
  O  O11  1  0.74813700  0.80831100  0.25872800  1
  O  O12  1  0.39832900  0.94213800  0.71893700  1
  O  O13  1  0.60144500  0.55844500  0.71946900  1
  O  O14  1  0.10144500  0.44155500  0.28053100  1
  O  O15  1  0.89832900  0.05786200  0.28106300  1
  O  O16  1  0.99985600  0.25068400  0.71851100  1
  O  O17  1  0.49985600  0.74931600  0.28148900  1
  O  O18  1  0.50097300  0.24950100  0.77124200  1
  O  O19  1  0.00097300  0.75049900  0.22875800  1
  O  O20  1  0.45108100  0.99543000  0.45594200  1
  O  O21  1  0.55018000  0.50349600  0.45557900  1
  O  O22  1  0.05018000  0.49650400  0.54442100  1
  O  O23  1  0.95108100  0.00457000  0.54405800  1
  O  O24  1  0.22286700  0.96005500  0.52896700  1
  O  O25  1  0.77555300  0.53591500  0.52978500  1
  O  O26  1  0.27555300  0.46408500  0.47021500  1
  O  O27  1  0.72286700  0.03994500  0.47103300  1
  O  O28  1  0.36587200  0.73716300  0.53620700  1
  O  O29  1  0.63383600  0.76263600  0.53634800  1
  O  O30  1  0.13383600  0.23736400  0.46365200  1
  O  O31  1  0.86587200  0.26283700  0.46379300  1
  O  O32  1  0.13537400  0.75157800  0.97389400  1
  O  O33  1  0.86468700  0.74821700  0.97426400  1
  O  O34  1  0.36468700  0.25178300  0.02573600  1
  O  O35  1  0.63537400  0.24842200  0.02610600  1
  O  O36  1  0.02163900  0.99934000  0.03860200  1
  O  O37  1  0.97841900  0.50054400  0.03913000  1
  O  O38  1  0.47841900  0.49945600  0.96087000  1
  O  O39  1  0.52163900  0.00066000  0.96139800  1
loop_
_geom_bond_atom_site_label_1
_geom_bond_atom_site_label_2
_geom_bond_distance
_geom_bond_site_symmetry_2
Na0 O14 2.373996 1_555
Na0 O15 2.381278 1_455
Na0 O37 2.420334 1_455
Na0 O36 2.424453 1_545
Na1 O13 2.373996 1_555
Na1 O12 2.381278 1_555
Na1 O38 2.420334 1_555
Na1 O39 2.424453 1_565
Na2 O23 2.382856 1_465
Na2 O22 2.444183 1_555
Na2 O19 2.477483 1_555
Na2 O24 2.543264 1_555
Na3 O20 2.382856 1_545
Na3 O21 2.444183 1_555
Na3 O18 2.477483 1_555
Na3 O27 2.543264 1_555
Na4 O7 2.348855 1_556
Na4 O0 2.559956 1_645
Na4 O23 2.580670 1_555
Na4 O16 2.648267 1_555
Na4 O9 2.807208 1_555
Na4 O36 2.858697 1_646
Na4 O33 2.916900 1_545
Na5 O6 2.343044 1_556
Na5 O1 2.562848 1_455
Na5 O22 2.579246 1_555
Na5 O16 2.636292 1_455
Na5 O8 2.780174 1_555
Na5 O37 2.863624 1_456
Na5 O32 2.923069 1_555
Na6 O5 2.343044 1_554
Na6 O2 2.562848 1_555
Na6 O21 2.579246 1_555
Na6 O17 2.636292 1_555
Na6 O11 2.780174 1_555
Na6 O38 2.863624 1_554
Na6 O35 2.923069 1_555
Na7 O4 2.348855 1_554
Na7 O3 2.559956 1_565
Na7 O20 2.580670 1_555
Na7 O17 2.648267 1_555
Na7 O10 2.807208 1_555
Na7 O39 2.858697 1_564
Na7 O34 2.916900 1_565
O0 P0 1.555035 1_555
O0 Ti4 2.016100 1_565
O1 P1 1.553874 1_555
O1 Ti5 1.998252 1_555
O2 P2 1.553874 1_555
O2 Ti6 1.998252 1_555
O3 P3 1.555035 1_555
O3 Ti7 2.016100 1_545
O4 P0 1.540948 1_555
O4 Ti0 2.098501 1_565
O5 P1 1.541483 1_555
O5 Ti1 2.090284 1_555
O6 P2 1.541483 1_555
O6 Ti2 2.090284 1_555
O7 P3 1.540948 1_555
O7 Ti3 2.098501 1_545
O8 Ti4 1.844586 1_555
O8 Ti0 1.846281 1_555
O9 Ti1 1.851656 1_555
O9 Ti5 1.861518 1_555
O10 Ti2 1.851656 1_555
O10 Ti6 1.861518 1_555
O11 Ti7 1.844586 1_555
O11 Ti3 1.846281 1_555
O12 P4 1.556646 1_555
O12 Ti0 2.015034 1_565
O13 P5 1.556123 1_555
O13 Ti1 2.016044 1_555
O14 P6 1.556123 1_555
O14 Ti2 2.016044 1_555
O15 P7 1.556646 1_555
O15 Ti3 2.015034 1_545
O16 Ti4 1.857680 1_655
O16 Ti5 1.894402 1_555
O17 Ti7 1.857680 1_555
O17 Ti6 1.894402 1_555
O18 Ti0 1.864095 1_555
O18 Ti1 1.864161 1_555
O19 Ti3 1.864095 1_455
O19 Ti2 1.864161 1_555
O20 P4 1.555998 1_555
O20 Ti7 2.178640 1_555
O21 P5 1.560967 1_555
O21 Ti6 2.164759 1_555
O22 P6 1.560967 1_555
O22 Ti5 2.164759 1_455
O23 P7 1.555998 1_555
O23 Ti4 2.178640 1_655
O24 P4 1.544641 1_555
O24 Ti4 2.063943 1_565
O25 P5 1.539359 1_555
O25 Ti5 1.997116 1_555
O26 P6 1.539359 1_555
O26 Ti6 1.997116 1_555
O27 P7 1.544641 1_555
O27 Ti7 2.063943 1_545
O28 P4 1.553896 1_555
O28 Ti6 1.962557 1_555
O29 P5 1.548466 1_555
O29 Ti7 1.956184 1_555
O30 P6 1.548466 1_555
O30 Ti4 1.956184 1_555
O31 P7 1.553896 1_555
O31 Ti5 1.962557 1_555
O32 P0 1.553017 1_555
O32 Ti2 1.981709 1_556
O33 P1 1.551669 1_555
O33 Ti3 1.983077 1_556
O34 P2 1.551669 1_555
O34 Ti0 1.983077 1_554
O35 P3 1.553017 1_555
O35 Ti1 1.981709 1_554
O36 P0 1.558455 1_554
O36 Ti3 2.109923 1_455
O37 P1 1.557750 1_554
O37 Ti2 2.107153 1_655
O38 P2 1.557750 1_556
O38 Ti1 2.107153 1_555
O39 P3 1.558455 1_556
O39 Ti0 2.109923 1_555
