# generated using pymatgen
data_Mg30BWO32
_symmetry_space_group_name_H-M   'P 1'
_cell_length_a   8.56867200
_cell_length_b   8.56867200
_cell_length_c   8.56012900
_cell_angle_alpha   90.00000000
_cell_angle_beta   90.00000000
_cell_angle_gamma   90.00000000
_symmetry_Int_Tables_number   1
_chemical_formula_structural   Mg30BWO32
_chemical_formula_sum   'Mg30 B1 W1 O32'
_cell_volume   628.50298852
_cell_formula_units_Z   1
loop_
 _symmetry_equiv_pos_site_id
 _symmetry_equiv_pos_as_xyz
  1  'x, y, z'
loop_
 _atom_site_type_symbol
 _atom_site_label
 _atom_site_symmetry_multiplicity
 _atom_site_fract_x
 _atom_site_fract_y
 _atom_site_fract_z
 _atom_site_occupancy
  Mg  Mg0  1  0.50000000  0.00000000  0.00000000  1
  Mg  Mg1  1  0.00000000  0.50000000  0.00000000  1
  Mg  Mg2  1  0.00000000  0.00000000  0.50000000  1
  Mg  Mg3  1  0.50000000  0.00000000  0.50000000  1
  Mg  Mg4  1  0.00000000  0.50000000  0.50000000  1
  Mg  Mg5  1  0.50000000  0.50000000  0.50000000  1
  Mg  Mg6  1  0.25769000  0.25769000  0.00000000  1
  Mg  Mg7  1  0.74231000  0.25769000  0.00000000  1
  Mg  Mg8  1  0.25769000  0.74231000  0.00000000  1
  Mg  Mg9  1  0.74231000  0.74231000  0.00000000  1
  Mg  Mg10  1  0.25146400  0.25146400  0.50000000  1
  Mg  Mg11  1  0.74853600  0.25146400  0.50000000  1
  Mg  Mg12  1  0.25146400  0.74853600  0.50000000  1
  Mg  Mg13  1  0.74853600  0.74853600  0.50000000  1
  Mg  Mg14  1  0.25545000  0.00000000  0.25345600  1
  Mg  Mg15  1  0.74455000  0.00000000  0.25345600  1
  Mg  Mg16  1  0.25329500  0.50000000  0.24800300  1
  Mg  Mg17  1  0.74670500  0.50000000  0.24800300  1
  Mg  Mg18  1  0.25545000  0.00000000  0.74654400  1
  Mg  Mg19  1  0.74455000  0.00000000  0.74654400  1
  Mg  Mg20  1  0.25329500  0.50000000  0.75199700  1
  Mg  Mg21  1  0.74670500  0.50000000  0.75199700  1
  Mg  Mg22  1  0.00000000  0.25545000  0.25345600  1
  Mg  Mg23  1  0.50000000  0.25329500  0.24800300  1
  Mg  Mg24  1  0.00000000  0.74455000  0.25345600  1
  Mg  Mg25  1  0.50000000  0.74670500  0.24800300  1
  Mg  Mg26  1  0.00000000  0.25545000  0.74654400  1
  Mg  Mg27  1  0.50000000  0.25329500  0.75199700  1
  Mg  Mg28  1  0.00000000  0.74455000  0.74654400  1
  Mg  Mg29  1  0.50000000  0.74670500  0.75199700  1
  B  B0  1  0.50000000  0.50000000  0.00000000  1
  W  W0  1  0.00000000  0.00000000  0.00000000  1
  O  O0  1  0.00000000  0.00000000  0.25429800  1
  O  O1  1  0.50000000  0.00000000  0.25216900  1
  O  O2  1  0.00000000  0.50000000  0.25216900  1
  O  O3  1  0.50000000  0.50000000  0.26449400  1
  O  O4  1  0.00000000  0.00000000  0.74570200  1
  O  O5  1  0.50000000  0.00000000  0.74783100  1
  O  O6  1  0.00000000  0.50000000  0.74783100  1
  O  O7  1  0.50000000  0.50000000  0.73550600  1
  O  O8  1  0.24935900  0.24935900  0.24885400  1
  O  O9  1  0.75064100  0.24935900  0.24885400  1
  O  O10  1  0.24935900  0.75064100  0.24885400  1
  O  O11  1  0.75064100  0.75064100  0.24885400  1
  O  O12  1  0.24935900  0.24935900  0.75114600  1
  O  O13  1  0.75064100  0.24935900  0.75114600  1
  O  O14  1  0.24935900  0.75064100  0.75114600  1
  O  O15  1  0.75064100  0.75064100  0.75114600  1
  O  O16  1  0.25281200  0.00000000  0.00000000  1
  O  O17  1  0.74718800  0.00000000  0.00000000  1
  O  O18  1  0.23480300  0.50000000  0.00000000  1
  O  O19  1  0.76519700  0.50000000  0.00000000  1
  O  O20  1  0.24864800  0.00000000  0.50000000  1
  O  O21  1  0.75135200  0.00000000  0.50000000  1
  O  O22  1  0.24745100  0.50000000  0.50000000  1
  O  O23  1  0.75254900  0.50000000  0.50000000  1
  O  O24  1  0.00000000  0.25281200  0.00000000  1
  O  O25  1  0.50000000  0.23480300  0.00000000  1
  O  O26  1  0.00000000  0.74718800  0.00000000  1
  O  O27  1  0.50000000  0.76519700  0.00000000  1
  O  O28  1  0.00000000  0.24864800  0.50000000  1
  O  O29  1  0.50000000  0.24745100  0.50000000  1
  O  O30  1  0.00000000  0.75135200  0.50000000  1
  O  O31  1  0.50000000  0.75254900  0.50000000  1
loop_
_geom_bond_atom_site_label_1
_geom_bond_atom_site_label_2
_geom_bond_distance
_geom_bond_site_symmetry_2
Mg0 O25 2.011950 1_555
Mg0 O27 2.011950 1_545
Mg0 O17 2.118073 1_555
Mg0 O16 2.118073 1_555
Mg0 O1 2.158599 1_555
Mg0 O5 2.158599 1_554
Mg1 O18 2.011950 1_555
Mg1 O19 2.011950 1_455
Mg1 O26 2.118073 1_555
Mg1 O24 2.118073 1_555
Mg1 O2 2.158599 1_555
Mg1 O6 2.158599 1_554
Mg2 O4 2.103241 1_555
Mg2 O0 2.103241 1_555
Mg2 O28 2.130583 1_555
Mg2 O20 2.130583 1_555
Mg2 O30 2.130583 1_545
Mg2 O21 2.130583 1_455
Mg3 O29 2.120326 1_555
Mg3 O31 2.120326 1_545
Mg3 O5 2.121465 1_555
Mg3 O1 2.121465 1_555
Mg3 O21 2.153753 1_555
Mg3 O20 2.153753 1_555
Mg4 O22 2.120326 1_555
Mg4 O23 2.120326 1_455
Mg4 O6 2.121465 1_555
Mg4 O2 2.121465 1_555
Mg4 O30 2.153753 1_555
Mg4 O28 2.153753 1_555
Mg5 O7 2.015962 1_555
Mg5 O3 2.015962 1_555
Mg5 O23 2.164010 1_555
Mg5 O31 2.164010 1_555
Mg5 O22 2.164010 1_555
Mg5 O29 2.164010 1_555
Mg6 O25 2.085516 1_555
Mg6 O18 2.085516 1_555
Mg6 O8 2.132613 1_555
Mg6 O12 2.132613 1_554
Mg6 O24 2.208457 1_555
Mg6 O16 2.208457 1_555
Mg7 O19 2.085516 1_555
Mg7 O25 2.085516 1_555
Mg7 O9 2.132613 1_555
Mg7 O13 2.132613 1_554
Mg7 O24 2.208457 1_655
Mg7 O17 2.208457 1_555
Mg8 O27 2.085516 1_555
Mg8 O18 2.085516 1_555
Mg8 O10 2.132613 1_555
Mg8 O14 2.132613 1_554
Mg8 O16 2.208457 1_565
Mg8 O26 2.208457 1_555
Mg9 O27 2.085516 1_555
Mg9 O19 2.085516 1_555
Mg9 O11 2.132613 1_555
Mg9 O15 2.132613 1_554
Mg9 O17 2.208457 1_565
Mg9 O26 2.208457 1_655
Mg10 O22 2.129901 1_555
Mg10 O29 2.129901 1_555
Mg10 O12 2.149993 1_555
Mg10 O8 2.149993 1_555
Mg10 O20 2.154848 1_555
Mg10 O28 2.154848 1_555
Mg11 O29 2.129901 1_555
Mg11 O23 2.129901 1_555
Mg11 O9 2.149993 1_555
Mg11 O13 2.149993 1_555
Mg11 O21 2.154848 1_555
Mg11 O28 2.154848 1_655
Mg12 O22 2.129901 1_555
Mg12 O31 2.129901 1_555
Mg12 O10 2.149993 1_555
Mg12 O14 2.149993 1_555
Mg12 O30 2.154848 1_555
Mg12 O20 2.154848 1_565
Mg13 O31 2.129901 1_555
Mg13 O23 2.129901 1_555
Mg13 O11 2.149993 1_555
Mg13 O15 2.149993 1_555
Mg13 O21 2.154848 1_565
Mg13 O30 2.154848 1_655
Mg14 O1 2.095498 1_555
Mg14 O20 2.111253 1_555
Mg14 O8 2.137676 1_555
Mg14 O10 2.137676 1_545
Mg14 O16 2.169734 1_555
Mg14 O0 2.188879 1_555
Mg15 O1 2.095498 1_555
Mg15 O21 2.111253 1_555
Mg15 O9 2.137676 1_555
Mg15 O11 2.137676 1_545
Mg15 O17 2.169734 1_555
Mg15 O0 2.188879 1_655
Mg16 O3 2.118642 1_555
Mg16 O18 2.128843 1_555
Mg16 O10 2.147938 1_555
Mg16 O8 2.147938 1_555
Mg16 O22 2.157708 1_555
Mg16 O2 2.170695 1_555
Mg17 O3 2.118642 1_555
Mg17 O19 2.128843 1_555
Mg17 O11 2.147938 1_555
Mg17 O9 2.147938 1_555
Mg17 O23 2.157708 1_555
Mg17 O2 2.170695 1_655
Mg18 O5 2.095498 1_555
Mg18 O20 2.111253 1_555
Mg18 O14 2.137676 1_545
Mg18 O12 2.137676 1_555
Mg18 O16 2.169734 1_556
Mg18 O4 2.188879 1_555
Mg19 O5 2.095498 1_555
Mg19 O21 2.111253 1_555
Mg19 O13 2.137676 1_555
Mg19 O15 2.137676 1_545
Mg19 O17 2.169734 1_556
Mg19 O4 2.188879 1_655
Mg20 O7 2.118642 1_555
Mg20 O18 2.128843 1_556
Mg20 O12 2.147938 1_555
Mg20 O14 2.147938 1_555
Mg20 O22 2.157708 1_555
Mg20 O6 2.170695 1_555
Mg21 O7 2.118642 1_555
Mg21 O19 2.128843 1_556
Mg21 O15 2.147938 1_555
Mg21 O13 2.147938 1_555
Mg21 O23 2.157708 1_555
Mg21 O6 2.170695 1_655
Mg22 O2 2.095498 1_555
Mg22 O28 2.111253 1_555
Mg22 O8 2.137676 1_555
Mg22 O9 2.137676 1_455
Mg22 O24 2.169734 1_555
Mg22 O0 2.188879 1_555
Mg23 O3 2.118642 1_555
Mg23 O25 2.128843 1_555
Mg23 O8 2.147938 1_555
Mg23 O9 2.147938 1_555
Mg23 O29 2.157708 1_555
Mg23 O1 2.170695 1_555
Mg24 O2 2.095498 1_555
Mg24 O30 2.111253 1_555
Mg24 O10 2.137676 1_555
Mg24 O11 2.137676 1_455
Mg24 O26 2.169734 1_555
Mg24 O0 2.188879 1_565
Mg25 O3 2.118642 1_555
Mg25 O27 2.128843 1_555
Mg25 O10 2.147938 1_555
Mg25 O11 2.147938 1_555
Mg25 O31 2.157708 1_555
Mg25 O1 2.170695 1_565
Mg26 O6 2.095498 1_555
Mg26 O28 2.111253 1_555
Mg26 O13 2.137676 1_455
Mg26 O12 2.137676 1_555
Mg26 O24 2.169734 1_556
Mg26 O4 2.188879 1_555
Mg27 O7 2.118642 1_555
Mg27 O25 2.128843 1_556
Mg27 O13 2.147938 1_555
Mg27 O12 2.147938 1_555
Mg27 O29 2.157708 1_555
Mg27 O5 2.170695 1_555
Mg28 O6 2.095498 1_555
Mg28 O30 2.111253 1_555
Mg28 O15 2.137676 1_455
Mg28 O14 2.137676 1_555
Mg28 O26 2.169734 1_556
Mg28 O4 2.188879 1_565
Mg29 O7 2.118642 1_555
Mg29 O27 2.128843 1_556
Mg29 O15 2.147938 1_555
Mg29 O14 2.147938 1_555
Mg29 O31 2.157708 1_555
Mg29 O5 2.170695 1_565
B0 O3 2.264103 1_555
B0 O7 2.264103 1_554
B0 O19 2.272386 1_555
B0 O27 2.272386 1_555
B0 O25 2.272386 1_555
B0 O18 2.272386 1_555
O0 W0 2.176824 1_555
O4 W0 2.176824 1_556
O16 W0 2.166263 1_555
O17 W0 2.166263 1_655
O24 W0 2.166263 1_555
O26 W0 2.166263 1_565
