# generated using pymatgen
data_PrGa3Pt
_symmetry_space_group_name_H-M   'P 1'
_cell_length_a   6.14471044
_cell_length_b   6.14471044
_cell_length_c   6.14471044
_cell_angle_alpha   139.82601516
_cell_angle_beta   139.82601516
_cell_angle_gamma   58.11756520
_symmetry_Int_Tables_number   1
_chemical_formula_structural   PrGa3Pt
_chemical_formula_sum   'Pr1 Ga3 Pt1'
_cell_volume   95.68732132
_cell_formula_units_Z   1
loop_
 _symmetry_equiv_pos_site_id
 _symmetry_equiv_pos_as_xyz
  1  'x, y, z'
loop_
 _atom_site_type_symbol
 _atom_site_label
 _atom_site_symmetry_multiplicity
 _atom_site_fract_x
 _atom_site_fract_y
 _atom_site_fract_z
 _atom_site_occupancy
  Pr  Pr0  1  0.00000000  0.00000000  -0.00000000  1
  Ga  Ga0  1  0.61608034  0.61608034  -0.00000000  1
  Ga  Ga1  1  0.38391966  0.38391966  0.00000000  1
  Ga  Ga2  1  0.75000000  0.25000000  0.50000000  1
  Pt  Pt0  1  0.25000000  0.75000000  0.50000000  1
loop_
_geom_bond_atom_site_label_1
_geom_bond_atom_site_label_2
_geom_bond_distance
_geom_bond_site_symmetry_2
Pr0 Pt0 3.415584 1_444
Pr0 Pt0 3.415584 1_544
Pr0 Pt0 3.415584 1_555
Pr0 Pt0 3.415584 1_545
Ga0 Ga1 2.493975 1_555
Ga0 Pt0 2.554084 1_554
Ga0 Ga2 2.554084 1_554
Ga0 Ga2 2.554084 1_565
Ga0 Pt0 2.554084 1_655
Ga0 Pr0 3.234560 1_666
Ga0 Pr0 3.234560 1_554
Ga0 Pr0 3.234560 1_565
Ga0 Pr0 3.234560 1_655
Ga1 Ga2 2.554084 1_555
Ga1 Pt0 2.554084 1_555
Ga1 Ga2 2.554084 1_454
Ga1 Pt0 2.554084 1_544
Ga1 Pr0 3.234560 1_666
Ga1 Pr0 3.234560 1_554
Ga1 Pr0 3.234560 1_565
Ga1 Pr0 3.234560 1_655
Ga2 Pr0 3.415584 1_555
Ga2 Pr0 3.415584 1_656
Ga2 Pr0 3.415584 1_655
Ga2 Pr0 3.415584 1_666
