# generated using pymatgen
data_Tb9Mg5Ni4
_symmetry_space_group_name_H-M   'P 1'
_cell_length_a   21.84957640
_cell_length_b   21.85080130
_cell_length_c   7.26225398
_cell_angle_alpha   90.00000000
_cell_angle_beta   90.00000000
_cell_angle_gamma   89.99952108
_symmetry_Int_Tables_number   1
_chemical_formula_structural   Tb9Mg5Ni4
_chemical_formula_sum   'Tb72 Mg40 Ni32'
_cell_volume   3467.22338177
_cell_formula_units_Z   8
loop_
 _symmetry_equiv_pos_site_id
 _symmetry_equiv_pos_as_xyz
  1  'x, y, z'
loop_
 _atom_site_type_symbol
 _atom_site_label
 _atom_site_symmetry_multiplicity
 _atom_site_fract_x
 _atom_site_fract_y
 _atom_site_fract_z
 _atom_site_occupancy
  Tb  Tb0_0  1  0.16038963  0.16038457  0.25000000  1
  Tb  Tb0_1  1  0.16038963  0.16038457  0.75000000  1
  Tb  Tb0_2  1  0.16038963  0.66038457  0.25000000  1
  Tb  Tb0_3  1  0.16038963  0.66038457  0.75000000  1
  Tb  Tb0_4  1  0.66038963  0.16038457  0.25000000  1
  Tb  Tb0_5  1  0.66038963  0.16038457  0.75000000  1
  Tb  Tb0_6  1  0.66038963  0.66038457  0.25000000  1
  Tb  Tb0_7  1  0.66038963  0.66038457  0.75000000  1
  Tb  Tb1_0  1  0.33961037  0.33961543  0.25000000  1
  Tb  Tb1_1  1  0.33961037  0.33961543  0.75000000  1
  Tb  Tb1_2  1  0.33961037  0.83961543  0.25000000  1
  Tb  Tb1_3  1  0.33961037  0.83961543  0.75000000  1
  Tb  Tb1_4  1  0.83961037  0.33961543  0.25000000  1
  Tb  Tb1_5  1  0.83961037  0.33961543  0.75000000  1
  Tb  Tb1_6  1  0.83961037  0.83961543  0.25000000  1
  Tb  Tb1_7  1  0.83961037  0.83961543  0.75000000  1
  Tb  Tb2_0  1  0.16038716  0.33961776  0.25000000  1
  Tb  Tb2_1  1  0.16038716  0.33961776  0.75000000  1
  Tb  Tb2_2  1  0.16038716  0.83961776  0.25000000  1
  Tb  Tb2_3  1  0.16038716  0.83961776  0.75000000  1
  Tb  Tb2_4  1  0.66038716  0.33961776  0.25000000  1
  Tb  Tb2_5  1  0.66038716  0.33961776  0.75000000  1
  Tb  Tb2_6  1  0.66038716  0.83961776  0.25000000  1
  Tb  Tb2_7  1  0.66038716  0.83961776  0.75000000  1
  Tb  Tb3_0  1  0.33961284  0.16038224  0.25000000  1
  Tb  Tb3_1  1  0.33961284  0.16038224  0.75000000  1
  Tb  Tb3_2  1  0.33961284  0.66038224  0.25000000  1
  Tb  Tb3_3  1  0.33961284  0.66038224  0.75000000  1
  Tb  Tb3_4  1  0.83961284  0.16038224  0.25000000  1
  Tb  Tb3_5  1  0.83961284  0.16038224  0.75000000  1
  Tb  Tb3_6  1  0.83961285  0.66038224  0.25000000  1
  Tb  Tb3_7  1  0.83961285  0.66038224  0.75000000  1
  Tb  Tb4_0  1  0.99999985  0.13785904  0.25000000  1
  Tb  Tb4_1  1  0.99999985  0.13785904  0.75000000  1
  Tb  Tb4_2  1  0.99999985  0.63785904  0.25000000  1
  Tb  Tb4_3  1  0.99999985  0.63785904  0.75000000  1
  Tb  Tb4_4  1  0.49999985  0.13785904  0.25000000  1
  Tb  Tb4_5  1  0.49999985  0.13785904  0.75000000  1
  Tb  Tb4_6  1  0.49999986  0.63785904  0.25000000  1
  Tb  Tb4_7  1  0.49999986  0.63785904  0.75000000  1
  Tb  Tb5_0  1  0.00000014  0.36214096  0.25000000  1
  Tb  Tb5_1  1  0.00000014  0.36214096  0.75000000  1
  Tb  Tb5_2  1  0.00000014  0.86214096  0.25000000  1
  Tb  Tb5_3  1  0.00000014  0.86214096  0.75000000  1
  Tb  Tb5_4  1  0.50000015  0.36214096  0.25000000  1
  Tb  Tb5_5  1  0.50000015  0.36214096  0.75000000  1
  Tb  Tb5_6  1  0.50000015  0.86214096  0.25000000  1
  Tb  Tb5_7  1  0.50000015  0.86214096  0.75000000  1
  Tb  Tb6_0  1  0.13786528  0.99999995  0.25000000  1
  Tb  Tb6_1  1  0.13786528  0.99999995  0.75000000  1
  Tb  Tb6_2  1  0.13786528  0.49999995  0.25000000  1
  Tb  Tb6_3  1  0.13786528  0.49999995  0.75000000  1
  Tb  Tb6_4  1  0.63786528  0.99999995  0.25000000  1
  Tb  Tb6_5  1  0.63786528  0.99999995  0.75000000  1
  Tb  Tb6_6  1  0.63786528  0.49999995  0.25000000  1
  Tb  Tb6_7  1  0.63786528  0.49999995  0.75000000  1
  Tb  Tb7_0  1  0.36213472  0.00000005  0.25000000  1
  Tb  Tb7_1  1  0.36213472  0.00000005  0.75000000  1
  Tb  Tb7_2  1  0.36213472  0.50000005  0.25000000  1
  Tb  Tb7_3  1  0.36213472  0.50000005  0.75000000  1
  Tb  Tb7_4  1  0.86213472  0.00000005  0.25000000  1
  Tb  Tb7_5  1  0.86213472  0.00000005  0.75000000  1
  Tb  Tb7_6  1  0.86213472  0.50000005  0.25000000  1
  Tb  Tb7_7  1  0.86213472  0.50000005  0.75000000  1
  Tb  Tb8_0  1  0.00000000  0.00000000  0.00000000  1
  Tb  Tb8_1  1  0.00000000  0.00000000  0.50000000  1
  Tb  Tb8_2  1  0.00000000  0.50000000  0.00000000  1
  Tb  Tb8_3  1  0.00000000  0.50000000  0.50000000  1
  Tb  Tb8_4  1  0.50000000  0.00000000  0.00000000  1
  Tb  Tb8_5  1  0.50000000  0.00000000  0.50000000  1
  Tb  Tb8_6  1  0.50000000  0.50000000  0.00000000  1
  Tb  Tb8_7  1  0.50000000  0.50000000  0.50000000  1
  Mg  Mg0_0  1  0.24999993  0.07038798  0.00000000  1
  Mg  Mg0_1  1  0.24999993  0.07038798  0.50000000  1
  Mg  Mg0_2  1  0.24999993  0.57038798  0.00000000  1
  Mg  Mg0_3  1  0.24999993  0.57038798  0.50000000  1
  Mg  Mg0_4  1  0.74999993  0.07038798  0.00000000  1
  Mg  Mg0_5  1  0.74999993  0.07038798  0.50000000  1
  Mg  Mg0_6  1  0.74999993  0.57038798  0.00000000  1
  Mg  Mg0_7  1  0.74999993  0.57038798  0.50000000  1
  Mg  Mg1_0  1  0.25000007  0.42961203  0.00000000  1
  Mg  Mg1_1  1  0.25000007  0.42961203  0.50000000  1
  Mg  Mg1_2  1  0.25000007  0.92961203  0.00000000  1
  Mg  Mg1_3  1  0.25000007  0.92961203  0.50000000  1
  Mg  Mg1_4  1  0.75000007  0.42961203  0.00000000  1
  Mg  Mg1_5  1  0.75000007  0.42961203  0.50000000  1
  Mg  Mg1_6  1  0.75000007  0.92961203  0.00000000  1
  Mg  Mg1_7  1  0.75000007  0.92961203  0.50000000  1
  Mg  Mg2_0  1  0.07039345  0.24999997  0.00000000  1
  Mg  Mg2_1  1  0.07039345  0.24999997  0.50000000  1
  Mg  Mg2_2  1  0.07039345  0.74999996  0.00000000  1
  Mg  Mg2_3  1  0.07039345  0.74999996  0.50000000  1
  Mg  Mg2_4  1  0.57039344  0.24999997  0.00000000  1
  Mg  Mg2_5  1  0.57039344  0.24999997  0.50000000  1
  Mg  Mg2_6  1  0.57039344  0.74999996  0.00000000  1
  Mg  Mg2_7  1  0.57039344  0.74999996  0.50000000  1
  Mg  Mg3_0  1  0.42960656  0.25000004  0.00000000  1
  Mg  Mg3_1  1  0.42960656  0.25000004  0.50000000  1
  Mg  Mg3_2  1  0.42960656  0.75000004  0.00000000  1
  Mg  Mg3_3  1  0.42960656  0.75000004  0.50000000  1
  Mg  Mg3_4  1  0.92960656  0.25000004  0.00000000  1
  Mg  Mg3_5  1  0.92960656  0.25000004  0.50000000  1
  Mg  Mg3_6  1  0.92960655  0.75000004  0.00000000  1
  Mg  Mg3_7  1  0.92960655  0.75000004  0.50000000  1
  Mg  Mg4_0  1  0.25000000  0.25000000  0.00000000  1
  Mg  Mg4_1  1  0.25000000  0.25000000  0.50000000  1
  Mg  Mg4_2  1  0.25000000  0.75000000  0.00000000  1
  Mg  Mg4_3  1  0.25000000  0.75000000  0.50000000  1
  Mg  Mg4_4  1  0.75000000  0.25000000  0.00000000  1
  Mg  Mg4_5  1  0.75000000  0.25000000  0.50000000  1
  Mg  Mg4_6  1  0.75000000  0.75000000  0.00000000  1
  Mg  Mg4_7  1  0.75000000  0.75000000  0.50000000  1
  Ni  Ni0_0  1  0.09529992  0.09529482  0.00000000  1
  Ni  Ni0_1  1  0.09529992  0.09529482  0.50000000  1
  Ni  Ni0_2  1  0.09529992  0.59529482  0.00000000  1
  Ni  Ni0_3  1  0.09529992  0.59529482  0.50000000  1
  Ni  Ni0_4  1  0.59529993  0.09529482  0.00000000  1
  Ni  Ni0_5  1  0.59529993  0.09529482  0.50000000  1
  Ni  Ni0_6  1  0.59529993  0.59529482  0.00000000  1
  Ni  Ni0_7  1  0.59529993  0.59529482  0.50000000  1
  Ni  Ni1_0  1  0.40470008  0.40470519  0.00000000  1
  Ni  Ni1_1  1  0.40470008  0.40470519  0.50000000  1
  Ni  Ni1_2  1  0.40470008  0.90470519  0.00000000  1
  Ni  Ni1_3  1  0.40470008  0.90470519  0.50000000  1
  Ni  Ni1_4  1  0.90470008  0.40470519  0.00000000  1
  Ni  Ni1_5  1  0.90470008  0.40470519  0.50000000  1
  Ni  Ni1_6  1  0.90470008  0.90470519  0.00000000  1
  Ni  Ni1_7  1  0.90470008  0.90470519  0.50000000  1
  Ni  Ni2_0  1  0.09529781  0.40470688  0.00000000  1
  Ni  Ni2_1  1  0.09529781  0.40470688  0.50000000  1
  Ni  Ni2_2  1  0.09529781  0.90470688  0.00000000  1
  Ni  Ni2_3  1  0.09529781  0.90470688  0.50000000  1
  Ni  Ni2_4  1  0.59529781  0.40470688  0.00000000  1
  Ni  Ni2_5  1  0.59529781  0.40470688  0.50000000  1
  Ni  Ni2_6  1  0.59529781  0.90470688  0.00000000  1
  Ni  Ni2_7  1  0.59529781  0.90470688  0.50000000  1
  Ni  Ni3_0  1  0.40470219  0.09529313  0.00000000  1
  Ni  Ni3_1  1  0.40470219  0.09529313  0.50000000  1
  Ni  Ni3_2  1  0.40470219  0.59529313  0.00000000  1
  Ni  Ni3_3  1  0.40470219  0.59529313  0.50000000  1
  Ni  Ni3_4  1  0.90470219  0.09529313  0.00000000  1
  Ni  Ni3_5  1  0.90470219  0.09529313  0.50000000  1
  Ni  Ni3_6  1  0.90470219  0.59529313  0.00000000  1
  Ni  Ni3_7  1  0.90470219  0.59529313  0.50000000  1
loop_
_geom_bond_atom_site_label_1
_geom_bond_atom_site_label_2
_geom_bond_distance
_geom_bond_site_symmetry_2
Tb4_0 Tb8_0 3.517159 1_655
Tb4_0 Tb8_1 3.517159 1_655
Tb4_1 Tb8_0 3.517159 1_656
Tb4_1 Tb8_1 3.517159 1_655
Tb4_2 Tb8_2 3.517159 1_655
Tb4_2 Tb8_3 3.517159 1_655
Tb4_3 Tb8_2 3.517159 1_656
Tb4_3 Tb8_3 3.517159 1_655
Tb4_4 Tb8_4 3.517159 1_555
Tb4_4 Tb8_5 3.517159 1_555
Tb4_5 Tb8_4 3.517159 1_556
Tb4_5 Tb8_5 3.517159 1_555
Tb4_6 Tb8_7 3.517159 1_555
Tb4_6 Tb8_6 3.517159 1_555
Tb4_7 Tb8_6 3.517159 1_556
Tb4_7 Tb8_7 3.517159 1_555
Tb5_0 Tb8_2 3.517159 1_555
Tb5_0 Tb8_3 3.517159 1_555
Tb5_1 Tb8_2 3.517159 1_556
Tb5_1 Tb8_3 3.517159 1_555
Tb5_2 Tb8_0 3.517159 1_565
Tb5_2 Tb8_1 3.517159 1_565
Tb5_3 Tb8_0 3.517159 1_566
Tb5_3 Tb8_1 3.517159 1_565
Tb5_4 Tb8_7 3.517159 1_555
Tb5_4 Tb8_6 3.517159 1_555
Tb5_5 Tb8_6 3.517159 1_556
Tb5_5 Tb8_7 3.517159 1_555
Tb5_6 Tb8_5 3.517159 1_565
Tb5_6 Tb8_4 3.517159 1_565
Tb5_7 Tb8_4 3.517159 1_566
Tb5_7 Tb8_5 3.517159 1_565
Tb6_0 Tb8_1 3.517131 1_565
Tb6_0 Tb8_0 3.517131 1_565
Tb6_1 Tb8_0 3.517131 1_566
Tb6_1 Tb8_1 3.517131 1_565
Tb6_2 Tb8_2 3.517131 1_555
Tb6_2 Tb8_3 3.517131 1_555
Tb6_3 Tb8_2 3.517131 1_556
Tb6_3 Tb8_3 3.517131 1_555
Tb6_4 Tb8_4 3.517131 1_565
Tb6_4 Tb8_5 3.517131 1_565
Tb6_5 Tb8_4 3.517131 1_566
Tb6_5 Tb8_5 3.517131 1_565
Tb6_6 Tb8_6 3.517131 1_555
Tb6_6 Tb8_7 3.517131 1_555
Tb6_7 Tb8_6 3.517131 1_556
Tb6_7 Tb8_7 3.517131 1_555
Tb7_0 Tb8_5 3.517131 1_555
Tb7_0 Tb8_4 3.517131 1_555
Tb7_1 Tb8_4 3.517131 1_556
Tb7_1 Tb8_5 3.517131 1_555
Tb7_2 Tb8_6 3.517131 1_555
Tb7_2 Tb8_7 3.517131 1_555
Tb7_3 Tb8_6 3.517131 1_556
Tb7_3 Tb8_7 3.517131 1_555
Tb7_4 Tb8_1 3.517131 1_655
Tb7_4 Tb8_0 3.517131 1_655
Tb7_5 Tb8_0 3.517131 1_656
Tb7_5 Tb8_1 3.517131 1_655
Tb7_6 Tb8_2 3.517131 1_655
Tb7_6 Tb8_3 3.517131 1_655
Tb7_7 Tb8_2 3.517131 1_656
Tb7_7 Tb8_3 3.517131 1_655
Tb8_0 Tb8_1 3.631127 1_554
Tb8_0 Tb8_1 3.631127 1_555
Tb8_2 Tb8_3 3.631127 1_555
Tb8_2 Tb8_3 3.631127 1_554
Tb8_4 Tb8_5 3.631127 1_555
Tb8_4 Tb8_5 3.631127 1_554
Tb8_6 Tb8_7 3.631127 1_555
Tb8_6 Tb8_7 3.631127 1_554
Mg0_0 Mg1_2 3.076067 1_545
Mg0_0 Tb0_1 3.316154 1_554
Mg0_0 Tb0_0 3.316154 1_555
Mg0_0 Tb3_0 3.316177 1_555
Mg0_0 Tb3_1 3.316177 1_554
Mg0_0 Tb7_1 3.415367 1_554
Mg0_0 Tb7_0 3.415367 1_555
Mg0_0 Tb6_0 3.415384 1_545
Mg0_0 Tb6_1 3.415384 1_544
Mg0_1 Mg1_3 3.076067 1_545
Mg0_1 Tb0_0 3.316154 1_555
Mg0_1 Tb0_1 3.316154 1_555
Mg0_1 Tb3_0 3.316177 1_555
Mg0_1 Tb3_1 3.316177 1_555
Mg0_1 Tb7_0 3.415367 1_555
Mg0_1 Tb7_1 3.415367 1_555
Mg0_1 Tb6_0 3.415384 1_545
Mg0_1 Tb6_1 3.415384 1_545
Mg0_2 Mg1_0 3.076067 1_555
Mg0_2 Tb0_3 3.316154 1_554
Mg0_2 Tb0_2 3.316154 1_555
Mg0_2 Tb3_2 3.316177 1_555
Mg0_2 Tb3_3 3.316177 1_554
Mg0_2 Tb7_3 3.415367 1_554
Mg0_2 Tb7_2 3.415367 1_555
Mg0_2 Tb6_3 3.415384 1_554
Mg0_2 Tb6_2 3.415384 1_555
Mg0_3 Mg1_1 3.076067 1_555
Mg0_3 Tb0_2 3.316154 1_555
Mg0_3 Tb0_3 3.316154 1_555
Mg0_3 Tb3_2 3.316177 1_555
Mg0_3 Tb3_3 3.316177 1_555
Mg0_3 Tb7_2 3.415367 1_555
Mg0_3 Tb7_3 3.415367 1_555
Mg0_3 Tb6_2 3.415384 1_555
Mg0_3 Tb6_3 3.415384 1_555
Mg0_4 Mg1_6 3.076067 1_545
Mg0_4 Tb0_4 3.316154 1_555
Mg0_4 Tb0_5 3.316154 1_554
Mg0_4 Tb3_5 3.316177 1_554
Mg0_4 Tb3_4 3.316177 1_555
Mg0_4 Tb7_5 3.415367 1_554
Mg0_4 Tb7_4 3.415367 1_555
Mg0_4 Tb6_4 3.415384 1_545
Mg0_4 Tb6_5 3.415384 1_544
Mg0_5 Mg1_7 3.076067 1_545
Mg0_5 Tb0_4 3.316154 1_555
Mg0_5 Tb0_5 3.316154 1_555
Mg0_5 Tb3_4 3.316177 1_555
Mg0_5 Tb3_5 3.316177 1_555
Mg0_5 Tb7_4 3.415367 1_555
Mg0_5 Tb7_5 3.415367 1_555
Mg0_5 Tb6_4 3.415384 1_545
Mg0_5 Tb6_5 3.415384 1_545
Mg0_6 Mg1_4 3.076067 1_555
Mg0_6 Tb0_7 3.316154 1_554
Mg0_6 Tb0_6 3.316154 1_555
Mg0_6 Tb3_7 3.316177 1_554
Mg0_6 Tb3_6 3.316177 1_555
Mg0_6 Tb7_7 3.415367 1_554
Mg0_6 Tb7_6 3.415367 1_555
Mg0_6 Tb6_7 3.415384 1_554
Mg0_6 Tb6_6 3.415384 1_555
Mg0_7 Mg1_5 3.076067 1_555
Mg0_7 Tb0_6 3.316154 1_555
Mg0_7 Tb0_7 3.316154 1_555
Mg0_7 Tb3_6 3.316177 1_555
Mg0_7 Tb3_7 3.316177 1_555
Mg0_7 Tb7_6 3.415367 1_555
Mg0_7 Tb7_7 3.415367 1_555
Mg0_7 Tb6_6 3.415384 1_555
Mg0_7 Tb6_7 3.415384 1_555
Mg1_0 Tb1_1 3.316154 1_554
Mg1_0 Tb1_0 3.316154 1_555
Mg1_0 Tb2_1 3.316177 1_554
Mg1_0 Tb2_0 3.316177 1_555
Mg1_0 Tb6_2 3.415367 1_555
Mg1_0 Tb6_3 3.415367 1_554
Mg1_0 Tb7_3 3.415384 1_554
Mg1_0 Tb7_2 3.415384 1_555
Mg1_1 Tb1_0 3.316154 1_555
Mg1_1 Tb1_1 3.316154 1_555
Mg1_1 Tb2_0 3.316177 1_555
Mg1_1 Tb2_1 3.316177 1_555
Mg1_1 Tb6_2 3.415367 1_555
Mg1_1 Tb6_3 3.415367 1_555
Mg1_1 Tb7_2 3.415384 1_555
Mg1_1 Tb7_3 3.415384 1_555
Mg1_2 Tb1_3 3.316154 1_554
Mg1_2 Tb1_2 3.316154 1_555
Mg1_2 Tb2_3 3.316177 1_554
Mg1_2 Tb2_2 3.316177 1_555
Mg1_2 Tb6_0 3.415367 1_555
Mg1_2 Tb6_1 3.415367 1_554
Mg1_2 Tb7_0 3.415384 1_565
Mg1_2 Tb7_1 3.415384 1_564
Mg1_3 Tb1_2 3.316154 1_555
Mg1_3 Tb1_3 3.316154 1_555
Mg1_3 Tb2_2 3.316177 1_555
Mg1_3 Tb2_3 3.316177 1_555
Mg1_3 Tb6_0 3.415367 1_555
Mg1_3 Tb6_1 3.415367 1_555
Mg1_3 Tb7_0 3.415384 1_565
Mg1_3 Tb7_1 3.415384 1_565
Mg1_4 Tb1_5 3.316154 1_554
Mg1_4 Tb1_4 3.316154 1_555
Mg1_4 Tb2_5 3.316177 1_554
Mg1_4 Tb2_4 3.316177 1_555
Mg1_4 Tb6_7 3.415367 1_554
Mg1_4 Tb6_6 3.415367 1_555
Mg1_4 Tb7_7 3.415384 1_554
Mg1_4 Tb7_6 3.415384 1_555
Mg1_5 Tb1_4 3.316154 1_555
Mg1_5 Tb1_5 3.316154 1_555
Mg1_5 Tb2_4 3.316177 1_555
Mg1_5 Tb2_5 3.316177 1_555
Mg1_5 Tb6_6 3.415367 1_555
Mg1_5 Tb6_7 3.415367 1_555
Mg1_5 Tb7_6 3.415384 1_555
Mg1_5 Tb7_7 3.415384 1_555
Mg1_6 Tb1_7 3.316154 1_554
Mg1_6 Tb1_6 3.316154 1_555
Mg1_6 Tb2_7 3.316177 1_554
Mg1_6 Tb2_6 3.316177 1_555
Mg1_6 Tb6_5 3.415367 1_554
Mg1_6 Tb6_4 3.415367 1_555
Mg1_6 Tb7_5 3.415384 1_564
Mg1_6 Tb7_4 3.415384 1_565
Mg1_7 Tb1_6 3.316154 1_555
Mg1_7 Tb1_7 3.316154 1_555
Mg1_7 Tb2_6 3.316177 1_555
Mg1_7 Tb2_7 3.316177 1_555
Mg1_7 Tb6_4 3.415367 1_555
Mg1_7 Tb6_5 3.415367 1_555
Mg1_7 Tb7_4 3.415384 1_565
Mg1_7 Tb7_5 3.415384 1_565
Mg2_0 Mg3_4 3.076134 1_455
Mg2_0 Tb0_1 3.316214 1_554
Mg2_0 Tb0_0 3.316214 1_555
Mg2_0 Tb2_1 3.316232 1_554
Mg2_0 Tb2_0 3.316232 1_555
Mg2_0 Tb5_1 3.415577 1_554
Mg2_0 Tb5_0 3.415577 1_555
Mg2_0 Tb4_1 3.415597 1_454
Mg2_0 Tb4_0 3.415597 1_455
Mg2_1 Mg3_5 3.076134 1_455
Mg2_1 Tb0_0 3.316214 1_555
Mg2_1 Tb0_1 3.316214 1_555
Mg2_1 Tb2_0 3.316232 1_555
Mg2_1 Tb2_1 3.316232 1_555
Mg2_1 Tb5_0 3.415577 1_555
Mg2_1 Tb5_1 3.415577 1_555
Mg2_1 Tb4_0 3.415597 1_455
Mg2_1 Tb4_1 3.415597 1_455
Mg2_2 Mg3_6 3.076134 1_455
Mg2_2 Tb0_2 3.316214 1_555
Mg2_2 Tb0_3 3.316214 1_554
Mg2_2 Tb2_2 3.316232 1_555
Mg2_2 Tb2_3 3.316232 1_554
Mg2_2 Tb5_3 3.415577 1_554
Mg2_2 Tb5_2 3.415577 1_555
Mg2_2 Tb4_3 3.415597 1_454
Mg2_2 Tb4_2 3.415597 1_455
Mg2_3 Mg3_7 3.076134 1_455
Mg2_3 Tb0_2 3.316214 1_555
Mg2_3 Tb0_3 3.316214 1_555
Mg2_3 Tb2_2 3.316232 1_555
Mg2_3 Tb2_3 3.316232 1_555
Mg2_3 Tb5_2 3.415577 1_555
Mg2_3 Tb5_3 3.415577 1_555
Mg2_3 Tb4_2 3.415597 1_455
Mg2_3 Tb4_3 3.415597 1_455
Mg2_4 Mg3_0 3.076134 1_555
Mg2_4 Tb0_4 3.316214 1_555
Mg2_4 Tb0_5 3.316214 1_554
Mg2_4 Tb2_5 3.316232 1_554
Mg2_4 Tb2_4 3.316232 1_555
Mg2_4 Tb5_5 3.415577 1_554
Mg2_4 Tb5_4 3.415577 1_555
Mg2_4 Tb4_4 3.415597 1_555
Mg2_4 Tb4_5 3.415597 1_554
Mg2_5 Mg3_1 3.076134 1_555
Mg2_5 Tb0_4 3.316214 1_555
Mg2_5 Tb0_5 3.316214 1_555
Mg2_5 Tb2_4 3.316232 1_555
Mg2_5 Tb2_5 3.316232 1_555
Mg2_5 Tb5_4 3.415577 1_555
Mg2_5 Tb5_5 3.415577 1_555
Mg2_5 Tb4_4 3.415597 1_555
Mg2_5 Tb4_5 3.415597 1_555
Mg2_6 Mg3_2 3.076134 1_555
Mg2_6 Tb0_7 3.316214 1_554
Mg2_6 Tb0_6 3.316214 1_555
Mg2_6 Tb2_7 3.316232 1_554
Mg2_6 Tb2_6 3.316232 1_555
Mg2_6 Tb5_7 3.415577 1_554
Mg2_6 Tb5_6 3.415577 1_555
Mg2_6 Tb4_6 3.415597 1_555
Mg2_6 Tb4_7 3.415597 1_554
Mg2_7 Mg3_3 3.076134 1_555
Mg2_7 Tb0_6 3.316214 1_555
Mg2_7 Tb0_7 3.316214 1_555
Mg2_7 Tb2_6 3.316232 1_555
Mg2_7 Tb2_7 3.316232 1_555
Mg2_7 Tb5_6 3.415577 1_555
Mg2_7 Tb5_7 3.415577 1_555
Mg2_7 Tb4_6 3.415597 1_555
Mg2_7 Tb4_7 3.415597 1_555
Mg3_0 Tb1_1 3.316214 1_554
Mg3_0 Tb1_0 3.316214 1_555
Mg3_0 Tb3_1 3.316232 1_554
Mg3_0 Tb3_0 3.316232 1_555
Mg3_0 Tb4_4 3.415577 1_555
Mg3_0 Tb4_5 3.415577 1_554
Mg3_0 Tb5_5 3.415597 1_554
Mg3_0 Tb5_4 3.415597 1_555
Mg3_1 Tb1_0 3.316214 1_555
Mg3_1 Tb1_1 3.316214 1_555
Mg3_1 Tb3_0 3.316232 1_555
Mg3_1 Tb3_1 3.316232 1_555
Mg3_1 Tb4_4 3.415577 1_555
Mg3_1 Tb4_5 3.415577 1_555
Mg3_1 Tb5_4 3.415597 1_555
Mg3_1 Tb5_5 3.415597 1_555
Mg3_2 Tb1_3 3.316214 1_554
Mg3_2 Tb1_2 3.316214 1_555
Mg3_2 Tb3_2 3.316232 1_555
Mg3_2 Tb3_3 3.316232 1_554
Mg3_2 Tb4_6 3.415577 1_555
Mg3_2 Tb4_7 3.415577 1_554
Mg3_2 Tb5_7 3.415597 1_554
Mg3_2 Tb5_6 3.415597 1_555
Mg3_3 Tb1_2 3.316214 1_555
Mg3_3 Tb1_3 3.316214 1_555
Mg3_3 Tb3_2 3.316232 1_555
Mg3_3 Tb3_3 3.316232 1_555
Mg3_3 Tb4_6 3.415577 1_555
Mg3_3 Tb4_7 3.415577 1_555
Mg3_3 Tb5_6 3.415597 1_555
Mg3_3 Tb5_7 3.415597 1_555
Mg3_4 Tb1_5 3.316214 1_554
Mg3_4 Tb1_4 3.316214 1_555
Mg3_4 Tb3_5 3.316232 1_554
Mg3_4 Tb3_4 3.316232 1_555
Mg3_4 Tb4_1 3.415577 1_554
Mg3_4 Tb4_0 3.415577 1_555
Mg3_4 Tb5_1 3.415597 1_654
Mg3_4 Tb5_0 3.415597 1_655
Mg3_5 Tb1_4 3.316214 1_555
Mg3_5 Tb1_5 3.316214 1_555
Mg3_5 Tb3_4 3.316232 1_555
Mg3_5 Tb3_5 3.316232 1_555
Mg3_5 Tb4_0 3.415577 1_555
Mg3_5 Tb4_1 3.415577 1_555
Mg3_5 Tb5_0 3.415597 1_655
Mg3_5 Tb5_1 3.415597 1_655
Mg3_6 Tb1_7 3.316214 1_554
Mg3_6 Tb1_6 3.316214 1_555
Mg3_6 Tb3_7 3.316232 1_554
Mg3_6 Tb3_6 3.316232 1_555
Mg3_6 Tb4_3 3.415577 1_554
Mg3_6 Tb4_2 3.415577 1_555
Mg3_6 Tb5_2 3.415597 1_655
Mg3_6 Tb5_3 3.415597 1_654
Mg3_7 Tb1_6 3.316214 1_555
Mg3_7 Tb1_7 3.316214 1_555
Mg3_7 Tb3_6 3.316232 1_555
Mg3_7 Tb3_7 3.316232 1_555
Mg3_7 Tb4_2 3.415577 1_555
Mg3_7 Tb4_3 3.415577 1_555
Mg3_7 Tb5_2 3.415597 1_655
Mg3_7 Tb5_3 3.415597 1_655
Mg4_0 Tb0_1 3.311242 1_554
Mg4_0 Tb0_0 3.311242 1_555
Mg4_0 Tb1_1 3.311242 1_554
Mg4_0 Tb1_0 3.311242 1_555
Mg4_0 Tb3_1 3.311285 1_554
Mg4_0 Tb2_1 3.311285 1_554
Mg4_0 Tb3_0 3.311285 1_555
Mg4_0 Tb2_0 3.311285 1_555
Mg4_1 Tb0_0 3.311242 1_555
Mg4_1 Tb1_0 3.311242 1_555
Mg4_1 Tb0_1 3.311242 1_555
Mg4_1 Tb1_1 3.311242 1_555
Mg4_1 Tb3_0 3.311285 1_555
Mg4_1 Tb2_0 3.311285 1_555
Mg4_1 Tb2_1 3.311285 1_555
Mg4_1 Tb3_1 3.311285 1_555
Mg4_2 Tb1_3 3.311242 1_554
Mg4_2 Tb1_2 3.311242 1_555
Mg4_2 Tb0_2 3.311242 1_555
Mg4_2 Tb0_3 3.311242 1_554
Mg4_2 Tb2_2 3.311285 1_555
Mg4_2 Tb2_3 3.311285 1_554
Mg4_2 Tb3_2 3.311285 1_555
Mg4_2 Tb3_3 3.311285 1_554
Mg4_3 Tb1_2 3.311242 1_555
Mg4_3 Tb0_2 3.311242 1_555
Mg4_3 Tb1_3 3.311242 1_555
Mg4_3 Tb0_3 3.311242 1_555
Mg4_3 Tb2_2 3.311285 1_555
Mg4_3 Tb3_2 3.311285 1_555
Mg4_3 Tb3_3 3.311285 1_555
Mg4_3 Tb2_3 3.311285 1_555
Mg4_4 Tb1_5 3.311242 1_554
Mg4_4 Tb1_4 3.311242 1_555
Mg4_4 Tb0_5 3.311242 1_554
Mg4_4 Tb0_4 3.311242 1_555
Mg4_4 Tb2_5 3.311285 1_554
Mg4_4 Tb2_4 3.311285 1_555
Mg4_4 Tb3_5 3.311285 1_554
Mg4_4 Tb3_4 3.311285 1_555
Mg4_5 Tb1_4 3.311242 1_555
Mg4_5 Tb1_5 3.311242 1_555
Mg4_5 Tb0_4 3.311242 1_555
Mg4_5 Tb0_5 3.311242 1_555
Mg4_5 Tb2_4 3.311285 1_555
Mg4_5 Tb2_5 3.311285 1_555
Mg4_5 Tb3_4 3.311285 1_555
Mg4_5 Tb3_5 3.311285 1_555
Mg4_6 Tb1_7 3.311242 1_554
Mg4_6 Tb1_6 3.311242 1_555
Mg4_6 Tb0_7 3.311242 1_554
Mg4_6 Tb0_6 3.311242 1_555
Mg4_6 Tb3_6 3.311285 1_555
Mg4_6 Tb3_7 3.311285 1_554
Mg4_6 Tb2_7 3.311285 1_554
Mg4_6 Tb2_6 3.311285 1_555
Mg4_7 Tb1_6 3.311242 1_555
Mg4_7 Tb1_7 3.311242 1_555
Mg4_7 Tb0_6 3.311242 1_555
Mg4_7 Tb0_7 3.311242 1_555
Mg4_7 Tb3_6 3.311285 1_555
Mg4_7 Tb3_7 3.311285 1_555
Mg4_7 Tb2_6 3.311285 1_555
Mg4_7 Tb2_7 3.311285 1_555
Ni0_0 Tb0_1 2.709565 1_554
Ni0_0 Tb0_0 2.709565 1_555
Ni0_0 Tb6_1 2.914970 1_544
Ni0_0 Tb6_0 2.914970 1_545
Ni0_0 Tb4_0 2.914976 1_455
Ni0_0 Tb4_1 2.914976 1_454
Ni0_0 Tb8_0 2.944780 1_555
Ni0_1 Tb0_0 2.709565 1_555
Ni0_1 Tb0_1 2.709565 1_555
Ni0_1 Tb6_0 2.914970 1_545
Ni0_1 Tb6_1 2.914970 1_545
Ni0_1 Tb4_0 2.914976 1_455
Ni0_1 Tb4_1 2.914976 1_455
Ni0_1 Tb8_1 2.944780 1_555
Ni0_2 Tb0_3 2.709565 1_554
Ni0_2 Tb0_2 2.709565 1_555
Ni0_2 Tb6_3 2.914970 1_554
Ni0_2 Tb6_2 2.914970 1_555
Ni0_2 Tb4_3 2.914976 1_454
Ni0_2 Tb4_2 2.914976 1_455
Ni0_2 Tb8_2 2.944780 1_555
Ni0_3 Tb0_2 2.709565 1_555
Ni0_3 Tb0_3 2.709565 1_555
Ni0_3 Tb6_2 2.914970 1_555
Ni0_3 Tb6_3 2.914970 1_555
Ni0_3 Tb4_2 2.914976 1_455
Ni0_3 Tb4_3 2.914976 1_455
Ni0_3 Tb8_3 2.944780 1_555
Ni0_4 Tb0_5 2.709565 1_554
Ni0_4 Tb0_4 2.709565 1_555
Ni0_4 Tb6_4 2.914970 1_545
Ni0_4 Tb6_5 2.914970 1_544
Ni0_4 Tb4_5 2.914976 1_554
Ni0_4 Tb4_4 2.914976 1_555
Ni0_4 Tb8_4 2.944780 1_555
Ni0_5 Tb0_4 2.709565 1_555
Ni0_5 Tb0_5 2.709565 1_555
Ni0_5 Tb6_4 2.914970 1_545
Ni0_5 Tb6_5 2.914970 1_545
Ni0_5 Tb4_4 2.914976 1_555
Ni0_5 Tb4_5 2.914976 1_555
Ni0_5 Tb8_5 2.944780 1_555
Ni0_6 Tb0_7 2.709565 1_554
Ni0_6 Tb0_6 2.709565 1_555
Ni0_6 Tb6_7 2.914970 1_554
Ni0_6 Tb6_6 2.914970 1_555
Ni0_6 Tb4_7 2.914976 1_554
Ni0_6 Tb4_6 2.914976 1_555
Ni0_6 Tb8_6 2.944780 1_555
Ni0_7 Tb0_6 2.709565 1_555
Ni0_7 Tb0_7 2.709565 1_555
Ni0_7 Tb6_6 2.914970 1_555
Ni0_7 Tb6_7 2.914970 1_555
Ni0_7 Tb4_6 2.914976 1_555
Ni0_7 Tb4_7 2.914976 1_555
Ni0_7 Tb8_7 2.944780 1_555
Ni1_0 Tb1_1 2.709565 1_554
Ni1_0 Tb1_0 2.709565 1_555
Ni1_0 Tb7_3 2.914970 1_554
Ni1_0 Tb7_2 2.914970 1_555
Ni1_0 Tb5_5 2.914976 1_554
Ni1_0 Tb5_4 2.914976 1_555
Ni1_0 Tb8_6 2.944780 1_555
Ni1_1 Tb1_0 2.709565 1_555
Ni1_1 Tb1_1 2.709565 1_555
Ni1_1 Tb7_2 2.914970 1_555
Ni1_1 Tb7_3 2.914970 1_555
Ni1_1 Tb5_4 2.914976 1_555
Ni1_1 Tb5_5 2.914976 1_555
Ni1_1 Tb8_7 2.944780 1_555
Ni1_2 Tb1_3 2.709565 1_554
Ni1_2 Tb1_2 2.709565 1_555
Ni1_2 Tb7_1 2.914970 1_564
Ni1_2 Tb7_0 2.914970 1_565
Ni1_2 Tb5_7 2.914976 1_554
Ni1_2 Tb5_6 2.914976 1_555
Ni1_2 Tb8_4 2.944780 1_565
Ni1_3 Tb1_2 2.709565 1_555
Ni1_3 Tb1_3 2.709565 1_555
Ni1_3 Tb7_0 2.914970 1_565
Ni1_3 Tb7_1 2.914970 1_565
Ni1_3 Tb5_6 2.914976 1_555
Ni1_3 Tb5_7 2.914976 1_555
Ni1_3 Tb8_5 2.944780 1_565
Ni1_4 Tb1_5 2.709565 1_554
Ni1_4 Tb1_4 2.709565 1_555
Ni1_4 Tb7_7 2.914970 1_554
Ni1_4 Tb7_6 2.914970 1_555
Ni1_4 Tb5_1 2.914976 1_654
Ni1_4 Tb5_0 2.914976 1_655
Ni1_4 Tb8_2 2.944780 1_655
Ni1_5 Tb1_4 2.709565 1_555
Ni1_5 Tb1_5 2.709565 1_555
Ni1_5 Tb7_6 2.914970 1_555
Ni1_5 Tb7_7 2.914970 1_555
Ni1_5 Tb5_0 2.914976 1_655
Ni1_5 Tb5_1 2.914976 1_655
Ni1_5 Tb8_3 2.944780 1_655
Ni1_6 Tb1_7 2.709565 1_554
Ni1_6 Tb1_6 2.709565 1_555
Ni1_6 Tb7_5 2.914970 1_564
Ni1_6 Tb7_4 2.914970 1_565
Ni1_6 Tb5_3 2.914976 1_654
Ni1_6 Tb5_2 2.914976 1_655
Ni1_6 Tb8_0 2.944780 1_665
Ni1_7 Tb1_6 2.709565 1_555
Ni1_7 Tb1_7 2.709565 1_555
Ni1_7 Tb7_4 2.914970 1_565
Ni1_7 Tb7_5 2.914970 1_565
Ni1_7 Tb5_2 2.914976 1_655
Ni1_7 Tb5_3 2.914976 1_655
Ni1_7 Tb8_1 2.944780 1_665
Ni2_0 Tb2_1 2.709541 1_554
Ni2_0 Tb2_0 2.709541 1_555
Ni2_0 Tb5_1 2.914962 1_554
Ni2_0 Tb5_0 2.914962 1_555
Ni2_0 Tb6_2 2.914968 1_555
Ni2_0 Tb6_3 2.914968 1_554
Ni2_0 Tb8_2 2.944697 1_555
Ni2_1 Tb2_0 2.709541 1_555
Ni2_1 Tb2_1 2.709541 1_555
Ni2_1 Tb5_0 2.914962 1_555
Ni2_1 Tb5_1 2.914962 1_555
Ni2_1 Tb6_2 2.914968 1_555
Ni2_1 Tb6_3 2.914968 1_555
Ni2_1 Tb8_3 2.944697 1_555
Ni2_2 Tb2_3 2.709541 1_554
Ni2_2 Tb2_2 2.709541 1_555
Ni2_2 Tb5_3 2.914962 1_554
Ni2_2 Tb5_2 2.914962 1_555
Ni2_2 Tb6_1 2.914968 1_554
Ni2_2 Tb6_0 2.914968 1_555
Ni2_2 Tb8_0 2.944697 1_565
Ni2_3 Tb2_2 2.709541 1_555
Ni2_3 Tb2_3 2.709541 1_555
Ni2_3 Tb5_2 2.914962 1_555
Ni2_3 Tb5_3 2.914962 1_555
Ni2_3 Tb6_0 2.914968 1_555
Ni2_3 Tb6_1 2.914968 1_555
Ni2_3 Tb8_1 2.944697 1_565
Ni2_4 Tb2_5 2.709541 1_554
Ni2_4 Tb2_4 2.709541 1_555
Ni2_4 Tb5_5 2.914962 1_554
Ni2_4 Tb5_4 2.914962 1_555
Ni2_4 Tb6_7 2.914968 1_554
Ni2_4 Tb6_6 2.914968 1_555
Ni2_4 Tb8_6 2.944697 1_555
Ni2_5 Tb2_4 2.709541 1_555
Ni2_5 Tb2_5 2.709541 1_555
Ni2_5 Tb5_4 2.914962 1_555
Ni2_5 Tb5_5 2.914962 1_555
Ni2_5 Tb6_6 2.914968 1_555
Ni2_5 Tb6_7 2.914968 1_555
Ni2_5 Tb8_7 2.944697 1_555
Ni2_6 Tb2_7 2.709541 1_554
Ni2_6 Tb2_6 2.709541 1_555
Ni2_6 Tb5_7 2.914962 1_554
Ni2_6 Tb5_6 2.914962 1_555
Ni2_6 Tb6_5 2.914968 1_554
Ni2_6 Tb6_4 2.914968 1_555
Ni2_6 Tb8_4 2.944697 1_565
Ni2_7 Tb2_6 2.709541 1_555
Ni2_7 Tb2_7 2.709541 1_555
Ni2_7 Tb5_6 2.914962 1_555
Ni2_7 Tb5_7 2.914962 1_555
Ni2_7 Tb6_4 2.914968 1_555
Ni2_7 Tb6_5 2.914968 1_555
Ni2_7 Tb8_5 2.944697 1_565
Ni3_0 Tb3_1 2.709541 1_554
Ni3_0 Tb3_0 2.709541 1_555
Ni3_0 Tb4_5 2.914962 1_554
Ni3_0 Tb4_4 2.914962 1_555
Ni3_0 Tb7_1 2.914968 1_554
Ni3_0 Tb7_0 2.914968 1_555
Ni3_0 Tb8_4 2.944697 1_555
Ni3_1 Tb3_0 2.709541 1_555
Ni3_1 Tb3_1 2.709541 1_555
Ni3_1 Tb4_4 2.914962 1_555
Ni3_1 Tb4_5 2.914962 1_555
Ni3_1 Tb7_0 2.914968 1_555
Ni3_1 Tb7_1 2.914968 1_555
Ni3_1 Tb8_5 2.944697 1_555
Ni3_2 Tb3_3 2.709541 1_554
Ni3_2 Tb3_2 2.709541 1_555
Ni3_2 Tb4_7 2.914962 1_554
Ni3_2 Tb4_6 2.914962 1_555
Ni3_2 Tb7_2 2.914968 1_555
Ni3_2 Tb7_3 2.914968 1_554
Ni3_2 Tb8_6 2.944697 1_555
Ni3_3 Tb3_2 2.709541 1_555
Ni3_3 Tb3_3 2.709541 1_555
Ni3_3 Tb4_6 2.914962 1_555
Ni3_3 Tb4_7 2.914962 1_555
Ni3_3 Tb7_2 2.914968 1_555
Ni3_3 Tb7_3 2.914968 1_555
Ni3_3 Tb8_7 2.944697 1_555
Ni3_4 Tb3_5 2.709541 1_554
Ni3_4 Tb3_4 2.709541 1_555
Ni3_4 Tb4_1 2.914962 1_554
Ni3_4 Tb4_0 2.914962 1_555
Ni3_4 Tb7_5 2.914968 1_554
Ni3_4 Tb7_4 2.914968 1_555
Ni3_4 Tb8_0 2.944697 1_655
Ni3_5 Tb3_4 2.709541 1_555
Ni3_5 Tb3_5 2.709541 1_555
Ni3_5 Tb4_0 2.914962 1_555
Ni3_5 Tb4_1 2.914962 1_555
Ni3_5 Tb7_4 2.914968 1_555
Ni3_5 Tb7_5 2.914968 1_555
Ni3_5 Tb8_1 2.944697 1_655
Ni3_6 Tb3_7 2.709541 1_554
Ni3_6 Tb3_6 2.709541 1_555
Ni3_6 Tb4_3 2.914962 1_554
Ni3_6 Tb4_2 2.914962 1_555
Ni3_6 Tb7_7 2.914968 1_554
Ni3_6 Tb7_6 2.914968 1_555
Ni3_6 Tb8_2 2.944697 1_655
Ni3_7 Tb3_6 2.709541 1_555
Ni3_7 Tb3_7 2.709541 1_555
Ni3_7 Tb4_2 2.914962 1_555
Ni3_7 Tb4_3 2.914962 1_555
Ni3_7 Tb7_6 2.914968 1_555
Ni3_7 Tb7_7 2.914968 1_555
Ni3_7 Tb8_3 2.944697 1_655
