# generated using pymatgen
data_Ca2NbCrO6
_symmetry_space_group_name_H-M   'P 1'
_cell_length_a   7.82048099
_cell_length_b   9.52954747
_cell_length_c   7.82091445
_cell_angle_alpha   113.63077871
_cell_angle_beta   91.18029836
_cell_angle_gamma   113.63032076
_symmetry_Int_Tables_number   1
_chemical_formula_structural   Ca2NbCrO6
_chemical_formula_sum   'Ca8 Nb4 Cr4 O24'
_cell_volume   477.66504802
_cell_formula_units_Z   4
loop_
 _symmetry_equiv_pos_site_id
 _symmetry_equiv_pos_as_xyz
  1  'x, y, z'
loop_
 _atom_site_type_symbol
 _atom_site_label
 _atom_site_symmetry_multiplicity
 _atom_site_fract_x
 _atom_site_fract_y
 _atom_site_fract_z
 _atom_site_occupancy
  Ca  Ca0  1  0.39240100  0.24842400  0.84634300  1
  Ca  Ca1  1  0.89240500  0.24842800  0.34630400  1
  Ca  Ca2  1  0.10751400  0.75154200  0.65363400  1
  Ca  Ca3  1  0.60756300  0.75155300  0.15365400  1
  Ca  Ca4  1  0.90364200  0.25155000  0.85758700  1
  Ca  Ca5  1  0.40363400  0.25153400  0.35752800  1
  Ca  Ca6  1  0.59634500  0.74842900  0.64240200  1
  Ca  Ca7  1  0.09629800  0.74842600  0.14239900  1
  Nb  Nb0  1  0.74996500  0.50001300  0.75000300  1
  Nb  Nb1  1  0.24993300  0.49993400  0.24999300  1
  Nb  Nb2  1  0.99995600  0.99989600  0.49990700  1
  Nb  Nb3  1  0.50000400  0.00001900  0.99999400  1
  Cr  Cr0  1  0.49994100  0.99996300  0.49998000  1
  Cr  Cr1  1  0.25015300  0.50005500  0.74990300  1
  Cr  Cr2  1  0.99999300  0.00007800  0.00017100  1
  Cr  Cr3  1  0.75001000  0.49998600  0.24989200  1
  O  O0  1  0.06688700  0.04348600  0.77246900  1
  O  O1  1  0.56693900  0.04349500  0.27249400  1
  O  O2  1  0.43302300  0.95647400  0.72751400  1
  O  O3  1  0.93301800  0.95648000  0.22761700  1
  O  O4  1  0.47747800  0.45646800  0.68303400  1
  O  O5  1  0.97761500  0.45647400  0.18302100  1
  O  O6  1  0.02255200  0.54349100  0.81695300  1
  O  O7  1  0.52242500  0.54346700  0.31689200  1
  O  O8  1  0.27191900  0.04652500  0.47812100  1
  O  O9  1  0.77181900  0.04652100  0.97808300  1
  O  O10  1  0.22822600  0.95354200  0.02194400  1
  O  O11  1  0.72814500  0.95356900  0.52196700  1
  O  O12  1  0.27194300  0.45354800  0.97811300  1
  O  O13  1  0.77194800  0.45354900  0.47824400  1
  O  O14  1  0.22810200  0.54650800  0.52194000  1
  O  O15  1  0.72809200  0.54651900  0.02179600  1
  O  O16  1  0.15571400  0.25049500  0.18120600  1
  O  O17  1  0.65565800  0.25038600  0.68114600  1
  O  O18  1  0.34429800  0.74957000  0.31872300  1
  O  O19  1  0.84445100  0.74954900  0.81872000  1
  O  O20  1  0.06885600  0.24962900  0.59443800  1
  O  O21  1  0.56882000  0.24958700  0.09447700  1
  O  O22  1  0.43109700  0.75031900  0.90564300  1
  O  O23  1  0.93121900  0.75052000  0.40575200  1
loop_
_geom_bond_atom_site_label_1
_geom_bond_atom_site_label_2
_geom_bond_distance
_geom_bond_site_symmetry_2
Ca0 O21 2.351574 1_556
Ca0 O12 2.381543 1_555
Ca0 O0 2.382770 1_555
Ca0 O17 2.450780 1_555
Ca0 O8 2.622206 1_555
Ca0 O4 2.648037 1_555
Ca0 O2 2.711617 1_545
Ca0 O15 2.755480 1_556
Ca1 O20 2.351513 1_655
Ca1 O13 2.381663 1_555
Ca1 O1 2.382535 1_555
Ca1 O16 2.450583 1_655
Ca1 O9 2.622246 1_554
Ca1 O5 2.647852 1_555
Ca1 O3 2.711635 1_545
Ca1 O14 2.755534 1_655
Ca2 O23 2.350179 1_455
Ca2 O14 2.381531 1_555
Ca2 O2 2.382720 1_555
Ca2 O19 2.448984 1_455
Ca2 O10 2.622975 1_556
Ca2 O6 2.648190 1_555
Ca2 O0 2.711582 1_565
Ca2 O13 2.754493 1_455
Ca3 O22 2.350623 1_554
Ca3 O15 2.381336 1_555
Ca3 O3 2.382325 1_555
Ca3 O18 2.450262 1_555
Ca3 O11 2.622973 1_555
Ca3 O7 2.647918 1_555
Ca3 O1 2.711549 1_565
Ca3 O12 2.754846 1_554
Ca4 O17 2.350672 1_555
Ca4 O9 2.381122 1_555
Ca4 O5 2.382283 1_556
Ca4 O20 2.450240 1_655
Ca4 O12 2.622739 1_655
Ca4 O0 2.647723 1_655
Ca4 O6 2.711568 1_655
Ca4 O11 2.754783 1_545
Ca5 O16 2.350406 1_555
Ca5 O8 2.381430 1_555
Ca5 O4 2.382834 1_555
Ca5 O21 2.449441 1_555
Ca5 O13 2.622908 1_555
Ca5 O1 2.647917 1_555
Ca5 O7 2.711566 1_555
Ca5 O10 2.754635 1_545
Ca6 O19 2.351135 1_555
Ca6 O11 2.381604 1_555
Ca6 O7 2.382871 1_555
Ca6 O22 2.451031 1_555
Ca6 O14 2.622247 1_555
Ca6 O2 2.648046 1_555
Ca6 O4 2.711760 1_555
Ca6 O9 2.755499 1_565
Ca7 O18 2.350360 1_555
Ca7 O10 2.381647 1_555
Ca7 O6 2.382575 1_554
Ca7 O23 2.450821 1_455
Ca7 O15 2.622043 1_455
Ca7 O3 2.647828 1_455
Ca7 O5 2.711733 1_455
Ca7 O8 2.755774 1_565
Nb0 O19 2.009979 1_555
Nb0 O17 2.010707 1_555
Nb0 O4 2.014565 1_555
Nb0 O6 2.015506 1_655
Nb0 O13 2.016079 1_555
Nb0 O15 2.016102 1_556
Nb1 O16 2.009238 1_555
Nb1 O18 2.010949 1_555
Nb1 O5 2.013548 1_455
Nb1 O7 2.014555 1_555
Nb1 O14 2.017094 1_555
Nb1 O12 2.017162 1_554
Nb2 O23 2.008821 1_555
Nb2 O20 2.011376 1_665
Nb2 O3 2.013537 1_555
Nb2 O0 2.015057 1_665
Nb2 O11 2.016703 1_555
Nb2 O8 2.016950 1_665
Nb3 O21 2.010099 1_556
Nb3 O22 2.011231 1_545
Nb3 O2 2.014634 1_545
Nb3 O1 2.014942 1_556
Nb3 O10 2.016044 1_546
Nb3 O9 2.016224 1_555
Cr0 O1 2.016888 1_565
Cr0 O2 2.016944 1_555
Cr0 O18 2.018312 1_555
Cr0 O17 2.018413 1_565
Cr0 O8 2.022037 1_565
Cr0 O11 2.022599 1_555
Cr1 O4 2.015615 1_555
Cr1 O22 2.017054 1_555
Cr1 O6 2.017331 1_555
Cr1 O20 2.018420 1_555
Cr1 O14 2.021289 1_555
Cr1 O12 2.023156 1_555
Cr2 O3 2.016836 1_545
Cr2 O0 2.017831 1_654
Cr2 O16 2.018158 1_655
Cr2 O19 2.019404 1_544
Cr2 O9 2.022777 1_554
Cr2 O10 2.023381 1_645
Cr3 O7 2.017328 1_555
Cr3 O5 2.017417 1_555
Cr3 O21 2.018025 1_555
Cr3 O23 2.019304 1_555
Cr3 O15 2.022598 1_555
Cr3 O13 2.024005 1_555
