# generated using pymatgen
data_Li9Mn2Co5O16
_symmetry_space_group_name_H-M   'P 1'
_cell_length_a   2.95048000
_cell_length_b   5.15135614
_cell_length_c   19.34101948
_cell_angle_alpha   94.12953383
_cell_angle_beta   91.54184122
_cell_angle_gamma   91.06035401
_symmetry_Int_Tables_number   1
_chemical_formula_structural   Li9Mn2Co5O16
_chemical_formula_sum   'Li9 Mn2 Co5 O16'
_cell_volume   293.03267663
_cell_formula_units_Z   1
loop_
 _symmetry_equiv_pos_site_id
 _symmetry_equiv_pos_as_xyz
  1  'x, y, z'
loop_
 _atom_site_type_symbol
 _atom_site_label
 _atom_site_symmetry_multiplicity
 _atom_site_fract_x
 _atom_site_fract_y
 _atom_site_fract_z
 _atom_site_occupancy
  Li  Li0  1  0.01076400  0.62695200  0.87670500  1
  Li  Li1  1  0.51266800  0.74589600  0.74512100  1
  Li  Li2  1  0.01950000  0.86602300  0.61688200  1
  Li  Li3  1  0.50274600  0.99188700  0.50326600  1
  Li  Li4  1  0.98428800  0.12977100  0.37561300  1
  Li  Li5  1  0.49489200  0.25151800  0.25265400  1
  Li  Li6  1  0.99982600  0.37502700  0.12694100  1
  Li  Li7  1  0.49941900  0.50019200  0.00270100  1
  Li  Li8  1  0.99083700  0.50687600  0.49956600  1
  Mn  Mn0  1  0.00640800  0.00480200  0.00118600  1
  Mn  Mn1  1  0.99584800  0.25546300  0.74963300  1
  Co  Co0  1  0.51191000  0.11590300  0.87618200  1
  Co  Co1  1  0.50119300  0.38760300  0.61456100  1
  Co  Co2  1  0.48808500  0.61815300  0.37991000  1
  Co  Co3  1  0.99441000  0.73885200  0.25162900  1
  Co  Co4  1  0.50238300  0.87809600  0.12712200  1
  O  O0  1  0.55421800  0.82465900  0.93446000  1
  O  O1  1  0.99354600  0.96584700  0.81315400  1
  O  O2  1  0.48039600  0.09513700  0.69696400  1
  O  O3  1  0.99181400  0.19167600  0.56713900  1
  O  O4  1  0.48937700  0.34899200  0.42887700  1
  O  O5  1  0.02564700  0.45366100  0.31433500  1
  O  O6  1  0.50565800  0.57811500  0.18957300  1
  O  O7  1  0.01453100  0.71236400  0.06303500  1
  O  O8  1  0.50989800  0.41189800  0.80899300  1
  O  O9  1  0.99701500  0.53368300  0.69153200  1
  O  O10  1  0.50038800  0.67507100  0.56811300  1
  O  O11  1  0.95229400  0.80495800  0.43040700  1
  O  O12  1  0.48730600  0.89938000  0.31187200  1
  O  O13  1  0.98421200  0.04173700  0.18592200  1
  O  O14  1  0.46652000  0.17821500  0.06112800  1
  O  O15  1  0.03200800  0.29159800  0.93482100  1
loop_
_geom_bond_atom_site_label_1
_geom_bond_atom_site_label_2
_geom_bond_distance
_geom_bond_site_symmetry_2
Li0 O0 2.016786 1_455
Li0 O15 2.128752 1_555
Li0 O0 2.129651 1_555
Li0 O8 2.180035 1_455
Li0 O1 2.206818 1_455
Li0 O8 2.250864 1_555
Li1 O9 2.067473 1_455
Li1 O9 2.070231 1_555
Li1 O2 2.087131 1_565
Li1 O1 2.157211 1_555
Li1 O8 2.189192 1_555
Li1 O1 2.306326 1_455
Li2 O10 1.964810 1_555
Li2 O10 1.983948 1_455
Li2 O3 1.994931 1_465
Li2 O2 2.281486 1_565
Li2 O9 2.318809 1_455
Li2 O2 2.502162 1_465
Li3 O3 2.081719 1_565
Li3 O10 2.128723 1_555
Li3 O11 2.150515 1_555
Li3 O3 2.198277 1_465
Li3 O11 2.274692 1_455
Li3 O4 2.415872 1_565
Li4 O11 2.046129 1_545
Li4 O4 2.060330 1_655
Li4 O4 2.107901 1_555
Li4 O5 2.118581 1_655
Li4 O12 2.169358 1_545
Li4 O12 2.254774 1_645
Li5 O5 2.094678 1_555
Li5 O6 2.148440 1_555
Li5 O5 2.149421 1_655
Li5 O13 2.176726 1_455
Li5 O13 2.207969 1_555
Li5 O12 2.214036 1_545
Li6 O6 2.109905 1_655
Li6 O14 2.122337 1_655
Li6 O13 2.129119 1_555
Li6 O6 2.157948 1_555
Li6 O14 2.184348 1_555
Li6 O7 2.204265 1_655
Li7 O14 2.075406 1_555
Li7 O15 2.103494 1_554
Li7 O7 2.127337 1_655
Li7 O7 2.137074 1_555
Li7 O0 2.209317 1_554
Li7 O15 2.306052 1_654
Li8 O4 2.099103 1_555
Li8 O10 2.108964 1_655
Li8 O11 2.110463 1_555
Li8 O10 2.141625 1_555
Li8 O3 2.156409 1_555
Li8 O4 2.164880 1_655
Mn0 O14 1.925171 1_555
Mn0 O7 1.990038 1_545
Mn0 O0 1.998932 1_444
Mn0 O15 2.027345 1_554
Mn0 O14 2.163882 1_455
Mn0 O0 2.265917 1_544
Mn1 O9 1.883842 1_555
Mn1 O2 1.940257 1_655
Mn1 O2 1.944659 1_555
Mn1 O8 1.998916 1_655
Mn1 O1 1.999819 1_545
Mn1 O8 2.005326 1_555
Co0 O0 1.944192 1_545
Co0 O15 2.023937 1_555
Co0 O1 2.025120 1_545
Co0 O1 2.035405 1_445
Co0 O15 2.041404 1_655
Co0 O8 2.073398 1_555
Co1 O10 1.786497 1_555
Co1 O3 1.963416 1_455
Co1 O3 1.986845 1_555
Co1 O9 2.145535 1_555
Co1 O9 2.234862 1_455
Co1 O2 2.271855 1_555
Co2 O4 1.734529 1_555
Co2 O11 1.870742 1_555
Co2 O5 1.974208 1_555
Co2 O12 2.026060 1_555
Co2 O11 2.093556 1_455
Co2 O5 2.201223 1_655
Co3 O12 1.970251 1_655
Co3 O5 1.973144 1_655
Co3 O6 1.981212 1_555
Co3 O12 2.069028 1_555
Co3 O13 2.082219 1_565
Co3 O6 2.098100 1_655
Co4 O13 1.937922 1_565
Co4 O7 2.010777 1_555
Co4 O6 2.028734 1_555
Co4 O14 2.076906 1_565
Co4 O13 2.084354 1_465
Co4 O7 2.131845 1_655
