# generated using pymatgen
data_YZn5
_symmetry_space_group_name_H-M   'P 1'
_cell_length_a   8.79780269
_cell_length_b   8.79780269
_cell_length_c   8.96759424
_cell_angle_alpha   90.00000000
_cell_angle_beta   90.00000000
_cell_angle_gamma   120.00000276
_symmetry_Int_Tables_number   1
_chemical_formula_structural   YZn5
_chemical_formula_sum   'Y6 Zn30'
_cell_volume   601.11145503
_cell_formula_units_Z   6
loop_
 _symmetry_equiv_pos_site_id
 _symmetry_equiv_pos_as_xyz
  1  'x, y, z'
loop_
 _atom_site_type_symbol
 _atom_site_label
 _atom_site_symmetry_multiplicity
 _atom_site_fract_x
 _atom_site_fract_y
 _atom_site_fract_z
 _atom_site_occupancy
  Y  Y0  1  0.18832310  0.81167690  0.25000000  1
  Y  Y1  1  0.18832310  0.37664721  0.25000000  1
  Y  Y2  1  0.62335279  0.81167690  0.25000000  1
  Y  Y3  1  0.81167690  0.18832310  0.75000000  1
  Y  Y4  1  0.81167690  0.62335279  0.75000000  1
  Y  Y5  1  0.37664721  0.18832310  0.75000000  1
  Zn  Zn0  1  -0.00000000  0.00000000  0.50000000  1
  Zn  Zn1  1  -0.00000000  0.00000000  0.00000000  1
  Zn  Zn2  1  0.33333300  0.66666700  0.48673589  1
  Zn  Zn3  1  0.66666700  0.33333300  0.51326411  1
  Zn  Zn4  1  0.66666700  0.33333300  0.98673589  1
  Zn  Zn5  1  0.33333300  0.66666700  0.01326411  1
  Zn  Zn6  1  0.50000000  0.50000000  0.50000000  1
  Zn  Zn7  1  0.50000000  0.00000000  0.50000000  1
  Zn  Zn8  1  -0.00000000  0.50000000  0.50000000  1
  Zn  Zn9  1  0.50000000  0.50000000  0.00000000  1
  Zn  Zn10  1  0.50000000  0.00000000  0.00000000  1
  Zn  Zn11  1  -0.00000000  0.50000000  0.00000000  1
  Zn  Zn12  1  0.56837317  0.43162683  0.25000000  1
  Zn  Zn13  1  0.56837317  0.13674533  0.25000000  1
  Zn  Zn14  1  0.86325467  0.43162683  0.25000000  1
  Zn  Zn15  1  0.43162683  0.56837317  0.75000000  1
  Zn  Zn16  1  0.43162683  0.86325467  0.75000000  1
  Zn  Zn17  1  0.13674533  0.56837317  0.75000000  1
  Zn  Zn18  1  0.83851535  0.16148465  0.40748819  1
  Zn  Zn19  1  0.83851535  0.67703171  0.40748819  1
  Zn  Zn20  1  0.32296829  0.16148465  0.40748819  1
  Zn  Zn21  1  0.16148465  0.83851535  0.59251181  1
  Zn  Zn22  1  0.16148465  0.32296829  0.59251181  1
  Zn  Zn23  1  0.67703171  0.83851535  0.59251181  1
  Zn  Zn24  1  0.16148465  0.83851535  0.90748819  1
  Zn  Zn25  1  0.16148465  0.32296829  0.90748819  1
  Zn  Zn26  1  0.67703171  0.83851535  0.90748819  1
  Zn  Zn27  1  0.83851535  0.16148465  0.09251181  1
  Zn  Zn28  1  0.83851535  0.67703171  0.09251181  1
  Zn  Zn29  1  0.32296829  0.16148465  0.09251181  1
loop_
_geom_bond_atom_site_label_1
_geom_bond_atom_site_label_2
_geom_bond_distance
_geom_bond_site_symmetry_2
Y0 Zn19 3.037013 1_455
Y0 Zn28 3.037013 1_455
Y0 Zn29 3.037013 1_565
Y0 Zn20 3.037013 1_565
Y0 Zn2 3.064258 1_555
Y0 Zn5 3.064258 1_555
Y0 Zn24 3.098615 1_554
Y0 Zn21 3.098615 1_555
Y0 Zn14 3.129907 1_455
Y0 Zn13 3.129907 1_565
Y0 Zn8 3.278263 1_555
Y0 Zn11 3.278263 1_555
Y0 Zn10 3.278263 1_565
Y0 Zn7 3.278263 1_565
Y1 Zn27 3.037013 1_455
Y1 Zn18 3.037013 1_455
Y1 Zn29 3.037013 1_555
Y1 Zn20 3.037013 1_555
Y1 Zn5 3.064258 1_555
Y1 Zn2 3.064258 1_555
Y1 Zn25 3.098617 1_554
Y1 Zn22 3.098617 1_555
Y1 Zn14 3.129896 1_455
Y1 Zn12 3.129914 1_555
Y1 Zn8 3.278257 1_555
Y1 Zn11 3.278257 1_555
Y1 Zn6 3.278263 1_555
Y1 Zn9 3.278263 1_555
Y2 Zn18 3.037013 1_565
Y2 Zn27 3.037013 1_565
Y2 Zn19 3.037013 1_555
Y2 Zn28 3.037013 1_555
Y2 Zn5 3.064258 1_555
Y2 Zn2 3.064258 1_555
Y2 Zn23 3.098617 1_555
Y2 Zn26 3.098617 1_554
Y2 Zn13 3.129896 1_565
Y2 Zn12 3.129914 1_555
Y2 Zn7 3.278257 1_565
Y2 Zn10 3.278257 1_565
Y2 Zn6 3.278263 1_555
Y2 Zn9 3.278263 1_555
Y3 Zn23 3.037013 1_545
Y3 Zn26 3.037013 1_545
Y3 Zn25 3.037013 1_655
Y3 Zn22 3.037013 1_655
Y3 Zn3 3.064258 1_555
Y3 Zn4 3.064258 1_555
Y3 Zn27 3.098615 1_556
Y3 Zn18 3.098615 1_555
Y3 Zn16 3.129907 1_545
Y3 Zn17 3.129907 1_655
Y3 Zn7 3.278263 1_555
Y3 Zn10 3.278263 1_556
Y3 Zn8 3.278263 1_655
Y3 Zn11 3.278263 1_656
Y4 Zn21 3.037013 1_655
Y4 Zn24 3.037013 1_655
Y4 Zn26 3.037013 1_555
Y4 Zn23 3.037013 1_555
Y4 Zn3 3.064258 1_555
Y4 Zn4 3.064258 1_555
Y4 Zn28 3.098617 1_556
Y4 Zn19 3.098617 1_555
Y4 Zn17 3.129896 1_655
Y4 Zn15 3.129914 1_555
Y4 Zn11 3.278257 1_656
Y4 Zn8 3.278257 1_655
Y4 Zn9 3.278263 1_556
Y4 Zn6 3.278263 1_555
Y5 Zn21 3.037013 1_545
Y5 Zn24 3.037013 1_545
Y5 Zn25 3.037013 1_555
Y5 Zn22 3.037013 1_555
Y5 Zn3 3.064258 1_555
Y5 Zn4 3.064258 1_555
Y5 Zn20 3.098617 1_555
Y5 Zn29 3.098617 1_556
Y5 Zn16 3.129896 1_545
Y5 Zn15 3.129914 1_555
Y5 Zn7 3.278257 1_555
Y5 Zn10 3.278257 1_556
Y5 Zn9 3.278263 1_556
Y5 Zn6 3.278263 1_555
Zn0 Zn23 2.596818 1_445
Zn0 Zn19 2.596818 1_445
Zn0 Zn22 2.596818 1_555
Zn0 Zn20 2.596818 1_555
Zn0 Zn18 2.596825 1_455
Zn0 Zn21 2.596825 1_545
Zn1 Zn26 2.596818 1_444
Zn1 Zn28 2.596818 1_445
Zn1 Zn25 2.596818 1_554
Zn1 Zn29 2.596818 1_555
Zn1 Zn27 2.596825 1_455
Zn1 Zn24 2.596825 1_544
Zn2 Zn7 2.542488 1_565
Zn2 Zn8 2.542488 1_555
Zn2 Zn6 2.542496 1_555
Zn2 Zn21 2.785170 1_555
Zn2 Zn22 2.785184 1_555
Zn2 Zn23 2.785184 1_555
Zn3 Zn8 2.542488 1_655
Zn3 Zn7 2.542488 1_555
Zn3 Zn6 2.542496 1_555
Zn4 Zn9 2.542496 1_556
Zn5 Zn9 2.542496 1_555
Zn10 Zn16 2.472169 1_544
Zn10 Zn13 2.472169 1_555
Zn10 Zn4 2.542488 1_554
Zn10 Zn5 2.542488 1_545
Zn10 Zn24 2.710193 1_544
Zn10 Zn27 2.710193 1_555
Zn10 Zn29 2.710200 1_555
Zn10 Zn26 2.710200 1_544
Zn11 Zn17 2.472169 1_554
Zn11 Zn14 2.472169 1_455
Zn11 Zn5 2.542488 1_555
Zn11 Zn4 2.542488 1_454
Zn11 Zn27 2.710193 1_455
Zn11 Zn24 2.710193 1_554
Zn11 Zn25 2.710200 1_554
Zn11 Zn28 2.710200 1_455
Zn12 Zn6 2.472173 1_555
Zn12 Zn9 2.472173 1_555
Zn12 Zn13 2.594309 1_555
Zn12 Zn14 2.594309 1_555
Zn12 Zn29 2.678281 1_555
Zn12 Zn20 2.678281 1_555
Zn12 Zn28 2.678281 1_555
Zn12 Zn19 2.678281 1_555
Zn12 Zn4 2.795903 1_554
Zn12 Zn3 2.795903 1_555
Zn13 Zn7 2.472169 1_555
Zn13 Zn14 2.594309 1_555
Zn13 Zn27 2.678274 1_555
Zn13 Zn18 2.678274 1_555
Zn13 Zn29 2.678289 1_555
Zn13 Zn20 2.678289 1_555
Zn13 Zn4 2.795903 1_554
Zn13 Zn3 2.795903 1_555
Zn14 Zn8 2.472169 1_655
Zn14 Zn27 2.678274 1_555
Zn14 Zn18 2.678274 1_555
Zn14 Zn19 2.678289 1_555
Zn14 Zn28 2.678289 1_555
Zn14 Zn4 2.795903 1_554
Zn14 Zn3 2.795903 1_555
Zn15 Zn9 2.472173 1_556
Zn15 Zn6 2.472173 1_555
Zn15 Zn16 2.594309 1_555
Zn15 Zn17 2.594309 1_555
Zn15 Zn25 2.678281 1_555
Zn15 Zn22 2.678281 1_555
Zn15 Zn26 2.678281 1_555
Zn15 Zn23 2.678281 1_555
Zn15 Zn5 2.795903 1_556
Zn15 Zn2 2.795903 1_555
Zn16 Zn7 2.472169 1_565
Zn16 Zn17 2.594309 1_555
Zn16 Zn24 2.678274 1_555
Zn16 Zn21 2.678274 1_555
Zn16 Zn26 2.678289 1_555
Zn16 Zn23 2.678289 1_555
Zn16 Zn5 2.795903 1_556
Zn16 Zn2 2.795903 1_555
Zn17 Zn8 2.472169 1_555
Zn17 Zn24 2.678274 1_555
Zn17 Zn21 2.678274 1_555
Zn17 Zn25 2.678289 1_555
Zn17 Zn22 2.678289 1_555
Zn17 Zn5 2.795903 1_556
Zn17 Zn2 2.795903 1_555
Zn18 Zn7 2.710193 1_555
Zn18 Zn8 2.710193 1_655
Zn18 Zn3 2.785170 1_555
Zn18 Zn27 2.824580 1_555
Zn18 Zn23 2.967870 1_545
Zn18 Zn22 2.967870 1_655
Zn19 Zn6 2.710193 1_555
Zn19 Zn8 2.710200 1_655
Zn19 Zn3 2.785184 1_555
Zn19 Zn28 2.824580 1_555
Zn19 Zn23 2.967857 1_555
Zn19 Zn21 2.967870 1_655
Zn20 Zn6 2.710193 1_555
Zn20 Zn7 2.710200 1_555
Zn20 Zn3 2.785184 1_555
Zn20 Zn29 2.824580 1_555
Zn20 Zn22 2.967857 1_555
Zn20 Zn21 2.967870 1_545
Zn21 Zn7 2.710193 1_565
Zn21 Zn8 2.710193 1_555
Zn21 Zn24 2.824580 1_555
Zn22 Zn6 2.710193 1_555
Zn22 Zn8 2.710200 1_555
Zn22 Zn25 2.824580 1_555
Zn23 Zn6 2.710193 1_555
Zn23 Zn7 2.710200 1_565
Zn23 Zn26 2.824580 1_555
Zn24 Zn5 2.785170 1_556
Zn24 Zn28 2.967870 1_456
Zn24 Zn29 2.967870 1_566
Zn25 Zn9 2.710193 1_556
Zn25 Zn5 2.785184 1_556
Zn25 Zn29 2.967857 1_556
Zn25 Zn27 2.967870 1_456
Zn26 Zn9 2.710193 1_556
Zn26 Zn5 2.785184 1_556
Zn26 Zn28 2.967857 1_556
Zn26 Zn27 2.967870 1_566
Zn27 Zn4 2.785170 1_554
Zn28 Zn9 2.710193 1_555
Zn28 Zn4 2.785184 1_554
Zn29 Zn9 2.710193 1_555
Zn29 Zn4 2.785184 1_554
