# generated using pymatgen
data_Pr3Si2
_symmetry_space_group_name_H-M   'P 1'
_cell_length_a   4.41077905
_cell_length_b   7.85048059
_cell_length_c   7.85048059
_cell_angle_alpha   89.99679324
_cell_angle_beta   90.00000000
_cell_angle_gamma   90.00000000
_symmetry_Int_Tables_number   1
_chemical_formula_structural   Pr3Si2
_chemical_formula_sum   'Pr6 Si4'
_cell_volume   271.83651330
_cell_formula_units_Z   2
loop_
 _symmetry_equiv_pos_site_id
 _symmetry_equiv_pos_as_xyz
  1  'x, y, z'
loop_
 _atom_site_type_symbol
 _atom_site_label
 _atom_site_symmetry_multiplicity
 _atom_site_fract_x
 _atom_site_fract_y
 _atom_site_fract_z
 _atom_site_occupancy
  Pr  Pr0  1  0.00000000  0.50000000  0.50000000  1
  Pr  Pr1  1  0.00000000  -0.00000000  -0.00000000  1
  Pr  Pr2  1  0.50000000  0.17669141  0.67669141  1
  Pr  Pr3  1  0.50000000  0.82330859  0.32330859  1
  Pr  Pr4  1  0.50000000  0.32332123  0.17667877  1
  Pr  Pr5  1  0.50000000  0.67667877  0.82332123  1
  Si  Si0  1  0.00000000  0.60970411  0.10970411  1
  Si  Si1  1  0.00000000  0.39029589  0.89029589  1
  Si  Si2  1  0.00000000  0.89027937  0.60972063  1
  Si  Si3  1  0.00000000  0.10972063  0.39027937  1
loop_
_geom_bond_atom_site_label_1
_geom_bond_atom_site_label_2
_geom_bond_distance
_geom_bond_site_symmetry_2
Pr0 Si1 3.182700 1_555
Pr0 Si0 3.182700 1_555
Pr0 Si3 3.182703 1_555
Pr0 Si2 3.182703 1_555
Pr1 Si0 3.182700 1_545
Pr1 Si1 3.182700 1_554
Pr1 Si3 3.182703 1_555
Pr1 Si2 3.182703 1_544
Pr2 Si2 3.193105 1_645
Pr2 Si2 3.193105 1_545
Pr2 Si3 3.193105 1_555
Pr2 Si3 3.193105 1_655
Pr2 Si1 3.238523 1_655
Pr2 Si1 3.238523 1_555
Pr3 Si3 3.193105 1_665
Pr3 Si3 3.193105 1_565
Pr3 Si2 3.193105 1_655
Pr3 Si2 3.193105 1_555
Pr3 Si0 3.238523 1_555
Pr3 Si0 3.238523 1_655
Pr4 Si1 3.192907 1_554
Pr4 Si0 3.192907 1_555
Pr4 Si0 3.192907 1_655
Pr4 Si1 3.192907 1_654
Pr4 Si3 3.238394 1_555
Pr4 Si3 3.238394 1_655
Pr5 Si1 3.192907 1_555
Pr5 Si1 3.192907 1_655
Pr5 Si0 3.192907 1_556
Pr5 Si0 3.192907 1_656
Pr5 Si2 3.238394 1_655
Pr5 Si2 3.238394 1_555
Si0 Si1 2.435994 1_554
Si2 Si3 2.436225 1_565
