# generated using pymatgen
data_ZrTiCN
_symmetry_space_group_name_H-M   'P 1'
_cell_length_a   5.49619942
_cell_length_b   5.49619942
_cell_length_c   5.49619946
_cell_angle_alpha   33.65217158
_cell_angle_beta   33.65217158
_cell_angle_gamma   33.65217689
_symmetry_Int_Tables_number   1
_chemical_formula_structural   ZrTiCN
_chemical_formula_sum   'Zr1 Ti1 C1 N1'
_cell_volume   45.42056601
_cell_formula_units_Z   1
loop_
 _symmetry_equiv_pos_site_id
 _symmetry_equiv_pos_as_xyz
  1  'x, y, z'
loop_
 _atom_site_type_symbol
 _atom_site_label
 _atom_site_symmetry_multiplicity
 _atom_site_fract_x
 _atom_site_fract_y
 _atom_site_fract_z
 _atom_site_occupancy
  Zr  Zr0  1  0.25040600  0.25040600  0.25040600  1
  Ti  Ti0  1  0.74869900  0.74869900  0.74869900  1
  C  C0  1  0.00587800  0.00587800  0.00587800  1
  N  N0  1  0.49501700  0.49501700  0.49501700  1
loop_
_geom_bond_atom_site_label_1
_geom_bond_atom_site_label_2
_geom_bond_distance
_geom_bond_site_symmetry_2
C0 Ti0 2.185290 1_445
C0 Ti0 2.185291 1_544
C0 Ti0 2.185291 1_454
C0 Zr0 2.297712 1_554
C0 Zr0 2.297712 1_545
C0 Zr0 2.297712 1_455
N0 Ti0 2.215192 1_554
N0 Ti0 2.215192 1_545
N0 Ti0 2.215192 1_455
N0 Zr0 2.296938 1_556
N0 Zr0 2.296938 1_655
N0 Zr0 2.296938 1_565
