# generated using pymatgen
data_LiNiAsO4
_symmetry_space_group_name_H-M   'P 1'
_cell_length_a   5.75346130
_cell_length_b   5.95937716
_cell_length_c   8.20935000
_cell_angle_alpha   90.00100333
_cell_angle_beta   90.00044611
_cell_angle_gamma   89.99984580
_symmetry_Int_Tables_number   1
_chemical_formula_structural   LiNiAsO4
_chemical_formula_sum   'Li4 Ni4 As4 O16'
_cell_volume   281.47435979
_cell_formula_units_Z   4
loop_
 _symmetry_equiv_pos_site_id
 _symmetry_equiv_pos_as_xyz
  1  'x, y, z'
loop_
 _atom_site_type_symbol
 _atom_site_label
 _atom_site_symmetry_multiplicity
 _atom_site_fract_x
 _atom_site_fract_y
 _atom_site_fract_z
 _atom_site_occupancy
  Li  Li0  1  0.74999800  0.75001200  0.25000100  1
  Li  Li1  1  0.24999800  0.24998700  0.75000100  1
  Li  Li2  1  0.24999800  0.75001200  0.25000100  1
  Li  Li3  1  0.74999700  0.24998700  0.75000100  1
  Ni  Ni0  1  0.00000500  0.49995900  0.49999800  1
  Ni  Ni1  1  0.50005500  0.50004000  0.00003500  1
  Ni  Ni2  1  0.50003000  0.99996500  0.99996100  1
  Ni  Ni3  1  0.99995800  0.00005400  0.49998800  1
  As  As0  1  0.00000000  0.24998000  0.13118300  1
  As  As1  1  0.49999900  0.75001100  0.63118300  1
  As  As2  1  0.49999600  0.24998600  0.36881700  1
  As  As3  1  0.99999800  0.75001800  0.86881700  1
  O  O0  1  0.75484000  0.24992100  0.00402600  1
  O  O1  1  0.25484000  0.75007700  0.50402500  1
  O  O2  1  0.24515600  0.24991800  0.00402800  1
  O  O3  1  0.74515500  0.75007300  0.50402600  1
  O  O4  1  0.74515400  0.24992200  0.49597700  1
  O  O5  1  0.24515600  0.75007700  0.99597500  1
  O  O6  1  0.25484100  0.24992500  0.49597600  1
  O  O7  1  0.75484100  0.75008100  0.99597400  1
  O  O8  1  0.99999800  0.00925000  0.24713000  1
  O  O9  1  0.49999700  0.50915700  0.74706400  1
  O  O10  1  0.99999700  0.49084600  0.24706400  1
  O  O11  1  0.49999700  0.99074900  0.74713400  1
  O  O12  1  0.49999900  0.49084200  0.25293900  1
  O  O13  1  0.99999800  0.99074900  0.75287100  1
  O  O14  1  0.50000000  0.00925000  0.25286700  1
  O  O15  1  0.99999800  0.50915300  0.75293700  1
loop_
_geom_bond_atom_site_label_1
_geom_bond_atom_site_label_2
_geom_bond_distance
_geom_bond_site_symmetry_2
Li0 O3 2.085567 1_555
Li0 O7 2.085583 1_554
Li0 O10 2.110646 1_555
Li0 O12 2.110670 1_555
Li0 O14 2.110950 1_565
Li0 O8 2.110964 1_565
Li1 O6 2.085567 1_555
Li1 O2 2.085583 1_556
Li1 O15 2.110650 1_455
Li1 O9 2.110670 1_555
Li1 O11 2.110954 1_545
Li1 O13 2.110964 1_445
Li2 O1 2.085558 1_555
Li2 O5 2.085574 1_554
Li2 O10 2.110660 1_455
Li2 O12 2.110672 1_555
Li2 O8 2.110959 1_465
Li2 O14 2.110971 1_565
Li3 O4 2.085558 1_555
Li3 O0 2.085566 1_556
Li3 O15 2.110660 1_555
Li3 O9 2.110668 1_555
Li3 O13 2.110962 1_545
Li3 O11 2.110963 1_545
Ni0 O10 2.077133 1_455
Ni0 O15 2.077187 1_455
Ni0 O6 2.090700 1_555
Ni0 O4 2.090779 1_455
Ni0 O1 2.091059 1_555
Ni0 O3 2.091097 1_455
Ni1 O12 2.076902 1_555
Ni1 O9 2.077439 1_554
Ni1 O7 2.090540 1_554
Ni1 O0 2.090852 1_555
Ni1 O5 2.090973 1_554
Ni1 O2 2.091331 1_555
Ni2 O11 2.076271 1_555
Ni2 O14 2.076930 1_566
Ni2 O7 2.089958 1_555
Ni2 O5 2.090234 1_555
Ni2 O0 2.090275 1_566
Ni2 O2 2.090515 1_566
Ni3 O8 2.076524 1_555
Ni3 O13 2.076746 1_545
Ni3 O4 2.089865 1_555
Ni3 O6 2.090203 1_655
Ni3 O3 2.090351 1_545
Ni3 O1 2.090646 1_645
As0 O8 1.721669 1_455
As0 O10 1.722017 1_455
As0 O2 1.754755 1_555
As0 O0 1.754770 1_455
As1 O11 1.721699 1_555
As1 O9 1.721986 1_555
As1 O3 1.754765 1_555
As1 O1 1.754770 1_555
As2 O14 1.721685 1_555
As2 O12 1.721982 1_555
As2 O6 1.754770 1_555
As2 O4 1.754775 1_555
As3 O13 1.721670 1_555
As3 O15 1.722008 1_555
As3 O5 1.754766 1_655
As3 O7 1.754769 1_555
