# generated using pymatgen
data_Sr2Mn2AlTlO7
_symmetry_space_group_name_H-M   'P 1'
_cell_length_a   3.70147000
_cell_length_b   3.70147000
_cell_length_c   13.41029800
_cell_angle_alpha   90.00000000
_cell_angle_beta   90.00000000
_cell_angle_gamma   90.00000000
_symmetry_Int_Tables_number   1
_chemical_formula_structural   Sr2Mn2AlTlO7
_chemical_formula_sum   'Sr2 Mn2 Al1 Tl1 O7'
_cell_volume   183.73288582
_cell_formula_units_Z   1
loop_
 _symmetry_equiv_pos_site_id
 _symmetry_equiv_pos_as_xyz
  1  'x, y, z'
loop_
 _atom_site_type_symbol
 _atom_site_label
 _atom_site_symmetry_multiplicity
 _atom_site_fract_x
 _atom_site_fract_y
 _atom_site_fract_z
 _atom_site_occupancy
  Sr  Sr0  1  0.00000000  0.00000000  0.81239300  1
  Sr  Sr1  1  0.00000000  0.00000000  0.18760700  1
  Mn  Mn0  1  0.50000000  0.50000000  0.63585600  1
  Mn  Mn1  1  0.50000000  0.50000000  0.36414400  1
  Al  Al0  1  0.00000000  0.00000000  0.50000000  1
  Tl  Tl0  1  0.50000000  0.50000000  0.00000000  1
  O  O0  1  0.00000000  0.50000000  0.59028100  1
  O  O1  1  0.50000000  0.00000000  0.59028100  1
  O  O2  1  0.00000000  0.50000000  0.40971900  1
  O  O3  1  0.50000000  0.00000000  0.40971900  1
  O  O4  1  0.50000000  0.50000000  0.79034900  1
  O  O5  1  0.50000000  0.50000000  0.20965100  1
  O  O6  1  0.00000000  0.00000000  0.00000000  1
loop_
_geom_bond_atom_site_label_1
_geom_bond_atom_site_label_2
_geom_bond_distance
_geom_bond_site_symmetry_2
Mn0 O1 1.949039 1_565
Mn0 O0 1.949039 1_655
Mn0 O1 1.949039 1_555
Mn0 O0 1.949039 1_555
Mn0 O4 2.071797 1_555
Mn1 O2 1.949039 1_555
Mn1 O2 1.949039 1_655
Mn1 O3 1.949039 1_555
Mn1 O3 1.949039 1_565
Mn1 O5 2.071797 1_555
Al0 O1 2.211561 1_455
Al0 O1 2.211561 1_555
Al0 O0 2.211561 1_555
Al0 O0 2.211561 1_545
Al0 O2 2.211561 1_555
Al0 O3 2.211561 1_555
Al0 O3 2.211561 1_455
Al0 O2 2.211561 1_545
O4 Sr0 2.633976 1_665
O4 Sr0 2.633976 1_565
O4 Sr0 2.633976 1_655
O4 Sr0 2.633976 1_555
O4 Tl0 2.811482 1_556
O5 Sr1 2.633976 1_665
O5 Sr1 2.633976 1_655
O5 Sr1 2.633976 1_565
O5 Sr1 2.633976 1_555
O5 Tl0 2.811482 1_555
O6 Sr1 2.515866 1_555
O6 Sr0 2.515866 1_554
O6 Tl0 2.617335 1_555
O6 Tl0 2.617335 1_545
O6 Tl0 2.617335 1_445
O6 Tl0 2.617335 1_455
