# generated using pymatgen
data_HoPd
_symmetry_space_group_name_H-M   'P 1'
_cell_length_a   4.59567776
_cell_length_b   5.48168595
_cell_length_c   6.87594203
_cell_angle_alpha   90.00000000
_cell_angle_beta   90.00000000
_cell_angle_gamma   90.00000000
_symmetry_Int_Tables_number   1
_chemical_formula_structural   HoPd
_chemical_formula_sum   'Ho4 Pd4'
_cell_volume   173.21915936
_cell_formula_units_Z   4
loop_
 _symmetry_equiv_pos_site_id
 _symmetry_equiv_pos_as_xyz
  1  'x, y, z'
loop_
 _atom_site_type_symbol
 _atom_site_label
 _atom_site_symmetry_multiplicity
 _atom_site_fract_x
 _atom_site_fract_y
 _atom_site_fract_z
 _atom_site_occupancy
  Ho  Ho0  1  0.25000000  0.35667766  0.68350771  1
  Ho  Ho1  1  0.25000000  0.14332234  0.18350771  1
  Ho  Ho2  1  0.75000000  0.64332234  0.31649229  1
  Ho  Ho3  1  0.75000000  0.85667766  0.81649229  1
  Pd  Pd0  1  0.25000000  0.84606222  0.54080435  1
  Pd  Pd1  1  0.25000000  0.65393778  0.04080435  1
  Pd  Pd2  1  0.75000000  0.15393778  0.45919565  1
  Pd  Pd3  1  0.75000000  0.34606222  0.95919565  1
loop_
_geom_bond_atom_site_label_1
_geom_bond_atom_site_label_2
_geom_bond_distance
_geom_bond_site_symmetry_2
Ho0 Pd0 2.856469 1_555
Ho0 Pd1 2.948025 1_556
Ho0 Pd0 2.966038 1_545
Ho0 Pd3 2.979396 1_555
Ho0 Pd3 2.979396 1_455
Ho0 Pd2 2.982288 1_455
Ho0 Pd2 2.982288 1_555
Ho1 Pd1 2.856469 1_545
Ho1 Pd0 2.948025 1_545
Ho1 Pd1 2.966038 1_555
Ho1 Pd2 2.979396 1_555
Ho1 Pd2 2.979396 1_455
Ho1 Pd3 2.982288 1_454
Ho1 Pd3 2.982288 1_554
Ho2 Pd2 2.856469 1_555
Ho2 Pd3 2.948025 1_554
Ho2 Pd2 2.966038 1_565
Ho2 Pd1 2.979396 1_655
Ho2 Pd1 2.979396 1_555
Ho2 Pd0 2.982288 1_555
Ho2 Pd0 2.982288 1_655
Ho3 Pd3 2.856469 1_565
Ho3 Pd2 2.948025 1_565
Ho3 Pd3 2.966038 1_555
Ho3 Pd0 2.979396 1_655
Ho3 Pd0 2.979396 1_555
Ho3 Pd1 2.982288 1_556
Ho3 Pd1 2.982288 1_656
Pd0 Pd2 2.905717 1_565
Pd0 Pd2 2.905717 1_465
Pd1 Pd3 2.905717 1_554
Pd1 Pd3 2.905717 1_454
