# generated using pymatgen
data_Cs2Cu3SnF12
_symmetry_space_group_name_H-M   'P 1'
_cell_length_a   8.14122327
_cell_length_b   8.14122327
_cell_length_c   8.14122261
_cell_angle_alpha   52.57233245
_cell_angle_beta   52.57233245
_cell_angle_gamma   52.57232932
_symmetry_Int_Tables_number   1
_chemical_formula_structural   Cs2Cu3SnF12
_chemical_formula_sum   'Cs2 Cu3 Sn1 F12'
_cell_volume   315.03530536
_cell_formula_units_Z   1
loop_
 _symmetry_equiv_pos_site_id
 _symmetry_equiv_pos_as_xyz
  1  'x, y, z'
loop_
 _atom_site_type_symbol
 _atom_site_label
 _atom_site_symmetry_multiplicity
 _atom_site_fract_x
 _atom_site_fract_y
 _atom_site_fract_z
 _atom_site_occupancy
  Cs  Cs0  1  0.89354500  0.89354500  0.89354500  1
  Cs  Cs1  1  0.10645500  0.10645500  0.10645500  1
  Cu  Cu0  1  0.50000000  0.50000000  0.00000000  1
  Cu  Cu1  1  0.00000000  0.50000000  0.50000000  1
  Cu  Cu2  1  0.50000000  0.00000000  0.50000000  1
  Sn  Sn0  1  0.50000000  0.50000000  0.50000000  1
  F  F0  1  0.81342700  0.41898800  0.81342700  1
  F  F1  1  0.81342700  0.81342700  0.41898800  1
  F  F2  1  0.41898800  0.81342700  0.81342700  1
  F  F3  1  0.18657300  0.58101200  0.18657300  1
  F  F4  1  0.18657300  0.18657300  0.58101200  1
  F  F5  1  0.58101200  0.18657300  0.18657300  1
  F  F6  1  0.41992300  0.82023100  0.41992300  1
  F  F7  1  0.41992300  0.41992300  0.82023100  1
  F  F8  1  0.82023100  0.41992300  0.41992300  1
  F  F9  1  0.58007700  0.17976900  0.58007700  1
  F  F10  1  0.58007700  0.58007700  0.17976900  1
  F  F11  1  0.17976900  0.58007700  0.58007700  1
loop_
_geom_bond_atom_site_label_1
_geom_bond_atom_site_label_2
_geom_bond_distance
_geom_bond_site_symmetry_2
Cs0 F5 3.165063 1_566
Cs0 F3 3.165063 1_656
Cs0 F4 3.165063 1_665
Cs0 F9 3.451824 1_565
Cs0 F11 3.451824 1_655
Cs0 F10 3.451825 1_556
Cs1 F0 3.165063 1_454
Cs1 F2 3.165063 1_544
Cs1 F1 3.165063 1_445
Cs1 F6 3.451824 1_545
Cs1 F8 3.451824 1_455
Cs1 F7 3.451825 1_554
Cu0 F3 1.927210 1_555
Cu0 F2 1.927210 1_554
Cu0 F5 1.927210 1_555
Cu0 F0 1.927210 1_554
Cu0 F10 2.414137 1_555
Cu0 F7 2.414137 1_554
Cu1 F3 1.927210 1_555
Cu1 F0 1.927210 1_455
Cu1 F4 1.927210 1_555
Cu1 F1 1.927210 1_455
Cu1 F11 2.414137 1_555
Cu1 F8 2.414137 1_455
Cu2 F5 1.927210 1_555
Cu2 F2 1.927210 1_545
Cu2 F4 1.927210 1_555
Cu2 F1 1.927210 1_545
Cu2 F9 2.414137 1_555
Cu2 F6 2.414137 1_545
F6 Sn0 2.007887 1_555
F7 Sn0 2.007887 1_555
F8 Sn0 2.007887 1_555
F9 Sn0 2.007887 1_555
F10 Sn0 2.007887 1_555
F11 Sn0 2.007887 1_555
