# generated using pymatgen
data_SmGa3Pt
_symmetry_space_group_name_H-M   'P 1'
_cell_length_a   6.14015079
_cell_length_b   6.14015079
_cell_length_c   6.14015079
_cell_angle_alpha   140.56067094
_cell_angle_beta   140.56067094
_cell_angle_gamma   57.00298115
_symmetry_Int_Tables_number   1
_chemical_formula_structural   SmGa3Pt
_chemical_formula_sum   'Sm1 Ga3 Pt1'
_cell_volume   92.64604768
_cell_formula_units_Z   1
loop_
 _symmetry_equiv_pos_site_id
 _symmetry_equiv_pos_as_xyz
  1  'x, y, z'
loop_
 _atom_site_type_symbol
 _atom_site_label
 _atom_site_symmetry_multiplicity
 _atom_site_fract_x
 _atom_site_fract_y
 _atom_site_fract_z
 _atom_site_occupancy
  Sm  Sm0  1  -0.00000000  -0.00000000  0.00000000  1
  Ga  Ga0  1  0.61327047  0.61327047  -0.00000000  1
  Ga  Ga1  1  0.38672953  0.38672953  0.00000000  1
  Ga  Ga2  1  0.75000000  0.25000000  0.50000000  1
  Pt  Pt0  1  0.25000000  0.75000000  0.50000000  1
loop_
_geom_bond_atom_site_label_1
_geom_bond_atom_site_label_2
_geom_bond_distance
_geom_bond_site_symmetry_2
Ga0 Ga1 2.444827 1_555
Ga0 Ga2 2.543560 1_565
Ga0 Pt0 2.543560 1_655
Ga0 Pt0 2.543560 1_554
Ga0 Ga2 2.543560 1_554
Ga0 Sm0 3.174744 1_554
Ga0 Sm0 3.174744 1_565
Ga0 Sm0 3.174744 1_655
Ga0 Sm0 3.174744 1_666
Ga1 Ga2 2.543560 1_454
Ga1 Pt0 2.543560 1_544
Ga1 Ga2 2.543560 1_555
Ga1 Pt0 2.543560 1_555
Ga1 Sm0 3.174744 1_554
Ga1 Sm0 3.174744 1_666
Ga1 Sm0 3.174744 1_565
Ga1 Sm0 3.174744 1_655
Ga2 Sm0 3.401697 1_656
Ga2 Sm0 3.401697 1_655
Ga2 Sm0 3.401697 1_666
Ga2 Sm0 3.401697 1_555
Pt0 Sm0 3.401697 1_566
Pt0 Sm0 3.401697 1_666
Pt0 Sm0 3.401697 1_555
Pt0 Sm0 3.401697 1_565
