# generated using pymatgen
data_TaFeB
_symmetry_space_group_name_H-M   'P 1'
_cell_length_a   5.97856614
_cell_length_b   5.97858872
_cell_length_c   3.15345411
_cell_angle_alpha   90.00000000
_cell_angle_beta   90.00000000
_cell_angle_gamma   120.00014244
_symmetry_Int_Tables_number   1
_chemical_formula_structural   TaFeB
_chemical_formula_sum   'Ta3 Fe3 B3'
_cell_volume   97.61402944
_cell_formula_units_Z   3
loop_
 _symmetry_equiv_pos_site_id
 _symmetry_equiv_pos_as_xyz
  1  'x, y, z'
loop_
 _atom_site_type_symbol
 _atom_site_label
 _atom_site_symmetry_multiplicity
 _atom_site_fract_x
 _atom_site_fract_y
 _atom_site_fract_z
 _atom_site_occupancy
  Ta  Ta0  1  0.40963892  0.00000163  0.50000000  1
  Ta  Ta1  1  0.00000000  0.40964437  0.50000000  1
  Ta  Ta2  1  0.59036108  0.59036270  0.50000000  1
  Fe  Fe0  1  0.75838375  -0.00000568  0.00000000  1
  Fe  Fe1  1  0.00000000  0.75837703  -0.00000000  1
  Fe  Fe2  1  0.24161625  0.24161057  -0.00000000  1
  B  B0  1  0.33333425  0.66666905  -0.00000000  1
  B  B1  1  0.66666575  0.33333380  -0.00000000  1
  B  B2  1  -0.00000000  0.00000553  0.50000000  1
loop_
_geom_bond_atom_site_label_1
_geom_bond_atom_site_label_2
_geom_bond_distance
_geom_bond_site_symmetry_2
Fe0 Ta0 2.614070 1_554
Fe0 Ta0 2.614070 1_555
Fe0 Ta2 2.651927 1_545
Fe0 Ta2 2.651927 1_544
Fe0 Ta1 2.652001 1_654
Fe0 Ta1 2.652001 1_655
Fe1 Ta1 2.614000 1_555
Fe1 Ta1 2.614000 1_554
Fe1 Ta0 2.651956 1_565
Fe1 Ta0 2.651956 1_564
Fe1 Ta2 2.651956 1_455
Fe1 Ta2 2.651956 1_454
Fe2 Ta2 2.614069 1_554
Fe2 Ta2 2.614069 1_555
Fe2 Ta0 2.651927 1_555
Fe2 Ta0 2.651927 1_554
Fe2 Ta1 2.652001 1_554
Fe2 Ta1 2.652001 1_555
B0 Fe1 2.316197 1_555
B0 Fe0 2.316205 1_565
B0 Fe2 2.316279 1_555
B0 Ta1 2.399272 1_554
B0 Ta1 2.399272 1_555
B0 Ta2 2.399275 1_554
B0 Ta2 2.399275 1_555
B0 Ta0 2.399278 1_564
B0 Ta0 2.399278 1_565
B1 Fe1 2.316200 1_655
B1 Fe2 2.316207 1_555
B1 Fe0 2.316274 1_555
B1 Ta1 2.399271 1_654
B1 Ta1 2.399271 1_655
B1 Ta0 2.399271 1_555
B1 Ta0 2.399271 1_554
B1 Ta2 2.399282 1_555
B1 Ta2 2.399282 1_554
B2 Fe2 2.138365 1_555
B2 Fe2 2.138365 1_556
B2 Fe0 2.138365 1_456
B2 Fe0 2.138365 1_455
B2 Fe1 2.138441 1_545
B2 Fe1 2.138441 1_546
B2 Ta1 2.449062 1_555
B2 Ta2 2.449064 1_445
B2 Ta0 2.449065 1_555
