# generated using pymatgen
data_SiPb7N6
_symmetry_space_group_name_H-M   'P 1'
_cell_length_a   12.70494700
_cell_length_b   7.32434300
_cell_length_c   12.58207500
_cell_angle_alpha   90.00000000
_cell_angle_beta   90.00000000
_cell_angle_gamma   90.00000000
_symmetry_Int_Tables_number   1
_chemical_formula_structural   SiPb7N6
_chemical_formula_sum   'Si4 Pb28 N24'
_cell_volume   1170.82989141
_cell_formula_units_Z   4
loop_
 _symmetry_equiv_pos_site_id
 _symmetry_equiv_pos_as_xyz
  1  'x, y, z'
loop_
 _atom_site_type_symbol
 _atom_site_label
 _atom_site_symmetry_multiplicity
 _atom_site_fract_x
 _atom_site_fract_y
 _atom_site_fract_z
 _atom_site_occupancy
  Si  Si0  1  0.00000000  0.84285800  0.75000000  1
  Si  Si1  1  0.50000000  0.65714200  0.25000000  1
  Si  Si2  1  0.00000000  0.15714200  0.25000000  1
  Si  Si3  1  0.50000000  0.34285800  0.75000000  1
  Pb  Pb0  1  0.00846700  0.76723500  0.02122200  1
  Pb  Pb1  1  0.49153300  0.73276500  0.52122200  1
  Pb  Pb2  1  0.50846700  0.73276500  0.97877800  1
  Pb  Pb3  1  0.99153300  0.76723500  0.47877800  1
  Pb  Pb4  1  0.99153300  0.23276500  0.97877800  1
  Pb  Pb5  1  0.50846700  0.26723500  0.47877800  1
  Pb  Pb6  1  0.49153300  0.26723500  0.02122200  1
  Pb  Pb7  1  0.00846700  0.23276500  0.52122200  1
  Pb  Pb8  1  0.21285700  0.82563700  0.63194800  1
  Pb  Pb9  1  0.28714300  0.67436300  0.13194800  1
  Pb  Pb10  1  0.71285700  0.67436300  0.36805200  1
  Pb  Pb11  1  0.78714300  0.82563700  0.86805200  1
  Pb  Pb12  1  0.78714300  0.17436300  0.36805200  1
  Pb  Pb13  1  0.71285700  0.32563700  0.86805200  1
  Pb  Pb14  1  0.28714300  0.32563700  0.63194800  1
  Pb  Pb15  1  0.21285700  0.17436300  0.13194800  1
  Pb  Pb16  1  0.25523800  0.54506400  0.86526500  1
  Pb  Pb17  1  0.24476200  0.95493600  0.36526500  1
  Pb  Pb18  1  0.75523800  0.95493600  0.13473500  1
  Pb  Pb19  1  0.74476200  0.54506400  0.63473500  1
  Pb  Pb20  1  0.74476200  0.45493600  0.13473500  1
  Pb  Pb21  1  0.75523800  0.04506400  0.63473500  1
  Pb  Pb22  1  0.24476200  0.04506400  0.86526500  1
  Pb  Pb23  1  0.25523800  0.45493600  0.36526500  1
  Pb  Pb24  1  0.00000000  0.43769300  0.75000000  1
  Pb  Pb25  1  0.50000000  0.06230700  0.25000000  1
  Pb  Pb26  1  0.00000000  0.56230700  0.25000000  1
  Pb  Pb27  1  0.50000000  0.93769300  0.75000000  1
  N  N0  1  0.10738100  0.68684800  0.76855800  1
  N  N1  1  0.39261900  0.81315200  0.26855800  1
  N  N2  1  0.60738100  0.81315200  0.23144200  1
  N  N3  1  0.89261900  0.68684800  0.73144200  1
  N  N4  1  0.89261900  0.31315200  0.23144200  1
  N  N5  1  0.60738100  0.18684800  0.73144200  1
  N  N6  1  0.39261900  0.18684800  0.76855800  1
  N  N7  1  0.10738100  0.31315200  0.26855800  1
  N  N8  1  0.17478500  0.70618500  0.46600400  1
  N  N9  1  0.32521500  0.79381500  0.96600400  1
  N  N10  1  0.67478500  0.79381500  0.53399600  1
  N  N11  1  0.82521500  0.70618500  0.03399600  1
  N  N12  1  0.82521500  0.29381500  0.53399600  1
  N  N13  1  0.67478500  0.20618500  0.03399600  1
  N  N14  1  0.32521500  0.20618500  0.46600400  1
  N  N15  1  0.17478500  0.29381500  0.96600400  1
  N  N16  1  0.46837000  0.45627900  0.63001300  1
  N  N17  1  0.03163000  0.04372100  0.13001300  1
  N  N18  1  0.96837000  0.04372100  0.36998700  1
  N  N19  1  0.53163000  0.45627900  0.86998700  1
  N  N20  1  0.53163000  0.54372100  0.36998700  1
  N  N21  1  0.96837000  0.95627900  0.86998700  1
  N  N22  1  0.03163000  0.95627900  0.63001300  1
  N  N23  1  0.46837000  0.54372100  0.13001300  1
loop_
_geom_bond_atom_site_label_1
_geom_bond_atom_site_label_2
_geom_bond_distance
_geom_bond_site_symmetry_2
N0 Si0 1.794840 1_555
N0 Pb24 2.290415 1_555
N0 Pb8 2.404897 1_555
N0 Pb16 2.467345 1_555
N1 Si1 1.794840 1_555
N1 Pb25 2.290415 1_565
N1 Pb9 2.404897 1_555
N1 Pb17 2.467345 1_555
N2 Si1 1.794840 1_555
N2 Pb25 2.290415 1_565
N2 Pb10 2.404897 1_555
N2 Pb18 2.467345 1_555
N3 Si0 1.794840 1_655
N3 Pb24 2.290415 1_655
N3 Pb11 2.404897 1_555
N3 Pb19 2.467345 1_555
N4 Si2 1.794840 1_655
N4 Pb26 2.290415 1_655
N4 Pb12 2.404897 1_555
N4 Pb20 2.467345 1_555
N5 Si3 1.794840 1_555
N5 Pb27 2.290415 1_545
N5 Pb13 2.404897 1_555
N5 Pb21 2.467345 1_555
N6 Si3 1.794840 1_555
N6 Pb27 2.290415 1_545
N6 Pb14 2.404897 1_555
N6 Pb22 2.467345 1_555
N7 Si2 1.794840 1_555
N7 Pb26 2.290415 1_555
N7 Pb15 2.404897 1_555
N7 Pb23 2.467345 1_555
N8 Pb8 2.314917 1_555
N8 Pb3 2.376199 1_455
N8 Pb17 2.390909 1_555
N8 Pb23 2.457198 1_555
N9 Pb9 2.314917 1_556
N9 Pb2 2.376199 1_555
N9 Pb16 2.390909 1_555
N9 Pb22 2.457198 1_565
N10 Pb10 2.314917 1_555
N10 Pb1 2.376199 1_555
N10 Pb19 2.390909 1_555
N10 Pb21 2.457198 1_565
N11 Pb11 2.314917 1_554
N11 Pb0 2.376199 1_655
N11 Pb18 2.390909 1_555
N11 Pb20 2.457198 1_555
N12 Pb12 2.314917 1_555
N12 Pb7 2.376199 1_655
N12 Pb21 2.390909 1_555
N12 Pb19 2.457198 1_555
N13 Pb13 2.314917 1_554
N13 Pb6 2.376199 1_555
N13 Pb20 2.390909 1_555
N13 Pb18 2.457198 1_545
N14 Pb14 2.314917 1_555
N14 Pb5 2.376199 1_555
N14 Pb23 2.390909 1_555
N14 Pb17 2.457198 1_545
N15 Pb15 2.314917 1_556
N15 Pb4 2.376199 1_455
N15 Pb22 2.390909 1_555
N15 Pb16 2.457198 1_555
N16 Si3 1.769395 1_555
N16 Pb5 2.407808 1_555
N16 Pb1 2.461951 1_555
N16 Pb14 2.493511 1_555
N17 Si2 1.769395 1_555
N17 Pb4 2.407808 1_454
N17 Pb0 2.461951 1_545
N17 Pb15 2.493511 1_555
N18 Si2 1.769395 1_655
N18 Pb7 2.407808 1_655
N18 Pb3 2.461951 1_545
N18 Pb12 2.493511 1_555
N19 Si3 1.769395 1_555
N19 Pb6 2.407808 1_556
N19 Pb2 2.461951 1_555
N19 Pb13 2.493511 1_555
N20 Si1 1.769395 1_555
N20 Pb1 2.407808 1_555
N20 Pb5 2.461951 1_555
N20 Pb10 2.493511 1_555
N21 Si0 1.769395 1_655
N21 Pb0 2.407808 1_656
N21 Pb4 2.461951 1_565
N21 Pb11 2.493511 1_555
N22 Si0 1.769395 1_555
N22 Pb3 2.407808 1_455
N22 Pb7 2.461951 1_565
N22 Pb8 2.493511 1_555
N23 Si1 1.769395 1_555
N23 Pb2 2.407808 1_554
N23 Pb6 2.461951 1_555
N23 Pb9 2.493511 1_555
