# generated using pymatgen
data_SrNiRu5O11
_symmetry_space_group_name_H-M   'P 1'
_cell_length_a   11.90326653
_cell_length_b   11.90916031
_cell_length_c   13.36711301
_cell_angle_alpha   90.00000000
_cell_angle_beta   90.00000000
_cell_angle_gamma   120.13273966
_symmetry_Int_Tables_number   1
_chemical_formula_structural   SrNiRu5O11
_chemical_formula_sum   'Sr8 Ni8 Ru40 O88'
_cell_volume   1638.82694321
_cell_formula_units_Z   8
loop_
 _symmetry_equiv_pos_site_id
 _symmetry_equiv_pos_as_xyz
  1  'x, y, z'
loop_
 _atom_site_type_symbol
 _atom_site_label
 _atom_site_symmetry_multiplicity
 _atom_site_fract_x
 _atom_site_fract_y
 _atom_site_fract_z
 _atom_site_occupancy
  Sr  Sr0  1  0.33283034  0.66710791  0.75000000  1
  Sr  Sr1  1  0.66716966  0.33289209  0.25000000  1
  Sr  Sr2  1  0.81840787  0.67953150  0.75000000  1
  Sr  Sr3  1  0.32341557  0.14165799  0.75000000  1
  Sr  Sr4  1  0.85859888  0.17915939  0.75000000  1
  Sr  Sr5  1  0.18159213  0.32046850  0.25000000  1
  Sr  Sr6  1  0.67658443  0.85834201  0.25000000  1
  Sr  Sr7  1  0.14140112  0.82084061  0.25000000  1
  Ni  Ni0  1  0.66811434  0.33570585  0.75000000  1
  Ni  Ni1  1  0.33188566  0.66429415  0.25000000  1
  Ni  Ni2  1  0.14701318  0.81927749  0.75000000  1
  Ni  Ni3  1  0.18048582  0.32745039  0.75000000  1
  Ni  Ni4  1  0.67250402  0.85307725  0.75000000  1
  Ni  Ni5  1  0.85298682  0.18072251  0.25000000  1
  Ni  Ni6  1  0.81951418  0.67254961  0.25000000  1
  Ni  Ni7  1  0.32749598  0.14692275  0.25000000  1
  Ru  Ru0  1  0.00040242  0.00003294  0.64773742  1
  Ru  Ru1  1  0.99959758  0.99996706  0.14773742  1
  Ru  Ru2  1  0.99959758  0.99996706  0.35226258  1
  Ru  Ru3  1  0.00040242  0.00003294  0.85226258  1
  Ru  Ru4  1  0.96887986  0.72897273  0.50538090  1
  Ru  Ru5  1  0.27118828  0.24021741  0.50488637  1
  Ru  Ru6  1  0.76034716  0.03131602  0.50470779  1
  Ru  Ru7  1  0.03112014  0.27102727  0.00538090  1
  Ru  Ru8  1  0.72881172  0.75978259  0.00488637  1
  Ru  Ru9  1  0.23965284  0.96868398  0.00470779  1
  Ru  Ru10  1  0.03112014  0.27102727  0.49461910  1
  Ru  Ru11  1  0.72881172  0.75978259  0.49511363  1
  Ru  Ru12  1  0.23965284  0.96868398  0.49529221  1
  Ru  Ru13  1  0.96887986  0.72897273  0.99461910  1
  Ru  Ru14  1  0.27118828  0.24021741  0.99511363  1
  Ru  Ru15  1  0.76034716  0.03131602  0.99529221  1
  Ru  Ru16  1  0.50611082  0.51141158  0.65601800  1
  Ru  Ru17  1  0.48953580  0.99593621  0.65640270  1
  Ru  Ru18  1  0.00404857  0.49237638  0.65633935  1
  Ru  Ru19  1  0.49388918  0.48858842  0.15601800  1
  Ru  Ru20  1  0.51046420  0.00406379  0.15640270  1
  Ru  Ru21  1  0.99595143  0.50762362  0.15633935  1
  Ru  Ru22  1  0.49388918  0.48858842  0.34398200  1
  Ru  Ru23  1  0.51046420  0.00406379  0.34359730  1
  Ru  Ru24  1  0.99595143  0.50762362  0.34366065  1
  Ru  Ru25  1  0.50611082  0.51141158  0.84398200  1
  Ru  Ru26  1  0.48953580  0.99593621  0.84359730  1
  Ru  Ru27  1  0.00404857  0.49237638  0.84366065  1
  Ru  Ru28  1  0.75395692  0.50966497  0.50303868  1
  Ru  Ru29  1  0.49032924  0.24411920  0.50291292  1
  Ru  Ru30  1  0.75601212  0.24622128  0.50268165  1
  Ru  Ru31  1  0.24604308  0.49033503  0.00303868  1
  Ru  Ru32  1  0.50967076  0.75588080  0.00291292  1
  Ru  Ru33  1  0.24398788  0.75377872  0.00268165  1
  Ru  Ru34  1  0.24604308  0.49033503  0.49696132  1
  Ru  Ru35  1  0.50967076  0.75588080  0.49708708  1
  Ru  Ru36  1  0.24398788  0.75377872  0.49731835  1
  Ru  Ru37  1  0.75395692  0.50966497  0.99696132  1
  Ru  Ru38  1  0.49032924  0.24411920  0.99708708  1
  Ru  Ru39  1  0.75601212  0.24622128  0.99731835  1
  O  O0  1  0.89109589  0.82603694  0.57841150  1
  O  O1  1  0.17407452  0.06520828  0.57810706  1
  O  O2  1  0.93518239  0.10901819  0.57850158  1
  O  O3  1  0.10890411  0.17396306  0.07841150  1
  O  O4  1  0.82592548  0.93479172  0.07810706  1
  O  O5  1  0.06481761  0.89098181  0.07850158  1
  O  O6  1  0.10890411  0.17396306  0.42158850  1
  O  O7  1  0.82592548  0.93479172  0.42189294  1
  O  O8  1  0.06481761  0.89098181  0.42149842  1
  O  O9  1  0.89109589  0.82603694  0.92158850  1
  O  O10  1  0.17407452  0.06520828  0.92189294  1
  O  O11  1  0.93518239  0.10901819  0.92149842  1
  O  O12  1  0.41478612  0.82960993  0.57424607  1
  O  O13  1  0.17015528  0.58482983  0.57424735  1
  O  O14  1  0.41503156  0.58514991  0.57371745  1
  O  O15  1  0.58521388  0.17039007  0.07424607  1
  O  O16  1  0.82984472  0.41517017  0.07424735  1
  O  O17  1  0.58496844  0.41485009  0.07371745  1
  O  O18  1  0.58521388  0.17039007  0.42575393  1
  O  O19  1  0.82984472  0.41517017  0.42575265  1
  O  O20  1  0.58496844  0.41485009  0.42628255  1
  O  O21  1  0.41478612  0.82960993  0.92575393  1
  O  O22  1  0.17015528  0.58482983  0.92575265  1
  O  O23  1  0.41503156  0.58514991  0.92628255  1
  O  O24  1  0.41989902  0.32380100  0.60268457  1
  O  O25  1  0.67595334  0.09605721  0.60194024  1
  O  O26  1  0.90322888  0.57926057  0.60316753  1
  O  O27  1  0.58010098  0.67619900  0.10268457  1
  O  O28  1  0.32404666  0.90394279  0.10194024  1
  O  O29  1  0.09677112  0.42073943  0.10316753  1
  O  O30  1  0.58010098  0.67619900  0.39731543  1
  O  O31  1  0.32404666  0.90394279  0.39805976  1
  O  O32  1  0.09677112  0.42073943  0.39683247  1
  O  O33  1  0.41989902  0.32380100  0.89731543  1
  O  O34  1  0.67595334  0.09605721  0.89805976  1
  O  O35  1  0.90322888  0.57926057  0.89683247  1
  O  O36  1  0.93131612  0.33819141  0.56946651  1
  O  O37  1  0.66189521  0.59274211  0.57050289  1
  O  O38  1  0.40722896  0.06911009  0.57049575  1
  O  O39  1  0.06868388  0.66180859  0.06946651  1
  O  O40  1  0.33810479  0.40725789  0.07050289  1
  O  O41  1  0.59277104  0.93088991  0.07049575  1
  O  O42  1  0.06868388  0.66180859  0.43053349  1
  O  O43  1  0.33810479  0.40725789  0.42949711  1
  O  O44  1  0.59277104  0.93088991  0.42950425  1
  O  O45  1  0.93131612  0.33819141  0.93053349  1
  O  O46  1  0.66189521  0.59274211  0.92949711  1
  O  O47  1  0.40722896  0.06911009  0.92950425  1
  O  O48  1  0.04560229  0.90147458  0.75000000  1
  O  O49  1  0.09882930  0.14411469  0.75000000  1
  O  O50  1  0.85620743  0.95335563  0.75000000  1
  O  O51  1  0.95439771  0.09852542  0.25000000  1
  O  O52  1  0.90117070  0.85588531  0.25000000  1
  O  O53  1  0.14379257  0.04664437  0.25000000  1
  O  O54  1  0.60847166  0.46012774  0.75000000  1
  O  O55  1  0.53985651  0.15063928  0.75000000  1
  O  O56  1  0.85055965  0.38327538  0.75000000  1
  O  O57  1  0.39152834  0.53987226  0.25000000  1
  O  O58  1  0.46014349  0.84936072  0.25000000  1
  O  O59  1  0.14944035  0.61672462  0.25000000  1
  O  O60  1  0.54035846  0.89667848  0.75000000  1
  O  O61  1  0.10366788  0.64303700  0.75000000  1
  O  O62  1  0.35600025  0.46141233  0.75000000  1
  O  O63  1  0.45964154  0.10332152  0.25000000  1
  O  O64  1  0.89633212  0.35696300  0.25000000  1
  O  O65  1  0.64399975  0.53858767  0.25000000  1
  O  O66  1  0.33372758  0.91617203  0.75000000  1
  O  O67  1  0.08451083  0.41759620  0.75000000  1
  O  O68  1  0.58313205  0.66677893  0.75000000  1
  O  O69  1  0.66627242  0.08382797  0.25000000  1
  O  O70  1  0.91548917  0.58240380  0.25000000  1
  O  O71  1  0.41686795  0.33322107  0.25000000  1
  O  O72  1  0.66691717  0.33341600  0.92012435  1
  O  O73  1  0.33308283  0.66658400  0.42012435  1
  O  O74  1  0.33308283  0.66658400  0.07987565  1
  O  O75  1  0.66691717  0.33341600  0.57987565  1
  O  O76  1  0.14053153  0.81121625  0.91372642  1
  O  O77  1  0.18865459  0.32921962  0.91435324  1
  O  O78  1  0.67105325  0.85958672  0.91416822  1
  O  O79  1  0.85946847  0.18878375  0.41372642  1
  O  O80  1  0.81134541  0.67078038  0.41435324  1
  O  O81  1  0.32894675  0.14041328  0.41416822  1
  O  O82  1  0.85946847  0.18878375  0.08627358  1
  O  O83  1  0.81134541  0.67078038  0.08564676  1
  O  O84  1  0.32894675  0.14041328  0.08583178  1
  O  O85  1  0.14053153  0.81121625  0.58627358  1
  O  O86  1  0.18865459  0.32921962  0.58564676  1
  O  O87  1  0.67105325  0.85958672  0.58583178  1
loop_
_geom_bond_atom_site_label_1
_geom_bond_atom_site_label_2
_geom_bond_distance
_geom_bond_site_symmetry_2
Ni0 O54 1.937993 1_555
Ni0 O56 1.949864 1_555
Ni0 O55 1.951933 1_555
Ni0 O75 2.274194 1_555
Ni0 O72 2.274194 1_555
Ni1 O57 1.937993 1_555
Ni1 O59 1.949864 1_555
Ni1 O58 1.951933 1_555
Ni1 O74 2.274194 1_555
Ni1 O73 2.274194 1_555
Ni2 O61 1.893206 1_555
Ni2 O48 1.897833 1_555
Ni2 O66 1.922552 1_555
Ni2 O85 2.190315 1_555
Ni2 O76 2.190315 1_555
Ni3 O62 1.887734 1_555
Ni3 O49 1.892396 1_555
Ni3 O67 1.920682 1_555
Ni3 O86 2.198712 1_555
Ni3 O77 2.198712 1_555
Ni4 O60 1.887825 1_555
Ni4 O50 1.893635 1_555
Ni4 O68 1.919488 1_555
Ni4 O78 2.196198 1_555
Ni4 O87 2.196198 1_555
Ni5 O64 1.893206 1_555
Ni5 O51 1.897833 1_555
Ni5 O69 1.922552 1_555
Ni5 O79 2.190315 1_555
Ni5 O82 2.190315 1_555
Ni6 O65 1.887734 1_555
Ni6 O52 1.892396 1_555
Ni6 O70 1.920682 1_555
Ni6 O83 2.198712 1_555
Ni6 O80 2.198712 1_555
Ni7 O63 1.887825 1_555
Ni7 O53 1.893635 1_555
Ni7 O71 1.919488 1_555
Ni7 O84 2.196198 1_555
Ni7 O81 2.196198 1_555
O0 Ru11 2.015828 1_555
O0 Ru0 2.034336 1_665
O0 Ru4 2.054517 1_555
O0 Sr2 2.745529 1_555
O1 Ru12 2.014221 1_545
O1 Ru0 2.032571 1_555
O1 Ru5 2.054071 1_555
O1 Sr3 2.764684 1_555
O2 Ru10 2.017857 1_655
O2 Ru0 2.038498 1_655
O2 Ru6 2.055922 1_555
O2 Sr4 2.747466 1_555
O3 Ru14 2.015828 1_554
O3 Ru1 2.034336 1_445
O3 Ru7 2.054517 1_555
O3 Sr5 2.745529 1_555
O4 Ru15 2.014221 1_564
O4 Ru1 2.032571 1_555
O4 Ru8 2.054071 1_555
O4 Sr6 2.764684 1_555
O5 Ru13 2.017857 1_454
O5 Ru1 2.038498 1_455
O5 Ru9 2.055922 1_555
O5 Sr7 2.747466 1_555
O6 Ru5 2.015828 1_555
O6 Ru2 2.034336 1_445
O6 Ru10 2.054517 1_555
O6 Sr5 2.745529 1_555
O7 Ru6 2.014221 1_565
O7 Ru2 2.032571 1_555
O7 Ru11 2.054071 1_555
O7 Sr6 2.764684 1_555
O8 Ru4 2.017857 1_455
O8 Ru2 2.038498 1_455
O8 Ru12 2.055922 1_555
O8 Sr7 2.747466 1_555
O9 Ru8 2.015828 1_556
O9 Ru3 2.034336 1_665
O9 Ru13 2.054517 1_555
O9 Sr2 2.745529 1_555
O10 Ru9 2.014221 1_546
O10 Ru3 2.032571 1_555
O10 Ru14 2.054071 1_555
O10 Sr3 2.764684 1_555
O11 Ru7 2.017857 1_656
O11 Ru3 2.038498 1_655
O11 Ru15 2.055922 1_555
O11 Sr4 2.747466 1_555
O12 Ru35 2.026341 1_555
O12 Ru17 2.037595 1_555
O12 Ru36 2.040319 1_555
O12 Sr0 2.884569 1_555
O13 Ru36 2.025524 1_555
O13 Ru18 2.034718 1_555
O13 Ru34 2.042130 1_555
O13 Sr0 2.885116 1_555
O14 Ru34 2.023230 1_555
O14 Ru16 2.027970 1_555
O14 Ru35 2.037830 1_555
O14 Sr0 2.901981 1_555
O15 Ru38 2.026341 1_554
O15 Ru20 2.037595 1_555
O15 Ru39 2.040319 1_554
O15 Sr1 2.884569 1_555
O16 Ru39 2.025524 1_554
O16 Ru21 2.034718 1_555
O16 Ru37 2.042130 1_554
O16 Sr1 2.885116 1_555
O17 Ru37 2.023230 1_554
O17 Ru19 2.027970 1_555
O17 Ru38 2.037830 1_554
O17 Sr1 2.901981 1_555
O18 Ru29 2.026341 1_555
O18 Ru23 2.037595 1_555
O18 Ru30 2.040319 1_555
O18 Sr1 2.884569 1_555
O19 Ru30 2.025524 1_555
O19 Ru24 2.034718 1_555
O19 Ru28 2.042130 1_555
O19 Sr1 2.885116 1_555
O20 Ru28 2.023230 1_555
O20 Ru22 2.027970 1_555
O20 Ru29 2.037830 1_555
O20 Sr1 2.901981 1_555
O21 Ru32 2.026341 1_556
O21 Ru26 2.037595 1_555
O21 Ru33 2.040319 1_556
O21 Sr0 2.884569 1_555
O22 Ru33 2.025524 1_556
O22 Ru27 2.034718 1_555
O22 Ru31 2.042130 1_556
O22 Sr0 2.885116 1_555
O23 Ru31 2.023230 1_556
O23 Ru25 2.027970 1_555
O23 Ru32 2.037830 1_556
O23 Sr0 2.901981 1_555
O24 Ru5 2.015972 1_555
O24 Ru29 2.044678 1_555
O24 Ru16 2.061878 1_555
O24 Sr3 2.720431 1_555
O25 Ru6 2.017550 1_555
O25 Ru30 2.038532 1_555
O25 Ru17 2.054056 1_545
O25 Sr4 2.731808 1_555
O26 Ru4 2.024664 1_555
O26 Ru28 2.038842 1_555
O26 Ru18 2.064640 1_655
O26 Sr2 2.740101 1_555
O27 Ru8 2.015972 1_555
O27 Ru32 2.044678 1_555
O27 Ru19 2.061878 1_555
O27 Sr6 2.720431 1_555
O28 Ru9 2.017550 1_555
O28 Ru33 2.038532 1_555
O28 Ru20 2.054056 1_565
O28 Sr7 2.731808 1_555
O29 Ru7 2.024664 1_555
O29 Ru31 2.038842 1_555
O29 Ru21 2.064640 1_455
O29 Sr5 2.740101 1_555
O30 Ru11 2.015972 1_555
O30 Ru35 2.044678 1_555
O30 Ru22 2.061878 1_555
O30 Sr6 2.720431 1_555
O31 Ru12 2.017550 1_555
O31 Ru36 2.038532 1_555
O31 Ru23 2.054056 1_565
O31 Sr7 2.731808 1_555
O32 Ru10 2.024664 1_555
O32 Ru34 2.038842 1_555
O32 Ru24 2.064640 1_455
O32 Sr5 2.740101 1_555
O33 Ru14 2.015972 1_555
O33 Ru38 2.044678 1_555
O33 Ru25 2.061878 1_555
O33 Sr3 2.720431 1_555
O34 Ru15 2.017550 1_555
O34 Ru39 2.038532 1_555
O34 Ru26 2.054056 1_545
O34 Sr4 2.731808 1_555
O35 Ru13 2.024664 1_555
O35 Ru37 2.038842 1_555
O35 Ru27 2.064640 1_655
O35 Sr2 2.740101 1_555
O36 Ru18 1.968147 1_655
O36 Ru10 2.001538 1_655
O36 Ru30 2.013999 1_555
O36 Sr4 2.917857 1_555
O37 Ru16 1.969799 1_555
O37 Ru11 2.004110 1_555
O37 Ru28 2.020276 1_555
O37 Sr2 2.891838 1_555
O38 Ru17 1.973602 1_545
O38 Ru12 2.006130 1_545
O38 Ru29 2.017076 1_555
O38 Sr3 2.892157 1_555
O39 Ru21 1.968147 1_455
O39 Ru13 2.001538 1_454
O39 Ru33 2.013999 1_555
O39 Sr7 2.917857 1_555
O40 Ru19 1.969799 1_555
O40 Ru14 2.004110 1_554
O40 Ru31 2.020276 1_555
O40 Sr5 2.891838 1_555
O41 Ru20 1.973602 1_565
O41 Ru15 2.006130 1_564
O41 Ru32 2.017076 1_555
O41 Sr6 2.892157 1_555
O42 Ru24 1.968147 1_455
O42 Ru4 2.001538 1_455
O42 Ru36 2.013999 1_555
O42 Sr7 2.917857 1_555
O43 Ru22 1.969799 1_555
O43 Ru5 2.004110 1_555
O43 Ru34 2.020276 1_555
O43 Sr5 2.891838 1_555
O44 Ru23 1.973602 1_565
O44 Ru6 2.006130 1_565
O44 Ru35 2.017076 1_555
O44 Sr6 2.892157 1_555
O45 Ru27 1.968147 1_655
O45 Ru7 2.001538 1_656
O45 Ru39 2.013999 1_555
O45 Sr4 2.917857 1_555
O46 Ru25 1.969799 1_555
O46 Ru8 2.004110 1_556
O46 Ru37 2.020276 1_555
O46 Sr2 2.891838 1_555
O47 Ru26 1.973602 1_545
O47 Ru9 2.006130 1_546
O47 Ru38 2.017076 1_555
O47 Sr3 2.892157 1_555
O48 Ru3 2.041999 1_565
O48 Ru0 2.041999 1_565
O48 Sr2 2.668916 1_455
O48 Sr3 3.101676 1_565
O49 Ru0 2.041348 1_555
O49 Ru3 2.041348 1_555
O49 Sr3 2.688117 1_555
O49 Sr4 3.090193 1_455
O50 Ru3 2.040988 1_665
O50 Ru0 2.040988 1_665
O50 Sr4 2.674956 1_565
O50 Sr2 3.059988 1_555
O51 Ru2 2.041999 1_545
O51 Ru1 2.041999 1_545
O51 Sr5 2.668916 1_655
O51 Sr6 3.101676 1_545
O52 Ru2 2.041348 1_555
O52 Ru1 2.041348 1_555
O52 Sr6 2.688117 1_555
O52 Sr7 3.090193 1_655
O53 Ru2 2.040988 1_445
O53 Ru1 2.040988 1_445
O53 Sr7 2.674956 1_545
O53 Sr5 3.059988 1_555
O54 Ru25 2.045220 1_555
O54 Ru16 2.045220 1_555
O54 Sr2 2.552703 1_555
O55 Ru17 2.051949 1_545
O55 Ru26 2.051949 1_545
O55 Sr3 2.524355 1_555
O56 Ru27 2.051890 1_655
O56 Ru18 2.051890 1_655
O56 Sr4 2.480270 1_555
O57 Ru22 2.045220 1_555
O57 Ru19 2.045220 1_555
O57 Sr5 2.552703 1_555
O58 Ru20 2.051949 1_565
O58 Ru23 2.051949 1_565
O58 Sr6 2.524355 1_555
O59 Ru21 2.051890 1_455
O59 Ru24 2.051890 1_455
O59 Sr7 2.480270 1_555
O60 Ru26 2.011607 1_555
O60 Ru17 2.011607 1_555
O60 Sr0 2.606943 1_555
O61 Ru18 2.014128 1_555
O61 Ru27 2.014128 1_555
O61 Sr0 2.595742 1_555
O62 Ru25 2.014256 1_555
O62 Ru16 2.014256 1_555
O62 Sr0 2.599082 1_555
O63 Ru23 2.011607 1_555
O63 Ru20 2.011607 1_555
O63 Sr1 2.606943 1_555
O64 Ru21 2.014128 1_555
O64 Ru24 2.014128 1_555
O64 Sr1 2.595742 1_555
O65 Ru19 2.014256 1_555
O65 Ru22 2.014256 1_555
O65 Sr1 2.599082 1_555
O66 Ru26 2.034328 1_555
O66 Ru17 2.034328 1_555
O66 Sr3 2.749018 1_565
O66 Sr0 2.960797 1_555
O67 Ru18 2.033282 1_555
O67 Ru27 2.033282 1_555
O67 Sr4 2.761869 1_455
O67 Sr0 2.957727 1_555
O68 Ru25 2.034495 1_555
O68 Ru16 2.034495 1_555
O68 Sr2 2.727475 1_555
O68 Sr0 2.981377 1_555
O69 Ru23 2.034328 1_555
O69 Ru20 2.034328 1_555
O69 Sr6 2.749018 1_545
O69 Sr1 2.960797 1_555
O70 Ru21 2.033282 1_555
O70 Ru24 2.033282 1_555
O70 Sr7 2.761869 1_655
O70 Sr1 2.957727 1_555
O71 Ru19 2.034495 1_555
O71 Ru22 2.034495 1_555
O71 Sr5 2.727475 1_555
O71 Sr1 2.981377 1_555
O72 Ru37 2.085821 1_555
O72 Ru38 2.088846 1_555
O72 Ru39 2.091274 1_555
O73 Ru34 2.085821 1_555
O73 Ru35 2.088846 1_555
O73 Ru36 2.091274 1_555
O74 Ru31 2.085821 1_555
O74 Ru32 2.088846 1_555
O74 Ru33 2.091274 1_555
O75 Ru28 2.085821 1_555
O75 Ru29 2.088846 1_555
O75 Ru30 2.091274 1_555
O76 Ru9 2.041181 1_556
O76 Ru33 2.060111 1_556
O76 Ru13 2.072200 1_455
O77 Ru7 2.042635 1_556
O77 Ru31 2.058543 1_556
O77 Ru14 2.073524 1_555
O78 Ru8 2.043611 1_556
O78 Ru32 2.059297 1_556
O78 Ru15 2.075043 1_565
O79 Ru6 2.041181 1_555
O79 Ru30 2.060111 1_555
O79 Ru10 2.072200 1_655
O80 Ru4 2.042635 1_555
O80 Ru28 2.058543 1_555
O80 Ru11 2.073524 1_555
O81 Ru5 2.043611 1_555
O81 Ru29 2.059297 1_555
O81 Ru12 2.075043 1_545
O82 Ru15 2.041181 1_554
O82 Ru39 2.060111 1_554
O82 Ru7 2.072200 1_655
O83 Ru13 2.042635 1_554
O83 Ru37 2.058543 1_554
O83 Ru8 2.073524 1_555
O84 Ru14 2.043611 1_554
O84 Ru38 2.059297 1_554
O84 Ru9 2.075043 1_545
O85 Ru12 2.041181 1_555
O85 Ru36 2.060111 1_555
O85 Ru4 2.072200 1_455
O86 Ru10 2.042635 1_555
O86 Ru34 2.058543 1_555
O86 Ru5 2.073524 1_555
O87 Ru11 2.043611 1_555
O87 Ru35 2.059297 1_555
O87 Ru6 2.075043 1_565
