# generated using pymatgen
data_Na2Cu2Si5(H3O8)2
_symmetry_space_group_name_H-M   'P 1'
_cell_length_a   5.26147224
_cell_length_b   11.37238683
_cell_length_c   11.93809766
_cell_angle_alpha   95.67923444
_cell_angle_beta   90.00000000
_cell_angle_gamma   90.00000000
_symmetry_Int_Tables_number   1
_chemical_formula_structural   Na2Cu2Si5(H3O8)2
_chemical_formula_sum   'Na4 Cu4 Si10 H12 O32'
_cell_volume   710.81576499
_cell_formula_units_Z   2
loop_
 _symmetry_equiv_pos_site_id
 _symmetry_equiv_pos_as_xyz
  1  'x, y, z'
loop_
 _atom_site_type_symbol
 _atom_site_label
 _atom_site_symmetry_multiplicity
 _atom_site_fract_x
 _atom_site_fract_y
 _atom_site_fract_z
 _atom_site_occupancy
  Na  Na0  1  0.71629379  0.76110637  0.94076364  1
  Na  Na1  1  0.26767747  0.22409190  0.06740614  1
  Na  Na2  1  0.73232253  0.72409190  0.56740614  1
  Na  Na3  1  0.28370621  0.26110637  0.44076364  1
  Cu  Cu0  1  0.23703596  0.92252841  0.98132484  1
  Cu  Cu1  1  0.75881727  0.07382668  0.01833442  1
  Cu  Cu2  1  0.24118273  0.57382668  0.51833442  1
  Cu  Cu3  1  0.76296404  0.42252841  0.48132484  1
  Si  Si0  1  0.54350402  0.88223926  0.20996168  1
  Si  Si1  1  0.45618710  0.11711812  0.78931374  1
  Si  Si2  1  0.54381290  0.61711812  0.28931374  1
  Si  Si3  1  0.45649598  0.38223926  0.70996168  1
  Si  Si4  1  0.19425358  0.75124458  0.74942149  1
  Si  Si5  1  0.80574642  0.25124458  0.24942149  1
  Si  Si6  1  0.94446697  0.98043829  0.76689647  1
  Si  Si7  1  0.05327463  0.01929198  0.23325732  1
  Si  Si8  1  0.94672537  0.51929198  0.73325732  1
  Si  Si9  1  0.05553303  0.48043829  0.26689647  1
  H  H0  1  0.97692141  0.67647753  0.12556306  1
  H  H1  1  0.02287021  0.32678714  0.86954701  1
  H  H2  1  0.97712979  0.82678714  0.36954701  1
  H  H3  1  0.02307859  0.17647753  0.62556306  1
  H  H4  1  0.18315529  0.67268281  0.03038215  1
  H  H5  1  0.83454394  0.32571124  0.97065262  1
  H  H6  1  0.16545606  0.82571124  0.47065262  1
  H  H7  1  0.81684471  0.17268281  0.53038215  1
  H  H8  1  0.50028989  0.53504292  0.91646431  1
  H  H9  1  0.49971011  0.03504292  0.41646431  1
  H  H10  1  0.46375904  0.53501293  0.04834189  1
  H  H11  1  0.53624096  0.03501293  0.54834189  1
  O  O0  1  0.82161483  0.92974557  0.26460436  1
  O  O1  1  0.17717106  0.06999864  0.73687023  1
  O  O2  1  0.82282894  0.56999864  0.23687023  1
  O  O3  1  0.17838517  0.42974557  0.76460436  1
  O  O4  1  0.35751490  0.81680459  0.85179969  1
  O  O5  1  0.64548622  0.18775663  0.14447483  1
  O  O6  1  0.35451378  0.68775663  0.64447483  1
  O  O7  1  0.64248510  0.31680459  0.35179969  1
  O  O8  1  0.03701167  0.71900170  0.06303648  1
  O  O9  1  0.98659871  0.28771990  0.93772258  1
  O  O10  1  0.01340129  0.78771990  0.43772258  1
  O  O11  1  0.96298833  0.21900170  0.56303648  1
  O  O12  1  0.99288498  0.65175627  0.79881338  1
  O  O13  1  0.00809906  0.34922855  0.19831744  1
  O  O14  1  0.99190094  0.84922855  0.69831744  1
  O  O15  1  0.00711502  0.15175627  0.29881338  1
  O  O16  1  0.67962582  0.46505138  0.78074209  1
  O  O17  1  0.32153824  0.53445347  0.21954827  1
  O  O18  1  0.67846176  0.03445347  0.71954827  1
  O  O19  1  0.32037418  0.96505138  0.28074209  1
  O  O20  1  0.51373769  0.75006547  0.24992512  1
  O  O21  1  0.48626231  0.25006547  0.74992512  1
  O  O22  1  0.52964165  0.89221361  0.07698919  1
  O  O23  1  0.47430744  0.11313236  0.92331821  1
  O  O24  1  0.52569256  0.61313236  0.42331821  1
  O  O25  1  0.47035835  0.39221361  0.57698919  1
  O  O26  1  0.07417015  0.03391908  0.09902701  1
  O  O27  1  0.92312351  0.96361032  0.90078904  1
  O  O28  1  0.07687649  0.46361032  0.40078904  1
  O  O29  1  0.92582985  0.53391908  0.59902701  1
  O  O30  1  0.46574900  0.58554229  0.98659130  1
  O  O31  1  0.53425100  0.08554229  0.48659130  1
loop_
_geom_bond_atom_site_label_1
_geom_bond_atom_site_label_2
_geom_bond_distance
_geom_bond_site_symmetry_2
Na0 O4 2.285995 1_555
Na0 O8 2.312106 1_656
Na0 O22 2.313525 1_556
Na0 O12 2.473648 1_555
Na0 O30 2.497917 1_555
Na0 O27 2.633076 1_555
Na1 O5 2.245877 1_555
Na1 O23 2.302944 1_554
Na1 O9 2.308523 1_454
Na1 O13 2.427508 1_555
Na1 O26 2.453168 1_555
Na2 O6 2.245877 1_555
Na2 O24 2.302944 1_555
Na2 O10 2.308523 1_655
Na2 O14 2.427508 1_555
Na2 O29 2.453168 1_555
Na3 O7 2.285995 1_555
Na3 O11 2.312106 1_455
Na3 O25 2.313525 1_555
Na3 O15 2.473648 1_555
Na3 O31 2.497917 1_555
Na3 O28 2.633076 1_555
Cu0 O4 1.967349 1_555
Cu0 O22 1.967544 1_556
Cu0 O27 1.989842 1_455
Cu0 O26 1.990264 1_566
Cu1 O23 1.956440 1_554
Cu1 O5 1.978835 1_555
Cu1 O27 1.984808 1_544
Cu1 O26 1.993363 1_655
Cu1 O22 2.548780 1_545
Cu2 O24 1.956440 1_555
Cu2 O6 1.978835 1_555
Cu2 O28 1.984808 1_555
Cu2 O29 1.993363 1_455
Cu2 O25 2.548780 1_555
Cu3 O7 1.967349 1_555
Cu3 O25 1.967544 1_555
Cu3 O28 1.989842 1_655
Cu3 O29 1.990264 1_555
H0 O8 0.981050 1_655
H1 O9 0.983764 1_455
H2 O10 0.983764 1_655
H3 O11 0.981050 1_455
H4 O8 0.989976 1_555
H5 O9 0.973473 1_555
H6 O10 0.973473 1_555
H7 O11 0.989976 1_555
H8 O30 0.984157 1_555
H9 O31 0.984157 1_555
H10 O30 0.978572 1_554
H11 O31 0.978572 1_555
O0 Si7 1.654741 1_665
O0 Si0 1.669979 1_555
O1 Si6 1.654447 1_445
O1 Si1 1.663684 1_555
O2 Si9 1.654447 1_655
O2 Si2 1.663684 1_555
O3 Si8 1.654741 1_455
O3 Si3 1.669979 1_555
O4 Si4 1.614675 1_555
O5 Si5 1.619545 1_555
O6 Si4 1.619545 1_555
O7 Si5 1.614675 1_555
O12 Si8 1.645442 1_555
O12 Si4 1.697752 1_655
O13 Si9 1.648436 1_555
O13 Si5 1.697637 1_455
O14 Si6 1.648436 1_555
O14 Si4 1.697637 1_655
O15 Si7 1.645442 1_555
O15 Si5 1.697752 1_455
O16 Si8 1.657114 1_555
O16 Si3 1.679788 1_555
O17 Si9 1.650572 1_555
O17 Si2 1.670387 1_555
O18 Si6 1.650572 1_545
O18 Si1 1.670387 1_555
O19 Si7 1.657114 1_565
O19 Si0 1.679788 1_555
O20 Si0 1.628950 1_555
O20 Si2 1.634867 1_555
O21 Si3 1.628950 1_555
O21 Si1 1.634867 1_555
O22 Si0 1.604302 1_555
O23 Si1 1.607707 1_555
O24 Si2 1.607707 1_555
O25 Si3 1.604302 1_555
O26 Si7 1.631066 1_555
O27 Si6 1.632401 1_555
O28 Si9 1.632401 1_555
O29 Si8 1.631066 1_555
