# generated using pymatgen
data_SrMgPb
_symmetry_space_group_name_H-M   'P 1'
_cell_length_a   4.91517058
_cell_length_b   8.27212249
_cell_length_c   8.99834212
_cell_angle_alpha   90.00000000
_cell_angle_beta   90.00000000
_cell_angle_gamma   90.00000000
_symmetry_Int_Tables_number   1
_chemical_formula_structural   SrMgPb
_chemical_formula_sum   'Sr4 Mg4 Pb4'
_cell_volume   365.86263031
_cell_formula_units_Z   4
loop_
 _symmetry_equiv_pos_site_id
 _symmetry_equiv_pos_as_xyz
  1  'x, y, z'
loop_
 _atom_site_type_symbol
 _atom_site_label
 _atom_site_symmetry_multiplicity
 _atom_site_fract_x
 _atom_site_fract_y
 _atom_site_fract_z
 _atom_site_occupancy
  Sr  Sr0  1  0.75000000  0.98802160  0.18863903  1
  Sr  Sr1  1  0.75000000  0.48802160  0.31136097  1
  Sr  Sr2  1  0.25000000  0.01197840  0.81136097  1
  Sr  Sr3  1  0.25000000  0.51197840  0.68863903  1
  Mg  Mg0  1  0.75000000  0.85403248  0.56574775  1
  Mg  Mg1  1  0.75000000  0.35403248  0.93425225  1
  Mg  Mg2  1  0.25000000  0.14596752  0.43425225  1
  Mg  Mg3  1  0.25000000  0.64596752  0.06574775  1
  Pb  Pb0  1  0.75000000  0.22371078  0.60838133  1
  Pb  Pb1  1  0.75000000  0.72371078  0.89161867  1
  Pb  Pb2  1  0.25000000  0.77628922  0.39161867  1
  Pb  Pb3  1  0.25000000  0.27628922  0.10838133  1
loop_
_geom_bond_atom_site_label_1
_geom_bond_atom_site_label_2
_geom_bond_distance
_geom_bond_site_symmetry_2
Sr0 Sr2 4.195735 1_664
Sr0 Sr2 4.195735 1_564
Sr0 Sr1 4.280942 1_555
Sr0 Sr1 4.280942 1_565
Sr1 Sr3 4.195735 1_555
Sr1 Sr3 4.195735 1_655
Sr2 Sr3 4.280942 1_555
Sr2 Sr3 4.280942 1_545
Mg0 Pb2 2.984694 1_555
Mg0 Pb2 2.984694 1_655
Mg0 Pb0 3.081994 1_565
Mg0 Pb1 3.124186 1_555
Mg0 Sr2 3.554066 1_665
Mg0 Sr2 3.554066 1_565
Mg0 Sr0 3.569782 1_555
Mg0 Sr1 3.795613 1_555
Mg0 Sr3 3.907519 1_555
Mg0 Sr3 3.907519 1_655
Mg1 Pb3 2.984694 1_556
Mg1 Pb3 2.984694 1_656
Mg1 Pb1 3.081994 1_555
Mg1 Pb0 3.124186 1_555
Mg1 Sr3 3.554066 1_555
Mg1 Sr3 3.554066 1_655
Mg1 Sr1 3.569782 1_556
Mg1 Sr0 3.795613 1_546
Mg1 Sr2 3.907519 1_555
Mg1 Sr2 3.907519 1_655
Mg2 Pb0 2.984694 1_555
Mg2 Pb0 2.984694 1_455
Mg2 Pb2 3.081994 1_545
Mg2 Pb3 3.124186 1_555
Mg2 Sr0 3.554066 1_445
Mg2 Sr0 3.554066 1_545
Mg2 Sr2 3.569782 1_555
Mg2 Sr3 3.795613 1_555
Mg2 Sr1 3.907519 1_455
Mg2 Sr1 3.907519 1_555
Mg3 Pb1 2.984694 1_554
Mg3 Pb1 2.984694 1_454
Mg3 Pb3 3.081994 1_555
Mg3 Pb2 3.124186 1_555
Mg3 Sr1 3.554066 1_555
Mg3 Sr1 3.554066 1_455
Mg3 Sr3 3.569782 1_554
Mg3 Sr2 3.795613 1_564
Mg3 Sr0 3.907519 1_555
Mg3 Sr0 3.907519 1_455
Pb0 Sr1 3.453067 1_555
Pb0 Sr3 3.499646 1_555
Pb0 Sr3 3.499646 1_655
Pb0 Sr2 3.527524 1_655
Pb0 Sr2 3.527524 1_555
Pb1 Sr0 3.453067 1_556
Pb1 Sr2 3.499646 1_565
Pb1 Sr2 3.499646 1_665
Pb1 Sr3 3.527524 1_555
Pb1 Sr3 3.527524 1_655
Pb2 Sr3 3.453067 1_555
Pb2 Sr1 3.499646 1_455
Pb2 Sr1 3.499646 1_555
Pb2 Sr0 3.527524 1_555
Pb2 Sr0 3.527524 1_455
Pb3 Sr2 3.453067 1_554
Pb3 Sr0 3.499646 1_445
Pb3 Sr0 3.499646 1_545
Pb3 Sr1 3.527524 1_455
Pb3 Sr1 3.527524 1_555
