# generated using pymatgen
data_Y2CoGe6
_symmetry_space_group_name_H-M   'P 1'
_cell_length_a   4.07886900
_cell_length_b   4.00705500
_cell_length_c   10.93652337
_cell_angle_alpha   100.55597694
_cell_angle_beta   90.00000000
_cell_angle_gamma   90.00000000
_symmetry_Int_Tables_number   1
_chemical_formula_structural   Y2CoGe6
_chemical_formula_sum   'Y2 Co1 Ge6'
_cell_volume   175.72421656
_cell_formula_units_Z   1
loop_
 _symmetry_equiv_pos_site_id
 _symmetry_equiv_pos_as_xyz
  1  'x, y, z'
loop_
 _atom_site_type_symbol
 _atom_site_label
 _atom_site_symmetry_multiplicity
 _atom_site_fract_x
 _atom_site_fract_y
 _atom_site_fract_z
 _atom_site_occupancy
  Y  Y0  1  0.50000000  0.22264000  0.44528100  1
  Y  Y1  1  0.50000000  0.88613400  0.77226900  1
  Co  Co0  1  0.00000000  0.44554200  0.89108500  1
  Ge  Ge0  1  0.50000000  0.49990400  0.99980800  1
  Ge  Ge1  1  0.50000000  0.61653500  0.23307100  1
  Ge  Ge2  1  0.00000000  0.00090500  0.00181000  1
  Ge  Ge3  1  0.00000000  0.11852200  0.23704400  1
  Ge  Ge4  1  0.00000000  0.33896400  0.67792800  1
  Ge  Ge5  1  0.00000000  0.76385200  0.52770400  1
loop_
_geom_bond_atom_site_label_1
_geom_bond_atom_site_label_2
_geom_bond_distance
_geom_bond_site_symmetry_2
Co0 Ge4 2.291744 1_555
Co0 Ge2 2.330513 1_556
Co0 Ge2 2.330517 1_566
Co0 Ge0 2.350678 1_455
Co0 Ge0 2.350678 1_555
Co0 Y1 3.131338 1_545
Co0 Y1 3.131338 1_445
Co0 Y1 3.131338 1_455
Co0 Y1 3.131338 1_555
Ge0 Ge1 2.507913 1_556
Ge0 Ge2 2.859000 1_566
Ge0 Ge2 2.859000 1_666
Ge0 Ge2 2.859000 1_556
Ge0 Ge2 2.859000 1_656
Ge0 Y1 3.162096 1_555
Ge0 Y1 3.162098 1_545
Ge1 Ge3 2.859236 1_555
Ge1 Ge3 2.859236 1_655
Ge1 Ge3 2.859239 1_665
Ge1 Ge3 2.859239 1_565
Ge1 Y0 3.036388 1_565
Ge1 Y0 3.036388 1_555
Ge2 Ge3 2.529104 1_555
Ge2 Y1 3.201531 1_444
Ge2 Y1 3.201531 1_544
Ge3 Y0 3.028486 1_455
Ge3 Y0 3.028486 1_555
Ge4 Ge5 2.573470 1_545
Ge4 Ge5 2.573470 1_555
Ge4 Y1 3.033515 1_555
Ge4 Y1 3.033515 1_455
Ge4 Y1 3.033518 1_445
Ge4 Y1 3.033518 1_545
Ge4 Y0 3.227343 1_555
Ge4 Y0 3.227343 1_455
Ge5 Y0 2.993108 1_565
Ge5 Y0 2.993108 1_465
Ge5 Y0 2.993111 1_455
Ge5 Y0 2.993111 1_555
Ge5 Y1 3.327637 1_555
Ge5 Y1 3.327637 1_455
