# generated using pymatgen
data_Li3Mn2O5
_symmetry_space_group_name_H-M   'P 1'
_cell_length_a   5.20630921
_cell_length_b   7.62885930
_cell_length_c   5.23841484
_cell_angle_alpha   69.92057665
_cell_angle_beta   67.70925954
_cell_angle_gamma   82.51593953
_symmetry_Int_Tables_number   1
_chemical_formula_structural   Li3Mn2O5
_chemical_formula_sum   'Li6 Mn4 O10'
_cell_volume   180.81091454
_cell_formula_units_Z   2
loop_
 _symmetry_equiv_pos_site_id
 _symmetry_equiv_pos_as_xyz
  1  'x, y, z'
loop_
 _atom_site_type_symbol
 _atom_site_label
 _atom_site_symmetry_multiplicity
 _atom_site_fract_x
 _atom_site_fract_y
 _atom_site_fract_z
 _atom_site_occupancy
  Li  Li0  1  0.50000300  0.80000200  0.09999600  1
  Li  Li1  1  0.00000200  0.79998900  0.60000500  1
  Li  Li2  1  0.50001100  0.19466900  0.90268100  1
  Li  Li3  1  0.49999100  0.40539600  0.29728300  1
  Li  Li4  1  0.50000100  0.60605200  0.69696000  1
  Li  Li5  1  0.50000100  0.99395700  0.50303300  1
  Mn  Mn0  1  0.00002200  0.60159100  0.19918100  1
  Mn  Mn1  1  0.99998300  0.40208100  0.79897400  1
  Mn  Mn2  1  0.99998100  0.99837300  0.00084000  1
  Mn  Mn3  1  0.99999200  0.19787500  0.40105800  1
  O  O0  1  0.23537700  0.80002200  0.88023900  1
  O  O1  1  0.76462700  0.80001500  0.31974200  1
  O  O2  1  0.23525700  0.19385900  0.67847800  1
  O  O3  1  0.23529600  0.40612200  0.07229500  1
  O  O4  1  0.76469900  0.19387000  0.12772800  1
  O  O5  1  0.76475000  0.40613300  0.52150600  1
  O  O6  1  0.21271500  0.59013100  0.44500300  1
  O  O7  1  0.21268700  0.00984800  0.23519000  1
  O  O8  1  0.78733200  0.59014800  0.96479500  1
  O  O9  1  0.78727300  0.00986600  0.75501300  1
loop_
_geom_bond_atom_site_label_1
_geom_bond_atom_site_label_2
_geom_bond_distance
_geom_bond_site_symmetry_2
Li0 O0 2.103884 1_554
Li0 O1 2.103898 1_555
Li0 O9 2.157008 1_564
Li0 O7 2.157078 1_565
Li0 O6 2.157121 1_555
Li0 O8 2.157168 1_554
Li1 O8 2.048516 1_455
Li1 O7 2.048672 1_565
Li1 O6 2.048764 1_555
Li1 O9 2.048925 1_465
Li1 O1 2.240908 1_455
Li1 O0 2.240910 1_555
Li2 O9 2.035850 1_555
Li2 O7 2.036207 1_556
Li2 O4 2.124648 1_556
Li2 O2 2.124778 1_555
Li2 O3 2.183381 1_556
Li2 O5 2.183771 1_555
Li3 O6 2.035602 1_555
Li3 O8 2.035954 1_554
Li3 O3 2.124583 1_555
Li3 O5 2.124729 1_555
Li3 O4 2.183681 1_555
Li3 O2 2.184088 1_555
Li4 O1 2.109608 1_555
Li4 O0 2.109643 1_555
Li4 O3 2.127027 1_556
Li4 O5 2.127103 1_555
Li4 O6 2.376735 1_555
Li4 O8 2.376779 1_555
Li5 O0 2.109476 1_555
Li5 O1 2.109510 1_555
Li5 O4 2.126882 1_565
Li5 O2 2.126971 1_565
Li5 O9 2.376742 1_565
Li5 O7 2.376761 1_565
Mn0 O5 1.937217 1_455
Mn0 O3 1.937269 1_555
Mn0 O0 1.943693 1_554
Mn0 O1 1.943771 1_455
Mn0 O6 1.967561 1_555
Mn0 O8 1.967614 1_454
Mn1 O8 1.936785 1_555
Mn1 O6 1.937113 1_655
Mn1 O2 2.004299 1_655
Mn1 O4 2.004395 1_556
Mn1 O3 2.218699 1_656
Mn1 O5 2.218819 1_555
Mn2 O2 1.937415 1_664
Mn2 O4 1.937462 1_565
Mn2 O1 1.943302 1_555
Mn2 O0 1.943397 1_654
Mn2 O9 1.967582 1_564
Mn2 O7 1.967601 1_665
Mn3 O7 1.936724 1_655
Mn3 O9 1.936899 1_555
Mn3 O5 2.004370 1_555
Mn3 O3 2.004611 1_655
Mn3 O4 2.218572 1_555
Mn3 O2 2.218814 1_655
