# generated using pymatgen
data_Ca3Al4CoO10
_symmetry_space_group_name_H-M   'P 1'
_cell_length_a   5.25042709
_cell_length_b   11.59687050
_cell_length_c   16.66329458
_cell_angle_alpha   90.00862047
_cell_angle_beta   89.98147303
_cell_angle_gamma   90.01978427
_symmetry_Int_Tables_number   1
_chemical_formula_structural   Ca3Al4CoO10
_chemical_formula_sum   'Ca12 Al16 Co4 O40'
_cell_volume   1014.60327026
_cell_formula_units_Z   4
loop_
 _symmetry_equiv_pos_site_id
 _symmetry_equiv_pos_as_xyz
  1  'x, y, z'
loop_
 _atom_site_type_symbol
 _atom_site_label
 _atom_site_symmetry_multiplicity
 _atom_site_fract_x
 _atom_site_fract_y
 _atom_site_fract_z
 _atom_site_occupancy
  Ca  Ca0  1  0.37824500  0.62250100  0.07289000  1
  Ca  Ca1  1  0.74289200  0.02278400  0.58879100  1
  Ca  Ca2  1  0.71331600  0.29052300  0.71272200  1
  Ca  Ca3  1  0.61952600  0.12198700  0.92670200  1
  Ca  Ca4  1  0.70963100  0.79085000  0.78690900  1
  Ca  Ca5  1  0.25541800  0.02168900  0.08776300  1
  Ca  Ca6  1  0.25557300  0.52343400  0.41145600  1
  Ca  Ca7  1  0.37778200  0.12416500  0.42827200  1
  Ca  Ca8  1  0.28431900  0.79139400  0.28707100  1
  Ca  Ca9  1  0.29073500  0.29194700  0.21266500  1
  Ca  Ca10  1  0.74178000  0.52133500  0.91184500  1
  Ca  Ca11  1  0.62302900  0.62278300  0.57230200  1
  Al  Al0  1  0.03415800  0.56158400  0.74233400  1
  Al  Al1  1  0.33869900  0.32114300  0.01800900  1
  Al  Al2  1  0.13082600  0.79067400  0.67652000  1
  Al  Al3  1  0.13045000  0.29053300  0.82420500  1
  Al  Al4  1  0.33953500  0.82249500  0.48303100  1
  Al  Al5  1  0.03793200  0.06140600  0.75793300  1
  Al  Al6  1  0.87062800  0.29174500  0.32346500  1
  Al  Al7  1  0.66363600  0.32351400  0.51733200  1
  Al  Al8  1  0.96767000  0.06226400  0.25781300  1
  Al  Al9  1  0.86264400  0.96384900  0.42238800  1
  Al  Al10  1  0.85955700  0.46397800  0.07865400  1
  Al  Al11  1  0.14076900  0.46369900  0.57837600  1
  Al  Al12  1  0.86752100  0.79129900  0.17560300  1
  Al  Al13  1  0.66001700  0.82134000  0.98170400  1
  Al  Al14  1  0.13909000  0.96369600  0.92092200  1
  Al  Al15  1  0.96187600  0.56181700  0.24185100  1
  Co  Co0  1  0.20558700  0.72365000  0.87491900  1
  Co  Co1  1  0.79323300  0.22422800  0.12518700  1
  Co  Co2  1  0.78810500  0.72647900  0.37398400  1
  Co  Co3  1  0.21072400  0.22535300  0.62590200  1
  O  O0  1  0.69639500  0.29876300  0.41347000  1
  O  O1  1  0.30338600  0.29635100  0.91434600  1
  O  O2  1  0.67832400  0.75465800  0.25974100  1
  O  O3  1  0.30722100  0.79770300  0.58692600  1
  O  O4  1  0.97630200  0.05305900  0.98756200  1
  O  O5  1  0.26344600  0.01453000  0.82915300  1
  O  O6  1  0.73639900  0.51478300  0.17059900  1
  O  O7  1  0.92994500  0.34192700  0.58583300  1
  O  O8  1  0.25750100  0.51342300  0.67101900  1
  O  O9  1  0.43372300  0.93488000  0.97186600  1
  O  O10  1  0.69486100  0.79665500  0.08540300  1
  O  O11  1  0.02544400  0.05267600  0.48939600  1
  O  O12  1  0.56463200  0.43491700  0.02790400  1
  O  O13  1  0.05335000  0.63510700  0.32991000  1
  O  O14  1  0.74745800  0.01347300  0.32963800  1
  O  O15  1  0.07311600  0.34303900  0.08652400  1
  O  O16  1  0.97608100  0.55174200  0.51140700  1
  O  O17  1  0.50402400  0.19803300  0.55682300  1
  O  O18  1  0.50045300  0.69565300  0.94300800  1
  O  O19  1  0.11278500  0.67772100  0.17781900  1
  O  O20  1  0.56535200  0.93642500  0.47244700  1
  O  O21  1  0.06250100  0.13533500  0.17006500  1
  O  O22  1  0.94527600  0.41835800  0.79383000  1
  O  O23  1  0.68375000  0.25242400  0.23950400  1
  O  O24  1  0.49849000  0.19573200  0.05691300  1
  O  O25  1  0.88436000  0.67787900  0.67766400  1
  O  O26  1  0.43748100  0.43718800  0.52783000  1
  O  O27  1  0.49734100  0.69683500  0.44353500  1
  O  O28  1  0.88535900  0.17691500  0.82205600  1
  O  O29  1  0.02185300  0.55337200  0.01188200  1
  O  O30  1  0.31637300  0.75098600  0.76068100  1
  O  O31  1  0.94714400  0.91881600  0.70727500  1
  O  O32  1  0.07270700  0.84189500  0.41492500  1
  O  O33  1  0.92536900  0.84278300  0.91298600  1
  O  O34  1  0.11748700  0.17913700  0.32226400  1
  O  O35  1  0.31968700  0.25291500  0.74029800  1
  O  O36  1  0.05433200  0.41978200  0.29241700  1
  O  O37  1  0.93697000  0.63444200  0.82990800  1
  O  O38  1  0.05399100  0.91909000  0.20558500  1
  O  O39  1  0.94442600  0.13445500  0.67006600  1
loop_
_geom_bond_atom_site_label_1
_geom_bond_atom_site_label_2
_geom_bond_distance
_geom_bond_site_symmetry_2
Ca0 O29 2.275419 1_555
Ca0 O19 2.325625 1_555
Ca0 O18 2.411366 1_554
Ca0 O12 2.500484 1_555
Ca0 O10 2.623676 1_555
Ca0 O6 2.784190 1_555
Ca1 O39 2.151832 1_555
Ca1 O11 2.249974 1_655
Ca1 O20 2.372828 1_545
Ca1 O17 2.447366 1_555
Ca1 O31 2.550443 1_545
Ca2 O35 2.161369 1_555
Ca2 O39 2.292147 1_555
Ca2 O22 2.346669 1_555
Ca2 O28 2.423540 1_555
Ca2 O7 2.473465 1_555
Ca3 O4 2.275719 1_555
Ca3 O28 2.322206 1_555
Ca3 O24 2.417013 1_556
Ca3 O9 2.494974 1_545
Ca3 O1 2.624694 1_555
Ca3 O5 2.773118 1_555
Ca4 O30 2.160527 1_555
Ca4 O37 2.287049 1_555
Ca4 O31 2.348717 1_555
Ca4 O25 2.422981 1_555
Ca4 O33 2.461718 1_555
Ca5 O21 2.154808 1_555
Ca5 O4 2.251651 1_454
Ca5 O9 2.370322 1_544
Ca5 O24 2.442313 1_555
Ca5 O38 2.527293 1_545
Ca6 O13 2.157155 1_555
Ca6 O16 2.243593 1_455
Ca6 O26 2.382312 1_555
Ca6 O27 2.437044 1_555
Ca6 O36 2.548659 1_555
Ca7 O11 2.268241 1_555
Ca7 O34 2.323142 1_555
Ca7 O17 2.400346 1_555
Ca7 O20 2.500867 1_545
Ca7 O0 2.637536 1_555
Ca7 O14 2.848769 1_555
Ca8 O2 2.160632 1_555
Ca8 O13 2.294215 1_555
Ca8 O38 2.345642 1_555
Ca8 O19 2.421290 1_555
Ca8 O32 2.472826 1_555
Ca9 O23 2.160884 1_555
Ca9 O21 2.288483 1_555
Ca9 O36 2.346072 1_555
Ca9 O34 2.423436 1_555
Ca9 O15 2.465171 1_555
Ca10 O37 2.152594 1_555
Ca10 O29 2.253917 1_656
Ca10 O12 2.368184 1_556
Ca10 O18 2.441881 1_555
Ca10 O22 2.536477 1_555
Ca11 O16 2.268053 1_555
Ca11 O25 2.318172 1_555
Ca11 O27 2.403912 1_555
Ca11 O26 2.475734 1_555
Ca11 O3 2.631652 1_555
Ca11 O8 2.827442 1_555
Al0 O8 1.760270 1_555
Al0 O37 1.761590 1_455
Al0 O25 1.897482 1_455
Al0 O22 1.926803 1_455
Al1 O1 1.760925 1_554
Al1 O12 1.781634 1_555
Al1 O24 1.800225 1_555
Al1 O15 1.819745 1_555
Al2 O3 1.758502 1_555
Al2 O30 1.768902 1_555
Al2 O25 1.839783 1_455
Al2 O31 1.844314 1_455
Al3 O1 1.756686 1_555
Al3 O35 1.769631 1_555
Al3 O28 1.841784 1_455
Al3 O22 1.844018 1_455
Al4 O3 1.763105 1_555
Al4 O20 1.783632 1_555
Al4 O27 1.800955 1_555
Al4 O32 1.817295 1_555
Al5 O39 1.761688 1_455
Al5 O5 1.762789 1_555
Al5 O28 1.891440 1_455
Al5 O31 1.916626 1_445
Al6 O0 1.758393 1_555
Al6 O23 1.768741 1_555
Al6 O34 1.840336 1_655
Al6 O36 1.844344 1_655
Al7 O0 1.762648 1_555
Al7 O26 1.783042 1_555
Al7 O17 1.803326 1_555
Al7 O7 1.817781 1_555
Al8 O14 1.757343 1_555
Al8 O21 1.761687 1_655
Al8 O34 1.899611 1_655
Al8 O38 1.928594 1_645
Al9 O11 1.743034 1_665
Al9 O14 1.756895 1_565
Al9 O20 1.797855 1_555
Al9 O32 1.798064 1_655
Al10 O29 1.742968 1_655
Al10 O6 1.764077 1_555
Al10 O12 1.796364 1_555
Al10 O15 1.800761 1_655
Al11 O16 1.742707 1_455
Al11 O8 1.758232 1_555
Al11 O26 1.797297 1_555
Al11 O7 1.798283 1_455
Al12 O10 1.756620 1_555
Al12 O2 1.769737 1_555
Al12 O19 1.842753 1_655
Al12 O38 1.844851 1_655
Al13 O10 1.761158 1_556
Al13 O9 1.781444 1_555
Al13 O18 1.800388 1_555
Al13 O33 1.820130 1_555
Al14 O4 1.742767 1_465
Al14 O5 1.763964 1_565
Al14 O9 1.796285 1_555
Al14 O33 1.800502 1_455
Al15 O13 1.762379 1_655
Al15 O6 1.763221 1_555
Al15 O19 1.889992 1_655
Al15 O36 1.913110 1_655
Co0 O37 1.902984 1_455
Co0 O18 1.947084 1_555
Co0 O30 2.015391 1_555
Co0 O33 2.115716 1_455
Co1 O21 1.903317 1_655
Co1 O24 1.949105 1_555
Co1 O23 2.016240 1_555
Co1 O15 2.114520 1_655
Co2 O13 1.897836 1_655
Co2 O27 1.946940 1_555
Co2 O2 2.015934 1_555
Co2 O32 2.118675 1_655
Co3 O39 1.899006 1_455
Co3 O17 1.948307 1_555
Co3 O35 2.015816 1_555
Co3 O7 2.109264 1_455
