# generated using pymatgen
data_Cs2Mo5O16
_symmetry_space_group_name_H-M   'P 1'
_cell_length_a   11.45316438
_cell_length_b   11.45316438
_cell_length_c   14.74755665
_cell_angle_alpha   58.77089085
_cell_angle_beta   58.77089085
_cell_angle_gamma   28.89331686
_symmetry_Int_Tables_number   1
_chemical_formula_structural   Cs2Mo5O16
_chemical_formula_sum   'Cs4 Mo10 O32'
_cell_volume   789.46658508
_cell_formula_units_Z   2
loop_
 _symmetry_equiv_pos_site_id
 _symmetry_equiv_pos_as_xyz
  1  'x, y, z'
loop_
 _atom_site_type_symbol
 _atom_site_label
 _atom_site_symmetry_multiplicity
 _atom_site_fract_x
 _atom_site_fract_y
 _atom_site_fract_z
 _atom_site_occupancy
  Cs  Cs0  1  0.94611600  0.61673400  0.33343200  1
  Cs  Cs1  1  0.38326600  0.05388400  0.16656800  1
  Cs  Cs2  1  0.05388400  0.38326600  0.66656800  1
  Cs  Cs3  1  0.61673400  0.94611600  0.83343200  1
  Mo  Mo0  1  0.12461700  0.87538300  0.25000000  1
  Mo  Mo1  1  0.87538300  0.12461700  0.75000000  1
  Mo  Mo2  1  0.67345900  0.11207600  0.46220500  1
  Mo  Mo3  1  0.88792400  0.32654100  0.03779500  1
  Mo  Mo4  1  0.32654100  0.88792400  0.53779500  1
  Mo  Mo5  1  0.11207600  0.67345900  0.96220500  1
  Mo  Mo6  1  0.26870800  0.61032700  0.60508600  1
  Mo  Mo7  1  0.38967300  0.73129200  0.89491400  1
  Mo  Mo8  1  0.73129200  0.38967300  0.39491400  1
  Mo  Mo9  1  0.61032700  0.26870800  0.10508600  1
  O  O0  1  0.93100600  0.87480000  0.36586700  1
  O  O1  1  0.12520000  0.06899400  0.13413300  1
  O  O2  1  0.06899400  0.12520000  0.63413300  1
  O  O3  1  0.87480000  0.93100600  0.86586700  1
  O  O4  1  0.03036500  0.82626200  0.53665300  1
  O  O5  1  0.17373800  0.96963500  0.96334700  1
  O  O6  1  0.96963500  0.17373800  0.46334700  1
  O  O7  1  0.82626200  0.03036500  0.03665300  1
  O  O8  1  0.17382500  0.80759300  0.65856900  1
  O  O9  1  0.19240700  0.82617500  0.84143100  1
  O  O10  1  0.82617500  0.19240700  0.34143100  1
  O  O11  1  0.80759300  0.17382500  0.15856900  1
  O  O12  1  0.41508900  0.31679300  0.41679200  1
  O  O13  1  0.68320700  0.58491100  0.08320800  1
  O  O14  1  0.58491100  0.68320700  0.58320800  1
  O  O15  1  0.31679300  0.41508900  0.91679200  1
  O  O16  1  0.54479900  0.34492100  0.51646600  1
  O  O17  1  0.65507900  0.45520100  0.98353400  1
  O  O18  1  0.45520100  0.65507900  0.48353400  1
  O  O19  1  0.34492100  0.54479900  0.01646600  1
  O  O20  1  0.65888600  0.28304300  0.68733500  1
  O  O21  1  0.71695700  0.34111400  0.81266500  1
  O  O22  1  0.34111400  0.71695700  0.31266500  1
  O  O23  1  0.28304300  0.65888600  0.18733500  1
  O  O24  1  0.66368000  0.96289500  0.58351200  1
  O  O25  1  0.03710500  0.33632000  0.91648800  1
  O  O26  1  0.33632000  0.03710500  0.41648800  1
  O  O27  1  0.96289500  0.66368000  0.08351200  1
  O  O28  1  0.22597200  0.48031200  0.71593000  1
  O  O29  1  0.51968800  0.77402800  0.78407000  1
  O  O30  1  0.77402800  0.51968800  0.28407000  1
  O  O31  1  0.48031200  0.22597200  0.21593000  1
loop_
_geom_bond_atom_site_label_1
_geom_bond_atom_site_label_2
_geom_bond_distance
_geom_bond_site_symmetry_2
Cs0 O0 3.078842 1_555
Cs0 O31 3.093003 1_655
Cs0 O26 3.292079 1_655
Cs0 O27 3.361854 1_555
Cs0 O30 3.436965 1_555
Cs0 O26 3.438451 1_565
Cs0 O31 3.466601 1_565
Cs0 O12 3.510094 1_655
Cs0 O14 3.585276 1_555
Cs0 O23 3.650827 1_655
Cs1 O1 3.078842 1_555
Cs1 O30 3.093003 1_545
Cs1 O27 3.292079 1_545
Cs1 O26 3.361854 1_555
Cs1 O31 3.436965 1_555
Cs1 O27 3.438451 1_455
Cs1 O30 3.466601 1_455
Cs1 O13 3.510094 1_545
Cs1 O15 3.585276 1_554
Cs1 O22 3.650827 1_545
Cs2 O2 3.078842 1_555
Cs2 O29 3.093003 1_455
Cs2 O24 3.292079 1_455
Cs2 O25 3.361854 1_555
Cs2 O28 3.436965 1_555
Cs2 O24 3.438451 1_545
Cs2 O29 3.466601 1_545
Cs2 O14 3.510094 1_455
Cs2 O12 3.585276 1_555
Cs2 O21 3.650827 1_455
Cs3 O3 3.078842 1_555
Cs3 O28 3.093003 1_565
Cs3 O25 3.292079 1_565
Cs3 O24 3.361854 1_555
Cs3 O29 3.436965 1_555
Cs3 O25 3.438451 1_655
Cs3 O28 3.466601 1_655
Cs3 O15 3.510094 1_565
Cs3 O13 3.585276 1_556
Cs3 O20 3.650827 1_565
Mo0 O22 1.747530 1_555
Mo0 O23 1.747530 1_555
Mo0 O0 1.980431 1_455
Mo0 O1 1.980431 1_565
Mo0 O11 2.291460 1_465
Mo0 O10 2.291460 1_465
Mo1 O21 1.747530 1_555
Mo1 O20 1.747530 1_555
Mo1 O2 1.980431 1_655
Mo1 O3 1.980431 1_545
Mo1 O9 2.291460 1_645
Mo1 O8 2.291460 1_645
Mo2 O12 1.726329 1_555
Mo2 O24 1.757871 1_545
Mo2 O0 1.930302 1_545
Mo2 O16 2.008143 1_555
Mo2 O10 2.228547 1_555
Mo2 O4 2.475215 1_645
Mo3 O13 1.726329 1_555
Mo3 O25 1.757871 1_654
Mo3 O1 1.930302 1_655
Mo3 O17 2.008143 1_554
Mo3 O11 2.228547 1_555
Mo3 O5 2.475215 1_644
Mo4 O14 1.726329 1_555
Mo4 O26 1.757871 1_565
Mo4 O2 1.930302 1_565
Mo4 O18 2.008143 1_555
Mo4 O8 2.228547 1_555
Mo4 O6 2.475215 1_465
Mo5 O15 1.726329 1_555
Mo5 O27 1.757871 1_456
Mo5 O3 1.930302 1_455
Mo5 O19 2.008143 1_556
Mo5 O9 2.228547 1_555
Mo5 O7 2.475215 1_466
Mo6 O4 1.741755 1_555
Mo6 O28 1.746899 1_555
Mo6 O8 1.888760 1_555
Mo6 O16 1.987507 1_555
Mo6 O18 2.243293 1_555
Mo6 O20 2.658283 1_555
Mo7 O5 1.741755 1_555
Mo7 O29 1.746899 1_555
Mo7 O9 1.888760 1_555
Mo7 O17 1.987507 1_555
Mo7 O19 2.243293 1_556
Mo7 O21 2.658283 1_555
Mo8 O6 1.741755 1_555
Mo8 O30 1.746899 1_555
Mo8 O10 1.888760 1_555
Mo8 O18 1.987507 1_555
Mo8 O16 2.243293 1_555
Mo8 O22 2.658283 1_555
Mo9 O7 1.741755 1_555
Mo9 O31 1.746899 1_555
Mo9 O11 1.888760 1_555
Mo9 O19 1.987507 1_555
Mo9 O17 2.243293 1_554
Mo9 O23 2.658283 1_555
