# generated using pymatgen
data_CeV2IO9
_symmetry_space_group_name_H-M   'P 1'
_cell_length_a   7.05093200
_cell_length_b   7.31311100
_cell_length_c   14.56359400
_cell_angle_alpha   90.00000000
_cell_angle_beta   90.00000000
_cell_angle_gamma   90.00000000
_symmetry_Int_Tables_number   1
_chemical_formula_structural   CeV2IO9
_chemical_formula_sum   'Ce4 V8 I4 O36'
_cell_volume   750.96077817
_cell_formula_units_Z   4
loop_
 _symmetry_equiv_pos_site_id
 _symmetry_equiv_pos_as_xyz
  1  'x, y, z'
loop_
 _atom_site_type_symbol
 _atom_site_label
 _atom_site_symmetry_multiplicity
 _atom_site_fract_x
 _atom_site_fract_y
 _atom_site_fract_z
 _atom_site_occupancy
  Ce  Ce0  1  0.84305200  0.25000000  0.94862800  1
  Ce  Ce1  1  0.15694800  0.75000000  0.05137200  1
  Ce  Ce2  1  0.84305200  0.75000000  0.55137200  1
  Ce  Ce3  1  0.15694800  0.25000000  0.44862800  1
  V  V0  1  0.46268600  0.00000000  0.25000000  1
  V  V1  1  0.53731400  0.50000000  0.75000000  1
  V  V2  1  0.53731400  0.00000000  0.75000000  1
  V  V3  1  0.46268600  0.50000000  0.25000000  1
  V  V4  1  0.81839200  0.25000000  0.22919000  1
  V  V5  1  0.18160800  0.75000000  0.77081000  1
  V  V6  1  0.81839200  0.75000000  0.27081000  1
  V  V7  1  0.18160800  0.25000000  0.72919000  1
  I  I0  1  0.29618800  0.25000000  0.05886600  1
  I  I1  1  0.70381200  0.75000000  0.94113400  1
  I  I2  1  0.29618800  0.75000000  0.44113400  1
  I  I3  1  0.70381200  0.25000000  0.55886600  1
  O  O0  1  0.17175000  0.07017300  0.99126400  1
  O  O1  1  0.82825000  0.57017300  0.00873600  1
  O  O2  1  0.17175000  0.92982700  0.50873600  1
  O  O3  1  0.82825000  0.42982700  0.49126400  1
  O  O4  1  0.82825000  0.92982700  0.00873600  1
  O  O5  1  0.17175000  0.42982700  0.99126400  1
  O  O6  1  0.82825000  0.07017300  0.49126400  1
  O  O7  1  0.17175000  0.57017300  0.50873600  1
  O  O8  1  0.52712700  0.25000000  0.00237900  1
  O  O9  1  0.47287300  0.75000000  0.99762100  1
  O  O10  1  0.52712700  0.75000000  0.49762100  1
  O  O11  1  0.47287300  0.25000000  0.50237900  1
  O  O12  1  0.32902900  0.95304900  0.15282300  1
  O  O13  1  0.67097100  0.45304900  0.84717700  1
  O  O14  1  0.32902900  0.04695100  0.34717700  1
  O  O15  1  0.67097100  0.54695100  0.65282300  1
  O  O16  1  0.67097100  0.04695100  0.84717700  1
  O  O17  1  0.32902900  0.54695100  0.15282300  1
  O  O18  1  0.67097100  0.95304900  0.65282300  1
  O  O19  1  0.32902900  0.45304900  0.34717700  1
  O  O20  1  0.53408100  0.75000000  0.27970600  1
  O  O21  1  0.46591900  0.25000000  0.72029400  1
  O  O22  1  0.53408100  0.25000000  0.22029400  1
  O  O23  1  0.46591900  0.75000000  0.77970600  1
  O  O24  1  0.74233500  0.00000000  0.25000000  1
  O  O25  1  0.25766500  0.50000000  0.75000000  1
  O  O26  1  0.25766500  0.00000000  0.75000000  1
  O  O27  1  0.74233500  0.50000000  0.25000000  1
  O  O28  1  0.99049000  0.25000000  0.31097600  1
  O  O29  1  0.00951000  0.75000000  0.68902400  1
  O  O30  1  0.99049000  0.75000000  0.18902400  1
  O  O31  1  0.00951000  0.25000000  0.81097600  1
  O  O32  1  0.91646600  0.25000000  0.12344100  1
  O  O33  1  0.08353400  0.75000000  0.87655900  1
  O  O34  1  0.91646600  0.75000000  0.37655900  1
  O  O35  1  0.08353400  0.25000000  0.62344100  1
loop_
_geom_bond_atom_site_label_1
_geom_bond_atom_site_label_2
_geom_bond_distance
_geom_bond_site_symmetry_2
Ce0 O31 2.323013 1_655
Ce0 O8 2.361109 1_556
Ce0 O13 2.420773 1_555
Ce0 O16 2.420773 1_555
Ce0 O1 2.501926 1_556
Ce0 O4 2.501926 1_546
Ce0 O32 2.597996 1_556
Ce0 O5 2.736134 1_655
Ce0 O0 2.736134 1_655
Ce1 O30 2.323013 1_455
Ce1 O9 2.361109 1_554
Ce1 O12 2.420773 1_555
Ce1 O17 2.420773 1_555
Ce1 O0 2.501926 1_564
Ce1 O5 2.501926 1_554
Ce1 O33 2.597996 1_554
Ce1 O4 2.736134 1_455
Ce1 O1 2.736134 1_455
Ce2 O29 2.323013 1_655
Ce2 O10 2.361109 1_555
Ce2 O18 2.420773 1_555
Ce2 O15 2.420773 1_555
Ce2 O6 2.501926 1_565
Ce2 O3 2.501926 1_555
Ce2 O34 2.597996 1_555
Ce2 O2 2.736134 1_655
Ce2 O7 2.736134 1_655
Ce3 O28 2.323013 1_455
Ce3 O11 2.361109 1_555
Ce3 O19 2.420773 1_555
Ce3 O14 2.420773 1_555
Ce3 O7 2.501926 1_555
Ce3 O2 2.501926 1_545
Ce3 O35 2.597996 1_555
Ce3 O3 2.736134 1_455
Ce3 O6 2.736134 1_455
I0 O8 1.824345 1_555
I0 O5 1.862420 1_554
I0 O0 1.862420 1_554
I0 O17 2.577209 1_555
I0 O12 2.577209 1_545
I1 O9 1.824345 1_555
I1 O4 1.862420 1_556
I1 O1 1.862420 1_556
I1 O16 2.577209 1_565
I1 O13 2.577209 1_555
I2 O10 1.824345 1_555
I2 O2 1.862420 1_555
I2 O7 1.862420 1_555
I2 O14 2.577209 1_565
I2 O19 2.577209 1_555
I3 O11 1.824345 1_555
I3 O3 1.862420 1_555
I3 O6 1.862420 1_555
I3 O15 2.577209 1_555
I3 O18 2.577209 1_545
O12 V0 1.734632 1_565
O13 V1 1.734632 1_555
O14 V0 1.734632 1_555
O15 V1 1.734632 1_555
O16 V2 1.734632 1_555
O17 V3 1.734632 1_555
O18 V2 1.734632 1_565
O19 V3 1.734632 1_555
O20 V0 1.945039 1_565
O20 V3 1.945039 1_555
O20 V6 2.008840 1_555
O21 V2 1.945039 1_555
O21 V1 1.945039 1_555
O21 V7 2.008840 1_555
O22 V3 1.945039 1_555
O22 V0 1.945039 1_555
O22 V4 2.008840 1_555
O23 V2 1.945039 1_565
O23 V1 1.945039 1_555
O23 V5 2.008840 1_555
O24 V6 1.929259 1_545
O24 V4 1.929259 1_555
O24 V0 1.971786 1_555
O25 V7 1.929259 1_555
O25 V5 1.929259 1_555
O25 V1 1.971786 1_555
O26 V7 1.929259 1_555
O26 V5 1.929259 1_545
O26 V2 1.971786 1_555
O27 V6 1.929259 1_555
O27 V4 1.929259 1_555
O27 V3 1.971786 1_555
O28 V4 1.700347 1_555
O29 V5 1.700347 1_555
O30 V6 1.700347 1_555
O31 V7 1.700347 1_555
O32 V4 1.688210 1_555
O33 V5 1.688210 1_555
O34 V6 1.688210 1_555
O35 V7 1.688210 1_555
