# generated using pymatgen
data_DyTm3
_symmetry_space_group_name_H-M   'P 1'
_cell_length_a   7.16638667
_cell_length_b   7.16638655
_cell_length_c   5.50708110
_cell_angle_alpha   90.00000000
_cell_angle_beta   90.00000000
_cell_angle_gamma   119.99999571
_symmetry_Int_Tables_number   1
_chemical_formula_structural   DyTm3
_chemical_formula_sum   'Dy2 Tm6'
_cell_volume   244.93598241
_cell_formula_units_Z   2
loop_
 _symmetry_equiv_pos_site_id
 _symmetry_equiv_pos_as_xyz
  1  'x, y, z'
loop_
 _atom_site_type_symbol
 _atom_site_label
 _atom_site_symmetry_multiplicity
 _atom_site_fract_x
 _atom_site_fract_y
 _atom_site_fract_z
 _atom_site_occupancy
  Dy  Dy0  1  0.33333300  0.66666700  0.75000100  1
  Dy  Dy1  1  0.66666500  0.33333300  0.25000000  1
  Tm  Tm0  1  0.16614233  0.33228265  0.25000000  1
  Tm  Tm1  1  0.66771535  0.83385667  0.25000000  1
  Tm  Tm2  1  0.16614233  0.83385767  0.25000000  1
  Tm  Tm3  1  0.83385767  0.66771635  0.75000100  1
  Tm  Tm4  1  0.33228465  0.16614233  0.75000100  1
  Tm  Tm5  1  0.83385767  0.16614133  0.75000100  1
loop_
_geom_bond_atom_site_label_1
_geom_bond_atom_site_label_2
_geom_bond_distance
_geom_bond_site_symmetry_2
Dy0 Tm2 3.447995 1_556
Dy0 Tm1 3.447998 1_556
Dy0 Tm2 3.448003 1_555
Dy0 Tm0 3.448006 1_556
Dy0 Tm1 3.448007 1_555
Dy0 Tm0 3.448015 1_555
Dy0 Tm4 3.583196 1_565
Dy0 Tm5 3.583196 1_565
Dy0 Tm3 3.583199 1_555
Dy0 Tm3 3.583199 1_455
Dy0 Tm4 3.583203 1_555
Dy0 Tm5 3.583203 1_455
Dy1 Tm4 3.447991 1_554
Dy1 Tm4 3.448000 1_555
Dy1 Tm3 3.448002 1_554
Dy1 Tm5 3.448006 1_554
Dy1 Tm3 3.448011 1_555
Dy1 Tm5 3.448015 1_555
Dy1 Tm0 3.583181 1_555
Dy1 Tm1 3.583188 1_555
Dy1 Tm2 3.583192 1_545
Dy1 Tm2 3.583207 1_655
Dy1 Tm1 3.583210 1_545
Dy1 Tm0 3.583217 1_655
Tm0 Tm4 3.440171 1_554
Tm0 Tm5 3.440178 1_454
Tm0 Tm4 3.440180 1_555
Tm0 Tm5 3.440187 1_455
Tm0 Tm2 3.571906 1_545
Tm0 Tm1 3.571917 1_445
Tm0 Tm1 3.594470 1_555
Tm0 Tm2 3.594480 1_555
Tm1 Tm3 3.440171 1_554
Tm1 Tm5 3.440178 1_564
Tm1 Tm3 3.440180 1_555
Tm1 Tm5 3.440187 1_565
Tm1 Tm2 3.571917 1_655
Tm1 Tm2 3.594470 1_555
Tm2 Tm4 3.440178 1_564
Tm2 Tm3 3.440178 1_454
Tm2 Tm4 3.440187 1_565
Tm2 Tm3 3.440187 1_455
Tm3 Tm5 3.571906 1_565
Tm3 Tm4 3.571917 1_665
Tm3 Tm4 3.594470 1_555
Tm3 Tm5 3.594480 1_555
Tm4 Tm5 3.571917 1_455
Tm4 Tm5 3.594470 1_555
