# generated using pymatgen
data_FeNi
_symmetry_space_group_name_H-M   'P 1'
_cell_length_a   8.75908122
_cell_length_b   8.75908122
_cell_length_c   8.75907988
_cell_angle_alpha   33.38430663
_cell_angle_beta   33.38430663
_cell_angle_gamma   33.38429101
_symmetry_Int_Tables_number   1
_chemical_formula_structural   FeNi
_chemical_formula_sum   'Fe8 Ni8'
_cell_volume   181.18343115
_cell_formula_units_Z   8
loop_
 _symmetry_equiv_pos_site_id
 _symmetry_equiv_pos_as_xyz
  1  'x, y, z'
loop_
 _atom_site_type_symbol
 _atom_site_label
 _atom_site_symmetry_multiplicity
 _atom_site_fract_x
 _atom_site_fract_y
 _atom_site_fract_z
 _atom_site_occupancy
  Fe  Fe0_0  1  0.00000000  0.00000000  0.00000000  1
  Fe  Fe0_1  1  0.00000000  0.00000000  0.50000000  1
  Fe  Fe0_2  1  0.00000000  0.50000000  0.00000000  1
  Fe  Fe0_3  1  0.00000000  0.50000000  0.50000000  1
  Fe  Fe0_4  1  0.50000000  0.00000000  0.00000000  1
  Fe  Fe0_5  1  0.50000000  0.00000000  0.50000000  1
  Fe  Fe0_6  1  0.50000000  0.50000000  0.00000000  1
  Fe  Fe0_7  1  0.50000000  0.50000000  0.50000000  1
  Ni  Ni0_0  1  0.25000000  0.25000000  0.25000000  1
  Ni  Ni0_1  1  0.25000000  0.25000000  0.75000000  1
  Ni  Ni0_2  1  0.25000000  0.75000000  0.25000000  1
  Ni  Ni0_3  1  0.25000000  0.75000000  0.75000000  1
  Ni  Ni0_4  1  0.75000000  0.25000000  0.25000000  1
  Ni  Ni0_5  1  0.75000000  0.25000000  0.75000000  1
  Ni  Ni0_6  1  0.75000000  0.75000000  0.25000000  1
  Ni  Ni0_7  1  0.75000000  0.75000000  0.75000000  1
loop_
_geom_bond_atom_site_label_1
_geom_bond_atom_site_label_2
_geom_bond_distance
_geom_bond_site_symmetry_2
Fe0_0 Fe0_6 2.515864 1_545
Fe0_0 Fe0_6 2.515864 1_455
Fe0_0 Fe0_5 2.515865 1_455
Fe0_0 Fe0_3 2.515865 1_545
Fe0_0 Fe0_3 2.515865 1_554
Fe0_0 Fe0_5 2.515865 1_554
Fe0_0 Ni0_5 2.525368 1_454
Fe0_0 Ni0_3 2.525368 1_544
Fe0_0 Ni0_4 2.525368 1_455
Fe0_0 Ni0_2 2.525368 1_545
Fe0_0 Ni0_1 2.525369 1_554
Fe0_0 Ni0_6 2.525369 1_445
Fe0_1 Fe0_7 2.515864 1_545
Fe0_1 Fe0_7 2.515864 1_455
Fe0_1 Fe0_2 2.515865 1_555
Fe0_1 Fe0_4 2.515865 1_555
Fe0_1 Fe0_4 2.515865 1_456
Fe0_1 Fe0_2 2.515865 1_546
Fe0_1 Ni0_4 2.525368 1_455
Fe0_1 Ni0_2 2.525368 1_545
Fe0_1 Ni0_3 2.525368 1_545
Fe0_1 Ni0_5 2.525368 1_455
Fe0_1 Ni0_0 2.525369 1_555
Fe0_1 Ni0_7 2.525369 1_445
Fe0_2 Fe0_4 2.515864 1_555
Fe0_2 Fe0_4 2.515864 1_465
Fe0_2 Fe0_7 2.515865 1_554
Fe0_2 Fe0_7 2.515865 1_455
Fe0_2 Ni0_1 2.525368 1_554
Fe0_2 Ni0_6 2.525368 1_455
Fe0_2 Ni0_0 2.525368 1_555
Fe0_2 Ni0_7 2.525368 1_454
Fe0_2 Ni0_4 2.525369 1_455
Fe0_2 Ni0_3 2.525369 1_554
Fe0_3 Fe0_5 2.515864 1_555
Fe0_3 Fe0_5 2.515864 1_465
Fe0_3 Fe0_6 2.515865 1_555
Fe0_3 Fe0_6 2.515865 1_456
Fe0_3 Ni0_7 2.525368 1_455
Fe0_3 Ni0_0 2.525368 1_555
Fe0_3 Ni0_1 2.525368 1_555
Fe0_3 Ni0_6 2.525368 1_455
Fe0_3 Ni0_5 2.525369 1_455
Fe0_3 Ni0_2 2.525369 1_555
Fe0_4 Fe0_7 2.515865 1_554
Fe0_4 Fe0_7 2.515865 1_545
Fe0_4 Ni0_1 2.525368 1_554
Fe0_4 Ni0_6 2.525368 1_545
Fe0_4 Ni0_0 2.525368 1_555
Fe0_4 Ni0_7 2.525368 1_544
Fe0_4 Ni0_5 2.525369 1_554
Fe0_4 Ni0_2 2.525369 1_545
Fe0_5 Fe0_6 2.515865 1_555
Fe0_5 Fe0_6 2.515865 1_546
Fe0_5 Ni0_7 2.525368 1_545
Fe0_5 Ni0_0 2.525368 1_555
Fe0_5 Ni0_1 2.525368 1_555
Fe0_5 Ni0_6 2.525368 1_545
Fe0_5 Ni0_3 2.525369 1_545
Fe0_5 Ni0_4 2.525369 1_555
Fe0_6 Ni0_5 2.525368 1_554
Fe0_6 Ni0_3 2.525368 1_554
Fe0_6 Ni0_4 2.525368 1_555
Fe0_6 Ni0_2 2.525368 1_555
Fe0_6 Ni0_7 2.525369 1_554
Fe0_6 Ni0_0 2.525369 1_555
Fe0_7 Ni0_2 2.525368 1_555
Fe0_7 Ni0_4 2.525368 1_555
Fe0_7 Ni0_5 2.525368 1_555
Fe0_7 Ni0_3 2.525368 1_555
Fe0_7 Ni0_1 2.525369 1_555
Fe0_7 Ni0_6 2.525369 1_555
Ni0_0 Ni0_6 2.515864 1_545
Ni0_0 Ni0_6 2.515864 1_455
Ni0_0 Ni0_3 2.515865 1_545
Ni0_0 Ni0_5 2.515865 1_554
Ni0_0 Ni0_5 2.515865 1_455
Ni0_0 Ni0_3 2.515865 1_554
Ni0_1 Ni0_7 2.515864 1_545
Ni0_1 Ni0_7 2.515864 1_455
Ni0_1 Ni0_4 2.515865 1_456
Ni0_1 Ni0_2 2.515865 1_546
Ni0_1 Ni0_4 2.515865 1_555
Ni0_1 Ni0_2 2.515865 1_555
Ni0_2 Ni0_4 2.515864 1_555
Ni0_2 Ni0_4 2.515864 1_465
Ni0_2 Ni0_7 2.515865 1_554
Ni0_2 Ni0_7 2.515865 1_455
Ni0_3 Ni0_5 2.515864 1_465
Ni0_3 Ni0_5 2.515864 1_555
Ni0_3 Ni0_6 2.515865 1_456
Ni0_3 Ni0_6 2.515865 1_555
Ni0_4 Ni0_7 2.515865 1_554
Ni0_4 Ni0_7 2.515865 1_545
Ni0_5 Ni0_6 2.515865 1_546
Ni0_5 Ni0_6 2.515865 1_555
