# generated using pymatgen
data_CdC4S2(NO)4
_symmetry_space_group_name_H-M   'P 1'
_cell_length_a   3.94835600
_cell_length_b   8.75044000
_cell_length_c   18.47789200
_cell_angle_alpha   90.00000000
_cell_angle_beta   90.00000000
_cell_angle_gamma   90.00000000
_symmetry_Int_Tables_number   1
_chemical_formula_structural   CdC4S2(NO)4
_chemical_formula_sum   'Cd2 C8 S4 N8 O8'
_cell_volume   638.40843898
_cell_formula_units_Z   2
loop_
 _symmetry_equiv_pos_site_id
 _symmetry_equiv_pos_as_xyz
  1  'x, y, z'
loop_
 _atom_site_type_symbol
 _atom_site_label
 _atom_site_symmetry_multiplicity
 _atom_site_fract_x
 _atom_site_fract_y
 _atom_site_fract_z
 _atom_site_occupancy
  Cd  Cd0  1  0.88307200  0.50000000  0.50000000  1
  Cd  Cd1  1  0.11692800  0.00000000  0.00000000  1
  C  C0  1  0.34786000  0.34917000  0.64082900  1
  C  C1  1  0.34786000  0.65083000  0.35917100  1
  C  C2  1  0.65214000  0.84917000  0.85917100  1
  C  C3  1  0.65214000  0.15083000  0.14082900  1
  C  C4  1  0.88844500  0.82560800  0.62976300  1
  C  C5  1  0.88844500  0.17439200  0.37023700  1
  C  C6  1  0.11155500  0.32560800  0.87023700  1
  C  C7  1  0.11155500  0.67439200  0.12976300  1
  S  S0  1  0.39441800  0.31750400  0.54984700  1
  S  S1  1  0.39441800  0.68249600  0.45015300  1
  S  S2  1  0.60558200  0.81750400  0.95015300  1
  S  S3  1  0.60558200  0.18249600  0.04984700  1
  N  N0  1  0.40928000  0.44398000  0.69501000  1
  N  N1  1  0.40928000  0.55602000  0.30499000  1
  N  N2  1  0.59072000  0.94398000  0.80499000  1
  N  N3  1  0.59072000  0.05602000  0.19501000  1
  N  N4  1  0.21185500  0.28818100  0.69932300  1
  N  N5  1  0.21185500  0.71181900  0.30067700  1
  N  N6  1  0.78814500  0.78818100  0.80067700  1
  N  N7  1  0.78814500  0.21181900  0.19932300  1
  O  O0  1  0.81822700  0.70411900  0.60594100  1
  O  O1  1  0.81822700  0.29588100  0.39405900  1
  O  O2  1  0.18177300  0.20411900  0.89405900  1
  O  O3  1  0.18177300  0.79588100  0.10594100  1
  O  O4  1  0.95718200  0.94676200  0.65177400  1
  O  O5  1  0.95718200  0.05323800  0.34822600  1
  O  O6  1  0.04281800  0.44676200  0.84822600  1
  O  O7  1  0.04281800  0.55323800  0.15177400  1
loop_
_geom_bond_atom_site_label_1
_geom_bond_atom_site_label_2
_geom_bond_distance
_geom_bond_site_symmetry_2
Cd0 O0 2.662308 1_555
Cd0 O1 2.662308 1_555
Cd0 S0 2.668525 1_555
Cd0 S1 2.668525 1_555
Cd0 S0 2.734005 1_655
Cd0 S1 2.734005 1_655
Cd1 O3 2.662308 1_545
Cd1 O2 2.662308 1_554
Cd1 S3 2.668525 1_555
Cd1 S2 2.668525 1_544
Cd1 S3 2.734005 1_455
Cd1 S2 2.734005 1_444
C0 N4 1.319624 1_555
C0 N0 1.322648 1_555
C0 S0 1.713726 1_555
C1 N5 1.319624 1_555
C1 N1 1.322648 1_555
C1 S1 1.713726 1_555
C2 N6 1.319624 1_555
C2 N2 1.322648 1_555
C2 S2 1.713726 1_555
C3 N7 1.319624 1_555
C3 N3 1.322648 1_555
C3 S3 1.713726 1_555
C4 O4 1.167474 1_555
C4 O0 1.183540 1_555
C5 O5 1.167474 1_555
C5 O1 1.183540 1_555
C6 O6 1.167474 1_555
C6 O2 1.183540 1_555
C7 O7 1.167474 1_555
C7 O3 1.183540 1_555
