# generated using pymatgen
data_Rb2U(Si2O5)3
_symmetry_space_group_name_H-M   'P 1'
_cell_length_a   12.88650666
_cell_length_b   12.88650666
_cell_length_c   17.52946128
_cell_angle_alpha   83.34785327
_cell_angle_beta   83.34785327
_cell_angle_gamma   32.68383270
_symmetry_Int_Tables_number   1
_chemical_formula_structural   Rb2U(Si2O5)3
_chemical_formula_sum   'Rb8 U4 Si24 O60'
_cell_volume   1560.44072542
_cell_formula_units_Z   4
loop_
 _symmetry_equiv_pos_site_id
 _symmetry_equiv_pos_as_xyz
  1  'x, y, z'
loop_
 _atom_site_type_symbol
 _atom_site_label
 _atom_site_symmetry_multiplicity
 _atom_site_fract_x
 _atom_site_fract_y
 _atom_site_fract_z
 _atom_site_occupancy
  Rb  Rb0  1  0.65200800  0.56132800  0.24709300  1
  Rb  Rb1  1  0.43867200  0.34799200  0.25290700  1
  Rb  Rb2  1  0.34799200  0.43867200  0.75290700  1
  Rb  Rb3  1  0.56132800  0.65200800  0.74709300  1
  Rb  Rb4  1  0.67357100  0.63917000  0.00778300  1
  Rb  Rb5  1  0.36083000  0.32642900  0.49221700  1
  Rb  Rb6  1  0.32642900  0.36083000  0.99221700  1
  Rb  Rb7  1  0.63917000  0.67357100  0.50778300  1
  U  U0  1  0.15483300  0.08909700  0.12571500  1
  U  U1  1  0.91090300  0.84516700  0.37428500  1
  U  U2  1  0.84516700  0.91090300  0.87428500  1
  U  U3  1  0.08909700  0.15483300  0.62571500  1
  Si  Si0  1  0.03978400  0.11626700  0.83646900  1
  Si  Si1  1  0.88373300  0.96021600  0.66353100  1
  Si  Si2  1  0.96021600  0.88373300  0.16353100  1
  Si  Si3  1  0.11626700  0.03978400  0.33646900  1
  Si  Si4  1  0.75436500  0.25430900  0.07472600  1
  Si  Si5  1  0.74569100  0.24563500  0.42527400  1
  Si  Si6  1  0.24563500  0.74569100  0.92527400  1
  Si  Si7  1  0.25430900  0.75436500  0.57472600  1
  Si  Si8  1  0.20524500  0.15288200  0.91815200  1
  Si  Si9  1  0.84711800  0.79475500  0.58184800  1
  Si  Si10  1  0.79475500  0.84711800  0.08184800  1
  Si  Si11  1  0.15288200  0.20524500  0.41815200  1
  Si  Si12  1  0.34042100  0.67382600  0.10488200  1
  Si  Si13  1  0.32617400  0.65957900  0.39511800  1
  Si  Si14  1  0.65957900  0.32617400  0.89511800  1
  Si  Si15  1  0.67382600  0.34042100  0.60488200  1
  Si  Si16  1  0.41441000  0.08917200  0.17764300  1
  Si  Si17  1  0.91082800  0.58559000  0.32235700  1
  Si  Si18  1  0.58559000  0.91082800  0.82235700  1
  Si  Si19  1  0.08917200  0.41441000  0.67764300  1
  Si  Si20  1  0.99247300  0.48321100  0.14747500  1
  Si  Si21  1  0.51678900  0.00752700  0.35252500  1
  Si  Si22  1  0.00752700  0.51678900  0.85252500  1
  Si  Si23  1  0.48321100  0.99247300  0.64747500  1
  O  O0  1  0.95494100  0.39645500  0.12988800  1
  O  O1  1  0.60354500  0.04505900  0.37011200  1
  O  O2  1  0.04505900  0.60354500  0.87011200  1
  O  O3  1  0.39645500  0.95494100  0.62988800  1
  O  O4  1  0.22443500  0.31592400  0.14434700  1
  O  O5  1  0.68407600  0.77556500  0.35565300  1
  O  O6  1  0.77556500  0.68407600  0.85565300  1
  O  O7  1  0.31592400  0.22443500  0.64434700  1
  O  O8  1  0.54551700  0.44003600  0.12084800  1
  O  O9  1  0.55996400  0.45448300  0.37915200  1
  O  O10  1  0.45448300  0.55996400  0.87915200  1
  O  O11  1  0.44003600  0.54551700  0.62084800  1
  O  O12  1  0.10832900  0.35151600  0.91931800  1
  O  O13  1  0.64848400  0.89167100  0.58068200  1
  O  O14  1  0.89167100  0.64848400  0.08068200  1
  O  O15  1  0.35151600  0.10832900  0.41931800  1
  O  O16  1  0.59522600  0.00496100  0.13529900  1
  O  O17  1  0.99503900  0.40477400  0.36470100  1
  O  O18  1  0.40477400  0.99503900  0.86470100  1
  O  O19  1  0.00496100  0.59522600  0.63529900  1
  O  O20  1  0.35457900  0.78061900  0.12556300  1
  O  O21  1  0.21938100  0.64542100  0.37443700  1
  O  O22  1  0.64542100  0.21938100  0.87443700  1
  O  O23  1  0.78061900  0.35457900  0.62556300  1
  O  O24  1  0.18676600  0.72991300  0.16041400  1
  O  O25  1  0.27008700  0.81323400  0.33958600  1
  O  O26  1  0.81323400  0.27008700  0.83958600  1
  O  O27  1  0.72991300  0.18676600  0.66041400  1
  O  O28  1  0.40272300  0.97819200  0.16180400  1
  O  O29  1  0.02180800  0.59727700  0.33819600  1
  O  O30  1  0.59727700  0.02180800  0.83819600  1
  O  O31  1  0.97819200  0.40272300  0.66180400  1
  O  O32  1  0.25178400  0.06340000  0.00370600  1
  O  O33  1  0.93660000  0.74821600  0.49629400  1
  O  O34  1  0.74821600  0.93660000  0.99629400  1
  O  O35  1  0.06340000  0.25178400  0.50370600  1
  O  O36  1  0.89607000  0.58409300  0.23098300  1
  O  O37  1  0.41590700  0.10393000  0.26901700  1
  O  O38  1  0.10393000  0.41590700  0.76901700  1
  O  O39  1  0.58409300  0.89607000  0.73098300  1
  O  O40  1  0.06193500  0.12282600  0.24916100  1
  O  O41  1  0.87717400  0.93806500  0.25083900  1
  O  O42  1  0.93806500  0.87717400  0.75083900  1
  O  O43  1  0.12282600  0.06193500  0.74916100  1
  O  O44  1  0.04581900  0.22042800  0.87664300  1
  O  O45  1  0.77957200  0.95418100  0.62335700  1
  O  O46  1  0.95418100  0.77957200  0.12335700  1
  O  O47  1  0.22042800  0.04581900  0.37664300  1
  O  O48  1  0.28750600  0.71497900  0.01550400  1
  O  O49  1  0.28502100  0.71249400  0.48449600  1
  O  O50  1  0.71249400  0.28502100  0.98449600  1
  O  O51  1  0.71497900  0.28750600  0.51550400  1
  O  O52  1  0.89507700  0.23174900  0.08647300  1
  O  O53  1  0.76825100  0.10492300  0.41352700  1
  O  O54  1  0.10492300  0.76825100  0.91352700  1
  O  O55  1  0.23174900  0.89507700  0.58647300  1
  O  O56  1  0.83445200  0.07354400  0.10941000  1
  O  O57  1  0.92645600  0.16554800  0.39059000  1
  O  O58  1  0.16554800  0.92645600  0.89059000  1
  O  O59  1  0.07354400  0.83445200  0.60941000  1
loop_
_geom_bond_atom_site_label_1
_geom_bond_atom_site_label_2
_geom_bond_distance
_geom_bond_site_symmetry_2
O0 Si20 1.613522 1_555
O0 U0 2.275424 1_655
O0 Rb4 2.944139 1_555
O0 Rb0 3.027544 1_555
O1 Si21 1.613522 1_555
O1 U1 2.275424 1_545
O1 Rb5 2.944139 1_555
O1 Rb1 3.027544 1_555
O2 Si22 1.613522 1_555
O2 U2 2.275424 1_455
O2 Rb6 2.944139 1_555
O2 Rb2 3.027544 1_555
O3 Si23 1.613522 1_555
O3 U3 2.275424 1_565
O3 Rb7 2.944139 1_555
O3 Rb3 3.027544 1_555
O4 Si20 1.651559 1_455
O4 Si16 1.663281 1_555
O4 Rb6 3.047080 1_554
O5 Si21 1.651559 1_565
O5 Si17 1.663281 1_555
O5 Rb7 3.047080 1_555
O6 Si22 1.651559 1_655
O6 Si18 1.663281 1_555
O6 Rb4 3.047080 1_556
O7 Si23 1.651559 1_545
O7 Si19 1.663281 1_555
O7 Rb5 3.047080 1_555
O8 Si12 1.647003 1_555
O8 Si4 1.651189 1_555
O8 Rb1 3.167963 1_555
O9 Si13 1.647003 1_555
O9 Si5 1.651189 1_555
O9 Rb0 3.167963 1_555
O10 Si14 1.647003 1_555
O10 Si6 1.651189 1_555
O10 Rb3 3.167963 1_555
O11 Si15 1.647003 1_555
O11 Si7 1.651189 1_555
O11 Rb2 3.167963 1_555
O12 Si22 1.646769 1_555
O12 Si8 1.654432 1_555
O12 Rb6 3.313916 1_555
O12 Rb4 3.448743 1_456
O13 Si23 1.646769 1_555
O13 Si9 1.654432 1_555
O13 Rb7 3.313916 1_555
O13 Rb5 3.448743 1_565
O14 Si20 1.646769 1_555
O14 Si10 1.654432 1_555
O14 Rb4 3.313916 1_555
O14 Rb6 3.448743 1_654
O15 Si21 1.646769 1_555
O15 Si11 1.654432 1_555
O15 Rb5 3.313916 1_555
O15 Rb7 3.448743 1_545
O16 Si16 1.639325 1_555
O16 Si10 1.645013 1_545
O16 Rb6 3.453714 1_554
O17 Si17 1.639325 1_555
O17 Si11 1.645013 1_655
O17 Rb7 3.453714 1_555
O18 Si18 1.639325 1_555
O18 Si8 1.645013 1_565
O18 Rb4 3.453714 1_556
O19 Si19 1.639325 1_555
O19 Si9 1.645013 1_455
O19 Rb5 3.453714 1_555
O20 Si12 1.616222 1_555
O20 U0 2.281329 1_565
O20 Rb0 3.078837 1_555
O20 Rb4 3.282621 1_555
O21 Si13 1.616222 1_555
O21 U1 2.281329 1_455
O21 Rb1 3.078837 1_555
O21 Rb5 3.282621 1_555
O22 Si14 1.616222 1_555
O22 U2 2.281329 1_545
O22 Rb2 3.078837 1_555
O22 Rb6 3.282621 1_555
O23 Si15 1.616222 1_555
O23 U3 2.281329 1_655
O23 Rb3 3.078837 1_555
O23 Rb7 3.282621 1_555
O24 Si12 1.642579 1_555
O24 Si2 1.643805 1_455
O24 Rb1 3.140998 1_555
O25 Si13 1.642579 1_555
O25 Si3 1.643805 1_565
O25 Rb0 3.140998 1_555
O26 Si14 1.642579 1_555
O26 Si0 1.643805 1_655
O26 Rb3 3.140998 1_555
O27 Si15 1.642579 1_555
O27 Si1 1.643805 1_545
O27 Rb2 3.140998 1_555
O28 Si16 1.615343 1_565
O28 U0 2.284912 1_565
O28 Rb0 3.408149 1_555
O29 Si17 1.615343 1_455
O29 U1 2.284912 1_455
O29 Rb1 3.408149 1_555
O30 Si18 1.615343 1_545
O30 U2 2.284912 1_545
O30 Rb2 3.408149 1_555
O31 Si19 1.615343 1_655
O31 U3 2.284912 1_655
O31 Rb3 3.408149 1_555
O32 Si8 1.606891 1_554
O32 U0 2.256858 1_555
O32 Rb4 3.068436 1_545
O33 Si9 1.606891 1_555
O33 U1 2.256858 1_555
O33 Rb5 3.068436 1_655
O34 Si10 1.606891 1_556
O34 U2 2.256858 1_555
O34 Rb6 3.068436 1_565
O35 Si11 1.606891 1_555
O35 U3 2.256858 1_555
O35 Rb7 3.068436 1_455
O36 Si20 1.636213 1_555
O36 Si17 1.638905 1_555
O36 Rb0 3.374265 1_555
O37 Si21 1.636213 1_555
O37 Si16 1.638905 1_555
O37 Rb1 3.374265 1_555
O38 Si22 1.636213 1_555
O38 Si19 1.638905 1_555
O38 Rb2 3.374265 1_555
O39 Si23 1.636213 1_555
O39 Si18 1.638905 1_555
O39 Rb3 3.374265 1_555
O40 Si3 1.607879 1_555
O40 U0 2.246448 1_555
O40 Rb0 3.096226 1_455
O41 Si2 1.607879 1_555
O41 U1 2.246448 1_555
O41 Rb1 3.096226 1_565
O42 Si1 1.607879 1_555
O42 U2 2.246448 1_555
O42 Rb2 3.096226 1_655
O43 Si0 1.607879 1_555
O43 U3 2.246448 1_555
O43 Rb3 3.096226 1_545
O44 Si8 1.642323 1_555
O44 Si0 1.646538 1_555
O45 Si9 1.642323 1_555
O45 Si1 1.646538 1_555
O46 Si10 1.642323 1_555
O46 Si2 1.646538 1_555
O47 Si11 1.642323 1_555
O47 Si3 1.646538 1_555
O48 Si6 1.625645 1_554
O48 Si12 1.627024 1_555
O49 Si7 1.625645 1_555
O49 Si13 1.627024 1_555
O50 Si4 1.625645 1_556
O50 Si14 1.627024 1_555
O51 Si5 1.625645 1_555
O51 Si15 1.627024 1_555
O52 Si4 1.612509 1_555
O52 U0 2.222516 1_655
O52 Rb4 3.409212 1_555
O53 Si5 1.612509 1_555
O53 U1 2.222516 1_545
O53 Rb5 3.409212 1_555
O54 Si6 1.612509 1_555
O54 U2 2.222516 1_455
O54 Rb6 3.409212 1_555
O55 Si7 1.612509 1_555
O55 U3 2.222516 1_565
O55 Rb7 3.409212 1_555
O56 Si4 1.622166 1_555
O56 Si2 1.629469 1_545
O57 Si5 1.622166 1_555
O57 Si3 1.629469 1_655
O58 Si6 1.622166 1_555
O58 Si0 1.629469 1_565
O59 Si7 1.622166 1_555
O59 Si1 1.629469 1_455
