# generated using pymatgen
data_NdGa2Ni
_symmetry_space_group_name_H-M   'P 1'
_cell_length_a   4.15361401
_cell_length_b   4.17075291
_cell_length_c   8.94528433
_cell_angle_alpha   103.48117224
_cell_angle_beta   90.00000000
_cell_angle_gamma   90.00000000
_symmetry_Int_Tables_number   1
_chemical_formula_structural   NdGa2Ni
_chemical_formula_sum   'Nd2 Ga4 Ni2'
_cell_volume   150.69557496
_cell_formula_units_Z   2
loop_
 _symmetry_equiv_pos_site_id
 _symmetry_equiv_pos_as_xyz
  1  'x, y, z'
loop_
 _atom_site_type_symbol
 _atom_site_label
 _atom_site_symmetry_multiplicity
 _atom_site_fract_x
 _atom_site_fract_y
 _atom_site_fract_z
 _atom_site_occupancy
  Nd  Nd0  1  -0.00000000  0.85811729  0.71623558  1
  Nd  Nd1  1  -0.00000000  0.14188271  0.28376442  1
  Ga  Ga0  1  0.50000000  0.00000000  -0.00000000  1
  Ga  Ga1  1  0.50000000  0.70935437  0.41871175  1
  Ga  Ga2  1  -0.00000000  0.50000000  -0.00000000  1
  Ga  Ga3  1  0.50000000  0.29064563  0.58128825  1
  Ni  Ni0  1  0.50000000  0.57258256  0.14516712  1
  Ni  Ni1  1  0.50000000  0.42741744  0.85483288  1
loop_
_geom_bond_atom_site_label_1
_geom_bond_atom_site_label_2
_geom_bond_distance
_geom_bond_site_symmetry_2
Nd0 Ni1 3.180479 1_455
Nd0 Ni1 3.180479 1_555
Nd0 Ni1 3.180487 1_565
Nd0 Ni1 3.180487 1_465
Nd1 Ni0 3.180479 1_455
Nd1 Ni0 3.180479 1_555
Nd1 Ni0 3.180487 1_445
Nd1 Ni0 3.180487 1_545
Ga0 Ni0 2.437908 1_555
Ga0 Ni1 2.437908 1_544
Ga0 Ni1 2.437915 1_554
Ga0 Ni0 2.437915 1_545
Ga0 Nd1 3.225863 1_555
Ga0 Nd1 3.225863 1_655
Ga0 Nd0 3.225863 1_644
Ga0 Nd0 3.225863 1_544
Ga1 Ni0 2.379513 1_555
Ga1 Ga3 2.519676 1_555
Ga1 Ga3 2.519697 1_565
Ga1 Nd1 3.168578 1_655
Ga1 Nd1 3.168578 1_555
Ga1 Nd1 3.168589 1_665
Ga1 Nd1 3.168589 1_565
Ga1 Nd0 3.318344 1_655
Ga1 Nd0 3.318344 1_555
Ga2 Ni0 2.430585 1_455
Ga2 Ni1 2.430585 1_554
Ga2 Ni0 2.430585 1_555
Ga2 Ni1 2.430585 1_454
Ga2 Nd1 3.231385 1_555
Ga2 Nd0 3.231385 1_554
Ga2 Nd0 3.231388 1_544
Ga2 Nd1 3.231388 1_565
Ga3 Ni1 2.379513 1_555
Ga3 Nd0 3.168578 1_655
Ga3 Nd0 3.168578 1_555
Ga3 Nd0 3.168589 1_645
Ga3 Nd0 3.168589 1_545
Ga3 Nd1 3.318344 1_555
Ga3 Nd1 3.318344 1_655
Ni0 Ni1 2.525563 1_554
