# generated using pymatgen
data_UPdPt4
_symmetry_space_group_name_H-M   'P 1'
_cell_length_a   5.29912522
_cell_length_b   5.29912522
_cell_length_c   5.29912522
_cell_angle_alpha   60.00000000
_cell_angle_beta   60.00000000
_cell_angle_gamma   60.00000000
_symmetry_Int_Tables_number   1
_chemical_formula_structural   UPdPt4
_chemical_formula_sum   'U1 Pd1 Pt4'
_cell_volume   105.21981879
_cell_formula_units_Z   1
loop_
 _symmetry_equiv_pos_site_id
 _symmetry_equiv_pos_as_xyz
  1  'x, y, z'
loop_
 _atom_site_type_symbol
 _atom_site_label
 _atom_site_symmetry_multiplicity
 _atom_site_fract_x
 _atom_site_fract_y
 _atom_site_fract_z
 _atom_site_occupancy
  U  U0  1  0.25000000  0.25000000  0.25000000  1
  Pd  Pd0  1  0.00000000  0.00000000  0.00000000  1
  Pt  Pt0  1  0.62547545  0.62547545  0.62547545  1
  Pt  Pt1  1  0.62547545  0.62547545  0.12357166  1
  Pt  Pt2  1  0.62547545  0.12357166  0.62547545  1
  Pt  Pt3  1  0.12357166  0.62547545  0.62547545  1
loop_
_geom_bond_atom_site_label_1
_geom_bond_atom_site_label_2
_geom_bond_distance
_geom_bond_site_symmetry_2
Pd0 Pt2 3.105815 1_554
Pd0 Pt3 3.105815 1_554
Pd0 Pt1 3.105815 1_545
Pd0 Pt3 3.105815 1_545
Pd0 Pt2 3.105815 1_455
Pd0 Pt1 3.105815 1_455
Pd0 Pt0 3.105819 1_445
Pd0 Pt0 3.105819 1_454
Pd0 Pt0 3.105819 1_544
Pd0 Pt2 3.105824 1_454
Pd0 Pt3 3.105824 1_544
Pd0 Pt1 3.105824 1_445
Pd0 U0 3.245038 1_455
Pd0 U0 3.245038 1_545
Pd0 U0 3.245038 1_555
Pd0 U0 3.245038 1_554
Pt0 Pt1 2.639474 1_556
Pt0 Pt2 2.639474 1_565
Pt0 Pt3 2.639474 1_655
Pt0 Pt1 2.659651 1_555
Pt0 Pt2 2.659651 1_555
Pt0 Pt3 2.659651 1_555
Pt0 U0 3.107968 1_556
Pt0 U0 3.107968 1_655
Pt0 U0 3.107968 1_565
Pt1 Pt2 2.639474 1_564
Pt1 Pt3 2.639474 1_654
Pt1 Pt2 2.659651 1_555
Pt1 Pt3 2.659651 1_555
Pt1 U0 3.107963 1_555
Pt1 U0 3.107972 1_655
Pt1 U0 3.107972 1_565
Pt2 Pt3 2.639474 1_645
Pt2 Pt3 2.659651 1_555
Pt2 U0 3.107963 1_555
Pt2 U0 3.107972 1_655
Pt2 U0 3.107972 1_556
Pt3 U0 3.107963 1_555
Pt3 U0 3.107972 1_565
Pt3 U0 3.107972 1_556
