# generated using pymatgen
data_Ba2AlFe2F11
_symmetry_space_group_name_H-M   'P 1'
_cell_length_a   7.44947064
_cell_length_b   7.44947064
_cell_length_c   14.53670100
_cell_angle_alpha   90.00000000
_cell_angle_beta   90.00000000
_cell_angle_gamma   120.00000566
_symmetry_Int_Tables_number   1
_chemical_formula_structural   Ba2AlFe2F11
_chemical_formula_sum   'Ba6 Al3 Fe6 F33'
_cell_volume   698.63009511
_cell_formula_units_Z   3
loop_
 _symmetry_equiv_pos_site_id
 _symmetry_equiv_pos_as_xyz
  1  'x, y, z'
loop_
 _atom_site_type_symbol
 _atom_site_label
 _atom_site_symmetry_multiplicity
 _atom_site_fract_x
 _atom_site_fract_y
 _atom_site_fract_z
 _atom_site_occupancy
  Ba  Ba0  1  0.87242800  0.85748000  0.66600900  1
  Ba  Ba1  1  0.51138700  0.16263200  0.79799200  1
  Ba  Ba2  1  0.98505200  0.12757200  0.99934300  1
  Ba  Ba3  1  0.83736800  0.34875500  0.46465900  1
  Ba  Ba4  1  0.65124500  0.48861300  0.13132600  1
  Ba  Ba5  1  0.14252000  0.01494800  0.33267600  1
  Al  Al0  1  0.49794700  0.67597700  0.87428000  1
  Al  Al1  1  0.17803100  0.50205300  0.20761300  1
  Al  Al2  1  0.32402300  0.82196900  0.54094600  1
  Fe  Fe0  1  0.97594200  0.66023800  0.88521600  1
  Fe  Fe1  1  0.13433200  0.43491500  0.72417800  1
  Fe  Fe2  1  0.56508500  0.69941700  0.39084400  1
  Fe  Fe3  1  0.68429600  0.02405800  0.21854900  1
  Fe  Fe4  1  0.30058300  0.86566800  0.05751100  1
  Fe  Fe5  1  0.33976200  0.31570400  0.55188300  1
  F  F0  1  0.99039900  0.74641700  0.02377700  1
  F  F1  1  0.83589000  0.36282200  0.92417600  1
  F  F2  1  0.75601700  0.00960100  0.35711000  1
  F  F3  1  0.42256500  0.08719100  0.49523300  1
  F  F4  1  0.86575100  0.90663500  0.17964800  1
  F  F5  1  0.24367700  0.29832900  0.19077000  1
  F  F6  1  0.91280900  0.33537400  0.16189900  1
  F  F7  1  0.70167100  0.94534800  0.85743700  1
  F  F8  1  0.04088400  0.13424900  0.51298200  1
  F  F9  1  0.61113100  0.01453300  0.08068200  1
  F  F10  1  0.66462600  0.57743500  0.82856600  1
  F  F11  1  0.25358300  0.24398300  0.69044300  1
  F  F12  1  0.59263800  0.67249900  0.98573200  1
  F  F13  1  0.35789800  0.15478200  0.02517700  1
  F  F14  1  0.07986200  0.40736200  0.31906500  1
  F  F15  1  0.63717800  0.47306700  0.59084200  1
  F  F16  1  0.32322500  0.77974200  0.91275900  1
  F  F17  1  0.40340200  0.38886900  0.41401500  1
  F  F18  1  0.31487300  0.74292700  0.41864500  1
  F  F19  1  0.32750100  0.92013800  0.65239900  1
  F  F20  1  0.42805400  0.68512700  0.75197800  1
  F  F21  1  0.84521800  0.20311600  0.69184300  1
  F  F22  1  0.79688400  0.64210200  0.35851000  1
  F  F23  1  0.45651700  0.67677500  0.24609200  1
  F  F24  1  0.98546700  0.59659800  0.74734800  1
  F  F25  1  0.09336500  0.95911600  0.84631500  1
  F  F26  1  0.52693300  0.16411000  0.25750900  1
  F  F27  1  0.26676300  0.41520500  0.87369800  1
  F  F28  1  0.14844200  0.73323700  0.20703100  1
  F  F29  1  0.25707300  0.57194600  0.08531200  1
  F  F30  1  0.05465200  0.75632300  0.52410300  1
  F  F31  1  0.22025800  0.54348300  0.57942500  1
  F  F32  1  0.58479500  0.85155800  0.54036500  1
loop_
_geom_bond_atom_site_label_1
_geom_bond_atom_site_label_2
_geom_bond_distance
_geom_bond_site_symmetry_2
Ba0 F21 2.708072 1_565
Ba0 F15 2.728962 1_555
Ba0 F24 2.742377 1_555
Ba0 F30 2.772881 1_655
Ba0 F32 2.799028 1_555
Ba0 F8 2.861263 1_665
Ba0 F11 2.881506 1_665
Ba0 F25 2.984276 1_655
Ba0 F10 3.017126 1_555
Ba0 F20 3.149349 1_555
Ba0 F19 3.188590 1_655
Ba0 F7 3.259266 1_555
Ba1 F19 2.672923 1_545
Ba1 F10 2.742571 1_555
Ba1 F11 2.768340 1_555
Ba1 F7 2.769579 1_545
Ba1 F25 2.787125 1_545
Ba1 F1 2.797732 1_555
Ba1 F21 2.811845 1_555
Ba1 F16 2.980900 1_545
Ba2 F13 2.708072 1_656
Ba2 F1 2.728957 1_555
Ba2 F9 2.742377 1_556
Ba2 F7 2.772881 1_545
Ba2 F27 2.799037 1_655
Ba2 F25 2.861275 1_645
Ba2 F0 2.881502 1_546
Ba2 F4 2.984264 1_546
Ba2 F6 3.017114 1_556
Ba2 F29 3.149349 1_656
Ba2 F12 3.188587 1_545
Ba2 F5 3.259253 1_656
Ba3 F14 2.672936 1_655
Ba3 F3 2.742571 1_555
Ba3 F2 2.768334 1_555
Ba3 F30 2.769575 1_655
Ba3 F8 2.787125 1_655
Ba3 F15 2.797718 1_555
Ba3 F22 2.811845 1_555
Ba3 F31 2.980892 1_655
Ba4 F12 2.672932 1_554
Ba4 F6 2.742569 1_555
Ba4 F0 2.768336 1_555
Ba4 F5 2.769575 1_555
Ba4 F4 2.787122 1_555
Ba4 F26 2.797724 1_555
Ba4 F13 2.811844 1_555
Ba4 F23 2.980892 1_555
Ba5 F22 2.708072 1_445
Ba5 F26 2.728963 1_555
Ba5 F17 2.742376 1_555
Ba5 F5 2.772881 1_555
Ba5 F28 2.799037 1_545
Ba5 F4 2.861275 1_445
Ba5 F2 2.881510 1_455
Ba5 F8 2.984276 1_555
Ba5 F3 3.017126 1_555
Ba5 F18 3.149349 1_545
Ba5 F14 3.188583 1_555
Ba5 F30 3.259253 1_545
Al0 F12 1.772400 1_555
Al0 F7 1.828797 1_555
Al0 F27 1.842341 1_555
Al0 F10 1.853030 1_555
Al0 F20 1.863342 1_555
Al0 F16 1.900170 1_555
Al1 F14 1.772400 1_555
Al1 F5 1.828792 1_555
Al1 F28 1.842345 1_555
Al1 F6 1.853035 1_455
Al1 F29 1.863326 1_555
Al1 F23 1.900165 1_555
Al2 F19 1.772413 1_555
Al2 F30 1.828799 1_555
Al2 F32 1.842338 1_555
Al2 F3 1.853031 1_565
Al2 F18 1.863326 1_555
Al2 F31 1.900164 1_555
F0 Fe4 2.077567 1_655
F0 Fe0 2.100402 1_554
F1 Fe0 2.001636 1_555
F2 Fe2 2.077566 1_545
F2 Fe3 2.100400 1_555
F3 Fe5 2.237526 1_555
F4 Fe3 2.023508 1_565
F6 Fe3 2.237526 1_555
F8 Fe5 2.023508 1_555
F9 Fe4 2.032157 1_545
F9 Fe3 2.068809 1_555
F10 Fe0 2.237526 1_555
F11 Fe1 2.077564 1_555
F11 Fe5 2.100387 1_555
F13 Fe4 2.030338 1_545
F15 Fe5 2.001631 1_555
F16 Fe4 2.230219 1_556
F16 Fe0 2.311422 1_455
F17 Fe2 2.032157 1_555
F17 Fe5 2.068823 1_555
F18 Fe2 2.084907 1_555
F20 Fe1 2.084904 1_555
F21 Fe1 2.030342 1_655
F22 Fe2 2.030338 1_555
F23 Fe2 2.230219 1_555
F23 Fe3 2.311422 1_565
F24 Fe1 2.032155 1_655
F24 Fe0 2.068824 1_555
F25 Fe0 2.023508 1_455
F26 Fe3 2.001629 1_555
F27 Fe1 2.421548 1_555
F28 Fe4 2.421548 1_555
F29 Fe4 2.084907 1_555
F31 Fe1 2.230233 1_555
F31 Fe5 2.311419 1_555
F32 Fe2 2.421561 1_555
