# generated using pymatgen
data_Na2CuH4(C2O5)2
_symmetry_space_group_name_H-M   'P 1'
_cell_length_a   3.60778700
_cell_length_b   7.59403321
_cell_length_c   9.56351283
_cell_angle_alpha   71.91852828
_cell_angle_beta   81.75813329
_cell_angle_gamma   76.25555801
_symmetry_Int_Tables_number   1
_chemical_formula_structural   Na2CuH4(C2O5)2
_chemical_formula_sum   'Na2 Cu1 H4 C4 O10'
_cell_volume   241.25756629
_cell_formula_units_Z   1
loop_
 _symmetry_equiv_pos_site_id
 _symmetry_equiv_pos_as_xyz
  1  'x, y, z'
loop_
 _atom_site_type_symbol
 _atom_site_label
 _atom_site_symmetry_multiplicity
 _atom_site_fract_x
 _atom_site_fract_y
 _atom_site_fract_z
 _atom_site_occupancy
  Na  Na0  1  0.30986400  0.70126500  0.57342300  1
  Na  Na1  1  0.69013600  0.29873500  0.42657700  1
  Cu  Cu0  1  0.00000000  0.00000000  0.00000000  1
  H  H0  1  0.55980000  0.47095900  0.80764800  1
  H  H1  1  0.44020000  0.52904100  0.19235200  1
  H  H2  1  0.67427500  0.67627500  0.82770200  1
  H  H3  1  0.32572500  0.32372500  0.17229800  1
  C  C0  1  0.95965700  0.78029100  0.27572000  1
  C  C1  1  0.04034300  0.21970900  0.72428000  1
  C  C2  1  0.26566600  0.97170200  0.25451000  1
  C  C3  1  0.73433400  0.02829800  0.74549000  1
  O  O0  1  0.80823300  0.76544000  0.16278800  1
  O  O1  1  0.19176700  0.23456000  0.83721200  1
  O  O2  1  0.33664600  0.09332200  0.12517300  1
  O  O3  1  0.66335400  0.90667800  0.87482700  1
  O  O4  1  0.87484400  0.65513300  0.39641000  1
  O  O5  1  0.12515600  0.34486700  0.60359000  1
  O  O6  1  0.42579700  0.99864800  0.35737000  1
  O  O7  1  0.57420300  0.00135200  0.64263000  1
  O  O8  1  0.70941200  0.60340500  0.75742400  1
  O  O9  1  0.29058800  0.39659500  0.24257600  1
loop_
_geom_bond_atom_site_label_1
_geom_bond_atom_site_label_2
_geom_bond_distance
_geom_bond_site_symmetry_2
Na0 O8 2.265643 1_555
Na0 O4 2.486526 1_555
Na0 O4 2.615888 1_455
Na0 O6 2.617036 1_555
Na0 O8 2.683652 1_455
Na0 O5 2.858261 1_555
Na0 O7 2.948010 1_565
Na1 O9 2.265643 1_555
Na1 O5 2.486526 1_555
Na1 O5 2.615888 1_655
Na1 O7 2.617036 1_555
Na1 O9 2.683652 1_655
Na1 O4 2.858261 1_555
Na1 O6 2.948010 1_545
Cu0 O0 2.151898 1_445
Cu0 O1 2.151898 1_554
Cu0 O3 2.182400 1_444
Cu0 O2 2.182400 1_555
Cu0 O2 2.561671 1_455
Cu0 O3 2.561671 1_544
H0 O8 1.190568 1_555
H0 Na0 2.507478 1_555
H1 O9 1.190568 1_555
H1 Na1 2.507478 1_555
H2 O8 0.973205 1_555
H3 O9 0.973205 1_555
C0 O4 1.298146 1_555
C0 O0 1.323508 1_555
C1 O5 1.298146 1_555
C1 O1 1.323508 1_555
C2 O6 1.298986 1_555
C2 O2 1.327024 1_565
C3 O7 1.298986 1_555
C3 O3 1.327024 1_545
