# generated using pymatgen
data_NdMoBrO4
_symmetry_space_group_name_H-M   'P 1'
_cell_length_a   7.05219800
_cell_length_b   7.51724407
_cell_length_c   11.34637093
_cell_angle_alpha   106.19939156
_cell_angle_beta   106.71945991
_cell_angle_gamma   92.45064336
_symmetry_Int_Tables_number   1
_chemical_formula_structural   NdMoBrO4
_chemical_formula_sum   'Nd4 Mo4 Br4 O16'
_cell_volume   548.23412795
_cell_formula_units_Z   4
loop_
 _symmetry_equiv_pos_site_id
 _symmetry_equiv_pos_as_xyz
  1  'x, y, z'
loop_
 _atom_site_type_symbol
 _atom_site_label
 _atom_site_symmetry_multiplicity
 _atom_site_fract_x
 _atom_site_fract_y
 _atom_site_fract_z
 _atom_site_occupancy
  Nd  Nd0  1  0.64428400  0.12653900  0.73030900  1
  Nd  Nd1  1  0.35571600  0.87346100  0.26969100  1
  Nd  Nd2  1  0.39524400  0.64586200  0.76890800  1
  Nd  Nd3  1  0.60475600  0.35413800  0.23109200  1
  Mo  Mo0  1  0.73453800  0.81740300  0.13406300  1
  Mo  Mo1  1  0.26546200  0.18259700  0.86593700  1
  Mo  Mo2  1  0.77563700  0.59273700  0.63060400  1
  Mo  Mo3  1  0.22436300  0.40726300  0.36939600  1
  Br  Br0  1  0.25709400  0.96879500  0.51824100  1
  Br  Br1  1  0.74290600  0.03120500  0.48175900  1
  Br  Br2  1  0.19462400  0.71224900  0.98063300  1
  Br  Br3  1  0.80537600  0.28775100  0.01936700  1
  O  O0  1  0.67538600  0.73220800  0.96339900  1
  O  O1  1  0.32461400  0.26779200  0.03660100  1
  O  O2  1  0.99785100  0.86680100  0.20655700  1
  O  O3  1  0.00214900  0.13319900  0.79344300  1
  O  O4  1  0.62376400  0.65865200  0.19957800  1
  O  O5  1  0.37623600  0.34134800  0.80042200  1
  O  O6  1  0.39191200  0.98000200  0.82045900  1
  O  O7  1  0.60808800  0.01999800  0.17954100  1
  O  O8  1  0.03982200  0.63911500  0.67715900  1
  O  O9  1  0.96017800  0.36088500  0.32284100  1
  O  O10  1  0.69749000  0.42934400  0.70298400  1
  O  O11  1  0.30251000  0.57065600  0.29701600  1
  O  O12  1  0.68125300  0.51039800  0.45873500  1
  O  O13  1  0.31874700  0.48960200  0.54126500  1
  O  O14  1  0.66154900  0.79566900  0.69721800  1
  O  O15  1  0.33845100  0.20433100  0.30278200  1
loop_
_geom_bond_atom_site_label_1
_geom_bond_atom_site_label_2
_geom_bond_distance
_geom_bond_site_symmetry_2
Nd0 O10 2.409551 1_555
Nd0 O3 2.411200 1_655
Nd0 O14 2.423480 1_545
Nd0 O6 2.633588 1_545
Nd0 O5 2.687605 1_555
Nd1 O11 2.409551 1_555
Nd1 O2 2.411200 1_455
Nd1 O15 2.423480 1_565
Nd1 O7 2.633588 1_565
Nd1 O4 2.687605 1_555
Nd2 O0 2.403509 1_555
Nd2 O13 2.406973 1_555
Nd2 O8 2.413961 1_555
Nd2 O5 2.417410 1_555
Nd2 O6 2.417659 1_555
Nd2 O14 2.581870 1_555
Nd2 O10 2.878657 1_555
Nd3 O1 2.403509 1_555
Nd3 O12 2.406973 1_555
Nd3 O9 2.413961 1_555
Nd3 O4 2.417410 1_555
Nd3 O7 2.417659 1_555
Nd3 O15 2.581870 1_555
Nd3 O11 2.878657 1_555
Mo0 O0 1.776037 1_554
Mo0 O2 1.776079 1_555
Mo0 O7 1.822992 1_565
Mo0 O4 1.826569 1_555
Mo1 O1 1.776037 1_556
Mo1 O3 1.776079 1_555
Mo1 O6 1.822992 1_545
Mo1 O5 1.826569 1_555
Mo2 O8 1.774010 1_655
Mo2 O12 1.781420 1_555
Mo2 O10 1.803373 1_555
Mo2 O14 1.832279 1_555
Mo3 O9 1.774010 1_455
Mo3 O13 1.781420 1_555
Mo3 O11 1.803373 1_555
Mo3 O15 1.832279 1_555
Br0 Nd1 2.998999 1_555
Br0 Nd0 3.000424 1_565
Br1 Nd0 2.998999 1_555
Br1 Nd1 3.000424 1_545
Br2 Nd1 3.006128 1_556
Br2 Nd2 3.060862 1_555
Br3 Nd0 3.006128 1_554
Br3 Nd3 3.060862 1_555
