# generated using pymatgen
data_Ca2MnN3
_symmetry_space_group_name_H-M   'P 1'
_cell_length_a   5.91496189
_cell_length_b   5.91496189
_cell_length_c   11.62538100
_cell_angle_alpha   90.00000000
_cell_angle_beta   90.00000000
_cell_angle_gamma   125.05934377
_symmetry_Int_Tables_number   1
_chemical_formula_structural   Ca2MnN3
_chemical_formula_sum   'Ca8 Mn4 N12'
_cell_volume   332.93565192
_cell_formula_units_Z   4
loop_
 _symmetry_equiv_pos_site_id
 _symmetry_equiv_pos_as_xyz
  1  'x, y, z'
loop_
 _atom_site_type_symbol
 _atom_site_label
 _atom_site_symmetry_multiplicity
 _atom_site_fract_x
 _atom_site_fract_y
 _atom_site_fract_z
 _atom_site_occupancy
  Ca  Ca0  1  0.44867000  0.55133000  0.35558000  1
  Ca  Ca1  1  0.55133000  0.44867000  0.64442000  1
  Ca  Ca2  1  0.05133000  0.94867000  0.85558000  1
  Ca  Ca3  1  0.94867000  0.05133000  0.14442000  1
  Ca  Ca4  1  0.13938900  0.86061100  0.42299100  1
  Ca  Ca5  1  0.86061100  0.13938900  0.57700900  1
  Ca  Ca6  1  0.36061100  0.63938900  0.92299100  1
  Ca  Ca7  1  0.63938900  0.36061100  0.07700900  1
  Mn  Mn0  1  0.25413800  0.74586200  0.16086100  1
  Mn  Mn1  1  0.74586200  0.25413800  0.83913900  1
  Mn  Mn2  1  0.24586200  0.75413800  0.66086100  1
  Mn  Mn3  1  0.75413800  0.24586200  0.33913900  1
  N  N0  1  0.15657700  0.84342300  0.03873300  1
  N  N1  1  0.84342300  0.15657700  0.96126700  1
  N  N2  1  0.34342300  0.65657700  0.53873300  1
  N  N3  1  0.65657700  0.34342300  0.46126700  1
  N  N4  1  0.42053200  0.57946800  0.13444000  1
  N  N5  1  0.57946800  0.42053200  0.86556000  1
  N  N6  1  0.07946800  0.92053200  0.63444000  1
  N  N7  1  0.92053200  0.07946800  0.36556000  1
  N  N8  1  0.96361000  0.53639000  0.25000000  1
  N  N9  1  0.53639000  0.96361000  0.75000000  1
  N  N10  1  0.03639000  0.46361000  0.75000000  1
  N  N11  1  0.46361000  0.03639000  0.25000000  1
loop_
_geom_bond_atom_site_label_1
_geom_bond_atom_site_label_2
_geom_bond_distance
_geom_bond_site_symmetry_2
Ca0 N2 2.398732 1_555
Ca0 N3 2.504323 1_555
Ca0 N4 2.587746 1_555
Ca0 N7 2.746897 1_455
Ca0 N7 2.746897 1_565
Ca1 N3 2.398732 1_555
Ca1 N2 2.504323 1_555
Ca1 N5 2.587746 1_555
Ca1 N6 2.746897 1_545
Ca1 N6 2.746897 1_655
Ca2 N0 2.398732 1_556
Ca2 N1 2.504323 1_465
Ca2 N6 2.587746 1_555
Ca2 N5 2.746897 1_455
Ca2 N5 2.746897 1_565
Ca3 N1 2.398732 1_554
Ca3 N0 2.504323 1_645
Ca3 N7 2.587746 1_555
Ca3 N4 2.746897 1_545
Ca3 N4 2.746897 1_655
Ca4 N7 2.392204 1_465
Ca4 N2 2.529184 1_555
Ca4 N6 2.537358 1_555
Ca4 N8 2.551969 1_455
Ca4 N11 2.551969 1_565
Ca4 N3 2.770434 1_565
Ca4 N3 2.770434 1_455
Ca5 N6 2.392204 1_645
Ca5 N3 2.529184 1_555
Ca5 N7 2.537358 1_555
Ca5 N10 2.551969 1_655
Ca5 N9 2.551969 1_545
Ca5 N2 2.770434 1_655
Ca5 N2 2.770434 1_545
Ca6 N5 2.392204 1_555
Ca6 N0 2.529184 1_556
Ca6 N4 2.537358 1_556
Ca6 N10 2.551969 1_555
Ca6 N9 2.551969 1_555
Ca6 N1 2.770434 1_455
Ca6 N1 2.770434 1_565
Ca7 N4 2.392204 1_555
Ca7 N1 2.529184 1_554
Ca7 N5 2.537358 1_554
Ca7 N11 2.551969 1_555
Ca7 N8 2.551969 1_555
Ca7 N0 2.770434 1_655
Ca7 N0 2.770434 1_545
Mn0 N0 1.750538 1_555
Mn0 N11 1.765222 1_565
Mn0 N8 1.765222 1_455
Mn0 N4 1.773292 1_555
Mn1 N1 1.750538 1_555
Mn1 N10 1.765222 1_655
Mn1 N9 1.765222 1_545
Mn1 N5 1.773292 1_555
Mn2 N2 1.750538 1_555
Mn2 N10 1.765222 1_555
Mn2 N9 1.765222 1_555
Mn2 N6 1.773292 1_555
Mn3 N3 1.750538 1_555
Mn3 N11 1.765222 1_555
Mn3 N8 1.765222 1_555
Mn3 N7 1.773292 1_555
