# generated using pymatgen
data_Dy2Cu(WO4)4
_symmetry_space_group_name_H-M   'P 1'
_cell_length_a   10.09544248
_cell_length_b   10.09544248
_cell_length_c   11.33911948
_cell_angle_alpha   70.30306766
_cell_angle_beta   70.30306766
_cell_angle_gamma   32.72973547
_symmetry_Int_Tables_number   1
_chemical_formula_structural   Dy2Cu(WO4)4
_chemical_formula_sum   'Dy4 Cu2 W8 O32'
_cell_volume   585.01892760
_cell_formula_units_Z   2
loop_
 _symmetry_equiv_pos_site_id
 _symmetry_equiv_pos_as_xyz
  1  'x, y, z'
loop_
 _atom_site_type_symbol
 _atom_site_label
 _atom_site_symmetry_multiplicity
 _atom_site_fract_x
 _atom_site_fract_y
 _atom_site_fract_z
 _atom_site_occupancy
  Dy  Dy0  1  0.48343400  0.81516000  0.04489000  1
  Dy  Dy1  1  0.51656600  0.18484000  0.95511000  1
  Dy  Dy2  1  0.18484000  0.51656600  0.45511000  1
  Dy  Dy3  1  0.81516000  0.48343400  0.54489000  1
  Cu  Cu0  1  0.66233900  0.33766100  0.25000000  1
  Cu  Cu1  1  0.33766100  0.66233900  0.75000000  1
  W  W0  1  0.69089100  0.93529400  0.28485700  1
  W  W1  1  0.30910900  0.06470600  0.71514300  1
  W  W2  1  0.06470600  0.30910900  0.21514300  1
  W  W3  1  0.93529400  0.69089100  0.78485700  1
  W  W4  1  0.75603400  0.13252500  0.59053400  1
  W  W5  1  0.24396600  0.86747500  0.40946600  1
  W  W6  1  0.86747500  0.24396600  0.90946600  1
  W  W7  1  0.13252500  0.75603400  0.09053400  1
  O  O0  1  0.41246500  0.08284000  0.26458400  1
  O  O1  1  0.58753500  0.91716000  0.73541600  1
  O  O2  1  0.91716000  0.58753500  0.23541600  1
  O  O3  1  0.08284000  0.41246500  0.76458400  1
  O  O4  1  0.53743400  0.21186600  0.32146600  1
  O  O5  1  0.46256600  0.78813400  0.67853400  1
  O  O6  1  0.78813400  0.46256600  0.17853400  1
  O  O7  1  0.21186600  0.53743400  0.82146600  1
  O  O8  1  0.77848600  0.95855000  0.10150000  1
  O  O9  1  0.22151400  0.04145000  0.89850000  1
  O  O10  1  0.04145000  0.22151400  0.39850000  1
  O  O11  1  0.95855000  0.77848600  0.60150000  1
  O  O12  1  0.24286500  0.97334000  0.22912400  1
  O  O13  1  0.75713500  0.02666000  0.77087600  1
  O  O14  1  0.02666000  0.75713500  0.27087600  1
  O  O15  1  0.97334000  0.24286500  0.72912400  1
  O  O16  1  0.87497800  0.10487100  0.41066400  1
  O  O17  1  0.12502200  0.89512900  0.58933600  1
  O  O18  1  0.89512900  0.12502200  0.08933600  1
  O  O19  1  0.10487100  0.87497800  0.91066400  1
  O  O20  1  0.39379100  0.63425900  0.11963000  1
  O  O21  1  0.60620900  0.36574100  0.88037000  1
  O  O22  1  0.36574100  0.60620900  0.38037000  1
  O  O23  1  0.63425900  0.39379100  0.61963000  1
  O  O24  1  0.52117300  0.71788800  0.42615600  1
  O  O25  1  0.47882700  0.28211200  0.57384400  1
  O  O26  1  0.28211200  0.47882700  0.07384400  1
  O  O27  1  0.71788800  0.52117300  0.92615600  1
  O  O28  1  0.25368900  0.21160300  0.05494000  1
  O  O29  1  0.74631100  0.78839700  0.94506000  1
  O  O30  1  0.78839700  0.74631100  0.44506000  1
  O  O31  1  0.21160300  0.25368900  0.55494000  1
loop_
_geom_bond_atom_site_label_1
_geom_bond_atom_site_label_2
_geom_bond_distance
_geom_bond_site_symmetry_2
Dy0 O27 2.224850 1_554
Dy0 O12 2.261898 1_555
Dy0 O9 2.281534 1_564
Dy0 O29 2.317779 1_554
Dy0 O6 2.348031 1_555
Dy0 O28 2.433521 1_565
Dy0 O20 2.468378 1_555
Dy1 O26 2.224850 1_556
Dy1 O13 2.261898 1_555
Dy1 O8 2.281534 1_546
Dy1 O28 2.317779 1_556
Dy1 O7 2.348031 1_555
Dy1 O29 2.433521 1_545
Dy1 O21 2.468378 1_555
Dy2 O25 2.224850 1_555
Dy2 O14 2.261898 1_555
Dy2 O11 2.281534 1_455
Dy2 O31 2.317779 1_555
Dy2 O4 2.348031 1_555
Dy2 O30 2.433521 1_455
Dy2 O22 2.468378 1_555
Dy3 O24 2.224850 1_555
Dy3 O15 2.261898 1_555
Dy3 O10 2.281534 1_655
Dy3 O30 2.317779 1_555
Dy3 O5 2.348031 1_555
Dy3 O31 2.433521 1_655
Dy3 O23 2.468378 1_555
Cu0 O22 2.135663 1_555
Cu0 O20 2.135663 1_555
Cu0 O16 2.170817 1_555
Cu0 O18 2.170817 1_555
Cu0 O6 2.274037 1_555
Cu0 O4 2.274037 1_555
Cu1 O23 2.135663 1_555
Cu1 O21 2.135663 1_555
Cu1 O19 2.170817 1_555
Cu1 O17 2.170817 1_555
Cu1 O5 2.274037 1_555
Cu1 O7 2.274037 1_555
O0 W0 1.825621 1_545
O0 W2 2.197415 1_555
O1 W1 1.825621 1_565
O1 W3 2.197415 1_555
O2 W2 1.825621 1_655
O2 W0 2.197415 1_555
O3 W3 1.825621 1_455
O3 W1 2.197415 1_555
O4 W0 1.854309 1_545
O5 W1 1.854309 1_565
O6 W2 1.854309 1_655
O7 W3 1.854309 1_455
O8 W0 1.985122 1_555
O8 W7 2.132505 1_655
O9 W1 1.985122 1_555
O9 W6 2.132505 1_455
O10 W2 1.985122 1_555
O10 W5 2.132505 1_545
O11 W3 1.985122 1_555
O11 W4 2.132505 1_565
O12 W5 1.961162 1_555
O12 W2 2.079132 1_565
O13 W4 1.961162 1_555
O13 W3 2.079132 1_545
O14 W7 1.961162 1_555
O14 W0 2.079132 1_455
O15 W6 1.961162 1_555
O15 W1 2.079132 1_655
O16 W4 1.961779 1_555
O16 W5 2.141904 1_645
O17 W5 1.961779 1_555
O17 W4 2.141904 1_465
O18 W6 1.961779 1_554
O18 W7 2.141904 1_645
O19 W7 1.961779 1_556
O19 W6 2.141904 1_465
O20 W7 1.853315 1_555
O21 W6 1.853315 1_555
O22 W5 1.853315 1_555
O23 W4 1.853315 1_555
O24 W5 1.789436 1_555
O25 W4 1.789436 1_555
O26 W7 1.789436 1_555
O27 W6 1.789436 1_555
O28 W2 1.902170 1_555
O29 W3 1.902170 1_555
O30 W0 1.902170 1_555
O31 W1 1.902170 1_555
