# generated using pymatgen
data_MgCo5(P2O7)4
_symmetry_space_group_name_H-M   'P 1'
_cell_length_a   7.55421202
_cell_length_b   7.75545805
_cell_length_c   10.45028342
_cell_angle_alpha   107.96179750
_cell_angle_beta   85.50688758
_cell_angle_gamma   95.19531031
_symmetry_Int_Tables_number   1
_chemical_formula_structural   MgCo5(P2O7)4
_chemical_formula_sum   'Mg1 Co5 P8 O28'
_cell_volume   579.19036417
_cell_formula_units_Z   1
loop_
 _symmetry_equiv_pos_site_id
 _symmetry_equiv_pos_as_xyz
  1  'x, y, z'
loop_
 _atom_site_type_symbol
 _atom_site_label
 _atom_site_symmetry_multiplicity
 _atom_site_fract_x
 _atom_site_fract_y
 _atom_site_fract_z
 _atom_site_occupancy
  Mg  Mg0  1  0.52437961  0.09280675  0.15806617  1
  Co  Co0  1  0.27352005  0.84825774  0.59726733  1
  Co  Co1  1  0.22542891  0.81368454  0.07444759  1
  Co  Co2  1  0.49075091  0.49387826  0.99802026  1
  Co  Co3  1  0.77056007  0.16962990  0.91264007  1
  Co  Co4  1  0.75719268  0.15342403  0.41137171  1
  P  P0  1  0.17452155  0.18847144  0.02873176  1
  P  P1  1  0.16183455  0.20324879  0.31198363  1
  P  P2  1  0.27930427  0.54942250  0.75911819  1
  P  P3  1  0.48981289  0.76985604  0.30118022  1
  P  P4  1  0.51133469  0.23983006  0.69340758  1
  P  P5  1  0.71969795  0.44653264  0.23488529  1
  P  P6  1  0.84601887  0.80489552  0.68853214  1
  P  P7  1  0.81682078  0.80335003  0.97640267  1
  O  O0  1  0.97305735  0.83377139  0.06404035  1
  O  O1  1  0.99193190  0.13076123  0.38183090  1
  O  O2  1  0.10031873  0.45378260  0.73934849  1
  O  O3  1  0.08233933  0.22293544  0.17709227  1
  O  O4  1  0.28329546  0.36473474  0.02734045  1
  O  O5  1  0.24244469  0.37745627  0.39830147  1
  O  O6  1  0.31902491  0.70961671  0.69928785  1
  O  O7  1  0.35548500  0.81610131  0.42050759  1
  O  O8  1  0.33615539  0.62605041  0.90864082  1
  O  O9  1  0.36152255  0.09173425  0.67681423  1
  O  O10  1  0.30529127  0.03765181  0.00517675  1
  O  O11  1  0.40086184  0.70524368  0.16384641  1
  O  O12  1  0.28777590  0.04706683  0.25630333  1
  O  O13  1  0.43652624  0.41913588  0.68369043  1
  O  O14  1  0.58230284  0.60010292  0.31315094  1
  O  O15  1  0.75115143  0.98268726  0.73769496  1
  O  O16  1  0.58872528  0.29106340  0.83508282  1
  O  O17  1  0.70197636  0.97073111  0.01083105  1
  O  O18  1  0.62270925  0.93261147  0.29684995  1
  O  O19  1  0.63340581  0.34496784  0.09325422  1
  O  O20  1  0.65942578  0.19945811  0.58188970  1
  O  O21  1  0.67213347  0.28959279  0.30229236  1
  O  O22  1  0.73697760  0.64819790  0.60066349  1
  O  O23  1  0.69825737  0.63549028  0.98374892  1
  O  O24  1  0.89508550  0.76429759  0.82494839  1
  O  O25  1  0.90185345  0.52899788  0.23246101  1
  O  O26  1  0.02533082  0.83874828  0.61623612  1
  O  O27  1  0.02238469  0.15138941  0.93512011  1
loop_
_geom_bond_atom_site_label_1
_geom_bond_atom_site_label_2
_geom_bond_distance
_geom_bond_site_symmetry_2
Mg0 O17 2.017878 1_545
Mg0 O12 2.048581 1_555
Mg0 O21 2.093571 1_555
Mg0 O10 2.310730 1_555
Mg0 O19 2.323656 1_555
Mg0 O18 2.376130 1_545
Co0 O6 1.800644 1_555
Co0 O7 1.849954 1_555
Co0 O26 1.866985 1_555
Co0 O9 1.894642 1_565
Co1 O0 1.940990 1_455
Co1 O11 2.053495 1_555
Co1 O8 2.063440 1_554
Co1 O10 2.102943 1_565
Co1 O12 2.230220 1_565
Co2 O4 1.839239 1_556
Co2 O23 1.854252 1_555
Co2 O8 2.065251 1_555
Co2 O16 2.069468 1_555
Co2 O11 2.101528 1_556
Co2 O19 2.141918 1_556
Co3 O27 1.957891 1_655
Co3 O15 1.958213 1_545
Co3 O16 2.076092 1_555
Co3 O17 2.109273 1_546
Co3 O19 2.202476 1_556
Co4 O1 1.791058 1_555
Co4 O20 1.815896 1_555
Co4 O21 1.951315 1_555
Co4 O18 2.002101 1_545
O0 P7 1.507667 1_554
O1 P1 1.572190 1_655
O2 P2 1.479404 1_555
O3 P0 1.602840 1_555
O3 P1 1.628816 1_555
O4 P0 1.533317 1_555
O5 P1 1.481643 1_555
O6 P2 1.551342 1_555
O7 P3 1.518276 1_555
O8 P2 1.570153 1_555
O9 P4 1.517406 1_555
O10 P0 1.548607 1_555
O11 P3 1.552069 1_555
O12 P1 1.548592 1_555
O13 P4 1.581721 1_555
O13 P2 1.622444 1_555
O14 P3 1.587097 1_555
O14 P5 1.629349 1_555
O15 P6 1.537248 1_555
O16 P4 1.556406 1_555
O17 P7 1.560194 1_554
O18 P3 1.549772 1_555
O19 P5 1.604729 1_555
O20 P4 1.530297 1_555
O21 P5 1.586409 1_555
O22 P6 1.499175 1_555
O23 P7 1.530540 1_555
O24 P7 1.592642 1_555
O24 P6 1.627756 1_555
O25 P5 1.465713 1_555
O26 P6 1.540180 1_455
O27 P0 1.517670 1_556
