# generated using pymatgen
data_ZnHNO4
_symmetry_space_group_name_H-M   'P 1'
_cell_length_a   5.72003700
_cell_length_b   7.73862800
_cell_length_c   9.13082000
_cell_angle_alpha   90.00000000
_cell_angle_beta   90.00000000
_cell_angle_gamma   90.00000000
_symmetry_Int_Tables_number   1
_chemical_formula_structural   ZnHNO4
_chemical_formula_sum   'Zn4 H4 N4 O16'
_cell_volume   404.17792490
_cell_formula_units_Z   4
loop_
 _symmetry_equiv_pos_site_id
 _symmetry_equiv_pos_as_xyz
  1  'x, y, z'
loop_
 _atom_site_type_symbol
 _atom_site_label
 _atom_site_symmetry_multiplicity
 _atom_site_fract_x
 _atom_site_fract_y
 _atom_site_fract_z
 _atom_site_occupancy
  Zn  Zn0  1  0.14964500  0.69680700  0.63951000  1
  Zn  Zn1  1  0.64964500  0.30319300  0.36049000  1
  Zn  Zn2  1  0.64964500  0.19680700  0.86049000  1
  Zn  Zn3  1  0.14964500  0.80319300  0.13951000  1
  H  H0  1  0.89504500  0.93121400  0.60049100  1
  H  H1  1  0.39504500  0.06878600  0.39950900  1
  H  H2  1  0.39504500  0.43121400  0.89950900  1
  H  H3  1  0.89504500  0.56878600  0.10049100  1
  N  N0  1  0.41845300  0.64102500  0.37802700  1
  N  N1  1  0.91845300  0.35897500  0.62197300  1
  N  N2  1  0.91845300  0.14102500  0.12197300  1
  N  N3  1  0.41845300  0.85897500  0.87802700  1
  O  O0  1  0.41923400  0.59733300  0.51240600  1
  O  O1  1  0.91923400  0.40266700  0.48759400  1
  O  O2  1  0.91923400  0.09733300  0.98759400  1
  O  O3  1  0.41923400  0.90266700  0.01240600  1
  O  O4  1  0.30895100  0.77723500  0.33947900  1
  O  O5  1  0.80895100  0.22276500  0.66052100  1
  O  O6  1  0.80895100  0.27723500  0.16052100  1
  O  O7  1  0.30895100  0.72276500  0.83947900  1
  O  O8  1  0.52386500  0.55043300  0.28449000  1
  O  O9  1  0.02386500  0.44956700  0.71551000  1
  O  O10  1  0.02386500  0.05043300  0.21551000  1
  O  O11  1  0.52386500  0.94956700  0.78449000  1
  O  O12  1  0.90240800  0.81445100  0.56111500  1
  O  O13  1  0.40240800  0.18554900  0.43888500  1
  O  O14  1  0.40240800  0.31445100  0.93888500  1
  O  O15  1  0.90240800  0.68554900  0.06111500  1
loop_
_geom_bond_atom_site_label_1
_geom_bond_atom_site_label_2
_geom_bond_distance
_geom_bond_site_symmetry_2
H0 O12 0.973399 1_555
H1 O13 0.973399 1_555
H2 O14 0.973399 1_555
H3 O15 0.973399 1_555
N0 O8 1.258761 1_555
N0 O0 1.272733 1_555
N0 O4 1.275652 1_555
N1 O9 1.258761 1_655
N1 O1 1.272733 1_555
N1 O5 1.275652 1_555
N2 O10 1.258761 1_655
N2 O2 1.272733 1_554
N2 O6 1.275652 1_555
N3 O11 1.258761 1_555
N3 O3 1.272733 1_556
N3 O7 1.275652 1_555
O0 Zn0 2.077844 1_555
O1 Zn1 2.077844 1_555
O2 Zn2 2.077844 1_555
O3 Zn3 2.077844 1_555
O4 Zn3 2.050499 1_555
O5 Zn2 2.050499 1_555
O6 Zn1 2.050499 1_555
O7 Zn0 2.050499 1_555
O8 Zn1 2.158680 1_555
O9 Zn0 2.158680 1_555
O10 Zn3 2.158680 1_545
O11 Zn2 2.158680 1_565
O12 Zn0 1.827893 1_655
O13 Zn1 1.827893 1_555
O14 Zn2 1.827893 1_555
O15 Zn3 1.827893 1_655
