# generated using pymatgen
data_Rb(CrS2)2
_symmetry_space_group_name_H-M   'P 1'
_cell_length_a   7.35773490
_cell_length_b   7.35773490
_cell_length_c   7.35773490
_cell_angle_alpha   111.40626429
_cell_angle_beta   111.40626429
_cell_angle_gamma   105.66681648
_symmetry_Int_Tables_number   1
_chemical_formula_structural   Rb(CrS2)2
_chemical_formula_sum   'Rb2 Cr4 S8'
_cell_volume   305.62189776
_cell_formula_units_Z   2
loop_
 _symmetry_equiv_pos_site_id
 _symmetry_equiv_pos_as_xyz
  1  'x, y, z'
loop_
 _atom_site_type_symbol
 _atom_site_label
 _atom_site_symmetry_multiplicity
 _atom_site_fract_x
 _atom_site_fract_y
 _atom_site_fract_z
 _atom_site_occupancy
  Rb  Rb0  1  0.00000000  0.00000000  0.00000000  1
  Rb  Rb1  1  0.75000000  0.25000000  0.50000000  1
  Cr  Cr0  1  0.87500000  0.62500000  0.25000000  1
  Cr  Cr1  1  0.37500000  0.12500000  0.75000000  1
  Cr  Cr2  1  0.37500000  0.62500000  0.75000000  1
  Cr  Cr3  1  0.37500000  0.62500000  0.25000000  1
  S  S0  1  0.53437100  0.36549300  0.16887700  1
  S  S1  1  0.63450700  0.46562900  0.83112300  1
  S  S2  1  0.19661600  0.36549300  0.83112300  1
  S  S3  1  0.63450700  0.80338400  0.16887700  1
  S  S4  1  0.21562900  0.88450700  0.33112300  1
  S  S5  1  0.11549300  0.44661600  0.33112300  1
  S  S6  1  0.55338400  0.88450700  0.66887700  1
  S  S7  1  0.11549300  0.78437100  0.66887700  1
loop_
_geom_bond_atom_site_label_1
_geom_bond_atom_site_label_2
_geom_bond_distance
_geom_bond_site_symmetry_2
Rb0 S4 2.931331 1_545
Rb0 S7 2.931331 1_544
Rb0 S5 2.931334 1_555
Rb0 S6 2.931334 1_444
Rb0 S2 3.538174 1_554
Rb0 S3 3.538174 1_445
Rb0 S0 3.538179 1_555
Rb0 S1 3.538179 1_444
Rb1 S0 2.931331 1_555
Rb1 S1 2.931331 1_555
Rb1 S2 2.931334 1_655
Rb1 S3 2.931334 1_545
Rb1 S5 3.538174 1_655
Rb1 S6 3.538174 1_545
Rb1 S7 3.538179 1_655
Rb1 S4 3.538179 1_545
Cr0 S4 2.403108 1_655
Cr0 S0 2.403108 1_555
Cr0 S7 2.503041 1_655
Cr0 S1 2.503041 1_554
Cr0 S3 2.503042 1_555
Cr0 S5 2.503042 1_655
Cr1 S1 2.403108 1_555
Cr1 S7 2.403108 1_545
Cr1 S0 2.503041 1_556
Cr1 S4 2.503041 1_545
Cr1 S2 2.503042 1_555
Cr1 S6 2.503042 1_545
Cr2 S6 2.403113 1_555
Cr2 S2 2.403113 1_555
Cr2 S3 2.503042 1_556
Cr2 S5 2.503042 1_555
Cr2 S7 2.503048 1_555
Cr2 S1 2.503048 1_555
Cr3 S3 2.403113 1_555
Cr3 S5 2.403113 1_555
Cr3 S6 2.503042 1_555
Cr3 S2 2.503042 1_554
Cr3 S4 2.503048 1_555
Cr3 S0 2.503048 1_555
