# generated using pymatgen
data_NdP2(HO2)3
_symmetry_space_group_name_H-M   'P 1'
_cell_length_a   9.94204800
_cell_length_b   8.28122200
_cell_length_c   8.63099141
_cell_angle_alpha   68.36463140
_cell_angle_beta   90.00000000
_cell_angle_gamma   90.00000000
_symmetry_Int_Tables_number   1
_chemical_formula_structural   NdP2(HO2)3
_chemical_formula_sum   'Nd4 P8 H12 O24'
_cell_volume   660.54633277
_cell_formula_units_Z   4
loop_
 _symmetry_equiv_pos_site_id
 _symmetry_equiv_pos_as_xyz
  1  'x, y, z'
loop_
 _atom_site_type_symbol
 _atom_site_label
 _atom_site_symmetry_multiplicity
 _atom_site_fract_x
 _atom_site_fract_y
 _atom_site_fract_z
 _atom_site_occupancy
  Nd  Nd0  1  0.03605700  0.74437100  0.51913200  1
  Nd  Nd1  1  0.53605700  0.25562900  0.98086800  1
  Nd  Nd2  1  0.96394300  0.25562900  0.48086800  1
  Nd  Nd3  1  0.46394300  0.74437100  0.01913200  1
  P  P0  1  0.88193600  0.44477900  0.80956200  1
  P  P1  1  0.38193600  0.55522100  0.69043800  1
  P  P2  1  0.11806400  0.55522100  0.19043800  1
  P  P3  1  0.61806400  0.44477900  0.30956200  1
  P  P4  1  0.65339600  0.90490700  0.38735900  1
  P  P5  1  0.15339600  0.09509300  0.11264100  1
  P  P6  1  0.34660400  0.09509300  0.61264100  1
  P  P7  1  0.84660400  0.90490700  0.88735900  1
  H  H0  1  0.63498100  0.86901900  0.56122200  1
  H  H1  1  0.13498100  0.13098100  0.93877800  1
  H  H2  1  0.36501900  0.13098100  0.43877800  1
  H  H3  1  0.86501900  0.86901900  0.06122200  1
  H  H4  1  0.96489800  0.34853200  0.94453800  1
  H  H5  1  0.46489800  0.65146800  0.55546200  1
  H  H6  1  0.03510200  0.65146800  0.05546200  1
  H  H7  1  0.53510200  0.34853200  0.44453800  1
  H  H8  1  0.33382400  0.46685700  0.43542300  1
  H  H9  1  0.83382400  0.53314300  0.06457700  1
  H  H10  1  0.66617600  0.53314300  0.56457700  1
  H  H11  1  0.16617600  0.46685700  0.93542300  1
  O  O0  1  0.73943500  0.37377000  0.85714300  1
  O  O1  1  0.23943500  0.62623000  0.64285700  1
  O  O2  1  0.26056500  0.62623000  0.14285700  1
  O  O3  1  0.76056500  0.37377000  0.35714300  1
  O  O4  1  0.57426300  0.06465200  0.28457600  1
  O  O5  1  0.07426300  0.93534800  0.21542400  1
  O  O6  1  0.42573700  0.93534800  0.71542400  1
  O  O7  1  0.92573700  0.06465200  0.78457600  1
  O  O8  1  0.13533300  0.03103600  0.47298000  1
  O  O9  1  0.63533300  0.96896400  0.02702000  1
  O  O10  1  0.86466700  0.96896400  0.52702000  1
  O  O11  1  0.36466700  0.03103600  0.97298000  1
  O  O12  1  0.90377900  0.63954700  0.77613000  1
  O  O13  1  0.40377900  0.36045300  0.72387000  1
  O  O14  1  0.09622100  0.36045300  0.22387000  1
  O  O15  1  0.59622100  0.63954700  0.27613000  1
  O  O16  1  0.81711000  0.92457000  0.37850200  1
  O  O17  1  0.31711000  0.07543000  0.12149800  1
  O  O18  1  0.18289000  0.07543000  0.62149800  1
  O  O19  1  0.68289000  0.92457000  0.87850200  1
  O  O20  1  0.93945800  0.42633400  0.64908100  1
  O  O21  1  0.43945800  0.57366600  0.85091900  1
  O  O22  1  0.06054200  0.57366600  0.35091900  1
  O  O23  1  0.56054200  0.42633400  0.14908100  1
loop_
_geom_bond_atom_site_label_1
_geom_bond_atom_site_label_2
_geom_bond_distance
_geom_bond_site_symmetry_2
Nd0 O1 2.327140 1_555
Nd0 O22 2.383052 1_555
Nd0 O12 2.446096 1_455
Nd0 O8 2.463966 1_565
Nd0 O5 2.541600 1_555
Nd0 O10 2.541802 1_455
Nd0 O20 2.634127 1_455
Nd0 O16 2.665120 1_455
Nd1 O0 2.327140 1_555
Nd1 O23 2.383052 1_556
Nd1 O13 2.446096 1_555
Nd1 O9 2.463966 1_546
Nd1 O4 2.541600 1_556
Nd1 O11 2.541802 1_555
Nd1 O21 2.634127 1_555
Nd1 O17 2.665120 1_556
Nd2 O3 2.327140 1_555
Nd2 O20 2.383052 1_555
Nd2 O14 2.446096 1_655
Nd2 O10 2.463966 1_545
Nd2 O7 2.541600 1_555
Nd2 O8 2.541802 1_655
Nd2 O22 2.634127 1_655
Nd2 O18 2.665120 1_655
Nd3 O2 2.327140 1_555
Nd3 O21 2.383052 1_554
Nd3 O15 2.446096 1_555
Nd3 O11 2.463966 1_564
Nd3 O6 2.541600 1_554
Nd3 O9 2.541802 1_555
Nd3 O23 2.634127 1_555
Nd3 O19 2.665120 1_554
H0 P4 1.429970 1_555
H1 P5 1.429970 1_556
H2 P6 1.429970 1_555
H3 P7 1.429970 1_554
H4 P0 1.409987 1_555
H5 P1 1.409987 1_555
H6 P2 1.409987 1_555
H7 P3 1.409987 1_555
O0 P0 1.530867 1_555
O1 P1 1.530867 1_555
O2 P2 1.530867 1_555
O3 P3 1.530867 1_555
O4 P4 1.513470 1_545
O5 P5 1.513470 1_565
O6 P6 1.513470 1_565
O7 P7 1.513470 1_545
O10 O16 1.532766 1_555
O11 O17 1.532766 1_556
O12 P0 1.545552 1_555
O13 P1 1.545552 1_555
O14 P2 1.545552 1_555
O15 P3 1.545552 1_555
O16 P4 1.634758 1_555
O17 P5 1.634758 1_555
O18 O8 1.532766 1_555
O18 P6 1.634758 1_555
O19 O9 1.532766 1_556
O19 P7 1.634758 1_555
O20 P0 1.557218 1_555
O21 P1 1.557218 1_555
O22 P2 1.557218 1_555
O23 P3 1.557218 1_555
