# generated using pymatgen
data_Dy5(Sn3Os)6
_symmetry_space_group_name_H-M   'P 1'
_cell_length_a   9.90565101
_cell_length_b   9.90565101
_cell_length_c   9.90565101
_cell_angle_alpha   60.00000000
_cell_angle_beta   60.00000000
_cell_angle_gamma   60.00000000
_symmetry_Int_Tables_number   1
_chemical_formula_structural   Dy5(Sn3Os)6
_chemical_formula_sum   'Dy5 Sn18 Os6'
_cell_volume   687.28057801
_cell_formula_units_Z   1
loop_
 _symmetry_equiv_pos_site_id
 _symmetry_equiv_pos_as_xyz
  1  'x, y, z'
loop_
 _atom_site_type_symbol
 _atom_site_label
 _atom_site_symmetry_multiplicity
 _atom_site_fract_x
 _atom_site_fract_y
 _atom_site_fract_z
 _atom_site_occupancy
  Dy  Dy0  1  0.00000000  0.00000000  0.00000000  1
  Dy  Dy1  1  0.37172000  0.37172100  0.88483900  1
  Dy  Dy2  1  0.37172100  0.88483800  0.37172000  1
  Dy  Dy3  1  0.88483800  0.37172100  0.37172000  1
  Dy  Dy4  1  0.37172100  0.37172000  0.37172000  1
  Sn  Sn0  1  0.59010200  0.59010200  0.22969500  1
  Sn  Sn1  1  0.59010200  0.22969500  0.59010200  1
  Sn  Sn2  1  0.22969500  0.59010200  0.59010200  1
  Sn  Sn3  1  0.59010200  0.59010200  0.59010200  1
  Sn  Sn4  1  0.75000000  0.75000000  0.75000000  1
  Sn  Sn5  1  0.99811000  0.35078400  0.65299700  1
  Sn  Sn6  1  0.99811000  0.99811000  0.65299700  1
  Sn  Sn7  1  0.35078400  0.99811000  0.65299700  1
  Sn  Sn8  1  0.99811000  0.65299700  0.35078400  1
  Sn  Sn9  1  0.35078400  0.65299700  0.99811000  1
  Sn  Sn10  1  0.99811000  0.65299700  0.99811000  1
  Sn  Sn11  1  0.65299700  0.99811000  0.99811000  1
  Sn  Sn12  1  0.65299700  0.35078400  0.99811000  1
  Sn  Sn13  1  0.65299700  0.99811000  0.35078400  1
  Sn  Sn14  1  0.35078400  0.99811000  0.99811000  1
  Sn  Sn15  1  0.99811000  0.99811000  0.35078400  1
  Sn  Sn16  1  0.99811000  0.35078400  0.99811000  1
  Sn  Sn17  1  0.25000000  0.25000000  0.25000000  1
  Os  Os0  1  0.25331600  0.25331600  0.74668400  1
  Os  Os1  1  0.74668400  0.25331600  0.74668400  1
  Os  Os2  1  0.25331600  0.74668400  0.74668400  1
  Os  Os3  1  0.74668400  0.74668400  0.25331600  1
  Os  Os4  1  0.25331600  0.74668400  0.25331600  1
  Os  Os5  1  0.74668400  0.25331600  0.25331600  1
loop_
_geom_bond_atom_site_label_1
_geom_bond_atom_site_label_2
_geom_bond_distance
_geom_bond_site_symmetry_2
Dy0 Sn11 3.456114 1_444
Dy0 Sn6 3.456114 1_444
Dy0 Sn10 3.456114 1_444
Dy0 Sn8 3.456119 1_445
Dy0 Sn9 3.456119 1_544
Dy0 Sn12 3.456119 1_454
Dy0 Sn7 3.456119 1_544
Dy0 Sn13 3.456119 1_445
Dy0 Sn5 3.456119 1_454
Dy0 Sn14 3.456124 1_544
Dy0 Sn15 3.456124 1_445
Dy0 Sn16 3.456124 1_454
Dy0 Os5 3.548629 1_455
Dy0 Os3 3.548629 1_445
Dy0 Os1 3.548629 1_454
Dy0 Os0 3.548629 1_554
Dy0 Os4 3.548629 1_545
Dy0 Os2 3.548629 1_544
Dy1 Sn17 2.953397 1_556
Dy1 Os2 3.034777 1_555
Dy1 Os1 3.034785 1_555
Dy1 Os0 3.034785 1_555
Dy1 Sn2 3.151348 1_555
Dy1 Sn3 3.151354 1_555
Dy1 Sn1 3.151354 1_555
Dy1 Sn16 3.373520 1_455
Dy1 Sn10 3.373520 1_455
Dy1 Sn14 3.373525 1_545
Dy1 Sn9 3.373525 1_555
Dy1 Sn11 3.373529 1_545
Dy1 Sn12 3.373529 1_555
Dy2 Sn17 2.953405 1_565
Dy2 Os3 3.034777 1_555
Dy2 Os4 3.034777 1_555
Dy2 Os2 3.034785 1_555
Dy2 Sn0 3.151340 1_555
Dy2 Sn2 3.151346 1_555
Dy2 Sn3 3.151351 1_555
Dy2 Sn14 3.373517 1_554
Dy2 Sn11 3.373522 1_554
Dy2 Sn15 3.373523 1_455
Dy2 Sn6 3.373531 1_455
Dy2 Sn13 3.373532 1_555
Dy2 Sn7 3.373537 1_555
Dy3 Sn17 2.953405 1_655
Dy3 Os3 3.034777 1_555
Dy3 Os5 3.034777 1_555
Dy3 Os1 3.034785 1_555
Dy3 Sn0 3.151340 1_555
Dy3 Sn1 3.151346 1_555
Dy3 Sn3 3.151351 1_555
Dy3 Sn16 3.373517 1_554
Dy3 Sn10 3.373522 1_554
Dy3 Sn15 3.373523 1_545
Dy3 Sn6 3.373531 1_545
Dy3 Sn8 3.373532 1_555
Dy3 Sn5 3.373537 1_555
Dy4 Sn17 2.953397 1_555
Dy4 Os5 3.034777 1_555
Dy4 Os4 3.034785 1_555
Dy4 Os0 3.034785 1_555
Dy4 Sn1 3.151356 1_555
Dy4 Sn0 3.151356 1_555
Dy4 Sn2 3.151362 1_555
Dy4 Sn13 3.373518 1_545
Dy4 Sn12 3.373518 1_554
Dy4 Sn9 3.373522 1_554
Dy4 Sn7 3.373522 1_545
Dy4 Sn8 3.373527 1_455
Dy4 Sn5 3.373527 1_455
Os0 Sn5 2.682054 1_455
Os0 Sn7 2.682054 1_545
Os0 Sn14 2.682060 1_545
Os0 Sn16 2.682060 1_455
Os0 Sn2 2.828050 1_555
Os0 Sn1 2.828050 1_555
Os1 Sn11 2.682056 1_545
Os1 Sn6 2.682056 1_545
Os1 Sn5 2.682063 1_555
Os1 Sn12 2.682063 1_555
Os1 Sn1 2.828041 1_555
Os1 Sn3 2.828047 1_555
Os2 Sn6 2.682056 1_455
Os2 Sn10 2.682056 1_455
Os2 Sn9 2.682063 1_555
Os2 Sn7 2.682063 1_555
Os2 Sn2 2.828041 1_555
Os2 Sn3 2.828047 1_555
Os3 Sn10 2.682056 1_554
Os3 Sn11 2.682056 1_554
Os3 Sn8 2.682063 1_555
Os3 Sn13 2.682063 1_555
Os3 Sn0 2.828041 1_555
Os3 Sn3 2.828047 1_555
Os4 Sn8 2.682054 1_455
Os4 Sn9 2.682054 1_554
Os4 Sn15 2.682060 1_455
Os4 Sn14 2.682060 1_554
Os4 Sn2 2.828050 1_555
Os4 Sn0 2.828050 1_555
Os5 Sn13 2.682054 1_545
Os5 Sn12 2.682054 1_554
Os5 Sn16 2.682060 1_554
Os5 Sn15 2.682060 1_545
Os5 Sn1 2.828050 1_555
Os5 Sn0 2.828050 1_555
