# generated using pymatgen
data_Na2MnPCO7
_symmetry_space_group_name_H-M   'P 1'
_cell_length_a   6.72773700
_cell_length_b   10.21482785
_cell_length_c   10.43208508
_cell_angle_alpha   119.28659328
_cell_angle_beta   90.11740824
_cell_angle_gamma   90.23214921
_symmetry_Int_Tables_number   1
_chemical_formula_structural   Na2MnPCO7
_chemical_formula_sum   'Na8 Mn4 P4 C4 O28'
_cell_volume   625.27486310
_cell_formula_units_Z   4
loop_
 _symmetry_equiv_pos_site_id
 _symmetry_equiv_pos_as_xyz
  1  'x, y, z'
loop_
 _atom_site_type_symbol
 _atom_site_label
 _atom_site_symmetry_multiplicity
 _atom_site_fract_x
 _atom_site_fract_y
 _atom_site_fract_z
 _atom_site_occupancy
  Na  Na0  1  0.46388300  0.98942200  0.24814600  1
  Na  Na1  1  0.00828100  0.50495500  0.74669700  1
  Na  Na2  1  0.49486300  0.50019300  0.74243000  1
  Na  Na3  1  0.50473700  0.50837500  0.26252100  1
  Na  Na4  1  0.99456300  0.50771600  0.26222300  1
  Na  Na5  1  0.50573300  0.99163600  0.74344000  1
  Na  Na6  1  0.99440000  0.99096800  0.74329900  1
  Na  Na7  1  0.76709600  0.15174700  0.08329400  1
  Mn  Mn0  1  0.75798700  0.71883000  0.07094200  1
  Mn  Mn1  1  0.75545300  0.20869500  0.56031200  1
  Mn  Mn2  1  0.24878100  0.78854800  0.43243000  1
  Mn  Mn3  1  0.25171600  0.28399600  0.93260600  1
  P  P0  1  0.25146300  0.64085900  0.06014200  1
  P  P1  1  0.25169900  0.14685800  0.56880900  1
  P  P2  1  0.74782500  0.85630600  0.43456600  1
  P  P3  1  0.75102700  0.35911800  0.93853100  1
  C  C0  1  0.74761400  0.82976700  0.90115800  1
  C  C1  1  0.74542700  0.32257200  0.39467400  1
  C  C2  1  0.24959400  0.67270200  0.59692300  1
  C  C3  1  0.25315500  0.17490200  0.09937500  1
  O  O0  1  0.25242700  0.60334500  0.66727600  1
  O  O1  1  0.25940900  0.11159800  0.17421900  1
  O  O2  1  0.74661800  0.89908300  0.04680900  1
  O  O3  1  0.75645800  0.39371000  0.54016600  1
  O  O4  1  0.74914200  0.68547100  0.83849400  1
  O  O5  1  0.73240700  0.17840200  0.33494500  1
  O  O6  1  0.06184800  0.71093100  0.03784600  1
  O  O7  1  0.43908700  0.72338800  0.05150000  1
  O  O8  1  0.06391000  0.22978200  0.56323600  1
  O  O9  1  0.43981100  0.22895500  0.55969000  1
  O  O10  1  0.25606300  0.98079000  0.43750800  1
  O  O11  1  0.73755400  0.86601600  0.29240500  1
  O  O12  1  0.25984300  0.47291800  0.92807900  1
  O  O13  1  0.75037500  0.36647600  0.79415000  1
  O  O14  1  0.24788900  0.63564500  0.20690500  1
  O  O15  1  0.75181900  0.52582400  0.07303600  1
  O  O16  1  0.25263700  0.13546800  0.71299000  1
  O  O17  1  0.75130500  0.02291700  0.57093900  1
  O  O18  1  0.56234900  0.77661000  0.45227400  1
  O  O19  1  0.93604700  0.77613000  0.44508300  1
  O  O20  1  0.56904600  0.27494400  0.95438500  1
  O  O21  1  0.93420400  0.27579700  0.95313600  1
  O  O22  1  0.24799500  0.81847200  0.65416400  1
  O  O23  1  0.24957800  0.32141000  0.15082900  1
  O  O24  1  0.24812000  0.60280200  0.45057100  1
  O  O25  1  0.24872100  0.10045100  0.95224600  1
  O  O26  1  0.74843700  0.90891700  0.83783800  1
  O  O27  1  0.74950400  0.39135800  0.32097600  1
loop_
_geom_bond_atom_site_label_1
_geom_bond_atom_site_label_2
_geom_bond_distance
_geom_bond_site_symmetry_2
Na0 O1 2.235153 1_565
Na0 O11 2.403526 1_555
Na0 O10 2.458805 1_555
Na0 O5 2.462705 1_565
Na0 O7 2.482295 1_555
Na0 O2 2.648709 1_555
Na1 O0 2.280659 1_555
Na1 O4 2.379491 1_455
Na1 O13 2.434205 1_455
Na1 O3 2.525429 1_455
Na1 O8 2.540104 1_555
Na1 O12 2.673768 1_555
Na1 O6 2.742091 1_556
Na2 O0 2.280818 1_555
Na2 O4 2.371472 1_555
Na2 O13 2.418273 1_555
Na2 O9 2.503824 1_555
Na2 O3 2.553049 1_555
Na2 O12 2.620188 1_555
Na2 O7 2.924814 1_556
Na3 O27 2.288517 1_555
Na3 O23 2.395834 1_555
Na3 O14 2.400995 1_555
Na3 O24 2.436306 1_555
Na3 O18 2.501599 1_555
Na3 O15 2.656732 1_555
Na4 O27 2.282008 1_555
Na4 O14 2.380994 1_655
Na4 O23 2.405546 1_655
Na4 O24 2.412417 1_655
Na4 O19 2.491220 1_555
Na4 O15 2.634927 1_555
Na5 O26 2.273454 1_555
Na5 O22 2.315105 1_555
Na5 O16 2.373516 1_565
Na5 O25 2.575348 1_565
Na5 O17 2.576919 1_565
Na5 O20 2.674802 1_565
Na5 O18 2.771275 1_555
Na6 O26 2.284202 1_555
Na6 O22 2.303928 1_655
Na6 O16 2.394814 1_665
Na6 O25 2.552217 1_665
Na6 O17 2.565297 1_565
Na6 O21 2.683847 1_565
Na6 O19 2.820826 1_555
Na7 O2 2.420913 1_545
Na7 O27 2.493744 1_555
Na7 O5 2.514799 1_555
Na7 O21 2.528108 1_554
Na7 O26 2.550948 1_544
Na7 O20 2.613319 1_554
Mn0 O2 1.978390 1_555
Mn0 O15 1.982569 1_555
Mn0 O11 2.054645 1_555
Mn0 O6 2.069261 1_655
Mn0 O7 2.157460 1_555
Mn0 O4 2.278311 1_554
Mn1 O17 1.954408 1_555
Mn1 O3 2.001104 1_555
Mn1 O8 2.084117 1_655
Mn1 O9 2.134756 1_555
Mn1 O13 2.168820 1_555
Mn1 O5 2.221166 1_555
Mn2 O10 1.938771 1_555
Mn2 O24 1.996762 1_555
Mn2 O14 2.092714 1_555
Mn2 O19 2.115574 1_455
Mn2 O18 2.129118 1_555
Mn2 O22 2.180006 1_555
Mn3 O12 1.953891 1_555
Mn3 O25 1.983203 1_555
Mn3 O16 2.037211 1_555
Mn3 O23 2.116078 1_556
Mn3 O21 2.152659 1_455
Mn3 O20 2.153645 1_555
C0 O26 1.269855 1_555
C0 O4 1.287423 1_555
C0 O2 1.325749 1_556
C1 O27 1.270427 1_555
C1 O5 1.290604 1_555
C1 O3 1.325621 1_555
C2 O0 1.244873 1_555
C2 O22 1.305415 1_555
C2 O24 1.332009 1_555
C3 O1 1.234330 1_555
C3 O23 1.320151 1_555
C3 O25 1.338911 1_554
O6 P0 1.537158 1_555
O7 P0 1.542197 1_555
O8 P1 1.540649 1_555
O9 P1 1.543994 1_555
O10 P1 1.575426 1_565
O11 P2 1.535433 1_555
O12 P0 1.591526 1_556
O13 P3 1.544352 1_555
O14 P0 1.558021 1_555
O15 P3 1.590874 1_554
O16 P1 1.564320 1_555
O17 P2 1.597401 1_545
O18 P2 1.547187 1_555
O19 P2 1.543390 1_555
O20 P3 1.548237 1_555
O21 P3 1.549493 1_555
