# generated using pymatgen
data_Eu3(GeAs2)2
_symmetry_space_group_name_H-M   'P 1'
_cell_length_a   18.14580400
_cell_length_b   7.46448300
_cell_length_c   7.51939746
_cell_angle_alpha   68.62006215
_cell_angle_beta   90.00000000
_cell_angle_gamma   90.00000000
_symmetry_Int_Tables_number   1
_chemical_formula_structural   Eu3(GeAs2)2
_chemical_formula_sum   'Eu12 Ge8 As16'
_cell_volume   948.40595405
_cell_formula_units_Z   4
loop_
 _symmetry_equiv_pos_site_id
 _symmetry_equiv_pos_as_xyz
  1  'x, y, z'
loop_
 _atom_site_type_symbol
 _atom_site_label
 _atom_site_symmetry_multiplicity
 _atom_site_fract_x
 _atom_site_fract_y
 _atom_site_fract_z
 _atom_site_occupancy
  Eu  Eu0  1  0.31560300  0.48768500  0.22126700  1
  Eu  Eu1  1  0.81560300  0.01231500  0.77873300  1
  Eu  Eu2  1  0.68439700  0.51231500  0.77873300  1
  Eu  Eu3  1  0.18439700  0.98768500  0.22126700  1
  Eu  Eu4  1  0.06187200  0.48904600  0.25406000  1
  Eu  Eu5  1  0.56187200  0.01095400  0.74594000  1
  Eu  Eu6  1  0.93812800  0.51095400  0.74594000  1
  Eu  Eu7  1  0.43812800  0.98904600  0.25406000  1
  Eu  Eu8  1  0.56034700  0.49900200  0.26016100  1
  Eu  Eu9  1  0.06034700  0.00099800  0.73983900  1
  Eu  Eu10  1  0.43965300  0.50099800  0.73983900  1
  Eu  Eu11  1  0.93965300  0.99900200  0.26016100  1
  Ge  Ge0  1  0.87346200  0.46954200  0.20862400  1
  Ge  Ge1  1  0.37346200  0.03045800  0.79137600  1
  Ge  Ge2  1  0.12653800  0.53045800  0.79137600  1
  Ge  Ge3  1  0.62653800  0.96954200  0.20862400  1
  Ge  Ge4  1  0.74139900  0.08453000  0.31549900  1
  Ge  Ge5  1  0.24139900  0.41547000  0.68450100  1
  Ge  Ge6  1  0.25860100  0.91547000  0.68450100  1
  Ge  Ge7  1  0.75860100  0.58453000  0.31549900  1
  As  As0  1  0.55835800  0.25328600  0.00336800  1
  As  As1  1  0.05835800  0.24671400  0.99663200  1
  As  As2  1  0.44164200  0.74671400  0.99663200  1
  As  As3  1  0.94164200  0.75328600  0.00336800  1
  As  As4  1  0.81437100  0.27721000  0.02819500  1
  As  As5  1  0.31437100  0.22279000  0.97180500  1
  As  As6  1  0.18562900  0.72279000  0.97180500  1
  As  As7  1  0.68562900  0.77721000  0.02819500  1
  As  As8  1  0.93454600  0.25478600  0.50262100  1
  As  As9  1  0.43454600  0.24521400  0.49737900  1
  As  As10  1  0.06545400  0.74521400  0.49737900  1
  As  As11  1  0.56545400  0.75478600  0.50262100  1
  As  As12  1  0.69504200  0.27325200  0.50964000  1
  As  As13  1  0.19504200  0.22674800  0.49036000  1
  As  As14  1  0.30495800  0.72674800  0.49036000  1
  As  As15  1  0.80495800  0.77325200  0.50964000  1
loop_
_geom_bond_atom_site_label_1
_geom_bond_atom_site_label_2
_geom_bond_distance
_geom_bond_site_symmetry_2
Ge0 Ge7 2.495907 1_555
Ge1 Ge6 2.495907 1_545
Ge2 Ge5 2.495907 1_555
Ge3 Ge4 2.495907 1_565
As0 Ge3 2.452602 1_545
As0 Eu10 3.051864 1_554
As0 Eu2 3.072644 1_554
As0 Eu7 3.081015 1_545
As0 Eu5 3.094510 1_554
As0 Eu8 3.110636 1_555
As1 Ge2 2.452602 1_555
As1 Eu11 3.051864 1_446
As1 Eu3 3.072644 1_546
As1 Eu6 3.081015 1_455
As1 Eu4 3.094510 1_556
As1 Eu9 3.110636 1_555
As2 Ge1 2.452602 1_565
As2 Eu8 3.051864 1_556
As2 Eu0 3.072644 1_556
As2 Eu5 3.081015 1_565
As2 Eu7 3.094510 1_556
As2 Eu10 3.110636 1_555
As3 Ge0 2.452602 1_555
As3 Eu9 3.051864 1_664
As3 Eu1 3.072644 1_564
As3 Eu4 3.081015 1_655
As3 Eu6 3.094510 1_554
As3 Eu11 3.110636 1_555
As4 Ge4 2.494718 1_555
As4 Ge0 2.543945 1_555
As4 Eu2 3.124219 1_554
As4 Eu11 3.143580 1_545
As4 Eu6 3.145136 1_554
As4 Eu1 3.183259 1_554
As5 Ge5 2.494718 1_555
As5 Ge1 2.543945 1_555
As5 Eu3 3.124219 1_546
As5 Eu10 3.143580 1_555
As5 Eu7 3.145136 1_546
As5 Eu0 3.183259 1_556
As6 Ge6 2.494718 1_555
As6 Ge2 2.543945 1_555
As6 Eu0 3.124219 1_556
As6 Eu9 3.143580 1_565
As6 Eu4 3.145136 1_556
As6 Eu3 3.183259 1_556
As7 Ge7 2.494718 1_555
As7 Ge3 2.543945 1_555
As7 Eu1 3.124219 1_564
As7 Eu8 3.143580 1_555
As7 Eu5 3.145136 1_564
As7 Eu2 3.183259 1_554
As8 Ge0 2.470150 1_555
As8 Eu1 3.083010 1_555
As8 Eu4 3.083212 1_655
As8 Eu11 3.084776 1_545
As8 Eu9 3.085083 1_655
As8 Eu6 3.091737 1_555
As9 Ge1 2.470150 1_555
As9 Eu0 3.083010 1_555
As9 Eu5 3.083212 1_555
As9 Eu10 3.084776 1_555
As9 Eu8 3.085083 1_555
As9 Eu7 3.091737 1_545
As10 Ge2 2.470150 1_555
As10 Eu3 3.083010 1_555
As10 Eu6 3.083212 1_455
As10 Eu9 3.084776 1_565
As10 Eu11 3.085083 1_455
As10 Eu4 3.091737 1_555
As11 Ge3 2.470150 1_555
As11 Eu2 3.083010 1_555
As11 Eu7 3.083212 1_555
As11 Eu8 3.084776 1_555
As11 Eu10 3.085083 1_555
As11 Eu5 3.091737 1_565
As12 Ge4 2.514463 1_555
As12 Ge7 2.527246 1_555
As12 Eu1 3.130564 1_555
As12 Eu2 3.154126 1_555
As12 Eu8 3.166666 1_555
As12 Eu5 3.208345 1_555
As13 Ge5 2.514463 1_555
As13 Ge6 2.527246 1_545
As13 Eu0 3.130564 1_555
As13 Eu3 3.154126 1_545
As13 Eu9 3.166666 1_555
As13 Eu4 3.208345 1_555
As14 Ge6 2.514463 1_555
As14 Ge5 2.527246 1_555
As14 Eu3 3.130564 1_555
As14 Eu0 3.154126 1_555
As14 Eu10 3.166666 1_555
As14 Eu7 3.208345 1_555
As15 Ge7 2.514463 1_555
As15 Ge4 2.527246 1_565
As15 Eu2 3.130564 1_555
As15 Eu1 3.154126 1_565
As15 Eu11 3.166666 1_555
As15 Eu6 3.208345 1_555
