# generated using pymatgen
data_Nd20Mn19O60
_symmetry_space_group_name_H-M   'P 1'
_cell_length_a   9.45553400
_cell_length_b   11.05832071
_cell_length_c   12.97452081
_cell_angle_alpha   74.57936807
_cell_angle_beta   75.68323258
_cell_angle_gamma   73.48216550
_symmetry_Int_Tables_number   1
_chemical_formula_structural   Nd20Mn19O60
_chemical_formula_sum   'Nd20 Mn19 O60'
_cell_volume   1232.01210931
_cell_formula_units_Z   1
loop_
 _symmetry_equiv_pos_site_id
 _symmetry_equiv_pos_as_xyz
  1  'x, y, z'
loop_
 _atom_site_type_symbol
 _atom_site_label
 _atom_site_symmetry_multiplicity
 _atom_site_fract_x
 _atom_site_fract_y
 _atom_site_fract_z
 _atom_site_occupancy
  Nd  Nd0  1  0.45797100  0.29246600  0.81838100  1
  Nd  Nd1  1  0.77341900  0.97852400  0.72608400  1
  Nd  Nd2  1  0.85819500  0.89254100  0.01951200  1
  Nd  Nd3  1  0.43043900  0.81915100  0.87488900  1
  Nd  Nd4  1  0.17066700  0.58100600  0.92513200  1
  Nd  Nd5  1  0.25718300  0.49082800  0.22253400  1
  Nd  Nd6  1  0.74281700  0.50917200  0.77746600  1
  Nd  Nd7  1  0.82933300  0.41899400  0.07486800  1
  Nd  Nd8  1  0.56956100  0.18084900  0.12511100  1
  Nd  Nd9  1  0.65979300  0.09331200  0.41907300  1
  Nd  Nd10  1  0.14180500  0.10745900  0.98048800  1
  Nd  Nd11  1  0.22658100  0.02147600  0.27391600  1
  Nd  Nd12  1  0.97366400  0.76483500  0.33338500  1
  Nd  Nd13  1  0.05111300  0.68145000  0.61334900  1
  Nd  Nd14  1  0.54202900  0.70753400  0.18161900  1
  Nd  Nd15  1  0.64289200  0.61160200  0.47806300  1
  Nd  Nd16  1  0.35710800  0.38839800  0.52193700  1
  Nd  Nd17  1  0.94888700  0.31855000  0.38665100  1
  Nd  Nd18  1  0.02633600  0.23516500  0.66661500  1
  Nd  Nd19  1  0.34020700  0.90668800  0.58092700  1
  Mn  Mn0  1  0.09979600  0.39950800  0.80295700  1
  Mn  Mn1  1  0.40058000  0.10028900  0.69698900  1
  Mn  Mn2  1  0.50000000  0.00000000  0.00000000  1
  Mn  Mn3  1  0.80065500  0.70000400  0.89934000  1
  Mn  Mn4  1  0.10007200  0.90145800  0.79787200  1
  Mn  Mn5  1  0.90020400  0.60049200  0.19704300  1
  Mn  Mn6  1  0.50000000  0.50000000  0.00000000  1
  Mn  Mn7  1  0.19934500  0.29999600  0.10066000  1
  Mn  Mn8  1  0.30430100  0.19480600  0.40139800  1
  Mn  Mn9  1  0.80081300  0.19936500  0.89892200  1
  Mn  Mn10  1  0.89992800  0.09854200  0.20212800  1
  Mn  Mn11  1  0.59942000  0.89971100  0.30301100  1
  Mn  Mn12  1  0.69569900  0.80519400  0.59860200  1
  Mn  Mn13  1  0.19918700  0.80063500  0.10107800  1
  Mn  Mn14  1  0.30449000  0.70216200  0.40195100  1
  Mn  Mn15  1  0.60191300  0.39940200  0.30126900  1
  Mn  Mn16  1  0.69551000  0.29783800  0.59804900  1
  Mn  Mn17  1  0.00000000  0.00000000  0.50000000  1
  Mn  Mn18  1  0.39808700  0.60059800  0.69873100  1
  O  O0  1  0.27596200  0.27253300  0.70662600  1
  O  O1  1  0.74854200  0.29666100  0.75767200  1
  O  O2  1  0.99320000  0.25562300  0.85879600  1
  O  O3  1  0.67538400  0.87180900  0.90688600  1
  O  O4  1  0.91959300  0.03378100  0.82605900  1
  O  O5  1  0.80255600  0.74142700  0.72219500  1
  O  O6  1  0.21695100  0.03607000  0.71793100  1
  O  O7  1  0.98209900  0.76840100  0.87873100  1
  O  O8  1  0.39432700  0.05767500  0.87699400  1
  O  O9  1  0.15074300  0.89668300  0.95820700  1
  O  O10  1  0.28265300  0.76547800  0.77289200  1
  O  O11  1  0.20858700  0.54275300  0.74121000  1
  O  O12  1  0.39274700  0.85666400  0.05865800  1
  O  O13  1  0.31923500  0.63436500  0.02565500  1
  O  O14  1  0.07364100  0.47286100  0.10608400  1
  O  O15  1  0.20795200  0.33960100  0.92368100  1
  O  O16  1  0.44946900  0.50369400  0.84134900  1
  O  O17  1  0.61874800  0.63173800  0.92009200  1
  O  O18  1  0.38125200  0.36826200  0.07990800  1
  O  O19  1  0.55053100  0.49630600  0.15865100  1
  O  O20  1  0.79204800  0.66039900  0.07631900  1
  O  O21  1  0.92635900  0.52713900  0.89391600  1
  O  O22  1  0.68076500  0.36563500  0.97434500  1
  O  O23  1  0.60725300  0.14333600  0.94134200  1
  O  O24  1  0.79141300  0.45724700  0.25879000  1
  O  O25  1  0.47092000  0.07885300  0.30957500  1
  O  O26  1  0.71734700  0.23452200  0.22710800  1
  O  O27  1  0.84925700  0.10331700  0.04179300  1
  O  O28  1  0.60567300  0.94232500  0.12300600  1
  O  O29  1  0.01790100  0.23159900  0.12126900  1
  O  O30  1  0.78304900  0.96393000  0.28206900  1
  O  O31  1  0.19744400  0.25857300  0.27780500  1
  O  O32  1  0.95030500  0.10092200  0.36007800  1
  O  O33  1  0.08040700  0.96621900  0.17394100  1
  O  O34  1  0.32461600  0.12819100  0.09311400  1
  O  O35  1  0.00680000  0.74437700  0.14120400  1
  O  O36  1  0.20078500  0.05648900  0.45484100  1
  O  O37  1  0.11429500  0.84050500  0.42727000  1
  O  O38  1  0.84685900  0.69700700  0.51636500  1
  O  O39  1  0.25145800  0.70333900  0.24232800  1
  O  O40  1  0.00399200  0.54137300  0.31508700  1
  O  O41  1  0.41754600  0.83462300  0.32050100  1
  O  O42  1  0.18788300  0.57987500  0.46754800  1
  O  O43  1  0.58832600  0.86485300  0.47817500  1
  O  O44  1  0.35226600  0.69575500  0.55524100  1
  O  O45  1  0.72403800  0.72746700  0.29337400  1
  O  O46  1  0.48680700  0.56449600  0.37251600  1
  O  O47  1  0.41140600  0.33923800  0.34196700  1
  O  O48  1  0.58859400  0.66076200  0.65803300  1
  O  O49  1  0.51319300  0.43550400  0.62748400  1
  O  O50  1  0.64773400  0.30424500  0.44475900  1
  O  O51  1  0.41167400  0.13514700  0.52182500  1
  O  O52  1  0.81211700  0.42012500  0.53245200  1
  O  O53  1  0.58245400  0.16537700  0.67949900  1
  O  O54  1  0.99600800  0.45862700  0.68491300  1
  O  O55  1  0.88570500  0.15949500  0.57273000  1
  O  O56  1  0.15314100  0.30299300  0.48363500  1
  O  O57  1  0.79921500  0.94351100  0.54515900  1
  O  O58  1  0.04969500  0.89907800  0.63992200  1
  O  O59  1  0.52908000  0.92114700  0.69042500  1
loop_
_geom_bond_atom_site_label_1
_geom_bond_atom_site_label_2
_geom_bond_distance
_geom_bond_site_symmetry_2
Nd0 O23 2.376583 1_555
Nd0 O16 2.408922 1_555
Nd0 O15 2.409917 1_555
Nd0 O53 2.442270 1_555
Nd0 O49 2.579867 1_555
Nd0 O0 2.594729 1_555
Nd0 O1 2.674714 1_555
Nd0 O8 2.700707 1_555
Nd1 O53 2.376830 1_565
Nd1 O4 2.398895 1_565
Nd1 O3 2.414365 1_555
Nd1 O57 2.422032 1_555
Nd1 O5 2.570120 1_555
Nd1 O58 2.572709 1_655
Nd1 O55 2.671505 1_565
Nd1 O59 2.733622 1_555
Nd2 O35 2.358853 1_655
Nd2 O27 2.399524 1_565
Nd2 O28 2.422271 1_555
Nd2 O7 2.440096 1_554
Nd2 O4 2.605096 1_564
Nd2 O3 2.613154 1_554
Nd2 O20 2.683882 1_555
Nd2 O9 2.692791 1_654
Nd3 O17 2.362466 1_555
Nd3 O10 2.420784 1_555
Nd3 O59 2.434903 1_555
Nd3 O12 2.450659 1_556
Nd3 O8 2.568313 1_565
Nd3 O9 2.586040 1_555
Nd3 O13 2.680750 1_556
Nd3 O3 2.691964 1_555
Nd4 O7 2.366915 1_455
Nd4 O13 2.410266 1_556
Nd4 O14 2.418541 1_556
Nd4 O11 2.455474 1_555
Nd4 O16 2.580241 1_555
Nd4 O15 2.596024 1_555
Nd4 O21 2.688632 1_455
Nd4 O10 2.689838 1_555
Nd5 O40 2.379108 1_555
Nd5 O47 2.384101 1_555
Nd5 O39 2.415202 1_555
Nd5 O18 2.448204 1_555
Nd5 O14 2.643233 1_555
Nd5 O13 2.649682 1_555
Nd5 O31 2.659864 1_555
Nd5 O19 2.704855 1_555
Nd6 O54 2.379108 1_555
Nd6 O48 2.384101 1_555
Nd6 O1 2.415202 1_555
Nd6 O17 2.448204 1_555
Nd6 O21 2.643233 1_555
Nd6 O22 2.649682 1_555
Nd6 O5 2.659864 1_555
Nd6 O16 2.704855 1_555
Nd7 O29 2.366915 1_655
Nd7 O22 2.410266 1_554
Nd7 O21 2.418541 1_554
Nd7 O24 2.455474 1_555
Nd7 O19 2.580241 1_555
Nd7 O20 2.596024 1_555
Nd7 O14 2.688632 1_655
Nd7 O26 2.689838 1_555
Nd8 O18 2.362466 1_555
Nd8 O26 2.420784 1_555
Nd8 O25 2.434903 1_555
Nd8 O23 2.450659 1_554
Nd8 O28 2.568313 1_545
Nd8 O27 2.586040 1_555
Nd8 O22 2.680750 1_554
Nd8 O34 2.691964 1_555
Nd9 O57 2.354125 1_545
Nd9 O51 2.378964 1_555
Nd9 O50 2.410041 1_555
Nd9 O30 2.438199 1_545
Nd9 O26 2.585048 1_555
Nd9 O25 2.602175 1_555
Nd9 O43 2.666733 1_545
Nd9 O32 2.682536 1_555
Nd10 O2 2.358853 1_455
Nd10 O9 2.399524 1_545
Nd10 O8 2.422271 1_555
Nd10 O29 2.440096 1_556
Nd10 O33 2.605096 1_546
Nd10 O34 2.613154 1_556
Nd10 O15 2.683882 1_555
Nd10 O27 2.692791 1_456
Nd11 O41 2.376830 1_545
Nd11 O33 2.398895 1_545
Nd11 O34 2.414365 1_555
Nd11 O36 2.422032 1_555
Nd11 O31 2.570120 1_555
Nd11 O32 2.572709 1_455
Nd11 O37 2.671505 1_545
Nd11 O25 2.733622 1_555
Nd12 O38 2.406877 1_555
Nd12 O37 2.434766 1_655
Nd12 O30 2.469132 1_555
Nd12 O40 2.473939 1_655
Nd12 O35 2.497996 1_655
Nd12 O39 2.575755 1_655
Nd12 O45 2.699292 1_555
Nd12 O33 2.837802 1_655
Nd12 O42 2.968320 1_655
Nd13 O42 2.367860 1_555
Nd13 O11 2.427243 1_555
Nd13 O5 2.434780 1_455
Nd13 O38 2.498172 1_455
Nd13 O58 2.516226 1_555
Nd13 O54 2.545431 1_455
Nd13 O37 2.627782 1_555
Nd13 O44 2.798749 1_555
Nd14 O12 2.376583 1_555
Nd14 O19 2.408922 1_555
Nd14 O20 2.409917 1_555
Nd14 O41 2.442270 1_555
Nd14 O46 2.579867 1_555
Nd14 O45 2.594729 1_555
Nd14 O39 2.674714 1_555
Nd14 O28 2.700707 1_555
Nd15 O52 2.319272 1_555
Nd15 O48 2.436169 1_555
Nd15 O45 2.447310 1_555
Nd15 O46 2.478090 1_555
Nd15 O38 2.572511 1_555
Nd15 O44 2.664740 1_555
Nd15 O49 2.688683 1_555
Nd15 O43 2.699878 1_555
Nd16 O42 2.319272 1_555
Nd16 O47 2.436169 1_555
Nd16 O0 2.447310 1_555
Nd16 O49 2.478090 1_555
Nd16 O56 2.572511 1_555
Nd16 O50 2.664740 1_555
Nd16 O46 2.688683 1_555
Nd16 O51 2.699878 1_555
Nd17 O52 2.367860 1_555
Nd17 O24 2.427243 1_555
Nd17 O31 2.434780 1_655
Nd17 O56 2.498172 1_655
Nd17 O32 2.516226 1_555
Nd17 O40 2.545431 1_655
Nd17 O55 2.627782 1_555
Nd17 O50 2.798749 1_555
Nd18 O56 2.406877 1_555
Nd18 O55 2.434766 1_455
Nd18 O6 2.469132 1_555
Nd18 O54 2.473939 1_455
Nd18 O2 2.497996 1_455
Nd18 O1 2.575755 1_455
Nd18 O0 2.699292 1_555
Nd18 O4 2.837802 1_455
Nd18 O52 2.968320 1_455
Nd19 O36 2.354125 1_565
Nd19 O43 2.378964 1_555
Nd19 O44 2.410041 1_555
Nd19 O6 2.438199 1_565
Nd19 O10 2.585048 1_555
Nd19 O59 2.602175 1_555
Nd19 O51 2.666733 1_565
Nd19 O58 2.682536 1_555
Mn0 O54 1.892676 1_455
Mn0 O15 1.947636 1_555
Mn0 O2 2.002552 1_455
Mn0 O11 2.013284 1_555
Mn0 O21 2.164869 1_455
Mn0 O0 2.209542 1_555
Mn1 O0 1.951833 1_555
Mn1 O53 1.987701 1_555
Mn1 O6 1.989504 1_555
Mn1 O59 2.019363 1_545
Mn1 O51 2.182617 1_555
Mn1 O8 2.245503 1_555
Mn2 O8 1.958872 1_554
Mn2 O28 1.958872 1_545
Mn2 O12 2.002719 1_545
Mn2 O23 2.002719 1_554
Mn2 O34 2.191425 1_555
Mn2 O3 2.191425 1_544
Mn3 O3 1.945271 1_555
Mn3 O21 1.951949 1_555
Mn3 O7 1.997615 1_555
Mn3 O17 2.000521 1_555
Mn3 O20 2.205466 1_556
Mn3 O5 2.217435 1_555
Mn4 O4 1.934720 1_465
Mn4 O10 1.962891 1_555
Mn4 O7 2.010857 1_455
Mn4 O6 2.015066 1_565
Mn4 O58 2.223944 1_555
Mn4 O9 2.231591 1_555
Mn5 O40 1.892676 1_655
Mn5 O20 1.947636 1_555
Mn5 O35 2.002552 1_655
Mn5 O24 2.013284 1_555
Mn5 O14 2.164869 1_655
Mn5 O45 2.209542 1_555
Mn6 O13 1.943590 1_555
Mn6 O22 1.943590 1_554
Mn6 O17 2.002266 1_554
Mn6 O18 2.002266 1_555
Mn6 O19 2.213063 1_555
Mn6 O16 2.213063 1_554
Mn7 O34 1.945271 1_555
Mn7 O14 1.951949 1_555
Mn7 O29 1.997615 1_555
Mn7 O18 2.000521 1_555
Mn7 O15 2.205466 1_554
Mn7 O31 2.217435 1_555
Mn8 O56 1.888103 1_555
Mn8 O36 1.931321 1_555
Mn8 O51 1.939807 1_555
Mn8 O31 1.970878 1_555
Mn8 O47 2.012406 1_555
Mn8 O25 2.069061 1_555
Mn9 O1 1.964049 1_555
Mn9 O27 1.967313 1_556
Mn9 O2 1.992529 1_555
Mn9 O23 2.000441 1_555
Mn9 O4 2.175786 1_555
Mn9 O22 2.201709 1_555
Mn10 O33 1.934720 1_645
Mn10 O26 1.962891 1_555
Mn10 O29 2.010857 1_655
Mn10 O30 2.015066 1_545
Mn10 O32 2.223944 1_555
Mn10 O27 2.231591 1_555
Mn11 O45 1.951833 1_555
Mn11 O41 1.987701 1_555
Mn11 O30 1.989504 1_555
Mn11 O25 2.019363 1_565
Mn11 O43 2.182617 1_555
Mn11 O28 2.245503 1_555
Mn12 O38 1.888103 1_555
Mn12 O57 1.931321 1_555
Mn12 O43 1.939807 1_555
Mn12 O5 1.970878 1_555
Mn12 O48 2.012406 1_555
Mn12 O59 2.069061 1_555
Mn13 O39 1.964049 1_555
Mn13 O9 1.967313 1_554
Mn13 O35 1.992529 1_555
Mn13 O12 2.000441 1_555
Mn13 O33 2.175786 1_555
Mn13 O13 2.201709 1_555
Mn14 O42 1.881592 1_555
Mn14 O41 1.978294 1_555
Mn14 O46 1.981551 1_555
Mn14 O37 2.023165 1_555
Mn14 O44 2.125062 1_555
Mn14 O39 2.244183 1_555
Mn15 O50 1.964390 1_555
Mn15 O24 1.974694 1_555
Mn15 O19 1.975451 1_555
Mn15 O47 1.997633 1_555
Mn15 O46 2.154570 1_555
Mn15 O26 2.173372 1_555
Mn16 O52 1.881592 1_555
Mn16 O53 1.978294 1_555
Mn16 O49 1.981551 1_555
Mn16 O55 2.023165 1_555
Mn16 O50 2.125062 1_555
Mn16 O1 2.244183 1_555
Mn17 O58 1.951485 1_545
Mn17 O32 1.951485 1_455
Mn17 O36 2.065795 1_555
Mn17 O57 2.065795 1_445
Mn17 O55 2.113311 1_455
Mn17 O37 2.113311 1_545
Mn18 O44 1.964390 1_555
Mn18 O11 1.974694 1_555
Mn18 O16 1.975451 1_555
Mn18 O48 1.997633 1_555
Mn18 O49 2.154570 1_555
Mn18 O10 2.173372 1_555
