# generated using pymatgen
data_TbAl3Ag
_symmetry_space_group_name_H-M   'P 1'
_cell_length_a   4.19155200
_cell_length_b   4.18542300
_cell_length_c   6.38376450
_cell_angle_alpha   70.86362779
_cell_angle_beta   70.83450709
_cell_angle_gamma   90.00000000
_symmetry_Int_Tables_number   1
_chemical_formula_structural   TbAl3Ag
_chemical_formula_sum   'Tb1 Al3 Ag1'
_cell_volume   99.21067867
_cell_formula_units_Z   1
loop_
 _symmetry_equiv_pos_site_id
 _symmetry_equiv_pos_as_xyz
  1  'x, y, z'
loop_
 _atom_site_type_symbol
 _atom_site_label
 _atom_site_symmetry_multiplicity
 _atom_site_fract_x
 _atom_site_fract_y
 _atom_site_fract_z
 _atom_site_occupancy
  Tb  Tb0  1  0.00016100  0.00016100  0.99967800  1
  Al  Al0  1  0.24939200  0.74939200  0.50121500  1
  Al  Al1  1  0.60972200  0.60972200  0.78055700  1
  Al  Al2  1  0.39015500  0.39015500  0.21969000  1
  Ag  Ag0  1  0.75057000  0.25057000  0.49886000  1
loop_
_geom_bond_atom_site_label_1
_geom_bond_atom_site_label_2
_geom_bond_distance
_geom_bond_site_symmetry_2
Al0 Al1 2.624458 1_455
Al0 Al1 2.624464 1_555
Al0 Al2 2.629469 1_555
Al0 Al2 2.629473 1_565
Al0 Tb0 3.510775 1_555
Al0 Tb0 3.510777 1_565
Al0 Tb0 3.526568 1_564
Al0 Tb0 3.526570 1_664
Al1 Al2 2.483363 1_556
Al1 Tb0 3.210487 1_665
Al1 Tb0 3.210489 1_565
Al1 Tb0 3.210489 1_655
Al1 Tb0 3.210492 1_555
Al2 Tb0 3.212437 1_554
Al2 Tb0 3.212437 1_654
Al2 Tb0 3.212438 1_664
Al2 Tb0 3.212438 1_564
Ag0 Al2 2.623876 1_555
Ag0 Al2 2.623876 1_655
Ag0 Al1 2.630058 1_545
Ag0 Al1 2.630061 1_555
Ag0 Al0 2.961736 1_655
Ag0 Al0 2.961739 1_645
Ag0 Al0 2.961739 1_555
Ag0 Al0 2.961742 1_545
Ag0 Tb0 3.514041 1_654
Ag0 Tb0 3.514041 1_664
Ag0 Tb0 3.523300 1_555
Ag0 Tb0 3.523300 1_655
