# generated using pymatgen
data_Ti2Fe2H3
_symmetry_space_group_name_H-M   'P 1'
_cell_length_a   2.75172200
_cell_length_b   4.46743175
_cell_length_c   4.80750076
_cell_angle_alpha   87.96814921
_cell_angle_beta   90.00000000
_cell_angle_gamma   90.00000000
_symmetry_Int_Tables_number   1
_chemical_formula_structural   Ti2Fe2H3
_chemical_formula_sum   'Ti2 Fe2 H3'
_cell_volume   59.06207552
_cell_formula_units_Z   1
loop_
 _symmetry_equiv_pos_site_id
 _symmetry_equiv_pos_as_xyz
  1  'x, y, z'
loop_
 _atom_site_type_symbol
 _atom_site_label
 _atom_site_symmetry_multiplicity
 _atom_site_fract_x
 _atom_site_fract_y
 _atom_site_fract_z
 _atom_site_occupancy
  Ti  Ti0  1  0.50000000  0.28459100  0.30819000  1
  Ti  Ti1  1  0.50000000  0.80812300  0.69402800  1
  Fe  Fe0  1  0.00000000  0.78475300  0.17980400  1
  Fe  Fe1  1  0.00000000  0.29844600  0.81920600  1
  H  H0  1  0.50000000  0.47363500  0.94829600  1
  H  H1  1  0.50000000  0.96678600  0.05606100  1
  H  H2  1  0.00000000  0.54766600  0.49441500  1
loop_
_geom_bond_atom_site_label_1
_geom_bond_atom_site_label_2
_geom_bond_distance
_geom_bond_site_symmetry_2
Fe0 H1 1.695262 1_555
Fe0 H1 1.695262 1_455
Fe0 H2 1.815455 1_555
Fe0 H0 2.274471 1_554
Fe0 H0 2.274471 1_454
Fe1 H0 1.710296 1_555
Fe1 H0 1.710296 1_455
Fe1 H2 1.885311 1_555
H0 Ti1 1.896750 1_555
H0 Ti0 1.898208 1_556
H1 Ti0 1.899209 1_565
H1 Ti1 1.902406 1_554
H2 Ti0 2.037249 1_455
H2 Ti0 2.037249 1_555
H2 Ti1 2.060821 1_455
H2 Ti1 2.060821 1_555
