# generated using pymatgen
data_CaAsNO11
_symmetry_space_group_name_H-M   'P 1'
_cell_length_a   5.97132900
_cell_length_b   6.75138845
_cell_length_c   12.86364700
_cell_angle_alpha   90.00000000
_cell_angle_beta   90.00000000
_cell_angle_gamma   65.05810183
_symmetry_Int_Tables_number   1
_chemical_formula_structural   CaAsNO11
_chemical_formula_sum   'Ca2 As2 N2 O22'
_cell_volume   470.22857138
_cell_formula_units_Z   2
loop_
 _symmetry_equiv_pos_site_id
 _symmetry_equiv_pos_as_xyz
  1  'x, y, z'
loop_
 _atom_site_type_symbol
 _atom_site_label
 _atom_site_symmetry_multiplicity
 _atom_site_fract_x
 _atom_site_fract_y
 _atom_site_fract_z
 _atom_site_occupancy
  Ca  Ca0  1  0.56062000  0.76133400  0.45334500  1
  Ca  Ca1  1  0.43938000  0.23866600  0.95334500  1
  As  As0  1  0.88996100  0.77639500  0.91458500  1
  As  As1  1  0.11003900  0.22360500  0.41458500  1
  N  N0  1  0.61744900  0.76055200  0.11832500  1
  N  N1  1  0.38255100  0.23944800  0.61832500  1
  O  O0  1  0.24625400  0.70709800  0.83013600  1
  O  O1  1  0.75374600  0.29290200  0.33013600  1
  O  O2  1  0.00318300  0.73267100  0.57776200  1
  O  O3  1  0.99681700  0.26732900  0.07776200  1
  O  O4  1  0.78168000  0.02149300  0.85372000  1
  O  O5  1  0.21832000  0.97850700  0.35372000  1
  O  O6  1  0.61009200  0.85165200  0.99279500  1
  O  O7  1  0.38990800  0.14834800  0.49279500  1
  O  O8  1  0.15236200  0.81681100  0.57873700  1
  O  O9  1  0.84763800  0.18318900  0.07873700  1
  O  O10  1  0.47773100  0.08692700  0.66997000  1
  O  O11  1  0.52226900  0.91307300  0.16997000  1
  O  O12  1  0.41975000  0.51295700  0.82768100  1
  O  O13  1  0.58025000  0.48704300  0.32768100  1
  O  O14  1  0.07389000  0.65914100  0.04230600  1
  O  O15  1  0.92611000  0.34085900  0.54230600  1
  O  O16  1  0.90780400  0.53297900  0.82764400  1
  O  O17  1  0.09219600  0.46702100  0.32764400  1
  O  O18  1  0.67355300  0.45022100  0.55208300  1
  O  O19  1  0.32644700  0.54977800  0.05208300  1
  O  O20  1  0.91283300  0.66207000  0.35551000  1
  O  O21  1  0.08716700  0.33793000  0.85551000  1
loop_
_geom_bond_atom_site_label_1
_geom_bond_atom_site_label_2
_geom_bond_distance
_geom_bond_site_symmetry_2
Ca0 O20 2.295124 1_555
Ca0 O18 2.298962 1_555
Ca0 O5 2.332899 1_555
Ca0 O13 2.423439 1_555
Ca0 O7 2.424336 1_565
Ca0 O8 2.813367 1_555
Ca0 O2 3.025128 1_655
Ca1 O21 2.295124 1_555
Ca1 O19 2.298957 1_556
Ca1 O4 2.332899 1_555
Ca1 O12 2.423439 1_555
Ca1 O6 2.424336 1_545
Ca1 O9 2.813367 1_556
Ca1 O3 3.025128 1_456
As0 O4 1.693191 1_565
As0 O6 1.829497 1_555
As0 O14 1.949092 1_656
As0 O16 1.953252 1_555
As0 O0 2.255199 1_655
As1 O5 1.693191 1_545
As1 O7 1.829497 1_555
As1 O15 1.949092 1_455
As1 O17 1.953252 1_555
As1 O1 2.255199 1_455
N0 O11 1.153741 1_555
N0 O6 1.721895 1_554
N1 O10 1.153741 1_555
N1 O7 1.721895 1_555
O0 O12 1.283366 1_555
O1 O13 1.283366 1_555
O2 O8 1.242237 1_555
O3 O9 1.242237 1_555
O14 O19 1.377032 1_555
O15 O18 1.377032 1_555
O16 O21 1.349142 1_655
O17 O20 1.349142 1_455
