# generated using pymatgen
data_Cs2RbPrCl6
_symmetry_space_group_name_H-M   'P 1'
_cell_length_a   8.34556697
_cell_length_b   8.34556697
_cell_length_c   8.34556697
_cell_angle_alpha   60.00000000
_cell_angle_beta   60.00000000
_cell_angle_gamma   60.00000000
_symmetry_Int_Tables_number   1
_chemical_formula_structural   Cs2RbPrCl6
_chemical_formula_sum   'Cs2 Rb1 Pr1 Cl6'
_cell_volume   411.01014560
_cell_formula_units_Z   1
loop_
 _symmetry_equiv_pos_site_id
 _symmetry_equiv_pos_as_xyz
  1  'x, y, z'
loop_
 _atom_site_type_symbol
 _atom_site_label
 _atom_site_symmetry_multiplicity
 _atom_site_fract_x
 _atom_site_fract_y
 _atom_site_fract_z
 _atom_site_occupancy
  Cs  Cs0  1  0.75000000  0.75000000  0.75000000  1
  Cs  Cs1  1  0.25000000  0.25000000  0.25000000  1
  Rb  Rb0  1  0.50000000  0.50000000  0.50000000  1
  Pr  Pr0  1  0.00000000  0.00000000  0.00000000  1
  Cl  Cl0  1  0.76654600  0.23345400  0.23345400  1
  Cl  Cl1  1  0.23345400  0.23345400  0.76654600  1
  Cl  Cl2  1  0.23345400  0.76654600  0.76654600  1
  Cl  Cl3  1  0.23345400  0.76654600  0.23345400  1
  Cl  Cl4  1  0.76654600  0.23345400  0.76654600  1
  Cl  Cl5  1  0.76654600  0.76654600  0.23345400  1
loop_
_geom_bond_atom_site_label_1
_geom_bond_atom_site_label_2
_geom_bond_distance
_geom_bond_site_symmetry_2
Cl0 Pr0 2.755321 1_655
Cl0 Rb0 3.145886 1_555
Cl0 Cs0 4.177351 1_545
Cl0 Cs1 4.177351 1_555
Cl0 Cs0 4.177351 1_554
Cl0 Cs1 4.177351 1_655
Cl1 Pr0 2.755321 1_556
Cl1 Rb0 3.145886 1_555
Cl1 Cs0 4.177351 1_545
Cl1 Cs1 4.177351 1_555
Cl1 Cs0 4.177351 1_455
Cl1 Cs1 4.177351 1_556
Cl2 Pr0 2.755321 1_566
Cl2 Rb0 3.145886 1_555
Cl2 Cs0 4.177351 1_455
Cl2 Cs0 4.177351 1_555
Cl2 Cs1 4.177351 1_556
Cl2 Cs1 4.177351 1_565
Cl3 Pr0 2.755321 1_565
Cl3 Rb0 3.145886 1_555
Cl3 Cs1 4.177351 1_555
Cl3 Cs0 4.177351 1_554
Cl3 Cs0 4.177351 1_455
Cl3 Cs1 4.177351 1_565
Cl4 Pr0 2.755321 1_656
Cl4 Rb0 3.145886 1_555
Cl4 Cs0 4.177351 1_545
Cl4 Cs0 4.177351 1_555
Cl4 Cs1 4.177351 1_556
Cl4 Cs1 4.177351 1_655
Cl5 Pr0 2.755321 1_665
Cl5 Rb0 3.145886 1_555
Cl5 Cs0 4.177351 1_554
Cl5 Cs0 4.177351 1_555
Cl5 Cs1 4.177351 1_565
Cl5 Cs1 4.177351 1_655
