# generated using pymatgen
data_Ba5Cr3O12F
_symmetry_space_group_name_H-M   'P 1'
_cell_length_a   10.58247013
_cell_length_b   10.58247013
_cell_length_c   7.97764000
_cell_angle_alpha   90.00000000
_cell_angle_beta   90.00000000
_cell_angle_gamma   120.00000079
_symmetry_Int_Tables_number   1
_chemical_formula_structural   Ba5Cr3O12F
_chemical_formula_sum   'Ba10 Cr6 O24 F2'
_cell_volume   773.71170115
_cell_formula_units_Z   2
loop_
 _symmetry_equiv_pos_site_id
 _symmetry_equiv_pos_as_xyz
  1  'x, y, z'
loop_
 _atom_site_type_symbol
 _atom_site_label
 _atom_site_symmetry_multiplicity
 _atom_site_fract_x
 _atom_site_fract_y
 _atom_site_fract_z
 _atom_site_occupancy
  Ba  Ba0  1  0.66666700  0.33333300  0.00108700  1
  Ba  Ba1  1  0.33333300  0.66666700  0.99891300  1
  Ba  Ba2  1  0.33333300  0.66666700  0.50108700  1
  Ba  Ba3  1  0.66666700  0.33333300  0.49891300  1
  Ba  Ba4  1  0.75783200  0.01064600  0.75000000  1
  Ba  Ba5  1  0.24216800  0.98935400  0.25000000  1
  Ba  Ba6  1  0.25281400  0.24216800  0.75000000  1
  Ba  Ba7  1  0.74718600  0.75783200  0.25000000  1
  Ba  Ba8  1  0.98935400  0.74718600  0.75000000  1
  Ba  Ba9  1  0.01064600  0.25281400  0.25000000  1
  Cr  Cr0  1  0.59990200  0.62977000  0.75000000  1
  Cr  Cr1  1  0.40009800  0.37023000  0.25000000  1
  Cr  Cr2  1  0.02986800  0.40009800  0.75000000  1
  Cr  Cr3  1  0.97013200  0.59990200  0.25000000  1
  Cr  Cr4  1  0.37023000  0.97013200  0.75000000  1
  Cr  Cr5  1  0.62977000  0.02986800  0.25000000  1
  O  O0  1  0.84168000  0.32037800  0.75000000  1
  O  O1  1  0.15832000  0.67962200  0.25000000  1
  O  O2  1  0.47869700  0.15832000  0.75000000  1
  O  O3  1  0.52130300  0.84168000  0.25000000  1
  O  O4  1  0.67962200  0.52130300  0.75000000  1
  O  O5  1  0.32037800  0.47869700  0.25000000  1
  O  O6  1  0.41086200  0.53810900  0.75000000  1
  O  O7  1  0.58913800  0.46189100  0.25000000  1
  O  O8  1  0.12724700  0.58913800  0.75000000  1
  O  O9  1  0.87275300  0.41086200  0.25000000  1
  O  O10  1  0.46189100  0.87275300  0.75000000  1
  O  O11  1  0.53810900  0.12724700  0.25000000  1
  O  O12  1  0.65452100  0.74003700  0.92483100  1
  O  O13  1  0.34547900  0.25996300  0.07516900  1
  O  O14  1  0.08551500  0.34547900  0.92483100  1
  O  O15  1  0.34547900  0.25996300  0.42483100  1
  O  O16  1  0.91448500  0.65452100  0.07516900  1
  O  O17  1  0.65452100  0.74003700  0.57516900  1
  O  O18  1  0.25996300  0.91448500  0.92483100  1
  O  O19  1  0.91448500  0.65452100  0.42483100  1
  O  O20  1  0.74003700  0.08551500  0.07516900  1
  O  O21  1  0.08551500  0.34547900  0.57516900  1
  O  O22  1  0.74003700  0.08551500  0.42483100  1
  O  O23  1  0.25996300  0.91448500  0.57516900  1
  F  F0  1  0.00000000  0.00000000  0.75000000  1
  F  F1  1  0.00000000  0.00000000  0.25000000  1
loop_
_geom_bond_atom_site_label_1
_geom_bond_atom_site_label_2
_geom_bond_distance
_geom_bond_site_symmetry_2
Ba0 O9 2.753779 1_555
Ba0 O11 2.753780 1_555
Ba0 O7 2.753786 1_555
Ba0 O0 2.777626 1_554
Ba0 O2 2.777634 1_554
Ba0 O4 2.777640 1_554
Ba0 O16 3.141019 1_555
Ba0 O13 3.141019 1_555
Ba0 O20 3.141019 1_555
Ba1 O8 2.753779 1_555
Ba1 O10 2.753780 1_555
Ba1 O6 2.753786 1_555
Ba1 O1 2.777626 1_556
Ba1 O3 2.777634 1_556
Ba1 O5 2.777640 1_556
Ba1 O14 3.141019 1_555
Ba1 O12 3.141019 1_555
Ba1 O18 3.141019 1_555
Ba2 O8 2.753779 1_555
Ba2 O10 2.753780 1_555
Ba2 O6 2.753786 1_555
Ba2 O1 2.777626 1_555
Ba2 O3 2.777634 1_555
Ba2 O5 2.777640 1_555
Ba2 O21 3.141019 1_555
Ba2 O17 3.141019 1_555
Ba2 O23 3.141019 1_555
Ba3 O9 2.753779 1_555
Ba3 O11 2.753780 1_555
Ba3 O7 2.753786 1_555
Ba3 O0 2.777626 1_555
Ba3 O2 2.777634 1_555
Ba3 O4 2.777640 1_555
Ba3 O19 3.141019 1_555
Ba3 O15 3.141019 1_555
Ba3 O22 3.141019 1_555
Ba4 F0 2.620883 1_655
Ba4 O10 2.714303 1_545
Ba4 O20 2.746208 1_556
Ba4 O22 2.746208 1_555
Ba4 O12 2.865407 1_545
Ba4 O17 2.865407 1_545
Ba4 O0 2.936402 1_555
Ba5 F1 2.620883 1_565
Ba5 O11 2.714303 1_565
Ba5 O23 2.746208 1_555
Ba5 O18 2.746208 1_554
Ba5 O15 2.865407 1_565
Ba5 O13 2.865407 1_565
Ba5 O1 2.936402 1_555
Ba6 F0 2.620883 1_555
Ba6 O6 2.714303 1_555
Ba6 O13 2.746212 1_556
Ba6 O15 2.746212 1_555
Ba6 O14 2.865416 1_555
Ba6 O21 2.865416 1_555
Ba6 O2 2.936391 1_555
Ba7 F1 2.620883 1_665
Ba7 O7 2.714303 1_555
Ba7 O17 2.746212 1_555
Ba7 O12 2.746212 1_554
Ba7 O19 2.865416 1_555
Ba7 O16 2.865416 1_555
Ba7 O3 2.936391 1_555
Ba8 F0 2.620883 1_665
Ba8 O8 2.714303 1_655
Ba8 O16 2.746210 1_556
Ba8 O19 2.746210 1_555
Ba8 O18 2.865409 1_655
Ba8 O23 2.865409 1_655
Ba8 O4 2.936399 1_555
Ba9 F1 2.620883 1_555
Ba9 O9 2.714303 1_455
Ba9 O21 2.746210 1_555
Ba9 O14 2.746210 1_554
Ba9 O22 2.865409 1_455
Ba9 O20 2.865409 1_455
Ba9 O5 2.936399 1_555
Cr0 O12 1.722371 1_555
Cr0 O17 1.722371 1_555
Cr0 O4 1.731370 1_555
Cr0 O6 1.732757 1_555
Cr1 O15 1.722371 1_555
Cr1 O13 1.722371 1_555
Cr1 O5 1.731370 1_555
Cr1 O7 1.732757 1_555
Cr2 O14 1.722366 1_555
Cr2 O21 1.722366 1_555
Cr2 O0 1.731379 1_455
Cr2 O8 1.732757 1_555
Cr3 O19 1.722366 1_555
Cr3 O16 1.722366 1_555
Cr3 O1 1.731379 1_655
Cr3 O9 1.732757 1_555
Cr4 O18 1.722371 1_555
Cr4 O23 1.722371 1_555
Cr4 O2 1.731378 1_565
Cr4 O10 1.732757 1_555
Cr5 O22 1.722371 1_555
Cr5 O20 1.722371 1_555
Cr5 O3 1.731378 1_545
Cr5 O11 1.732757 1_555
