# generated using pymatgen
data_Na3V5O10
_symmetry_space_group_name_H-M   'P 1'
_cell_length_a   5.20035222
_cell_length_b   6.57768741
_cell_length_c   13.37802646
_cell_angle_alpha   88.10291978
_cell_angle_beta   82.23335801
_cell_angle_gamma   104.57176316
_symmetry_Int_Tables_number   1
_chemical_formula_structural   Na3V5O10
_chemical_formula_sum   'Na6 V10 O20'
_cell_volume   437.75425353
_cell_formula_units_Z   2
loop_
 _symmetry_equiv_pos_site_id
 _symmetry_equiv_pos_as_xyz
  1  'x, y, z'
loop_
 _atom_site_type_symbol
 _atom_site_label
 _atom_site_symmetry_multiplicity
 _atom_site_fract_x
 _atom_site_fract_y
 _atom_site_fract_z
 _atom_site_occupancy
  Na  Na0  1  0.50001200  0.60005000  0.10001400  1
  Na  Na1  1  0.00001700  0.10003300  0.60004500  1
  Na  Na2  1  0.49717500  0.79972800  0.30065000  1
  Na  Na3  1  0.00374700  0.30408200  0.80063200  1
  Na  Na4  1  0.99621900  0.89595500  0.39934700  1
  Na  Na5  1  0.50283500  0.40020300  0.89930100  1
  V  V0  1  0.00005000  0.60003900  0.60001300  1
  V  V1  1  0.00237200  0.80043200  0.80307200  1
  V  V2  1  0.99763200  0.39956500  0.39693400  1
  V  V3  1  0.00331400  0.20719300  0.19978500  1
  V  V4  1  0.99663700  0.99280300  0.00018800  1
  V  V5  1  0.49992300  0.10002500  0.09998000  1
  V  V6  1  0.49943800  0.29954100  0.30352100  1
  V  V7  1  0.50063500  0.90039700  0.89643600  1
  V  V8  1  0.49976900  0.70901900  0.70023800  1
  V  V9  1  0.50027400  0.49095800  0.49980700  1
  O  O0  1  0.75319400  0.95459400  0.13770400  1
  O  O1  1  0.25186800  0.45138300  0.63651100  1
  O  O2  1  0.24683500  0.24551800  0.06226000  1
  O  O3  1  0.74816400  0.74859800  0.56353700  1
  O  O4  1  0.22411400  0.64700100  0.46086600  1
  O  O5  1  0.72151000  0.15155200  0.96103300  1
  O  O6  1  0.27849100  0.04839300  0.23894100  1
  O  O7  1  0.77595100  0.55302800  0.73917900  1
  O  O8  1  0.27565200  0.23433800  0.43045500  1
  O  O9  1  0.76037200  0.74649800  0.93994900  1
  O  O10  1  0.23952500  0.45342700  0.26004500  1
  O  O11  1  0.72430800  0.96569300  0.76952900  1
  O  O12  1  0.70325400  0.34519600  0.16736200  1
  O  O13  1  0.21705800  0.84427500  0.66308800  1
  O  O14  1  0.29664900  0.85484000  0.03262300  1
  O  O15  1  0.78303600  0.35575900  0.53695800  1
  O  O16  1  0.77086800  0.14618800  0.33592100  1
  O  O17  1  0.28397500  0.64705900  0.84039400  1
  O  O18  1  0.71603600  0.55287100  0.35965100  1
  O  O19  1  0.22909200  0.05376300  0.86403100  1
loop_
_geom_bond_atom_site_label_1
_geom_bond_atom_site_label_2
_geom_bond_distance
_geom_bond_site_symmetry_2
Na0 O9 2.402096 1_554
Na0 O10 2.402222 1_555
Na0 O12 2.405813 1_555
Na0 O14 2.406133 1_555
Na0 O0 2.477623 1_555
Na0 O2 2.477813 1_555
Na1 O15 2.435859 1_455
Na1 O13 2.436013 1_545
Na1 O1 2.453296 1_555
Na1 O3 2.453925 1_445
Na1 O11 2.515687 1_445
Na1 O8 2.516661 1_555
Na2 O18 2.375468 1_555
Na2 O6 2.398013 1_565
Na2 O4 2.436534 1_555
Na2 O0 2.438920 1_555
Na2 O10 2.453953 1_555
Na2 O16 2.462202 1_565
Na3 O11 2.415848 1_445
Na3 O1 2.426681 1_555
Na3 O7 2.431202 1_455
Na3 O19 2.439418 1_555
Na3 O5 2.455757 1_455
Na3 O17 2.476052 1_555
Na4 O8 2.415824 1_665
Na4 O3 2.427418 1_555
Na4 O4 2.431943 1_655
Na4 O16 2.439137 1_565
Na4 O6 2.455739 1_665
Na4 O18 2.476217 1_555
Na5 O17 2.374989 1_555
Na5 O5 2.398027 1_555
Na5 O7 2.435800 1_555
Na5 O2 2.438730 1_556
Na5 O9 2.453908 1_555
Na5 O19 2.462191 1_555
O0 V5 1.919947 1_565
O0 V4 2.056736 1_555
O0 V3 2.106687 1_665
O1 V0 1.922227 1_555
O1 V9 2.059581 1_555
O1 V8 2.134018 1_555
O2 V5 1.919393 1_555
O2 V3 2.056974 1_555
O2 V4 2.107312 1_445
O3 V0 1.922000 1_655
O3 V8 2.059520 1_555
O3 V9 2.134029 1_555
O4 V0 2.028037 1_555
O4 V2 2.041444 1_455
O4 V9 2.072652 1_555
O5 V5 2.020110 1_556
O5 V7 2.050196 1_545
O5 V4 2.080844 1_546
O6 V5 2.019937 1_555
O6 V6 2.050201 1_555
O6 V3 2.081292 1_555
O7 V0 2.028317 1_655
O7 V1 2.040894 1_655
O7 V8 2.072523 1_555
O8 V6 1.894315 1_555
O8 V2 2.099104 1_455
O8 V9 2.116359 1_555
O9 V7 2.012359 1_555
O9 V4 2.033780 1_556
O9 V1 2.042601 1_655
O10 V6 2.012889 1_555
O10 V3 2.033486 1_555
O10 V2 2.042485 1_455
O11 V7 1.893793 1_555
O11 V1 2.099536 1_655
O11 V8 2.115981 1_555
O12 V6 1.952795 1_555
O12 V5 2.006781 1_555
O12 V3 2.077654 1_655
O13 V0 2.000330 1_555
O13 V8 2.006582 1_555
O13 V1 2.018365 1_555
O14 V7 1.953458 1_554
O14 V5 2.006547 1_565
O14 V4 2.077316 1_455
O15 V0 2.000398 1_655
O15 V9 2.006587 1_555
O15 V2 2.018643 1_555
O16 V6 2.012623 1_555
O16 V3 2.012865 1_655
O16 V2 2.048369 1_555
O17 V7 1.993658 1_555
O17 V8 2.022789 1_555
O17 V1 2.078290 1_555
O18 V6 1.994056 1_555
O18 V9 2.022716 1_555
O18 V2 2.077804 1_555
O19 V4 2.013109 1_446
O19 V7 2.013203 1_545
O19 V1 2.047702 1_545
