# generated using pymatgen
data_AlAu4
_symmetry_space_group_name_H-M   'P 1'
_cell_length_a   6.97826608
_cell_length_b   6.97826608
_cell_length_c   6.97826608
_cell_angle_alpha   90.00000000
_cell_angle_beta   90.00000000
_cell_angle_gamma   90.00000000
_symmetry_Int_Tables_number   1
_chemical_formula_structural   AlAu4
_chemical_formula_sum   'Al4 Au16'
_cell_volume   339.81502312
_cell_formula_units_Z   4
loop_
 _symmetry_equiv_pos_site_id
 _symmetry_equiv_pos_as_xyz
  1  'x, y, z'
loop_
 _atom_site_type_symbol
 _atom_site_label
 _atom_site_symmetry_multiplicity
 _atom_site_fract_x
 _atom_site_fract_y
 _atom_site_fract_z
 _atom_site_occupancy
  Al  Al0  1  0.06384002  0.06384002  0.06384002  1
  Al  Al1  1  0.43615998  0.93615998  0.56384002  1
  Al  Al2  1  0.56384002  0.43615998  0.93615998  1
  Al  Al3  1  0.93615998  0.56384002  0.43615998  1
  Au  Au0  1  0.68242053  0.68242053  0.68242053  1
  Au  Au1  1  0.81757947  0.31757947  0.18242053  1
  Au  Au2  1  0.18242053  0.81757947  0.31757947  1
  Au  Au3  1  0.31757947  0.18242053  0.81757947  1
  Au  Au4  1  0.78460692  0.94867446  0.38714184  1
  Au  Au5  1  0.38714184  0.78460692  0.94867446  1
  Au  Au6  1  0.94867446  0.38714184  0.78460692  1
  Au  Au7  1  0.55132554  0.61285816  0.28460692  1
  Au  Au8  1  0.88714184  0.71539308  0.05132554  1
  Au  Au9  1  0.05132554  0.88714184  0.71539308  1
  Au  Au10  1  0.11285816  0.21539308  0.44867446  1
  Au  Au11  1  0.61285816  0.28460692  0.55132554  1
  Au  Au12  1  0.44867446  0.11285816  0.21539308  1
  Au  Au13  1  0.28460692  0.55132554  0.61285816  1
  Au  Au14  1  0.21539308  0.44867446  0.11285816  1
  Au  Au15  1  0.71539308  0.05132554  0.88714184  1
loop_
_geom_bond_atom_site_label_1
_geom_bond_atom_site_label_2
_geom_bond_distance
_geom_bond_site_symmetry_2
Al0 Au3 2.602522 1_554
Al0 Au2 2.602522 1_545
Al0 Au1 2.602522 1_455
Al0 Au9 2.727727 1_544
Al0 Au8 2.727727 1_445
Al0 Au15 2.727727 1_454
Al0 Au10 2.906418 1_555
Al0 Au14 2.906418 1_555
Al0 Au12 2.906418 1_555
Al0 Au4 3.087505 1_445
Al0 Au6 3.087505 1_454
Al0 Au5 3.087505 1_544
Al1 Au3 2.602522 1_565
Al1 Au2 2.602522 1_555
Al1 Au0 2.602522 1_555
Al1 Au11 2.727727 1_565
Al1 Au4 2.727727 1_555
Al1 Au12 2.727727 1_565
Al1 Au13 2.906418 1_555
Al1 Au5 2.906418 1_555
Al1 Au9 2.906418 1_555
Al1 Au7 3.087505 1_555
Al1 Au15 3.087505 1_565
Al1 Au10 3.087505 1_565
Al2 Au1 2.602522 1_556
Al2 Au3 2.602522 1_555
Al2 Au0 2.602522 1_555
Al2 Au7 2.727727 1_556
Al2 Au14 2.727727 1_556
Al2 Au5 2.727727 1_555
Al2 Au6 2.906418 1_555
Al2 Au11 2.906418 1_555
Al2 Au15 2.906418 1_555
Al2 Au13 3.087505 1_555
Al2 Au8 3.087505 1_556
Al2 Au12 3.087505 1_556
Al3 Au1 2.602522 1_555
Al3 Au2 2.602522 1_655
Al3 Au0 2.602522 1_555
Al3 Au13 2.727727 1_655
Al3 Au10 2.727727 1_655
Al3 Au6 2.727727 1_555
Al3 Au7 2.906418 1_555
Al3 Au4 2.906418 1_555
Al3 Au8 2.906418 1_555
Al3 Au11 3.087505 1_555
Al3 Au9 3.087505 1_655
Al3 Au14 3.087505 1_655
Au0 Au6 2.864684 1_555
Au0 Au4 2.864684 1_555
Au0 Au5 2.864684 1_555
Au0 Au8 2.953125 1_556
Au0 Au15 2.953125 1_565
Au0 Au9 2.953125 1_655
Au0 Au13 2.962933 1_555
Au0 Au7 2.962933 1_555
Au0 Au11 2.962933 1_555
Au1 Au10 2.864684 1_655
Au1 Au7 2.864684 1_555
Au1 Au15 2.864684 1_554
Au1 Au11 2.953125 1_555
Au1 Au12 2.953125 1_555
Au1 Au4 2.953125 1_545
Au1 Au8 2.962933 1_555
Au1 Au6 2.962933 1_554
Au1 Au14 2.962933 1_655
Au2 Au8 2.864684 1_455
Au2 Au7 2.953125 1_555
Au2 Au5 2.953125 1_554
Au2 Au9 2.962933 1_555
Au2 Au4 2.962933 1_455
Au3 Au9 2.864684 1_545
Au3 Au6 2.953125 1_455
Au3 Au5 2.962933 1_545
Au4 Au7 2.941703 1_555
Au4 Au8 2.941703 1_555
Au4 Au9 2.982537 1_655
Au5 Au7 2.871322 1_556
Au5 Au9 2.941703 1_555
Au6 Au8 2.982537 1_556
Au7 Au8 2.941703 1_555
Au8 Au9 2.871322 1_654
Au10 Au6 2.871322 1_455
Au10 Au13 2.871322 1_555
Au10 Au14 2.941703 1_555
Au10 Au12 2.941703 1_555
Au10 Au3 2.953125 1_555
Au10 Au2 2.962933 1_545
Au10 Au4 2.982537 1_445
Au10 Au9 2.982537 1_545
Au11 Au3 2.864684 1_555
Au11 Au4 2.871322 1_545
Au11 Au12 2.871322 1_555
Au11 Au6 2.941703 1_555
Au11 Au15 2.941703 1_555
Au11 Au13 2.982537 1_555
Au11 Au7 2.982537 1_555
Au12 Au2 2.864684 1_545
Au12 Au4 2.871322 1_545
Au12 Au14 2.941703 1_555
Au12 Au3 2.962933 1_554
Au12 Au15 2.982537 1_554
Au12 Au5 2.982537 1_544
Au13 Au2 2.864684 1_555
Au13 Au6 2.871322 1_455
Au13 Au5 2.941703 1_555
Au13 Au9 2.941703 1_555
Au13 Au3 2.953125 1_555
Au13 Au7 2.982537 1_555
Au14 Au3 2.864684 1_554
Au14 Au5 2.871322 1_554
Au14 Au7 2.871322 1_555
Au14 Au2 2.953125 1_555
Au14 Au8 2.982537 1_455
Au14 Au6 2.982537 1_454
Au15 Au8 2.871322 1_546
Au15 Au9 2.871322 1_645
Au15 Au6 2.941703 1_555
Au15 Au3 2.962933 1_555
Au15 Au5 2.982537 1_545
