# generated using pymatgen
data_MgAg14(PbO3)6
_symmetry_space_group_name_H-M   'P 1'
_cell_length_a   9.01424056
_cell_length_b   8.81810700
_cell_length_c   8.99704119
_cell_angle_alpha   73.02924589
_cell_angle_beta   107.77223836
_cell_angle_gamma   105.80633242
_symmetry_Int_Tables_number   1
_chemical_formula_structural   MgAg14(PbO3)6
_chemical_formula_sum   'Mg1 Ag14 Pb6 O18'
_cell_volume   638.04970850
_cell_formula_units_Z   1
loop_
 _symmetry_equiv_pos_site_id
 _symmetry_equiv_pos_as_xyz
  1  'x, y, z'
loop_
 _atom_site_type_symbol
 _atom_site_label
 _atom_site_symmetry_multiplicity
 _atom_site_fract_x
 _atom_site_fract_y
 _atom_site_fract_z
 _atom_site_occupancy
  Mg  Mg0  1  0.61424634  0.58738027  0.40443378  1
  Ag  Ag0  1  0.85434614  0.18338331  0.67939140  1
  Ag  Ag1  1  0.18288379  0.35200870  0.83683758  1
  Ag  Ag2  1  0.67046330  0.83710422  0.84613400  1
  Ag  Ag3  1  0.49268802  0.97798840  0.51196821  1
  Ag  Ag4  1  0.08527219  0.94596654  0.90463607  1
  Ag  Ag5  1  0.24378429  0.76221767  0.75331026  1
  Ag  Ag6  1  0.39652235  0.59689006  0.62227353  1
  Ag  Ag7  1  0.34576143  0.17802380  0.17384662  1
  Ag  Ag8  1  0.76867483  0.24388591  0.24153194  1
  Ag  Ag9  1  0.94636331  0.09301708  0.07863759  1
  Ag  Ag10  1  0.00413372  0.50959383  0.50357358  1
  Ag  Ag11  1  0.83890161  0.66612748  0.16751115  1
  Ag  Ag12  1  0.16400973  0.85027410  0.32312785  1
  Ag  Ag13  1  0.51002363  0.50488041  0.01541309  1
  Pb  Pb0  1  0.51267201  0.17944714  0.83079314  1
  Pb  Pb1  1  0.84023921  0.50859728  0.83771074  1
  Pb  Pb2  1  0.18882369  0.18647268  0.50377191  1
  Pb  Pb3  1  0.85347707  0.87035694  0.51494443  1
  Pb  Pb4  1  0.17544221  0.51107003  0.17205496  1
  Pb  Pb5  1  0.48978457  0.85115350  0.15926726  1
  O  O0  1  0.78286803  0.23124416  0.86479258  1
  O  O1  1  0.57283145  0.45108196  0.82513662  1
  O  O2  1  0.92611847  0.15383016  0.48594223  1
  O  O3  1  0.24471323  0.16595760  0.77366103  1
  O  O4  1  0.86024097  0.77710469  0.79537293  1
  O  O5  1  0.48209172  0.90127981  0.89830332  1
  O  O6  1  0.11293985  0.53152362  0.90131086  1
  O  O7  1  0.44946007  0.18458410  0.56556875  1
  O  O8  1  0.81147807  0.55454526  0.57112823  1
  O  O9  1  0.53015402  0.12141364  0.10755706  1
  O  O10  1  0.19772787  0.45864090  0.44030950  1
  O  O11  1  0.90912351  0.48469765  0.10789026  1
  O  O12  1  0.54030145  0.78103493  0.43851212  1
  O  O13  1  0.15936388  0.23786414  0.23359655  1
  O  O14  1  0.73857397  0.79842655  0.25640173  1
  O  O15  1  0.44389425  0.55954411  0.20364366  1
  O  O16  1  0.12315790  0.91657829  0.51538815  1
  O  O17  1  0.22444287  0.78538610  0.13887535  1
loop_
_geom_bond_atom_site_label_1
_geom_bond_atom_site_label_2
_geom_bond_distance
_geom_bond_site_symmetry_2
Mg0 O8 1.973118 1_555
Mg0 O15 2.010433 1_555
Mg0 O12 2.122483 1_555
Mg0 O14 2.195748 1_555
Ag0 O2 2.135360 1_555
Ag0 O0 2.142643 1_555
Ag1 O6 2.131396 1_555
Ag1 O3 2.135709 1_555
Ag2 O4 2.127458 1_555
Ag2 O5 2.142182 1_555
Ag3 O7 2.172005 1_565
Ag3 O12 2.210565 1_555
Ag4 O4 2.300016 1_455
Ag4 O3 2.323367 1_565
Ag4 O17 2.373181 1_556
Ag5 O16 2.302548 1_555
Ag5 O6 2.317945 1_555
Ag5 O5 2.368151 1_555
Ag6 O1 2.341521 1_555
Ag6 O10 2.358317 1_555
Ag6 O12 2.375782 1_555
Ag7 O13 2.142572 1_555
Ag7 O9 2.144451 1_555
Ag8 O9 2.270455 1_555
Ag8 O2 2.273702 1_555
Ag8 O11 2.352027 1_555
Ag9 O0 2.288680 1_554
Ag9 O13 2.308915 1_655
Ag10 O8 2.168520 1_455
Ag10 O10 2.180381 1_555
Ag11 O14 2.092725 1_555
Ag11 O11 2.123196 1_555
Ag12 O16 2.136849 1_555
Ag12 O17 2.155700 1_555
Ag13 O1 2.165269 1_554
Ag13 O15 2.169115 1_555
O0 Pb0 2.292399 1_555
O0 Pb1 2.312664 1_555
O1 Pb0 2.296129 1_555
O1 Pb1 2.298140 1_555
O2 Pb2 2.267188 1_655
O2 Pb3 2.361607 1_545
O3 Pb2 2.286728 1_555
O3 Pb0 2.287785 1_555
O4 Pb1 2.250910 1_555
O4 Pb3 2.401631 1_555
O5 Pb5 2.241495 1_556
O5 Pb0 2.307768 1_565
O6 Pb4 2.290114 1_556
O6 Pb1 2.312813 1_455
O7 Pb2 2.246718 1_555
O7 Pb0 2.267545 1_555
O8 Pb1 2.257052 1_555
O8 Pb3 2.622019 1_555
O9 Pb5 2.238768 1_545
O9 Pb0 2.355335 1_554
O10 Pb4 2.276468 1_555
O10 Pb2 2.283762 1_555
O11 Pb4 2.253601 1_655
O11 Pb1 2.278079 1_554
O12 Pb5 2.334490 1_555
O12 Pb3 2.642457 1_555
O13 Pb4 2.282913 1_555
O13 Pb2 2.283202 1_555
O14 Pb5 2.267990 1_555
O14 Pb3 2.432810 1_555
O15 Pb4 2.281869 1_555
O15 Pb5 2.421745 1_555
O16 Pb2 2.269495 1_565
O16 Pb3 2.351807 1_455
O17 Pb5 2.264841 1_555
O17 Pb4 2.283071 1_555
