# generated using pymatgen
data_TiCo3O8
_symmetry_space_group_name_H-M   'P 1'
_cell_length_a   7.51481200
_cell_length_b   7.55066701
_cell_length_c   18.72072745
_cell_angle_alpha   89.97324029
_cell_angle_beta   89.97774978
_cell_angle_gamma   89.99666879
_symmetry_Int_Tables_number   1
_chemical_formula_structural   TiCo3O8
_chemical_formula_sum   'Ti8 Co24 O64'
_cell_volume   1062.24838167
_cell_formula_units_Z   8
loop_
 _symmetry_equiv_pos_site_id
 _symmetry_equiv_pos_as_xyz
  1  'x, y, z'
loop_
 _atom_site_type_symbol
 _atom_site_label
 _atom_site_symmetry_multiplicity
 _atom_site_fract_x
 _atom_site_fract_y
 _atom_site_fract_z
 _atom_site_occupancy
  Ti  Ti0  1  0.99282000  0.74308300  0.87469100  1
  Ti  Ti1  1  0.49863600  0.24069400  0.88333200  1
  Ti  Ti2  1  0.76846700  0.74189300  0.74414400  1
  Ti  Ti3  1  0.26050200  0.24779300  0.75196900  1
  Ti  Ti4  1  0.49437800  0.00176800  0.01184000  1
  Ti  Ti5  1  0.99756000  0.50102700  0.00431700  1
  Ti  Ti6  1  0.75159600  0.50426800  0.61322300  1
  Ti  Ti7  1  0.25356900  0.01080400  0.62027500  1
  Co  Co0  1  0.74676000  0.00394900  0.62232700  1
  Co  Co1  1  0.99748800  0.00151200  0.49407100  1
  Co  Co2  1  0.48702600  0.74941700  0.88012800  1
  Co  Co3  1  0.25091000  0.25645700  0.24999800  1
  Co  Co4  1  0.00684900  0.49939300  0.48860300  1
  Co  Co5  1  0.49543800  0.49872300  0.49262100  1
  Co  Co6  1  0.49614500  0.25752400  0.37153400  1
  Co  Co7  1  0.00478300  0.24093500  0.36775100  1
  Co  Co8  1  0.74719000  0.24046100  0.25303400  1
  Co  Co9  1  0.99438700  0.75269400  0.37295300  1
  Co  Co10  1  0.26464800  0.74949800  0.74494400  1
  Co  Co11  1  0.50385600  0.75026400  0.37539100  1
  Co  Co12  1  0.99580700  0.24671600  0.87325700  1
  Co  Co13  1  0.00653100  0.00598900  0.00232200  1
  Co  Co14  1  0.74624700  0.49887000  0.13203900  1
  Co  Co15  1  0.50706000  0.50460400  0.00385000  1
  Co  Co16  1  0.75302400  0.00151400  0.13191300  1
  Co  Co17  1  0.23820000  0.50349200  0.62144800  1
  Co  Co18  1  0.50298700  0.00186700  0.49420600  1
  Co  Co19  1  0.74690000  0.25195700  0.74678000  1
  Co  Co20  1  0.25059800  0.50581500  0.13034500  1
  Co  Co21  1  0.24941200  0.74618800  0.25796300  1
  Co  Co22  1  0.74948000  0.74948500  0.25049900  1
  Co  Co23  1  0.24107200  0.00169900  0.13544800  1
  O  O0  1  0.00418800  0.50142100  0.39283000  1
  O  O1  1  0.49566200  0.24612300  0.27328100  1
  O  O2  1  0.75760900  0.24983700  0.85653000  1
  O  O3  1  0.74268600  0.00555600  0.51375000  1
  O  O4  1  0.00328400  0.00453100  0.11481700  1
  O  O5  1  0.49476400  0.25992500  0.47465900  1
  O  O6  1  0.75236800  0.00104700  0.23446400  1
  O  O7  1  0.25216800  0.25063400  0.64599100  1
  O  O8  1  0.74646800  0.74718100  0.84756700  1
  O  O9  1  0.24627800  0.74598400  0.15336600  1
  O  O10  1  0.49385300  0.99194600  0.11484600  1
  O  O11  1  0.00407000  0.49665900  0.89688100  1
  O  O12  1  0.75027300  0.75374600  0.63656200  1
  O  O13  1  0.50464800  0.25529300  0.77602700  1
  O  O14  1  0.50555100  0.50619600  0.11193200  1
  O  O15  1  0.49016800  0.74819200  0.98506100  1
  O  O16  1  0.25470600  0.25587800  0.15065200  1
  O  O17  1  0.00326800  0.74876300  0.27256100  1
  O  O18  1  0.00224800  0.24401600  0.77683900  1
  O  O19  1  0.99359600  0.99682100  0.39031300  1
  O  O20  1  0.25759200  0.75577200  0.64801200  1
  O  O21  1  0.00397900  0.24496900  0.47118600  1
  O  O22  1  0.24389400  0.00516000  0.23109800  1
  O  O23  1  0.75249300  0.99849800  0.71932400  1
  O  O24  1  0.75277400  0.25014100  0.35045300  1
  O  O25  1  0.00281400  0.24954600  0.27113600  1
  O  O26  1  0.24326200  0.00178300  0.03190800  1
  O  O27  1  0.00152300  0.00372400  0.90055600  1
  O  O28  1  0.25213800  0.99999200  0.72826100  1
  O  O29  1  0.50214900  0.00321200  0.59674900  1
  O  O30  1  0.48959700  0.74656200  0.76329300  1
  O  O31  1  0.24752900  0.75150600  0.35465900  1
  O  O32  1  0.25279600  0.74738900  0.85023800  1
  O  O33  1  0.49549900  0.75696500  0.27406900  1
  O  O34  1  0.50494800  0.74014600  0.47375600  1
  O  O35  1  0.24418400  0.50397300  0.72564500  1
  O  O36  1  0.75260300  0.99851700  0.03560400  1
  O  O37  1  0.75893600  0.50127500  0.72025300  1
  O  O38  1  0.75253600  0.74128600  0.35302400  1
  O  O39  1  0.74618400  0.50479200  0.02958700  1
  O  O40  1  0.74518300  0.24165500  0.15077000  1
  O  O41  1  0.49697500  0.49950000  0.39041900  1
  O  O42  1  0.49595600  0.25312000  0.98898600  1
  O  O43  1  0.49475500  0.50149800  0.58951900  1
  O  O44  1  0.75551700  0.49477500  0.50998100  1
  O  O45  1  0.99350300  0.75604500  0.47304400  1
  O  O46  1  0.01087500  0.75599600  0.76571900  1
  O  O47  1  0.25032900  0.50377100  0.03315800  1
  O  O48  1  0.99371700  0.75091400  0.97839500  1
  O  O49  1  0.24960000  0.24999700  0.85907200  1
  O  O50  1  0.25346500  0.49461700  0.23355100  1
  O  O51  1  0.51140400  0.00052700  0.90488800  1
  O  O52  1  0.99956100  0.00205000  0.59167100  1
  O  O53  1  0.24533300  0.25001700  0.35113700  1
  O  O54  1  0.98958200  0.25407700  0.97881500  1
  O  O55  1  0.24394800  0.50627500  0.50833700  1
  O  O56  1  0.50454700  0.00153500  0.39590700  1
  O  O57  1  0.75346100  0.75792300  0.15258900  1
  O  O58  1  0.25791800  0.99491700  0.51379900  1
  O  O59  1  0.74504100  0.49587800  0.22980700  1
  O  O60  1  0.75268300  0.24834400  0.64052100  1
  O  O61  1  0.51049000  0.49770600  0.90687600  1
  O  O62  1  0.00379600  0.50288900  0.59190800  1
  O  O63  1  0.99211200  0.49562200  0.11063000  1
loop_
_geom_bond_atom_site_label_1
_geom_bond_atom_site_label_2
_geom_bond_distance
_geom_bond_site_symmetry_2
Co0 O23 1.816829 1_545
Co0 O60 1.877205 1_555
Co0 O29 1.899738 1_555
Co0 O12 1.907962 1_545
Co0 O52 1.984385 1_555
Co0 O3 2.032913 1_555
Co1 O52 1.827222 1_555
Co1 O21 1.887960 1_655
Co1 O45 1.895201 1_545
Co1 O19 1.942996 1_545
Co1 O3 1.950007 1_555
Co1 O58 1.992381 1_645
Co2 O32 1.847270 1_555
Co2 O51 1.960699 1_565
Co2 O15 1.964591 1_555
Co2 O61 1.973120 1_555
Co2 O8 2.042573 1_555
Co2 O30 2.187430 1_555
Co3 O50 1.824395 1_555
Co3 O16 1.860044 1_555
Co3 O1 1.891969 1_555
Co3 O53 1.894445 1_555
Co3 O25 1.906490 1_555
Co3 O22 1.931056 1_555
Co4 O0 1.793118 1_555
Co4 O55 1.820541 1_555
Co4 O44 1.930810 1_455
Co4 O62 1.934264 1_555
Co4 O21 1.948817 1_555
Co4 O45 1.962092 1_455
Co5 O43 1.814137 1_555
Co5 O5 1.834333 1_555
Co5 O34 1.858012 1_555
Co5 O41 1.913332 1_555
Co5 O55 1.913402 1_555
Co5 O44 1.981626 1_555
Co6 O1 1.841426 1_555
Co6 O41 1.861144 1_555
Co6 O53 1.924085 1_555
Co6 O5 1.930692 1_555
Co6 O24 1.969126 1_555
Co6 O56 1.986811 1_555
Co7 O25 1.809907 1_555
Co7 O53 1.835411 1_555
Co7 O19 1.892672 1_445
Co7 O24 1.922659 1_455
Co7 O21 1.936639 1_555
Co7 O0 2.022320 1_555
Co8 O24 1.825751 1_555
Co8 O6 1.841425 1_555
Co8 O40 1.914539 1_555
Co8 O1 1.928147 1_555
Co8 O25 1.951974 1_655
Co8 O59 1.976849 1_555
Co9 O38 1.857516 1_555
Co9 O19 1.871910 1_555
Co9 O45 1.873968 1_555
Co9 O17 1.880818 1_655
Co9 O31 1.932787 1_655
Co9 O0 1.934659 1_655
Co10 O30 1.725267 1_555
Co10 O20 1.816028 1_555
Co10 O35 1.895190 1_555
Co10 O28 1.919170 1_555
Co10 O46 1.946783 1_555
Co10 O32 1.973214 1_555
Co11 O34 1.843034 1_555
Co11 O33 1.898536 1_555
Co11 O41 1.914791 1_555
Co11 O38 1.916164 1_555
Co11 O56 1.935932 1_565
Co11 O31 1.965130 1_555
Co12 O18 1.805770 1_655
Co12 O2 1.817466 1_555
Co12 O27 1.904854 1_655
Co12 O49 1.925662 1_655
Co12 O11 1.939568 1_655
Co12 O54 1.977465 1_555
Co13 O26 1.863686 1_555
Co13 O27 1.905605 1_554
Co13 O54 1.928242 1_454
Co13 O48 1.979949 1_444
Co13 O36 2.007923 1_445
Co13 O4 2.106144 1_555
Co14 O59 1.830436 1_555
Co14 O14 1.848500 1_555
Co14 O63 1.890608 1_555
Co14 O39 1.918476 1_555
Co14 O40 1.973402 1_555
Co14 O57 1.994417 1_555
Co15 O61 1.816368 1_554
Co15 O39 1.860626 1_555
Co15 O15 1.876723 1_554
Co15 O42 1.921104 1_554
Co15 O47 2.005590 1_555
Co15 O14 2.023442 1_555
Co16 O36 1.803131 1_545
Co16 O40 1.848363 1_555
Co16 O57 1.879388 1_545
Co16 O4 1.907708 1_655
Co16 O6 1.919835 1_555
Co16 O10 1.975109 1_545
Co17 O62 1.846481 1_555
Co17 O35 1.951184 1_555
Co17 O7 1.966352 1_555
Co17 O20 1.974358 1_555
Co17 O43 2.018332 1_555
Co17 O55 2.118038 1_555
Co18 O3 1.838430 1_555
Co18 O56 1.840264 1_555
Co18 O58 1.878411 1_545
Co18 O29 1.919719 1_555
Co18 O5 1.983370 1_555
Co18 O34 2.013137 1_545
Co19 O13 1.900998 1_555
Co19 O37 1.948789 1_555
Co19 O23 1.982277 1_545
Co19 O60 1.989903 1_555
Co19 O18 2.000799 1_655
Co19 O2 2.056261 1_555
Co20 O47 1.819486 1_555
Co20 O9 1.864417 1_555
Co20 O16 1.925175 1_555
Co20 O50 1.934029 1_555
Co20 O14 1.946556 1_555
Co20 O63 1.978875 1_455
Co21 O31 1.810733 1_555
Co21 O17 1.869801 1_555
Co21 O33 1.875609 1_555
Co21 O50 1.954172 1_555
Co21 O9 1.958284 1_555
Co21 O22 2.019253 1_565
Co22 O57 1.834256 1_555
Co22 O38 1.920458 1_555
Co22 O6 1.923019 1_565
Co22 O17 1.951542 1_655
Co22 O59 1.954157 1_555
Co22 O33 1.959611 1_555
Co23 O22 1.790974 1_555
Co23 O4 1.828464 1_555
Co23 O26 1.938407 1_555
Co23 O10 1.939614 1_545
Co23 O16 1.943059 1_555
Co23 O9 1.959976 1_545
O2 Ti1 2.010767 1_555
O7 Ti7 1.874022 1_555
O7 Ti3 1.985104 1_555
O8 Ti0 1.920099 1_555
O8 Ti2 1.943563 1_555
O10 Ti4 1.929741 1_565
O11 Ti0 1.908161 1_455
O11 Ti5 2.012142 1_456
O12 Ti6 1.933956 1_555
O12 Ti2 2.020643 1_555
O13 Ti3 1.890210 1_555
O13 Ti1 2.012288 1_555
O15 Ti4 1.979696 1_566
O18 Ti3 1.995823 1_555
O20 Ti7 1.994439 1_565
O23 Ti2 1.995881 1_555
O26 Ti4 1.923980 1_555
O27 Ti0 2.027990 1_445
O28 Ti3 1.924220 1_565
O28 Ti7 2.023211 1_565
O29 Ti7 1.919941 1_555
O30 Ti2 2.126251 1_555
O32 Ti0 2.006675 1_455
O35 Ti3 1.999664 1_555
O36 Ti4 1.991171 1_565
O37 Ti2 1.872652 1_555
O37 Ti6 2.004577 1_555
O39 Ti5 1.947409 1_555
O42 Ti4 1.945344 1_556
O42 Ti1 1.980282 1_555
O43 Ti6 1.980749 1_555
O44 Ti6 1.934340 1_555
O46 Ti2 1.869096 1_455
O46 Ti0 2.046768 1_455
O47 Ti5 1.975070 1_455
O48 Ti0 1.942356 1_555
O48 Ti5 1.948216 1_556
O49 Ti1 1.927219 1_555
O49 Ti3 2.006764 1_555
O51 Ti1 1.860074 1_555
O51 Ti4 2.006280 1_556
O52 Ti7 1.983825 1_655
O54 Ti5 1.925944 1_556
O58 Ti7 1.997225 1_565
O60 Ti6 1.998615 1_555
O61 Ti1 1.992242 1_555
O62 Ti6 1.936664 1_455
O63 Ti5 1.991061 1_555
