# generated using pymatgen
data_TbIn7Cu5
_symmetry_space_group_name_H-M   'P 1'
_cell_length_a   7.26591118
_cell_length_b   7.26591118
_cell_length_c   7.26591118
_cell_angle_alpha   134.31993762
_cell_angle_beta   98.72351159
_cell_angle_gamma   98.60776085
_symmetry_Int_Tables_number   1
_chemical_formula_structural   TbIn7Cu5
_chemical_formula_sum   'Tb1 In7 Cu5'
_cell_volume   252.92270308
_cell_formula_units_Z   1
loop_
 _symmetry_equiv_pos_site_id
 _symmetry_equiv_pos_as_xyz
  1  'x, y, z'
loop_
 _atom_site_type_symbol
 _atom_site_label
 _atom_site_symmetry_multiplicity
 _atom_site_fract_x
 _atom_site_fract_y
 _atom_site_fract_z
 _atom_site_occupancy
  Tb  Tb0  1  0.00145300  0.00145300  0.00000000  1
  In  In0  1  0.65805600  0.65805600  0.00000000  1
  In  In1  1  0.33410600  0.33410600  0.00000000  1
  In  In2  1  0.32915500  0.98865600  0.34049900  1
  In  In3  1  0.64815700  0.98865600  0.65950100  1
  In  In4  1  0.77581200  0.27581200  0.50000000  1
  In  In5  1  0.81031000  0.51175600  0.29855400  1
  In  In6  1  0.21320200  0.51175600  0.70144600  1
  Cu  Cu0  1  0.49659200  0.50024000  0.49346200  1
  Cu  Cu1  1  0.49659300  0.00313000  0.99635300  1
  Cu  Cu2  1  0.00677700  0.50024000  0.00364700  1
  Cu  Cu3  1  0.00677700  0.00313000  0.50653800  1
  Cu  Cu4  1  0.22301000  0.72301000  0.50000000  1
loop_
_geom_bond_atom_site_label_1
_geom_bond_atom_site_label_2
_geom_bond_distance
_geom_bond_site_symmetry_2
In0 In4 3.033029 1_565
In0 In4 3.033029 1_554
In0 In1 3.069566 1_555
In0 In6 3.147339 1_554
In0 In5 3.147339 1_555
In0 Tb0 3.253835 1_665
In1 Tb0 3.152031 1_555
In1 In6 3.289008 1_554
In1 In5 3.289008 1_555
In2 In3 3.019130 1_555
In2 In4 3.111628 1_565
In2 In6 3.119959 1_554
In2 In6 3.119959 1_565
In2 Tb0 3.224864 1_565
In3 In4 3.111628 1_565
In3 In5 3.119959 1_566
In3 In5 3.119959 1_555
In3 Tb0 3.224864 1_666
In4 In6 2.938221 1_655
In4 In5 2.938221 1_555
In4 Tb0 3.539141 1_655
In4 Tb0 3.539141 1_666
In5 Tb0 3.405690 1_655
In5 Tb0 3.405690 1_666
In6 Tb0 3.405690 1_566
In6 Tb0 3.405690 1_555
Cu0 In6 2.710960 1_555
Cu0 Cu4 2.730931 1_555
Cu0 In3 2.776116 1_555
Cu0 In4 2.801186 1_555
Cu0 Cu1 2.804031 1_554
Cu0 In1 2.819238 1_555
Cu0 Cu1 2.836635 1_565
Cu0 In5 2.880302 1_555
Cu0 In0 2.937249 1_556
Cu0 In2 2.999296 1_545
Cu0 Tb0 3.600013 1_555
Cu0 Tb0 3.666256 1_666
Cu1 In6 2.710961 1_545
Cu1 Cu4 2.730939 1_545
Cu1 In3 2.776118 1_545
Cu1 In4 2.801178 1_556
Cu1 In1 2.819246 1_556
Cu1 In5 2.880300 1_556
Cu1 In0 2.937241 1_546
Cu1 In2 2.999293 1_546
Cu1 Tb0 3.600019 1_556
Cu1 Tb0 3.666250 1_656
Cu2 In5 2.710961 1_455
Cu2 Cu4 2.730939 1_555
Cu2 In2 2.776118 1_555
Cu2 In4 2.801178 1_454
Cu2 Cu3 2.804029 1_554
Cu2 In1 2.819246 1_555
Cu2 Cu3 2.836637 1_565
Cu2 In6 2.880300 1_554
Cu2 In0 2.937241 1_455
Cu2 In3 2.999293 1_444
Cu2 Tb0 3.600019 1_555
Cu2 Tb0 3.666250 1_565
Cu3 In5 2.710958 1_445
Cu3 Cu4 2.730936 1_545
Cu3 In2 2.776122 1_545
Cu3 In4 2.801181 1_455
Cu3 In1 2.819242 1_556
Cu3 In6 2.880304 1_555
Cu3 In0 2.937245 1_445
Cu3 In3 2.999289 1_445
Cu3 Tb0 3.600011 1_556
Cu3 Tb0 3.666257 1_555
Cu4 In5 2.764382 1_455
Cu4 In6 2.764382 1_555
Cu4 In3 2.935069 1_555
Cu4 In2 2.935069 1_555
Cu4 In1 3.010385 1_566
Cu4 In1 3.010385 1_555
Cu4 Tb0 3.515898 1_555
Cu4 Tb0 3.515898 1_566
