# generated using pymatgen
data_Cs2MnH12(SeO7)2
_symmetry_space_group_name_H-M   'P 1'
_cell_length_a   13.42734300
_cell_length_b   6.76102700
_cell_length_c   9.65256043
_cell_angle_alpha   74.45984362
_cell_angle_beta   90.00000000
_cell_angle_gamma   90.00000000
_symmetry_Int_Tables_number   1
_chemical_formula_structural   Cs2MnH12(SeO7)2
_chemical_formula_sum   'Cs4 Mn2 H24 Se4 O28'
_cell_volume   844.25039379
_cell_formula_units_Z   2
loop_
 _symmetry_equiv_pos_site_id
 _symmetry_equiv_pos_as_xyz
  1  'x, y, z'
loop_
 _atom_site_type_symbol
 _atom_site_label
 _atom_site_symmetry_multiplicity
 _atom_site_fract_x
 _atom_site_fract_y
 _atom_site_fract_z
 _atom_site_occupancy
  Cs  Cs0  1  0.63745600  0.85514000  0.87274400  1
  Cs  Cs1  1  0.36254400  0.14486000  0.12725600  1
  Cs  Cs2  1  0.13745600  0.14486000  0.62725600  1
  Cs  Cs3  1  0.86254400  0.85514000  0.37274400  1
  Mn  Mn0  1  0.50000000  0.50000000  0.50000000  1
  Mn  Mn1  1  0.00000000  0.50000000  0.00000000  1
  H  H0  1  0.89165300  0.80308900  0.78875000  1
  H  H1  1  0.10834700  0.19691100  0.21125000  1
  H  H2  1  0.39165300  0.19691100  0.71125000  1
  H  H3  1  0.60834700  0.80308900  0.28875000  1
  H  H4  1  0.13813800  0.80686500  0.97921500  1
  H  H5  1  0.86186200  0.19313500  0.02078500  1
  H  H6  1  0.63813800  0.19313500  0.52078500  1
  H  H7  1  0.36186200  0.80686500  0.47921500  1
  H  H8  1  0.36172500  0.41732400  0.73440200  1
  H  H9  1  0.63827500  0.58267600  0.26559800  1
  H  H10  1  0.86172500  0.58267600  0.76559800  1
  H  H11  1  0.13827500  0.41732400  0.23440200  1
  H  H12  1  0.18149600  0.51633900  0.84796700  1
  H  H13  1  0.81850400  0.48366100  0.15203300  1
  H  H14  1  0.68149600  0.48366100  0.65203300  1
  H  H15  1  0.31850400  0.51633900  0.34796700  1
  H  H16  1  0.09939900  0.57571700  0.72509500  1
  H  H17  1  0.90060100  0.42428300  0.27490500  1
  H  H18  1  0.59939900  0.42428300  0.77490500  1
  H  H19  1  0.40060100  0.57571700  0.22509500  1
  H  H20  1  0.43281700  0.82002300  0.60713400  1
  H  H21  1  0.56718300  0.17997700  0.39286600  1
  H  H22  1  0.93281700  0.17997700  0.89286600  1
  H  H23  1  0.06718300  0.82002300  0.10713400  1
  Se  Se0  1  0.34903700  0.75590600  0.89760500  1
  Se  Se1  1  0.65096300  0.24409400  0.10239500  1
  Se  Se2  1  0.84903700  0.24409400  0.60239500  1
  Se  Se3  1  0.15096300  0.75590600  0.39760500  1
  O  O0  1  0.31006500  0.53625800  0.86307700  1
  O  O1  1  0.68993500  0.46374200  0.13692300  1
  O  O2  1  0.81006500  0.46374200  0.63692300  1
  O  O3  1  0.18993500  0.53625800  0.36307700  1
  O  O4  1  0.08016200  0.70445500  0.54560300  1
  O  O5  1  0.91983800  0.29554500  0.45439700  1
  O  O6  1  0.58016200  0.29554500  0.95439700  1
  O  O7  1  0.41983800  0.70445500  0.04560300  1
  O  O8  1  0.38316300  0.34360500  0.66285500  1
  O  O9  1  0.61683700  0.65639500  0.33714500  1
  O  O10  1  0.88316300  0.65639500  0.83714500  1
  O  O11  1  0.11683700  0.34360500  0.16285500  1
  O  O12  1  0.10996300  0.49738600  0.82677000  1
  O  O13  1  0.89003700  0.50261400  0.17323000  1
  O  O14  1  0.60996300  0.50261400  0.67323000  1
  O  O15  1  0.39003700  0.49738600  0.32677000  1
  O  O16  1  0.41759000  0.89668400  0.76054500  1
  O  O17  1  0.58241000  0.10331600  0.23945500  1
  O  O18  1  0.91759000  0.10331600  0.73945500  1
  O  O19  1  0.08241000  0.89668400  0.26054500  1
  O  O20  1  0.43144800  0.77943900  0.51535600  1
  O  O21  1  0.56855200  0.22056100  0.48464400  1
  O  O22  1  0.93144800  0.22056100  0.98464400  1
  O  O23  1  0.06855200  0.77943900  0.01535600  1
  O  O24  1  0.25069300  0.89886200  0.91723700  1
  O  O25  1  0.74930700  0.10113800  0.08276300  1
  O  O26  1  0.75069300  0.10113800  0.58276300  1
  O  O27  1  0.24930700  0.89886200  0.41723700  1
loop_
_geom_bond_atom_site_label_1
_geom_bond_atom_site_label_2
_geom_bond_distance
_geom_bond_site_symmetry_2
Cs0 O16 3.131195 1_555
Cs0 O1 3.222727 1_556
Cs0 O26 3.227741 1_565
Cs0 O25 3.307277 1_566
Cs0 O6 3.366981 1_565
Cs0 O7 3.383689 1_556
Cs1 O17 3.131195 1_555
Cs1 O0 3.222727 1_554
Cs1 O27 3.227741 1_545
Cs1 O24 3.307277 1_544
Cs1 O7 3.366981 1_545
Cs1 O6 3.383689 1_554
Cs2 O18 3.131195 1_455
Cs2 O3 3.222727 1_555
Cs2 O24 3.227741 1_545
Cs2 O27 3.307277 1_545
Cs2 O4 3.366981 1_545
Cs2 O5 3.383689 1_455
Cs3 O19 3.131195 1_655
Cs3 O2 3.222727 1_555
Cs3 O25 3.227741 1_565
Cs3 O26 3.307277 1_565
Cs3 O5 3.366981 1_565
Cs3 O4 3.383689 1_655
Mn0 O20 2.142131 1_555
Mn0 O21 2.142131 1_555
Mn0 O14 2.234322 1_555
Mn0 O15 2.234322 1_555
Mn0 O9 2.271493 1_555
Mn0 O8 2.271493 1_555
Mn1 O23 2.142131 1_555
Mn1 O22 2.142131 1_454
Mn1 O12 2.234322 1_554
Mn1 O13 2.234322 1_455
Mn1 O11 2.271493 1_555
Mn1 O10 2.271493 1_454
H0 O10 0.983174 1_555
H1 O11 0.983174 1_555
H2 O8 0.983174 1_555
H3 O9 0.983174 1_555
H4 O23 0.997216 1_556
H4 O24 1.682101 1_555
H5 O22 0.997216 1_554
H5 O25 1.682101 1_555
H6 O21 0.997216 1_555
H6 O26 1.682101 1_555
H7 O20 0.997216 1_555
H7 O27 1.682101 1_555
H8 O8 0.996324 1_555
H9 O9 0.996324 1_555
H10 O10 0.996324 1_555
H11 O11 0.996324 1_555
H12 O12 0.997441 1_555
H13 O13 0.997441 1_555
H14 O14 0.997441 1_555
H15 O15 0.997441 1_555
H16 O12 0.992616 1_555
H17 O13 0.992616 1_555
H18 O14 0.992616 1_555
H19 O15 0.992616 1_555
H20 O20 0.995330 1_555
H20 O16 1.707189 1_555
H21 O21 0.995330 1_555
H21 O17 1.707189 1_555
H22 O22 0.995330 1_555
H22 O18 1.707189 1_555
H23 O23 0.995330 1_555
H23 O19 1.707189 1_555
O0 Se0 1.689815 1_555
O1 Se1 1.689815 1_555
O2 Se2 1.689815 1_555
O3 Se3 1.689815 1_555
O4 Se3 1.673107 1_555
O5 Se2 1.673107 1_555
O6 Se1 1.673107 1_556
O7 Se0 1.673107 1_554
O16 Se0 1.681896 1_555
O17 Se1 1.681896 1_555
O18 Se2 1.681896 1_555
O19 Se3 1.681896 1_555
O24 Se0 1.676886 1_555
O25 Se1 1.676886 1_555
O26 Se2 1.676886 1_555
O27 Se3 1.676886 1_555
