# generated using pymatgen
data_Sr3TaCoO7
_symmetry_space_group_name_H-M   'P 1'
_cell_length_a   3.97802508
_cell_length_b   11.16335201
_cell_length_c   7.83862221
_cell_angle_alpha   79.88068732
_cell_angle_beta   90.02256394
_cell_angle_gamma   79.74319519
_symmetry_Int_Tables_number   1
_chemical_formula_structural   Sr3TaCoO7
_chemical_formula_sum   'Sr6 Ta2 Co2 O14'
_cell_volume   337.02667554
_cell_formula_units_Z   2
loop_
 _symmetry_equiv_pos_site_id
 _symmetry_equiv_pos_as_xyz
  1  'x, y, z'
loop_
 _atom_site_type_symbol
 _atom_site_label
 _atom_site_symmetry_multiplicity
 _atom_site_fract_x
 _atom_site_fract_y
 _atom_site_fract_z
 _atom_site_occupancy
  Sr  Sr0  1  0.52010900  0.95948500  0.76026700  1
  Sr  Sr1  1  0.52043400  0.95948200  0.26025000  1
  Sr  Sr2  1  0.30790200  0.38409000  0.15398700  1
  Sr  Sr3  1  0.30789400  0.38410100  0.65398100  1
  Sr  Sr4  1  0.68315400  0.63328600  0.84169600  1
  Sr  Sr5  1  0.68359600  0.63328500  0.34168200  1
  Ta  Ta0  1  0.90154100  0.19703400  0.95081300  1
  Ta  Ta1  1  0.90154000  0.19702900  0.45081500  1
  Co  Co0  1  0.10799400  0.78404100  0.05432900  1
  Co  Co1  1  0.10800700  0.78404500  0.55433100  1
  O  O0  1  0.19858400  0.60274900  0.09894700  1
  O  O1  1  0.19857300  0.60275400  0.59894700  1
  O  O2  1  0.80456800  0.39120200  0.90220400  1
  O  O3  1  0.80456500  0.39119700  0.40220900  1
  O  O4  1  0.98991200  0.02002200  0.99493100  1
  O  O5  1  0.98990800  0.02001500  0.49493300  1
  O  O6  1  0.59680800  0.80632600  0.04830300  1
  O  O7  1  0.59680100  0.80632800  0.54830400  1
  O  O8  1  0.09729300  0.80488700  0.79863300  1
  O  O9  1  0.09777000  0.80488400  0.29862400  1
  O  O10  1  0.39624600  0.20754500  0.94819500  1
  O  O11  1  0.39624400  0.20754000  0.44819900  1
  O  O12  1  0.89526800  0.20933800  0.19771100  1
  O  O13  1  0.89529200  0.20933800  0.69771100  1
loop_
_geom_bond_atom_site_label_1
_geom_bond_atom_site_label_2
_geom_bond_distance
_geom_bond_site_symmetry_2
Co0 O0 1.959466 1_555
Co0 O9 1.968765 1_555
Co0 O8 1.976286 1_554
Co0 O6 2.003365 1_555
Co0 O6 2.003728 1_455
Co0 O4 2.550553 1_464
Co1 O1 1.959455 1_555
Co1 O8 1.968817 1_555
Co1 O9 1.976377 1_555
Co1 O7 2.003280 1_555
Co1 O7 2.003808 1_455
Co1 O5 2.550434 1_465
O0 Sr2 2.363331 1_555
O0 Sr4 2.809420 1_454
O0 Sr4 2.809580 1_554
O0 Sr5 2.813485 1_455
O0 Sr5 2.813946 1_555
O1 Sr3 2.363267 1_555
O1 Sr5 2.808230 1_455
O1 Sr5 2.810925 1_555
O1 Sr4 2.812794 1_555
O1 Sr4 2.814769 1_455
O2 Ta0 2.098624 1_555
O2 Sr4 2.616515 1_555
O2 Sr2 2.792104 1_656
O2 Sr3 2.793181 1_655
O2 Sr3 2.793348 1_555
O2 Sr2 2.794456 1_556
O3 Ta1 2.098624 1_555
O3 Sr5 2.616558 1_555
O3 Sr3 2.792069 1_655
O3 Sr2 2.793208 1_655
O3 Sr2 2.793330 1_555
O3 Sr3 2.794404 1_555
O4 Ta0 1.913198 1_555
O4 Sr0 2.866510 1_545
O4 Sr0 2.867226 1_645
O4 Sr1 2.868553 1_546
O4 Sr1 2.868914 1_646
O5 Ta1 1.913220 1_555
O5 Sr1 2.865683 1_545
O5 Sr0 2.868111 1_645
O5 Sr1 2.868226 1_645
O5 Sr0 2.869494 1_545
O6 Sr0 2.563446 1_554
O6 Sr1 2.566946 1_555
O6 Sr4 2.708462 1_554
O6 Sr5 2.709268 1_555
O7 Sr1 2.563527 1_555
O7 Sr0 2.567051 1_555
O7 Sr5 2.708574 1_555
O7 Sr4 2.709348 1_555
O8 Sr0 2.597442 1_455
O8 Sr0 2.598025 1_555
O8 Sr4 2.719346 1_455
O8 Sr4 2.719821 1_555
O9 Sr1 2.597562 1_555
O9 Sr1 2.597905 1_455
O9 Sr5 2.719431 1_455
O9 Sr5 2.719707 1_555
O10 Ta0 1.992092 1_455
O10 Ta0 1.992416 1_555
O10 Sr2 2.735109 1_556
O10 Sr3 2.735380 1_555
O11 Ta1 1.992088 1_455
O11 Ta1 1.992420 1_555
O11 Sr3 2.735196 1_555
O11 Sr2 2.735332 1_555
O12 Ta0 1.963990 1_554
O12 Ta1 1.964345 1_555
O12 Sr2 2.742890 1_655
O12 Sr2 2.742956 1_555
O13 Ta1 1.963988 1_555
O13 Ta0 1.964335 1_555
O13 Sr3 2.742895 1_655
O13 Sr3 2.743114 1_555
