# generated using pymatgen
data_Mn4Cr(GaCo2)5
_symmetry_space_group_name_H-M   'P 1'
_cell_length_a   16.67475323
_cell_length_b   16.67475323
_cell_length_c   16.67475261
_cell_angle_alpha   13.92934787
_cell_angle_beta   13.92934787
_cell_angle_gamma   13.92934404
_symmetry_Int_Tables_number   1
_chemical_formula_structural   Mn4Cr(GaCo2)5
_chemical_formula_sum   'Mn4 Cr1 Ga5 Co10'
_cell_volume   233.82215226
_cell_formula_units_Z   1
loop_
 _symmetry_equiv_pos_site_id
 _symmetry_equiv_pos_as_xyz
  1  'x, y, z'
loop_
 _atom_site_type_symbol
 _atom_site_label
 _atom_site_symmetry_multiplicity
 _atom_site_fract_x
 _atom_site_fract_y
 _atom_site_fract_z
 _atom_site_occupancy
  Mn  Mn0  1  0.59973600  0.59973600  0.59973600  1
  Mn  Mn1  1  0.19995200  0.19995200  0.19995200  1
  Mn  Mn2  1  0.80004800  0.80004800  0.80004800  1
  Mn  Mn3  1  0.40026400  0.40026400  0.40026400  1
  Cr  Cr0  1  0.00000000  0.00000000  0.00000000  1
  Ga  Ga0  1  0.69992400  0.69992400  0.69992400  1
  Ga  Ga1  1  0.50000000  0.50000000  0.50000000  1
  Ga  Ga2  1  0.10012600  0.10012600  0.10012600  1
  Ga  Ga3  1  0.30007600  0.30007600  0.30007600  1
  Ga  Ga4  1  0.89987400  0.89987400  0.89987400  1
  Co  Co0  1  0.04963400  0.04963400  0.04963400  1
  Co  Co1  1  0.84996300  0.84996300  0.84996300  1
  Co  Co2  1  0.44999000  0.44999000  0.44999000  1
  Co  Co3  1  0.65004100  0.65004100  0.65004100  1
  Co  Co4  1  0.24999900  0.24999900  0.24999900  1
  Co  Co5  1  0.34995900  0.34995900  0.34995900  1
  Co  Co6  1  0.15003700  0.15003700  0.15003700  1
  Co  Co7  1  0.75000100  0.75000100  0.75000100  1
  Co  Co8  1  0.95036600  0.95036600  0.95036600  1
  Co  Co9  1  0.55001000  0.55001000  0.55001000  1
loop_
_geom_bond_atom_site_label_1
_geom_bond_atom_site_label_2
_geom_bond_distance
_geom_bond_site_symmetry_2
Ga1 Mn1 2.858162 1_565
Ga1 Mn1 2.858162 1_655
Ga1 Mn2 2.858162 1_545
Ga1 Mn2 2.858162 1_455
Ga1 Mn1 2.858162 1_556
Ga1 Mn2 2.858162 1_554
Ga2 Mn3 2.855593 1_455
Ga2 Mn3 2.855593 1_545
Ga2 Mn3 2.855593 1_554
Ga2 Mn2 2.857305 1_544
Ga2 Mn2 2.857305 1_454
Ga2 Mn2 2.857305 1_445
Ga4 Mn0 2.855593 1_565
Ga4 Mn0 2.855593 1_655
Ga4 Mn0 2.855593 1_556
Ga4 Mn1 2.857305 1_656
Ga4 Mn1 2.857305 1_566
Ga4 Mn1 2.857305 1_665
Co0 Cr0 2.458446 1_555
Co0 Ga0 2.471629 1_544
Co0 Ga0 2.471629 1_454
Co0 Ga0 2.471630 1_445
Co0 Mn3 2.486957 1_545
Co0 Mn3 2.486957 1_455
Co0 Mn3 2.486957 1_554
Co0 Ga2 2.500944 1_555
Co1 Ga4 2.472166 1_555
Co1 Mn2 2.472364 1_555
Co1 Ga1 2.475770 1_565
Co1 Ga1 2.475770 1_655
Co1 Ga1 2.475771 1_556
Co1 Mn1 2.476199 1_656
Co1 Mn1 2.476199 1_566
Co1 Mn1 2.476199 1_665
Co2 Mn3 2.463003 1_555
Co2 Ga2 2.474143 1_565
Co2 Ga2 2.474143 1_655
Co2 Ga2 2.474143 1_556
Co2 Ga1 2.477069 1_555
Co2 Mn2 2.477339 1_455
Co2 Mn2 2.477339 1_545
Co2 Mn2 2.477340 1_554
Co3 Ga0 2.470779 1_555
Co3 Cr0 2.475704 1_656
Co3 Cr0 2.475704 1_566
Co3 Cr0 2.475705 1_665
Co3 Ga3 2.475803 1_565
Co3 Ga3 2.475803 1_655
Co3 Ga3 2.475804 1_556
Co3 Mn0 2.491681 1_555
Co4 Mn0 2.472068 1_545
Co4 Mn0 2.472068 1_455
Co4 Mn0 2.472069 1_554
Co4 Ga4 2.478451 1_454
Co4 Ga4 2.478451 1_544
Co4 Ga4 2.478452 1_445
Co4 Mn1 2.478902 1_555
Co4 Ga3 2.480388 1_555
Co5 Ga3 2.470779 1_555
Co5 Cr0 2.475704 1_565
Co5 Cr0 2.475704 1_655
Co5 Cr0 2.475705 1_556
Co5 Ga0 2.475803 1_545
Co5 Ga0 2.475803 1_455
Co5 Ga0 2.475804 1_554
Co5 Mn3 2.491681 1_555
Co6 Ga2 2.472166 1_555
Co6 Mn1 2.472364 1_555
Co6 Ga1 2.475770 1_455
Co6 Ga1 2.475770 1_545
Co6 Ga1 2.475771 1_554
Co6 Mn2 2.476199 1_544
Co6 Mn2 2.476199 1_454
Co6 Mn2 2.476199 1_445
Co7 Mn3 2.472068 1_655
Co7 Mn3 2.472068 1_565
Co7 Mn3 2.472069 1_556
Co7 Ga2 2.478451 1_656
Co7 Ga2 2.478451 1_566
Co7 Ga2 2.478452 1_665
Co7 Mn2 2.478902 1_555
Co7 Ga0 2.480388 1_555
Co8 Cr0 2.458446 1_666
Co8 Ga3 2.471629 1_656
Co8 Ga3 2.471629 1_566
Co8 Ga3 2.471630 1_665
Co8 Mn0 2.486957 1_565
Co8 Mn0 2.486957 1_655
Co8 Mn0 2.486957 1_556
Co8 Ga4 2.500944 1_555
Co9 Mn0 2.463003 1_555
Co9 Ga4 2.474143 1_455
Co9 Ga4 2.474143 1_545
Co9 Ga4 2.474143 1_554
Co9 Ga1 2.477069 1_555
Co9 Mn1 2.477339 1_655
Co9 Mn1 2.477339 1_565
Co9 Mn1 2.477340 1_556
