# generated using pymatgen
data_MgSb2
_symmetry_space_group_name_H-M   'P 1'
_cell_length_a   17.51519792
_cell_length_b   17.51519792
_cell_length_c   10.86365800
_cell_angle_alpha   90.00000000
_cell_angle_beta   90.00000000
_cell_angle_gamma   158.25552432
_symmetry_Int_Tables_number   1
_chemical_formula_structural   MgSb2
_chemical_formula_sum   'Mg16 Sb32'
_cell_volume   1234.68663137
_cell_formula_units_Z   16
loop_
 _symmetry_equiv_pos_site_id
 _symmetry_equiv_pos_as_xyz
  1  'x, y, z'
loop_
 _atom_site_type_symbol
 _atom_site_label
 _atom_site_symmetry_multiplicity
 _atom_site_fract_x
 _atom_site_fract_y
 _atom_site_fract_z
 _atom_site_occupancy
  Mg  Mg0_0  1  0.05455300  0.44544700  0.25000000  1
  Mg  Mg0_1  1  0.05455300  0.44544700  0.75000000  1
  Mg  Mg0_2  1  0.05455300  0.94544700  0.25000000  1
  Mg  Mg0_3  1  0.05455300  0.94544700  0.75000000  1
  Mg  Mg0_4  1  0.55455300  0.44544700  0.25000000  1
  Mg  Mg0_5  1  0.55455300  0.44544700  0.75000000  1
  Mg  Mg0_6  1  0.55455300  0.94544700  0.25000000  1
  Mg  Mg0_7  1  0.55455300  0.94544700  0.75000000  1
  Mg  Mg1_0  1  0.39120750  0.10879250  0.25000000  1
  Mg  Mg1_1  1  0.39120750  0.10879250  0.75000000  1
  Mg  Mg1_2  1  0.39120750  0.60879250  0.25000000  1
  Mg  Mg1_3  1  0.39120750  0.60879250  0.75000000  1
  Mg  Mg1_4  1  0.89120750  0.10879250  0.25000000  1
  Mg  Mg1_5  1  0.89120750  0.10879250  0.75000000  1
  Mg  Mg1_6  1  0.89120750  0.60879250  0.25000000  1
  Mg  Mg1_7  1  0.89120750  0.60879250  0.75000000  1
  Sb  Sb0_0  1  0.00096550  0.49903450  0.00000000  1
  Sb  Sb0_1  1  0.00096550  0.49903450  0.50000000  1
  Sb  Sb0_2  1  0.00096550  0.99903450  0.00000000  1
  Sb  Sb0_3  1  0.00096550  0.99903450  0.50000000  1
  Sb  Sb0_4  1  0.50096550  0.49903450  0.00000000  1
  Sb  Sb0_5  1  0.50096550  0.49903450  0.50000000  1
  Sb  Sb0_6  1  0.50096550  0.99903450  0.00000000  1
  Sb  Sb0_7  1  0.50096550  0.99903450  0.50000000  1
  Sb  Sb1_0  1  0.16399350  0.33600650  0.00000000  1
  Sb  Sb1_1  1  0.16399350  0.33600650  0.50000000  1
  Sb  Sb1_2  1  0.16399350  0.83600650  0.00000000  1
  Sb  Sb1_3  1  0.16399350  0.83600650  0.50000000  1
  Sb  Sb1_4  1  0.66399350  0.33600650  0.00000000  1
  Sb  Sb1_5  1  0.66399350  0.33600650  0.50000000  1
  Sb  Sb1_6  1  0.66399350  0.83600650  0.00000000  1
  Sb  Sb1_7  1  0.66399350  0.83600650  0.50000000  1
  Sb  Sb2_0  1  0.33005400  0.16994600  0.00000000  1
  Sb  Sb2_1  1  0.33005400  0.16994600  0.50000000  1
  Sb  Sb2_2  1  0.33005400  0.66994600  0.00000000  1
  Sb  Sb2_3  1  0.33005400  0.66994600  0.50000000  1
  Sb  Sb2_4  1  0.83005400  0.16994600  0.00000000  1
  Sb  Sb2_5  1  0.83005400  0.16994600  0.50000000  1
  Sb  Sb2_6  1  0.83005400  0.66994600  0.00000000  1
  Sb  Sb2_7  1  0.83005400  0.66994600  0.50000000  1
  Sb  Sb3_0  1  0.22589300  0.27410700  0.25000000  1
  Sb  Sb3_1  1  0.22589300  0.27410700  0.75000000  1
  Sb  Sb3_2  1  0.22589300  0.77410700  0.25000000  1
  Sb  Sb3_3  1  0.22589300  0.77410700  0.75000000  1
  Sb  Sb3_4  1  0.72589300  0.27410700  0.25000000  1
  Sb  Sb3_5  1  0.72589300  0.27410700  0.75000000  1
  Sb  Sb3_6  1  0.72589300  0.77410700  0.25000000  1
  Sb  Sb3_7  1  0.72589300  0.77410700  0.75000000  1
loop_
_geom_bond_atom_site_label_1
_geom_bond_atom_site_label_2
_geom_bond_distance
_geom_bond_site_symmetry_2
Mg0_0 Sb3_2 3.170367 1_555
Mg0_0 Sb3_4 3.170367 1_455
Mg0_0 Sb0_1 3.282479 1_555
Mg0_0 Sb0_0 3.282479 1_555
Mg0_0 Sb2_3 3.297640 1_555
Mg0_0 Sb2_2 3.297640 1_555
Mg0_0 Sb2_5 3.297640 1_455
Mg0_0 Sb2_4 3.297640 1_455
Mg0_0 Mg1_2 3.408124 1_555
Mg0_0 Mg1_4 3.408124 1_455
Mg0_1 Sb3_3 3.170367 1_555
Mg0_1 Sb3_5 3.170367 1_455
Mg0_1 Sb0_0 3.282479 1_556
Mg0_1 Sb0_1 3.282479 1_555
Mg0_1 Sb2_2 3.297640 1_556
Mg0_1 Sb2_3 3.297640 1_555
Mg0_1 Sb2_4 3.297640 1_456
Mg0_1 Sb2_5 3.297640 1_455
Mg0_1 Mg1_3 3.408124 1_555
Mg0_1 Mg1_5 3.408124 1_455
Mg0_2 Sb3_0 3.170367 1_565
Mg0_2 Sb3_6 3.170367 1_455
Mg0_2 Sb0_2 3.282479 1_555
Mg0_2 Sb0_3 3.282479 1_555
Mg0_2 Sb2_6 3.297640 1_455
Mg0_2 Sb2_0 3.297640 1_565
Mg0_2 Sb2_1 3.297640 1_565
Mg0_2 Sb2_7 3.297640 1_455
Mg0_2 Mg1_0 3.408124 1_565
Mg0_2 Mg1_6 3.408124 1_455
Mg0_3 Sb3_1 3.170367 1_565
Mg0_3 Sb3_7 3.170367 1_455
Mg0_3 Sb0_2 3.282479 1_556
Mg0_3 Sb0_3 3.282479 1_555
Mg0_3 Sb2_0 3.297640 1_566
Mg0_3 Sb2_6 3.297640 1_456
Mg0_3 Sb2_1 3.297640 1_565
Mg0_3 Sb2_7 3.297640 1_455
Mg0_3 Mg1_1 3.408124 1_565
Mg0_3 Mg1_7 3.408124 1_455
Mg0_4 Sb3_6 3.170367 1_555
Mg0_4 Sb3_0 3.170367 1_555
Mg0_4 Sb0_4 3.282479 1_555
Mg0_4 Sb0_5 3.282479 1_555
Mg0_4 Sb2_7 3.297640 1_555
Mg0_4 Sb2_6 3.297640 1_555
Mg0_4 Sb2_0 3.297640 1_555
Mg0_4 Sb2_1 3.297640 1_555
Mg0_4 Mg1_0 3.408124 1_555
Mg0_4 Mg1_6 3.408124 1_555
Mg0_5 Sb3_7 3.170367 1_555
Mg0_5 Sb3_1 3.170367 1_555
Mg0_5 Sb0_4 3.282479 1_556
Mg0_5 Sb0_5 3.282479 1_555
Mg0_5 Sb2_7 3.297640 1_555
Mg0_5 Sb2_6 3.297640 1_556
Mg0_5 Sb2_0 3.297640 1_556
Mg0_5 Sb2_1 3.297640 1_555
Mg0_5 Mg1_1 3.408124 1_555
Mg0_5 Mg1_7 3.408124 1_555
Mg0_6 Sb3_4 3.170367 1_565
Mg0_6 Sb3_2 3.170367 1_555
Mg0_6 Sb0_6 3.282479 1_555
Mg0_6 Sb0_7 3.282479 1_555
Mg0_6 Sb2_3 3.297640 1_555
Mg0_6 Sb2_2 3.297640 1_555
Mg0_6 Sb2_5 3.297640 1_565
Mg0_6 Sb2_4 3.297640 1_565
Mg0_6 Mg1_2 3.408124 1_555
Mg0_6 Mg1_4 3.408124 1_565
Mg0_7 Sb3_5 3.170367 1_565
Mg0_7 Sb3_3 3.170367 1_555
Mg0_7 Sb0_6 3.282479 1_556
Mg0_7 Sb0_7 3.282479 1_555
Mg0_7 Sb2_2 3.297640 1_556
Mg0_7 Sb2_3 3.297640 1_555
Mg0_7 Sb2_4 3.297640 1_566
Mg0_7 Sb2_5 3.297640 1_565
Mg0_7 Mg1_3 3.408124 1_555
Mg0_7 Mg1_5 3.408124 1_565
Mg1_0 Sb1_4 3.274031 1_555
Mg1_0 Sb1_5 3.274031 1_555
Mg1_0 Sb1_2 3.274031 1_545
Mg1_0 Sb1_3 3.274031 1_545
Mg1_0 Mg1_6 3.303710 1_555
Mg1_0 Mg1_6 3.303710 1_445
Mg1_0 Sb3_4 3.349036 1_555
Mg1_0 Sb3_2 3.349036 1_545
Mg1_0 Sb2_1 3.435415 1_555
Mg1_0 Sb2_0 3.435415 1_555
Mg1_1 Sb1_2 3.274031 1_546
Mg1_1 Sb1_5 3.274031 1_555
Mg1_1 Sb1_3 3.274031 1_545
Mg1_1 Sb1_4 3.274031 1_556
Mg1_1 Mg1_7 3.303710 1_555
Mg1_1 Mg1_7 3.303710 1_445
Mg1_1 Sb3_5 3.349036 1_555
Mg1_1 Sb3_3 3.349036 1_545
Mg1_1 Sb2_1 3.435415 1_555
Mg1_1 Sb2_0 3.435415 1_556
Mg1_2 Sb1_1 3.274031 1_555
Mg1_2 Sb1_6 3.274031 1_555
Mg1_2 Sb1_0 3.274031 1_555
Mg1_2 Sb1_7 3.274031 1_555
Mg1_2 Mg1_4 3.303710 1_455
Mg1_2 Mg1_4 3.303710 1_565
Mg1_2 Sb3_6 3.349036 1_555
Mg1_2 Sb3_0 3.349036 1_555
Mg1_2 Sb2_2 3.435415 1_555
Mg1_2 Sb2_3 3.435415 1_555
Mg1_3 Sb1_1 3.274031 1_555
Mg1_3 Sb1_6 3.274031 1_556
Mg1_3 Sb1_0 3.274031 1_556
Mg1_3 Sb1_7 3.274031 1_555
Mg1_3 Mg1_5 3.303710 1_455
Mg1_3 Mg1_5 3.303710 1_565
Mg1_3 Sb3_7 3.349036 1_555
Mg1_3 Sb3_1 3.349036 1_555
Mg1_3 Sb2_2 3.435415 1_556
Mg1_3 Sb2_3 3.435415 1_555
Mg1_4 Sb1_0 3.274031 1_655
Mg1_4 Sb1_1 3.274031 1_655
Mg1_4 Sb1_7 3.274031 1_545
Mg1_4 Sb1_6 3.274031 1_545
Mg1_4 Sb3_6 3.349036 1_545
Mg1_4 Sb3_0 3.349036 1_655
Mg1_4 Sb2_4 3.435415 1_555
Mg1_4 Sb2_5 3.435415 1_555
Mg1_5 Sb1_0 3.274031 1_656
Mg1_5 Sb1_1 3.274031 1_655
Mg1_5 Sb1_7 3.274031 1_545
Mg1_5 Sb1_6 3.274031 1_546
Mg1_5 Sb3_7 3.349036 1_545
Mg1_5 Sb3_1 3.349036 1_655
Mg1_5 Sb2_4 3.435415 1_556
Mg1_5 Sb2_5 3.435415 1_555
Mg1_6 Sb1_2 3.274031 1_655
Mg1_6 Sb1_3 3.274031 1_655
Mg1_6 Sb1_4 3.274031 1_555
Mg1_6 Sb1_5 3.274031 1_555
Mg1_6 Sb3_2 3.349036 1_655
Mg1_6 Sb3_4 3.349036 1_555
Mg1_6 Sb2_7 3.435415 1_555
Mg1_6 Sb2_6 3.435415 1_555
Mg1_7 Sb1_2 3.274031 1_656
Mg1_7 Sb1_3 3.274031 1_655
Mg1_7 Sb1_4 3.274031 1_556
Mg1_7 Sb1_5 3.274031 1_555
Mg1_7 Sb3_3 3.349036 1_655
Mg1_7 Sb3_5 3.349036 1_555
Mg1_7 Sb2_7 3.435415 1_555
Mg1_7 Sb2_6 3.435415 1_556
Sb0_0 Sb2_2 3.182958 1_555
Sb0_0 Sb2_4 3.182958 1_455
Sb0_1 Sb2_3 3.182958 1_555
Sb0_1 Sb2_5 3.182958 1_455
Sb0_2 Sb2_6 3.182958 1_455
Sb0_2 Sb2_0 3.182958 1_565
Sb0_3 Sb2_7 3.182958 1_455
Sb0_3 Sb2_1 3.182958 1_565
Sb0_4 Sb2_6 3.182958 1_555
Sb0_4 Sb2_0 3.182958 1_555
Sb0_5 Sb2_7 3.182958 1_555
Sb0_5 Sb2_1 3.182958 1_555
Sb0_6 Sb2_2 3.182958 1_555
Sb0_6 Sb2_4 3.182958 1_565
Sb0_7 Sb2_3 3.182958 1_555
Sb0_7 Sb2_5 3.182958 1_565
Sb1_0 Sb2_4 3.326736 1_455
Sb1_0 Sb2_2 3.326736 1_555
Sb1_1 Sb2_5 3.326736 1_455
Sb1_1 Sb2_3 3.326736 1_555
Sb1_2 Sb2_0 3.326736 1_565
Sb1_2 Sb2_6 3.326736 1_455
Sb1_3 Sb2_1 3.326736 1_565
Sb1_3 Sb2_7 3.326736 1_455
Sb1_4 Sb2_0 3.326736 1_555
Sb1_4 Sb2_6 3.326736 1_555
Sb1_5 Sb2_1 3.326736 1_555
Sb1_5 Sb2_7 3.326736 1_555
Sb1_6 Sb2_4 3.326736 1_565
Sb1_6 Sb2_2 3.326736 1_555
Sb1_7 Sb2_5 3.326736 1_565
Sb1_7 Sb2_3 3.326736 1_555
Sb2_0 Sb2_6 3.303710 1_555
Sb2_0 Sb2_6 3.303710 1_445
Sb2_1 Sb2_7 3.303710 1_555
Sb2_1 Sb2_7 3.303710 1_445
Sb2_2 Sb2_4 3.303710 1_565
Sb2_2 Sb2_4 3.303710 1_455
Sb2_3 Sb2_5 3.303710 1_565
Sb2_3 Sb2_5 3.303710 1_455
