# generated using pymatgen
data_Nb5Ga3
_symmetry_space_group_name_H-M   'P 1'
_cell_length_a   7.79464561
_cell_length_b   7.79464561
_cell_length_c   5.30021300
_cell_angle_alpha   90.00000000
_cell_angle_beta   90.00000000
_cell_angle_gamma   119.99999670
_symmetry_Int_Tables_number   1
_chemical_formula_structural   Nb5Ga3
_chemical_formula_sum   'Nb10 Ga6'
_cell_volume   278.87958150
_cell_formula_units_Z   2
loop_
 _symmetry_equiv_pos_site_id
 _symmetry_equiv_pos_as_xyz
  1  'x, y, z'
loop_
 _atom_site_type_symbol
 _atom_site_label
 _atom_site_symmetry_multiplicity
 _atom_site_fract_x
 _atom_site_fract_y
 _atom_site_fract_z
 _atom_site_occupancy
  Nb  Nb0  1  0.66666700  0.33333300  0.00000000  1
  Nb  Nb1  1  0.33333300  0.66666700  0.00000000  1
  Nb  Nb2  1  0.33333300  0.66666700  0.50000000  1
  Nb  Nb3  1  0.66666700  0.33333300  0.50000000  1
  Nb  Nb4  1  0.75552100  0.75552100  0.75000000  1
  Nb  Nb5  1  0.24447900  0.00000000  0.75000000  1
  Nb  Nb6  1  0.00000000  0.24447900  0.75000000  1
  Nb  Nb7  1  0.24447900  0.24447900  0.25000000  1
  Nb  Nb8  1  0.75552100  0.00000000  0.25000000  1
  Nb  Nb9  1  0.00000000  0.75552100  0.25000000  1
  Ga  Ga0  1  0.39538100  0.39538100  0.75000000  1
  Ga  Ga1  1  0.60461900  0.00000000  0.75000000  1
  Ga  Ga2  1  0.00000000  0.60461900  0.75000000  1
  Ga  Ga3  1  0.60461900  0.60461900  0.25000000  1
  Ga  Ga4  1  0.39538100  0.00000000  0.25000000  1
  Ga  Ga5  1  0.00000000  0.39538100  0.25000000  1
loop_
_geom_bond_atom_site_label_1
_geom_bond_atom_site_label_2
_geom_bond_distance
_geom_bond_site_symmetry_2
Nb0 Nb3 2.650107 1_555
Nb0 Nb3 2.650107 1_554
Nb0 Nb8 3.284149 1_555
Nb0 Nb6 3.284149 1_654
Nb0 Nb9 3.284154 1_655
Nb0 Nb5 3.284154 1_554
Nb0 Nb7 3.284156 1_555
Nb0 Nb4 3.284156 1_554
Nb1 Nb2 2.650107 1_555
Nb1 Nb2 2.650107 1_554
Nb1 Nb9 3.284149 1_555
Nb1 Nb5 3.284149 1_564
Nb1 Nb6 3.284154 1_554
Nb1 Nb8 3.284154 1_565
Nb1 Nb7 3.284156 1_555
Nb1 Nb4 3.284156 1_554
Nb2 Nb9 3.284149 1_555
Nb2 Nb5 3.284149 1_565
Nb2 Nb6 3.284154 1_555
Nb2 Nb8 3.284154 1_565
Nb2 Nb7 3.284156 1_555
Nb2 Nb4 3.284156 1_555
Nb3 Nb8 3.284149 1_555
Nb3 Nb6 3.284149 1_655
Nb3 Nb5 3.284154 1_555
Nb3 Nb9 3.284154 1_655
Nb3 Nb7 3.284156 1_555
Nb3 Nb4 3.284156 1_555
Nb4 Nb9 3.264120 1_656
Nb4 Nb8 3.264120 1_566
Nb4 Nb9 3.264120 1_655
Nb4 Nb8 3.264120 1_565
Nb4 Nb6 3.300643 1_665
Nb4 Nb5 3.300643 1_665
Nb5 Nb7 3.264120 1_555
Nb5 Nb7 3.264120 1_556
Nb5 Nb9 3.264120 1_545
Nb5 Nb9 3.264120 1_546
Nb5 Nb6 3.300643 1_555
Nb6 Nb7 3.264120 1_555
Nb6 Nb7 3.264120 1_556
Nb6 Nb8 3.264120 1_456
Nb6 Nb8 3.264120 1_455
Nb7 Nb9 3.300643 1_545
Nb7 Nb8 3.300643 1_455
Nb8 Nb9 3.300643 1_645
Ga0 Nb5 2.693766 1_555
Ga0 Nb6 2.693766 1_555
Ga0 Nb2 2.735656 1_555
Ga0 Nb3 2.735656 1_555
Ga0 Nb0 2.735656 1_556
Ga0 Nb1 2.735656 1_556
Ga0 Nb4 2.807164 1_555
Ga0 Nb7 2.899410 1_555
Ga0 Nb7 2.899410 1_556
Ga1 Nb4 2.693766 1_545
Ga1 Nb6 2.693767 1_655
Ga1 Nb3 2.735650 1_555
Ga1 Nb0 2.735650 1_556
Ga1 Nb1 2.735652 1_546
Ga1 Nb2 2.735652 1_545
Ga1 Nb5 2.807164 1_555
Ga1 Nb8 2.899410 1_555
Ga1 Nb8 2.899410 1_556
Ga2 Nb4 2.693766 1_455
Ga2 Nb5 2.693767 1_565
Ga2 Nb1 2.735650 1_556
Ga2 Nb2 2.735650 1_555
Ga2 Nb3 2.735652 1_455
Ga2 Nb0 2.735652 1_456
Ga2 Nb6 2.807164 1_555
Ga2 Nb9 2.899410 1_556
Ga2 Nb9 2.899410 1_555
Ga3 Nb8 2.693766 1_565
Ga3 Nb9 2.693766 1_655
Ga3 Nb2 2.735656 1_555
Ga3 Nb3 2.735656 1_555
Ga3 Nb0 2.735656 1_555
Ga3 Nb1 2.735656 1_555
Ga3 Nb7 2.807164 1_555
Ga3 Nb4 2.899410 1_554
Ga3 Nb4 2.899410 1_555
Ga4 Nb7 2.693766 1_555
Ga4 Nb9 2.693767 1_545
Ga4 Nb1 2.735650 1_545
Ga4 Nb2 2.735650 1_545
Ga4 Nb3 2.735652 1_555
Ga4 Nb0 2.735652 1_555
Ga4 Nb8 2.807164 1_555
Ga4 Nb5 2.899410 1_555
Ga4 Nb5 2.899410 1_554
Ga5 Nb7 2.693766 1_555
Ga5 Nb8 2.693767 1_455
Ga5 Nb0 2.735650 1_455
Ga5 Nb3 2.735650 1_455
Ga5 Nb1 2.735652 1_555
Ga5 Nb2 2.735652 1_555
Ga5 Nb9 2.807164 1_555
Ga5 Nb6 2.899410 1_554
Ga5 Nb6 2.899410 1_555
