# generated using pymatgen
data_Ba8Si43Au3
_symmetry_space_group_name_H-M   'P 1'
_cell_length_a   10.41839406
_cell_length_b   10.41839728
_cell_length_c   10.41840200
_cell_angle_alpha   90.04282190
_cell_angle_beta   90.04281391
_cell_angle_gamma   90.04284543
_symmetry_Int_Tables_number   1
_chemical_formula_structural   Ba8Si43Au3
_chemical_formula_sum   'Ba8 Si43 Au3'
_cell_volume   1130.84332986
_cell_formula_units_Z   1
loop_
 _symmetry_equiv_pos_site_id
 _symmetry_equiv_pos_as_xyz
  1  'x, y, z'
loop_
 _atom_site_type_symbol
 _atom_site_label
 _atom_site_symmetry_multiplicity
 _atom_site_fract_x
 _atom_site_fract_y
 _atom_site_fract_z
 _atom_site_occupancy
  Ba  Ba0  1  0.25049361  0.25048098  0.25047701  1
  Ba  Ba1  1  0.74950682  0.74951991  0.74952217  1
  Ba  Ba2  1  0.49999705  0.73865549  0.26133933  1
  Ba  Ba3  1  0.73863706  0.26134420  0.49999620  1
  Ba  Ba4  1  0.26136217  0.50000540  0.73865965  1
  Ba  Ba5  1  0.00000251  0.73867282  0.26132357  1
  Ba  Ba6  1  0.73865424  0.26132979  0.00000259  1
  Ba  Ba7  1  0.26134485  0.99999618  0.73867400  1
  Si  Si0  1  0.43347317  0.43347257  0.43347001  1
  Si  Si1  1  0.06421944  0.06421495  0.06421830  1
  Si  Si2  1  0.06349279  0.43269915  0.06314064  1
  Si  Si3  1  0.43407296  0.06325107  0.43269996  1
  Si  Si4  1  0.43269827  0.06313714  0.06349096  1
  Si  Si5  1  0.06325530  0.43270318  0.43406876  1
  Si  Si6  1  0.06314214  0.06348822  0.43269451  1
  Si  Si7  1  0.43270265  0.43407359  0.06325342  1
  Si  Si8  1  0.56729631  0.93674538  0.56592767  1
  Si  Si9  1  0.93685980  0.56730596  0.93651186  1
  Si  Si10  1  0.93578210  0.93578054  0.93578492  1
  Si  Si11  1  0.56652660  0.56652967  0.56652828  1
  Si  Si12  1  0.93674583  0.56593103  0.56729745  1
  Si  Si13  1  0.56730104  0.93650809  0.93686289  1
  Si  Si14  1  0.56592604  0.56729985  0.93674896  1
  Si  Si15  1  0.93650887  0.93685881  0.56730182  1
  Si  Si16  1  0.24844025  0.55373659  0.36954839  1
  Si  Si17  1  0.55373430  0.36955400  0.24843451  1
  Si  Si18  1  0.36955583  0.24843574  0.55373313  1
  Si  Si19  1  0.24801223  0.94229938  0.13142064  1
  Si  Si20  1  0.94230203  0.13141914  0.24800577  1
  Si  Si21  1  0.13142487  0.24800549  0.94230432  1
  Si  Si22  1  0.24843488  0.55417300  0.12971354  1
  Si  Si23  1  0.94339121  0.36694830  0.24836017  1
  Si  Si24  1  0.24836579  0.94339005  0.36694251  1
  Si  Si25  1  0.55417032  0.12971125  0.24842978  1
  Si  Si26  1  0.36694720  0.24836113  0.94339566  1
  Si  Si27  1  0.12971805  0.24843122  0.55416956  1
  Si  Si28  1  0.63305039  0.05660589  0.75163985  1
  Si  Si29  1  0.75156535  0.87028502  0.44582745  1
  Si  Si30  1  0.44626468  0.75156420  0.63044713  1
  Si  Si31  1  0.87028303  0.44583060  0.75156983  1
  Si  Si32  1  0.75163504  0.63305671  0.05660900  1
  Si  Si33  1  0.05770143  0.75199209  0.86858119  1
  Si  Si34  1  0.86857591  0.05769574  0.75199525  1
  Si  Si35  1  0.75198864  0.86857812  0.05769965  1
  Si  Si36  1  0.63044261  0.44626404  0.75156577  1
  Si  Si37  1  0.75155998  0.63045050  0.44626276  1
  Si  Si38  1  0.05661029  0.75163860  0.63305292  1
  Si  Si39  1  0.44582906  0.75156950  0.87028906  1
  Si  Si40  1  0.00000114  0.25098471  0.74901672  1
  Si  Si41  1  0.25099156  0.74901545  0.00000262  1
  Si  Si42  1  0.74901073  0.99999696  0.25098332  1
  Au  Au0  1  0.49999321  0.25066105  0.74934507  1
  Au  Au1  1  0.25067154  0.74933731  0.49999670  1
  Au  Au2  1  0.74932883  0.50000422  0.25066080  1
loop_
_geom_bond_atom_site_label_1
_geom_bond_atom_site_label_2
_geom_bond_distance
_geom_bond_site_symmetry_2
Ba0 Si0 3.299586 1_555
Ba0 Si7 3.327555 1_555
Ba0 Si3 3.327598 1_555
Ba0 Si5 3.327719 1_555
Ba0 Si4 3.348662 1_555
Ba0 Si2 3.348787 1_555
Ba0 Si6 3.348824 1_555
Ba0 Si1 3.358698 1_555
Ba0 Si17 3.393339 1_555
Ba0 Si18 3.393451 1_555
Ba0 Si16 3.393480 1_555
Ba0 Si25 3.405787 1_555
Ba0 Si22 3.405912 1_555
Ba0 Si27 3.405964 1_555
Ba0 Si26 3.422532 1_554
Ba0 Si24 3.422669 1_545
Ba0 Si23 3.422786 1_455
Ba0 Si21 3.441188 1_554
Ba0 Si19 3.441228 1_545
Ba0 Si20 3.441343 1_455
Ba1 Si11 3.299587 1_555
Ba1 Si14 3.327569 1_555
Ba1 Si8 3.327588 1_555
Ba1 Si12 3.327721 1_555
Ba1 Si13 3.348663 1_555
Ba1 Si9 3.348795 1_555
Ba1 Si15 3.348821 1_555
Ba1 Si10 3.358697 1_555
Ba1 Si30 3.393362 1_555
Ba1 Si36 3.393454 1_555
Ba1 Si37 3.393511 1_555
Ba1 Si39 3.405786 1_555
Ba1 Si31 3.405935 1_555
Ba1 Si29 3.405946 1_555
Ba1 Si28 3.422586 1_565
Ba1 Si32 3.422621 1_556
Ba1 Si38 3.422803 1_655
Ba1 Si35 3.441196 1_556
Ba1 Si34 3.441218 1_565
Ba1 Si33 3.441363 1_655
Ba2 Si16 3.442583 1_555
Ba2 Si37 3.442646 1_555
Ba2 Si22 3.525168 1_555
Ba2 Si29 3.525263 1_555
Ba2 Si24 3.555574 1_555
Ba2 Si32 3.555586 1_555
Ba2 Si19 3.637698 1_555
Ba2 Si35 3.637737 1_555
Ba2 Si0 3.716555 1_555
Ba2 Si11 3.716597 1_555
Ba2 Si41 3.761007 1_555
Ba2 Si42 3.761098 1_555
Ba2 Si7 3.847704 1_555
Ba2 Si8 3.847792 1_555
Ba2 Si14 3.884737 1_554
Ba2 Si3 3.884798 1_565
Ba3 Si17 3.442532 1_555
Ba3 Si36 3.442642 1_555
Ba3 Si25 3.525142 1_555
Ba3 Si31 3.525362 1_555
Ba3 Si28 3.555640 1_555
Ba3 Si23 3.555736 1_555
Ba3 Si20 3.637893 1_555
Ba3 Si34 3.637912 1_555
Ba3 Si0 3.716378 1_555
Ba3 Si11 3.716492 1_555
Ba3 Si42 3.761144 1_545
Ba3 Si40 3.761321 1_655
Ba3 Si3 3.847594 1_555
Ba3 Si12 3.847886 1_555
Ba3 Si8 3.884745 1_545
Ba3 Si5 3.885000 1_655
Ba4 Si30 3.442516 1_555
Ba4 Si18 3.442679 1_555
Ba4 Si39 3.525110 1_555
Ba4 Si27 3.525379 1_555
Ba4 Si26 3.555626 1_555
Ba4 Si38 3.555710 1_555
Ba4 Si33 3.637825 1_555
Ba4 Si21 3.637888 1_555
Ba4 Si11 3.716394 1_555
Ba4 Si0 3.716534 1_555
Ba4 Si41 3.761091 1_556
Ba4 Si40 3.761297 1_555
Ba4 Si14 3.847568 1_555
Ba4 Si5 3.847914 1_555
Ba4 Si7 3.884701 1_556
Ba4 Si12 3.884996 1_455
Ba5 Si16 3.418977 1_555
Ba5 Si37 3.419023 1_455
Ba5 Si22 3.504689 1_555
Ba5 Si29 3.504758 1_455
Ba5 Si24 3.526920 1_555
Ba5 Si32 3.526926 1_455
Ba5 Si19 3.606925 1_555
Ba5 Si35 3.606951 1_455
Ba5 Si5 3.720854 1_555
Ba5 Si12 3.720882 1_455
Ba5 Si41 3.777862 1_555
Ba5 Si42 3.777906 1_455
Ba6 Si17 3.418833 1_555
Ba6 Si36 3.418914 1_554
Ba6 Si25 3.504593 1_555
Ba6 Si31 3.504775 1_554
Ba6 Si28 3.526910 1_554
Ba6 Si23 3.527000 1_555
Ba6 Si34 3.607029 1_554
Ba6 Si20 3.607039 1_555
Ba6 Si7 3.720681 1_555
Ba6 Si14 3.720774 1_554
Ba6 Si42 3.777897 1_545
Ba6 Si40 3.778035 1_654
Ba7 Si30 3.418842 1_555
Ba7 Si18 3.418971 1_565
Ba7 Si39 3.504577 1_555
Ba7 Si27 3.504806 1_565
Ba7 Si26 3.526908 1_565
Ba7 Si38 3.526992 1_555
Ba7 Si33 3.607004 1_555
Ba7 Si21 3.607014 1_565
Ba7 Si8 3.720693 1_555
Ba7 Si3 3.720811 1_565
Ba7 Si41 3.777864 1_556
Ba7 Si40 3.778030 1_565
Si0 Si17 2.394273 1_555
Si0 Si16 2.394275 1_555
Si0 Si18 2.394291 1_555
Si0 Si11 2.399231 1_555
Si1 Si10 2.315902 1_444
Si1 Si20 2.402686 1_455
Si1 Si21 2.402696 1_554
Si1 Si19 2.402714 1_545
Si2 Si9 2.334669 1_454
Si2 Si23 2.400610 1_455
Si2 Si21 2.405852 1_554
Si2 Si22 2.405890 1_555
Si3 Si8 2.364899 1_545
Si10 Si34 2.402699 1_565
Si10 Si33 2.402704 1_655
Si10 Si35 2.402715 1_556
Si11 Si30 2.394269 1_555
Si11 Si37 2.394284 1_555
Si11 Si36 2.394307 1_555
Si12 Si5 2.364955 1_655
Si12 Si31 2.394809 1_555
Si12 Si37 2.400802 1_555
Si12 Si38 2.401101 1_655
Si13 Si4 2.334616 1_566
Si13 Si28 2.400614 1_565
Si13 Si35 2.405797 1_556
Si13 Si39 2.405854 1_555
Si14 Si7 2.364883 1_556
Si14 Si39 2.394758 1_555
Si14 Si36 2.400778 1_555
Si14 Si32 2.401094 1_556
Si15 Si6 2.334677 1_665
Si15 Si38 2.400616 1_655
Si15 Si34 2.405856 1_565
Si15 Si29 2.405908 1_555
Si16 Si5 2.400789 1_555
Si16 Si22 2.498703 1_555
Si17 Si7 2.400746 1_555
Si17 Si25 2.498785 1_555
Si18 Si3 2.400777 1_555
Si18 Si27 2.498732 1_555
Si19 Si4 2.405787 1_565
Si19 Si41 2.434469 1_555
Si19 Si24 2.453779 1_555
Si20 Si6 2.405828 1_655
Si20 Si42 2.434555 1_545
Si20 Si23 2.453854 1_555
Si21 Si40 2.434534 1_555
Si21 Si26 2.453782 1_555
Si22 Si7 2.394756 1_555
Si22 Si41 2.439609 1_555
Si23 Si5 2.401107 1_655
Si24 Si6 2.400629 1_565
Si24 Si3 2.401085 1_565
Si25 Si3 2.394765 1_555
Si25 Si4 2.405858 1_555
Si25 Si42 2.439610 1_545
Si26 Si4 2.400614 1_556
Si26 Si7 2.401107 1_556
Si27 Si5 2.394807 1_555
Si27 Si6 2.405914 1_555
Si27 Si40 2.439684 1_555
Si28 Si8 2.401116 1_545
Si28 Si34 2.453815 1_555
Si29 Si8 2.394772 1_555
Si29 Si42 2.439630 1_555
Si29 Si37 2.498699 1_555
Si30 Si8 2.400745 1_555
Si30 Si39 2.498777 1_555
Si31 Si9 2.405911 1_555
Si31 Si40 2.439680 1_655
Si31 Si36 2.498759 1_555
Si32 Si9 2.400629 1_554
Si32 Si35 2.453773 1_555
Si33 Si9 2.405813 1_455
Si33 Si41 2.434541 1_556
Si33 Si38 2.453846 1_555
Si34 Si40 2.434553 1_655
Si35 Si42 2.434471 1_555
Si39 Si41 2.439581 1_556
Au0 Si36 2.448728 1_555
Au0 Si18 2.448738 1_555
Au0 Si26 2.452221 1_555
Au0 Si28 2.452326 1_555
Au0 Ba4 3.598809 1_555
Au0 Ba3 3.598934 1_555
Au0 Ba7 3.606067 1_545
Au0 Ba6 3.606104 1_556
Au1 Si30 2.448650 1_555
Au1 Si16 2.448704 1_555
Au1 Si24 2.452288 1_555
Au1 Si38 2.452372 1_555
Au1 Ba2 3.598855 1_555
Au1 Ba4 3.598947 1_555
Au1 Ba7 3.606232 1_555
Au1 Ba5 3.606276 1_555
Au2 Si17 2.448660 1_555
Au2 Si37 2.448703 1_555
Au2 Si32 2.452271 1_555
Au2 Si23 2.452381 1_555
Au2 Ba2 3.598858 1_555
Au2 Ba3 3.598953 1_555
Au2 Ba6 3.606207 1_555
Au2 Ba5 3.606276 1_655
