# generated using pymatgen
data_LiAlNi3O5
_symmetry_space_group_name_H-M   'P 1'
_cell_length_a   7.74177180
_cell_length_b   7.74177180
_cell_length_c   5.15493436
_cell_angle_alpha   83.45678993
_cell_angle_beta   83.45678993
_cell_angle_gamma   141.69980233
_symmetry_Int_Tables_number   1
_chemical_formula_structural   LiAlNi3O5
_chemical_formula_sum   'Li2 Al2 Ni6 O10'
_cell_volume   179.56417118
_cell_formula_units_Z   2
loop_
 _symmetry_equiv_pos_site_id
 _symmetry_equiv_pos_as_xyz
  1  'x, y, z'
loop_
 _atom_site_type_symbol
 _atom_site_label
 _atom_site_symmetry_multiplicity
 _atom_site_fract_x
 _atom_site_fract_y
 _atom_site_fract_z
 _atom_site_occupancy
  Li  Li0  1  0.20028400  0.79971600  0.50000000  1
  Li  Li1  1  0.79971600  0.20028400  0.50000000  1
  Al  Al0  1  0.70149700  0.29850300  0.00000000  1
  Al  Al1  1  0.29850300  0.70149700  0.00000000  1
  Ni  Ni0  1  0.89820500  0.10179500  0.00000000  1
  Ni  Ni1  1  0.50000000  0.50000000  0.00000000  1
  Ni  Ni2  1  0.10179500  0.89820500  0.00000000  1
  Ni  Ni3  1  0.60552600  0.39447400  0.50000000  1
  Ni  Ni4  1  0.39447400  0.60552600  0.50000000  1
  Ni  Ni5  1  0.00000000  0.00000000  0.50000000  1
  O  O0  1  0.75333300  0.75333300  0.25687600  1
  O  O1  1  0.37218600  0.16117500  0.23759600  1
  O  O2  1  0.94501100  0.53479100  0.21744800  1
  O  O3  1  0.53479100  0.94501100  0.21744800  1
  O  O4  1  0.16117500  0.37218600  0.23759600  1
  O  O5  1  0.46520900  0.05498900  0.78255200  1
  O  O6  1  0.05498900  0.46520900  0.78255200  1
  O  O7  1  0.62781400  0.83882500  0.76240400  1
  O  O8  1  0.24666700  0.24666700  0.74312400  1
  O  O9  1  0.83882500  0.62781400  0.76240400  1
loop_
_geom_bond_atom_site_label_1
_geom_bond_atom_site_label_2
_geom_bond_distance
_geom_bond_site_symmetry_2
Li0 O3 2.070772 1_555
Li0 O6 2.070772 1_555
Li0 O9 2.076874 1_455
Li0 O1 2.076874 1_565
Li0 O2 2.282255 1_455
Li0 O5 2.282255 1_565
Li1 O2 2.070772 1_555
Li1 O5 2.070772 1_555
Li1 O7 2.076874 1_545
Li1 O4 2.076874 1_655
Li1 O6 2.282255 1_655
Li1 O3 2.282255 1_545
Al0 O2 1.921721 1_555
Al0 O5 1.921721 1_554
Al0 O3 1.959351 1_545
Al0 O6 1.959351 1_654
Al0 O9 1.966593 1_554
Al0 O1 1.966593 1_555
Al1 O6 1.921721 1_554
Al1 O3 1.921721 1_555
Al1 O5 1.959351 1_564
Al1 O2 1.959351 1_455
Al1 O4 1.966593 1_555
Al1 O7 1.966593 1_554
Ni0 O6 2.063156 1_654
Ni0 O3 2.063156 1_545
Ni0 O0 2.094632 1_545
Ni0 O8 2.094632 1_654
Ni0 O7 2.119069 1_544
Ni0 O4 2.119069 1_655
Ni1 O1 2.068241 1_555
Ni1 O4 2.068241 1_555
Ni1 O7 2.068241 1_554
Ni1 O9 2.068241 1_554
Ni1 O0 2.143113 1_555
Ni1 O8 2.143113 1_554
Ni2 O5 2.063156 1_564
Ni2 O2 2.063156 1_455
Ni2 O0 2.094632 1_455
Ni2 O8 2.094632 1_564
Ni2 O9 2.119069 1_454
Ni2 O1 2.119069 1_565
Ni3 O1 2.085158 1_555
Ni3 O9 2.085158 1_555
Ni3 O0 2.118600 1_555
Ni3 O8 2.118600 1_555
Ni3 O5 2.120120 1_555
Ni3 O2 2.120120 1_555
Ni4 O4 2.085158 1_555
Ni4 O7 2.085158 1_555
Ni4 O8 2.118600 1_555
Ni4 O0 2.118600 1_555
Ni4 O6 2.120120 1_555
Ni4 O3 2.120120 1_555
Ni5 O0 2.057030 1_445
Ni5 O8 2.057030 1_555
Ni5 O7 2.184731 1_445
Ni5 O1 2.184731 1_555
Ni5 O9 2.184731 1_445
Ni5 O4 2.184731 1_555
