# generated using pymatgen
data_Be3Tl2Cd2F12
_symmetry_space_group_name_H-M   'P 1'
_cell_length_a   10.65504600
_cell_length_b   10.65504600
_cell_length_c   10.65504600
_cell_angle_alpha   90.00000000
_cell_angle_beta   90.00000000
_cell_angle_gamma   90.00000000
_symmetry_Int_Tables_number   1
_chemical_formula_structural   Be3Tl2Cd2F12
_chemical_formula_sum   'Be12 Tl8 Cd8 F48'
_cell_volume   1209.66742845
_cell_formula_units_Z   4
loop_
 _symmetry_equiv_pos_site_id
 _symmetry_equiv_pos_as_xyz
  1  'x, y, z'
loop_
 _atom_site_type_symbol
 _atom_site_label
 _atom_site_symmetry_multiplicity
 _atom_site_fract_x
 _atom_site_fract_y
 _atom_site_fract_z
 _atom_site_occupancy
  Be  Be0  1  0.01746000  0.21690500  0.37561100  1
  Be  Be1  1  0.48254000  0.78309500  0.87561100  1
  Be  Be2  1  0.98254000  0.71690500  0.12438900  1
  Be  Be3  1  0.37561100  0.01746000  0.21690500  1
  Be  Be4  1  0.51746000  0.28309500  0.62438900  1
  Be  Be5  1  0.87561100  0.48254000  0.78309500  1
  Be  Be6  1  0.12438900  0.98254000  0.71690500  1
  Be  Be7  1  0.62438900  0.51746000  0.28309500  1
  Be  Be8  1  0.21690500  0.37561100  0.01746000  1
  Be  Be9  1  0.71690500  0.12438900  0.98254000  1
  Be  Be10  1  0.28309500  0.62438900  0.51746000  1
  Be  Be11  1  0.78309500  0.87561100  0.48254000  1
  Tl  Tl0  1  0.04998100  0.04998100  0.04998100  1
  Tl  Tl1  1  0.45001900  0.95001900  0.54998100  1
  Tl  Tl2  1  0.95001900  0.54998100  0.45001900  1
  Tl  Tl3  1  0.54998100  0.45001900  0.95001900  1
  Tl  Tl4  1  0.81638600  0.81638600  0.81638600  1
  Tl  Tl5  1  0.68361400  0.18361400  0.31638600  1
  Tl  Tl6  1  0.18361400  0.31638600  0.68361400  1
  Tl  Tl7  1  0.31638600  0.68361400  0.18361400  1
  Cd  Cd0  1  0.33362600  0.33362600  0.33362600  1
  Cd  Cd1  1  0.16637400  0.66637400  0.83362600  1
  Cd  Cd2  1  0.66637400  0.83362600  0.16637400  1
  Cd  Cd3  1  0.83362600  0.16637400  0.66637400  1
  Cd  Cd4  1  0.59551500  0.59551500  0.59551500  1
  Cd  Cd5  1  0.90448500  0.40448500  0.09551500  1
  Cd  Cd6  1  0.40448500  0.09551500  0.90448500  1
  Cd  Cd7  1  0.09551500  0.90448500  0.40448500  1
  F  F0  1  0.00890600  0.07936500  0.32318100  1
  F  F1  1  0.49109400  0.92063500  0.82318100  1
  F  F2  1  0.99109400  0.57936500  0.17681900  1
  F  F3  1  0.32318100  0.00890600  0.07936500  1
  F  F4  1  0.50890600  0.42063500  0.67681900  1
  F  F5  1  0.82318100  0.49109400  0.92063500  1
  F  F6  1  0.17681900  0.99109400  0.57936500  1
  F  F7  1  0.67681900  0.50890600  0.42063500  1
  F  F8  1  0.07936500  0.32318100  0.00890600  1
  F  F9  1  0.57936500  0.17681900  0.99109400  1
  F  F10  1  0.42063500  0.67681900  0.50890600  1
  F  F11  1  0.92063500  0.82318100  0.49109400  1
  F  F12  1  0.26348500  0.50092600  0.44025500  1
  F  F13  1  0.23651500  0.49907400  0.94025500  1
  F  F14  1  0.73651500  0.00092600  0.05974500  1
  F  F15  1  0.44025500  0.26348500  0.50092600  1
  F  F16  1  0.76348500  0.99907400  0.55974500  1
  F  F17  1  0.94025500  0.23651500  0.49907400  1
  F  F18  1  0.05974500  0.73651500  0.00092600  1
  F  F19  1  0.55974500  0.76348500  0.99907400  1
  F  F20  1  0.50092600  0.44025500  0.26348500  1
  F  F21  1  0.00092600  0.05974500  0.73651500  1
  F  F22  1  0.99907400  0.55974500  0.76348500  1
  F  F23  1  0.49907400  0.94025500  0.23651500  1
  F  F24  1  0.04461000  0.80572800  0.22370900  1
  F  F25  1  0.45539000  0.19427200  0.72370900  1
  F  F26  1  0.95539000  0.30572800  0.27629100  1
  F  F27  1  0.22370900  0.04461000  0.80572800  1
  F  F28  1  0.54461000  0.69427200  0.77629100  1
  F  F29  1  0.72370900  0.45539000  0.19427200  1
  F  F30  1  0.27629100  0.95539000  0.30572800  1
  F  F31  1  0.77629100  0.54461000  0.69427200  1
  F  F32  1  0.80572800  0.22370900  0.04461000  1
  F  F33  1  0.30572800  0.27629100  0.95539000  1
  F  F34  1  0.69427200  0.77629100  0.54461000  1
  F  F35  1  0.19427200  0.72370900  0.45539000  1
  F  F36  1  0.15560700  0.25145000  0.40822500  1
  F  F37  1  0.34439300  0.74855000  0.90822500  1
  F  F38  1  0.84439300  0.75145000  0.09177500  1
  F  F39  1  0.40822500  0.15560700  0.25145000  1
  F  F40  1  0.65560700  0.24855000  0.59177500  1
  F  F41  1  0.90822500  0.34439300  0.74855000  1
  F  F42  1  0.09177500  0.84439300  0.75145000  1
  F  F43  1  0.59177500  0.65560700  0.24855000  1
  F  F44  1  0.25145000  0.40822500  0.15560700  1
  F  F45  1  0.75145000  0.09177500  0.84439300  1
  F  F46  1  0.24855000  0.59177500  0.65560700  1
  F  F47  1  0.74855000  0.90822500  0.34439300  1
loop_
_geom_bond_atom_site_label_1
_geom_bond_atom_site_label_2
_geom_bond_distance
_geom_bond_site_symmetry_2
Be0 F36 1.556571 1_555
Be0 F17 1.565541 1_455
Be0 F26 1.566207 1_455
Be0 F0 1.571008 1_555
Be1 F37 1.556571 1_555
Be1 F19 1.565541 1_555
Be1 F28 1.566207 1_555
Be1 F1 1.571008 1_555
Be2 F38 1.556571 1_555
Be2 F18 1.565541 1_655
Be2 F24 1.566207 1_655
Be2 F2 1.571008 1_555
Be3 F39 1.556571 1_555
Be3 F23 1.565541 1_545
Be3 F30 1.566207 1_545
Be3 F3 1.571008 1_555
Be4 F40 1.556571 1_555
Be4 F15 1.565541 1_555
Be4 F25 1.566207 1_555
Be4 F4 1.571008 1_555
Be5 F41 1.556571 1_555
Be5 F22 1.565541 1_555
Be5 F31 1.566207 1_555
Be5 F5 1.571008 1_555
Be6 F42 1.556571 1_555
Be6 F21 1.565541 1_565
Be6 F27 1.566207 1_565
Be6 F6 1.571008 1_555
Be7 F43 1.556571 1_555
Be7 F20 1.565541 1_555
Be7 F29 1.566207 1_555
Be7 F7 1.571008 1_555
Be8 F44 1.556571 1_555
Be8 F13 1.565541 1_554
Be8 F33 1.566207 1_554
Be8 F8 1.571008 1_555
Be9 F45 1.556571 1_555
Be9 F14 1.565541 1_556
Be9 F32 1.566207 1_556
Be9 F9 1.571008 1_555
Be10 F46 1.556571 1_555
Be10 F12 1.565541 1_555
Be10 F35 1.566207 1_555
Be10 F10 1.571008 1_555
Be11 F47 1.556571 1_555
Be11 F16 1.565541 1_555
Be11 F34 1.566207 1_555
Be11 F11 1.571008 1_555
Cd0 F44 2.235241 1_555
Cd0 F36 2.235241 1_555
Cd0 F39 2.235241 1_555
Cd0 F15 2.242091 1_555
Cd0 F12 2.242091 1_555
Cd0 F20 2.242091 1_555
Cd1 F42 2.235241 1_555
Cd1 F46 2.235241 1_555
Cd1 F37 2.235241 1_555
Cd1 F22 2.242091 1_455
Cd1 F18 2.242091 1_556
Cd1 F13 2.242091 1_555
Cd2 F38 2.235241 1_555
Cd2 F43 2.235241 1_555
Cd2 F47 2.235241 1_555
Cd2 F19 2.242091 1_554
Cd2 F14 2.242091 1_565
Cd2 F23 2.242091 1_555
Cd3 F45 2.235241 1_555
Cd3 F40 2.235241 1_555
Cd3 F41 2.235241 1_555
Cd3 F16 2.242091 1_545
Cd3 F21 2.242091 1_655
Cd3 F17 2.242091 1_555
Cd4 F7 2.252590 1_555
Cd4 F4 2.252590 1_555
Cd4 F10 2.252590 1_555
Cd4 F28 2.260885 1_555
Cd4 F34 2.260885 1_555
Cd4 F31 2.260885 1_555
Cd5 F8 2.252590 1_655
Cd5 F5 2.252590 1_554
Cd5 F2 2.252590 1_555
Cd5 F26 2.260885 1_555
Cd5 F32 2.260885 1_555
Cd5 F29 2.260885 1_555
Cd6 F3 2.252590 1_556
Cd6 F1 2.252590 1_545
Cd6 F9 2.252590 1_555
Cd6 F25 2.260885 1_555
Cd6 F33 2.260885 1_555
Cd6 F27 2.260885 1_555
Cd7 F0 2.252590 1_565
Cd7 F11 2.252590 1_455
Cd7 F6 2.252590 1_555
Cd7 F35 2.260885 1_555
Cd7 F30 2.260885 1_555
Cd7 F24 2.260885 1_555
