# generated using pymatgen
data_Ge3(SbTe3)2
_symmetry_space_group_name_H-M   'P 1'
_cell_length_a   21.78283567
_cell_length_b   21.78283567
_cell_length_c   21.78283554
_cell_angle_alpha   11.22186212
_cell_angle_beta   11.22186212
_cell_angle_gamma   11.22186111
_symmetry_Int_Tables_number   1
_chemical_formula_structural   Ge3(SbTe3)2
_chemical_formula_sum   'Ge3 Sb2 Te6'
_cell_volume   340.08237856
_cell_formula_units_Z   1
loop_
 _symmetry_equiv_pos_site_id
 _symmetry_equiv_pos_as_xyz
  1  'x, y, z'
loop_
 _atom_site_type_symbol
 _atom_site_label
 _atom_site_symmetry_multiplicity
 _atom_site_fract_x
 _atom_site_fract_y
 _atom_site_fract_z
 _atom_site_occupancy
  Ge  Ge0  1  0.54127200  0.54127200  0.54127200  1
  Ge  Ge1  1  0.26594400  0.26594400  0.26594400  1
  Ge  Ge2  1  0.35739600  0.35739600  0.35739600  1
  Sb  Sb0  1  0.08445600  0.08445600  0.08445600  1
  Sb  Sb1  1  0.81392200  0.81392200  0.81392200  1
  Te  Te0  1  0.44945700  0.44945700  0.44945700  1
  Te  Te1  1  0.72438800  0.72438800  0.72438800  1
  Te  Te2  1  0.89652400  0.89652400  0.89652400  1
  Te  Te3  1  0.00231300  0.00231300  0.00231300  1
  Te  Te4  1  0.17428500  0.17428500  0.17428500  1
  Te  Te5  1  0.62104400  0.62104400  0.62104400  1
loop_
_geom_bond_atom_site_label_1
_geom_bond_atom_site_label_2
_geom_bond_distance
_geom_bond_site_symmetry_2
Ge0 Te2 2.841367 1_455
Ge0 Te2 2.841367 1_545
Ge0 Te2 2.841367 1_554
Ge0 Te4 3.289801 1_565
Ge0 Te4 3.289801 1_655
Ge0 Te4 3.289801 1_556
Ge1 Te5 2.836436 1_545
Ge1 Te5 2.836436 1_455
Ge1 Te5 2.836436 1_554
Ge2 Te3 2.835886 1_655
Ge2 Te3 2.835886 1_565
Ge2 Te3 2.835887 1_556
Ge2 Te1 3.290017 1_455
Ge2 Te1 3.290017 1_545
Ge2 Te1 3.290017 1_554
Sb0 Te1 3.010188 1_454
Sb0 Te1 3.010188 1_544
Sb0 Te1 3.010189 1_445
Sb0 Te0 3.205598 1_545
Sb0 Te0 3.205598 1_455
Sb0 Te0 3.205598 1_554
Sb1 Te4 3.021275 1_656
Sb1 Te4 3.021275 1_566
Sb1 Te4 3.021275 1_665
Sb1 Te0 3.183386 1_655
Sb1 Te0 3.183386 1_565
Sb1 Te0 3.183386 1_556
