# generated using pymatgen
data_Nb3Si
_symmetry_space_group_name_H-M   'P 1'
_cell_length_a   6.33429168
_cell_length_b   6.33429168
_cell_length_c   16.27346400
_cell_angle_alpha   90.00000000
_cell_angle_beta   90.00000000
_cell_angle_gamma   119.02280085
_symmetry_Int_Tables_number   1
_chemical_formula_structural   Nb3Si
_chemical_formula_sum   'Nb24 Si8'
_cell_volume   570.95191956
_cell_formula_units_Z   8
loop_
 _symmetry_equiv_pos_site_id
 _symmetry_equiv_pos_as_xyz
  1  'x, y, z'
loop_
 _atom_site_type_symbol
 _atom_site_label
 _atom_site_symmetry_multiplicity
 _atom_site_fract_x
 _atom_site_fract_y
 _atom_site_fract_z
 _atom_site_occupancy
  Nb  Nb0_0  1  0.49963650  0.00036350  0.24223650  1
  Nb  Nb0_1  1  0.49963650  0.00036350  0.74223650  1
  Nb  Nb0_2  1  0.49963650  0.50036350  0.24223650  1
  Nb  Nb0_3  1  0.49963650  0.50036350  0.74223650  1
  Nb  Nb0_4  1  0.99963650  0.00036350  0.24223650  1
  Nb  Nb0_5  1  0.99963650  0.00036350  0.74223650  1
  Nb  Nb0_6  1  0.99963650  0.50036350  0.24223650  1
  Nb  Nb0_7  1  0.99963650  0.50036350  0.74223650  1
  Nb  Nb1_0  1  0.49963650  0.00036350  0.00776350  1
  Nb  Nb1_1  1  0.49963650  0.00036350  0.50776350  1
  Nb  Nb1_2  1  0.49963650  0.50036350  0.00776350  1
  Nb  Nb1_3  1  0.49963650  0.50036350  0.50776350  1
  Nb  Nb1_4  1  0.99963650  0.00036350  0.00776350  1
  Nb  Nb1_5  1  0.99963650  0.00036350  0.50776350  1
  Nb  Nb1_6  1  0.99963650  0.50036350  0.00776350  1
  Nb  Nb1_7  1  0.99963650  0.50036350  0.50776350  1
  Nb  Nb2_0  1  0.33288550  0.16711450  0.37500000  1
  Nb  Nb2_1  1  0.33288550  0.16711450  0.87500000  1
  Nb  Nb2_2  1  0.33288550  0.66711450  0.37500000  1
  Nb  Nb2_3  1  0.33288550  0.66711450  0.87500000  1
  Nb  Nb2_4  1  0.83288550  0.16711450  0.37500000  1
  Nb  Nb2_5  1  0.83288550  0.16711450  0.87500000  1
  Nb  Nb2_6  1  0.83288550  0.66711450  0.37500000  1
  Nb  Nb2_7  1  0.83288550  0.66711450  0.87500000  1
  Si  Si0_0  1  0.16784200  0.33215800  0.12500000  1
  Si  Si0_1  1  0.16784200  0.33215800  0.62500000  1
  Si  Si0_2  1  0.16784200  0.83215800  0.12500000  1
  Si  Si0_3  1  0.16784200  0.83215800  0.62500000  1
  Si  Si0_4  1  0.66784200  0.33215800  0.12500000  1
  Si  Si0_5  1  0.66784200  0.33215800  0.62500000  1
  Si  Si0_6  1  0.66784200  0.83215800  0.12500000  1
  Si  Si0_7  1  0.66784200  0.83215800  0.62500000  1
loop_
_geom_bond_atom_site_label_1
_geom_bond_atom_site_label_2
_geom_bond_distance
_geom_bond_site_symmetry_2
Nb0_0 Si0_6 2.647981 1_545
Nb0_0 Si0_4 2.649407 1_555
Nb0_0 Si0_2 2.649407 1_545
Nb0_0 Nb2_0 2.825195 1_555
Nb0_0 Nb2_2 2.841822 1_545
Nb0_0 Nb2_4 2.841822 1_555
Nb0_1 Si0_7 2.647981 1_545
Nb0_1 Si0_5 2.649407 1_555
Nb0_1 Si0_3 2.649407 1_545
Nb0_1 Nb2_1 2.825195 1_555
Nb0_1 Nb2_3 2.841822 1_545
Nb0_1 Nb2_5 2.841822 1_555
Nb0_2 Si0_4 2.647981 1_555
Nb0_2 Si0_6 2.649407 1_555
Nb0_2 Si0_0 2.649407 1_555
Nb0_2 Nb2_2 2.825195 1_555
Nb0_2 Nb2_6 2.841822 1_555
Nb0_2 Nb2_0 2.841822 1_555
Nb0_3 Si0_5 2.647981 1_555
Nb0_3 Si0_7 2.649407 1_555
Nb0_3 Si0_1 2.649407 1_555
Nb0_3 Nb2_3 2.825195 1_555
Nb0_3 Nb2_7 2.841822 1_555
Nb0_3 Nb2_1 2.841822 1_555
Nb0_4 Si0_2 2.647981 1_645
Nb0_4 Si0_6 2.649407 1_545
Nb0_4 Si0_0 2.649407 1_655
Nb0_4 Nb2_4 2.825195 1_555
Nb0_4 Nb2_0 2.841822 1_655
Nb0_4 Nb2_6 2.841822 1_545
Nb0_5 Si0_3 2.647981 1_645
Nb0_5 Si0_7 2.649407 1_545
Nb0_5 Si0_1 2.649407 1_655
Nb0_5 Nb2_5 2.825195 1_555
Nb0_5 Nb2_7 2.841822 1_545
Nb0_5 Nb2_1 2.841822 1_655
Nb0_6 Si0_0 2.647981 1_655
Nb0_6 Si0_4 2.649407 1_555
Nb0_6 Si0_2 2.649407 1_655
Nb0_6 Nb2_6 2.825195 1_555
Nb0_6 Nb2_2 2.841822 1_655
Nb0_6 Nb2_4 2.841822 1_555
Nb0_7 Si0_1 2.647981 1_655
Nb0_7 Si0_5 2.649407 1_555
Nb0_7 Si0_3 2.649407 1_655
Nb0_7 Nb2_7 2.825195 1_555
Nb0_7 Nb2_5 2.841822 1_555
Nb0_7 Nb2_3 2.841822 1_655
Nb1_0 Si0_6 2.647981 1_545
Nb1_0 Si0_4 2.649407 1_555
Nb1_0 Si0_2 2.649407 1_545
Nb1_0 Nb2_1 2.825195 1_554
Nb1_0 Nb2_3 2.841822 1_544
Nb1_0 Nb2_5 2.841822 1_554
Nb1_1 Si0_7 2.647981 1_545
Nb1_1 Si0_3 2.649407 1_545
Nb1_1 Si0_5 2.649407 1_555
Nb1_1 Nb2_0 2.825195 1_555
Nb1_1 Nb2_2 2.841822 1_545
Nb1_1 Nb2_4 2.841822 1_555
Nb1_2 Si0_4 2.647981 1_555
Nb1_2 Si0_0 2.649407 1_555
Nb1_2 Si0_6 2.649407 1_555
Nb1_2 Nb2_3 2.825195 1_554
Nb1_2 Nb2_1 2.841822 1_554
Nb1_2 Nb2_7 2.841822 1_554
Nb1_3 Si0_5 2.647981 1_555
Nb1_3 Si0_1 2.649407 1_555
Nb1_3 Si0_7 2.649407 1_555
Nb1_3 Nb2_2 2.825195 1_555
Nb1_3 Nb2_0 2.841822 1_555
Nb1_3 Nb2_6 2.841822 1_555
Nb1_4 Si0_2 2.647981 1_645
Nb1_4 Si0_6 2.649407 1_545
Nb1_4 Si0_0 2.649407 1_655
Nb1_4 Nb2_5 2.825195 1_554
Nb1_4 Nb2_1 2.841822 1_654
Nb1_4 Nb2_7 2.841822 1_544
Nb1_5 Si0_3 2.647981 1_645
Nb1_5 Si0_7 2.649407 1_545
Nb1_5 Si0_1 2.649407 1_655
Nb1_5 Nb2_4 2.825195 1_555
Nb1_5 Nb2_0 2.841822 1_655
Nb1_5 Nb2_6 2.841822 1_545
Nb1_6 Si0_0 2.647981 1_655
Nb1_6 Si0_4 2.649407 1_555
Nb1_6 Si0_2 2.649407 1_655
Nb1_6 Nb2_7 2.825195 1_554
Nb1_6 Nb2_3 2.841822 1_654
Nb1_6 Nb2_5 2.841822 1_554
Nb1_7 Si0_1 2.647981 1_655
Nb1_7 Si0_5 2.649407 1_555
Nb1_7 Si0_3 2.649407 1_655
Nb1_7 Nb2_6 2.825195 1_555
Nb1_7 Nb2_2 2.841822 1_655
Nb1_7 Nb2_4 2.841822 1_555
Nb2_0 Nb2_2 3.167146 1_545
Nb2_0 Nb2_4 3.167146 1_455
Nb2_0 Nb2_4 3.167146 1_555
Nb2_0 Nb2_2 3.167146 1_555
Nb2_0 Nb2_6 3.213810 1_445
Nb2_0 Nb2_6 3.213810 1_555
Nb2_1 Nb2_5 3.167146 1_455
Nb2_1 Nb2_3 3.167146 1_545
Nb2_1 Nb2_5 3.167146 1_555
Nb2_1 Nb2_3 3.167146 1_555
Nb2_1 Nb2_7 3.213810 1_445
Nb2_1 Nb2_7 3.213810 1_555
Nb2_2 Nb2_6 3.167146 1_455
Nb2_2 Nb2_6 3.167146 1_555
Nb2_2 Nb2_4 3.213810 1_455
Nb2_2 Nb2_4 3.213810 1_565
Nb2_3 Nb2_7 3.167146 1_455
Nb2_3 Nb2_7 3.167146 1_555
Nb2_3 Nb2_5 3.213810 1_565
Nb2_3 Nb2_5 3.213810 1_455
Nb2_4 Nb2_6 3.167146 1_555
Nb2_4 Nb2_6 3.167146 1_545
Nb2_5 Nb2_7 3.167146 1_545
Nb2_5 Nb2_7 3.167146 1_555
