# generated using pymatgen
data_AgSb(Te8Pb7)2
_symmetry_space_group_name_H-M   'P 1'
_cell_length_a   14.45945434
_cell_length_b   14.45945434
_cell_length_c   14.45945434
_cell_angle_alpha   142.73539554
_cell_angle_beta   142.73539554
_cell_angle_gamma   53.72259001
_symmetry_Int_Tables_number   1
_chemical_formula_structural   AgSb(Te8Pb7)2
_chemical_formula_sum   'Ag1 Sb1 Te16 Pb14'
_cell_volume   1101.17156113
_cell_formula_units_Z   1
loop_
 _symmetry_equiv_pos_site_id
 _symmetry_equiv_pos_as_xyz
  1  'x, y, z'
loop_
 _atom_site_type_symbol
 _atom_site_label
 _atom_site_symmetry_multiplicity
 _atom_site_fract_x
 _atom_site_fract_y
 _atom_site_fract_z
 _atom_site_occupancy
  Ag  Ag0  1  0.50000000  0.50000000  0.00000000  1
  Sb  Sb0  1  0.00000000  0.00000000  0.00000000  1
  Te  Te0  1  0.12503100  0.62503100  0.50000000  1
  Te  Te1  1  0.37496900  0.87496900  0.50000000  1
  Te  Te2  1  0.62503100  0.12503100  0.50000000  1
  Te  Te3  1  0.87496900  0.37496900  0.50000000  1
  Te  Te4  1  0.50000000  0.50000000  0.50000000  1
  Te  Te5  1  0.75737700  0.75737700  0.51475400  1
  Te  Te6  1  0.00000000  0.00000000  0.50000000  1
  Te  Te7  1  0.24262300  0.24262300  0.48524600  1
  Te  Te8  1  0.61562800  0.61562800  0.00000000  1
  Te  Te9  1  0.87952900  0.87952900  0.00000000  1
  Te  Te10  1  0.12047100  0.12047100  0.00000000  1
  Te  Te11  1  0.38437200  0.38437200  0.00000000  1
  Te  Te12  1  0.50000000  0.00000000  0.00000000  1
  Te  Te13  1  0.75737700  0.24262300  0.00000000  1
  Te  Te14  1  0.00000000  0.50000000  0.00000000  1
  Te  Te15  1  0.24262300  0.75737700  0.00000000  1
  Pb  Pb0  1  0.25000000  0.75000000  0.50000000  1
  Pb  Pb1  1  0.50000000  0.00000000  0.50000000  1
  Pb  Pb2  1  0.75000000  0.25000000  0.50000000  1
  Pb  Pb3  1  0.00000000  0.50000000  0.50000000  1
  Pb  Pb4  1  0.37465900  0.37465900  0.50141200  1
  Pb  Pb5  1  0.62534100  0.62534100  0.49858800  1
  Pb  Pb6  1  0.87324700  0.87324700  0.49858800  1
  Pb  Pb7  1  0.12675300  0.12675300  0.50141200  1
  Pb  Pb8  1  0.37465900  0.87324700  0.00000000  1
  Pb  Pb9  1  0.62534100  0.12675300  0.00000000  1
  Pb  Pb10  1  0.87324700  0.37465900  0.00000000  1
  Pb  Pb11  1  0.12675300  0.62534100  0.00000000  1
  Pb  Pb12  1  0.74757900  0.74757900  0.00000000  1
  Pb  Pb13  1  0.25242100  0.25242100  0.00000000  1
loop_
_geom_bond_atom_site_label_1
_geom_bond_atom_site_label_2
_geom_bond_distance
_geom_bond_site_symmetry_2
Ag0 Te8 2.983046 1_555
Ag0 Te11 2.983046 1_555
Ag0 Te5 3.363015 1_555
Ag0 Te13 3.363015 1_555
Ag0 Te15 3.363015 1_555
Ag0 Te7 3.363015 1_554
Sb0 Te9 3.107988 1_445
Sb0 Te10 3.107988 1_555
Sb0 Te15 3.170232 1_545
Sb0 Te13 3.170232 1_455
Sb0 Te7 3.170232 1_555
Sb0 Te5 3.170232 1_444
Pb0 Te1 3.224031 1_555
Pb0 Te0 3.224031 1_555
Pb0 Te12 3.266623 1_566
Pb0 Te6 3.266623 1_565
Pb0 Te4 3.266623 1_555
Pb0 Te14 3.266623 1_555
Pb1 Te2 3.225630 1_555
Pb1 Te1 3.225630 1_545
Pb1 Te5 3.268045 1_545
Pb1 Te15 3.268045 1_545
Pb1 Te7 3.268045 1_555
Pb1 Te13 3.268045 1_556
Pb2 Te2 3.224031 1_555
Pb2 Te3 3.224031 1_555
Pb2 Te12 3.266623 1_555
Pb2 Te4 3.266623 1_555
Pb2 Te14 3.266623 1_656
Pb2 Te6 3.266623 1_655
Pb3 Te0 3.225630 1_555
Pb3 Te3 3.225630 1_455
Pb3 Te13 3.268045 1_455
Pb3 Te7 3.268045 1_555
Pb3 Te15 3.268045 1_556
Pb3 Te5 3.268045 1_455
Pb4 Te7 3.199563 1_555
Pb4 Te4 3.251855 1_555
Pb4 Te8 3.264471 1_556
Pb4 Te2 3.266755 1_555
Pb4 Te0 3.266755 1_555
Pb4 Te10 3.277080 1_555
Pb5 Te5 3.199563 1_555
Pb5 Te4 3.251855 1_555
Pb5 Te11 3.264471 1_555
Pb5 Te1 3.266755 1_555
Pb5 Te3 3.266755 1_555
Pb5 Te9 3.277080 1_556
Pb6 Te5 3.199563 1_555
Pb6 Te6 3.251855 1_665
Pb6 Te8 3.264471 1_555
Pb6 Te2 3.266755 1_565
Pb6 Te0 3.266755 1_655
Pb6 Te10 3.277080 1_666
Pb7 Te7 3.199563 1_555
Pb7 Te6 3.251855 1_555
Pb7 Te11 3.264471 1_556
Pb7 Te1 3.266755 1_545
Pb7 Te3 3.266755 1_455
Pb7 Te9 3.277080 1_445
Pb8 Te15 3.199563 1_555
Pb8 Te12 3.251855 1_565
Pb8 Te8 3.264471 1_555
Pb8 Te2 3.266755 1_565
Pb8 Te0 3.266755 1_554
Pb8 Te10 3.277080 1_565
Pb9 Te13 3.199563 1_555
Pb9 Te12 3.251855 1_555
Pb9 Te11 3.264471 1_555
Pb9 Te3 3.266755 1_555
Pb9 Te1 3.266755 1_544
Pb9 Te9 3.277080 1_545
Pb10 Te13 3.199563 1_555
Pb10 Te14 3.251855 1_655
Pb10 Te8 3.264471 1_555
Pb10 Te2 3.266755 1_554
Pb10 Te0 3.266755 1_655
Pb10 Te10 3.277080 1_655
Pb11 Te15 3.199563 1_555
Pb11 Te14 3.251855 1_555
Pb11 Te11 3.264471 1_555
Pb11 Te1 3.266755 1_555
Pb11 Te3 3.266755 1_454
Pb11 Te9 3.277080 1_455
Pb12 Te4 3.267220 1_554
Pb12 Te6 3.267220 1_665
Pb12 Te12 3.267220 1_565
Pb12 Te14 3.267220 1_655
Pb12 Te9 3.404131 1_555
Pb12 Te8 3.404157 1_555
Pb13 Te4 3.267220 1_555
Pb13 Te6 3.267220 1_554
Pb13 Te14 3.267220 1_555
Pb13 Te12 3.267220 1_555
Pb13 Te10 3.404131 1_555
Pb13 Te11 3.404157 1_555
