# generated using pymatgen
data_Y3ScN4
_symmetry_space_group_name_H-M   'P 1'
_cell_length_a   11.30945796
_cell_length_b   11.30945796
_cell_length_c   11.30945695
_cell_angle_alpha   17.36164194
_cell_angle_beta   17.36164194
_cell_angle_gamma   17.36164549
_symmetry_Int_Tables_number   1
_chemical_formula_structural   Y3ScN4
_chemical_formula_sum   'Y3 Sc1 N4'
_cell_volume   112.40071004
_cell_formula_units_Z   1
loop_
 _symmetry_equiv_pos_site_id
 _symmetry_equiv_pos_as_xyz
  1  'x, y, z'
loop_
 _atom_site_type_symbol
 _atom_site_label
 _atom_site_symmetry_multiplicity
 _atom_site_fract_x
 _atom_site_fract_y
 _atom_site_fract_z
 _atom_site_occupancy
  Y  Y0  1  0.25249400  0.25249400  0.25249400  1
  Y  Y1  1  0.50000000  0.50000000  0.50000000  1
  Y  Y2  1  0.74750600  0.74750600  0.74750600  1
  Sc  Sc0  1  0.00000000  0.00000000  0.00000000  1
  N  N0  1  0.37146500  0.37146500  0.37146500  1
  N  N1  1  0.12381200  0.12381200  0.12381200  1
  N  N2  1  0.62853500  0.62853500  0.62853500  1
  N  N3  1  0.87618800  0.87618800  0.87618800  1
loop_
_geom_bond_atom_site_label_1
_geom_bond_atom_site_label_2
_geom_bond_distance
_geom_bond_site_symmetry_2
N0 Sc0 2.346866 1_565
N0 Sc0 2.346866 1_655
N0 Sc0 2.346866 1_556
N0 Y2 2.433243 1_545
N0 Y2 2.433243 1_455
N0 Y2 2.433244 1_554
N1 Y1 2.436126 1_455
N1 Y1 2.436126 1_545
N1 Y1 2.436127 1_554
N1 Y2 2.438445 1_544
N1 Y2 2.438445 1_454
N1 Y2 2.438446 1_445
N2 Sc0 2.346866 1_566
N2 Sc0 2.346866 1_656
N2 Sc0 2.346866 1_665
N2 Y0 2.433243 1_565
N2 Y0 2.433243 1_655
N2 Y0 2.433244 1_556
N3 Y1 2.436126 1_655
N3 Y1 2.436126 1_565
N3 Y1 2.436127 1_556
N3 Y0 2.438445 1_656
N3 Y0 2.438445 1_566
N3 Y0 2.438446 1_665
