# generated using pymatgen
data_FeNiS2
_symmetry_space_group_name_H-M   'P 1'
_cell_length_a   8.05006618
_cell_length_b   8.05006618
_cell_length_c   8.05006618
_cell_angle_alpha   120.24758573
_cell_angle_beta   120.06363536
_cell_angle_gamma   89.73075945
_symmetry_Int_Tables_number   1
_chemical_formula_structural   FeNiS2
_chemical_formula_sum   'Fe4 Ni4 S8'
_cell_volume   368.00529303
_cell_formula_units_Z   4
loop_
 _symmetry_equiv_pos_site_id
 _symmetry_equiv_pos_as_xyz
  1  'x, y, z'
loop_
 _atom_site_type_symbol
 _atom_site_label
 _atom_site_symmetry_multiplicity
 _atom_site_fract_x
 _atom_site_fract_y
 _atom_site_fract_z
 _atom_site_occupancy
  Fe  Fe0  1  0.25694600  0.75022900  0.50671700  1
  Fe  Fe1  1  0.75648800  0.24977100  0.50671700  1
  Fe  Fe2  1  0.15662300  0.15504300  0.31166600  1
  Fe  Fe3  1  0.15662300  0.84495700  0.00158000  1
  Ni  Ni0  1  0.83021100  0.82801500  0.00219600  1
  Ni  Ni1  1  0.83216900  0.82905800  0.66122700  1
  Ni  Ni2  1  0.83216900  0.17094200  0.00311200  1
  Ni  Ni3  1  0.17418100  0.17198500  0.00219600  1
  S  S0  1  0.13539200  0.85713100  0.27826000  1
  S  S1  1  0.59218700  0.86389400  0.72829300  1
  S  S2  1  0.13735300  0.86444400  0.72283100  1
  S  S3  1  0.13735300  0.41452200  0.27291000  1
  S  S4  1  0.86440000  0.13610600  0.72829300  1
  S  S5  1  0.42112900  0.14286900  0.27826000  1
  S  S6  1  0.85838800  0.13555600  0.27291000  1
  S  S7  1  0.85838800  0.58547800  0.72283100  1
loop_
_geom_bond_atom_site_label_1
_geom_bond_atom_site_label_2
_geom_bond_distance
_geom_bond_site_symmetry_2
Fe0 S3 2.203894 1_555
Fe0 S2 2.203894 1_555
Fe0 S1 2.204049 1_555
Fe0 S0 2.205420 1_555
Fe1 S6 2.203894 1_555
Fe1 S7 2.203894 1_555
Fe1 S4 2.204049 1_555
Fe1 S5 2.205420 1_555
Fe2 S3 2.256016 1_555
Fe2 S6 2.256016 1_455
Fe2 S0 2.271783 1_545
Fe2 S5 2.271783 1_555
Fe3 S7 2.256016 1_454
Fe3 S2 2.256020 1_554
Fe3 S0 2.271779 1_555
Fe3 S5 2.271783 1_565
Ni0 S6 2.237025 1_565
Ni0 S7 2.237030 1_554
Ni0 S1 2.240542 1_554
Ni0 S0 2.244923 1_655
Ni1 S1 2.233745 1_555
Ni1 S4 2.233745 1_565
Ni1 S7 2.237470 1_555
Ni1 S2 2.237470 1_655
Ni2 S1 2.233745 1_544
Ni2 S4 2.233757 1_554
Ni2 S6 2.237467 1_555
Ni2 S3 2.237470 1_655
Ni3 S2 2.237026 1_544
Ni3 S3 2.237030 1_555
Ni3 S4 2.240537 1_454
Ni3 S5 2.244918 1_555
