# generated using pymatgen
data_Cr2(SiO4)3
_symmetry_space_group_name_H-M   'P 1'
_cell_length_a   10.05655892
_cell_length_b   10.05655892
_cell_length_c   10.05655892
_cell_angle_alpha   109.47122063
_cell_angle_beta   109.47122063
_cell_angle_gamma   109.47122063
_symmetry_Int_Tables_number   1
_chemical_formula_structural   Cr2(SiO4)3
_chemical_formula_sum   'Cr8 Si12 O48'
_cell_volume   782.93609714
_cell_formula_units_Z   4
loop_
 _symmetry_equiv_pos_site_id
 _symmetry_equiv_pos_as_xyz
  1  'x, y, z'
loop_
 _atom_site_type_symbol
 _atom_site_label
 _atom_site_symmetry_multiplicity
 _atom_site_fract_x
 _atom_site_fract_y
 _atom_site_fract_z
 _atom_site_occupancy
  Cr  Cr0  1  0.50000000  0.00000000  0.00000000  1
  Cr  Cr1  1  0.50000000  0.50000000  0.00000000  1
  Cr  Cr2  1  0.00000000  0.50000000  0.50000000  1
  Cr  Cr3  1  0.00000000  0.00000000  0.50000000  1
  Cr  Cr4  1  0.50000000  0.50000000  0.50000000  1
  Cr  Cr5  1  0.00000000  0.50000000  0.00000000  1
  Cr  Cr6  1  0.50000000  0.00000000  0.50000000  1
  Cr  Cr7  1  0.00000000  0.00000000  0.00000000  1
  Si  Si0  1  0.12500000  0.75000000  0.87500000  1
  Si  Si1  1  0.87500000  0.25000000  0.12500000  1
  Si  Si2  1  0.75000000  0.37500000  0.62500000  1
  Si  Si3  1  0.12500000  0.87500000  0.25000000  1
  Si  Si4  1  0.25000000  0.12500000  0.87500000  1
  Si  Si5  1  0.37500000  0.62500000  0.75000000  1
  Si  Si6  1  0.37500000  0.25000000  0.62500000  1
  Si  Si7  1  0.87500000  0.12500000  0.75000000  1
  Si  Si8  1  0.62500000  0.37500000  0.25000000  1
  Si  Si9  1  0.75000000  0.87500000  0.12500000  1
  Si  Si10  1  0.25000000  0.62500000  0.37500000  1
  Si  Si11  1  0.62500000  0.75000000  0.37500000  1
  O  O0  1  0.58497600  0.89901100  0.39230300  1
  O  O1  1  0.39230300  0.58497600  0.89901100  1
  O  O2  1  0.30732700  0.31403400  0.91502400  1
  O  O3  1  0.49329200  0.60098900  0.18596600  1
  O  O4  1  0.31403400  0.89901100  0.00670800  1
  O  O5  1  0.10769700  0.00670800  0.19267300  1
  O  O6  1  0.39230300  0.30732700  0.49329200  1
  O  O7  1  0.89901100  0.39230300  0.58497600  1
  O  O8  1  0.18596600  0.19267300  0.58497600  1
  O  O9  1  0.49329200  0.39230300  0.30732700  1
  O  O10  1  0.89901100  0.00670800  0.31403400  1
  O  O11  1  0.60098900  0.91502400  0.10769700  1
  O  O12  1  0.91502400  0.10769700  0.60098900  1
  O  O13  1  0.30732700  0.49329200  0.39230300  1
  O  O14  1  0.58497600  0.18596600  0.19267300  1
  O  O15  1  0.19267300  0.58497600  0.18596600  1
  O  O16  1  0.00670800  0.31403400  0.89901100  1
  O  O17  1  0.91502400  0.30732700  0.31403400  1
  O  O18  1  0.00670800  0.19267300  0.10769700  1
  O  O19  1  0.81403400  0.80732700  0.41502400  1
  O  O20  1  0.18596600  0.49329200  0.60098900  1
  O  O21  1  0.60098900  0.18596600  0.49329200  1
  O  O22  1  0.19267300  0.10769700  0.00670800  1
  O  O23  1  0.10769700  0.60098900  0.91502400  1
  O  O24  1  0.41502400  0.10098900  0.60769700  1
  O  O25  1  0.60769700  0.41502400  0.10098900  1
  O  O26  1  0.69267300  0.68596600  0.08497600  1
  O  O27  1  0.50670800  0.39901100  0.81403400  1
  O  O28  1  0.68596600  0.10098900  0.99329200  1
  O  O29  1  0.89230300  0.99329200  0.80732700  1
  O  O30  1  0.60769700  0.69267300  0.50670800  1
  O  O31  1  0.10098900  0.60769700  0.41502400  1
  O  O32  1  0.89230300  0.39901100  0.08497600  1
  O  O33  1  0.80732700  0.89230300  0.99329200  1
  O  O34  1  0.39901100  0.81403400  0.50670800  1
  O  O35  1  0.68596600  0.08497600  0.69267300  1
  O  O36  1  0.81403400  0.50670800  0.39901100  1
  O  O37  1  0.99329200  0.80732700  0.89230300  1
  O  O38  1  0.08497600  0.69267300  0.68596600  1
  O  O39  1  0.99329200  0.68596600  0.10098900  1
  O  O40  1  0.80732700  0.41502400  0.81403400  1
  O  O41  1  0.41502400  0.81403400  0.80732700  1
  O  O42  1  0.69267300  0.50670800  0.60769700  1
  O  O43  1  0.08497600  0.89230300  0.39901100  1
  O  O44  1  0.39901100  0.08497600  0.89230300  1
  O  O45  1  0.10098900  0.99329200  0.68596600  1
  O  O46  1  0.50670800  0.60769700  0.69267300  1
  O  O47  1  0.31403400  0.91502400  0.30732700  1
loop_
_geom_bond_atom_site_label_1
_geom_bond_atom_site_label_2
_geom_bond_distance
_geom_bond_site_symmetry_2
Cr0 O44 1.843116 1_554
Cr0 O11 1.843116 1_545
Cr0 O14 1.843121 1_555
Cr0 O41 1.843121 1_544
Cr0 O4 1.843125 1_545
Cr0 O28 1.843125 1_554
Cr1 O25 1.843116 1_555
Cr1 O1 1.843116 1_554
Cr1 O26 1.843121 1_555
Cr1 O2 1.843121 1_554
Cr1 O27 1.843125 1_554
Cr1 O3 1.843125 1_555
Cr2 O31 1.843116 1_555
Cr2 O7 1.843116 1_455
Cr2 O38 1.843121 1_555
Cr2 O17 1.843121 1_455
Cr2 O36 1.843125 1_455
Cr2 O20 1.843125 1_555
Cr3 O12 1.843116 1_455
Cr3 O43 1.843116 1_545
Cr3 O8 1.843121 1_555
Cr3 O19 1.843121 1_445
Cr3 O10 1.843125 1_455
Cr3 O45 1.843125 1_545
Cr4 O46 1.843116 1_555
Cr4 O30 1.843116 1_555
Cr4 O42 1.843116 1_555
Cr4 O9 1.843116 1_555
Cr4 O13 1.843116 1_555
Cr4 O6 1.843116 1_555
Cr5 O32 1.843116 1_455
Cr5 O23 1.843116 1_554
Cr5 O15 1.843121 1_555
Cr5 O40 1.843121 1_454
Cr5 O16 1.843125 1_554
Cr5 O39 1.843125 1_455
Cr6 O24 1.843116 1_555
Cr6 O0 1.843116 1_545
Cr6 O35 1.843121 1_555
Cr6 O47 1.843121 1_545
Cr6 O34 1.843125 1_545
Cr6 O21 1.843125 1_555
Cr7 O5 1.843116 1_555
Cr7 O18 1.843116 1_555
Cr7 O22 1.843116 1_555
Cr7 O37 1.843116 1_444
Cr7 O29 1.843116 1_444
Cr7 O33 1.843116 1_444
O0 Si11 1.647079 1_555
O1 Si5 1.647079 1_555
O2 Si4 1.647069 1_555
O3 Si11 1.647073 1_555
O4 Si0 1.647073 1_554
O5 Si3 1.647079 1_545
O6 Si6 1.647079 1_555
O7 Si2 1.647079 1_555
O8 Si6 1.647069 1_555
O9 Si8 1.647079 1_555
O10 Si9 1.647073 1_545
O11 Si9 1.647079 1_555
O12 Si7 1.647079 1_555
O13 Si10 1.647079 1_555
O14 Si8 1.647069 1_555
O15 Si10 1.647069 1_555
O16 Si7 1.647073 1_455
O17 Si1 1.647069 1_555
O18 Si1 1.647079 1_455
O19 Si11 1.647069 1_555
O20 Si5 1.647073 1_555
O21 Si2 1.647073 1_555
O22 Si4 1.647079 1_554
O23 Si0 1.647079 1_555
O24 Si6 1.647079 1_555
O25 Si8 1.647079 1_555
O26 Si9 1.647069 1_555
O27 Si6 1.647073 1_555
O28 Si1 1.647073 1_556
O29 Si7 1.647079 1_565
O30 Si11 1.647079 1_555
O31 Si10 1.647079 1_555
O32 Si1 1.647079 1_555
O33 Si9 1.647079 1_556
O34 Si10 1.647073 1_555
O35 Si7 1.647069 1_555
O36 Si8 1.647073 1_555
O37 Si0 1.647079 1_655
O38 Si0 1.647069 1_555
O39 Si3 1.647073 1_655
O40 Si2 1.647069 1_555
O41 Si5 1.647069 1_555
O42 Si2 1.647079 1_555
O43 Si3 1.647079 1_555
O44 Si4 1.647079 1_555
O45 Si4 1.647073 1_565
O46 Si5 1.647079 1_555
O47 Si3 1.647069 1_555
