# generated using pymatgen
data_Mn2InSbO6
_symmetry_space_group_name_H-M   'P 1'
_cell_length_a   6.35986500
_cell_length_b   6.38229834
_cell_length_c   6.38780687
_cell_angle_alpha   90.94661916
_cell_angle_beta   90.96465833
_cell_angle_gamma   90.75106207
_symmetry_Int_Tables_number   1
_chemical_formula_structural   Mn2InSbO6
_chemical_formula_sum   'Mn4 In2 Sb2 O12'
_cell_volume   259.18926273
_cell_formula_units_Z   2
loop_
 _symmetry_equiv_pos_site_id
 _symmetry_equiv_pos_as_xyz
  1  'x, y, z'
loop_
 _atom_site_type_symbol
 _atom_site_label
 _atom_site_symmetry_multiplicity
 _atom_site_fract_x
 _atom_site_fract_y
 _atom_site_fract_z
 _atom_site_occupancy
  Mn  Mn0  1  0.56107500  0.05500500  0.74763100  1
  Mn  Mn1  1  0.94270900  0.24797800  0.43737500  1
  Mn  Mn2  1  0.25292400  0.43152700  0.94571500  1
  Mn  Mn3  1  0.43776000  0.95084700  0.25099700  1
  In  In0  1  0.06039800  0.75052500  0.56458800  1
  In  In1  1  0.74641900  0.56551700  0.05624200  1
  Sb  Sb0  1  0.49824400  0.49769700  0.49979800  1
  Sb  Sb1  1  0.00124700  0.00332300  0.00045800  1
  O  O0  1  0.04168600  0.69684400  0.91073000  1
  O  O1  1  0.70179300  0.90799900  0.04412600  1
  O  O2  1  0.91305500  0.03769700  0.69802900  1
  O  O3  1  0.95509900  0.30310800  0.09208200  1
  O  O4  1  0.29929600  0.08916200  0.95702300  1
  O  O5  1  0.09000500  0.95699500  0.30045300  1
  O  O6  1  0.80048500  0.57545400  0.41882800  1
  O  O7  1  0.57333800  0.42303400  0.79867400  1
  O  O8  1  0.41767700  0.79693000  0.57164200  1
  O  O9  1  0.19697200  0.43206400  0.57537200  1
  O  O10  1  0.43246000  0.57506400  0.19962400  1
  O  O11  1  0.57735800  0.20322900  0.43061300  1
loop_
_geom_bond_atom_site_label_1
_geom_bond_atom_site_label_2
_geom_bond_distance
_geom_bond_site_symmetry_2
Mn0 O8 2.161807 1_545
Mn0 O4 2.164085 1_555
Mn0 O11 2.252616 1_555
Mn0 O2 2.269998 1_555
Mn0 O1 2.300420 1_546
Mn0 O7 2.366141 1_555
Mn1 O9 2.154142 1_655
Mn1 O2 2.164892 1_555
Mn1 O3 2.241816 1_555
Mn1 O5 2.260761 1_645
Mn1 O6 2.292301 1_555
Mn1 O11 2.336940 1_555
Mn2 O10 2.152847 1_556
Mn2 O0 2.187280 1_555
Mn2 O4 2.210914 1_555
Mn2 O7 2.259074 1_555
Mn2 O3 2.275496 1_456
Mn2 O9 2.386427 1_555
Mn3 O11 2.136913 1_565
Mn3 O1 2.171542 1_555
Mn3 O5 2.240143 1_555
Mn3 O4 2.258439 1_564
Mn3 O8 2.290963 1_555
Mn3 O10 2.415048 1_555
In0 O5 2.167112 1_555
In0 O6 2.170998 1_455
In0 O9 2.222431 1_555
In0 O2 2.232537 1_465
In0 O0 2.247949 1_555
In0 O8 2.287208 1_555
In1 O7 2.146854 1_554
In1 O3 2.163188 1_555
In1 O1 2.210311 1_555
In1 O10 2.211891 1_555
In1 O0 2.266297 1_654
In1 O6 2.335481 1_555
O0 Sb1 2.049845 1_566
O1 Sb1 2.016961 1_665
O2 Sb1 2.018798 1_656
O3 Sb1 2.018161 1_655
O4 Sb1 1.991417 1_556
O5 Sb1 2.016183 1_565
O6 Sb0 2.055638 1_555
O7 Sb0 2.026176 1_555
O8 Sb0 2.031031 1_555
O9 Sb0 2.023993 1_555
O10 Sb0 2.026123 1_555
O11 Sb0 1.996344 1_555
