# generated using pymatgen
data_Nd2Co2I
_symmetry_space_group_name_H-M   'P 1'
_cell_length_a   4.05403941
_cell_length_b   4.05403941
_cell_length_c   17.62418855
_cell_angle_alpha   90.00000000
_cell_angle_beta   90.00000000
_cell_angle_gamma   119.99998902
_symmetry_Int_Tables_number   1
_chemical_formula_structural   Nd2Co2I
_chemical_formula_sum   'Nd4 Co4 I2'
_cell_volume   250.85094531
_cell_formula_units_Z   2
loop_
 _symmetry_equiv_pos_site_id
 _symmetry_equiv_pos_as_xyz
  1  'x, y, z'
loop_
 _atom_site_type_symbol
 _atom_site_label
 _atom_site_symmetry_multiplicity
 _atom_site_fract_x
 _atom_site_fract_y
 _atom_site_fract_z
 _atom_site_occupancy
  Nd  Nd0  1  0.00000000  0.00000000  0.10618698  1
  Nd  Nd1  1  0.00000000  0.00000000  0.89381302  1
  Nd  Nd2  1  0.00000000  0.00000000  0.60618698  1
  Nd  Nd3  1  0.00000000  0.00000000  0.39381302  1
  Co  Co0  1  0.33333300  0.66666700  0.50269301  1
  Co  Co1  1  0.66666700  0.33333300  0.49730699  1
  Co  Co2  1  0.66666700  0.33333300  0.00269301  1
  Co  Co3  1  0.33333300  0.66666700  0.99730699  1
  I  I0  1  0.33333300  0.66666700  0.25000000  1
  I  I1  1  0.66666700  0.33333300  0.75000000  1
loop_
_geom_bond_atom_site_label_1
_geom_bond_atom_site_label_2
_geom_bond_distance
_geom_bond_site_symmetry_2
Co0 Co1 2.342523 1_455
Co0 Co1 2.342523 1_565
Co0 Co1 2.342529 1_555
Co0 Nd2 2.967384 1_565
Co0 Nd2 2.967387 1_555
Co0 Nd2 2.967387 1_665
Co0 Nd3 3.026658 1_565
Co0 Nd3 3.026661 1_665
Co0 Nd3 3.026661 1_555
Co1 Nd3 2.967384 1_655
Co1 Nd3 2.967387 1_555
Co1 Nd3 2.967387 1_665
Co1 Nd2 3.026658 1_655
Co1 Nd2 3.026661 1_555
Co1 Nd2 3.026661 1_665
Co2 Co3 2.342523 1_544
Co2 Co3 2.342523 1_654
Co2 Co3 2.342529 1_554
Co2 Nd0 2.967384 1_655
Co2 Nd0 2.967387 1_665
Co2 Nd0 2.967387 1_555
Co2 Nd1 3.026658 1_654
Co2 Nd1 3.026661 1_664
Co2 Nd1 3.026661 1_554
Co3 Nd1 2.967384 1_565
Co3 Nd1 2.967387 1_665
Co3 Nd1 2.967387 1_555
Co3 Nd0 3.026658 1_566
Co3 Nd0 3.026661 1_666
Co3 Nd0 3.026661 1_556
I0 Nd0 3.450005 1_565
I0 Nd3 3.450005 1_565
I0 Nd3 3.450008 1_665
I0 Nd0 3.450008 1_665
I0 Nd0 3.450008 1_555
I0 Nd3 3.450008 1_555
I1 Nd2 3.450005 1_655
I1 Nd1 3.450005 1_655
I1 Nd2 3.450008 1_665
I1 Nd1 3.450008 1_555
I1 Nd2 3.450008 1_555
I1 Nd1 3.450008 1_665
