# generated using pymatgen
data_CaCoO2
_symmetry_space_group_name_H-M   'P 1'
_cell_length_a   3.24531300
_cell_length_b   8.09068200
_cell_length_c   8.58335652
_cell_angle_alpha   84.10734818
_cell_angle_beta   90.00000000
_cell_angle_gamma   90.00000000
_symmetry_Int_Tables_number   1
_chemical_formula_structural   CaCoO2
_chemical_formula_sum   'Ca4 Co4 O8'
_cell_volume   224.18057227
_cell_formula_units_Z   4
loop_
 _symmetry_equiv_pos_site_id
 _symmetry_equiv_pos_as_xyz
  1  'x, y, z'
loop_
 _atom_site_type_symbol
 _atom_site_label
 _atom_site_symmetry_multiplicity
 _atom_site_fract_x
 _atom_site_fract_y
 _atom_site_fract_z
 _atom_site_occupancy
  Ca  Ca0  1  0.25000000  0.71030100  0.95143200  1
  Ca  Ca1  1  0.75000000  0.28969900  0.04856800  1
  Ca  Ca2  1  0.25000000  0.90743000  0.28589900  1
  Ca  Ca3  1  0.75000000  0.09257000  0.71410100  1
  Co  Co0  1  0.25000000  0.41053100  0.74424100  1
  Co  Co1  1  0.75000000  0.73736800  0.63822900  1
  Co  Co2  1  0.25000000  0.26263200  0.36177100  1
  Co  Co3  1  0.75000000  0.58946900  0.25575900  1
  O  O0  1  0.25000000  0.45864600  0.18445800  1
  O  O1  1  0.25000000  0.26906800  0.57923200  1
  O  O2  1  0.75000000  0.73093200  0.42076800  1
  O  O3  1  0.75000000  0.54135400  0.81554200  1
  O  O4  1  0.25000000  0.20130000  0.89557000  1
  O  O5  1  0.25000000  0.86724200  0.70713500  1
  O  O6  1  0.75000000  0.79870000  0.10443000  1
  O  O7  1  0.75000000  0.13275800  0.29286500  1
loop_
_geom_bond_atom_site_label_1
_geom_bond_atom_site_label_2
_geom_bond_distance
_geom_bond_site_symmetry_2
Ca0 O6 2.249884 1_456
Ca0 O6 2.249884 1_556
Ca0 O5 2.337206 1_555
Ca0 O3 2.487822 1_455
Ca0 O3 2.487822 1_555
Ca0 O0 2.703689 1_556
Ca1 O4 2.249884 1_654
Ca1 O4 2.249884 1_554
Ca1 O7 2.337206 1_555
Ca1 O0 2.487822 1_555
Ca1 O0 2.487822 1_655
Ca1 O3 2.703689 1_554
Ca2 O2 2.381773 1_455
Ca2 O2 2.381773 1_555
Ca2 O7 2.445917 1_465
Ca2 O7 2.445917 1_565
Ca2 O6 2.472730 1_455
Ca2 O6 2.472730 1_555
Ca3 O1 2.381773 1_555
Ca3 O1 2.381773 1_655
Ca3 O5 2.445917 1_645
Ca3 O5 2.445917 1_545
Ca3 O4 2.472730 1_655
Ca3 O4 2.472730 1_555
Co0 O1 1.910182 1_555
Co0 O4 2.025174 1_555
Co0 O3 2.064189 1_455
Co0 O3 2.064189 1_555
Co1 O2 1.872608 1_555
Co1 O5 2.052935 1_655
Co1 O5 2.052935 1_555
Co1 O3 2.082247 1_555
Co2 O1 1.872608 1_555
Co2 O7 2.052935 1_455
Co2 O7 2.052935 1_555
Co2 O0 2.082247 1_555
Co3 O2 1.910182 1_555
Co3 O6 2.025174 1_555
Co3 O0 2.064189 1_555
Co3 O0 2.064189 1_655
