# generated using pymatgen
data_Ca2Mn2Si4O17
_symmetry_space_group_name_H-M   'P 1'
_cell_length_a   5.34154018
_cell_length_b   5.34154018
_cell_length_c   11.92910429
_cell_angle_alpha   83.11493757
_cell_angle_beta   83.11493757
_cell_angle_gamma   67.83541571
_symmetry_Int_Tables_number   1
_chemical_formula_structural   Ca2Mn2Si4O17
_chemical_formula_sum   'Ca2 Mn2 Si4 O17'
_cell_volume   311.90410781
_cell_formula_units_Z   1
loop_
 _symmetry_equiv_pos_site_id
 _symmetry_equiv_pos_as_xyz
  1  'x, y, z'
loop_
 _atom_site_type_symbol
 _atom_site_label
 _atom_site_symmetry_multiplicity
 _atom_site_fract_x
 _atom_site_fract_y
 _atom_site_fract_z
 _atom_site_occupancy
  Ca  Ca0  1  0.70336300  0.70336300  0.72903200  1
  Ca  Ca1  1  0.29663700  0.29663700  0.27096800  1
  Mn  Mn0  1  0.00000000  0.50000000  0.00000000  1
  Mn  Mn1  1  0.50000000  0.00000000  0.00000000  1
  Si  Si0  1  0.04769600  0.04769600  0.84907900  1
  Si  Si1  1  0.95230400  0.95230400  0.15092100  1
  Si  Si2  1  0.11893600  0.11893600  0.59016500  1
  Si  Si3  1  0.88106400  0.88106400  0.40983500  1
  O  O0  1  0.90902400  0.36672900  0.87406700  1
  O  O1  1  0.36672900  0.90902400  0.87406700  1
  O  O2  1  0.09097600  0.63327100  0.12593300  1
  O  O3  1  0.63327100  0.09097600  0.12593300  1
  O  O4  1  0.87165200  0.87165200  0.92297000  1
  O  O5  1  0.12834800  0.12834800  0.07703000  1
  O  O6  1  0.00593400  0.00593400  0.71861000  1
  O  O7  1  0.99406600  0.99406600  0.28139000  1
  O  O8  1  0.98252000  0.44782300  0.59200000  1
  O  O9  1  0.44782300  0.98252000  0.59200000  1
  O  O10  1  0.01748000  0.55217700  0.40800000  1
  O  O11  1  0.55217700  0.01748000  0.40800000  1
  O  O12  1  0.00000000  0.00000000  0.50000000  1
  O  O13  1  0.36423300  0.36423300  0.94053400  1
  O  O14  1  0.63576700  0.63576700  0.05946600  1
  O  O15  1  0.41529800  0.41529800  0.75120000  1
  O  O16  1  0.58470200  0.58470200  0.24880000  1
loop_
_geom_bond_atom_site_label_1
_geom_bond_atom_site_label_2
_geom_bond_distance
_geom_bond_site_symmetry_2
Ca0 O9 2.274550 1_555
Ca0 O8 2.274550 1_555
Ca0 O1 2.377568 1_555
Ca0 O0 2.377568 1_555
Ca0 O15 2.529139 1_555
Ca0 O6 2.667245 1_665
Ca1 O10 2.274550 1_555
Ca1 O11 2.274550 1_555
Ca1 O3 2.377568 1_555
Ca1 O2 2.377568 1_555
Ca1 O16 2.529139 1_555
Ca1 O7 2.667245 1_445
Mn0 O13 1.882074 1_554
Mn0 O14 1.882074 1_455
Mn0 O2 1.921502 1_555
Mn0 O0 1.921502 1_454
Mn0 O4 1.985482 1_454
Mn0 O5 1.985482 1_555
Mn1 O13 1.882074 1_554
Mn1 O14 1.882074 1_545
Mn1 O3 1.921502 1_555
Mn1 O1 1.921502 1_544
Mn1 O4 1.985482 1_544
Mn1 O5 1.985482 1_555
O0 Si0 1.630333 1_655
O1 Si0 1.630333 1_565
O2 Si1 1.630333 1_455
O3 Si1 1.630333 1_545
O4 Si0 1.677858 1_665
O5 Si1 1.677858 1_445
O6 Si0 1.651019 1_555
O6 Si2 1.705239 1_555
O7 Si1 1.651019 1_555
O7 Si3 1.705239 1_555
O8 Si2 1.630082 1_655
O9 Si2 1.630082 1_565
O10 Si3 1.630082 1_455
O11 Si3 1.630082 1_545
O12 Si2 1.611305 1_555
O12 Si3 1.611305 1_445
