# generated using pymatgen
data_BaNaMg6
_symmetry_space_group_name_H-M   'P 1'
_cell_length_a   5.40028100
_cell_length_b   6.99945600
_cell_length_c   12.30134400
_cell_angle_alpha   90.00000000
_cell_angle_beta   90.00000000
_cell_angle_gamma   90.00000000
_symmetry_Int_Tables_number   1
_chemical_formula_structural   BaNaMg6
_chemical_formula_sum   'Ba2 Na2 Mg12'
_cell_volume   464.97886164
_cell_formula_units_Z   2
loop_
 _symmetry_equiv_pos_site_id
 _symmetry_equiv_pos_as_xyz
  1  'x, y, z'
loop_
 _atom_site_type_symbol
 _atom_site_label
 _atom_site_symmetry_multiplicity
 _atom_site_fract_x
 _atom_site_fract_y
 _atom_site_fract_z
 _atom_site_occupancy
  Ba  Ba0  1  0.50000000  0.50000000  0.16895400  1
  Ba  Ba1  1  0.50000000  0.00000000  0.66895400  1
  Na  Na0  1  0.00000000  0.50000000  0.34391700  1
  Na  Na1  1  0.00000000  0.00000000  0.84391700  1
  Mg  Mg0  1  0.00000000  0.77093900  0.07543800  1
  Mg  Mg1  1  0.00000000  0.22906100  0.07543800  1
  Mg  Mg2  1  0.00000000  0.00000000  0.33189800  1
  Mg  Mg3  1  0.50000000  0.24928600  0.42211300  1
  Mg  Mg4  1  0.50000000  0.75071400  0.42211300  1
  Mg  Mg5  1  0.50000000  0.00000000  0.16013000  1
  Mg  Mg6  1  0.00000000  0.27093900  0.57543800  1
  Mg  Mg7  1  0.00000000  0.72906100  0.57543800  1
  Mg  Mg8  1  0.00000000  0.50000000  0.83189800  1
  Mg  Mg9  1  0.50000000  0.74928600  0.92211300  1
  Mg  Mg10  1  0.50000000  0.25071400  0.92211300  1
  Mg  Mg11  1  0.50000000  0.50000000  0.66013000  1
loop_
_geom_bond_atom_site_label_1
_geom_bond_atom_site_label_2
_geom_bond_distance
_geom_bond_site_symmetry_2
Ba0 Na0 3.452980 1_555
Ba0 Na0 3.452980 1_655
Ba0 Mg0 3.494359 1_655
Ba0 Mg0 3.494359 1_555
Ba0 Mg1 3.494359 1_655
Ba0 Mg1 3.494359 1_555
Ba0 Mg5 3.501411 1_565
Ba0 Mg5 3.501411 1_555
Ba0 Mg10 3.502106 1_554
Ba0 Mg9 3.502106 1_554
Ba0 Mg4 3.574599 1_555
Ba0 Mg3 3.574599 1_555
Ba1 Na1 3.452980 1_555
Ba1 Na1 3.452980 1_655
Ba1 Mg6 3.494359 1_555
Ba1 Mg6 3.494359 1_655
Ba1 Mg7 3.494359 1_545
Ba1 Mg7 3.494359 1_645
Ba1 Mg11 3.501411 1_555
Ba1 Mg11 3.501411 1_545
Ba1 Mg3 3.502106 1_555
Ba1 Mg4 3.502106 1_545
Ba1 Mg10 3.574599 1_555
Ba1 Mg9 3.574599 1_545
Mg0 Na1 3.268301 1_564
Mg0 Mg5 3.308585 1_465
Mg0 Mg5 3.308585 1_565
Mg0 Na0 3.808404 1_555
Mg1 Na1 3.268301 1_554
Mg1 Mg5 3.308585 1_455
Mg1 Mg5 3.308585 1_555
Mg1 Na0 3.808404 1_555
Mg2 Mg5 3.428619 1_555
Mg2 Mg5 3.428619 1_455
Mg2 Na0 3.502850 1_545
Mg2 Na0 3.502850 1_555
Mg3 Na0 3.360890 1_555
Mg3 Na0 3.360890 1_655
Mg4 Na0 3.360890 1_655
Mg4 Na0 3.360890 1_555
Mg5 Mg9 3.413548 1_544
Mg6 Na0 3.268301 1_555
Mg6 Na1 3.808404 1_555
Mg7 Na0 3.268301 1_555
Mg7 Na1 3.808404 1_565
Mg8 Na1 3.502850 1_555
Mg8 Na1 3.502850 1_565
Mg9 Na1 3.360890 1_565
Mg9 Na1 3.360890 1_665
Mg10 Na1 3.360890 1_655
Mg10 Na1 3.360890 1_555
Mg10 Mg5 3.413548 1_556
Mg11 Mg7 3.308585 1_655
Mg11 Mg6 3.308585 1_555
Mg11 Mg6 3.308585 1_655
Mg11 Mg7 3.308585 1_555
Mg11 Mg4 3.413548 1_555
Mg11 Mg3 3.413548 1_555
Mg11 Mg8 3.428619 1_555
Mg11 Mg8 3.428619 1_655
