# generated using pymatgen
data_Ag3S4(O3F)4
_symmetry_space_group_name_H-M   'P 1'
_cell_length_a   13.31975900
_cell_length_b   5.44682900
_cell_length_c   20.23641811
_cell_angle_alpha   79.74007621
_cell_angle_beta   90.00000000
_cell_angle_gamma   90.00000000
_symmetry_Int_Tables_number   1
_chemical_formula_structural   Ag3S4(O3F)4
_chemical_formula_sum   'Ag12 S16 O48 F16'
_cell_volume   1444.68513195
_cell_formula_units_Z   4
loop_
 _symmetry_equiv_pos_site_id
 _symmetry_equiv_pos_as_xyz
  1  'x, y, z'
loop_
 _atom_site_type_symbol
 _atom_site_label
 _atom_site_symmetry_multiplicity
 _atom_site_fract_x
 _atom_site_fract_y
 _atom_site_fract_z
 _atom_site_occupancy
  Ag  Ag0  1  0.43244200  0.20568800  0.05048800  1
  Ag  Ag1  1  0.93244200  0.79431200  0.44951200  1
  Ag  Ag2  1  0.56755800  0.79431200  0.94951200  1
  Ag  Ag3  1  0.06755800  0.20568800  0.55048800  1
  Ag  Ag4  1  0.36468300  0.25054400  0.55577600  1
  Ag  Ag5  1  0.86468300  0.74945600  0.94422400  1
  Ag  Ag6  1  0.63531700  0.74945600  0.44422400  1
  Ag  Ag7  1  0.13531700  0.25054400  0.05577600  1
  Ag  Ag8  1  0.98289800  0.97474100  0.76115500  1
  Ag  Ag9  1  0.48289800  0.02525900  0.73884500  1
  Ag  Ag10  1  0.01710200  0.02525900  0.23884500  1
  Ag  Ag11  1  0.51710200  0.97474100  0.26115500  1
  S  S0  1  0.72756100  0.03312000  0.77919900  1
  S  S1  1  0.22756100  0.96688000  0.72080100  1
  S  S2  1  0.27243900  0.96688000  0.22080100  1
  S  S3  1  0.77243900  0.03312000  0.27919900  1
  S  S4  1  0.96688000  0.61406500  0.64983800  1
  S  S5  1  0.46688000  0.38593500  0.85016200  1
  S  S6  1  0.03312000  0.38593500  0.35016200  1
  S  S7  1  0.53312000  0.61406500  0.14983800  1
  S  S8  1  0.50731200  0.67122800  0.61658200  1
  S  S9  1  0.00731200  0.32877200  0.88341800  1
  S  S10  1  0.49268800  0.32877200  0.38341800  1
  S  S11  1  0.99268800  0.67122800  0.11658200  1
  S  S12  1  0.21999700  0.77082000  0.49334100  1
  S  S13  1  0.71999700  0.22918000  0.00665900  1
  S  S14  1  0.78000300  0.22918000  0.50665900  1
  S  S15  1  0.28000300  0.77082000  0.99334100  1
  O  O0  1  0.82121900  0.01235000  0.74262700  1
  O  O1  1  0.32121900  0.98765000  0.75737300  1
  O  O2  1  0.17878100  0.98765000  0.25737300  1
  O  O3  1  0.67878100  0.01235000  0.24262700  1
  O  O4  1  0.71288400  0.86596800  0.84209200  1
  O  O5  1  0.21288400  0.13403200  0.65790800  1
  O  O6  1  0.28711600  0.13403200  0.15790800  1
  O  O7  1  0.78711600  0.86596800  0.34209200  1
  O  O8  1  0.64583900  0.05416900  0.72984300  1
  O  O9  1  0.14583900  0.94583100  0.77015700  1
  O  O10  1  0.35416100  0.94583100  0.27015700  1
  O  O11  1  0.85416100  0.05416900  0.22984300  1
  O  O12  1  0.98984300  0.87434700  0.65734100  1
  O  O13  1  0.48984300  0.12565300  0.84265900  1
  O  O14  1  0.01015700  0.12565300  0.34265900  1
  O  O15  1  0.51015700  0.87434700  0.15734100  1
  O  O16  1  0.99991000  0.56584100  0.58472700  1
  O  O17  1  0.49991000  0.43415900  0.91527300  1
  O  O18  1  0.00009000  0.43415900  0.41527300  1
  O  O19  1  0.50009000  0.56584100  0.08472700  1
  O  O20  1  0.99144900  0.43088300  0.70795500  1
  O  O21  1  0.49144900  0.56911700  0.79204500  1
  O  O22  1  0.00855100  0.56911700  0.29204500  1
  O  O23  1  0.50855100  0.43088300  0.20795500  1
  O  O24  1  0.47408400  0.90525700  0.63770500  1
  O  O25  1  0.97408400  0.09474300  0.86229500  1
  O  O26  1  0.52591600  0.09474300  0.36229500  1
  O  O27  1  0.02591600  0.90525700  0.13770500  1
  O  O28  1  0.52392000  0.70254600  0.54509000  1
  O  O29  1  0.02392000  0.29745400  0.95491000  1
  O  O30  1  0.47608000  0.29745400  0.45491000  1
  O  O31  1  0.97608000  0.70254600  0.04509000  1
  O  O32  1  0.45047700  0.45022800  0.64616900  1
  O  O33  1  0.95047700  0.54977200  0.85383100  1
  O  O34  1  0.54952300  0.54977200  0.35383100  1
  O  O35  1  0.04952300  0.45022800  0.14616900  1
  O  O36  1  0.29373200  0.86674700  0.53480100  1
  O  O37  1  0.79373200  0.13325300  0.96519900  1
  O  O38  1  0.70626800  0.13325300  0.46519900  1
  O  O39  1  0.20626800  0.86674700  0.03480100  1
  O  O40  1  0.12379900  0.90394900  0.48558000  1
  O  O41  1  0.62379900  0.09605100  0.01442000  1
  O  O42  1  0.87620100  0.09605100  0.51442000  1
  O  O43  1  0.37620100  0.90394900  0.98558000  1
  O  O44  1  0.21140900  0.49798200  0.50705000  1
  O  O45  1  0.71140900  0.50201800  0.99295000  1
  O  O46  1  0.78859100  0.50201800  0.49295000  1
  O  O47  1  0.28859100  0.49798200  0.00705000  1
  F  F0  1  0.73391300  0.30341600  0.79942600  1
  F  F1  1  0.23391300  0.69658400  0.70057400  1
  F  F2  1  0.26608700  0.69658400  0.20057400  1
  F  F3  1  0.76608700  0.30341600  0.29942600  1
  F  F4  1  0.84748100  0.61003100  0.64519800  1
  F  F5  1  0.34748100  0.38996900  0.85480200  1
  F  F6  1  0.15251900  0.38996900  0.35480200  1
  F  F7  1  0.65251900  0.61003100  0.14519800  1
  F  F8  1  0.61629300  0.62676100  0.64958200  1
  F  F9  1  0.11629300  0.37323900  0.85041800  1
  F  F10  1  0.38370700  0.37323900  0.35041800  1
  F  F11  1  0.88370700  0.62676100  0.14958200  1
  F  F12  1  0.26616200  0.82896200  0.41928100  1
  F  F13  1  0.76616200  0.17103800  0.08071900  1
  F  F14  1  0.73383800  0.17103800  0.58071900  1
  F  F15  1  0.23383800  0.82896200  0.91928100  1
loop_
_geom_bond_atom_site_label_1
_geom_bond_atom_site_label_2
_geom_bond_distance
_geom_bond_site_symmetry_2
Ag0 O19 2.371581 1_555
Ag0 O43 2.399302 1_544
Ag0 O47 2.545614 1_555
Ag0 O41 2.746116 1_555
Ag0 O15 2.759374 1_545
Ag1 O18 2.371581 1_655
Ag1 O42 2.399302 1_565
Ag1 O46 2.545614 1_555
Ag1 O40 2.746116 1_655
Ag1 O14 2.759374 1_665
Ag2 O17 2.371581 1_555
Ag2 O41 2.399302 1_566
Ag2 O45 2.545614 1_555
Ag2 O43 2.746116 1_555
Ag2 O13 2.759374 1_565
Ag3 O16 2.371581 1_455
Ag3 O40 2.399302 1_545
Ag3 O44 2.545614 1_555
Ag3 O42 2.746116 1_455
Ag3 O12 2.759374 1_445
Ag4 O36 2.399889 1_545
Ag4 O30 2.499493 1_555
Ag4 O44 2.546238 1_555
Ag4 O32 2.558062 1_555
Ag4 O24 2.701583 1_545
Ag5 O37 2.399889 1_565
Ag5 O31 2.499493 1_556
Ag5 O45 2.546238 1_555
Ag5 O33 2.558062 1_555
Ag5 O25 2.701583 1_565
Ag6 O38 2.399889 1_565
Ag6 O28 2.499493 1_555
Ag6 O46 2.546238 1_555
Ag6 O34 2.558062 1_555
Ag6 O26 2.701583 1_565
Ag7 O39 2.399889 1_545
Ag7 O29 2.499493 1_554
Ag7 O47 2.546238 1_555
Ag7 O35 2.558062 1_555
Ag7 O27 2.701583 1_545
Ag8 O9 2.181311 1_655
Ag8 O0 2.189259 1_565
Ag8 O25 2.259779 1_565
Ag8 O12 2.265010 1_555
Ag8 O20 2.528247 1_565
Ag8 O33 2.741402 1_555
Ag9 O8 2.181311 1_555
Ag9 O1 2.189259 1_545
Ag9 O24 2.259779 1_545
Ag9 O13 2.265010 1_555
Ag9 O21 2.528247 1_545
Ag9 O32 2.741402 1_555
Ag10 O11 2.181311 1_455
Ag10 O2 2.189259 1_545
Ag10 O27 2.259779 1_545
Ag10 O14 2.265010 1_555
Ag10 O22 2.528247 1_545
Ag10 O35 2.741402 1_555
Ag11 O10 2.181311 1_555
Ag11 O3 2.189259 1_565
Ag11 O26 2.259779 1_565
Ag11 O15 2.265010 1_555
Ag11 O23 2.528247 1_565
Ag11 O34 2.741402 1_555
O0 S0 1.465132 1_555
O1 S1 1.465132 1_555
O2 S2 1.465132 1_555
O3 S3 1.465132 1_555
O4 S0 1.440206 1_565
O5 S1 1.440206 1_545
O6 S2 1.440206 1_545
O7 S3 1.440206 1_565
O8 S0 1.467924 1_555
O9 S1 1.467924 1_555
O10 S2 1.467924 1_555
O11 S3 1.467924 1_555
O12 S4 1.484315 1_555
O13 S5 1.484315 1_555
O14 S6 1.484315 1_555
O15 S7 1.484315 1_555
O16 S4 1.456690 1_555
O17 S5 1.456690 1_555
O18 S6 1.456690 1_555
O19 S7 1.456690 1_555
O20 S4 1.437975 1_555
O21 S5 1.437975 1_555
O22 S6 1.437975 1_555
O23 S7 1.437975 1_555
O24 S8 1.482432 1_555
O25 S9 1.482432 1_655
O26 S10 1.482432 1_555
O27 S11 1.482432 1_455
O28 S8 1.443324 1_555
O29 S9 1.443324 1_555
O30 S10 1.443324 1_555
O31 S11 1.443324 1_555
O32 S8 1.457342 1_555
O33 S9 1.457342 1_655
O34 S10 1.457342 1_555
O35 S11 1.457342 1_455
O36 S12 1.448335 1_555
O37 S13 1.448335 1_556
O38 S14 1.448335 1_555
O39 S15 1.448335 1_554
O40 S12 1.466877 1_555
O41 S13 1.466877 1_555
O42 S14 1.466877 1_555
O43 S15 1.466877 1_555
O44 S12 1.466861 1_555
O45 S13 1.466861 1_556
O46 S14 1.466861 1_555
O47 S15 1.466861 1_554
F0 S0 1.599035 1_555
F1 S1 1.599035 1_555
F2 S2 1.599035 1_555
F3 S3 1.599035 1_555
F4 S4 1.593518 1_555
F5 S5 1.593518 1_555
F6 S6 1.593518 1_555
F7 S7 1.593518 1_555
F8 S8 1.598170 1_555
F9 S9 1.598170 1_555
F10 S10 1.598170 1_555
F11 S11 1.598170 1_555
F12 S12 1.598580 1_555
F13 S13 1.598580 1_555
F14 S14 1.598580 1_555
F15 S15 1.598580 1_555
