# generated using pymatgen
data_Ti2Zn2SnO7
_symmetry_space_group_name_H-M   'P 1'
_cell_length_a   6.45027900
_cell_length_b   8.11208598
_cell_length_c   8.11208509
_cell_angle_alpha   61.47189208
_cell_angle_beta   90.00000000
_cell_angle_gamma   90.00000000
_symmetry_Int_Tables_number   1
_chemical_formula_structural   Ti2Zn2SnO7
_chemical_formula_sum   'Ti4 Zn4 Sn2 O14'
_cell_volume   372.92912421
_cell_formula_units_Z   2
loop_
 _symmetry_equiv_pos_site_id
 _symmetry_equiv_pos_as_xyz
  1  'x, y, z'
loop_
 _atom_site_type_symbol
 _atom_site_label
 _atom_site_symmetry_multiplicity
 _atom_site_fract_x
 _atom_site_fract_y
 _atom_site_fract_z
 _atom_site_occupancy
  Ti  Ti0  1  0.87829600  0.30456900  0.93018000  1
  Ti  Ti1  1  0.87829600  0.06982000  0.69543100  1
  Ti  Ti2  1  0.37829600  0.69543100  0.06982000  1
  Ti  Ti3  1  0.37829600  0.93018000  0.30456900  1
  Zn  Zn0  1  0.62533000  0.70704200  0.70464200  1
  Zn  Zn1  1  0.62533000  0.29535800  0.29295800  1
  Zn  Zn2  1  0.12533000  0.29295800  0.29535800  1
  Zn  Zn3  1  0.12533000  0.70464200  0.70704200  1
  Sn  Sn0  1  0.38293200  0.25421400  0.74578600  1
  Sn  Sn1  1  0.88293200  0.74578600  0.25421400  1
  O  O0  1  0.87578400  0.07503700  0.92496300  1
  O  O1  1  0.37578400  0.92496300  0.07503700  1
  O  O2  1  0.64762200  0.43176900  0.80437500  1
  O  O3  1  0.64762200  0.19562500  0.56823100  1
  O  O4  1  0.14762200  0.56823100  0.19562500  1
  O  O5  1  0.14762200  0.80437500  0.43176900  1
  O  O6  1  0.11144400  0.42885000  0.81021200  1
  O  O7  1  0.11144400  0.18978800  0.57115000  1
  O  O8  1  0.61144400  0.57115000  0.18978800  1
  O  O9  1  0.61144400  0.81021200  0.42885000  1
  O  O10  1  0.87595000  0.25172900  0.17817200  1
  O  O11  1  0.87595000  0.82182800  0.74827100  1
  O  O12  1  0.37595000  0.74827100  0.82182800  1
  O  O13  1  0.37595000  0.17817200  0.25172900  1
loop_
_geom_bond_atom_site_label_1
_geom_bond_atom_site_label_2
_geom_bond_distance
_geom_bond_site_symmetry_2
O0 Ti1 1.882632 1_555
O0 Ti0 1.882632 1_555
O0 Sn1 2.730501 1_546
O1 Ti3 1.882632 1_555
O1 Ti2 1.882632 1_555
O1 Sn0 2.730501 1_564
O2 Ti0 1.820511 1_555
O2 Zn0 1.983944 1_555
O2 Sn0 2.422666 1_555
O3 Ti1 1.820511 1_555
O3 Zn1 1.983944 1_555
O3 Sn0 2.422666 1_555
O4 Ti2 1.820511 1_555
O4 Zn2 1.983944 1_555
O4 Sn1 2.422666 1_455
O5 Ti3 1.820511 1_555
O5 Zn3 1.983944 1_555
O5 Sn1 2.422666 1_455
O6 Ti0 1.813277 1_455
O6 Zn3 1.981227 1_555
O6 Sn0 2.460465 1_555
O7 Ti1 1.813277 1_455
O7 Zn2 1.981227 1_555
O7 Sn0 2.460464 1_555
O8 Ti2 1.813277 1_555
O8 Zn1 1.981227 1_555
O8 Sn1 2.460465 1_555
O9 Ti3 1.813277 1_555
O9 Zn0 1.981227 1_555
O9 Sn1 2.460464 1_555
O10 Ti0 1.845905 1_554
O10 Zn2 1.976545 1_655
O10 Zn1 1.979997 1_555
O11 Ti1 1.845905 1_565
O11 Zn3 1.976545 1_655
O11 Zn0 1.979997 1_555
O12 Ti2 1.845905 1_556
O12 Zn0 1.976545 1_555
O12 Zn3 1.979997 1_555
O13 Ti3 1.845905 1_545
O13 Zn1 1.976545 1_555
O13 Zn2 1.979997 1_555
