# generated using pymatgen
data_CaAgP
_symmetry_space_group_name_H-M   'P 1'
_cell_length_a   7.02965944
_cell_length_b   7.02965770
_cell_length_c   4.19710426
_cell_angle_alpha   90.00000000
_cell_angle_beta   90.00000000
_cell_angle_gamma   119.99999351
_symmetry_Int_Tables_number   1
_chemical_formula_structural   CaAgP
_chemical_formula_sum   'Ca3 Ag3 P3'
_cell_volume   179.61759693
_cell_formula_units_Z   3
loop_
 _symmetry_equiv_pos_site_id
 _symmetry_equiv_pos_as_xyz
  1  'x, y, z'
loop_
 _atom_site_type_symbol
 _atom_site_label
 _atom_site_symmetry_multiplicity
 _atom_site_fract_x
 _atom_site_fract_y
 _atom_site_fract_z
 _atom_site_occupancy
  Ca  Ca0  1  0.58838669  -0.00000000  0.50000000  1
  Ca  Ca1  1  0.41161331  0.41161331  0.50000000  1
  Ca  Ca2  1  0.00000000  0.58838669  0.50000000  1
  Ag  Ag0  1  0.25246970  -0.00000000  0.00000000  1
  Ag  Ag1  1  0.74753030  0.74753030  0.00000000  1
  Ag  Ag2  1  0.00000000  0.25246970  -0.00000000  1
  P  P0  1  0.00000000  -0.00000000  0.50000000  1
  P  P1  1  0.33333300  0.66666700  0.00000000  1
  P  P2  1  0.66666700  0.33333300  0.00000000  1
loop_
_geom_bond_atom_site_label_1
_geom_bond_atom_site_label_2
_geom_bond_distance
_geom_bond_site_symmetry_2
Ca0 P0 2.893501 1_655
Ca0 P2 2.984621 1_556
Ca0 P2 2.984621 1_555
Ca0 P1 2.984623 1_546
Ca0 P1 2.984623 1_545
Ca1 P0 2.893501 1_555
Ca1 P1 2.984626 1_555
Ca1 P1 2.984626 1_556
Ca1 P2 2.984626 1_556
Ca1 P2 2.984626 1_555
Ca2 P0 2.893501 1_565
Ca2 P1 2.984622 1_555
Ca2 P1 2.984622 1_556
Ca2 P2 2.984623 1_455
Ca2 P2 2.984623 1_456
Ag0 P1 2.673158 1_545
Ag0 P2 2.673163 1_555
Ag0 P0 2.748409 1_555
Ag0 P0 2.748409 1_554
Ag0 Ag2 3.074002 1_555
Ag0 Ag1 3.074002 1_445
Ag0 Ca0 3.159121 1_555
Ag0 Ca0 3.159121 1_554
Ag0 Ca1 3.284933 1_554
Ag0 Ca1 3.284933 1_555
Ag0 Ca2 3.284933 1_544
Ag0 Ca2 3.284933 1_545
Ag1 P2 2.673165 1_555
Ag1 P1 2.673165 1_555
Ag1 P0 2.748409 1_665
Ag1 P0 2.748409 1_664
Ag1 Ag2 3.074002 1_665
Ag1 Ca1 3.159121 1_554
Ag1 Ca1 3.159121 1_555
Ag1 Ca0 3.284933 1_565
Ag1 Ca0 3.284933 1_564
Ag1 Ca2 3.284933 1_655
Ag1 Ca2 3.284933 1_654
Ag2 P2 2.673158 1_455
Ag2 P1 2.673163 1_555
Ag2 P0 2.748409 1_555
Ag2 P0 2.748409 1_554
Ag2 Ca2 3.159121 1_554
Ag2 Ca2 3.159121 1_555
Ag2 Ca0 3.284933 1_455
Ag2 Ca0 3.284933 1_454
Ag2 Ca1 3.284933 1_554
Ag2 Ca1 3.284933 1_555
