# generated using pymatgen
data_Ga2P4C6NO14
_symmetry_space_group_name_H-M   'P 1'
_cell_length_a   12.39643752
_cell_length_b   12.39643752
_cell_length_c   10.52904615
_cell_angle_alpha   75.65947761
_cell_angle_beta   75.65947761
_cell_angle_gamma   43.84979138
_symmetry_Int_Tables_number   1
_chemical_formula_structural   Ga2P4C6NO14
_chemical_formula_sum   'Ga4 P8 C12 N2 O28'
_cell_volume   1080.22172500
_cell_formula_units_Z   2
loop_
 _symmetry_equiv_pos_site_id
 _symmetry_equiv_pos_as_xyz
  1  'x, y, z'
loop_
 _atom_site_type_symbol
 _atom_site_label
 _atom_site_symmetry_multiplicity
 _atom_site_fract_x
 _atom_site_fract_y
 _atom_site_fract_z
 _atom_site_occupancy
  Ga  Ga0  1  0.26890400  0.28335400  0.56135600  1
  Ga  Ga1  1  0.71664600  0.73109600  0.93864400  1
  Ga  Ga2  1  0.73109600  0.71664600  0.43864400  1
  Ga  Ga3  1  0.28335400  0.26890400  0.06135600  1
  P  P0  1  0.07693000  0.41694300  0.31702400  1
  P  P1  1  0.58305700  0.92307000  0.18297600  1
  P  P2  1  0.92307000  0.58305700  0.68297600  1
  P  P3  1  0.41694300  0.07693000  0.81702400  1
  P  P4  1  0.14382800  0.62627400  0.34511700  1
  P  P5  1  0.37372600  0.85617200  0.15488300  1
  P  P6  1  0.85617200  0.37372600  0.65488300  1
  P  P7  1  0.62627400  0.14382800  0.84511700  1
  C  C0  1  0.17142100  0.49237300  0.25383400  1
  C  C1  1  0.50762700  0.82857900  0.24616600  1
  C  C2  1  0.82857900  0.50762700  0.74616600  1
  C  C3  1  0.49237300  0.17142100  0.75383400  1
  C  C4  1  0.69927100  0.27074900  0.34017700  1
  C  C5  1  0.72925100  0.30072900  0.15982300  1
  C  C6  1  0.30072900  0.72925100  0.65982300  1
  C  C7  1  0.27074900  0.69927100  0.84017700  1
  C  C8  1  0.70437400  0.20143300  0.23909800  1
  C  C9  1  0.79856700  0.29562600  0.26090200  1
  C  C10  1  0.29562600  0.79856700  0.76090200  1
  C  C11  1  0.20143300  0.70437400  0.73909800  1
  N  N0  1  0.86694400  0.13305600  0.25000000  1
  N  N1  1  0.13305600  0.86694400  0.75000000  1
  O  O0  1  0.13738500  0.31978900  0.45022200  1
  O  O1  1  0.68021100  0.86261500  0.04977800  1
  O  O2  1  0.86261500  0.68021100  0.54977800  1
  O  O3  1  0.31978900  0.13738500  0.95022200  1
  O  O4  1  0.90049000  0.56099700  0.32701100  1
  O  O5  1  0.43900300  0.09951000  0.17298900  1
  O  O6  1  0.09951000  0.43900300  0.67298900  1
  O  O7  1  0.56099700  0.90049000  0.82701100  1
  O  O8  1  0.07768600  0.77702500  0.27222900  1
  O  O9  1  0.22297500  0.92231400  0.22777100  1
  O  O10  1  0.92231400  0.22297500  0.72777100  1
  O  O11  1  0.77702500  0.07768600  0.77222900  1
  O  O12  1  0.21017900  0.54430400  0.47248400  1
  O  O13  1  0.45569600  0.78982100  0.02751600  1
  O  O14  1  0.78982100  0.45569600  0.52751600  1
  O  O15  1  0.54430400  0.21017900  0.97248400  1
  O  O16  1  0.12720300  0.32599400  0.20517700  1
  O  O17  1  0.67400600  0.87279700  0.29482300  1
  O  O18  1  0.87279700  0.67400600  0.79482300  1
  O  O19  1  0.32599400  0.12720300  0.70517700  1
  O  O20  1  0.25595100  0.45483600  0.15038800  1
  O  O21  1  0.54516400  0.74404900  0.34961200  1
  O  O22  1  0.74404900  0.54516400  0.84961200  1
  O  O23  1  0.45483600  0.25595100  0.65038800  1
  O  O24  1  0.43088400  0.21030700  0.43300500  1
  O  O25  1  0.78969300  0.56911600  0.06699500  1
  O  O26  1  0.56911600  0.78969300  0.56699500  1
  O  O27  1  0.21030700  0.43088400  0.93300500  1
loop_
_geom_bond_atom_site_label_1
_geom_bond_atom_site_label_2
_geom_bond_distance
_geom_bond_site_symmetry_2
Ga0 O24 1.821456 1_555
Ga0 O6 1.889691 1_555
Ga0 O19 1.908903 1_555
Ga0 O0 1.962767 1_555
Ga1 O25 1.821456 1_556
Ga1 O7 1.889691 1_555
Ga1 O18 1.908903 1_555
Ga1 O1 1.962767 1_556
Ga2 O26 1.821456 1_555
Ga2 O4 1.889691 1_555
Ga2 O17 1.908903 1_555
Ga2 O2 1.962767 1_555
Ga3 O27 1.821456 1_554
Ga3 O5 1.889691 1_555
Ga3 O16 1.908903 1_555
Ga3 O3 1.962767 1_554
C0 O20 1.217910 1_555
C0 P0 1.890657 1_555
C0 P4 1.898562 1_555
C1 O21 1.217910 1_555
C1 P1 1.890657 1_555
C1 P5 1.898562 1_555
C2 O22 1.217910 1_555
C2 P2 1.890657 1_555
C2 P6 1.898562 1_555
C3 O23 1.217910 1_555
C3 P3 1.890657 1_555
C3 P7 1.898562 1_555
C4 C8 1.488715 1_555
C4 C9 1.489294 1_555
C4 N0 1.686244 1_555
C5 C9 1.488715 1_555
C5 C8 1.489294 1_555
C5 N0 1.686244 1_555
C6 N1 1.686244 1_555
C7 N1 1.686244 1_555
C8 N0 1.547786 1_555
C9 N0 1.547786 1_555
C10 C6 1.488715 1_555
C10 C7 1.489294 1_555
C10 N1 1.547786 1_555
C11 C7 1.488715 1_555
C11 C6 1.489294 1_555
C11 N1 1.547786 1_555
O0 P0 1.536595 1_555
O1 P1 1.536595 1_555
O2 P2 1.536595 1_555
O3 P3 1.536595 1_555
O4 P0 1.526287 1_655
O5 P1 1.526287 1_545
O6 P2 1.526287 1_455
O7 P3 1.526287 1_565
O8 P4 1.464523 1_555
O9 P5 1.464523 1_555
O10 P6 1.464523 1_555
O11 P7 1.464523 1_555
O12 P4 1.474243 1_555
O13 P5 1.474243 1_555
O14 P6 1.474243 1_555
O15 P7 1.474243 1_555
O16 P0 1.525482 1_555
O17 P1 1.525482 1_555
O18 P2 1.525482 1_555
O19 P3 1.525482 1_555
