# generated using pymatgen
data_La2Ni3
_symmetry_space_group_name_H-M   'P 1'
_cell_length_a   4.96928830
_cell_length_b   5.38980268
_cell_length_c   7.95932569
_cell_angle_alpha   90.00000000
_cell_angle_beta   90.00000000
_cell_angle_gamma   117.45099703
_symmetry_Int_Tables_number   1
_chemical_formula_structural   La2Ni3
_chemical_formula_sum   'La4 Ni6'
_cell_volume   189.17572861
_cell_formula_units_Z   2
loop_
 _symmetry_equiv_pos_site_id
 _symmetry_equiv_pos_as_xyz
  1  'x, y, z'
loop_
 _atom_site_type_symbol
 _atom_site_label
 _atom_site_symmetry_multiplicity
 _atom_site_fract_x
 _atom_site_fract_y
 _atom_site_fract_z
 _atom_site_occupancy
  La  La0  1  0.15453118  0.30906135  0.59515549  1
  La  La1  1  0.84546882  0.69093865  0.40484451  1
  La  La2  1  0.34546882  0.69093865  0.09515549  1
  La  La3  1  0.65453118  0.30906135  0.90484451  1
  Ni  Ni0  1  0.50000000  -0.00000000  0.50000000  1
  Ni  Ni1  1  -0.00000000  -0.00000000  -0.00000000  1
  Ni  Ni2  1  0.66124327  0.82248554  0.75000000  1
  Ni  Ni3  1  0.83875673  0.17751446  0.25000000  1
  Ni  Ni4  1  0.16124327  0.82248554  0.75000000  1
  Ni  Ni5  1  0.33875673  0.17751446  0.25000000  1
loop_
_geom_bond_atom_site_label_1
_geom_bond_atom_site_label_2
_geom_bond_distance
_geom_bond_site_symmetry_2
La0 Ni4 2.911781 1_545
La0 Ni2 2.911781 1_445
La0 Ni0 2.988678 1_555
La0 Ni0 2.988683 1_455
La0 Ni2 3.015405 1_555
La0 Ni4 3.015405 1_555
La0 Ni5 3.079993 1_555
La0 Ni3 3.079997 1_455
La0 Ni0 3.390395 1_565
La0 Ni1 3.545178 1_556
La1 Ni3 2.911781 1_565
La1 Ni5 2.911781 1_665
La1 Ni0 2.988678 1_565
La1 Ni0 2.988683 1_665
La1 Ni5 3.015405 1_555
La1 Ni3 3.015405 1_555
La1 Ni2 3.079993 1_555
La1 Ni4 3.079997 1_655
La1 Ni0 3.390395 1_555
La1 Ni1 3.545178 1_665
La2 Ni5 2.911781 1_565
La2 Ni3 2.911781 1_565
La2 Ni1 2.988678 1_565
La2 Ni1 2.988683 1_665
La2 Ni3 3.015405 1_455
La2 Ni5 3.015405 1_555
La2 Ni4 3.079993 1_554
La2 Ni2 3.079997 1_554
La2 Ni1 3.390395 1_555
La2 Ni0 3.545178 1_565
La3 Ni2 2.911781 1_545
La3 Ni4 2.911781 1_545
La3 Ni1 2.988678 1_656
La3 Ni1 2.988683 1_556
La3 Ni4 3.015405 1_655
La3 Ni2 3.015405 1_555
La3 Ni3 3.079993 1_556
La3 Ni5 3.079997 1_556
La3 Ni1 3.390395 1_666
La3 Ni0 3.545178 1_555
Ni0 Ni3 2.494726 1_555
Ni0 Ni4 2.494726 1_545
Ni0 Ni2 2.494728 1_545
Ni0 Ni5 2.494728 1_555
Ni1 Ni2 2.494726 1_444
Ni1 Ni5 2.494726 1_555
Ni1 Ni4 2.494728 1_544
Ni1 Ni3 2.494728 1_455
Ni2 Ni4 2.484644 1_655
Ni2 Ni4 2.484644 1_555
Ni3 Ni5 2.484644 1_555
Ni3 Ni5 2.484644 1_655
