# generated using pymatgen
data_NaTbTi4O12
_symmetry_space_group_name_H-M   'P 1'
_cell_length_a   5.42962200
_cell_length_b   5.42962200
_cell_length_c   7.81843334
_cell_angle_alpha   90.00000000
_cell_angle_beta   90.00000000
_cell_angle_gamma   90.00000000
_symmetry_Int_Tables_number   1
_chemical_formula_structural   NaTbTi4O12
_chemical_formula_sum   'Na1 Tb1 Ti4 O12'
_cell_volume   230.49363101
_cell_formula_units_Z   1
loop_
 _symmetry_equiv_pos_site_id
 _symmetry_equiv_pos_as_xyz
  1  'x, y, z'
loop_
 _atom_site_type_symbol
 _atom_site_label
 _atom_site_symmetry_multiplicity
 _atom_site_fract_x
 _atom_site_fract_y
 _atom_site_fract_z
 _atom_site_occupancy
  Na  Na0  1  0.50000000  0.50000000  0.00000000  1
  Tb  Tb0  1  0.00000000  -0.00000000  0.50000000  1
  Ti  Ti0  1  0.00000000  0.50000000  0.76046464  1
  Ti  Ti1  1  0.00000000  0.50000000  0.23953536  1
  Ti  Ti2  1  0.50000000  -0.00000000  0.76046464  1
  Ti  Ti3  1  0.50000000  -0.00000000  0.23953536  1
  O  O0  1  0.24077683  0.24077683  0.72698116  1
  O  O1  1  0.24077683  0.24077683  0.27301884  1
  O  O2  1  0.75922317  0.75922317  0.72698116  1
  O  O3  1  0.75922317  0.75922317  0.27301884  1
  O  O4  1  0.75922317  0.24077683  0.72698116  1
  O  O5  1  0.75922317  0.24077683  0.27301884  1
  O  O6  1  0.24077683  0.75922317  0.72698116  1
  O  O7  1  0.24077683  0.75922317  0.27301884  1
  O  O8  1  0.00000000  0.50000000  0.50000000  1
  O  O9  1  0.00000000  0.50000000  0.00000000  1
  O  O10  1  0.50000000  -0.00000000  0.50000000  1
  O  O11  1  0.50000000  -0.00000000  0.00000000  1
loop_
_geom_bond_atom_site_label_1
_geom_bond_atom_site_label_2
_geom_bond_distance
_geom_bond_site_symmetry_2
Na0 O9 2.714811 1_555
Na0 O9 2.714811 1_655
Na0 O11 2.714811 1_555
Na0 O11 2.714811 1_565
Na0 O1 2.918639 1_555
Na0 O7 2.918639 1_555
Na0 O5 2.918639 1_555
Na0 O2 2.918639 1_554
Na0 O0 2.918639 1_554
Na0 O4 2.918639 1_554
Na0 O6 2.918639 1_554
Na0 O3 2.918639 1_555
O0 Ti0 1.938723 1_555
O0 Ti2 1.938723 1_555
O0 Tb0 2.562722 1_555
O1 Ti3 1.938723 1_555
O1 Ti1 1.938723 1_555
O1 Tb0 2.562722 1_555
O2 Ti2 1.938723 1_565
O2 Ti0 1.938723 1_655
O2 Tb0 2.562722 1_665
O3 Ti3 1.938723 1_565
O3 Ti1 1.938723 1_655
O3 Tb0 2.562722 1_665
O4 Ti2 1.938723 1_555
O4 Ti0 1.938723 1_655
O4 Tb0 2.562722 1_655
O5 Ti3 1.938723 1_555
O5 Ti1 1.938723 1_655
O5 Tb0 2.562722 1_655
O6 Ti0 1.938723 1_555
O6 Ti2 1.938723 1_565
O6 Tb0 2.562722 1_565
O7 Ti1 1.938723 1_555
O7 Ti3 1.938723 1_565
O7 Tb0 2.562722 1_565
O8 Ti1 2.036425 1_555
O8 Ti0 2.036425 1_555
O8 Tb0 2.714811 1_555
O8 Tb0 2.714811 1_565
O9 Ti0 1.872791 1_554
O9 Ti1 1.872791 1_555
O10 Ti3 2.036425 1_555
O10 Ti2 2.036425 1_555
O10 Tb0 2.714811 1_555
O10 Tb0 2.714811 1_655
O11 Ti2 1.872791 1_554
O11 Ti3 1.872791 1_555
