# generated using pymatgen
data_Mg(BiO2)2
_symmetry_space_group_name_H-M   'P 1'
_cell_length_a   6.86178104
_cell_length_b   6.86178104
_cell_length_c   16.55201200
_cell_angle_alpha   90.00000000
_cell_angle_beta   90.00000000
_cell_angle_gamma   120.00001006
_symmetry_Int_Tables_number   1
_chemical_formula_structural   Mg(BiO2)2
_chemical_formula_sum   'Mg6 Bi12 O24'
_cell_volume   674.92434192
_cell_formula_units_Z   6
loop_
 _symmetry_equiv_pos_site_id
 _symmetry_equiv_pos_as_xyz
  1  'x, y, z'
loop_
 _atom_site_type_symbol
 _atom_site_label
 _atom_site_symmetry_multiplicity
 _atom_site_fract_x
 _atom_site_fract_y
 _atom_site_fract_z
 _atom_site_occupancy
  Mg  Mg0  1  0.66666700  0.33333300  0.95634400  1
  Mg  Mg1  1  0.33333300  0.66666700  0.62360400  1
  Mg  Mg2  1  0.33333300  0.66666700  0.99824900  1
  Mg  Mg3  1  0.00000000  0.00000000  0.29397600  1
  Mg  Mg4  1  0.66666700  0.33333300  0.70864200  1
  Mg  Mg5  1  0.33333300  0.66666700  0.37474600  1
  Bi  Bi0  1  0.17129600  0.82870400  0.83564700  1
  Bi  Bi1  1  0.17129600  0.34259200  0.83564700  1
  Bi  Bi2  1  0.83330700  0.16669300  0.50128600  1
  Bi  Bi3  1  0.65740800  0.82870400  0.83564700  1
  Bi  Bi4  1  0.00000000  0.00000000  0.67036000  1
  Bi  Bi5  1  0.83330700  0.66661400  0.50128600  1
  Bi  Bi6  1  0.49863800  0.50136200  0.16576600  1
  Bi  Bi7  1  0.33338600  0.16669300  0.50128600  1
  Bi  Bi8  1  0.00272400  0.50136200  0.16576600  1
  Bi  Bi9  1  0.66666700  0.33333300  0.33264800  1
  Bi  Bi10  1  0.49863800  0.99727600  0.16576600  1
  Bi  Bi11  1  0.00000000  0.00000000  0.04737000  1
  O  O0  1  0.48979900  0.97959800  0.92155700  1
  O  O1  1  0.33333300  0.66666700  0.75049100  1
  O  O2  1  0.02040200  0.51020100  0.92155700  1
  O  O3  1  0.48979900  0.51020100  0.92155700  1
  O  O4  1  0.83138700  0.16861300  0.75015600  1
  O  O5  1  0.16771900  0.33543800  0.58310400  1
  O  O6  1  0.33722600  0.16861300  0.75015600  1
  O  O7  1  0.00000000  0.00000000  0.91634900  1
  O  O8  1  0.66456200  0.83228100  0.58310400  1
  O  O9  1  0.00000000  0.00000000  0.41838700  1
  O  O10  1  0.83138700  0.66277400  0.75015600  1
  O  O11  1  0.16771900  0.83228100  0.58310400  1
  O  O12  1  0.50061400  0.49938600  0.41471900  1
  O  O13  1  0.83859500  0.67719000  0.24836000  1
  O  O14  1  0.99877100  0.49938600  0.41471900  1
  O  O15  1  0.66666700  0.33333300  0.58412600  1
  O  O16  1  0.66666700  0.33333300  0.08008500  1
  O  O17  1  0.32281000  0.16140500  0.24836000  1
  O  O18  1  0.50061400  0.00122900  0.41471900  1
  O  O19  1  0.83859500  0.16140500  0.24836000  1
  O  O20  1  0.18904600  0.81095400  0.07798400  1
  O  O21  1  0.33333300  0.66666700  0.24899700  1
  O  O22  1  0.62190800  0.81095400  0.07798400  1
  O  O23  1  0.18904600  0.37809200  0.07798400  1
loop_
_geom_bond_atom_site_label_1
_geom_bond_atom_site_label_2
_geom_bond_distance
_geom_bond_site_symmetry_2
Mg0 O16 2.048163 1_556
Mg0 O0 2.179496 1_545
Mg0 O2 2.179496 1_655
Mg0 O3 2.179502 1_555
Mg1 O11 2.079337 1_555
Mg1 O8 2.079342 1_555
Mg1 O5 2.079342 1_555
Mg1 O1 2.100235 1_555
Mg2 O20 2.163908 1_556
Mg2 O23 2.163912 1_556
Mg2 O22 2.163912 1_556
Mg2 O0 2.251544 1_555
Mg2 O2 2.251544 1_555
Mg2 O3 2.251549 1_555
Mg3 O9 2.059252 1_555
Mg3 O17 2.061533 1_555
Mg3 O13 2.061533 1_445
Mg3 O19 2.061534 1_455
Mg4 O15 2.060990 1_555
Mg4 O4 2.074780 1_555
Mg4 O10 2.074785 1_555
Mg4 O6 2.074785 1_555
Mg5 O21 2.081399 1_555
Mg5 O18 2.095330 1_565
Mg5 O14 2.095330 1_455
Mg5 O12 2.095330 1_555
Bi0 O2 2.368043 1_555
Bi0 O0 2.368043 1_555
Bi0 O1 2.386507 1_555
Bi0 O7 2.434949 1_565
Bi0 O10 2.466399 1_455
Bi0 O6 2.466399 1_565
Bi1 O3 2.368042 1_555
Bi1 O2 2.368043 1_555
Bi1 O1 2.386511 1_555
Bi1 O7 2.434948 1_555
Bi1 O4 2.466399 1_455
Bi1 O6 2.466399 1_555
Bi2 O8 2.404832 1_545
Bi2 O5 2.404832 1_655
Bi2 O15 2.408842 1_555
Bi2 O9 2.409916 1_655
Bi2 O14 2.441665 1_555
Bi2 O18 2.441665 1_555
Bi3 O3 2.368042 1_555
Bi3 O0 2.368043 1_555
Bi3 O1 2.386511 1_555
Bi3 O7 2.434948 1_665
Bi3 O4 2.466399 1_565
Bi3 O10 2.466399 1_555
Bi4 O10 2.400066 1_445
Bi4 O6 2.400066 1_555
Bi4 O4 2.400066 1_455
Bi4 O8 2.461558 1_445
Bi4 O5 2.461558 1_555
Bi4 O11 2.461558 1_545
Bi5 O11 2.404832 1_655
Bi5 O8 2.404832 1_555
Bi5 O15 2.408846 1_555
Bi5 O9 2.409915 1_665
Bi5 O14 2.441660 1_555
Bi5 O12 2.441665 1_555
Bi6 O22 2.354266 1_555
Bi6 O23 2.354266 1_555
Bi6 O21 2.399523 1_555
Bi6 O17 2.439614 1_555
Bi6 O13 2.439614 1_555
Bi6 O16 2.449357 1_555
Bi7 O11 2.404832 1_545
Bi7 O5 2.404832 1_555
Bi7 O15 2.408846 1_555
Bi7 O9 2.409915 1_555
Bi7 O18 2.441660 1_555
Bi7 O12 2.441665 1_555
Bi8 O20 2.354266 1_555
Bi8 O23 2.354266 1_555
Bi8 O21 2.399518 1_555
Bi8 O19 2.439614 1_455
Bi8 O13 2.439615 1_455
Bi8 O16 2.449352 1_455
Bi9 O14 2.395859 1_555
Bi9 O18 2.395859 1_555
Bi9 O12 2.395869 1_555
Bi9 O19 2.474209 1_555
Bi9 O13 2.474214 1_555
Bi9 O17 2.474214 1_555
Bi10 O20 2.354266 1_555
Bi10 O22 2.354266 1_555
Bi10 O21 2.399518 1_555
Bi10 O19 2.439614 1_565
Bi10 O17 2.439615 1_565
Bi10 O16 2.449352 1_565
Bi11 O7 2.168661 1_554
Bi11 O23 2.303235 1_555
Bi11 O22 2.303235 1_445
Bi11 O20 2.303235 1_545
