# generated using pymatgen
data_Ni4IrN4
_symmetry_space_group_name_H-M   'P 1'
_cell_length_a   5.06091711
_cell_length_b   4.80517361
_cell_length_c   8.72739300
_cell_angle_alpha   66.65405699
_cell_angle_beta   99.09822922
_cell_angle_gamma   84.93094786
_symmetry_Int_Tables_number   1
_chemical_formula_structural   Ni4IrN4
_chemical_formula_sum   'Ni8 Ir2 N8'
_cell_volume   189.72166944
_cell_formula_units_Z   2
loop_
 _symmetry_equiv_pos_site_id
 _symmetry_equiv_pos_as_xyz
  1  'x, y, z'
loop_
 _atom_site_type_symbol
 _atom_site_label
 _atom_site_symmetry_multiplicity
 _atom_site_fract_x
 _atom_site_fract_y
 _atom_site_fract_z
 _atom_site_occupancy
  Ni  Ni0  1  0.78148600  0.56597700  0.21513700  1
  Ni  Ni1  1  0.21851400  0.43402300  0.78486300  1
  Ni  Ni2  1  0.87517000  0.28864700  0.95569400  1
  Ni  Ni3  1  0.12483000  0.71135300  0.04430600  1
  Ni  Ni4  1  0.69168400  0.51258600  0.59915700  1
  Ni  Ni5  1  0.30831600  0.48741400  0.40084300  1
  Ni  Ni6  1  0.13364000  0.07904700  0.59959900  1
  Ni  Ni7  1  0.86636000  0.92095300  0.40040100  1
  Ir  Ir0  1  0.69423500  0.88658200  0.78435700  1
  Ir  Ir1  1  0.30576500  0.11341800  0.21564300  1
  N  N0  1  0.92559600  0.76406300  0.64647700  1
  N  N1  1  0.07440400  0.23593700  0.35352300  1
  N  N2  1  0.77493600  0.90691400  0.00579600  1
  N  N3  1  0.22506400  0.09308600  0.99420400  1
  N  N4  1  0.53318600  0.50214200  0.93003500  1
  N  N5  1  0.46681400  0.49785800  0.06996500  1
  N  N6  1  0.58348300  0.73151200  0.34164000  1
  N  N7  1  0.41651700  0.26848800  0.65836000  1
loop_
_geom_bond_atom_site_label_1
_geom_bond_atom_site_label_2
_geom_bond_distance
_geom_bond_site_symmetry_2
Ir0 N2 1.954050 1_556
Ir0 N7 2.002095 1_565
Ir0 N0 2.012678 1_555
Ir0 N4 2.103713 1_555
Ir1 N3 1.954050 1_554
Ir1 N6 2.002095 1_545
Ir1 N1 2.012678 1_555
Ir1 N5 2.103713 1_555
N0 Ni6 1.869190 1_665
N0 Ni4 1.877728 1_555
N0 Ni1 1.916147 1_655
N0 Ni7 1.934855 1_555
N1 Ni7 1.869190 1_445
N1 Ni5 1.877728 1_555
N1 Ni0 1.916147 1_455
N1 Ni6 1.934855 1_555
N2 Ni3 1.843664 1_655
N2 Ni2 1.847174 1_564
N2 Ni0 1.903144 1_555
N3 Ni2 1.843664 1_455
N3 Ni3 1.847174 1_546
N3 Ni1 1.903144 1_555
N4 N5 1.309837 1_556
N4 Ni2 1.865388 1_555
N4 Ni1 2.007786 1_555
N5 Ni3 1.865388 1_555
N5 Ni0 2.007786 1_555
N6 Ni7 1.873301 1_555
N6 Ni5 1.902090 1_555
N6 Ni0 1.939281 1_555
N6 Ni4 2.023046 1_555
N7 Ni6 1.873301 1_555
N7 Ni4 1.902090 1_555
N7 Ni1 1.939281 1_555
N7 Ni5 2.023046 1_555
