# generated using pymatgen
data_La2VFeO6
_symmetry_space_group_name_H-M   'P 1'
_cell_length_a   5.66366304
_cell_length_b   7.93533000
_cell_length_c   5.58603504
_cell_angle_alpha   90.00413383
_cell_angle_beta   89.98652183
_cell_angle_gamma   90.00016494
_symmetry_Int_Tables_number   1
_chemical_formula_structural   La2VFeO6
_chemical_formula_sum   'La4 V2 Fe2 O12'
_cell_volume   251.05336224
_cell_formula_units_Z   2
loop_
 _symmetry_equiv_pos_site_id
 _symmetry_equiv_pos_as_xyz
  1  'x, y, z'
loop_
 _atom_site_type_symbol
 _atom_site_label
 _atom_site_symmetry_multiplicity
 _atom_site_fract_x
 _atom_site_fract_y
 _atom_site_fract_z
 _atom_site_occupancy
  La  La0  1  0.54137100  0.25017200  0.51040500  1
  La  La1  1  0.04135100  0.24985900  0.98958500  1
  La  La2  1  0.45863100  0.74985300  0.48962000  1
  La  La3  1  0.95861700  0.75014800  0.01039300  1
  V  V0  1  0.00000200  0.00000100  0.49999600  1
  V  V1  1  0.50000100  0.49999600  0.00000100  1
  Fe  Fe0  1  0.00000500  0.49999600  0.50000200  1
  Fe  Fe1  1  0.50000300  0.99999900  0.99999700  1
  O  O0  1  0.98070800  0.25041900  0.41399900  1
  O  O1  1  0.48071300  0.24960900  0.08591700  1
  O  O2  1  0.01929800  0.74957800  0.58600100  1
  O  O3  1  0.51928300  0.75038500  0.91408800  1
  O  O4  1  0.78648700  0.04595800  0.78945400  1
  O  O5  1  0.28650200  0.45399700  0.71038800  1
  O  O6  1  0.21351600  0.95403700  0.21054500  1
  O  O7  1  0.71349900  0.54599900  0.28961500  1
  O  O8  1  0.21424700  0.54496100  0.21065500  1
  O  O9  1  0.71426200  0.95502500  0.28923800  1
  O  O10  1  0.78575300  0.45503000  0.78934100  1
  O  O11  1  0.28575200  0.04497900  0.71076000  1
loop_
_geom_bond_atom_site_label_1
_geom_bond_atom_site_label_2
_geom_bond_distance
_geom_bond_site_symmetry_2
La0 O1 2.396046 1_555
La0 O5 2.438575 1_555
La0 O11 2.449347 1_555
La0 O0 2.545743 1_555
La0 O4 2.642815 1_555
La0 O10 2.643257 1_555
La0 O9 2.823041 1_545
La0 O7 2.825249 1_555
La1 O0 2.395465 1_456
La1 O4 2.439642 1_455
La1 O10 2.449194 1_455
La1 O1 2.546041 1_556
La1 O5 2.642647 1_555
La1 O11 2.642676 1_555
La1 O8 2.822714 1_556
La1 O6 2.825909 1_546
La2 O3 2.395931 1_555
La2 O7 2.438780 1_555
La2 O9 2.449345 1_555
La2 O2 2.545691 1_555
La2 O6 2.642752 1_555
La2 O8 2.643524 1_555
La2 O11 2.822813 1_565
La2 O5 2.825389 1_555
La3 O2 2.395374 1_654
La3 O6 2.439750 1_655
La3 O8 2.449432 1_655
La3 O3 2.545854 1_554
La3 O9 2.642591 1_555
La3 O7 2.642685 1_555
La3 O10 2.822713 1_554
La3 O4 2.825710 1_564
Fe0 O5 2.036726 1_555
Fe0 O7 2.036776 1_455
Fe0 O0 2.040812 1_455
Fe0 O2 2.040844 1_555
Fe0 O10 2.052129 1_455
Fe0 O8 2.052129 1_555
Fe1 O4 2.036675 1_565
Fe1 O6 2.036709 1_556
Fe1 O1 2.040944 1_566
Fe1 O3 2.040957 1_555
Fe1 O11 2.052147 1_565
Fe1 O9 2.052183 1_556
O0 V0 2.047348 1_655
O1 V1 2.046989 1_555
O2 V0 2.047398 1_565
O3 V1 2.046998 1_556
O4 V0 2.051531 1_655
O5 V1 2.052667 1_556
O6 V0 2.051507 1_565
O7 V1 2.052674 1_555
O8 V1 2.032313 1_555
O9 V0 2.033041 1_665
O10 V1 2.032325 1_556
O11 V0 2.033109 1_555
