# generated using pymatgen
data_Ta36B4C35
_symmetry_space_group_name_H-M   'P 1'
_cell_length_a   3.16516204
_cell_length_b   3.16516204
_cell_length_c   100.46237217
_cell_angle_alpha   89.98753867
_cell_angle_beta   89.98753867
_cell_angle_gamma   60.00121154
_symmetry_Int_Tables_number   1
_chemical_formula_structural   Ta36B4C35
_chemical_formula_sum   'Ta36 B4 C35'
_cell_volume   871.62814506
_cell_formula_units_Z   1
loop_
 _symmetry_equiv_pos_site_id
 _symmetry_equiv_pos_as_xyz
  1  'x, y, z'
loop_
 _atom_site_type_symbol
 _atom_site_label
 _atom_site_symmetry_multiplicity
 _atom_site_fract_x
 _atom_site_fract_y
 _atom_site_fract_z
 _atom_site_occupancy
  Ta  Ta0  1  0.99942500  0.99942500  0.92356100  1
  Ta  Ta1  1  0.33348900  0.33348900  0.87333100  1
  Ta  Ta2  1  0.66669800  0.66669800  0.89921700  1
  Ta  Ta3  1  0.00013900  0.00013900  0.84750600  1
  Ta  Ta4  1  0.66698700  0.66698700  0.82128900  1
  Ta  Ta5  1  0.33356200  0.33356200  0.79554500  1
  Ta  Ta6  1  0.66690200  0.66690200  0.74381700  1
  Ta  Ta7  1  0.00031700  0.00031700  0.76957000  1
  Ta  Ta8  1  0.33353900  0.33353900  0.71801900  1
  Ta  Ta9  1  0.00020700  0.00020700  0.69235200  1
  Ta  Ta10  1  0.66671900  0.66671900  0.66664900  1
  Ta  Ta11  1  0.99999400  0.99999400  0.61533500  1
  Ta  Ta12  1  0.33328500  0.33328500  0.64102800  1
  Ta  Ta13  1  0.33336300  0.33336300  0.56405200  1
  Ta  Ta14  1  0.66665800  0.66665800  0.58971500  1
  Ta  Ta15  1  0.00010000  0.00010000  0.53845500  1
  Ta  Ta16  1  0.33345100  0.33345100  0.48725600  1
  Ta  Ta17  1  0.66671200  0.66671200  0.51282800  1
  Ta  Ta18  1  0.66683800  0.66683800  0.43606300  1
  Ta  Ta19  1  0.00002400  0.00002400  0.46166500  1
  Ta  Ta20  1  0.33364300  0.33364300  0.41044200  1
  Ta  Ta21  1  0.66687400  0.66687400  0.35935300  1
  Ta  Ta22  1  0.00022500  0.00022500  0.38478300  1
  Ta  Ta23  1  0.00009700  0.00009700  0.30824900  1
  Ta  Ta24  1  0.33354700  0.33354700  0.33385900  1
  Ta  Ta25  1  0.33320300  0.33320300  0.25615200  1
  Ta  Ta26  1  0.66683600  0.66683600  0.28243100  1
  Ta  Ta27  1  0.99993500  0.99993500  0.23031300  1
  Ta  Ta28  1  0.66634700  0.66634700  0.20455600  1
  Ta  Ta29  1  0.33350300  0.33350300  0.17888900  1
  Ta  Ta30  1  0.66744900  0.66744900  0.12738200  1
  Ta  Ta31  1  0.99959500  0.99959500  0.15309500  1
  Ta  Ta32  1  0.33271400  0.33271400  0.10151700  1
  Ta  Ta33  1  0.00263800  0.00263800  0.07544800  1
  Ta  Ta34  1  0.33747300  0.33747300  0.02324600  1
  Ta  Ta35  1  0.66904200  0.66904200  0.04946100  1
  B  B0  1  0.00075500  0.00075500  0.94628000  1
  B  B1  1  0.00002200  0.00002200  0.26929100  1
  B  B2  1  0.00456900  0.00456900  0.03586700  1
  B  B3  1  0.65755100  0.65755100  0.00288300  1
  C  C0  1  0.31950400  0.31950400  0.00252400  1
  C  C1  1  0.66737700  0.66737700  0.94503500  1
  C  C2  1  0.33295500  0.33295500  0.91237400  1
  C  C3  1  0.00013300  0.00013300  0.88610100  1
  C  C4  1  0.66682100  0.66682100  0.86055200  1
  C  C5  1  0.33352600  0.33352600  0.83450000  1
  C  C6  1  0.00021400  0.00021400  0.80842900  1
  C  C7  1  0.66700400  0.66700400  0.78253100  1
  C  C8  1  0.33365600  0.33365600  0.75669600  1
  C  C9  1  0.00021200  0.00021200  0.73090100  1
  C  C10  1  0.66682000  0.66682000  0.70517600  1
  C  C11  1  0.33351100  0.33351100  0.67949000  1
  C  C12  1  0.99994100  0.99994100  0.65383400  1
  C  C13  1  0.66670300  0.66670300  0.62817300  1
  C  C14  1  0.33327600  0.33327600  0.60253500  1
  C  C15  1  0.00002500  0.00002500  0.57687700  1
  C  C16  1  0.66673600  0.66673600  0.55126300  1
  C  C17  1  0.33344300  0.33344300  0.52564600  1
  C  C18  1  0.00008000  0.00008000  0.50004000  1
  C  C19  1  0.66676800  0.66676800  0.47445300  1
  C  C20  1  0.33338500  0.33338500  0.44885100  1
  C  C21  1  0.00024100  0.00024100  0.42324400  1
  C  C22  1  0.66699100  0.66699100  0.39763900  1
  C  C23  1  0.33356000  0.33356000  0.37208700  1
  C  C24  1  0.00021400  0.00021400  0.34656400  1
  C  C25  1  0.66682000  0.66682000  0.32105100  1
  C  C26  1  0.33349000  0.33349000  0.29553700  1
  C  C27  1  0.66651000  0.66651000  0.24305000  1
  C  C28  1  0.33310100  0.33310100  0.21746300  1
  C  C29  1  0.99992900  0.99992900  0.19175500  1
  C  C30  1  0.66662800  0.66662800  0.16602400  1
  C  C31  1  0.33356200  0.33356200  0.14021100  1
  C  C32  1  0.00009000  0.00009000  0.11439700  1
  C  C33  1  0.66764500  0.66764500  0.08848400  1
  C  C34  1  0.33591700  0.33591700  0.06268600  1
loop_
_geom_bond_atom_site_label_1
_geom_bond_atom_site_label_2
_geom_bond_distance
_geom_bond_site_symmetry_2
B0 C1 1.831567 1_545
B0 C1 1.831567 1_455
B0 C1 1.831947 1_445
B0 Ta0 2.282418 1_445
B1 Ta25 2.253319 1_555
B1 Ta26 2.253400 1_445
B1 Ta25 2.254765 1_455
B1 Ta25 2.254765 1_545
B1 Ta26 2.254813 1_545
B1 Ta26 2.254813 1_455
B2 Ta34 2.221999 1_555
B2 Ta34 2.225320 1_455
B2 Ta34 2.225320 1_545
B2 Ta35 2.276704 1_545
B2 Ta35 2.276704 1_455
B2 Ta35 2.290700 1_445
B3 C0 1.815001 1_655
B3 C0 1.815001 1_565
B3 C0 1.853597 1_555
C0 Ta34 2.084135 1_555
C2 Ta0 2.145025 1_545
C2 Ta0 2.145025 1_455
C2 Ta0 2.146014 1_445
C2 Ta2 2.254577 1_545
C2 Ta2 2.254577 1_455
C2 Ta2 2.256875 1_555
C3 Ta1 2.232599 1_555
C3 Ta1 2.232869 1_545
C3 Ta1 2.232869 1_455
C3 Ta2 2.252848 1_455
C3 Ta2 2.252848 1_545
C3 Ta2 2.253096 1_445
C4 Ta1 2.233010 1_555
C4 Ta1 2.233443 1_565
C4 Ta1 2.233443 1_655
C4 Ta3 2.248471 1_665
C4 Ta3 2.249002 1_565
C4 Ta3 2.249002 1_655
C5 Ta3 2.246440 1_555
C5 Ta3 2.246508 1_565
C5 Ta3 2.246508 1_655
C5 Ta4 2.258387 1_455
C5 Ta4 2.258387 1_545
C5 Ta4 2.258805 1_555
C6 Ta4 2.237227 1_445
C6 Ta4 2.238366 1_455
C6 Ta4 2.238366 1_545
C6 Ta5 2.239161 1_555
C6 Ta5 2.239488 1_455
C6 Ta5 2.239488 1_545
C7 Ta7 2.243484 1_665
C7 Ta7 2.244047 1_655
C7 Ta7 2.244047 1_565
C7 Ta5 2.246853 1_655
C7 Ta5 2.246853 1_565
C7 Ta5 2.247152 1_555
C8 Ta6 2.238415 1_555
C8 Ta7 2.238540 1_555
C8 Ta7 2.238927 1_655
C8 Ta7 2.238927 1_565
C8 Ta6 2.239426 1_545
C8 Ta6 2.239426 1_455
C9 Ta8 2.238951 1_555
C9 Ta8 2.239419 1_455
C9 Ta8 2.239419 1_545
C9 Ta6 2.240850 1_445
C9 Ta6 2.241433 1_455
C9 Ta6 2.241433 1_545
C10 Ta9 2.235858 1_665
C10 Ta9 2.235921 1_565
C10 Ta9 2.235921 1_655
C10 Ta8 2.236483 1_555
C10 Ta8 2.237259 1_655
C10 Ta8 2.237259 1_565
C11 Ta10 2.236041 1_555
C11 Ta10 2.237307 1_455
C11 Ta10 2.237307 1_545
C11 Ta9 2.237688 1_555
C11 Ta9 2.238309 1_655
C11 Ta9 2.238309 1_565
C12 Ta10 2.234598 1_555
C12 Ta12 2.234624 1_665
C12 Ta12 2.234976 1_565
C12 Ta12 2.234976 1_655
C12 Ta10 2.235770 1_565
C12 Ta10 2.235770 1_655
C13 Ta11 2.236239 1_555
C13 Ta11 2.236947 1_455
C13 Ta11 2.236947 1_545
C13 Ta12 2.237648 1_565
C13 Ta12 2.237648 1_655
C13 Ta12 2.237792 1_555
C14 Ta11 2.233999 1_445
C14 Ta11 2.234768 1_455
C14 Ta11 2.234768 1_545
C14 Ta14 2.235604 1_555
C14 Ta14 2.235701 1_455
C14 Ta14 2.235701 1_545
C15 Ta13 2.235696 1_555
C15 Ta13 2.236089 1_455
C15 Ta13 2.236089 1_545
C15 Ta14 2.236579 1_445
C15 Ta14 2.236777 1_455
C15 Ta14 2.236777 1_545
C16 Ta13 2.233772 1_555
C16 Ta13 2.233928 1_565
C16 Ta13 2.233928 1_655
C16 Ta15 2.234830 1_665
C16 Ta15 2.235047 1_655
C16 Ta15 2.235047 1_565
C17 Ta15 2.234793 1_555
C17 Ta17 2.234982 1_555
C17 Ta15 2.235152 1_655
C17 Ta15 2.235152 1_565
C17 Ta17 2.235839 1_545
C17 Ta17 2.235839 1_455
C18 Ta16 2.233474 1_555
C18 Ta16 2.233644 1_455
C18 Ta16 2.233644 1_545
C18 Ta17 2.233692 1_445
C18 Ta17 2.233882 1_545
C18 Ta17 2.233882 1_455
C19 Ta19 2.233189 1_665
C19 Ta19 2.234133 1_565
C19 Ta19 2.234133 1_655
C19 Ta16 2.234330 1_555
C19 Ta16 2.234863 1_655
C19 Ta16 2.234863 1_565
C20 Ta18 2.233691 1_455
C20 Ta18 2.233691 1_545
C20 Ta18 2.234073 1_555
C20 Ta19 2.235163 1_555
C20 Ta19 2.235401 1_565
C20 Ta19 2.235401 1_655
C21 Ta20 2.234615 1_455
C21 Ta20 2.234615 1_545
C21 Ta20 2.234653 1_555
C21 Ta18 2.235596 1_545
C21 Ta18 2.235596 1_455
C21 Ta18 2.235641 1_445
C22 Ta20 2.234469 1_555
C22 Ta20 2.234794 1_655
C22 Ta20 2.234794 1_565
C22 Ta22 2.237027 1_665
C22 Ta22 2.238118 1_655
C22 Ta22 2.238118 1_565
C23 Ta22 2.228242 1_555
C23 Ta22 2.228652 1_655
C23 Ta22 2.228652 1_565
C23 Ta21 2.230335 1_555
C23 Ta21 2.230887 1_545
C23 Ta21 2.230887 1_455
C24 Ta24 2.228751 1_555
C24 Ta24 2.229175 1_455
C24 Ta24 2.229175 1_545
C24 Ta21 2.233624 1_445
C24 Ta21 2.234002 1_545
C24 Ta21 2.234002 1_455
C25 Ta23 2.234093 1_665
C25 Ta24 2.234422 1_555
C25 Ta23 2.234895 1_655
C25 Ta23 2.234895 1_565
C25 Ta24 2.235251 1_565
C25 Ta24 2.235251 1_655
C26 Ta23 2.229423 1_555
C26 Ta23 2.229443 1_565
C26 Ta23 2.229443 1_655
C26 Ta26 2.252113 1_555
C26 Ta26 2.252458 1_455
C26 Ta26 2.252458 1_545
C27 Ta27 2.230811 1_455
C27 Ta27 2.230811 1_545
C27 Ta27 2.231006 1_555
C27 Ta25 2.251705 1_555
C27 Ta25 2.252310 1_655
C27 Ta25 2.252310 1_565
C28 Ta27 2.236374 1_445
C28 Ta27 2.237923 1_455
C28 Ta27 2.237923 1_545
C28 Ta28 2.240041 1_555
C28 Ta28 2.241053 1_455
C28 Ta28 2.241053 1_545
C29 Ta28 2.234154 1_655
C29 Ta28 2.234154 1_565
C29 Ta28 2.235402 1_555
C29 Ta29 2.237937 1_655
C29 Ta29 2.237937 1_565
C29 Ta29 2.239128 1_665
C30 Ta29 2.237061 1_555
C30 Ta29 2.238884 1_565
C30 Ta29 2.238884 1_655
C30 Ta31 2.240074 1_555
C30 Ta31 2.242957 1_455
C30 Ta31 2.242957 1_545
C31 Ta30 2.235092 1_545
C31 Ta30 2.235092 1_455
C31 Ta31 2.238105 1_545
C31 Ta31 2.238105 1_455
C31 Ta30 2.238388 1_555
C31 Ta31 2.241931 1_445
C32 Ta32 2.235691 1_555
C32 Ta32 2.240879 1_455
C32 Ta32 2.240879 1_545
C32 Ta30 2.241886 1_445
C32 Ta30 2.246949 1_455
C32 Ta30 2.246949 1_545
C33 Ta32 2.244660 1_655
C33 Ta32 2.244660 1_565
C33 Ta33 2.244699 1_565
C33 Ta33 2.244699 1_655
C33 Ta32 2.254904 1_555
C33 Ta33 2.255356 1_665
C34 Ta33 2.231792 1_555
C34 Ta33 2.232580 1_655
C34 Ta33 2.232580 1_565
C34 Ta35 2.258141 1_555
C34 Ta35 2.259959 1_545
C34 Ta35 2.259959 1_455
