# generated using pymatgen
data_CeMg2
_symmetry_space_group_name_H-M   'P 1'
_cell_length_a   6.20356129
_cell_length_b   6.20356129
_cell_length_c   34.23256670
_cell_angle_alpha   90.00000000
_cell_angle_beta   90.00000000
_cell_angle_gamma   119.99996341
_symmetry_Int_Tables_number   1
_chemical_formula_structural   CeMg2
_chemical_formula_sum   'Ce16 Mg32'
_cell_volume   1140.91268663
_cell_formula_units_Z   16
loop_
 _symmetry_equiv_pos_site_id
 _symmetry_equiv_pos_as_xyz
  1  'x, y, z'
loop_
 _atom_site_type_symbol
 _atom_site_label
 _atom_site_symmetry_multiplicity
 _atom_site_fract_x
 _atom_site_fract_y
 _atom_site_fract_z
 _atom_site_occupancy
  Ce  Ce0_0  1  0.00000000  0.00000000  0.08745730  1
  Ce  Ce0_1  1  0.00000000  0.00000000  0.58745730  1
  Ce  Ce0_2  1  0.00000000  0.50000000  0.08745730  1
  Ce  Ce0_3  1  0.00000000  0.50000000  0.58745730  1
  Ce  Ce0_4  1  0.50000000  0.00000000  0.08745730  1
  Ce  Ce0_5  1  0.50000000  0.00000000  0.58745730  1
  Ce  Ce0_6  1  0.50000000  0.50000000  0.08745730  1
  Ce  Ce0_7  1  0.50000000  0.50000000  0.58745730  1
  Ce  Ce1_0  1  0.00000000  0.00000000  0.41254271  1
  Ce  Ce1_1  1  0.00000000  0.00000000  0.91254271  1
  Ce  Ce1_2  1  0.00000000  0.50000000  0.41254271  1
  Ce  Ce1_3  1  0.00000000  0.50000000  0.91254271  1
  Ce  Ce1_4  1  0.50000000  0.00000000  0.41254271  1
  Ce  Ce1_5  1  0.50000000  0.00000000  0.91254271  1
  Ce  Ce1_6  1  0.50000000  0.50000000  0.41254271  1
  Ce  Ce1_7  1  0.50000000  0.50000000  0.91254271  1
  Mg  Mg0_0  1  0.00000000  0.00000000  0.25000000  1
  Mg  Mg0_1  1  0.00000000  0.00000000  0.75000000  1
  Mg  Mg0_2  1  0.00000000  0.50000000  0.25000000  1
  Mg  Mg0_3  1  0.00000000  0.50000000  0.75000000  1
  Mg  Mg0_4  1  0.50000000  0.00000000  0.25000000  1
  Mg  Mg0_5  1  0.50000000  0.00000000  0.75000000  1
  Mg  Mg0_6  1  0.50000000  0.50000000  0.25000000  1
  Mg  Mg0_7  1  0.50000000  0.50000000  0.75000000  1
  Mg  Mg1_0  1  0.33333350  0.16666650  0.17356286  1
  Mg  Mg1_1  1  0.33333350  0.16666650  0.67356286  1
  Mg  Mg1_2  1  0.33333350  0.66666650  0.17356286  1
  Mg  Mg1_3  1  0.33333350  0.66666650  0.67356286  1
  Mg  Mg1_4  1  0.83333350  0.16666650  0.17356286  1
  Mg  Mg1_5  1  0.83333350  0.16666650  0.67356286  1
  Mg  Mg1_6  1  0.83333350  0.66666650  0.17356286  1
  Mg  Mg1_7  1  0.83333350  0.66666650  0.67356286  1
  Mg  Mg2_0  1  0.33333350  0.16666650  0.00000000  1
  Mg  Mg2_1  1  0.33333350  0.16666650  0.50000000  1
  Mg  Mg2_2  1  0.33333350  0.66666650  0.00000000  1
  Mg  Mg2_3  1  0.33333350  0.66666650  0.50000000  1
  Mg  Mg2_4  1  0.83333350  0.16666650  0.00000000  1
  Mg  Mg2_5  1  0.83333350  0.16666650  0.50000000  1
  Mg  Mg2_6  1  0.83333350  0.66666650  0.00000000  1
  Mg  Mg2_7  1  0.83333350  0.66666650  0.50000000  1
  Mg  Mg3_0  1  0.33333350  0.16666650  0.32643714  1
  Mg  Mg3_1  1  0.33333350  0.16666650  0.82643714  1
  Mg  Mg3_2  1  0.33333350  0.66666650  0.32643714  1
  Mg  Mg3_3  1  0.33333350  0.66666650  0.82643714  1
  Mg  Mg3_4  1  0.83333350  0.16666650  0.32643714  1
  Mg  Mg3_5  1  0.83333350  0.16666650  0.82643714  1
  Mg  Mg3_6  1  0.83333350  0.66666650  0.32643714  1
  Mg  Mg3_7  1  0.83333350  0.66666650  0.82643714  1
loop_
_geom_bond_atom_site_label_1
_geom_bond_atom_site_label_2
_geom_bond_distance
_geom_bond_site_symmetry_2
Ce0_0 Ce0_4 3.101781 1_555
Ce0_0 Ce0_4 3.101781 1_455
Ce0_0 Ce0_2 3.101781 1_555
Ce0_0 Ce0_2 3.101781 1_545
Ce0_0 Ce0_6 3.101782 1_445
Ce0_0 Ce0_6 3.101782 1_555
Ce0_0 Mg1_4 3.448976 1_455
Ce0_0 Mg1_0 3.448978 1_555
Ce0_0 Mg1_6 3.448978 1_445
Ce0_0 Mg2_4 3.488606 1_455
Ce0_0 Mg2_6 3.488608 1_445
Ce0_0 Mg2_0 3.488608 1_555
Ce0_1 Ce0_5 3.101781 1_555
Ce0_1 Ce0_3 3.101781 1_555
Ce0_1 Ce0_5 3.101781 1_455
Ce0_1 Ce0_3 3.101781 1_545
Ce0_1 Ce0_7 3.101782 1_445
Ce0_1 Ce0_7 3.101782 1_555
Ce0_1 Mg1_5 3.448976 1_455
Ce0_1 Mg1_1 3.448978 1_555
Ce0_1 Mg1_7 3.448978 1_445
Ce0_1 Mg2_5 3.488606 1_455
Ce0_1 Mg2_7 3.488608 1_445
Ce0_1 Mg2_1 3.488608 1_555
Ce0_2 Ce0_6 3.101781 1_555
Ce0_2 Ce0_6 3.101781 1_455
Ce0_2 Ce0_4 3.101782 1_565
Ce0_2 Ce0_4 3.101782 1_455
Ce0_2 Mg1_6 3.448976 1_455
Ce0_2 Mg1_4 3.448978 1_455
Ce0_2 Mg1_2 3.448978 1_555
Ce0_2 Mg2_6 3.488606 1_455
Ce0_2 Mg2_4 3.488608 1_455
Ce0_2 Mg2_2 3.488608 1_555
Ce0_3 Ce0_7 3.101781 1_555
Ce0_3 Ce0_7 3.101781 1_455
Ce0_3 Ce0_5 3.101782 1_565
Ce0_3 Ce0_5 3.101782 1_455
Ce0_3 Mg1_7 3.448976 1_455
Ce0_3 Mg1_5 3.448978 1_455
Ce0_3 Mg1_3 3.448978 1_555
Ce0_3 Mg2_7 3.488606 1_455
Ce0_3 Mg2_3 3.488608 1_555
Ce0_3 Mg2_5 3.488608 1_455
Ce0_4 Ce0_6 3.101781 1_555
Ce0_4 Ce0_6 3.101781 1_545
Ce0_4 Mg1_0 3.448976 1_555
Ce0_4 Mg1_4 3.448978 1_555
Ce0_4 Mg1_2 3.448978 1_545
Ce0_4 Mg2_0 3.488606 1_555
Ce0_4 Mg2_2 3.488608 1_545
Ce0_4 Mg2_4 3.488608 1_555
Ce0_5 Ce0_7 3.101781 1_555
Ce0_5 Ce0_7 3.101781 1_545
Ce0_5 Mg1_1 3.448976 1_555
Ce0_5 Mg1_5 3.448978 1_555
Ce0_5 Mg1_3 3.448978 1_545
Ce0_5 Mg2_1 3.488606 1_555
Ce0_5 Mg2_3 3.488608 1_545
Ce0_5 Mg2_5 3.488608 1_555
Ce0_6 Mg1_2 3.448976 1_555
Ce0_6 Mg1_0 3.448978 1_555
Ce0_6 Mg1_6 3.448978 1_555
Ce0_6 Mg2_2 3.488606 1_555
Ce0_6 Mg2_0 3.488608 1_555
Ce0_6 Mg2_6 3.488608 1_555
Ce0_7 Mg1_3 3.448976 1_555
Ce0_7 Mg1_1 3.448978 1_555
Ce0_7 Mg1_7 3.448978 1_555
Ce0_7 Mg2_3 3.488606 1_555
Ce0_7 Mg2_1 3.488608 1_555
Ce0_7 Mg2_7 3.488608 1_555
Ce1_0 Ce1_4 3.101781 1_555
Ce1_0 Ce1_4 3.101781 1_455
Ce1_0 Ce1_2 3.101781 1_555
Ce1_0 Ce1_2 3.101781 1_545
Ce1_0 Ce1_6 3.101782 1_445
Ce1_0 Ce1_6 3.101782 1_555
Ce1_0 Mg3_4 3.448976 1_455
Ce1_0 Mg3_0 3.448978 1_555
Ce1_0 Mg3_6 3.448978 1_445
Ce1_0 Mg2_5 3.488606 1_455
Ce1_0 Mg2_1 3.488608 1_555
Ce1_0 Mg2_7 3.488608 1_445
Ce1_1 Ce1_5 3.101781 1_555
Ce1_1 Ce1_5 3.101781 1_455
Ce1_1 Ce1_3 3.101781 1_555
Ce1_1 Ce1_3 3.101781 1_545
Ce1_1 Ce1_7 3.101782 1_555
Ce1_1 Ce1_7 3.101782 1_445
Ce1_1 Mg3_5 3.448976 1_455
Ce1_1 Mg3_1 3.448978 1_555
Ce1_1 Mg3_7 3.448978 1_445
Ce1_1 Mg2_4 3.488606 1_456
Ce1_1 Mg2_0 3.488608 1_556
Ce1_1 Mg2_6 3.488608 1_446
Ce1_2 Ce1_6 3.101781 1_555
Ce1_2 Ce1_6 3.101781 1_455
Ce1_2 Ce1_4 3.101782 1_565
Ce1_2 Ce1_4 3.101782 1_455
Ce1_2 Mg3_6 3.448976 1_455
Ce1_2 Mg3_4 3.448978 1_455
Ce1_2 Mg3_2 3.448978 1_555
Ce1_2 Mg2_7 3.488606 1_455
Ce1_2 Mg2_5 3.488608 1_455
Ce1_2 Mg2_3 3.488608 1_555
Ce1_3 Ce1_7 3.101781 1_555
Ce1_3 Ce1_7 3.101781 1_455
Ce1_3 Ce1_5 3.101782 1_565
Ce1_3 Ce1_5 3.101782 1_455
Ce1_3 Mg3_7 3.448976 1_455
Ce1_3 Mg3_3 3.448978 1_555
Ce1_3 Mg3_5 3.448978 1_455
Ce1_3 Mg2_6 3.488606 1_456
Ce1_3 Mg2_2 3.488608 1_556
Ce1_3 Mg2_4 3.488608 1_456
Ce1_4 Ce1_6 3.101781 1_555
Ce1_4 Ce1_6 3.101781 1_545
Ce1_4 Mg3_0 3.448976 1_555
Ce1_4 Mg3_4 3.448978 1_555
Ce1_4 Mg3_2 3.448978 1_545
Ce1_4 Mg2_1 3.488606 1_555
Ce1_4 Mg2_5 3.488608 1_555
Ce1_4 Mg2_3 3.488608 1_545
Ce1_5 Ce1_7 3.101781 1_555
Ce1_5 Ce1_7 3.101781 1_545
Ce1_5 Mg3_1 3.448976 1_555
Ce1_5 Mg3_5 3.448978 1_555
Ce1_5 Mg3_3 3.448978 1_545
Ce1_5 Mg2_0 3.488606 1_556
Ce1_5 Mg2_4 3.488608 1_556
Ce1_5 Mg2_2 3.488608 1_546
Ce1_6 Mg3_2 3.448976 1_555
Ce1_6 Mg3_0 3.448978 1_555
Ce1_6 Mg3_6 3.448978 1_555
Ce1_6 Mg2_3 3.488606 1_555
Ce1_6 Mg2_1 3.488608 1_555
Ce1_6 Mg2_7 3.488608 1_555
Ce1_7 Mg3_3 3.448976 1_555
Ce1_7 Mg3_1 3.448978 1_555
Ce1_7 Mg3_7 3.448978 1_555
Ce1_7 Mg2_2 3.488606 1_556
Ce1_7 Mg2_0 3.488608 1_556
Ce1_7 Mg2_6 3.488608 1_556
Mg0_0 Mg0_4 3.101781 1_555
Mg0_0 Mg0_2 3.101781 1_555
Mg0_0 Mg0_4 3.101781 1_455
Mg0_0 Mg0_2 3.101781 1_545
Mg0_0 Mg0_6 3.101782 1_555
Mg0_0 Mg0_6 3.101782 1_445
Mg0_0 Mg1_4 3.170774 1_455
Mg0_0 Mg3_4 3.170774 1_455
Mg0_0 Mg1_6 3.170776 1_445
Mg0_0 Mg3_6 3.170776 1_445
Mg0_0 Mg1_0 3.170776 1_555
Mg0_0 Mg3_0 3.170776 1_555
Mg0_1 Mg0_5 3.101781 1_555
Mg0_1 Mg0_3 3.101781 1_555
Mg0_1 Mg0_5 3.101781 1_455
Mg0_1 Mg0_3 3.101781 1_545
Mg0_1 Mg0_7 3.101782 1_445
Mg0_1 Mg0_7 3.101782 1_555
Mg0_1 Mg3_5 3.170774 1_455
Mg0_1 Mg1_5 3.170774 1_455
Mg0_1 Mg3_1 3.170776 1_555
Mg0_1 Mg1_7 3.170776 1_445
Mg0_1 Mg3_7 3.170776 1_445
Mg0_1 Mg1_1 3.170776 1_555
Mg0_2 Mg0_6 3.101781 1_555
Mg0_2 Mg0_6 3.101781 1_455
Mg0_2 Mg0_4 3.101782 1_565
Mg0_2 Mg0_4 3.101782 1_455
Mg0_2 Mg3_6 3.170774 1_455
Mg0_2 Mg1_6 3.170774 1_455
Mg0_2 Mg1_2 3.170776 1_555
Mg0_2 Mg3_2 3.170776 1_555
Mg0_2 Mg3_4 3.170776 1_455
Mg0_2 Mg1_4 3.170776 1_455
Mg0_3 Mg0_7 3.101781 1_555
Mg0_3 Mg0_7 3.101781 1_455
Mg0_3 Mg0_5 3.101782 1_565
Mg0_3 Mg0_5 3.101782 1_455
Mg0_3 Mg3_7 3.170774 1_455
Mg0_3 Mg1_7 3.170774 1_455
Mg0_3 Mg1_5 3.170776 1_455
Mg0_3 Mg3_3 3.170776 1_555
Mg0_3 Mg3_5 3.170776 1_455
Mg0_3 Mg1_3 3.170776 1_555
Mg0_4 Mg0_6 3.101781 1_555
Mg0_4 Mg0_6 3.101781 1_545
Mg0_4 Mg1_0 3.170774 1_555
Mg0_4 Mg3_0 3.170774 1_555
Mg0_4 Mg3_2 3.170776 1_545
Mg0_4 Mg1_2 3.170776 1_545
Mg0_4 Mg1_4 3.170776 1_555
Mg0_4 Mg3_4 3.170776 1_555
Mg0_5 Mg0_7 3.101781 1_555
Mg0_5 Mg0_7 3.101781 1_545
Mg0_5 Mg3_1 3.170774 1_555
Mg0_5 Mg1_1 3.170774 1_555
Mg0_5 Mg1_5 3.170776 1_555
Mg0_5 Mg3_5 3.170776 1_555
Mg0_5 Mg1_3 3.170776 1_545
Mg0_5 Mg3_3 3.170776 1_545
Mg0_6 Mg1_2 3.170774 1_555
Mg0_6 Mg3_2 3.170774 1_555
Mg0_6 Mg1_6 3.170776 1_555
Mg0_6 Mg3_6 3.170776 1_555
Mg0_6 Mg1_0 3.170776 1_555
Mg0_6 Mg3_0 3.170776 1_555
Mg0_7 Mg3_3 3.170774 1_555
Mg0_7 Mg1_3 3.170774 1_555
Mg0_7 Mg1_7 3.170776 1_555
Mg0_7 Mg3_7 3.170776 1_555
Mg0_7 Mg3_1 3.170776 1_555
Mg0_7 Mg1_1 3.170776 1_555
Mg1_0 Mg1_4 3.101781 1_555
Mg1_0 Mg1_2 3.101781 1_555
Mg1_0 Mg1_4 3.101781 1_455
Mg1_0 Mg1_2 3.101781 1_545
Mg1_0 Mg1_6 3.101782 1_445
Mg1_0 Mg1_6 3.101782 1_555
Mg1_1 Mg1_5 3.101781 1_555
Mg1_1 Mg1_3 3.101781 1_555
Mg1_1 Mg1_5 3.101781 1_455
Mg1_1 Mg1_3 3.101781 1_545
Mg1_1 Mg1_7 3.101782 1_445
Mg1_1 Mg1_7 3.101782 1_555
Mg1_2 Mg1_6 3.101781 1_455
Mg1_2 Mg1_6 3.101781 1_555
Mg1_2 Mg1_4 3.101782 1_565
Mg1_2 Mg1_4 3.101782 1_455
Mg1_3 Mg1_7 3.101781 1_555
Mg1_3 Mg1_7 3.101781 1_455
Mg1_3 Mg1_5 3.101782 1_565
Mg1_3 Mg1_5 3.101782 1_455
Mg1_4 Mg1_6 3.101781 1_555
Mg1_4 Mg1_6 3.101781 1_545
Mg1_5 Mg1_7 3.101781 1_555
Mg1_5 Mg1_7 3.101781 1_545
Mg2_0 Mg2_4 3.101781 1_555
Mg2_0 Mg2_4 3.101781 1_455
Mg2_0 Mg2_2 3.101781 1_555
Mg2_0 Mg2_2 3.101781 1_545
Mg2_0 Mg2_6 3.101782 1_445
Mg2_0 Mg2_6 3.101782 1_555
Mg2_1 Mg2_5 3.101781 1_555
Mg2_1 Mg2_3 3.101781 1_555
Mg2_1 Mg2_5 3.101781 1_455
Mg2_1 Mg2_3 3.101781 1_545
Mg2_1 Mg2_7 3.101782 1_445
Mg2_1 Mg2_7 3.101782 1_555
Mg2_2 Mg2_6 3.101781 1_555
Mg2_2 Mg2_6 3.101781 1_455
Mg2_2 Mg2_4 3.101782 1_565
Mg2_2 Mg2_4 3.101782 1_455
Mg2_3 Mg2_7 3.101781 1_555
Mg2_3 Mg2_7 3.101781 1_455
Mg2_3 Mg2_5 3.101782 1_565
Mg2_3 Mg2_5 3.101782 1_455
Mg2_4 Mg2_6 3.101781 1_555
Mg2_4 Mg2_6 3.101781 1_545
Mg2_5 Mg2_7 3.101781 1_555
Mg2_5 Mg2_7 3.101781 1_545
Mg3_0 Mg3_4 3.101781 1_555
Mg3_0 Mg3_2 3.101781 1_555
Mg3_0 Mg3_4 3.101781 1_455
Mg3_0 Mg3_2 3.101781 1_545
Mg3_0 Mg3_6 3.101782 1_445
Mg3_0 Mg3_6 3.101782 1_555
Mg3_1 Mg3_5 3.101781 1_555
Mg3_1 Mg3_5 3.101781 1_455
Mg3_1 Mg3_3 3.101781 1_555
Mg3_1 Mg3_3 3.101781 1_545
Mg3_1 Mg3_7 3.101782 1_445
Mg3_1 Mg3_7 3.101782 1_555
Mg3_2 Mg3_6 3.101781 1_455
Mg3_2 Mg3_6 3.101781 1_555
Mg3_2 Mg3_4 3.101782 1_565
Mg3_2 Mg3_4 3.101782 1_455
Mg3_3 Mg3_7 3.101781 1_555
Mg3_3 Mg3_7 3.101781 1_455
Mg3_3 Mg3_5 3.101782 1_565
Mg3_3 Mg3_5 3.101782 1_455
Mg3_4 Mg3_6 3.101781 1_555
Mg3_4 Mg3_6 3.101781 1_545
Mg3_5 Mg3_7 3.101781 1_555
Mg3_5 Mg3_7 3.101781 1_545
