# generated using pymatgen
data_CeMg5Ru2
_symmetry_space_group_name_H-M   'P 1'
_cell_length_a   7.26257600
_cell_length_b   9.71447700
_cell_length_c   9.71447700
_cell_angle_alpha   90.00000000
_cell_angle_beta   90.00000000
_cell_angle_gamma   90.00000000
_symmetry_Int_Tables_number   1
_chemical_formula_structural   CeMg5Ru2
_chemical_formula_sum   'Ce4 Mg20 Ru8'
_cell_volume   685.37702002
_cell_formula_units_Z   4
loop_
 _symmetry_equiv_pos_site_id
 _symmetry_equiv_pos_as_xyz
  1  'x, y, z'
loop_
 _atom_site_type_symbol
 _atom_site_label
 _atom_site_symmetry_multiplicity
 _atom_site_fract_x
 _atom_site_fract_y
 _atom_site_fract_z
 _atom_site_occupancy
  Ce  Ce0  1  0.57445300  0.75000000  0.75000000  1
  Ce  Ce1  1  0.07445300  0.75000000  0.75000000  1
  Ce  Ce2  1  0.42554700  0.25000000  0.25000000  1
  Ce  Ce3  1  0.92554700  0.25000000  0.25000000  1
  Mg  Mg0  1  0.00000000  0.50000000  0.50000000  1
  Mg  Mg1  1  0.50000000  0.50000000  0.00000000  1
  Mg  Mg2  1  0.50000000  0.00000000  0.50000000  1
  Mg  Mg3  1  0.00000000  0.00000000  0.00000000  1
  Mg  Mg4  1  0.84790700  0.04683200  0.70031300  1
  Mg  Mg5  1  0.34790700  0.04683200  0.79968700  1
  Mg  Mg6  1  0.34790700  0.45316800  0.70031300  1
  Mg  Mg7  1  0.84790700  0.45316800  0.79968700  1
  Mg  Mg8  1  0.84790700  0.70031300  0.04683200  1
  Mg  Mg9  1  0.34790700  0.79968700  0.04683200  1
  Mg  Mg10  1  0.34790700  0.70031300  0.45316800  1
  Mg  Mg11  1  0.84790700  0.79968700  0.45316800  1
  Mg  Mg12  1  0.15209300  0.95316800  0.29968700  1
  Mg  Mg13  1  0.65209300  0.95316800  0.20031300  1
  Mg  Mg14  1  0.65209300  0.54683200  0.29968700  1
  Mg  Mg15  1  0.15209300  0.54683200  0.20031300  1
  Mg  Mg16  1  0.15209300  0.29968700  0.95316800  1
  Mg  Mg17  1  0.65209300  0.20031300  0.95316800  1
  Mg  Mg18  1  0.65209300  0.29968700  0.54683200  1
  Mg  Mg19  1  0.15209300  0.20031300  0.54683200  1
  Ru  Ru0  1  0.65871500  0.58556600  0.58556600  1
  Ru  Ru1  1  0.15871500  0.58556600  0.91443400  1
  Ru  Ru2  1  0.15871500  0.91443400  0.58556600  1
  Ru  Ru3  1  0.65871500  0.91443400  0.91443400  1
  Ru  Ru4  1  0.34128500  0.41443400  0.41443400  1
  Ru  Ru5  1  0.84128500  0.41443400  0.08556600  1
  Ru  Ru6  1  0.84128500  0.08556600  0.41443400  1
  Ru  Ru7  1  0.34128500  0.08556600  0.08556600  1
loop_
_geom_bond_atom_site_label_1
_geom_bond_atom_site_label_2
_geom_bond_distance
_geom_bond_site_symmetry_2
Ce0 Ru3 2.340471 1_555
Ce0 Ru0 2.340471 1_555
Ce0 Mg9 3.354845 1_556
Ce0 Mg5 3.354845 1_565
Ce0 Mg10 3.354845 1_555
Ce0 Mg6 3.354845 1_555
Ce0 Mg1 3.476890 1_556
Ce0 Mg2 3.476890 1_565
Ce0 Mg4 3.534411 1_565
Ce0 Mg8 3.534411 1_556
Ce0 Mg7 3.534411 1_555
Ce0 Mg11 3.534411 1_555
Ce1 Ru1 2.340471 1_555
Ce1 Ru2 2.340471 1_555
Ce1 Mg4 3.354845 1_465
Ce1 Mg8 3.354845 1_456
Ce1 Mg7 3.354845 1_455
Ce1 Mg11 3.354845 1_455
Ce1 Mg0 3.476890 1_555
Ce1 Mg3 3.476890 1_566
Ce1 Mg9 3.534411 1_556
Ce1 Mg5 3.534411 1_565
Ce1 Mg10 3.534411 1_555
Ce1 Mg6 3.534411 1_555
Ce2 Ru4 2.340471 1_555
Ce2 Ru7 2.340471 1_555
Ce2 Mg14 3.354845 1_555
Ce2 Mg18 3.354845 1_555
Ce2 Mg17 3.354845 1_554
Ce2 Mg13 3.354845 1_545
Ce2 Mg2 3.476890 1_555
Ce2 Mg1 3.476890 1_555
Ce2 Mg19 3.534411 1_555
Ce2 Mg15 3.534411 1_555
Ce2 Mg12 3.534411 1_545
Ce2 Mg16 3.534411 1_554
Ce3 Ru5 2.340471 1_555
Ce3 Ru6 2.340471 1_555
Ce3 Mg19 3.354845 1_655
Ce3 Mg15 3.354845 1_655
Ce3 Mg12 3.354845 1_645
Ce3 Mg16 3.354845 1_654
Ce3 Mg0 3.476890 1_655
Ce3 Mg3 3.476890 1_655
Ce3 Mg14 3.534411 1_555
Ce3 Mg18 3.534411 1_555
Ce3 Mg17 3.534411 1_554
Ce3 Mg13 3.534411 1_545
Mg0 Ru0 2.743243 1_455
Mg0 Ru4 2.743243 1_555
Mg0 Mg7 3.146867 1_455
Mg0 Mg11 3.146867 1_455
Mg0 Mg19 3.146867 1_555
Mg0 Mg15 3.146867 1_555
Mg0 Mg6 3.221469 1_555
Mg0 Mg10 3.221469 1_555
Mg0 Mg14 3.221469 1_455
Mg0 Mg18 3.221469 1_455
Mg1 Ru1 2.743243 1_554
Mg1 Ru5 2.743243 1_555
Mg1 Mg9 3.146867 1_555
Mg1 Mg14 3.146867 1_555
Mg1 Mg17 3.146867 1_554
Mg1 Mg6 3.146867 1_554
Mg1 Mg8 3.221469 1_555
Mg1 Mg15 3.221469 1_555
Mg1 Mg16 3.221469 1_554
Mg1 Mg7 3.221469 1_554
Mg2 Ru2 2.743243 1_545
Mg2 Ru6 2.743243 1_555
Mg2 Mg5 3.146867 1_555
Mg2 Mg4 3.221469 1_555
Mg3 Ru7 2.743243 1_555
Mg3 Ru3 2.743243 1_444
Mg3 Mg8 3.146867 1_445
Mg3 Mg4 3.146867 1_454
Mg3 Mg9 3.221469 1_545
Mg3 Mg5 3.221469 1_554
Mg4 Ru6 2.802953 1_555
Mg4 Ru3 2.805155 1_545
Mg4 Ru2 2.827026 1_645
Mg5 Ru7 2.802953 1_556
Mg5 Ru2 2.805155 1_545
Mg5 Ru3 2.827026 1_545
Mg5 Mg9 3.395363 1_546
Mg6 Ru4 2.802953 1_555
Mg6 Ru1 2.805155 1_555
Mg6 Ru0 2.827026 1_555
Mg7 Ru5 2.802953 1_556
Mg7 Ru0 2.805155 1_555
Mg7 Ru1 2.827026 1_655
Mg7 Mg8 3.395363 1_556
Mg8 Ru5 2.802953 1_555
Mg8 Ru3 2.805155 1_554
Mg8 Ru1 2.827026 1_654
Mg9 Ru7 2.802953 1_565
Mg9 Ru1 2.805155 1_554
Mg9 Ru3 2.827026 1_554
Mg10 Ru4 2.802953 1_555
Mg10 Ru2 2.805155 1_555
Mg10 Ru0 2.827026 1_555
Mg10 Mg14 3.053938 1_555
Mg10 Mg2 3.146867 1_565
Mg10 Mg12 3.206108 1_555
Mg10 Mg15 3.206108 1_555
Mg10 Mg6 3.395363 1_555
Mg11 Ru6 2.802953 1_565
Mg11 Ru0 2.805155 1_555
Mg11 Ru2 2.827026 1_655
Mg11 Mg12 3.053938 1_655
Mg11 Mg14 3.206108 1_555
Mg11 Mg13 3.206108 1_555
Mg11 Mg2 3.221469 1_565
Mg11 Mg4 3.395363 1_565
Mg12 Ru2 2.802953 1_555
Mg12 Ru7 2.805155 1_565
Mg12 Ru6 2.827026 1_465
Mg12 Mg3 3.146867 1_565
Mg12 Mg9 3.206108 1_555
Mg12 Mg2 3.221469 1_565
Mg12 Mg19 3.395363 1_565
Mg13 Ru3 2.802953 1_554
Mg13 Ru6 2.805155 1_565
Mg13 Ru7 2.827026 1_565
Mg13 Mg9 3.053938 1_555
Mg13 Mg2 3.146867 1_565
Mg13 Mg8 3.206108 1_555
Mg13 Mg3 3.221469 1_665
Mg13 Mg17 3.395363 1_564
Mg14 Ru0 2.802953 1_555
Mg14 Ru5 2.805155 1_555
Mg14 Ru4 2.827026 1_555
Mg14 Mg8 3.206108 1_555
Mg14 Mg18 3.395363 1_555
Mg15 Ru1 2.802953 1_554
Mg15 Ru4 2.805155 1_555
Mg15 Ru5 2.827026 1_455
Mg15 Mg8 3.053938 1_455
Mg15 Mg9 3.206108 1_555
Mg15 Mg16 3.395363 1_554
Mg16 Ru1 2.802953 1_555
Mg16 Ru7 2.805155 1_556
Mg16 Ru5 2.827026 1_456
Mg16 Mg7 3.053938 1_455
Mg16 Mg3 3.146867 1_556
Mg16 Mg6 3.206108 1_555
Mg16 Mg5 3.206108 1_555
Mg17 Ru3 2.802953 1_545
Mg17 Ru5 2.805155 1_556
Mg17 Ru7 2.827026 1_556
Mg17 Mg5 3.053938 1_555
Mg17 Mg7 3.206108 1_555
Mg17 Mg4 3.206108 1_555
Mg17 Mg3 3.221469 1_656
Mg18 Ru0 2.802953 1_555
Mg18 Ru6 2.805155 1_555
Mg18 Ru4 2.827026 1_555
Mg18 Mg6 3.053938 1_555
Mg18 Mg2 3.146867 1_555
Mg18 Mg7 3.206108 1_555
Mg18 Mg4 3.206108 1_555
Mg19 Ru2 2.802953 1_545
Mg19 Ru4 2.805155 1_555
Mg19 Ru6 2.827026 1_455
Mg19 Mg4 3.053938 1_455
Mg19 Mg5 3.206108 1_555
Mg19 Mg6 3.206108 1_555
Mg19 Mg2 3.221469 1_555
