# generated using pymatgen
data_Gd4(GeS4)3
_symmetry_space_group_name_H-M   'P 1'
_cell_length_a   11.40873300
_cell_length_b   11.40873300
_cell_length_c   11.40873295
_cell_angle_alpha   114.87294343
_cell_angle_beta   114.87294343
_cell_angle_gamma   114.87293974
_symmetry_Int_Tables_number   1
_chemical_formula_structural   Gd4(GeS4)3
_chemical_formula_sum   'Gd8 Ge6 S24'
_cell_volume   840.60368348
_cell_formula_units_Z   2
loop_
 _symmetry_equiv_pos_site_id
 _symmetry_equiv_pos_as_xyz
  1  'x, y, z'
loop_
 _atom_site_type_symbol
 _atom_site_label
 _atom_site_symmetry_multiplicity
 _atom_site_fract_x
 _atom_site_fract_y
 _atom_site_fract_z
 _atom_site_occupancy
  Gd  Gd0  1  0.50037400  0.50037400  0.50037400  1
  Gd  Gd1  1  0.00037400  0.00037400  0.00037400  1
  Gd  Gd2  1  0.52608300  0.06587300  0.28786000  1
  Gd  Gd3  1  0.06587300  0.28786000  0.52608300  1
  Gd  Gd4  1  0.28786000  0.52608300  0.06587300  1
  Gd  Gd5  1  0.78786000  0.56587300  0.02608300  1
  Gd  Gd6  1  0.56587300  0.02608300  0.78786000  1
  Gd  Gd7  1  0.02608300  0.78786000  0.56587300  1
  Ge  Ge0  1  0.53020500  0.35533600  0.14346600  1
  Ge  Ge1  1  0.35533600  0.14346600  0.53020500  1
  Ge  Ge2  1  0.14346600  0.53020500  0.35533600  1
  Ge  Ge3  1  0.64346600  0.85533600  0.03020500  1
  Ge  Ge4  1  0.85533600  0.03020500  0.64346600  1
  Ge  Ge5  1  0.03020500  0.64346600  0.85533600  1
  S  S0  1  0.71939300  0.11711200  0.19100900  1
  S  S1  1  0.11711200  0.19100900  0.71939300  1
  S  S2  1  0.19100900  0.71939300  0.11711200  1
  S  S3  1  0.69100900  0.61711200  0.21939300  1
  S  S4  1  0.61711200  0.21939300  0.69100900  1
  S  S5  1  0.21939300  0.69100900  0.61711200  1
  S  S6  1  0.31006800  0.31534300  0.12890200  1
  S  S7  1  0.31534300  0.12890200  0.31006800  1
  S  S8  1  0.12890200  0.31006800  0.31534300  1
  S  S9  1  0.62890200  0.81534300  0.81006800  1
  S  S10  1  0.81534300  0.81006800  0.62890200  1
  S  S11  1  0.81006800  0.62890200  0.81534300  1
  S  S12  1  0.70541900  0.41494500  0.39083600  1
  S  S13  1  0.41494500  0.39083600  0.70541900  1
  S  S14  1  0.39083600  0.70541900  0.41494500  1
  S  S15  1  0.89083600  0.91494500  0.20541900  1
  S  S16  1  0.91494500  0.20541900  0.89083600  1
  S  S17  1  0.20541900  0.89083600  0.91494500  1
  S  S18  1  0.36323800  0.64135400  0.91018500  1
  S  S19  1  0.64135400  0.91018500  0.36323800  1
  S  S20  1  0.91018500  0.36323800  0.64135400  1
  S  S21  1  0.41018500  0.14135400  0.86323800  1
  S  S22  1  0.14135400  0.86323800  0.41018500  1
  S  S23  1  0.86323800  0.41018500  0.14135400  1
loop_
_geom_bond_atom_site_label_1
_geom_bond_atom_site_label_2
_geom_bond_distance
_geom_bond_site_symmetry_2
Gd0 S6 2.830074 1_555
Gd0 S7 2.830074 1_555
Gd0 S8 2.830074 1_555
Gd0 S11 2.841701 1_555
Gd0 S9 2.841701 1_555
Gd0 S10 2.841702 1_555
Gd0 S14 3.366979 1_555
Gd0 S12 3.366979 1_555
Gd0 S13 3.366979 1_555
Gd1 S10 2.830074 1_444
Gd1 S9 2.830074 1_444
Gd1 S11 2.830074 1_444
Gd1 S8 2.841701 1_555
Gd1 S7 2.841701 1_555
Gd1 S6 2.841702 1_555
Gd1 S17 3.366979 1_544
Gd1 S16 3.366979 1_454
Gd1 S15 3.366979 1_445
Gd2 S19 2.814687 1_545
Gd2 S0 2.816966 1_555
Gd2 S20 2.845146 1_555
Gd2 S7 2.859255 1_555
Gd2 S2 2.929186 1_545
Gd2 S12 2.935003 1_555
Gd2 S17 3.014389 1_544
Gd3 S20 2.814687 1_455
Gd3 S1 2.816966 1_555
Gd3 S18 2.845146 1_555
Gd3 S8 2.859255 1_555
Gd3 S0 2.929186 1_455
Gd3 S13 2.935003 1_555
Gd3 S15 3.014389 1_445
Gd4 S18 2.814687 1_554
Gd4 S2 2.816966 1_555
Gd4 S19 2.845147 1_555
Gd4 S6 2.859255 1_555
Gd4 S1 2.929186 1_554
Gd4 S14 2.935003 1_555
Gd4 S16 3.014389 1_454
Gd5 S23 2.814687 1_555
Gd5 S3 2.816966 1_555
Gd5 S22 2.845146 1_655
Gd5 S11 2.859255 1_554
Gd5 S4 2.929186 1_554
Gd5 S15 2.935003 1_555
Gd5 S13 3.014389 1_554
Gd6 S21 2.814687 1_555
Gd6 S4 2.816966 1_555
Gd6 S23 2.845146 1_556
Gd6 S9 2.859255 1_545
Gd6 S5 2.929186 1_545
Gd6 S16 2.935003 1_555
Gd6 S14 3.014389 1_545
Gd7 S22 2.814687 1_555
Gd7 S5 2.816966 1_555
Gd7 S21 2.845147 1_565
Gd7 S10 2.859255 1_455
Gd7 S3 2.929186 1_455
Gd7 S17 2.935003 1_555
Gd7 S12 3.014389 1_455
Ge0 S3 2.216594 1_555
Ge0 S12 2.217951 1_555
Ge0 S21 2.235113 1_554
Ge0 S6 2.272569 1_555
Ge1 S4 2.216594 1_555
Ge1 S13 2.217951 1_555
Ge1 S22 2.235113 1_545
Ge1 S7 2.272569 1_555
Ge2 S5 2.216594 1_555
Ge2 S14 2.217951 1_555
Ge2 S23 2.235113 1_455
Ge2 S8 2.272569 1_555
Ge3 S0 2.216594 1_565
Ge3 S15 2.217951 1_555
Ge3 S18 2.235113 1_554
Ge3 S9 2.272569 1_554
Ge4 S1 2.216594 1_655
Ge4 S16 2.217951 1_555
Ge4 S19 2.235113 1_545
Ge4 S10 2.272569 1_545
Ge5 S2 2.216594 1_556
Ge5 S17 2.217951 1_555
Ge5 S20 2.235113 1_455
Ge5 S11 2.272569 1_455
