# generated using pymatgen
data_LaMg6Sn
_symmetry_space_group_name_H-M   'P 1'
_cell_length_a   5.14234600
_cell_length_b   6.78097700
_cell_length_c   11.78750200
_cell_angle_alpha   90.00000000
_cell_angle_beta   90.00000000
_cell_angle_gamma   90.00000000
_symmetry_Int_Tables_number   1
_chemical_formula_structural   LaMg6Sn
_chemical_formula_sum   'La2 Mg12 Sn2'
_cell_volume   411.03172655
_cell_formula_units_Z   2
loop_
 _symmetry_equiv_pos_site_id
 _symmetry_equiv_pos_as_xyz
  1  'x, y, z'
loop_
 _atom_site_type_symbol
 _atom_site_label
 _atom_site_symmetry_multiplicity
 _atom_site_fract_x
 _atom_site_fract_y
 _atom_site_fract_z
 _atom_site_occupancy
  La  La0  1  0.50000000  0.50000000  0.17214500  1
  La  La1  1  0.50000000  0.00000000  0.67214500  1
  Mg  Mg0  1  0.00000000  0.76517100  0.07682700  1
  Mg  Mg1  1  0.00000000  0.23482900  0.07682700  1
  Mg  Mg2  1  0.00000000  0.00000000  0.33243100  1
  Mg  Mg3  1  0.50000000  0.24915300  0.42090000  1
  Mg  Mg4  1  0.50000000  0.75084700  0.42090000  1
  Mg  Mg5  1  0.50000000  0.00000000  0.16267900  1
  Mg  Mg6  1  0.00000000  0.26517100  0.57682700  1
  Mg  Mg7  1  0.00000000  0.73483000  0.57682700  1
  Mg  Mg8  1  0.00000000  0.50000000  0.83243100  1
  Mg  Mg9  1  0.50000000  0.74915300  0.92090000  1
  Mg  Mg10  1  0.50000000  0.25084700  0.92090000  1
  Mg  Mg11  1  0.50000000  0.50000000  0.66267900  1
  Sn  Sn0  1  0.00000000  0.50000000  0.33729200  1
  Sn  Sn1  1  0.00000000  0.00000000  0.83729200  1
loop_
_geom_bond_atom_site_label_1
_geom_bond_atom_site_label_2
_geom_bond_distance
_geom_bond_site_symmetry_2
La0 Sn0 3.224974 1_555
La0 Sn0 3.224974 1_655
La0 Mg1 3.332649 1_555
La0 Mg1 3.332649 1_655
La0 Mg0 3.332649 1_555
La0 Mg0 3.332649 1_655
La0 Mg3 3.389861 1_555
La0 Mg4 3.389861 1_555
La0 Mg5 3.392324 1_565
La0 Mg5 3.392324 1_555
La0 Mg9 3.409574 1_554
La0 Mg10 3.409574 1_554
La1 Sn1 3.224974 1_655
La1 Sn1 3.224974 1_555
La1 Mg7 3.332645 1_545
La1 Mg7 3.332645 1_645
La1 Mg6 3.332649 1_655
La1 Mg6 3.332649 1_555
La1 Mg10 3.389861 1_555
La1 Mg9 3.389861 1_545
La1 Mg11 3.392324 1_555
La1 Mg11 3.392324 1_545
La1 Mg4 3.409574 1_545
La1 Mg3 3.409574 1_555
Mg0 Mg9 3.162425 1_554
Mg0 Mg9 3.162425 1_454
Mg0 Mg1 3.184740 1_565
Mg0 Mg5 3.189150 1_465
Mg0 Mg5 3.189150 1_565
Mg0 Sn1 3.241590 1_564
Mg0 Mg8 3.395931 1_554
Mg0 Mg2 3.407845 1_565
Mg0 Sn0 3.558027 1_555
Mg1 Mg10 3.162425 1_554
Mg1 Mg10 3.162425 1_454
Mg1 Mg5 3.189150 1_555
Mg1 Mg5 3.189150 1_455
Mg1 Sn1 3.241590 1_554
Mg1 Mg8 3.395931 1_554
Mg1 Mg2 3.407845 1_555
Mg1 Sn0 3.558027 1_555
Mg2 Mg4 3.248513 1_445
Mg2 Mg4 3.248513 1_545
Mg2 Mg3 3.248513 1_455
Mg2 Mg3 3.248513 1_555
Mg2 Mg5 3.258027 1_555
Mg2 Mg5 3.258027 1_455
Mg2 Sn0 3.390973 1_555
Mg2 Sn0 3.390973 1_545
Mg2 Mg7 3.395927 1_545
Mg2 Mg6 3.395931 1_555
Mg3 Mg6 3.162425 1_655
Mg3 Mg6 3.162425 1_555
Mg3 Sn0 3.236597 1_555
Mg3 Sn0 3.236597 1_655
Mg3 Mg4 3.379002 1_545
Mg3 Mg4 3.401975 1_555
Mg3 Mg5 3.481237 1_555
Mg4 Mg7 3.162425 1_555
Mg4 Mg7 3.162425 1_655
Mg4 Sn0 3.236597 1_555
Mg4 Sn0 3.236597 1_655
Mg4 Mg5 3.481237 1_565
Mg5 Mg9 3.318989 1_544
Mg6 Mg7 3.184747 1_555
Mg6 Sn0 3.241590 1_555
Mg6 Mg8 3.407845 1_555
Mg6 Sn1 3.558027 1_555
Mg7 Sn0 3.241593 1_555
Mg7 Mg8 3.407848 1_555
Mg7 Sn1 3.558023 1_565
Mg8 Mg9 3.248513 1_555
Mg8 Mg9 3.248513 1_455
Mg8 Sn1 3.390973 1_555
Mg8 Sn1 3.390973 1_565
Mg9 Sn1 3.236597 1_565
Mg9 Sn1 3.236597 1_665
Mg10 Sn1 3.236597 1_555
Mg10 Sn1 3.236597 1_655
Mg10 Mg8 3.248513 1_555
Mg10 Mg8 3.248513 1_655
Mg10 Mg5 3.318989 1_556
Mg10 Mg9 3.379002 1_555
Mg10 Mg9 3.401975 1_545
Mg10 Mg11 3.481237 1_555
Mg11 Mg6 3.189150 1_555
Mg11 Mg6 3.189150 1_655
Mg11 Mg7 3.189153 1_555
Mg11 Mg7 3.189153 1_655
Mg11 Mg8 3.258027 1_555
Mg11 Mg8 3.258027 1_655
Mg11 Mg3 3.318989 1_555
Mg11 Mg4 3.318989 1_555
Mg11 Mg9 3.481237 1_555
