# generated using pymatgen
data_Mo2C4O9
_symmetry_space_group_name_H-M   'P 1'
_cell_length_a   8.32331062
_cell_length_b   7.53111671
_cell_length_c   11.97780017
_cell_angle_alpha   109.68047794
_cell_angle_beta   117.59474171
_cell_angle_gamma   83.04929496
_symmetry_Int_Tables_number   1
_chemical_formula_structural   Mo2C4O9
_chemical_formula_sum   'Mo4 C8 O18'
_cell_volume   625.98596143
_cell_formula_units_Z   2
loop_
 _symmetry_equiv_pos_site_id
 _symmetry_equiv_pos_as_xyz
  1  'x, y, z'
loop_
 _atom_site_type_symbol
 _atom_site_label
 _atom_site_symmetry_multiplicity
 _atom_site_fract_x
 _atom_site_fract_y
 _atom_site_fract_z
 _atom_site_occupancy
  Mo  Mo0  1  0.02741100  0.69390700  0.50841900  1
  Mo  Mo1  1  0.97258900  0.30609300  0.49158100  1
  Mo  Mo2  1  0.60875000  0.67964100  0.11304500  1
  Mo  Mo3  1  0.39125000  0.32035900  0.88695500  1
  C  C0  1  0.28342500  0.87834700  0.38869400  1
  C  C1  1  0.71657500  0.12165300  0.61130600  1
  C  C2  1  0.18687300  0.64952600  0.98841200  1
  C  C3  1  0.81312700  0.35047400  0.01158800  1
  C  C4  1  0.57690900  0.67669900  0.77691600  1
  C  C5  1  0.42309100  0.32330100  0.22308400  1
  C  C6  1  0.78420000  0.91320000  0.30389700  1
  C  C7  1  0.21580000  0.08680000  0.69610300  1
  O  O0  1  0.84290700  0.87496600  0.41507500  1
  O  O1  1  0.15709300  0.12503400  0.58492500  1
  O  O2  1  0.32153900  0.75612000  0.07522600  1
  O  O3  1  0.67846100  0.24388000  0.92477400  1
  O  O4  1  0.83951800  0.51213500  0.09447000  1
  O  O5  1  0.16048200  0.48786500  0.90553000  1
  O  O6  1  0.23938600  0.75111600  0.40667300  1
  O  O7  1  0.76061400  0.24888400  0.59332700  1
  O  O8  1  0.67224400  0.99694200  0.63003900  1
  O  O9  1  0.32775600  0.00305800  0.36996100  1
  O  O10  1  0.67877400  0.79525800  0.86837100  1
  O  O11  1  0.32122600  0.20474200  0.13162900  1
  O  O12  1  0.52603700  0.44288800  0.31368600  1
  O  O13  1  0.47396300  0.55711200  0.68631400  1
  O  O14  1  0.17910300  0.91907100  0.68724700  1
  O  O15  1  0.82089700  0.08092900  0.31275300  1
  O  O16  1  0.90404600  0.55566100  0.56653500  1
  O  O17  1  0.09595400  0.44433900  0.43346500  1
loop_
_geom_bond_atom_site_label_1
_geom_bond_atom_site_label_2
_geom_bond_distance
_geom_bond_site_symmetry_2
Mo0 O17 1.934565 1_555
Mo0 O16 2.007970 1_455
Mo0 O0 2.096926 1_455
Mo0 O14 2.150332 1_555
Mo0 O6 2.704321 1_555
Mo1 O16 1.934565 1_555
Mo1 O17 2.007970 1_655
Mo1 O1 2.096926 1_655
Mo1 O15 2.150332 1_555
Mo1 O7 2.704321 1_555
Mo2 O4 2.224995 1_555
Mo2 O2 2.256307 1_555
Mo3 O5 2.224995 1_555
Mo3 O3 2.256307 1_555
C0 O9 1.170955 1_565
C0 O6 1.181518 1_555
C1 O8 1.170955 1_545
C1 O7 1.181518 1_555
C2 O2 1.248123 1_556
C2 O5 1.250874 1_555
C3 O3 1.248123 1_554
C3 O4 1.250874 1_555
C4 O10 1.174760 1_555
C4 O13 1.178991 1_555
C5 O11 1.174760 1_555
C5 O12 1.178991 1_555
C6 O15 1.293562 1_565
C6 O0 1.310116 1_555
C6 Mo2 2.296284 1_555
C7 O14 1.293562 1_545
C7 O1 1.310116 1_555
C7 Mo3 2.296284 1_555
