# generated using pymatgen
data_RePt
_symmetry_space_group_name_H-M   'P 1'
_cell_length_a   5.58871151
_cell_length_b   5.58871151
_cell_length_c   9.00229400
_cell_angle_alpha   90.00000000
_cell_angle_beta   90.00000000
_cell_angle_gamma   119.99999419
_symmetry_Int_Tables_number   1
_chemical_formula_structural   RePt
_chemical_formula_sum   'Re8 Pt8'
_cell_volume   243.50463538
_cell_formula_units_Z   8
loop_
 _symmetry_equiv_pos_site_id
 _symmetry_equiv_pos_as_xyz
  1  'x, y, z'
loop_
 _atom_site_type_symbol
 _atom_site_label
 _atom_site_symmetry_multiplicity
 _atom_site_fract_x
 _atom_site_fract_y
 _atom_site_fract_z
 _atom_site_occupancy
  Re  Re0_0  1  0.00000000  0.00000000  0.00000000  1
  Re  Re0_1  1  0.00000000  0.00000000  0.50000000  1
  Re  Re0_2  1  0.00000000  0.50000000  0.00000000  1
  Re  Re0_3  1  0.00000000  0.50000000  0.50000000  1
  Re  Re0_4  1  0.50000000  0.00000000  0.00000000  1
  Re  Re0_5  1  0.50000000  0.00000000  0.50000000  1
  Re  Re0_6  1  0.50000000  0.50000000  0.00000000  1
  Re  Re0_7  1  0.50000000  0.50000000  0.50000000  1
  Pt  Pt0_0  1  0.16666650  0.33333350  0.25000000  1
  Pt  Pt0_1  1  0.16666650  0.33333350  0.75000000  1
  Pt  Pt0_2  1  0.16666650  0.83333350  0.25000000  1
  Pt  Pt0_3  1  0.16666650  0.83333350  0.75000000  1
  Pt  Pt0_4  1  0.66666650  0.33333350  0.25000000  1
  Pt  Pt0_5  1  0.66666650  0.33333350  0.75000000  1
  Pt  Pt0_6  1  0.66666650  0.83333350  0.25000000  1
  Pt  Pt0_7  1  0.66666650  0.83333350  0.75000000  1
loop_
_geom_bond_atom_site_label_1
_geom_bond_atom_site_label_2
_geom_bond_distance
_geom_bond_site_symmetry_2
Re0_0 Re0_4 2.794356 1_555
Re0_0 Re0_2 2.794356 1_555
Re0_0 Re0_4 2.794356 1_455
Re0_0 Re0_2 2.794356 1_545
Re0_0 Re0_6 2.794356 1_445
Re0_0 Re0_6 2.794356 1_555
Re0_1 Re0_3 2.794356 1_545
Re0_1 Re0_5 2.794356 1_455
Re0_1 Re0_5 2.794356 1_555
Re0_1 Re0_3 2.794356 1_555
Re0_1 Re0_7 2.794356 1_555
Re0_1 Re0_7 2.794356 1_445
Re0_2 Re0_6 2.794356 1_555
Re0_2 Re0_6 2.794356 1_455
Re0_2 Re0_4 2.794356 1_455
Re0_2 Re0_4 2.794356 1_565
Re0_3 Re0_7 2.794356 1_555
Re0_3 Re0_7 2.794356 1_455
Re0_3 Re0_5 2.794356 1_455
Re0_3 Re0_5 2.794356 1_565
Re0_4 Re0_6 2.794356 1_545
Re0_4 Re0_6 2.794356 1_555
Re0_5 Re0_7 2.794356 1_555
Re0_5 Re0_7 2.794356 1_545
Pt0_0 Re0_2 2.769094 1_555
Pt0_0 Re0_3 2.769094 1_555
Pt0_0 Re0_7 2.769096 1_555
Pt0_0 Re0_6 2.769096 1_555
Pt0_0 Re0_1 2.769096 1_555
Pt0_0 Re0_0 2.769096 1_555
Pt0_0 Pt0_4 2.794356 1_455
Pt0_0 Pt0_2 2.794356 1_545
Pt0_0 Pt0_4 2.794356 1_555
Pt0_0 Pt0_2 2.794356 1_555
Pt0_0 Pt0_6 2.794356 1_555
Pt0_0 Pt0_6 2.794356 1_445
Pt0_1 Re0_2 2.769094 1_556
Pt0_1 Re0_3 2.769094 1_555
Pt0_1 Re0_0 2.769096 1_556
Pt0_1 Re0_7 2.769096 1_555
Pt0_1 Re0_1 2.769096 1_555
Pt0_1 Re0_6 2.769096 1_556
Pt0_1 Pt0_3 2.794356 1_545
Pt0_1 Pt0_5 2.794356 1_455
Pt0_1 Pt0_3 2.794356 1_555
Pt0_1 Pt0_5 2.794356 1_555
Pt0_1 Pt0_7 2.794356 1_555
Pt0_1 Pt0_7 2.794356 1_445
Pt0_2 Re0_0 2.769094 1_565
Pt0_2 Re0_1 2.769094 1_565
Pt0_2 Re0_4 2.769096 1_565
Pt0_2 Re0_5 2.769096 1_565
Pt0_2 Re0_3 2.769096 1_555
Pt0_2 Re0_2 2.769096 1_555
Pt0_2 Pt0_6 2.794356 1_455
Pt0_2 Pt0_6 2.794356 1_555
Pt0_2 Pt0_4 2.794356 1_455
Pt0_2 Pt0_4 2.794356 1_565
Pt0_3 Re0_1 2.769094 1_565
Pt0_3 Re0_0 2.769094 1_566
Pt0_3 Re0_5 2.769096 1_565
Pt0_3 Re0_4 2.769096 1_566
Pt0_3 Re0_2 2.769096 1_556
Pt0_3 Re0_3 2.769096 1_555
Pt0_3 Pt0_7 2.794356 1_455
Pt0_3 Pt0_7 2.794356 1_555
Pt0_3 Pt0_5 2.794356 1_565
Pt0_3 Pt0_5 2.794356 1_455
Pt0_4 Re0_7 2.769094 1_555
Pt0_4 Re0_6 2.769094 1_555
Pt0_4 Re0_3 2.769096 1_655
Pt0_4 Re0_4 2.769096 1_555
Pt0_4 Re0_2 2.769096 1_655
Pt0_4 Re0_5 2.769096 1_555
Pt0_4 Pt0_6 2.794356 1_555
Pt0_4 Pt0_6 2.794356 1_545
Pt0_5 Re0_7 2.769094 1_555
Pt0_5 Re0_6 2.769094 1_556
Pt0_5 Re0_3 2.769096 1_655
Pt0_5 Re0_4 2.769096 1_556
Pt0_5 Re0_5 2.769096 1_555
Pt0_5 Re0_2 2.769096 1_656
Pt0_5 Pt0_7 2.794356 1_555
Pt0_5 Pt0_7 2.794356 1_545
Pt0_6 Re0_4 2.769094 1_565
Pt0_6 Re0_5 2.769094 1_565
Pt0_6 Re0_6 2.769096 1_555
Pt0_6 Re0_7 2.769096 1_555
Pt0_6 Re0_0 2.769096 1_665
Pt0_6 Re0_1 2.769096 1_665
Pt0_7 Re0_5 2.769094 1_565
Pt0_7 Re0_4 2.769094 1_566
Pt0_7 Re0_6 2.769096 1_556
Pt0_7 Re0_7 2.769096 1_555
Pt0_7 Re0_0 2.769096 1_666
Pt0_7 Re0_1 2.769096 1_665
