# generated using pymatgen
data_Pr3GaFeS7
_symmetry_space_group_name_H-M   'P 1'
_cell_length_a   10.10158009
_cell_length_b   10.10158009
_cell_length_c   6.03177600
_cell_angle_alpha   90.00000000
_cell_angle_beta   90.00000000
_cell_angle_gamma   120.00000058
_symmetry_Int_Tables_number   1
_chemical_formula_structural   Pr3GaFeS7
_chemical_formula_sum   'Pr6 Ga2 Fe2 S14'
_cell_volume   533.03344172
_cell_formula_units_Z   2
loop_
 _symmetry_equiv_pos_site_id
 _symmetry_equiv_pos_as_xyz
  1  'x, y, z'
loop_
 _atom_site_type_symbol
 _atom_site_label
 _atom_site_symmetry_multiplicity
 _atom_site_fract_x
 _atom_site_fract_y
 _atom_site_fract_z
 _atom_site_occupancy
  Pr  Pr0  1  0.85597900  0.22819800  0.29241300  1
  Pr  Pr1  1  0.77180200  0.62778000  0.29241300  1
  Pr  Pr2  1  0.37222000  0.14402100  0.29241300  1
  Pr  Pr3  1  0.14402100  0.77180200  0.79241300  1
  Pr  Pr4  1  0.22819800  0.37222000  0.79241300  1
  Pr  Pr5  1  0.62778000  0.85597900  0.79241300  1
  Ga  Ga0  1  0.33333300  0.66666700  0.37281800  1
  Ga  Ga1  1  0.66666700  0.33333300  0.87281800  1
  Fe  Fe0  1  0.00000000  0.00000000  0.50253300  1
  Fe  Fe1  1  0.00000000  0.00000000  0.00253300  1
  S  S0  1  0.14165000  0.23381500  0.24136900  1
  S  S1  1  0.76618500  0.90783500  0.24136900  1
  S  S2  1  0.09216500  0.85835000  0.24136900  1
  S  S3  1  0.85835000  0.76618500  0.74136900  1
  S  S4  1  0.23381500  0.09216500  0.74136900  1
  S  S5  1  0.90783500  0.14165000  0.74136900  1
  S  S6  1  0.57710400  0.09492400  0.02153900  1
  S  S7  1  0.90507600  0.48218000  0.02153900  1
  S  S8  1  0.51782000  0.42289600  0.02153900  1
  S  S9  1  0.42289600  0.90507600  0.52153900  1
  S  S10  1  0.09492400  0.51782000  0.52153900  1
  S  S11  1  0.48218000  0.57710400  0.52153900  1
  S  S12  1  0.33333300  0.66666700  0.00082400  1
  S  S13  1  0.66666700  0.33333300  0.50082400  1
loop_
_geom_bond_atom_site_label_1
_geom_bond_atom_site_label_2
_geom_bond_distance
_geom_bond_site_symmetry_2
Pr0 S7 2.867997 1_555
Pr0 S0 2.874318 1_655
Pr0 S13 2.897626 1_555
Pr0 S1 2.907741 1_545
Pr0 S6 2.936885 1_555
Pr0 S5 2.971530 1_555
Pr0 S10 3.038711 1_655
Pr1 S8 2.867995 1_555
Pr1 S1 2.874328 1_555
Pr1 S13 2.897626 1_555
Pr1 S2 2.907744 1_655
Pr1 S7 2.936878 1_555
Pr1 S3 2.971533 1_555
Pr1 S11 3.038715 1_555
Pr2 S6 2.867989 1_555
Pr2 S2 2.874323 1_545
Pr2 S13 2.897626 1_555
Pr2 S0 2.907751 1_555
Pr2 S8 2.936885 1_555
Pr2 S4 2.971534 1_555
Pr2 S9 3.038706 1_545
Pr3 S10 2.867997 1_555
Pr3 S3 2.874318 1_455
Pr3 S12 2.897626 1_556
Pr3 S4 2.907741 1_565
Pr3 S9 2.936885 1_555
Pr3 S2 2.971530 1_556
Pr3 S7 3.038711 1_456
Pr4 S11 2.867995 1_555
Pr4 S4 2.874328 1_555
Pr4 S12 2.897626 1_556
Pr4 S5 2.907744 1_455
Pr4 S10 2.936878 1_555
Pr4 S0 2.971533 1_556
Pr4 S8 3.038715 1_556
Pr5 S9 2.867989 1_555
Pr5 S5 2.874323 1_565
Pr5 S12 2.897626 1_556
Pr5 S3 2.907751 1_555
Pr5 S11 2.936885 1_555
Pr5 S1 2.971534 1_556
Pr5 S6 3.038706 1_566
Ga0 S12 2.243784 1_555
Ga0 S9 2.290047 1_555
Ga0 S10 2.290049 1_555
Ga0 S11 2.290056 1_555
Ga1 S13 2.243784 1_555
Ga1 S6 2.290047 1_556
Ga1 S7 2.290049 1_556
Ga1 S8 2.290056 1_556
Fe0 S3 2.514308 1_445
Fe0 S4 2.514308 1_555
Fe0 S5 2.514308 1_455
Fe0 S0 2.593823 1_555
Fe0 S1 2.593823 1_445
Fe0 S2 2.593823 1_545
Fe1 S0 2.514308 1_555
Fe1 S1 2.514308 1_445
Fe1 S2 2.514308 1_545
Fe1 S3 2.593823 1_444
Fe1 S4 2.593823 1_554
Fe1 S5 2.593823 1_454
