# generated using pymatgen
data_MnTl(VS2)4
_symmetry_space_group_name_H-M   'P 1'
_cell_length_a   6.58422200
_cell_length_b   17.00317534
_cell_length_c   17.84451219
_cell_angle_alpha   104.73431924
_cell_angle_beta   100.63132116
_cell_angle_gamma   90.00000000
_symmetry_Int_Tables_number   1
_chemical_formula_structural   MnTl(VS2)4
_chemical_formula_sum   'Mn8 Tl8 V32 S64'
_cell_volume   1896.56704402
_cell_formula_units_Z   8
loop_
 _symmetry_equiv_pos_site_id
 _symmetry_equiv_pos_as_xyz
  1  'x, y, z'
loop_
 _atom_site_type_symbol
 _atom_site_label
 _atom_site_symmetry_multiplicity
 _atom_site_fract_x
 _atom_site_fract_y
 _atom_site_fract_z
 _atom_site_occupancy
  Mn  Mn0_0  1  0.00000000  0.25000000  0.00000000  1
  Mn  Mn0_1  1  0.00000000  0.25000000  0.50000000  1
  Mn  Mn0_2  1  0.00000000  0.75000000  0.00000000  1
  Mn  Mn0_3  1  0.00000000  0.75000000  0.50000000  1
  Mn  Mn0_4  1  0.50000000  0.25000000  0.00000000  1
  Mn  Mn0_5  1  0.50000000  0.25000000  0.50000000  1
  Mn  Mn0_6  1  0.50000000  0.75000000  0.00000000  1
  Mn  Mn0_7  1  0.50000000  0.75000000  0.50000000  1
  Tl  Tl0_0  1  0.25000000  0.00000000  0.00000000  1
  Tl  Tl0_1  1  0.25000000  0.00000000  0.50000000  1
  Tl  Tl0_2  1  0.25000000  0.50000000  0.00000000  1
  Tl  Tl0_3  1  0.25000000  0.50000000  0.50000000  1
  Tl  Tl0_4  1  0.75000000  0.00000000  0.00000000  1
  Tl  Tl0_5  1  0.75000000  0.00000000  0.50000000  1
  Tl  Tl0_6  1  0.75000000  0.50000000  0.00000000  1
  Tl  Tl0_7  1  0.75000000  0.50000000  0.50000000  1
  V  V0_0  1  0.35584950  0.42970700  0.21169900  1
  V  V0_1  1  0.35584950  0.42970700  0.71169900  1
  V  V0_2  1  0.35584950  0.92970700  0.21169900  1
  V  V0_3  1  0.35584950  0.92970700  0.71169900  1
  V  V0_4  1  0.85584950  0.42970700  0.21169900  1
  V  V0_5  1  0.85584950  0.42970700  0.71169900  1
  V  V0_6  1  0.85584950  0.92970700  0.21169900  1
  V  V0_7  1  0.85584950  0.92970700  0.71169900  1
  V  V1_0  1  0.14415050  0.07029300  0.28830100  1
  V  V1_1  1  0.14415050  0.07029300  0.78830100  1
  V  V1_2  1  0.14415050  0.57029300  0.28830100  1
  V  V1_3  1  0.14415050  0.57029300  0.78830100  1
  V  V1_4  1  0.64415050  0.07029300  0.28830100  1
  V  V1_5  1  0.64415050  0.07029300  0.78830100  1
  V  V1_6  1  0.64415050  0.57029300  0.28830100  1
  V  V1_7  1  0.64415050  0.57029300  0.78830100  1
  V  V2_0  1  0.32434700  0.24878950  0.14869400  1
  V  V2_1  1  0.32434700  0.24878950  0.64869400  1
  V  V2_2  1  0.32434700  0.74878950  0.14869400  1
  V  V2_3  1  0.32434700  0.74878950  0.64869400  1
  V  V2_4  1  0.82434700  0.24878950  0.14869400  1
  V  V2_5  1  0.82434700  0.24878950  0.64869400  1
  V  V2_6  1  0.82434700  0.74878950  0.14869400  1
  V  V2_7  1  0.82434700  0.74878950  0.64869400  1
  V  V3_0  1  0.17565300  0.25121050  0.35130600  1
  V  V3_1  1  0.17565300  0.25121050  0.85130600  1
  V  V3_2  1  0.17565300  0.75121050  0.35130600  1
  V  V3_3  1  0.17565300  0.75121050  0.85130600  1
  V  V3_4  1  0.67565300  0.25121050  0.35130600  1
  V  V3_5  1  0.67565300  0.25121050  0.85130600  1
  V  V3_6  1  0.67565300  0.75121050  0.35130600  1
  V  V3_7  1  0.67565300  0.75121050  0.85130600  1
  S  S0_0  1  0.42034500  0.00176450  0.34068950  1
  S  S0_1  1  0.42034500  0.00176450  0.84068950  1
  S  S0_2  1  0.42034500  0.50176450  0.34068950  1
  S  S0_3  1  0.42034500  0.50176450  0.84068950  1
  S  S0_4  1  0.92034500  0.00176450  0.34068950  1
  S  S0_5  1  0.92034500  0.00176450  0.84068950  1
  S  S0_6  1  0.92034500  0.50176450  0.34068950  1
  S  S0_7  1  0.92034500  0.50176450  0.84068950  1
  S  S1_0  1  0.07965500  0.49823550  0.15931050  1
  S  S1_1  1  0.07965500  0.49823550  0.65931050  1
  S  S1_2  1  0.07965500  0.99823550  0.15931050  1
  S  S1_3  1  0.07965500  0.99823550  0.65931050  1
  S  S1_4  1  0.57965500  0.49823550  0.15931050  1
  S  S1_5  1  0.57965500  0.49823550  0.65931050  1
  S  S1_6  1  0.57965500  0.99823550  0.15931050  1
  S  S1_7  1  0.57965500  0.99823550  0.65931050  1
  S  S2_0  1  0.37921700  0.16881600  0.25843350  1
  S  S2_1  1  0.37921700  0.16881600  0.75843350  1
  S  S2_2  1  0.37921700  0.66881600  0.25843350  1
  S  S2_3  1  0.37921700  0.66881600  0.75843350  1
  S  S2_4  1  0.87921700  0.16881600  0.25843350  1
  S  S2_5  1  0.87921700  0.16881600  0.75843350  1
  S  S2_6  1  0.87921700  0.66881600  0.25843350  1
  S  S2_7  1  0.87921700  0.66881600  0.75843350  1
  S  S3_0  1  0.12078300  0.33118400  0.24156650  1
  S  S3_1  1  0.12078300  0.33118400  0.74156650  1
  S  S3_2  1  0.12078300  0.83118400  0.24156650  1
  S  S3_3  1  0.12078300  0.83118400  0.74156650  1
  S  S3_4  1  0.62078300  0.33118400  0.24156650  1
  S  S3_5  1  0.62078300  0.33118400  0.74156650  1
  S  S3_6  1  0.62078300  0.83118400  0.24156650  1
  S  S3_7  1  0.62078300  0.83118400  0.74156650  1
  S  S4_0  1  0.45896000  0.33852650  0.41792000  1
  S  S4_1  1  0.45896000  0.33852650  0.91792000  1
  S  S4_2  1  0.45896000  0.83852650  0.41792000  1
  S  S4_3  1  0.45896000  0.83852650  0.91792000  1
  S  S4_4  1  0.95896000  0.33852650  0.41792000  1
  S  S4_5  1  0.95896000  0.33852650  0.91792000  1
  S  S4_6  1  0.95896000  0.83852650  0.41792000  1
  S  S4_7  1  0.95896000  0.83852650  0.91792000  1
  S  S5_0  1  0.04104000  0.16147350  0.08208000  1
  S  S5_1  1  0.04104000  0.16147350  0.58208000  1
  S  S5_2  1  0.04104000  0.66147350  0.08208000  1
  S  S5_3  1  0.04104000  0.66147350  0.58208000  1
  S  S5_4  1  0.54104000  0.16147350  0.08208000  1
  S  S5_5  1  0.54104000  0.16147350  0.58208000  1
  S  S5_6  1  0.54104000  0.66147350  0.08208000  1
  S  S5_7  1  0.54104000  0.66147350  0.58208000  1
  S  S6_0  1  0.28546450  0.33695700  0.07092900  1
  S  S6_1  1  0.28546450  0.33695700  0.57092900  1
  S  S6_2  1  0.28546450  0.83695700  0.07092900  1
  S  S6_3  1  0.28546450  0.83695700  0.57092900  1
  S  S6_4  1  0.78546450  0.33695700  0.07092900  1
  S  S6_5  1  0.78546450  0.33695700  0.57092900  1
  S  S6_6  1  0.78546450  0.83695700  0.07092900  1
  S  S6_7  1  0.78546450  0.83695700  0.57092900  1
  S  S7_0  1  0.21453550  0.16304300  0.42907100  1
  S  S7_1  1  0.21453550  0.16304300  0.92907100  1
  S  S7_2  1  0.21453550  0.66304300  0.42907100  1
  S  S7_3  1  0.21453550  0.66304300  0.92907100  1
  S  S7_4  1  0.71453550  0.16304300  0.42907100  1
  S  S7_5  1  0.71453550  0.16304300  0.92907100  1
  S  S7_6  1  0.71453550  0.66304300  0.42907100  1
  S  S7_7  1  0.71453550  0.66304300  0.92907100  1
loop_
_geom_bond_atom_site_label_1
_geom_bond_atom_site_label_2
_geom_bond_distance
_geom_bond_site_symmetry_2
Mn0_0 S4_5 2.336547 1_454
Mn0_0 S5_0 2.336547 1_555
Mn0_0 S6_4 2.343315 1_455
Mn0_0 S7_1 2.343315 1_554
Mn0_0 S6_0 2.343315 1_555
Mn0_0 S7_5 2.343315 1_454
Mn0_1 S4_4 2.336547 1_455
Mn0_1 S5_1 2.336547 1_555
Mn0_1 S6_5 2.343315 1_455
Mn0_1 S7_0 2.343315 1_555
Mn0_1 S6_1 2.343315 1_555
Mn0_1 S7_4 2.343315 1_455
Mn0_2 S4_7 2.336547 1_454
Mn0_2 S5_2 2.336547 1_555
Mn0_2 S6_6 2.343315 1_455
Mn0_2 S7_3 2.343315 1_554
Mn0_2 S6_2 2.343315 1_555
Mn0_2 S7_7 2.343315 1_454
Mn0_3 S5_3 2.336547 1_555
Mn0_3 S4_6 2.336547 1_455
Mn0_3 S6_7 2.343315 1_455
Mn0_3 S7_2 2.343315 1_555
Mn0_3 S6_3 2.343315 1_555
Mn0_3 S7_6 2.343315 1_455
Mn0_4 S4_1 2.336547 1_554
Mn0_4 S5_4 2.336547 1_555
Mn0_4 S6_0 2.343315 1_555
Mn0_4 S7_5 2.343315 1_554
Mn0_4 S6_4 2.343315 1_555
Mn0_4 S7_1 2.343315 1_554
Mn0_5 S4_0 2.336547 1_555
Mn0_5 S5_5 2.336547 1_555
Mn0_5 S6_1 2.343315 1_555
Mn0_5 S7_4 2.343315 1_555
Mn0_5 S6_5 2.343315 1_555
Mn0_5 S7_0 2.343315 1_555
Mn0_6 S4_3 2.336547 1_554
Mn0_6 S5_6 2.336547 1_555
Mn0_6 S6_2 2.343315 1_555
Mn0_6 S7_7 2.343315 1_554
Mn0_6 S6_6 2.343315 1_555
Mn0_6 S7_3 2.343315 1_554
Mn0_7 S5_7 2.336547 1_555
Mn0_7 S4_2 2.336547 1_555
Mn0_7 S6_3 2.343315 1_555
Mn0_7 S7_6 2.343315 1_555
Mn0_7 S6_7 2.343315 1_555
Mn0_7 S7_2 2.343315 1_555
Tl0_0 Tl0_4 3.292111 1_555
Tl0_0 Tl0_4 3.292111 1_455
Tl0_1 Tl0_5 3.292111 1_555
Tl0_1 Tl0_5 3.292111 1_455
Tl0_2 Tl0_6 3.292111 1_455
Tl0_2 Tl0_6 3.292111 1_555
Tl0_3 Tl0_7 3.292111 1_455
Tl0_3 Tl0_7 3.292111 1_555
S0_0 V0_2 2.276933 1_545
S0_0 V1_4 2.337836 1_555
S0_0 V1_0 2.337838 1_555
S0_0 Tl0_5 3.249666 1_555
S0_0 Tl0_1 3.249667 1_555
S0_1 V0_3 2.276933 1_545
S0_1 V1_5 2.337836 1_555
S0_1 V1_1 2.337838 1_555
S0_1 Tl0_4 3.249666 1_556
S0_1 Tl0_0 3.249667 1_556
S0_2 V0_0 2.276933 1_555
S0_2 V1_6 2.337836 1_555
S0_2 V1_2 2.337838 1_555
S0_2 Tl0_7 3.249666 1_555
S0_2 Tl0_3 3.249667 1_555
S0_3 V0_1 2.276933 1_555
S0_3 V1_7 2.337836 1_555
S0_3 V1_3 2.337838 1_555
S0_3 Tl0_6 3.249666 1_556
S0_3 Tl0_2 3.249667 1_556
S0_4 V0_6 2.276933 1_545
S0_4 V1_0 2.337836 1_655
S0_4 V1_4 2.337838 1_555
S0_4 Tl0_1 3.249666 1_655
S0_4 Tl0_5 3.249667 1_555
S0_5 V0_7 2.276933 1_545
S0_5 V1_1 2.337836 1_655
S0_5 V1_5 2.337838 1_555
S0_5 Tl0_0 3.249666 1_656
S0_5 Tl0_4 3.249667 1_556
S0_6 V0_4 2.276933 1_555
S0_6 V1_2 2.337836 1_655
S0_6 V1_6 2.337838 1_555
S0_6 Tl0_3 3.249666 1_655
S0_6 Tl0_7 3.249667 1_555
S0_7 V0_5 2.276933 1_555
S0_7 V1_3 2.337836 1_655
S0_7 V1_7 2.337838 1_555
S0_7 Tl0_2 3.249666 1_656
S0_7 Tl0_6 3.249667 1_556
S1_0 V1_2 2.276933 1_555
S1_0 V0_4 2.337836 1_455
S1_0 V0_0 2.337838 1_555
S1_0 Tl0_6 3.249666 1_455
S1_0 Tl0_2 3.249667 1_555
S1_1 V1_3 2.276933 1_555
S1_1 V0_5 2.337836 1_455
S1_1 V0_1 2.337838 1_555
S1_1 Tl0_7 3.249666 1_455
S1_1 Tl0_3 3.249667 1_555
S1_2 V1_0 2.276933 1_565
S1_2 V0_6 2.337836 1_455
S1_2 V0_2 2.337838 1_555
S1_2 Tl0_4 3.249666 1_465
S1_2 Tl0_0 3.249667 1_565
S1_3 V1_1 2.276933 1_565
S1_3 V0_7 2.337836 1_455
S1_3 V0_3 2.337838 1_555
S1_3 Tl0_5 3.249666 1_465
S1_3 Tl0_1 3.249667 1_565
S1_4 V1_6 2.276933 1_555
S1_4 V0_0 2.337836 1_555
S1_4 V0_4 2.337838 1_555
S1_4 Tl0_2 3.249666 1_555
S1_4 Tl0_6 3.249667 1_555
S1_5 V1_7 2.276933 1_555
S1_5 V0_1 2.337836 1_555
S1_5 V0_5 2.337838 1_555
S1_5 Tl0_3 3.249666 1_555
S1_5 Tl0_7 3.249667 1_555
S1_6 V1_4 2.276933 1_565
S1_6 V0_2 2.337836 1_555
S1_6 V0_6 2.337838 1_555
S1_6 Tl0_0 3.249666 1_565
S1_6 Tl0_4 3.249667 1_565
S1_7 V1_5 2.276933 1_565
S1_7 V0_3 2.337836 1_555
S1_7 V0_7 2.337838 1_555
S1_7 Tl0_1 3.249666 1_565
S1_7 Tl0_5 3.249667 1_565
S2_0 V3_4 2.478754 1_555
S2_0 V3_0 2.478756 1_555
S2_0 V1_4 2.498870 1_555
S2_0 V1_0 2.498873 1_555
S2_0 V2_0 2.628269 1_555
S2_1 V3_5 2.478754 1_555
S2_1 V3_1 2.478756 1_555
S2_1 V1_5 2.498870 1_555
S2_1 V1_1 2.498873 1_555
S2_1 V2_1 2.628269 1_555
S2_2 V3_6 2.478754 1_555
S2_2 V3_2 2.478756 1_555
S2_2 V1_6 2.498870 1_555
S2_2 V1_2 2.498873 1_555
S2_2 V2_2 2.628269 1_555
S2_3 V3_7 2.478754 1_555
S2_3 V3_3 2.478756 1_555
S2_3 V1_7 2.498870 1_555
S2_3 V1_3 2.498873 1_555
S2_3 V2_3 2.628269 1_555
S2_4 V3_0 2.478754 1_655
S2_4 V3_4 2.478756 1_555
S2_4 V1_0 2.498870 1_655
S2_4 V1_4 2.498873 1_555
S2_4 V2_4 2.628269 1_555
S2_5 V3_1 2.478754 1_655
S2_5 V3_5 2.478756 1_555
S2_5 V1_1 2.498870 1_655
S2_5 V1_5 2.498873 1_555
S2_5 V2_5 2.628269 1_555
S2_6 V3_2 2.478754 1_655
S2_6 V3_6 2.478756 1_555
S2_6 V1_2 2.498870 1_655
S2_6 V1_6 2.498873 1_555
S2_6 V2_6 2.628269 1_555
S2_7 V3_3 2.478754 1_655
S2_7 V3_7 2.478756 1_555
S2_7 V1_3 2.498870 1_655
S2_7 V1_7 2.498873 1_555
S2_7 V2_7 2.628269 1_555
S3_0 V2_4 2.478754 1_455
S3_0 V2_0 2.478756 1_555
S3_0 V0_4 2.498870 1_455
S3_0 V0_0 2.498873 1_555
S3_0 V3_0 2.628269 1_555
S3_1 V2_5 2.478754 1_455
S3_1 V2_1 2.478756 1_555
S3_1 V0_5 2.498870 1_455
S3_1 V0_1 2.498873 1_555
S3_1 V3_1 2.628269 1_555
S3_2 V2_6 2.478754 1_455
S3_2 V2_2 2.478756 1_555
S3_2 V0_6 2.498870 1_455
S3_2 V0_2 2.498873 1_555
S3_2 V3_2 2.628269 1_555
S3_3 V2_7 2.478754 1_455
S3_3 V2_3 2.478756 1_555
S3_3 V0_7 2.498870 1_455
S3_3 V0_3 2.498873 1_555
S3_3 V3_3 2.628269 1_555
S3_4 V2_0 2.478754 1_555
S3_4 V2_4 2.478756 1_555
S3_4 V0_0 2.498870 1_555
S3_4 V0_4 2.498873 1_555
S3_4 V3_4 2.628269 1_555
S3_5 V2_1 2.478754 1_555
S3_5 V2_5 2.478756 1_555
S3_5 V0_1 2.498870 1_555
S3_5 V0_5 2.498873 1_555
S3_5 V3_5 2.628269 1_555
S3_6 V2_2 2.478754 1_555
S3_6 V2_6 2.478756 1_555
S3_6 V0_2 2.498870 1_555
S3_6 V0_6 2.498873 1_555
S3_6 V3_6 2.628269 1_555
S3_7 V2_3 2.478754 1_555
S3_7 V2_7 2.478756 1_555
S3_7 V0_3 2.498870 1_555
S3_7 V0_7 2.498873 1_555
S3_7 V3_7 2.628269 1_555
S4_0 V3_4 2.319672 1_555
S4_0 V3_0 2.319672 1_555
S4_0 Tl0_3 3.205356 1_555
S4_0 Tl0_7 3.205356 1_555
S4_1 V3_5 2.319672 1_555
S4_1 V3_1 2.319672 1_555
S4_1 Tl0_2 3.205356 1_556
S4_1 Tl0_6 3.205356 1_556
S4_2 V3_6 2.319672 1_555
S4_2 V3_2 2.319672 1_555
S4_2 Tl0_1 3.205356 1_565
S4_2 Tl0_5 3.205356 1_565
S4_3 V3_7 2.319672 1_555
S4_3 V3_3 2.319672 1_555
S4_3 Tl0_0 3.205356 1_566
S4_3 Tl0_4 3.205356 1_566
S4_4 V3_0 2.319672 1_655
S4_4 V3_4 2.319672 1_555
S4_4 Tl0_7 3.205356 1_555
S4_4 Tl0_3 3.205356 1_655
S4_5 V3_1 2.319672 1_655
S4_5 V3_5 2.319672 1_555
S4_5 Tl0_6 3.205356 1_556
S4_5 Tl0_2 3.205356 1_656
S4_6 V3_2 2.319672 1_655
S4_6 V3_6 2.319672 1_555
S4_6 Tl0_5 3.205356 1_565
S4_6 Tl0_1 3.205356 1_665
S4_7 V3_3 2.319672 1_655
S4_7 V3_7 2.319672 1_555
S4_7 Tl0_4 3.205356 1_566
S4_7 Tl0_0 3.205356 1_666
S5_0 V2_4 2.319672 1_455
S5_0 V2_0 2.319672 1_555
S5_0 Tl0_0 3.205356 1_555
S5_0 Tl0_4 3.205356 1_455
S5_1 V2_5 2.319672 1_455
S5_1 V2_1 2.319672 1_555
S5_1 Tl0_1 3.205356 1_555
S5_1 Tl0_5 3.205356 1_455
S5_2 V2_6 2.319672 1_455
S5_2 V2_2 2.319672 1_555
S5_2 Tl0_2 3.205356 1_555
S5_2 Tl0_6 3.205356 1_455
S5_3 V2_7 2.319672 1_455
S5_3 V2_3 2.319672 1_555
S5_3 Tl0_3 3.205356 1_555
S5_3 Tl0_7 3.205356 1_455
S5_4 V2_0 2.319672 1_555
S5_4 V2_4 2.319672 1_555
S5_4 Tl0_4 3.205356 1_555
S5_4 Tl0_0 3.205356 1_555
S5_5 V2_1 2.319672 1_555
S5_5 V2_5 2.319672 1_555
S5_5 Tl0_5 3.205356 1_555
S5_5 Tl0_1 3.205356 1_555
S5_6 V2_2 2.319672 1_555
S5_6 V2_6 2.319672 1_555
S5_6 Tl0_6 3.205356 1_555
S5_6 Tl0_2 3.205356 1_555
S5_7 V2_3 2.319672 1_555
S5_7 V2_7 2.319672 1_555
S5_7 Tl0_7 3.205356 1_555
S5_7 Tl0_3 3.205356 1_555
S6_0 V2_0 2.272816 1_555
S6_0 V0_0 2.562654 1_555
S6_0 Tl0_2 3.319287 1_555
S6_1 V2_1 2.272816 1_555
S6_1 V0_1 2.562654 1_555
S6_1 Tl0_3 3.319287 1_555
S6_2 V2_2 2.272816 1_555
S6_2 V0_2 2.562654 1_555
S6_2 Tl0_0 3.319287 1_565
S6_3 V2_3 2.272816 1_555
S6_3 V0_3 2.562654 1_555
S6_3 Tl0_1 3.319287 1_565
S6_4 V2_4 2.272816 1_555
S6_4 V0_4 2.562654 1_555
S6_4 Tl0_6 3.319287 1_555
S6_5 V2_5 2.272816 1_555
S6_5 V0_5 2.562654 1_555
S6_5 Tl0_7 3.319287 1_555
S6_6 V2_6 2.272816 1_555
S6_6 V0_6 2.562654 1_555
S6_6 Tl0_4 3.319287 1_565
S6_7 V2_7 2.272816 1_555
S6_7 V0_7 2.562654 1_555
S6_7 Tl0_5 3.319287 1_565
S7_0 V3_0 2.272816 1_555
S7_0 V1_0 2.562654 1_555
S7_0 Tl0_1 3.319287 1_555
S7_1 V3_1 2.272816 1_555
S7_1 V1_1 2.562654 1_555
S7_1 Tl0_0 3.319287 1_556
S7_2 V3_2 2.272816 1_555
S7_2 V1_2 2.562654 1_555
S7_2 Tl0_3 3.319287 1_555
S7_3 V3_3 2.272816 1_555
S7_3 V1_3 2.562654 1_555
S7_3 Tl0_2 3.319287 1_556
S7_4 V3_4 2.272816 1_555
S7_4 V1_4 2.562654 1_555
S7_4 Tl0_5 3.319287 1_555
S7_5 V3_5 2.272816 1_555
S7_5 V1_5 2.562654 1_555
S7_5 Tl0_4 3.319287 1_556
S7_6 V3_6 2.272816 1_555
S7_6 V1_6 2.562654 1_555
S7_6 Tl0_7 3.319287 1_555
S7_7 V3_7 2.272816 1_555
S7_7 V1_7 2.562654 1_555
S7_7 Tl0_6 3.319287 1_556
