# generated using pymatgen
data_MgMoAsO5
_symmetry_space_group_name_H-M   'P 1'
_cell_length_a   6.62583300
_cell_length_b   8.13337500
_cell_length_c   8.65673700
_cell_angle_alpha   90.00000000
_cell_angle_beta   90.00000000
_cell_angle_gamma   90.00000000
_symmetry_Int_Tables_number   1
_chemical_formula_structural   MgMoAsO5
_chemical_formula_sum   'Mg4 Mo4 As4 O20'
_cell_volume   466.51488524
_cell_formula_units_Z   4
loop_
 _symmetry_equiv_pos_site_id
 _symmetry_equiv_pos_as_xyz
  1  'x, y, z'
loop_
 _atom_site_type_symbol
 _atom_site_label
 _atom_site_symmetry_multiplicity
 _atom_site_fract_x
 _atom_site_fract_y
 _atom_site_fract_z
 _atom_site_occupancy
  Mg  Mg0  1  0.12895700  0.83741400  0.67683900  1
  Mg  Mg1  1  0.37104300  0.16258600  0.17683900  1
  Mg  Mg2  1  0.87104300  0.33741400  0.82316100  1
  Mg  Mg3  1  0.62895700  0.66258600  0.32316100  1
  Mo  Mo0  1  0.26534500  0.75227400  0.00450100  1
  Mo  Mo1  1  0.23465500  0.24772600  0.50450100  1
  Mo  Mo2  1  0.73465500  0.25227400  0.49549900  1
  Mo  Mo3  1  0.76534500  0.74772600  0.99549900  1
  As  As0  1  0.47356500  0.09203300  0.82395000  1
  As  As1  1  0.02643500  0.90796700  0.32395000  1
  As  As2  1  0.52643500  0.59203300  0.67605000  1
  As  As3  1  0.97356500  0.40796700  0.17605000  1
  O  O0  1  0.51387200  0.90700900  0.92153200  1
  O  O1  1  0.98612800  0.09299100  0.42153200  1
  O  O2  1  0.48612800  0.40700900  0.57846800  1
  O  O3  1  0.01387200  0.59299100  0.07846800  1
  O  O4  1  0.40670400  0.22883000  0.96162800  1
  O  O5  1  0.09329600  0.77117000  0.46162800  1
  O  O6  1  0.59329600  0.72883000  0.53837200  1
  O  O7  1  0.90670400  0.27117000  0.03837200  1
  O  O8  1  0.69386100  0.14974700  0.73389600  1
  O  O9  1  0.80613900  0.85025300  0.23389600  1
  O  O10  1  0.30613900  0.64974700  0.76610400  1
  O  O11  1  0.19386100  0.35025300  0.26610400  1
  O  O12  1  0.28843400  0.05957300  0.68620300  1
  O  O13  1  0.21156600  0.94042700  0.18620300  1
  O  O14  1  0.71156600  0.55957300  0.81379700  1
  O  O15  1  0.78843400  0.44042700  0.31379700  1
  O  O16  1  0.01331900  0.84659200  0.88101700  1
  O  O17  1  0.48668100  0.15340800  0.38101700  1
  O  O18  1  0.98668100  0.34659200  0.61898300  1
  O  O19  1  0.51331900  0.65340800  0.11898300  1
loop_
_geom_bond_atom_site_label_1
_geom_bond_atom_site_label_2
_geom_bond_distance
_geom_bond_site_symmetry_2
Mg0 O16 1.927885 1_555
Mg0 O5 1.953710 1_555
Mg0 O10 2.074886 1_555
Mg0 O12 2.094759 1_565
Mg1 O17 1.927885 1_555
Mg1 O4 1.953710 1_554
Mg1 O11 2.074886 1_555
Mg1 O13 2.094759 1_545
Mg2 O18 1.927885 1_555
Mg2 O7 1.953710 1_556
Mg2 O8 2.074886 1_555
Mg2 O14 2.094759 1_555
Mg3 O19 1.927885 1_555
Mg3 O6 1.953710 1_555
Mg3 O9 2.074886 1_555
Mg3 O15 2.094759 1_555
Mo0 O19 2.080462 1_555
Mo0 O16 2.125954 1_554
Mo0 O0 2.193480 1_554
Mo0 O3 2.205590 1_555
Mo0 O13 2.223288 1_555
Mo0 O10 2.242199 1_554
Mo1 O18 2.080462 1_455
Mo1 O17 2.125954 1_555
Mo1 O1 2.193480 1_455
Mo1 O2 2.205590 1_555
Mo1 O12 2.223288 1_555
Mo1 O11 2.242199 1_555
Mo2 O17 2.080462 1_555
Mo2 O18 2.125954 1_555
Mo2 O2 2.193480 1_555
Mo2 O1 2.205590 1_555
Mo2 O15 2.223288 1_555
Mo2 O8 2.242199 1_555
Mo3 O16 2.080462 1_655
Mo3 O19 2.125954 1_556
Mo3 O3 2.193480 1_656
Mo3 O0 2.205590 1_555
Mo3 O14 2.223288 1_555
Mo3 O9 2.242199 1_556
As0 O4 1.689577 1_555
As0 O8 1.720071 1_555
As0 O12 1.730975 1_555
As0 O0 1.746295 1_545
As1 O5 1.689577 1_555
As1 O9 1.720071 1_455
As1 O13 1.730975 1_555
As1 O1 1.746295 1_465
As2 O6 1.689577 1_555
As2 O10 1.720071 1_555
As2 O14 1.730975 1_555
As2 O2 1.746295 1_555
As3 O7 1.689577 1_555
As3 O11 1.720071 1_655
As3 O15 1.730975 1_555
As3 O3 1.746295 1_655
