# generated using pymatgen
data_Mg14GaSn
_symmetry_space_group_name_H-M   'P 1'
_cell_length_a   6.28925876
_cell_length_b   6.52093502
_cell_length_c   10.33609211
_cell_angle_alpha   90.00000000
_cell_angle_beta   90.00000000
_cell_angle_gamma   121.22622639
_symmetry_Int_Tables_number   1
_chemical_formula_structural   Mg14GaSn
_chemical_formula_sum   'Mg14 Ga1 Sn1'
_cell_volume   362.49026833
_cell_formula_units_Z   1
loop_
 _symmetry_equiv_pos_site_id
 _symmetry_equiv_pos_as_xyz
  1  'x, y, z'
loop_
 _atom_site_type_symbol
 _atom_site_label
 _atom_site_symmetry_multiplicity
 _atom_site_fract_x
 _atom_site_fract_y
 _atom_site_fract_z
 _atom_site_occupancy
  Mg  Mg0  1  0.16875743  0.33437821  0.62500000  1
  Mg  Mg1  1  0.16860122  0.83430011  0.62500000  1
  Mg  Mg2  1  0.66907421  0.33456611  0.12500000  1
  Mg  Mg3  1  0.66666853  0.33330243  0.62500000  1
  Mg  Mg4  1  0.66907421  0.83450711  0.12500000  1
  Mg  Mg5  1  0.66666853  0.83336510  0.62500000  1
  Mg  Mg6  1  0.33118814  0.16159962  0.37425443  1
  Mg  Mg7  1  0.33118814  0.16159962  0.87574557  1
  Mg  Mg8  1  0.33118814  0.66958952  0.37425443  1
  Mg  Mg9  1  0.33118814  0.66958952  0.87574557  1
  Mg  Mg10  1  0.83291151  0.16645626  0.37849968  1
  Mg  Mg11  1  0.83291151  0.16645626  0.87150032  1
  Mg  Mg12  1  0.83662194  0.66831147  0.37492979  1
  Mg  Mg13  1  0.83662194  0.66831147  0.87507021  1
  Ga  Ga0  1  0.16133804  0.83066852  0.12500000  1
  Sn  Sn0  1  0.16599836  0.33299868  0.12500000  1
loop_
_geom_bond_atom_site_label_1
_geom_bond_atom_site_label_2
_geom_bond_distance
_geom_bond_site_symmetry_2
Mg0 Mg11 3.123134 1_455
Mg0 Mg10 3.123134 1_455
Mg0 Mg5 3.135134 1_555
Mg0 Mg3 3.135134 1_555
Mg0 Mg5 3.154136 1_445
Mg0 Mg3 3.154136 1_455
Mg0 Mg7 3.197412 1_555
Mg0 Mg6 3.197412 1_555
Mg0 Mg8 3.197419 1_555
Mg0 Mg9 3.197419 1_555
Mg0 Mg1 3.260468 1_545
Mg0 Mg1 3.260468 1_555
Mg1 Mg3 3.135639 1_565
Mg1 Mg5 3.135639 1_555
Mg1 Mg13 3.141442 1_455
Mg1 Mg12 3.141442 1_455
Mg1 Mg3 3.153628 1_455
Mg1 Mg5 3.153628 1_455
Mg1 Mg8 3.170968 1_555
Mg1 Mg9 3.170968 1_555
Mg1 Mg6 3.170975 1_565
Mg1 Mg7 3.170975 1_565
Mg2 Sn0 3.130596 1_655
Mg2 Mg6 3.152820 1_555
Mg2 Mg7 3.152820 1_554
Mg2 Sn0 3.158687 1_555
Mg2 Mg4 3.260083 1_555
Mg2 Mg4 3.260852 1_545
Mg3 Mg6 3.158014 1_555
Mg3 Mg7 3.158014 1_555
Mg3 Mg5 3.260059 1_545
Mg3 Mg5 3.260876 1_555
Mg4 Sn0 3.130595 1_665
Mg4 Mg9 3.152821 1_554
Mg4 Mg8 3.152821 1_555
Mg4 Sn0 3.158687 1_555
Mg5 Mg8 3.158014 1_555
Mg5 Mg9 3.158014 1_555
Mg6 Sn0 3.189034 1_555
Mg6 Mg8 3.208366 1_545
Mg6 Mg8 3.312569 1_555
Mg7 Sn0 3.189034 1_556
Mg7 Mg9 3.208366 1_545
Mg7 Mg9 3.312569 1_555
Mg8 Sn0 3.189041 1_555
Mg9 Sn0 3.189041 1_556
Mg10 Mg8 3.139473 1_545
Mg10 Mg6 3.139473 1_555
Mg10 Mg8 3.150631 1_655
Mg10 Mg6 3.150631 1_655
Mg10 Mg3 3.154026 1_555
Mg10 Mg5 3.154033 1_545
Mg10 Sn0 3.174030 1_655
Mg10 Mg2 3.209376 1_555
Mg10 Mg4 3.209383 1_545
Mg10 Mg12 3.260737 1_555
Mg10 Mg12 3.260737 1_545
Mg11 Mg9 3.139473 1_545
Mg11 Mg7 3.139473 1_555
Mg11 Mg9 3.150631 1_655
Mg11 Mg7 3.150631 1_655
Mg11 Mg3 3.154026 1_555
Mg11 Mg5 3.154033 1_545
Mg11 Sn0 3.174030 1_656
Mg11 Mg2 3.209376 1_556
Mg11 Mg4 3.209383 1_546
Mg11 Mg13 3.260737 1_555
Mg11 Mg13 3.260737 1_545
Mg12 Mg6 3.106150 1_665
Mg12 Mg8 3.106150 1_655
Mg12 Mg6 3.183140 1_555
Mg12 Mg8 3.183140 1_555
Mg12 Mg4 3.184714 1_555
Mg12 Mg2 3.184721 1_555
Mg12 Mg5 3.189778 1_555
Mg12 Mg3 3.189784 1_555
Mg13 Mg7 3.106150 1_665
Mg13 Mg9 3.106150 1_655
Mg13 Mg7 3.183140 1_555
Mg13 Mg9 3.183140 1_555
Mg13 Mg4 3.184714 1_556
Mg13 Mg2 3.184721 1_556
Mg13 Mg5 3.189778 1_555
Mg13 Mg3 3.189784 1_555
Ga0 Mg2 3.109025 1_455
Ga0 Mg4 3.109025 1_455
Ga0 Mg12 3.118205 1_455
Ga0 Mg13 3.118205 1_454
Ga0 Mg9 3.169420 1_554
Ga0 Mg8 3.169420 1_555
Ga0 Mg7 3.169427 1_564
Ga0 Mg6 3.169427 1_565
Ga0 Mg2 3.180379 1_565
Ga0 Mg4 3.180380 1_555
Ga0 Sn0 3.260564 1_565
Ga0 Sn0 3.260564 1_555
