# generated using pymatgen
data_CsTi2P3(O5F2)2
_symmetry_space_group_name_H-M   'P 1'
_cell_length_a   8.64497100
_cell_length_b   8.43406800
_cell_length_c   8.99019325
_cell_angle_alpha   82.97933642
_cell_angle_beta   90.00000000
_cell_angle_gamma   90.00000000
_symmetry_Int_Tables_number   1
_chemical_formula_structural   CsTi2P3(O5F2)2
_chemical_formula_sum   'Cs2 Ti4 P6 O20 F8'
_cell_volume   650.58061118
_cell_formula_units_Z   2
loop_
 _symmetry_equiv_pos_site_id
 _symmetry_equiv_pos_as_xyz
  1  'x, y, z'
loop_
 _atom_site_type_symbol
 _atom_site_label
 _atom_site_symmetry_multiplicity
 _atom_site_fract_x
 _atom_site_fract_y
 _atom_site_fract_z
 _atom_site_occupancy
  Cs  Cs0  1  0.60160700  0.50000000  0.75000000  1
  Cs  Cs1  1  0.39839300  0.50000000  0.25000000  1
  Ti  Ti0  1  0.25353900  0.83947400  0.54613300  1
  Ti  Ti1  1  0.25353900  0.16052600  0.95386700  1
  Ti  Ti2  1  0.74646100  0.16052600  0.45386700  1
  Ti  Ti3  1  0.74646100  0.83947400  0.04613300  1
  P  P0  1  0.89967700  0.79957700  0.39731900  1
  P  P1  1  0.89967700  0.20042300  0.10268100  1
  P  P2  1  0.10032300  0.20042300  0.60268100  1
  P  P3  1  0.10032300  0.79957700  0.89731900  1
  P  P4  1  0.53097300  0.00000000  0.75000000  1
  P  P5  1  0.46902700  0.00000000  0.25000000  1
  O  O0  1  0.36687700  0.89241600  0.36134300  1
  O  O1  1  0.36687700  0.10758400  0.13865700  1
  O  O2  1  0.63312300  0.10758400  0.63865700  1
  O  O3  1  0.63312300  0.89241600  0.86134300  1
  O  O4  1  0.18291500  0.06484100  0.53920900  1
  O  O5  1  0.18291500  0.93515900  0.96079100  1
  O  O6  1  0.81708500  0.93515900  0.46079100  1
  O  O7  1  0.81708500  0.06484100  0.03920900  1
  O  O8  1  0.13090900  0.78872100  0.73259500  1
  O  O9  1  0.13090900  0.21127900  0.76740500  1
  O  O10  1  0.86909100  0.21127900  0.26740500  1
  O  O11  1  0.86909100  0.78872100  0.23259500  1
  O  O12  1  0.07131400  0.78790400  0.43203500  1
  O  O13  1  0.07131400  0.21209600  0.06796500  1
  O  O14  1  0.92868600  0.21209600  0.56796500  1
  O  O15  1  0.92868600  0.78790400  0.93203500  1
  O  O16  1  0.43127100  0.88767900  0.66669900  1
  O  O17  1  0.43127100  0.11232100  0.83330100  1
  O  O18  1  0.56872900  0.11232100  0.33330100  1
  O  O19  1  0.56872900  0.88767900  0.16669900  1
  F  F0  1  0.82680700  0.64398000  0.48510200  1
  F  F1  1  0.82680700  0.35602000  0.01489800  1
  F  F2  1  0.17319300  0.35602000  0.51489800  1
  F  F3  1  0.17319300  0.64398000  0.98510200  1
  F  F4  1  0.31751900  0.63017700  0.55860600  1
  F  F5  1  0.31751900  0.36982300  0.94139400  1
  F  F6  1  0.68248100  0.36982300  0.44139400  1
  F  F7  1  0.68248100  0.63017700  0.05860600  1
loop_
_geom_bond_atom_site_label_1
_geom_bond_atom_site_label_2
_geom_bond_distance
_geom_bond_site_symmetry_2
Cs0 F4 3.120244 1_555
Cs0 F5 3.120244 1_555
Cs0 F7 3.183760 1_556
Cs0 F6 3.183760 1_555
Cs0 F0 3.198336 1_555
Cs0 F1 3.198336 1_556
Cs0 O16 3.580735 1_555
Cs0 O17 3.580735 1_555
Cs0 O3 3.583289 1_555
Cs0 O2 3.583289 1_555
Cs1 F6 3.120244 1_555
Cs1 F7 3.120244 1_555
Cs1 F4 3.183760 1_555
Cs1 F5 3.183760 1_554
Cs1 F2 3.198336 1_555
Cs1 F3 3.198336 1_554
Cs1 O18 3.580735 1_555
Cs1 O19 3.580735 1_555
Cs1 O1 3.583289 1_555
Cs1 O0 3.583289 1_555
O0 P5 1.543735 1_565
O0 Ti0 1.933382 1_555
O1 P5 1.543735 1_555
O1 Ti1 1.933382 1_554
O2 P4 1.543735 1_555
O2 Ti2 1.933382 1_555
O3 P4 1.543735 1_565
O3 Ti3 1.933382 1_556
O4 P2 1.517411 1_555
O4 Ti0 1.990127 1_545
O5 P3 1.517411 1_555
O5 Ti1 1.990127 1_565
O6 P0 1.517411 1_555
O6 Ti2 1.990127 1_565
O7 P1 1.517411 1_555
O7 Ti3 1.990127 1_545
O8 P3 1.518062 1_555
O8 Ti0 1.985392 1_555
O9 P2 1.518062 1_555
O9 Ti1 1.985392 1_555
O10 P1 1.518062 1_555
O10 Ti2 1.985392 1_555
O11 P0 1.518062 1_555
O11 Ti3 1.985392 1_555
O12 P0 1.516985 1_455
O12 Ti0 1.957574 1_555
O13 P1 1.516985 1_455
O13 Ti1 1.957574 1_554
O14 P2 1.516985 1_655
O14 Ti2 1.957574 1_555
O15 P3 1.516985 1_655
O15 Ti3 1.957574 1_556
O16 P4 1.540972 1_565
O16 Ti0 1.951584 1_555
O17 P4 1.540972 1_555
O17 Ti1 1.951584 1_555
O18 P5 1.540972 1_555
O18 Ti2 1.951584 1_555
O19 P5 1.540972 1_565
O19 Ti3 1.951584 1_555
F0 P0 1.577550 1_555
F1 P1 1.577550 1_555
F2 P2 1.577550 1_555
F3 P3 1.577550 1_555
F4 Ti0 1.840144 1_555
F5 Ti1 1.840144 1_555
F6 Ti2 1.840144 1_555
F7 Ti3 1.840144 1_555
