# generated using pymatgen
data_BaPPd
_symmetry_space_group_name_H-M   'P 1'
_cell_length_a   6.37088046
_cell_length_b   6.32116226
_cell_length_c   7.80591729
_cell_angle_alpha   90.00000000
_cell_angle_beta   90.00000000
_cell_angle_gamma   103.09739548
_symmetry_Int_Tables_number   1
_chemical_formula_structural   BaPPd
_chemical_formula_sum   'Ba4 P4 Pd4'
_cell_volume   306.17743056
_cell_formula_units_Z   4
loop_
 _symmetry_equiv_pos_site_id
 _symmetry_equiv_pos_as_xyz
  1  'x, y, z'
loop_
 _atom_site_type_symbol
 _atom_site_label
 _atom_site_symmetry_multiplicity
 _atom_site_fract_x
 _atom_site_fract_y
 _atom_site_fract_z
 _atom_site_occupancy
  Ba  Ba0  1  0.18254839  0.81438160  0.51988787  1
  Ba  Ba1  1  0.68254839  0.31438160  0.98011213  1
  Ba  Ba2  1  0.81745161  0.18561840  0.48011213  1
  Ba  Ba3  1  0.31745161  0.68561840  0.01988787  1
  P  P0  1  0.13764368  0.21155414  0.82663585  1
  P  P1  1  0.63764368  0.71155414  0.67336415  1
  P  P2  1  0.86235632  0.78844586  0.17336415  1
  P  P3  1  0.36235632  0.28844586  0.32663585  1
  Pd  Pd0  1  0.37846390  0.38170627  0.62280141  1
  Pd  Pd1  1  0.62153610  0.61829373  0.37719859  1
  Pd  Pd2  1  0.12153610  0.11829373  0.12280141  1
  Pd  Pd3  1  0.87846390  0.88170627  0.87719859  1
loop_
_geom_bond_atom_site_label_1
_geom_bond_atom_site_label_2
_geom_bond_distance
_geom_bond_site_symmetry_2
Ba0 P3 3.318420 1_565
Ba0 P1 3.334385 1_555
Ba0 Pd0 3.351218 1_555
Ba0 P2 3.369451 1_455
Ba0 Pd3 3.476655 1_455
Ba0 Pd1 3.488525 1_555
Ba0 P0 3.527580 1_565
Ba0 P1 3.589785 1_455
Ba0 Pd0 3.610415 1_565
Ba0 Pd1 3.680169 1_455
Ba0 Pd2 3.713183 1_565
Ba1 P2 3.318420 1_556
Ba1 P0 3.334385 1_655
Ba1 Pd3 3.351218 1_545
Ba1 P3 3.369451 1_556
Ba1 Pd0 3.476655 1_555
Ba1 Pd2 3.488525 1_656
Ba1 P1 3.527580 1_555
Ba1 P0 3.589785 1_555
Ba1 Pd3 3.610415 1_555
Ba1 Pd2 3.680169 1_556
Ba1 Pd1 3.713183 1_556
Ba2 P1 3.318420 1_545
Ba2 P3 3.334385 1_555
Ba2 Pd1 3.351218 1_555
Ba2 P0 3.369451 1_655
Ba2 Pd2 3.476655 1_655
Ba2 Pd0 3.488525 1_555
Ba2 P2 3.527580 1_545
Ba2 P3 3.589785 1_655
Ba2 Pd1 3.610415 1_545
Ba2 Pd0 3.680169 1_655
Ba2 Pd3 3.713183 1_545
Ba3 P0 3.318420 1_554
Ba3 P2 3.334385 1_455
Ba3 Pd2 3.351218 1_565
Ba3 P1 3.369451 1_554
Ba3 Pd1 3.476655 1_555
Ba3 Pd3 3.488525 1_454
Ba3 P3 3.527580 1_555
Ba3 P2 3.589785 1_555
Ba3 Pd2 3.610415 1_555
Ba3 Pd3 3.680169 1_554
Ba3 Pd0 3.713183 1_554
P0 Pd0 2.300974 1_555
P0 Pd3 2.381018 1_445
P0 Pd2 2.382281 1_556
P1 Pd3 2.300974 1_555
P1 Pd0 2.381018 1_555
P1 Pd1 2.382281 1_555
P2 Pd1 2.300974 1_555
P2 Pd2 2.381018 1_665
P2 Pd3 2.382281 1_554
P3 Pd2 2.300974 1_555
P3 Pd1 2.381018 1_555
P3 Pd0 2.382281 1_555
Pd0 Pd1 2.694538 1_555
Pd2 Pd3 2.694538 1_444
