# generated using pymatgen
data_CsCdI3O
_symmetry_space_group_name_H-M   'P 1'
_cell_length_a   8.11140300
_cell_length_b   8.41119200
_cell_length_c   15.30661149
_cell_angle_alpha   88.78622751
_cell_angle_beta   90.00000000
_cell_angle_gamma   90.00000000
_symmetry_Int_Tables_number   1
_chemical_formula_structural   CsCdI3O
_chemical_formula_sum   'Cs4 Cd4 I12 O4'
_cell_volume   1044.08324655
_cell_formula_units_Z   4
loop_
 _symmetry_equiv_pos_site_id
 _symmetry_equiv_pos_as_xyz
  1  'x, y, z'
loop_
 _atom_site_type_symbol
 _atom_site_label
 _atom_site_symmetry_multiplicity
 _atom_site_fract_x
 _atom_site_fract_y
 _atom_site_fract_z
 _atom_site_occupancy
  Cs  Cs0  1  0.72601500  0.92061800  0.26340100  1
  Cs  Cs1  1  0.27398500  0.92061800  0.76340100  1
  Cs  Cs2  1  0.48019800  0.38450900  0.13847400  1
  Cs  Cs3  1  0.51980200  0.38450900  0.63847400  1
  Cd  Cd0  1  0.21867400  0.95888800  0.42543900  1
  Cd  Cd1  1  0.78132600  0.95888800  0.92543900  1
  Cd  Cd2  1  0.11859000  0.46446800  0.39609800  1
  Cd  Cd3  1  0.88141000  0.46446800  0.89609800  1
  I  I0  1  0.23817500  0.94546800  0.24118900  1
  I  I1  1  0.76182500  0.94546800  0.74118900  1
  I  I2  1  0.52092900  0.95431000  0.51445400  1
  I  I3  1  0.47907100  0.95431000  0.01445400  1
  I  I4  1  0.02237700  0.20503800  0.50538500  1
  I  I5  1  0.97762300  0.20503800  0.00538500  1
  I  I6  1  0.97755000  0.72626500  0.48444200  1
  I  I7  1  0.02245000  0.72626500  0.98444200  1
  I  I8  1  0.94444500  0.43237900  0.23090800  1
  I  I9  1  0.05555500  0.43237900  0.73090800  1
  I  I10  1  0.45806000  0.48819500  0.38153000  1
  I  I11  1  0.54194000  0.48819500  0.88153000  1
  O  O0  1  0.78591400  0.26218500  0.23902100  1
  O  O1  1  0.21408600  0.26218500  0.73902100  1
  O  O2  1  0.44564700  0.76457700  0.15095800  1
  O  O3  1  0.55435300  0.76457700  0.65095800  1
loop_
_geom_bond_atom_site_label_1
_geom_bond_atom_site_label_2
_geom_bond_distance
_geom_bond_site_symmetry_2
Cs0 O0 2.929838 1_565
Cs0 O2 3.154755 1_555
Cs0 I6 4.248318 1_555
Cs1 O1 2.929838 1_565
Cs1 O3 3.154755 1_555
Cs1 I7 4.248318 1_555
Cs2 O0 3.083747 1_555
Cs2 O2 3.218793 1_555
Cs2 I10 3.843359 1_555
Cs2 I11 4.041551 1_554
Cs3 O1 3.083747 1_555
Cs3 O3 3.218793 1_555
Cs3 I11 3.843359 1_555
Cs3 I10 4.041551 1_555
Cd0 I2 2.804747 1_555
Cd0 I0 2.829315 1_555
Cd0 I6 2.897341 1_455
Cd0 I4 2.902868 1_565
Cd1 I3 2.804747 1_556
Cd1 I1 2.829315 1_555
Cd1 I7 2.897341 1_655
Cd1 I5 2.902868 1_566
Cd2 I10 2.769451 1_555
Cd2 I4 2.830962 1_555
Cd2 I6 2.848236 1_455
Cd2 I8 2.913829 1_455
Cd3 I11 2.769451 1_555
Cd3 I5 2.830962 1_556
Cd3 I7 2.848236 1_655
Cd3 I9 2.913829 1_655
I0 O2 2.672762 1_555
I1 O3 2.672762 1_555
I2 O3 2.616242 1_555
I3 O2 2.616242 1_555
I8 O0 1.926329 1_555
I9 O1 1.926329 1_555
