# generated using pymatgen
data_SmNi4B
_symmetry_space_group_name_H-M   'P 1'
_cell_length_a   5.05866440
_cell_length_b   5.05889322
_cell_length_c   7.04153500
_cell_angle_alpha   90.00000000
_cell_angle_beta   90.00000000
_cell_angle_gamma   119.99850667
_symmetry_Int_Tables_number   1
_chemical_formula_structural   SmNi4B
_chemical_formula_sum   'Sm2 Ni8 B2'
_cell_volume   156.06154091
_cell_formula_units_Z   2
loop_
 _symmetry_equiv_pos_site_id
 _symmetry_equiv_pos_as_xyz
  1  'x, y, z'
loop_
 _atom_site_type_symbol
 _atom_site_label
 _atom_site_symmetry_multiplicity
 _atom_site_fract_x
 _atom_site_fract_y
 _atom_site_fract_z
 _atom_site_occupancy
  Sm  Sm0  1  0.99997900  0.00000000  0.00000000  1
  Sm  Sm1  1  0.99998800  0.00000000  0.50000000  1
  Ni  Ni0  1  0.33321400  0.66647400  0.00000000  1
  Ni  Ni1  1  0.66674100  0.33352600  0.00000000  1
  Ni  Ni2  1  0.49998100  0.00000000  0.29390000  1
  Ni  Ni3  1  0.49998500  0.50000300  0.29386500  1
  Ni  Ni4  1  0.99998200  0.49999700  0.29386500  1
  Ni  Ni5  1  0.49998100  0.00000000  0.70610000  1
  Ni  Ni6  1  0.49998500  0.50000300  0.70613500  1
  Ni  Ni7  1  0.99998200  0.49999700  0.70613500  1
  B  B0  1  0.33345000  0.66692100  0.50000000  1
  B  B1  1  0.66652900  0.33307900  0.50000000  1
loop_
_geom_bond_atom_site_label_1
_geom_bond_atom_site_label_2
_geom_bond_distance
_geom_bond_site_symmetry_2
Ni0 Ni4 2.532413 1_455
Ni0 Ni7 2.532413 1_454
Ni0 Ni3 2.532438 1_555
Ni0 Ni6 2.532438 1_554
Ni0 Ni5 2.533395 1_564
Ni0 Ni2 2.533395 1_565
Ni0 Ni1 2.919817 1_455
Ni0 Ni1 2.919826 1_555
Ni0 Sm0 2.919953 1_455
Ni0 Sm0 2.921079 1_465
Ni0 Sm0 2.921096 1_565
Ni0 Ni1 2.922486 1_565
Ni1 Ni3 2.532415 1_555
Ni1 Ni6 2.532415 1_554
Ni1 Ni4 2.532436 1_555
Ni1 Ni7 2.532436 1_554
Ni1 Ni5 2.533395 1_554
Ni1 Ni2 2.533395 1_555
Ni1 Sm0 2.919953 1_565
Ni1 Sm0 2.921083 1_455
Ni1 Sm0 2.921092 1_555
Ni2 Sm1 2.916076 1_455
Ni2 Sm1 2.916137 1_555
Ni3 Sm1 2.916328 1_565
Ni3 Sm1 2.916328 1_455
Ni4 Sm1 2.916329 1_555
Ni4 Sm1 2.916329 1_565
Ni5 Sm1 2.916076 1_455
Ni5 Sm1 2.916137 1_555
Ni6 Sm1 2.916328 1_565
Ni6 Sm1 2.916328 1_455
Ni7 Sm1 2.916329 1_555
Ni7 Sm1 2.916329 1_565
B0 Ni2 2.058074 1_565
B0 Ni5 2.058074 1_565
B0 Ni6 2.059363 1_555
B0 Ni3 2.059363 1_555
B0 Ni7 2.059410 1_455
B0 Ni4 2.059410 1_455
B0 Sm1 2.920102 1_565
B0 Sm1 2.920115 1_465
B0 Sm1 2.921912 1_455
B1 Ni2 2.058074 1_555
B1 Ni5 2.058074 1_555
B1 Ni7 2.059363 1_555
B1 Ni4 2.059363 1_555
B1 Ni6 2.059410 1_555
B1 Ni3 2.059410 1_555
B1 Sm1 2.920102 1_555
B1 Sm1 2.920115 1_455
B1 Sm1 2.921912 1_565
