# generated using pymatgen
data_Ca2MgPd2
_symmetry_space_group_name_H-M   'P 1'
_cell_length_a   5.76293559
_cell_length_b   5.76293559
_cell_length_c   5.76293559
_cell_angle_alpha   135.99158384
_cell_angle_beta   118.40686703
_cell_angle_gamma   78.75718151
_symmetry_Int_Tables_number   1
_chemical_formula_structural   Ca2MgPd2
_chemical_formula_sum   'Ca2 Mg1 Pd2'
_cell_volume   113.51972475
_cell_formula_units_Z   1
loop_
 _symmetry_equiv_pos_site_id
 _symmetry_equiv_pos_as_xyz
  1  'x, y, z'
loop_
 _atom_site_type_symbol
 _atom_site_label
 _atom_site_symmetry_multiplicity
 _atom_site_fract_x
 _atom_site_fract_y
 _atom_site_fract_z
 _atom_site_occupancy
  Ca  Ca0  1  0.69928382  0.19928382  0.50000000  1
  Ca  Ca1  1  0.30071618  0.80071618  0.50000000  1
  Mg  Mg0  1  -0.00000000  0.00000000  0.00000000  1
  Pd  Pd0  1  0.73520960  0.50000000  0.23520960  1
  Pd  Pd1  1  0.26479040  0.50000000  0.76479040  1
loop_
_geom_bond_atom_site_label_1
_geom_bond_atom_site_label_2
_geom_bond_distance
_geom_bond_site_symmetry_2
Ca0 Pd1 3.101507 1_655
Ca0 Pd0 3.101507 1_555
Ca0 Pd0 3.121065 1_556
Ca0 Pd0 3.121065 1_545
Ca0 Pd1 3.121065 1_555
Ca0 Pd1 3.121065 1_544
Ca0 Mg0 3.440928 1_655
Ca0 Mg0 3.440928 1_666
Ca0 Mg0 3.443561 1_656
Ca0 Mg0 3.443561 1_555
Ca0 Ca1 3.550903 1_545
Ca0 Ca1 3.766268 1_555
Ca0 Ca1 3.766268 1_544
Ca0 Ca1 3.766268 1_656
Ca0 Ca1 3.766268 1_645
Ca1 Pd0 3.101507 1_455
Ca1 Pd1 3.101507 1_555
Ca1 Pd0 3.121065 1_555
Ca1 Pd0 3.121065 1_566
Ca1 Pd1 3.121065 1_554
Ca1 Pd1 3.121065 1_565
Ca1 Mg0 3.440928 1_555
Ca1 Mg0 3.440928 1_566
Ca1 Mg0 3.443561 1_565
Ca1 Mg0 3.443561 1_666
Mg0 Pd1 2.665309 1_544
Mg0 Pd0 2.665309 1_455
Mg0 Pd0 2.665309 1_444
Mg0 Pd1 2.665309 1_555
Pd0 Pd1 2.776013 1_554
Pd0 Pd1 3.125134 1_655
