# generated using pymatgen
data_DyBiPd
_symmetry_space_group_name_H-M   'P 1'
_cell_length_a   4.72106426
_cell_length_b   4.72106426
_cell_length_c   4.72106426
_cell_angle_alpha   60.00000000
_cell_angle_beta   60.00000000
_cell_angle_gamma   60.00000000
_symmetry_Int_Tables_number   1
_chemical_formula_structural   DyBiPd
_chemical_formula_sum   'Dy1 Bi1 Pd1'
_cell_volume   74.40544810
_cell_formula_units_Z   1
loop_
 _symmetry_equiv_pos_site_id
 _symmetry_equiv_pos_as_xyz
  1  'x, y, z'
loop_
 _atom_site_type_symbol
 _atom_site_label
 _atom_site_symmetry_multiplicity
 _atom_site_fract_x
 _atom_site_fract_y
 _atom_site_fract_z
 _atom_site_occupancy
  Dy  Dy0  1  0.50000000  0.50000000  0.50000000  1
  Bi  Bi0  1  0.00000000  0.00000000  -0.00000000  1
  Pd  Pd0  1  0.75000000  0.75000000  0.75000000  1
loop_
_geom_bond_atom_site_label_1
_geom_bond_atom_site_label_2
_geom_bond_distance
_geom_bond_site_symmetry_2
Dy0 Pd0 2.891050 1_555
Dy0 Pd0 2.891050 1_554
Dy0 Pd0 2.891050 1_545
Dy0 Pd0 2.891050 1_455
Bi0 Pd0 2.891050 1_445
Bi0 Pd0 2.891050 1_444
Bi0 Pd0 2.891050 1_454
Bi0 Pd0 2.891050 1_544
Bi0 Dy0 3.338297 1_454
Bi0 Dy0 3.338297 1_544
Bi0 Dy0 3.338297 1_445
Bi0 Dy0 3.338297 1_545
Bi0 Dy0 3.338297 1_455
Bi0 Dy0 3.338297 1_554
