# generated using pymatgen
data_Ce2ZrCo16
_symmetry_space_group_name_H-M   'P 1'
_cell_length_a   8.26312500
_cell_length_b   8.37923600
_cell_length_c   8.37575288
_cell_angle_alpha   59.98624260
_cell_angle_beta   90.00292359
_cell_angle_gamma   90.00000000
_symmetry_Int_Tables_number   1
_chemical_formula_structural   Ce2ZrCo16
_chemical_formula_sum   'Ce4 Zr2 Co32'
_cell_volume   502.16103319
_cell_formula_units_Z   2
loop_
 _symmetry_equiv_pos_site_id
 _symmetry_equiv_pos_as_xyz
  1  'x, y, z'
loop_
 _atom_site_type_symbol
 _atom_site_label
 _atom_site_symmetry_multiplicity
 _atom_site_fract_x
 _atom_site_fract_y
 _atom_site_fract_z
 _atom_site_occupancy
  Ce  Ce0  1  0.26592900  0.66651600  0.66696800  1
  Ce  Ce1  1  0.73407100  0.33348400  0.33303200  1
  Ce  Ce2  1  0.75071100  0.00007300  0.99985500  1
  Ce  Ce3  1  0.24928900  0.99992700  0.00014500  1
  Zr  Zr0  1  0.11857500  0.33346500  0.33307100  1
  Zr  Zr1  1  0.88142500  0.66653500  0.66692900  1
  Co  Co0  1  0.74885500  0.67314700  0.35859700  1
  Co  Co1  1  0.74878300  0.35878400  0.96833400  1
  Co  Co2  1  0.74885500  0.96817400  0.67315700  1
  Co  Co3  1  0.74885500  0.35866800  0.67315700  1
  Co  Co4  1  0.74885500  0.96825600  0.35859700  1
  Co  Co5  1  0.74878300  0.67288200  0.96833400  1
  Co  Co6  1  0.25114500  0.32685300  0.64140300  1
  Co  Co7  1  0.25121700  0.64121600  0.03166600  1
  Co  Co8  1  0.25114500  0.03182600  0.32684200  1
  Co  Co9  1  0.25114500  0.64133200  0.32684200  1
  Co  Co10  1  0.25114500  0.03174400  0.64140300  1
  Co  Co11  1  0.25121700  0.32711800  0.03166600  1
  Co  Co12  1  0.48843500  0.83342300  0.83362600  1
  Co  Co13  1  0.48846300  0.83357500  0.33285000  1
  Co  Co14  1  0.48843500  0.33295000  0.83362600  1
  Co  Co15  1  0.51156500  0.16657700  0.16637400  1
  Co  Co16  1  0.51153700  0.16642500  0.66715000  1
  Co  Co17  1  0.51156500  0.66705000  0.16637400  1
  Co  Co18  1  0.97712000  0.16335300  0.16316300  1
  Co  Co19  1  0.97713000  0.16324700  0.67350500  1
  Co  Co20  1  0.97712000  0.67348400  0.16316300  1
  Co  Co21  1  0.02288000  0.83664700  0.83683700  1
  Co  Co22  1  0.02287000  0.83675300  0.32649500  1
  Co  Co23  1  0.02288000  0.32651600  0.83683700  1
  Co  Co24  1  0.50000000  0.50000000  0.50000000  1
  Co  Co25  1  0.50000000  0.50000000  0.00000000  1
  Co  Co26  1  0.50000000  0.00000000  0.50000000  1
  Co  Co27  1  0.00000000  0.50000000  0.50000000  1
  Co  Co28  1  0.00000000  0.50000000  0.00000000  1
  Co  Co29  1  0.00000000  0.00000000  0.50000000  1
  Co  Co30  1  0.58725100  0.66661000  0.66678100  1
  Co  Co31  1  0.41274900  0.33339000  0.33321900  1
loop_
_geom_bond_atom_site_label_1
_geom_bond_atom_site_label_2
_geom_bond_distance
_geom_bond_site_symmetry_2
Ce0 Co30 2.655124 1_555
Ce0 Co7 2.956794 1_556
Ce0 Co11 2.956794 1_556
Ce0 Co10 2.961559 1_565
Ce0 Co6 2.961559 1_555
Ce0 Co8 2.962526 1_565
Ce0 Co9 2.962526 1_555
Ce0 Co12 3.039350 1_555
Ce0 Co14 3.039356 1_555
Ce0 Co13 3.042012 1_555
Ce0 Co25 3.094242 1_556
Ce0 Co26 3.097721 1_565
Ce0 Co24 3.097721 1_555
Ce0 Zr1 3.177205 1_455
Ce0 Co21 3.181101 1_555
Ce0 Co23 3.181101 1_555
Ce0 Co22 3.182880 1_555
Ce0 Co28 3.265445 1_556
Ce0 Co27 3.268472 1_555
Ce0 Co29 3.268472 1_565
Ce1 Co31 2.655124 1_555
Ce1 Co5 2.956794 1_554
Ce1 Co1 2.956794 1_554
Ce1 Co0 2.961559 1_555
Ce1 Co4 2.961559 1_545
Ce1 Co3 2.962517 1_555
Ce1 Co2 2.962522 1_545
Ce1 Co15 3.039350 1_555
Ce1 Co17 3.039356 1_555
Ce1 Co16 3.042012 1_555
Ce1 Co25 3.094242 1_555
Ce1 Co26 3.097721 1_555
Ce1 Co24 3.097721 1_555
Ce1 Zr0 3.177205 1_655
Ce1 Co18 3.181101 1_555
Ce1 Co20 3.181101 1_555
Ce1 Co19 3.182880 1_555
Ce1 Co28 3.265445 1_655
Ce1 Co29 3.268472 1_655
Ce1 Co27 3.268472 1_655
Ce2 Co3 2.879390 1_555
Ce2 Co2 2.879399 1_545
Ce2 Co4 2.880685 1_546
Ce2 Co0 2.880688 1_546
Ce2 Co1 2.882786 1_555
Ce2 Co5 2.882794 1_545
Ce2 Co19 3.017128 1_555
Ce2 Co18 3.019074 1_556
Ce2 Co20 3.019080 1_546
Ce2 Co16 3.118937 1_555
Ce2 Co17 3.121488 1_546
Ce2 Co15 3.121488 1_556
Ce2 Co13 3.244854 1_546
Ce2 Co14 3.244978 1_555
Ce2 Co12 3.244988 1_545
Ce2 Co23 3.266220 1_655
Ce2 Co21 3.266225 1_645
Ce2 Co22 3.266340 1_646
Ce3 Co9 2.879386 1_555
Ce3 Co8 2.879391 1_565
Ce3 Co10 2.880685 1_564
Ce3 Co6 2.880688 1_564
Ce3 Co7 2.882786 1_555
Ce3 Co11 2.882794 1_565
Ce3 Co22 3.017128 1_555
Ce3 Co21 3.019074 1_554
Ce3 Co23 3.019080 1_564
Ce3 Co13 3.118937 1_555
Ce3 Co14 3.121488 1_564
Ce3 Co12 3.121488 1_554
Ce3 Co16 3.244854 1_564
Ce3 Co17 3.244978 1_555
Ce3 Co15 3.244988 1_565
Ce3 Co20 3.266220 1_455
Ce3 Co18 3.266225 1_465
Ce3 Co19 3.266340 1_464
Co0 Co24 2.453021 1_555
Co0 Co27 2.468804 1_655
Co0 Co4 2.472788 1_555
Co0 Co13 2.488593 1_555
Co0 Co20 2.496567 1_555
Co0 Co17 2.553680 1_555
Co0 Co22 2.590298 1_655
Co0 Co3 2.634337 1_555
Co0 Zr1 2.780109 1_555
Co0 Co30 2.882368 1_555
Co1 Co25 2.451638 1_556
Co1 Co28 2.468505 1_656
Co1 Co3 2.472816 1_555
Co1 Co14 2.488375 1_555
Co1 Co18 2.496152 1_556
Co1 Co15 2.552498 1_556
Co1 Co23 2.591157 1_655
Co1 Co5 2.631901 1_555
Co1 Zr1 2.777008 1_555
Co1 Co30 2.880303 1_555
Co2 Co26 2.452706 1_565
Co2 Co29 2.468715 1_665
Co2 Co5 2.472812 1_555
Co2 Co21 2.590234 1_655
Co2 Co4 2.634333 1_555
Co2 Zr1 2.779011 1_555
Co2 Co30 2.882034 1_555
Co3 Zr1 2.779011 1_555
Co3 Co30 2.882049 1_555
Co4 Zr1 2.780113 1_555
Co5 Zr1 2.777012 1_555
Co6 Co9 2.634342 1_555
Co6 Zr0 2.780109 1_555
Co7 Co9 2.472808 1_555
Co7 Zr0 2.777008 1_555
Co8 Zr0 2.779015 1_555
Co9 Zr0 2.779007 1_555
Co10 Co26 2.453021 1_555
Co10 Co29 2.468804 1_555
Co10 Co6 2.472788 1_555
Co10 Co16 2.488593 1_555
Co10 Co21 2.496567 1_545
Co10 Co12 2.553683 1_545
Co10 Co19 2.590294 1_455
Co10 Co8 2.634342 1_555
Co10 Zr0 2.780113 1_555
Co10 Co31 2.882364 1_555
Co11 Co25 2.451638 1_555
Co11 Co28 2.468505 1_555
Co11 Co8 2.472808 1_555
Co11 Co15 2.488372 1_555
Co11 Co23 2.496152 1_554
Co11 Co14 2.552501 1_554
Co11 Co18 2.591157 1_455
Co11 Co7 2.631901 1_555
Co11 Zr0 2.777012 1_555
Co11 Co31 2.880299 1_555
Co12 Co17 2.420836 1_556
Co12 Co25 2.421079 1_556
Co12 Co26 2.421552 1_565
Co12 Co16 2.423673 1_565
Co12 Co5 2.488372 1_555
Co12 Co2 2.488783 1_555
Co12 Co7 2.552498 1_556
Co12 Co30 2.554913 1_555
Co13 Co24 2.422170 1_555
Co13 Co26 2.422170 1_565
Co13 Co17 2.423666 1_555
Co13 Co15 2.423673 1_565
Co13 Co4 2.488593 1_555
Co13 Co8 2.554198 1_565
Co13 Co9 2.554198 1_555
Co13 Co30 2.555693 1_555
Co14 Co15 2.420836 1_556
Co14 Co25 2.421087 1_556
Co14 Co24 2.421552 1_555
Co14 Co16 2.423666 1_555
Co14 Co3 2.488783 1_555
Co14 Co6 2.553680 1_555
Co14 Co30 2.554927 1_555
Co15 Co25 2.421079 1_555
Co15 Co26 2.421552 1_555
Co15 Co8 2.488781 1_555
Co15 Co4 2.553683 1_545
Co15 Co31 2.554913 1_555
Co16 Co26 2.422170 1_555
Co16 Co24 2.422170 1_555
Co16 Co6 2.488593 1_555
Co16 Co3 2.554195 1_555
Co16 Co2 2.554201 1_545
Co16 Co31 2.555693 1_555
Co17 Co25 2.421087 1_555
Co17 Co24 2.421552 1_555
Co17 Co7 2.488375 1_555
Co17 Co9 2.488779 1_555
Co17 Co5 2.552501 1_554
Co17 Co31 2.554927 1_555
Co18 Co23 2.396752 1_654
Co18 Co22 2.399641 1_645
Co18 Co28 2.450298 1_655
Co18 Co29 2.450608 1_655
Co18 Co4 2.496567 1_545
Co18 Co8 2.590231 1_655
Co18 Zr0 2.729916 1_655
Co19 Co21 2.399641 1_645
Co19 Co23 2.399648 1_655
Co19 Co29 2.451005 1_655
Co19 Co27 2.451013 1_655
Co19 Co3 2.496911 1_555
Co19 Co2 2.496911 1_545
Co19 Co6 2.590298 1_655
Co19 Zr0 2.731760 1_655
Co20 Co21 2.396752 1_654
Co20 Co22 2.399648 1_655
Co20 Co28 2.450298 1_655
Co20 Co27 2.450608 1_655
Co20 Co5 2.496152 1_554
Co20 Co9 2.590231 1_655
Co20 Co7 2.591157 1_655
Co20 Zr0 2.729910 1_655
Co21 Co28 2.450298 1_556
Co21 Co29 2.450608 1_565
Co21 Co7 2.496152 1_556
Co21 Co5 2.591157 1_455
Co21 Zr1 2.729916 1_455
Co22 Co29 2.451005 1_565
Co22 Co27 2.451013 1_555
Co22 Co8 2.496908 1_565
Co22 Co9 2.496914 1_555
Co22 Co4 2.590294 1_455
Co22 Zr1 2.731760 1_455
Co23 Co28 2.450298 1_556
Co23 Co27 2.450608 1_555
Co23 Co6 2.496567 1_555
Co23 Co3 2.590235 1_455
Co23 Zr1 2.729910 1_455
Co24 Co3 2.452707 1_555
Co24 Co9 2.452710 1_555
Co24 Co6 2.453021 1_555
Co24 Co30 2.524095 1_555
Co24 Co31 2.524095 1_555
Co25 Co5 2.451638 1_554
Co25 Co7 2.451638 1_555
Co25 Co31 2.521997 1_555
Co25 Co30 2.521997 1_554
Co26 Co8 2.452710 1_555
Co26 Co4 2.453021 1_545
Co26 Co30 2.524088 1_545
Co26 Co31 2.524088 1_555
Co27 Co3 2.468717 1_455
Co27 Co9 2.468720 1_555
Co27 Co6 2.468804 1_555
Co27 Zr0 2.610379 1_555
Co27 Zr1 2.610379 1_455
Co28 Co7 2.468505 1_555
Co28 Co5 2.468505 1_454
Co28 Zr0 2.606725 1_555
Co28 Zr1 2.606725 1_454
Co29 Co8 2.468720 1_555
Co29 Co4 2.468804 1_445
Co29 Zr1 2.610386 1_445
Co29 Zr0 2.610386 1_555
Co30 Zr1 2.430797 1_555
Co30 Co5 2.880299 1_555
Co30 Co4 2.882364 1_555
Co31 Zr0 2.430797 1_555
Co31 Co7 2.880303 1_555
Co31 Co8 2.882037 1_555
Co31 Co9 2.882045 1_555
Co31 Co6 2.882368 1_555
