# generated using pymatgen
data_K4HfC8O21
_symmetry_space_group_name_H-M   'P 1'
_cell_length_a   10.92327710
_cell_length_b   12.34993394
_cell_length_c   16.02999507
_cell_angle_alpha   90.00000000
_cell_angle_beta   91.54229423
_cell_angle_gamma   90.00000000
_symmetry_Int_Tables_number   1
_chemical_formula_structural   K4HfC8O21
_chemical_formula_sum   'K16 Hf4 C32 O84'
_cell_volume   2161.69099691
_cell_formula_units_Z   4
loop_
 _symmetry_equiv_pos_site_id
 _symmetry_equiv_pos_as_xyz
  1  'x, y, z'
loop_
 _atom_site_type_symbol
 _atom_site_label
 _atom_site_symmetry_multiplicity
 _atom_site_fract_x
 _atom_site_fract_y
 _atom_site_fract_z
 _atom_site_occupancy
  K  K0  1  0.10573766  0.14865625  0.75061797  1
  K  K1  1  0.89426234  0.64865625  0.74938203  1
  K  K2  1  0.89426234  0.85134375  0.24938203  1
  K  K3  1  0.10573766  0.35134375  0.25061797  1
  K  K4  1  0.99399023  0.27490640  0.00332635  1
  K  K5  1  0.00600977  0.77490640  0.49667365  1
  K  K6  1  0.00600977  0.72509360  0.99667365  1
  K  K7  1  0.99399023  0.22509360  0.50332635  1
  K  K8  1  0.53368761  0.45384459  0.81519190  1
  K  K9  1  0.46631239  0.95384459  0.68480810  1
  K  K10  1  0.46631239  0.54615541  0.18480810  1
  K  K11  1  0.53368761  0.04615541  0.31519190  1
  K  K12  1  0.40056804  0.15429718  0.91749765  1
  K  K13  1  0.59943196  0.65429718  0.58250235  1
  K  K14  1  0.59943196  0.84570282  0.08250235  1
  K  K15  1  0.40056804  0.34570282  0.41749765  1
  Hf  Hf0  1  0.75883107  0.15140861  0.67685177  1
  Hf  Hf1  1  0.24116893  0.65140861  0.82314823  1
  Hf  Hf2  1  0.24116893  0.84859139  0.32314823  1
  Hf  Hf3  1  0.75883107  0.34859139  0.17685177  1
  C  C0  1  0.68211811  0.09219825  0.85480644  1
  C  C1  1  0.31788189  0.59219825  0.64519356  1
  C  C2  1  0.31788189  0.90780175  0.14519356  1
  C  C3  1  0.68211811  0.40780175  0.35480644  1
  C  C4  1  0.82104187  0.11832828  0.86227379  1
  C  C5  1  0.17895813  0.61832828  0.63772621  1
  C  C6  1  0.17895813  0.88167172  0.13772621  1
  C  C7  1  0.82104187  0.38167172  0.36227379  1
  C  C8  1  0.54278964  0.14761319  0.54680919  1
  C  C9  1  0.45721036  0.64761319  0.95319081  1
  C  C10  1  0.45721036  0.85238681  0.45319081  1
  C  C11  1  0.54278964  0.35238681  0.04680919  1
  C  C12  1  0.65793277  0.17609658  0.49473314  1
  C  C13  1  0.34206723  0.67609658  0.00526686  1
  C  C14  1  0.34206723  0.82390342  0.50526686  1
  C  C15  1  0.65793277  0.32390342  0.99473314  1
  C  C16  1  0.94229712  0.97607047  0.62362351  1
  C  C17  1  0.05770288  0.47607047  0.87637649  1
  C  C18  1  0.05770288  0.02392953  0.37637649  1
  C  C19  1  0.94229712  0.52392953  0.12362351  1
  C  C20  1  0.82242876  0.91174522  0.63986650  1
  C  C21  1  0.17757124  0.41174522  0.86013350  1
  C  C22  1  0.17757124  0.08825478  0.36013350  1
  C  C23  1  0.82242876  0.58825478  0.13986650  1
  C  C24  1  0.88396008  0.37663874  0.68092497  1
  C  C25  1  0.11603992  0.87663874  0.81907503  1
  C  C26  1  0.11603992  0.62336126  0.31907503  1
  C  C27  1  0.88396008  0.12336126  0.18092497  1
  C  C28  1  0.74553400  0.39956805  0.68920306  1
  C  C29  1  0.25446600  0.89956805  0.81079694  1
  C  C30  1  0.25446600  0.60043195  0.31079694  1
  C  C31  1  0.74553400  0.10043195  0.18920306  1
  O  O0  1  0.63742778  0.10772844  0.77969457  1
  O  O1  1  0.36257222  0.60772844  0.72030543  1
  O  O2  1  0.36257222  0.89227156  0.22030543  1
  O  O3  1  0.63742778  0.39227156  0.27969457  1
  O  O4  1  0.86521090  0.14670642  0.79060114  1
  O  O5  1  0.13478910  0.64670642  0.70939886  1
  O  O6  1  0.13478910  0.85329358  0.20939886  1
  O  O7  1  0.86521090  0.35329358  0.29060114  1
  O  O8  1  0.87954517  0.11317227  0.92889174  1
  O  O9  1  0.12045483  0.61317227  0.57110826  1
  O  O10  1  0.12045483  0.88682773  0.07110826  1
  O  O11  1  0.87954517  0.38682773  0.42889174  1
  O  O12  1  0.62306791  0.06065914  0.91534797  1
  O  O13  1  0.37693209  0.56065914  0.58465203  1
  O  O14  1  0.37693209  0.93934086  0.08465203  1
  O  O15  1  0.62306791  0.43934086  0.41534797  1
  O  O16  1  0.56688267  0.13175573  0.62429284  1
  O  O17  1  0.43311733  0.63175573  0.87570716  1
  O  O18  1  0.43311733  0.86824427  0.37570716  1
  O  O19  1  0.56688267  0.36824427  0.12429284  1
  O  O20  1  0.75549615  0.18233605  0.54118566  1
  O  O21  1  0.24450385  0.68233605  0.95881434  1
  O  O22  1  0.24450385  0.81766395  0.45881434  1
  O  O23  1  0.75549615  0.31766395  0.04118566  1
  O  O24  1  0.64786190  0.18940869  0.41824008  1
  O  O25  1  0.35213810  0.68940869  0.08175992  1
  O  O26  1  0.35213810  0.81059131  0.58175992  1
  O  O27  1  0.64786190  0.31059131  0.91824008  1
  O  O28  1  0.44025003  0.14270848  0.51015555  1
  O  O29  1  0.55974997  0.64270848  0.98984445  1
  O  O30  1  0.55974997  0.85729152  0.48984445  1
  O  O31  1  0.44025003  0.35729152  0.01015555  1
  O  O32  1  0.92913797  0.07940121  0.63444804  1
  O  O33  1  0.07086203  0.57940121  0.86555196  1
  O  O34  1  0.07086203  0.92059879  0.36555196  1
  O  O35  1  0.92913797  0.42059879  0.13444804  1
  O  O36  1  0.73396870  0.97411055  0.66239774  1
  O  O37  1  0.26603130  0.47411055  0.83760226  1
  O  O38  1  0.26603130  0.02588945  0.33760226  1
  O  O39  1  0.73396870  0.52588945  0.16239774  1
  O  O40  1  0.81779569  0.81143064  0.63145960  1
  O  O41  1  0.18220431  0.31143064  0.86854040  1
  O  O42  1  0.18220431  0.18856936  0.36854040  1
  O  O43  1  0.81779569  0.68856936  0.13145960  1
  O  O44  1  0.03798803  0.93139188  0.60272669  1
  O  O45  1  0.96201197  0.43139188  0.89727331  1
  O  O46  1  0.96201197  0.06860812  0.39727331  1
  O  O47  1  0.03798803  0.56860812  0.10272669  1
  O  O48  1  0.90595661  0.27608785  0.66350689  1
  O  O49  1  0.09404339  0.77608785  0.83649311  1
  O  O50  1  0.09404339  0.72391215  0.33649311  1
  O  O51  1  0.90595661  0.22391215  0.16350689  1
  O  O52  1  0.67996916  0.31275761  0.69556695  1
  O  O53  1  0.32003084  0.81275761  0.80443305  1
  O  O54  1  0.32003084  0.68724239  0.30443305  1
  O  O55  1  0.67996916  0.18724239  0.19556695  1
  O  O56  1  0.70515993  0.49436100  0.69190705  1
  O  O57  1  0.29484007  0.99436100  0.80809295  1
  O  O58  1  0.29484007  0.50563900  0.30809295  1
  O  O59  1  0.70515993  0.00563900  0.19190705  1
  O  O60  1  0.96053822  0.44922643  0.69191927  1
  O  O61  1  0.03946178  0.94922643  0.80808073  1
  O  O62  1  0.03946178  0.55077357  0.30808073  1
  O  O63  1  0.96053822  0.05077357  0.19191927  1
  O  O64  1  0.18950651  0.10131243  0.01987116  1
  O  O65  1  0.81049349  0.60131243  0.48012884  1
  O  O66  1  0.81049349  0.89868757  0.98012884  1
  O  O67  1  0.18950651  0.39868757  0.51987116  1
  O  O68  1  0.16800107  0.36964022  0.59191911  1
  O  O69  1  0.83199893  0.86964022  0.90808089  1
  O  O70  1  0.83199893  0.63035978  0.40808089  1
  O  O71  1  0.16800107  0.13035978  0.09191911  1
  O  O72  1  0.25387107  0.10777945  0.58645035  1
  O  O73  1  0.74612893  0.60777945  0.91354965  1
  O  O74  1  0.74612893  0.89222055  0.41354965  1
  O  O75  1  0.25387107  0.39222055  0.08645035  1
  O  O76  1  0.37263427  0.28487341  0.71461736  1
  O  O77  1  0.62736573  0.78487341  0.78538264  1
  O  O78  1  0.62736573  0.71512659  0.28538264  1
  O  O79  1  0.37263427  0.21512659  0.21461736  1
  O  O80  1  0.41584624  0.33461894  0.65529291  1
  O  O81  1  0.58415376  0.83461894  0.84470709  1
  O  O82  1  0.58415376  0.66538106  0.34470709  1
  O  O83  1  0.41584624  0.16538106  0.15529291  1
loop_
_geom_bond_atom_site_label_1
_geom_bond_atom_site_label_2
_geom_bond_distance
_geom_bond_site_symmetry_2
K0 O4 2.721201 1_455
K0 O61 2.733967 1_545
K0 O32 2.779781 1_455
K0 O41 2.868277 1_555
K0 O57 2.940109 1_545
K0 O48 3.004148 1_455
K0 O72 3.166650 1_555
K1 O5 2.721201 1_655
K1 O60 2.733967 1_555
K1 O33 2.779781 1_655
K1 O40 2.868277 1_555
K1 O56 2.940109 1_555
K1 O49 3.004148 1_655
K1 O73 3.166650 1_555
K2 O6 2.721201 1_655
K2 O63 2.733967 1_565
K2 O34 2.779781 1_655
K2 O43 2.868277 1_555
K2 O59 2.940109 1_565
K2 O50 3.004148 1_655
K2 O74 3.166650 1_555
K3 O7 2.721201 1_455
K3 O62 2.733967 1_555
K3 O35 2.779781 1_455
K3 O42 2.868277 1_555
K3 O58 2.940109 1_555
K3 O51 3.004148 1_455
K3 O75 3.166650 1_555
K4 O45 2.591339 1_554
K4 O8 2.625989 1_554
K4 O23 2.742078 1_555
K4 O51 2.836773 1_555
K4 O35 2.870075 1_555
K4 O71 2.944681 1_655
K4 O64 3.032683 1_655
K4 O41 3.055754 1_654
K4 O75 3.424831 1_655
K5 O44 2.591339 1_555
K5 O9 2.625989 1_555
K5 O22 2.742078 1_555
K5 O50 2.836773 1_555
K5 O34 2.870075 1_555
K5 O70 2.944681 1_455
K5 O65 3.032683 1_455
K5 O40 3.055754 1_455
K5 O74 3.424831 1_455
K6 O47 2.591339 1_556
K6 O10 2.625989 1_556
K6 O21 2.742078 1_555
K6 O49 2.836773 1_555
K6 O33 2.870075 1_555
K6 O69 2.944681 1_455
K6 O66 3.032683 1_455
K6 O43 3.055754 1_456
K6 O73 3.424831 1_455
K7 O46 2.591339 1_555
K7 O11 2.625989 1_555
K7 O20 2.742078 1_555
K7 O48 2.836773 1_555
K7 O32 2.870075 1_555
K7 O68 2.944681 1_655
K7 O67 3.032683 1_655
K7 O42 3.055754 1_655
K7 O72 3.424831 1_655
K8 O17 2.651953 1_555
K8 O27 2.702427 1_555
K8 O56 2.804192 1_555
K8 O37 2.965832 1_555
K8 O1 3.043996 1_555
K8 O52 3.071040 1_555
K8 O76 3.145807 1_555
K8 O80 3.196444 1_555
K8 O73 3.359770 1_555
K9 O16 2.651953 1_565
K9 O26 2.702427 1_555
K9 O57 2.804192 1_555
K9 O36 2.965832 1_555
K9 O0 3.043996 1_565
K9 O53 3.071040 1_555
K9 O77 3.145807 1_555
K9 O81 3.196444 1_555
K9 O72 3.359770 1_565
K10 O19 2.651953 1_555
K10 O25 2.702427 1_555
K10 O58 2.804192 1_555
K10 O39 2.965832 1_555
K10 O3 3.043996 1_555
K10 O54 3.071040 1_555
K10 O78 3.145807 1_555
K10 O82 3.196444 1_555
K10 O75 3.359770 1_555
K11 O18 2.651953 1_545
K11 O24 2.702427 1_555
K11 O59 2.804192 1_555
K11 O38 2.965832 1_555
K11 O2 3.043996 1_545
K11 O55 3.071040 1_555
K11 O79 3.145807 1_555
K11 O83 3.196444 1_555
K11 O74 3.359770 1_545
K12 O12 2.692581 1_555
K12 O57 2.863886 1_545
K12 O64 2.939410 1_556
K12 O31 2.940109 1_556
K12 O41 3.157596 1_555
K13 O13 2.692581 1_555
K13 O56 2.863886 1_555
K13 O65 2.939410 1_555
K13 O30 2.940109 1_555
K13 O40 3.157596 1_555
K14 O14 2.692581 1_555
K14 O59 2.863886 1_565
K14 O66 2.939410 1_554
K14 O29 2.940109 1_554
K14 O43 3.157596 1_555
K15 O15 2.692581 1_555
K15 O58 2.863886 1_555
K15 O67 2.939410 1_555
K15 O28 2.940109 1_555
K15 O42 3.157596 1_555
Hf0 O4 2.136444 1_555
Hf0 O32 2.186706 1_555
Hf0 O52 2.194682 1_555
Hf0 O20 2.207349 1_555
Hf0 O0 2.210219 1_555
Hf0 O36 2.217766 1_545
Hf0 O48 2.240076 1_555
Hf0 O16 2.251629 1_555
Hf1 O5 2.136444 1_555
Hf1 O33 2.186706 1_555
Hf1 O53 2.194682 1_555
Hf1 O21 2.207349 1_555
Hf1 O1 2.210219 1_555
Hf1 O37 2.217766 1_555
Hf1 O49 2.240076 1_555
Hf1 O17 2.251629 1_555
Hf2 O6 2.136444 1_555
Hf2 O34 2.186706 1_555
Hf2 O54 2.194682 1_555
Hf2 O22 2.207349 1_555
Hf2 O2 2.210219 1_555
Hf2 O38 2.217766 1_565
Hf2 O50 2.240076 1_555
Hf2 O18 2.251629 1_555
Hf3 O7 2.136444 1_555
Hf3 O35 2.186706 1_555
Hf3 O55 2.194682 1_555
Hf3 O23 2.207349 1_555
Hf3 O3 2.210219 1_555
Hf3 O39 2.217766 1_555
Hf3 O51 2.240076 1_555
Hf3 O19 2.251629 1_555
C0 O12 1.242295 1_555
C0 O0 1.301219 1_555
C1 O13 1.242295 1_555
C1 O1 1.301219 1_555
C2 O14 1.242295 1_555
C2 O2 1.301219 1_555
C3 O15 1.242295 1_555
C3 O3 1.301219 1_555
C4 O8 1.231292 1_555
C4 O4 1.305926 1_555
C5 O9 1.231292 1_555
C5 O5 1.305926 1_555
C6 O10 1.231292 1_555
C6 O6 1.305926 1_555
C7 O11 1.231292 1_555
C7 O7 1.305926 1_555
C8 O28 1.252206 1_555
C8 O16 1.277786 1_555
C9 O29 1.252206 1_555
C9 O17 1.277786 1_555
C10 O30 1.252206 1_555
C10 O18 1.277786 1_555
C11 O31 1.252206 1_555
C11 O19 1.277786 1_555
C12 O24 1.239110 1_555
C12 O20 1.285862 1_555
C13 O25 1.239110 1_555
C13 O21 1.285862 1_554
C14 O26 1.239110 1_555
C14 O22 1.285862 1_555
C15 O27 1.239110 1_555
C15 O23 1.285862 1_556
C16 O44 1.236155 1_655
C16 O32 1.296385 1_565
C17 O45 1.236155 1_455
C17 O33 1.296385 1_555
C18 O46 1.236155 1_455
C18 O34 1.296385 1_545
C19 O47 1.236155 1_655
C19 O35 1.296385 1_555
C20 O40 1.247066 1_555
C20 O36 1.294658 1_555
C21 O41 1.247066 1_555
C21 O37 1.294658 1_555
C22 O42 1.247066 1_555
C22 O38 1.294658 1_555
C23 O43 1.247066 1_555
C23 O39 1.294658 1_555
C24 O60 1.235499 1_555
C24 O48 1.296673 1_555
C25 O61 1.235499 1_555
C25 O49 1.296673 1_555
C26 O62 1.235499 1_555
C26 O50 1.296673 1_555
C27 O63 1.235499 1_555
C27 O51 1.296673 1_555
C28 O56 1.252163 1_555
C28 O52 1.294860 1_555
C29 O57 1.252163 1_555
C29 O53 1.294860 1_555
C30 O58 1.252163 1_555
C30 O54 1.294860 1_555
C31 O59 1.252163 1_555
C31 O55 1.294860 1_555
O64 O71 1.237875 1_555
O65 O70 1.237875 1_555
O66 O69 1.237875 1_555
O67 O68 1.237875 1_555
O76 O80 1.236422 1_555
O77 O81 1.236422 1_555
O78 O82 1.236422 1_555
O79 O83 1.236422 1_555
