# generated using pymatgen
data_La9Al5Se21
_symmetry_space_group_name_H-M   'P 1'
_cell_length_a   12.36599353
_cell_length_b   12.36599441
_cell_length_c   12.36599441
_cell_angle_alpha   95.21049005
_cell_angle_beta   95.21049363
_cell_angle_gamma   95.21049377
_symmetry_Int_Tables_number   1
_chemical_formula_structural   La9Al5Se21
_chemical_formula_sum   'La18 Al10 Se42'
_cell_volume   1866.00612293
_cell_formula_units_Z   2
loop_
 _symmetry_equiv_pos_site_id
 _symmetry_equiv_pos_as_xyz
  1  'x, y, z'
loop_
 _atom_site_type_symbol
 _atom_site_label
 _atom_site_symmetry_multiplicity
 _atom_site_fract_x
 _atom_site_fract_y
 _atom_site_fract_z
 _atom_site_occupancy
  La  La0  1  0.11459205  0.88144268  0.74127305  1
  La  La1  1  0.45475356  0.22459112  0.07438501  1
  La  La2  1  0.76855830  0.55279347  0.39826862  1
  La  La3  1  0.39826862  0.76855830  0.55279347  1
  La  La4  1  0.74127305  0.11459205  0.88144268  1
  La  La5  1  0.07438501  0.45475356  0.22459112  1
  La  La6  1  0.22459112  0.07438501  0.45475356  1
  La  La7  1  0.55279347  0.39826862  0.76855830  1
  La  La8  1  0.88144268  0.74127305  0.11459205  1
  La  La9  1  0.20770915  0.43495013  0.58228032  1
  La  La10  1  0.55085852  0.77878346  0.93040519  1
  La  La11  1  0.87572115  0.10202338  0.24701655  1
  La  La12  1  0.93040519  0.55085852  0.77878346  1
  La  La13  1  0.24701655  0.87572115  0.10202338  1
  La  La14  1  0.58228032  0.20770915  0.43495013  1
  La  La15  1  0.10202338  0.24701655  0.87572115  1
  La  La16  1  0.43495013  0.58228032  0.20770915  1
  La  La17  1  0.77878346  0.93040519  0.55085852  1
  Al  Al0  1  0.72074145  0.38742877  0.04693048  1
  Al  Al1  1  0.04693048  0.72074145  0.38742877  1
  Al  Al2  1  0.38742877  0.04693048  0.72074145  1
  Al  Al3  1  0.88174656  0.22511951  0.54780561  1
  Al  Al4  1  0.22511951  0.54780561  0.88174656  1
  Al  Al5  1  0.54780561  0.88174656  0.22511951  1
  Al  Al6  1  0.85497138  0.85497138  0.85497138  1
  Al  Al7  1  0.16814954  0.16814954  0.16814954  1
  Al  Al8  1  0.67016645  0.67016645  0.67016645  1
  Al  Al9  1  0.35299827  0.35299827  0.35299827  1
  Se  Se0  1  0.84016189  0.50869150  0.17101719  1
  Se  Se1  1  0.17101719  0.84016189  0.50869150  1
  Se  Se2  1  0.50869150  0.17101719  0.84016189  1
  Se  Se3  1  0.67286507  0.00572878  0.34055216  1
  Se  Se4  1  0.00572878  0.34055216  0.67286507  1
  Se  Se5  1  0.34055216  0.67286507  0.00572878  1
  Se  Se6  1  0.54521860  0.44946092  0.01160763  1
  Se  Se7  1  0.87308301  0.78546906  0.35759371  1
  Se  Se8  1  0.20934368  0.10760627  0.69500170  1
  Se  Se9  1  0.69500170  0.20934368  0.10760627  1
  Se  Se10  1  0.01160763  0.54521860  0.44946092  1
  Se  Se11  1  0.35759371  0.87308301  0.78546906  1
  Se  Se12  1  0.78546906  0.35759371  0.87308301  1
  Se  Se13  1  0.10760627  0.69500170  0.20934368  1
  Se  Se14  1  0.44946092  0.01160763  0.54521860  1
  Se  Se15  1  0.96517151  0.06965622  0.48101061  1
  Se  Se16  1  0.29995046  0.38800831  0.81418636  1
  Se  Se17  1  0.63088021  0.72294594  0.16256981  1
  Se  Se18  1  0.81418636  0.29995046  0.38800831  1
  Se  Se19  1  0.16256981  0.63088021  0.72294594  1
  Se  Se20  1  0.48101061  0.96517151  0.06965622  1
  Se  Se21  1  0.72294594  0.16256981  0.63088021  1
  Se  Se22  1  0.06965622  0.48101061  0.96517151  1
  Se  Se23  1  0.38800831  0.81418636  0.29995046  1
  Se  Se24  1  0.54845250  0.40284572  0.30782813  1
  Se  Se25  1  0.88816593  0.75563847  0.66496472  1
  Se  Se26  1  0.23266046  0.09309791  0.99684142  1
  Se  Se27  1  0.99684142  0.23266046  0.09309791  1
  Se  Se28  1  0.30782813  0.54845250  0.40284572  1
  Se  Se29  1  0.66496472  0.88816593  0.75563847  1
  Se  Se30  1  0.75563847  0.66496472  0.88816593  1
  Se  Se31  1  0.09309791  0.99684142  0.23266046  1
  Se  Se32  1  0.40284572  0.30782813  0.54845250  1
  Se  Se33  1  0.14809465  0.28159568  0.37065792  1
  Se  Se34  1  0.48612793  0.62043262  0.72189823  1
  Se  Se35  1  0.79205633  0.94060462  0.03322146  1
  Se  Se36  1  0.72189823  0.48612793  0.62043262  1
  Se  Se37  1  0.03322146  0.79205633  0.94060462  1
  Se  Se38  1  0.37065792  0.14809465  0.28159568  1
  Se  Se39  1  0.94060462  0.03322146  0.79205633  1
  Se  Se40  1  0.28159568  0.37065792  0.14809465  1
  Se  Se41  1  0.62043262  0.72189823  0.48612793  1
loop_
_geom_bond_atom_site_label_1
_geom_bond_atom_site_label_2
_geom_bond_distance
_geom_bond_site_symmetry_2
La0 Se37 3.008910 1_555
La0 Se11 3.017870 1_555
La0 Se1 3.030171 1_555
La0 Se39 3.051386 1_465
La0 Se8 3.056020 1_565
La0 Se25 3.100458 1_455
La0 Se19 3.199147 1_555
La1 Se9 2.987431 1_555
La1 Se38 3.047549 1_555
La1 Se2 3.058685 1_554
La1 Se40 3.071870 1_555
La1 Se26 3.087652 1_554
La1 Se6 3.093773 1_555
La1 Se20 3.249393 1_545
La1 Se24 3.508225 1_555
La2 Se10 3.026410 1_655
La2 Se36 3.028689 1_555
La2 Se0 3.039721 1_555
La2 Se41 3.090799 1_555
La2 Se7 3.147665 1_555
La2 Se24 3.201743 1_555
La2 Se18 3.220529 1_555
La3 Se14 3.026410 1_565
La3 Se41 3.028689 1_555
La3 Se1 3.039721 1_555
La3 Se34 3.090799 1_555
La3 Se11 3.147666 1_555
La3 Se28 3.201743 1_555
La3 Se23 3.220529 1_555
La4 Se39 3.008910 1_555
La4 Se12 3.017870 1_555
La4 Se2 3.030171 1_555
La4 Se35 3.051386 1_546
La4 Se9 3.056020 1_556
La4 Se29 3.100458 1_545
La4 Se21 3.199147 1_555
La5 Se13 2.987431 1_555
La5 Se40 3.047549 1_555
La5 Se0 3.058685 1_455
La5 Se33 3.071870 1_555
La5 Se27 3.087652 1_455
La5 Se10 3.093773 1_555
La5 Se22 3.249393 1_554
La5 Se28 3.508225 1_555
La6 Se8 2.987431 1_555
La6 Se33 3.047549 1_555
La6 Se1 3.058685 1_545
La6 Se38 3.071870 1_555
La6 Se31 3.087652 1_545
La6 Se14 3.093773 1_555
La6 Se15 3.249393 1_455
La6 Se32 3.508225 1_555
La7 Se6 3.026410 1_556
La7 Se34 3.028689 1_555
La7 Se2 3.039721 1_555
La7 Se36 3.090799 1_555
La7 Se12 3.147665 1_555
La7 Se32 3.201743 1_555
La7 Se16 3.220529 1_555
La8 Se35 3.008910 1_555
La8 Se7 3.017870 1_555
La8 Se0 3.030171 1_555
La8 Se37 3.051386 1_654
La8 Se13 3.056020 1_655
La8 Se30 3.100458 1_554
La8 Se17 3.199147 1_555
La9 Se19 2.977273 1_555
La9 Se4 3.011973 1_555
La9 Se28 3.029074 1_555
La9 Se32 3.036753 1_555
La9 Se33 3.079335 1_555
La9 Se16 3.112961 1_555
La9 Se10 3.274370 1_555
La10 Se20 2.989072 1_556
La10 Se29 3.037994 1_555
La10 Se5 3.064211 1_556
La10 Se30 3.069282 1_555
La10 Se34 3.089770 1_555
La10 Se17 3.109094 1_556
La10 Se11 3.223592 1_555
La10 Se35 3.504582 1_556
La11 Se27 3.018706 1_555
La11 Se3 3.046817 1_555
La11 Se18 3.068155 1_555
La11 Se15 3.076674 1_555
La11 Se31 3.103035 1_645
La11 Se9 3.159422 1_555
La11 Se35 3.195940 1_545
La12 Se22 2.989072 1_655
La12 Se30 3.037994 1_555
La12 Se4 3.064211 1_655
La12 Se25 3.069282 1_555
La12 Se36 3.089770 1_555
La12 Se19 3.109094 1_655
La12 Se12 3.223592 1_555
La12 Se37 3.504582 1_655
La13 Se31 3.018706 1_555
La13 Se5 3.046817 1_555
La13 Se23 3.068155 1_555
La13 Se20 3.076674 1_555
La13 Se26 3.103036 1_564
La13 Se13 3.159422 1_555
La13 Se37 3.195940 1_554
La14 Se21 2.977272 1_555
La14 Se3 3.011973 1_555
La14 Se32 3.029074 1_555
La14 Se24 3.036753 1_555
La14 Se38 3.079335 1_555
La14 Se18 3.112960 1_555
La14 Se14 3.274370 1_555
La15 Se26 3.018706 1_555
La15 Se4 3.046817 1_555
La15 Se16 3.068155 1_555
La15 Se22 3.076674 1_555
La15 Se27 3.103036 1_456
La15 Se8 3.159422 1_555
La15 Se39 3.195940 1_455
La16 Se17 2.977272 1_555
La16 Se5 3.011973 1_555
La16 Se24 3.029074 1_555
La16 Se28 3.036753 1_555
La16 Se40 3.079335 1_555
La16 Se23 3.112961 1_555
La16 Se6 3.274370 1_555
La17 Se15 2.989072 1_565
La17 Se25 3.037994 1_555
La17 Se3 3.064211 1_565
La17 Se29 3.069282 1_555
La17 Se41 3.089770 1_555
La17 Se21 3.109094 1_565
La17 Se7 3.223592 1_555
La17 Se39 3.504582 1_565
Al0 Se0 2.356320 1_555
Al0 Se12 2.370766 1_554
Al0 Se6 2.383573 1_555
Al0 Se9 2.393773 1_555
Al1 Se1 2.356320 1_555
Al1 Se7 2.370766 1_455
Al1 Se10 2.383573 1_555
Al1 Se13 2.393773 1_555
Al2 Se2 2.356320 1_555
Al2 Se11 2.370766 1_545
Al2 Se14 2.383574 1_555
Al2 Se8 2.393773 1_555
Al3 Se4 2.355991 1_655
Al3 Se18 2.373127 1_555
Al3 Se15 2.380954 1_555
Al3 Se21 2.396812 1_555
Al4 Se5 2.355991 1_556
Al4 Se16 2.373128 1_555
Al4 Se22 2.380954 1_555
Al4 Se19 2.396812 1_555
Al5 Se3 2.355991 1_565
Al5 Se23 2.373127 1_555
Al5 Se20 2.380954 1_555
Al5 Se17 2.396812 1_555
Al6 Se37 2.573419 1_655
Al6 Se39 2.573419 1_565
Al6 Se35 2.573419 1_556
Al6 Se29 2.634503 1_555
Al6 Se30 2.634503 1_555
Al6 Se25 2.634503 1_555
Al7 Se27 2.463668 1_455
Al7 Se31 2.463668 1_545
Al7 Se26 2.463668 1_554
Al7 Se38 2.799745 1_555
Al7 Se40 2.799745 1_555
Al7 Se33 2.799745 1_555
Al8 Se34 2.459369 1_555
Al8 Se41 2.459369 1_555
Al8 Se36 2.459369 1_555
Al8 Se25 2.813331 1_555
Al8 Se30 2.813331 1_555
Al8 Se29 2.813331 1_555
Al9 Se24 2.563384 1_555
Al9 Se32 2.563384 1_555
Al9 Se28 2.563384 1_555
Al9 Se33 2.641365 1_555
Al9 Se40 2.641365 1_555
Al9 Se38 2.641365 1_555
