# generated using pymatgen
data_LuBiPt
_symmetry_space_group_name_H-M   'P 1'
_cell_length_a   4.67540958
_cell_length_b   4.67540958
_cell_length_c   4.67540958
_cell_angle_alpha   60.00000000
_cell_angle_beta   60.00000000
_cell_angle_gamma   60.00000000
_symmetry_Int_Tables_number   1
_chemical_formula_structural   LuBiPt
_chemical_formula_sum   'Lu1 Bi1 Pt1'
_cell_volume   72.26765952
_cell_formula_units_Z   1
loop_
 _symmetry_equiv_pos_site_id
 _symmetry_equiv_pos_as_xyz
  1  'x, y, z'
loop_
 _atom_site_type_symbol
 _atom_site_label
 _atom_site_symmetry_multiplicity
 _atom_site_fract_x
 _atom_site_fract_y
 _atom_site_fract_z
 _atom_site_occupancy
  Lu  Lu0  1  0.50000000  0.50000000  0.50000000  1
  Bi  Bi0  1  0.00000000  -0.00000000  -0.00000000  1
  Pt  Pt0  1  0.25000000  0.25000000  0.25000000  1
loop_
_geom_bond_atom_site_label_1
_geom_bond_atom_site_label_2
_geom_bond_distance
_geom_bond_site_symmetry_2
Lu0 Pt0 2.863092 1_555
Lu0 Pt0 2.863092 1_556
Lu0 Pt0 2.863092 1_565
Lu0 Pt0 2.863092 1_655
Bi0 Pt0 2.863092 1_545
Bi0 Pt0 2.863092 1_555
Bi0 Pt0 2.863092 1_554
Bi0 Pt0 2.863092 1_455
Bi0 Lu0 3.306014 1_544
Bi0 Lu0 3.306014 1_445
Bi0 Lu0 3.306014 1_455
Bi0 Lu0 3.306014 1_554
Bi0 Lu0 3.306014 1_454
Bi0 Lu0 3.306014 1_545
