# generated using pymatgen
data_Yb4Sc4Sb4O
_symmetry_space_group_name_H-M   'P 1'
_cell_length_a   4.47494400
_cell_length_b   4.47494400
_cell_length_c   16.12574600
_cell_angle_alpha   90.00000000
_cell_angle_beta   90.00000000
_cell_angle_gamma   90.00000000
_symmetry_Int_Tables_number   1
_chemical_formula_structural   Yb4Sc4Sb4O
_chemical_formula_sum   'Yb4 Sc4 Sb4 O1'
_cell_volume   322.92006007
_cell_formula_units_Z   1
loop_
 _symmetry_equiv_pos_site_id
 _symmetry_equiv_pos_as_xyz
  1  'x, y, z'
loop_
 _atom_site_type_symbol
 _atom_site_label
 _atom_site_symmetry_multiplicity
 _atom_site_fract_x
 _atom_site_fract_y
 _atom_site_fract_z
 _atom_site_occupancy
  Yb  Yb0  1  0.50000000  0.50000000  0.33210000  1
  Yb  Yb1  1  0.00000000  0.00000000  0.83417700  1
  Yb  Yb2  1  0.00000000  0.00000000  0.16582300  1
  Yb  Yb3  1  0.50000000  0.50000000  0.66790000  1
  Sc  Sc0  1  0.50000000  0.00000000  0.00000000  1
  Sc  Sc1  1  0.00000000  0.50000000  0.50000000  1
  Sc  Sc2  1  0.00000000  0.50000000  0.00000000  1
  Sc  Sc3  1  0.50000000  0.00000000  0.50000000  1
  Sb  Sb0  1  0.50000000  0.50000000  0.13114500  1
  Sb  Sb1  1  0.00000000  0.00000000  0.63085700  1
  Sb  Sb2  1  0.00000000  0.00000000  0.36914300  1
  Sb  Sb3  1  0.50000000  0.50000000  0.86885500  1
  O  O0  1  0.00000000  0.00000000  0.00000000  1
loop_
_geom_bond_atom_site_label_1
_geom_bond_atom_site_label_2
_geom_bond_distance
_geom_bond_site_symmetry_2
Sb0 Sc0 3.078751 1_565
Sb0 Sc2 3.078751 1_555
Sb0 Sc0 3.078751 1_555
Sb0 Sc2 3.078751 1_655
Sb0 Yb2 3.213297 1_555
Sb0 Yb2 3.213297 1_565
Sb0 Yb2 3.213297 1_655
Sb0 Yb2 3.213297 1_665
Sb0 Yb0 3.240549 1_555
Sb1 Sc1 3.075562 1_545
Sb1 Sc3 3.075562 1_455
Sb1 Sc1 3.075562 1_555
Sb1 Sc3 3.075562 1_555
Sb1 Yb3 3.220153 1_455
Sb1 Yb3 3.220153 1_555
Sb1 Yb3 3.220153 1_545
Sb1 Yb3 3.220153 1_445
Sb1 Yb1 3.278687 1_555
Sb2 Sc1 3.075562 1_545
Sb2 Sc1 3.075562 1_555
Sb2 Sc3 3.075562 1_555
Sb2 Sc3 3.075562 1_455
Sb2 Yb0 3.220153 1_455
Sb2 Yb0 3.220153 1_545
Sb2 Yb0 3.220153 1_555
Sb2 Yb0 3.220153 1_445
Sb2 Yb2 3.278687 1_555
Sb3 Sc2 3.078751 1_656
Sb3 Sc2 3.078751 1_556
Sb3 Sc0 3.078751 1_556
Sb3 Sc0 3.078751 1_566
Sb3 Yb1 3.213297 1_565
Sb3 Yb1 3.213297 1_655
Sb3 Yb1 3.213297 1_555
Sb3 Yb1 3.213297 1_665
Sb3 Yb3 3.240549 1_555
O0 Sc2 2.237472 1_555
O0 Sc0 2.237472 1_555
O0 Sc0 2.237472 1_455
O0 Sc2 2.237472 1_545
O0 Yb2 2.674020 1_555
O0 Yb1 2.674020 1_554
