# generated using pymatgen
data_Na2FePCO7
_symmetry_space_group_name_H-M   'P 1'
_cell_length_a   8.38513609
_cell_length_b   8.38513609
_cell_length_c   10.34692112
_cell_angle_alpha   71.70599761
_cell_angle_beta   71.70599761
_cell_angle_gamma   102.21167169
_symmetry_Int_Tables_number   1
_chemical_formula_structural   Na2FePCO7
_chemical_formula_sum   'Na8 Fe4 P4 C4 O28'
_cell_volume   615.80721231
_cell_formula_units_Z   4
loop_
 _symmetry_equiv_pos_site_id
 _symmetry_equiv_pos_as_xyz
  1  'x, y, z'
loop_
 _atom_site_type_symbol
 _atom_site_label
 _atom_site_symmetry_multiplicity
 _atom_site_fract_x
 _atom_site_fract_y
 _atom_site_fract_z
 _atom_site_occupancy
  Na  Na0  1  0.30836200  0.78781400  0.91968900  1
  Na  Na1  1  0.78781400  0.30836200  0.91968900  1
  Na  Na2  1  0.25148400  0.52282000  0.73030300  1
  Na  Na3  1  0.52282000  0.25148400  0.73030300  1
  Na  Na4  1  0.74217900  0.99276800  0.25809100  1
  Na  Na5  1  0.99276800  0.74217900  0.25809100  1
  Na  Na6  1  0.68315000  0.68315000  0.08347100  1
  Na  Na7  1  0.21008500  0.21008500  0.08758000  1
  Fe  Fe0  1  0.69543100  0.69543100  0.65931500  1
  Fe  Fe1  1  0.18041400  0.18041400  0.65142400  1
  Fe  Fe2  1  0.81218800  0.31068900  0.34566300  1
  Fe  Fe3  1  0.31068900  0.81218800  0.34566300  1
  P  P0  1  0.44379300  0.94433600  0.57559800  1
  P  P1  1  0.94433600  0.44379300  0.57559800  1
  P  P2  1  0.55967100  0.55967100  0.42490300  1
  P  P3  1  0.05394800  0.05394800  0.42478500  1
  C  C0  1  0.51685800  0.51685800  0.93591700  1
  C  C1  1  0.02639100  0.02639100  0.93504800  1
  C  C2  1  0.98194600  0.47289800  0.06540500  1
  C  C3  1  0.47289800  0.98194600  0.06540500  1
  O  O0  1  0.07048800  0.55325700  0.92528800  1
  O  O1  1  0.55325700  0.07048800  0.92528800  1
  O  O2  1  0.66105000  0.66105000  0.87159800  1
  O  O3  1  0.16998400  0.16998400  0.87347000  1
  O  O4  1  0.46703300  0.46703300  0.84069000  1
  O  O5  1  0.97584000  0.97584000  0.84344400  1
  O  O6  1  0.02742000  0.33847200  0.67271200  1
  O  O7  1  0.33847200  0.02742000  0.67271200  1
  O  O8  1  0.50487500  0.81706800  0.67940200  1
  O  O9  1  0.81706800  0.50487500  0.67940200  1
  O  O10  1  0.40705600  0.40705600  0.56879600  1
  O  O11  1  0.90330500  0.90330500  0.56781000  1
  O  O12  1  0.82712000  0.32243900  0.52850900  1
  O  O13  1  0.32243900  0.82712000  0.52850900  1
  O  O14  1  0.17386300  0.17386300  0.46951500  1
  O  O15  1  0.68153000  0.68153000  0.46990400  1
  O  O16  1  0.09084400  0.60180300  0.43346000  1
  O  O17  1  0.60180300  0.09084400  0.43346000  1
  O  O18  1  0.16458400  0.97739300  0.32359800  1
  O  O19  1  0.48986800  0.67996000  0.32500000  1
  O  O20  1  0.67996000  0.48986800  0.32500000  1
  O  O21  1  0.97739300  0.16458400  0.32359800  1
  O  O22  1  0.02285000  0.53053900  0.15886900  1
  O  O23  1  0.53053900  0.02285000  0.15886900  1
  O  O24  1  0.84212300  0.32533700  0.12819000  1
  O  O25  1  0.32533700  0.84212300  0.12819000  1
  O  O26  1  0.43535300  0.43535300  0.07545800  1
  O  O27  1  0.94132400  0.94132400  0.07731600  1
loop_
_geom_bond_atom_site_label_1
_geom_bond_atom_site_label_2
_geom_bond_distance
_geom_bond_site_symmetry_2
Na0 O25 2.379890 1_556
Na0 O8 2.414737 1_555
Na0 O0 2.458943 1_555
Na0 O7 2.605348 1_565
Na0 O22 2.693307 1_556
Na0 O1 2.817811 1_565
Na1 O24 2.379890 1_556
Na1 O9 2.414737 1_555
Na1 O1 2.458943 1_555
Na1 O6 2.605348 1_655
Na1 O23 2.693307 1_556
Na1 O0 2.817811 1_655
Na2 O0 2.236884 1_555
Na2 O10 2.371084 1_555
Na2 O4 2.471501 1_555
Na2 O6 2.515338 1_555
Na2 O13 2.541152 1_555
Na2 O8 2.672710 1_555
Na2 O3 2.678120 1_555
Na3 O1 2.236884 1_555
Na3 O10 2.371084 1_555
Na3 O4 2.471501 1_555
Na3 O7 2.515338 1_555
Na3 O12 2.541152 1_555
Na3 O9 2.672710 1_555
Na3 O3 2.678120 1_555
Na4 O27 2.307285 1_555
Na4 O17 2.315123 1_565
Na4 O23 2.331845 1_565
Na4 O24 2.497303 1_565
Na4 O21 2.583637 1_565
Na4 O15 2.649688 1_555
Na4 O19 2.725442 1_555
Na5 O27 2.307285 1_555
Na5 O16 2.315123 1_655
Na5 O22 2.331845 1_655
Na5 O25 2.497303 1_655
Na5 O18 2.583637 1_655
Na5 O15 2.649688 1_555
Na5 O20 2.725442 1_555
Na6 O2 2.317350 1_554
Na6 O19 2.503953 1_555
Na6 O20 2.503953 1_555
Na6 O26 2.651669 1_555
Na6 O27 2.687244 1_555
Na6 O5 2.830808 1_554
Na7 O26 2.311873 1_555
Na7 O3 2.453877 1_554
Na7 O18 2.454603 1_545
Na7 O21 2.454603 1_455
Na7 O4 2.633534 1_554
Na7 O27 2.884554 1_445
Fe0 O11 1.901441 1_555
Fe0 O15 2.036945 1_555
Fe0 O2 2.039733 1_555
Fe0 O8 2.061700 1_555
Fe0 O9 2.061700 1_555
Fe0 O4 2.189332 1_555
Fe1 O14 1.917614 1_555
Fe1 O6 2.043517 1_555
Fe1 O7 2.043517 1_555
Fe1 O5 2.075691 1_445
Fe1 O10 2.094342 1_555
Fe1 O3 2.244604 1_555
Fe2 O12 1.965999 1_555
Fe2 O17 1.975455 1_555
Fe2 O21 2.041319 1_555
Fe2 O20 2.045543 1_555
Fe2 O22 2.120493 1_655
Fe2 O24 2.144820 1_555
Fe3 O13 1.965999 1_555
Fe3 O16 1.975455 1_555
Fe3 O18 2.041319 1_555
Fe3 O19 2.045543 1_555
Fe3 O23 2.120493 1_565
Fe3 O25 2.144820 1_555
C0 O26 1.257870 1_556
C0 O2 1.318286 1_555
C0 O4 1.327757 1_555
C1 O27 1.284867 1_446
C1 O5 1.298512 1_445
C1 O3 1.314873 1_555
C2 O0 1.267462 1_654
C2 O22 1.310722 1_655
C2 O24 1.315716 1_555
C3 O1 1.267462 1_564
C3 O23 1.310722 1_565
C3 O25 1.315716 1_555
O6 P1 1.554868 1_455
O7 P0 1.554868 1_545
O8 P0 1.552986 1_555
O9 P1 1.552986 1_555
O10 P2 1.551424 1_555
O11 P3 1.535937 1_665
O12 P1 1.558092 1_555
O13 P0 1.558092 1_555
O14 P3 1.546886 1_555
O15 P2 1.568644 1_555
O16 P1 1.543200 1_455
O17 P0 1.543200 1_545
O18 P3 1.559789 1_565
O19 P2 1.550319 1_555
O20 P2 1.550319 1_555
O21 P3 1.559789 1_655
