# generated using pymatgen
data_RbBaPO4
_symmetry_space_group_name_H-M   'P 1'
_cell_length_a   5.80588100
_cell_length_b   7.94987600
_cell_length_c   10.26222700
_cell_angle_alpha   90.00000000
_cell_angle_beta   90.00000000
_cell_angle_gamma   90.00000000
_symmetry_Int_Tables_number   1
_chemical_formula_structural   RbBaPO4
_chemical_formula_sum   'Rb4 Ba4 P4 O16'
_cell_volume   473.66369854
_cell_formula_units_Z   4
loop_
 _symmetry_equiv_pos_site_id
 _symmetry_equiv_pos_as_xyz
  1  'x, y, z'
loop_
 _atom_site_type_symbol
 _atom_site_label
 _atom_site_symmetry_multiplicity
 _atom_site_fract_x
 _atom_site_fract_y
 _atom_site_fract_z
 _atom_site_occupancy
  Rb  Rb0  1  0.75000000  0.65629700  0.08426700  1
  Rb  Rb1  1  0.25000000  0.84370300  0.58426700  1
  Rb  Rb2  1  0.25000000  0.34370300  0.91573300  1
  Rb  Rb3  1  0.75000000  0.15629700  0.41573300  1
  Ba  Ba0  1  0.25000000  0.00075500  0.19170800  1
  Ba  Ba1  1  0.25000000  0.50075500  0.30829200  1
  Ba  Ba2  1  0.75000000  0.49924500  0.69170800  1
  Ba  Ba3  1  0.75000000  0.99924500  0.80829200  1
  P  P0  1  0.25000000  0.27026900  0.58582400  1
  P  P1  1  0.75000000  0.72973100  0.41417600  1
  P  P2  1  0.25000000  0.77026900  0.91417600  1
  P  P3  1  0.75000000  0.22973100  0.08582400  1
  O  O0  1  0.52893900  0.79102200  0.34152300  1
  O  O1  1  0.02893900  0.20897800  0.65847700  1
  O  O2  1  0.97106100  0.29102200  0.15847700  1
  O  O3  1  0.47106100  0.70897800  0.84152300  1
  O  O4  1  0.47106100  0.20897800  0.65847700  1
  O  O5  1  0.97106100  0.79102200  0.34152300  1
  O  O6  1  0.02893900  0.70897800  0.84152300  1
  O  O7  1  0.52893900  0.29102200  0.15847700  1
  O  O8  1  0.25000000  0.46670800  0.58148200  1
  O  O9  1  0.75000000  0.53329200  0.41851800  1
  O  O10  1  0.25000000  0.96670800  0.91851800  1
  O  O11  1  0.75000000  0.03329200  0.08148200  1
  O  O12  1  0.75000000  0.30031300  0.94314100  1
  O  O13  1  0.25000000  0.69968700  0.05685900  1
  O  O14  1  0.75000000  0.80031300  0.55685900  1
  O  O15  1  0.25000000  0.19968700  0.44314100  1
loop_
_geom_bond_atom_site_label_1
_geom_bond_atom_site_label_2
_geom_bond_distance
_geom_bond_site_symmetry_2
Ba0 O13 2.764717 1_545
Ba0 O5 2.786845 1_445
Ba0 O0 2.786845 1_545
Ba0 O10 2.816573 1_544
Ba0 O2 2.839717 1_455
Ba0 O7 2.839717 1_555
Ba0 O15 3.026359 1_555
Ba0 O11 3.126260 1_555
Ba0 O11 3.126260 1_455
Ba1 O15 2.764717 1_555
Ba1 O2 2.786845 1_455
Ba1 O7 2.786845 1_555
Ba1 O8 2.816573 1_555
Ba1 O5 2.839717 1_455
Ba1 O0 2.839717 1_555
Ba1 O13 3.026359 1_555
Ba1 O9 3.126260 1_455
Ba1 O9 3.126260 1_555
Ba2 O14 2.764717 1_555
Ba2 O6 2.786845 1_655
Ba2 O3 2.786845 1_555
Ba2 O9 2.816573 1_555
Ba2 O4 2.839717 1_555
Ba2 O1 2.839717 1_655
Ba2 O12 3.026359 1_555
Ba2 O8 3.126260 1_555
Ba2 O8 3.126260 1_655
Ba3 O12 2.764717 1_565
Ba3 O4 2.786845 1_565
Ba3 O1 2.786845 1_665
Ba3 O11 2.816573 1_566
Ba3 O3 2.839717 1_555
Ba3 O6 2.839717 1_655
Ba3 O14 3.026359 1_555
Ba3 O10 3.126260 1_555
Ba3 O10 3.126260 1_655
O0 P1 1.562230 1_555
O0 Rb1 3.000614 1_555
O0 Rb0 3.124756 1_555
O0 Rb3 3.264936 1_565
O1 P0 1.562230 1_555
O1 Rb3 3.000614 1_455
O1 Rb2 3.124756 1_555
O1 Rb1 3.264936 1_545
O2 P3 1.562230 1_555
O2 Rb2 3.000614 1_654
O2 Rb3 3.124756 1_555
O2 Rb0 3.264936 1_555
O3 P2 1.562230 1_555
O3 Rb0 3.000614 1_556
O3 Rb1 3.124756 1_555
O3 Rb2 3.264936 1_555
O4 P0 1.562230 1_555
O4 Rb3 3.000614 1_555
O4 Rb2 3.124756 1_555
O4 Rb1 3.264936 1_545
O5 P1 1.562230 1_555
O5 Rb1 3.000614 1_655
O5 Rb0 3.124756 1_555
O5 Rb3 3.264936 1_565
O6 P2 1.562230 1_555
O6 Rb0 3.000614 1_456
O6 Rb1 3.124756 1_555
O6 Rb2 3.264936 1_555
O7 P3 1.562230 1_555
O7 Rb2 3.000614 1_554
O7 Rb3 3.124756 1_555
O7 Rb0 3.264936 1_555
O8 P0 1.562301 1_555
O8 Rb1 2.997200 1_555
O9 P1 1.562301 1_555
O9 Rb3 2.997200 1_555
O10 P2 1.562301 1_555
O10 Rb2 2.997200 1_565
O11 P3 1.562301 1_555
O11 Rb0 2.997200 1_545
O12 P3 1.568078 1_556
O12 Rb2 2.936863 1_655
O12 Rb2 2.936863 1_555
O12 Rb0 3.179078 1_556
O13 P2 1.568078 1_554
O13 Rb0 2.936863 1_555
O13 Rb0 2.936863 1_455
O13 Rb2 3.179078 1_554
O14 P1 1.568078 1_555
O14 Rb1 2.936863 1_555
O14 Rb1 2.936863 1_655
O14 Rb3 3.179078 1_565
O15 P0 1.568078 1_555
O15 Rb3 2.936863 1_455
O15 Rb3 2.936863 1_555
O15 Rb1 3.179078 1_545
