# generated using pymatgen
data_Be12Cr
_symmetry_space_group_name_H-M   'P 1'
_cell_length_a   4.12515601
_cell_length_b   5.51402726
_cell_length_c   5.51433414
_cell_angle_alpha   82.00282791
_cell_angle_beta   68.10872153
_cell_angle_gamma   68.10967750
_symmetry_Int_Tables_number   1
_chemical_formula_structural   Be12Cr
_chemical_formula_sum   'Be12 Cr1'
_cell_volume   107.99436312
_cell_formula_units_Z   1
loop_
 _symmetry_equiv_pos_site_id
 _symmetry_equiv_pos_as_xyz
  1  'x, y, z'
loop_
 _atom_site_type_symbol
 _atom_site_label
 _atom_site_symmetry_multiplicity
 _atom_site_fract_x
 _atom_site_fract_y
 _atom_site_fract_z
 _atom_site_occupancy
  Be  Be0  1  0.71388200  0.78653113  0.78652864  1
  Be  Be1  1  0.50000000  -0.00000000  0.50000000  1
  Be  Be2  1  -0.00000000  0.50000000  0.00000000  1
  Be  Be3  1  0.50000000  0.50000000  0.00000000  1
  Be  Be4  1  -0.00000000  -0.00000000  0.50000000  1
  Be  Be5  1  0.34745455  0.65045348  0.65046360  1
  Be  Be6  1  -0.00001355  0.34920335  0.65093564  1
  Be  Be7  1  0.00001355  0.65079665  0.34906436  1
  Be  Be8  1  0.65254545  0.34954652  0.34953640  1
  Be  Be9  1  0.28611800  0.21346887  0.21347136  1
  Be  Be10  1  0.49999451  0.78742780  0.21257684  1
  Be  Be11  1  0.50000549  0.21257220  0.78742316  1
  Cr  Cr0  1  -0.00000000  -0.00000000  0.00000000  1
loop_
_geom_bond_atom_site_label_1
_geom_bond_atom_site_label_2
_geom_bond_distance
_geom_bond_site_symmetry_2
Be0 Be4 2.098296 1_665
Be0 Be2 2.098338 1_656
Be0 Be3 2.099479 1_556
Be0 Be1 2.099535 1_565
Be0 Be11 2.179833 1_565
Be0 Be10 2.179976 1_556
Be0 Be5 2.277905 1_655
Be0 Be5 2.293230 1_555
Be0 Be6 2.342753 1_655
Be0 Be7 2.343728 1_655
Be0 Cr0 2.573280 1_666
Be0 Cr0 2.580563 1_566
Be1 Be4 2.062578 1_655
Be1 Be4 2.062578 1_555
Be1 Be11 2.098311 1_555
Be1 Be10 2.098311 1_545
Be1 Be9 2.099535 1_555
Be1 Be6 2.204331 1_555
Be1 Be7 2.204331 1_645
Be1 Be5 2.206669 1_545
Be1 Be8 2.206669 1_555
Be1 Cr0 2.759626 1_556
Be1 Cr0 2.759626 1_655
Be2 Be3 2.062578 1_555
Be2 Be3 2.062578 1_455
Be2 Be9 2.098338 1_555
Be2 Be5 2.199852 1_554
Be2 Be8 2.199852 1_455
Be2 Be7 2.200436 1_555
Be2 Be6 2.200436 1_554
Be2 Cr0 2.757014 1_565
Be2 Cr0 2.757014 1_555
Be3 Be9 2.099479 1_555
Be3 Be6 2.203760 1_654
Be3 Be7 2.203760 1_555
Be3 Be5 2.206714 1_554
Be3 Be8 2.206714 1_555
Be3 Cr0 2.759548 1_565
Be3 Cr0 2.759548 1_655
Be4 Be9 2.098296 1_555
Be4 Be5 2.199901 1_545
Be4 Be8 2.199901 1_455
Be4 Be6 2.201401 1_555
Be4 Be7 2.201401 1_545
Be4 Cr0 2.757167 1_556
Be4 Cr0 2.757167 1_555
Be5 Be8 2.177669 1_555
Be5 Cr0 2.529436 1_566
Be5 Be6 2.566162 1_555
Be5 Be7 2.567081 1_555
Be5 Be6 2.583590 1_655
Be5 Be7 2.583673 1_655
Be6 Be7 2.183173 1_555
Be6 Be9 2.343728 1_555
Be6 Cr0 2.526145 1_556
Be6 Be8 2.567081 1_455
Be6 Be8 2.583673 1_555
Be7 Be9 2.342753 1_555
Be7 Cr0 2.526145 1_565
Be7 Be8 2.566162 1_455
Be7 Be8 2.583590 1_555
Be8 Be9 2.277905 1_655
Be8 Be9 2.293230 1_555
Be8 Cr0 2.529436 1_655
Be9 Cr0 2.573280 1_555
Be9 Cr0 2.580563 1_655
Be10 Be3 2.098297 1_555
Be10 Be4 2.101570 1_565
Be10 Be2 2.101597 1_655
Be10 Be9 2.179833 1_565
Be10 Be7 2.286860 1_655
Be10 Be7 2.287202 1_555
Be10 Be8 2.347380 1_555
Be10 Be5 2.347523 1_555
Be10 Cr0 2.572893 1_665
Be10 Cr0 2.572941 1_565
Be11 Be3 2.098297 1_556
Be11 Be4 2.101570 1_655
Be11 Be2 2.101597 1_556
Be11 Be9 2.179976 1_556
Be11 Be6 2.286860 1_555
Be11 Be6 2.287202 1_655
Be11 Be5 2.347380 1_555
Be11 Be8 2.347523 1_555
Be11 Cr0 2.572893 1_556
Be11 Cr0 2.572941 1_656
