# generated using pymatgen
data_CePbO3
_symmetry_space_group_name_H-M   'P 1'
_cell_length_a   6.85946585
_cell_length_b   6.85946585
_cell_length_c   7.81650800
_cell_angle_alpha   90.00000000
_cell_angle_beta   90.00000000
_cell_angle_gamma   100.91230815
_symmetry_Int_Tables_number   1
_chemical_formula_structural   CePbO3
_chemical_formula_sum   'Ce4 Pb4 O12'
_cell_volume   361.13420551
_cell_formula_units_Z   4
loop_
 _symmetry_equiv_pos_site_id
 _symmetry_equiv_pos_as_xyz
  1  'x, y, z'
loop_
 _atom_site_type_symbol
 _atom_site_label
 _atom_site_symmetry_multiplicity
 _atom_site_fract_x
 _atom_site_fract_y
 _atom_site_fract_z
 _atom_site_occupancy
  Ce  Ce0  1  0.54905600  0.54905600  0.75000000  1
  Ce  Ce1  1  0.45094400  0.45094400  0.25000000  1
  Ce  Ce2  1  0.97124600  0.97124600  0.75000000  1
  Ce  Ce3  1  0.02875400  0.02875400  0.25000000  1
  Pb  Pb0  1  0.50000000  0.00000000  0.00000000  1
  Pb  Pb1  1  0.50000000  0.00000000  0.50000000  1
  Pb  Pb2  1  0.00000000  0.50000000  0.00000000  1
  Pb  Pb3  1  0.00000000  0.50000000  0.50000000  1
  O  O0  1  0.37094800  0.62905200  0.00000000  1
  O  O1  1  0.62905200  0.37094800  0.00000000  1
  O  O2  1  0.62905200  0.37094800  0.50000000  1
  O  O3  1  0.37094800  0.62905200  0.50000000  1
  O  O4  1  0.63161300  0.88195600  0.75000000  1
  O  O5  1  0.36838700  0.11804400  0.25000000  1
  O  O6  1  0.88195600  0.63161300  0.75000000  1
  O  O7  1  0.11804400  0.36838700  0.25000000  1
  O  O8  1  0.14332400  0.14332400  0.93622800  1
  O  O9  1  0.85667600  0.85667600  0.06377200  1
  O  O10  1  0.85667600  0.85667600  0.43622800  1
  O  O11  1  0.14332400  0.14332400  0.56377200  1
loop_
_geom_bond_atom_site_label_1
_geom_bond_atom_site_label_2
_geom_bond_distance
_geom_bond_site_symmetry_2
Ce0 O6 2.246227 1_555
Ce0 O4 2.246227 1_555
Ce0 O0 2.422014 1_556
Ce0 O1 2.422014 1_556
Ce0 O2 2.422014 1_555
Ce0 O3 2.422014 1_555
Ce1 O7 2.246227 1_555
Ce1 O5 2.246227 1_555
Ce1 O0 2.422014 1_555
Ce1 O1 2.422014 1_555
Ce1 O2 2.422014 1_555
Ce1 O3 2.422014 1_555
Ce2 O8 2.092351 1_665
Ce2 O11 2.092351 1_665
Ce2 O6 2.293992 1_555
Ce2 O4 2.293992 1_555
Ce2 O9 2.648897 1_556
Ce2 O10 2.648897 1_555
Ce3 O9 2.092351 1_445
Ce3 O10 2.092351 1_445
Ce3 O5 2.293992 1_555
Ce3 O7 2.293992 1_555
Ce3 O8 2.648897 1_554
Ce3 O11 2.648897 1_555
O0 Pb2 2.530874 1_555
O0 Pb0 2.530874 1_565
O1 Pb0 2.530874 1_555
O1 Pb2 2.530874 1_655
O2 Pb1 2.530874 1_555
O2 Pb3 2.530874 1_655
O3 Pb3 2.530874 1_555
O3 Pb1 2.530874 1_565
O4 Pb0 2.359251 1_566
O4 Pb1 2.359251 1_565
O5 Pb1 2.359251 1_555
O5 Pb0 2.359251 1_555
O6 Pb2 2.359251 1_656
O6 Pb3 2.359251 1_655
O7 Pb2 2.359251 1_555
O7 Pb3 2.359251 1_555
