# generated using pymatgen
data_Y2Al2Co15
_symmetry_space_group_name_H-M   'P 1'
_cell_length_a   8.28284600
_cell_length_b   8.32780653
_cell_length_c   8.32780653
_cell_angle_alpha   119.94503717
_cell_angle_beta   90.00000000
_cell_angle_gamma   90.00000000
_symmetry_Int_Tables_number   1
_chemical_formula_structural   Y2Al2Co15
_chemical_formula_sum   'Y4 Al4 Co30'
_cell_volume   497.75053615
_cell_formula_units_Z   2
loop_
 _symmetry_equiv_pos_site_id
 _symmetry_equiv_pos_as_xyz
  1  'x, y, z'
loop_
 _atom_site_type_symbol
 _atom_site_label
 _atom_site_symmetry_multiplicity
 _atom_site_fract_x
 _atom_site_fract_y
 _atom_site_fract_z
 _atom_site_occupancy
  Y  Y0  1  0.75000000  0.00012500  0.99987500  1
  Y  Y1  1  0.25000000  0.99987500  0.00012500  1
  Y  Y2  1  0.25000000  0.66694600  0.33305400  1
  Y  Y3  1  0.75000000  0.33305400  0.66694600  1
  Al  Al0  1  0.59708100  0.66680400  0.33319600  1
  Al  Al1  1  0.40291900  0.33319600  0.66680400  1
  Al  Al2  1  0.09708100  0.33319600  0.66680400  1
  Al  Al3  1  0.90291900  0.66680400  0.33319600  1
  Co  Co0  1  0.50000000  0.50000000  0.00000000  1
  Co  Co1  1  0.50000000  0.50000000  0.50000000  1
  Co  Co2  1  0.50000000  0.00000000  0.50000000  1
  Co  Co3  1  0.00000000  0.50000000  0.00000000  1
  Co  Co4  1  0.00000000  0.50000000  0.50000000  1
  Co  Co5  1  0.00000000  0.00000000  0.50000000  1
  Co  Co6  1  0.75000000  0.67231800  0.04953100  1
  Co  Co7  1  0.75000000  0.37728300  0.32797100  1
  Co  Co8  1  0.75000000  0.95063700  0.62272500  1
  Co  Co9  1  0.75000000  0.37727500  0.04936300  1
  Co  Co10  1  0.75000000  0.95046900  0.32768200  1
  Co  Co11  1  0.75000000  0.67202900  0.62271700  1
  Co  Co12  1  0.25000000  0.32768200  0.95046900  1
  Co  Co13  1  0.25000000  0.62271700  0.67202900  1
  Co  Co14  1  0.25000000  0.04936300  0.37727500  1
  Co  Co15  1  0.25000000  0.62272500  0.95063700  1
  Co  Co16  1  0.25000000  0.04953100  0.67231800  1
  Co  Co17  1  0.25000000  0.32797100  0.37728300  1
  Co  Co18  1  0.47264000  0.83642000  0.67271600  1
  Co  Co19  1  0.47254400  0.83627500  0.16372500  1
  Co  Co20  1  0.47264000  0.32728400  0.16358000  1
  Co  Co21  1  0.52736000  0.16358000  0.32728400  1
  Co  Co22  1  0.52745600  0.16372500  0.83627500  1
  Co  Co23  1  0.52736000  0.67271600  0.83642000  1
  Co  Co24  1  0.97264000  0.16358000  0.32728400  1
  Co  Co25  1  0.97254400  0.16372500  0.83627500  1
  Co  Co26  1  0.97264000  0.67271600  0.83642000  1
  Co  Co27  1  0.02736000  0.83642000  0.67271600  1
  Co  Co28  1  0.02745600  0.83627500  0.16372500  1
  Co  Co29  1  0.02736000  0.32728400  0.16358000  1
loop_
_geom_bond_atom_site_label_1
_geom_bond_atom_site_label_2
_geom_bond_distance
_geom_bond_site_symmetry_2
Al0 Al3 2.533209 1_555
Al0 Co0 2.535271 1_555
Al0 Co2 2.535271 1_565
Al0 Co1 2.536193 1_555
Al0 Co19 2.652586 1_555
Al0 Co20 2.657991 1_555
Al0 Co18 2.657991 1_555
Al0 Co10 2.700960 1_555
Al0 Co6 2.700960 1_555
Al0 Co7 2.704575 1_555
Al0 Co11 2.704575 1_555
Al0 Co9 2.704670 1_555
Al0 Co8 2.704670 1_555
Al0 Y2 2.874819 1_555
Al1 Al2 2.533209 1_555
Al1 Co2 2.535271 1_555
Al1 Co0 2.535271 1_556
Al1 Co1 2.536193 1_555
Al1 Co22 2.652586 1_555
Al1 Co23 2.657991 1_555
Al1 Co21 2.657991 1_555
Al1 Co16 2.700960 1_555
Al1 Co12 2.700960 1_555
Al1 Co13 2.704575 1_555
Al1 Co17 2.704575 1_555
Al1 Co14 2.704670 1_555
Al1 Co15 2.704670 1_555
Al1 Y3 2.874819 1_555
Al2 Co5 2.535271 1_555
Al2 Co3 2.535271 1_556
Al2 Co4 2.536193 1_555
Al2 Co25 2.652586 1_455
Al2 Co24 2.657991 1_455
Al2 Co26 2.657991 1_455
Al2 Co16 2.700960 1_555
Al2 Co12 2.700960 1_555
Al2 Co13 2.704575 1_555
Al2 Co17 2.704575 1_555
Al2 Co14 2.704670 1_555
Al2 Co15 2.704670 1_555
Al2 Y3 2.874819 1_455
Al3 Co3 2.535271 1_655
Al3 Co5 2.535271 1_665
Al3 Co4 2.536193 1_655
Al3 Co28 2.652586 1_655
Al3 Co27 2.657991 1_655
Al3 Co29 2.657991 1_655
Al3 Co10 2.700960 1_555
Al3 Co6 2.700960 1_555
Al3 Co7 2.704575 1_555
Al3 Co11 2.704575 1_555
Al3 Co9 2.704670 1_555
Al3 Co8 2.704670 1_555
Al3 Y2 2.874819 1_655
Co0 Co9 2.433275 1_555
Co0 Co15 2.433275 1_554
Co0 Co6 2.434411 1_555
Co0 Co12 2.434411 1_554
Co0 Co23 2.435590 1_554
Co0 Co20 2.435590 1_555
Co0 Co19 2.437464 1_555
Co0 Co22 2.437464 1_554
Co0 Y3 3.172373 1_554
Co0 Y2 3.172373 1_555
Co1 Co7 2.433724 1_555
Co1 Co13 2.433724 1_555
Co1 Co17 2.433724 1_555
Co1 Co11 2.433724 1_555
Co1 Co21 2.438515 1_555
Co1 Co20 2.438515 1_555
Co1 Co18 2.438515 1_555
Co1 Co23 2.438515 1_555
Co1 Y2 3.175435 1_555
Co1 Y3 3.175435 1_555
Co2 Co8 2.433275 1_545
Co2 Co21 2.435590 1_555
Co2 Co22 2.437464 1_555
Co2 Y2 3.172373 1_545
Co2 Y3 3.172373 1_555
Co3 Co9 2.433275 1_455
Co3 Co6 2.434411 1_455
Co3 Y3 3.172373 1_454
Co3 Y2 3.172373 1_555
Co4 Co7 2.433724 1_455
Co4 Y3 3.175435 1_455
Co4 Y2 3.175435 1_555
Co5 Co8 2.433275 1_445
Co5 Y2 3.172373 1_545
Co5 Y3 3.172373 1_455
Co6 Co9 2.456363 1_555
Co6 Y0 2.958115 1_564
Co6 Y3 3.024379 1_554
Co7 Co9 2.320160 1_555
Co7 Y0 2.960260 1_554
Co7 Y3 3.023669 1_555
Co8 Y0 2.956756 1_565
Co8 Y3 3.017787 1_565
Co9 Y0 2.956756 1_554
Co9 Y3 3.017787 1_554
Co10 Co6 2.318312 1_555
Co10 Co5 2.434411 1_665
Co10 Co2 2.434411 1_565
Co10 Co8 2.456363 1_555
Co10 Co24 2.560525 1_565
Co10 Co21 2.560525 1_565
Co10 Co28 2.598799 1_655
Co10 Co19 2.598799 1_555
Co10 Y0 2.958115 1_564
Co10 Y3 3.024379 1_565
Co11 Co8 2.320160 1_555
Co11 Co4 2.433724 1_655
Co11 Co7 2.456627 1_555
Co11 Co26 2.560820 1_555
Co11 Co23 2.560820 1_555
Co11 Co18 2.599273 1_555
Co11 Co27 2.599273 1_655
Co11 Y0 2.960260 1_565
Co11 Y3 3.023669 1_555
Co12 Co16 2.318312 1_555
Co12 Co3 2.434411 1_556
Co12 Co15 2.456363 1_555
Co12 Co29 2.560525 1_556
Co12 Co20 2.560525 1_556
Co12 Co25 2.598799 1_455
Co12 Co22 2.598799 1_555
Co12 Y1 2.958115 1_546
Co12 Y2 3.024379 1_556
Co13 Co15 2.320160 1_555
Co13 Co4 2.433724 1_555
Co13 Co17 2.456627 1_555
Co13 Co18 2.560820 1_555
Co13 Co27 2.560820 1_555
Co13 Co26 2.599273 1_455
Co13 Co23 2.599273 1_555
Co13 Y1 2.960260 1_556
Co13 Y2 3.023669 1_555
Co14 Co17 2.320160 1_555
Co14 Co5 2.433275 1_555
Co14 Co2 2.433275 1_555
Co14 Co16 2.456363 1_555
Co14 Co28 2.561031 1_545
Co14 Co19 2.561031 1_545
Co14 Co21 2.598291 1_555
Co14 Co24 2.598291 1_455
Co14 Y1 2.956756 1_545
Co14 Y2 3.017787 1_545
Co15 Co3 2.433275 1_556
Co15 Co28 2.561031 1_556
Co15 Co19 2.561031 1_556
Co15 Co26 2.598291 1_455
Co15 Co23 2.598291 1_555
Co15 Y1 2.956756 1_556
Co15 Y2 3.017787 1_556
Co16 Co2 2.434411 1_555
Co16 Co5 2.434411 1_555
Co16 Co27 2.560525 1_545
Co16 Co18 2.560525 1_545
Co16 Co22 2.598799 1_555
Co16 Co25 2.598799 1_455
Co16 Y1 2.958115 1_546
Co16 Y2 3.024379 1_545
Co17 Co4 2.433724 1_555
Co17 Co20 2.560820 1_555
Co17 Co29 2.560820 1_555
Co17 Co24 2.599273 1_455
Co17 Co21 2.599273 1_555
Co17 Y1 2.960260 1_545
Co17 Y2 3.023669 1_555
Co18 Co23 2.403759 1_555
Co18 Co22 2.405105 1_565
Co18 Co2 2.435590 1_565
Co18 Co8 2.598291 1_555
Co18 Y1 2.997100 1_556
Co18 Y2 3.067283 1_555
Co18 Y0 3.294108 1_565
Co19 Co23 2.405105 1_554
Co19 Co21 2.405105 1_565
Co19 Co2 2.437464 1_565
Co19 Co6 2.598799 1_555
Co19 Y1 2.993877 1_555
Co19 Y2 3.059398 1_555
Co19 Y0 3.296052 1_564
Co20 Co21 2.403759 1_555
Co20 Co22 2.405105 1_554
Co20 Co9 2.598291 1_555
Co20 Co7 2.599273 1_555
Co20 Y1 2.997100 1_545
Co20 Y2 3.067283 1_555
Co20 Y0 3.294108 1_554
Co21 Co7 2.560820 1_555
Co21 Y0 2.997100 1_554
Co21 Y3 3.067283 1_555
Co21 Y1 3.294108 1_545
Co22 Co8 2.561031 1_545
Co22 Co9 2.561031 1_556
Co22 Y0 2.993877 1_555
Co22 Y3 3.059398 1_555
Co22 Y1 3.296052 1_546
Co23 Co6 2.560525 1_556
Co23 Y0 2.997100 1_565
Co23 Y3 3.067283 1_555
Co23 Y1 3.294108 1_556
Co24 Co29 2.403759 1_655
Co24 Co28 2.405105 1_645
Co24 Co5 2.435590 1_655
Co24 Co4 2.438515 1_655
Co24 Co7 2.560820 1_555
Co24 Y0 2.997100 1_554
Co24 Y3 3.067283 1_555
Co24 Y1 3.294108 1_645
Co25 Co27 2.405105 1_645
Co25 Co29 2.405105 1_656
Co25 Co5 2.437464 1_655
Co25 Co3 2.437464 1_656
Co25 Co8 2.561031 1_545
Co25 Co9 2.561031 1_556
Co25 Y0 2.993877 1_555
Co25 Y3 3.059398 1_555
Co25 Y1 3.296052 1_646
Co26 Co27 2.403759 1_655
Co26 Co28 2.405105 1_656
Co26 Co3 2.435590 1_656
Co26 Co4 2.438515 1_655
Co26 Co6 2.560525 1_556
Co26 Y0 2.997100 1_565
Co26 Y3 3.067283 1_555
Co26 Y1 3.294108 1_656
Co27 Co5 2.435590 1_565
Co27 Co4 2.438515 1_555
Co27 Co8 2.598291 1_455
Co27 Y1 2.997100 1_556
Co27 Y2 3.067283 1_555
Co27 Y0 3.294108 1_465
Co28 Co3 2.437464 1_555
Co28 Co5 2.437464 1_565
Co28 Co6 2.598799 1_455
Co28 Y1 2.993877 1_555
Co28 Y2 3.059398 1_555
Co28 Y0 3.296052 1_464
Co29 Co3 2.435590 1_555
Co29 Co4 2.438515 1_555
Co29 Co9 2.598291 1_455
Co29 Co7 2.599273 1_455
Co29 Y1 2.997100 1_545
Co29 Y2 3.067283 1_555
Co29 Y0 3.294108 1_454
