# generated using pymatgen
data_Mg3Bi
_symmetry_space_group_name_H-M   'P 1'
_cell_length_a   3.39622400
_cell_length_b   5.31250500
_cell_length_c   5.61098100
_cell_angle_alpha   90.00000000
_cell_angle_beta   90.00000000
_cell_angle_gamma   90.00000000
_symmetry_Int_Tables_number   1
_chemical_formula_structural   Mg3Bi
_chemical_formula_sum   'Mg3 Bi1'
_cell_volume   101.23588331
_cell_formula_units_Z   1
loop_
 _symmetry_equiv_pos_site_id
 _symmetry_equiv_pos_as_xyz
  1  'x, y, z'
loop_
 _atom_site_type_symbol
 _atom_site_label
 _atom_site_symmetry_multiplicity
 _atom_site_fract_x
 _atom_site_fract_y
 _atom_site_fract_z
 _atom_site_occupancy
  Mg  Mg0  1  0.00000000  0.00000000  0.66775500  1
  Mg  Mg1  1  0.00000000  0.50000000  0.33883900  1
  Mg  Mg2  1  0.50000000  0.50000000  0.82756500  1
  Bi  Bi0  1  0.50000000  0.00000000  0.16584200  1
loop_
_geom_bond_atom_site_label_1
_geom_bond_atom_site_label_2
_geom_bond_distance
_geom_bond_site_symmetry_2
Bi0 Mg2 3.264710 1_554
Bi0 Mg2 3.264710 1_544
Bi0 Mg0 3.270206 1_554
Bi0 Mg0 3.270206 1_654
Bi0 Mg0 3.288572 1_555
Bi0 Mg0 3.288572 1_655
Bi0 Mg1 3.298710 1_645
Bi0 Mg1 3.298710 1_545
Bi0 Mg1 3.298710 1_655
Bi0 Mg1 3.298710 1_555
