# generated using pymatgen
data_Mn3Ga4Ni9
_symmetry_space_group_name_H-M   'P 1'
_cell_length_a   5.76973100
_cell_length_b   5.76973100
_cell_length_c   5.76973100
_cell_angle_alpha   90.00000000
_cell_angle_beta   90.00000000
_cell_angle_gamma   90.00000000
_symmetry_Int_Tables_number   1
_chemical_formula_structural   Mn3Ga4Ni9
_chemical_formula_sum   'Mn3 Ga4 Ni9'
_cell_volume   192.07316688
_cell_formula_units_Z   1
loop_
 _symmetry_equiv_pos_site_id
 _symmetry_equiv_pos_as_xyz
  1  'x, y, z'
loop_
 _atom_site_type_symbol
 _atom_site_label
 _atom_site_symmetry_multiplicity
 _atom_site_fract_x
 _atom_site_fract_y
 _atom_site_fract_z
 _atom_site_occupancy
  Mn  Mn0  1  0.50000000  0.00000000  0.00000000  1
  Mn  Mn1  1  0.00000000  0.00000000  0.50000000  1
  Mn  Mn2  1  0.00000000  0.50000000  0.00000000  1
  Ga  Ga0  1  0.00000000  0.00000000  0.00000000  1
  Ga  Ga1  1  0.00000000  0.50000000  0.50000000  1
  Ga  Ga2  1  0.50000000  0.00000000  0.50000000  1
  Ga  Ga3  1  0.50000000  0.50000000  0.00000000  1
  Ni  Ni0  1  0.25153800  0.25153800  0.25153800  1
  Ni  Ni1  1  0.25153800  0.74846200  0.74846200  1
  Ni  Ni2  1  0.74846200  0.25153800  0.74846200  1
  Ni  Ni3  1  0.74846200  0.74846200  0.25153800  1
  Ni  Ni4  1  0.25153800  0.25153800  0.74846200  1
  Ni  Ni5  1  0.25153800  0.74846200  0.25153800  1
  Ni  Ni6  1  0.74846200  0.25153800  0.25153800  1
  Ni  Ni7  1  0.74846200  0.74846200  0.74846200  1
  Ni  Ni8  1  0.50000000  0.50000000  0.50000000  1
loop_
_geom_bond_atom_site_label_1
_geom_bond_atom_site_label_2
_geom_bond_distance
_geom_bond_site_symmetry_2
Mn0 Ni6 2.503532 1_555
Mn0 Ni0 2.503532 1_555
Mn0 Ni3 2.503532 1_545
Mn0 Ni7 2.503532 1_544
Mn0 Ni2 2.503532 1_554
Mn0 Ni1 2.503532 1_544
Mn0 Ni5 2.503532 1_545
Mn0 Ni4 2.503532 1_554
Mn1 Ni5 2.503532 1_545
Mn1 Ni0 2.503532 1_555
Mn1 Ni4 2.503532 1_555
Mn1 Ni1 2.503532 1_545
Mn1 Ni2 2.503532 1_455
Mn1 Ni7 2.503532 1_445
Mn1 Ni6 2.503532 1_455
Mn1 Ni3 2.503532 1_445
Mn2 Ni5 2.503532 1_555
Mn2 Ni0 2.503532 1_555
Mn2 Ni1 2.503532 1_554
Mn2 Ni4 2.503532 1_554
Mn2 Ni7 2.503532 1_454
Mn2 Ni3 2.503532 1_455
Mn2 Ni6 2.503532 1_455
Mn2 Ni2 2.503532 1_454
Ga0 Ni5 2.513737 1_545
Ga0 Ni0 2.513737 1_555
Ga0 Ni4 2.513737 1_554
Ga0 Ni1 2.513737 1_544
Ga0 Ni6 2.513737 1_455
Ga0 Ni2 2.513737 1_454
Ga0 Ni3 2.513737 1_445
Ga0 Ni7 2.513737 1_444
Ga0 Mn0 2.884866 1_455
Ga0 Mn0 2.884866 1_555
Ga0 Mn2 2.884866 1_545
Ga0 Mn1 2.884866 1_554
Ga0 Mn1 2.884866 1_555
Ga0 Mn2 2.884866 1_555
Ga1 Ni1 2.493286 1_555
Ga1 Ni4 2.493286 1_555
Ga1 Ni3 2.493286 1_455
Ga1 Ni7 2.493286 1_455
Ga1 Ni5 2.493286 1_555
Ga1 Ni0 2.493286 1_555
Ga1 Ni2 2.493286 1_455
Ga1 Ni6 2.493286 1_455
Ga1 Ni8 2.884866 1_555
Ga1 Ni8 2.884866 1_455
Ga2 Ni2 2.493286 1_555
Ga2 Ni4 2.493286 1_555
Ga2 Ni6 2.493286 1_555
Ga2 Ni3 2.493286 1_545
Ga2 Ni7 2.493286 1_545
Ga2 Ni0 2.493286 1_555
Ga2 Ni1 2.493286 1_545
Ga2 Ni5 2.493286 1_545
Ga2 Ni8 2.884866 1_545
Ga2 Ni8 2.884866 1_555
Ga3 Ni3 2.493286 1_555
Ga3 Ni5 2.493286 1_555
Ga3 Ni1 2.493286 1_554
Ga3 Ni6 2.493286 1_555
Ga3 Ni7 2.493286 1_554
Ga3 Ni2 2.493286 1_554
Ga3 Ni0 2.493286 1_555
Ga3 Ni4 2.493286 1_554
Ga3 Ni8 2.884866 1_555
Ga3 Ni8 2.884866 1_554
Ni0 Ni8 2.482997 1_555
Ni1 Ni8 2.482997 1_555
Ni2 Ni8 2.482997 1_555
Ni3 Ni8 2.482997 1_555
Ni4 Ni8 2.482997 1_555
Ni5 Ni8 2.482997 1_555
Ni6 Ni8 2.482997 1_555
Ni7 Ni8 2.482997 1_555
