# generated using pymatgen
data_Hg3Rh
_symmetry_space_group_name_H-M   'P 1'
_cell_length_a   6.01242047
_cell_length_b   6.01242047
_cell_length_c   5.06721600
_cell_angle_alpha   90.00000000
_cell_angle_beta   90.00000000
_cell_angle_gamma   120.00000516
_symmetry_Int_Tables_number   1
_chemical_formula_structural   Hg3Rh
_chemical_formula_sum   'Hg6 Rh2'
_cell_volume   158.63489147
_cell_formula_units_Z   2
loop_
 _symmetry_equiv_pos_site_id
 _symmetry_equiv_pos_as_xyz
  1  'x, y, z'
loop_
 _atom_site_type_symbol
 _atom_site_label
 _atom_site_symmetry_multiplicity
 _atom_site_fract_x
 _atom_site_fract_y
 _atom_site_fract_z
 _atom_site_occupancy
  Hg  Hg0  1  0.17092500  0.34184900  0.25000000  1
  Hg  Hg1  1  0.65815100  0.82907500  0.25000000  1
  Hg  Hg2  1  0.17092500  0.82907500  0.25000000  1
  Hg  Hg3  1  0.82907500  0.65815100  0.75000000  1
  Hg  Hg4  1  0.34184900  0.17092500  0.75000000  1
  Hg  Hg5  1  0.82907500  0.17092500  0.75000000  1
  Rh  Rh0  1  0.33333300  0.66666700  0.75000000  1
  Rh  Rh1  1  0.66666700  0.33333300  0.25000000  1
loop_
_geom_bond_atom_site_label_1
_geom_bond_atom_site_label_2
_geom_bond_distance
_geom_bond_site_symmetry_2
Hg0 Hg1 2.929407 1_555
Hg0 Hg2 2.929408 1_555
Hg0 Rh1 3.006537 1_455
Hg0 Rh1 3.006537 1_555
Hg0 Rh0 3.046253 1_554
Hg0 Rh0 3.046253 1_555
Hg0 Hg1 3.083013 1_445
Hg0 Hg2 3.083013 1_545
Hg0 Hg4 3.096364 1_555
Hg0 Hg4 3.096364 1_554
Hg0 Hg5 3.096370 1_454
Hg0 Hg5 3.096370 1_455
Hg1 Hg2 2.929408 1_555
Hg1 Rh1 3.006537 1_565
Hg1 Rh1 3.006537 1_555
Hg1 Rh0 3.046253 1_554
Hg1 Rh0 3.046253 1_555
Hg1 Hg2 3.083013 1_655
Hg1 Hg3 3.096364 1_554
Hg1 Hg3 3.096364 1_555
Hg1 Hg5 3.096370 1_565
Hg1 Hg5 3.096370 1_564
Hg2 Rh1 3.006537 1_455
Hg2 Rh1 3.006537 1_565
Hg2 Rh0 3.046247 1_554
Hg2 Rh0 3.046247 1_555
Hg2 Hg4 3.096370 1_564
Hg2 Hg3 3.096370 1_454
Hg2 Hg4 3.096370 1_565
Hg2 Hg3 3.096370 1_455
Hg3 Hg4 2.929407 1_555
Hg3 Hg5 2.929408 1_555
Hg3 Rh0 3.006537 1_655
Hg3 Rh0 3.006537 1_555
Hg3 Rh1 3.046253 1_555
Hg3 Rh1 3.046253 1_556
Hg3 Hg4 3.083013 1_665
Hg3 Hg5 3.083013 1_565
Hg4 Hg5 2.929408 1_555
Hg4 Rh0 3.006537 1_545
Hg4 Rh0 3.006537 1_555
Hg4 Rh1 3.046253 1_555
Hg4 Rh1 3.046253 1_556
Hg4 Hg5 3.083013 1_455
Hg5 Rh0 3.006537 1_545
Hg5 Rh0 3.006537 1_655
Hg5 Rh1 3.046247 1_555
Hg5 Rh1 3.046247 1_556
