# generated using pymatgen
data_MnSbO4
_symmetry_space_group_name_H-M   'P 1'
_cell_length_a   3.96022798
_cell_length_b   7.99793858
_cell_length_c   10.64277995
_cell_angle_alpha   72.96199275
_cell_angle_beta   89.99927464
_cell_angle_gamma   75.66407838
_symmetry_Int_Tables_number   1
_chemical_formula_structural   MnSbO4
_chemical_formula_sum   'Mn4 Sb4 O16'
_cell_volume   311.30579399
_cell_formula_units_Z   4
loop_
 _symmetry_equiv_pos_site_id
 _symmetry_equiv_pos_as_xyz
  1  'x, y, z'
loop_
 _atom_site_type_symbol
 _atom_site_label
 _atom_site_symmetry_multiplicity
 _atom_site_fract_x
 _atom_site_fract_y
 _atom_site_fract_z
 _atom_site_occupancy
  Mn  Mn0  1  0.49913200  0.00173600  0.50916900  1
  Mn  Mn1  1  0.74857400  0.50265700  0.73952100  1
  Mn  Mn2  1  0.99897000  0.00220900  0.00858300  1
  Mn  Mn3  1  0.25279600  0.49431200  0.24182600  1
  Sb  Sb0  1  0.06483300  0.87038300  0.31480300  1
  Sb  Sb1  1  0.31262300  0.37444100  0.55900100  1
  Sb  Sb2  1  0.56094700  0.87836800  0.81912600  1
  Sb  Sb3  1  0.81196200  0.37597800  0.05580000  1
  O  O0  1  0.01550000  0.96901600  0.46525400  1
  O  O1  1  0.25776500  0.48420700  0.70643200  1
  O  O2  1  0.51221800  0.97575900  0.97216900  1
  O  O3  1  0.76360000  0.47270300  0.20920600  1
  O  O4  1  0.10836700  0.78356100  0.15590400  1
  O  O5  1  0.36950800  0.26072500  0.41739900  1
  O  O6  1  0.60549700  0.78924100  0.66306800  1
  O  O7  1  0.86753800  0.26486800  0.91317600  1
  O  O8  1  0.55571900  0.88858200  0.33900600  1
  O  O9  1  0.80016200  0.39941800  0.58713300  1
  O  O10  1  0.05215400  0.89592200  0.85638600  1
  O  O11  1  0.30194800  0.39602400  0.08830800  1
  O  O12  1  0.94743900  0.10518300  0.15607200  1
  O  O13  1  0.20114100  0.59763600  0.39997000  1
  O  O14  1  0.44418900  0.11188700  0.66882900  1
  O  O15  1  0.69741700  0.60518300  0.90385900  1
loop_
_geom_bond_atom_site_label_1
_geom_bond_atom_site_label_2
_geom_bond_distance
_geom_bond_site_symmetry_2
Mn0 O6 1.939795 1_545
Mn0 O5 1.948315 1_555
Mn0 O0 2.067651 1_545
Mn0 O0 2.067686 1_645
Mn0 O14 2.119707 1_555
Mn0 O8 2.238079 1_545
Mn1 O9 2.013719 1_555
Mn1 O1 2.023658 1_655
Mn1 O1 2.023938 1_555
Mn1 O6 2.121486 1_555
Mn1 O15 2.128534 1_555
Mn1 O7 2.179717 1_555
Mn2 O4 1.929292 1_645
Mn2 O12 1.964231 1_555
Mn2 O7 1.980794 1_554
Mn2 O10 2.027062 1_644
Mn2 O2 2.039798 1_544
Mn2 O2 2.039954 1_644
Mn3 O11 2.000554 1_555
Mn3 O3 2.025964 1_555
Mn3 O3 2.025986 1_455
Mn3 O13 2.070964 1_555
Mn3 O4 2.149470 1_555
Mn3 O5 2.173052 1_555
O0 Sb0 1.971864 1_555
O1 Sb1 1.998169 1_555
O2 Sb2 1.991483 1_555
O3 Sb3 1.991861 1_555
O4 Sb0 2.000173 1_555
O5 Sb1 1.962355 1_555
O6 Sb2 1.982254 1_555
O7 Sb3 1.958524 1_556
O8 Sb0 2.007203 1_555
O8 Sb0 2.007301 1_655
O9 Sb1 2.020528 1_655
O9 Sb1 2.020760 1_555
O10 Sb2 2.031998 1_455
O10 Sb2 2.032104 1_555
O11 Sb3 2.024107 1_555
O11 Sb3 2.024194 1_455
O12 Sb3 2.046350 1_555
O12 Sb0 2.074888 1_645
O13 Sb1 2.021227 1_555
O13 Sb0 2.032172 1_555
O14 Sb1 2.016708 1_555
O14 Sb2 2.020471 1_545
O15 Sb3 2.008051 1_556
O15 Sb2 2.034645 1_555
