# generated using pymatgen
data_Zn(Ni2O3)2
_symmetry_space_group_name_H-M   'P 1'
_cell_length_a   5.09046752
_cell_length_b   5.09046752
_cell_length_c   14.89922000
_cell_angle_alpha   90.00000000
_cell_angle_beta   90.00000000
_cell_angle_gamma   146.74064449
_symmetry_Int_Tables_number   1
_chemical_formula_structural   Zn(Ni2O3)2
_chemical_formula_sum   'Zn2 Ni8 O12'
_cell_volume   211.73853274
_cell_formula_units_Z   2
loop_
 _symmetry_equiv_pos_site_id
 _symmetry_equiv_pos_as_xyz
  1  'x, y, z'
loop_
 _atom_site_type_symbol
 _atom_site_label
 _atom_site_symmetry_multiplicity
 _atom_site_fract_x
 _atom_site_fract_y
 _atom_site_fract_z
 _atom_site_occupancy
  Zn  Zn0  1  0.34343000  0.65657000  0.75000000  1
  Zn  Zn1  1  0.65657000  0.34343000  0.25000000  1
  Ni  Ni0  1  0.13635800  0.86364200  0.04457300  1
  Ni  Ni1  1  0.59552400  0.40447600  0.63478400  1
  Ni  Ni2  1  0.86364200  0.13635800  0.95542700  1
  Ni  Ni3  1  0.40447600  0.59552400  0.36521600  1
  Ni  Ni4  1  0.13635800  0.86364200  0.45542700  1
  Ni  Ni5  1  0.86364200  0.13635800  0.54457300  1
  Ni  Ni6  1  0.40447600  0.59552400  0.13478400  1
  Ni  Ni7  1  0.59552400  0.40447600  0.86521600  1
  O  O0  1  0.50000000  0.50000000  0.50000000  1
  O  O1  1  0.50000000  0.50000000  0.00000000  1
  O  O2  1  0.95374800  0.04625200  0.83952500  1
  O  O3  1  0.04625200  0.95374800  0.16047500  1
  O  O4  1  0.04625200  0.95374800  0.33952500  1
  O  O5  1  0.95374800  0.04625200  0.66047500  1
  O  O6  1  0.22156800  0.77843200  0.92389000  1
  O  O7  1  0.77843200  0.22156800  0.07611000  1
  O  O8  1  0.77843200  0.22156800  0.42389000  1
  O  O9  1  0.22156800  0.77843200  0.57611000  1
  O  O10  1  0.69718200  0.30281800  0.75000000  1
  O  O11  1  0.30281800  0.69718200  0.25000000  1
loop_
_geom_bond_atom_site_label_1
_geom_bond_atom_site_label_2
_geom_bond_distance
_geom_bond_site_symmetry_2
Ni0 O3 1.937689 1_555
Ni0 O6 1.980921 1_554
Ni0 O7 2.064932 1_455
Ni0 O7 2.064932 1_565
Ni0 O1 2.081523 1_455
Ni0 O1 2.081523 1_565
Ni1 O10 1.982487 1_555
Ni1 O5 2.044902 1_565
Ni1 O5 2.044902 1_455
Ni1 O9 2.097231 1_545
Ni1 O9 2.097231 1_655
Ni1 O0 2.213846 1_555
Ni2 O2 1.937689 1_555
Ni2 O7 1.980921 1_556
Ni2 O6 2.064932 1_545
Ni2 O6 2.064932 1_655
Ni2 O1 2.081523 1_546
Ni2 O1 2.081523 1_656
Ni3 O11 1.982487 1_555
Ni3 O4 2.044902 1_655
Ni3 O4 2.044902 1_545
Ni3 O8 2.097231 1_455
Ni3 O8 2.097231 1_565
Ni3 O0 2.213846 1_555
Ni4 O4 1.937689 1_555
Ni4 O9 1.980921 1_555
Ni4 O8 2.064932 1_455
Ni4 O8 2.064932 1_565
Ni4 O0 2.081523 1_455
Ni4 O0 2.081523 1_565
Ni5 O5 1.937689 1_555
Ni5 O8 1.980921 1_555
Ni5 O9 2.064932 1_545
Ni5 O9 2.064932 1_655
Ni5 O0 2.081523 1_545
Ni5 O0 2.081523 1_655
Ni6 O11 1.982487 1_555
Ni6 O3 2.044902 1_655
Ni6 O3 2.044902 1_545
Ni6 O7 2.097231 1_455
Ni6 O7 2.097231 1_565
Ni6 O1 2.213846 1_555
Ni7 O10 1.982487 1_555
Ni7 O2 2.044902 1_565
Ni7 O2 2.044902 1_455
Ni7 O6 2.097231 1_545
Ni7 O6 2.097231 1_655
Ni7 O1 2.213846 1_556
O2 Zn0 2.249355 1_545
O2 Zn0 2.249355 1_655
O3 Zn1 2.249355 1_455
O3 Zn1 2.249355 1_565
O4 Zn1 2.249355 1_455
O4 Zn1 2.249355 1_565
O5 Zn0 2.249355 1_545
O5 Zn0 2.249355 1_655
O10 Zn0 2.039039 1_545
O10 Zn0 2.039039 1_655
O11 Zn1 2.039039 1_455
O11 Zn1 2.039039 1_565
