# generated using pymatgen
data_Zn3P2(H2O3)4
_symmetry_space_group_name_H-M   'P 1'
_cell_length_a   5.08063600
_cell_length_b   10.82573000
_cell_length_c   18.69309700
_cell_angle_alpha   90.00000000
_cell_angle_beta   90.00000000
_cell_angle_gamma   90.00000000
_symmetry_Int_Tables_number   1
_chemical_formula_structural   Zn3P2(H2O3)4
_chemical_formula_sum   'Zn12 P8 H32 O48'
_cell_volume   1028.15012365
_cell_formula_units_Z   4
loop_
 _symmetry_equiv_pos_site_id
 _symmetry_equiv_pos_as_xyz
  1  'x, y, z'
loop_
 _atom_site_type_symbol
 _atom_site_label
 _atom_site_symmetry_multiplicity
 _atom_site_fract_x
 _atom_site_fract_y
 _atom_site_fract_z
 _atom_site_occupancy
  Zn  Zn0  1  0.28375300  0.64437600  0.99791200  1
  Zn  Zn1  1  0.21624700  0.14437600  0.50208800  1
  Zn  Zn2  1  0.71624700  0.35562400  0.49791200  1
  Zn  Zn3  1  0.78375300  0.85562400  0.00208800  1
  Zn  Zn4  1  0.71624700  0.35562400  0.00208800  1
  Zn  Zn5  1  0.78375300  0.85562400  0.49791200  1
  Zn  Zn6  1  0.28375300  0.64437600  0.50208800  1
  Zn  Zn7  1  0.21624700  0.14437600  0.99791200  1
  Zn  Zn8  1  0.91933500  0.73376500  0.25000000  1
  Zn  Zn9  1  0.58066500  0.23376500  0.25000000  1
  Zn  Zn10  1  0.08066500  0.26623500  0.75000000  1
  Zn  Zn11  1  0.41933500  0.76623500  0.75000000  1
  P  P0  1  0.76997300  0.60298200  0.09490700  1
  P  P1  1  0.73002700  0.10298200  0.40509300  1
  P  P2  1  0.23002700  0.39701800  0.59490700  1
  P  P3  1  0.26997300  0.89701800  0.90509300  1
  P  P4  1  0.23002700  0.39701800  0.90509300  1
  P  P5  1  0.26997300  0.89701800  0.59490700  1
  P  P6  1  0.76997300  0.60298200  0.40509300  1
  P  P7  1  0.73002700  0.10298200  0.09490700  1
  H  H0  1  0.37326800  0.61050500  0.29061700  1
  H  H1  1  0.12673200  0.11050500  0.20938300  1
  H  H2  1  0.62673200  0.38949500  0.79061700  1
  H  H3  1  0.87326800  0.88949500  0.70938300  1
  H  H4  1  0.62673200  0.38949500  0.70938300  1
  H  H5  1  0.87326800  0.88949500  0.79061700  1
  H  H6  1  0.37326800  0.61050500  0.20938300  1
  H  H7  1  0.12673200  0.11050500  0.29061700  1
  H  H8  1  0.46283100  0.86983600  0.25000000  1
  H  H9  1  0.03716900  0.36983600  0.25000000  1
  H  H10  1  0.53716900  0.13016400  0.75000000  1
  H  H11  1  0.96283100  0.63016400  0.75000000  1
  H  H12  1  0.68429500  0.97054600  0.25000000  1
  H  H13  1  0.81570500  0.47054600  0.25000000  1
  H  H14  1  0.31570500  0.02945400  0.75000000  1
  H  H15  1  0.18429500  0.52945400  0.75000000  1
  H  H16  1  0.04524600  0.88955300  0.14183500  1
  H  H17  1  0.45475400  0.38955300  0.35816500  1
  H  H18  1  0.95475400  0.11044700  0.64183500  1
  H  H19  1  0.54524600  0.61044700  0.85816500  1
  H  H20  1  0.95475400  0.11044700  0.85816500  1
  H  H21  1  0.54524600  0.61044700  0.64183500  1
  H  H22  1  0.04524600  0.88955300  0.35816500  1
  H  H23  1  0.45475400  0.38955300  0.14183500  1
  H  H24  1  0.17306400  0.75820400  0.13441800  1
  H  H25  1  0.32693600  0.25820400  0.36558200  1
  H  H26  1  0.82693600  0.24179600  0.63441800  1
  H  H27  1  0.67306400  0.74179600  0.86558200  1
  H  H28  1  0.82693600  0.24179600  0.86558200  1
  H  H29  1  0.67306400  0.74179600  0.63441800  1
  H  H30  1  0.17306400  0.75820400  0.36558200  1
  H  H31  1  0.32693600  0.25820400  0.13441800  1
  O  O0  1  0.63182100  0.69626500  0.04043700  1
  O  O1  1  0.86817900  0.19626500  0.45956300  1
  O  O2  1  0.36817900  0.30373500  0.54043700  1
  O  O3  1  0.13182100  0.80373500  0.95956300  1
  O  O4  1  0.36817900  0.30373500  0.95956300  1
  O  O5  1  0.13182100  0.80373500  0.54043700  1
  O  O6  1  0.63182100  0.69626500  0.45956300  1
  O  O7  1  0.86817900  0.19626500  0.04043700  1
  O  O8  1  0.34423900  0.52691500  0.92206000  1
  O  O9  1  0.15576100  0.02691500  0.57794000  1
  O  O10  1  0.65576100  0.47308500  0.42206000  1
  O  O11  1  0.84423900  0.97308500  0.07794000  1
  O  O12  1  0.65576100  0.47308500  0.07794000  1
  O  O13  1  0.84423900  0.97308500  0.42206000  1
  O  O14  1  0.34423900  0.52691500  0.57794000  1
  O  O15  1  0.15576100  0.02691500  0.92206000  1
  O  O16  1  0.07066200  0.61251000  0.08208800  1
  O  O17  1  0.42933800  0.11251000  0.41791200  1
  O  O18  1  0.92933800  0.38749000  0.58208800  1
  O  O19  1  0.57066200  0.88749000  0.91791200  1
  O  O20  1  0.92933800  0.38749000  0.91791200  1
  O  O21  1  0.57066200  0.88749000  0.58208800  1
  O  O22  1  0.07066200  0.61251000  0.41791200  1
  O  O23  1  0.42933800  0.11251000  0.08208800  1
  O  O24  1  0.70372700  0.63543500  0.17249200  1
  O  O25  1  0.79627300  0.13543500  0.32750800  1
  O  O26  1  0.29627300  0.36456500  0.67249200  1
  O  O27  1  0.20372700  0.86456500  0.82750800  1
  O  O28  1  0.29627300  0.36456500  0.82750800  1
  O  O29  1  0.20372700  0.86456500  0.67249200  1
  O  O30  1  0.70372700  0.63543500  0.32750800  1
  O  O31  1  0.79627300  0.13543500  0.17249200  1
  O  O32  1  0.24836700  0.60309600  0.25000000  1
  O  O33  1  0.25163300  0.10309600  0.25000000  1
  O  O34  1  0.75163300  0.39690400  0.75000000  1
  O  O35  1  0.74836700  0.89690400  0.75000000  1
  O  O36  1  0.65324000  0.88148000  0.25000000  1
  O  O37  1  0.84676000  0.38148000  0.25000000  1
  O  O38  1  0.34676000  0.11852000  0.75000000  1
  O  O39  1  0.15324000  0.61852000  0.75000000  1
  O  O40  1  0.14797200  0.82667400  0.16859000  1
  O  O41  1  0.35202800  0.32667400  0.33141000  1
  O  O42  1  0.85202800  0.17332600  0.66859000  1
  O  O43  1  0.64797200  0.67332600  0.83141000  1
  O  O44  1  0.85202800  0.17332600  0.83141000  1
  O  O45  1  0.64797200  0.67332600  0.66859000  1
  O  O46  1  0.14797200  0.82667400  0.33141000  1
  O  O47  1  0.35202800  0.32667400  0.16859000  1
loop_
_geom_bond_atom_site_label_1
_geom_bond_atom_site_label_2
_geom_bond_distance
_geom_bond_site_symmetry_2
H0 O32 0.992770 1_555
H1 O33 0.992770 1_555
H2 O34 0.992770 1_555
H3 O35 0.992770 1_555
H4 O34 0.992770 1_555
H5 O35 0.992770 1_555
H6 O32 0.992770 1_555
H7 O33 0.992770 1_555
H8 O36 0.975577 1_555
H9 O37 0.975577 1_455
H10 O38 0.975577 1_555
H11 O39 0.975577 1_655
H12 O36 0.977028 1_555
H13 O37 0.977028 1_555
H14 O38 0.977028 1_555
H15 O39 0.977028 1_555
H16 O40 0.992922 1_555
H17 O41 0.992922 1_555
H18 O42 0.992922 1_555
H19 O43 0.992922 1_555
H20 O44 0.992922 1_555
H21 O45 0.992922 1_555
H22 O46 0.992922 1_555
H23 O47 0.992922 1_555
H24 O40 0.986776 1_555
H25 O41 0.986776 1_555
H26 O42 0.986776 1_555
H27 O43 0.986776 1_555
H28 O44 0.986776 1_555
H29 O45 0.986776 1_555
H30 O46 0.986776 1_555
H31 O47 0.986776 1_555
O0 P0 1.596631 1_555
O0 Zn0 2.018592 1_554
O0 Zn3 2.021379 1_555
O1 P1 1.596631 1_555
O1 Zn1 2.018592 1_655
O1 Zn2 2.021379 1_555
O2 P2 1.596631 1_555
O2 Zn2 2.018592 1_555
O2 Zn1 2.021379 1_555
O3 P3 1.596631 1_555
O3 Zn3 2.018592 1_456
O3 Zn0 2.021379 1_555
O4 P4 1.596631 1_555
O4 Zn4 2.018592 1_556
O4 Zn7 2.021379 1_555
O5 P5 1.596631 1_555
O5 Zn5 2.018592 1_455
O5 Zn6 2.021379 1_555
O6 P6 1.596631 1_555
O6 Zn6 2.018592 1_555
O6 Zn5 2.021379 1_555
O7 P7 1.596631 1_555
O7 Zn7 2.018592 1_654
O7 Zn4 2.021379 1_555
O8 P4 1.553959 1_555
O8 Zn0 1.929215 1_555
O9 P5 1.553959 1_545
O9 Zn1 1.929215 1_555
O10 P6 1.553959 1_555
O10 Zn2 1.929215 1_555
O11 P7 1.553959 1_565
O11 Zn3 1.929215 1_555
O12 P0 1.553959 1_555
O12 Zn4 1.929215 1_555
O13 P1 1.553959 1_565
O13 Zn5 1.929215 1_555
O14 P2 1.553959 1_555
O14 Zn6 1.929215 1_555
O15 P3 1.553959 1_545
O15 Zn7 1.929215 1_555
O16 P0 1.549807 1_455
O16 Zn0 1.940888 1_554
O17 P1 1.549807 1_555
O17 Zn1 1.940888 1_555
O18 P2 1.549807 1_655
O18 Zn2 1.940888 1_555
O19 P3 1.549807 1_555
O19 Zn3 1.940888 1_556
O20 P4 1.549807 1_655
O20 Zn4 1.940888 1_556
O21 P5 1.549807 1_555
O21 Zn5 1.940888 1_555
O22 P6 1.549807 1_455
O22 Zn6 1.940888 1_555
O23 P7 1.549807 1_555
O23 Zn7 1.940888 1_554
O24 P0 1.529736 1_555
O24 Zn8 2.105306 1_555
O25 P1 1.529736 1_555
O25 Zn9 2.105306 1_555
O26 P2 1.529736 1_555
O26 Zn10 2.105306 1_555
O27 P3 1.529736 1_555
O27 Zn11 2.105306 1_555
O28 P4 1.529736 1_555
O28 Zn10 2.105306 1_555
O29 P5 1.529736 1_555
O29 Zn11 2.105306 1_555
O30 P6 1.529736 1_555
O30 Zn8 2.105306 1_555
O31 P7 1.529736 1_555
O31 Zn9 2.105306 1_555
O32 Zn8 2.189888 1_455
O33 Zn9 2.189888 1_555
O34 Zn10 2.189888 1_655
O35 Zn11 2.189888 1_555
O36 Zn8 2.094018 1_555
O37 Zn9 2.094018 1_555
O38 Zn10 2.094018 1_555
O39 Zn11 2.094018 1_555
O40 Zn8 2.162615 1_455
O41 Zn9 2.162615 1_555
O42 Zn10 2.162615 1_655
O43 Zn11 2.162615 1_555
O44 Zn10 2.162615 1_655
O45 Zn11 2.162615 1_555
O46 Zn8 2.162615 1_455
O47 Zn9 2.162615 1_555
