# generated using pymatgen
data_MgSc2Ru
_symmetry_space_group_name_H-M   'P 1'
_cell_length_a   6.51796302
_cell_length_b   6.51796302
_cell_length_c   15.24675204
_cell_angle_alpha   90.00000000
_cell_angle_beta   90.00000000
_cell_angle_gamma   90.00000000
_symmetry_Int_Tables_number   1
_chemical_formula_structural   MgSc2Ru
_chemical_formula_sum   'Mg8 Sc16 Ru8'
_cell_volume   647.74060361
_cell_formula_units_Z   8
loop_
 _symmetry_equiv_pos_site_id
 _symmetry_equiv_pos_as_xyz
  1  'x, y, z'
loop_
 _atom_site_type_symbol
 _atom_site_label
 _atom_site_symmetry_multiplicity
 _atom_site_fract_x
 _atom_site_fract_y
 _atom_site_fract_z
 _atom_site_occupancy
  Mg  Mg0_0  1  0.00000000  0.00000000  0.25000000  1
  Mg  Mg0_1  1  0.00000000  0.00000000  0.75000000  1
  Mg  Mg0_2  1  0.00000000  0.50000000  0.25000000  1
  Mg  Mg0_3  1  0.00000000  0.50000000  0.75000000  1
  Mg  Mg0_4  1  0.50000000  0.00000000  0.25000000  1
  Mg  Mg0_5  1  0.50000000  0.00000000  0.75000000  1
  Mg  Mg0_6  1  0.50000000  0.50000000  0.25000000  1
  Mg  Mg0_7  1  0.50000000  0.50000000  0.75000000  1
  Sc  Sc0_0  1  0.25000000  0.25000000  0.40067033  1
  Sc  Sc0_1  1  0.25000000  0.25000000  0.90067033  1
  Sc  Sc0_2  1  0.25000000  0.75000000  0.40067033  1
  Sc  Sc0_3  1  0.25000000  0.75000000  0.90067033  1
  Sc  Sc0_4  1  0.75000000  0.25000000  0.40067033  1
  Sc  Sc0_5  1  0.75000000  0.25000000  0.90067033  1
  Sc  Sc0_6  1  0.75000000  0.75000000  0.40067033  1
  Sc  Sc0_7  1  0.75000000  0.75000000  0.90067033  1
  Sc  Sc1_0  1  0.25000000  0.25000000  0.09932967  1
  Sc  Sc1_1  1  0.25000000  0.25000000  0.59932967  1
  Sc  Sc1_2  1  0.25000000  0.75000000  0.09932967  1
  Sc  Sc1_3  1  0.25000000  0.75000000  0.59932967  1
  Sc  Sc1_4  1  0.75000000  0.25000000  0.09932967  1
  Sc  Sc1_5  1  0.75000000  0.25000000  0.59932967  1
  Sc  Sc1_6  1  0.75000000  0.75000000  0.09932967  1
  Sc  Sc1_7  1  0.75000000  0.75000000  0.59932967  1
  Ru  Ru0_0  1  0.00000000  0.00000000  0.00000000  1
  Ru  Ru0_1  1  0.00000000  0.00000000  0.50000000  1
  Ru  Ru0_2  1  0.00000000  0.50000000  0.00000000  1
  Ru  Ru0_3  1  0.00000000  0.50000000  0.50000000  1
  Ru  Ru0_4  1  0.50000000  0.00000000  0.00000000  1
  Ru  Ru0_5  1  0.50000000  0.00000000  0.50000000  1
  Ru  Ru0_6  1  0.50000000  0.50000000  0.00000000  1
  Ru  Ru0_7  1  0.50000000  0.50000000  0.50000000  1
loop_
_geom_bond_atom_site_label_1
_geom_bond_atom_site_label_2
_geom_bond_distance
_geom_bond_site_symmetry_2
Mg0_0 Sc1_2 3.253884 1_545
Mg0_0 Sc1_4 3.253884 1_455
Mg0_0 Sc1_0 3.253884 1_555
Mg0_0 Sc1_6 3.253884 1_445
Mg0_0 Sc0_0 3.253884 1_555
Mg0_0 Sc0_2 3.253884 1_545
Mg0_0 Sc0_4 3.253884 1_455
Mg0_0 Sc0_6 3.253884 1_445
Mg0_0 Mg0_2 3.258982 1_545
Mg0_0 Mg0_4 3.258982 1_555
Mg0_0 Mg0_4 3.258982 1_455
Mg0_0 Mg0_2 3.258982 1_555
Mg0_1 Sc1_7 3.253884 1_445
Mg0_1 Sc1_1 3.253884 1_555
Mg0_1 Sc1_3 3.253884 1_545
Mg0_1 Sc1_5 3.253884 1_455
Mg0_1 Sc0_7 3.253884 1_445
Mg0_1 Sc0_1 3.253884 1_555
Mg0_1 Sc0_5 3.253884 1_455
Mg0_1 Sc0_3 3.253884 1_545
Mg0_1 Mg0_5 3.258982 1_555
Mg0_1 Mg0_3 3.258982 1_545
Mg0_1 Mg0_3 3.258982 1_555
Mg0_1 Mg0_5 3.258982 1_455
Mg0_2 Sc1_6 3.253884 1_455
Mg0_2 Sc1_4 3.253884 1_455
Mg0_2 Sc1_0 3.253884 1_555
Mg0_2 Sc1_2 3.253884 1_555
Mg0_2 Sc0_6 3.253884 1_455
Mg0_2 Sc0_0 3.253884 1_555
Mg0_2 Sc0_4 3.253884 1_455
Mg0_2 Sc0_2 3.253884 1_555
Mg0_2 Mg0_6 3.258982 1_555
Mg0_2 Mg0_6 3.258982 1_455
Mg0_3 Sc1_1 3.253884 1_555
Mg0_3 Sc1_5 3.253884 1_455
Mg0_3 Sc1_3 3.253884 1_555
Mg0_3 Sc1_7 3.253884 1_455
Mg0_3 Sc0_3 3.253884 1_555
Mg0_3 Sc0_1 3.253884 1_555
Mg0_3 Sc0_5 3.253884 1_455
Mg0_3 Sc0_7 3.253884 1_455
Mg0_3 Mg0_7 3.258982 1_455
Mg0_3 Mg0_7 3.258982 1_555
Mg0_4 Sc1_2 3.253884 1_545
Mg0_4 Sc1_0 3.253884 1_555
Mg0_4 Sc1_6 3.253884 1_545
Mg0_4 Sc1_4 3.253884 1_555
Mg0_4 Sc0_0 3.253884 1_555
Mg0_4 Sc0_2 3.253884 1_545
Mg0_4 Sc0_4 3.253884 1_555
Mg0_4 Sc0_6 3.253884 1_545
Mg0_4 Mg0_6 3.258982 1_555
Mg0_4 Mg0_6 3.258982 1_545
Mg0_5 Sc1_1 3.253884 1_555
Mg0_5 Sc1_3 3.253884 1_545
Mg0_5 Sc1_7 3.253884 1_545
Mg0_5 Sc1_5 3.253884 1_555
Mg0_5 Sc0_3 3.253884 1_545
Mg0_5 Sc0_5 3.253884 1_555
Mg0_5 Sc0_1 3.253884 1_555
Mg0_5 Sc0_7 3.253884 1_545
Mg0_5 Mg0_7 3.258982 1_555
Mg0_5 Mg0_7 3.258982 1_545
Mg0_6 Sc1_6 3.253884 1_555
Mg0_6 Sc1_0 3.253884 1_555
Mg0_6 Sc1_4 3.253884 1_555
Mg0_6 Sc1_2 3.253884 1_555
Mg0_6 Sc0_0 3.253884 1_555
Mg0_6 Sc0_2 3.253884 1_555
Mg0_6 Sc0_6 3.253884 1_555
Mg0_6 Sc0_4 3.253884 1_555
Mg0_7 Sc1_5 3.253884 1_555
Mg0_7 Sc1_1 3.253884 1_555
Mg0_7 Sc1_3 3.253884 1_555
Mg0_7 Sc1_7 3.253884 1_555
Mg0_7 Sc0_3 3.253884 1_555
Mg0_7 Sc0_1 3.253884 1_555
Mg0_7 Sc0_7 3.253884 1_555
Mg0_7 Sc0_5 3.253884 1_555
Ru0_0 Sc1_4 2.757545 1_455
Ru0_0 Sc1_2 2.757545 1_545
Ru0_0 Sc1_0 2.757545 1_555
Ru0_0 Sc1_6 2.757545 1_445
Ru0_0 Sc0_3 2.757545 1_544
Ru0_0 Sc0_5 2.757545 1_454
Ru0_0 Sc0_7 2.757545 1_444
Ru0_0 Sc0_1 2.757545 1_554
Ru0_1 Sc0_0 2.757545 1_555
Ru0_1 Sc0_2 2.757545 1_545
Ru0_1 Sc0_4 2.757545 1_455
Ru0_1 Sc0_6 2.757545 1_445
Ru0_1 Sc1_7 2.757545 1_445
Ru0_1 Sc1_1 2.757545 1_555
Ru0_1 Sc1_3 2.757545 1_545
Ru0_1 Sc1_5 2.757545 1_455
Ru0_2 Sc1_2 2.757545 1_555
Ru0_2 Sc1_6 2.757545 1_455
Ru0_2 Sc1_4 2.757545 1_455
Ru0_2 Sc1_0 2.757545 1_555
Ru0_2 Sc0_5 2.757545 1_454
Ru0_2 Sc0_7 2.757545 1_454
Ru0_2 Sc0_3 2.757545 1_554
Ru0_2 Sc0_1 2.757545 1_554
Ru0_3 Sc0_6 2.757545 1_455
Ru0_3 Sc0_0 2.757545 1_555
Ru0_3 Sc0_4 2.757545 1_455
Ru0_3 Sc0_2 2.757545 1_555
Ru0_3 Sc1_1 2.757545 1_555
Ru0_3 Sc1_5 2.757545 1_455
Ru0_3 Sc1_3 2.757545 1_555
Ru0_3 Sc1_7 2.757545 1_455
Ru0_4 Sc1_4 2.757545 1_555
Ru0_4 Sc1_2 2.757545 1_545
Ru0_4 Sc1_0 2.757545 1_555
Ru0_4 Sc1_6 2.757545 1_545
Ru0_4 Sc0_3 2.757545 1_544
Ru0_4 Sc0_5 2.757545 1_554
Ru0_4 Sc0_7 2.757545 1_544
Ru0_4 Sc0_1 2.757545 1_554
Ru0_5 Sc0_0 2.757545 1_555
Ru0_5 Sc0_2 2.757545 1_545
Ru0_5 Sc0_4 2.757545 1_555
Ru0_5 Sc0_6 2.757545 1_545
Ru0_5 Sc1_1 2.757545 1_555
Ru0_5 Sc1_3 2.757545 1_545
Ru0_5 Sc1_7 2.757545 1_545
Ru0_5 Sc1_5 2.757545 1_555
Ru0_6 Sc1_2 2.757545 1_555
Ru0_6 Sc1_4 2.757545 1_555
Ru0_6 Sc1_6 2.757545 1_555
Ru0_6 Sc1_0 2.757545 1_555
Ru0_6 Sc0_5 2.757545 1_554
Ru0_6 Sc0_3 2.757545 1_554
Ru0_6 Sc0_7 2.757545 1_554
Ru0_6 Sc0_1 2.757545 1_554
Ru0_7 Sc0_0 2.757545 1_555
Ru0_7 Sc0_2 2.757545 1_555
Ru0_7 Sc0_4 2.757545 1_555
Ru0_7 Sc0_6 2.757545 1_555
Ru0_7 Sc1_7 2.757545 1_555
Ru0_7 Sc1_1 2.757545 1_555
Ru0_7 Sc1_3 2.757545 1_555
Ru0_7 Sc1_5 2.757545 1_555
