# generated using pymatgen
data_FeCu2SiS4
_symmetry_space_group_name_H-M   'P 1'
_cell_length_a   6.13012900
_cell_length_b   6.38679000
_cell_length_c   7.39281700
_cell_angle_alpha   90.00000000
_cell_angle_beta   90.00000000
_cell_angle_gamma   90.00000000
_symmetry_Int_Tables_number   1
_chemical_formula_structural   FeCu2SiS4
_chemical_formula_sum   'Fe2 Cu4 Si2 S8'
_cell_volume   289.44243710
_cell_formula_units_Z   2
loop_
 _symmetry_equiv_pos_site_id
 _symmetry_equiv_pos_as_xyz
  1  'x, y, z'
loop_
 _atom_site_type_symbol
 _atom_site_label
 _atom_site_symmetry_multiplicity
 _atom_site_fract_x
 _atom_site_fract_y
 _atom_site_fract_z
 _atom_site_occupancy
  Fe  Fe0  1  0.00201900  0.15493400  0.50000000  1
  Fe  Fe1  1  0.50201900  0.84506600  0.00000000  1
  Cu  Cu0  1  0.49176200  0.32582700  0.74747200  1
  Cu  Cu1  1  0.49176200  0.32582700  0.25252800  1
  Cu  Cu2  1  0.99176200  0.67417300  0.75252800  1
  Cu  Cu3  1  0.99176200  0.67417300  0.24747200  1
  Si  Si0  1  0.50097500  0.82816500  0.50000000  1
  Si  Si1  1  0.00097500  0.17183500  0.00000000  1
  S  S0  1  0.14655800  0.82471300  0.50000000  1
  S  S1  1  0.64655800  0.17528700  0.00000000  1
  S  S2  1  0.62283800  0.14571900  0.50000000  1
  S  S3  1  0.12283800  0.85428100  0.00000000  1
  S  S4  1  0.11704300  0.33194300  0.75948900  1
  S  S5  1  0.11704300  0.33194300  0.24051100  1
  S  S6  1  0.61704300  0.66805700  0.74051100  1
  S  S7  1  0.61704300  0.66805700  0.25948900  1
loop_
_geom_bond_atom_site_label_1
_geom_bond_atom_site_label_2
_geom_bond_distance
_geom_bond_site_symmetry_2
Fe0 S0 2.287613 1_545
Fe0 S2 2.325173 1_455
Fe0 S4 2.335667 1_555
Fe0 S5 2.335667 1_555
Fe1 S1 2.287613 1_565
Fe1 S3 2.325173 1_555
Fe1 S6 2.335667 1_554
Fe1 S7 2.335667 1_555
Cu0 S4 2.299125 1_555
Cu0 S1 2.304378 1_556
Cu0 S2 2.305640 1_555
Cu0 S6 2.317318 1_555
Cu1 S5 2.299125 1_555
Cu1 S1 2.304378 1_555
Cu1 S2 2.305640 1_555
Cu1 S7 2.317318 1_555
Cu2 S6 2.299125 1_555
Cu2 S0 2.304378 1_655
Cu2 S3 2.305640 1_656
Cu2 S4 2.317318 1_655
Cu3 S7 2.299125 1_555
Cu3 S0 2.304378 1_655
Cu3 S3 2.305640 1_655
Cu3 S5 2.317318 1_655
S0 Si0 2.172734 1_555
S1 Si1 2.172734 1_655
S2 Si0 2.161356 1_545
S3 Si1 2.161356 1_565
S4 Si1 2.171033 1_556
S5 Si1 2.171033 1_555
S6 Si0 2.171033 1_555
S7 Si0 2.171033 1_555
