# generated using pymatgen
data_Na3AlSiTe4
_symmetry_space_group_name_H-M   'P 1'
_cell_length_a   4.36651200
_cell_length_b   8.84599302
_cell_length_c   9.07711877
_cell_angle_alpha   61.75016665
_cell_angle_beta   84.28180133
_cell_angle_gamma   80.59280660
_symmetry_Int_Tables_number   1
_chemical_formula_structural   Na3AlSiTe4
_chemical_formula_sum   'Na3 Al1 Si1 Te4'
_cell_volume   304.59947193
_cell_formula_units_Z   1
loop_
 _symmetry_equiv_pos_site_id
 _symmetry_equiv_pos_as_xyz
  1  'x, y, z'
loop_
 _atom_site_type_symbol
 _atom_site_label
 _atom_site_symmetry_multiplicity
 _atom_site_fract_x
 _atom_site_fract_y
 _atom_site_fract_z
 _atom_site_occupancy
  Na  Na0  1  0.49151800  0.43746500  0.59976800  1
  Na  Na1  1  0.08663300  0.11678000  0.85640200  1
  Na  Na2  1  0.73517300  0.85061200  0.19864900  1
  Al  Al0  1  0.61145600  0.95460900  0.64144200  1
  Si  Si0  1  0.89519500  0.50237600  0.92477100  1
  Te  Te0  1  0.44105900  0.75903700  0.95847800  1
  Te  Te1  1  0.07352500  0.16856300  0.50181600  1
  Te  Te2  1  0.52650600  0.25868400  0.99501400  1
  Te  Te3  1  0.88893700  0.70187400  0.57366100  1
loop_
_geom_bond_atom_site_label_1
_geom_bond_atom_site_label_2
_geom_bond_distance
_geom_bond_site_symmetry_2
Na0 Te3 3.042775 1_555
Na0 Te3 3.168237 1_455
Na0 Te2 3.170983 1_555
Na0 Te1 3.533111 1_655
Na0 Te1 3.677601 1_555
Na1 Te2 3.003163 1_455
Na1 Te0 3.029402 1_545
Na1 Te1 3.033987 1_555
Na1 Te2 3.100446 1_555
Na2 Te0 3.102893 1_554
Na2 Te3 3.113877 1_555
Na2 Te2 3.197121 1_564
Al0 Te0 2.666336 1_555
Al0 Te3 2.667011 1_555
Al0 Te1 2.752249 1_565
Al0 Te1 2.779790 1_665
Si0 Te2 2.697055 1_555
Si0 Te3 2.819548 1_555
Si0 Te0 2.871514 1_555
Si0 Te2 3.123955 1_655
