# generated using pymatgen
data_Hf(Mg4Al3)4
_symmetry_space_group_name_H-M   'P 1'
_cell_length_a   9.16476411
_cell_length_b   9.16476411
_cell_length_c   9.16476401
_cell_angle_alpha   110.23468494
_cell_angle_beta   110.23468494
_cell_angle_gamma   110.23467895
_symmetry_Int_Tables_number   1
_chemical_formula_structural   Hf(Mg4Al3)4
_chemical_formula_sum   'Hf1 Mg16 Al12'
_cell_volume   575.21427803
_cell_formula_units_Z   1
loop_
 _symmetry_equiv_pos_site_id
 _symmetry_equiv_pos_as_xyz
  1  'x, y, z'
loop_
 _atom_site_type_symbol
 _atom_site_label
 _atom_site_symmetry_multiplicity
 _atom_site_fract_x
 _atom_site_fract_y
 _atom_site_fract_z
 _atom_site_occupancy
  Hf  Hf0  1  0.37132800  0.37132800  0.37132800  1
  Mg  Mg0  1  0.27855300  0.60439400  0.60439400  1
  Mg  Mg1  1  0.00311300  0.00311300  0.00311300  1
  Mg  Mg2  1  0.65589400  0.99539500  0.99539500  1
  Mg  Mg3  1  0.72011700  0.31552200  0.31552200  1
  Mg  Mg4  1  0.00142300  0.68865700  0.39401700  1
  Mg  Mg5  1  0.39401700  0.00142300  0.68865700  1
  Mg  Mg6  1  0.60439400  0.60439400  0.27855300  1
  Mg  Mg7  1  0.99539500  0.99539500  0.65589400  1
  Mg  Mg8  1  0.68865700  0.39401700  0.00142300  1
  Mg  Mg9  1  0.31552200  0.72011700  0.31552200  1
  Mg  Mg10  1  0.31552200  0.31552200  0.72011700  1
  Mg  Mg11  1  0.68865700  0.00142300  0.39401700  1
  Mg  Mg12  1  0.99539500  0.65589400  0.99539500  1
  Mg  Mg13  1  0.60439400  0.27855300  0.60439400  1
  Mg  Mg14  1  0.39401700  0.68865700  0.00142300  1
  Mg  Mg15  1  0.00142300  0.39401700  0.68865700  1
  Al  Al0  1  0.17376400  0.80920700  0.80920700  1
  Al  Al1  1  0.80502500  0.62371200  0.62371200  1
  Al  Al2  1  0.00824900  0.36626100  0.18927200  1
  Al  Al3  1  0.36626100  0.18927200  0.00824900  1
  Al  Al4  1  0.62371200  0.80502500  0.62371200  1
  Al  Al5  1  0.18927200  0.36626100  0.00824900  1
  Al  Al6  1  0.80920700  0.17376400  0.80920700  1
  Al  Al7  1  0.80920700  0.80920700  0.17376400  1
  Al  Al8  1  0.18927200  0.00824900  0.36626100  1
  Al  Al9  1  0.62371200  0.62371200  0.80502500  1
  Al  Al10  1  0.36626100  0.00824900  0.18927200  1
  Al  Al11  1  0.00824900  0.18927200  0.36626100  1
loop_
_geom_bond_atom_site_label_1
_geom_bond_atom_site_label_2
_geom_bond_distance
_geom_bond_site_symmetry_2
Hf0 Mg13 3.033886 1_555
Hf0 Mg0 3.033886 1_555
Hf0 Mg6 3.033886 1_555
Hf0 Mg1 3.245243 1_555
Mg0 Mg4 3.124715 1_555
Mg0 Mg15 3.124715 1_555
Mg0 Mg14 3.127878 1_556
Mg0 Mg5 3.127878 1_565
Mg1 Mg7 3.133914 1_444
Mg1 Mg2 3.133914 1_444
Mg1 Mg12 3.133914 1_444
Mg2 Mg5 3.032829 1_565
Mg2 Mg3 3.036210 1_566
Mg3 Mg4 3.126541 1_655
Mg3 Mg8 3.144689 1_555
Mg4 Mg7 3.032829 1_455
Mg4 Mg8 3.040528 1_455
Mg4 Mg5 3.040529 1_565
Mg4 Mg6 3.127878 1_455
Mg4 Mg9 3.144689 1_555
Mg5 Mg8 3.040529 1_556
Mg5 Mg9 3.126541 1_545
Mg6 Mg8 3.124715 1_555
Mg10 Mg7 3.036210 1_445
Mg10 Mg14 3.126541 1_556
Mg10 Mg8 3.126541 1_556
Mg10 Mg5 3.144689 1_555
Mg10 Mg15 3.144689 1_555
Mg11 Mg7 3.032829 1_545
Mg11 Mg14 3.040528 1_545
Mg11 Mg15 3.040529 1_655
Mg11 Mg13 3.124715 1_555
Mg11 Mg9 3.126541 1_545
Mg11 Mg6 3.127878 1_545
Mg11 Mg3 3.144689 1_555
Mg12 Mg15 3.032829 1_655
Mg12 Mg8 3.032829 1_556
Mg12 Mg9 3.036210 1_656
Mg13 Mg5 3.124715 1_555
Mg13 Mg8 3.127878 1_556
Mg13 Mg15 3.127878 1_655
Mg14 Mg2 3.032829 1_554
Mg14 Mg15 3.040529 1_554
Mg14 Mg6 3.124715 1_555
Mg14 Mg9 3.144689 1_555
Mg15 Mg3 3.126541 1_455
Al0 Al1 2.693192 1_455
Al0 Al10 2.774996 1_566
Al0 Al3 2.774996 1_566
Al0 Mg0 2.832973 1_555
Al0 Mg14 2.971144 1_556
Al0 Mg5 2.971144 1_565
Al0 Mg7 3.091503 1_455
Al0 Mg12 3.091504 1_455
Al0 Mg4 3.149891 1_555
Al0 Mg15 3.149891 1_555
Al0 Mg1 3.228433 1_566
Al1 Al4 2.726253 1_555
Al1 Al9 2.726253 1_555
Al1 Mg3 2.828749 1_555
Al1 Mg6 2.963568 1_555
Al1 Mg13 2.963568 1_555
Al1 Mg12 3.093939 1_555
Al1 Mg7 3.093940 1_555
Al1 Hf0 3.174703 1_555
Al1 Mg1 3.221823 1_666
Al1 Mg15 3.282097 1_655
Al1 Mg4 3.282097 1_655
Al2 Al5 2.721893 1_555
Al2 Al6 2.774996 1_454
Al2 Mg9 2.935877 1_555
Al2 Mg4 2.937515 1_555
Al2 Mg8 2.989613 1_455
Al2 Mg0 3.061262 1_555
Al2 Mg2 3.065732 1_444
Al2 Hf0 3.139674 1_555
Al2 Mg1 3.146106 1_555
Al2 Mg3 3.188163 1_455
Al3 Al5 2.661237 1_555
Al3 Mg3 2.935877 1_555
Al3 Mg8 2.937515 1_555
Al3 Mg5 2.989613 1_554
Al3 Mg6 3.061262 1_555
Al3 Mg7 3.065731 1_444
Al3 Hf0 3.139674 1_555
Al3 Mg1 3.146106 1_555
Al3 Mg10 3.188163 1_554
Al4 Al6 2.693192 1_565
Al4 Al9 2.726253 1_555
Al4 Mg9 2.828749 1_555
Al4 Mg6 2.963568 1_555
Al4 Mg0 2.963568 1_555
Al4 Mg2 3.093939 1_555
Al4 Mg7 3.093940 1_555
Al4 Hf0 3.174703 1_555
Al4 Mg1 3.221823 1_666
Al4 Mg5 3.282097 1_565
Al4 Mg11 3.282097 1_565
Al5 Al6 2.774996 1_454
Al5 Mg9 2.935877 1_555
Al5 Mg14 2.937515 1_555
Al5 Mg15 2.989613 1_554
Al5 Mg6 3.061262 1_555
Al5 Mg7 3.065731 1_444
Al5 Hf0 3.139674 1_555
Al5 Mg1 3.146106 1_555
Al5 Mg10 3.188163 1_554
Al6 Mg13 2.832973 1_555
Al6 Mg8 2.971144 1_556
Al6 Mg15 2.971144 1_655
Al6 Mg7 3.091503 1_545
Al6 Mg2 3.091504 1_545
Al6 Mg11 3.149891 1_555
Al6 Mg5 3.149891 1_555
Al6 Mg1 3.228433 1_656
Al7 Al9 2.693192 1_554
Al7 Al8 2.774996 1_665
Al7 Mg6 2.832973 1_555
Al7 Mg11 2.971144 1_565
Al7 Mg4 2.971144 1_655
Al7 Mg2 3.091503 1_554
Al7 Mg12 3.091503 1_554
Al7 Mg14 3.149891 1_555
Al7 Mg8 3.149891 1_555
Al7 Mg1 3.228433 1_665
Al8 Mg10 2.935877 1_555
Al8 Mg5 2.937515 1_555
Al8 Mg4 2.989613 1_545
Al8 Mg13 3.061262 1_555
Al8 Mg12 3.065731 1_444
Al8 Hf0 3.139674 1_555
Al8 Mg1 3.146106 1_555
Al8 Mg9 3.188163 1_545
Al9 Mg10 2.828749 1_555
Al9 Mg0 2.963568 1_555
Al9 Mg13 2.963568 1_555
Al9 Mg12 3.093939 1_555
Al9 Mg2 3.093939 1_555
Al9 Hf0 3.174703 1_555
Al9 Mg1 3.221823 1_666
Al9 Mg8 3.282097 1_556
Al9 Mg14 3.282097 1_556
Al10 Al8 2.661237 1_555
Al10 Al3 2.721893 1_555
Al10 Mg3 2.935877 1_555
Al10 Mg11 2.937515 1_555
Al10 Mg14 2.989613 1_545
Al10 Mg13 3.061262 1_555
Al10 Mg12 3.065732 1_444
Al10 Hf0 3.139674 1_555
Al10 Mg1 3.146106 1_555
Al10 Mg9 3.188163 1_545
Al11 Al2 2.661237 1_555
Al11 Al8 2.721893 1_555
Al11 Al7 2.774996 1_445
Al11 Mg10 2.935877 1_555
Al11 Mg15 2.937515 1_555
Al11 Mg11 2.989613 1_455
Al11 Mg0 3.061262 1_555
Al11 Mg2 3.065731 1_444
Al11 Hf0 3.139674 1_555
Al11 Mg1 3.146106 1_555
Al11 Mg3 3.188163 1_455
