# generated using pymatgen
data_Lu(AlCr)6
_symmetry_space_group_name_H-M   'P 1'
_cell_length_a   6.66246104
_cell_length_b   6.66246104
_cell_length_c   6.66246104
_cell_angle_alpha   135.49547791
_cell_angle_beta   98.92704124
_cell_angle_gamma   97.56369148
_symmetry_Int_Tables_number   1
_chemical_formula_structural   Lu(AlCr)6
_chemical_formula_sum   'Lu1 Al6 Cr6'
_cell_volume   191.84395179
_cell_formula_units_Z   1
loop_
 _symmetry_equiv_pos_site_id
 _symmetry_equiv_pos_as_xyz
  1  'x, y, z'
loop_
 _atom_site_type_symbol
 _atom_site_label
 _atom_site_symmetry_multiplicity
 _atom_site_fract_x
 _atom_site_fract_y
 _atom_site_fract_z
 _atom_site_occupancy
  Lu  Lu0  1  0.00000000  0.00000000  0.00000000  1
  Al  Al0  1  0.34588400  0.00000000  0.34588400  1
  Al  Al1  1  0.65411600  0.00000000  0.65411600  1
  Al  Al2  1  0.33117000  0.33117000  0.00000000  1
  Al  Al3  1  0.66883000  0.66883000  0.00000000  1
  Al  Al4  1  0.80528700  0.50000000  0.30528700  1
  Al  Al5  1  0.19471300  0.50000000  0.69471300  1
  Cr  Cr0  1  0.00000000  0.50000000  0.00000000  1
  Cr  Cr1  1  0.00000000  0.00000000  0.50000000  1
  Cr  Cr2  1  0.50000000  0.00000000  0.00000000  1
  Cr  Cr3  1  0.50000000  0.50000000  0.50000000  1
  Cr  Cr4  1  0.76173200  0.26173200  0.50000000  1
  Cr  Cr5  1  0.23826800  0.73826800  0.50000000  1
loop_
_geom_bond_atom_site_label_1
_geom_bond_atom_site_label_2
_geom_bond_distance
_geom_bond_site_symmetry_2
Al0 Cr4 2.657523 1_555
Al0 Cr5 2.657523 1_545
Al0 Cr1 2.664412 1_555
Al0 Cr3 2.664412 1_555
Al0 Cr2 2.664412 1_555
Al0 Cr0 2.664412 1_545
Al0 Al1 2.669380 1_555
Al0 Al5 2.842423 1_555
Al0 Al5 2.842423 1_544
Al0 Lu0 2.995457 1_555
Al1 Cr4 2.657523 1_555
Al1 Cr5 2.657523 1_545
Al1 Cr0 2.664412 1_656
Al1 Cr3 2.664412 1_545
Al1 Cr2 2.664412 1_556
Al1 Cr1 2.664412 1_655
Al1 Al4 2.842423 1_556
Al1 Al4 2.842423 1_545
Al1 Lu0 2.995457 1_656
Al2 Cr0 2.605152 1_555
Al2 Cr1 2.605152 1_554
Al2 Cr3 2.605152 1_555
Al2 Cr2 2.605152 1_555
Al2 Cr5 2.651558 1_544
Al2 Cr5 2.651558 1_555
Al2 Lu0 2.907726 1_555
Al2 Al4 3.031081 1_555
Al2 Al5 3.031081 1_554
Al3 Cr0 2.605152 1_655
Al3 Cr2 2.605152 1_565
Al3 Cr3 2.605152 1_554
Al3 Cr1 2.605152 1_665
Al3 Cr4 2.651558 1_565
Al3 Cr4 2.651558 1_554
Al3 Lu0 2.907726 1_665
Al3 Al4 3.031081 1_555
Al3 Al5 3.031081 1_554
Al4 Cr2 2.576588 1_555
Al4 Cr3 2.576588 1_555
Al4 Cr0 2.576588 1_655
Al4 Cr1 2.576588 1_665
Al4 Cr5 2.687026 1_655
Al4 Cr4 2.687026 1_555
Al4 Lu0 3.034620 1_655
Al4 Lu0 3.034620 1_666
Al5 Cr3 2.576588 1_555
Al5 Cr2 2.576588 1_566
Al5 Cr1 2.576588 1_555
Al5 Cr0 2.576588 1_556
Al5 Cr5 2.687026 1_555
Al5 Cr4 2.687026 1_455
Al5 Lu0 3.034620 1_555
Al5 Lu0 3.034620 1_566
Cr0 Cr4 2.507889 1_454
Cr0 Cr5 2.507889 1_555
Cr0 Cr1 2.522975 1_554
Cr0 Cr1 2.522975 1_565
Cr0 Lu0 3.331231 1_555
Cr0 Lu0 3.331231 1_565
Cr1 Cr4 2.507889 1_455
Cr1 Cr5 2.507889 1_545
Cr1 Lu0 3.331231 1_556
Cr1 Lu0 3.331231 1_555
Cr2 Cr5 2.507889 1_544
Cr2 Cr4 2.507889 1_555
Cr2 Cr3 2.522975 1_544
Cr2 Cr3 2.522975 1_555
Cr2 Lu0 3.331231 1_655
Cr2 Lu0 3.331231 1_555
Cr3 Cr5 2.507889 1_555
Cr3 Cr4 2.507889 1_555
Cr3 Lu0 3.331231 1_666
Cr3 Lu0 3.331231 1_555
Cr4 Lu0 3.277499 1_655
Cr4 Lu0 3.277499 1_666
Cr5 Lu0 3.277499 1_566
Cr5 Lu0 3.277499 1_555
