# generated using pymatgen
data_Mg4Si7
_symmetry_space_group_name_H-M   'P 1'
_cell_length_a   4.62036200
_cell_length_b   6.14891200
_cell_length_c   13.84591279
_cell_angle_alpha   89.69686203
_cell_angle_beta   90.00000000
_cell_angle_gamma   90.00000000
_symmetry_Int_Tables_number   1
_chemical_formula_structural   Mg4Si7
_chemical_formula_sum   'Mg8 Si14'
_cell_volume   393.35963688
_cell_formula_units_Z   2
loop_
 _symmetry_equiv_pos_site_id
 _symmetry_equiv_pos_as_xyz
  1  'x, y, z'
loop_
 _atom_site_type_symbol
 _atom_site_label
 _atom_site_symmetry_multiplicity
 _atom_site_fract_x
 _atom_site_fract_y
 _atom_site_fract_z
 _atom_site_occupancy
  Mg  Mg0  1  0.00000000  0.08960400  0.08882300  1
  Mg  Mg1  1  0.00000000  0.37471900  0.53987400  1
  Mg  Mg2  1  0.50000000  0.98354700  0.72601100  1
  Mg  Mg3  1  0.50000000  0.58458600  0.32181000  1
  Mg  Mg4  1  0.00000000  0.56324800  0.17298500  1
  Mg  Mg5  1  0.50000000  0.57950600  0.86100200  1
  Mg  Mg6  1  0.50000000  0.71667500  0.54118200  1
  Mg  Mg7  1  0.50000000  0.11472100  0.42002100  1
  Si  Si0  1  0.00000000  0.30731300  0.91621200  1
  Si  Si1  1  0.00000000  0.68322600  0.97917500  1
  Si  Si2  1  0.50000000  0.79534300  0.04510600  1
  Si  Si3  1  0.50000000  0.16857300  0.96606700  1
  Si  Si4  1  0.00000000  0.75271200  0.42619400  1
  Si  Si5  1  0.00000000  0.95887900  0.57917500  1
  Si  Si6  1  0.00000000  0.89327100  0.83381500  1
  Si  Si7  1  0.50000000  0.97234400  0.20663700  1
  Si  Si8  1  0.00000000  0.32982900  0.34639000  1
  Si  Si9  1  0.00000000  0.25807400  0.74332000  1
  Si  Si10  1  0.50000000  0.41981500  0.68030600  1
  Si  Si11  1  0.50000000  0.33606700  0.12644200  1
  Si  Si12  1  0.00000000  0.96136400  0.28212400  1
  Si  Si13  1  0.00000000  0.66023200  0.69372900  1
loop_
_geom_bond_atom_site_label_1
_geom_bond_atom_site_label_2
_geom_bond_distance
_geom_bond_site_symmetry_2
Mg0 Si0 2.733146 1_554
Mg0 Si12 2.786167 1_545
Mg0 Si11 2.813054 1_555
Mg0 Si11 2.813054 1_455
Mg0 Si3 2.907380 1_554
Mg0 Si3 2.907380 1_454
Mg0 Si7 2.916387 1_445
Mg0 Si7 2.916387 1_545
Mg0 Si1 2.930685 1_544
Mg0 Si2 2.998131 1_445
Mg0 Si2 2.998131 1_545
Mg1 Si5 2.611407 1_545
Mg1 Si8 2.694597 1_555
Mg1 Si13 2.767617 1_555
Mg1 Si4 2.800160 1_555
Mg1 Si9 2.903094 1_555
Mg1 Si10 3.033193 1_555
Mg1 Si10 3.033193 1_455
Mg2 Si10 2.752945 1_565
Mg2 Si6 2.804335 1_555
Mg2 Si6 2.804335 1_655
Mg2 Si9 2.871958 1_565
Mg2 Si9 2.871958 1_665
Mg2 Mg6 3.047352 1_555
Mg2 Si5 3.081658 1_555
Mg2 Si5 3.081658 1_655
Mg2 Si13 3.081949 1_655
Mg2 Si13 3.081949 1_555
Mg2 Mg5 3.101065 1_555
Mg3 Si8 2.810867 1_555
Mg3 Si8 2.810867 1_655
Mg3 Si7 2.861397 1_555
Mg3 Si4 2.917249 1_555
Mg3 Si4 2.917249 1_655
Mg3 Si11 3.113869 1_555
Mg4 Si11 2.777252 1_455
Mg4 Si11 2.777252 1_555
Mg4 Si1 2.779271 1_554
Mg4 Si8 2.790718 1_555
Mg4 Si12 2.883620 1_555
Mg5 Si10 2.692523 1_555
Mg5 Si2 2.880106 1_556
Mg5 Si1 2.903776 1_655
Mg5 Si1 2.903776 1_555
Mg5 Si3 2.908950 1_555
Mg5 Si0 2.951101 1_655
Mg5 Si0 2.951101 1_555
Mg5 Si6 3.032029 1_555
Mg5 Si6 3.032029 1_655
Mg6 Si10 2.646768 1_555
Mg6 Si5 2.799989 1_555
Mg6 Si5 2.799989 1_655
Mg6 Si4 2.813740 1_555
Mg6 Si4 2.813740 1_655
Mg6 Si13 3.148146 1_555
Mg6 Si13 3.148146 1_655
Mg7 Si8 2.848071 1_655
Mg7 Si8 2.848071 1_555
Mg7 Si7 3.085912 1_545
Mg7 Si12 3.144942 1_645
Mg7 Si12 3.144942 1_545
Mg7 Si4 3.208915 1_645
Mg7 Si4 3.208915 1_545
Si0 Si9 2.414507 1_555
Si0 Si1 2.474702 1_555
Si0 Si3 2.556361 1_555
Si0 Si3 2.556361 1_455
Si0 Si6 2.795344 1_545
Si1 Si6 2.385648 1_555
Si1 Si2 2.579187 1_456
Si1 Si2 2.579187 1_556
Si2 Si7 2.492473 1_555
Si2 Si3 2.537301 1_564
Si4 Si5 2.474286 1_555
Si4 Si8 2.830679 1_555
Si6 Si9 2.563575 1_565
Si10 Si9 2.660466 1_555
Si10 Si9 2.660466 1_655
Si10 Si13 2.749503 1_655
Si10 Si13 2.749503 1_555
Si11 Si3 2.452691 1_554
Si11 Si7 2.491703 1_545
Si12 Si4 2.366033 1_555
Si12 Si8 2.438509 1_565
Si12 Si7 2.536368 1_555
Si12 Si7 2.536368 1_455
Si13 Si6 2.417610 1_555
Si13 Si5 2.420146 1_555
Si13 Si9 2.562890 1_555
