# generated using pymatgen
data_Sr2P7Cl
_symmetry_space_group_name_H-M   'P 1'
_cell_length_a   9.63754147
_cell_length_b   9.63754147
_cell_length_c   22.58402818
_cell_angle_alpha   79.47176804
_cell_angle_beta   79.47176804
_cell_angle_gamma   79.80630153
_symmetry_Int_Tables_number   1
_chemical_formula_structural   Sr2P7Cl
_chemical_formula_sum   'Sr16 P56 Cl8'
_cell_volume   2005.12431642
_cell_formula_units_Z   8
loop_
 _symmetry_equiv_pos_site_id
 _symmetry_equiv_pos_as_xyz
  1  'x, y, z'
loop_
 _atom_site_type_symbol
 _atom_site_label
 _atom_site_symmetry_multiplicity
 _atom_site_fract_x
 _atom_site_fract_y
 _atom_site_fract_z
 _atom_site_occupancy
  Sr  Sr0  1  0.85812600  0.14187400  0.75000000  1
  Sr  Sr1  1  0.14187400  0.85812600  0.25000000  1
  Sr  Sr2  1  0.28061000  0.71939000  0.75000000  1
  Sr  Sr3  1  0.71939000  0.28061000  0.25000000  1
  Sr  Sr4  1  0.73606000  0.72037100  0.61211500  1
  Sr  Sr5  1  0.27962900  0.26394000  0.88788500  1
  Sr  Sr6  1  0.26394000  0.27962900  0.38788500  1
  Sr  Sr7  1  0.72037100  0.73606000  0.11211500  1
  Sr  Sr8  1  0.33388600  0.35518300  0.60619400  1
  Sr  Sr9  1  0.64481700  0.66611400  0.89380600  1
  Sr  Sr10  1  0.66611400  0.64481700  0.39380600  1
  Sr  Sr11  1  0.35518300  0.33388600  0.10619400  1
  Sr  Sr12  1  0.11285600  0.71237000  0.94659600  1
  Sr  Sr13  1  0.28763000  0.88714400  0.55340400  1
  Sr  Sr14  1  0.88714400  0.28763000  0.05340400  1
  Sr  Sr15  1  0.71237000  0.11285600  0.44659600  1
  P  P0  1  0.86187300  0.80436900  0.74779900  1
  P  P1  1  0.19563100  0.13812700  0.75220100  1
  P  P2  1  0.13812700  0.19563100  0.25220100  1
  P  P3  1  0.80436900  0.86187300  0.24779900  1
  P  P4  1  0.02106700  0.75316900  0.66869000  1
  P  P5  1  0.24683100  0.97893300  0.83131000  1
  P  P6  1  0.97893300  0.24683100  0.33131000  1
  P  P7  1  0.75316900  0.02106700  0.16869000  1
  P  P8  1  0.97239100  0.71509300  0.82658600  1
  P  P9  1  0.28490700  0.02760900  0.67341400  1
  P  P10  1  0.02760900  0.28490700  0.17341400  1
  P  P11  1  0.71509300  0.97239100  0.32658600  1
  P  P12  1  0.71904400  0.64442600  0.75530400  1
  P  P13  1  0.35557400  0.28095600  0.74469600  1
  P  P14  1  0.28095600  0.35557400  0.24469600  1
  P  P15  1  0.64442600  0.71904400  0.25530400  1
  P  P16  1  0.07616700  0.52868500  0.69943200  1
  P  P17  1  0.47131500  0.92383300  0.80056800  1
  P  P18  1  0.92383300  0.47131500  0.30056800  1
  P  P19  1  0.52868500  0.07616700  0.19943200  1
  P  P20  1  0.04578200  0.50205900  0.80683900  1
  P  P21  1  0.49794100  0.95421800  0.69316100  1
  P  P22  1  0.95421800  0.49794100  0.19316100  1
  P  P23  1  0.50205900  0.04578200  0.30683900  1
  P  P24  1  0.87983100  0.45761100  0.75857000  1
  P  P25  1  0.54238900  0.12016900  0.74143000  1
  P  P26  1  0.12016900  0.54238900  0.24143000  1
  P  P27  1  0.45761100  0.87983100  0.25857000  1
  P  P28  1  0.68033500  0.28670000  0.58229400  1
  P  P29  1  0.71330000  0.31966500  0.91770600  1
  P  P30  1  0.31966500  0.71330000  0.41770600  1
  P  P31  1  0.28670000  0.68033500  0.08229400  1
  P  P32  1  0.23406000  0.61810900  0.51008900  1
  P  P33  1  0.38189100  0.76594000  0.98991100  1
  P  P34  1  0.76594000  0.38189100  0.48991100  1
  P  P35  1  0.61810900  0.23406000  0.01008900  1
  P  P36  1  0.06437300  0.78442100  0.08718600  1
  P  P37  1  0.21557900  0.93562700  0.41281400  1
  P  P38  1  0.93562700  0.21557900  0.91281400  1
  P  P39  1  0.78442100  0.06437300  0.58718600  1
  P  P40  1  0.79940700  0.37571400  0.63707000  1
  P  P41  1  0.62428600  0.20059300  0.86293000  1
  P  P42  1  0.20059300  0.62428600  0.36293000  1
  P  P43  1  0.37571400  0.79940700  0.13707000  1
  P  P44  1  0.01013100  0.68370900  0.50709900  1
  P  P45  1  0.31629100  0.98986900  0.99290100  1
  P  P46  1  0.98986900  0.31629100  0.49290100  1
  P  P47  1  0.68370900  0.01013100  0.00709900  1
  P  P48  1  0.01198800  0.31086200  0.59143100  1
  P  P49  1  0.68913800  0.98801200  0.90856900  1
  P  P50  1  0.98801200  0.68913800  0.40856900  1
  P  P51  1  0.31086200  0.01198800  0.09143100  1
  P  P52  1  0.00011300  0.10660400  0.55748800  1
  P  P53  1  0.89339600  0.99988700  0.94251200  1
  P  P54  1  0.99988700  0.89339600  0.44251200  1
  P  P55  1  0.10660400  0.00011300  0.05748800  1
  Cl  Cl0  1  0.82544400  0.60378800  0.99700100  1
  Cl  Cl1  1  0.39621200  0.17455600  0.50299900  1
  Cl  Cl2  1  0.17455600  0.39621200  0.00299900  1
  Cl  Cl3  1  0.60378800  0.82544400  0.49700100  1
  Cl  Cl4  1  0.36819400  0.55955400  0.86539900  1
  Cl  Cl5  1  0.44044600  0.63180600  0.63460100  1
  Cl  Cl6  1  0.63180600  0.44044600  0.13460100  1
  Cl  Cl7  1  0.55955400  0.36819400  0.36539900  1
loop_
_geom_bond_atom_site_label_1
_geom_bond_atom_site_label_2
_geom_bond_distance
_geom_bond_site_symmetry_2
P0 P4 2.200413 1_655
P0 P8 2.202164 1_555
P0 P12 2.206790 1_555
P0 Sr0 3.255888 1_565
P1 P5 2.200413 1_545
P1 P9 2.202164 1_555
P1 P13 2.206790 1_555
P1 Sr0 3.255888 1_455
P2 P6 2.200413 1_455
P2 Sr1 3.255888 1_545
P3 P7 2.200413 1_565
P3 Sr1 3.255888 1_655
P4 Sr2 3.302524 1_555
P4 Sr4 3.318819 1_455
P4 Sr13 3.542185 1_555
P5 Sr2 3.302524 1_555
P5 Sr5 3.318819 1_565
P5 Sr12 3.542185 1_555
P6 Sr3 3.302524 1_555
P6 Sr6 3.318819 1_655
P6 Sr15 3.542185 1_555
P7 Sr3 3.302524 1_555
P7 Sr7 3.318819 1_545
P7 Sr14 3.542185 1_555
P8 Sr2 3.155444 1_655
P8 Sr12 3.237486 1_655
P8 Sr9 3.317878 1_555
P9 Sr2 3.155444 1_545
P9 Sr13 3.237486 1_545
P9 Sr8 3.317878 1_555
P10 P22 2.149376 1_455
P10 P2 2.202164 1_555
P10 Sr3 3.155444 1_455
P10 Sr14 3.237486 1_455
P10 Sr11 3.317878 1_555
P11 P23 2.149376 1_565
P11 P3 2.202164 1_555
P11 Sr3 3.155444 1_565
P11 Sr15 3.237486 1_565
P11 Sr10 3.317878 1_555
P12 P24 2.157308 1_555
P12 Sr9 3.115716 1_555
P12 Sr4 3.162863 1_555
P13 P25 2.157308 1_555
P13 Sr8 3.115716 1_555
P13 Sr5 3.162863 1_555
P14 P26 2.157308 1_555
P14 P2 2.206790 1_555
P14 Sr11 3.115716 1_555
P14 Sr6 3.162863 1_555
P15 P27 2.157308 1_555
P15 P3 2.206790 1_555
P15 Sr10 3.115716 1_555
P15 Sr7 3.162863 1_555
P16 P4 2.150304 1_555
P16 P24 2.243720 1_455
P16 P20 2.361162 1_555
P16 Sr8 3.362217 1_555
P16 Sr2 3.381645 1_555
P17 P5 2.150304 1_555
P17 P25 2.243720 1_565
P17 P21 2.361162 1_555
P17 Sr9 3.362217 1_555
P17 Sr2 3.381645 1_555
P18 P6 2.150304 1_555
P18 P26 2.243720 1_655
P18 P22 2.361162 1_555
P18 Sr10 3.362217 1_555
P18 Sr3 3.381645 1_555
P19 P7 2.150304 1_555
P19 P27 2.243720 1_545
P19 P23 2.361162 1_555
P19 Sr11 3.362217 1_555
P19 Sr3 3.381645 1_555
P20 P8 2.149376 1_455
P20 P24 2.231608 1_455
P20 Sr2 3.284876 1_555
P20 Sr5 3.440592 1_555
P21 P9 2.149376 1_565
P21 P25 2.231608 1_565
P21 Sr2 3.284876 1_555
P21 Sr4 3.440592 1_555
P22 P26 2.231608 1_655
P22 Sr3 3.284876 1_555
P22 Sr7 3.440592 1_555
P23 P27 2.231608 1_545
P23 Sr3 3.284876 1_555
P23 Sr6 3.440592 1_555
P24 Sr0 3.129848 1_555
P25 Sr0 3.129848 1_555
P26 Sr1 3.129848 1_555
P27 Sr1 3.129848 1_555
P28 P39 2.191527 1_555
P28 P34 2.194236 1_555
P28 P40 2.199598 1_555
P28 Sr8 3.250675 1_555
P29 P38 2.191527 1_555
P29 P35 2.194236 1_556
P29 P41 2.199598 1_555
P29 Sr9 3.250675 1_555
P30 P37 2.191527 1_555
P30 P32 2.194236 1_555
P30 P42 2.199598 1_555
P30 Sr10 3.250675 1_555
P31 P36 2.191527 1_555
P31 P33 2.194236 1_554
P31 P43 2.199598 1_555
P31 Sr11 3.250675 1_555
P32 P44 2.148601 1_555
P32 Sr13 3.087321 1_555
P32 Sr8 3.153997 1_555
P33 P45 2.148601 1_555
P33 Sr12 3.087321 1_555
P33 Sr9 3.153997 1_555
P34 P46 2.148601 1_555
P34 Sr15 3.087321 1_555
P34 Sr10 3.153997 1_555
P35 P47 2.148601 1_555
P35 Sr14 3.087321 1_555
P35 Sr11 3.153997 1_555
P36 P55 2.151013 1_565
P36 Sr12 3.306116 1_554
P36 Sr7 3.360740 1_455
P37 P54 2.151013 1_455
P37 Sr13 3.306116 1_555
P37 Sr6 3.360740 1_565
P38 P53 2.151013 1_545
P38 Sr14 3.306116 1_556
P38 Sr5 3.360740 1_655
P39 P52 2.151013 1_655
P39 Sr15 3.306116 1_555
P39 Sr4 3.360740 1_545
P40 P48 2.158914 1_655
P40 Sr0 3.143143 1_555
P40 Sr4 3.232263 1_555
P41 P49 2.158914 1_545
P41 Sr0 3.143143 1_555
P41 Sr5 3.232263 1_555
P42 P50 2.158914 1_455
P42 Sr1 3.143143 1_555
P42 Sr6 3.232263 1_555
P43 P51 2.158914 1_565
P43 Sr1 3.143143 1_555
P43 Sr7 3.232263 1_555
P44 P54 2.264081 1_455
P44 P50 2.264192 1_455
P44 Sr4 3.226944 1_455
P45 P55 2.264081 1_566
P45 P51 2.264192 1_566
P45 Sr5 3.226944 1_565
P46 P52 2.264081 1_655
P46 P48 2.264192 1_655
P46 Sr6 3.226944 1_655
P47 P53 2.264081 1_544
P47 P49 2.264192 1_544
P47 Sr7 3.226944 1_545
P48 P52 2.266971 1_555
P48 Sr8 3.288918 1_555
P49 P53 2.266971 1_555
P49 Sr9 3.288918 1_555
P50 P54 2.266971 1_555
P50 Sr10 3.288918 1_555
P51 P55 2.266971 1_555
P51 Sr11 3.288918 1_555
P52 Sr13 3.172324 1_545
P53 Sr12 3.172324 1_655
P54 Sr15 3.172324 1_565
P55 Sr14 3.172324 1_455
Cl0 Sr7 3.033359 1_556
Cl0 Sr9 3.069790 1_555
Cl0 Sr14 3.078542 1_556
Cl0 Sr12 3.082513 1_655
Cl1 Sr6 3.033359 1_555
Cl1 Sr8 3.069790 1_555
Cl1 Sr15 3.078542 1_555
Cl1 Sr13 3.082513 1_545
Cl2 Sr5 3.033359 1_554
Cl2 Sr11 3.069790 1_555
Cl2 Sr12 3.078542 1_554
Cl2 Sr14 3.082513 1_455
Cl3 Sr4 3.033359 1_555
Cl3 Sr10 3.069790 1_555
Cl3 Sr13 3.078542 1_555
Cl3 Sr15 3.082513 1_565
Cl4 Sr2 2.958738 1_555
Cl4 Sr5 3.045784 1_555
Cl4 Sr12 3.105231 1_555
Cl4 Sr9 3.226222 1_555
Cl5 Sr2 2.958738 1_555
Cl5 Sr4 3.045784 1_555
Cl5 Sr13 3.105231 1_555
Cl5 Sr8 3.226222 1_555
Cl6 Sr3 2.958738 1_555
Cl6 Sr7 3.045784 1_555
Cl6 Sr14 3.105231 1_555
Cl6 Sr11 3.226222 1_555
Cl7 Sr3 2.958738 1_555
Cl7 Sr6 3.045784 1_555
Cl7 Sr15 3.105231 1_555
Cl7 Sr10 3.226222 1_555
