# generated using pymatgen
data_Zn2SnWO6
_symmetry_space_group_name_H-M   'P 1'
_cell_length_a   5.49832800
_cell_length_b   5.53685000
_cell_length_c   9.76471442
_cell_angle_alpha   58.85273591
_cell_angle_beta   90.00000000
_cell_angle_gamma   90.00000000
_symmetry_Int_Tables_number   1
_chemical_formula_structural   Zn2SnWO6
_chemical_formula_sum   'Zn4 Sn2 W2 O12'
_cell_volume   254.41685684
_cell_formula_units_Z   2
loop_
 _symmetry_equiv_pos_site_id
 _symmetry_equiv_pos_as_xyz
  1  'x, y, z'
loop_
 _atom_site_type_symbol
 _atom_site_label
 _atom_site_symmetry_multiplicity
 _atom_site_fract_x
 _atom_site_fract_y
 _atom_site_fract_z
 _atom_site_occupancy
  Zn  Zn0  1  0.48336200  0.20507400  0.75985500  1
  Zn  Zn1  1  0.98336200  0.79492600  0.74014500  1
  Zn  Zn2  1  0.51663800  0.79492600  0.24014500  1
  Zn  Zn3  1  0.01663800  0.20507400  0.25985500  1
  Sn  Sn0  1  0.50000000  0.00000000  0.50000000  1
  Sn  Sn1  1  0.00000000  0.00000000  0.00000000  1
  W  W0  1  0.50000000  0.50000000  0.00000000  1
  W  W1  1  0.00000000  0.50000000  0.50000000  1
  O  O0  1  0.19553400  0.50114100  0.90327100  1
  O  O1  1  0.69553400  0.49885900  0.59672900  1
  O  O2  1  0.80446600  0.49885900  0.09672900  1
  O  O3  1  0.30446600  0.50114100  0.40327100  1
  O  O4  1  0.37423000  0.75567800  0.06259500  1
  O  O5  1  0.87423000  0.24432200  0.43740500  1
  O  O6  1  0.62577000  0.24432200  0.93740500  1
  O  O7  1  0.12577000  0.75567800  0.56259500  1
  O  O8  1  0.13129000  0.16667100  0.71013200  1
  O  O9  1  0.63129000  0.83332900  0.78986800  1
  O  O10  1  0.36871000  0.16667100  0.21013200  1
  O  O11  1  0.86871000  0.83332900  0.28986800  1
loop_
_geom_bond_atom_site_label_1
_geom_bond_atom_site_label_2
_geom_bond_distance
_geom_bond_site_symmetry_2
O0 W0 1.920537 1_556
O0 Zn1 1.965651 1_455
O0 Sn1 2.652546 1_556
O1 W1 1.920537 1_655
O1 Zn0 1.965651 1_555
O1 Sn0 2.652546 1_565
O2 W0 1.920537 1_555
O2 Zn3 1.965651 1_655
O2 Sn1 2.652546 1_665
O3 W1 1.920537 1_555
O3 Zn2 1.965651 1_555
O3 Sn0 2.652546 1_555
O4 W0 1.936744 1_555
O4 Zn2 2.013919 1_555
O4 Sn1 2.362650 1_565
O5 W1 1.936744 1_655
O5 Zn3 2.013919 1_655
O5 Sn0 2.362650 1_555
O6 W0 1.936744 1_556
O6 Zn0 2.013919 1_555
O6 Sn1 2.362650 1_656
O7 W1 1.936744 1_555
O7 Zn1 2.013919 1_455
O7 Sn0 2.362650 1_565
O8 Zn0 2.033495 1_555
O8 W1 2.054269 1_555
O8 Zn1 2.088062 1_445
O8 Sn1 2.584998 1_556
O9 Zn1 2.033495 1_555
O9 W0 2.054269 1_556
O9 Zn0 2.088062 1_565
O9 Sn0 2.584998 1_565
O10 Zn3 2.033495 1_555
O10 W0 2.054269 1_555
O10 Zn2 2.088062 1_545
O10 Sn0 2.584998 1_555
O11 Zn2 2.033495 1_555
O11 W1 2.054269 1_655
O11 Zn3 2.088062 1_665
O11 Sn1 2.584998 1_665
