# generated using pymatgen
data_CeBeAl3
_symmetry_space_group_name_H-M   'P 1'
_cell_length_a   6.07822390
_cell_length_b   6.07822390
_cell_length_c   6.07822390
_cell_angle_alpha   140.04840783
_cell_angle_beta   140.04840783
_cell_angle_gamma   57.77980561
_symmetry_Int_Tables_number   1
_chemical_formula_structural   CeBeAl3
_chemical_formula_sum   'Ce1 Be1 Al3'
_cell_volume   91.78367762
_cell_formula_units_Z   1
loop_
 _symmetry_equiv_pos_site_id
 _symmetry_equiv_pos_as_xyz
  1  'x, y, z'
loop_
 _atom_site_type_symbol
 _atom_site_label
 _atom_site_symmetry_multiplicity
 _atom_site_fract_x
 _atom_site_fract_y
 _atom_site_fract_z
 _atom_site_occupancy
  Ce  Ce0  1  0.99810900  0.99810900  0.00000000  1
  Be  Be0  1  0.38113000  0.38113000  0.00000000  1
  Al  Al0  1  0.75985400  0.25985400  0.50000000  1
  Al  Al1  1  0.25985400  0.75985400  0.50000000  1
  Al  Al2  1  0.60105200  0.60105200  0.00000000  1
loop_
_geom_bond_atom_site_label_1
_geom_bond_atom_site_label_2
_geom_bond_distance
_geom_bond_site_symmetry_2
Be0 Ce0 3.189608 1_556
Be0 Ce0 3.189608 1_545
Be0 Ce0 3.189608 1_444
Be0 Ce0 3.189608 1_455
Al0 Be0 2.444971 1_555
Al0 Be0 2.444971 1_656
Al0 Al2 2.677413 1_556
Al0 Al2 2.677413 1_545
Al0 Ce0 3.277561 1_556
Al0 Ce0 3.277561 1_545
Al0 Ce0 3.474615 1_445
Al0 Ce0 3.474615 1_546
Al1 Be0 2.444971 1_555
Al1 Be0 2.444971 1_566
Al1 Al2 2.677413 1_556
Al1 Al2 2.677413 1_455
Al1 Ce0 3.277561 1_556
Al1 Ce0 3.277561 1_455
Al1 Ce0 3.474615 1_445
Al1 Ce0 3.474615 1_456
Al2 Be0 2.340756 1_555
Al2 Ce0 3.134311 1_556
Al2 Ce0 3.134311 1_545
Al2 Ce0 3.134311 1_444
Al2 Ce0 3.134311 1_455
