# generated using pymatgen
data_CoHgH18Br4N6Cl
_symmetry_space_group_name_H-M   'P 1'
_cell_length_a   8.07059400
_cell_length_b   12.29410800
_cell_length_c   17.66869332
_cell_angle_alpha   66.80571814
_cell_angle_beta   90.00000000
_cell_angle_gamma   90.00000000
_symmetry_Int_Tables_number   1
_chemical_formula_structural   CoHgH18Br4N6Cl
_chemical_formula_sum   'Co4 Hg4 H72 Br16 N24 Cl4'
_cell_volume   1611.40606995
_cell_formula_units_Z   4
loop_
 _symmetry_equiv_pos_site_id
 _symmetry_equiv_pos_as_xyz
  1  'x, y, z'
loop_
 _atom_site_type_symbol
 _atom_site_label
 _atom_site_symmetry_multiplicity
 _atom_site_fract_x
 _atom_site_fract_y
 _atom_site_fract_z
 _atom_site_occupancy
  Co  Co0  1  0.24477300  0.73888400  0.50660400  1
  Co  Co1  1  0.74477300  0.26111600  0.99339600  1
  Co  Co2  1  0.75522700  0.26111600  0.49339600  1
  Co  Co3  1  0.25522700  0.73888400  0.00660400  1
  Hg  Hg0  1  0.75200500  0.79093200  0.25256500  1
  Hg  Hg1  1  0.25200500  0.20906800  0.24743500  1
  Hg  Hg2  1  0.24799500  0.20906800  0.74743500  1
  Hg  Hg3  1  0.74799500  0.79093200  0.75256500  1
  H  H0  1  0.17411700  0.81258700  0.62025200  1
  H  H1  1  0.67411700  0.18741300  0.87974800  1
  H  H2  1  0.82588300  0.18741300  0.37974800  1
  H  H3  1  0.32588300  0.81258700  0.12025200  1
  H  H4  1  0.27416100  0.91795100  0.54425100  1
  H  H5  1  0.77416100  0.08204900  0.95574900  1
  H  H6  1  0.72583900  0.08204900  0.45574900  1
  H  H7  1  0.22583900  0.91795100  0.04425100  1
  H  H8  1  0.37574000  0.80527800  0.61381600  1
  H  H9  1  0.87574000  0.19472200  0.88618400  1
  H  H10  1  0.62426000  0.19472200  0.38618400  1
  H  H11  1  0.12426000  0.80527800  0.11381600  1
  H  H12  1  0.38299600  0.53627700  0.57542000  1
  H  H13  1  0.88299600  0.46372300  0.92458000  1
  H  H14  1  0.61700400  0.46372300  0.42458000  1
  H  H15  1  0.11700400  0.53627700  0.07542000  1
  H  H16  1  0.41867500  0.61199100  0.63309700  1
  H  H17  1  0.91867500  0.38800900  0.86690300  1
  H  H18  1  0.58132500  0.38800900  0.36690300  1
  H  H19  1  0.08132500  0.61199100  0.13309700  1
  H  H20  1  0.52883400  0.63797200  0.54877100  1
  H  H21  1  0.02883400  0.36202800  0.95122900  1
  H  H22  1  0.47116600  0.36202800  0.45122900  1
  H  H23  1  0.97116600  0.63797200  0.04877100  1
  H  H24  1  0.96511100  0.84784400  0.46989400  1
  H  H25  1  0.46511100  0.15215600  0.03010600  1
  H  H26  1  0.03488900  0.15215600  0.53010600  1
  H  H27  1  0.53488900  0.84784400  0.96989400  1
  H  H28  1  0.05217900  0.85278800  0.38423400  1
  H  H29  1  0.55217900  0.14721200  0.11576600  1
  H  H30  1  0.94782100  0.14721200  0.61576600  1
  H  H31  1  0.44782100  0.85278800  0.88423400  1
  H  H32  1  0.11692600  0.94192300  0.42705500  1
  H  H33  1  0.61692600  0.05807700  0.07294500  1
  H  H34  1  0.88307400  0.05807700  0.57294500  1
  H  H35  1  0.38307400  0.94192300  0.92705500  1
  H  H36  1  0.40579100  0.92632500  0.42135900  1
  H  H37  1  0.90579100  0.07367500  0.07864100  1
  H  H38  1  0.59420900  0.07367500  0.57864100  1
  H  H39  1  0.09420900  0.92632500  0.92135900  1
  H  H40  1  0.42841000  0.83230300  0.37733500  1
  H  H41  1  0.92841000  0.16769700  0.12266500  1
  H  H42  1  0.57159000  0.16769700  0.62266500  1
  H  H43  1  0.07159000  0.83230300  0.87733500  1
  H  H44  1  0.53965500  0.81664600  0.45869300  1
  H  H45  1  0.03965500  0.18335400  0.04130700  1
  H  H46  1  0.46034500  0.18335400  0.54130700  1
  H  H47  1  0.96034500  0.81664600  0.95869300  1
  H  H48  1  0.05294300  0.65167300  0.63303600  1
  H  H49  1  0.55294300  0.34832700  0.86696400  1
  H  H50  1  0.94705700  0.34832700  0.36696400  1
  H  H51  1  0.44705700  0.65167300  0.13303600  1
  H  H52  1  0.09112700  0.55006200  0.59688700  1
  H  H53  1  0.59112700  0.44993800  0.90311300  1
  H  H54  1  0.90887300  0.44993800  0.40311300  1
  H  H55  1  0.40887300  0.55006200  0.09688700  1
  H  H56  1  0.95417500  0.65332500  0.54968800  1
  H  H57  1  0.45417500  0.34667500  0.95031200  1
  H  H58  1  0.04582500  0.34667500  0.45031200  1
  H  H59  1  0.54582500  0.65332500  0.04968800  1
  H  H60  1  0.26309400  0.69682500  0.37525700  1
  H  H61  1  0.76309400  0.30317500  0.12474300  1
  H  H62  1  0.73690600  0.30317500  0.62474300  1
  H  H63  1  0.23690600  0.69682500  0.87525700  1
  H  H64  1  0.09111500  0.64112400  0.42571700  1
  H  H65  1  0.59111500  0.35887600  0.07428300  1
  H  H66  1  0.90888500  0.35887600  0.57428300  1
  H  H67  1  0.40888500  0.64112400  0.92571700  1
  H  H68  1  0.26640000  0.57045200  0.45696800  1
  H  H69  1  0.76640000  0.42954800  0.04303200  1
  H  H70  1  0.73360000  0.42954800  0.54303200  1
  H  H71  1  0.23360000  0.57045200  0.95696800  1
  Br  Br0  1  0.75908400  0.88287400  0.06470300  1
  Br  Br1  1  0.25908400  0.11712600  0.43529700  1
  Br  Br2  1  0.24091600  0.11712600  0.93529700  1
  Br  Br3  1  0.74091600  0.88287400  0.56470300  1
  Br  Br4  1  0.75580200  0.98810000  0.27359600  1
  Br  Br5  1  0.25580200  0.01190000  0.22640400  1
  Br  Br6  1  0.24419800  0.01190000  0.72640400  1
  Br  Br7  1  0.74419800  0.98810000  0.77359600  1
  Br  Br8  1  0.46377500  0.68045000  0.26453400  1
  Br  Br9  1  0.96377500  0.31955000  0.23546600  1
  Br  Br10  1  0.53622500  0.31955000  0.73546600  1
  Br  Br11  1  0.03622500  0.68045000  0.76453400  1
  Br  Br12  1  0.00241700  0.64942000  0.26151200  1
  Br  Br13  1  0.50241700  0.35058000  0.23848800  1
  Br  Br14  1  0.99758300  0.35058000  0.73848800  1
  Br  Br15  1  0.49758300  0.64942000  0.76151200  1
  N  N0  1  0.26966800  0.82764800  0.57865700  1
  N  N1  1  0.76966800  0.17235200  0.92134300  1
  N  N2  1  0.73033200  0.17235200  0.42134300  1
  N  N3  1  0.23033200  0.82764800  0.07865700  1
  N  N4  1  0.41044100  0.61971300  0.57291700  1
  N  N5  1  0.91044100  0.38028700  0.92708300  1
  N  N6  1  0.58955900  0.38028700  0.42708300  1
  N  N7  1  0.08955900  0.61971300  0.07291700  1
  N  N8  1  0.07744900  0.85635500  0.44011700  1
  N  N9  1  0.57744900  0.14364500  0.05988300  1
  N  N10  1  0.92255100  0.14364500  0.55988300  1
  N  N11  1  0.42255100  0.85635500  0.94011700  1
  N  N12  1  0.42281300  0.83783700  0.43375700  1
  N  N13  1  0.92281300  0.16216300  0.06624300  1
  N  N14  1  0.57718700  0.16216300  0.56624300  1
  N  N15  1  0.07718700  0.83783700  0.93375700  1
  N  N16  1  0.06824300  0.63919500  0.57892800  1
  N  N17  1  0.56824300  0.36080500  0.92107200  1
  N  N18  1  0.93175700  0.36080500  0.42107200  1
  N  N19  1  0.43175700  0.63919500  0.07892800  1
  N  N20  1  0.21501300  0.65427100  0.43357700  1
  N  N21  1  0.71501300  0.34572900  0.06642300  1
  N  N22  1  0.78498700  0.34572900  0.56642300  1
  N  N23  1  0.28498700  0.65427100  0.93357700  1
  Cl  Cl0  1  0.75410700  0.63139000  0.45770500  1
  Cl  Cl1  1  0.25410700  0.36861000  0.04229500  1
  Cl  Cl2  1  0.24589300  0.36861000  0.54229500  1
  Cl  Cl3  1  0.74589300  0.63139000  0.95770500  1
loop_
_geom_bond_atom_site_label_1
_geom_bond_atom_site_label_2
_geom_bond_distance
_geom_bond_site_symmetry_2
Co0 N20 1.965173 1_555
Co0 N16 1.982711 1_555
Co0 N0 1.986536 1_555
Co0 N8 1.988200 1_555
Co0 N4 1.988673 1_555
Co0 N12 1.991952 1_555
Co1 N21 1.965173 1_556
Co1 N17 1.982711 1_555
Co1 N1 1.986536 1_555
Co1 N9 1.988200 1_556
Co1 N5 1.988673 1_555
Co1 N13 1.991952 1_556
Co2 N22 1.965173 1_555
Co2 N18 1.982711 1_555
Co2 N2 1.986536 1_555
Co2 N10 1.988200 1_555
Co2 N6 1.988673 1_555
Co2 N14 1.991952 1_555
Co3 N23 1.965173 1_554
Co3 N19 1.982711 1_555
Co3 N3 1.986536 1_555
Co3 N11 1.988200 1_554
Co3 N7 1.988673 1_555
Co3 N15 1.991952 1_554
H0 N0 1.030482 1_555
H1 N1 1.030482 1_555
H2 N2 1.030482 1_555
H3 N3 1.030482 1_555
H4 N0 1.035270 1_555
H5 N1 1.035270 1_555
H6 N2 1.035270 1_555
H7 N3 1.035270 1_555
H8 N0 1.029472 1_555
H9 N1 1.029472 1_555
H10 N2 1.029472 1_555
H11 N3 1.029472 1_555
H12 N4 1.033194 1_555
H13 N5 1.033194 1_555
H14 N6 1.033194 1_555
H15 N7 1.033194 1_555
H16 N4 1.031759 1_555
H17 N5 1.031759 1_555
H18 N6 1.031759 1_555
H19 N7 1.031759 1_555
H20 N4 1.034383 1_555
H21 N5 1.034383 1_455
H22 N6 1.034383 1_555
H23 N7 1.034383 1_655
H24 N8 1.032654 1_655
H25 N9 1.032654 1_555
H26 N10 1.032654 1_455
H27 N11 1.032654 1_555
H28 N8 1.025935 1_555
H29 N9 1.025935 1_555
H30 N10 1.025935 1_555
H31 N11 1.025935 1_555
H32 N8 1.034503 1_555
H33 N9 1.034503 1_555
H34 N10 1.034503 1_555
H35 N11 1.034503 1_555
H36 N12 1.030839 1_555
H37 N13 1.030839 1_555
H38 N14 1.030839 1_555
H39 N15 1.030839 1_555
H40 N12 1.026601 1_555
H41 N13 1.026601 1_555
H42 N14 1.026601 1_555
H43 N15 1.026601 1_555
H44 N12 1.029948 1_555
H45 N13 1.029948 1_455
H46 N14 1.029948 1_555
H47 N15 1.029948 1_655
H48 N16 1.033573 1_555
H49 N17 1.033573 1_555
H50 N18 1.033573 1_555
H51 N19 1.033573 1_555
H52 N16 1.030390 1_555
H53 N17 1.030390 1_555
H54 N18 1.030390 1_555
H55 N19 1.030390 1_555
H56 N16 1.036287 1_655
H57 N17 1.036287 1_555
H58 N18 1.036287 1_455
H59 N19 1.036287 1_555
H60 N20 1.030262 1_555
H61 N21 1.030262 1_555
H62 N22 1.030262 1_555
H63 N23 1.030262 1_555
H64 N20 1.030996 1_555
H65 N21 1.030996 1_555
H66 N22 1.030996 1_555
H67 N23 1.030996 1_555
H68 N20 1.034032 1_555
H69 N21 1.034032 1_555
H70 N22 1.034032 1_555
H71 N23 1.034032 1_555
Br0 Hg0 3.056656 1_555
Br1 Hg1 3.056656 1_555
Br2 Hg2 3.056656 1_555
Br3 Hg3 3.056656 1_555
Br4 Hg0 2.593131 1_555
Br5 Hg1 2.593131 1_555
Br6 Hg2 2.593131 1_555
Br7 Hg3 2.593131 1_555
Br8 Hg0 2.659798 1_555
Br9 Hg1 2.659798 1_655
Br10 Hg2 2.659798 1_555
Br11 Hg3 2.659798 1_455
Br12 Hg0 2.630488 1_455
Br13 Hg1 2.630488 1_555
Br14 Hg2 2.630488 1_655
Br15 Hg3 2.630488 1_555
