# generated using pymatgen
data_NdCu5
_symmetry_space_group_name_H-M   'P 1'
_cell_length_a   5.06720535
_cell_length_b   5.06720556
_cell_length_c   4.06838753
_cell_angle_alpha   90.00000000
_cell_angle_beta   90.00000000
_cell_angle_gamma   119.99999859
_symmetry_Int_Tables_number   1
_chemical_formula_structural   NdCu5
_chemical_formula_sum   'Nd1 Cu5'
_cell_volume   90.46695632
_cell_formula_units_Z   1
loop_
 _symmetry_equiv_pos_site_id
 _symmetry_equiv_pos_as_xyz
  1  'x, y, z'
loop_
 _atom_site_type_symbol
 _atom_site_label
 _atom_site_symmetry_multiplicity
 _atom_site_fract_x
 _atom_site_fract_y
 _atom_site_fract_z
 _atom_site_occupancy
  Nd  Nd0  1  -0.00000000  -0.00000000  -0.00000000  1
  Cu  Cu0  1  0.33333300  0.66666700  0.00000000  1
  Cu  Cu1  1  0.66666700  0.33333300  0.00000000  1
  Cu  Cu2  1  0.50000000  -0.00000000  0.50000000  1
  Cu  Cu3  1  0.50000000  0.50000000  0.50000000  1
  Cu  Cu4  1  -0.00000000  0.50000000  0.50000000  1
loop_
_geom_bond_atom_site_label_1
_geom_bond_atom_site_label_2
_geom_bond_distance
_geom_bond_site_symmetry_2
Cu0 Cu4 2.505525 1_555
Cu0 Cu4 2.505525 1_554
Cu0 Cu2 2.505525 1_565
Cu0 Cu2 2.505525 1_564
Cu0 Cu3 2.505527 1_555
Cu0 Cu3 2.505527 1_554
Cu0 Nd0 2.925549 1_565
Cu0 Cu1 2.925549 1_455
Cu0 Cu1 2.925550 1_565
Cu0 Nd0 2.925554 1_665
Cu0 Nd0 2.925554 1_555
Cu0 Cu1 2.925558 1_555
Cu1 Cu4 2.505525 1_655
Cu1 Cu4 2.505525 1_654
Cu1 Cu2 2.505525 1_555
Cu1 Cu2 2.505525 1_554
Cu1 Cu3 2.505527 1_555
Cu1 Cu3 2.505527 1_554
Cu1 Nd0 2.925549 1_655
Cu1 Nd0 2.925554 1_555
Cu1 Nd0 2.925554 1_665
Cu2 Cu3 2.533603 1_555
Cu2 Cu3 2.533603 1_545
Cu2 Cu4 2.533603 1_655
Cu2 Cu4 2.533603 1_545
Cu2 Nd0 3.249167 1_655
Cu2 Nd0 3.249167 1_555
Cu2 Nd0 3.249167 1_556
Cu2 Nd0 3.249167 1_656
Cu3 Cu4 2.533603 1_655
Cu3 Cu4 2.533603 1_555
Cu3 Nd0 3.249167 1_665
Cu3 Nd0 3.249167 1_666
Cu3 Nd0 3.249167 1_555
Cu3 Nd0 3.249167 1_556
Cu4 Nd0 3.249167 1_555
Cu4 Nd0 3.249167 1_556
Cu4 Nd0 3.249167 1_565
Cu4 Nd0 3.249167 1_566
