# generated using pymatgen
data_Yb5CuSn3
_symmetry_space_group_name_H-M   'P 1'
_cell_length_a   9.39227500
_cell_length_b   9.39227547
_cell_length_c   6.54214100
_cell_angle_alpha   90.00000000
_cell_angle_beta   90.00000000
_cell_angle_gamma   120.00000188
_symmetry_Int_Tables_number   1
_chemical_formula_structural   Yb5CuSn3
_chemical_formula_sum   'Yb10 Cu2 Sn6'
_cell_volume   499.79527387
_cell_formula_units_Z   2
loop_
 _symmetry_equiv_pos_site_id
 _symmetry_equiv_pos_as_xyz
  1  'x, y, z'
loop_
 _atom_site_type_symbol
 _atom_site_label
 _atom_site_symmetry_multiplicity
 _atom_site_fract_x
 _atom_site_fract_y
 _atom_site_fract_z
 _atom_site_occupancy
  Yb  Yb0  1  0.74413000  0.74413000  0.25000000  1
  Yb  Yb1  1  0.25587000  0.00000000  0.25000000  1
  Yb  Yb2  1  0.00000000  0.25587000  0.25000000  1
  Yb  Yb3  1  0.25587000  0.25587000  0.75000000  1
  Yb  Yb4  1  0.74413000  0.00000000  0.75000000  1
  Yb  Yb5  1  0.00000000  0.74413000  0.75000000  1
  Yb  Yb6  1  0.66666700  0.33333300  0.50000000  1
  Yb  Yb7  1  0.33333300  0.66666700  0.50000000  1
  Yb  Yb8  1  0.33333300  0.66666700  0.00000000  1
  Yb  Yb9  1  0.66666700  0.33333300  0.00000000  1
  Cu  Cu0  1  0.00000000  0.00000000  0.50000000  1
  Cu  Cu1  1  0.00000000  0.00000000  0.00000000  1
  Sn  Sn0  1  0.40323200  0.40323200  0.25000000  1
  Sn  Sn1  1  0.59676800  0.00000000  0.25000000  1
  Sn  Sn2  1  0.00000000  0.59676800  0.25000000  1
  Sn  Sn3  1  0.59676800  0.59676800  0.75000000  1
  Sn  Sn4  1  0.40323200  0.00000000  0.75000000  1
  Sn  Sn5  1  0.00000000  0.40323200  0.75000000  1
loop_
_geom_bond_atom_site_label_1
_geom_bond_atom_site_label_2
_geom_bond_distance
_geom_bond_site_symmetry_2
Cu0 Yb3 2.906949 1_555
Cu0 Yb0 2.906949 1_445
Cu0 Yb1 2.906949 1_555
Cu0 Yb4 2.906949 1_455
Cu0 Yb2 2.906949 1_555
Cu0 Yb5 2.906949 1_545
Cu1 Yb3 2.906949 1_554
Cu1 Yb0 2.906949 1_445
Cu1 Yb1 2.906949 1_555
Cu1 Yb4 2.906949 1_454
Cu1 Yb2 2.906949 1_555
Cu1 Yb5 2.906949 1_544
Sn0 Yb0 3.201808 1_555
Sn0 Yb9 3.294281 1_555
Sn0 Yb6 3.294281 1_555
Sn0 Yb7 3.294281 1_555
Sn0 Yb8 3.294281 1_555
Sn0 Yb2 3.319216 1_555
Sn0 Yb1 3.319216 1_555
Sn0 Yb3 3.551836 1_554
Sn0 Yb3 3.551836 1_555
Sn1 Yb1 3.201808 1_555
Sn1 Yb9 3.294273 1_555
Sn1 Yb6 3.294273 1_555
Sn1 Yb8 3.294276 1_545
Sn1 Yb7 3.294276 1_545
Sn1 Yb2 3.319216 1_655
Sn1 Yb0 3.319216 1_545
Sn1 Yb4 3.551836 1_555
Sn1 Yb4 3.551836 1_554
Sn2 Yb2 3.201808 1_555
Sn2 Yb7 3.294273 1_555
Sn2 Yb8 3.294273 1_555
Sn2 Yb6 3.294276 1_455
Sn2 Yb9 3.294276 1_455
Sn2 Yb1 3.319216 1_565
Sn2 Yb0 3.319216 1_455
Sn2 Yb5 3.551836 1_555
Sn2 Yb5 3.551836 1_554
Sn3 Yb3 3.201808 1_555
Sn3 Yb8 3.294281 1_556
Sn3 Yb7 3.294281 1_555
Sn3 Yb6 3.294281 1_555
Sn3 Yb9 3.294281 1_556
Sn3 Yb5 3.319216 1_655
Sn3 Yb4 3.319216 1_565
Sn3 Yb0 3.551836 1_555
Sn3 Yb0 3.551836 1_556
Sn4 Yb4 3.201808 1_555
Sn4 Yb7 3.294273 1_545
Sn4 Yb8 3.294273 1_546
Sn4 Yb6 3.294276 1_555
Sn4 Yb9 3.294276 1_556
Sn4 Yb5 3.319216 1_545
Sn4 Yb3 3.319216 1_555
Sn4 Yb1 3.551836 1_556
Sn4 Yb1 3.551836 1_555
Sn5 Yb5 3.201808 1_555
Sn5 Yb6 3.294273 1_455
Sn5 Yb9 3.294273 1_456
Sn5 Yb7 3.294276 1_555
Sn5 Yb8 3.294276 1_556
Sn5 Yb4 3.319216 1_455
Sn5 Yb3 3.319216 1_555
Sn5 Yb2 3.551836 1_556
Sn5 Yb2 3.551836 1_555
