# generated using pymatgen
data_Er12Co5Bi
_symmetry_space_group_name_H-M   'P 1'
_cell_length_a   8.20787677
_cell_length_b   8.20788558
_cell_length_c   8.20788411
_cell_angle_alpha   110.43303704
_cell_angle_beta   111.11454225
_cell_angle_gamma   106.89728475
_symmetry_Int_Tables_number   1
_chemical_formula_structural   Er12Co5Bi
_chemical_formula_sum   'Er12 Co5 Bi1'
_cell_volume   425.01105910
_cell_formula_units_Z   1
loop_
 _symmetry_equiv_pos_site_id
 _symmetry_equiv_pos_as_xyz
  1  'x, y, z'
loop_
 _atom_site_type_symbol
 _atom_site_label
 _atom_site_symmetry_multiplicity
 _atom_site_fract_x
 _atom_site_fract_y
 _atom_site_fract_z
 _atom_site_occupancy
  Er  Er0  1  0.28555207  0.18170289  0.46724258  1
  Er  Er1  1  0.71446164  0.81830565  0.53276031  1
  Er  Er2  1  0.28554968  0.81830672  0.10384949  1
  Er  Er3  1  0.71446216  0.18169977  0.89615509  1
  Er  Er4  1  0.61824510  0.31005085  0.30819338  1
  Er  Er5  1  0.38175756  0.68994646  0.69181154  1
  Er  Er6  1  0.00185661  0.31005182  0.69180350  1
  Er  Er7  1  0.99813804  0.68994945  0.30818871  1
  Er  Er8  1  0.21027737  0.40841493  0.19813841  1
  Er  Er9  1  0.78972412  0.59157716  0.80185800  1
  Er  Er10  1  0.21027940  0.01214238  0.80186646  1
  Er  Er11  1  0.78972576  0.98787133  0.19814814  1
  Co  Co0  1  0.99997030  0.38042050  0.38043489  1
  Co  Co1  1  0.99997066  0.61953033  0.61954542  1
  Co  Co2  1  0.38994895  0.88994408  0.50000152  1
  Co  Co3  1  0.61007963  0.11008425  0.49999847  1
  Co  Co4  1  -0.00000305  -0.00000265  0.00000430  1
  Bi  Bi0  1  0.50000199  0.50000208  -0.00000022  1
loop_
_geom_bond_atom_site_label_1
_geom_bond_atom_site_label_2
_geom_bond_distance
_geom_bond_site_symmetry_2
Er0 Er8 3.358279 1_555
Er0 Er11 3.358332 1_445
Er0 Er2 3.403113 1_545
Er0 Er4 3.482392 1_555
Er0 Er7 3.482483 1_445
Er0 Er5 3.618147 1_555
Er0 Er6 3.618226 1_555
Er0 Er9 3.640450 1_555
Er0 Er10 3.640584 1_555
Er1 Er10 3.358274 1_665
Er1 Er9 3.358339 1_555
Er1 Er3 3.403120 1_565
Er1 Er6 3.482425 1_665
Er1 Er5 3.482499 1_555
Er1 Er7 3.618158 1_555
Er1 Er4 3.618203 1_555
Er1 Er11 3.640495 1_555
Er1 Er8 3.640555 1_555
Er2 Er9 3.358325 1_454
Er2 Er4 3.482406 1_565
Er2 Er7 3.482464 1_455
Er2 Er5 3.618159 1_554
Er2 Er6 3.618216 1_554
Er2 Er8 3.640552 1_555
Er3 Er8 3.358257 1_656
Er3 Er6 3.482429 1_655
Er3 Er5 3.482485 1_545
Er3 Er7 3.618162 1_556
Er3 Er4 3.618208 1_556
Er3 Er9 3.640482 1_555
Er10 Er2 3.358291 1_546
Er10 Er3 3.640563 1_555
Er11 Er3 3.358310 1_564
Er11 Er2 3.640482 1_555
Co0 Co1 2.239221 1_555
Co0 Er11 2.671981 1_545
Co0 Er8 2.672380 1_655
Co0 Er4 2.805753 1_555
Co0 Er6 2.805827 1_655
Co0 Er7 2.806080 1_555
Co0 Er5 2.806140 1_655
Co0 Er3 3.239146 1_554
Co0 Er0 3.239301 1_655
Co1 Er9 2.672049 1_555
Co1 Er10 2.672429 1_665
Co1 Er4 2.805735 1_555
Co1 Er6 2.805810 1_655
Co1 Er7 2.806065 1_555
Co1 Er5 2.806123 1_655
Co1 Er1 3.239178 1_555
Co1 Er2 3.239320 1_656
Co2 Co3 2.152124 1_565
Co2 Er5 2.644695 1_555
Co2 Er7 2.644705 1_455
Co2 Er1 2.831508 1_555
Co2 Er2 2.831515 1_555
Co2 Er3 2.831516 1_565
Co2 Er0 2.831549 1_565
Co2 Er8 3.328128 1_555
Co2 Er10 3.328177 1_565
Co3 Er4 2.644441 1_555
Co3 Er6 2.644467 1_655
Co3 Er0 2.831547 1_555
Co3 Er2 2.831566 1_545
Co3 Er3 2.831626 1_555
Co3 Er1 2.831650 1_545
Co3 Er9 3.327923 1_555
Co3 Er11 3.327948 1_545
Co4 Er11 2.769292 1_445
Co4 Er8 2.769315 1_555
Co4 Er9 2.769323 1_444
Co4 Er10 2.769337 1_554
Co4 Er3 3.150180 1_454
Co4 Er0 3.150182 1_555
Co4 Er1 3.150211 1_444
Co4 Er2 3.150214 1_545
Bi0 Er10 3.386079 1_554
Bi0 Er9 3.386090 1_554
Bi0 Er8 3.386104 1_555
Bi0 Er11 3.386122 1_555
Bi0 Er5 3.411114 1_554
Bi0 Er7 3.411124 1_555
Bi0 Er6 3.411190 1_554
Bi0 Er4 3.411193 1_555
Bi0 Er0 3.584674 1_554
Bi0 Er2 3.584679 1_555
Bi0 Er1 3.584689 1_555
Bi0 Er3 3.584709 1_554
