# generated using pymatgen
data_ZrP2HO7
_symmetry_space_group_name_H-M   'P 1'
_cell_length_a   5.50562155
_cell_length_b   5.50562155
_cell_length_c   12.07107200
_cell_angle_alpha   90.00000000
_cell_angle_beta   90.00000000
_cell_angle_gamma   119.99999463
_symmetry_Int_Tables_number   1
_chemical_formula_structural   ZrP2HO7
_chemical_formula_sum   'Zr2 P4 H2 O14'
_cell_volume   316.87589728
_cell_formula_units_Z   2
loop_
 _symmetry_equiv_pos_site_id
 _symmetry_equiv_pos_as_xyz
  1  'x, y, z'
loop_
 _atom_site_type_symbol
 _atom_site_label
 _atom_site_symmetry_multiplicity
 _atom_site_fract_x
 _atom_site_fract_y
 _atom_site_fract_z
 _atom_site_occupancy
  Zr  Zr0  1  0.00000000  0.00000000  0.75879100  1
  Zr  Zr1  1  0.00000000  0.00000000  0.24120900  1
  P  P0  1  0.66666700  0.33333300  0.38019500  1
  P  P1  1  0.33333300  0.66666700  0.61980500  1
  P  P2  1  0.66666700  0.33333300  0.89661600  1
  P  P3  1  0.33333300  0.66666700  0.10338400  1
  H  H0  1  0.66666700  0.33333300  0.01284700  1
  H  H1  1  0.33333300  0.66666700  0.98715300  1
  O  O0  1  0.83691800  0.19592600  0.86010400  1
  O  O1  1  0.16308200  0.80407400  0.13989600  1
  O  O2  1  0.35900800  0.16308200  0.86010400  1
  O  O3  1  0.64099200  0.83691800  0.13989600  1
  O  O4  1  0.80407400  0.64099200  0.86010400  1
  O  O5  1  0.19592600  0.35900800  0.13989600  1
  O  O6  1  0.66666700  0.33333300  0.50778900  1
  O  O7  1  0.33333300  0.66666700  0.49221100  1
  O  O8  1  0.63733500  0.83275900  0.66273800  1
  O  O9  1  0.36266500  0.16724100  0.33726200  1
  O  O10  1  0.19542400  0.36266500  0.66273800  1
  O  O11  1  0.80457600  0.63733500  0.33726200  1
  O  O12  1  0.16724100  0.80457600  0.66273800  1
  O  O13  1  0.83275900  0.19542400  0.33726200  1
loop_
_geom_bond_atom_site_label_1
_geom_bond_atom_site_label_2
_geom_bond_distance
_geom_bond_site_symmetry_2
H0 P2 1.403033 1_554
H1 P3 1.403033 1_556
O0 P2 1.534362 1_555
O0 Zr0 2.105682 1_655
O1 P3 1.534362 1_555
O1 Zr1 2.105682 1_565
O2 P2 1.534367 1_555
O2 Zr0 2.105682 1_555
O3 P3 1.534367 1_555
O3 Zr1 2.105682 1_665
O4 P2 1.534367 1_555
O4 Zr0 2.105682 1_665
O5 P3 1.534367 1_555
O5 Zr1 2.105682 1_555
O6 P0 1.540196 1_555
O7 P1 1.540196 1_555
O8 P1 1.541299 1_555
O8 Zr0 2.083379 1_665
O9 P0 1.541299 1_555
O9 Zr1 2.083379 1_555
O10 P1 1.541299 1_555
O10 Zr0 2.083379 1_555
O11 P0 1.541299 1_555
O11 Zr1 2.083379 1_665
O12 P1 1.541295 1_555
O12 Zr0 2.083379 1_565
O13 P0 1.541295 1_555
O13 Zr1 2.083379 1_655
