# generated using pymatgen
data_Eu3Re
_symmetry_space_group_name_H-M   'P 1'
_cell_length_a   5.63515270
_cell_length_b   5.63515270
_cell_length_c   5.63515270
_cell_angle_alpha   127.49783031
_cell_angle_beta   127.49783031
_cell_angle_gamma   77.43994709
_symmetry_Int_Tables_number   1
_chemical_formula_structural   Eu3Re
_chemical_formula_sum   'Eu3 Re1'
_cell_volume   109.25339013
_cell_formula_units_Z   1
loop_
 _symmetry_equiv_pos_site_id
 _symmetry_equiv_pos_as_xyz
  1  'x, y, z'
loop_
 _atom_site_type_symbol
 _atom_site_label
 _atom_site_symmetry_multiplicity
 _atom_site_fract_x
 _atom_site_fract_y
 _atom_site_fract_z
 _atom_site_occupancy
  Eu  Eu0  1  0.74999900  0.25000000  0.49999800  1
  Eu  Eu1  1  0.25000000  0.74999900  0.49999800  1
  Eu  Eu2  1  0.50000100  0.50000100  0.00000000  1
  Re  Re0  1  0.00000000  0.00000000  0.00000000  1
loop_
_geom_bond_atom_site_label_1
_geom_bond_atom_site_label_2
_geom_bond_distance
_geom_bond_site_symmetry_2
Eu0 Eu2 3.323384 1_545
Eu0 Re0 3.323384 1_655
Eu0 Re0 3.323386 1_555
Eu0 Eu2 3.323386 1_555
Eu0 Re0 3.323388 1_666
Eu0 Eu2 3.323388 1_556
Eu0 Re0 3.323398 1_656
Eu0 Eu2 3.323398 1_656
Eu1 Eu2 3.323384 1_455
Eu1 Re0 3.323384 1_565
Eu1 Re0 3.323386 1_555
Eu1 Eu2 3.323386 1_555
Eu1 Re0 3.323388 1_666
Eu1 Eu2 3.323388 1_556
Eu1 Eu2 3.323398 1_566
Eu1 Re0 3.323398 1_566
Eu2 Re0 3.524871 1_666
Eu2 Re0 3.524871 1_554
Eu2 Re0 3.524871 1_565
Eu2 Re0 3.524871 1_655
