# generated using pymatgen
data_RbMg14Zr
_symmetry_space_group_name_H-M   'P 1'
_cell_length_a   6.57329805
_cell_length_b   6.65253859
_cell_length_c   10.45917990
_cell_angle_alpha   90.00000000
_cell_angle_beta   90.00000000
_cell_angle_gamma   120.39958676
_symmetry_Int_Tables_number   1
_chemical_formula_structural   RbMg14Zr
_chemical_formula_sum   'Rb1 Mg14 Zr1'
_cell_volume   394.49016876
_cell_formula_units_Z   1
loop_
 _symmetry_equiv_pos_site_id
 _symmetry_equiv_pos_as_xyz
  1  'x, y, z'
loop_
 _atom_site_type_symbol
 _atom_site_label
 _atom_site_symmetry_multiplicity
 _atom_site_fract_x
 _atom_site_fract_y
 _atom_site_fract_z
 _atom_site_occupancy
  Rb  Rb0  1  0.16205664  0.83102782  0.12500000  1
  Mg  Mg0  1  0.16507611  0.33253755  0.62500000  1
  Mg  Mg1  1  0.16793977  0.83396939  0.62500000  1
  Mg  Mg2  1  0.66423492  0.33007190  0.12500000  1
  Mg  Mg3  1  0.66789336  0.33112042  0.62500000  1
  Mg  Mg4  1  0.66423492  0.83416202  0.12500000  1
  Mg  Mg5  1  0.66789336  0.83677194  0.62500000  1
  Mg  Mg6  1  0.33551686  0.18037723  0.38449244  1
  Mg  Mg7  1  0.33551686  0.18037723  0.86550756  1
  Mg  Mg8  1  0.33551686  0.65514062  0.38449244  1
  Mg  Mg9  1  0.33551686  0.65514062  0.86550756  1
  Mg  Mg10  1  0.83836443  0.16918271  0.37086647  1
  Mg  Mg11  1  0.83836443  0.16918271  0.87913353  1
  Mg  Mg12  1  0.81826960  0.65913530  0.38841013  1
  Mg  Mg13  1  0.81826960  0.65913530  0.86158987  1
  Zr  Zr0  1  0.18533544  0.34266722  0.12500000  1
loop_
_geom_bond_atom_site_label_1
_geom_bond_atom_site_label_2
_geom_bond_distance
_geom_bond_site_symmetry_2
Rb0 Zr0 3.328887 1_565
Rb0 Zr0 3.328887 1_555
Mg0 Mg7 3.123366 1_555
Mg0 Mg6 3.123366 1_555
Mg0 Mg9 3.123372 1_555
Mg0 Mg8 3.123372 1_555
Mg0 Mg10 3.239784 1_455
Mg0 Mg11 3.239784 1_455
Mg0 Mg5 3.263370 1_445
Mg0 Mg3 3.263370 1_455
Mg0 Mg5 3.309948 1_555
Mg0 Mg3 3.309948 1_555
Mg0 Mg1 3.326309 1_545
Mg0 Mg1 3.326309 1_555
Mg1 Mg13 3.170737 1_455
Mg1 Mg12 3.170737 1_455
Mg1 Mg9 3.206670 1_555
Mg1 Mg8 3.206670 1_555
Mg1 Mg7 3.206678 1_565
Mg1 Mg6 3.206678 1_565
Mg1 Mg3 3.276949 1_565
Mg1 Mg5 3.276949 1_555
Mg1 Mg3 3.296427 1_455
Mg1 Mg5 3.296428 1_455
Mg2 Zr0 3.191168 1_555
Mg2 Rb0 3.282930 1_655
Mg2 Rb0 3.290465 1_545
Mg2 Mg7 3.293796 1_554
Mg2 Mg6 3.293796 1_555
Mg2 Mg4 3.299060 1_545
Mg2 Mg4 3.353479 1_555
Mg2 Zr0 3.383720 1_655
Mg3 Mg7 3.144751 1_555
Mg3 Mg6 3.144751 1_555
Mg3 Mg5 3.288672 1_545
Mg3 Mg5 3.363866 1_555
Mg4 Zr0 3.191168 1_555
Mg4 Rb0 3.282931 1_655
Mg4 Rb0 3.290466 1_555
Mg4 Mg9 3.293796 1_554
Mg4 Mg8 3.293796 1_555
Mg4 Zr0 3.383720 1_665
Mg5 Mg8 3.144750 1_555
Mg5 Mg9 3.144750 1_555
Mg6 Mg8 3.158382 1_555
Mg6 Zr0 3.253465 1_555
Mg6 Rb0 3.374269 1_545
Mg6 Mg8 3.494157 1_545
Mg7 Mg9 3.158382 1_555
Mg7 Zr0 3.253465 1_556
Mg7 Rb0 3.374269 1_546
Mg7 Mg9 3.494157 1_545
Mg8 Zr0 3.253472 1_555
Mg8 Rb0 3.374263 1_555
Mg9 Zr0 3.253472 1_556
Mg9 Rb0 3.374263 1_556
Mg10 Mg2 3.210686 1_555
Mg10 Mg4 3.210692 1_545
Mg10 Mg8 3.234026 1_655
Mg10 Mg6 3.234027 1_655
Mg10 Zr0 3.237705 1_655
Mg10 Mg3 3.271553 1_555
Mg10 Mg5 3.271559 1_545
Mg10 Mg12 3.333274 1_545
Mg10 Mg12 3.333274 1_555
Mg10 Mg8 3.346704 1_545
Mg10 Mg6 3.346705 1_555
Mg11 Mg2 3.210686 1_556
Mg11 Mg4 3.210692 1_546
Mg11 Mg9 3.234026 1_655
Mg11 Mg7 3.234027 1_655
Mg11 Zr0 3.237705 1_656
Mg11 Mg3 3.271553 1_555
Mg11 Mg5 3.271559 1_545
Mg11 Mg13 3.333274 1_545
Mg11 Mg13 3.333274 1_555
Mg11 Mg9 3.346704 1_545
Mg11 Mg7 3.346705 1_555
Mg12 Mg5 3.111122 1_555
Mg12 Mg3 3.111129 1_555
Mg12 Mg6 3.160179 1_555
Mg12 Mg8 3.160179 1_555
Mg12 Mg4 3.341322 1_555
Mg12 Mg2 3.341328 1_555
Mg12 Rb0 3.374823 1_655
Mg12 Mg6 3.413791 1_665
Mg12 Mg8 3.413791 1_655
Mg13 Mg5 3.111122 1_555
Mg13 Mg3 3.111129 1_555
Mg13 Mg7 3.160179 1_555
Mg13 Mg9 3.160179 1_555
Mg13 Mg4 3.341322 1_556
Mg13 Mg2 3.341328 1_556
Mg13 Rb0 3.374823 1_656
Mg13 Mg7 3.413791 1_665
Mg13 Mg9 3.413791 1_655
