# generated using pymatgen
data_TbPt
_symmetry_space_group_name_H-M   'P 1'
_cell_length_a   4.51434118
_cell_length_b   5.55476054
_cell_length_c   7.05074828
_cell_angle_alpha   90.00000000
_cell_angle_beta   90.00000000
_cell_angle_gamma   90.00000000
_symmetry_Int_Tables_number   1
_chemical_formula_structural   TbPt
_chemical_formula_sum   'Tb4 Pt4'
_cell_volume   176.80515790
_cell_formula_units_Z   4
loop_
 _symmetry_equiv_pos_site_id
 _symmetry_equiv_pos_as_xyz
  1  'x, y, z'
loop_
 _atom_site_type_symbol
 _atom_site_label
 _atom_site_symmetry_multiplicity
 _atom_site_fract_x
 _atom_site_fract_y
 _atom_site_fract_z
 _atom_site_occupancy
  Tb  Tb0  1  0.25000000  0.35991454  0.68220763  1
  Tb  Tb1  1  0.25000000  0.14008546  0.18220763  1
  Tb  Tb2  1  0.75000000  0.64008546  0.31779237  1
  Tb  Tb3  1  0.75000000  0.85991454  0.81779237  1
  Pt  Pt0  1  0.25000000  0.84515708  0.54349178  1
  Pt  Pt1  1  0.25000000  0.65484292  0.04349178  1
  Pt  Pt2  1  0.75000000  0.15484292  0.45650822  1
  Pt  Pt3  1  0.75000000  0.34515708  0.95650822  1
loop_
_geom_bond_atom_site_label_1
_geom_bond_atom_site_label_2
_geom_bond_distance
_geom_bond_site_symmetry_2
Pt0 Tb0 2.867368 1_555
Pt0 Tb3 2.973548 1_455
Pt0 Tb3 2.973548 1_555
Pt0 Tb2 2.987443 1_455
Pt0 Tb2 2.987443 1_555
Pt0 Tb0 3.022001 1_565
Pt0 Tb1 3.028653 1_565
Pt1 Tb1 2.867368 1_565
Pt1 Tb2 2.973548 1_555
Pt1 Tb2 2.973548 1_455
Pt1 Tb3 2.987443 1_554
Pt1 Tb3 2.987443 1_454
Pt1 Tb1 3.022001 1_555
Pt1 Tb0 3.028653 1_554
Pt2 Tb2 2.867368 1_555
Pt2 Tb1 2.973548 1_555
Pt2 Tb1 2.973548 1_655
Pt2 Tb0 2.987443 1_555
Pt2 Tb0 2.987443 1_655
Pt2 Tb2 3.022001 1_545
Pt2 Tb3 3.028653 1_545
Pt3 Tb3 2.867368 1_545
Pt3 Tb0 2.973548 1_555
Pt3 Tb0 2.973548 1_655
Pt3 Tb1 2.987443 1_556
Pt3 Tb1 2.987443 1_656
Pt3 Tb3 3.022001 1_555
Pt3 Tb2 3.028653 1_556
