# generated using pymatgen
data_BaSrNbSbO6
_symmetry_space_group_name_H-M   'P 1'
_cell_length_a   6.00765620
_cell_length_b   5.99054509
_cell_length_c   8.48561242
_cell_angle_alpha   90.31490431
_cell_angle_beta   89.74584368
_cell_angle_gamma   89.69836943
_symmetry_Int_Tables_number   1
_chemical_formula_structural   BaSrNbSbO6
_chemical_formula_sum   'Ba2 Sr2 Nb2 Sb2 O12'
_cell_volume   305.37796567
_cell_formula_units_Z   2
loop_
 _symmetry_equiv_pos_site_id
 _symmetry_equiv_pos_as_xyz
  1  'x, y, z'
loop_
 _atom_site_type_symbol
 _atom_site_label
 _atom_site_symmetry_multiplicity
 _atom_site_fract_x
 _atom_site_fract_y
 _atom_site_fract_z
 _atom_site_occupancy
  Ba  Ba0  1  0.99627702  0.01984296  0.25039115  1
  Ba  Ba1  1  0.00372298  0.98015704  0.74960885  1
  Sr  Sr0  1  0.50283361  0.52586472  0.25139861  1
  Sr  Sr1  1  0.49716639  0.47413528  0.74860139  1
  Nb  Nb0  1  -0.00000000  0.50000000  -0.00000000  1
  Nb  Nb1  1  0.50000000  0.00000000  0.50000000  1
  Sb  Sb0  1  0.50000000  0.00000000  -0.00000000  1
  Sb  Sb1  1  -0.00000000  0.50000000  0.50000000  1
  O  O0  1  0.20388505  0.23536229  0.96506410  1
  O  O1  1  0.30468063  0.72750420  0.53698013  1
  O  O2  1  0.79611495  0.76463771  0.03493590  1
  O  O3  1  0.69531937  0.27249580  0.46301987  1
  O  O4  1  0.26709678  0.69958928  0.95959786  1
  O  O5  1  0.23780472  0.20734870  0.53117848  1
  O  O6  1  0.73290322  0.30041072  0.04040214  1
  O  O7  1  0.76219528  0.79265130  0.46882152  1
  O  O8  1  0.44166471  0.97635795  0.26591169  1
  O  O9  1  0.07844324  0.49520853  0.23319633  1
  O  O10  1  0.55833529  0.02364205  0.73408831  1
  O  O11  1  0.92155676  0.50479147  0.76680367  1
loop_
_geom_bond_atom_site_label_1
_geom_bond_atom_site_label_2
_geom_bond_distance
_geom_bond_site_symmetry_2
Ba0 O2 2.670957 1_545
Ba0 O8 2.690898 1_645
Ba0 O7 2.700043 1_545
Ba0 O9 2.897080 1_655
Ba0 O6 2.921220 1_555
Ba0 O3 2.954232 1_555
Ba0 O5 3.010417 1_655
Ba0 O0 3.018128 1_654
Ba0 O9 3.181261 1_645
Ba1 O0 2.670957 1_565
Ba1 O10 2.690898 1_465
Ba1 O5 2.700043 1_565
Ba1 O11 2.897080 1_455
Ba1 O4 2.921220 1_555
Ba1 O1 2.954232 1_555
Ba1 O7 3.010417 1_455
Ba1 O2 3.018128 1_456
Ba1 O11 3.181261 1_465
Nb0 O0 2.018072 1_554
Nb0 O2 2.018072 1_455
Nb0 O4 2.035132 1_554
Nb0 O6 2.035132 1_455
Nb0 O11 2.036509 1_454
Nb0 O9 2.036509 1_555
Nb1 O7 2.016474 1_545
Nb1 O5 2.016474 1_555
Nb1 O10 2.022919 1_555
Nb1 O8 2.022919 1_545
Nb1 O3 2.040250 1_555
Nb1 O1 2.040250 1_545
O0 Sb0 2.285474 1_556
O0 Sr1 2.924210 1_555
O1 Sb1 2.309325 1_555
O1 Sr1 2.625943 1_555
O1 Sr0 2.945483 1_555
O2 Sb0 2.285474 1_565
O2 Sr0 2.924210 1_555
O3 Sb1 2.309325 1_655
O3 Sr0 2.625943 1_555
O3 Sr1 2.945483 1_555
O4 Sb0 2.310398 1_566
O4 Sr1 2.621447 1_555
O4 Sr0 3.043648 1_556
O5 Sb1 2.273020 1_555
O5 Sr1 2.899189 1_555
O6 Sb0 2.310398 1_555
O6 Sr0 2.621447 1_555
O6 Sr1 3.043648 1_554
O7 Sb1 2.273020 1_655
O7 Sr0 2.899189 1_555
O8 Sb0 2.287214 1_565
O8 Sr0 2.723728 1_555
O9 Sb1 2.310465 1_555
O9 Sr0 2.562443 1_555
O10 Sb0 2.287214 1_556
O10 Sr1 2.723728 1_555
O11 Sb1 2.310465 1_655
O11 Sr1 2.562443 1_555
