# generated using pymatgen
data_YbAgSe2
_symmetry_space_group_name_H-M   'P 1'
_cell_length_a   4.15879238
_cell_length_b   6.80472125
_cell_length_c   13.56495775
_cell_angle_alpha   90.00000000
_cell_angle_beta   90.00000000
_cell_angle_gamma   90.00000000
_symmetry_Int_Tables_number   1
_chemical_formula_structural   YbAgSe2
_chemical_formula_sum   'Yb4 Ag4 Se8'
_cell_volume   383.88047564
_cell_formula_units_Z   4
loop_
 _symmetry_equiv_pos_site_id
 _symmetry_equiv_pos_as_xyz
  1  'x, y, z'
loop_
 _atom_site_type_symbol
 _atom_site_label
 _atom_site_symmetry_multiplicity
 _atom_site_fract_x
 _atom_site_fract_y
 _atom_site_fract_z
 _atom_site_occupancy
  Yb  Yb0  1  0.27182419  0.70979775  0.62882285  1
  Yb  Yb1  1  0.77182419  0.79020225  0.37117715  1
  Yb  Yb2  1  0.72817581  0.20979775  0.87117715  1
  Yb  Yb3  1  0.22817581  0.29020225  0.12882285  1
  Ag  Ag0  1  0.50522992  0.70889040  0.87676524  1
  Ag  Ag1  1  0.00522992  0.79110960  0.12323476  1
  Ag  Ag2  1  0.49477008  0.20889040  0.62323476  1
  Ag  Ag3  1  0.99477008  0.29110960  0.37676524  1
  Se  Se0  1  0.77286752  0.91453440  0.72585479  1
  Se  Se1  1  0.27286752  0.58546560  0.27414521  1
  Se  Se2  1  0.22713248  0.41453440  0.77414521  1
  Se  Se3  1  0.72713248  0.08546560  0.22585479  1
  Se  Se4  1  0.76845337  0.51669905  0.52765040  1
  Se  Se5  1  0.26845337  0.98330095  0.47234960  1
  Se  Se6  1  0.23154663  0.01669905  0.97234960  1
  Se  Se7  1  0.73154663  0.48330095  0.02765040  1
loop_
_geom_bond_atom_site_label_1
_geom_bond_atom_site_label_2
_geom_bond_distance
_geom_bond_site_symmetry_2
Ag0 Se2 2.699523 1_555
Ag0 Se6 2.713631 1_565
Ag0 Se0 2.718024 1_555
Ag0 Se7 2.726079 1_556
Ag1 Se3 2.699523 1_465
Ag1 Se7 2.713631 1_455
Ag1 Se1 2.718024 1_555
Ag1 Se6 2.726079 1_564
Ag2 Se0 2.699523 1_545
Ag2 Se4 2.713631 1_555
Ag2 Se2 2.718024 1_555
Ag2 Se5 2.726079 1_545
Ag3 Se1 2.699523 1_655
Ag3 Se5 2.713631 1_645
Ag3 Se3 2.718024 1_555
Ag3 Se4 2.726079 1_555
Se0 Yb2 2.820879 1_565
Se0 Yb0 2.824761 1_655
Se0 Yb0 2.831142 1_555
Se1 Yb3 2.820879 1_555
Se1 Yb1 2.824761 1_555
Se1 Yb1 2.831142 1_455
Se2 Yb0 2.820879 1_555
Se2 Yb2 2.824761 1_455
Se2 Yb2 2.831142 1_555
Se3 Yb1 2.820879 1_545
Se3 Yb3 2.824761 1_555
Se3 Yb3 2.831142 1_655
Se4 Yb0 2.806389 1_555
Se4 Yb1 2.822972 1_555
Se4 Yb0 2.827086 1_655
Se5 Yb1 2.806389 1_455
Se5 Yb0 2.822972 1_555
Se5 Yb1 2.827086 1_555
Se6 Yb2 2.806389 1_555
Se6 Yb3 2.822972 1_556
Se6 Yb2 2.827086 1_455
Se7 Yb3 2.806389 1_655
Se7 Yb2 2.822972 1_554
Se7 Yb3 2.827086 1_555
