# generated using pymatgen
data_In2AsSe
_symmetry_space_group_name_H-M   'P 1'
_cell_length_a   4.55328800
_cell_length_b   4.55328800
_cell_length_c   6.31926100
_cell_angle_alpha   90.00000000
_cell_angle_beta   90.00000000
_cell_angle_gamma   90.00000000
_symmetry_Int_Tables_number   1
_chemical_formula_structural   In2AsSe
_chemical_formula_sum   'In2 As1 Se1'
_cell_volume   131.01364651
_cell_formula_units_Z   1
loop_
 _symmetry_equiv_pos_site_id
 _symmetry_equiv_pos_as_xyz
  1  'x, y, z'
loop_
 _atom_site_type_symbol
 _atom_site_label
 _atom_site_symmetry_multiplicity
 _atom_site_fract_x
 _atom_site_fract_y
 _atom_site_fract_z
 _atom_site_occupancy
  In  In0  1  0.50000000  0.00000000  0.75945900  1
  In  In1  1  0.00000000  0.50000000  0.24054100  1
  As  As0  1  0.50000000  0.50000000  0.00000000  1
  Se  Se0  1  0.00000000  0.00000000  0.50000000  1
loop_
_geom_bond_atom_site_label_1
_geom_bond_atom_site_label_2
_geom_bond_distance
_geom_bond_site_symmetry_2
In0 Se0 2.805594 1_655
In0 Se0 2.805594 1_555
In1 Se0 2.805594 1_565
In1 Se0 2.805594 1_555
As0 In0 2.737450 1_564
As0 In1 2.737450 1_555
As0 In0 2.737450 1_554
As0 In1 2.737450 1_655
