# generated using pymatgen
data_LaHf2F11
_symmetry_space_group_name_H-M   'P 1'
_cell_length_a   8.41958392
_cell_length_b   8.41954496
_cell_length_c   8.41953142
_cell_angle_alpha   125.45665778
_cell_angle_beta   106.78045329
_cell_angle_gamma   97.53977793
_symmetry_Int_Tables_number   1
_chemical_formula_structural   LaHf2F11
_chemical_formula_sum   'La2 Hf4 F22'
_cell_volume   429.97476729
_cell_formula_units_Z   2
loop_
 _symmetry_equiv_pos_site_id
 _symmetry_equiv_pos_as_xyz
  1  'x, y, z'
loop_
 _atom_site_type_symbol
 _atom_site_label
 _atom_site_symmetry_multiplicity
 _atom_site_fract_x
 _atom_site_fract_y
 _atom_site_fract_z
 _atom_site_occupancy
  La  La0  1  0.74999467  0.24999762  0.49999215  1
  La  La1  1  0.25000537  0.75000255  0.50000801  1
  Hf  Hf0  1  0.68034903  0.63119606  0.31154345  1
  Hf  Hf1  1  0.31965125  0.36880346  0.68845553  1
  Hf  Hf2  1  0.18034074  0.86880020  0.04914645  1
  Hf  Hf3  1  0.81965805  0.13120084  0.95085345  1
  F  F0  1  0.70452468  0.88801308  0.33817725  1
  F  F1  1  0.29547541  0.11198730  0.66182224  1
  F  F2  1  0.54983644  0.36634829  0.66183156  1
  F  F3  1  0.95015984  0.61198888  0.81650787  1
  F  F4  1  0.45016301  0.63365180  0.33816836  1
  F  F5  1  0.04984036  0.38801184  0.18349267  1
  F  F6  1  0.79548152  0.13365086  0.18349061  1
  F  F7  1  0.20451829  0.86634882  0.81651003  1
  F  F8  1  0.49999984  0.49999939  -0.00000045  1
  F  F9  1  0.00000057  0.00000007  0.00000024  1
  F  F10  1  0.77987048  0.86903037  0.64890192  1
  F  F11  1  0.22012981  0.13096991  0.35109832  1
  F  F12  1  0.27986555  0.63096784  0.91083270  1
  F  F13  1  0.72013451  0.36903201  0.08916739  1
  F  F14  1  0.94725399  0.73752382  0.41582250  1
  F  F15  1  0.05274558  0.26247581  0.58417716  1
  F  F16  1  0.32169328  0.53142922  0.58417392  1
  F  F17  1  0.17830361  0.76248245  0.20973609  1
  F  F18  1  0.67830606  0.46857139  0.41582556  1
  F  F19  1  0.82169640  0.23751706  0.79026439  1
  F  F20  1  0.55275043  0.96856991  0.79026766  1
  F  F21  1  0.44725020  0.03143017  0.20973196  1
loop_
_geom_bond_atom_site_label_1
_geom_bond_atom_site_label_2
_geom_bond_distance
_geom_bond_site_symmetry_2
F0 Hf0 2.015634 1_555
F0 La0 2.422137 1_565
F1 Hf1 2.015629 1_555
F1 La1 2.422140 1_545
F2 Hf1 2.015627 1_555
F2 La0 2.422180 1_555
F3 Hf2 2.015596 1_656
F3 La0 2.422151 1_555
F4 Hf0 2.015638 1_555
F4 La1 2.422177 1_555
F5 Hf3 2.015601 1_454
F5 La1 2.422147 1_555
F6 Hf3 2.015637 1_554
F6 La0 2.422110 1_555
F7 Hf2 2.015628 1_556
F7 La1 2.422116 1_555
F8 Hf0 2.074788 1_555
F8 Hf1 2.074789 1_554
F9 Hf2 2.074765 1_545
F9 Hf3 2.074787 1_454
F10 Hf3 2.061912 1_565
F10 Hf0 2.089597 1_555
F11 Hf2 2.061907 1_545
F11 Hf1 2.089589 1_555
F12 Hf1 2.061896 1_555
F12 Hf2 2.089607 1_556
F13 Hf0 2.061891 1_555
F13 Hf3 2.089593 1_554
F14 Hf0 2.010781 1_555
F14 La1 2.410627 1_655
F15 Hf1 2.010787 1_555
F15 La0 2.410624 1_455
F16 Hf1 2.010790 1_555
F16 La1 2.410528 1_555
F17 Hf2 2.010789 1_555
F17 La1 2.410614 1_555
F18 Hf0 2.010786 1_555
F18 La0 2.410537 1_555
F19 Hf3 2.010775 1_555
F19 La0 2.410621 1_555
F20 Hf3 2.010797 1_565
F20 La1 2.410546 1_555
F21 Hf2 2.010809 1_545
F21 La0 2.410544 1_555
