# generated using pymatgen
data_Dy2AlCo3
_symmetry_space_group_name_H-M   'P 1'
_cell_length_a   4.94623313
_cell_length_b   4.94623313
_cell_length_c   4.94623277
_cell_angle_alpha   65.44602390
_cell_angle_beta   65.44602390
_cell_angle_gamma   65.44602161
_symmetry_Int_Tables_number   1
_chemical_formula_structural   Dy2AlCo3
_chemical_formula_sum   'Dy2 Al1 Co3'
_cell_volume   95.70330874
_cell_formula_units_Z   1
loop_
 _symmetry_equiv_pos_site_id
 _symmetry_equiv_pos_as_xyz
  1  'x, y, z'
loop_
 _atom_site_type_symbol
 _atom_site_label
 _atom_site_symmetry_multiplicity
 _atom_site_fract_x
 _atom_site_fract_y
 _atom_site_fract_z
 _atom_site_occupancy
  Dy  Dy0  1  0.63007900  0.63007900  0.63007900  1
  Dy  Dy1  1  0.36992100  0.36992100  0.36992100  1
  Al  Al0  1  0.00000000  0.00000000  0.00000000  1
  Co  Co0  1  0.00000000  0.50000000  0.00000000  1
  Co  Co1  1  0.50000000  0.00000000  0.00000000  1
  Co  Co2  1  0.00000000  0.00000000  0.50000000  1
loop_
_geom_bond_atom_site_label_1
_geom_bond_atom_site_label_2
_geom_bond_distance
_geom_bond_site_symmetry_2
Dy0 Dy1 3.015980 1_555
Dy0 Dy1 3.201889 1_556
Dy0 Dy1 3.201889 1_655
Dy0 Dy1 3.201889 1_565
Al0 Co2 2.473116 1_554
Al0 Co2 2.473116 1_555
Al0 Co0 2.473117 1_555
Al0 Co1 2.473117 1_555
Al0 Co0 2.473117 1_545
Al0 Co1 2.473117 1_455
Al0 Dy1 3.116467 1_455
Al0 Dy1 3.116467 1_545
Al0 Dy0 3.116467 1_454
Al0 Dy0 3.116467 1_544
Al0 Dy1 3.116467 1_554
Al0 Dy0 3.116467 1_445
Co0 Co2 2.673826 1_555
Co0 Co2 2.673826 1_564
Co0 Co1 2.673826 1_555
Co0 Co1 2.673826 1_465
Co0 Dy1 2.816963 1_555
Co0 Dy0 2.816963 1_454
Co0 Dy0 3.069752 1_455
Co0 Dy1 3.069752 1_554
Co0 Dy0 3.069752 1_554
Co0 Dy1 3.069752 1_455
Co1 Co2 2.673826 1_555
Co1 Co2 2.673826 1_654
Co1 Dy1 2.816963 1_555
Co1 Dy0 2.816963 1_544
Co1 Dy0 3.069752 1_545
Co1 Dy1 3.069752 1_554
Co1 Dy0 3.069752 1_554
Co1 Dy1 3.069752 1_545
Co2 Dy1 2.816963 1_555
Co2 Dy0 2.816963 1_445
Co2 Dy0 3.069752 1_455
Co2 Dy0 3.069752 1_545
Co2 Dy1 3.069752 1_455
Co2 Dy1 3.069752 1_545
