# generated using pymatgen
data_Pm
_symmetry_space_group_name_H-M   'P 1'
_cell_length_a   7.30915013
_cell_length_b   7.30915013
_cell_length_c   7.30915013
_cell_angle_alpha   120.00000000
_cell_angle_beta   90.00000000
_cell_angle_gamma   120.00000000
_symmetry_Int_Tables_number   1
_chemical_formula_structural   Pm
_chemical_formula_sum   Pm8
_cell_volume   276.11223343
_cell_formula_units_Z   8
loop_
 _symmetry_equiv_pos_site_id
 _symmetry_equiv_pos_as_xyz
  1  'x, y, z'
loop_
 _atom_site_type_symbol
 _atom_site_label
 _atom_site_symmetry_multiplicity
 _atom_site_fract_x
 _atom_site_fract_y
 _atom_site_fract_z
 _atom_site_occupancy
  Pm  Pm0_0  1  0.00000000  0.00000000  0.00000000  1
  Pm  Pm0_1  1  0.00000000  0.00000000  0.50000000  1
  Pm  Pm0_2  1  0.00000000  0.50000000  0.00000000  1
  Pm  Pm0_3  1  0.00000000  0.50000000  0.50000000  1
  Pm  Pm0_4  1  0.50000000  0.00000000  0.00000000  1
  Pm  Pm0_5  1  0.50000000  0.00000000  0.50000000  1
  Pm  Pm0_6  1  0.50000000  0.50000000  0.00000000  1
  Pm  Pm0_7  1  0.50000000  0.50000000  0.50000000  1
loop_
_geom_bond_atom_site_label_1
_geom_bond_atom_site_label_2
_geom_bond_distance
_geom_bond_site_symmetry_2
Pm0_0 Pm0_6 3.654575 1_555
Pm0_0 Pm0_7 3.654575 1_555
Pm0_0 Pm0_4 3.654575 1_455
Pm0_0 Pm0_2 3.654575 1_545
Pm0_0 Pm0_6 3.654575 1_445
Pm0_0 Pm0_3 3.654575 1_544
Pm0_0 Pm0_3 3.654575 1_555
Pm0_0 Pm0_1 3.654575 1_554
Pm0_0 Pm0_4 3.654575 1_555
Pm0_0 Pm0_7 3.654575 1_444
Pm0_0 Pm0_2 3.654575 1_555
Pm0_0 Pm0_1 3.654575 1_555
Pm0_1 Pm0_6 3.654575 1_556
Pm0_1 Pm0_5 3.654575 1_555
Pm0_1 Pm0_2 3.654575 1_545
Pm0_1 Pm0_6 3.654575 1_445
Pm0_1 Pm0_3 3.654575 1_555
Pm0_1 Pm0_5 3.654575 1_455
Pm0_1 Pm0_3 3.654575 1_545
Pm0_1 Pm0_7 3.654575 1_445
Pm0_1 Pm0_2 3.654575 1_556
Pm0_1 Pm0_7 3.654575 1_555
Pm0_2 Pm0_5 3.654575 1_565
Pm0_2 Pm0_6 3.654575 1_555
Pm0_2 Pm0_5 3.654575 1_454
Pm0_2 Pm0_3 3.654575 1_554
Pm0_2 Pm0_4 3.654575 1_455
Pm0_2 Pm0_3 3.654575 1_555
Pm0_2 Pm0_4 3.654575 1_565
Pm0_2 Pm0_6 3.654575 1_455
Pm0_3 Pm0_5 3.654575 1_565
Pm0_3 Pm0_4 3.654575 1_566
Pm0_3 Pm0_7 3.654575 1_455
Pm0_3 Pm0_4 3.654575 1_455
Pm0_3 Pm0_5 3.654575 1_455
Pm0_3 Pm0_7 3.654575 1_555
Pm0_4 Pm0_7 3.654575 1_544
Pm0_4 Pm0_5 3.654575 1_554
Pm0_4 Pm0_6 3.654575 1_555
Pm0_4 Pm0_5 3.654575 1_555
Pm0_4 Pm0_6 3.654575 1_545
Pm0_4 Pm0_7 3.654575 1_555
Pm0_5 Pm0_7 3.654575 1_545
Pm0_5 Pm0_7 3.654575 1_555
Pm0_5 Pm0_6 3.654575 1_556
Pm0_5 Pm0_6 3.654575 1_545
Pm0_6 Pm0_7 3.654575 1_554
Pm0_6 Pm0_7 3.654575 1_555
