# generated using pymatgen
data_Rb2Mo(O2F)2
_symmetry_space_group_name_H-M   'P 1'
_cell_length_a   7.94254292
_cell_length_b   7.94254292
_cell_length_c   7.12756600
_cell_angle_alpha   90.00000000
_cell_angle_beta   90.00000000
_cell_angle_gamma   133.35734963
_symmetry_Int_Tables_number   1
_chemical_formula_structural   Rb2Mo(O2F)2
_chemical_formula_sum   'Rb4 Mo2 O8 F4'
_cell_volume   326.92349206
_cell_formula_units_Z   2
loop_
 _symmetry_equiv_pos_site_id
 _symmetry_equiv_pos_as_xyz
  1  'x, y, z'
loop_
 _atom_site_type_symbol
 _atom_site_label
 _atom_site_symmetry_multiplicity
 _atom_site_fract_x
 _atom_site_fract_y
 _atom_site_fract_z
 _atom_site_occupancy
  Rb  Rb0  1  0.94587600  0.05412400  0.25000000  1
  Rb  Rb1  1  0.05412400  0.94587600  0.75000000  1
  Rb  Rb2  1  0.26738300  0.73261700  0.25000000  1
  Rb  Rb3  1  0.73261700  0.26738300  0.75000000  1
  Mo  Mo0  1  0.60906500  0.39093500  0.25000000  1
  Mo  Mo1  1  0.39093500  0.60906500  0.75000000  1
  O  O0  1  0.84304400  0.61510300  0.07896200  1
  O  O1  1  0.15695600  0.38489700  0.92103800  1
  O  O2  1  0.15695600  0.38489700  0.57896200  1
  O  O3  1  0.38489700  0.15695600  0.42103800  1
  O  O4  1  0.84304400  0.61510300  0.42103800  1
  O  O5  1  0.61510300  0.84304400  0.57896200  1
  O  O6  1  0.61510300  0.84304400  0.92103800  1
  O  O7  1  0.38489700  0.15695600  0.07896200  1
  F  F0  1  0.47388600  0.52611400  0.25000000  1
  F  F1  1  0.52611400  0.47388600  0.75000000  1
  F  F2  1  0.74835000  0.25165000  0.25000000  1
  F  F3  1  0.25165000  0.74835000  0.75000000  1
loop_
_geom_bond_atom_site_label_1
_geom_bond_atom_site_label_2
_geom_bond_distance
_geom_bond_site_symmetry_2
Mo0 O4 1.888530 1_555
Mo0 O3 1.888530 1_555
Mo0 O0 1.888530 1_555
Mo0 O7 1.888530 1_555
Mo1 O6 1.888530 1_555
Mo1 O1 1.888530 1_555
Mo1 O5 1.888530 1_555
Mo1 O2 1.888530 1_555
O0 Rb1 3.026977 1_654
O0 Rb2 3.065465 1_655
O0 Rb0 3.225138 1_565
O0 Rb3 3.250890 1_554
O1 Rb0 3.026977 1_456
O1 Rb3 3.065465 1_455
O1 Rb1 3.225138 1_545
O1 Rb2 3.250890 1_556
O2 Rb0 3.026977 1_455
O2 Rb3 3.065465 1_455
O2 Rb1 3.225138 1_545
O2 Rb2 3.250890 1_555
O3 Rb1 3.026977 1_545
O3 Rb2 3.065465 1_545
O3 Rb0 3.225138 1_455
O3 Rb3 3.250890 1_555
O4 Rb1 3.026977 1_655
O4 Rb2 3.065465 1_655
O4 Rb0 3.225138 1_565
O4 Rb3 3.250890 1_555
O5 Rb0 3.026977 1_565
O5 Rb3 3.065465 1_565
O5 Rb1 3.225138 1_655
O5 Rb2 3.250890 1_555
O6 Rb0 3.026977 1_566
O6 Rb3 3.065465 1_565
O6 Rb1 3.225138 1_655
O6 Rb2 3.250890 1_556
O7 Rb1 3.026977 1_544
O7 Rb2 3.065465 1_545
O7 Rb0 3.225138 1_455
O7 Rb3 3.250890 1_554
F0 Mo0 1.971891 1_555
F0 Rb2 3.012313 1_555
F0 Rb0 3.170788 1_565
F0 Rb0 3.170788 1_455
F1 Mo1 1.971891 1_555
F1 Rb3 3.012313 1_555
F1 Rb1 3.170788 1_655
F1 Rb1 3.170788 1_545
F2 Mo0 2.031787 1_555
F2 Rb0 2.881363 1_555
F2 Rb2 3.156586 1_655
F2 Rb2 3.156586 1_545
F3 Mo1 2.031787 1_555
F3 Rb1 2.881363 1_555
F3 Rb3 3.156586 1_565
F3 Rb3 3.156586 1_455
