# generated using pymatgen
data_Sm(SiIr)2
_symmetry_space_group_name_H-M   'P 1'
_cell_length_a   5.79445155
_cell_length_b   5.79445155
_cell_length_c   5.79445155
_cell_angle_alpha   137.16951506
_cell_angle_beta   137.16951506
_cell_angle_gamma   62.17733595
_symmetry_Int_Tables_number   1
_chemical_formula_structural   Sm(SiIr)2
_chemical_formula_sum   'Sm1 Si2 Ir2'
_cell_volume   88.84641540
_cell_formula_units_Z   1
loop_
 _symmetry_equiv_pos_site_id
 _symmetry_equiv_pos_as_xyz
  1  'x, y, z'
loop_
 _atom_site_type_symbol
 _atom_site_label
 _atom_site_symmetry_multiplicity
 _atom_site_fract_x
 _atom_site_fract_y
 _atom_site_fract_z
 _atom_site_occupancy
  Sm  Sm0  1  0.00000000  0.00000000  0.00000000  1
  Si  Si0  1  0.25000000  0.75000000  0.50000000  1
  Si  Si1  1  0.75000000  0.25000000  0.50000000  1
  Ir  Ir0  1  0.63193000  0.63193000  0.00000000  1
  Ir  Ir1  1  0.36807000  0.36807000  0.00000000  1
loop_
_geom_bond_atom_site_label_1
_geom_bond_atom_site_label_2
_geom_bond_distance
_geom_bond_site_symmetry_2
Si0 Sm0 3.260675 1_565
Si0 Sm0 3.260675 1_555
Si0 Sm0 3.260675 1_566
Si0 Sm0 3.260675 1_666
Si1 Sm0 3.260675 1_555
Si1 Sm0 3.260675 1_656
Si1 Sm0 3.260675 1_655
Si1 Sm0 3.260675 1_666
Ir0 Si0 2.418516 1_655
Ir0 Si1 2.418516 1_565
Ir0 Si0 2.418516 1_554
Ir0 Si1 2.418516 1_554
Ir0 Sm0 3.265986 1_655
Ir0 Sm0 3.265986 1_666
Ir0 Sm0 3.265986 1_554
Ir0 Sm0 3.265986 1_565
Ir1 Si1 2.418516 1_454
Ir1 Si0 2.418516 1_544
Ir1 Si0 2.418516 1_555
Ir1 Si1 2.418516 1_555
Ir1 Sm0 3.265986 1_655
Ir1 Sm0 3.265986 1_666
Ir1 Sm0 3.265986 1_554
Ir1 Sm0 3.265986 1_565
