# generated using pymatgen
data_CeAlRu
_symmetry_space_group_name_H-M   'P 1'
_cell_length_a   5.59430376
_cell_length_b   5.59415080
_cell_length_c   8.29070100
_cell_angle_alpha   90.00000000
_cell_angle_beta   90.00000000
_cell_angle_gamma   60.88846171
_symmetry_Int_Tables_number   1
_chemical_formula_structural   CeAlRu
_chemical_formula_sum   'Ce4 Al4 Ru4'
_cell_volume   226.68407469
_cell_formula_units_Z   4
loop_
 _symmetry_equiv_pos_site_id
 _symmetry_equiv_pos_as_xyz
  1  'x, y, z'
loop_
 _atom_site_type_symbol
 _atom_site_label
 _atom_site_symmetry_multiplicity
 _atom_site_fract_x
 _atom_site_fract_y
 _atom_site_fract_z
 _atom_site_occupancy
  Ce  Ce0  1  0.33525800  0.33524700  0.53901800  1
  Ce  Ce1  1  0.67199100  0.67200000  0.41927700  1
  Ce  Ce2  1  0.67199100  0.67200000  0.08072300  1
  Ce  Ce3  1  0.33525800  0.33524700  0.96098200  1
  Al  Al0  1  0.99582900  0.99581500  0.49216200  1
  Al  Al1  1  0.99582900  0.99581500  0.00783800  1
  Al  Al2  1  0.83343400  0.33890200  0.75000000  1
  Al  Al3  1  0.33889400  0.83343700  0.75000000  1
  Ru  Ru0  1  0.82881900  0.82882400  0.75000000  1
  Ru  Ru1  1  0.16501000  0.66387800  0.25000000  1
  Ru  Ru2  1  0.66386900  0.16495500  0.25000000  1
  Ru  Ru3  1  0.16381600  0.16387900  0.25000000  1
loop_
_geom_bond_atom_site_label_1
_geom_bond_atom_site_label_2
_geom_bond_distance
_geom_bond_site_symmetry_2
Ce0 Ru2 2.885239 1_555
Ce0 Ru1 2.885264 1_555
Ce0 Ru3 2.911208 1_555
Ce0 Ru0 3.331389 1_545
Ce0 Ru0 3.331469 1_455
Ce0 Ce1 3.391116 1_545
Ce0 Ce1 3.391293 1_455
Ce0 Ce1 3.396482 1_555
Ce1 Ce2 2.806850 1_555
Ce1 Ru2 3.074811 1_565
Ce1 Ru1 3.075197 1_655
Ce1 Ru0 3.131527 1_555
Ce1 Ru3 3.163828 1_655
Ce1 Ru3 3.164107 1_565
Ce1 Ru1 3.184512 1_555
Ce1 Ru2 3.184764 1_555
Ce2 Ru2 3.074811 1_565
Ce2 Ru1 3.075197 1_655
Ce2 Ru0 3.131527 1_554
Ce2 Ru3 3.163828 1_655
Ce2 Ru3 3.164107 1_565
Ce2 Ru1 3.184512 1_555
Ce2 Ru2 3.184764 1_555
Ce2 Ce3 3.391116 1_564
Ce2 Ce3 3.391293 1_654
Ce2 Ce3 3.396482 1_554
Ce3 Ru2 2.885239 1_556
Ce3 Ru1 2.885264 1_556
Ce3 Ru3 2.911208 1_556
Ce3 Ru0 3.331389 1_545
Ce3 Ru0 3.331469 1_455
Al0 Ru3 2.580241 1_665
Al0 Ru1 2.581596 1_655
Al0 Ru2 2.581689 1_565
Al0 Ru0 2.676647 1_555
Al0 Al3 2.716940 1_655
Al0 Al2 2.716977 1_565
Al0 Ce1 3.181485 1_555
Al0 Ce1 3.359722 1_655
Al0 Ce1 3.359742 1_565
Al1 Ru3 2.580241 1_665
Al1 Ru1 2.581596 1_655
Al1 Ru2 2.581689 1_565
Al1 Ru0 2.676647 1_554
Al1 Al3 2.716940 1_654
Al1 Al2 2.716977 1_564
Al1 Ce2 3.181485 1_555
Al1 Ce2 3.359722 1_655
Al1 Ce2 3.359742 1_565
Al2 Ru0 2.728230 1_555
Al2 Al3 2.803624 1_555
Al2 Al3 2.865560 1_645
Al2 Ru0 2.866103 1_545
Al2 Ce1 3.188819 1_555
Al2 Ce2 3.188819 1_556
Al2 Ce3 3.298879 1_555
Al2 Ce0 3.298879 1_555
Al2 Ce3 3.299314 1_655
Al2 Ce0 3.299314 1_655
Al3 Ru0 2.728328 1_555
Al3 Ru0 2.866158 1_455
Al3 Ce1 3.188839 1_555
Al3 Ce2 3.188839 1_556
Al3 Ce3 3.298837 1_555
Al3 Ce0 3.298837 1_555
Al3 Ce3 3.299226 1_565
Al3 Ce0 3.299226 1_565
Ru1 Ru3 2.793837 1_565
Ru1 Ru3 2.800326 1_555
Ru1 Ru2 2.828305 1_555
Ru1 Ru2 2.840879 1_465
Ru2 Ru3 2.793932 1_655
Ru2 Ru3 2.800382 1_555
