# generated using pymatgen
data_CuH14C4(NO2)4
_symmetry_space_group_name_H-M   'P 1'
_cell_length_a   8.03519700
_cell_length_b   8.86892300
_cell_length_c   9.61205846
_cell_angle_alpha   86.38595318
_cell_angle_beta   90.00000000
_cell_angle_gamma   90.00000000
_symmetry_Int_Tables_number   1
_chemical_formula_structural   CuH14C4(NO2)4
_chemical_formula_sum   'Cu2 H28 C8 N8 O16'
_cell_volume   683.62711061
_cell_formula_units_Z   2
loop_
 _symmetry_equiv_pos_site_id
 _symmetry_equiv_pos_as_xyz
  1  'x, y, z'
loop_
 _atom_site_type_symbol
 _atom_site_label
 _atom_site_symmetry_multiplicity
 _atom_site_fract_x
 _atom_site_fract_y
 _atom_site_fract_z
 _atom_site_occupancy
  Cu  Cu0  1  0.00000000  0.00000000  0.00000000  1
  Cu  Cu1  1  0.50000000  0.50000000  0.00000000  1
  H  H0  1  0.84502600  0.43309700  0.75008400  1
  H  H1  1  0.34502600  0.06690300  0.24991600  1
  H  H2  1  0.15497400  0.56690300  0.24991600  1
  H  H3  1  0.65497400  0.93309700  0.75008400  1
  H  H4  1  0.55933700  0.90533300  0.48363800  1
  H  H5  1  0.05933700  0.59466700  0.51636200  1
  H  H6  1  0.44066300  0.09466700  0.51636200  1
  H  H7  1  0.94066300  0.40533300  0.48363800  1
  H  H8  1  0.00531400  0.44823400  0.84021900  1
  H  H9  1  0.50531400  0.05176600  0.15978100  1
  H  H10  1  0.99468600  0.55176600  0.15978100  1
  H  H11  1  0.49468600  0.94823400  0.84021900  1
  H  H12  1  0.29718700  0.53826500  0.71366500  1
  H  H13  1  0.79718700  0.96173500  0.28633500  1
  H  H14  1  0.70281300  0.46173500  0.28633500  1
  H  H15  1  0.20281300  0.03826500  0.71366500  1
  H  H16  1  0.95564300  0.88099600  0.34676200  1
  H  H17  1  0.45564300  0.61900400  0.65323800  1
  H  H18  1  0.04435700  0.11900400  0.65323800  1
  H  H19  1  0.54435700  0.38099600  0.34676200  1
  H  H20  1  0.97660900  0.11241800  0.37574500  1
  H  H21  1  0.47660900  0.38758200  0.62425500  1
  H  H22  1  0.02339100  0.88758200  0.62425500  1
  H  H23  1  0.52339100  0.61241800  0.37574500  1
  H  H24  1  0.83854700  0.68517400  0.06304700  1
  H  H25  1  0.33854700  0.81482600  0.93695300  1
  H  H26  1  0.16145300  0.31482600  0.93695300  1
  H  H27  1  0.66145300  0.18517400  0.06304700  1
  C  C0  1  0.75264000  0.75350800  0.99553300  1
  C  C1  1  0.25264000  0.74649200  0.00446700  1
  C  C2  1  0.24736000  0.24649200  0.00446700  1
  C  C3  1  0.74736000  0.25350800  0.99553300  1
  C  C4  1  0.01691100  0.67108900  0.59424700  1
  C  C5  1  0.51691100  0.82891100  0.40575300  1
  C  C6  1  0.98308900  0.32891100  0.40575300  1
  C  C7  1  0.48308900  0.17108900  0.59424700  1
  N  N0  1  0.96722300  0.46624400  0.73886900  1
  N  N1  1  0.46722300  0.03375600  0.26113100  1
  N  N2  1  0.03277700  0.53375600  0.26113100  1
  N  N3  1  0.53277700  0.96624400  0.73886900  1
  N  N4  1  0.96283700  0.62994900  0.71566300  1
  N  N5  1  0.46283700  0.87005100  0.28433700  1
  N  N6  1  0.03716300  0.37005100  0.28433700  1
  N  N7  1  0.53716300  0.12994900  0.71566300  1
  O  O0  1  0.79414600  0.88906400  0.95858400  1
  O  O1  1  0.29414600  0.61093600  0.04141600  1
  O  O2  1  0.20585400  0.11093600  0.04141600  1
  O  O3  1  0.70585400  0.38906400  0.95858400  1
  O  O4  1  0.61558800  0.69799300  0.95811000  1
  O  O5  1  0.11558800  0.80200700  0.04189000  1
  O  O6  1  0.38441200  0.30200700  0.04189000  1
  O  O7  1  0.88441200  0.19799300  0.95811000  1
  O  O8  1  0.02673400  0.81654100  0.54637800  1
  O  O9  1  0.52673400  0.68345900  0.45362200  1
  O  O10  1  0.97326600  0.18345900  0.45362200  1
  O  O11  1  0.47326600  0.31654100  0.54637800  1
  O  O12  1  0.91855600  0.96447800  0.28192200  1
  O  O13  1  0.41855600  0.53552200  0.71807800  1
  O  O14  1  0.08144400  0.03552200  0.71807800  1
  O  O15  1  0.58144400  0.46447800  0.28192200  1
loop_
_geom_bond_atom_site_label_1
_geom_bond_atom_site_label_2
_geom_bond_distance
_geom_bond_site_symmetry_2
Cu0 O2 1.977841 1_555
Cu0 O0 1.977841 1_444
Cu0 O7 2.004767 1_454
Cu0 O5 2.004767 1_545
Cu1 O1 1.977841 1_555
Cu1 O3 1.977841 1_554
Cu1 O4 2.004767 1_554
Cu1 O6 2.004767 1_555
H0 N0 1.028655 1_555
H1 N1 1.028655 1_555
H2 N2 1.028655 1_555
H3 N3 1.028655 1_555
H8 N0 1.024014 1_455
H9 N1 1.024014 1_555
H10 N2 1.024014 1_655
H11 N3 1.024014 1_555
H12 O13 0.976382 1_555
H13 O12 0.976382 1_555
H14 O15 0.976382 1_555
H15 O14 0.976382 1_555
H16 O12 0.983489 1_555
H17 O13 0.983489 1_555
H18 O14 0.983489 1_555
H19 O15 0.983489 1_555
H20 O10 1.008708 1_555
H21 O11 1.008708 1_555
H22 O8 1.008708 1_555
H23 O9 1.008708 1_555
C0 H24 1.102421 1_556
C0 O4 1.267622 1_555
C0 O0 1.276286 1_555
C1 H25 1.102421 1_554
C1 O5 1.267622 1_555
C1 O1 1.276286 1_555
C2 H26 1.102421 1_554
C2 O6 1.267622 1_555
C2 O2 1.276286 1_555
C3 H27 1.102421 1_556
C3 O7 1.267622 1_555
C3 O3 1.276286 1_555
C4 H5 1.095456 1_555
C4 N4 1.276814 1_455
C4 O8 1.344328 1_555
C5 H4 1.095456 1_555
C5 N5 1.276814 1_555
C5 O9 1.344328 1_555
C6 H7 1.095456 1_555
C6 N6 1.276814 1_655
C6 O10 1.344328 1_555
C7 H6 1.095456 1_555
C7 N7 1.276814 1_555
C7 O11 1.344328 1_555
N0 N4 1.455385 1_555
N1 N5 1.455385 1_545
N2 N6 1.455385 1_555
N3 N7 1.455385 1_565
