# generated using pymatgen
data_Y3P
_symmetry_space_group_name_H-M   'P 1'
_cell_length_a   6.02425438
_cell_length_b   6.02425438
_cell_length_c   6.02425438
_cell_angle_alpha   136.86817861
_cell_angle_beta   136.86817861
_cell_angle_gamma   62.64093521
_symmetry_Int_Tables_number   1
_chemical_formula_structural   Y3P
_chemical_formula_sum   'Y3 P1'
_cell_volume   100.93687551
_cell_formula_units_Z   1
loop_
 _symmetry_equiv_pos_site_id
 _symmetry_equiv_pos_as_xyz
  1  'x, y, z'
loop_
 _atom_site_type_symbol
 _atom_site_label
 _atom_site_symmetry_multiplicity
 _atom_site_fract_x
 _atom_site_fract_y
 _atom_site_fract_z
 _atom_site_occupancy
  Y  Y0  1  0.75000000  0.25000000  0.50000000  1
  Y  Y1  1  0.25000000  0.75000000  0.50000000  1
  Y  Y2  1  0.50000000  0.50000000  0.00000000  1
  P  P0  1  0.00000000  0.00000000  0.00000000  1
loop_
_geom_bond_atom_site_label_1
_geom_bond_atom_site_label_2
_geom_bond_distance
_geom_bond_site_symmetry_2
Y0 Y1 3.131554 1_645
Y0 Y1 3.131554 1_544
Y0 Y1 3.131554 1_656
Y0 Y1 3.131554 1_555
Y0 Y2 3.394785 1_545
Y0 Y2 3.394785 1_656
Y0 Y2 3.394785 1_556
Y0 Y2 3.394785 1_555
Y1 Y2 3.394785 1_566
Y1 Y2 3.394785 1_556
Y1 Y2 3.394785 1_455
Y1 Y2 3.394785 1_555
P0 Y2 3.131554 1_556
P0 Y2 3.131554 1_455
P0 Y2 3.131554 1_444
P0 Y2 3.131554 1_545
P0 Y1 3.394785 1_555
P0 Y0 3.394785 1_455
P0 Y0 3.394785 1_555
P0 Y0 3.394785 1_454
P0 Y0 3.394785 1_444
P0 Y1 3.394785 1_444
P0 Y1 3.394785 1_544
P0 Y1 3.394785 1_545
