# generated using pymatgen
data_Mg4Si3
_symmetry_space_group_name_H-M   'P 1'
_cell_length_a   5.54721500
_cell_length_b   7.21894048
_cell_length_c   7.51409607
_cell_angle_alpha   108.51299218
_cell_angle_beta   95.23083461
_cell_angle_gamma   106.74883377
_symmetry_Int_Tables_number   1
_chemical_formula_structural   Mg4Si3
_chemical_formula_sum   'Mg8 Si6'
_cell_volume   267.64044585
_cell_formula_units_Z   2
loop_
 _symmetry_equiv_pos_site_id
 _symmetry_equiv_pos_as_xyz
  1  'x, y, z'
loop_
 _atom_site_type_symbol
 _atom_site_label
 _atom_site_symmetry_multiplicity
 _atom_site_fract_x
 _atom_site_fract_y
 _atom_site_fract_z
 _atom_site_occupancy
  Mg  Mg0  1  0.98382600  0.05370700  0.53637600  1
  Mg  Mg1  1  0.39074400  0.72505800  0.38871400  1
  Mg  Mg2  1  0.39654900  0.96780800  0.79400500  1
  Mg  Mg3  1  0.80513600  0.62025000  0.62111700  1
  Mg  Mg4  1  0.34476200  0.36320200  0.04723900  1
  Mg  Mg5  1  0.79167100  0.22758700  0.23195900  1
  Mg  Mg6  1  0.84617300  0.38860600  0.88999300  1
  Mg  Mg7  1  0.20336900  0.92192400  0.14242600  1
  Si  Si0  1  0.62393500  0.76531800  0.01154800  1
  Si  Si1  1  0.29755300  0.34291500  0.42404700  1
  Si  Si2  1  0.53723700  0.15551000  0.53102600  1
  Si  Si3  1  0.26213500  0.55084500  0.74224600  1
  Si  Si4  1  0.92278800  0.01577600  0.88707500  1
  Si  Si5  1  0.84408300  0.65150400  0.25216900  1
loop_
_geom_bond_atom_site_label_1
_geom_bond_atom_site_label_2
_geom_bond_distance
_geom_bond_site_symmetry_2
Mg0 Si1 2.718951 1_655
Mg0 Si4 2.775123 1_555
Mg0 Si2 2.780066 1_555
Mg0 Si5 2.838143 1_545
Mg0 Si2 2.950744 1_655
Mg1 Si1 2.759742 1_555
Mg1 Si2 2.781338 1_565
Mg1 Si5 2.924518 1_555
Mg1 Si5 2.947722 1_455
Mg1 Si0 3.280931 1_555
Mg2 Si3 2.770860 1_555
Mg2 Si2 2.778841 1_565
Mg2 Si4 2.832288 1_565
Mg2 Si4 2.867313 1_465
Mg2 Si0 2.933249 1_556
Mg3 Si4 2.763489 1_565
Mg3 Si3 2.847274 1_655
Mg3 Si1 2.870040 1_555
Mg3 Si5 2.874303 1_555
Mg3 Si2 3.069700 1_555
Mg3 Si0 3.147571 1_556
Mg4 Si4 2.720996 1_454
Mg4 Si5 2.870427 1_555
Mg4 Si1 2.912578 1_555
Mg4 Si0 2.979240 1_555
Mg4 Si3 3.071610 1_554
Mg5 Si1 2.793422 1_655
Mg5 Si4 2.837454 1_554
Mg5 Si2 2.865374 1_555
Mg5 Si5 2.942216 1_555
Mg5 Si0 3.027301 1_545
Mg6 Si2 2.767072 1_555
Mg6 Si3 2.768333 1_655
Mg6 Si5 2.783282 1_556
Mg6 Si4 2.836976 1_555
Mg6 Si0 3.210877 1_556
Mg7 Si4 2.729805 1_464
Mg7 Si5 2.746378 1_455
Mg7 Si1 2.964183 1_565
Mg7 Si2 2.981094 1_565
Mg7 Si0 2.986706 1_555
Mg7 Si0 3.033125 1_455
Si0 Si3 2.449260 1_554
Si0 Si4 2.553660 1_564
Si0 Si5 2.560176 1_555
Si1 Si2 2.403464 1_555
Si1 Si3 2.446424 1_555
