# generated using pymatgen
data_Cs3BAsP
_symmetry_space_group_name_H-M   'P 1'
_cell_length_a   7.08696449
_cell_length_b   7.08696449
_cell_length_c   10.07694025
_cell_angle_alpha   75.68402468
_cell_angle_beta   75.68402468
_cell_angle_gamma   89.18208963
_symmetry_Int_Tables_number   1
_chemical_formula_structural   Cs3BAsP
_chemical_formula_sum   'Cs6 B2 As2 P2'
_cell_volume   474.57765768
_cell_formula_units_Z   2
loop_
 _symmetry_equiv_pos_site_id
 _symmetry_equiv_pos_as_xyz
  1  'x, y, z'
loop_
 _atom_site_type_symbol
 _atom_site_label
 _atom_site_symmetry_multiplicity
 _atom_site_fract_x
 _atom_site_fract_y
 _atom_site_fract_z
 _atom_site_occupancy
  Cs  Cs0  1  0.74166400  0.84715700  0.98048600  1
  Cs  Cs1  1  0.15270400  0.25823600  0.51976200  1
  Cs  Cs2  1  0.25823600  0.15270400  0.01976200  1
  Cs  Cs3  1  0.84715700  0.74166400  0.48048600  1
  Cs  Cs4  1  0.34449500  0.65512000  0.75027500  1
  Cs  Cs5  1  0.65512000  0.34449500  0.25027500  1
  B  B0  1  0.70734800  0.28701100  0.74913300  1
  B  B1  1  0.28701100  0.70734800  0.24913300  1
  As  As0  1  0.84270600  0.39705500  0.85500000  1
  As  As1  1  0.39705500  0.84270600  0.35500000  1
  P  P0  1  0.58197100  0.18155200  0.65158500  1
  P  P1  1  0.18155200  0.58197100  0.15158500  1
loop_
_geom_bond_atom_site_label_1
_geom_bond_atom_site_label_2
_geom_bond_distance
_geom_bond_site_symmetry_2
Cs1 P0 3.592938 1_555
Cs1 P1 3.807776 1_555
Cs1 P0 3.933020 1_455
Cs2 P1 3.592938 1_555
Cs2 P0 3.807776 1_554
Cs2 P1 3.933020 1_545
Cs4 P1 3.824512 1_556
Cs4 P0 3.906025 1_565
Cs5 P0 3.824512 1_555
Cs5 P1 3.906025 1_655
B0 P0 1.768777 1_555
B0 Cs0 3.446180 1_545
B0 Cs1 3.457266 1_655
B0 Cs2 3.603306 1_556
B0 Cs3 3.625364 1_555
B0 Cs4 3.636932 1_555
B1 P1 1.768777 1_555
B1 Cs3 3.446180 1_455
B1 Cs2 3.457266 1_565
B1 Cs1 3.603306 1_555
B1 Cs0 3.625364 1_554
B1 Cs5 3.636932 1_555
As0 B0 1.898795 1_555
As0 Cs0 3.710623 1_555
As0 Cs5 3.799126 1_556
As0 Cs4 3.805272 1_655
As0 Cs1 3.888197 1_655
As0 Cs2 3.908709 1_656
As1 B1 1.898795 1_555
As1 Cs3 3.710623 1_555
As1 Cs4 3.799126 1_555
As1 Cs5 3.805272 1_565
As1 Cs2 3.888197 1_565
As1 Cs1 3.908709 1_565
