# generated using pymatgen
data_LiEr4Be4(SiO7)2
_symmetry_space_group_name_H-M   'P 1'
_cell_length_a   4.76505400
_cell_length_b   7.40151800
_cell_length_c   7.40151800
_cell_angle_alpha   90.00000000
_cell_angle_beta   90.00000000
_cell_angle_gamma   90.00000000
_symmetry_Int_Tables_number   1
_chemical_formula_structural   LiEr4Be4(SiO7)2
_chemical_formula_sum   'Li1 Er4 Be4 Si2 O14'
_cell_volume   261.04142163
_cell_formula_units_Z   1
loop_
 _symmetry_equiv_pos_site_id
 _symmetry_equiv_pos_as_xyz
  1  'x, y, z'
loop_
 _atom_site_type_symbol
 _atom_site_label
 _atom_site_symmetry_multiplicity
 _atom_site_fract_x
 _atom_site_fract_y
 _atom_site_fract_z
 _atom_site_occupancy
  Li  Li0  1  0.50000000  0.00000000  0.00000000  1
  Er  Er0  1  0.51170700  0.16626000  0.64279200  1
  Er  Er1  1  0.51170700  0.83374000  0.35720800  1
  Er  Er2  1  0.48829200  0.64279200  0.83374000  1
  Er  Er3  1  0.48829200  0.35720800  0.16626000  1
  Be  Be0  1  0.96158100  0.63599500  0.13540900  1
  Be  Be1  1  0.96158100  0.36400500  0.86459100  1
  Be  Be2  1  0.03841900  0.13540900  0.36400500  1
  Be  Be3  1  0.03841900  0.86459100  0.63599500  1
  Si  Si0  1  0.00000000  0.00000000  0.00000000  1
  Si  Si1  1  0.00000000  0.50000000  0.50000000  1
  O  O0  1  0.18136100  0.00000000  0.50000000  1
  O  O1  1  0.81863900  0.50000000  0.00000000  1
  O  O2  1  0.29465100  0.64354300  0.13967200  1
  O  O3  1  0.29465100  0.35645700  0.86032800  1
  O  O4  1  0.70534900  0.13967200  0.35645700  1
  O  O5  1  0.70534900  0.86032800  0.64354300  1
  O  O6  1  0.20972700  0.08122300  0.15811500  1
  O  O7  1  0.20972700  0.91877700  0.84188500  1
  O  O8  1  0.79027300  0.15811500  0.91877700  1
  O  O9  1  0.79850400  0.42075600  0.66323800  1
  O  O10  1  0.79027300  0.84188500  0.08122300  1
  O  O11  1  0.79850400  0.57924400  0.33676200  1
  O  O12  1  0.20149600  0.33676200  0.42075600  1
  O  O13  1  0.20149600  0.66323800  0.57924400  1
loop_
_geom_bond_atom_site_label_1
_geom_bond_atom_site_label_2
_geom_bond_distance
_geom_bond_site_symmetry_2
Li0 O10 1.908963 1_545
Li0 O6 1.908963 1_555
Li0 O8 1.908963 1_554
Li0 O7 1.908963 1_544
Er0 O0 2.260343 1_555
Er0 O4 2.319832 1_555
Er0 O9 2.332095 1_555
Er0 O3 2.375690 1_555
Er0 O8 2.436849 1_555
Er0 O5 2.445151 1_545
Er0 O12 2.545259 1_555
Er0 O7 2.756330 1_545
Er1 O0 2.260343 1_565
Er1 O5 2.319832 1_555
Er1 O11 2.332095 1_555
Er1 O2 2.375690 1_555
Er1 O10 2.436849 1_555
Er1 O4 2.445151 1_565
Er1 O13 2.545259 1_555
Er1 O6 2.756330 1_565
Er2 O1 2.260346 1_556
Er2 O3 2.319830 1_555
Er2 O13 2.332092 1_555
Er2 O5 2.375692 1_555
Er2 O7 2.436846 1_555
Er2 O2 2.445149 1_556
Er2 O9 2.545262 1_555
Er2 O10 2.756333 1_556
Er3 O1 2.260346 1_555
Er3 O2 2.319830 1_555
Er3 O12 2.332092 1_555
Er3 O4 2.375692 1_555
Er3 O6 2.436846 1_555
Er3 O3 2.445149 1_554
Er3 O11 2.545262 1_555
Er3 O8 2.756333 1_554
Be0 O1 1.575305 1_555
Be0 O2 1.588393 1_655
Be0 O11 1.732433 1_555
Be0 O10 1.774668 1_555
Be1 O1 1.575305 1_556
Be1 O3 1.588393 1_655
Be1 O9 1.732433 1_555
Be1 O8 1.774668 1_555
Be2 O0 1.575305 1_555
Be2 O4 1.588393 1_455
Be2 O12 1.732433 1_555
Be2 O6 1.774668 1_555
Be3 O0 1.575305 1_565
Be3 O5 1.588393 1_455
Be3 O13 1.732433 1_555
Be3 O7 1.774668 1_555
O6 Si0 1.652184 1_555
O7 Si0 1.652184 1_566
O8 Si0 1.652184 1_656
O9 Si1 1.650954 1_655
O10 Si0 1.652184 1_665
O11 Si1 1.650954 1_655
O12 Si1 1.650954 1_555
O13 Si1 1.650954 1_555
