# generated using pymatgen
data_Ce2Si5Ir3
_symmetry_space_group_name_H-M   'P 1'
_cell_length_a   8.19873794
_cell_length_b   8.19873794
_cell_length_c   8.19873794
_cell_angle_alpha   137.84942610
_cell_angle_beta   104.73369598
_cell_angle_gamma   90.24576896
_symmetry_Int_Tables_number   1
_chemical_formula_structural   Ce2Si5Ir3
_chemical_formula_sum   'Ce4 Si10 Ir6'
_cell_volume   341.52674996
_cell_formula_units_Z   2
loop_
 _symmetry_equiv_pos_site_id
 _symmetry_equiv_pos_as_xyz
  1  'x, y, z'
loop_
 _atom_site_type_symbol
 _atom_site_label
 _atom_site_symmetry_multiplicity
 _atom_site_fract_x
 _atom_site_fract_y
 _atom_site_fract_z
 _atom_site_occupancy
  Ce  Ce0  1  0.86182600  0.63157500  0.23025100  1
  Ce  Ce1  1  0.13817500  0.36842500  0.76974900  1
  Ce  Ce2  1  0.40132400  0.13157500  0.26974900  1
  Ce  Ce3  1  0.59867600  0.86842500  0.73025100  1
  Si  Si0  1  0.50000000  0.75000000  0.25000000  1
  Si  Si1  1  0.50000000  0.25000000  0.75000000  1
  Si  Si2  1  0.22656600  0.97656600  0.75000000  1
  Si  Si3  1  0.77343400  0.52343400  0.75000000  1
  Si  Si4  1  0.77343400  0.02343400  0.25000000  1
  Si  Si5  1  0.22656600  0.47656600  0.25000000  1
  Si  Si6  1  0.04590600  0.89278800  0.15311800  1
  Si  Si7  1  0.95409400  0.10721200  0.84688200  1
  Si  Si8  1  0.73967000  0.39278800  0.34688200  1
  Si  Si9  1  0.26033000  0.60721200  0.65311800  1
  Ir  Ir0  1  0.00000000  0.75000000  0.75000000  1
  Ir  Ir1  1  0.00000000  0.25000000  0.25000000  1
  Ir  Ir2  1  0.24706300  0.86104100  0.38602100  1
  Ir  Ir3  1  0.75293700  0.13895900  0.61397900  1
  Ir  Ir4  1  0.47502000  0.36104100  0.11397900  1
  Ir  Ir5  1  0.52498000  0.63895900  0.88602100  1
loop_
_geom_bond_atom_site_label_1
_geom_bond_atom_site_label_2
_geom_bond_distance
_geom_bond_site_symmetry_2
Ce0 Si8 2.999391 1_555
Ce0 Ir2 3.079112 1_655
Ce0 Si6 3.119314 1_655
Ce0 Si1 3.131306 1_554
Ce0 Si0 3.131306 1_555
Ce0 Ir3 3.170892 1_554
Ce0 Ir3 3.170897 1_565
Ce0 Si7 3.183567 1_565
Ce0 Si7 3.183567 1_554
Ce0 Si3 3.190846 1_554
Ce0 Si4 3.190846 1_565
Ce0 Si5 3.267311 1_655
Ce0 Si2 3.267311 1_655
Ce0 Ir4 3.339526 1_555
Ce0 Ir1 3.432908 1_655
Ce0 Ir0 3.432908 1_655
Ce0 Ir5 3.447612 1_554
Ce1 Si9 2.999388 1_555
Ce1 Ir3 3.079119 1_455
Ce1 Si7 3.119318 1_455
Ce1 Si1 3.131298 1_555
Ce1 Si0 3.131301 1_556
Ce1 Ir2 3.170893 1_545
Ce1 Ir2 3.170893 1_556
Ce1 Si6 3.183566 1_545
Ce1 Si6 3.183571 1_556
Ce1 Si2 3.190844 1_545
Ce1 Si5 3.190846 1_556
Ce1 Si4 3.267316 1_455
Ce1 Si3 3.267318 1_455
Ce1 Ir5 3.339519 1_555
Ce1 Ir1 3.432909 1_555
Ce1 Ir0 3.432911 1_555
Ce1 Ir4 3.447607 1_556
Ce2 Si6 2.999391 1_545
Ce2 Ir4 3.079104 1_555
Ce2 Si8 3.119314 1_555
Ce2 Si0 3.131306 1_545
Ce2 Si1 3.131306 1_555
Ce2 Ir5 3.170893 1_555
Ce2 Ir5 3.170893 1_544
Ce2 Si9 3.183567 1_555
Ce2 Si9 3.183567 1_544
Ce2 Si4 3.190846 1_555
Ce2 Si3 3.190846 1_555
Ce2 Si2 3.267311 1_544
Ce2 Si5 3.267311 1_555
Ce2 Ir2 3.339522 1_545
Ce2 Ir0 3.432908 1_544
Ce2 Ir1 3.432908 1_555
Ce2 Ir3 3.447607 1_555
Ce3 Si7 2.999391 1_565
Ce3 Ir5 3.079104 1_555
Ce3 Si9 3.119314 1_555
Ce3 Si0 3.131306 1_555
Ce3 Si1 3.131306 1_565
Ce3 Ir4 3.170893 1_566
Ce3 Ir4 3.170893 1_555
Ce3 Si8 3.183567 1_566
Ce3 Si8 3.183567 1_555
Ce3 Si2 3.190846 1_555
Ce3 Si5 3.190846 1_555
Ce3 Si3 3.267311 1_555
Ce3 Si4 3.267311 1_566
Ce3 Ir3 3.339522 1_565
Ce3 Ir0 3.432908 1_655
Ce3 Ir1 3.432908 1_666
Ce3 Ir2 3.447607 1_555
Si2 Si9 2.535789 1_555
Si2 Si7 2.535789 1_465
Si3 Si6 2.535789 1_656
Si3 Si8 2.535789 1_555
Si4 Si6 2.535789 1_645
Si4 Si8 2.535789 1_555
Si5 Si9 2.535789 1_555
Si5 Si7 2.535789 1_454
Ir0 Si9 2.462108 1_555
Ir0 Si8 2.462108 1_455
Ir0 Si7 2.462108 1_465
Ir0 Si6 2.462108 1_556
Ir0 Si2 2.621340 1_555
Ir0 Si3 2.621340 1_455
Ir1 Si8 2.462108 1_455
Ir1 Si9 2.462108 1_555
Ir1 Si6 2.462108 1_545
Ir1 Si7 2.462108 1_454
Ir1 Si5 2.621340 1_555
Ir1 Si4 2.621340 1_455
Ir2 Si6 2.360663 1_555
Ir2 Si5 2.428174 1_555
Ir2 Si2 2.428177 1_555
Ir2 Si0 2.461730 1_555
Ir2 Si1 2.461734 1_565
Ir3 Si7 2.360663 1_555
Ir3 Si3 2.428174 1_555
Ir3 Si4 2.428177 1_555
Ir3 Si1 2.461730 1_555
Ir3 Si0 2.461734 1_545
Ir4 Si8 2.360659 1_555
Ir4 Si5 2.428174 1_555
Ir4 Si2 2.428174 1_544
Ir4 Si1 2.461738 1_554
Ir4 Si0 2.461738 1_555
Ir5 Si9 2.360659 1_555
Ir5 Si3 2.428174 1_555
Ir5 Si4 2.428174 1_566
Ir5 Si1 2.461738 1_555
Ir5 Si0 2.461738 1_556
