# generated using pymatgen
data_Ba4Cr13O28
_symmetry_space_group_name_H-M   'P 1'
_cell_length_a   5.86343194
_cell_length_b   9.95267069
_cell_length_c   10.16138809
_cell_angle_alpha   69.68961555
_cell_angle_beta   90.00000453
_cell_angle_gamma   90.00000064
_symmetry_Int_Tables_number   1
_chemical_formula_structural   Ba4Cr13O28
_chemical_formula_sum   'Ba4 Cr13 O28'
_cell_volume   556.11786766
_cell_formula_units_Z   1
loop_
 _symmetry_equiv_pos_site_id
 _symmetry_equiv_pos_as_xyz
  1  'x, y, z'
loop_
 _atom_site_type_symbol
 _atom_site_label
 _atom_site_symmetry_multiplicity
 _atom_site_fract_x
 _atom_site_fract_y
 _atom_site_fract_z
 _atom_site_occupancy
  Ba  Ba0  1  0.50000000  0.12075100  0.79470100  1
  Ba  Ba1  1  0.00000000  0.12704800  0.28992600  1
  Ba  Ba2  1  0.50000000  0.86504400  0.23394100  1
  Ba  Ba3  1  0.00000000  0.86754000  0.69551000  1
  Cr  Cr0  1  0.00000000  0.74045200  0.43403000  1
  Cr  Cr1  1  0.50000000  0.72556500  0.91513800  1
  Cr  Cr2  1  0.00000000  0.28240800  0.57230500  1
  Cr  Cr3  1  0.50000000  0.28165700  0.07287900  1
  Cr  Cr4  1  0.25701500  0.50341600  0.74611900  1
  Cr  Cr5  1  0.74863200  0.49952400  0.24978100  1
  Cr  Cr6  1  0.50000000  0.50575300  0.49987800  1
  Cr  Cr7  1  0.00000000  0.49970200  0.99923900  1
  Cr  Cr8  1  0.25136800  0.49952400  0.24978100  1
  Cr  Cr9  1  0.74298500  0.50341600  0.74611900  1
  Cr  Cr10  1  0.00000000  0.81176000  0.06228300  1
  Cr  Cr11  1  0.50000000  0.18354100  0.43950900  1
  Cr  Cr12  1  0.00000000  0.18960600  0.93665200  1
  O  O0  1  0.75880200  0.14575900  0.53761900  1
  O  O1  1  0.25597600  0.14544000  0.03713400  1
  O  O2  1  0.24119800  0.14575900  0.53761900  1
  O  O3  1  0.74402400  0.14544000  0.03713400  1
  O  O4  1  0.00000000  0.14766000  0.77961900  1
  O  O5  1  0.50000000  0.14421200  0.28132000  1
  O  O6  1  0.21569800  0.85288200  0.44870900  1
  O  O7  1  0.74406000  0.85277700  0.96524500  1
  O  O8  1  0.78430200  0.85288200  0.44870900  1
  O  O9  1  0.25594000  0.85277700  0.96524500  1
  O  O10  1  0.00000000  0.84990200  0.21997000  1
  O  O11  1  0.50000000  0.86049500  0.74934400  1
  O  O12  1  0.74030500  0.61196900  0.37912100  1
  O  O13  1  0.24606800  0.61505700  0.87324600  1
  O  O14  1  0.25969500  0.61196900  0.37912100  1
  O  O15  1  0.75393200  0.61505700  0.87324600  1
  O  O16  1  0.00000000  0.61686900  0.62704100  1
  O  O17  1  0.50000000  0.61414700  0.13273300  1
  O  O18  1  0.26373700  0.38680400  0.62324700  1
  O  O19  1  0.76181100  0.38286900  0.12666500  1
  O  O20  1  0.73626300  0.38680400  0.62324700  1
  O  O21  1  0.23818900  0.38286900  0.12666500  1
  O  O22  1  0.00000000  0.38675400  0.36479200  1
  O  O23  1  0.50000000  0.38457700  0.86319200  1
  O  O24  1  0.50000000  0.60962000  0.62759600  1
  O  O25  1  0.00000000  0.61087200  0.12907000  1
  O  O26  1  0.50000000  0.38660700  0.37197000  1
  O  O27  1  0.00000000  0.39084600  0.86813100  1
loop_
_geom_bond_atom_site_label_1
_geom_bond_atom_site_label_2
_geom_bond_distance
_geom_bond_site_symmetry_2
Ba0 O11 2.783978 1_545
Ba0 O3 2.931971 1_556
Ba0 O1 2.931972 1_556
Ba0 O23 2.940694 1_555
Ba0 O4 2.943073 1_555
Ba0 O4 2.943073 1_655
Ba0 O2 2.955918 1_555
Ba0 O0 2.955918 1_555
Ba0 O18 2.960301 1_555
Ba0 O20 2.960301 1_555
Ba0 O7 2.992594 1_545
Ba0 O9 2.992594 1_545
Ba1 O19 2.872807 1_455
Ba1 O21 2.872807 1_555
Ba1 O3 2.925422 1_455
Ba1 O1 2.925422 1_555
Ba1 O6 2.931238 1_545
Ba1 O8 2.931238 1_445
Ba1 O5 2.936225 1_455
Ba1 O5 2.936225 1_555
Ba1 O22 2.936803 1_555
Ba1 O2 2.948723 1_555
Ba1 O0 2.948723 1_455
Ba1 O10 3.078141 1_545
Ba2 O8 2.715275 1_555
Ba2 O6 2.715276 1_555
Ba2 O12 2.815369 1_555
Ba2 O14 2.815369 1_555
Ba2 O10 2.941543 1_555
Ba2 O10 2.941543 1_655
Ba2 O5 2.979979 1_565
Ba2 O17 3.012621 1_555
Ba2 O9 3.122312 1_554
Ba2 O7 3.122312 1_554
Ba2 O1 3.155976 1_565
Ba2 O3 3.155976 1_565
Ba3 O16 2.813058 1_555
Ba3 O8 2.857284 1_455
Ba3 O6 2.857285 1_555
Ba3 O13 2.916754 1_555
Ba3 O15 2.916754 1_455
Ba3 O11 2.978672 1_555
Ba3 O11 2.978672 1_455
Ba3 O0 3.026145 1_465
Ba3 O2 3.026145 1_565
Ba3 O9 3.083263 1_555
Ba3 O7 3.083263 1_455
Ba3 O4 3.187037 1_565
Cr0 O6 1.729096 1_555
Cr0 O8 1.729096 1_455
Cr0 O16 1.919567 1_555
Cr0 O10 2.067123 1_555
Cr0 O12 2.181844 1_455
Cr0 O14 2.181844 1_555
Cr1 O11 1.752437 1_555
Cr1 O13 1.983117 1_555
Cr1 O15 1.983117 1_555
Cr1 O7 2.087489 1_555
Cr1 O9 2.087489 1_555
Cr1 O17 2.101518 1_556
Cr2 O22 2.001147 1_555
Cr2 O18 2.027869 1_555
Cr2 O20 2.027869 1_455
Cr2 O4 2.067620 1_555
Cr2 O0 2.075272 1_455
Cr2 O2 2.075273 1_555
Cr3 O19 2.013003 1_555
Cr3 O21 2.013003 1_555
Cr3 O23 2.018422 1_554
Cr3 O5 2.084710 1_555
Cr3 O1 2.087822 1_555
Cr3 O3 2.087822 1_555
Cr4 O24 1.927136 1_555
Cr4 O23 1.966519 1_555
Cr4 O13 1.975819 1_555
Cr4 O18 1.978228 1_555
Cr4 O16 2.015348 1_555
Cr4 O27 2.024621 1_555
Cr5 O22 1.971606 1_655
Cr5 O17 1.974688 1_555
Cr5 O19 1.981757 1_555
Cr5 O26 1.990276 1_555
Cr5 O25 1.990306 1_655
Cr5 O12 2.000805 1_555
Cr6 O24 1.919444 1_555
Cr6 O14 1.925620 1_555
Cr6 O12 1.925620 1_555
Cr6 O20 1.965161 1_555
Cr6 O18 1.965161 1_555
Cr6 O26 2.040930 1_555
Cr7 O21 1.983422 1_556
Cr7 O19 1.983422 1_456
Cr7 O27 1.987619 1_555
Cr7 O25 1.994490 1_556
Cr7 O15 2.004613 1_455
Cr7 O13 2.004613 1_555
Cr8 O22 1.971607 1_555
Cr8 O17 1.974688 1_555
Cr8 O21 1.981757 1_555
Cr8 O26 1.990276 1_555
Cr8 O25 1.990306 1_555
Cr8 O14 2.000805 1_555
Cr9 O24 1.927136 1_555
Cr9 O23 1.966519 1_555
Cr9 O15 1.975819 1_555
Cr9 O20 1.978228 1_555
Cr9 O16 2.015348 1_655
Cr9 O27 2.024621 1_655
Cr10 O7 1.763958 1_454
Cr10 O9 1.763958 1_554
Cr10 O10 1.770253 1_555
Cr10 O25 1.875126 1_555
Cr11 O5 1.781518 1_555
Cr11 O0 1.782622 1_555
Cr11 O2 1.782622 1_555
Cr11 O26 1.895454 1_555
Cr12 O1 1.782374 1_556
Cr12 O3 1.782374 1_456
Cr12 O4 1.784071 1_555
Cr12 O27 1.878349 1_555
