# generated using pymatgen
data_Cr2Fe
_symmetry_space_group_name_H-M   'P 1'
_cell_length_a   4.65663474
_cell_length_b   4.65663474
_cell_length_c   4.65663474
_cell_angle_alpha   60.00000000
_cell_angle_beta   60.00000000
_cell_angle_gamma   60.00000000
_symmetry_Int_Tables_number   1
_chemical_formula_structural   Cr2Fe
_chemical_formula_sum   'Cr4 Fe2'
_cell_volume   71.40054434
_cell_formula_units_Z   2
loop_
 _symmetry_equiv_pos_site_id
 _symmetry_equiv_pos_as_xyz
  1  'x, y, z'
loop_
 _atom_site_type_symbol
 _atom_site_label
 _atom_site_symmetry_multiplicity
 _atom_site_fract_x
 _atom_site_fract_y
 _atom_site_fract_z
 _atom_site_occupancy
  Cr  Cr0  1  0.62500000  0.62500000  0.12500000  1
  Cr  Cr1  1  0.62500000  0.12500000  0.62500000  1
  Cr  Cr2  1  0.12500000  0.62500000  0.62500000  1
  Cr  Cr3  1  0.62500000  0.62500000  0.62500000  1
  Fe  Fe0  1  0.25000000  0.25000000  0.25000000  1
  Fe  Fe1  1  0.00000000  0.00000000  0.00000000  1
loop_
_geom_bond_atom_site_label_1
_geom_bond_atom_site_label_2
_geom_bond_distance
_geom_bond_site_symmetry_2
Cr0 Cr3 2.328317 1_554
Cr0 Cr1 2.328317 1_555
Cr0 Cr3 2.328317 1_555
Cr0 Cr2 2.328317 1_654
Cr0 Cr2 2.328317 1_555
Cr0 Cr1 2.328317 1_564
Cr0 Fe0 2.730194 1_565
Cr0 Fe0 2.730194 1_655
Cr0 Fe1 2.730194 1_655
Cr0 Fe0 2.730194 1_555
Cr0 Fe1 2.730194 1_665
Cr0 Fe1 2.730194 1_565
Cr1 Cr3 2.328317 1_555
Cr1 Cr3 2.328317 1_545
Cr1 Cr2 2.328317 1_645
Cr1 Cr2 2.328317 1_555
Cr1 Fe0 2.730194 1_556
Cr1 Fe0 2.730194 1_655
Cr1 Fe1 2.730194 1_556
Cr1 Fe1 2.730194 1_655
Cr1 Fe1 2.730194 1_656
Cr1 Fe0 2.730194 1_555
Cr2 Cr3 2.328317 1_555
Cr2 Cr3 2.328317 1_455
Cr2 Fe0 2.730194 1_556
Cr2 Fe0 2.730194 1_565
Cr2 Fe1 2.730194 1_556
Cr2 Fe0 2.730194 1_555
Cr2 Fe1 2.730194 1_565
Cr2 Fe1 2.730194 1_566
Cr3 Fe0 2.730194 1_556
Cr3 Fe0 2.730194 1_565
Cr3 Fe0 2.730194 1_655
Cr3 Fe1 2.730194 1_656
Cr3 Fe1 2.730194 1_665
Cr3 Fe1 2.730194 1_566
Fe0 Fe1 2.851595 1_556
Fe0 Fe1 2.851595 1_565
Fe0 Fe1 2.851595 1_655
Fe0 Fe1 2.851595 1_555
