# generated using pymatgen
data_MnPHO3
_symmetry_space_group_name_H-M   'P 1'
_cell_length_a   8.17309440
_cell_length_b   8.42164500
_cell_length_c   8.93033411
_cell_angle_alpha   90.00000000
_cell_angle_beta   104.18306371
_cell_angle_gamma   90.00000000
_symmetry_Int_Tables_number   1
_chemical_formula_structural   MnPHO3
_chemical_formula_sum   'Mn8 P8 H8 O24'
_cell_volume   595.94605417
_cell_formula_units_Z   8
loop_
 _symmetry_equiv_pos_site_id
 _symmetry_equiv_pos_as_xyz
  1  'x, y, z'
loop_
 _atom_site_type_symbol
 _atom_site_label
 _atom_site_symmetry_multiplicity
 _atom_site_fract_x
 _atom_site_fract_y
 _atom_site_fract_z
 _atom_site_occupancy
  Mn  Mn0  1  0.55511800  0.13181800  0.37455100  1
  Mn  Mn1  1  0.94488200  0.63181800  0.12544900  1
  Mn  Mn2  1  0.44488200  0.86818200  0.62544900  1
  Mn  Mn3  1  0.05511800  0.36818200  0.87455100  1
  Mn  Mn4  1  0.51042800  0.71156300  0.98657000  1
  Mn  Mn5  1  0.98957200  0.21156300  0.51343000  1
  Mn  Mn6  1  0.48957200  0.28843700  0.01343000  1
  Mn  Mn7  1  0.01042800  0.78843700  0.48657000  1
  P  P0  1  0.77800100  0.98874700  0.18803000  1
  P  P1  1  0.72199900  0.48874700  0.31197000  1
  P  P2  1  0.22199900  0.01125300  0.81197000  1
  P  P3  1  0.27800100  0.51125300  0.68803000  1
  P  P4  1  0.78529900  0.65097100  0.73771000  1
  P  P5  1  0.71470100  0.15097100  0.76229000  1
  P  P6  1  0.21470100  0.34902900  0.26229000  1
  P  P7  1  0.28529900  0.84902900  0.23771000  1
  H  H0  1  0.89439100  0.07393000  0.12648700  1
  H  H1  1  0.60560900  0.57393000  0.37351300  1
  H  H2  1  0.10560900  0.92607000  0.87351300  1
  H  H3  1  0.39439100  0.42607000  0.62648700  1
  H  H4  1  0.73765200  0.51326100  0.64834100  1
  H  H5  1  0.76234800  0.01326100  0.85165900  1
  H  H6  1  0.26234800  0.48673900  0.35165900  1
  H  H7  1  0.23765200  0.98673900  0.14834100  1
  O  O0  1  0.75292100  0.82481900  0.10793900  1
  O  O1  1  0.74707900  0.32481900  0.39206100  1
  O  O2  1  0.24707900  0.17518100  0.89206100  1
  O  O3  1  0.25292100  0.67518100  0.60793900  1
  O  O4  1  0.84892100  0.98238300  0.36627200  1
  O  O5  1  0.65107900  0.48238300  0.13372800  1
  O  O6  1  0.15107900  0.01761700  0.63372800  1
  O  O7  1  0.34892100  0.51761700  0.86627200  1
  O  O8  1  0.62286700  0.71649900  0.77567400  1
  O  O9  1  0.87713300  0.21649900  0.72432600  1
  O  O10  1  0.37713300  0.28350100  0.22432600  1
  O  O11  1  0.12286700  0.78350100  0.27567400  1
  O  O12  1  0.91160000  0.59141800  0.88710400  1
  O  O13  1  0.58840000  0.09141800  0.61289600  1
  O  O14  1  0.08840000  0.40858200  0.11289600  1
  O  O15  1  0.41160000  0.90858200  0.38710400  1
  O  O16  1  0.36216000  0.73150500  0.14562800  1
  O  O17  1  0.13784000  0.23150500  0.35437200  1
  O  O18  1  0.63784000  0.26849500  0.85437200  1
  O  O19  1  0.86216000  0.76849500  0.64562800  1
  O  O20  1  0.61061700  0.08292900  0.15357500  1
  O  O21  1  0.88938300  0.58292900  0.34642500  1
  O  O22  1  0.38938300  0.91707100  0.84642500  1
  O  O23  1  0.11061700  0.41707100  0.65357500  1
loop_
_geom_bond_atom_site_label_1
_geom_bond_atom_site_label_2
_geom_bond_distance
_geom_bond_site_symmetry_2
Mn0 O13 2.106309 1_555
Mn0 O10 2.142746 1_555
Mn0 O20 2.169835 1_555
Mn0 O15 2.233239 1_545
Mn0 O1 2.237768 1_555
Mn0 O4 2.728077 1_545
Mn1 O12 2.106309 1_554
Mn1 O11 2.142746 1_655
Mn1 O21 2.169835 1_555
Mn1 O14 2.233239 1_655
Mn1 O0 2.237768 1_555
Mn1 O5 2.728077 1_555
Mn2 O15 2.106309 1_555
Mn2 O8 2.142746 1_555
Mn2 O22 2.169835 1_555
Mn2 O13 2.233239 1_565
Mn2 O3 2.237768 1_555
Mn2 O6 2.728077 1_565
Mn3 O14 2.106309 1_556
Mn3 O9 2.142746 1_455
Mn3 O23 2.169835 1_555
Mn3 O12 2.233239 1_455
Mn3 O2 2.237768 1_555
Mn3 O7 2.728077 1_555
Mn4 O16 2.087546 1_556
Mn4 O7 2.206682 1_555
Mn4 O22 2.221198 1_555
Mn4 O0 2.227067 1_556
Mn4 O8 2.289428 1_555
Mn4 O5 2.456295 1_556
Mn5 O17 2.087546 1_655
Mn5 O6 2.206682 1_655
Mn5 O23 2.221198 1_655
Mn5 O1 2.227067 1_555
Mn5 O9 2.289428 1_555
Mn5 O4 2.456295 1_545
Mn6 O18 2.087546 1_554
Mn6 O5 2.206682 1_555
Mn6 O20 2.221198 1_555
Mn6 O2 2.227067 1_554
Mn6 O10 2.289428 1_555
Mn6 O7 2.456295 1_554
Mn7 O19 2.087546 1_455
Mn7 O4 2.206682 1_455
Mn7 O21 2.221198 1_455
Mn7 O3 2.227067 1_555
Mn7 O11 2.289428 1_555
Mn7 O6 2.456295 1_565
H0 P0 1.406344 1_545
H1 P1 1.406344 1_555
H2 P2 1.406344 1_565
H3 P3 1.406344 1_555
H4 P4 1.407590 1_555
H5 P5 1.407590 1_555
H6 P6 1.407590 1_555
H7 P7 1.407590 1_555
O0 P0 1.545199 1_555
O1 P1 1.545199 1_555
O2 P2 1.545199 1_555
O3 P3 1.545199 1_555
O4 P0 1.555770 1_555
O5 P1 1.555770 1_555
O6 P2 1.555770 1_555
O7 P3 1.555770 1_555
O8 P4 1.549998 1_555
O9 P5 1.549998 1_555
O10 P6 1.549998 1_555
O11 P7 1.549998 1_555
O12 P4 1.556330 1_555
O13 P5 1.556330 1_555
O14 P6 1.556330 1_555
O15 P7 1.556330 1_555
O16 P7 1.517755 1_555
O17 P6 1.517755 1_555
O18 P5 1.517755 1_555
O19 P4 1.517755 1_555
O20 P0 1.545658 1_545
O21 P1 1.545658 1_555
O22 P2 1.545658 1_565
O23 P3 1.545658 1_555
