# generated using pymatgen
data_Er2CoGe6
_symmetry_space_group_name_H-M   'P 1'
_cell_length_a   3.98343700
_cell_length_b   4.04785800
_cell_length_c   10.88847910
_cell_angle_alpha   90.00000000
_cell_angle_beta   100.53987406
_cell_angle_gamma   90.00000000
_symmetry_Int_Tables_number   1
_chemical_formula_structural   Er2CoGe6
_chemical_formula_sum   'Er2 Co1 Ge6'
_cell_volume   172.60780936
_cell_formula_units_Z   1
loop_
 _symmetry_equiv_pos_site_id
 _symmetry_equiv_pos_as_xyz
  1  'x, y, z'
loop_
 _atom_site_type_symbol
 _atom_site_label
 _atom_site_symmetry_multiplicity
 _atom_site_fract_x
 _atom_site_fract_y
 _atom_site_fract_z
 _atom_site_occupancy
  Er  Er0  1  0.77212000  0.50000000  0.54423900  1
  Er  Er1  1  0.10868600  0.50000000  0.21737300  1
  Co  Co0  1  0.54997100  0.00000000  0.09994200  1
  Ge  Ge0  1  0.49465000  0.50000000  0.98930000  1
  Ge  Ge1  1  0.37737600  0.50000000  0.75475200  1
  Ge  Ge2  1  0.99392600  0.00000000  0.98785200  1
  Ge  Ge3  1  0.87576800  0.00000000  0.75153700  1
  Ge  Ge4  1  0.65636000  0.00000000  0.31271900  1
  Ge  Ge5  1  0.23134300  0.00000000  0.46268600  1
loop_
_geom_bond_atom_site_label_1
_geom_bond_atom_site_label_2
_geom_bond_distance
_geom_bond_site_symmetry_2
Er0 Ge5 2.970751 1_665
Er0 Ge5 2.970751 1_655
Er0 Ge5 2.970754 1_555
Er0 Ge5 2.970754 1_565
Er0 Ge3 3.003430 1_555
Er0 Ge3 3.003430 1_565
Er0 Ge1 3.007518 1_655
Er0 Ge1 3.007520 1_555
Er0 Ge4 3.199780 1_555
Er0 Ge4 3.199780 1_565
Er1 Ge4 3.017442 1_465
Er1 Ge4 3.017442 1_455
Er1 Ge4 3.017447 1_555
Er1 Ge4 3.017447 1_565
Er1 Ge0 3.150826 1_454
Er1 Ge0 3.150828 1_554
Er1 Ge2 3.183235 1_454
Er1 Ge2 3.183235 1_464
Er1 Ge5 3.315458 1_565
Er1 Ge5 3.315458 1_555
Co0 Ge4 2.277728 1_555
Co0 Ge2 2.325230 1_554
Co0 Ge2 2.325230 1_454
Co0 Ge0 2.345013 1_554
Co0 Ge0 2.345013 1_544
Co0 Er1 3.105391 1_645
Co0 Er1 3.105391 1_655
Co0 Er1 3.105393 1_555
Co0 Er1 3.105393 1_545
Ge0 Ge1 2.510782 1_555
Ge0 Ge2 2.839625 1_555
Ge0 Ge2 2.839625 1_565
Ge0 Ge2 2.839625 1_455
Ge0 Ge2 2.839625 1_465
Ge1 Ge3 2.839790 1_555
Ge1 Ge3 2.839790 1_565
Ge1 Ge3 2.839793 1_455
Ge1 Ge3 2.839793 1_465
Ge2 Ge3 2.529697 1_555
Ge4 Ge5 2.558148 1_655
Ge4 Ge5 2.558151 1_555
