# generated using pymatgen
data_CsMg(PO3)3
_symmetry_space_group_name_H-M   'P 1'
_cell_length_a   12.20587563
_cell_length_b   12.25857454
_cell_length_c   18.51888413
_cell_angle_alpha   90.00000000
_cell_angle_beta   96.67295818
_cell_angle_gamma   90.00000000
_symmetry_Int_Tables_number   1
_chemical_formula_structural   CsMg(PO3)3
_chemical_formula_sum   'Cs12 Mg12 P36 O108'
_cell_volume   2752.14704058
_cell_formula_units_Z   12
loop_
 _symmetry_equiv_pos_site_id
 _symmetry_equiv_pos_as_xyz
  1  'x, y, z'
loop_
 _atom_site_type_symbol
 _atom_site_label
 _atom_site_symmetry_multiplicity
 _atom_site_fract_x
 _atom_site_fract_y
 _atom_site_fract_z
 _atom_site_occupancy
  Cs  Cs0  1  0.00407348  0.13302482  0.41917633  1
  Cs  Cs1  1  0.50407348  0.86697518  0.41917633  1
  Cs  Cs2  1  0.89658469  0.73579179  0.50132599  1
  Cs  Cs3  1  0.39658469  0.26420821  0.50132599  1
  Cs  Cs4  1  0.19826096  0.11050932  0.08256960  1
  Cs  Cs5  1  0.69826096  0.88949068  0.08256960  1
  Cs  Cs6  1  0.15939395  0.62106634  0.90788262  1
  Cs  Cs7  1  0.65939395  0.37893366  0.90788262  1
  Cs  Cs8  1  0.31971739  0.70007100  0.18838540  1
  Cs  Cs9  1  0.81971739  0.29992900  0.18838540  1
  Cs  Cs10  1  0.27272924  0.23338092  0.80743116  1
  Cs  Cs11  1  0.77272924  0.76661908  0.80743116  1
  Mg  Mg0  1  0.09113854  0.96304529  0.62531462  1
  Mg  Mg1  1  0.59113854  0.03695471  0.62531462  1
  Mg  Mg2  1  0.64859935  0.56277326  0.36937850  1
  Mg  Mg3  1  0.14859935  0.43722674  0.36937850  1
  Mg  Mg4  1  0.00052945  0.92375255  0.96081350  1
  Mg  Mg5  1  0.50052945  0.07624745  0.96081350  1
  Mg  Mg6  1  0.06779012  0.46258786  0.70479400  1
  Mg  Mg7  1  0.56779012  0.53741214  0.70479400  1
  Mg  Mg8  1  0.18446675  0.93497269  0.29947642  1
  Mg  Mg9  1  0.68446675  0.06502731  0.29947642  1
  Mg  Mg10  1  0.49394278  0.57924772  0.03206136  1
  Mg  Mg11  1  0.99394278  0.42075228  0.03206136  1
  P  P0  1  0.06380533  0.41647704  0.53211990  1
  P  P1  1  0.56380533  0.58352296  0.53211990  1
  P  P2  1  0.64602813  0.60585247  0.19184791  1
  P  P3  1  0.14602813  0.39414753  0.19184791  1
  P  P4  1  0.71110490  0.79582181  0.28863631  1
  P  P5  1  0.21110490  0.20417819  0.28863631  1
  P  P6  1  0.30733925  0.57865941  0.72293048  1
  P  P7  1  0.80733925  0.42134059  0.72293048  1
  P  P8  1  0.46248024  0.81038818  0.94352920  1
  P  P9  1  0.96248024  0.18961182  0.94352920  1
  P  P10  1  0.11243491  0.72256375  0.70217913  1
  P  P11  1  0.61243491  0.27743625  0.70217913  1
  P  P12  1  0.91199796  0.92496065  0.27491836  1
  P  P13  1  0.41199796  0.07503935  0.27491836  1
  P  P14  1  0.69707426  0.30078346  0.38608837  1
  P  P15  1  0.19707426  0.69921654  0.38608837  1
  P  P16  1  0.25952254  0.94220911  0.92571459  1
  P  P17  1  0.75952254  0.05779089  0.92571459  1
  P  P18  1  0.89327347  0.44046135  0.40663434  1
  P  P19  1  0.39327347  0.55953865  0.40663434  1
  P  P20  1  0.85198935  0.07748711  0.60827721  1
  P  P21  1  0.35198935  0.92251289  0.60827721  1
  P  P22  1  0.97345538  0.68942970  0.05066800  1
  P  P23  1  0.47345538  0.31057030  0.05066800  1
  P  P24  1  0.69716692  0.10236387  0.47450988  1
  P  P25  1  0.19716692  0.89763613  0.47450988  1
  P  P26  1  0.04510188  0.22380120  0.62761077  1
  P  P27  1  0.54510188  0.77619880  0.62761077  1
  P  P28  1  0.46725656  0.61388096  0.85497992  1
  P  P29  1  0.96725656  0.38611904  0.85497992  1
  P  P30  1  0.09270776  0.91370492  0.79866716  1
  P  P31  1  0.59270776  0.08629508  0.79866716  1
  P  P32  1  0.76759354  0.56351896  0.06420035  1
  P  P33  1  0.26759354  0.43648104  0.06420035  1
  P  P34  1  0.02806047  0.88280178  0.14329765  1
  P  P35  1  0.52806047  0.11719822  0.14329765  1
  O  O0  1  0.23515433  0.48468883  0.73875014  1
  O  O1  1  0.73515433  0.51531117  0.73875014  1
  O  O2  1  0.01638641  0.29801456  0.55459100  1
  O  O3  1  0.51638641  0.70198544  0.55459100  1
  O  O4  1  0.33554352  0.83700951  0.91261567  1
  O  O5  1  0.83554352  0.16299049  0.91261567  1
  O  O6  1  0.84460528  0.02739252  0.27588502  1
  O  O7  1  0.34460528  0.97260748  0.27588502  1
  O  O8  1  0.92438071  0.98287909  0.59395219  1
  O  O9  1  0.42438071  0.01712091  0.59395219  1
  O  O10  1  0.14778405  0.39678248  0.48024633  1
  O  O11  1  0.64778405  0.60321752  0.48024633  1
  O  O12  1  0.33053320  0.03938818  0.94811226  1
  O  O13  1  0.83053320  0.96061182  0.94811226  1
  O  O14  1  0.64239857  0.53778883  0.25769900  1
  O  O15  1  0.14239857  0.46221117  0.25769900  1
  O  O16  1  0.02252467  0.75349547  0.12390377  1
  O  O17  1  0.52252467  0.24650453  0.12390377  1
  O  O18  1  0.00137118  0.94874229  0.07547865  1
  O  O19  1  0.50137118  0.05125771  0.07547865  1
  O  O20  1  0.55712118  0.57088522  0.81467717  1
  O  O21  1  0.05712118  0.42911478  0.81467717  1
  O  O22  1  0.95232078  0.46782319  0.48764593  1
  O  O23  1  0.45232078  0.53217681  0.48764593  1
  O  O24  1  0.03398408  0.58343424  0.05130004  1
  O  O25  1  0.53398408  0.41656576  0.05130004  1
  O  O26  1  0.53139882  0.91167232  0.94750050  1
  O  O27  1  0.03139882  0.08832768  0.94750050  1
  O  O28  1  0.02137349  0.91985417  0.32002993  1
  O  O29  1  0.52137349  0.08014583  0.32002993  1
  O  O30  1  0.97710580  0.40184730  0.35891613  1
  O  O31  1  0.47710580  0.59815270  0.35891613  1
  O  O32  1  0.44270932  0.55277580  0.92183744  1
  O  O33  1  0.94270932  0.44722420  0.92183744  1
  O  O34  1  0.72979626  0.03881653  0.41060916  1
  O  O35  1  0.22979626  0.96118347  0.41060916  1
  O  O36  1  0.92358813  0.18097602  0.64161109  1
  O  O37  1  0.42358813  0.81902398  0.64161109  1
  O  O38  1  0.81947012  0.53472764  0.38409548  1
  O  O39  1  0.31947012  0.46527236  0.38409548  1
  O  O40  1  0.14214869  0.79782431  0.77499279  1
  O  O41  1  0.64214869  0.20217569  0.77499279  1
  O  O42  1  0.11374416  0.12923870  0.60807035  1
  O  O43  1  0.61374416  0.87076130  0.60807035  1
  O  O44  1  0.23466122  0.68082906  0.68920112  1
  O  O45  1  0.73466122  0.31917094  0.68920112  1
  O  O46  1  0.84284611  0.82002885  0.29756929  1
  O  O47  1  0.34284611  0.17997115  0.29756929  1
  O  O48  1  0.75846329  0.06053539  0.65201046  1
  O  O49  1  0.25846329  0.93946461  0.65201046  1
  O  O50  1  0.60817843  0.05722904  0.51496550  1
  O  O51  1  0.10817843  0.94277096  0.51496550  1
  O  O52  1  0.65669898  0.22403889  0.44897629  1
  O  O53  1  0.15669898  0.77596111  0.44897629  1
  O  O54  1  0.83080790  0.46192035  0.05084480  1
  O  O55  1  0.33080790  0.53807965  0.05084480  1
  O  O56  1  0.40061848  0.56109841  0.67930273  1
  O  O57  1  0.90061848  0.43890159  0.67930273  1
  O  O58  1  0.00885310  0.88996636  0.85021339  1
  O  O59  1  0.50885310  0.11003364  0.85021339  1
  O  O60  1  0.20298988  0.96628488  0.84429081  1
  O  O61  1  0.70298988  0.03371512  0.84429081  1
  O  O62  1  0.04483411  0.62874348  0.72423605  1
  O  O63  1  0.54483411  0.37125652  0.72423605  1
  O  O64  1  0.74371516  0.55665795  0.14839353  1
  O  O65  1  0.24371516  0.44334205  0.14839353  1
  O  O66  1  0.54373257  0.62355004  0.13976863  1
  O  O67  1  0.04373257  0.37644996  0.13976863  1
  O  O68  1  0.46317396  0.74293245  0.01130692  1
  O  O69  1  0.96317396  0.25706755  0.01130692  1
  O  O70  1  0.92436063  0.89694093  0.19004437  1
  O  O71  1  0.42436063  0.10305907  0.19004437  1
  O  O72  1  0.09208423  0.48658971  0.59733821  1
  O  O73  1  0.59208423  0.51341029  0.59733821  1
  O  O74  1  0.49995077  0.73948784  0.87721726  1
  O  O75  1  -0.00004923  0.26051216  0.87721726  1
  O  O76  1  0.97281715  0.76117307  0.98502353  1
  O  O77  1  0.47281715  0.23882693  0.98502353  1
  O  O78  1  0.64826210  0.90010930  0.27411041  1
  O  O79  1  0.14826210  0.09989070  0.27411041  1
  O  O80  1  0.84645789  0.67091746  0.06586550  1
  O  O81  1  0.34645789  0.32908254  0.06586550  1
  O  O82  1  0.66489511  0.59197150  0.01537957  1
  O  O83  1  0.16489511  0.40802850  0.01537957  1
  O  O84  1  0.68709298  0.72728241  0.35159006  1
  O  O85  1  0.18709298  0.27271759  0.35159006  1
  O  O86  1  0.06455453  0.98579917  0.73439281  1
  O  O87  1  0.56455453  0.01420083  0.73439281  1
  O  O88  1  0.80680633  0.12952627  0.52826232  1
  O  O89  1  0.30680633  0.87047373  0.52826232  1
  O  O90  1  0.71204456  0.23230669  0.32018101  1
  O  O91  1  0.21204456  0.76769331  0.32018101  1
  O  O92  1  0.08970819  0.29523329  0.68966245  1
  O  O93  1  0.58970819  0.70476671  0.68966245  1
  O  O94  1  0.35415873  0.63158364  0.80283354  1
  O  O95  1  0.85415873  0.36841636  0.80283354  1
  O  O96  1  0.13583404  0.90098087  0.18932896  1
  O  O97  1  0.63583404  0.09901913  0.18932896  1
  O  O98  1  0.06829477  0.79293484  0.63934863  1
  O  O99  1  0.56829477  0.20706516  0.63934863  1
  O  O100  1  0.17543658  0.90528569  0.97377092  1
  O  O101  1  0.67543658  0.09471431  0.97377092  1
  O  O102  1  0.69717608  0.72638319  0.21331104  1
  O  O103  1  0.19717608  0.27361681  0.21331104  1
  O  O104  1  0.62240264  0.39730664  0.38014309  1
  O  O105  1  0.12240264  0.60269336  0.38014309  1
  O  O106  1  0.81962724  0.33437575  0.42359774  1
  O  O107  1  0.31962724  0.66562425  0.42359774  1
loop_
_geom_bond_atom_site_label_1
_geom_bond_atom_site_label_2
_geom_bond_distance
_geom_bond_site_symmetry_2
Cs0 O51 3.110771 1_545
Cs0 O85 3.184205 1_555
Cs0 O2 3.211598 1_555
Cs0 O28 3.214737 1_545
Cs0 O88 3.318266 1_455
Cs0 O106 3.348194 1_455
Cs0 O6 3.362531 1_455
Cs0 O79 3.402686 1_555
Cs0 O30 3.482508 1_455
Cs0 O35 3.486409 1_545
Cs0 O34 3.527486 1_455
Cs0 O42 3.597576 1_555
Cs1 O50 3.110771 1_565
Cs1 O84 3.184205 1_555
Cs1 O3 3.211598 1_555
Cs1 O29 3.214737 1_565
Cs1 O89 3.318266 1_555
Cs1 O107 3.348194 1_555
Cs1 O7 3.362531 1_555
Cs1 O78 3.402686 1_555
Cs1 O31 3.482508 1_555
Cs1 O34 3.486409 1_565
Cs1 O35 3.527486 1_555
Cs1 O43 3.597576 1_555
Cs2 O98 3.189298 1_655
Cs2 O38 3.346526 1_555
Cs2 O22 3.370120 1_555
Cs2 O11 3.426426 1_555
Cs2 O53 3.460894 1_655
Cs2 O8 3.478030 1_555
Cs2 O84 3.548328 1_555
Cs2 O51 3.608351 1_655
Cs3 O99 3.189298 1_555
Cs3 O39 3.346526 1_555
Cs3 O23 3.370120 1_555
Cs3 O10 3.426426 1_555
Cs3 O52 3.460894 1_555
Cs3 O9 3.478030 1_555
Cs3 O85 3.548328 1_555
Cs3 O50 3.608351 1_555
Cs4 O27 3.048730 1_554
Cs4 O18 3.106727 1_545
Cs4 O103 3.141278 1_555
Cs4 O71 3.210816 1_555
Cs4 O100 3.214918 1_544
Cs4 O12 3.240541 1_554
Cs4 O81 3.267556 1_555
Cs4 O96 3.381833 1_545
Cs4 O69 3.510414 1_455
Cs5 O26 3.048730 1_554
Cs5 O19 3.106727 1_565
Cs5 O102 3.141278 1_555
Cs5 O70 3.210816 1_555
Cs5 O101 3.214918 1_564
Cs5 O13 3.240541 1_554
Cs5 O80 3.267556 1_555
Cs5 O97 3.381833 1_565
Cs5 O68 3.510414 1_555
Cs6 O21 3.094141 1_555
Cs6 O94 3.244597 1_555
Cs6 O24 3.248812 1_556
Cs6 O40 3.267311 1_555
Cs6 O83 3.279720 1_556
Cs6 O76 3.306503 1_455
Cs6 O55 3.336817 1_556
Cs6 O4 3.405007 1_555
Cs6 O33 3.429597 1_455
Cs6 O62 3.524943 1_555
Cs6 O32 3.538141 1_555
Cs6 O100 3.689278 1_555
Cs7 O20 3.094141 1_555
Cs7 O95 3.244597 1_555
Cs7 O25 3.248812 1_556
Cs7 O41 3.267311 1_555
Cs7 O82 3.279720 1_556
Cs7 O77 3.306503 1_555
Cs7 O54 3.336817 1_556
Cs7 O5 3.405007 1_555
Cs7 O32 3.429597 1_555
Cs7 O63 3.524943 1_555
Cs7 O33 3.538141 1_555
Cs7 O101 3.689278 1_555
Cs8 O91 3.019424 1_555
Cs8 O66 3.120743 1_555
Cs8 O55 3.244919 1_555
Cs8 O96 3.333576 1_555
Cs8 O65 3.339736 1_555
Cs8 O7 3.710153 1_555
Cs8 O31 3.716810 1_555
Cs8 O16 3.742577 1_555
Cs9 O90 3.019424 1_555
Cs9 O67 3.120743 1_655
Cs9 O54 3.244919 1_555
Cs9 O97 3.333576 1_555
Cs9 O64 3.339736 1_555
Cs9 O6 3.710153 1_555
Cs9 O30 3.716810 1_555
Cs9 O17 3.742577 1_555
Cs10 O92 3.031433 1_555
Cs10 O59 3.269534 1_555
Cs10 O0 3.344109 1_555
Cs10 O60 3.470745 1_545
Cs10 O12 3.537402 1_555
Cs10 O21 3.575339 1_555
Cs10 O75 3.723761 1_555
Cs11 O93 3.031433 1_555
Cs11 O58 3.269534 1_655
Cs11 O1 3.344109 1_555
Cs11 O61 3.470745 1_565
Cs11 O13 3.537402 1_555
Cs11 O20 3.575339 1_555
Cs11 O74 3.723761 1_555
Mg0 O49 2.065063 1_555
Mg0 O8 2.065104 1_455
Mg0 O42 2.085464 1_565
Mg0 O51 2.092815 1_555
Mg0 O86 2.101391 1_555
Mg0 O98 2.123831 1_555
Mg1 O48 2.065063 1_555
Mg1 O9 2.065104 1_555
Mg1 O43 2.085464 1_545
Mg1 O50 2.092815 1_555
Mg1 O87 2.101391 1_555
Mg1 O99 2.123831 1_555
Mg2 O104 2.066674 1_555
Mg2 O14 2.083392 1_555
Mg2 O38 2.100051 1_555
Mg2 O84 2.105259 1_555
Mg2 O11 2.113309 1_555
Mg2 O31 2.124380 1_555
Mg3 O105 2.066674 1_555
Mg3 O15 2.083392 1_555
Mg3 O39 2.100051 1_555
Mg3 O85 2.105259 1_555
Mg3 O10 2.113309 1_555
Mg3 O30 2.124380 1_455
Mg4 O27 2.072311 1_565
Mg4 O76 2.079108 1_455
Mg4 O58 2.103641 1_555
Mg4 O13 2.109856 1_455
Mg4 O100 2.132497 1_555
Mg4 O18 2.144296 1_556
Mg5 O26 2.072311 1_545
Mg5 O77 2.079108 1_555
Mg5 O59 2.103641 1_555
Mg5 O12 2.109856 1_555
Mg5 O101 2.132497 1_555
Mg5 O19 2.144296 1_556
Mg6 O57 2.060786 1_455
Mg6 O72 2.066781 1_555
Mg6 O0 2.084089 1_555
Mg6 O92 2.091958 1_555
Mg6 O62 2.092909 1_555
Mg6 O21 2.094705 1_555
Mg7 O56 2.060786 1_555
Mg7 O73 2.066781 1_555
Mg7 O1 2.084089 1_555
Mg7 O93 2.091958 1_555
Mg7 O63 2.092909 1_555
Mg7 O20 2.094705 1_555
Mg8 O28 2.078026 1_555
Mg8 O35 2.092920 1_555
Mg8 O96 2.098907 1_555
Mg8 O7 2.103035 1_555
Mg8 O91 2.106019 1_555
Mg8 O79 2.110643 1_565
Mg9 O29 2.078026 1_555
Mg9 O34 2.092920 1_555
Mg9 O97 2.098907 1_555
Mg9 O6 2.103035 1_555
Mg9 O90 2.106019 1_555
Mg9 O78 2.110643 1_545
Mg10 O68 2.069162 1_555
Mg10 O25 2.074213 1_555
Mg10 O66 2.088315 1_555
Mg10 O32 2.089570 1_554
Mg10 O55 2.121685 1_555
Mg10 O82 2.150249 1_555
Mg11 O69 2.069162 1_555
Mg11 O24 2.074213 1_655
Mg11 O67 2.088315 1_655
Mg11 O33 2.089570 1_554
Mg11 O54 2.121685 1_555
Mg11 O83 2.150249 1_655
O0 P6 1.499699 1_555
O1 P7 1.499699 1_555
O2 P26 1.633680 1_555
O2 P0 1.634924 1_555
O3 P27 1.633680 1_555
O3 P1 1.634924 1_555
O4 P8 1.621313 1_555
O4 P16 1.623336 1_555
O5 P9 1.621313 1_555
O5 P17 1.623336 1_555
O6 P12 1.502363 1_545
O7 P13 1.502363 1_565
O8 P20 1.500214 1_565
O9 P21 1.500214 1_545
O10 P0 1.503548 1_555
O11 P1 1.503548 1_555
O12 P16 1.502958 1_545
O13 P17 1.502958 1_565
O14 P2 1.482509 1_555
O15 P3 1.482509 1_555
O16 P22 1.620531 1_455
O16 P34 1.624960 1_555
O17 P23 1.620531 1_555
O17 P35 1.624960 1_555
O18 P34 1.497268 1_555
O19 P35 1.497268 1_555
O20 P28 1.492734 1_555
O21 P29 1.492734 1_455
O22 P18 1.622156 1_555
O22 P0 1.632708 1_655
O23 P19 1.622156 1_555
O23 P1 1.632708 1_555
O24 P22 1.494082 1_455
O25 P23 1.494082 1_555
O26 P8 1.496742 1_555
O27 P9 1.496742 1_455
O28 P12 1.491619 1_455
O29 P13 1.491619 1_555
O30 P18 1.504044 1_555
O31 P19 1.504044 1_555
O32 P28 1.506665 1_555
O33 P29 1.506665 1_555
O34 P24 1.508428 1_555
O35 P25 1.508428 1_555
O36 P20 1.621373 1_555
O36 P26 1.622350 1_655
O37 P21 1.621373 1_555
O37 P27 1.622350 1_555
O38 P18 1.494550 1_555
O39 P19 1.494550 1_555
O40 P30 1.623511 1_555
O40 P10 1.639300 1_555
O41 P31 1.623511 1_555
O41 P11 1.639300 1_555
O42 P26 1.499044 1_555
O43 P27 1.499044 1_555
O44 P6 1.617706 1_555
O44 P10 1.621277 1_555
O45 P7 1.617706 1_555
O45 P11 1.621277 1_555
O46 P12 1.620271 1_555
O46 P4 1.624598 1_555
O47 P13 1.620271 1_555
O47 P5 1.624598 1_555
O48 P20 1.489010 1_555
O49 P21 1.489010 1_555
O50 P24 1.495437 1_555
O51 P25 1.495437 1_555
O52 P14 1.617914 1_555
O52 P24 1.624208 1_555
O53 P15 1.617914 1_555
O53 P25 1.624208 1_555
O54 P32 1.500675 1_555
O55 P33 1.500675 1_555
O56 P6 1.486336 1_555
O57 P7 1.486336 1_555
O58 P30 1.506838 1_555
O59 P31 1.506838 1_555
O60 P16 1.610941 1_555
O60 P30 1.636138 1_555
O61 P17 1.610941 1_555
O61 P31 1.636138 1_555
O62 P10 1.499582 1_555
O63 P11 1.499582 1_555
O64 P32 1.621303 1_555
O64 P2 1.629714 1_555
O65 P33 1.621303 1_555
O65 P3 1.629714 1_555
O66 P2 1.502126 1_555
O67 P3 1.502126 1_555
O68 P8 1.502275 1_554
O69 P9 1.502275 1_554
O70 P34 1.623652 1_655
O70 P12 1.632892 1_555
O71 P35 1.623652 1_555
O71 P13 1.632892 1_555
O72 P0 1.489857 1_555
O73 P1 1.489857 1_555
O74 P8 1.613428 1_555
O74 P28 1.631414 1_555
O75 P9 1.613428 1_455
O75 P29 1.631414 1_455
O76 P22 1.499722 1_556
O77 P23 1.499722 1_556
O78 P4 1.499041 1_555
O79 P5 1.499041 1_555
O80 P22 1.623255 1_555
O80 P32 1.629103 1_555
O81 P23 1.623255 1_555
O81 P33 1.629103 1_555
O82 P32 1.498998 1_555
O83 P33 1.498998 1_555
O84 P4 1.493454 1_555
O85 P5 1.493454 1_555
O86 P30 1.490258 1_555
O87 P31 1.490258 1_555
O88 P24 1.607193 1_555
O88 P20 1.648293 1_555
O89 P25 1.607193 1_555
O89 P21 1.648293 1_555
O90 P14 1.509819 1_555
O91 P15 1.509819 1_555
O92 P26 1.496095 1_555
O93 P27 1.496095 1_555
O94 P28 1.604837 1_555
O94 P6 1.655453 1_555
O95 P29 1.604837 1_555
O95 P7 1.655453 1_555
O96 P34 1.498727 1_555
O97 P35 1.498727 1_555
O98 P10 1.497530 1_555
O99 P11 1.497530 1_555
O100 P16 1.504174 1_555
O101 P17 1.504174 1_555
O102 P4 1.626105 1_555
O102 P2 1.634987 1_555
O103 P5 1.626105 1_555
O103 P3 1.634987 1_555
O104 P14 1.489818 1_555
O105 P15 1.489818 1_555
O106 P14 1.627335 1_555
O106 P18 1.632041 1_555
O107 P15 1.627335 1_555
O107 P19 1.632041 1_555
