# generated using pymatgen
data_MgTiP2O7
_symmetry_space_group_name_H-M   'P 1'
_cell_length_a   8.63115700
_cell_length_b   7.04935100
_cell_length_c   9.23377178
_cell_angle_alpha   66.35873966
_cell_angle_beta   90.00000000
_cell_angle_gamma   90.00000000
_symmetry_Int_Tables_number   1
_chemical_formula_structural   MgTiP2O7
_chemical_formula_sum   'Mg4 Ti4 P8 O28'
_cell_volume   514.66891125
_cell_formula_units_Z   4
loop_
 _symmetry_equiv_pos_site_id
 _symmetry_equiv_pos_as_xyz
  1  'x, y, z'
loop_
 _atom_site_type_symbol
 _atom_site_label
 _atom_site_symmetry_multiplicity
 _atom_site_fract_x
 _atom_site_fract_y
 _atom_site_fract_z
 _atom_site_occupancy
  Mg  Mg0  1  0.93984200  0.69639600  0.18210900  1
  Mg  Mg1  1  0.43984200  0.30360400  0.31789100  1
  Mg  Mg2  1  0.56015800  0.69639600  0.68210900  1
  Mg  Mg3  1  0.06015800  0.30360400  0.81789100  1
  Ti  Ti0  1  0.06945500  0.22288300  0.40147400  1
  Ti  Ti1  1  0.93054500  0.77711700  0.59852600  1
  Ti  Ti2  1  0.56945500  0.77711700  0.09852600  1
  Ti  Ti3  1  0.43054500  0.22288300  0.90147400  1
  P  P0  1  0.73881600  0.06326900  0.75176400  1
  P  P1  1  0.22135200  0.52687100  0.03581100  1
  P  P2  1  0.76118400  0.06326900  0.25176400  1
  P  P3  1  0.27864800  0.52687100  0.53581100  1
  P  P4  1  0.23881600  0.93673100  0.74823600  1
  P  P5  1  0.72135200  0.47312900  0.46418900  1
  P  P6  1  0.77864800  0.47312900  0.96418900  1
  P  P7  1  0.26118400  0.93673100  0.24823600  1
  O  O0  1  0.17457000  0.74814300  0.90439400  1
  O  O1  1  0.60712900  0.11773300  0.30197700  1
  O  O2  1  0.89287100  0.11773300  0.80197700  1
  O  O3  1  0.38163200  0.54256400  0.10404700  1
  O  O4  1  0.82543000  0.25185700  0.09560600  1
  O  O5  1  0.10935100  0.97181500  0.62563900  1
  O  O6  1  0.61836800  0.45743600  0.89595300  1
  O  O7  1  0.09051900  0.48468400  0.15855800  1
  O  O8  1  0.27682200  0.37306500  0.45505400  1
  O  O9  1  0.89064900  0.02818500  0.37436100  1
  O  O10  1  0.39064900  0.97181500  0.12563900  1
  O  O11  1  0.75900300  0.88082200  0.19971000  1
  O  O12  1  0.25900300  0.11917800  0.30029000  1
  O  O13  1  0.32543000  0.74814300  0.40439400  1
  O  O14  1  0.60935100  0.02818500  0.87436100  1
  O  O15  1  0.10712900  0.88226700  0.19802300  1
  O  O16  1  0.24099700  0.11917800  0.80029000  1
  O  O17  1  0.90948100  0.51531600  0.84144200  1
  O  O18  1  0.22317800  0.37306500  0.95505400  1
  O  O19  1  0.77682200  0.62693500  0.04494600  1
  O  O20  1  0.88163200  0.45743600  0.39595300  1
  O  O21  1  0.40948100  0.48468400  0.65855800  1
  O  O22  1  0.59051900  0.51531600  0.34144200  1
  O  O23  1  0.39287100  0.88226700  0.69802300  1
  O  O24  1  0.74099700  0.88082200  0.69971000  1
  O  O25  1  0.11836800  0.54256400  0.60404700  1
  O  O26  1  0.72317800  0.62693500  0.54494600  1
  O  O27  1  0.67457000  0.25185700  0.59560600  1
loop_
_geom_bond_atom_site_label_1
_geom_bond_atom_site_label_2
_geom_bond_distance
_geom_bond_site_symmetry_2
Mg0 O15 1.994395 1_655
Mg0 O7 2.055793 1_655
Mg0 O19 2.078711 1_555
Mg0 O20 2.078778 1_555
Mg0 O11 2.079025 1_555
Mg1 O1 1.994395 1_555
Mg1 O22 2.055793 1_555
Mg1 O8 2.078711 1_555
Mg1 O3 2.078778 1_555
Mg1 O12 2.079025 1_555
Mg2 O23 1.994395 1_555
Mg2 O21 2.055793 1_555
Mg2 O26 2.078711 1_555
Mg2 O6 2.078778 1_555
Mg2 O24 2.079025 1_555
Mg3 O2 1.994395 1_455
Mg3 O17 2.055793 1_455
Mg3 O18 2.078711 1_555
Mg3 O25 2.078778 1_555
Mg3 O16 2.079025 1_555
O0 P1 1.597043 1_556
O0 P4 1.617590 1_555
O1 P2 1.507708 1_555
O2 P0 1.507708 1_555
O3 P1 1.542380 1_555
O3 Ti2 2.301509 1_555
O4 P6 1.597043 1_554
O4 P2 1.617590 1_555
O5 P4 1.538433 1_555
O5 Ti0 2.144134 1_565
O5 Ti1 2.145643 1_455
O6 P6 1.542380 1_555
O6 Ti3 2.301509 1_555
O7 P1 1.542053 1_555
O7 Ti0 2.269405 1_555
O8 P3 1.542822 1_555
O8 Ti0 2.233633 1_555
O9 P2 1.538433 1_555
O9 Ti1 2.144134 1_545
O9 Ti0 2.145643 1_655
O10 P7 1.538433 1_555
O10 Ti3 2.144134 1_564
O10 Ti2 2.145643 1_555
O11 P2 1.543152 1_565
O11 Ti2 2.152146 1_555
O12 P7 1.543152 1_545
O12 Ti0 2.152146 1_555
O13 P3 1.597043 1_555
O13 P7 1.617590 1_555
O14 P0 1.538433 1_555
O14 Ti2 2.144134 1_546
O14 Ti3 2.145643 1_555
O15 P7 1.507708 1_555
O16 P4 1.543152 1_545
O16 Ti3 2.152146 1_555
O17 P6 1.542053 1_555
O17 Ti1 2.269405 1_555
O18 P1 1.542822 1_556
O18 Ti3 2.233633 1_555
O19 P6 1.542822 1_554
O19 Ti2 2.233633 1_555
O20 P5 1.542380 1_555
O20 Ti0 2.301509 1_655
O21 P3 1.542053 1_555
O21 Ti3 2.269405 1_555
O22 P5 1.542053 1_555
O22 Ti2 2.269405 1_555
O23 P4 1.507708 1_555
O24 P0 1.543152 1_565
O24 Ti1 2.152146 1_555
O25 P3 1.542380 1_555
O25 Ti1 2.301509 1_455
O26 P5 1.542822 1_555
O26 Ti1 2.233633 1_555
O27 P5 1.597043 1_555
O27 P0 1.617590 1_555
