# generated using pymatgen
data_SrPrAlO4
_symmetry_space_group_name_H-M   'P 1'
_cell_length_a   6.80187528
_cell_length_b   6.80187528
_cell_length_c   6.80187528
_cell_angle_alpha   147.72797260
_cell_angle_beta   147.72797260
_cell_angle_gamma   46.28709574
_symmetry_Int_Tables_number   1
_chemical_formula_structural   SrPrAlO4
_chemical_formula_sum   'Sr1 Pr1 Al1 O4'
_cell_volume   89.40123606
_cell_formula_units_Z   1
loop_
 _symmetry_equiv_pos_site_id
 _symmetry_equiv_pos_as_xyz
  1  'x, y, z'
loop_
 _atom_site_type_symbol
 _atom_site_label
 _atom_site_symmetry_multiplicity
 _atom_site_fract_x
 _atom_site_fract_y
 _atom_site_fract_z
 _atom_site_occupancy
  Sr  Sr0  1  0.64347300  0.64347300  0.00000000  1
  Pr  Pr0  1  0.35944200  0.35944200  0.00000000  1
  Al  Al0  1  0.00444900  0.00444900  0.00000000  1
  O  O0  1  0.83916000  0.83916000  0.00000000  1
  O  O1  1  0.16459900  0.16459900  0.00000000  1
  O  O2  1  0.99443900  0.49443900  0.50000000  1
  O  O3  1  0.49443900  0.99443900  0.50000000  1
loop_
_geom_bond_atom_site_label_1
_geom_bond_atom_site_label_2
_geom_bond_distance
_geom_bond_site_symmetry_2
Al0 O3 1.894509 1_444
Al0 O2 1.894509 1_455
Al0 O3 1.894509 1_545
Al0 O2 1.894509 1_444
Al0 O1 2.003310 1_555
Al0 O0 2.067594 1_445
O0 Sr0 2.447841 1_555
O0 Pr0 2.685394 1_554
O0 Pr0 2.685394 1_655
O0 Pr0 2.685394 1_565
O0 Pr0 2.685394 1_666
O1 Pr0 2.437284 1_555
O1 Sr0 2.686412 1_444
O1 Sr0 2.686412 1_545
O1 Sr0 2.686412 1_556
O1 Sr0 2.686412 1_455
O2 Pr0 2.534778 1_656
O2 Pr0 2.534778 1_555
O2 Sr0 2.654987 1_656
O2 Sr0 2.654987 1_555
O3 Pr0 2.534778 1_566
O3 Pr0 2.534778 1_555
O3 Sr0 2.654987 1_555
O3 Sr0 2.654987 1_566
