# generated using pymatgen
data_MnCo21B6Mo
_symmetry_space_group_name_H-M   'P 1'
_cell_length_a   7.35672198
_cell_length_b   7.35672198
_cell_length_c   7.35672198
_cell_angle_alpha   90.00000000
_cell_angle_beta   60.00000000
_cell_angle_gamma   120.00000000
_symmetry_Int_Tables_number   1
_chemical_formula_structural   MnCo21B6Mo
_chemical_formula_sum   'Mn1 Co21 B6 Mo1'
_cell_volume   281.53865644
_cell_formula_units_Z   1
loop_
 _symmetry_equiv_pos_site_id
 _symmetry_equiv_pos_as_xyz
  1  'x, y, z'
loop_
 _atom_site_type_symbol
 _atom_site_label
 _atom_site_symmetry_multiplicity
 _atom_site_fract_x
 _atom_site_fract_y
 _atom_site_fract_z
 _atom_site_occupancy
  Mn  Mn0  1  0.50000000  0.75000000  0.75000000  1
  Co  Co0  1  0.99827200  0.99913600  0.66229200  1
  Co  Co1  1  0.33857200  0.33943600  0.66229200  1
  Co  Co2  1  0.33857200  0.99913600  0.66229200  1
  Co  Co3  1  0.00172800  0.33943600  0.99913600  1
  Co  Co4  1  0.66142800  0.99913600  0.99913600  1
  Co  Co5  1  0.66142800  0.99913600  0.33943600  1
  Co  Co6  1  0.00172800  0.66229200  0.99913600  1
  Co  Co7  1  0.66142800  0.66229200  0.33943600  1
  Co  Co8  1  0.66142800  0.66229200  0.99913600  1
  Co  Co9  1  0.99827200  0.99913600  0.33943600  1
  Co  Co10  1  0.33857200  0.99913600  0.99913600  1
  Co  Co11  1  0.33857200  0.33943600  0.99913600  1
  Co  Co12  1  0.76574600  0.38287300  0.85138100  1
  Co  Co13  1  0.23425400  0.38287300  0.38287300  1
  Co  Co14  1  0.23425400  0.85138100  0.38287300  1
  Co  Co15  1  0.76574600  0.38287300  0.38287300  1
  Co  Co16  1  0.24490100  0.62245100  0.13264800  1
  Co  Co17  1  0.75509900  0.62245100  0.62245100  1
  Co  Co18  1  0.75509900  0.13264800  0.62245100  1
  Co  Co19  1  0.24490100  0.62245100  0.62245100  1
  Co  Co20  1  0.00000000  0.00000000  0.00000000  1
  B  B0  1  0.54978300  0.27489100  0.72510900  1
  B  B1  1  0.00000000  0.72510900  0.72510900  1
  B  B2  1  0.00000000  0.27489100  0.72510900  1
  B  B3  1  0.45021700  0.72510900  0.27489100  1
  B  B4  1  0.00000000  0.27489100  0.27489100  1
  B  B5  1  0.00000000  0.72510900  0.27489100  1
  Mo  Mo0  1  0.50000000  0.25000000  0.25000000  1
loop_
_geom_bond_atom_site_label_1
_geom_bond_atom_site_label_2
_geom_bond_distance
_geom_bond_site_symmetry_2
Co0 Co20 2.490796 1_666
Co1 Co20 2.490796 1_556
Co2 Co20 2.490796 1_566
Co10 Co20 2.490796 1_566
Co11 Co20 2.490796 1_556
Co12 Mo0 2.394400 1_556
Co13 Mo0 2.394400 1_555
Co14 Mo0 2.394400 1_565
Co15 Mo0 2.394400 1_555
Co16 Mn0 2.298466 1_554
Co17 Mn0 2.298466 1_555
Co18 Mn0 2.298466 1_545
Co19 Mn0 2.298466 1_555
Co20 Co8 2.490796 1_444
Co20 Co7 2.490796 1_445
Co20 Co5 2.490796 1_445
Co20 Co6 2.490796 1_544
Co20 Co4 2.490796 1_444
Co20 Co9 2.490796 1_445
Co20 Co3 2.490796 1_554
B0 Co12 2.057184 1_555
B0 Co15 2.057190 1_555
B0 Co10 2.075870 1_545
B0 Co2 2.075874 1_545
B0 Co11 2.075874 1_555
B0 Co1 2.075878 1_555
B0 Co18 2.094455 1_555
B0 Co17 2.094462 1_555
B1 Co12 2.057189 1_455
B1 Co14 2.057189 1_555
B1 Co2 2.075871 1_555
B1 Co6 2.075871 1_555
B1 Co8 2.075871 1_455
B1 Co0 2.075871 1_455
B1 Co19 2.094455 1_555
B1 Co17 2.094455 1_455
B2 Co12 2.057189 1_455
B2 Co13 2.057189 1_555
B2 Co1 2.075871 1_555
B2 Co4 2.075871 1_445
B2 Co3 2.075871 1_555
B2 Co0 2.075871 1_445
B2 Co18 2.094455 1_455
B2 Co19 2.094461 1_555
B3 Co14 2.057184 1_555
B3 Co13 2.057190 1_555
B3 Co4 2.075870 1_554
B3 Co8 2.075874 1_554
B3 Co5 2.075874 1_555
B3 Co7 2.075878 1_555
B3 Co16 2.094455 1_555
B3 Co19 2.094462 1_555
B4 Co15 2.057189 1_455
B4 Co13 2.057189 1_555
B4 Co5 2.075871 1_445
B4 Co11 2.075871 1_554
B4 Co3 2.075871 1_554
B4 Co9 2.075871 1_445
B4 Co16 2.094461 1_555
B4 Co18 2.094461 1_455
B5 Co15 2.057189 1_455
B5 Co14 2.057189 1_555
B5 Co7 2.075871 1_455
B5 Co6 2.075871 1_554
B5 Co10 2.075871 1_554
B5 Co9 2.075871 1_455
B5 Co16 2.094455 1_555
B5 Co17 2.094461 1_455
