# generated using pymatgen
data_SrLaMg14
_symmetry_space_group_name_H-M   'P 1'
_cell_length_a   6.70283217
_cell_length_b   6.66755705
_cell_length_c   10.66231534
_cell_angle_alpha   90.00000000
_cell_angle_beta   90.00000000
_cell_angle_gamma   119.82606871
_symmetry_Int_Tables_number   1
_chemical_formula_structural   SrLaMg14
_chemical_formula_sum   'Sr1 La1 Mg14'
_cell_volume   413.39549539
_cell_formula_units_Z   1
loop_
 _symmetry_equiv_pos_site_id
 _symmetry_equiv_pos_as_xyz
  1  'x, y, z'
loop_
 _atom_site_type_symbol
 _atom_site_label
 _atom_site_symmetry_multiplicity
 _atom_site_fract_x
 _atom_site_fract_y
 _atom_site_fract_z
 _atom_site_occupancy
  Sr  Sr0  1  0.17136897  0.83568399  0.12500000  1
  La  La0  1  0.17275523  0.33637712  0.12500000  1
  Mg  Mg0  1  0.16465646  0.33232773  0.62500000  1
  Mg  Mg1  1  0.16545964  0.83272932  0.62500000  1
  Mg  Mg2  1  0.66519797  0.33138446  0.12500000  1
  Mg  Mg3  1  0.66762634  0.33345653  0.62500000  1
  Mg  Mg4  1  0.66519797  0.83381251  0.12500000  1
  Mg  Mg5  1  0.66762634  0.83416881  0.62500000  1
  Mg  Mg6  1  0.33947529  0.17188355  0.39002113  1
  Mg  Mg7  1  0.33947529  0.17188355  0.85997887  1
  Mg  Mg8  1  0.33947529  0.66759274  0.39002113  1
  Mg  Mg9  1  0.33947529  0.66759274  0.85997887  1
  Mg  Mg10  1  0.82743655  0.16371877  0.37978689  1
  Mg  Mg11  1  0.82743655  0.16371877  0.87021311  1
  Mg  Mg12  1  0.82366843  0.66183471  0.38138428  1
  Mg  Mg13  1  0.82366843  0.66183471  0.86861572  1
loop_
_geom_bond_atom_site_label_1
_geom_bond_atom_site_label_2
_geom_bond_distance
_geom_bond_site_symmetry_2
La0 Mg4 3.317443 1_555
La0 Mg2 3.317444 1_555
La0 Sr0 3.333788 1_545
La0 Sr0 3.333788 1_555
La0 Mg10 3.378187 1_455
La0 Mg11 3.378187 1_454
La0 Mg4 3.385637 1_445
La0 Mg2 3.385637 1_455
La0 Mg7 3.414043 1_554
La0 Mg6 3.414043 1_555
La0 Mg9 3.414049 1_554
La0 Mg8 3.414049 1_555
Mg0 Mg6 3.168840 1_555
Mg0 Mg7 3.168840 1_555
Mg0 Mg8 3.168846 1_555
Mg0 Mg9 3.168846 1_555
Mg0 Mg10 3.268186 1_455
Mg0 Mg11 3.268186 1_455
Mg0 Mg1 3.333782 1_555
Mg0 Mg1 3.333782 1_545
Mg0 Mg5 3.335259 1_445
Mg0 Mg3 3.335259 1_455
Mg0 Mg5 3.367585 1_555
Mg0 Mg3 3.367586 1_555
Mg1 Mg9 3.182365 1_555
Mg1 Mg8 3.182365 1_555
Mg1 Mg6 3.182372 1_565
Mg1 Mg7 3.182372 1_565
Mg1 Mg13 3.270661 1_455
Mg1 Mg12 3.270661 1_455
Mg1 Mg3 3.341677 1_455
Mg1 Mg5 3.341677 1_455
Mg1 Mg3 3.361175 1_565
Mg1 Mg5 3.361176 1_555
Mg2 Sr0 3.316277 1_545
Mg2 Mg4 3.317589 1_545
Mg2 Mg4 3.349968 1_555
Mg2 Sr0 3.386590 1_655
Mg2 Mg6 3.401881 1_555
Mg2 Mg7 3.401881 1_554
Mg3 Mg6 3.149379 1_555
Mg3 Mg7 3.149379 1_555
Mg3 Mg5 3.329029 1_545
Mg3 Mg5 3.338528 1_555
Mg4 Sr0 3.316277 1_555
Mg4 Sr0 3.386590 1_655
Mg4 Mg9 3.401881 1_554
Mg4 Mg8 3.401881 1_555
Mg5 Mg8 3.149378 1_555
Mg5 Mg9 3.149378 1_555
Mg6 Mg8 3.305169 1_555
Mg6 Mg8 3.362388 1_545
Mg6 Sr0 3.430278 1_545
Mg7 Mg9 3.305169 1_555
Mg7 Mg9 3.362388 1_545
Mg7 Sr0 3.430278 1_546
Mg8 Sr0 3.430271 1_555
Mg9 Sr0 3.430271 1_556
Mg10 Mg3 3.235736 1_555
Mg10 Mg5 3.235743 1_545
Mg10 Mg8 3.299941 1_545
Mg10 Mg6 3.299942 1_555
Mg10 Mg2 3.319882 1_555
Mg10 Mg4 3.319889 1_545
Mg10 Mg12 3.333894 1_545
Mg10 Mg12 3.333894 1_555
Mg10 Mg8 3.407109 1_655
Mg10 Mg6 3.407109 1_655
Mg11 Mg3 3.235736 1_555
Mg11 Mg5 3.235743 1_545
Mg11 Mg9 3.299941 1_545
Mg11 Mg7 3.299942 1_555
Mg11 Mg2 3.319882 1_556
Mg11 Mg4 3.319889 1_546
Mg11 Mg13 3.333894 1_545
Mg11 Mg13 3.333894 1_555
Mg11 Mg9 3.407109 1_655
Mg11 Mg7 3.407109 1_655
Mg12 Mg5 3.218199 1_555
Mg12 Mg3 3.218206 1_555
Mg12 Mg6 3.266028 1_555
Mg12 Mg8 3.266029 1_555
Mg12 Mg4 3.335799 1_555
Mg12 Mg2 3.335806 1_555
Mg12 Sr0 3.400117 1_655
Mg12 Mg6 3.439666 1_665
Mg12 Mg8 3.439666 1_655
Mg13 Mg5 3.218199 1_555
Mg13 Mg3 3.218206 1_555
Mg13 Mg7 3.266028 1_555
Mg13 Mg9 3.266029 1_555
Mg13 Mg4 3.335799 1_556
Mg13 Mg2 3.335806 1_556
Mg13 Sr0 3.400117 1_656
Mg13 Mg7 3.439666 1_665
Mg13 Mg9 3.439666 1_655
