# generated using pymatgen
data_Na4Al3Si3ClO16
_symmetry_space_group_name_H-M   'P 1'
_cell_length_a   9.18614100
_cell_length_b   9.19562664
_cell_length_c   9.19773292
_cell_angle_alpha   90.14052392
_cell_angle_beta   90.01348029
_cell_angle_gamma   90.06883750
_symmetry_Int_Tables_number   1
_chemical_formula_structural   Na4Al3Si3ClO16
_chemical_formula_sum   'Na8 Al6 Si6 Cl2 O32'
_cell_volume   776.95094566
_cell_formula_units_Z   2
loop_
 _symmetry_equiv_pos_site_id
 _symmetry_equiv_pos_as_xyz
  1  'x, y, z'
loop_
 _atom_site_type_symbol
 _atom_site_label
 _atom_site_symmetry_multiplicity
 _atom_site_fract_x
 _atom_site_fract_y
 _atom_site_fract_z
 _atom_site_occupancy
  Na  Na0  1  0.78494700  0.22092600  0.21346400  1
  Na  Na1  1  0.21881600  0.77919300  0.21790600  1
  Na  Na2  1  0.71867000  0.71182800  0.28289000  1
  Na  Na3  1  0.28605900  0.28313100  0.28524900  1
  Na  Na4  1  0.27427800  0.72837400  0.72761800  1
  Na  Na5  1  0.71950700  0.27852700  0.72053000  1
  Na  Na6  1  0.79076600  0.78747500  0.79058600  1
  Na  Na7  1  0.21757500  0.21504800  0.78510900  1
  Al  Al0  1  0.49984800  0.75019200  0.99872700  1
  Al  Al1  1  0.00026600  0.49956200  0.25159400  1
  Al  Al2  1  0.75057700  0.00023800  0.49936200  1
  Al  Al3  1  0.25081000  0.99983800  0.49912100  1
  Al  Al4  1  0.00144000  0.49935000  0.75062200  1
  Al  Al5  1  0.50142700  0.24936700  0.00038500  1
  Si  Si0  1  0.25046200  0.49932800  0.00081800  1
  Si  Si1  1  0.75181200  0.49953300  0.00142800  1
  Si  Si2  1  0.50005000  0.99951700  0.24946700  1
  Si  Si3  1  0.00135400  0.24972900  0.49982500  1
  Si  Si4  1  0.00018000  0.74974400  0.50208700  1
  Si  Si5  1  0.50180500  0.99982600  0.74888600  1
  Cl  Cl0  1  0.00746000  0.01726200  0.98287500  1
  Cl  Cl1  1  0.51297500  0.47982900  0.52886200  1
  O  O0  1  0.34966100  0.35781000  0.04291000  1
  O  O1  1  0.65200900  0.64270500  0.03945300  1
  O  O2  1  0.15413300  0.54079800  0.14572000  1
  O  O3  1  0.84441900  0.46067400  0.14848500  1
  O  O4  1  0.45804100  0.85604800  0.15221600  1
  O  O5  1  0.54268500  0.14350600  0.15396300  1
  O  O6  1  0.64311200  0.95735500  0.34655100  1
  O  O7  1  0.35302300  0.03958800  0.34248300  1
  O  O8  1  0.95979800  0.65024500  0.36063500  1
  O  O9  1  0.04426400  0.34719000  0.35743600  1
  O  O10  1  0.54157200  0.53729800  0.38326700  1
  O  O11  1  0.14378900  0.84646800  0.45756100  1
  O  O12  1  0.85739000  0.15321400  0.45526400  1
  O  O13  1  0.85668900  0.84763300  0.54075100  1
  O  O14  1  0.14471300  0.15278900  0.54060400  1
  O  O15  1  0.50017900  0.32111600  0.52062100  1
  O  O16  1  0.37682700  0.53976300  0.58379600  1
  O  O17  1  0.63338000  0.51759500  0.62665600  1
  O  O18  1  0.03986400  0.65574700  0.64753200  1
  O  O19  1  0.96049300  0.34532500  0.64453500  1
  O  O20  1  0.36022600  0.95841000  0.64891700  1
  O  O21  1  0.64597200  0.03975100  0.65330500  1
  O  O22  1  0.54008100  0.85588000  0.84578700  1
  O  O23  1  0.46047200  0.14352700  0.84668100  1
  O  O24  1  0.15449000  0.45754900  0.85730300  1
  O  O25  1  0.85092100  0.53842400  0.86034900  1
  O  O26  1  0.13197800  0.97902500  0.88548200  1
  O  O27  1  0.87211000  0.03130500  0.89567700  1
  O  O28  1  0.34419100  0.64580400  0.96201100  1
  O  O29  1  0.65611500  0.35428000  0.96214600  1
  O  O30  1  0.92420200  0.79339200  0.05633300  1
  O  O31  1  0.03891400  0.16267000  0.05065700  1
loop_
_geom_bond_atom_site_label_1
_geom_bond_atom_site_label_2
_geom_bond_distance
_geom_bond_site_symmetry_2
Na0 O3 2.349423 1_555
Na0 O5 2.398478 1_555
Na0 O12 2.404968 1_555
Na0 O31 2.823622 1_655
Na0 O29 2.874672 1_554
Na0 O9 2.959811 1_655
Na0 O6 3.012980 1_545
Na1 O2 2.364135 1_555
Na1 O4 2.385950 1_555
Na1 O11 2.389902 1_555
Na1 O30 3.090288 1_455
Na2 O8 2.396386 1_555
Na2 O1 2.404968 1_555
Na2 O6 2.433029 1_555
Na2 O10 2.465046 1_555
Na2 O30 2.911297 1_555
Na3 O7 2.383266 1_555
Na3 O9 2.392346 1_555
Na3 O0 2.405910 1_555
Na3 O14 2.941144 1_555
Na3 O5 2.943636 1_555
Na3 O15 2.944525 1_555
Na3 O2 2.958184 1_555
Na4 O18 2.370435 1_555
Na4 O20 2.371859 1_555
Na4 O16 2.374596 1_555
Na4 O28 2.375996 1_555
Na5 O21 2.376821 1_555
Na5 O29 2.399384 1_555
Na5 O19 2.401260 1_555
Na5 O17 2.493493 1_555
Na5 O15 2.756310 1_555
Na6 O22 2.441094 1_555
Na6 O13 2.441157 1_555
Na6 O25 2.443787 1_555
Na6 O27 2.550491 1_565
Na6 O30 2.734536 1_556
Na6 O18 2.904290 1_655
Na6 O1 2.940877 1_556
Na6 O21 2.960766 1_565
Na7 O23 2.395133 1_555
Na7 O24 2.396966 1_555
Na7 O14 2.413572 1_555
Na7 O26 2.487408 1_545
Na7 O31 2.982752 1_556
Al0 O22 1.751004 1_555
Al0 O28 1.753550 1_555
Al0 O1 1.753832 1_556
Al0 O4 1.755698 1_556
Al1 O8 1.748890 1_455
Al1 O3 1.753089 1_455
Al1 O9 1.755612 1_555
Al1 O2 1.758144 1_555
Al2 O21 1.749053 1_555
Al2 O13 1.752158 1_545
Al2 O6 1.761024 1_545
Al2 O12 1.762319 1_555
Al3 O20 1.748287 1_555
Al3 O14 1.753423 1_565
Al3 O7 1.758771 1_565
Al3 O11 1.759407 1_555
Al4 O25 1.749162 1_455
Al4 O24 1.757759 1_555
Al4 O19 1.758245 1_455
Al4 O18 1.760004 1_555
Al5 O29 1.752778 1_554
Al5 O23 1.754860 1_554
Al5 O0 1.758612 1_555
Al5 O5 1.758976 1_555
Cl0 O27 1.485344 1_455
Cl0 O26 1.494775 1_545
Cl0 O31 1.501648 1_556
Cl0 O30 2.298405 1_446
Cl1 O16 1.457332 1_555
Cl1 O10 1.464545 1_555
Cl1 O15 1.465825 1_555
Cl1 O17 1.466327 1_555
O0 Si0 1.636744 1_555
O1 Si1 1.642244 1_555
O2 Si0 1.644264 1_555
O3 Si1 1.638121 1_555
O4 Si2 1.637796 1_555
O5 Si2 1.637923 1_545
O6 Si2 1.636197 1_555
O7 Si2 1.640750 1_545
O8 Si4 1.631125 1_655
O9 Si3 1.636743 1_555
O11 Si4 1.642670 1_555
O12 Si3 1.643091 1_655
O13 Si4 1.635757 1_655
O14 Si3 1.635180 1_555
O18 Si4 1.635795 1_555
O19 Si3 1.637225 1_655
O20 Si5 1.636612 1_555
O21 Si5 1.631714 1_545
O22 Si5 1.636111 1_555
O23 Si5 1.641627 1_545
O24 Si0 1.631999 1_556
O25 Si1 1.625611 1_556
O28 Si0 1.637894 1_556
O29 Si1 1.637703 1_556
