# generated using pymatgen
data_NdS2
_symmetry_space_group_name_H-M   'P 1'
_cell_length_a   4.05281761
_cell_length_b   8.07084429
_cell_length_c   8.12705658
_cell_angle_alpha   90.05066994
_cell_angle_beta   90.00000000
_cell_angle_gamma   90.00000000
_symmetry_Int_Tables_number   1
_chemical_formula_structural   NdS2
_chemical_formula_sum   'Nd4 S8'
_cell_volume   265.83315229
_cell_formula_units_Z   4
loop_
 _symmetry_equiv_pos_site_id
 _symmetry_equiv_pos_as_xyz
  1  'x, y, z'
loop_
 _atom_site_type_symbol
 _atom_site_label
 _atom_site_symmetry_multiplicity
 _atom_site_fract_x
 _atom_site_fract_y
 _atom_site_fract_z
 _atom_site_occupancy
  Nd  Nd0  1  0.71052925  0.62949433  0.27586964  1
  Nd  Nd1  1  0.21052925  0.87050567  0.72413036  1
  Nd  Nd2  1  0.28947075  0.37050567  0.72413036  1
  Nd  Nd3  1  0.78947075  0.12949433  0.27586964  1
  S  S0  1  0.15405153  0.60676555  0.00272607  1
  S  S1  1  0.65405153  0.89323445  0.99727393  1
  S  S2  1  0.84594847  0.39323445  0.99727393  1
  S  S3  1  0.34594847  0.10676555  0.00272607  1
  S  S4  1  0.76115898  0.12555441  0.63284437  1
  S  S5  1  0.26115898  0.37444559  0.36715563  1
  S  S6  1  0.23884102  0.87444559  0.36715563  1
  S  S7  1  0.73884102  0.62555441  0.63284437  1
loop_
_geom_bond_atom_site_label_1
_geom_bond_atom_site_label_2
_geom_bond_distance
_geom_bond_site_symmetry_2
Nd0 S5 2.847310 1_555
Nd0 S6 2.847921 1_555
Nd0 S0 2.862121 1_655
Nd0 S7 2.903624 1_555
Nd0 S6 3.006778 1_655
Nd0 S2 3.009313 1_554
Nd0 S1 3.117421 1_554
Nd0 S5 3.125763 1_655
Nd0 S0 3.169711 1_555
Nd1 S4 2.847310 1_465
Nd1 S7 2.847921 1_455
Nd1 S1 2.862121 1_555
Nd1 S6 2.903624 1_555
Nd1 S7 3.006778 1_555
Nd1 S3 3.009313 1_566
Nd1 S0 3.117421 1_556
Nd1 S4 3.125763 1_565
Nd1 S1 3.169711 1_455
Nd2 S7 2.847310 1_555
Nd2 S4 2.847921 1_555
Nd2 S2 2.862121 1_455
Nd2 S5 2.903624 1_555
Nd2 S4 3.006778 1_455
Nd2 S0 3.009313 1_556
Nd2 S3 3.117421 1_556
Nd2 S7 3.125763 1_455
Nd2 S2 3.169711 1_555
Nd3 S6 2.847310 1_645
Nd3 S5 2.847921 1_655
Nd3 S3 2.862121 1_555
Nd3 S4 2.903624 1_555
Nd3 S5 3.006778 1_555
Nd3 S1 3.009313 1_544
Nd3 S2 3.117421 1_554
Nd3 S6 3.125763 1_545
Nd3 S3 3.169711 1_655
S0 S2 2.128631 1_454
S1 S3 2.128631 1_566
