# generated using pymatgen
data_Co2Si
_symmetry_space_group_name_H-M   'P 1'
_cell_length_a   3.70480194
_cell_length_b   4.85567766
_cell_length_c   6.96650294
_cell_angle_alpha   89.99972859
_cell_angle_beta   90.00000000
_cell_angle_gamma   90.00000000
_symmetry_Int_Tables_number   1
_chemical_formula_structural   Co2Si
_chemical_formula_sum   'Co8 Si4'
_cell_volume   125.32267864
_cell_formula_units_Z   4
loop_
 _symmetry_equiv_pos_site_id
 _symmetry_equiv_pos_as_xyz
  1  'x, y, z'
loop_
 _atom_site_type_symbol
 _atom_site_label
 _atom_site_symmetry_multiplicity
 _atom_site_fract_x
 _atom_site_fract_y
 _atom_site_fract_z
 _atom_site_occupancy
  Co  Co0  1  0.75000000  0.82747291  0.56358677  1
  Co  Co1  1  0.25000000  0.17254552  0.43645345  1
  Co  Co2  1  0.75000000  0.32746631  0.93641405  1
  Co  Co3  1  0.25000000  0.67254988  0.06354567  1
  Co  Co4  1  0.25000000  0.53580244  0.72140100  1
  Co  Co5  1  0.75000000  0.46418917  0.27862755  1
  Co  Co6  1  0.25000000  0.03581643  0.77859598  1
  Co  Co7  1  0.75000000  0.96419819  0.22137193  1
  Si  Si0  1  0.25000000  0.20087232  0.10367987  1
  Si  Si1  1  0.75000000  0.79910858  0.89629264  1
  Si  Si2  1  0.25000000  0.70088030  0.39632492  1
  Si  Si3  1  0.75000000  0.29909995  0.60370417  1
loop_
_geom_bond_atom_site_label_1
_geom_bond_atom_site_label_2
_geom_bond_distance
_geom_bond_site_symmetry_2
Co0 Si2 2.273105 1_555
Co0 Si2 2.273105 1_655
Co0 Si3 2.307061 1_565
Co0 Si1 2.321884 1_555
Co0 Co7 2.474751 1_555
Co0 Co4 2.577959 1_555
Co0 Co4 2.577959 1_655
Co0 Si3 2.580785 1_555
Co0 Co6 2.588132 1_565
Co0 Co6 2.588132 1_665
Co0 Co1 2.650151 1_565
Co0 Co1 2.650151 1_665
Co0 Co5 2.655671 1_555
Co1 Si3 2.273015 1_455
Co1 Si3 2.273015 1_555
Co1 Si2 2.307254 1_545
Co1 Si0 2.322344 1_555
Co1 Co6 2.474270 1_555
Co1 Co5 2.577922 1_455
Co1 Co5 2.577922 1_555
Co1 Si2 2.580609 1_555
Co1 Co7 2.588431 1_445
Co1 Co7 2.588431 1_545
Co1 Co4 2.655523 1_555
Co2 Si0 2.273118 1_656
Co2 Si0 2.273118 1_556
Co2 Si1 2.307135 1_555
Co2 Si3 2.321914 1_555
Co2 Co5 2.474744 1_556
Co2 Co6 2.577921 1_655
Co2 Co6 2.577921 1_555
Co2 Si1 2.580717 1_545
Co2 Co4 2.588128 1_555
Co2 Co4 2.588128 1_655
Co2 Co3 2.650186 1_556
Co2 Co3 2.650186 1_656
Co2 Co7 2.655601 1_546
Co3 Si1 2.273026 1_554
Co3 Si1 2.273026 1_454
Co3 Si0 2.307316 1_555
Co3 Si2 2.322386 1_555
Co3 Co4 2.474315 1_554
Co3 Co7 2.577941 1_555
Co3 Co7 2.577941 1_455
Co3 Si0 2.580556 1_565
Co3 Co5 2.588452 1_555
Co3 Co5 2.588452 1_455
Co3 Co6 2.655553 1_564
Co4 Si3 2.329099 1_455
Co4 Si3 2.329099 1_555
Co4 Si2 2.402311 1_555
Co4 Co6 2.460249 1_555
Co4 Co6 2.460387 1_565
Co4 Si1 2.559394 1_555
Co4 Si1 2.559394 1_455
Co5 Si2 2.329073 1_655
Co5 Si2 2.329073 1_555
Co5 Si3 2.402333 1_555
Co5 Co7 2.460345 1_545
Co5 Co7 2.460427 1_555
Co5 Si0 2.559606 1_655
Co5 Si0 2.559606 1_555
Co6 Si1 2.329107 1_545
Co6 Si1 2.329107 1_445
Co6 Si0 2.402334 1_556
Co6 Si3 2.559334 1_555
Co6 Si3 2.559334 1_455
Co7 Si0 2.329015 1_565
Co7 Si0 2.329015 1_665
Co7 Si1 2.402358 1_554
Co7 Si2 2.559621 1_655
Co7 Si2 2.559621 1_555
