# generated using pymatgen
data_Tb2ZrS5
_symmetry_space_group_name_H-M   'P 1'
_cell_length_a   7.26873767
_cell_length_b   7.77272166
_cell_length_c   11.57731268
_cell_angle_alpha   90.00000000
_cell_angle_beta   90.00000000
_cell_angle_gamma   90.00000000
_symmetry_Int_Tables_number   1
_chemical_formula_structural   Tb2ZrS5
_chemical_formula_sum   'Tb8 Zr4 S20'
_cell_volume   654.09356149
_cell_formula_units_Z   4
loop_
 _symmetry_equiv_pos_site_id
 _symmetry_equiv_pos_as_xyz
  1  'x, y, z'
loop_
 _atom_site_type_symbol
 _atom_site_label
 _atom_site_symmetry_multiplicity
 _atom_site_fract_x
 _atom_site_fract_y
 _atom_site_fract_z
 _atom_site_occupancy
  Tb  Tb0  1  0.52284782  0.49765692  0.32129801  1
  Tb  Tb1  1  0.97715218  0.00234308  0.82129801  1
  Tb  Tb2  1  0.47715218  0.99765692  0.67870199  1
  Tb  Tb3  1  0.02284782  0.50234308  0.17870199  1
  Tb  Tb4  1  0.47715218  0.50234308  0.67870199  1
  Tb  Tb5  1  0.02284782  0.99765692  0.17870199  1
  Tb  Tb6  1  0.52284782  0.00234308  0.32129801  1
  Tb  Tb7  1  0.97715218  0.49765692  0.82129801  1
  Zr  Zr0  1  0.07740018  0.75000000  0.49357730  1
  Zr  Zr1  1  0.42259982  0.75000000  0.99357730  1
  Zr  Zr2  1  0.92259982  0.25000000  0.50642270  1
  Zr  Zr3  1  0.57740018  0.25000000  0.00642270  1
  S  S0  1  0.83883161  0.96327881  0.59370857  1
  S  S1  1  0.66116839  0.53672119  0.09370857  1
  S  S2  1  0.16116839  0.46327881  0.40629143  1
  S  S3  1  0.33883161  0.03672119  0.90629143  1
  S  S4  1  0.16116839  0.03672119  0.40629143  1
  S  S5  1  0.33883161  0.46327881  0.90629143  1
  S  S6  1  0.83883161  0.53672119  0.59370857  1
  S  S7  1  0.66116839  0.96327881  0.09370857  1
  S  S8  1  0.83279543  0.75000000  0.31772876  1
  S  S9  1  0.66720457  0.75000000  0.81772876  1
  S  S10  1  0.16720457  0.25000000  0.68227124  1
  S  S11  1  0.33279543  0.25000000  0.18227124  1
  S  S12  1  0.44895515  0.75000000  0.49712786  1
  S  S13  1  0.05104485  0.75000000  0.99712786  1
  S  S14  1  0.55104485  0.25000000  0.50287214  1
  S  S15  1  0.94895515  0.25000000  0.00287214  1
  S  S16  1  0.18945199  0.75000000  0.70816437  1
  S  S17  1  0.31054801  0.75000000  0.20816437  1
  S  S18  1  0.81054801  0.25000000  0.29183563  1
  S  S19  1  0.68945199  0.25000000  0.79183563  1
loop_
_geom_bond_atom_site_label_1
_geom_bond_atom_site_label_2
_geom_bond_distance
_geom_bond_site_symmetry_2
S0 Zr2 2.521627 1_565
S0 Zr0 2.664413 1_655
S0 Tb2 2.819759 1_555
S0 Tb1 2.836480 1_565
S1 Zr3 2.521627 1_555
S1 Zr1 2.664413 1_554
S1 Tb3 2.819759 1_655
S1 Tb0 2.836480 1_555
S2 Zr0 2.521627 1_555
S2 Zr2 2.664413 1_455
S2 Tb0 2.819759 1_555
S2 Tb3 2.836480 1_555
S3 Zr1 2.521627 1_545
S3 Zr3 2.664413 1_556
S3 Tb1 2.819759 1_455
S3 Tb2 2.836480 1_545
S4 Zr0 2.521627 1_545
S4 Zr2 2.664413 1_455
S4 Tb6 2.819759 1_555
S4 Tb5 2.836480 1_545
S5 Zr1 2.521627 1_555
S5 Zr3 2.664413 1_556
S5 Tb7 2.819759 1_455
S5 Tb4 2.836480 1_555
S6 Zr2 2.521627 1_555
S6 Zr0 2.664413 1_655
S6 Tb4 2.819759 1_555
S6 Tb7 2.836480 1_555
S7 Zr3 2.521627 1_565
S7 Zr1 2.664413 1_554
S7 Tb5 2.819759 1_655
S7 Tb6 2.836480 1_565
S8 Zr0 2.702937 1_655
S8 Tb3 2.864359 1_655
S8 Tb5 2.864359 1_655
S8 Tb6 2.987382 1_565
S8 Tb0 2.987382 1_555
S9 Zr1 2.702937 1_555
S9 Tb4 2.864359 1_555
S9 Tb2 2.864359 1_555
S9 Tb1 2.987382 1_565
S9 Tb7 2.987382 1_555
S10 Zr2 2.702937 1_455
S10 Tb7 2.864359 1_455
S10 Tb1 2.864359 1_455
S10 Tb2 2.987382 1_545
S10 Tb4 2.987382 1_555
S11 Zr3 2.702937 1_555
S11 Tb0 2.864359 1_555
S11 Tb6 2.864359 1_555
S11 Tb5 2.987382 1_545
S11 Tb3 2.987382 1_555
S12 Zr0 2.701048 1_555
S12 Tb4 2.857710 1_555
S12 Tb2 2.857710 1_555
S12 Tb0 2.877388 1_555
S12 Tb6 2.877388 1_565
S13 Zr1 2.701048 1_555
S13 Tb3 2.857710 1_556
S13 Tb5 2.857710 1_556
S13 Tb1 2.877388 1_465
S13 Tb7 2.877388 1_455
S14 Zr2 2.701048 1_555
S14 Tb0 2.857710 1_555
S14 Tb6 2.857710 1_555
S14 Tb2 2.877388 1_545
S14 Tb4 2.877388 1_555
S15 Zr3 2.701048 1_555
S15 Tb7 2.857710 1_554
S15 Tb1 2.857710 1_554
S15 Tb5 2.877388 1_645
S15 Tb3 2.877388 1_655
S16 Zr0 2.614445 1_555
S16 Tb7 2.818494 1_455
S16 Tb1 2.818494 1_465
S16 Tb4 2.862698 1_555
S16 Tb2 2.862698 1_555
S17 Zr1 2.614445 1_554
S17 Tb6 2.818494 1_565
S17 Tb0 2.818494 1_555
S17 Tb3 2.862698 1_555
S17 Tb5 2.862698 1_555
S18 Zr2 2.614445 1_555
S18 Tb5 2.818494 1_645
S18 Tb3 2.818494 1_655
S18 Tb0 2.862698 1_555
S18 Tb6 2.862698 1_555
S19 Zr3 2.614445 1_556
S19 Tb2 2.818494 1_545
S19 Tb4 2.818494 1_555
S19 Tb7 2.862698 1_555
S19 Tb1 2.862698 1_555
