# generated using pymatgen
data_Li7Mn2(CoO4)3
_symmetry_space_group_name_H-M   'P 1'
_cell_length_a   2.97662100
_cell_length_b   8.09796020
_cell_length_c   9.79171010
_cell_angle_alpha   113.75449538
_cell_angle_beta   94.03886051
_cell_angle_gamma   89.04061760
_symmetry_Int_Tables_number   1
_chemical_formula_structural   Li7Mn2(CoO4)3
_chemical_formula_sum   'Li7 Mn2 Co3 O12'
_cell_volume   215.47481030
_cell_formula_units_Z   1
loop_
 _symmetry_equiv_pos_site_id
 _symmetry_equiv_pos_as_xyz
  1  'x, y, z'
loop_
 _atom_site_type_symbol
 _atom_site_label
 _atom_site_symmetry_multiplicity
 _atom_site_fract_x
 _atom_site_fract_y
 _atom_site_fract_z
 _atom_site_occupancy
  Li  Li0  1  0.00764600  0.84073600  0.66549300  1
  Li  Li1  1  0.51314500  0.32964600  0.15579100  1
  Li  Li2  1  0.49038900  0.00689800  0.50124500  1
  Li  Li3  1  0.00527600  0.48548200  0.99459400  1
  Li  Li4  1  0.98633600  0.17286100  0.34230000  1
  Li  Li5  1  0.49176500  0.66258500  0.83391500  1
  Li  Li6  1  0.48266100  0.17646200  0.84302400  1
  Mn  Mn0  1  0.00592900  0.00405600  0.99542200  1
  Mn  Mn1  1  0.00555800  0.66731400  0.33436100  1
  Co  Co0  1  0.49615800  0.49939800  0.50320400  1
  Co  Co1  1  0.99023800  0.32609800  0.67279300  1
  Co  Co2  1  0.51737400  0.82960600  0.16219500  1
  O  O0  1  0.47846200  0.92569800  0.85346800  1
  O  O1  1  0.03212700  0.43013700  0.34423300  1
  O  O2  1  0.00148900  0.10592400  0.66015900  1
  O  O3  1  0.53416200  0.59631100  0.17115300  1
  O  O4  1  0.51943200  0.26693700  0.50757200  1
  O  O5  1  0.03781200  0.76506500  0.00958300  1
  O  O6  1  0.46840600  0.73963500  0.50144500  1
  O  O7  1  0.99359000  0.23361500  0.00313200  1
  O  O8  1  0.97989600  0.90503600  0.32241300  1
  O  O9  1  0.46569700  0.41039700  0.81850600  1
  O  O10  1  0.53038700  0.06155600  0.14568000  1
  O  O11  1  0.96606400  0.55854800  0.65832000  1
loop_
_geom_bond_atom_site_label_1
_geom_bond_atom_site_label_2
_geom_bond_distance
_geom_bond_site_symmetry_2
Li0 O6 2.084417 1_555
Li0 O6 2.109081 1_455
Li0 O0 2.115159 1_555
Li0 O2 2.168790 1_565
Li0 O11 2.262983 1_455
Li0 O0 2.386262 1_455
Li1 O7 2.002249 1_455
Li1 O7 2.052251 1_555
Li1 O3 2.105051 1_555
Li1 O10 2.132938 1_555
Li1 O1 2.210020 1_655
Li1 O1 2.289189 1_555
Li2 O2 2.020132 1_655
Li2 O4 2.084678 1_555
Li2 O2 2.111104 1_555
Li2 O8 2.135220 1_445
Li2 O6 2.167162 1_545
Li2 O8 2.241703 1_545
Li3 O7 2.075659 1_456
Li3 O9 2.163609 1_555
Li3 O3 2.164853 1_556
Li3 O9 2.172603 1_455
Li3 O3 2.193206 1_456
Li3 O5 2.212349 1_556
Li4 O1 2.082526 1_655
Li4 O8 2.098275 1_545
Li4 O4 2.098280 1_655
Li4 O4 2.102123 1_555
Li4 O10 2.153094 1_555
Li4 O10 2.476660 1_655
Li5 O9 1.988672 1_555
Li5 O0 2.060973 1_555
Li5 O11 2.147747 1_455
Li5 O5 2.147816 1_556
Li5 O5 2.188737 1_656
Li5 O11 2.189599 1_555
Li6 O9 2.002601 1_555
Li6 O7 2.021905 1_556
Li6 O0 2.074270 1_545
Li6 O2 2.103787 1_555
Li6 O7 2.122653 1_456
Li6 O2 2.335255 1_655
Mn0 O7 1.829705 1_456
Mn0 O0 1.953243 1_445
Mn0 O0 1.961632 1_545
Mn0 O10 1.991841 1_556
Mn0 O5 1.995486 1_546
Mn0 O10 2.025963 1_456
Mn1 O3 1.955563 1_455
Mn1 O1 1.961607 1_555
Mn1 O6 1.963496 1_555
Mn1 O8 1.975006 1_455
Mn1 O3 2.223483 1_555
Mn1 O6 2.267442 1_455
Co0 O4 1.900096 1_555
Co0 O11 1.905216 1_555
Co0 O1 1.914451 1_555
Co0 O6 1.952749 1_555
Co0 O11 2.179965 1_455
Co0 O1 2.213435 1_655
Co1 O2 1.736738 1_655
Co1 O9 1.862229 1_655
Co1 O11 1.943585 1_555
Co1 O4 1.972165 1_555
Co1 O9 2.105466 1_555
Co1 O4 2.244407 1_655
Co2 O5 1.907659 1_555
Co2 O8 1.918752 1_555
Co2 O3 1.925888 1_555
Co2 O10 1.950325 1_565
Co2 O5 2.139116 1_655
Co2 O8 2.223210 1_455
