# generated using pymatgen
data_BaEuNbInO6
_symmetry_space_group_name_H-M   'P 1'
_cell_length_a   5.87018138
_cell_length_b   5.87018138
_cell_length_c   5.87018138
_cell_angle_alpha   60.00000000
_cell_angle_beta   60.00000000
_cell_angle_gamma   60.00000000
_symmetry_Int_Tables_number   1
_chemical_formula_structural   BaEuNbInO6
_chemical_formula_sum   'Ba1 Eu1 Nb1 In1 O6'
_cell_volume   143.03409206
_cell_formula_units_Z   1
loop_
 _symmetry_equiv_pos_site_id
 _symmetry_equiv_pos_as_xyz
  1  'x, y, z'
loop_
 _atom_site_type_symbol
 _atom_site_label
 _atom_site_symmetry_multiplicity
 _atom_site_fract_x
 _atom_site_fract_y
 _atom_site_fract_z
 _atom_site_occupancy
  Ba  Ba0  1  0.75000000  0.75000000  0.75000000  1
  Eu  Eu0  1  0.25000000  0.25000000  0.25000000  1
  Nb  Nb0  1  0.50000000  0.50000000  0.50000000  1
  In  In0  1  -0.00000000  -0.00000000  0.00000000  1
  O  O0  1  0.74075951  0.25924049  0.25924049  1
  O  O1  1  0.25924049  0.74075951  0.74075951  1
  O  O2  1  0.74075951  0.25924049  0.74075951  1
  O  O3  1  0.25924049  0.74075951  0.25924049  1
  O  O4  1  0.74075951  0.74075951  0.25924049  1
  O  O5  1  0.25924049  0.25924049  0.74075951  1
loop_
_geom_bond_atom_site_label_1
_geom_bond_atom_site_label_2
_geom_bond_distance
_geom_bond_site_symmetry_2
Ba0 O2 2.936093 1_565
Ba0 O1 2.936093 1_555
Ba0 O4 2.936093 1_556
Ba0 O1 2.936093 1_655
Ba0 O5 2.936093 1_655
Ba0 O5 2.936093 1_565
Ba0 O3 2.936093 1_556
Ba0 O0 2.936093 1_556
Ba0 O2 2.936093 1_555
Ba0 O4 2.936093 1_555
Ba0 O0 2.936093 1_565
Ba0 O3 2.936093 1_655
Eu0 O5 2.936093 1_555
Eu0 O4 2.936093 1_455
Eu0 O1 2.936093 1_554
Eu0 O2 2.936093 1_455
Eu0 O1 2.936093 1_545
Eu0 O0 2.936093 1_455
Eu0 O4 2.936093 1_545
Eu0 O3 2.936093 1_555
Eu0 O0 2.936093 1_555
Eu0 O3 2.936093 1_545
Eu0 O2 2.936093 1_554
Eu0 O5 2.936093 1_554
Nb0 O4 1.998711 1_555
Nb0 O1 1.998711 1_555
Nb0 O2 1.998711 1_555
Nb0 O3 1.998711 1_555
Nb0 O0 1.998711 1_555
Nb0 O5 1.998711 1_555
In0 O3 2.152134 1_545
In0 O5 2.152134 1_554
In0 O0 2.152134 1_455
In0 O4 2.152134 1_445
In0 O2 2.152134 1_454
In0 O1 2.152134 1_544
