# generated using pymatgen
data_SrNdHfMnO6
_symmetry_space_group_name_H-M   'P 1'
_cell_length_a   5.70938330
_cell_length_b   5.70938330
_cell_length_c   5.70938330
_cell_angle_alpha   60.00000000
_cell_angle_beta   60.00000000
_cell_angle_gamma   60.00000000
_symmetry_Int_Tables_number   1
_chemical_formula_structural   SrNdHfMnO6
_chemical_formula_sum   'Sr1 Nd1 Hf1 Mn1 O6'
_cell_volume   131.59900451
_cell_formula_units_Z   1
loop_
 _symmetry_equiv_pos_site_id
 _symmetry_equiv_pos_as_xyz
  1  'x, y, z'
loop_
 _atom_site_type_symbol
 _atom_site_label
 _atom_site_symmetry_multiplicity
 _atom_site_fract_x
 _atom_site_fract_y
 _atom_site_fract_z
 _atom_site_occupancy
  Sr  Sr0  1  0.75000000  0.75000000  0.75000000  1
  Nd  Nd0  1  0.25000000  0.25000000  0.25000000  1
  Hf  Hf0  1  0.00000000  -0.00000000  0.00000000  1
  Mn  Mn0  1  0.50000000  0.50000000  0.50000000  1
  O  O0  1  0.74727411  0.25272589  0.25272589  1
  O  O1  1  0.25272589  0.74727411  0.74727411  1
  O  O2  1  0.74727411  0.25272589  0.74727411  1
  O  O3  1  0.25272589  0.74727411  0.25272589  1
  O  O4  1  0.74727411  0.74727411  0.25272589  1
  O  O5  1  0.25272589  0.25272589  0.74727411  1
loop_
_geom_bond_atom_site_label_1
_geom_bond_atom_site_label_2
_geom_bond_distance
_geom_bond_site_symmetry_2
Nd0 O3 2.854776 1_545
Nd0 O2 2.854776 1_554
Nd0 O3 2.854776 1_555
Nd0 O1 2.854776 1_545
Nd0 O0 2.854776 1_555
Nd0 O0 2.854776 1_455
Nd0 O1 2.854776 1_554
Nd0 O2 2.854776 1_455
Nd0 O4 2.854776 1_455
Nd0 O5 2.854776 1_555
Nd0 O5 2.854776 1_554
Nd0 O4 2.854776 1_545
Hf0 O1 2.040581 1_544
Hf0 O5 2.040581 1_554
Hf0 O0 2.040581 1_455
Hf0 O4 2.040581 1_445
Hf0 O3 2.040581 1_545
Hf0 O2 2.040581 1_454
Mn0 O3 1.996562 1_555
Mn0 O0 1.996562 1_555
Mn0 O2 1.996562 1_555
Mn0 O4 1.996562 1_555
Mn0 O1 1.996562 1_555
Mn0 O5 1.996562 1_555
O0 Sr0 2.854776 1_545
O0 Sr0 2.854776 1_554
O1 Sr0 2.854776 1_455
O1 Sr0 2.854776 1_555
O2 Sr0 2.854776 1_545
O2 Sr0 2.854776 1_555
O3 Sr0 2.854776 1_455
O3 Sr0 2.854776 1_554
O4 Sr0 2.854776 1_555
O4 Sr0 2.854776 1_554
O5 Sr0 2.854776 1_545
O5 Sr0 2.854776 1_455
