# generated using pymatgen
data_Na4Ga3Ge3B(HO3)4
_symmetry_space_group_name_H-M   'P 1'
_cell_length_a   9.24225200
_cell_length_b   9.24225200
_cell_length_c   9.24225200
_cell_angle_alpha   90.00000000
_cell_angle_beta   90.00000000
_cell_angle_gamma   90.00000000
_symmetry_Int_Tables_number   1
_chemical_formula_structural   Na4Ga3Ge3B(HO3)4
_chemical_formula_sum   'Na8 Ga6 Ge6 B2 H8 O24'
_cell_volume   789.46597566
_cell_formula_units_Z   2
loop_
 _symmetry_equiv_pos_site_id
 _symmetry_equiv_pos_as_xyz
  1  'x, y, z'
loop_
 _atom_site_type_symbol
 _atom_site_label
 _atom_site_symmetry_multiplicity
 _atom_site_fract_x
 _atom_site_fract_y
 _atom_site_fract_z
 _atom_site_occupancy
  Na  Na0  1  0.32939500  0.67060500  0.32939500  1
  Na  Na1  1  0.67060500  0.32939500  0.32939500  1
  Na  Na2  1  0.32939500  0.32939500  0.67060500  1
  Na  Na3  1  0.67060500  0.67060500  0.67060500  1
  Na  Na4  1  0.82939500  0.82939500  0.17060500  1
  Na  Na5  1  0.17060500  0.82939500  0.82939500  1
  Na  Na6  1  0.82939500  0.17060500  0.82939500  1
  Na  Na7  1  0.17060500  0.17060500  0.17060500  1
  Ga  Ga0  1  0.00000000  0.50000000  0.25000000  1
  Ga  Ga1  1  0.50000000  0.75000000  0.00000000  1
  Ga  Ga2  1  0.25000000  0.00000000  0.50000000  1
  Ga  Ga3  1  0.50000000  0.25000000  0.00000000  1
  Ga  Ga4  1  0.75000000  0.00000000  0.50000000  1
  Ga  Ga5  1  0.00000000  0.50000000  0.75000000  1
  Ge  Ge0  1  0.50000000  0.00000000  0.25000000  1
  Ge  Ge1  1  0.00000000  0.75000000  0.50000000  1
  Ge  Ge2  1  0.25000000  0.50000000  0.00000000  1
  Ge  Ge3  1  0.00000000  0.25000000  0.50000000  1
  Ge  Ge4  1  0.75000000  0.50000000  0.00000000  1
  Ge  Ge5  1  0.50000000  0.00000000  0.75000000  1
  B  B0  1  0.50000000  0.50000000  0.50000000  1
  B  B1  1  0.00000000  0.00000000  0.00000000  1
  H  H0  1  0.07685200  0.92314800  0.07685200  1
  H  H1  1  0.92314800  0.07685200  0.07685200  1
  H  H2  1  0.07685200  0.07685200  0.92314800  1
  H  H3  1  0.92314800  0.92314800  0.92314800  1
  H  H4  1  0.57685200  0.57685200  0.42314800  1
  H  H5  1  0.42314800  0.57685200  0.57685200  1
  H  H6  1  0.57685200  0.42314800  0.57685200  1
  H  H7  1  0.42314800  0.42314800  0.42314800  1
  O  O0  1  0.08103500  0.64651300  0.36084700  1
  O  O1  1  0.35348700  0.63915300  0.08103500  1
  O  O2  1  0.36084700  0.91896500  0.35348700  1
  O  O3  1  0.91896500  0.35348700  0.36084700  1
  O  O4  1  0.64651300  0.36084700  0.08103500  1
  O  O5  1  0.63915300  0.08103500  0.35348700  1
  O  O6  1  0.08103500  0.35348700  0.63915300  1
  O  O7  1  0.35348700  0.36084700  0.91896500  1
  O  O8  1  0.36084700  0.08103500  0.64651300  1
  O  O9  1  0.91896500  0.64651300  0.63915300  1
  O  O10  1  0.64651300  0.63915300  0.91896500  1
  O  O11  1  0.63915300  0.91896500  0.64651300  1
  O  O12  1  0.58103500  0.86084700  0.14651300  1
  O  O13  1  0.85348700  0.58103500  0.13915300  1
  O  O14  1  0.86084700  0.85348700  0.41896500  1
  O  O15  1  0.41896500  0.86084700  0.85348700  1
  O  O16  1  0.14651300  0.58103500  0.86084700  1
  O  O17  1  0.13915300  0.85348700  0.58103500  1
  O  O18  1  0.58103500  0.13915300  0.85348700  1
  O  O19  1  0.85348700  0.41896500  0.86084700  1
  O  O20  1  0.86084700  0.14651300  0.58103500  1
  O  O21  1  0.41896500  0.13915300  0.14651300  1
  O  O22  1  0.14651300  0.41896500  0.13915300  1
  O  O23  1  0.13915300  0.14651300  0.41896500  1
loop_
_geom_bond_atom_site_label_1
_geom_bond_atom_site_label_2
_geom_bond_distance
_geom_bond_site_symmetry_2
Na0 O2 2.324428 1_555
Na0 O1 2.324428 1_555
Na0 O0 2.324428 1_555
Na1 O3 2.324428 1_555
Na1 O4 2.324428 1_555
Na1 O5 2.324428 1_555
Na2 O7 2.324428 1_555
Na2 O8 2.324428 1_555
Na2 O6 2.324428 1_555
Na3 O11 2.324428 1_555
Na3 O10 2.324428 1_555
Na3 O9 2.324428 1_555
Na4 O12 2.324428 1_555
Na4 O13 2.324428 1_555
Na4 O14 2.324428 1_555
Na5 O16 2.324428 1_555
Na5 O17 2.324428 1_555
Na5 O15 2.324428 1_555
Na6 O20 2.324428 1_555
Na6 O18 2.324428 1_555
Na6 O19 2.324428 1_555
Na7 O21 2.324428 1_555
Na7 O23 2.324428 1_555
Na7 O22 2.324428 1_555
Ga0 O0 1.855825 1_555
Ga0 O13 1.855825 1_455
Ga0 O22 1.855825 1_555
Ga0 O3 1.855825 1_455
Ga1 O12 1.855825 1_555
Ga1 O15 1.855825 1_554
Ga1 O1 1.855825 1_555
Ga1 O10 1.855825 1_554
Ga2 O17 1.855825 1_545
Ga2 O8 1.855825 1_555
Ga2 O23 1.855825 1_555
Ga2 O2 1.855825 1_545
Ga3 O4 1.855825 1_555
Ga3 O18 1.855825 1_554
Ga3 O21 1.855825 1_555
Ga3 O7 1.855825 1_554
Ga4 O20 1.855825 1_555
Ga4 O14 1.855825 1_545
Ga4 O5 1.855825 1_555
Ga4 O11 1.855825 1_545
Ga5 O16 1.855825 1_555
Ga5 O19 1.855825 1_455
Ga5 O6 1.855825 1_555
Ga5 O9 1.855825 1_455
Ge0 O5 1.769108 1_555
Ge0 O21 1.769108 1_555
Ge0 O2 1.769108 1_545
Ge0 O12 1.769108 1_545
Ge1 O17 1.769108 1_555
Ge1 O0 1.769108 1_555
Ge1 O9 1.769108 1_455
Ge1 O14 1.769108 1_455
Ge2 O1 1.769108 1_555
Ge2 O22 1.769108 1_555
Ge2 O7 1.769108 1_554
Ge2 O16 1.769108 1_554
Ge3 O6 1.769108 1_555
Ge3 O23 1.769108 1_555
Ge3 O3 1.769108 1_455
Ge3 O20 1.769108 1_455
Ge4 O13 1.769108 1_555
Ge4 O4 1.769108 1_555
Ge4 O10 1.769108 1_554
Ge4 O19 1.769108 1_554
Ge5 O18 1.769108 1_555
Ge5 O8 1.769108 1_555
Ge5 O11 1.769108 1_545
Ge5 O15 1.769108 1_545
B0 H5 1.230251 1_555
B0 H4 1.230251 1_555
B0 H6 1.230251 1_555
B0 H7 1.230251 1_555
B1 H0 1.230251 1_545
B1 H2 1.230251 1_554
B1 H1 1.230251 1_455
B1 H3 1.230251 1_444
