# generated using pymatgen
data_PrEr3
_symmetry_space_group_name_H-M   'P 1'
_cell_length_a   7.26237201
_cell_length_b   7.26237201
_cell_length_c   5.72151384
_cell_angle_alpha   90.00000000
_cell_angle_beta   90.00000000
_cell_angle_gamma   120.00001171
_symmetry_Int_Tables_number   1
_chemical_formula_structural   PrEr3
_chemical_formula_sum   'Pr2 Er6'
_cell_volume   261.33556457
_cell_formula_units_Z   2
loop_
 _symmetry_equiv_pos_site_id
 _symmetry_equiv_pos_as_xyz
  1  'x, y, z'
loop_
 _atom_site_type_symbol
 _atom_site_label
 _atom_site_symmetry_multiplicity
 _atom_site_fract_x
 _atom_site_fract_y
 _atom_site_fract_z
 _atom_site_occupancy
  Pr  Pr0  1  0.33333300  0.66666700  0.75000000  1
  Pr  Pr1  1  0.66666700  0.33333300  0.25000000  1
  Er  Er0  1  0.16453299  0.32906599  0.25000000  1
  Er  Er1  1  0.67093401  0.83546701  0.25000000  1
  Er  Er2  1  0.16453299  0.83546701  0.25000000  1
  Er  Er3  1  0.83546701  0.67093401  0.75000000  1
  Er  Er4  1  0.32906599  0.16453299  0.75000000  1
  Er  Er5  1  0.83546701  0.16453299  0.75000000  1
loop_
_geom_bond_atom_site_label_1
_geom_bond_atom_site_label_2
_geom_bond_distance
_geom_bond_site_symmetry_2
Er0 Er5 3.530904 1_454
Er0 Er5 3.530904 1_455
Er0 Er4 3.530905 1_554
Er0 Er4 3.530905 1_555
Er0 Pr0 3.562634 1_555
Er0 Pr0 3.562634 1_554
Er0 Er1 3.584699 1_445
Er0 Er2 3.584699 1_545
Er0 Pr1 3.631282 1_455
Er0 Pr1 3.631289 1_555
Er0 Er1 3.677672 1_555
Er0 Er2 3.677673 1_555
Er1 Er5 3.530904 1_564
Er1 Er5 3.530904 1_565
Er1 Er3 3.530905 1_555
Er1 Er3 3.530905 1_554
Er1 Pr0 3.562634 1_555
Er1 Pr0 3.562634 1_554
Er1 Er2 3.584699 1_655
Er1 Pr1 3.631282 1_565
Er1 Pr1 3.631289 1_555
Er1 Er2 3.677673 1_555
Er2 Er3 3.530904 1_455
Er2 Er3 3.530904 1_454
Er2 Er4 3.530904 1_565
Er2 Er4 3.530904 1_564
Er2 Pr0 3.562631 1_554
Er2 Pr0 3.562631 1_555
Er2 Pr1 3.631285 1_455
Er2 Pr1 3.631285 1_565
Er3 Pr1 3.562634 1_556
Er3 Pr1 3.562634 1_555
Er3 Er4 3.584699 1_665
Er3 Er5 3.584699 1_565
Er3 Pr0 3.631282 1_655
Er3 Pr0 3.631289 1_555
Er3 Er4 3.677672 1_555
Er3 Er5 3.677673 1_555
Er4 Pr1 3.562634 1_556
Er4 Pr1 3.562634 1_555
Er4 Er5 3.584699 1_455
Er4 Pr0 3.631282 1_545
Er4 Pr0 3.631289 1_555
Er4 Er5 3.677673 1_555
Er5 Pr1 3.562631 1_556
Er5 Pr1 3.562631 1_555
Er5 Pr0 3.631285 1_545
Er5 Pr0 3.631285 1_655
