# generated using pymatgen
data_KZnHCl3
_symmetry_space_group_name_H-M   'P 1'
_cell_length_a   6.66598400
_cell_length_b   8.98759600
_cell_length_c   11.82089700
_cell_angle_alpha   90.00000000
_cell_angle_beta   90.00000000
_cell_angle_gamma   90.00000000
_symmetry_Int_Tables_number   1
_chemical_formula_structural   KZnHCl3
_chemical_formula_sum   'K4 Zn4 H4 Cl12'
_cell_volume   708.20378313
_cell_formula_units_Z   4
loop_
 _symmetry_equiv_pos_site_id
 _symmetry_equiv_pos_as_xyz
  1  'x, y, z'
loop_
 _atom_site_type_symbol
 _atom_site_label
 _atom_site_symmetry_multiplicity
 _atom_site_fract_x
 _atom_site_fract_y
 _atom_site_fract_z
 _atom_site_occupancy
  K  K0  1  0.18920200  0.01348700  0.00657800  1
  K  K1  1  0.31079800  0.98651300  0.50657800  1
  K  K2  1  0.81079800  0.51348700  0.49342200  1
  K  K3  1  0.68920200  0.48651300  0.99342200  1
  Zn  Zn0  1  0.26684000  0.39086600  0.24439900  1
  Zn  Zn1  1  0.23316000  0.60913400  0.74439900  1
  Zn  Zn2  1  0.73316000  0.89086600  0.25560100  1
  Zn  Zn3  1  0.76684000  0.10913400  0.75560100  1
  H  H0  1  0.17414100  0.56663300  0.27393900  1
  H  H1  1  0.32585900  0.43336700  0.77393900  1
  H  H2  1  0.82585900  0.06663300  0.22606100  1
  H  H3  1  0.67414100  0.93336700  0.72606100  1
  Cl  Cl0  1  0.09867600  0.08071400  0.74607500  1
  Cl  Cl1  1  0.40132400  0.91928600  0.24607500  1
  Cl  Cl2  1  0.90132400  0.58071400  0.75392500  1
  Cl  Cl3  1  0.59867600  0.41928600  0.25392500  1
  Cl  Cl4  1  0.14993500  0.36487200  0.06687400  1
  Cl  Cl5  1  0.35006500  0.63512800  0.56687400  1
  Cl  Cl6  1  0.85006500  0.86487200  0.43312600  1
  Cl  Cl7  1  0.64993500  0.13512800  0.93312600  1
  Cl  Cl8  1  0.10749200  0.27266000  0.38375100  1
  Cl  Cl9  1  0.39250800  0.72734000  0.88375100  1
  Cl  Cl10  1  0.89250800  0.77266000  0.11624900  1
  Cl  Cl11  1  0.60749200  0.22734000  0.61624900  1
loop_
_geom_bond_atom_site_label_1
_geom_bond_atom_site_label_2
_geom_bond_distance
_geom_bond_site_symmetry_2
H0 Zn0 1.731847 1_555
H1 Zn1 1.731847 1_555
H2 Zn2 1.731847 1_545
H3 Zn3 1.731847 1_565
Cl0 Zn3 2.229558 1_455
Cl0 K0 3.195589 1_556
Cl0 K1 3.275844 1_545
Cl1 Zn2 2.229558 1_555
Cl1 K1 3.195589 1_555
Cl1 K0 3.275844 1_565
Cl2 Zn1 2.229558 1_655
Cl2 K2 3.195589 1_555
Cl2 K3 3.275844 1_555
Cl3 Zn0 2.229558 1_555
Cl3 K3 3.195589 1_554
Cl3 K2 3.275844 1_555
Cl4 Zn0 2.250687 1_555
Cl4 K0 3.248102 1_555
Cl4 K3 3.373665 1_454
Cl5 Zn1 2.250687 1_555
Cl5 K1 3.248102 1_555
Cl5 K2 3.373665 1_555
Cl6 Zn2 2.250687 1_555
Cl6 K2 3.248102 1_555
Cl6 K1 3.373665 1_655
Cl7 Zn3 2.250687 1_555
Cl7 K3 3.248102 1_555
Cl7 K0 3.373665 1_556
Cl8 Zn0 2.229449 1_555
Cl8 K2 3.205787 1_455
Cl8 K1 3.249426 1_545
Cl9 Zn1 2.229449 1_555
Cl9 K3 3.205787 1_555
Cl9 K0 3.249426 1_566
Cl10 Zn2 2.229449 1_555
Cl10 K0 3.205787 1_665
Cl10 K3 3.249426 1_554
Cl11 Zn3 2.229449 1_555
Cl11 K1 3.205787 1_545
Cl11 K2 3.249426 1_555
