# generated using pymatgen
data_Er2Mg3Ru
_symmetry_space_group_name_H-M   'P 1'
_cell_length_a   6.71656600
_cell_length_b   6.71656600
_cell_length_c   24.99368200
_cell_angle_alpha   90.00000000
_cell_angle_beta   90.00000000
_cell_angle_gamma   90.00000000
_symmetry_Int_Tables_number   1
_chemical_formula_structural   Er2Mg3Ru
_chemical_formula_sum   'Er16 Mg24 Ru8'
_cell_volume   1127.52145156
_cell_formula_units_Z   8
loop_
 _symmetry_equiv_pos_site_id
 _symmetry_equiv_pos_as_xyz
  1  'x, y, z'
loop_
 _atom_site_type_symbol
 _atom_site_label
 _atom_site_symmetry_multiplicity
 _atom_site_fract_x
 _atom_site_fract_y
 _atom_site_fract_z
 _atom_site_occupancy
  Er  Er0_0  1  0.25000000  0.25000000  0.43407050  1
  Er  Er0_1  1  0.25000000  0.25000000  0.93407050  1
  Er  Er0_2  1  0.25000000  0.75000000  0.43407050  1
  Er  Er0_3  1  0.25000000  0.75000000  0.93407050  1
  Er  Er0_4  1  0.75000000  0.25000000  0.43407050  1
  Er  Er0_5  1  0.75000000  0.25000000  0.93407050  1
  Er  Er0_6  1  0.75000000  0.75000000  0.43407050  1
  Er  Er0_7  1  0.75000000  0.75000000  0.93407050  1
  Er  Er1_0  1  0.25000000  0.25000000  0.06592950  1
  Er  Er1_1  1  0.25000000  0.25000000  0.56592950  1
  Er  Er1_2  1  0.25000000  0.75000000  0.06592950  1
  Er  Er1_3  1  0.25000000  0.75000000  0.56592950  1
  Er  Er1_4  1  0.75000000  0.25000000  0.06592950  1
  Er  Er1_5  1  0.75000000  0.25000000  0.56592950  1
  Er  Er1_6  1  0.75000000  0.75000000  0.06592950  1
  Er  Er1_7  1  0.75000000  0.75000000  0.56592950  1
  Mg  Mg0_0  1  0.00000000  0.00000000  0.33238400  1
  Mg  Mg0_1  1  0.00000000  0.00000000  0.83238400  1
  Mg  Mg0_2  1  0.00000000  0.50000000  0.33238400  1
  Mg  Mg0_3  1  0.00000000  0.50000000  0.83238400  1
  Mg  Mg0_4  1  0.50000000  0.00000000  0.33238400  1
  Mg  Mg0_5  1  0.50000000  0.00000000  0.83238400  1
  Mg  Mg0_6  1  0.50000000  0.50000000  0.33238400  1
  Mg  Mg0_7  1  0.50000000  0.50000000  0.83238400  1
  Mg  Mg1_0  1  0.00000000  0.00000000  0.16761600  1
  Mg  Mg1_1  1  0.00000000  0.00000000  0.66761600  1
  Mg  Mg1_2  1  0.00000000  0.50000000  0.16761600  1
  Mg  Mg1_3  1  0.00000000  0.50000000  0.66761600  1
  Mg  Mg1_4  1  0.50000000  0.00000000  0.16761600  1
  Mg  Mg1_5  1  0.50000000  0.00000000  0.66761600  1
  Mg  Mg1_6  1  0.50000000  0.50000000  0.16761600  1
  Mg  Mg1_7  1  0.50000000  0.50000000  0.66761600  1
  Mg  Mg2_0  1  0.25000000  0.25000000  0.25000000  1
  Mg  Mg2_1  1  0.25000000  0.25000000  0.75000000  1
  Mg  Mg2_2  1  0.25000000  0.75000000  0.25000000  1
  Mg  Mg2_3  1  0.25000000  0.75000000  0.75000000  1
  Mg  Mg2_4  1  0.75000000  0.25000000  0.25000000  1
  Mg  Mg2_5  1  0.75000000  0.25000000  0.75000000  1
  Mg  Mg2_6  1  0.75000000  0.75000000  0.25000000  1
  Mg  Mg2_7  1  0.75000000  0.75000000  0.75000000  1
  Ru  Ru0_0  1  0.00000000  0.00000000  0.00000000  1
  Ru  Ru0_1  1  0.00000000  0.00000000  0.50000000  1
  Ru  Ru0_2  1  0.00000000  0.50000000  0.00000000  1
  Ru  Ru0_3  1  0.00000000  0.50000000  0.50000000  1
  Ru  Ru0_4  1  0.50000000  0.00000000  0.00000000  1
  Ru  Ru0_5  1  0.50000000  0.00000000  0.50000000  1
  Ru  Ru0_6  1  0.50000000  0.50000000  0.00000000  1
  Ru  Ru0_7  1  0.50000000  0.50000000  0.50000000  1
loop_
_geom_bond_atom_site_label_1
_geom_bond_atom_site_label_2
_geom_bond_distance
_geom_bond_site_symmetry_2
Er0_0 Ru0_7 2.890389 1_555
Er0_0 Ru0_1 2.890389 1_555
Er0_0 Ru0_5 2.890389 1_555
Er0_0 Ru0_3 2.890389 1_555
Er0_0 Er1_1 3.295642 1_555
Er0_0 Er0_2 3.358283 1_555
Er0_0 Er0_4 3.358283 1_555
Er0_0 Er0_2 3.358283 1_545
Er0_0 Er0_4 3.358283 1_455
Er0_0 Mg0_2 3.478269 1_555
Er0_0 Mg0_6 3.478269 1_555
Er0_0 Mg0_0 3.478269 1_555
Er0_0 Mg0_4 3.478269 1_555
Er0_1 Ru0_2 2.890389 1_556
Er0_1 Ru0_6 2.890389 1_556
Er0_1 Ru0_0 2.890389 1_556
Er0_1 Ru0_4 2.890389 1_556
Er0_1 Er1_0 3.295642 1_556
Er0_1 Er0_3 3.358283 1_545
Er0_1 Er0_5 3.358283 1_455
Er0_1 Er0_5 3.358283 1_555
Er0_1 Er0_3 3.358283 1_555
Er0_1 Mg0_1 3.478269 1_555
Er0_1 Mg0_7 3.478269 1_555
Er0_1 Mg0_5 3.478269 1_555
Er0_1 Mg0_3 3.478269 1_555
Er0_2 Ru0_7 2.890389 1_555
Er0_2 Ru0_1 2.890389 1_565
Er0_2 Ru0_5 2.890389 1_565
Er0_2 Ru0_3 2.890389 1_555
Er0_2 Er1_3 3.295642 1_555
Er0_2 Er0_6 3.358283 1_455
Er0_2 Er0_6 3.358283 1_555
Er0_2 Mg0_2 3.478269 1_555
Er0_2 Mg0_0 3.478269 1_565
Er0_2 Mg0_4 3.478269 1_565
Er0_2 Mg0_6 3.478269 1_555
Er0_3 Ru0_0 2.890389 1_566
Er0_3 Ru0_2 2.890389 1_556
Er0_3 Ru0_6 2.890389 1_556
Er0_3 Ru0_4 2.890389 1_566
Er0_3 Er1_2 3.295642 1_556
Er0_3 Er0_7 3.358283 1_555
Er0_3 Er0_7 3.358283 1_455
Er0_3 Mg0_1 3.478269 1_565
Er0_3 Mg0_5 3.478269 1_565
Er0_3 Mg0_7 3.478269 1_555
Er0_3 Mg0_3 3.478269 1_555
Er0_4 Ru0_7 2.890389 1_555
Er0_4 Ru0_5 2.890389 1_555
Er0_4 Ru0_1 2.890389 1_655
Er0_4 Ru0_3 2.890389 1_655
Er0_4 Er1_5 3.295642 1_555
Er0_4 Er0_6 3.358283 1_555
Er0_4 Er0_6 3.358283 1_545
Er0_4 Mg0_0 3.478269 1_655
Er0_4 Mg0_2 3.478269 1_655
Er0_4 Mg0_6 3.478269 1_555
Er0_4 Mg0_4 3.478269 1_555
Er0_5 Ru0_2 2.890389 1_656
Er0_5 Ru0_6 2.890389 1_556
Er0_5 Ru0_0 2.890389 1_656
Er0_5 Ru0_4 2.890389 1_556
Er0_5 Er1_4 3.295642 1_556
Er0_5 Er0_7 3.358283 1_555
Er0_5 Er0_7 3.358283 1_545
Er0_5 Mg0_3 3.478269 1_655
Er0_5 Mg0_7 3.478269 1_555
Er0_5 Mg0_1 3.478269 1_655
Er0_5 Mg0_5 3.478269 1_555
Er0_6 Ru0_7 2.890389 1_555
Er0_6 Ru0_5 2.890389 1_565
Er0_6 Ru0_1 2.890389 1_665
Er0_6 Ru0_3 2.890389 1_655
Er0_6 Er1_7 3.295642 1_555
Er0_6 Mg0_0 3.478269 1_665
Er0_6 Mg0_2 3.478269 1_655
Er0_6 Mg0_4 3.478269 1_565
Er0_6 Mg0_6 3.478269 1_555
Er0_7 Ru0_0 2.890389 1_666
Er0_7 Ru0_2 2.890389 1_656
Er0_7 Ru0_6 2.890389 1_556
Er0_7 Ru0_4 2.890389 1_566
Er0_7 Er1_6 3.295642 1_556
Er0_7 Mg0_3 3.478269 1_655
Er0_7 Mg0_5 3.478269 1_565
Er0_7 Mg0_7 3.478269 1_555
Er0_7 Mg0_1 3.478269 1_665
Er1_0 Ru0_2 2.890389 1_555
Er1_0 Ru0_4 2.890389 1_555
Er1_0 Ru0_6 2.890389 1_555
Er1_0 Ru0_0 2.890389 1_555
Er1_0 Er1_2 3.358283 1_555
Er1_0 Er1_2 3.358283 1_545
Er1_0 Er1_4 3.358283 1_455
Er1_0 Er1_4 3.358283 1_555
Er1_0 Mg1_2 3.478269 1_555
Er1_0 Mg1_6 3.478269 1_555
Er1_0 Mg1_0 3.478269 1_555
Er1_0 Mg1_4 3.478269 1_555
Er1_1 Ru0_3 2.890389 1_555
Er1_1 Ru0_1 2.890389 1_555
Er1_1 Ru0_7 2.890389 1_555
Er1_1 Ru0_5 2.890389 1_555
Er1_1 Er1_5 3.358283 1_555
Er1_1 Er1_5 3.358283 1_455
Er1_1 Er1_3 3.358283 1_545
Er1_1 Er1_3 3.358283 1_555
Er1_1 Mg1_1 3.478269 1_555
Er1_1 Mg1_7 3.478269 1_555
Er1_1 Mg1_5 3.478269 1_555
Er1_1 Mg1_3 3.478269 1_555
Er1_2 Ru0_0 2.890389 1_565
Er1_2 Ru0_2 2.890389 1_555
Er1_2 Ru0_4 2.890389 1_565
Er1_2 Ru0_6 2.890389 1_555
Er1_2 Er1_6 3.358283 1_455
Er1_2 Er1_6 3.358283 1_555
Er1_2 Mg1_4 3.478269 1_565
Er1_2 Mg1_2 3.478269 1_555
Er1_2 Mg1_6 3.478269 1_555
Er1_2 Mg1_0 3.478269 1_565
Er1_3 Ru0_3 2.890389 1_555
Er1_3 Ru0_1 2.890389 1_565
Er1_3 Ru0_5 2.890389 1_565
Er1_3 Ru0_7 2.890389 1_555
Er1_3 Er1_7 3.358283 1_455
Er1_3 Er1_7 3.358283 1_555
Er1_3 Mg1_7 3.478269 1_555
Er1_3 Mg1_5 3.478269 1_565
Er1_3 Mg1_1 3.478269 1_565
Er1_3 Mg1_3 3.478269 1_555
Er1_4 Ru0_2 2.890389 1_655
Er1_4 Ru0_0 2.890389 1_655
Er1_4 Ru0_6 2.890389 1_555
Er1_4 Ru0_4 2.890389 1_555
Er1_4 Er1_6 3.358283 1_555
Er1_4 Er1_6 3.358283 1_545
Er1_4 Mg1_0 3.478269 1_655
Er1_4 Mg1_2 3.478269 1_655
Er1_4 Mg1_6 3.478269 1_555
Er1_4 Mg1_4 3.478269 1_555
Er1_5 Ru0_7 2.890389 1_555
Er1_5 Ru0_5 2.890389 1_555
Er1_5 Ru0_3 2.890389 1_655
Er1_5 Ru0_1 2.890389 1_655
Er1_5 Er1_7 3.358283 1_555
Er1_5 Er1_7 3.358283 1_545
Er1_5 Mg1_7 3.478269 1_555
Er1_5 Mg1_1 3.478269 1_655
Er1_5 Mg1_5 3.478269 1_555
Er1_5 Mg1_3 3.478269 1_655
Er1_6 Ru0_2 2.890389 1_655
Er1_6 Ru0_4 2.890389 1_565
Er1_6 Ru0_6 2.890389 1_555
Er1_6 Ru0_0 2.890389 1_665
Er1_6 Mg1_0 3.478269 1_665
Er1_6 Mg1_4 3.478269 1_565
Er1_6 Mg1_2 3.478269 1_655
Er1_6 Mg1_6 3.478269 1_555
Er1_7 Ru0_5 2.890389 1_565
Er1_7 Ru0_7 2.890389 1_555
Er1_7 Ru0_1 2.890389 1_665
Er1_7 Ru0_3 2.890389 1_655
Er1_7 Mg1_7 3.478269 1_555
Er1_7 Mg1_5 3.478269 1_565
Er1_7 Mg1_1 3.478269 1_665
Er1_7 Mg1_3 3.478269 1_655
Mg0_0 Mg2_0 3.143062 1_555
Mg0_0 Mg2_4 3.143062 1_455
Mg0_0 Mg2_2 3.143062 1_545
Mg0_0 Mg2_6 3.143062 1_445
Mg0_0 Mg0_2 3.358283 1_555
Mg0_0 Mg0_2 3.358283 1_545
Mg0_0 Mg0_4 3.358283 1_455
Mg0_0 Mg0_4 3.358283 1_555
Mg0_1 Mg2_7 3.143062 1_445
Mg0_1 Mg2_1 3.143062 1_555
Mg0_1 Mg2_3 3.143062 1_545
Mg0_1 Mg2_5 3.143062 1_455
Mg0_1 Mg0_5 3.358283 1_555
Mg0_1 Mg0_3 3.358283 1_555
Mg0_1 Mg0_3 3.358283 1_545
Mg0_1 Mg0_5 3.358283 1_455
Mg0_2 Mg2_0 3.143062 1_555
Mg0_2 Mg2_4 3.143062 1_455
Mg0_2 Mg2_2 3.143062 1_555
Mg0_2 Mg2_6 3.143062 1_455
Mg0_2 Mg0_6 3.358283 1_455
Mg0_2 Mg0_6 3.358283 1_555
Mg0_3 Mg2_7 3.143062 1_455
Mg0_3 Mg2_1 3.143062 1_555
Mg0_3 Mg2_5 3.143062 1_455
Mg0_3 Mg2_3 3.143062 1_555
Mg0_3 Mg0_7 3.358283 1_455
Mg0_3 Mg0_7 3.358283 1_555
Mg0_4 Mg2_6 3.143062 1_545
Mg0_4 Mg2_0 3.143062 1_555
Mg0_4 Mg2_4 3.143062 1_555
Mg0_4 Mg2_2 3.143062 1_545
Mg0_4 Mg0_6 3.358283 1_555
Mg0_4 Mg0_6 3.358283 1_545
Mg0_5 Mg2_1 3.143062 1_555
Mg0_5 Mg2_3 3.143062 1_545
Mg0_5 Mg2_7 3.143062 1_545
Mg0_5 Mg2_5 3.143062 1_555
Mg0_5 Mg0_7 3.358283 1_545
Mg0_5 Mg0_7 3.358283 1_555
Mg0_6 Mg2_6 3.143062 1_555
Mg0_6 Mg2_0 3.143062 1_555
Mg0_6 Mg2_4 3.143062 1_555
Mg0_6 Mg2_2 3.143062 1_555
Mg0_7 Mg2_1 3.143062 1_555
Mg0_7 Mg2_7 3.143062 1_555
Mg0_7 Mg2_5 3.143062 1_555
Mg0_7 Mg2_3 3.143062 1_555
Mg1_0 Mg2_2 3.143062 1_545
Mg1_0 Mg2_6 3.143062 1_445
Mg1_0 Mg2_0 3.143062 1_555
Mg1_0 Mg2_4 3.143062 1_455
Mg1_0 Mg1_2 3.358283 1_545
Mg1_0 Mg1_4 3.358283 1_455
Mg1_0 Mg1_2 3.358283 1_555
Mg1_0 Mg1_4 3.358283 1_555
Mg1_1 Mg2_7 3.143062 1_445
Mg1_1 Mg2_1 3.143062 1_555
Mg1_1 Mg2_3 3.143062 1_545
Mg1_1 Mg2_5 3.143062 1_455
Mg1_1 Mg1_3 3.358283 1_555
Mg1_1 Mg1_5 3.358283 1_455
Mg1_1 Mg1_5 3.358283 1_555
Mg1_1 Mg1_3 3.358283 1_545
Mg1_2 Mg2_6 3.143062 1_455
Mg1_2 Mg2_2 3.143062 1_555
Mg1_2 Mg2_0 3.143062 1_555
Mg1_2 Mg2_4 3.143062 1_455
Mg1_2 Mg1_6 3.358283 1_455
Mg1_2 Mg1_6 3.358283 1_555
Mg1_3 Mg2_3 3.143062 1_555
Mg1_3 Mg2_7 3.143062 1_455
Mg1_3 Mg2_1 3.143062 1_555
Mg1_3 Mg2_5 3.143062 1_455
Mg1_3 Mg1_7 3.358283 1_555
Mg1_3 Mg1_7 3.358283 1_455
Mg1_4 Mg2_4 3.143062 1_555
Mg1_4 Mg2_2 3.143062 1_545
Mg1_4 Mg2_0 3.143062 1_555
Mg1_4 Mg2_6 3.143062 1_545
Mg1_4 Mg1_6 3.358283 1_545
Mg1_4 Mg1_6 3.358283 1_555
Mg1_5 Mg2_5 3.143062 1_555
Mg1_5 Mg2_1 3.143062 1_555
Mg1_5 Mg2_3 3.143062 1_545
Mg1_5 Mg2_7 3.143062 1_545
Mg1_5 Mg1_7 3.358283 1_555
Mg1_5 Mg1_7 3.358283 1_545
Mg1_6 Mg2_4 3.143062 1_555
Mg1_6 Mg2_2 3.143062 1_555
Mg1_6 Mg2_6 3.143062 1_555
Mg1_6 Mg2_0 3.143062 1_555
Mg1_7 Mg2_5 3.143062 1_555
Mg1_7 Mg2_3 3.143062 1_555
Mg1_7 Mg2_7 3.143062 1_555
Mg1_7 Mg2_1 3.143062 1_555
Mg2_0 Mg2_2 3.358283 1_555
Mg2_0 Mg2_2 3.358283 1_545
Mg2_0 Mg2_4 3.358283 1_455
Mg2_0 Mg2_4 3.358283 1_555
Mg2_1 Mg2_3 3.358283 1_555
Mg2_1 Mg2_3 3.358283 1_545
Mg2_1 Mg2_5 3.358283 1_455
Mg2_1 Mg2_5 3.358283 1_555
Mg2_2 Mg2_6 3.358283 1_555
Mg2_2 Mg2_6 3.358283 1_455
Mg2_3 Mg2_7 3.358283 1_455
Mg2_3 Mg2_7 3.358283 1_555
Mg2_4 Mg2_6 3.358283 1_555
Mg2_4 Mg2_6 3.358283 1_545
Mg2_5 Mg2_7 3.358283 1_555
Mg2_5 Mg2_7 3.358283 1_545
