# generated using pymatgen
data_MgV2(BiO5)2
_symmetry_space_group_name_H-M   'P 1'
_cell_length_a   11.11616200
_cell_length_b   5.44774700
_cell_length_c   8.27075340
_cell_angle_alpha   71.63537837
_cell_angle_beta   90.00000000
_cell_angle_gamma   90.00000000
_symmetry_Int_Tables_number   1
_chemical_formula_structural   MgV2(BiO5)2
_chemical_formula_sum   'Mg2 V4 Bi4 O20'
_cell_volume   475.35213749
_cell_formula_units_Z   2
loop_
 _symmetry_equiv_pos_site_id
 _symmetry_equiv_pos_as_xyz
  1  'x, y, z'
loop_
 _atom_site_type_symbol
 _atom_site_label
 _atom_site_symmetry_multiplicity
 _atom_site_fract_x
 _atom_site_fract_y
 _atom_site_fract_z
 _atom_site_occupancy
  Mg  Mg0  1  0.08199000  0.88105800  0.57668800  1
  Mg  Mg1  1  0.58199000  0.11894200  0.42331200  1
  V  V0  1  0.64342800  0.44954800  0.70538700  1
  V  V1  1  0.35174500  0.04500700  0.78201600  1
  V  V2  1  0.14342800  0.55045200  0.29461300  1
  V  V3  1  0.85174500  0.95499300  0.21798400  1
  Bi  Bi0  1  0.08729300  0.13849100  0.91409800  1
  Bi  Bi1  1  0.90248800  0.38175500  0.58427100  1
  Bi  Bi2  1  0.40248800  0.61824500  0.41572900  1
  Bi  Bi3  1  0.58729300  0.86150900  0.08590200  1
  O  O0  1  0.08114600  0.72576300  0.09850500  1
  O  O1  1  0.94313100  0.19490500  0.08157700  1
  O  O2  1  0.19208100  0.75677600  0.41076800  1
  O  O3  1  0.54168100  0.49737100  0.27923400  1
  O  O4  1  0.27850200  0.42882000  0.26181500  1
  O  O5  1  0.22338200  0.91668300  0.72818700  1
  O  O6  1  0.55265400  0.71504500  0.58084500  1
  O  O7  1  0.44313100  0.80509500  0.91842300  1
  O  O8  1  0.47194700  0.98439500  0.25389900  1
  O  O9  1  0.58114600  0.27423700  0.90149500  1
  O  O10  1  0.72338200  0.08331700  0.27181300  1
  O  O11  1  0.93456300  0.78868900  0.40911300  1
  O  O12  1  0.43456300  0.21131100  0.59088700  1
  O  O13  1  0.77850200  0.57118000  0.73818500  1
  O  O14  1  0.04168100  0.50262900  0.72076600  1
  O  O15  1  0.97194700  0.01560500  0.74610100  1
  O  O16  1  0.79251500  0.74704800  0.11683300  1
  O  O17  1  0.05265400  0.28495500  0.41915500  1
  O  O18  1  0.69208100  0.24322400  0.58923200  1
  O  O19  1  0.29251500  0.25295200  0.88316700  1
loop_
_geom_bond_atom_site_label_1
_geom_bond_atom_site_label_2
_geom_bond_distance
_geom_bond_site_symmetry_2
Mg0 O5 2.057010 1_555
Mg0 O14 2.079158 1_555
Mg0 O2 2.103494 1_555
Mg0 O15 2.155007 1_465
Mg0 O17 2.199752 1_565
Mg0 O11 2.302028 1_455
Mg1 O10 2.057010 1_555
Mg1 O3 2.079158 1_555
Mg1 O18 2.103494 1_555
Mg1 O8 2.155007 1_545
Mg1 O6 2.199752 1_545
Mg1 O12 2.302028 1_555
Bi0 O15 2.146846 1_455
Bi0 O14 2.179524 1_555
Bi0 O1 2.202161 1_456
Bi0 O0 2.285924 1_546
Bi0 O19 2.357539 1_555
Bi0 O5 2.698834 1_545
Bi1 O14 2.137896 1_655
Bi1 O15 2.164281 1_555
Bi1 O11 2.262005 1_555
Bi1 O17 2.320193 1_655
Bi1 O13 2.326525 1_555
Bi1 O18 2.454028 1_555
Bi2 O3 2.137896 1_555
Bi2 O8 2.164281 1_555
Bi2 O12 2.262005 1_555
Bi2 O6 2.320193 1_555
Bi2 O4 2.326525 1_555
Bi2 O2 2.454028 1_555
Bi3 O8 2.146846 1_555
Bi3 O3 2.179524 1_555
Bi3 O7 2.202161 1_554
Bi3 O9 2.285924 1_564
Bi3 O16 2.357539 1_555
Bi3 O10 2.698834 1_565
O0 V2 1.745310 1_555
O1 V3 1.756089 1_545
O2 V2 1.777421 1_555
O4 V2 1.697182 1_555
O5 V1 1.708534 1_565
O6 V0 1.797885 1_555
O7 V1 1.756089 1_565
O9 V0 1.745310 1_555
O10 V3 1.708534 1_545
O11 V3 1.806867 1_555
O12 V1 1.806867 1_555
O13 V0 1.697182 1_555
O16 V3 1.736055 1_555
O17 V2 1.797885 1_555
O18 V0 1.777421 1_555
O19 V1 1.736055 1_555
