# generated using pymatgen
data_Sr2TiSbO6
_symmetry_space_group_name_H-M   'P 1'
_cell_length_a   5.76211219
_cell_length_b   5.76211219
_cell_length_c   5.76211219
_cell_angle_alpha   60.00000000
_cell_angle_beta   60.00000000
_cell_angle_gamma   60.00000000
_symmetry_Int_Tables_number   1
_chemical_formula_structural   Sr2TiSbO6
_chemical_formula_sum   'Sr2 Ti1 Sb1 O6'
_cell_volume   135.27892101
_cell_formula_units_Z   1
loop_
 _symmetry_equiv_pos_site_id
 _symmetry_equiv_pos_as_xyz
  1  'x, y, z'
loop_
 _atom_site_type_symbol
 _atom_site_label
 _atom_site_symmetry_multiplicity
 _atom_site_fract_x
 _atom_site_fract_y
 _atom_site_fract_z
 _atom_site_occupancy
  Sr  Sr0  1  0.25000000  0.25000000  0.25000000  1
  Sr  Sr1  1  0.75000000  0.75000000  0.75000000  1
  Ti  Ti0  1  0.50000000  0.50000000  0.50000000  1
  Sb  Sb0  1  -0.00000000  -0.00000000  0.00000000  1
  O  O0  1  0.74242993  0.25757007  0.25757007  1
  O  O1  1  0.25757007  0.74242993  0.74242993  1
  O  O2  1  0.74242993  0.25757007  0.74242993  1
  O  O3  1  0.25757007  0.74242993  0.25757007  1
  O  O4  1  0.74242993  0.74242993  0.25757007  1
  O  O5  1  0.25757007  0.25757007  0.74242993  1
loop_
_geom_bond_atom_site_label_1
_geom_bond_atom_site_label_2
_geom_bond_distance
_geom_bond_site_symmetry_2
O0 Ti0 1.975527 1_555
O0 Sb0 2.098902 1_655
O0 Sr0 2.881716 1_555
O0 Sr1 2.881716 1_554
O0 Sr0 2.881716 1_655
O0 Sr1 2.881716 1_545
O1 Ti0 1.975527 1_555
O1 Sb0 2.098902 1_566
O1 Sr0 2.881716 1_556
O1 Sr1 2.881716 1_555
O1 Sr1 2.881716 1_455
O1 Sr0 2.881716 1_565
O2 Ti0 1.975527 1_555
O2 Sb0 2.098902 1_656
O2 Sr0 2.881716 1_556
O2 Sr1 2.881716 1_555
O2 Sr0 2.881716 1_655
O2 Sr1 2.881716 1_545
O3 Ti0 1.975527 1_555
O3 Sb0 2.098902 1_565
O3 Sr0 2.881716 1_555
O3 Sr1 2.881716 1_554
O3 Sr1 2.881716 1_455
O3 Sr0 2.881716 1_565
O4 Ti0 1.975527 1_555
O4 Sb0 2.098902 1_665
O4 Sr1 2.881716 1_554
O4 Sr1 2.881716 1_555
O4 Sr0 2.881716 1_565
O4 Sr0 2.881716 1_655
O5 Ti0 1.975527 1_555
O5 Sb0 2.098902 1_556
O5 Sr0 2.881716 1_555
O5 Sr0 2.881716 1_556
O5 Sr1 2.881716 1_455
O5 Sr1 2.881716 1_545
