# generated using pymatgen
data_Te2Mo3W(Se2S)2
_symmetry_space_group_name_H-M   'P 1'
_cell_length_a   3.34060270
_cell_length_b   3.34060270
_cell_length_c   38.02508800
_cell_angle_alpha   90.00000000
_cell_angle_beta   90.00000000
_cell_angle_gamma   120.00001379
_symmetry_Int_Tables_number   1
_chemical_formula_structural   Te2Mo3W(Se2S)2
_chemical_formula_sum   'Te2 Mo3 W1 Se4 S2'
_cell_volume   367.49417003
_cell_formula_units_Z   1
loop_
 _symmetry_equiv_pos_site_id
 _symmetry_equiv_pos_as_xyz
  1  'x, y, z'
loop_
 _atom_site_type_symbol
 _atom_site_label
 _atom_site_symmetry_multiplicity
 _atom_site_fract_x
 _atom_site_fract_y
 _atom_site_fract_z
 _atom_site_occupancy
  Te  Te0  1  0.00000000  0.00000000  0.33164000  1
  Te  Te1  1  0.00000000  0.00000000  0.23197700  1
  Mo  Mo0  1  0.00000000  0.00000000  0.09388700  1
  Mo  Mo1  1  0.33333300  0.66666700  0.28182600  1
  Mo  Mo2  1  0.33333300  0.66666700  0.65752800  1
  W  W0  1  0.00000000  0.00000000  0.46967000  1
  Se  Se0  1  0.00000000  0.00000000  0.70136400  1
  Se  Se1  1  0.33333300  0.66666700  0.05008000  1
  Se  Se2  1  0.33333300  0.66666700  0.13771500  1
  Se  Se3  1  0.00000000  0.00000000  0.61370600  1
  S  S0  1  0.33333300  0.66666700  0.42963700  1
  S  S1  1  0.33333300  0.66666700  0.50971700  1
loop_
_geom_bond_atom_site_label_1
_geom_bond_atom_site_label_2
_geom_bond_distance
_geom_bond_site_symmetry_2
Mo0 Se1 2.548459 1_545
Mo0 Se1 2.548461 1_445
Mo0 Se1 2.548461 1_555
Mo0 Se2 2.548981 1_545
Mo0 Se2 2.548983 1_555
Mo0 Se2 2.548983 1_445
Mo1 Te0 2.703293 1_565
Mo1 Te0 2.703295 1_555
Mo1 Te0 2.703295 1_665
Mo1 Te1 2.704226 1_565
Mo1 Te1 2.704227 1_555
Mo1 Te1 2.704227 1_665
Mo2 Se3 2.548832 1_565
Mo2 Se3 2.548833 1_665
Mo2 Se3 2.548833 1_555
Mo2 Se0 2.549180 1_565
Mo2 Se0 2.549181 1_665
Mo2 Se0 2.549181 1_555
S0 W0 2.457059 1_565
S0 W0 2.457061 1_555
S0 W0 2.457061 1_665
S1 W0 2.457389 1_565
S1 W0 2.457391 1_555
S1 W0 2.457391 1_665
