# generated using pymatgen
data_Sb4Au(Xe2F11)2
_symmetry_space_group_name_H-M   'P 1'
_cell_length_a   9.87795700
_cell_length_b   9.87795700
_cell_length_c   28.77237500
_cell_angle_alpha   90.00000000
_cell_angle_beta   90.00000000
_cell_angle_gamma   90.00000000
_symmetry_Int_Tables_number   1
_chemical_formula_structural   Sb4Au(Xe2F11)2
_chemical_formula_sum   'Sb16 Au4 Xe16 F88'
_cell_volume   2807.43671072
_cell_formula_units_Z   4
loop_
 _symmetry_equiv_pos_site_id
 _symmetry_equiv_pos_as_xyz
  1  'x, y, z'
loop_
 _atom_site_type_symbol
 _atom_site_label
 _atom_site_symmetry_multiplicity
 _atom_site_fract_x
 _atom_site_fract_y
 _atom_site_fract_z
 _atom_site_occupancy
  Sb  Sb0  1  0.64624900  0.72951500  0.23896900  1
  Sb  Sb1  1  0.35375100  0.27048500  0.73896900  1
  Sb  Sb2  1  0.22951500  0.85375100  0.48896900  1
  Sb  Sb3  1  0.77048500  0.14624900  0.98896900  1
  Sb  Sb4  1  0.27048500  0.35375100  0.26103100  1
  Sb  Sb5  1  0.72951500  0.64624900  0.76103100  1
  Sb  Sb6  1  0.85375100  0.22951500  0.51103100  1
  Sb  Sb7  1  0.14624900  0.77048500  0.01103100  1
  Sb  Sb8  1  0.48481100  0.96243500  0.13802500  1
  Sb  Sb9  1  0.51518900  0.03756500  0.63802500  1
  Sb  Sb10  1  0.46243500  0.01518900  0.38802500  1
  Sb  Sb11  1  0.53756500  0.98481100  0.88802500  1
  Sb  Sb12  1  0.03756500  0.51518900  0.36197500  1
  Sb  Sb13  1  0.96243500  0.48481100  0.86197500  1
  Sb  Sb14  1  0.01518900  0.46243500  0.61197500  1
  Sb  Sb15  1  0.98481100  0.53756500  0.11197500  1
  Au  Au0  1  0.95140600  0.04859400  0.25000000  1
  Au  Au1  1  0.04859400  0.95140600  0.75000000  1
  Au  Au2  1  0.54859400  0.54859400  0.50000000  1
  Au  Au3  1  0.45140600  0.45140600  0.00000000  1
  Xe  Xe0  1  0.14971000  0.85029000  0.25000000  1
  Xe  Xe1  1  0.85029000  0.14971000  0.75000000  1
  Xe  Xe2  1  0.35029000  0.35029000  0.50000000  1
  Xe  Xe3  1  0.64971000  0.64971000  0.00000000  1
  Xe  Xe4  1  0.74987900  0.25012100  0.25000000  1
  Xe  Xe5  1  0.25012100  0.74987900  0.75000000  1
  Xe  Xe6  1  0.75012100  0.75012100  0.50000000  1
  Xe  Xe7  1  0.24987900  0.24987900  0.00000000  1
  Xe  Xe8  1  0.94494000  0.03315700  0.34852200  1
  Xe  Xe9  1  0.05506000  0.96684300  0.84852200  1
  Xe  Xe10  1  0.53315700  0.55506000  0.59852200  1
  Xe  Xe11  1  0.46684300  0.44494000  0.09852200  1
  Xe  Xe12  1  0.96684300  0.05506000  0.15147800  1
  Xe  Xe13  1  0.03315700  0.94494000  0.65147800  1
  Xe  Xe14  1  0.55506000  0.53315700  0.40147800  1
  Xe  Xe15  1  0.44494000  0.46684300  0.90147800  1
  F  F0  1  0.46036200  0.75642800  0.25179600  1
  F  F1  1  0.53963800  0.24357200  0.75179600  1
  F  F2  1  0.25642800  0.03963800  0.50179600  1
  F  F3  1  0.74357200  0.96036200  0.00179600  1
  F  F4  1  0.24357200  0.53963800  0.24820400  1
  F  F5  1  0.75642800  0.46036200  0.74820400  1
  F  F6  1  0.03963800  0.25642800  0.49820400  1
  F  F7  1  0.96036200  0.74357200  0.99820400  1
  F  F8  1  0.37065600  0.80747400  0.14038000  1
  F  F9  1  0.62934400  0.19252600  0.64038000  1
  F  F10  1  0.30747400  0.12934400  0.39038000  1
  F  F11  1  0.69252600  0.87065600  0.89038000  1
  F  F12  1  0.19252600  0.62934400  0.35962000  1
  F  F13  1  0.80747400  0.37065600  0.85962000  1
  F  F14  1  0.12934400  0.30747400  0.60962000  1
  F  F15  1  0.87065600  0.69252600  0.10962000  1
  F  F16  1  0.36996300  0.06523100  0.09861000  1
  F  F17  1  0.63003700  0.93476900  0.59861000  1
  F  F18  1  0.56523100  0.13003700  0.34861000  1
  F  F19  1  0.43476900  0.86996300  0.84861000  1
  F  F20  1  0.93476900  0.63003700  0.40139000  1
  F  F21  1  0.06523100  0.36996300  0.90139000  1
  F  F22  1  0.13003700  0.56523100  0.65139000  1
  F  F23  1  0.86996300  0.43476900  0.15139000  1
  F  F24  1  0.61656000  0.10328500  0.14303100  1
  F  F25  1  0.38344000  0.89671500  0.64303100  1
  F  F26  1  0.60328500  0.88344000  0.39303100  1
  F  F27  1  0.39671500  0.11656000  0.89303100  1
  F  F28  1  0.89671500  0.38344000  0.35696900  1
  F  F29  1  0.10328500  0.61656000  0.85696900  1
  F  F30  1  0.88344000  0.60328500  0.60696900  1
  F  F31  1  0.11656000  0.39671500  0.10696900  1
  F  F32  1  0.58775800  0.88172400  0.08986500  1
  F  F33  1  0.41224200  0.11827600  0.58986500  1
  F  F34  1  0.38172400  0.91224200  0.33986500  1
  F  F35  1  0.61827600  0.08775800  0.83986500  1
  F  F36  1  0.11827600  0.41224200  0.41013500  1
  F  F37  1  0.88172400  0.58775800  0.91013500  1
  F  F38  1  0.91224200  0.38172400  0.66013500  1
  F  F39  1  0.08775800  0.61827600  0.16013500  1
  F  F40  1  0.67261500  0.61704700  0.29169700  1
  F  F41  1  0.32738500  0.38295300  0.79169700  1
  F  F42  1  0.11704700  0.82738500  0.54169700  1
  F  F43  1  0.88295300  0.17261500  0.04169700  1
  F  F44  1  0.38295300  0.32738500  0.20830300  1
  F  F45  1  0.61704700  0.67261500  0.70830300  1
  F  F46  1  0.82738500  0.11704700  0.45830300  1
  F  F47  1  0.17261500  0.88295300  0.95830300  1
  F  F48  1  0.60566300  0.58084900  0.19918500  1
  F  F49  1  0.39433700  0.41915100  0.69918500  1
  F  F50  1  0.08084900  0.89433700  0.44918500  1
  F  F51  1  0.91915100  0.10566300  0.94918500  1
  F  F52  1  0.41915100  0.39433700  0.30081500  1
  F  F53  1  0.58084900  0.60566300  0.80081500  1
  F  F54  1  0.89433700  0.08084900  0.55081500  1
  F  F55  1  0.10566300  0.91915100  0.05081500  1
  F  F56  1  0.82950500  0.72505200  0.21919700  1
  F  F57  1  0.17049500  0.27494800  0.71919700  1
  F  F58  1  0.22505200  0.67049500  0.46919700  1
  F  F59  1  0.77494800  0.32950500  0.96919700  1
  F  F60  1  0.27494800  0.17049500  0.28080300  1
  F  F61  1  0.72505200  0.82950500  0.78080300  1
  F  F62  1  0.67049500  0.22505200  0.53080300  1
  F  F63  1  0.32950500  0.77494800  0.03080300  1
  F  F64  1  0.61691400  0.85491000  0.18216600  1
  F  F65  1  0.38308600  0.14509000  0.68216600  1
  F  F66  1  0.35491000  0.88308600  0.43216600  1
  F  F67  1  0.64509000  0.11691400  0.93216600  1
  F  F68  1  0.14509000  0.38308600  0.31783400  1
  F  F69  1  0.85491000  0.61691400  0.81783400  1
  F  F70  1  0.88308600  0.35491000  0.56783400  1
  F  F71  1  0.11691400  0.64509000  0.06783400  1
  F  F72  1  0.69167700  0.89314300  0.27154400  1
  F  F73  1  0.30832300  0.10685700  0.77154400  1
  F  F74  1  0.39314300  0.80832300  0.52154400  1
  F  F75  1  0.60685700  0.19167700  0.02154400  1
  F  F76  1  0.10685700  0.30832300  0.22845600  1
  F  F77  1  0.89314300  0.69167700  0.72845600  1
  F  F78  1  0.80832300  0.39314300  0.47845600  1
  F  F79  1  0.19167700  0.60685700  0.97845600  1
  F  F80  1  0.40240000  0.02647500  0.19350000  1
  F  F81  1  0.59760000  0.97352500  0.69350000  1
  F  F82  1  0.52647500  0.09760000  0.44350000  1
  F  F83  1  0.47352500  0.90240000  0.94350000  1
  F  F84  1  0.97352500  0.59760000  0.30650000  1
  F  F85  1  0.02647500  0.40240000  0.80650000  1
  F  F86  1  0.09760000  0.52647500  0.55650000  1
  F  F87  1  0.90240000  0.47352500  0.05650000  1
loop_
_geom_bond_atom_site_label_1
_geom_bond_atom_site_label_2
_geom_bond_distance
_geom_bond_site_symmetry_2
Au0 Xe0 2.770216 1_645
Au0 Xe4 2.815240 1_555
Au0 Xe8 2.839529 1_555
Au0 Xe12 2.839529 1_555
Au1 Xe1 2.770216 1_465
Au1 Xe5 2.815240 1_555
Au1 Xe9 2.839529 1_555
Au1 Xe13 2.839529 1_555
Au2 Xe2 2.770216 1_555
Au2 Xe6 2.815240 1_555
Au2 Xe10 2.839529 1_555
Au2 Xe14 2.839529 1_555
Au3 Xe3 2.770216 1_555
Au3 Xe7 2.815240 1_555
Au3 Xe11 2.839529 1_555
Au3 Xe15 2.839529 1_554
F0 Sb0 1.891680 1_555
F1 Sb1 1.891680 1_555
F2 Sb2 1.891680 1_545
F3 Sb3 1.891680 1_564
F4 Sb4 1.891680 1_555
F5 Sb5 1.891680 1_555
F6 Sb6 1.891680 1_455
F7 Sb7 1.891680 1_656
F8 Sb8 1.902407 1_555
F9 Sb9 1.902407 1_555
F10 Sb10 1.902407 1_555
F11 Sb11 1.902407 1_555
F12 Sb12 1.902407 1_555
F13 Sb13 1.902407 1_555
F14 Sb14 1.902407 1_555
F15 Sb15 1.902407 1_555
F16 Sb8 1.898466 1_545
F17 Sb9 1.898466 1_565
F18 Sb10 1.898466 1_555
F19 Sb11 1.898466 1_555
F20 Sb12 1.898466 1_655
F21 Sb13 1.898466 1_455
F22 Sb14 1.898466 1_555
F23 Sb15 1.898466 1_555
F24 Sb8 1.910539 1_545
F25 Sb9 1.910539 1_565
F26 Sb10 1.910539 1_565
F27 Sb11 1.910539 1_545
F28 Sb12 1.910539 1_655
F29 Sb13 1.910539 1_455
F30 Sb14 1.910539 1_655
F31 Sb15 1.910539 1_455
F32 Sb8 1.894683 1_555
F33 Sb9 1.894683 1_555
F34 Sb10 1.894683 1_565
F35 Sb11 1.894683 1_545
F36 Sb12 1.894683 1_555
F37 Sb13 1.894683 1_555
F38 Sb14 1.894683 1_655
F39 Sb15 1.894683 1_455
F40 Sb0 1.898334 1_555
F41 Sb1 1.898334 1_555
F42 Sb2 1.898334 1_555
F43 Sb3 1.898334 1_554
F44 Sb4 1.898334 1_555
F45 Sb5 1.898334 1_555
F46 Sb6 1.898334 1_555
F47 Sb7 1.898334 1_556
F48 Sb0 1.904615 1_555
F49 Sb1 1.904615 1_555
F50 Sb2 1.904615 1_555
F51 Sb3 1.904615 1_555
F52 Sb4 1.904615 1_555
F53 Sb5 1.904615 1_555
F54 Sb6 1.904615 1_555
F55 Sb7 1.904615 1_555
F56 Sb0 1.897994 1_555
F57 Sb1 1.897994 1_555
F58 Sb2 1.897994 1_555
F59 Sb3 1.897994 1_555
F60 Sb4 1.897994 1_555
F61 Sb5 1.897994 1_555
F62 Sb6 1.897994 1_555
F63 Sb7 1.897994 1_555
F64 Sb0 2.071071 1_555
F64 Sb8 2.108057 1_555
F65 Sb1 2.071071 1_555
F65 Sb9 2.108057 1_555
F66 Sb2 2.071071 1_555
F66 Sb10 2.108057 1_565
F67 Sb3 2.071071 1_555
F67 Sb11 2.108057 1_545
F68 Sb4 2.071071 1_555
F68 Sb12 2.108057 1_555
F69 Sb5 2.071071 1_555
F69 Sb13 2.108057 1_555
F70 Sb6 2.071071 1_555
F70 Sb14 2.108057 1_655
F71 Sb7 2.071071 1_555
F71 Sb15 2.108057 1_455
F72 Sb0 1.921531 1_555
F73 Sb1 1.921531 1_555
F74 Sb2 1.921531 1_555
F75 Sb3 1.921531 1_554
F76 Sb4 1.921531 1_555
F77 Sb5 1.921531 1_555
F78 Sb6 1.921531 1_555
F79 Sb7 1.921531 1_556
F80 Sb8 1.900140 1_545
F81 Sb9 1.900140 1_565
F82 Sb10 1.900140 1_555
F83 Sb11 1.900140 1_555
F84 Sb12 1.900140 1_655
F85 Sb13 1.900140 1_455
F86 Sb14 1.900140 1_555
F87 Sb15 1.900140 1_555
