# generated using pymatgen
data_Sr2Y2Ti2O7
_symmetry_space_group_name_H-M   'P 1'
_cell_length_a   12.97934090
_cell_length_b   12.97934090
_cell_length_c   12.97934090
_cell_angle_alpha   155.39762353
_cell_angle_beta   155.15947385
_cell_angle_gamma   35.24425619
_symmetry_Int_Tables_number   1
_chemical_formula_structural   Sr2Y2Ti2O7
_chemical_formula_sum   'Sr4 Y4 Ti4 O14'
_cell_volume   381.96959453
_cell_formula_units_Z   2
loop_
 _symmetry_equiv_pos_site_id
 _symmetry_equiv_pos_as_xyz
  1  'x, y, z'
loop_
 _atom_site_type_symbol
 _atom_site_label
 _atom_site_symmetry_multiplicity
 _atom_site_fract_x
 _atom_site_fract_y
 _atom_site_fract_z
 _atom_site_occupancy
  Sr  Sr0  1  0.83386000  0.83747000  0.96149200  1
  Sr  Sr1  1  0.16614000  0.12763200  0.00361000  1
  Sr  Sr2  1  0.62402200  0.62763200  0.96149200  1
  Sr  Sr3  1  0.37597800  0.33747000  0.00361000  1
  Y  Y0  1  0.50000000  0.47163800  0.97163800  1
  Y  Y1  1  0.00000000  0.97163800  0.97163800  1
  Y  Y2  1  0.20401600  0.76556800  0.46958400  1
  Y  Y3  1  0.79598400  0.26556800  0.56155200  1
  Ti  Ti0  1  0.94296800  0.41436900  0.47294700  1
  Ti  Ti1  1  0.05703200  0.52998000  0.47140200  1
  Ti  Ti2  1  0.55857800  0.02998000  0.47294700  1
  Ti  Ti3  1  0.44142200  0.91436900  0.47140200  1
  O  O0  1  0.82275100  0.66579400  0.98854600  1
  O  O1  1  0.17724900  0.16579400  0.84304300  1
  O  O2  1  0.69225300  0.66378300  0.48231500  1
  O  O3  1  0.30774700  0.79006200  0.97153100  1
  O  O4  1  0.31853100  0.29006200  0.48231500  1
  O  O5  1  0.68146900  0.16378300  0.97153100  1
  O  O6  1  0.18156400  0.15333700  0.46373500  1
  O  O7  1  0.81843600  0.28217100  0.97177300  1
  O  O8  1  0.81039800  0.78217100  0.46373500  1
  O  O9  1  0.18960200  0.65333700  0.97177300  1
  O  O10  1  0.37463500  0.77221300  0.48061900  1
  O  O11  1  0.62536500  0.10598400  0.39757800  1
  O  O12  1  0.20840500  0.60598400  0.48061900  1
  O  O13  1  0.79159500  0.27221300  0.39757800  1
loop_
_geom_bond_atom_site_label_1
_geom_bond_atom_site_label_2
_geom_bond_distance
_geom_bond_site_symmetry_2
O0 Y2 2.199037 1_656
O0 Y3 2.218498 1_555
O0 Sr2 2.673669 1_555
O0 Sr0 2.673693 1_555
O1 Y3 2.199040 1_455
O1 Y2 2.218495 1_545
O1 Sr1 2.673680 1_556
O1 Sr3 2.673680 1_556
O2 Ti0 1.969599 1_555
O2 Ti3 1.975523 1_555
O2 Y1 2.477296 1_655
O2 Y0 2.542976 1_554
O2 Sr3 2.765527 1_555
O2 Sr0 2.768819 1_555
O3 Ti1 1.969598 1_555
O3 Ti2 1.975519 1_566
O3 Y1 2.477288 1_555
O3 Y0 2.542968 1_555
O3 Sr2 2.765536 1_555
O3 Sr1 2.768828 1_566
O4 Ti2 1.969598 1_555
O4 Ti1 1.975523 1_555
O4 Y0 2.477288 1_555
O4 Y1 2.542968 1_544
O4 Sr1 2.765536 1_555
O4 Sr2 2.768828 1_555
O5 Ti3 1.969598 1_545
O5 Ti0 1.975520 1_556
O5 Y0 2.477299 1_555
O5 Y1 2.542973 1_645
O5 Sr0 2.765525 1_545
O5 Sr3 2.768822 1_556
O6 Ti3 1.967386 1_545
O6 Ti0 1.970002 1_455
O6 Y1 2.505747 1_544
O6 Y0 2.553987 1_555
O6 Sr0 2.810280 1_444
O6 Sr3 2.913090 1_556
O7 Ti2 1.967386 1_555
O7 Ti1 1.970006 1_656
O7 Y1 2.505747 1_645
O7 Y0 2.553987 1_555
O7 Sr1 2.810280 1_656
O7 Sr2 2.913090 1_555
O8 Ti1 1.967383 1_655
O8 Ti2 1.970005 1_565
O8 Y0 2.505747 1_554
O8 Y1 2.553987 1_655
O8 Sr2 2.810280 1_554
O8 Sr1 2.913090 1_666
O9 Ti0 1.967387 1_455
O9 Ti3 1.970005 1_556
O9 Y0 2.505747 1_555
O9 Y1 2.553987 1_555
O9 Sr3 2.810280 1_556
O9 Sr0 2.913090 1_455
O10 Y2 2.155436 1_555
O10 Sr0 2.512600 1_555
O10 Sr3 2.584453 1_555
O10 Ti3 2.715178 1_555
O10 Sr3 3.055736 1_566
O10 Sr0 3.196036 1_454
O11 Y3 2.155436 1_555
O11 Sr1 2.512600 1_555
O11 Sr2 2.584453 1_544
O11 Ti2 2.715178 1_555
O11 Sr2 3.055736 1_555
O11 Sr1 3.196036 1_656
O12 Y2 2.155447 1_555
O12 Sr2 2.512600 1_555
O12 Sr1 2.584453 1_555
O12 Ti1 2.715178 1_555
O12 Sr1 3.055731 1_566
O12 Sr2 3.196031 1_454
O13 Y3 2.155448 1_555
O13 Sr3 2.512600 1_555
O13 Sr0 2.584447 1_544
O13 Ti0 2.715178 1_555
O13 Sr0 3.055737 1_555
O13 Sr3 3.196032 1_656
