# generated using pymatgen
data_LaCo2Ni3
_symmetry_space_group_name_H-M   'P 1'
_cell_length_a   4.95006968
_cell_length_b   4.95006968
_cell_length_c   4.00784500
_cell_angle_alpha   90.00000000
_cell_angle_beta   90.00000000
_cell_angle_gamma   119.99999571
_symmetry_Int_Tables_number   1
_chemical_formula_structural   LaCo2Ni3
_chemical_formula_sum   'La1 Co2 Ni3'
_cell_volume   85.04801705
_cell_formula_units_Z   1
loop_
 _symmetry_equiv_pos_site_id
 _symmetry_equiv_pos_as_xyz
  1  'x, y, z'
loop_
 _atom_site_type_symbol
 _atom_site_label
 _atom_site_symmetry_multiplicity
 _atom_site_fract_x
 _atom_site_fract_y
 _atom_site_fract_z
 _atom_site_occupancy
  La  La0  1  0.00000000  0.00000000  0.00000000  1
  Co  Co0  1  0.66666700  0.33333300  0.00000000  1
  Co  Co1  1  0.33333300  0.66666700  0.00000000  1
  Ni  Ni0  1  0.50000000  0.50000000  0.50000000  1
  Ni  Ni1  1  0.50000000  0.00000000  0.50000000  1
  Ni  Ni2  1  0.00000000  0.50000000  0.50000000  1
loop_
_geom_bond_atom_site_label_1
_geom_bond_atom_site_label_2
_geom_bond_distance
_geom_bond_site_symmetry_2
La0 Ni2 3.184573 1_544
La0 Ni2 3.184573 1_555
La0 Ni1 3.184573 1_554
La0 Ni2 3.184573 1_545
La0 Ni1 3.184573 1_455
La0 Ni2 3.184573 1_554
La0 Ni1 3.184573 1_454
La0 Ni1 3.184573 1_555
La0 Ni0 3.184573 1_555
La0 Ni0 3.184573 1_444
La0 Ni0 3.184573 1_445
La0 Ni0 3.184573 1_554
Co0 Ni2 2.461226 1_654
Co0 Ni1 2.461226 1_554
Co0 Ni2 2.461226 1_655
Co0 Ni1 2.461226 1_555
Co0 Ni0 2.461229 1_554
Co0 Ni0 2.461229 1_555
Co0 La0 2.857921 1_655
Co0 Co1 2.857921 1_545
Co0 Co1 2.857921 1_655
Co0 La0 2.857926 1_665
Co0 La0 2.857926 1_555
Co0 Co1 2.857930 1_555
Co1 Ni2 2.461226 1_554
Co1 Ni1 2.461226 1_565
Co1 Ni2 2.461226 1_555
Co1 Ni1 2.461226 1_564
Co1 Ni0 2.461229 1_555
Co1 Ni0 2.461229 1_554
Co1 La0 2.857921 1_565
Co1 La0 2.857926 1_665
Co1 La0 2.857926 1_555
Ni0 Ni1 2.475035 1_565
Ni0 Ni2 2.475035 1_555
Ni0 Ni2 2.475035 1_655
Ni0 Ni1 2.475035 1_555
Ni1 Ni2 2.475035 1_655
Ni1 Ni2 2.475035 1_545
