# generated using pymatgen
data_Lu5Pt4
_symmetry_space_group_name_H-M   'P 1'
_cell_length_a   7.32423835
_cell_length_b   7.36113010
_cell_length_c   14.24574275
_cell_angle_alpha   90.00000000
_cell_angle_beta   90.00000000
_cell_angle_gamma   90.00000000
_symmetry_Int_Tables_number   1
_chemical_formula_structural   Lu5Pt4
_chemical_formula_sum   'Lu20 Pt16'
_cell_volume   768.05453890
_cell_formula_units_Z   4
loop_
 _symmetry_equiv_pos_site_id
 _symmetry_equiv_pos_as_xyz
  1  'x, y, z'
loop_
 _atom_site_type_symbol
 _atom_site_label
 _atom_site_symmetry_multiplicity
 _atom_site_fract_x
 _atom_site_fract_y
 _atom_site_fract_z
 _atom_site_occupancy
  Lu  Lu0  1  0.35172728  0.83317610  0.87674961  1
  Lu  Lu1  1  0.85172728  0.66682390  0.62325039  1
  Lu  Lu2  1  0.64827272  0.16682390  0.37674961  1
  Lu  Lu3  1  0.14827272  0.33317610  0.12325039  1
  Lu  Lu4  1  0.64827272  0.16682390  0.12325039  1
  Lu  Lu5  1  0.14827272  0.33317610  0.37674961  1
  Lu  Lu6  1  0.35172728  0.83317610  0.62325039  1
  Lu  Lu7  1  0.85172728  0.66682390  0.87674961  1
  Lu  Lu8  1  0.50510928  0.32007079  0.90836381  1
  Lu  Lu9  1  0.00510928  0.17992921  0.59163619  1
  Lu  Lu10  1  0.49489072  0.67992921  0.40836381  1
  Lu  Lu11  1  0.99489072  0.82007079  0.09163619  1
  Lu  Lu12  1  0.49489072  0.67992921  0.09163619  1
  Lu  Lu13  1  0.99489072  0.82007079  0.40836381  1
  Lu  Lu14  1  0.50510928  0.32007079  0.59163619  1
  Lu  Lu15  1  0.00510928  0.17992921  0.90836381  1
  Lu  Lu16  1  0.18967572  0.49066824  0.75000000  1
  Lu  Lu17  1  0.68967572  0.00933176  0.75000000  1
  Lu  Lu18  1  0.81032428  0.50933176  0.25000000  1
  Lu  Lu19  1  0.31032428  0.99066824  0.25000000  1
  Pt  Pt0  1  0.31086650  0.03360759  0.04038101  1
  Pt  Pt1  1  0.81086650  0.46639241  0.45961899  1
  Pt  Pt2  1  0.68913350  0.96639241  0.54038101  1
  Pt  Pt3  1  0.18913350  0.53360759  0.95961899  1
  Pt  Pt4  1  0.68913350  0.96639241  0.95961899  1
  Pt  Pt5  1  0.18913350  0.53360759  0.54038101  1
  Pt  Pt6  1  0.31086650  0.03360759  0.45961899  1
  Pt  Pt7  1  0.81086650  0.46639241  0.04038101  1
  Pt  Pt8  1  0.55526504  0.60935839  0.75000000  1
  Pt  Pt9  1  0.05526504  0.89064161  0.75000000  1
  Pt  Pt10  1  0.44473496  0.39064161  0.25000000  1
  Pt  Pt11  1  0.94473496  0.10935839  0.25000000  1
  Pt  Pt12  1  0.33123110  0.14567025  0.75000000  1
  Pt  Pt13  1  0.83123110  0.35432975  0.75000000  1
  Pt  Pt14  1  0.66876890  0.85432975  0.25000000  1
  Pt  Pt15  1  0.16876890  0.64567025  0.25000000  1
loop_
_geom_bond_atom_site_label_1
_geom_bond_atom_site_label_2
_geom_bond_distance
_geom_bond_site_symmetry_2
Lu0 Pt3 2.770305 1_555
Lu0 Pt0 2.774919 1_566
Lu0 Pt9 2.855536 1_555
Lu0 Pt8 2.863063 1_555
Lu0 Pt4 2.909008 1_555
Lu0 Pt12 2.928192 1_565
Lu1 Pt2 2.770305 1_555
Lu1 Pt1 2.774919 1_555
Lu1 Pt8 2.855536 1_555
Lu1 Pt9 2.863063 1_655
Lu1 Pt5 2.909008 1_655
Lu1 Pt13 2.928192 1_555
Lu2 Pt1 2.770305 1_555
Lu2 Pt2 2.774919 1_545
Lu2 Pt11 2.855536 1_555
Lu2 Pt10 2.863063 1_555
Lu2 Pt6 2.909008 1_555
Lu2 Pt14 2.928192 1_545
Lu3 Pt0 2.770305 1_555
Lu3 Pt3 2.774919 1_554
Lu3 Pt10 2.855536 1_555
Lu3 Pt11 2.863063 1_455
Lu3 Pt7 2.909008 1_455
Lu3 Pt15 2.928192 1_555
Lu4 Pt7 2.770305 1_555
Lu4 Pt4 2.774919 1_544
Lu4 Pt11 2.855536 1_555
Lu4 Pt10 2.863063 1_555
Lu4 Pt0 2.909008 1_555
Lu4 Pt14 2.928192 1_545
Lu5 Pt6 2.770305 1_555
Lu5 Pt5 2.774919 1_555
Lu5 Pt10 2.855536 1_555
Lu5 Pt11 2.863063 1_455
Lu5 Pt1 2.909008 1_455
Lu5 Pt15 2.928192 1_555
Lu6 Pt5 2.770305 1_555
Lu6 Pt6 2.774919 1_565
Lu6 Pt9 2.855536 1_555
Lu6 Pt8 2.863063 1_555
Lu6 Pt2 2.909008 1_555
Lu6 Pt12 2.928192 1_565
Lu7 Pt4 2.770305 1_555
Lu7 Pt7 2.774919 1_556
Lu7 Pt8 2.855536 1_555
Lu7 Pt9 2.863063 1_655
Lu7 Pt3 2.909008 1_655
Lu7 Pt13 2.928192 1_555
Lu8 Pt12 2.891289 1_555
Lu8 Pt3 2.891337 1_555
Lu8 Pt4 3.021238 1_545
Lu8 Pt7 3.116438 1_556
Lu8 Pt8 3.123977 1_555
Lu8 Pt0 3.163475 1_556
Lu8 Pt13 3.295233 1_555
Lu9 Pt13 2.891289 1_455
Lu9 Pt2 2.891337 1_445
Lu9 Pt5 3.021238 1_555
Lu9 Pt6 3.116438 1_555
Lu9 Pt9 3.123977 1_545
Lu9 Pt1 3.163475 1_455
Lu9 Pt12 3.295233 1_555
Lu10 Pt14 2.891289 1_555
Lu10 Pt1 2.891337 1_555
Lu10 Pt6 3.021238 1_565
Lu10 Pt5 3.116438 1_555
Lu10 Pt10 3.123977 1_555
Lu10 Pt2 3.163475 1_555
Lu10 Pt15 3.295233 1_555
Lu11 Pt15 2.891289 1_655
Lu11 Pt0 2.891337 1_665
Lu11 Pt7 3.021238 1_555
Lu11 Pt4 3.116438 1_554
Lu11 Pt11 3.123977 1_565
Lu11 Pt3 3.163475 1_654
Lu11 Pt14 3.295233 1_555
Lu12 Pt14 2.891289 1_555
Lu12 Pt7 2.891337 1_555
Lu12 Pt0 3.021238 1_565
Lu12 Pt3 3.116438 1_554
Lu12 Pt10 3.123977 1_555
Lu12 Pt4 3.163475 1_554
Lu12 Pt15 3.295233 1_555
Lu13 Pt15 2.891289 1_655
Lu13 Pt6 2.891337 1_665
Lu13 Pt1 3.021238 1_555
Lu13 Pt2 3.116438 1_555
Lu13 Pt11 3.123977 1_565
Lu13 Pt5 3.163475 1_655
Lu13 Pt14 3.295233 1_555
Lu14 Pt12 2.891289 1_555
Lu14 Pt5 2.891337 1_555
Lu14 Pt2 3.021238 1_545
Lu14 Pt1 3.116438 1_555
Lu14 Pt8 3.123977 1_555
Lu14 Pt6 3.163475 1_555
Lu14 Pt13 3.295233 1_555
Lu15 Pt13 2.891289 1_455
Lu15 Pt4 2.891337 1_445
Lu15 Pt3 3.021238 1_555
Lu15 Pt0 3.116438 1_556
Lu15 Pt9 3.123977 1_545
Lu15 Pt7 3.163475 1_456
Lu15 Pt12 3.295233 1_555
Lu16 Pt12 2.743058 1_555
Lu16 Pt13 2.810623 1_455
Lu16 Pt8 2.816597 1_555
Lu16 Pt5 3.002863 1_555
Lu16 Pt3 3.002863 1_555
Lu16 Pt9 3.104480 1_555
Lu17 Pt13 2.743058 1_555
Lu17 Pt12 2.810623 1_555
Lu17 Pt9 2.816597 1_645
Lu17 Pt2 3.002863 1_545
Lu17 Pt4 3.002863 1_545
Lu17 Pt8 3.104480 1_545
Lu18 Pt14 2.743058 1_555
Lu18 Pt15 2.810623 1_655
Lu18 Pt10 2.816597 1_555
Lu18 Pt7 3.002863 1_555
Lu18 Pt1 3.002863 1_555
Lu18 Pt11 3.104480 1_555
Lu19 Pt15 2.743058 1_555
Lu19 Pt14 2.810623 1_555
Lu19 Pt11 2.816597 1_465
Lu19 Pt0 3.002863 1_565
Lu19 Pt6 3.002863 1_565
Lu19 Pt10 3.104480 1_565
Pt10 Pt15 2.758563 1_555
Pt11 Pt14 2.758563 1_545
Pt12 Pt9 2.758563 1_545
Pt13 Pt8 2.758563 1_555
