# generated using pymatgen
data_Cd3S3O20
_symmetry_space_group_name_H-M   'P 1'
_cell_length_a   9.70449700
_cell_length_b   10.00816722
_cell_length_c   10.00874666
_cell_angle_alpha   85.21223766
_cell_angle_beta   85.26911889
_cell_angle_gamma   85.23411239
_symmetry_Int_Tables_number   1
_chemical_formula_structural   Cd3S3O20
_chemical_formula_sum   'Cd6 S6 O40'
_cell_volume   962.55359684
_cell_formula_units_Z   2
loop_
 _symmetry_equiv_pos_site_id
 _symmetry_equiv_pos_as_xyz
  1  'x, y, z'
loop_
 _atom_site_type_symbol
 _atom_site_label
 _atom_site_symmetry_multiplicity
 _atom_site_fract_x
 _atom_site_fract_y
 _atom_site_fract_z
 _atom_site_occupancy
  Cd  Cd0  1  0.75156600  0.00244000  0.99776000  1
  Cd  Cd1  1  0.24930900  0.00048700  0.99932100  1
  Cd  Cd2  1  0.49908200  0.75452100  0.49823600  1
  Cd  Cd3  1  0.99989800  0.50182700  0.24488700  1
  Cd  Cd4  1  0.49889800  0.24597000  0.49625000  1
  Cd  Cd5  1  0.99911900  0.50279300  0.75278500  1
  S  S0  1  0.74917100  0.48682800  0.51195000  1
  S  S1  1  0.24903200  0.51425200  0.48536400  1
  S  S2  1  0.47613100  0.00008400  0.24896900  1
  S  S3  1  0.02546300  0.75083000  0.99732400  1
  S  S4  1  0.52619000  0.99414000  0.74851200  1
  S  S5  1  0.97295600  0.25146300  0.00524100  1
  O  O0  1  0.86004600  0.45192400  0.60579300  1
  O  O1  1  0.63730800  0.39409000  0.54591300  1
  O  O2  1  0.13584300  0.55029800  0.39459200  1
  O  O3  1  0.36051000  0.60676100  0.44949900  1
  O  O4  1  0.69263500  0.62808000  0.52663300  1
  O  O5  1  0.80665800  0.47155100  0.37110500  1
  O  O6  1  0.30518400  0.37304500  0.46865500  1
  O  O7  1  0.19415900  0.52810100  0.62734300  1
  O  O8  1  0.57605000  0.05091100  0.13905000  1
  O  O9  1  0.92819300  0.86331000  0.94641600  1
  O  O10  1  0.42569100  0.94889700  0.86066300  1
  O  O11  1  0.07009600  0.13635400  0.05075300  1
  O  O12  1  0.52899600  0.86257400  0.30000600  1
  O  O13  1  0.96812500  0.69754100  0.13247300  1
  O  O14  1  0.47282700  0.12826200  0.68966000  1
  O  O15  1  0.03032500  0.31115900  0.87299500  1
  O  O16  1  0.33816800  0.99488200  0.19649700  1
  O  O17  1  0.16353900  0.80114500  0.00810400  1
  O  O18  1  0.66355800  0.00408100  0.80065100  1
  O  O19  1  0.83472900  0.20254300  0.99147400  1
  O  O20  1  0.46047900  0.09112300  0.35978200  1
  O  O21  1  0.04259500  0.64282700  0.90312100  1
  O  O22  1  0.54385900  0.89476800  0.64547100  1
  O  O23  1  0.95547400  0.35284100  0.10627200  1
  O  O24  1  0.86729400  0.93696200  0.31754800  1
  O  O25  1  0.63293500  0.68077100  0.05795100  1
  O  O26  1  0.12904800  0.07674600  0.68111400  1
  O  O27  1  0.36742600  0.31347300  0.92498300  1
  O  O28  1  0.85668900  0.79786000  0.67337200  1
  O  O29  1  0.63101000  0.33183300  0.19810600  1
  O  O30  1  0.14464500  0.19248000  0.33371100  1
  O  O31  1  0.35923700  0.66147000  0.80937700  1
  O  O32  1  0.79689800  0.71974600  0.75574500  1
  O  O33  1  0.69572000  0.25007400  0.27290000  1
  O  O34  1  0.19865900  0.27475800  0.25158500  1
  O  O35  1  0.30558900  0.74276400  0.72620200  1
  O  O36  1  0.97894100  0.89363700  0.36071200  1
  O  O37  1  0.53602600  0.62521300  0.12039600  1
  O  O38  1  0.01347900  0.11447500  0.64353800  1
  O  O39  1  0.48435500  0.34967400  0.89089900  1
loop_
_geom_bond_atom_site_label_1
_geom_bond_atom_site_label_2
_geom_bond_distance
_geom_bond_site_symmetry_2
Cd0 O8 2.171685 1_556
Cd0 O9 2.172226 1_545
Cd0 O18 2.211764 1_555
Cd0 O19 2.214752 1_555
Cd1 O10 2.168729 1_545
Cd1 O11 2.171384 1_556
Cd1 O16 2.212600 1_546
Cd1 O17 2.217059 1_546
Cd2 O12 2.188406 1_555
Cd2 O3 2.189132 1_555
Cd2 O4 2.200754 1_555
Cd2 O22 2.209712 1_555
Cd3 O2 2.185098 1_655
Cd3 O13 2.187833 1_555
Cd3 O5 2.200951 1_555
Cd3 O23 2.210145 1_555
Cd4 O14 2.187955 1_555
Cd4 O1 2.193810 1_555
Cd4 O6 2.203966 1_555
Cd4 O20 2.222534 1_555
Cd5 O15 2.189986 1_655
Cd5 O0 2.193599 1_555
Cd5 O7 2.204002 1_655
Cd5 O21 2.227377 1_655
O0 S0 1.487092 1_555
O1 S0 1.486388 1_555
O2 S1 1.485319 1_555
O3 S1 1.484358 1_555
O4 S0 1.487813 1_555
O5 S0 1.487916 1_555
O6 S1 1.489485 1_555
O7 S1 1.489264 1_555
O8 S2 1.490610 1_555
O9 S3 1.491618 1_655
O10 S4 1.491363 1_555
O11 S5 1.492017 1_455
O12 S2 1.492205 1_565
O13 S3 1.492820 1_654
O14 S4 1.489890 1_545
O15 S5 1.490158 1_456
O16 S2 1.484320 1_565
O17 S3 1.485174 1_554
O18 S4 1.484857 1_545
O19 S5 1.486269 1_556
O20 S2 1.483658 1_555
O21 S3 1.483035 1_555
O22 S4 1.481825 1_555
O23 S5 1.481583 1_555
O24 O36 1.231442 1_555
O25 O37 1.231330 1_555
O26 O38 1.231817 1_555
O27 O39 1.232518 1_555
O28 O32 1.231443 1_555
O29 O33 1.230529 1_555
O30 O34 1.231320 1_555
O31 O35 1.230473 1_555
