# generated using pymatgen
data_LiFe2O3
_symmetry_space_group_name_H-M   'P 1'
_cell_length_a   3.04567934
_cell_length_b   3.04429369
_cell_length_c   14.99788838
_cell_angle_alpha   88.98006043
_cell_angle_beta   92.18895827
_cell_angle_gamma   119.64486821
_symmetry_Int_Tables_number   1
_chemical_formula_structural   LiFe2O3
_chemical_formula_sum   'Li2 Fe4 O6'
_cell_volume   120.76946828
_cell_formula_units_Z   2
loop_
 _symmetry_equiv_pos_site_id
 _symmetry_equiv_pos_as_xyz
  1  'x, y, z'
loop_
 _atom_site_type_symbol
 _atom_site_label
 _atom_site_symmetry_multiplicity
 _atom_site_fract_x
 _atom_site_fract_y
 _atom_site_fract_z
 _atom_site_occupancy
  Li  Li0  1  0.98862300  0.99165900  0.25964900  1
  Li  Li1  1  0.98779900  0.99286200  0.76006800  1
  Fe  Fe0  1  0.33373700  0.67601500  0.58799000  1
  Fe  Fe1  1  0.66988800  0.32551300  0.90525400  1
  Fe  Fe2  1  0.33488500  0.67499200  0.08729800  1
  Fe  Fe3  1  0.67267700  0.32492300  0.40522600  1
  O  O0  1  0.98038900  0.00791300  0.00806400  1
  O  O1  1  0.97952600  0.01002300  0.50864500  1
  O  O2  1  0.34686200  0.65206400  0.33424100  1
  O  O3  1  0.34441400  0.65459000  0.83446700  1
  O  O4  1  0.68122300  0.34419600  0.15421700  1
  O  O5  1  0.67993700  0.34525100  0.65488200  1
loop_
_geom_bond_atom_site_label_1
_geom_bond_atom_site_label_2
_geom_bond_distance
_geom_bond_site_symmetry_2
Li0 O2 2.065835 1_555
Li0 O2 2.073840 1_665
Li0 O2 2.119490 1_655
Li0 O4 2.312839 1_565
Li0 O4 2.331169 1_555
Li0 O4 2.461046 1_665
Li1 O3 2.067670 1_555
Li1 O3 2.075069 1_665
Li1 O3 2.111452 1_655
Li1 O5 2.310968 1_565
Li1 O5 2.328907 1_555
Li1 O5 2.457647 1_665
Fe0 O5 2.016372 1_555
Fe0 O5 2.029452 1_455
Fe0 O5 2.033698 1_565
Fe0 O1 2.115629 1_565
Fe0 O1 2.124781 1_455
Fe0 O1 2.134921 1_465
Fe1 O3 1.994374 1_555
Fe1 O3 2.067705 1_545
Fe1 O3 2.108086 1_655
Fe1 O0 2.224133 1_556
Fe1 O0 2.376291 1_566
Fe1 O0 2.430651 1_456
Fe2 O4 2.016950 1_555
Fe2 O4 2.029347 1_455
Fe2 O4 2.033825 1_565
Fe2 O0 2.113994 1_565
Fe2 O0 2.126226 1_455
Fe2 O0 2.132295 1_465
Fe3 O2 1.992280 1_555
Fe3 O2 2.073676 1_545
Fe3 O2 2.108981 1_655
Fe3 O1 2.218296 1_555
Fe3 O1 2.388590 1_565
Fe3 O1 2.444744 1_455
