# generated using pymatgen
data_Ca(SiO2)6
_symmetry_space_group_name_H-M   'P 1'
_cell_length_a   6.10301028
_cell_length_b   7.40832885
_cell_length_c   7.41524173
_cell_angle_alpha   74.04917597
_cell_angle_beta   65.69976567
_cell_angle_gamma   65.67563332
_symmetry_Int_Tables_number   1
_chemical_formula_structural   Ca(SiO2)6
_chemical_formula_sum   'Ca1 Si6 O12'
_cell_volume   276.18930145
_cell_formula_units_Z   1
loop_
 _symmetry_equiv_pos_site_id
 _symmetry_equiv_pos_as_xyz
  1  'x, y, z'
loop_
 _atom_site_type_symbol
 _atom_site_label
 _atom_site_symmetry_multiplicity
 _atom_site_fract_x
 _atom_site_fract_y
 _atom_site_fract_z
 _atom_site_occupancy
  Ca  Ca0  1  0.49532600  0.25000000  0.75000000  1
  Si  Si0  1  0.37579100  0.31603900  0.30552100  1
  Si  Si1  1  0.99735100  0.18396100  0.19447900  1
  Si  Si2  1  0.62438700  0.69666500  0.68023500  1
  Si  Si3  1  0.00128600  0.80333500  0.81976500  1
  Si  Si4  1  0.99566100  0.25000000  0.75000000  1
  Si  Si5  1  0.99991200  0.75000000  0.25000000  1
  O  O0  1  0.74069900  0.43990000  0.72827300  1
  O  O1  1  0.90887200  0.06010000  0.77172700  1
  O  O2  1  0.24650100  0.55909000  0.27619800  1
  O  O3  1  0.08178900  0.94091000  0.22380200  1
  O  O4  1  0.25815700  0.25432300  0.56131900  1
  O  O5  1  0.07380000  0.24567700  0.93868100  1
  O  O6  1  0.31971000  0.71969100  0.72701600  1
  O  O7  1  0.76641600  0.78030900  0.77298400  1
  O  O8  1  0.67865300  0.27097300  0.29215000  1
  O  O9  1  0.24177700  0.22902700  0.20785000  1
  O  O10  1  0.92764100  0.75251700  0.06111200  1
  O  O11  1  0.74127000  0.74748300  0.43888800  1
loop_
_geom_bond_atom_site_label_1
_geom_bond_atom_site_label_2
_geom_bond_distance
_geom_bond_site_symmetry_2
Ca0 O5 2.378564 1_555
Ca0 O4 2.378570 1_555
Ca0 O0 2.379101 1_555
Ca0 O1 2.379101 1_555
O0 Si4 1.644620 1_555
O0 Si2 1.724085 1_555
O1 Si4 1.644620 1_555
O1 Si3 1.724085 1_645
O2 Si5 1.624516 1_455
O2 Si0 1.633290 1_555
O3 Si5 1.624515 1_455
O3 Si1 1.633290 1_465
O4 Si4 1.642524 1_455
O4 Si0 1.730692 1_555
O5 Si4 1.642528 1_455
O5 Si1 1.730692 1_456
O6 Si3 1.666058 1_555
O6 Si2 1.687399 1_555
O7 Si2 1.666048 1_555
O7 Si3 1.687399 1_655
O8 Si1 1.669578 1_555
O8 Si0 1.701986 1_555
O9 Si0 1.669573 1_555
O9 Si1 1.701992 1_455
O10 Si5 1.626051 1_555
O10 Si3 1.628999 1_654
O11 Si5 1.626051 1_555
O11 Si2 1.628998 1_555
