# generated using pymatgen
data_FeMo6C8(NO10)2
_symmetry_space_group_name_H-M   'P 1'
_cell_length_a   10.98876560
_cell_length_b   10.98876560
_cell_length_c   8.30265155
_cell_angle_alpha   77.67746360
_cell_angle_beta   77.67746360
_cell_angle_gamma   40.89058312
_symmetry_Int_Tables_number   1
_chemical_formula_structural   FeMo6C8(NO10)2
_chemical_formula_sum   'Fe1 Mo6 C8 N2 O20'
_cell_volume   639.04917114
_cell_formula_units_Z   1
loop_
 _symmetry_equiv_pos_site_id
 _symmetry_equiv_pos_as_xyz
  1  'x, y, z'
loop_
 _atom_site_type_symbol
 _atom_site_label
 _atom_site_symmetry_multiplicity
 _atom_site_fract_x
 _atom_site_fract_y
 _atom_site_fract_z
 _atom_site_occupancy
  Fe  Fe0  1  0.00000000  0.00000000  0.00000000  1
  Mo  Mo0  1  0.09010200  0.09010200  0.58172100  1
  Mo  Mo1  1  0.90989800  0.90989800  0.41827900  1
  Mo  Mo2  1  0.80484700  0.32641300  0.29562700  1
  Mo  Mo3  1  0.32641300  0.80484700  0.29562700  1
  Mo  Mo4  1  0.19515300  0.67358700  0.70437300  1
  Mo  Mo5  1  0.67358700  0.19515300  0.70437300  1
  C  C0  1  0.37679100  0.37679100  0.15865800  1
  C  C1  1  0.62320900  0.62320900  0.84134200  1
  C  C2  1  0.19292800  0.46810000  0.24483400  1
  C  C3  1  0.46810000  0.19292800  0.24483400  1
  C  C4  1  0.80707200  0.53190000  0.75516600  1
  C  C5  1  0.53190000  0.80707200  0.75516600  1
  C  C6  1  0.31481400  0.31481400  0.37430800  1
  C  C7  1  0.68518600  0.68518600  0.62569200  1
  N  N0  1  0.28884800  0.28884800  0.18530100  1
  N  N1  1  0.71115200  0.71115200  0.81469900  1
  O  O0  1  0.17528400  0.17528400  0.50941800  1
  O  O1  1  0.82471600  0.82471600  0.49058200  1
  O  O2  1  0.53856300  0.53856300  0.31170900  1
  O  O3  1  0.46143700  0.46143700  0.68829100  1
  O  O4  1  0.82527200  0.29611400  0.54848100  1
  O  O5  1  0.29611400  0.82527200  0.54848100  1
  O  O6  1  0.17472800  0.70388600  0.45151900  1
  O  O7  1  0.70388600  0.17472800  0.45151900  1
  O  O8  1  0.07703700  0.07703700  0.80406800  1
  O  O9  1  0.92296300  0.92296300  0.19593200  1
  O  O10  1  0.86795200  0.43229500  0.22841700  1
  O  O11  1  0.43229500  0.86795200  0.22841700  1
  O  O12  1  0.13204800  0.56770500  0.77158300  1
  O  O13  1  0.56770500  0.13204800  0.77158300  1
  O  O14  1  0.05742000  0.05742000  0.35885900  1
  O  O15  1  0.94258000  0.94258000  0.64114100  1
  O  O16  1  0.84815600  0.23235600  0.11228200  1
  O  O17  1  0.23235600  0.84815600  0.11228200  1
  O  O18  1  0.15184400  0.76764400  0.88771800  1
  O  O19  1  0.76764400  0.15184400  0.88771800  1
loop_
_geom_bond_atom_site_label_1
_geom_bond_atom_site_label_2
_geom_bond_distance
_geom_bond_site_symmetry_2
Fe0 O8 1.996873 1_554
Fe0 O9 1.996873 1_445
Fe0 O19 2.020706 1_454
Fe0 O17 2.020706 1_545
Fe0 O16 2.020706 1_455
Fe0 O18 2.020706 1_544
Mo0 O0 1.719815 1_555
Mo0 O8 1.803915 1_555
Mo0 O5 1.945646 1_545
Mo0 O4 1.945646 1_455
Mo0 O14 2.108083 1_555
Mo1 O1 1.719815 1_555
Mo1 O9 1.803915 1_555
Mo1 O6 1.945646 1_655
Mo1 O7 1.945646 1_565
Mo1 O15 2.108083 1_555
Mo2 O10 1.709852 1_555
Mo2 O16 1.797398 1_555
Mo2 O2 1.915009 1_555
Mo2 O14 2.066866 1_655
Mo2 O4 2.087661 1_555
Mo2 O7 2.635638 1_555
Mo3 O11 1.709852 1_555
Mo3 O17 1.797398 1_555
Mo3 O2 1.915009 1_555
Mo3 O14 2.066866 1_565
Mo3 O5 2.087661 1_555
Mo3 O6 2.635638 1_555
Mo4 O12 1.709852 1_555
Mo4 O18 1.797398 1_555
Mo4 O3 1.915009 1_555
Mo4 O15 2.066866 1_455
Mo4 O6 2.087661 1_555
Mo4 O5 2.635638 1_555
Mo5 O13 1.709852 1_555
Mo5 O19 1.797398 1_555
Mo5 O3 1.915009 1_555
Mo5 O15 2.066866 1_545
Mo5 O7 2.087661 1_555
Mo5 O4 2.635638 1_555
C0 C2 1.491703 1_555
C0 C3 1.491703 1_555
C0 N0 1.773761 1_555
C1 C4 1.491703 1_555
C1 C5 1.491703 1_555
C1 N1 1.773761 1_555
C2 C6 1.489113 1_555
C2 N0 1.513074 1_555
C3 C6 1.489113 1_555
C3 N0 1.513074 1_555
C4 C7 1.489113 1_555
C4 N1 1.513074 1_555
C5 C7 1.489113 1_555
C5 N1 1.513074 1_555
C6 N0 1.769389 1_555
C7 N1 1.769389 1_555
