# generated using pymatgen
data_UNiS3
_symmetry_space_group_name_H-M   'P 1'
_cell_length_a   5.94591100
_cell_length_b   7.06100600
_cell_length_c   8.32895700
_cell_angle_alpha   90.00000000
_cell_angle_beta   90.00000000
_cell_angle_gamma   90.00000000
_symmetry_Int_Tables_number   1
_chemical_formula_structural   UNiS3
_chemical_formula_sum   'U4 Ni4 S12'
_cell_volume   349.68387391
_cell_formula_units_Z   4
loop_
 _symmetry_equiv_pos_site_id
 _symmetry_equiv_pos_as_xyz
  1  'x, y, z'
loop_
 _atom_site_type_symbol
 _atom_site_label
 _atom_site_symmetry_multiplicity
 _atom_site_fract_x
 _atom_site_fract_y
 _atom_site_fract_z
 _atom_site_occupancy
  U  U0  1  0.43630000  0.86740100  0.25000000  1
  U  U1  1  0.06370000  0.36740100  0.25000000  1
  U  U2  1  0.56370000  0.13259900  0.75000000  1
  U  U3  1  0.93630000  0.63259900  0.75000000  1
  Ni  Ni0  1  0.50000000  0.50000000  0.00000000  1
  Ni  Ni1  1  0.00000000  0.00000000  0.50000000  1
  Ni  Ni2  1  0.50000000  0.50000000  0.50000000  1
  Ni  Ni3  1  0.00000000  0.00000000  0.00000000  1
  S  S0  1  0.17189700  0.66665300  0.05236500  1
  S  S1  1  0.32810300  0.16665300  0.44763500  1
  S  S2  1  0.82810300  0.33334700  0.55236500  1
  S  S3  1  0.67189700  0.83334700  0.94763500  1
  S  S4  1  0.82810300  0.33334700  0.94763500  1
  S  S5  1  0.67189700  0.83334700  0.55236500  1
  S  S6  1  0.17189700  0.66665300  0.44763500  1
  S  S7  1  0.32810300  0.16665300  0.05236500  1
  S  S8  1  0.85240700  0.03746600  0.25000000  1
  S  S9  1  0.64759300  0.53746600  0.25000000  1
  S  S10  1  0.14759300  0.96253400  0.75000000  1
  S  S11  1  0.35240700  0.46253400  0.75000000  1
loop_
_geom_bond_atom_site_label_1
_geom_bond_atom_site_label_2
_geom_bond_distance
_geom_bond_site_symmetry_2
Ni0 S9 2.275048 1_555
Ni0 S11 2.275048 1_554
Ni0 S0 2.319662 1_555
Ni0 S4 2.319662 1_554
Ni0 S7 2.602900 1_555
Ni0 S3 2.602900 1_554
Ni1 S10 2.275048 1_545
Ni1 S8 2.275048 1_455
Ni1 S1 2.319662 1_555
Ni1 S5 2.319662 1_445
Ni1 S2 2.602900 1_455
Ni1 S6 2.602900 1_545
Ni2 S9 2.275048 1_555
Ni2 S11 2.275048 1_555
Ni2 S2 2.319662 1_555
Ni2 S6 2.319662 1_555
Ni2 S5 2.602900 1_555
Ni2 S1 2.602900 1_555
Ni3 S10 2.275048 1_544
Ni3 S8 2.275048 1_455
Ni3 S7 2.319662 1_555
Ni3 S3 2.319662 1_444
Ni3 S4 2.602900 1_454
Ni3 S0 2.602900 1_545
S0 U0 2.681498 1_555
S0 U1 2.754696 1_555
S0 U3 2.891787 1_454
S1 U1 2.681498 1_555
S1 U0 2.754696 1_545
S1 U2 2.891787 1_555
S2 U2 2.681498 1_555
S2 U3 2.754696 1_555
S2 U1 2.891787 1_655
S3 U3 2.681498 1_555
S3 U2 2.754696 1_565
S3 U0 2.891787 1_556
S4 U2 2.681498 1_555
S4 U3 2.754696 1_555
S4 U1 2.891787 1_656
S5 U3 2.681498 1_555
S5 U2 2.754696 1_565
S5 U0 2.891787 1_555
S6 U0 2.681498 1_555
S6 U1 2.754696 1_555
S6 U3 2.891787 1_455
S7 U1 2.681498 1_555
S7 U0 2.754696 1_545
S7 U2 2.891787 1_554
S8 U1 2.646836 1_655
S8 U0 2.750152 1_545
S9 U0 2.646836 1_555
S9 U1 2.750152 1_655
S10 U3 2.646836 1_455
S10 U2 2.750152 1_565
S11 U2 2.646836 1_555
S11 U3 2.750152 1_455
