# generated using pymatgen
data_Li(FeO2)2
_symmetry_space_group_name_H-M   'P 1'
_cell_length_a   5.84733819
_cell_length_b   5.84733819
_cell_length_c   9.41520489
_cell_angle_alpha   89.73344558
_cell_angle_beta   89.73344558
_cell_angle_gamma   119.61718094
_symmetry_Int_Tables_number   1
_chemical_formula_structural   Li(FeO2)2
_chemical_formula_sum   'Li4 Fe8 O16'
_cell_volume   279.84700540
_cell_formula_units_Z   4
loop_
 _symmetry_equiv_pos_site_id
 _symmetry_equiv_pos_as_xyz
  1  'x, y, z'
loop_
 _atom_site_type_symbol
 _atom_site_label
 _atom_site_symmetry_multiplicity
 _atom_site_fract_x
 _atom_site_fract_y
 _atom_site_fract_z
 _atom_site_occupancy
  Li  Li0  1  0.32746100  0.66778200  0.10557400  1
  Li  Li1  1  0.00201800  0.00701800  0.00341400  1
  Li  Li2  1  0.00701800  0.00201800  0.50341400  1
  Li  Li3  1  0.66778200  0.32746100  0.60557400  1
  Fe  Fe0  1  0.16846300  0.34107000  0.78736300  1
  Fe  Fe1  1  0.34103800  0.65782000  0.51443800  1
  Fe  Fe2  1  0.66044100  0.83106200  0.78704800  1
  Fe  Fe3  1  0.16860400  0.83116000  0.78607900  1
  Fe  Fe4  1  0.83116000  0.16860400  0.28607900  1
  Fe  Fe5  1  0.65782000  0.34103800  0.01443800  1
  Fe  Fe6  1  0.34107000  0.16846300  0.28736300  1
  Fe  Fe7  1  0.83106200  0.66044100  0.28704800  1
  O  O0  1  0.17581800  0.32802800  0.39889100  1
  O  O1  1  0.47572000  0.50849100  0.66083800  1
  O  O2  1  0.32944200  0.65895900  0.89676700  1
  O  O3  1  0.00342100  0.01116400  0.69128000  1
  O  O4  1  0.01116400  0.00342100  0.19128000  1
  O  O5  1  0.67274000  0.82648400  0.40100300  1
  O  O6  1  0.04245300  0.50827900  0.65722600  1
  O  O7  1  0.48809800  0.95432800  0.65586900  1
  O  O8  1  0.83716400  0.17515800  0.90029400  1
  O  O9  1  0.17515800  0.83716400  0.40029400  1
  O  O10  1  0.50827900  0.04245300  0.15722600  1
  O  O11  1  0.95432800  0.48809800  0.15586900  1
  O  O12  1  0.65895900  0.32944200  0.39676700  1
  O  O13  1  0.32802800  0.17581800  0.89889100  1
  O  O14  1  0.50849100  0.47572000  0.16083800  1
  O  O15  1  0.82648400  0.67274000  0.90100300  1
loop_
_geom_bond_atom_site_label_1
_geom_bond_atom_site_label_2
_geom_bond_distance
_geom_bond_site_symmetry_2
Li0 O11 1.951537 1_455
Li0 O14 1.956322 1_555
Li0 O2 1.967008 1_554
Li0 O10 1.969595 1_565
Li1 O4 1.770195 1_555
Li1 O13 1.921040 1_554
Li1 O8 1.942949 1_454
Li1 O15 1.961528 1_444
Li2 O3 1.770195 1_555
Li2 O0 1.921040 1_555
Li2 O9 1.942949 1_545
Li2 O5 1.961528 1_445
Li3 O7 1.951537 1_545
Li3 O1 1.956322 1_555
Li3 O12 1.967008 1_555
Li3 O6 1.969595 1_655
Fe0 O3 1.911887 1_555
Fe0 O2 1.923449 1_555
Fe0 O6 1.925993 1_555
Fe0 O13 1.948761 1_555
Fe0 O1 1.958611 1_555
Fe0 O8 1.984484 1_455
Fe1 O5 1.988841 1_555
Fe1 O1 1.990270 1_555
Fe1 O0 2.005863 1_555
Fe1 O7 2.019192 1_555
Fe1 O6 2.019524 1_555
Fe1 O9 2.049417 1_555
Fe2 O7 1.944667 1_555
Fe2 O3 1.957285 1_665
Fe2 O15 1.959514 1_555
Fe2 O2 1.967856 1_555
Fe2 O1 2.038504 1_555
Fe2 O8 2.056251 1_565
Fe3 O3 1.959987 1_565
Fe3 O2 1.979850 1_555
Fe3 O7 2.037740 1_555
Fe3 O15 2.041997 1_455
Fe3 O13 2.056924 1_565
Fe3 O6 2.057561 1_555
Fe4 O4 1.959987 1_655
Fe4 O12 1.979850 1_555
Fe4 O11 2.037740 1_555
Fe4 O5 2.041997 1_545
Fe4 O0 2.056924 1_655
Fe4 O10 2.057561 1_555
Fe5 O15 1.988841 1_554
Fe5 O14 1.990270 1_555
Fe5 O13 2.005863 1_554
Fe5 O11 2.019192 1_555
Fe5 O10 2.019524 1_555
Fe5 O8 2.049417 1_554
Fe6 O4 1.911887 1_555
Fe6 O12 1.923449 1_555
Fe6 O10 1.925993 1_555
Fe6 O0 1.948761 1_555
Fe6 O14 1.958611 1_555
Fe6 O9 1.984484 1_545
Fe7 O11 1.944667 1_555
Fe7 O4 1.957285 1_665
Fe7 O5 1.959514 1_555
Fe7 O12 1.967856 1_555
Fe7 O14 2.038504 1_555
Fe7 O9 2.056251 1_655
