# generated using pymatgen
data_Li9Co7O16
_symmetry_space_group_name_H-M   'P 1'
_cell_length_a   2.92743600
_cell_length_b   9.74655700
_cell_length_c   10.16183448
_cell_angle_alpha   77.65982367
_cell_angle_beta   90.00000000
_cell_angle_gamma   90.00000000
_symmetry_Int_Tables_number   1
_chemical_formula_structural   Li9Co7O16
_chemical_formula_sum   'Li9 Co7 O16'
_cell_volume   283.24292087
_cell_formula_units_Z   1
loop_
 _symmetry_equiv_pos_site_id
 _symmetry_equiv_pos_as_xyz
  1  'x, y, z'
loop_
 _atom_site_type_symbol
 _atom_site_label
 _atom_site_symmetry_multiplicity
 _atom_site_fract_x
 _atom_site_fract_y
 _atom_site_fract_z
 _atom_site_occupancy
  Li  Li0  1  0.50000000  0.24666100  0.12086100  1
  Li  Li1  1  0.50000000  0.25126200  0.62679300  1
  Li  Li2  1  0.00000000  0.00152300  0.24290700  1
  Li  Li3  1  0.00000000  0.99847700  0.75709300  1
  Li  Li4  1  0.50000000  0.74873800  0.37320700  1
  Li  Li5  1  0.50000000  0.75333900  0.87913900  1
  Li  Li6  1  0.00000000  0.50000000  0.00000000  1
  Li  Li7  1  0.00000000  0.50000000  0.50000000  1
  Li  Li8  1  0.50000000  0.00000000  0.00000000  1
  Co  Co0  1  0.00000000  0.24437500  0.87992300  1
  Co  Co1  1  0.00000000  0.75562500  0.12007700  1
  Co  Co2  1  0.00000000  0.24917200  0.37381800  1
  Co  Co3  1  0.50000000  0.00000000  0.50000000  1
  Co  Co4  1  0.00000000  0.75082800  0.62618200  1
  Co  Co5  1  0.50000000  0.50214200  0.25352200  1
  Co  Co6  1  0.50000000  0.49785800  0.74647800  1
  O  O0  1  0.50000000  0.36326500  0.92451800  1
  O  O1  1  0.50000000  0.37708000  0.42897700  1
  O  O2  1  0.00000000  0.13774900  0.04726300  1
  O  O3  1  0.00000000  0.12467700  0.55187500  1
  O  O4  1  0.50000000  0.85600400  0.17799900  1
  O  O5  1  0.50000000  0.87877500  0.67532900  1
  O  O6  1  0.00000000  0.62166600  0.80462700  1
  O  O7  1  0.00000000  0.62727700  0.29977300  1
  O  O8  1  0.50000000  0.12122500  0.32467100  1
  O  O9  1  0.50000000  0.14399600  0.82200100  1
  O  O10  1  0.00000000  0.87532300  0.44812500  1
  O  O11  1  0.00000000  0.86225100  0.95273700  1
  O  O12  1  0.50000000  0.62292000  0.57102300  1
  O  O13  1  0.50000000  0.63673500  0.07548200  1
  O  O14  1  0.00000000  0.37833400  0.19537300  1
  O  O15  1  0.00000000  0.37272300  0.70022700  1
loop_
_geom_bond_atom_site_label_1
_geom_bond_atom_site_label_2
_geom_bond_distance
_geom_bond_site_symmetry_2
Li0 O2 2.041560 1_655
Li0 O2 2.041560 1_555
Li0 O0 2.074424 1_554
Li0 O8 2.168361 1_555
Li0 O14 2.185897 1_555
Li0 O14 2.185897 1_655
Li1 O9 2.035075 1_555
Li1 O15 2.116213 1_655
Li1 O15 2.116213 1_555
Li1 O1 2.119186 1_555
Li1 O3 2.155391 1_555
Li1 O3 2.155391 1_655
Li2 O2 2.141764 1_555
Li2 O8 2.146696 1_555
Li2 O8 2.146696 1_455
Li2 O10 2.182981 1_545
Li2 O4 2.233603 1_445
Li2 O4 2.233603 1_545
Li3 O11 2.141764 1_555
Li3 O5 2.146696 1_455
Li3 O5 2.146696 1_555
Li3 O3 2.182981 1_565
Li3 O9 2.233603 1_465
Li3 O9 2.233603 1_565
Li4 O4 2.035075 1_555
Li4 O7 2.116213 1_555
Li4 O7 2.116213 1_655
Li4 O12 2.119186 1_555
Li4 O10 2.155391 1_655
Li4 O10 2.155391 1_555
Li5 O11 2.041560 1_555
Li5 O11 2.041560 1_655
Li5 O13 2.074424 1_556
Li5 O5 2.168361 1_555
Li5 O6 2.185897 1_655
Li5 O6 2.185897 1_555
Li6 O14 2.083626 1_555
Li6 O6 2.083626 1_554
Li6 O13 2.223471 1_455
Li6 O0 2.223471 1_554
Li6 O13 2.223471 1_555
Li6 O0 2.223471 1_454
Li7 O12 2.113824 1_555
Li7 O1 2.113824 1_455
Li7 O1 2.113824 1_555
Li7 O12 2.113824 1_455
Li7 O7 2.144742 1_555
Li7 O15 2.144742 1_555
Li8 O9 2.038723 1_554
Li8 O4 2.038723 1_545
Li8 O11 2.109803 1_544
Li8 O2 2.109803 1_655
Li8 O2 2.109803 1_555
Li8 O11 2.109803 1_644
Co0 O2 1.793402 1_556
Co0 O9 1.921514 1_455
Co0 O9 1.921514 1_555
Co0 O0 1.978642 1_455
Co0 O0 1.978642 1_555
Co0 O15 1.980639 1_555
Co1 O11 1.793402 1_554
Co1 O4 1.921514 1_555
Co1 O4 1.921514 1_455
Co1 O13 1.978642 1_455
Co1 O13 1.978642 1_555
Co1 O7 1.980639 1_555
Co2 O3 1.951354 1_555
Co2 O14 1.974139 1_555
Co2 O8 2.052612 1_555
Co2 O8 2.052612 1_455
Co2 O1 2.075932 1_455
Co2 O1 2.075932 1_555
Co3 O8 1.915869 1_555
Co3 O5 1.915869 1_545
Co3 O3 2.042252 1_655
Co3 O10 2.042252 1_545
Co3 O10 2.042252 1_645
Co3 O3 2.042252 1_555
Co4 O10 1.951354 1_555
Co4 O6 1.974139 1_555
Co4 O5 2.052612 1_455
Co4 O5 2.052612 1_555
Co4 O12 2.075932 1_455
Co4 O12 2.075932 1_555
Co5 O1 1.932807 1_555
Co5 O13 1.994912 1_555
Co5 O7 2.023830 1_655
Co5 O7 2.023830 1_555
Co5 O14 2.062168 1_555
Co5 O14 2.062168 1_655
Co6 O12 1.932807 1_555
Co6 O0 1.994912 1_555
Co6 O15 2.023830 1_555
Co6 O15 2.023830 1_655
Co6 O6 2.062168 1_555
Co6 O6 2.062168 1_655
