# generated using pymatgen
data_BaBiO3
_symmetry_space_group_name_H-M   'P 1'
_cell_length_a   4.43647442
_cell_length_b   4.43647442
_cell_length_c   4.43647433
_cell_angle_alpha   90.07361203
_cell_angle_beta   90.07361203
_cell_angle_gamma   90.07362282
_symmetry_Int_Tables_number   1
_chemical_formula_structural   BaBiO3
_chemical_formula_sum   'Ba1 Bi1 O3'
_cell_volume   87.31982580
_cell_formula_units_Z   1
loop_
 _symmetry_equiv_pos_site_id
 _symmetry_equiv_pos_as_xyz
  1  'x, y, z'
loop_
 _atom_site_type_symbol
 _atom_site_label
 _atom_site_symmetry_multiplicity
 _atom_site_fract_x
 _atom_site_fract_y
 _atom_site_fract_z
 _atom_site_occupancy
  Ba  Ba0  1  0.50000000  0.50000000  0.50000000  1
  Bi  Bi0  1  0.00000000  0.00000000  0.00000000  1
  O  O0  1  0.01085900  0.50000000  0.98914100  1
  O  O1  1  0.50000000  0.98914100  0.01085900  1
  O  O2  1  0.98914100  0.01085900  0.50000000  1
loop_
_geom_bond_atom_site_label_1
_geom_bond_atom_site_label_2
_geom_bond_distance
_geom_bond_site_symmetry_2
Ba0 O1 3.070901 1_555
Ba0 O0 3.070901 1_555
Ba0 O2 3.070902 1_555
Ba0 O2 3.135786 1_455
Ba0 O2 3.135786 1_565
Ba0 O0 3.135786 1_554
Ba0 O1 3.135786 1_556
Ba0 O0 3.135786 1_655
Ba0 O1 3.135786 1_545
Ba0 O0 3.207250 1_654
Ba0 O1 3.207250 1_546
Ba0 O2 3.207250 1_465
Bi0 O2 2.219285 1_455
Bi0 O2 2.219285 1_454
Bi0 O1 2.219285 1_445
Bi0 O0 2.219285 1_554
Bi0 O1 2.219285 1_545
Bi0 O0 2.219285 1_544
