# generated using pymatgen
data_Nb10Ge7
_symmetry_space_group_name_H-M   'P 1'
_cell_length_a   5.43335104
_cell_length_b   7.84180142
_cell_length_c   7.84062724
_cell_angle_alpha   120.00494720
_cell_angle_beta   90.00731717
_cell_angle_gamma   89.98536827
_symmetry_Int_Tables_number   1
_chemical_formula_structural   Nb10Ge7
_chemical_formula_sum   'Nb10 Ge7'
_cell_volume   289.29663214
_cell_formula_units_Z   1
loop_
 _symmetry_equiv_pos_site_id
 _symmetry_equiv_pos_as_xyz
  1  'x, y, z'
loop_
 _atom_site_type_symbol
 _atom_site_label
 _atom_site_symmetry_multiplicity
 _atom_site_fract_x
 _atom_site_fract_y
 _atom_site_fract_z
 _atom_site_occupancy
  Nb  Nb0  1  0.76989900  0.26402800  0.00000000  1
  Nb  Nb1  1  0.76991900  0.73577200  0.73595200  1
  Nb  Nb2  1  0.76991900  0.99982000  0.26404800  1
  Nb  Nb3  1  0.23004900  0.73590300  0.00000000  1
  Nb  Nb4  1  0.23008900  0.26400100  0.26418200  1
  Nb  Nb5  1  0.23008900  0.99981900  0.73581800  1
  Nb  Nb6  1  0.50001300  0.33328900  0.66661700  1
  Nb  Nb7  1  0.50001300  0.66667200  0.33338300  1
  Nb  Nb8  1  0.00001300  0.66692900  0.33334200  1
  Nb  Nb9  1  0.00001300  0.33358700  0.66665800  1
  Ge  Ge0  1  0.74459400  0.60925600  0.00000000  1
  Ge  Ge1  1  0.74464500  0.39113000  0.39126900  1
  Ge  Ge2  1  0.74464500  0.99986100  0.60873100  1
  Ge  Ge3  1  0.25546700  0.39122800  0.00000000  1
  Ge  Ge4  1  0.25533500  0.60899800  0.60909500  1
  Ge  Ge5  1  0.25533500  0.99990300  0.39090500  1
  Ge  Ge6  1  0.49996400  0.99980400  0.00000000  1
loop_
_geom_bond_atom_site_label_1
_geom_bond_atom_site_label_2
_geom_bond_distance
_geom_bond_site_symmetry_2
Ge0 Nb1 2.709944 1_554
Ge0 Nb2 2.709944 1_555
Ge0 Nb0 2.710663 1_555
Ge0 Nb7 2.761307 1_555
Ge0 Nb6 2.761307 1_554
Ge0 Nb8 2.789018 1_655
Ge0 Nb9 2.789018 1_654
Ge0 Nb3 2.818661 1_655
Ge0 Nb3 2.966626 1_555
Ge1 Nb1 2.705875 1_555
Ge1 Nb0 2.713946 1_555
Ge1 Nb2 2.714495 1_545
Ge1 Nb6 2.759293 1_555
Ge1 Nb7 2.760565 1_555
Ge1 Nb9 2.786470 1_655
Ge1 Nb8 2.791616 1_655
Ge1 Nb4 2.819472 1_655
Ge1 Nb4 2.968203 1_555
Ge2 Nb2 2.705874 1_555
Ge2 Nb0 2.713946 1_566
Ge2 Nb1 2.714495 1_555
Ge2 Nb7 2.759294 1_555
Ge2 Nb6 2.760565 1_565
Ge2 Nb8 2.786471 1_655
Ge2 Nb9 2.791616 1_665
Ge2 Nb5 2.819472 1_655
Ge2 Nb5 2.968203 1_555
Ge3 Nb3 2.706364 1_555
Ge3 Nb4 2.715127 1_555
Ge3 Nb5 2.715127 1_544
Ge3 Nb6 2.759945 1_554
Ge3 Nb7 2.759945 1_555
Ge3 Nb9 2.789189 1_554
Ge3 Nb8 2.789189 1_555
Ge3 Nb0 2.820767 1_455
Ge3 Nb0 2.967501 1_555
Ge4 Nb4 2.708158 1_555
Ge4 Nb3 2.711559 1_556
Ge4 Nb5 2.711631 1_555
Ge4 Nb6 2.760232 1_555
Ge4 Nb7 2.761154 1_555
Ge4 Nb9 2.787317 1_555
Ge4 Nb8 2.790462 1_555
Ge4 Nb1 2.818520 1_455
Ge4 Nb1 2.967577 1_555
Ge5 Nb5 2.708157 1_555
Ge5 Nb3 2.711559 1_555
Ge5 Nb4 2.711631 1_565
Ge5 Nb7 2.760233 1_555
Ge5 Nb6 2.761154 1_565
Ge5 Nb8 2.787317 1_555
Ge5 Nb9 2.790462 1_565
Ge5 Nb2 2.818520 1_455
Ge5 Nb2 2.967577 1_555
Ge6 Nb3 2.536722 1_555
Ge6 Nb2 2.537026 1_555
Ge6 Nb1 2.537026 1_554
Ge6 Nb5 2.537731 1_554
Ge6 Nb4 2.537731 1_565
Ge6 Nb0 2.538852 1_565
