# generated using pymatgen
data_LiRh3
_symmetry_space_group_name_H-M   'P 1'
_cell_length_a   4.67692926
_cell_length_b   4.67692926
_cell_length_c   4.67692926
_cell_angle_alpha   132.36483191
_cell_angle_beta   132.36483191
_cell_angle_gamma   69.65342132
_symmetry_Int_Tables_number   1
_chemical_formula_structural   LiRh3
_chemical_formula_sum   'Li1 Rh3'
_cell_volume   54.77878686
_cell_formula_units_Z   1
loop_
 _symmetry_equiv_pos_site_id
 _symmetry_equiv_pos_as_xyz
  1  'x, y, z'
loop_
 _atom_site_type_symbol
 _atom_site_label
 _atom_site_symmetry_multiplicity
 _atom_site_fract_x
 _atom_site_fract_y
 _atom_site_fract_z
 _atom_site_occupancy
  Li  Li0  1  0.00000000  0.00000000  0.00000000  1
  Rh  Rh0  1  0.75000000  0.25000000  0.50000000  1
  Rh  Rh1  1  0.25000000  0.75000000  0.50000000  1
  Rh  Rh2  1  0.50000000  0.50000000  0.00000000  1
loop_
_geom_bond_atom_site_label_1
_geom_bond_atom_site_label_2
_geom_bond_distance
_geom_bond_site_symmetry_2
Li0 Rh2 2.670977 1_455
Li0 Rh2 2.670977 1_556
Li0 Rh2 2.670977 1_444
Li0 Rh2 2.670977 1_545
Li0 Rh1 2.692944 1_544
Li0 Rh1 2.692944 1_444
Li0 Rh0 2.692944 1_455
Li0 Rh0 2.692944 1_454
Li0 Rh1 2.692944 1_545
Li0 Rh1 2.692944 1_555
Li0 Rh0 2.692944 1_444
Li0 Rh0 2.692944 1_555
