# generated using pymatgen
data_RbSr2Br5
_symmetry_space_group_name_H-M   'P 1'
_cell_length_a   8.39782741
_cell_length_b   9.46687936
_cell_length_c   13.41241905
_cell_angle_alpha   89.85288735
_cell_angle_beta   90.00000000
_cell_angle_gamma   90.00000000
_symmetry_Int_Tables_number   1
_chemical_formula_structural   RbSr2Br5
_chemical_formula_sum   'Rb4 Sr8 Br20'
_cell_volume   1066.30014897
_cell_formula_units_Z   4
loop_
 _symmetry_equiv_pos_site_id
 _symmetry_equiv_pos_as_xyz
  1  'x, y, z'
loop_
 _atom_site_type_symbol
 _atom_site_label
 _atom_site_symmetry_multiplicity
 _atom_site_fract_x
 _atom_site_fract_y
 _atom_site_fract_z
 _atom_site_occupancy
  Rb  Rb0  1  0.44809972  0.49126957  0.83292687  1
  Rb  Rb1  1  0.55190028  0.50873043  0.16707313  1
  Rb  Rb2  1  0.94809972  0.50873043  0.66707313  1
  Rb  Rb3  1  0.05190028  0.49126957  0.33292687  1
  Sr  Sr0  1  0.47602735  0.99852207  0.82147861  1
  Sr  Sr1  1  0.52397265  0.00147793  0.17852139  1
  Sr  Sr2  1  0.97602735  0.00147793  0.67852139  1
  Sr  Sr3  1  0.02397265  0.99852207  0.32147861  1
  Sr  Sr4  1  0.43084075  0.75178726  0.50609090  1
  Sr  Sr5  1  0.56915925  0.24821274  0.49390910  1
  Sr  Sr6  1  0.93084075  0.24821274  0.99390910  1
  Sr  Sr7  1  0.06915925  0.75178726  0.00609090  1
  Br  Br0  1  0.32556501  0.46334533  0.58242846  1
  Br  Br1  1  0.67443499  0.53665467  0.41757154  1
  Br  Br2  1  0.82556501  0.53665467  0.91757154  1
  Br  Br3  1  0.17443499  0.46334533  0.08242846  1
  Br  Br4  1  0.66679096  0.78467287  0.68386559  1
  Br  Br5  1  0.33320904  0.21532713  0.31613441  1
  Br  Br6  1  0.16679096  0.21532713  0.81613441  1
  Br  Br7  1  0.83320904  0.78467287  0.18386559  1
  Br  Br8  1  0.19084934  0.77296839  0.78300551  1
  Br  Br9  1  0.80915066  0.22703161  0.21699449  1
  Br  Br10  1  0.69084934  0.22703161  0.71699449  1
  Br  Br11  1  0.30915066  0.77296839  0.28300551  1
  Br  Br12  1  0.04619300  0.78666086  0.50193306  1
  Br  Br13  1  0.95380700  0.21333914  0.49806694  1
  Br  Br14  1  0.54619300  0.21333914  0.99806694  1
  Br  Br15  1  0.45380700  0.78666086  0.00193306  1
  Br  Br16  1  0.83919070  0.96047597  0.90056797  1
  Br  Br17  1  0.16080930  0.03952403  0.09943203  1
  Br  Br18  1  0.33919070  0.03952403  0.59943203  1
  Br  Br19  1  0.66080930  0.96047597  0.40056797  1
loop_
_geom_bond_atom_site_label_1
_geom_bond_atom_site_label_2
_geom_bond_distance
_geom_bond_site_symmetry_2
Br0 Sr4 3.044994 1_555
Br0 Sr5 3.123238 1_555
Br0 Rb2 3.394729 1_455
Br0 Rb0 3.524418 1_555
Br0 Rb3 4.067621 1_555
Br1 Sr5 3.044994 1_555
Br1 Sr4 3.123238 1_555
Br1 Rb3 3.394729 1_655
Br1 Rb1 3.524418 1_555
Br1 Rb2 4.067621 1_555
Br2 Sr6 3.044994 1_555
Br2 Sr7 3.123238 1_656
Br2 Rb0 3.394729 1_555
Br2 Rb2 3.524418 1_555
Br2 Rb1 4.067621 1_556
Br3 Sr7 3.044994 1_555
Br3 Sr6 3.123238 1_454
Br3 Rb1 3.394729 1_555
Br3 Rb3 3.524418 1_555
Br3 Rb0 4.067621 1_554
Br4 Sr4 3.116451 1_555
Br4 Sr0 3.176606 1_555
Br4 Sr2 3.310735 1_565
Br4 Rb2 3.529700 1_555
Br4 Rb0 3.880278 1_555
Br5 Sr5 3.116451 1_555
Br5 Sr1 3.176606 1_555
Br5 Sr3 3.310735 1_545
Br5 Rb3 3.529700 1_555
Br5 Rb1 3.880278 1_555
Br6 Sr6 3.116451 1_455
Br6 Sr2 3.176606 1_455
Br6 Sr0 3.310735 1_545
Br6 Rb0 3.529700 1_555
Br6 Rb2 3.880278 1_455
Br7 Sr7 3.116451 1_655
Br7 Sr3 3.176606 1_655
Br7 Sr1 3.310735 1_565
Br7 Rb1 3.529700 1_555
Br7 Rb3 3.880278 1_655
Br8 Sr2 3.143662 1_465
Br8 Sr7 3.167684 1_556
Br8 Sr0 3.250665 1_555
Br8 Rb0 3.495441 1_555
Br8 Rb2 3.584844 1_455
Br9 Sr3 3.143662 1_645
Br9 Sr6 3.167684 1_554
Br9 Sr1 3.250665 1_555
Br9 Rb1 3.495441 1_555
Br9 Rb3 3.584844 1_655
Br10 Sr0 3.143662 1_545
Br10 Sr5 3.167684 1_555
Br10 Sr2 3.250665 1_555
Br10 Rb2 3.495441 1_555
Br10 Rb0 3.584844 1_555
Br11 Sr1 3.143662 1_565
Br11 Sr4 3.167684 1_555
Br11 Sr3 3.250665 1_555
Br11 Rb3 3.495441 1_555
Br11 Rb1 3.584844 1_555
Br12 Sr3 3.144930 1_555
Br12 Sr2 3.180777 1_465
Br12 Sr4 3.247497 1_555
Br12 Rb2 3.532342 1_455
Br12 Rb3 3.604607 1_555
Br13 Sr2 3.144930 1_555
Br13 Sr3 3.180777 1_645
Br13 Sr5 3.247497 1_555
Br13 Rb3 3.532342 1_655
Br13 Rb2 3.604607 1_555
Br14 Sr1 3.144930 1_556
Br14 Sr0 3.180777 1_545
Br14 Sr6 3.247497 1_555
Br14 Rb0 3.532342 1_555
Br14 Rb1 3.604607 1_556
Br15 Sr0 3.144930 1_554
Br15 Sr1 3.180777 1_565
Br15 Sr7 3.247497 1_555
Br15 Rb1 3.532342 1_555
Br15 Rb0 3.604607 1_554
Br16 Sr6 3.097939 1_565
Br16 Sr7 3.101863 1_656
Br16 Sr2 3.214778 1_565
Br16 Sr0 3.248722 1_555
Br17 Sr7 3.097939 1_545
Br17 Sr6 3.101863 1_454
Br17 Sr3 3.214778 1_545
Br17 Sr1 3.248722 1_555
Br18 Sr4 3.097939 1_545
Br18 Sr5 3.101863 1_555
Br18 Sr0 3.214778 1_545
Br18 Sr2 3.248722 1_455
Br19 Sr5 3.097939 1_565
Br19 Sr4 3.101863 1_555
Br19 Sr1 3.214778 1_565
Br19 Sr3 3.248722 1_655
