# generated using pymatgen
data_Sr14(SnAs4)3
_symmetry_space_group_name_H-M   'P 1'
_cell_length_a   9.54624835
_cell_length_b   9.54624910
_cell_length_c   9.54624884
_cell_angle_alpha   86.88408920
_cell_angle_beta   86.88408942
_cell_angle_gamma   86.88408609
_symmetry_Int_Tables_number   1
_chemical_formula_structural   Sr14(SnAs4)3
_chemical_formula_sum   'Sr14 Sn3 As12'
_cell_volume   866.23410698
_cell_formula_units_Z   1
loop_
 _symmetry_equiv_pos_site_id
 _symmetry_equiv_pos_as_xyz
  1  'x, y, z'
loop_
 _atom_site_type_symbol
 _atom_site_label
 _atom_site_symmetry_multiplicity
 _atom_site_fract_x
 _atom_site_fract_y
 _atom_site_fract_z
 _atom_site_occupancy
  Sr  Sr0  1  0.41344114  0.27069153  0.77383149  1
  Sr  Sr1  1  0.77383149  0.41344114  0.27069153  1
  Sr  Sr2  1  0.27069153  0.77383149  0.41344114  1
  Sr  Sr3  1  0.98732365  0.53760454  0.65310527  1
  Sr  Sr4  1  0.65310527  0.98732365  0.53760454  1
  Sr  Sr5  1  0.53760454  0.65310527  0.98732365  1
  Sr  Sr6  1  0.17509929  0.53576558  0.02083843  1
  Sr  Sr7  1  0.02083843  0.17509929  0.53576558  1
  Sr  Sr8  1  0.53576558  0.02083843  0.17509929  1
  Sr  Sr9  1  0.76400009  0.26642357  0.90979768  1
  Sr  Sr10  1  0.90979768  0.76400009  0.26642357  1
  Sr  Sr11  1  0.26642357  0.90979768  0.76400009  1
  Sr  Sr12  1  0.18715947  0.18715947  0.18715947  1
  Sr  Sr13  1  0.40057607  0.40057607  0.40057607  1
  Sn  Sn0  1  0.00027858  0.00027858  0.00027858  1
  Sn  Sn1  1  0.83667803  0.83667803  0.83667803  1
  Sn  Sn2  1  0.60857116  0.60857116  0.60857116  1
  As  As0  1  0.70246857  0.33014731  0.58763774  1
  As  As1  1  0.58763774  0.70246857  0.33014731  1
  As  As2  1  0.33014731  0.58763774  0.70246857  1
  As  As3  1  0.58827638  0.96850626  0.85961182  1
  As  As4  1  0.85961182  0.58827638  0.96850626  1
  As  As5  1  0.96850626  0.85961182  0.58827638  1
  As  As6  1  0.47290732  0.34242938  0.08418188  1
  As  As7  1  0.08418188  0.47290732  0.34242938  1
  As  As8  1  0.34242938  0.08418188  0.47290732  1
  As  As9  1  0.09681102  0.22468170  0.85588505  1
  As  As10  1  0.85588505  0.09681102  0.22468170  1
  As  As11  1  0.22468170  0.85588505  0.09681102  1
loop_
_geom_bond_atom_site_label_1
_geom_bond_atom_site_label_2
_geom_bond_distance
_geom_bond_site_symmetry_2
Sn0 Sn1 2.848312 1_444
Sn0 Sr12 3.253626 1_555
Sn0 Sr9 3.411597 1_454
Sn0 Sr11 3.411597 1_544
Sn0 Sr10 3.411598 1_445
Sn2 Sr13 3.621228 1_555
Sn2 Sr3 3.685409 1_555
Sn2 Sr5 3.685409 1_555
Sn2 Sr4 3.685409 1_555
As0 Sn2 2.772567 1_555
As0 Sr1 3.134352 1_555
As0 Sr9 3.182365 1_555
As0 Sr0 3.259094 1_555
As0 Sr7 3.331663 1_655
As0 Sr4 3.394508 1_545
As0 Sr13 3.487805 1_555
As0 Sr3 3.551347 1_555
As1 Sn2 2.772567 1_555
As1 Sr2 3.134352 1_555
As1 Sr10 3.182365 1_555
As1 Sr1 3.259094 1_555
As1 Sr8 3.331664 1_565
As1 Sr5 3.394508 1_554
As1 Sr13 3.487805 1_555
As1 Sr4 3.551348 1_555
As2 Sn2 2.772567 1_555
As2 Sr0 3.134352 1_555
As2 Sr11 3.182365 1_555
As2 Sr2 3.259094 1_555
As2 Sr6 3.331664 1_556
As2 Sr3 3.394507 1_455
As2 Sr13 3.487805 1_555
As2 Sr5 3.551347 1_555
As3 Sn1 2.627516 1_555
As3 Sr8 3.089263 1_566
As3 Sr4 3.099960 1_555
As3 Sr5 3.237441 1_555
As3 Sr11 3.336920 1_555
As3 Sr0 3.338601 1_565
As3 Sr9 3.447603 1_565
As4 Sn1 2.627516 1_555
As4 Sr6 3.089263 1_656
As4 Sr5 3.099960 1_555
As4 Sr3 3.237441 1_555
As4 Sr9 3.336920 1_555
As4 Sr1 3.338601 1_556
As4 Sr10 3.447603 1_556
As5 Sn1 2.627516 1_555
As5 Sr7 3.089263 1_665
As5 Sr3 3.099961 1_555
As5 Sr4 3.237440 1_555
As5 Sr10 3.336920 1_555
As5 Sr2 3.338601 1_655
As5 Sr11 3.447603 1_655
As6 Sr13 3.133919 1_555
As6 Sr5 3.141852 1_554
As6 Sr0 3.164554 1_554
As6 Sr8 3.178815 1_555
As6 Sr9 3.229384 1_554
As6 Sr12 3.254853 1_555
As6 Sr6 3.368906 1_555
As6 Sr1 3.575045 1_555
As7 Sr13 3.133919 1_555
As7 Sr3 3.141852 1_455
As7 Sr1 3.164554 1_455
As7 Sr6 3.178815 1_555
As7 Sr10 3.229384 1_455
As7 Sr12 3.254853 1_555
As7 Sr7 3.368906 1_555
As7 Sr2 3.575045 1_555
As8 Sr13 3.133919 1_555
As8 Sr4 3.141851 1_545
As8 Sr2 3.164554 1_545
As8 Sr7 3.178815 1_555
As8 Sr11 3.229384 1_545
As8 Sr12 3.254853 1_555
As8 Sr8 3.368906 1_555
As8 Sr0 3.575045 1_555
As9 Sn0 2.663418 1_556
As9 Sr0 3.129266 1_555
As9 Sr9 3.197578 1_455
As9 Sr7 3.244119 1_555
As9 Sr12 3.318573 1_556
As9 Sr11 3.468432 1_545
As9 Sr6 3.568585 1_556
As9 Sr3 3.607656 1_455
As10 Sn0 2.663418 1_655
As10 Sr1 3.129266 1_555
As10 Sr10 3.197578 1_545
As10 Sr8 3.244119 1_555
As10 Sr12 3.318573 1_655
As10 Sr9 3.468432 1_554
As10 Sr7 3.568585 1_655
As10 Sr4 3.607656 1_545
As11 Sn0 2.663418 1_565
As11 Sr2 3.129266 1_555
As11 Sr11 3.197578 1_554
As11 Sr6 3.244119 1_555
As11 Sr12 3.318574 1_565
As11 Sr10 3.468432 1_455
As11 Sr8 3.568584 1_565
As11 Sr5 3.607656 1_554
