# generated using pymatgen
data_SrOsO2
_symmetry_space_group_name_H-M   'P 1'
_cell_length_a   7.60559880
_cell_length_b   7.60559880
_cell_length_c   7.60559880
_cell_angle_alpha   131.62918849
_cell_angle_beta   131.62918849
_cell_angle_gamma   70.81531764
_symmetry_Int_Tables_number   1
_chemical_formula_structural   SrOsO2
_chemical_formula_sum   'Sr4 Os4 O8'
_cell_volume   240.74476576
_cell_formula_units_Z   4
loop_
 _symmetry_equiv_pos_site_id
 _symmetry_equiv_pos_as_xyz
  1  'x, y, z'
loop_
 _atom_site_type_symbol
 _atom_site_label
 _atom_site_symmetry_multiplicity
 _atom_site_fract_x
 _atom_site_fract_y
 _atom_site_fract_z
 _atom_site_occupancy
  Sr  Sr0  1  0.87500000  0.62500000  0.25000000  1
  Sr  Sr1  1  0.37500000  0.62500000  0.75000000  1
  Sr  Sr2  1  0.37500000  0.62500000  0.25000000  1
  Sr  Sr3  1  0.37500000  0.12500000  0.75000000  1
  Os  Os0  1  0.37500000  0.12500000  0.25000000  1
  Os  Os1  1  0.87500000  0.12500000  0.75000000  1
  Os  Os2  1  0.87500000  0.12500000  0.25000000  1
  Os  Os3  1  0.87500000  0.62500000  0.75000000  1
  O  O0  1  0.17334800  0.37333800  0.19998900  1
  O  O1  1  0.17334800  0.97335900  0.80001100  1
  O  O2  1  0.12333800  0.42334800  0.69998900  1
  O  O3  1  0.57665200  0.87666200  0.30001100  1
  O  O4  1  0.72335900  0.42334800  0.30001100  1
  O  O5  1  0.57665200  0.27664100  0.69998900  1
  O  O6  1  0.62666200  0.82665200  0.80001100  1
  O  O7  1  0.02664100  0.82665200  0.19998900  1
loop_
_geom_bond_atom_site_label_1
_geom_bond_atom_site_label_2
_geom_bond_distance
_geom_bond_site_symmetry_2
O0 Os1 2.083234 1_454
O0 Os0 2.083238 1_555
O0 Sr0 2.506410 1_455
O0 Sr1 2.506414 1_555
O0 Sr2 2.519405 1_555
O1 Os0 2.083232 1_566
O1 Os1 2.083232 1_465
O1 Sr1 2.506413 1_555
O1 Sr0 2.506413 1_455
O1 Sr3 2.519411 1_565
O2 Os2 2.083234 1_455
O2 Os3 2.083238 1_455
O2 Sr3 2.506410 1_555
O2 Sr2 2.506414 1_556
O2 Sr1 2.519405 1_555
O3 Os1 2.083234 1_565
O3 Os0 2.083238 1_565
O3 Sr0 2.506410 1_555
O3 Sr1 2.506414 1_554
O3 Sr2 2.519405 1_555
O4 Os3 2.083232 1_555
O4 Os2 2.083232 1_555
O4 Sr2 2.506413 1_555
O4 Sr3 2.506413 1_554
O4 Sr0 2.519411 1_555
O5 Os1 2.083232 1_555
O5 Os0 2.083232 1_555
O5 Sr1 2.506413 1_555
O5 Sr0 2.506413 1_556
O5 Sr3 2.519411 1_555
O6 Os2 2.083234 1_566
O6 Os3 2.083238 1_555
O6 Sr3 2.506410 1_565
O6 Sr2 2.506414 1_555
O6 Sr1 2.519405 1_555
O7 Os2 2.083232 1_465
O7 Os3 2.083232 1_454
O7 Sr2 2.506413 1_555
O7 Sr3 2.506413 1_565
O7 Sr0 2.519411 1_455
