# generated using pymatgen
data_MoW(SeS)2
_symmetry_space_group_name_H-M   'P 1'
_cell_length_a   3.25717896
_cell_length_b   3.25717896
_cell_length_c   36.87161900
_cell_angle_alpha   90.00000000
_cell_angle_beta   90.00000000
_cell_angle_gamma   120.00001948
_symmetry_Int_Tables_number   1
_chemical_formula_structural   MoW(SeS)2
_chemical_formula_sum   'Mo2 W2 Se4 S4'
_cell_volume   338.77081991
_cell_formula_units_Z   2
loop_
 _symmetry_equiv_pos_site_id
 _symmetry_equiv_pos_as_xyz
  1  'x, y, z'
loop_
 _atom_site_type_symbol
 _atom_site_label
 _atom_site_symmetry_multiplicity
 _atom_site_fract_x
 _atom_site_fract_y
 _atom_site_fract_z
 _atom_site_occupancy
  Mo  Mo0  1  0.33333300  0.66666700  0.09392300  1
  Mo  Mo1  1  0.66666700  0.33333300  0.90607700  1
  W  W0  1  0.33333300  0.66666700  0.71817900  1
  W  W1  1  0.66666700  0.33333300  0.28182100  1
  Se  Se0  1  0.33333300  0.66666700  0.32809400  1
  Se  Se1  1  0.66666700  0.33333300  0.67190600  1
  Se  Se2  1  0.66666700  0.33333300  0.76447000  1
  Se  Se3  1  0.33333300  0.66666700  0.23553000  1
  S  S0  1  0.33333300  0.66666700  0.94790200  1
  S  S1  1  0.66666700  0.33333300  0.05209800  1
  S  S2  1  0.66666700  0.33333300  0.13575300  1
  S  S3  1  0.33333300  0.66666700  0.86424700  1
loop_
_geom_bond_atom_site_label_1
_geom_bond_atom_site_label_2
_geom_bond_distance
_geom_bond_site_symmetry_2
Mo0 S1 2.432003 1_455
Mo0 S1 2.432003 1_565
Mo0 S1 2.432008 1_555
Mo0 S2 2.432120 1_455
Mo0 S2 2.432120 1_565
Mo0 S2 2.432125 1_555
Mo1 S0 2.432003 1_655
Mo1 S0 2.432003 1_545
Mo1 S0 2.432008 1_555
Mo1 S3 2.432120 1_545
Mo1 S3 2.432120 1_655
Mo1 S3 2.432125 1_555
Se0 W1 2.539169 1_455
Se0 W1 2.539169 1_565
Se0 W1 2.539174 1_555
Se1 W0 2.539169 1_655
Se1 W0 2.539169 1_545
Se1 W0 2.539174 1_555
Se2 W0 2.539615 1_545
Se2 W0 2.539615 1_655
Se2 W0 2.539620 1_555
Se3 W1 2.539615 1_455
Se3 W1 2.539615 1_565
Se3 W1 2.539620 1_555
