# generated using pymatgen
data_MgSi
_symmetry_space_group_name_H-M   'P 1'
_cell_length_a   5.86933600
_cell_length_b   4.38801300
_cell_length_c   6.16645974
_cell_angle_alpha   71.92409132
_cell_angle_beta   90.00000000
_cell_angle_gamma   90.00000000
_symmetry_Int_Tables_number   1
_chemical_formula_structural   MgSi
_chemical_formula_sum   'Mg4 Si4'
_cell_volume   150.97732636
_cell_formula_units_Z   4
loop_
 _symmetry_equiv_pos_site_id
 _symmetry_equiv_pos_as_xyz
  1  'x, y, z'
loop_
 _atom_site_type_symbol
 _atom_site_label
 _atom_site_symmetry_multiplicity
 _atom_site_fract_x
 _atom_site_fract_y
 _atom_site_fract_z
 _atom_site_occupancy
  Mg  Mg0  1  0.75000000  0.90951800  0.63381100  1
  Mg  Mg1  1  0.25000000  0.77122700  0.93483100  1
  Mg  Mg2  1  0.25000000  0.09048200  0.36618900  1
  Mg  Mg3  1  0.75000000  0.22877300  0.06516900  1
  Si  Si0  1  0.04552000  0.37822100  0.69869100  1
  Si  Si1  1  0.45448000  0.37822100  0.69869100  1
  Si  Si2  1  0.54552000  0.62177900  0.30130900  1
  Si  Si3  1  0.95448000  0.62177900  0.30130900  1
loop_
_geom_bond_atom_site_label_1
_geom_bond_atom_site_label_2
_geom_bond_distance
_geom_bond_site_symmetry_2
Mg0 Si1 2.812312 1_565
Mg0 Si0 2.812312 1_665
Mg0 Si0 2.832827 1_655
Mg0 Si1 2.832827 1_555
Mg0 Si3 2.974057 1_555
Mg0 Si2 2.974057 1_555
Mg1 Si2 2.761509 1_556
Mg1 Si3 2.761509 1_456
Mg1 Si0 2.844822 1_555
Mg1 Si1 2.844822 1_555
Mg1 Si1 2.871966 1_565
Mg1 Si0 2.871966 1_565
Mg2 Si2 2.812312 1_545
Mg2 Si3 2.812312 1_445
Mg2 Si2 2.832827 1_555
Mg2 Si3 2.832827 1_455
Mg2 Si0 2.974057 1_555
Mg2 Si1 2.974057 1_555
Mg3 Si0 2.761509 1_654
Mg3 Si1 2.761509 1_554
Mg3 Si3 2.844822 1_555
Mg3 Si2 2.844822 1_555
Mg3 Si3 2.871966 1_545
Mg3 Si2 2.871966 1_545
Si0 Si1 2.400324 1_555
Si0 Si3 2.409819 1_455
Si1 Si2 2.409819 1_555
Si2 Si3 2.400324 1_555
