# generated using pymatgen
data_La2CuO4
_symmetry_space_group_name_H-M   'P 1'
_cell_length_a   7.11164397
_cell_length_b   7.11164397
_cell_length_c   5.40022300
_cell_angle_alpha   90.00000000
_cell_angle_beta   90.00000000
_cell_angle_gamma   135.48295824
_symmetry_Int_Tables_number   1
_chemical_formula_structural   La2CuO4
_chemical_formula_sum   'La4 Cu2 O8'
_cell_volume   191.48947857
_cell_formula_units_Z   2
loop_
 _symmetry_equiv_pos_site_id
 _symmetry_equiv_pos_as_xyz
  1  'x, y, z'
loop_
 _atom_site_type_symbol
 _atom_site_label
 _atom_site_symmetry_multiplicity
 _atom_site_fract_x
 _atom_site_fract_y
 _atom_site_fract_z
 _atom_site_occupancy
  La  La0  1  0.63891300  0.36108700  0.99512500  1
  La  La1  1  0.86108700  0.13891300  0.49512500  1
  La  La2  1  0.13891300  0.86108700  0.50487500  1
  La  La3  1  0.36108700  0.63891300  0.00487500  1
  Cu  Cu0  1  0.00000000  0.00000000  0.00000000  1
  Cu  Cu1  1  0.50000000  0.50000000  0.50000000  1
  O  O0  1  0.81435700  0.18564300  0.01429100  1
  O  O1  1  0.25074800  0.24925200  0.25000000  1
  O  O2  1  0.74925200  0.75074800  0.75000000  1
  O  O3  1  0.68564300  0.31435700  0.51429100  1
  O  O4  1  0.18564300  0.81435700  0.98570900  1
  O  O5  1  0.24925200  0.25074800  0.75000000  1
  O  O6  1  0.75074800  0.74925200  0.25000000  1
  O  O7  1  0.31435700  0.68564300  0.48570900  1
loop_
_geom_bond_atom_site_label_1
_geom_bond_atom_site_label_2
_geom_bond_distance
_geom_bond_site_symmetry_2
La0 O0 2.311763 1_556
La0 O5 2.635559 1_555
La0 O2 2.635559 1_555
La0 O6 2.648833 1_556
La0 O1 2.648833 1_556
La0 O3 2.668477 1_555
La0 O4 2.763600 1_545
La0 O4 2.763600 1_655
La0 O3 2.870300 1_556
La1 O3 2.311763 1_555
La1 O1 2.635559 1_655
La1 O6 2.635559 1_545
La1 O2 2.648833 1_545
La1 O5 2.648833 1_655
La1 O0 2.668477 1_555
La1 O7 2.763600 1_545
La1 O7 2.763600 1_655
La1 O0 2.870300 1_556
La2 O7 2.311763 1_555
La2 O5 2.635559 1_565
La2 O2 2.635559 1_455
La2 O6 2.648833 1_455
La2 O1 2.648833 1_565
La2 O4 2.668477 1_555
La2 O3 2.763600 1_455
La2 O3 2.763600 1_565
La2 O4 2.870300 1_554
La3 O4 2.311763 1_554
La3 O1 2.635559 1_555
La3 O6 2.635559 1_555
La3 O2 2.648833 1_554
La3 O5 2.648833 1_554
La3 O7 2.668477 1_555
La3 O0 2.763600 1_455
La3 O0 2.763600 1_565
La3 O7 2.870300 1_554
Cu0 O5 1.907060 1_554
Cu0 O1 1.907060 1_555
Cu0 O2 1.907060 1_444
Cu0 O6 1.907060 1_445
Cu0 O4 2.444917 1_544
Cu0 O0 2.444917 1_455
Cu1 O2 1.907060 1_555
Cu1 O6 1.907060 1_555
Cu1 O1 1.907060 1_555
Cu1 O5 1.907060 1_555
Cu1 O3 2.444917 1_555
Cu1 O7 2.444917 1_555
