# generated using pymatgen
data_DyFeNi
_symmetry_space_group_name_H-M   'P 1'
_cell_length_a   5.11198315
_cell_length_b   5.11198315
_cell_length_c   5.11198315
_cell_angle_alpha   124.55899903
_cell_angle_beta   120.04243428
_cell_angle_gamma   86.10686111
_symmetry_Int_Tables_number   1
_chemical_formula_structural   DyFeNi
_chemical_formula_sum   'Dy2 Fe2 Ni2'
_cell_volume   90.75493686
_cell_formula_units_Z   2
loop_
 _symmetry_equiv_pos_site_id
 _symmetry_equiv_pos_as_xyz
  1  'x, y, z'
loop_
 _atom_site_type_symbol
 _atom_site_label
 _atom_site_symmetry_multiplicity
 _atom_site_fract_x
 _atom_site_fract_y
 _atom_site_fract_z
 _atom_site_occupancy
  Dy  Dy0  1  0.36971300  0.11971300  0.25000000  1
  Dy  Dy1  1  0.63028700  0.88028700  0.75000000  1
  Fe  Fe0  1  0.00000000  0.00000000  0.50000000  1
  Fe  Fe1  1  0.00000000  0.50000000  0.00000000  1
  Ni  Ni0  1  0.00000000  0.50000000  0.50000000  1
  Ni  Ni1  1  0.50000000  0.50000000  0.00000000  1
loop_
_geom_bond_atom_site_label_1
_geom_bond_atom_site_label_2
_geom_bond_distance
_geom_bond_site_symmetry_2
Dy0 Ni0 2.843481 1_544
Dy0 Ni1 2.843481 1_556
Dy0 Ni1 2.843481 1_545
Dy0 Ni0 2.843481 1_555
Dy0 Fe1 2.980891 1_555
Dy0 Fe0 2.980891 1_554
Dy0 Fe0 2.980891 1_655
Dy0 Fe1 2.980891 1_656
Dy0 Fe1 3.007087 1_545
Dy0 Fe0 3.007087 1_555
Dy0 Dy1 3.073107 1_544
Dy0 Dy1 3.073107 1_555
Dy0 Ni1 3.114931 1_555
Dy0 Ni0 3.114931 1_655
Dy0 Dy1 3.118365 1_545
Dy0 Dy1 3.118365 1_444
Dy1 Ni1 2.843481 1_555
Dy1 Ni1 2.843481 1_566
Dy1 Ni0 2.843481 1_655
Dy1 Ni0 2.843481 1_666
Dy1 Fe0 2.980891 1_565
Dy1 Fe1 2.980891 1_555
Dy1 Fe1 2.980891 1_656
Dy1 Fe0 2.980891 1_666
Dy1 Fe1 3.007087 1_666
Dy1 Fe0 3.007087 1_665
Dy1 Ni0 3.114931 1_555
Dy1 Ni1 3.114931 1_556
Fe0 Fe1 2.377884 1_545
Fe0 Fe1 2.377884 1_556
Fe0 Ni1 2.555992 1_445
Fe0 Ni0 2.555992 1_545
Fe0 Ni0 2.555992 1_555
Fe0 Ni1 2.555992 1_556
Fe1 Ni1 2.555992 1_555
Fe1 Ni0 2.555992 1_554
Fe1 Ni1 2.555992 1_455
Fe1 Ni0 2.555992 1_555
Ni0 Ni1 2.554352 1_455
Ni0 Ni1 2.554352 1_556
