# generated using pymatgen
data_Zr3Mn8Si
_symmetry_space_group_name_H-M   'P 1'
_cell_length_a   4.85251229
_cell_length_b   4.85251229
_cell_length_c   8.04993500
_cell_angle_alpha   90.00000000
_cell_angle_beta   90.00000000
_cell_angle_gamma   120.00000397
_symmetry_Int_Tables_number   1
_chemical_formula_structural   Zr3Mn8Si
_chemical_formula_sum   'Zr3 Mn8 Si1'
_cell_volume   164.15581670
_cell_formula_units_Z   1
loop_
 _symmetry_equiv_pos_site_id
 _symmetry_equiv_pos_as_xyz
  1  'x, y, z'
loop_
 _atom_site_type_symbol
 _atom_site_label
 _atom_site_symmetry_multiplicity
 _atom_site_fract_x
 _atom_site_fract_y
 _atom_site_fract_z
 _atom_site_occupancy
  Zr  Zr0  1  0.33333300  0.66666700  0.55604300  1
  Zr  Zr1  1  0.33333300  0.66666700  0.93517500  1
  Zr  Zr2  1  0.00000000  0.00000000  0.07924000  1
  Mn  Mn0  1  0.66666700  0.33333300  0.49630400  1
  Mn  Mn1  1  0.66666700  0.33333300  0.99285600  1
  Mn  Mn2  1  0.49567600  0.50432400  0.25648300  1
  Mn  Mn3  1  0.49567600  0.99135300  0.25648300  1
  Mn  Mn4  1  0.00864700  0.50432400  0.25648300  1
  Mn  Mn5  1  0.84101500  0.15898500  0.74497900  1
  Mn  Mn6  1  0.84101500  0.68203100  0.74497900  1
  Mn  Mn7  1  0.31796900  0.15898500  0.74497900  1
  Si  Si0  1  0.00000000  0.00000000  0.43605500  1
loop_
_geom_bond_atom_site_label_1
_geom_bond_atom_site_label_2
_geom_bond_distance
_geom_bond_site_symmetry_2
Zr0 Zr1 3.051988 1_555
Zr1 Zr2 3.032141 1_566
Zr1 Zr2 3.032145 1_666
Zr1 Zr2 3.032145 1_556
Mn0 Mn4 2.406732 1_655
Mn0 Mn3 2.406732 1_545
Mn0 Mn2 2.406737 1_555
Mn0 Mn5 2.480837 1_555
Mn0 Mn6 2.480842 1_555
Mn0 Mn7 2.480842 1_555
Mn0 Zr0 2.842570 1_545
Mn0 Zr0 2.842570 1_655
Mn0 Zr0 2.842578 1_555
Mn0 Si0 2.843267 1_655
Mn0 Si0 2.843271 1_555
Mn0 Si0 2.843271 1_665
Mn1 Mn5 2.475657 1_555
Mn1 Mn6 2.475661 1_555
Mn1 Mn7 2.475661 1_555
Mn1 Mn4 2.563008 1_656
Mn1 Mn3 2.563008 1_546
Mn1 Mn2 2.563013 1_556
Mn1 Zr1 2.839814 1_545
Mn1 Zr1 2.839814 1_655
Mn1 Zr1 2.839822 1_555
Mn1 Zr2 2.886608 1_656
Mn1 Zr2 2.886612 1_556
Mn1 Zr2 2.886612 1_666
Mn2 Mn3 2.363314 1_555
Mn2 Mn4 2.363314 1_555
Mn2 Mn4 2.489198 1_655
Mn2 Mn3 2.489198 1_545
Mn2 Zr0 2.770702 1_555
Mn2 Zr2 2.814921 1_555
Mn2 Zr2 2.814921 1_665
Mn2 Si0 2.824470 1_555
Mn2 Si0 2.824470 1_665
Mn2 Zr1 2.924342 1_554
Mn3 Mn4 2.363314 1_555
Mn3 Mn4 2.489198 1_665
Mn3 Zr0 2.770702 1_555
Mn3 Zr2 2.814919 1_565
Mn3 Zr2 2.814923 1_665
Mn3 Si0 2.824468 1_565
Mn3 Si0 2.824473 1_665
Mn3 Zr1 2.924342 1_554
Mn4 Zr0 2.770702 1_555
Mn4 Zr2 2.814919 1_565
Mn4 Zr2 2.814923 1_555
Mn4 Si0 2.824468 1_565
Mn4 Si0 2.824473 1_555
Mn4 Zr1 2.924342 1_554
Mn5 Mn7 2.314425 1_655
Mn5 Mn6 2.314425 1_545
Mn5 Mn6 2.538087 1_555
Mn5 Mn7 2.538087 1_555
Mn5 Si0 2.823082 1_655
Mn5 Zr0 2.864279 1_655
Mn5 Zr0 2.864279 1_545
Mn5 Zr1 2.869677 1_545
Mn5 Zr1 2.869677 1_655
Mn5 Zr2 3.004301 1_656
Mn6 Mn7 2.314425 1_665
Mn6 Mn7 2.538087 1_555
Mn6 Si0 2.823080 1_665
Mn6 Zr0 2.864279 1_555
Mn6 Zr0 2.864279 1_655
Mn6 Zr1 2.869678 1_555
Mn6 Zr1 2.869678 1_655
Mn6 Zr2 3.004299 1_666
Mn7 Si0 2.823080 1_555
Mn7 Zr0 2.864279 1_555
Mn7 Zr0 2.864279 1_545
Mn7 Zr1 2.869678 1_555
Mn7 Zr1 2.869678 1_545
Mn7 Zr2 3.004299 1_556
Si0 Zr2 2.872338 1_555
Si0 Zr0 2.963427 1_545
Si0 Zr0 2.963430 1_445
Si0 Zr0 2.963430 1_555
