# generated using pymatgen
data_LaSnRh
_symmetry_space_group_name_H-M   'P 1'
_cell_length_a   7.50962583
_cell_length_b   7.50962665
_cell_length_c   4.24697572
_cell_angle_alpha   90.00000000
_cell_angle_beta   90.00000000
_cell_angle_gamma   120.00003502
_symmetry_Int_Tables_number   1
_chemical_formula_structural   LaSnRh
_chemical_formula_sum   'La3 Sn3 Rh3'
_cell_volume   207.41821931
_cell_formula_units_Z   3
loop_
 _symmetry_equiv_pos_site_id
 _symmetry_equiv_pos_as_xyz
  1  'x, y, z'
loop_
 _atom_site_type_symbol
 _atom_site_label
 _atom_site_symmetry_multiplicity
 _atom_site_fract_x
 _atom_site_fract_y
 _atom_site_fract_z
 _atom_site_occupancy
  La  La0  1  0.00000000  0.58382596  0.00000000  1
  La  La1  1  0.41617404  0.41617404  0.00000000  1
  La  La2  1  0.58382596  0.00000000  -0.00000000  1
  Sn  Sn0  1  0.75473114  0.75473114  0.50000000  1
  Sn  Sn1  1  0.00000000  0.24526886  0.50000000  1
  Sn  Sn2  1  0.24526886  0.00000000  0.50000000  1
  Rh  Rh0  1  0.33333300  0.66666700  0.50000000  1
  Rh  Rh1  1  0.66666700  0.33333300  0.50000000  1
  Rh  Rh2  1  -0.00000000  0.00000000  0.00000000  1
loop_
_geom_bond_atom_site_label_1
_geom_bond_atom_site_label_2
_geom_bond_distance
_geom_bond_site_symmetry_2
La0 Rh0 3.099193 1_554
La0 Rh0 3.099193 1_555
La0 Rh1 3.099194 1_455
La0 Rh1 3.099194 1_454
La0 Rh2 3.125312 1_565
La0 Sn1 3.312580 1_554
La0 Sn1 3.312580 1_555
La0 Sn2 3.451498 1_564
La0 Sn2 3.451498 1_565
La0 Sn0 3.451499 1_455
La0 Sn0 3.451499 1_454
La1 Rh1 3.099199 1_555
La1 Rh1 3.099199 1_554
La1 Rh0 3.099199 1_555
La1 Rh0 3.099199 1_554
La1 Rh2 3.125310 1_555
La1 Sn0 3.312579 1_555
La1 Sn0 3.312579 1_554
La1 Sn1 3.451498 1_555
La1 Sn1 3.451498 1_554
La1 Sn2 3.451498 1_555
La1 Sn2 3.451498 1_554
La2 Rh1 3.099193 1_555
La2 Rh1 3.099193 1_554
La2 Rh0 3.099194 1_544
La2 Rh0 3.099194 1_545
La2 Rh2 3.125311 1_655
La2 Sn2 3.312580 1_554
La2 Sn2 3.312580 1_555
La2 Sn1 3.451498 1_654
La2 Sn1 3.451498 1_655
La2 Sn0 3.451499 1_544
La2 Sn0 3.451499 1_545
Sn0 Sn2 3.190224 1_665
Sn0 Sn1 3.190224 1_665
Sn1 Sn2 3.190226 1_555
Rh0 Sn2 2.891166 1_565
Rh0 Sn1 2.891169 1_555
Rh0 Sn0 2.891173 1_555
Rh1 Sn1 2.891166 1_655
Rh1 Sn2 2.891169 1_555
Rh1 Sn0 2.891173 1_555
Rh2 Sn0 2.810998 1_445
Rh2 Sn0 2.810998 1_444
Rh2 Sn2 2.810999 1_554
Rh2 Sn2 2.810999 1_555
Rh2 Sn1 2.810999 1_554
Rh2 Sn1 2.810999 1_555
