# generated using pymatgen
data_Li9Mn2Co5O16
_symmetry_space_group_name_H-M   'P 1'
_cell_length_a   5.86121600
_cell_length_b   5.90380446
_cell_length_c   8.63389243
_cell_angle_alpha   88.58054356
_cell_angle_beta   70.66049840
_cell_angle_gamma   87.29763203
_symmetry_Int_Tables_number   1
_chemical_formula_structural   Li9Mn2Co5O16
_chemical_formula_sum   'Li9 Mn2 Co5 O16'
_cell_volume   281.57755136
_cell_formula_units_Z   1
loop_
 _symmetry_equiv_pos_site_id
 _symmetry_equiv_pos_as_xyz
  1  'x, y, z'
loop_
 _atom_site_type_symbol
 _atom_site_label
 _atom_site_symmetry_multiplicity
 _atom_site_fract_x
 _atom_site_fract_y
 _atom_site_fract_z
 _atom_site_occupancy
  Li  Li0  1  0.86905000  0.25908200  0.26648100  1
  Li  Li1  1  0.00000000  0.00000000  0.50000000  1
  Li  Li2  1  0.35992700  0.25860900  0.26697000  1
  Li  Li3  1  0.50000000  0.00000000  0.50000000  1
  Li  Li4  1  0.64007300  0.74139100  0.73303000  1
  Li  Li5  1  0.13095000  0.74091800  0.73351900  1
  Li  Li6  1  0.25449300  0.50186400  0.99384000  1
  Li  Li7  1  0.74550700  0.49813600  0.00616000  1
  Li  Li8  1  0.00000000  0.50000000  0.50000000  1
  Mn  Mn0  1  0.75014400  0.99841400  0.99739700  1
  Mn  Mn1  1  0.24985600  0.00158600  0.00260300  1
  Co  Co0  1  0.87300500  0.74449400  0.25520900  1
  Co  Co1  1  0.12699500  0.25550600  0.74479100  1
  Co  Co2  1  0.36175700  0.74179400  0.25877800  1
  Co  Co3  1  0.50000000  0.50000000  0.50000000  1
  Co  Co4  1  0.63824300  0.25820600  0.74122200  1
  O  O0  1  0.64386000  0.98098200  0.23234700  1
  O  O1  1  0.73621800  0.72696400  0.48268500  1
  O  O2  1  0.14582900  0.99683100  0.23995700  1
  O  O3  1  0.26791500  0.74332600  0.48656300  1
  O  O4  1  0.40449600  0.49480900  0.73926500  1
  O  O5  1  0.88443500  0.47891200  0.75966000  1
  O  O6  1  0.99310000  0.22009900  0.99431600  1
  O  O7  1  0.49648700  0.22207100  0.99229700  1
  O  O8  1  0.11556500  0.52108800  0.24034000  1
  O  O9  1  0.26378200  0.27303600  0.51731500  1
  O  O10  1  0.59550400  0.50519100  0.26073500  1
  O  O11  1  0.73208500  0.25667400  0.51343700  1
  O  O12  1  0.85417100  0.00316900  0.76004300  1
  O  O13  1  0.35614000  0.01901800  0.76765300  1
  O  O14  1  0.50351300  0.77792900  0.00770300  1
  O  O15  1  0.00690000  0.77990100  0.00568400  1
loop_
_geom_bond_atom_site_label_1
_geom_bond_atom_site_label_2
_geom_bond_distance
_geom_bond_site_symmetry_2
Li0 O11 2.014144 1_555
Li0 O8 2.123385 1_655
Li0 O10 2.124538 1_555
Li0 O2 2.148489 1_645
Li0 O6 2.232215 1_554
Li0 O0 2.238431 1_545
Li1 O11 2.106961 1_455
Li1 O3 2.106961 1_545
Li1 O2 2.121629 1_545
Li1 O12 2.121629 1_455
Li1 O1 2.326185 1_445
Li1 O9 2.326185 1_555
Li2 O10 2.040862 1_555
Li2 O9 2.048059 1_555
Li2 O2 2.100526 1_545
Li2 O8 2.120551 1_555
Li2 O0 2.232256 1_545
Li2 O7 2.250119 1_554
Li3 O1 2.049889 1_545
Li3 O9 2.049889 1_555
Li3 O11 2.113712 1_555
Li3 O3 2.113712 1_545
Li3 O13 2.185668 1_555
Li3 O0 2.185668 1_545
Li4 O4 2.040862 1_555
Li4 O1 2.048059 1_555
Li4 O12 2.100526 1_565
Li4 O5 2.120551 1_555
Li4 O13 2.232256 1_565
Li4 O14 2.250119 1_556
Li5 O3 2.014144 1_555
Li5 O5 2.123385 1_455
Li5 O4 2.124538 1_555
Li5 O12 2.148489 1_465
Li5 O15 2.232215 1_556
Li5 O13 2.238431 1_565
Li6 O8 2.015152 1_556
Li6 O4 2.080137 1_555
Li6 O15 2.120442 1_556
Li6 O7 2.123254 1_555
Li6 O14 2.269512 1_556
Li6 O6 2.313068 1_455
Li7 O5 2.015152 1_554
Li7 O10 2.080137 1_555
Li7 O6 2.120442 1_554
Li7 O14 2.123254 1_555
Li7 O7 2.269512 1_554
Li7 O15 2.313068 1_655
Li8 O9 2.038628 1_555
Li8 O1 2.038628 1_455
Li8 O8 2.118647 1_555
Li8 O5 2.118647 1_455
Li8 O11 2.150999 1_455
Li8 O3 2.150999 1_555
Mn0 O0 1.916334 1_556
Mn0 O12 1.934766 1_565
Mn0 O7 1.952235 1_565
Mn0 O15 1.953913 1_656
Mn0 O14 1.969386 1_556
Mn0 O6 1.972404 1_565
Mn1 O13 1.916334 1_554
Mn1 O2 1.934766 1_545
Mn1 O14 1.952235 1_545
Mn1 O6 1.953913 1_454
Mn1 O7 1.969386 1_554
Mn1 O15 1.972404 1_545
Co0 O1 1.861624 1_555
Co0 O8 1.867620 1_655
Co0 O0 1.943508 1_555
Co0 O15 2.043097 1_655
Co0 O10 2.192191 1_555
Co0 O2 2.206625 1_655
Co1 O9 1.861624 1_555
Co1 O5 1.867620 1_455
Co1 O13 1.943508 1_555
Co1 O6 2.043097 1_455
Co1 O4 2.192191 1_555
Co1 O12 2.206625 1_455
Co2 O3 1.858591 1_555
Co2 O10 1.913692 1_555
Co2 O2 1.959503 1_555
Co2 O8 2.035948 1_555
Co2 O14 2.058125 1_555
Co2 O0 2.175868 1_555
Co3 O1 1.939755 1_555
Co3 O9 1.939755 1_555
Co3 O4 1.953036 1_555
Co3 O10 1.953036 1_555
Co3 O3 1.959477 1_555
Co3 O11 1.959477 1_555
Co4 O11 1.858591 1_555
Co4 O4 1.913692 1_555
Co4 O12 1.959503 1_555
Co4 O5 2.035948 1_555
Co4 O7 2.058125 1_555
Co4 O13 2.175868 1_555
