# generated using pymatgen
data_Th3Pt5
_symmetry_space_group_name_H-M   'P 1'
_cell_length_a   3.87830398
_cell_length_b   7.24567958
_cell_length_c   7.24567958
_cell_angle_alpha   120.00000585
_cell_angle_beta   90.00000000
_cell_angle_gamma   90.00000000
_symmetry_Int_Tables_number   1
_chemical_formula_structural   Th3Pt5
_chemical_formula_sum   'Th3 Pt5'
_cell_volume   176.33182461
_cell_formula_units_Z   1
loop_
 _symmetry_equiv_pos_site_id
 _symmetry_equiv_pos_as_xyz
  1  'x, y, z'
loop_
 _atom_site_type_symbol
 _atom_site_label
 _atom_site_symmetry_multiplicity
 _atom_site_fract_x
 _atom_site_fract_y
 _atom_site_fract_z
 _atom_site_occupancy
  Th  Th0  1  0.50000000  0.35984098  0.35984098  1
  Th  Th1  1  0.50000000  -0.00000000  0.64015802  1
  Th  Th2  1  0.50000000  0.64015802  -0.00000000  1
  Pt  Pt0  1  -0.00000000  0.77248881  0.77248881  1
  Pt  Pt1  1  -0.00000000  0.00000000  0.22751119  1
  Pt  Pt2  1  0.00000000  0.22751119  0.00000000  1
  Pt  Pt3  1  0.00000000  0.66666700  0.33333300  1
  Pt  Pt4  1  -0.00000000  0.33333300  0.66666700  1
loop_
_geom_bond_atom_site_label_1
_geom_bond_atom_site_label_2
_geom_bond_distance
_geom_bond_site_symmetry_2
Pt0 Pt1 2.855239 1_566
Pt0 Pt2 2.855239 1_566
Pt0 Pt4 2.876305 1_555
Pt0 Pt3 2.876305 1_555
Pt0 Th2 2.996285 1_456
Pt0 Th1 2.996285 1_565
Pt0 Th1 2.996285 1_465
Pt0 Th2 2.996285 1_556
Pt0 Th0 3.563691 1_455
Pt0 Th0 3.563691 1_555
Pt1 Pt2 2.855239 1_555
Pt1 Pt3 2.876298 1_545
Pt1 Pt4 2.876303 1_555
Pt1 Th0 2.996280 1_555
Pt1 Th0 2.996280 1_455
Pt1 Th2 2.996285 1_445
Pt1 Th2 2.996285 1_545
Pt1 Th1 3.563685 1_455
Pt1 Th1 3.563685 1_555
Pt2 Pt4 2.876298 1_554
Pt2 Pt3 2.876303 1_555
Pt2 Th0 2.996280 1_555
Pt2 Th0 2.996280 1_455
Pt2 Th1 2.996285 1_554
Pt2 Th1 2.996285 1_454
Pt2 Th2 3.563685 1_555
Pt2 Th2 3.563685 1_455
Pt3 Th2 3.027640 1_555
Pt3 Th2 3.027640 1_455
Pt3 Th1 3.027643 1_465
Pt3 Th1 3.027643 1_565
Pt3 Th0 3.027648 1_555
Pt3 Th0 3.027648 1_455
Pt4 Th1 3.027640 1_455
Pt4 Th1 3.027640 1_555
Pt4 Th2 3.027643 1_556
Pt4 Th2 3.027643 1_456
Pt4 Th0 3.027648 1_555
Pt4 Th0 3.027648 1_455
