# generated using pymatgen
data_KTeO7
_symmetry_space_group_name_H-M   'P 1'
_cell_length_a   8.76678152
_cell_length_b   6.22978400
_cell_length_c   13.50321234
_cell_angle_alpha   90.00000000
_cell_angle_beta   98.02499212
_cell_angle_gamma   90.00000000
_symmetry_Int_Tables_number   1
_chemical_formula_structural   KTeO7
_chemical_formula_sum   'K4 Te4 O28'
_cell_volume   730.25809438
_cell_formula_units_Z   4
loop_
 _symmetry_equiv_pos_site_id
 _symmetry_equiv_pos_as_xyz
  1  'x, y, z'
loop_
 _atom_site_type_symbol
 _atom_site_label
 _atom_site_symmetry_multiplicity
 _atom_site_fract_x
 _atom_site_fract_y
 _atom_site_fract_z
 _atom_site_occupancy
  K  K0  1  0.44698600  0.24733200  0.61704200  1
  K  K1  1  0.55301400  0.74733200  0.88295800  1
  K  K2  1  0.55301400  0.75266800  0.38295800  1
  K  K3  1  0.44698600  0.25266800  0.11704200  1
  Te  Te0  1  0.22132200  0.23209000  0.84042900  1
  Te  Te1  1  0.77867900  0.73209000  0.65957100  1
  Te  Te2  1  0.77867900  0.76791000  0.15957100  1
  Te  Te3  1  0.22132200  0.26791000  0.34042900  1
  O  O0  1  0.20513400  0.12098000  0.71305300  1
  O  O1  1  0.79486600  0.62098000  0.78694700  1
  O  O2  1  0.79486600  0.87902000  0.28694700  1
  O  O3  1  0.20513400  0.37902000  0.21305300  1
  O  O4  1  0.42846500  0.30338300  0.87065500  1
  O  O5  1  0.57153500  0.80338300  0.62934500  1
  O  O6  1  0.57153500  0.69661700  0.12934500  1
  O  O7  1  0.42846500  0.19661700  0.37065500  1
  O  O8  1  0.86300300  0.18485400  0.84239600  1
  O  O9  1  0.13699700  0.68485400  0.65760400  1
  O  O10  1  0.13699700  0.81514600  0.15760400  1
  O  O11  1  0.86300300  0.31514600  0.34239600  1
  O  O12  1  0.27641700  0.96429100  0.92978500  1
  O  O13  1  0.72358300  0.46429100  0.57021500  1
  O  O14  1  0.72358300  0.03570900  0.07021500  1
  O  O15  1  0.27641700  0.53570900  0.42978500  1
  O  O16  1  0.18472700  0.62398200  0.97641800  1
  O  O17  1  0.81527300  0.12398200  0.52358200  1
  O  O18  1  0.81527300  0.37601800  0.02358200  1
  O  O19  1  0.18472700  0.87601800  0.47641800  1
  O  O20  1  0.24913600  0.62888000  0.71786700  1
  O  O21  1  0.75086400  0.12888000  0.78213300  1
  O  O22  1  0.75086400  0.37112000  0.28213300  1
  O  O23  1  0.24913600  0.87112000  0.21786700  1
  O  O24  1  0.86550100  0.30198400  0.55788100  1
  O  O25  1  0.13449900  0.80198400  0.94211900  1
  O  O26  1  0.13449900  0.69801600  0.44211900  1
  O  O27  1  0.86550100  0.19801600  0.05788100  1
loop_
_geom_bond_atom_site_label_1
_geom_bond_atom_site_label_2
_geom_bond_distance
_geom_bond_site_symmetry_2
K0 O0 2.750167 1_555
K0 O13 2.921429 1_555
K0 O5 2.969565 1_545
K0 O15 3.286565 1_555
K0 O21 3.309536 1_555
K0 O7 3.323310 1_555
K0 O20 3.342362 1_555
K1 O1 2.750167 1_555
K1 O12 2.921429 1_555
K1 O4 2.969565 1_555
K1 O14 3.286565 1_566
K1 O20 3.309536 1_555
K1 O6 3.323310 1_556
K1 O21 3.342362 1_565
K2 O2 2.750167 1_555
K2 O15 2.921429 1_555
K2 O7 2.969565 1_565
K2 O13 3.286565 1_555
K2 O23 3.309536 1_555
K2 O5 3.323310 1_555
K2 O22 3.342362 1_555
K3 O3 2.750167 1_555
K3 O14 2.921429 1_555
K3 O6 2.969565 1_555
K3 O12 3.286565 1_544
K3 O22 3.309536 1_555
K3 O4 3.323310 1_554
K3 O23 3.342362 1_545
O0 Te0 1.841050 1_555
O1 Te1 1.841050 1_555
O2 Te2 1.841050 1_555
O3 Te3 1.841050 1_555
O4 Te0 1.858675 1_555
O5 Te1 1.858683 1_555
O6 Te2 1.858683 1_555
O7 Te3 1.858675 1_555
O10 O23 1.235675 1_555
O11 O22 1.235675 1_555
O12 O25 1.629705 1_555
O12 Te0 2.075997 1_565
O13 O24 1.629705 1_555
O13 Te1 2.075999 1_555
O14 O27 1.629705 1_555
O14 Te2 2.075999 1_545
O15 O26 1.629705 1_555
O15 Te3 2.075997 1_555
O16 O25 1.257438 1_555
O17 O24 1.257438 1_555
O18 O27 1.257438 1_555
O19 O26 1.257438 1_555
O20 O9 1.235675 1_555
O21 O8 1.235675 1_555
