# generated using pymatgen
data_Li7Mn2(CoO4)3
_symmetry_space_group_name_H-M   'P 1'
_cell_length_a   5.07473200
_cell_length_b   5.92860834
_cell_length_c   7.65204594
_cell_angle_alpha   101.96728235
_cell_angle_beta   107.49987759
_cell_angle_gamma   90.80788395
_symmetry_Int_Tables_number   1
_chemical_formula_structural   Li7Mn2(CoO4)3
_chemical_formula_sum   'Li7 Mn2 Co3 O12'
_cell_volume   214.07073268
_cell_formula_units_Z   1
loop_
 _symmetry_equiv_pos_site_id
 _symmetry_equiv_pos_as_xyz
  1  'x, y, z'
loop_
 _atom_site_type_symbol
 _atom_site_label
 _atom_site_symmetry_multiplicity
 _atom_site_fract_x
 _atom_site_fract_y
 _atom_site_fract_z
 _atom_site_occupancy
  Li  Li0  1  0.50297500  0.26266600  0.00164800  1
  Li  Li1  1  0.50345300  0.42131800  0.66959300  1
  Li  Li2  1  0.50633600  0.73651400  0.00417000  1
  Li  Li3  1  0.50252700  0.91085400  0.66464700  1
  Li  Li4  1  0.49527000  0.08210000  0.33023000  1
  Li  Li5  1  0.48623100  0.58921200  0.32956100  1
  Li  Li6  1  0.00123800  0.50290300  0.00060500  1
  Mn  Mn0  1  0.99532400  0.00174700  0.00085400  1
  Mn  Mn1  1  0.00448600  0.16525500  0.66964900  1
  Co  Co0  1  0.99841500  0.34007900  0.32635500  1
  Co  Co1  1  0.00849300  0.65729500  0.66960700  1
  Co  Co2  1  0.99455300  0.83274600  0.32947300  1
  O  O0  1  0.75342200  0.05225400  0.14934900  1
  O  O1  1  0.78041000  0.19183000  0.83307300  1
  O  O2  1  0.77049500  0.56124700  0.19091500  1
  O  O3  1  0.77971700  0.72488300  0.83288900  1
  O  O4  1  0.78213900  0.88161300  0.50520800  1
  O  O5  1  0.77817900  0.35478900  0.51125100  1
  O  O6  1  0.23512200  0.43885100  0.81771900  1
  O  O7  1  0.24281000  0.61851900  0.50975000  1
  O  O8  1  0.22583800  0.97204300  0.83140700  1
  O  O9  1  0.21486400  0.10955300  0.49217800  1
  O  O10  1  0.22312000  0.27832700  0.16715700  1
  O  O11  1  0.21458100  0.81340100  0.16271200  1
loop_
_geom_bond_atom_site_label_1
_geom_bond_atom_site_label_2
_geom_bond_distance
_geom_bond_site_symmetry_2
Li0 O0 2.052886 1_555
Li0 O6 2.102073 1_554
Li0 O8 2.131352 1_544
Li0 O10 2.160141 1_555
Li0 O1 2.169510 1_554
Li0 O2 2.181891 1_555
Li1 O6 2.008277 1_555
Li1 O7 2.067868 1_555
Li1 O5 2.097750 1_555
Li1 O3 2.169919 1_555
Li1 O9 2.256437 1_555
Li1 O1 2.256924 1_555
Li2 O2 2.102790 1_555
Li2 O0 2.131682 1_565
Li2 O3 2.169337 1_554
Li2 O11 2.177527 1_555
Li2 O6 2.179572 1_554
Li2 O8 2.326706 1_554
Li3 O7 2.071214 1_555
Li3 O1 2.091629 1_565
Li3 O3 2.096420 1_555
Li3 O4 2.119514 1_555
Li3 O8 2.152076 1_555
Li3 O9 2.189758 1_565
Li4 O11 2.049605 1_545
Li4 O5 2.098425 1_555
Li4 O10 2.104467 1_555
Li4 O9 2.137871 1_555
Li4 O0 2.158421 1_555
Li4 O4 2.204853 1_545
Li5 O2 2.021946 1_555
Li5 O7 2.094832 1_555
Li5 O10 2.169573 1_555
Li5 O4 2.193878 1_555
Li5 O11 2.234713 1_555
Li5 O5 2.383294 1_555
Li6 O11 2.070905 1_555
Li6 O6 2.074286 1_554
Li6 O1 2.097073 1_454
Li6 O2 2.107023 1_455
Li6 O3 2.125370 1_454
Li6 O10 2.132541 1_555
Mn0 O0 1.896300 1_555
Mn0 O3 1.942179 1_544
Mn0 O11 1.949017 1_645
Mn0 O10 1.959835 1_655
Mn0 O1 1.974923 1_554
Mn0 O8 1.975846 1_644
Mn1 O1 1.913178 1_455
Mn1 O6 1.916099 1_555
Mn1 O9 1.946525 1_555
Mn1 O5 1.953134 1_455
Mn1 O8 1.973349 1_545
Mn1 O4 1.974691 1_445
Co0 O10 1.892246 1_655
Co0 O2 2.004148 1_555
Co0 O5 2.039863 1_555
Co0 O7 2.041423 1_655
Co0 O0 2.064226 1_555
Co0 O9 2.146567 1_655
Co1 O7 1.931051 1_555
Co1 O3 1.935824 1_455
Co1 O6 2.037446 1_555
Co1 O5 2.058812 1_455
Co1 O8 2.096196 1_555
Co1 O4 2.130365 1_455
Co2 O2 1.877089 1_555
Co2 O11 1.920435 1_655
Co2 O9 1.938299 1_665
Co2 O4 1.942476 1_555
Co2 O7 2.197669 1_655
Co2 O0 2.205708 1_565
