# generated using pymatgen
data_TbFe3(BO3)4
_symmetry_space_group_name_H-M   'P 1'
_cell_length_a   9.62084013
_cell_length_b   9.62084013
_cell_length_c   7.66169500
_cell_angle_alpha   90.00000000
_cell_angle_beta   90.00000000
_cell_angle_gamma   120.00000092
_symmetry_Int_Tables_number   1
_chemical_formula_structural   TbFe3(BO3)4
_chemical_formula_sum   'Tb3 Fe9 B12 O36'
_cell_volume   614.15993755
_cell_formula_units_Z   3
loop_
 _symmetry_equiv_pos_site_id
 _symmetry_equiv_pos_as_xyz
  1  'x, y, z'
loop_
 _atom_site_type_symbol
 _atom_site_label
 _atom_site_symmetry_multiplicity
 _atom_site_fract_x
 _atom_site_fract_y
 _atom_site_fract_z
 _atom_site_occupancy
  Tb  Tb0  1  0.00000000  0.33510300  0.66666700  1
  Tb  Tb1  1  0.33510300  0.00000000  0.33333300  1
  Tb  Tb2  1  0.66489700  0.66489700  0.00000000  1
  Fe  Fe0  1  0.45092500  0.78747900  0.65519100  1
  Fe  Fe1  1  0.21252100  0.66344600  0.98852400  1
  Fe  Fe2  1  0.33655400  0.54907500  0.32185700  1
  Fe  Fe3  1  0.66344600  0.21252100  0.01147600  1
  Fe  Fe4  1  0.54907500  0.33655400  0.67814300  1
  Fe  Fe5  1  0.78747900  0.45092500  0.34480900  1
  Fe  Fe6  1  0.00000000  0.88493900  0.66666700  1
  Fe  Fe7  1  0.88493900  0.00000000  0.33333300  1
  Fe  Fe8  1  0.11506100  0.11506100  0.00000000  1
  B  B0  1  0.77787400  0.00000000  0.83333300  1
  B  B1  1  0.22212600  0.22212600  0.50000000  1
  B  B2  1  0.00000000  0.77787400  0.16666700  1
  B  B3  1  0.87574800  0.55208600  0.84783100  1
  B  B4  1  0.44791400  0.32366200  0.18116400  1
  B  B5  1  0.67633800  0.12425200  0.51449700  1
  B  B6  1  0.32366200  0.44791400  0.81883600  1
  B  B7  1  0.12425200  0.67633800  0.48550300  1
  B  B8  1  0.55208600  0.87574800  0.15216900  1
  B  B9  1  0.66819500  0.66819500  0.50000000  1
  B  B10  1  0.00000000  0.33180500  0.16666700  1
  B  B11  1  0.33180500  0.00000000  0.83333300  1
  O  O0  1  0.00000000  0.92161000  0.16666700  1
  O  O1  1  0.07839000  0.07839000  0.50000000  1
  O  O2  1  0.92161000  0.00000000  0.83333300  1
  O  O3  1  0.41897300  0.72448000  0.12794500  1
  O  O4  1  0.27552000  0.69449400  0.46127800  1
  O  O5  1  0.30550600  0.58102700  0.79461100  1
  O  O6  1  0.69449400  0.27552000  0.53872200  1
  O  O7  1  0.58102700  0.30550600  0.20538900  1
  O  O8  1  0.72448000  0.41897300  0.87205500  1
  O  O9  1  0.87789000  0.69513200  0.82201800  1
  O  O10  1  0.30486800  0.18275800  0.15535100  1
  O  O11  1  0.81724200  0.12211000  0.48868400  1
  O  O12  1  0.18275800  0.30486800  0.84464900  1
  O  O13  1  0.12211000  0.81724200  0.51131600  1
  O  O14  1  0.69513200  0.87789000  0.17798200  1
  O  O15  1  0.85284700  0.63812700  0.18517900  1
  O  O16  1  0.36187300  0.21472100  0.51851300  1
  O  O17  1  0.78527900  0.14715300  0.85184600  1
  O  O18  1  0.21472100  0.36187300  0.48148700  1
  O  O19  1  0.14715300  0.78527900  0.14815400  1
  O  O20  1  0.63812700  0.85284700  0.81482100  1
  O  O21  1  0.47464000  0.14467000  0.84231600  1
  O  O22  1  0.85533000  0.32997000  0.17565000  1
  O  O23  1  0.67003000  0.52536000  0.50898300  1
  O  O24  1  0.32997000  0.85533000  0.82435000  1
  O  O25  1  0.52536000  0.67003000  0.49101700  1
  O  O26  1  0.14467000  0.47464000  0.15768400  1
  O  O27  1  0.18812500  0.00000000  0.83333300  1
  O  O28  1  0.00000000  0.18812500  0.16666700  1
  O  O29  1  0.81187500  0.81187500  0.50000000  1
  O  O30  1  0.47455700  0.46570700  0.81501300  1
  O  O31  1  0.53429300  0.00884900  0.14834600  1
  O  O32  1  0.99115100  0.52544300  0.48168000  1
  O  O33  1  0.00884900  0.53429300  0.85165400  1
  O  O34  1  0.52544300  0.99115100  0.51832000  1
  O  O35  1  0.46570700  0.47455700  0.18498700  1
loop_
_geom_bond_atom_site_label_1
_geom_bond_atom_site_label_2
_geom_bond_distance
_geom_bond_site_symmetry_2
Fe0 O20 2.000602 1_555
Fe0 O34 2.012086 1_555
Fe0 O25 2.044756 1_555
Fe0 O24 2.054183 1_555
Fe0 O5 2.065111 1_555
Fe0 O4 2.084645 1_555
Fe1 O19 2.000595 1_556
Fe1 O33 2.012080 1_555
Fe1 O24 2.044756 1_555
Fe1 O26 2.054188 1_556
Fe1 O3 2.065114 1_556
Fe1 O5 2.084640 1_555
Fe2 O18 2.000601 1_555
Fe2 O35 2.012074 1_555
Fe2 O26 2.044751 1_555
Fe2 O25 2.054188 1_555
Fe2 O4 2.065121 1_555
Fe2 O3 2.084640 1_555
Fe3 O17 2.000595 1_554
Fe3 O31 2.012080 1_555
Fe3 O22 2.044756 1_555
Fe3 O21 2.054188 1_554
Fe3 O8 2.065114 1_554
Fe3 O7 2.084640 1_555
Fe4 O16 2.000601 1_555
Fe4 O30 2.012074 1_555
Fe4 O21 2.044751 1_555
Fe4 O23 2.054188 1_555
Fe4 O6 2.065121 1_555
Fe4 O8 2.084640 1_555
Fe5 O15 2.000602 1_555
Fe5 O32 2.012086 1_555
Fe5 O23 2.044756 1_555
Fe5 O22 2.054183 1_555
Fe5 O7 2.065111 1_555
Fe5 O6 2.084645 1_555
Fe6 O9 1.996547 1_455
Fe6 O13 1.996547 1_555
Fe6 O27 2.031812 1_565
Fe6 O29 2.031817 1_455
Fe6 O2 2.063891 1_465
Fe6 O1 2.063895 1_565
Fe7 O14 1.996547 1_545
Fe7 O11 1.996547 1_555
Fe7 O28 2.031812 1_655
Fe7 O29 2.031817 1_545
Fe7 O0 2.063891 1_645
Fe7 O1 2.063895 1_655
Fe8 O10 1.996547 1_555
Fe8 O12 1.996547 1_554
Fe8 O28 2.031817 1_555
Fe8 O27 2.031817 1_554
Fe8 O2 2.063895 1_454
Fe8 O0 2.063895 1_545
B0 O2 1.382861 1_555
B0 O20 1.388750 1_545
B0 O17 1.388755 1_555
B1 O1 1.382861 1_555
B1 O16 1.388746 1_555
B1 O18 1.388746 1_555
B2 O0 1.382861 1_555
B2 O15 1.388750 1_455
B2 O19 1.388755 1_555
B3 O33 1.374468 1_655
B3 O9 1.380278 1_555
B3 O8 1.388787 1_555
B4 O35 1.374477 1_555
B4 O10 1.380278 1_555
B4 O7 1.388794 1_555
B5 O34 1.374473 1_545
B5 O11 1.380278 1_555
B5 O6 1.388784 1_555
B6 O30 1.374477 1_555
B6 O12 1.380278 1_555
B6 O5 1.388794 1_555
B7 O32 1.374473 1_455
B7 O13 1.380278 1_555
B7 O4 1.388784 1_555
B8 O31 1.374468 1_565
B8 O14 1.380278 1_555
B8 O3 1.388787 1_555
B9 O29 1.382322 1_555
B9 O25 1.384816 1_555
B9 O23 1.384816 1_555
B10 O28 1.382322 1_555
B10 O26 1.384816 1_555
B10 O22 1.384816 1_455
B11 O27 1.382322 1_555
B11 O21 1.384816 1_555
B11 O24 1.384816 1_545
O9 Tb2 2.355243 1_556
O10 Tb1 2.355243 1_555
O11 Tb0 2.355247 1_655
O12 Tb0 2.355243 1_555
O13 Tb1 2.355247 1_565
O14 Tb2 2.355243 1_555
O15 Tb2 2.411372 1_555
O16 Tb1 2.411384 1_555
O17 Tb0 2.411377 1_655
O18 Tb0 2.411384 1_555
O19 Tb1 2.411377 1_565
O20 Tb2 2.411372 1_556
O30 Tb2 2.350607 1_556
O31 Tb1 2.350611 1_555
O32 Tb0 2.350603 1_655
O33 Tb0 2.350611 1_555
O34 Tb1 2.350603 1_565
O35 Tb2 2.350607 1_555
