# generated using pymatgen
data_Na3V4(Bi10O21)2
_symmetry_space_group_name_H-M   'P 1'
_cell_length_a   11.84203016
_cell_length_b   11.84203016
_cell_length_c   12.44605263
_cell_angle_alpha   58.42444034
_cell_angle_beta   58.42444034
_cell_angle_gamma   58.60661622
_symmetry_Int_Tables_number   1
_chemical_formula_structural   Na3V4(Bi10O21)2
_chemical_formula_sum   'Na3 V4 Bi20 O42'
_cell_volume   1191.37362860
_cell_formula_units_Z   1
loop_
 _symmetry_equiv_pos_site_id
 _symmetry_equiv_pos_as_xyz
  1  'x, y, z'
loop_
 _atom_site_type_symbol
 _atom_site_label
 _atom_site_symmetry_multiplicity
 _atom_site_fract_x
 _atom_site_fract_y
 _atom_site_fract_z
 _atom_site_occupancy
  Na  Na0  1  0.67374600  0.32625400  0.50000000  1
  Na  Na1  1  0.32625400  0.67374600  0.50000000  1
  Na  Na2  1  0.00000000  0.00000000  0.50000000  1
  V  V0  1  0.34136300  0.34136300  0.14993000  1
  V  V1  1  0.65863700  0.65863700  0.85007000  1
  V  V2  1  0.99567100  0.99567100  0.18888200  1
  V  V3  1  0.00432900  0.00432900  0.81111800  1
  Bi  Bi0  1  0.64843900  0.64843900  0.51401500  1
  Bi  Bi1  1  0.35156100  0.35156100  0.48598500  1
  Bi  Bi2  1  0.66559500  0.66559500  0.19573200  1
  Bi  Bi3  1  0.33440500  0.33440500  0.80426800  1
  Bi  Bi4  1  0.66237500  0.00303200  0.51984200  1
  Bi  Bi5  1  0.33762500  0.99696800  0.48015800  1
  Bi  Bi6  1  0.99696800  0.33762500  0.48015800  1
  Bi  Bi7  1  0.00303200  0.66237500  0.51984200  1
  Bi  Bi8  1  0.34571800  0.66811900  0.17847400  1
  Bi  Bi9  1  0.65428200  0.33188100  0.82152600  1
  Bi  Bi10  1  0.33188100  0.65428200  0.82152600  1
  Bi  Bi11  1  0.66811900  0.34571800  0.17847400  1
  Bi  Bi12  1  0.67512700  0.99960700  0.17000800  1
  Bi  Bi13  1  0.32487300  0.00039300  0.82999200  1
  Bi  Bi14  1  0.00039300  0.32487300  0.82999200  1
  Bi  Bi15  1  0.99960700  0.67512700  0.17000800  1
  Bi  Bi16  1  0.33532400  0.99345100  0.17881900  1
  Bi  Bi17  1  0.66467600  0.00654900  0.82118100  1
  Bi  Bi18  1  0.00654900  0.66467600  0.82118100  1
  Bi  Bi19  1  0.99345100  0.33532400  0.17881900  1
  O  O0  1  0.90270900  0.90270900  0.21090600  1
  O  O1  1  0.09729100  0.09729100  0.78909400  1
  O  O2  1  0.47394100  0.47394100  0.28823000  1
  O  O3  1  0.52605900  0.52605900  0.71177000  1
  O  O4  1  0.56450800  0.92538900  0.38510100  1
  O  O5  1  0.43549200  0.07461000  0.61489900  1
  O  O6  1  0.07461000  0.43549200  0.61489900  1
  O  O7  1  0.92538900  0.56450800  0.38510100  1
  O  O8  1  0.97238500  0.97238500  0.34616500  1
  O  O9  1  0.02761500  0.02761500  0.65383500  1
  O  O10  1  0.59953200  0.59953200  0.02673000  1
  O  O11  1  0.40046800  0.40046800  0.97327000  1
  O  O12  1  0.17584000  0.92550400  0.10238200  1
  O  O13  1  0.82416000  0.07449600  0.89761800  1
  O  O14  1  0.07449600  0.82416000  0.89761800  1
  O  O15  1  0.92550400  0.17584000  0.10238200  1
  O  O16  1  0.48885100  0.24110800  0.19905700  1
  O  O17  1  0.51114900  0.75889200  0.80094300  1
  O  O18  1  0.75889200  0.51114900  0.80094300  1
  O  O19  1  0.24110800  0.48885100  0.19905700  1
  O  O20  1  0.71773200  0.06878900  0.61003200  1
  O  O21  1  0.28226800  0.93121100  0.38996800  1
  O  O22  1  0.93121100  0.28226800  0.38996800  1
  O  O23  1  0.06878900  0.71773200  0.61003200  1
  O  O24  1  0.54949900  0.97126200  0.11137300  1
  O  O25  1  0.45050100  0.02873800  0.88862700  1
  O  O26  1  0.02873800  0.45050100  0.88862700  1
  O  O27  1  0.97126200  0.54949900  0.11137300  1
  O  O28  1  0.23891600  0.23891600  0.21809900  1
  O  O29  1  0.76108400  0.76108400  0.78190100  1
  O  O30  1  0.42217800  0.76701000  0.21979000  1
  O  O31  1  0.57782200  0.23299000  0.78021000  1
  O  O32  1  0.23299000  0.57782200  0.78021000  1
  O  O33  1  0.76701000  0.42217800  0.21979000  1
  O  O34  1  0.77852200  0.77852200  0.18984100  1
  O  O35  1  0.22147800  0.22147800  0.81015900  1
  O  O36  1  0.61257000  0.21319200  0.38980900  1
  O  O37  1  0.38743000  0.78680800  0.61019100  1
  O  O38  1  0.78680800  0.38743000  0.61019100  1
  O  O39  1  0.21319200  0.61257000  0.38980900  1
  O  O40  1  0.59692200  0.59692200  0.40933500  1
  O  O41  1  0.40307800  0.40307800  0.59066500  1
loop_
_geom_bond_atom_site_label_1
_geom_bond_atom_site_label_2
_geom_bond_distance
_geom_bond_site_symmetry_2
Na0 O20 2.482427 1_555
Na0 O22 2.482427 1_555
Na0 O40 2.573722 1_555
Na0 O41 2.573722 1_555
Na0 O31 2.792387 1_555
Na0 O33 2.792387 1_555
Na0 O36 2.858713 1_555
Na0 O38 2.858713 1_555
Na1 O23 2.482427 1_555
Na1 O21 2.482427 1_555
Na1 O40 2.573722 1_555
Na1 O41 2.573722 1_555
Na1 O32 2.792387 1_555
Na1 O30 2.792387 1_555
Na1 O39 2.858713 1_555
Na1 O37 2.858713 1_555
Na2 O8 2.302724 1_445
Na2 O9 2.302724 1_555
Na2 O20 2.692539 1_455
Na2 O23 2.692539 1_545
Na2 O22 2.692539 1_455
Na2 O21 2.692539 1_545
Bi0 O40 2.119973 1_555
Bi0 O3 2.230593 1_555
Bi0 O37 2.564035 1_555
Bi0 O38 2.564035 1_555
Bi0 O7 2.661131 1_555
Bi0 O4 2.661131 1_555
Bi1 O41 2.119973 1_555
Bi1 O2 2.230593 1_555
Bi1 O39 2.564035 1_555
Bi1 O36 2.564035 1_555
Bi1 O5 2.661139 1_555
Bi1 O6 2.661139 1_555
Bi2 O40 2.133339 1_555
Bi2 O34 2.289060 1_555
Bi2 O33 2.388965 1_555
Bi2 O30 2.388965 1_555
Bi3 O41 2.133339 1_555
Bi3 O35 2.289060 1_555
Bi3 O32 2.388965 1_555
Bi3 O31 2.388965 1_555
Bi4 O36 2.100754 1_555
Bi4 O20 2.124605 1_555
Bi4 O5 2.164616 1_555
Bi5 O37 2.100754 1_555
Bi5 O21 2.124605 1_555
Bi5 O4 2.164616 1_555
Bi6 O38 2.100754 1_555
Bi6 O22 2.124605 1_555
Bi6 O7 2.164616 1_555
Bi7 O39 2.100754 1_555
Bi7 O23 2.124605 1_555
Bi7 O6 2.164616 1_555
Bi8 O30 2.163000 1_555
Bi8 O2 2.168929 1_555
Bi8 O39 2.180524 1_555
Bi8 O10 2.525660 1_555
Bi8 O12 2.611154 1_555
Bi8 O19 2.818665 1_555
Bi9 O31 2.163000 1_555
Bi9 O3 2.168929 1_555
Bi9 O38 2.180524 1_555
Bi9 O11 2.525660 1_555
Bi9 O13 2.611154 1_555
Bi9 O18 2.818665 1_555
Bi10 O32 2.163000 1_555
Bi10 O3 2.168929 1_555
Bi10 O37 2.180524 1_555
Bi10 O11 2.525660 1_555
Bi10 O14 2.611154 1_555
Bi10 O17 2.818665 1_555
Bi11 O33 2.163000 1_555
Bi11 O2 2.168929 1_555
Bi11 O36 2.180524 1_555
Bi11 O10 2.525660 1_555
Bi11 O15 2.611154 1_555
Bi11 O16 2.818665 1_555
Bi12 O34 2.171306 1_555
Bi12 O4 2.172101 1_555
Bi12 O24 2.184539 1_555
Bi12 O0 2.538138 1_555
Bi12 O16 2.617385 1_565
Bi12 O13 2.758745 1_564
Bi13 O35 2.171306 1_555
Bi13 O5 2.172100 1_555
Bi13 O25 2.184539 1_555
Bi13 O1 2.538138 1_555
Bi13 O17 2.617385 1_545
Bi13 O12 2.758745 1_546
Bi14 O35 2.171306 1_555
Bi14 O6 2.172100 1_555
Bi14 O26 2.184539 1_555
Bi14 O1 2.538138 1_555
Bi14 O18 2.617385 1_455
Bi14 O15 2.758745 1_456
Bi15 O34 2.171306 1_555
Bi15 O7 2.172101 1_555
Bi15 O27 2.184539 1_555
Bi15 O0 2.538138 1_555
Bi15 O19 2.617385 1_655
Bi15 O14 2.758745 1_654
Bi16 O24 2.124479 1_555
Bi16 O21 2.137541 1_555
Bi16 O30 2.179990 1_555
Bi16 O28 2.727313 1_565
Bi17 O25 2.124479 1_555
Bi17 O20 2.137541 1_555
Bi17 O31 2.179990 1_555
Bi17 O29 2.727313 1_545
Bi18 O26 2.124479 1_555
Bi18 O23 2.137541 1_555
Bi18 O32 2.179990 1_555
Bi18 O29 2.727313 1_455
Bi19 O27 2.124479 1_555
Bi19 O22 2.137541 1_555
Bi19 O33 2.179990 1_555
Bi19 O28 2.727313 1_655
O0 V2 1.769028 1_555
O1 V3 1.769028 1_555
O8 V2 1.712513 1_555
O9 V3 1.712513 1_555
O10 V1 1.761037 1_554
O11 V0 1.761037 1_556
O12 V2 1.756683 1_455
O13 V3 1.756683 1_655
O14 V3 1.756683 1_565
O15 V2 1.756683 1_545
O16 V0 1.741177 1_555
O17 V1 1.741177 1_555
O18 V1 1.741177 1_555
O19 V0 1.741177 1_555
O28 V0 1.743831 1_555
O29 V1 1.743831 1_555
