# generated using pymatgen
data_SrMg14Cd
_symmetry_space_group_name_H-M   'P 1'
_cell_length_a   6.55303435
_cell_length_b   6.55303379
_cell_length_c   10.57466009
_cell_angle_alpha   90.00000000
_cell_angle_beta   90.00000000
_cell_angle_gamma   120.00000280
_symmetry_Int_Tables_number   1
_chemical_formula_structural   SrMg14Cd
_chemical_formula_sum   'Sr1 Mg14 Cd1'
_cell_volume   393.26191288
_cell_formula_units_Z   1
loop_
 _symmetry_equiv_pos_site_id
 _symmetry_equiv_pos_as_xyz
  1  'x, y, z'
loop_
 _atom_site_type_symbol
 _atom_site_label
 _atom_site_symmetry_multiplicity
 _atom_site_fract_x
 _atom_site_fract_y
 _atom_site_fract_z
 _atom_site_occupancy
  Sr  Sr0  1  0.16666700  0.33333300  0.12500000  1
  Mg  Mg0  1  0.17836035  0.83917967  0.12500000  1
  Mg  Mg1  1  0.16382110  0.83191005  0.62500000  1
  Mg  Mg2  1  0.66082033  0.32163965  0.12500000  1
  Mg  Mg3  1  0.66808995  0.33617890  0.62500000  1
  Mg  Mg4  1  0.66082033  0.83917967  0.12500000  1
  Mg  Mg5  1  0.66808995  0.83191005  0.62500000  1
  Mg  Mg6  1  0.33709122  0.16290878  0.38762597  1
  Mg  Mg7  1  0.33709122  0.16290878  0.86237403  1
  Mg  Mg8  1  0.33709122  0.67418343  0.38762597  1
  Mg  Mg9  1  0.33709122  0.67418343  0.86237403  1
  Mg  Mg10  1  0.82581657  0.16290878  0.38762597  1
  Mg  Mg11  1  0.82581657  0.16290878  0.86237403  1
  Mg  Mg12  1  0.83333300  0.66666700  0.36956341  1
  Mg  Mg13  1  0.83333300  0.66666700  0.88043659  1
  Cd  Cd0  1  0.16666700  0.33333300  0.62500000  1
loop_
_geom_bond_atom_site_label_1
_geom_bond_atom_site_label_2
_geom_bond_distance
_geom_bond_site_symmetry_2
Mg0 Mg2 3.161577 1_565
Mg0 Mg4 3.161577 1_555
Mg0 Mg13 3.243811 1_454
Mg0 Mg12 3.243811 1_455
Mg0 Sr0 3.277189 1_555
Mg0 Sr0 3.277189 1_565
Mg0 Mg9 3.329923 1_554
Mg0 Mg8 3.329923 1_555
Mg0 Mg7 3.329930 1_564
Mg0 Mg6 3.329930 1_565
Mg0 Mg2 3.391457 1_455
Mg0 Mg4 3.391458 1_455
Mg1 Mg8 3.135598 1_555
Mg1 Mg9 3.135598 1_555
Mg1 Mg6 3.135604 1_565
Mg1 Mg7 3.135604 1_565
Mg1 Mg3 3.248543 1_455
Mg1 Mg5 3.248543 1_455
Mg1 Mg12 3.288454 1_455
Mg1 Mg13 3.288454 1_455
Mg1 Mg3 3.304491 1_565
Mg1 Mg5 3.304491 1_555
Mg2 Mg4 3.161577 1_545
Mg2 Sr0 3.277189 1_655
Mg2 Sr0 3.277189 1_555
Mg2 Mg7 3.329930 1_554
Mg2 Mg6 3.329930 1_555
Mg2 Mg4 3.391457 1_555
Mg3 Mg6 3.135604 1_555
Mg3 Mg7 3.135604 1_555
Mg3 Mg5 3.248543 1_555
Mg3 Mg5 3.304491 1_545
Mg4 Sr0 3.277189 1_555
Mg4 Sr0 3.277189 1_665
Mg4 Mg9 3.329930 1_554
Mg4 Mg8 3.329930 1_555
Mg5 Mg8 3.135605 1_555
Mg5 Mg9 3.135605 1_555
Mg6 Mg8 3.202634 1_545
Mg6 Mg8 3.350400 1_555
Mg6 Sr0 3.384439 1_555
Mg7 Mg9 3.202634 1_545
Mg7 Mg9 3.350400 1_555
Mg7 Sr0 3.384439 1_556
Mg8 Sr0 3.384446 1_555
Mg9 Sr0 3.384446 1_556
Mg10 Mg3 3.135598 1_555
Mg10 Mg5 3.135604 1_545
Mg10 Mg8 3.202634 1_545
Mg10 Mg6 3.202634 1_555
Mg10 Mg12 3.282357 1_545
Mg10 Mg12 3.282357 1_555
Mg10 Mg2 3.329923 1_555
Mg10 Mg4 3.329929 1_545
Mg10 Mg8 3.350400 1_655
Mg10 Mg6 3.350400 1_655
Mg10 Sr0 3.384446 1_655
Mg11 Mg3 3.135598 1_555
Mg11 Mg5 3.135604 1_545
Mg11 Mg9 3.202634 1_545
Mg11 Mg7 3.202634 1_555
Mg11 Mg13 3.282357 1_545
Mg11 Mg13 3.282357 1_555
Mg11 Mg2 3.329923 1_556
Mg11 Mg4 3.329929 1_546
Mg11 Mg9 3.350400 1_655
Mg11 Mg7 3.350400 1_655
Mg11 Sr0 3.384446 1_656
Mg12 Mg4 3.243804 1_555
Mg12 Mg2 3.243811 1_555
Mg12 Mg6 3.282357 1_555
Mg12 Mg6 3.282357 1_665
Mg12 Mg8 3.282357 1_555
Mg12 Mg8 3.282357 1_655
Mg12 Mg5 3.288448 1_555
Mg12 Mg3 3.288454 1_555
Mg13 Mg4 3.243804 1_556
Mg13 Mg2 3.243811 1_556
Mg13 Mg7 3.282357 1_555
Mg13 Mg7 3.282357 1_665
Mg13 Mg9 3.282357 1_555
Mg13 Mg9 3.282357 1_655
Mg13 Mg5 3.288448 1_555
Mg13 Mg3 3.288454 1_555
Cd0 Mg6 3.168998 1_555
Cd0 Mg7 3.168998 1_555
Cd0 Mg8 3.169005 1_555
Cd0 Mg9 3.169005 1_555
Cd0 Mg11 3.169005 1_455
Cd0 Mg10 3.169005 1_455
Cd0 Mg1 3.276557 1_545
Cd0 Mg5 3.276557 1_445
Cd0 Mg1 3.276557 1_555
Cd0 Mg5 3.276557 1_555
Cd0 Mg3 3.276557 1_455
Cd0 Mg3 3.276557 1_555
