# generated using pymatgen
data_Na5As4
_symmetry_space_group_name_H-M   'P 1'
_cell_length_a   5.67597135
_cell_length_b   5.67597135
_cell_length_c   9.58721610
_cell_angle_alpha   71.53279127
_cell_angle_beta   71.53279127
_cell_angle_gamma   47.68251425
_symmetry_Int_Tables_number   1
_chemical_formula_structural   Na5As4
_chemical_formula_sum   'Na5 As4'
_cell_volume   214.25222664
_cell_formula_units_Z   1
loop_
 _symmetry_equiv_pos_site_id
 _symmetry_equiv_pos_as_xyz
  1  'x, y, z'
loop_
 _atom_site_type_symbol
 _atom_site_label
 _atom_site_symmetry_multiplicity
 _atom_site_fract_x
 _atom_site_fract_y
 _atom_site_fract_z
 _atom_site_occupancy
  Na  Na0  1  0.09960343  0.09960343  0.61364244  1
  Na  Na1  1  0.90039657  0.90039657  0.38635756  1
  Na  Na2  1  0.75494209  0.75494209  0.83515978  1
  Na  Na3  1  0.24505791  0.24505791  0.16484022  1
  Na  Na4  1  -0.00000000  -0.00000000  0.00000000  1
  As  As0  1  0.45579341  0.45579341  0.82805549  1
  As  As1  1  0.54420659  0.54420659  0.17194451  1
  As  As2  1  0.39305731  0.39305731  0.60706556  1
  As  As3  1  0.60694269  0.60694269  0.39293444  1
loop_
_geom_bond_atom_site_label_1
_geom_bond_atom_site_label_2
_geom_bond_distance
_geom_bond_site_symmetry_2
As0 As2 2.422609 1_555
As0 Na4 2.952255 1_656
As0 Na4 2.952255 1_566
As0 Na2 3.085308 1_545
As0 Na2 3.085308 1_455
As0 Na0 3.097235 1_565
As0 Na0 3.097235 1_655
As0 Na2 3.130381 1_555
As0 Na3 3.212438 1_556
As1 As3 2.422609 1_555
As1 Na4 2.952255 1_565
As1 Na4 2.952255 1_655
As1 Na3 3.085308 1_655
As1 Na3 3.085308 1_565
As1 Na1 3.097235 1_545
As1 Na1 3.097235 1_455
As1 Na3 3.130381 1_555
As1 Na2 3.212438 1_554
As2 As3 2.447193 1_555
As2 Na0 3.025752 1_555
As2 Na1 3.104039 1_545
As2 Na1 3.104039 1_455
As2 Na2 3.151211 1_545
As2 Na2 3.151211 1_455
As2 Na0 3.156047 1_565
As2 Na0 3.156047 1_655
As3 Na1 3.025752 1_555
As3 Na0 3.104039 1_565
As3 Na0 3.104039 1_655
As3 Na3 3.151211 1_565
As3 Na3 3.151211 1_655
As3 Na1 3.156047 1_545
As3 Na1 3.156047 1_455
