# generated using pymatgen
data_KMg14V
_symmetry_space_group_name_H-M   'P 1'
_cell_length_a   6.51120478
_cell_length_b   6.51120424
_cell_length_c   10.38744940
_cell_angle_alpha   90.00000000
_cell_angle_beta   90.00000000
_cell_angle_gamma   120.00000277
_symmetry_Int_Tables_number   1
_chemical_formula_structural   KMg14V
_chemical_formula_sum   'K1 Mg14 V1'
_cell_volume   381.38377496
_cell_formula_units_Z   1
loop_
 _symmetry_equiv_pos_site_id
 _symmetry_equiv_pos_as_xyz
  1  'x, y, z'
loop_
 _atom_site_type_symbol
 _atom_site_label
 _atom_site_symmetry_multiplicity
 _atom_site_fract_x
 _atom_site_fract_y
 _atom_site_fract_z
 _atom_site_occupancy
  K  K0  1  0.16666700  0.33333300  0.62500000  1
  Mg  Mg0  1  0.16394088  0.83196994  0.12500000  1
  Mg  Mg1  1  0.17477201  0.83738551  0.62500000  1
  Mg  Mg2  1  0.66803006  0.33605912  0.12500000  1
  Mg  Mg3  1  0.66261449  0.32522799  0.62500000  1
  Mg  Mg4  1  0.66803006  0.83196994  0.12500000  1
  Mg  Mg5  1  0.66261449  0.83738551  0.62500000  1
  Mg  Mg6  1  0.33387545  0.16612455  0.35751141  1
  Mg  Mg7  1  0.33387545  0.16612455  0.89248859  1
  Mg  Mg8  1  0.33387545  0.66775190  0.35751141  1
  Mg  Mg9  1  0.33387545  0.66775190  0.89248859  1
  Mg  Mg10  1  0.83224810  0.16612455  0.35751141  1
  Mg  Mg11  1  0.83224810  0.16612455  0.89248859  1
  Mg  Mg12  1  0.83333300  0.66666700  0.38043146  1
  Mg  Mg13  1  0.83333300  0.66666700  0.86956854  1
  V  V0  1  0.16666700  0.33333300  0.12500000  1
loop_
_geom_bond_atom_site_label_1
_geom_bond_atom_site_label_2
_geom_bond_distance
_geom_bond_site_symmetry_2
K0 Mg1 3.255923 1_545
K0 Mg5 3.255923 1_555
K0 Mg5 3.255923 1_445
K0 Mg1 3.255923 1_555
K0 Mg3 3.255923 1_555
K0 Mg3 3.255923 1_455
K0 Mg6 3.358003 1_555
K0 Mg7 3.358003 1_555
K0 Mg8 3.358009 1_555
K0 Mg9 3.358009 1_555
K0 Mg10 3.358010 1_455
K0 Mg11 3.358010 1_455
Mg0 Mg9 3.063317 1_554
Mg0 Mg8 3.063317 1_555
Mg0 Mg7 3.063324 1_564
Mg0 Mg6 3.063324 1_565
Mg0 Mg2 3.228977 1_455
Mg0 Mg4 3.228977 1_455
Mg0 Mg13 3.242737 1_454
Mg0 Mg12 3.242737 1_455
Mg0 V0 3.255638 1_565
Mg0 V0 3.255638 1_555
Mg0 Mg2 3.282228 1_565
Mg0 Mg4 3.282228 1_555
Mg1 Mg3 3.176442 1_565
Mg1 Mg5 3.176442 1_555
Mg1 Mg12 3.187593 1_455
Mg1 Mg13 3.187593 1_455
Mg1 Mg3 3.334762 1_455
Mg1 Mg5 3.334762 1_455
Mg1 Mg8 3.340299 1_555
Mg1 Mg9 3.340299 1_555
Mg1 Mg6 3.340305 1_565
Mg1 Mg7 3.340305 1_565
Mg2 Mg7 3.063324 1_554
Mg2 Mg6 3.063324 1_555
Mg2 Mg4 3.228977 1_555
Mg2 V0 3.255639 1_655
Mg2 V0 3.255639 1_555
Mg2 Mg4 3.282228 1_545
Mg3 Mg5 3.176442 1_545
Mg3 Mg5 3.334762 1_555
Mg3 Mg6 3.340305 1_555
Mg3 Mg7 3.340305 1_555
Mg4 Mg9 3.063324 1_554
Mg4 Mg8 3.063324 1_555
Mg4 V0 3.255638 1_665
Mg4 V0 3.255638 1_555
Mg5 Mg8 3.340305 1_555
Mg5 Mg9 3.340305 1_555
Mg6 V0 3.064177 1_555
Mg6 Mg8 3.245006 1_545
Mg6 Mg8 3.266198 1_555
Mg7 V0 3.064177 1_556
Mg7 Mg9 3.245006 1_545
Mg7 Mg9 3.266198 1_555
Mg8 V0 3.064184 1_555
Mg9 V0 3.064184 1_556
Mg10 Mg2 3.063317 1_555
Mg10 Mg4 3.063324 1_545
Mg10 V0 3.064184 1_655
Mg10 Mg8 3.245006 1_545
Mg10 Mg6 3.245006 1_555
Mg10 Mg12 3.264302 1_555
Mg10 Mg12 3.264302 1_545
Mg10 Mg8 3.266198 1_655
Mg10 Mg6 3.266198 1_655
Mg10 Mg3 3.340299 1_555
Mg10 Mg5 3.340305 1_545
Mg11 Mg2 3.063317 1_556
Mg11 Mg4 3.063324 1_546
Mg11 V0 3.064184 1_656
Mg11 Mg9 3.245006 1_545
Mg11 Mg7 3.245006 1_555
Mg11 Mg13 3.264302 1_555
Mg11 Mg13 3.264302 1_545
Mg11 Mg9 3.266198 1_655
Mg11 Mg7 3.266198 1_655
Mg11 Mg3 3.340299 1_555
Mg11 Mg5 3.340305 1_545
Mg12 Mg5 3.187586 1_555
Mg12 Mg3 3.187593 1_555
Mg12 Mg4 3.242731 1_555
Mg12 Mg2 3.242737 1_555
Mg12 Mg6 3.264302 1_555
Mg12 Mg6 3.264302 1_665
Mg12 Mg8 3.264302 1_555
Mg12 Mg8 3.264302 1_655
Mg13 Mg5 3.187586 1_555
Mg13 Mg3 3.187593 1_555
Mg13 Mg4 3.242731 1_556
Mg13 Mg2 3.242737 1_556
Mg13 Mg7 3.264302 1_555
Mg13 Mg7 3.264302 1_665
Mg13 Mg9 3.264302 1_555
Mg13 Mg9 3.264302 1_655
