# generated using pymatgen
data_Dy7Co6Sn23
_symmetry_space_group_name_H-M   'P 1'
_cell_length_a   10.11414344
_cell_length_b   10.11414344
_cell_length_c   10.92882600
_cell_angle_alpha   90.00000000
_cell_angle_beta   90.00000000
_cell_angle_gamma   119.99999637
_symmetry_Int_Tables_number   1
_chemical_formula_structural   Dy7Co6Sn23
_chemical_formula_sum   'Dy7 Co6 Sn23'
_cell_volume   968.19397699
_cell_formula_units_Z   1
loop_
 _symmetry_equiv_pos_site_id
 _symmetry_equiv_pos_as_xyz
  1  'x, y, z'
loop_
 _atom_site_type_symbol
 _atom_site_label
 _atom_site_symmetry_multiplicity
 _atom_site_fract_x
 _atom_site_fract_y
 _atom_site_fract_z
 _atom_site_occupancy
  Dy  Dy0  1  0.00000000  0.00000000  0.50000000  1
  Dy  Dy1  1  0.95107600  0.47553800  0.21002700  1
  Dy  Dy2  1  0.52446200  0.04892400  0.21002700  1
  Dy  Dy3  1  0.52446200  0.47553800  0.21002700  1
  Dy  Dy4  1  0.04892400  0.52446200  0.78997300  1
  Dy  Dy5  1  0.47553800  0.95107600  0.78997300  1
  Dy  Dy6  1  0.47553800  0.52446200  0.78997300  1
  Co  Co0  1  0.38698200  0.19349100  0.35120700  1
  Co  Co1  1  0.80650900  0.61301800  0.35120700  1
  Co  Co2  1  0.80650900  0.19349100  0.35120700  1
  Co  Co3  1  0.61301800  0.80650900  0.64879300  1
  Co  Co4  1  0.19349100  0.38698200  0.64879300  1
  Co  Co5  1  0.19349100  0.80650900  0.64879300  1
  Sn  Sn0  1  0.66666700  0.33333300  0.70218300  1
  Sn  Sn1  1  0.33333300  0.66666700  0.29781700  1
  Sn  Sn2  1  0.45580200  0.22790100  0.94429400  1
  Sn  Sn3  1  0.77209900  0.54419800  0.94429400  1
  Sn  Sn4  1  0.77209900  0.22790100  0.94429400  1
  Sn  Sn5  1  0.54419800  0.77209900  0.05570600  1
  Sn  Sn6  1  0.22790100  0.45580200  0.05570600  1
  Sn  Sn7  1  0.22790100  0.77209900  0.05570600  1
  Sn  Sn8  1  0.23176700  0.11588300  0.17821700  1
  Sn  Sn9  1  0.88411700  0.76823300  0.17821700  1
  Sn  Sn10  1  0.88411700  0.11588300  0.17821700  1
  Sn  Sn11  1  0.76823300  0.88411700  0.82178300  1
  Sn  Sn12  1  0.11588300  0.23176700  0.82178300  1
  Sn  Sn13  1  0.11588300  0.88411700  0.82178300  1
  Sn  Sn14  1  0.00000000  0.00000000  0.00000000  1
  Sn  Sn15  1  0.34755300  0.00000000  0.50000000  1
  Sn  Sn16  1  0.65244700  0.65244700  0.50000000  1
  Sn  Sn17  1  0.00000000  0.34755300  0.50000000  1
  Sn  Sn18  1  0.34755300  0.34755300  0.50000000  1
  Sn  Sn19  1  0.00000000  0.65244700  0.50000000  1
  Sn  Sn20  1  0.65244700  0.00000000  0.50000000  1
  Sn  Sn21  1  0.66666700  0.33333300  0.39241200  1
  Sn  Sn22  1  0.33333300  0.66666700  0.60758800  1
loop_
_geom_bond_atom_site_label_1
_geom_bond_atom_site_label_2
_geom_bond_distance
_geom_bond_site_symmetry_2
Dy0 Sn17 3.515201 1_555
Dy0 Sn15 3.515201 1_555
Dy0 Sn19 3.515201 1_545
Dy0 Sn20 3.515201 1_455
Dy0 Sn16 3.515201 1_445
Dy0 Sn18 3.515201 1_555
Dy1 Sn21 3.190452 1_555
Dy1 Sn6 3.358916 1_655
Dy1 Sn7 3.358917 1_655
Dy1 Sn9 3.368691 1_555
Dy1 Sn10 3.368701 1_555
Dy1 Sn1 3.482983 1_655
Dy1 Sn17 3.550208 1_655
Dy1 Sn19 3.550208 1_655
Dy1 Sn3 3.667454 1_554
Dy1 Sn4 3.667454 1_554
Dy2 Sn21 3.190452 1_555
Dy2 Sn5 3.358916 1_545
Dy2 Sn7 3.358917 1_545
Dy2 Sn8 3.368691 1_555
Dy2 Sn10 3.368701 1_555
Dy2 Sn1 3.482983 1_545
Dy2 Sn20 3.550208 1_555
Dy2 Sn15 3.550208 1_555
Dy2 Sn2 3.667454 1_554
Dy2 Sn4 3.667454 1_554
Dy3 Sn21 3.190458 1_555
Dy3 Sn6 3.358916 1_555
Dy3 Sn5 3.358916 1_555
Dy3 Sn8 3.368698 1_555
Dy3 Sn9 3.368698 1_555
Dy3 Sn1 3.482991 1_555
Dy3 Sn18 3.550208 1_555
Dy3 Sn16 3.550208 1_555
Dy3 Sn2 3.667454 1_554
Dy3 Sn3 3.667454 1_554
Dy4 Sn22 3.190452 1_555
Dy4 Sn3 3.358916 1_455
Dy4 Sn4 3.358917 1_455
Dy4 Sn12 3.368691 1_555
Dy4 Sn13 3.368701 1_555
Dy4 Sn0 3.482983 1_455
Dy4 Sn19 3.550208 1_555
Dy4 Sn17 3.550208 1_555
Dy4 Sn6 3.667454 1_556
Dy4 Sn7 3.667454 1_556
Dy5 Sn22 3.190452 1_555
Dy5 Sn2 3.358916 1_565
Dy5 Sn4 3.358917 1_565
Dy5 Sn11 3.368691 1_555
Dy5 Sn13 3.368701 1_555
Dy5 Sn0 3.482983 1_565
Dy5 Sn15 3.550208 1_565
Dy5 Sn20 3.550208 1_565
Dy5 Sn5 3.667454 1_556
Dy5 Sn7 3.667454 1_556
Dy6 Sn22 3.190458 1_555
Dy6 Sn2 3.358916 1_555
Dy6 Sn3 3.358916 1_555
Dy6 Sn12 3.368698 1_555
Dy6 Sn11 3.368698 1_555
Dy6 Sn0 3.482991 1_555
Dy6 Sn18 3.550208 1_555
Dy6 Sn16 3.550208 1_555
Dy6 Sn6 3.667454 1_556
Dy6 Sn5 3.667454 1_556
Co0 Sn8 2.328657 1_555
Co0 Sn18 2.419244 1_555
Co0 Sn15 2.419244 1_555
Co0 Sn21 2.490836 1_555
Co0 Dy2 2.912935 1_555
Co0 Dy3 2.912935 1_555
Co1 Sn9 2.328657 1_555
Co1 Sn16 2.419244 1_555
Co1 Sn19 2.419244 1_655
Co1 Sn21 2.490836 1_555
Co1 Dy1 2.912935 1_555
Co1 Dy3 2.912935 1_555
Co2 Sn10 2.328662 1_555
Co2 Sn20 2.419244 1_555
Co2 Sn17 2.419244 1_655
Co2 Sn21 2.490827 1_555
Co2 Dy1 2.912935 1_555
Co2 Dy2 2.912935 1_555
Co3 Sn11 2.328657 1_555
Co3 Sn16 2.419244 1_555
Co3 Sn20 2.419244 1_565
Co3 Sn22 2.490836 1_555
Co3 Dy5 2.912935 1_555
Co3 Dy6 2.912935 1_555
Co4 Sn12 2.328657 1_555
Co4 Sn18 2.419244 1_555
Co4 Sn17 2.419244 1_555
Co4 Sn22 2.490836 1_555
Co4 Dy4 2.912935 1_555
Co4 Dy6 2.912935 1_555
Co5 Sn13 2.328662 1_555
Co5 Sn19 2.419244 1_555
Co5 Sn15 2.419244 1_565
Co5 Sn22 2.490827 1_555
Co5 Dy5 2.912935 1_555
Co5 Dy4 2.912935 1_555
Sn0 Sn4 3.226855 1_555
Sn0 Sn3 3.226860 1_555
Sn0 Sn2 3.226860 1_555
Sn0 Sn21 3.385433 1_555
Sn1 Sn7 3.226855 1_555
Sn1 Sn5 3.226860 1_555
Sn1 Sn6 3.226860 1_555
Sn1 Sn22 3.385433 1_555
Sn2 Sn4 3.199073 1_555
Sn2 Sn3 3.199073 1_555
Sn2 Sn8 3.222812 1_556
Sn3 Sn4 3.199073 1_555
Sn3 Sn9 3.222812 1_556
Sn5 Sn7 3.199073 1_555
Sn5 Sn6 3.199073 1_555
Sn6 Sn7 3.199073 1_555
Sn10 Sn14 2.813308 1_655
Sn10 Sn4 3.222817 1_554
Sn11 Sn14 2.813314 1_666
Sn11 Sn5 3.222812 1_556
Sn12 Sn14 2.813314 1_556
Sn12 Sn6 3.222812 1_556
Sn13 Sn14 2.813308 1_566
Sn13 Sn7 3.222817 1_556
Sn14 Sn8 2.813314 1_555
Sn14 Sn9 2.813314 1_445
