# generated using pymatgen
data_Zn4SnN4
_symmetry_space_group_name_H-M   'P 1'
_cell_length_a   5.99202675
_cell_length_b   5.86591487
_cell_length_c   9.02746014
_cell_angle_alpha   67.65494897
_cell_angle_beta   89.58079297
_cell_angle_gamma   88.98494778
_symmetry_Int_Tables_number   1
_chemical_formula_structural   Zn4SnN4
_chemical_formula_sum   'Zn8 Sn2 N8'
_cell_volume   293.43155393
_cell_formula_units_Z   2
loop_
 _symmetry_equiv_pos_site_id
 _symmetry_equiv_pos_as_xyz
  1  'x, y, z'
loop_
 _atom_site_type_symbol
 _atom_site_label
 _atom_site_symmetry_multiplicity
 _atom_site_fract_x
 _atom_site_fract_y
 _atom_site_fract_z
 _atom_site_occupancy
  Zn  Zn0  1  0.65605500  0.61477900  0.15359000  1
  Zn  Zn1  1  0.34394500  0.38522100  0.84641000  1
  Zn  Zn2  1  0.86983400  0.14822800  0.05236600  1
  Zn  Zn3  1  0.13016600  0.85177200  0.94763400  1
  Zn  Zn4  1  0.65411200  0.62353800  0.54670700  1
  Zn  Zn5  1  0.34588800  0.37646200  0.45329300  1
  Zn  Zn6  1  0.13658100  0.86733300  0.62424200  1
  Zn  Zn7  1  0.86341900  0.13266700  0.37575800  1
  Sn  Sn0  1  0.61658500  0.95364000  0.76544400  1
  Sn  Sn1  1  0.38341500  0.04636000  0.23455600  1
  N  N0  1  0.80609400  0.87516800  0.59507200  1
  N  N1  1  0.19390600  0.12483200  0.40492800  1
  N  N2  1  0.80015200  0.87689300  0.97330800  1
  N  N3  1  0.19984800  0.12310700  0.02669200  1
  N  N4  1  0.32433700  0.73921500  0.81483900  1
  N  N5  1  0.67566300  0.26078500  0.18516100  1
  N  N6  1  0.50597900  0.68477100  0.32954900  1
  N  N7  1  0.49402100  0.31522900  0.67045100  1
loop_
_geom_bond_atom_site_label_1
_geom_bond_atom_site_label_2
_geom_bond_distance
_geom_bond_site_symmetry_2
N0 Zn4 1.934459 1_555
N0 Zn6 1.997047 1_655
N0 Zn7 2.013419 1_565
N0 Sn0 2.088327 1_555
N1 Zn5 1.934459 1_555
N1 Zn7 1.997047 1_455
N1 Zn6 2.013419 1_545
N1 Sn1 2.088327 1_555
N2 Zn0 1.970291 1_556
N2 Zn3 1.998672 1_655
N2 Zn2 2.026970 1_566
N2 Sn0 2.074620 1_555
N3 Zn1 1.970291 1_554
N3 Zn2 1.998672 1_455
N3 Zn3 2.026970 1_544
N3 Sn1 2.074620 1_555
N4 Zn3 1.944465 1_555
N4 Zn6 1.950935 1_555
N4 Zn1 1.987141 1_555
N4 Sn0 2.118395 1_555
N5 Zn2 1.944465 1_555
N5 Zn7 1.950935 1_555
N5 Zn0 1.987141 1_555
N5 Sn1 2.118395 1_555
N6 Zn5 1.987071 1_555
N6 Zn0 1.990566 1_555
N6 Zn4 2.058822 1_555
N6 Sn1 2.084368 1_565
N7 Zn4 1.987071 1_555
N7 Zn1 1.990566 1_555
N7 Zn5 2.058822 1_555
N7 Sn0 2.084368 1_545
