# generated using pymatgen
data_La2Ni4GeP3
_symmetry_space_group_name_H-M   'P 1'
_cell_length_a   4.02695300
_cell_length_b   4.02695300
_cell_length_c   9.82492700
_cell_angle_alpha   90.00000000
_cell_angle_beta   90.00000000
_cell_angle_gamma   90.00000000
_symmetry_Int_Tables_number   1
_chemical_formula_structural   La2Ni4GeP3
_chemical_formula_sum   'La2 Ni4 Ge1 P3'
_cell_volume   159.32445952
_cell_formula_units_Z   1
loop_
 _symmetry_equiv_pos_site_id
 _symmetry_equiv_pos_as_xyz
  1  'x, y, z'
loop_
 _atom_site_type_symbol
 _atom_site_label
 _atom_site_symmetry_multiplicity
 _atom_site_fract_x
 _atom_site_fract_y
 _atom_site_fract_z
 _atom_site_occupancy
  La  La0  1  0.00000000  0.00000000  0.99145500  1
  La  La1  1  0.50000000  0.50000000  0.50345500  1
  Ni  Ni0  1  0.00000000  0.50000000  0.25974900  1
  Ni  Ni1  1  0.50000000  0.00000000  0.74597100  1
  Ni  Ni2  1  0.50000000  0.00000000  0.25974900  1
  Ni  Ni3  1  0.00000000  0.50000000  0.74597100  1
  Ge  Ge0  1  0.50000000  0.50000000  0.12798700  1
  P  P0  1  0.00000000  0.00000000  0.63137600  1
  P  P1  1  0.00000000  0.00000000  0.36897200  1
  P  P2  1  0.50000000  0.50000000  0.86531600  1
loop_
_geom_bond_atom_site_label_1
_geom_bond_atom_site_label_2
_geom_bond_distance
_geom_bond_site_symmetry_2
La0 P2 3.105488 1_445
La0 P2 3.105488 1_555
La0 P2 3.105488 1_455
La0 P2 3.105488 1_545
La0 Ni3 3.141841 1_545
La0 Ni1 3.141841 1_555
La0 Ni3 3.141841 1_555
La0 Ni1 3.141841 1_455
La0 Ni0 3.316990 1_546
La0 Ni2 3.316990 1_456
La0 Ni0 3.316990 1_556
La0 Ni2 3.316990 1_556
La1 P0 3.112516 1_655
La1 P0 3.112516 1_665
La1 P0 3.112516 1_555
La1 P0 3.112516 1_565
La1 Ni3 3.119512 1_555
La1 Ni3 3.119512 1_655
La1 Ni1 3.119512 1_555
La1 Ni1 3.119512 1_565
La1 Ni0 3.128451 1_655
La1 Ni2 3.128451 1_555
La1 Ni2 3.128451 1_565
La1 Ni0 3.128451 1_555
La1 P1 3.139104 1_665
La1 P1 3.139104 1_565
La1 P1 3.139104 1_555
La1 P1 3.139104 1_655
Ni0 P1 2.281589 1_565
Ni0 P1 2.281589 1_555
Ni1 P0 2.306883 1_655
Ni1 P0 2.306883 1_555
Ni1 P2 2.330016 1_545
Ni1 P2 2.330016 1_555
Ni2 P1 2.281589 1_655
Ni2 P1 2.281589 1_555
Ni3 P0 2.306883 1_565
Ni3 P0 2.306883 1_555
Ni3 P2 2.330016 1_455
Ni3 P2 2.330016 1_555
Ge0 Ni2 2.393732 1_565
Ge0 Ni0 2.393732 1_555
Ge0 Ni0 2.393732 1_655
Ge0 Ni2 2.393732 1_555
Ge0 P2 2.580723 1_554
Ge0 La0 3.147630 1_664
Ge0 La0 3.147630 1_554
Ge0 La0 3.147630 1_564
Ge0 La0 3.147630 1_654
P0 P1 2.578100 1_555
