# generated using pymatgen
data_LiZn(HCl)3
_symmetry_space_group_name_H-M   'P 1'
_cell_length_a   6.35433400
_cell_length_b   7.64381000
_cell_length_c   14.57500800
_cell_angle_alpha   90.00000000
_cell_angle_beta   90.00000000
_cell_angle_gamma   90.00000000
_symmetry_Int_Tables_number   1
_chemical_formula_structural   LiZn(HCl)3
_chemical_formula_sum   'Li4 Zn4 H12 Cl12'
_cell_volume   707.92740341
_cell_formula_units_Z   4
loop_
 _symmetry_equiv_pos_site_id
 _symmetry_equiv_pos_as_xyz
  1  'x, y, z'
loop_
 _atom_site_type_symbol
 _atom_site_label
 _atom_site_symmetry_multiplicity
 _atom_site_fract_x
 _atom_site_fract_y
 _atom_site_fract_z
 _atom_site_occupancy
  Li  Li0  1  0.10432900  0.25000000  0.62568700  1
  Li  Li1  1  0.89567100  0.75000000  0.37431300  1
  Li  Li2  1  0.39567100  0.75000000  0.12568700  1
  Li  Li3  1  0.60432900  0.25000000  0.87431300  1
  Zn  Zn0  1  0.31313900  0.25000000  0.17386900  1
  Zn  Zn1  1  0.68686100  0.75000000  0.82613100  1
  Zn  Zn2  1  0.18686100  0.75000000  0.67386900  1
  Zn  Zn3  1  0.81313900  0.25000000  0.32613100  1
  H  H0  1  0.19578700  0.62435700  0.33745600  1
  H  H1  1  0.80421300  0.37564300  0.66254400  1
  H  H2  1  0.30421300  0.37564300  0.83745600  1
  H  H3  1  0.80421300  0.12435700  0.66254400  1
  H  H4  1  0.69578700  0.62435700  0.16254400  1
  H  H5  1  0.19578700  0.87564300  0.33745600  1
  H  H6  1  0.69578700  0.87564300  0.16254400  1
  H  H7  1  0.30421300  0.12435700  0.83745600  1
  H  H8  1  0.29826900  0.25000000  0.83714400  1
  H  H9  1  0.70173100  0.75000000  0.16285600  1
  H  H10  1  0.20173100  0.75000000  0.33714400  1
  H  H11  1  0.79826900  0.25000000  0.66285600  1
  Cl  Cl0  1  0.21124300  0.00103200  0.10213200  1
  Cl  Cl1  1  0.78875700  0.99896800  0.89786800  1
  Cl  Cl2  1  0.28875700  0.99896800  0.60213200  1
  Cl  Cl3  1  0.78875700  0.50103200  0.89786800  1
  Cl  Cl4  1  0.71124300  0.00103200  0.39786800  1
  Cl  Cl5  1  0.21124300  0.49896800  0.10213200  1
  Cl  Cl6  1  0.71124300  0.49896800  0.39786800  1
  Cl  Cl7  1  0.28875700  0.50103200  0.60213200  1
  Cl  Cl8  1  0.18161900  0.25000000  0.32297900  1
  Cl  Cl9  1  0.81838100  0.75000000  0.67702100  1
  Cl  Cl10  1  0.31838100  0.75000000  0.82297900  1
  Cl  Cl11  1  0.68161900  0.25000000  0.17702100  1
loop_
_geom_bond_atom_site_label_1
_geom_bond_atom_site_label_2
_geom_bond_distance
_geom_bond_site_symmetry_2
H0 H10 0.961144 1_555
H0 Li1 2.201753 1_455
H1 H11 0.961144 1_555
H1 Li0 2.201753 1_655
H2 H8 0.961144 1_555
H2 Li3 2.201753 1_555
H3 Li0 2.201753 1_655
H4 H9 0.961144 1_555
H4 Li2 2.201753 1_555
H5 Li1 2.201753 1_455
H6 H9 0.961144 1_555
H6 Li2 2.201753 1_555
H7 H8 0.961144 1_555
H7 Li3 2.201753 1_555
H8 Li3 2.018850 1_555
H9 Li2 2.018850 1_555
H10 H5 0.961144 1_555
H10 Li1 2.018850 1_455
H11 H3 0.961144 1_555
H11 Li0 2.018850 1_655
Cl0 Zn0 2.265854 1_555
Cl0 Li2 2.274468 1_545
Cl1 Zn1 2.265854 1_555
Cl1 Li3 2.274468 1_565
Cl2 Zn2 2.265854 1_555
Cl2 Li0 2.274468 1_565
Cl3 Zn1 2.265854 1_555
Cl3 Li3 2.274468 1_555
Cl4 Zn3 2.265854 1_555
Cl4 Li1 2.274468 1_545
Cl5 Zn0 2.265854 1_555
Cl5 Li2 2.274468 1_555
Cl6 Zn3 2.265854 1_555
Cl6 Li1 2.274468 1_555
Cl7 Zn2 2.265854 1_555
Cl7 Li0 2.274468 1_555
Cl8 Zn0 2.328428 1_555
Cl8 Zn3 2.341896 1_455
Cl9 Zn1 2.328428 1_555
Cl9 Zn2 2.341896 1_655
Cl10 Zn2 2.328428 1_555
Cl10 Zn1 2.341896 1_555
Cl11 Zn3 2.328428 1_555
Cl11 Zn0 2.341896 1_555
