# generated using pymatgen
data_SmEr3Fe34
_symmetry_space_group_name_H-M   'P 1'
_cell_length_a   8.26368600
_cell_length_b   8.43302200
_cell_length_c   8.43029739
_cell_angle_alpha   59.98930828
_cell_angle_beta   90.00000000
_cell_angle_gamma   90.00000000
_symmetry_Int_Tables_number   1
_chemical_formula_structural   SmEr3Fe34
_chemical_formula_sum   'Sm1 Er3 Fe34'
_cell_volume   508.72580434
_cell_formula_units_Z   1
loop_
 _symmetry_equiv_pos_site_id
 _symmetry_equiv_pos_as_xyz
  1  'x, y, z'
loop_
 _atom_site_type_symbol
 _atom_site_label
 _atom_site_symmetry_multiplicity
 _atom_site_fract_x
 _atom_site_fract_y
 _atom_site_fract_z
 _atom_site_occupancy
  Sm  Sm0  1  0.25000000  0.66672400  0.66655100  1
  Er  Er0  1  0.75000000  0.33330000  0.33340000  1
  Er  Er1  1  0.75000000  0.99994200  0.00011700  1
  Er  Er2  1  0.25000000  0.99992000  0.00016100  1
  Fe  Fe0  1  0.60860800  0.66669000  0.66662000  1
  Fe  Fe1  1  0.39243400  0.33332100  0.33335800  1
  Fe  Fe2  1  0.10756600  0.33332100  0.33335800  1
  Fe  Fe3  1  0.89139200  0.66669000  0.66662000  1
  Fe  Fe4  1  0.48872000  0.83490300  0.83487400  1
  Fe  Fe5  1  0.48876700  0.83493000  0.33013900  1
  Fe  Fe6  1  0.48872000  0.33022300  0.83487400  1
  Fe  Fe7  1  0.51282200  0.16599800  0.16599800  1
  Fe  Fe8  1  0.51289400  0.16598400  0.66803100  1
  Fe  Fe9  1  0.51282200  0.66800400  0.16599800  1
  Fe  Fe10  1  0.98717800  0.16599800  0.16599800  1
  Fe  Fe11  1  0.98710600  0.16598400  0.66803100  1
  Fe  Fe12  1  0.98717800  0.66800400  0.16599800  1
  Fe  Fe13  1  0.01128000  0.83490300  0.83487400  1
  Fe  Fe14  1  0.01123300  0.83493000  0.33013900  1
  Fe  Fe15  1  0.01128000  0.33022300  0.83487400  1
  Fe  Fe16  1  0.50087900  0.49933100  0.49930000  1
  Fe  Fe17  1  0.50086400  0.49931700  0.00136700  1
  Fe  Fe18  1  0.50087900  0.00136900  0.49930000  1
  Fe  Fe19  1  0.99912100  0.49933100  0.49930000  1
  Fe  Fe20  1  0.99913600  0.49931700  0.00136700  1
  Fe  Fe21  1  0.99912100  0.00136900  0.49930000  1
  Fe  Fe22  1  0.75000000  0.67037200  0.36339800  1
  Fe  Fe23  1  0.75000000  0.36340000  0.96625100  1
  Fe  Fe24  1  0.75000000  0.96621200  0.67035900  1
  Fe  Fe25  1  0.75000000  0.36342900  0.67035900  1
  Fe  Fe26  1  0.75000000  0.96623000  0.36339800  1
  Fe  Fe27  1  0.75000000  0.67034900  0.96625100  1
  Fe  Fe28  1  0.25000000  0.32854200  0.63542500  1
  Fe  Fe29  1  0.25000000  0.63543300  0.03602200  1
  Fe  Fe30  1  0.25000000  0.03592200  0.32857100  1
  Fe  Fe31  1  0.25000000  0.63550700  0.32857100  1
  Fe  Fe32  1  0.25000000  0.03603300  0.63542500  1
  Fe  Fe33  1  0.25000000  0.32854500  0.03602200  1
loop_
_geom_bond_atom_site_label_1
_geom_bond_atom_site_label_2
_geom_bond_distance
_geom_bond_site_symmetry_2
Er0 Fe1 2.954813 1_555
Er0 Fe2 2.954813 1_655
Er0 Fe24 2.975889 1_545
Er0 Fe25 2.975889 1_555
Er0 Fe23 2.976345 1_554
Er0 Fe27 2.976345 1_554
Er0 Fe26 2.977088 1_545
Er0 Fe22 2.977088 1_555
Er0 Fe8 3.131539 1_555
Er0 Fe11 3.131539 1_555
Er0 Fe10 3.132943 1_555
Er0 Fe7 3.132943 1_555
Er0 Fe12 3.132943 1_555
Er0 Fe9 3.132943 1_555
Er0 Fe21 3.180152 1_555
Er0 Fe18 3.180152 1_555
Er0 Fe16 3.180152 1_555
Er0 Fe19 3.180152 1_555
Er0 Fe20 3.180203 1_555
Er0 Fe17 3.180203 1_555
Er1 Fe26 2.930732 1_555
Er1 Fe22 2.930735 1_555
Er1 Fe25 2.932584 1_564
Er1 Fe24 2.932589 1_554
Er1 Fe23 2.932692 1_564
Er1 Fe27 2.932700 1_554
Er1 Fe8 3.117068 1_564
Er1 Fe11 3.117068 1_564
Er1 Fe10 3.117206 1_565
Er1 Fe7 3.117206 1_565
Er1 Fe12 3.117212 1_555
Er1 Fe9 3.117212 1_555
Er1 Fe14 3.234865 1_655
Er1 Fe5 3.234865 1_555
Er1 Fe15 3.237113 1_664
Er1 Fe6 3.237113 1_564
Er1 Fe13 3.237118 1_654
Er1 Fe4 3.237118 1_554
Er2 Fe30 2.932255 1_565
Er2 Fe31 2.932260 1_555
Er2 Fe33 2.934212 1_565
Er2 Fe29 2.934220 1_555
Er2 Fe28 2.934383 1_564
Er2 Fe32 2.934387 1_564
Er2 Fe5 3.113795 1_555
Er2 Fe14 3.113795 1_555
Er2 Fe15 3.115988 1_564
Er2 Fe6 3.115988 1_564
Er2 Fe13 3.115993 1_554
Er2 Fe4 3.115993 1_554
Er2 Fe7 3.254503 1_565
Er2 Fe10 3.254503 1_465
Er2 Fe12 3.254508 1_455
Er2 Fe9 3.254508 1_555
Er2 Fe8 3.255485 1_564
Er2 Fe11 3.255485 1_464
Fe0 Fe3 2.336838 1_555
Fe0 Fe17 2.600825 1_556
Fe0 Fe18 2.601059 1_565
Fe0 Fe16 2.601059 1_555
Fe0 Fe5 2.648457 1_555
Fe0 Fe4 2.649244 1_555
Fe0 Fe6 2.649244 1_555
Fe0 Fe26 2.796639 1_555
Fe0 Fe22 2.796639 1_555
Fe0 Fe23 2.797265 1_555
Fe0 Fe27 2.797265 1_555
Fe0 Fe25 2.797479 1_555
Fe0 Fe24 2.797479 1_555
Fe0 Sm0 2.963424 1_555
Fe1 Fe2 2.354060 1_555
Fe1 Fe17 2.583892 1_555
Fe1 Fe18 2.584402 1_555
Fe1 Fe16 2.584402 1_555
Fe1 Fe8 2.638146 1_555
Fe1 Fe7 2.638721 1_555
Fe1 Fe9 2.638721 1_555
Fe1 Fe32 2.787310 1_555
Fe1 Fe28 2.787310 1_555
Fe1 Fe33 2.787689 1_555
Fe1 Fe29 2.787689 1_555
Fe1 Fe30 2.788942 1_555
Fe1 Fe31 2.788942 1_555
Fe2 Fe20 2.583892 1_455
Fe2 Fe21 2.584402 1_455
Fe2 Fe32 2.787310 1_555
Fe2 Fe28 2.787310 1_555
Fe2 Fe33 2.787689 1_555
Fe2 Fe29 2.787689 1_555
Fe2 Fe30 2.788942 1_555
Fe2 Fe31 2.788942 1_555
Fe3 Sm0 2.963424 1_655
Fe4 Fe9 2.425445 1_556
Fe4 Fe8 2.425954 1_565
Fe4 Sm0 3.151159 1_555
Fe5 Fe9 2.425783 1_555
Fe5 Fe7 2.425791 1_565
Fe5 Sm0 3.150271 1_555
Fe6 Fe7 2.425445 1_556
Fe6 Fe8 2.425961 1_555
Fe6 Sm0 3.151153 1_555
Fe10 Fe15 2.425445 1_654
Fe10 Fe14 2.425791 1_645
Fe10 Fe21 2.435187 1_555
Fe10 Fe20 2.436108 1_555
Fe10 Fe33 2.508825 1_655
Fe10 Fe30 2.508948 1_655
Fe10 Fe23 2.577625 1_554
Fe10 Fe26 2.577686 1_545
Fe10 Fe2 2.638721 1_655
Fe11 Fe13 2.425954 1_645
Fe11 Fe15 2.425961 1_655
Fe11 Fe21 2.436313 1_555
Fe11 Fe19 2.436321 1_555
Fe11 Fe32 2.509478 1_655
Fe11 Fe28 2.509483 1_655
Fe11 Fe24 2.577711 1_545
Fe11 Fe25 2.577716 1_555
Fe11 Fe2 2.638146 1_655
Fe12 Fe13 2.425445 1_654
Fe12 Fe14 2.425783 1_655
Fe12 Fe19 2.435187 1_555
Fe12 Fe20 2.436101 1_555
Fe12 Fe29 2.508825 1_655
Fe12 Fe31 2.508948 1_655
Fe12 Fe27 2.577625 1_554
Fe12 Fe22 2.577686 1_555
Fe12 Fe2 2.638721 1_655
Fe13 Fe21 2.451797 1_465
Fe13 Fe20 2.452674 1_456
Fe13 Fe24 2.505056 1_455
Fe13 Fe27 2.505350 1_455
Fe13 Fe32 2.596685 1_565
Fe13 Fe29 2.596786 1_556
Fe13 Fe3 2.649244 1_455
Fe13 Sm0 3.151159 1_555
Fe14 Fe19 2.452752 1_455
Fe14 Fe21 2.452759 1_465
Fe14 Fe22 2.505066 1_455
Fe14 Fe26 2.505070 1_455
Fe14 Fe31 2.596876 1_555
Fe14 Fe30 2.596881 1_565
Fe14 Fe3 2.648457 1_455
Fe14 Sm0 3.150271 1_555
Fe15 Fe19 2.451797 1_455
Fe15 Fe20 2.452681 1_456
Fe15 Fe25 2.505056 1_455
Fe15 Fe23 2.505350 1_455
Fe15 Fe28 2.596685 1_555
Fe15 Fe33 2.596786 1_556
Fe15 Fe3 2.649244 1_455
Fe15 Sm0 3.151153 1_555
Fe16 Fe9 2.435187 1_555
Fe16 Fe8 2.436321 1_555
Fe16 Fe25 2.444970 1_555
Fe16 Fe22 2.445017 1_555
Fe16 Fe6 2.451797 1_555
Fe16 Fe5 2.452752 1_555
Fe16 Fe31 2.456634 1_555
Fe16 Fe28 2.456837 1_555
Fe16 Sm0 3.204658 1_555
Fe17 Fe9 2.436101 1_555
Fe17 Fe7 2.436108 1_555
Fe17 Fe27 2.445277 1_554
Fe17 Fe23 2.445281 1_554
Fe17 Fe4 2.452674 1_554
Fe17 Fe6 2.452681 1_554
Fe17 Fe29 2.456827 1_555
Fe17 Fe33 2.456832 1_555
Fe17 Sm0 3.204932 1_554
Fe18 Fe7 2.435187 1_555
Fe18 Fe8 2.436313 1_555
Fe18 Fe24 2.444970 1_545
Fe18 Fe26 2.445017 1_545
Fe18 Fe4 2.451797 1_545
Fe18 Fe5 2.452759 1_545
Fe18 Fe30 2.456634 1_555
Fe18 Fe32 2.456837 1_555
Fe18 Sm0 3.204663 1_545
Fe19 Fe25 2.444970 1_555
Fe19 Fe22 2.445017 1_555
Fe19 Fe31 2.456634 1_655
Fe19 Fe28 2.456837 1_655
Fe19 Fe2 2.584402 1_655
Fe19 Fe3 2.601059 1_555
Fe19 Sm0 3.204658 1_655
Fe20 Fe27 2.445277 1_554
Fe20 Fe23 2.445281 1_554
Fe20 Fe29 2.456827 1_655
Fe20 Fe33 2.456832 1_655
Fe20 Fe3 2.600825 1_554
Fe20 Sm0 3.204932 1_654
Fe21 Fe24 2.444970 1_545
Fe21 Fe26 2.445017 1_545
Fe21 Fe30 2.456634 1_655
Fe21 Fe32 2.456837 1_655
Fe21 Fe3 2.601059 1_545
Fe21 Sm0 3.204663 1_645
Fe22 Fe26 2.494977 1_555
Fe22 Fe5 2.505066 1_555
Fe22 Fe9 2.577686 1_555
Fe22 Fe25 2.587697 1_555
Fe22 Fe3 2.796639 1_555
Fe23 Fe25 2.494335 1_555
Fe23 Fe6 2.505350 1_555
Fe23 Fe7 2.577625 1_556
Fe23 Fe27 2.588508 1_555
Fe23 Fe3 2.797265 1_555
Fe24 Fe27 2.494335 1_555
Fe24 Fe4 2.505056 1_555
Fe24 Fe8 2.577711 1_565
Fe24 Fe26 2.587697 1_555
Fe24 Fe3 2.797479 1_555
Fe25 Fe6 2.505056 1_555
Fe25 Fe8 2.577716 1_555
Fe25 Fe3 2.797479 1_555
Fe26 Fe5 2.505070 1_555
Fe26 Fe7 2.577686 1_565
Fe26 Fe3 2.796639 1_555
Fe27 Fe4 2.505350 1_555
Fe27 Fe9 2.577625 1_556
Fe27 Fe3 2.797265 1_555
Fe28 Fe32 2.466735 1_555
Fe28 Fe8 2.509483 1_555
Fe28 Fe31 2.587339 1_555
Fe28 Fe6 2.596685 1_555
Fe28 Sm0 2.991780 1_555
Fe29 Fe31 2.466587 1_555
Fe29 Fe9 2.508825 1_555
Fe29 Fe33 2.587993 1_555
Fe29 Fe4 2.596786 1_554
Fe29 Sm0 2.991508 1_554
Fe30 Fe33 2.466587 1_555
Fe30 Fe7 2.508948 1_555
Fe30 Fe32 2.587339 1_555
Fe30 Fe5 2.596881 1_545
Fe30 Sm0 2.989650 1_545
Fe31 Fe9 2.508948 1_555
Fe31 Fe5 2.596876 1_555
Fe31 Sm0 2.989645 1_555
Fe32 Fe8 2.509478 1_555
Fe32 Fe4 2.596685 1_545
Fe32 Sm0 2.991789 1_545
Fe33 Fe7 2.508825 1_555
Fe33 Fe6 2.596786 1_554
Fe33 Sm0 2.991505 1_554
