# generated using pymatgen
data_Nd2Mn22C3
_symmetry_space_group_name_H-M   'P 1'
_cell_length_a   6.45103909
_cell_length_b   7.71663286
_cell_length_c   7.75354351
_cell_angle_alpha   99.12299530
_cell_angle_beta   114.94284062
_cell_angle_gamma   65.65309227
_symmetry_Int_Tables_number   1
_chemical_formula_structural   Nd2Mn22C3
_chemical_formula_sum   'Nd2 Mn22 C3'
_cell_volume   318.79432124
_cell_formula_units_Z   1
loop_
 _symmetry_equiv_pos_site_id
 _symmetry_equiv_pos_as_xyz
  1  'x, y, z'
loop_
 _atom_site_type_symbol
 _atom_site_label
 _atom_site_symmetry_multiplicity
 _atom_site_fract_x
 _atom_site_fract_y
 _atom_site_fract_z
 _atom_site_occupancy
  Nd  Nd0  1  0.37480400  0.74836200  0.24836200  1
  Nd  Nd1  1  0.62519600  0.25163800  0.75163800  1
  Mn  Mn0  1  0.00000000  0.50000000  0.00000000  1
  Mn  Mn1  1  0.00000000  0.50000000  0.50000000  1
  Mn  Mn2  1  0.50000000  0.00000000  0.00000000  1
  Mn  Mn3  1  0.00000000  0.00000000  0.50000000  1
  Mn  Mn4  1  0.13035900  0.24970900  0.74970900  1
  Mn  Mn5  1  0.86964100  0.75029100  0.25029100  1
  Mn  Mn6  1  0.17623800  0.17768500  0.41776100  1
  Mn  Mn7  1  0.43616200  0.91776100  0.67768500  1
  Mn  Mn8  1  0.85332100  0.82283400  0.92070600  1
  Mn  Mn9  1  0.25544900  0.42070600  0.32283400  1
  Mn  Mn10  1  0.18617700  0.57475500  0.82866800  1
  Mn  Mn11  1  0.43226400  0.32866800  0.07475500  1
  Mn  Mn12  1  0.84940700  0.08783800  0.17255200  1
  Mn  Mn13  1  0.26469300  0.67255200  0.58783800  1
  Mn  Mn14  1  0.82376200  0.82231500  0.58223900  1
  Mn  Mn15  1  0.56383800  0.08223900  0.32231500  1
  Mn  Mn16  1  0.14667900  0.17716600  0.07929400  1
  Mn  Mn17  1  0.74455100  0.57929400  0.67716600  1
  Mn  Mn18  1  0.81382300  0.42524500  0.17133200  1
  Mn  Mn19  1  0.56773600  0.67133200  0.92524500  1
  Mn  Mn20  1  0.15059300  0.91216200  0.82744800  1
  Mn  Mn21  1  0.73530700  0.32744800  0.41216200  1
  C  C0  1  0.50000000  0.50000000  0.50000000  1
  C  C1  1  0.00000000  0.00000000  0.00000000  1
  C  C2  1  0.50000000  0.00000000  0.50000000  1
loop_
_geom_bond_atom_site_label_1
_geom_bond_atom_site_label_2
_geom_bond_distance
_geom_bond_site_symmetry_2
Mn0 Mn16 2.351766 1_555
Mn0 Mn9 2.351766 1_555
Mn0 Mn8 2.351766 1_454
Mn0 Mn17 2.351766 1_454
Mn0 Mn18 2.387449 1_455
Mn0 Mn10 2.387449 1_554
Mn0 Mn19 2.387449 1_454
Mn0 Mn11 2.387449 1_555
Mn0 Mn5 2.655616 1_455
Mn0 Mn4 2.655616 1_554
Mn1 Mn14 2.379554 1_455
Mn1 Mn6 2.379554 1_555
Mn1 Mn13 2.399736 1_555
Mn1 Mn21 2.399736 1_455
Mn1 Mn17 2.405887 1_455
Mn1 Mn9 2.405887 1_555
Mn1 Mn10 2.406855 1_555
Mn1 Mn18 2.406855 1_455
Mn1 Mn5 2.580594 1_455
Mn1 Mn4 2.580594 1_555
Mn2 Mn7 2.379554 1_544
Mn2 Mn20 2.399736 1_544
Mn2 Mn8 2.405887 1_544
Mn2 Mn4 2.580594 1_554
Mn2 Mn5 2.580594 1_545
Mn3 Mn6 2.398577 1_555
Mn3 Mn7 2.398577 1_545
Mn3 Mn4 2.636012 1_555
Mn3 Mn5 2.636012 1_445
Mn4 Mn6 2.659707 1_555
Mn4 Mn7 2.659707 1_545
Mn4 Nd1 3.192101 1_555
Mn4 Nd1 3.259054 1_455
Mn5 Mn9 2.651961 1_655
Mn5 Mn8 2.651961 1_554
Mn5 Nd0 3.192101 1_555
Mn5 Nd0 3.259054 1_655
Mn10 Mn13 2.423338 1_555
Mn10 Mn11 2.423938 1_556
Mn10 Mn8 2.500926 1_455
Mn10 Mn20 2.518916 1_555
Mn10 Mn14 2.544287 1_455
Mn10 Mn17 2.570166 1_455
Mn10 Mn4 2.620620 1_555
Mn10 Mn19 2.637388 1_555
Mn10 Nd1 3.118752 1_555
Mn10 Nd0 3.238301 1_556
Mn11 Mn2 2.406855 1_555
Mn11 Mn12 2.423338 1_555
Mn11 Mn9 2.500926 1_555
Mn11 Mn21 2.518916 1_555
Mn11 Mn15 2.544287 1_555
Mn11 Mn16 2.570166 1_555
Mn11 Mn4 2.620620 1_554
Mn11 Mn18 2.637388 1_555
Mn11 Nd1 3.118752 1_554
Mn11 Nd0 3.238301 1_555
Mn12 Mn2 2.399736 1_555
Mn12 Mn3 2.402418 1_655
Mn12 Mn18 2.518916 1_555
Mn12 Mn5 2.704832 1_545
Mn13 Mn3 2.402418 1_565
Mn13 Mn19 2.518916 1_555
Mn13 Mn5 2.704832 1_455
Mn14 Mn3 2.398577 1_665
Mn14 Mn5 2.659707 1_555
Mn15 Mn2 2.379554 1_555
Mn15 Mn3 2.398577 1_655
Mn15 Mn5 2.659707 1_545
Mn16 Mn2 2.405887 1_555
Mn16 Mn18 2.500926 1_455
Mn16 Mn4 2.651961 1_554
Mn17 Mn19 2.500926 1_555
Mn17 Mn4 2.651961 1_655
Mn18 Mn21 2.423338 1_555
Mn18 Mn19 2.423938 1_554
Mn18 Mn6 2.544287 1_655
Mn18 Mn9 2.570166 1_655
Mn18 Mn5 2.620620 1_555
Mn18 Nd0 3.118752 1_555
Mn18 Nd1 3.238301 1_554
Mn19 Mn2 2.406855 1_566
Mn19 Mn20 2.423338 1_555
Mn19 Mn7 2.544287 1_555
Mn19 Mn8 2.570166 1_555
Mn19 Mn5 2.620620 1_556
Mn19 Nd0 3.118752 1_556
Mn19 Nd1 3.238301 1_555
Mn20 Mn3 2.402418 1_565
Mn20 Mn4 2.704832 1_565
Mn21 Mn3 2.402418 1_655
Mn21 Mn4 2.704832 1_655
C0 Mn17 1.857899 1_555
C0 Mn9 1.857899 1_555
C0 Mn13 1.859809 1_555
C0 Mn21 1.859809 1_555
C0 Nd1 2.590854 1_555
C0 Nd0 2.590854 1_555
C1 Mn16 1.857899 1_555
C1 Mn8 1.857899 1_444
C1 Mn12 1.859809 1_455
C1 Mn20 1.859809 1_544
C1 Nd0 2.590854 1_545
C1 Nd1 2.590854 1_454
C2 Mn6 1.855157 1_555
C2 Mn14 1.855157 1_545
C2 Mn15 1.855157 1_555
C2 Mn7 1.855157 1_545
C2 Nd1 2.644282 1_555
C2 Nd0 2.644282 1_545
