# generated using pymatgen
data_Te3MoWS
_symmetry_space_group_name_H-M   'P 1'
_cell_length_a   3.45063289
_cell_length_b   3.45063289
_cell_length_c   39.33342600
_cell_angle_alpha   90.00000000
_cell_angle_beta   90.00000000
_cell_angle_gamma   120.00001708
_symmetry_Int_Tables_number   1
_chemical_formula_structural   Te3MoWS
_chemical_formula_sum   'Te6 Mo2 W2 S2'
_cell_volume   405.59243679
_cell_formula_units_Z   2
loop_
 _symmetry_equiv_pos_site_id
 _symmetry_equiv_pos_as_xyz
  1  'x, y, z'
loop_
 _atom_site_type_symbol
 _atom_site_label
 _atom_site_symmetry_multiplicity
 _atom_site_fract_x
 _atom_site_fract_y
 _atom_site_fract_z
 _atom_site_occupancy
  Te  Te0  1  0.00000000  0.00000000  0.32890300  1
  Te  Te1  1  0.00000000  0.00000000  0.70485000  1
  Te  Te2  1  0.33333300  0.66666700  0.04680800  1
  Te  Te3  1  0.33333300  0.66666700  0.14092000  1
  Te  Te4  1  0.00000000  0.00000000  0.23479200  1
  Te  Te5  1  0.00000000  0.00000000  0.61022100  1
  Mo  Mo0  1  0.00000000  0.00000000  0.09384900  1
  Mo  Mo1  1  0.33333300  0.66666700  0.28192000  1
  W  W0  1  0.00000000  0.00000000  0.46966900  1
  W  W1  1  0.33333300  0.66666700  0.65751900  1
  S  S0  1  0.33333300  0.66666700  0.43171500  1
  S  S1  1  0.33333300  0.66666700  0.50758500  1
loop_
_geom_bond_atom_site_label_1
_geom_bond_atom_site_label_2
_geom_bond_distance
_geom_bond_site_symmetry_2
Te1 W1 2.726690 1_545
Te1 W1 2.726692 1_445
Te1 W1 2.726692 1_555
Te5 W1 2.725804 1_545
Te5 W1 2.725806 1_555
Te5 W1 2.725806 1_445
Mo0 Te2 2.718915 1_545
Mo0 Te2 2.718917 1_555
Mo0 Te2 2.718917 1_445
Mo0 Te3 2.719718 1_545
Mo0 Te3 2.719720 1_445
Mo0 Te3 2.719720 1_555
Mo1 Te0 2.717363 1_565
Mo1 Te0 2.717365 1_555
Mo1 Te0 2.717365 1_665
Mo1 Te4 2.721245 1_565
Mo1 Te4 2.721247 1_555
Mo1 Te4 2.721247 1_665
S0 W0 2.489494 1_565
S0 W0 2.489496 1_555
S0 W0 2.489496 1_665
S1 W0 2.488598 1_565
S1 W0 2.488600 1_555
S1 W0 2.488600 1_665
