# generated using pymatgen
data_LuFe4(CuO4)3
_symmetry_space_group_name_H-M   'P 1'
_cell_length_a   6.44067423
_cell_length_b   6.44067423
_cell_length_c   6.44067423
_cell_angle_alpha   109.47122063
_cell_angle_beta   109.47122063
_cell_angle_gamma   109.47122063
_symmetry_Int_Tables_number   1
_chemical_formula_structural   LuFe4(CuO4)3
_chemical_formula_sum   'Lu1 Fe4 Cu3 O12'
_cell_volume   205.67054943
_cell_formula_units_Z   1
loop_
 _symmetry_equiv_pos_site_id
 _symmetry_equiv_pos_as_xyz
  1  'x, y, z'
loop_
 _atom_site_type_symbol
 _atom_site_label
 _atom_site_symmetry_multiplicity
 _atom_site_fract_x
 _atom_site_fract_y
 _atom_site_fract_z
 _atom_site_occupancy
  Lu  Lu0  1  0.00000000  0.00000000  0.00000000  1
  Fe  Fe0  1  0.00000000  0.00000000  0.50000000  1
  Fe  Fe1  1  0.50000000  0.00000000  0.00000000  1
  Fe  Fe2  1  0.00000000  0.50000000  0.00000000  1
  Fe  Fe3  1  0.50000000  0.50000000  0.50000000  1
  Cu  Cu0  1  0.50000000  0.00000000  0.50000000  1
  Cu  Cu1  1  0.00000000  0.50000000  0.50000000  1
  Cu  Cu2  1  0.50000000  0.50000000  0.00000000  1
  O  O0  1  0.30598100  0.14156900  0.83558900  1
  O  O1  1  0.69401900  0.85843100  0.16441100  1
  O  O2  1  0.69401900  0.52960800  0.83558900  1
  O  O3  1  0.30598100  0.47039200  0.16441100  1
  O  O4  1  0.14156900  0.83558900  0.30598100  1
  O  O5  1  0.85843100  0.16441100  0.69401900  1
  O  O6  1  0.52960800  0.83558900  0.69401900  1
  O  O7  1  0.47039200  0.16441100  0.30598100  1
  O  O8  1  0.83558900  0.30598100  0.14156900  1
  O  O9  1  0.16441100  0.69401900  0.85843100  1
  O  O10  1  0.83558900  0.69401900  0.52960800  1
  O  O11  1  0.16441100  0.30598100  0.47039200  1
loop_
_geom_bond_atom_site_label_1
_geom_bond_atom_site_label_2
_geom_bond_distance
_geom_bond_site_symmetry_2
Lu0 O8 2.583293 1_455
Lu0 O4 2.583293 1_545
Lu0 O0 2.583293 1_554
Lu0 O5 2.583293 1_454
Lu0 O9 2.583293 1_544
Lu0 O1 2.583293 1_445
Lu0 O11 2.583295 1_555
Lu0 O7 2.583295 1_555
Lu0 O3 2.583295 1_555
Lu0 O2 2.583295 1_444
Lu0 O6 2.583295 1_444
Lu0 O10 2.583295 1_444
Fe0 O5 2.008815 1_455
Fe0 O4 2.008815 1_545
Fe0 O11 2.008821 1_555
Fe0 O10 2.008821 1_445
Fe0 O0 2.008822 1_555
Fe0 O1 2.008822 1_445
Fe1 O1 2.008815 1_545
Fe1 O0 2.008815 1_554
Fe1 O7 2.008821 1_555
Fe1 O6 2.008821 1_544
Fe1 O8 2.008822 1_555
Fe1 O9 2.008822 1_544
Fe2 O9 2.008815 1_554
Fe2 O8 2.008815 1_455
Fe2 O3 2.008821 1_555
Fe2 O2 2.008821 1_454
Fe2 O4 2.008822 1_555
Fe2 O5 2.008822 1_454
Fe3 O10 2.008821 1_555
Fe3 O6 2.008821 1_555
Fe3 O2 2.008821 1_555
Fe3 O3 2.008821 1_555
Fe3 O7 2.008821 1_555
Fe3 O11 2.008821 1_555
Cu0 O7 1.891327 1_555
Cu0 O6 1.891327 1_545
Cu0 O5 1.891333 1_555
Cu0 O4 1.891333 1_545
Cu1 O11 1.891327 1_555
Cu1 O10 1.891327 1_455
Cu1 O9 1.891333 1_555
Cu1 O8 1.891333 1_455
Cu2 O2 1.891327 1_554
Cu2 O3 1.891327 1_555
Cu2 O1 1.891333 1_555
Cu2 O0 1.891333 1_554
