# generated using pymatgen
data_Li4MnCo2O7
_symmetry_space_group_name_H-M   'P 1'
_cell_length_a   2.97162800
_cell_length_b   8.08711663
_cell_length_c   10.65642616
_cell_angle_alpha   78.33317376
_cell_angle_beta   85.81616478
_cell_angle_gamma   88.99517199
_symmetry_Int_Tables_number   1
_chemical_formula_structural   Li4MnCo2O7
_chemical_formula_sum   'Li8 Mn2 Co4 O14'
_cell_volume   250.13391916
_cell_formula_units_Z   2
loop_
 _symmetry_equiv_pos_site_id
 _symmetry_equiv_pos_as_xyz
  1  'x, y, z'
loop_
 _atom_site_type_symbol
 _atom_site_label
 _atom_site_symmetry_multiplicity
 _atom_site_fract_x
 _atom_site_fract_y
 _atom_site_fract_z
 _atom_site_occupancy
  Li  Li0  1  0.15008900  0.07636900  0.71305900  1
  Li  Li1  1  0.86328000  0.92832500  0.28166200  1
  Li  Li2  1  0.56341200  0.77471500  0.85705600  1
  Li  Li3  1  0.71082900  0.36720800  0.57511600  1
  Li  Li4  1  0.43089500  0.21851400  0.14358700  1
  Li  Li5  1  0.27241300  0.63626700  0.43623900  1
  Li  Li6  1  0.00533200  0.49666000  0.00031300  1
  Li  Li7  1  0.15841300  0.56873600  0.70602200  1
  Mn  Mn0  1  0.00410200  0.00086800  0.99981800  1
  Mn  Mn1  1  0.70733300  0.84998300  0.57442800  1
  Co  Co0  1  0.42343100  0.71211900  0.14378300  1
  Co  Co1  1  0.85437000  0.42839500  0.28679400  1
  Co  Co2  1  0.58559500  0.29845300  0.85082400  1
  Co  Co3  1  0.27167200  0.14495600  0.43035500  1
  O  O0  1  0.59960900  0.05339500  0.86072000  1
  O  O1  1  0.24791700  0.89970600  0.44504600  1
  O  O2  1  0.02801200  0.75630600  0.00293600  1
  O  O3  1  0.16798700  0.31877600  0.72566000  1
  O  O4  1  0.87794500  0.18710300  0.29304800  1
  O  O5  1  0.72280600  0.62503100  0.56800600  1
  O  O6  1  0.45231300  0.47362800  0.15135600  1
  O  O7  1  0.68508000  0.10043800  0.56157100  1
  O  O8  1  0.40187800  0.95178100  0.14256400  1
  O  O9  1  0.17386300  0.82650800  0.69647000  1
  O  O10  1  0.26371200  0.38392300  0.42084700  1
  O  O11  1  0.98001600  0.24224400  0.99531800  1
  O  O12  1  0.83244300  0.66884200  0.27675500  1
  O  O13  1  0.56525300  0.51074700  0.86064700  1
loop_
_geom_bond_atom_site_label_1
_geom_bond_atom_site_label_2
_geom_bond_distance
_geom_bond_site_symmetry_2
Li0 O3 1.993763 1_555
Li0 O9 2.063233 1_545
Li0 O0 2.115344 1_555
Li0 O7 2.163482 1_555
Li0 O0 2.168707 1_455
Li0 O7 2.177695 1_455
Li1 O8 2.070465 1_555
Li1 O8 2.084601 1_655
Li1 O12 2.113416 1_555
Li1 O4 2.122019 1_565
Li1 O1 2.123565 1_655
Li1 O1 2.411670 1_555
Li2 O9 2.103823 1_555
Li2 O2 2.126957 1_556
Li2 O13 2.127250 1_555
Li2 O2 2.134779 1_656
Li2 O0 2.266504 1_565
Li2 O9 2.382941 1_655
Li3 O5 2.071892 1_555
Li3 O3 2.148908 1_655
Li3 O10 2.169967 1_555
Li3 O3 2.172477 1_555
Li3 O7 2.194176 1_555
Li3 O10 2.223510 1_655
Li4 O6 2.083721 1_555
Li4 O4 2.121173 1_555
Li4 O11 2.122666 1_454
Li4 O8 2.162593 1_545
Li4 O11 2.169827 1_554
Li4 O4 2.184125 1_455
Li5 O5 1.997399 1_555
Li5 O5 2.065513 1_455
Li5 O10 2.080870 1_555
Li5 O1 2.151140 1_555
Li5 O12 2.190486 1_455
Li5 O12 2.269134 1_555
Li6 O13 2.036799 1_454
Li6 O11 2.071732 1_454
Li6 O2 2.107939 1_555
Li6 O6 2.138163 1_555
Li6 O13 2.138540 1_554
Li6 O6 2.197638 1_455
Li7 O3 1.989635 1_555
Li7 O5 2.008070 1_455
Li7 O9 2.067611 1_555
Li7 O13 2.086839 1_555
Li7 O5 2.139936 1_555
Li7 O13 2.309679 1_455
Mn0 O11 1.943092 1_455
Mn0 O0 1.951882 1_455
Mn0 O8 1.967340 1_546
Mn0 O2 1.971469 1_546
Mn0 O0 2.213178 1_555
Mn0 O8 2.248915 1_446
Mn1 O5 1.833928 1_555
Mn1 O9 1.950229 1_655
Mn1 O9 1.962240 1_555
Mn1 O1 1.989378 1_555
Mn1 O7 2.002503 1_565
Mn1 O1 2.029401 1_655
Co0 O12 1.908790 1_555
Co0 O6 1.914689 1_555
Co0 O8 1.935556 1_555
Co0 O2 1.945991 1_555
Co0 O12 2.161595 1_455
Co0 O2 2.240612 1_655
Co1 O6 1.914967 1_555
Co1 O10 1.918361 1_655
Co1 O12 1.925954 1_555
Co1 O4 1.939183 1_555
Co1 O10 2.167789 1_555
Co1 O6 2.192989 1_655
Co2 O13 1.740774 1_555
Co2 O3 1.868626 1_555
Co2 O0 1.963073 1_555
Co2 O11 1.978106 1_555
Co2 O3 2.094204 1_655
Co2 O11 2.270963 1_455
Co3 O7 1.904094 1_555
Co3 O4 1.913156 1_455
Co3 O10 1.914457 1_555
Co3 O1 1.959834 1_545
Co3 O7 2.141521 1_455
Co3 O4 2.222194 1_555
