# generated using pymatgen
data_Cs2Fe2P3O8F7
_symmetry_space_group_name_H-M   'P 1'
_cell_length_a   8.33778321
_cell_length_b   8.33778321
_cell_length_c   11.96887000
_cell_angle_alpha   90.00000000
_cell_angle_beta   90.00000000
_cell_angle_gamma   118.94144936
_symmetry_Int_Tables_number   1
_chemical_formula_structural   Cs2Fe2P3O8F7
_chemical_formula_sum   'Cs4 Fe4 P6 O16 F14'
_cell_volume   728.14742209
_cell_formula_units_Z   2
loop_
 _symmetry_equiv_pos_site_id
 _symmetry_equiv_pos_as_xyz
  1  'x, y, z'
loop_
 _atom_site_type_symbol
 _atom_site_label
 _atom_site_symmetry_multiplicity
 _atom_site_fract_x
 _atom_site_fract_y
 _atom_site_fract_z
 _atom_site_occupancy
  Cs  Cs0  1  0.96003300  0.30726300  0.65747400  1
  Cs  Cs1  1  0.69273700  0.03996800  0.34252600  1
  Cs  Cs2  1  0.46003200  0.80726300  0.84252600  1
  Cs  Cs3  1  0.19273700  0.53996800  0.15747400  1
  Fe  Fe0  1  0.80574500  0.76746800  0.56695900  1
  Fe  Fe1  1  0.23253200  0.19425500  0.43304100  1
  Fe  Fe2  1  0.30574500  0.26746800  0.93304100  1
  Fe  Fe3  1  0.73253200  0.69425500  0.06695900  1
  P  P0  1  0.20495300  0.79504700  0.50000000  1
  P  P1  1  0.70495300  0.29504700  0.00000000  1
  P  P2  1  0.47910100  0.35967800  0.66918300  1
  P  P3  1  0.64032200  0.52089900  0.33081700  1
  P  P4  1  0.97910100  0.85967800  0.83081700  1
  P  P5  1  0.14032200  0.02089900  0.16918300  1
  O  O0  1  0.32207200  0.30280900  0.58653400  1
  O  O1  1  0.69719100  0.67792800  0.41346600  1
  O  O2  1  0.82207200  0.80280900  0.91346600  1
  O  O3  1  0.19719100  0.17792800  0.08653400  1
  O  O4  1  0.66215900  0.51805100  0.63222300  1
  O  O5  1  0.48194900  0.33784100  0.36777700  1
  O  O6  1  0.16215900  0.01805100  0.86777700  1
  O  O7  1  0.98194900  0.83784100  0.13222300  1
  O  O8  1  0.92670000  0.88357300  0.71312600  1
  O  O9  1  0.11642700  0.07330000  0.28687400  1
  O  O10  1  0.42670000  0.38357300  0.78687400  1
  O  O11  1  0.61642700  0.57330000  0.21312600  1
  O  O12  1  0.00523500  0.69272000  0.52563300  1
  O  O13  1  0.30728000  0.99476500  0.47436700  1
  O  O14  1  0.50523500  0.19272000  0.97436700  1
  O  O15  1  0.80728000  0.49476500  0.02563300  1
  F  F0  1  0.65359300  0.87456600  0.58843200  1
  F  F1  1  0.12543400  0.34640700  0.41156800  1
  F  F2  1  0.15359300  0.37456600  0.91156800  1
  F  F3  1  0.62543400  0.84640700  0.08843200  1
  F  F4  1  0.52138600  0.19091500  0.67701300  1
  F  F5  1  0.80908500  0.47861400  0.32298700  1
  F  F6  1  0.02138600  0.69091500  0.82298700  1
  F  F7  1  0.30908500  0.97861400  0.17701300  1
  F  F8  1  0.98542000  0.01458000  0.50000000  1
  F  F9  1  0.48542000  0.51458000  0.00000000  1
  F  F10  1  0.30158400  0.74856000  0.59801100  1
  F  F11  1  0.25144000  0.69841600  0.40198900  1
  F  F12  1  0.80158400  0.24856000  0.90198900  1
  F  F13  1  0.75144000  0.19841600  0.09801100  1
loop_
_geom_bond_atom_site_label_1
_geom_bond_atom_site_label_2
_geom_bond_distance
_geom_bond_site_symmetry_2
Cs0 F12 3.150220 1_555
Cs0 O0 3.153214 1_655
Cs0 F8 3.170544 1_555
Cs0 F1 3.199263 1_655
Cs0 F4 3.307282 1_555
Cs0 F2 3.360351 1_655
Cs0 F0 3.362357 1_545
Cs0 O12 3.433464 1_655
Cs0 F10 3.466047 1_655
Cs0 O8 3.471342 1_545
Cs0 F6 3.582558 1_655
Cs0 O4 3.684157 1_555
Cs1 F13 3.150217 1_555
Cs1 O1 3.153222 1_545
Cs1 F8 3.170548 1_555
Cs1 F0 3.199266 1_545
Cs1 F5 3.307274 1_555
Cs1 F3 3.360354 1_545
Cs1 F1 3.362355 1_655
Cs1 O13 3.433461 1_545
Cs1 F11 3.466049 1_545
Cs1 O9 3.471345 1_655
Cs1 F7 3.582555 1_545
Cs1 O5 3.684150 1_555
Cs2 F10 3.150217 1_555
Cs2 O2 3.153222 1_555
Cs2 F9 3.170548 1_556
Cs2 F3 3.199266 1_556
Cs2 F6 3.307274 1_555
Cs2 F0 3.360354 1_555
Cs2 F2 3.362355 1_555
Cs2 O14 3.433461 1_565
Cs2 F12 3.466049 1_565
Cs2 O10 3.471345 1_555
Cs2 F4 3.582555 1_565
Cs2 O6 3.684150 1_565
Cs3 F11 3.150217 1_555
Cs3 O3 3.153222 1_555
Cs3 F9 3.170548 1_555
Cs3 F2 3.199266 1_554
Cs3 F7 3.307274 1_555
Cs3 F1 3.360354 1_555
Cs3 F3 3.362355 1_555
Cs3 O15 3.433461 1_455
Cs3 F13 3.466049 1_455
Cs3 O11 3.471345 1_555
Cs3 F5 3.582555 1_455
Cs3 O7 3.684150 1_455
Fe0 O4 1.989608 1_555
Fe0 O8 2.017403 1_555
Fe0 O1 2.024268 1_555
Fe0 O12 2.098317 1_655
Fe1 O5 1.989608 1_555
Fe1 O9 2.017403 1_555
Fe1 O0 2.024268 1_555
Fe1 O13 2.098317 1_545
Fe2 O6 1.989608 1_555
Fe2 O10 2.017403 1_555
Fe2 O3 2.024268 1_556
Fe2 O14 2.098317 1_555
Fe3 O7 1.989608 1_555
Fe3 O11 2.017403 1_555
Fe3 O2 2.024268 1_554
Fe3 O15 2.098317 1_555
O0 P2 1.522083 1_555
O1 P3 1.522083 1_555
O2 P4 1.522083 1_555
O3 P5 1.522083 1_555
O4 P2 1.522607 1_555
O5 P3 1.522607 1_555
O6 P4 1.522607 1_445
O7 P5 1.522607 1_665
O8 P4 1.516266 1_555
O9 P5 1.516266 1_555
O10 P2 1.516266 1_555
O11 P3 1.516266 1_555
O12 P0 1.489944 1_555
O13 P0 1.489944 1_555
O14 P1 1.489944 1_556
O15 P1 1.489944 1_555
F0 Fe0 1.889227 1_555
F1 Fe1 1.889227 1_555
F2 Fe2 1.889227 1_555
F3 Fe3 1.889227 1_555
F4 P2 1.610334 1_555
F5 P3 1.610334 1_555
F6 P4 1.610334 1_455
F7 P5 1.610334 1_565
F8 Fe0 2.035766 1_545
F8 Fe1 2.035766 1_655
F9 Fe3 2.035766 1_555
F9 Fe2 2.035766 1_554
F10 P0 1.574078 1_555
F11 P0 1.574078 1_555
F12 P1 1.574078 1_556
F13 P1 1.574078 1_555
