# generated using pymatgen
data_NaHoIrO4
_symmetry_space_group_name_H-M   'P 1'
_cell_length_a   3.24639000
_cell_length_b   9.59895312
_cell_length_c   9.36304919
_cell_angle_alpha   120.83700402
_cell_angle_beta   90.00000000
_cell_angle_gamma   90.00000000
_symmetry_Int_Tables_number   1
_chemical_formula_structural   NaHoIrO4
_chemical_formula_sum   'Na3 Ho3 Ir3 O12'
_cell_volume   250.52289982
_cell_formula_units_Z   3
loop_
 _symmetry_equiv_pos_site_id
 _symmetry_equiv_pos_as_xyz
  1  'x, y, z'
loop_
 _atom_site_type_symbol
 _atom_site_label
 _atom_site_symmetry_multiplicity
 _atom_site_fract_x
 _atom_site_fract_y
 _atom_site_fract_z
 _atom_site_occupancy
  Na  Na0  1  0.00000000  0.01640600  0.00000000  1
  Na  Na1  1  0.50000000  0.30046300  0.30024300  1
  Na  Na2  1  0.50000000  0.00021900  0.69975700  1
  Ho  Ho0  1  0.50000000  0.31647100  0.65847300  1
  Ho  Ho1  1  0.50000000  0.65799800  0.34152700  1
  Ho  Ho2  1  0.50000000  0.70193600  0.00000000  1
  Ir  Ir0  1  0.00000000  0.33170100  0.00000000  1
  Ir  Ir1  1  0.00000000  0.67267600  0.67476600  1
  Ir  Ir2  1  0.00000000  0.99791000  0.32523400  1
  O  O0  1  0.50000000  0.46303100  0.00000000  1
  O  O1  1  0.50000000  0.54509700  0.54422400  1
  O  O2  1  0.50000000  0.00087300  0.45577600  1
  O  O3  1  0.50000000  0.20075400  0.00000000  1
  O  O4  1  0.50000000  0.80583000  0.82002600  1
  O  O5  1  0.50000000  0.98580400  0.17997400  1
  O  O6  1  0.00000000  0.46633700  0.25018300  1
  O  O7  1  0.00000000  0.78264700  0.53971000  1
  O  O8  1  0.00000000  0.74380500  0.19295500  1
  O  O9  1  0.00000000  0.21615400  0.74981700  1
  O  O10  1  0.00000000  0.24293800  0.46029000  1
  O  O11  1  0.00000000  0.55085000  0.80704500  1
loop_
_geom_bond_atom_site_label_1
_geom_bond_atom_site_label_2
_geom_bond_distance
_geom_bond_site_symmetry_2
Na0 O3 2.401262 1_455
Na0 O3 2.401262 1_555
Na0 O5 2.463351 1_445
Na0 O5 2.463351 1_545
Na0 O4 2.463351 1_544
Na0 O4 2.463351 1_444
Na1 O1 2.287626 1_555
Na1 O10 2.456330 1_655
Na1 O10 2.456330 1_555
Na1 O3 2.461798 1_555
Na1 O6 2.480868 1_655
Na1 O6 2.480868 1_555
Na1 O5 2.627537 1_545
Na2 O2 2.287630 1_555
Na2 O7 2.456330 1_545
Na2 O7 2.456330 1_645
Na2 O3 2.461800 1_556
Na2 O9 2.480875 1_655
Na2 O9 2.480875 1_555
Na2 O4 2.627527 1_545
Ho0 O9 2.266669 1_555
Ho0 O9 2.266669 1_655
Ho0 O10 2.287675 1_655
Ho0 O10 2.287675 1_555
Ho0 O11 2.534353 1_655
Ho0 O11 2.534353 1_555
Ho0 O2 2.623919 1_555
Ho0 O0 2.755479 1_556
Ho0 O1 2.892604 1_555
Ho1 O6 2.266669 1_555
Ho1 O6 2.266669 1_655
Ho1 O7 2.287674 1_555
Ho1 O7 2.287674 1_655
Ho1 O8 2.534353 1_555
Ho1 O8 2.534353 1_655
Ho1 O1 2.623918 1_555
Ho1 O0 2.755479 1_555
Ho1 O2 2.892604 1_565
Ho2 O0 2.293238 1_555
Ho2 O8 2.305618 1_655
Ho2 O8 2.305618 1_555
Ho2 O11 2.305618 1_554
Ho2 O11 2.305618 1_654
Ho2 O4 2.357326 1_554
Ho2 O5 2.357326 1_555
Ir0 O9 2.013403 1_554
Ir0 O6 2.013403 1_555
Ir0 O3 2.052972 1_555
Ir0 O3 2.052972 1_455
Ir0 O0 2.055225 1_455
Ir0 O0 2.055225 1_555
Ir1 O7 2.020356 1_555
Ir1 O1 2.023334 1_455
Ir1 O1 2.023334 1_555
Ir1 O4 2.082317 1_555
Ir1 O4 2.082317 1_455
Ir1 O11 2.094351 1_555
Ir2 O10 2.020365 1_565
Ir2 O2 2.023333 1_565
Ir2 O2 2.023333 1_465
Ir2 O5 2.082317 1_455
Ir2 O5 2.082317 1_555
Ir2 O8 2.094351 1_555
