# generated using pymatgen
data_Ba2Mn4Tl2Zn3O12
_symmetry_space_group_name_H-M   'P 1'
_cell_length_a   3.84905950
_cell_length_b   3.84906028
_cell_length_c   23.14718217
_cell_angle_alpha   94.76924309
_cell_angle_beta   94.76924311
_cell_angle_gamma   89.99999095
_symmetry_Int_Tables_number   1
_chemical_formula_structural   Ba2Mn4Tl2Zn3O12
_chemical_formula_sum   'Ba2 Mn4 Tl2 Zn3 O12'
_cell_volume   340.55272184
_cell_formula_units_Z   1
loop_
 _symmetry_equiv_pos_site_id
 _symmetry_equiv_pos_as_xyz
  1  'x, y, z'
loop_
 _atom_site_type_symbol
 _atom_site_label
 _atom_site_symmetry_multiplicity
 _atom_site_fract_x
 _atom_site_fract_y
 _atom_site_fract_z
 _atom_site_occupancy
  Ba  Ba0  1  0.16402100  0.16402100  0.32804200  1
  Ba  Ba1  1  0.83597900  0.83597900  0.67195800  1
  Mn  Mn0  1  0.53595900  0.53595900  0.07191700  1
  Mn  Mn1  1  0.39049000  0.39049000  0.78098000  1
  Mn  Mn2  1  0.60951000  0.60951000  0.21902000  1
  Mn  Mn3  1  0.46404100  0.46404100  0.92808300  1
  Tl  Tl0  1  0.72486000  0.72486000  0.44971900  1
  Tl  Tl1  1  0.27514000  0.27514000  0.55028100  1
  Zn  Zn0  1  0.07922500  0.07922500  0.15845200  1
  Zn  Zn1  1  0.92077500  0.92077500  0.84154800  1
  Zn  Zn2  1  0.00000000  0.00000000  0.00000000  1
  O  O0  1  0.40324100  0.90324100  0.80648300  1
  O  O1  1  0.53033100  0.03033100  0.06066200  1
  O  O2  1  0.22139900  0.22139900  0.44279800  1
  O  O3  1  0.96966900  0.46966900  0.93933800  1
  O  O4  1  0.77860100  0.77860100  0.55720200  1
  O  O5  1  0.09675900  0.59675900  0.19351700  1
  O  O6  1  0.59675900  0.09675900  0.19351700  1
  O  O7  1  0.34589200  0.34589200  0.69178300  1
  O  O8  1  0.90324100  0.40324100  0.80648300  1
  O  O9  1  0.03033100  0.53033100  0.06066200  1
  O  O10  1  0.46966900  0.96966900  0.93933800  1
  O  O11  1  0.65410800  0.65410800  0.30821700  1
loop_
_geom_bond_atom_site_label_1
_geom_bond_atom_site_label_2
_geom_bond_distance
_geom_bond_site_symmetry_2
Ba0 O2 2.637852 1_555
Ba0 O11 2.759581 1_555
Ba0 O11 2.759584 1_455
Ba0 O11 2.759584 1_545
Ba0 O11 2.759587 1_445
Ba1 O4 2.637852 1_555
Ba1 O7 2.759581 1_555
Ba1 O7 2.759584 1_655
Ba1 O7 2.759584 1_565
Ba1 O7 2.759587 1_665
Mn0 O9 1.941839 1_655
Mn0 O1 1.941840 1_565
Mn0 O9 1.941843 1_555
Mn0 O1 1.941844 1_555
Mn1 O8 2.011833 1_555
Mn1 O0 2.011833 1_555
Mn1 O8 2.011836 1_455
Mn1 O0 2.011836 1_545
Mn1 O7 2.050337 1_555
Mn2 O5 2.011833 1_555
Mn2 O6 2.011833 1_555
Mn2 O5 2.011836 1_655
Mn2 O6 2.011836 1_565
Mn2 O11 2.050337 1_555
Mn3 O3 1.941839 1_455
Mn3 O10 1.941840 1_545
Mn3 O3 1.941843 1_555
Mn3 O10 1.941844 1_555
O0 Zn1 2.086497 1_455
O0 Zn1 2.086508 1_555
O1 Zn2 2.376595 1_655
O1 Zn2 2.376596 1_555
O2 Tl1 2.470670 1_555
O2 Tl0 2.726339 1_445
O2 Tl0 2.726342 1_545
O2 Tl0 2.726342 1_455
O2 Tl0 2.726345 1_555
O3 Zn2 2.376595 1_656
O3 Zn2 2.376596 1_666
O4 Tl0 2.470670 1_555
O4 Tl1 2.726339 1_665
O4 Tl1 2.726342 1_565
O4 Tl1 2.726342 1_655
O4 Tl1 2.726345 1_555
O5 Zn0 2.086497 1_565
O5 Zn0 2.086508 1_555
O6 Zn0 2.086497 1_655
O6 Zn0 2.086508 1_555
O8 Zn1 2.086497 1_545
O8 Zn1 2.086508 1_555
O9 Zn2 2.376595 1_565
O9 Zn2 2.376596 1_555
O10 Zn2 2.376595 1_566
O10 Zn2 2.376596 1_666
