# generated using pymatgen
data_Pr(BIr)2
_symmetry_space_group_name_H-M   'P 1'
_cell_length_a   6.56665027
_cell_length_b   6.56665027
_cell_length_c   8.43725568
_cell_angle_alpha   112.88033557
_cell_angle_beta   112.88033557
_cell_angle_gamma   90.04981412
_symmetry_Int_Tables_number   1
_chemical_formula_structural   Pr(BIr)2
_chemical_formula_sum   'Pr4 B8 Ir8'
_cell_volume   303.82807857
_cell_formula_units_Z   4
loop_
 _symmetry_equiv_pos_site_id
 _symmetry_equiv_pos_as_xyz
  1  'x, y, z'
loop_
 _atom_site_type_symbol
 _atom_site_label
 _atom_site_symmetry_multiplicity
 _atom_site_fract_x
 _atom_site_fract_y
 _atom_site_fract_z
 _atom_site_occupancy
  Pr  Pr0  1  0.62500000  0.87500000  0.75000000  1
  Pr  Pr1  1  0.12500000  0.87500000  0.75000000  1
  Pr  Pr2  1  0.12500000  0.37500000  0.25000000  1
  Pr  Pr3  1  0.12500000  0.87500000  0.25000000  1
  B  B0  1  0.39132800  0.25466700  0.78577100  1
  B  B1  1  0.39444300  0.53110400  0.78577100  1
  B  B2  1  0.74533300  0.60867200  0.21422900  1
  B  B3  1  0.85867200  0.49533300  0.71422900  1
  B  B4  1  0.46889600  0.60555700  0.21422900  1
  B  B5  1  0.85555700  0.21889600  0.71422900  1
  B  B6  1  0.50466700  0.14132800  0.28577100  1
  B  B7  1  0.78110400  0.14444300  0.28577100  1
  Ir  Ir0  1  0.18117400  0.46775000  0.93680000  1
  Ir  Ir1  1  0.75562600  0.46905000  0.93680000  1
  Ir  Ir2  1  0.53225000  0.81882600  0.06320000  1
  Ir  Ir3  1  0.06882600  0.28225000  0.56320000  1
  Ir  Ir4  1  0.53095000  0.24437400  0.06320000  1
  Ir  Ir5  1  0.49437400  0.28095000  0.56320000  1
  Ir  Ir6  1  0.71775000  0.93117400  0.43680000  1
  Ir  Ir7  1  0.71905000  0.50562600  0.43680000  1
loop_
_geom_bond_atom_site_label_1
_geom_bond_atom_site_label_2
_geom_bond_distance
_geom_bond_site_symmetry_2
B0 B1 1.815363 1_555
B0 Ir4 2.185986 1_556
B0 Ir3 2.284037 1_555
B0 Ir5 2.292178 1_555
B0 Ir0 2.338881 1_555
B0 Ir1 2.357343 1_555
B0 Pr1 2.891761 1_545
B0 Pr0 2.905685 1_545
B1 Ir2 2.185986 1_556
B1 Ir5 2.284037 1_555
B1 Ir3 2.292178 1_555
B1 Ir1 2.338881 1_555
B1 Ir0 2.357343 1_555
B1 Pr0 2.891761 1_555
B1 Pr1 2.905685 1_555
B2 B4 1.815363 1_555
B2 Ir1 2.185986 1_554
B2 Ir6 2.284037 1_555
B2 Ir7 2.292178 1_555
B2 Ir2 2.338881 1_555
B2 Ir4 2.357343 1_555
B2 Pr3 2.891761 1_655
B2 Pr2 2.905685 1_655
B3 B5 1.815363 1_555
B3 Ir7 2.185986 1_555
B3 Ir0 2.284037 1_655
B3 Ir1 2.292178 1_555
B3 Ir3 2.338881 1_655
B3 Ir5 2.357343 1_555
B3 Pr1 2.891761 1_655
B3 Pr0 2.905685 1_555
B4 Ir0 2.185986 1_554
B4 Ir7 2.284037 1_555
B4 Ir6 2.292178 1_555
B4 Ir4 2.338881 1_555
B4 Ir2 2.357343 1_555
B4 Pr2 2.891761 1_555
B4 Pr3 2.905685 1_555
B5 Ir6 2.185986 1_545
B5 Ir1 2.284037 1_555
B5 Ir0 2.292178 1_655
B5 Ir5 2.338881 1_555
B5 Ir3 2.357343 1_655
B5 Pr0 2.891761 1_545
B5 Pr1 2.905685 1_645
B6 B7 1.815363 1_555
B6 Ir5 2.185986 1_555
B6 Ir2 2.284037 1_545
B6 Ir4 2.292178 1_555
B6 Ir6 2.338881 1_545
B6 Ir7 2.357343 1_555
B6 Pr3 2.891761 1_545
B6 Pr2 2.905685 1_555
B7 Ir3 2.185986 1_655
B7 Ir4 2.284037 1_555
B7 Ir2 2.292178 1_545
B7 Ir7 2.338881 1_555
B7 Ir6 2.357343 1_545
B7 Pr2 2.891761 1_655
B7 Pr3 2.905685 1_645
Ir0 Pr2 3.082082 1_556
Ir0 Pr3 3.087918 1_556
Ir1 Pr3 3.082082 1_656
Ir1 Pr2 3.087918 1_656
Ir2 Pr0 3.082082 1_554
Ir2 Pr1 3.087918 1_554
Ir3 Pr2 3.082082 1_555
Ir3 Pr3 3.087918 1_545
Ir4 Pr1 3.082082 1_544
Ir4 Pr0 3.087918 1_544
Ir5 Pr3 3.082082 1_545
Ir5 Pr2 3.087918 1_555
Ir6 Pr0 3.082082 1_555
Ir6 Pr1 3.087918 1_655
Ir7 Pr1 3.082082 1_655
Ir7 Pr0 3.087918 1_555
