# generated using pymatgen
data_BaPdO5
_symmetry_space_group_name_H-M   'P 1'
_cell_length_a   5.53264800
_cell_length_b   4.90079900
_cell_length_c   7.18390258
_cell_angle_alpha   86.83343939
_cell_angle_beta   90.00000000
_cell_angle_gamma   90.00000000
_symmetry_Int_Tables_number   1
_chemical_formula_structural   BaPdO5
_chemical_formula_sum   'Ba2 Pd2 O10'
_cell_volume   194.48977142
_cell_formula_units_Z   2
loop_
 _symmetry_equiv_pos_site_id
 _symmetry_equiv_pos_as_xyz
  1  'x, y, z'
loop_
 _atom_site_type_symbol
 _atom_site_label
 _atom_site_symmetry_multiplicity
 _atom_site_fract_x
 _atom_site_fract_y
 _atom_site_fract_z
 _atom_site_occupancy
  Ba  Ba0  1  0.36824700  0.50000000  0.75000000  1
  Ba  Ba1  1  0.63175300  0.50000000  0.25000000  1
  Pd  Pd0  1  0.00000000  0.00000000  0.00000000  1
  Pd  Pd1  1  0.00000000  0.00000000  0.50000000  1
  O  O0  1  0.69760500  0.07143000  0.66301700  1
  O  O1  1  0.69760500  0.92857000  0.83698300  1
  O  O2  1  0.30239500  0.92857000  0.33698300  1
  O  O3  1  0.30239500  0.07143000  0.16301700  1
  O  O4  1  0.92668700  0.41065900  0.94520000  1
  O  O5  1  0.92668700  0.58934100  0.55480000  1
  O  O6  1  0.07331300  0.58934100  0.05480000  1
  O  O7  1  0.07331300  0.41065900  0.44520000  1
  O  O8  1  0.18447000  0.00000000  0.75000000  1
  O  O9  1  0.81553000  0.00000000  0.25000000  1
loop_
_geom_bond_atom_site_label_1
_geom_bond_atom_site_label_2
_geom_bond_distance
_geom_bond_site_symmetry_2
Ba0 O8 2.652977 1_555
Ba0 O8 2.652977 1_565
Ba0 O6 2.784756 1_556
Ba0 O7 2.784756 1_555
Ba0 O5 2.838757 1_455
Ba0 O4 2.838757 1_455
Ba0 O1 2.875303 1_555
Ba0 O0 2.875303 1_555
Ba1 O9 2.652977 1_555
Ba1 O9 2.652977 1_565
Ba1 O4 2.784756 1_554
Ba1 O5 2.784756 1_555
Ba1 O6 2.838757 1_655
Ba1 O7 2.838757 1_655
Ba1 O3 2.875303 1_555
Ba1 O2 2.875303 1_555
O0 O1 1.398356 1_545
O0 Pd1 2.082880 1_655
O1 Pd0 2.082880 1_666
O2 O3 1.398356 1_565
O2 Pd1 2.082880 1_565
O3 Pd0 2.082880 1_555
O4 Pd0 2.069387 1_656
O5 Pd1 2.069387 1_665
O6 Pd0 2.069387 1_565
O7 Pd1 2.069387 1_555
O8 Pd1 2.065713 1_555
O8 Pd0 2.065713 1_556
O9 Pd1 2.065713 1_655
O9 Pd0 2.065713 1_655
