# generated using pymatgen
data_K6MnSe4
_symmetry_space_group_name_H-M   'P 1'
_cell_length_a   10.24963186
_cell_length_b   10.24963734
_cell_length_c   7.96926077
_cell_angle_alpha   89.99961702
_cell_angle_beta   90.00038295
_cell_angle_gamma   119.99956617
_symmetry_Int_Tables_number   1
_chemical_formula_structural   K6MnSe4
_chemical_formula_sum   'K12 Mn2 Se8'
_cell_volume   725.04896057
_cell_formula_units_Z   2
loop_
 _symmetry_equiv_pos_site_id
 _symmetry_equiv_pos_as_xyz
  1  'x, y, z'
loop_
 _atom_site_type_symbol
 _atom_site_label
 _atom_site_symmetry_multiplicity
 _atom_site_fract_x
 _atom_site_fract_y
 _atom_site_fract_z
 _atom_site_occupancy
  K  K0  1  0.14677555  0.85322655  0.54346447  1
  K  K1  1  0.29355157  0.14677377  0.04347252  1
  K  K2  1  0.85322571  0.70644865  0.04347119  1
  K  K3  1  0.14677466  0.29355026  0.54346342  1
  K  K4  1  0.70645143  0.85322481  0.54346239  1
  K  K5  1  0.85322763  0.14677237  0.04346977  1
  K  K6  1  0.52808431  0.47191574  0.36753825  1
  K  K7  1  0.05617704  0.52808619  0.86752883  1
  K  K8  1  0.47191391  0.94382276  0.86752889  1
  K  K9  1  0.52808506  0.05616774  0.36753883  1
  K  K10  1  0.94383344  0.47191566  0.36753705  1
  K  K11  1  0.47191453  0.52808595  0.86752849  1
  Mn  Mn0  1  0.33333264  0.66666705  0.25134684  1
  Mn  Mn1  1  0.66666715  0.33333242  0.75134425  1
  Se  Se0  1  0.33333191  0.66666858  0.57576548  1
  Se  Se1  1  0.66667073  0.33332750  0.07577678  1
  Se  Se2  1  0.19482995  0.80516912  0.15084856  1
  Se  Se3  1  0.38970091  0.19485766  0.65085410  1
  Se  Se4  1  0.80514462  0.61029799  0.65085304  1
  Se  Se5  1  0.19483871  0.38967671  0.15087872  1
  Se  Se6  1  0.61032278  0.80516146  0.15087875  1
  Se  Se7  1  0.80514676  0.19485006  0.65085136  1
loop_
_geom_bond_atom_site_label_1
_geom_bond_atom_site_label_2
_geom_bond_distance
_geom_bond_site_symmetry_2
K0 Se3 3.236462 1_565
K0 Se4 3.236465 1_455
K0 Se2 3.243089 1_555
K0 Se0 3.321908 1_555
K1 Se2 3.236129 1_545
K1 Se5 3.236317 1_555
K1 Se3 3.243194 1_554
K1 Se1 3.321974 1_555
K2 Se2 3.236129 1_655
K2 Se6 3.236318 1_555
K2 Se4 3.243195 1_554
K2 Se1 3.321995 1_555
K3 Se3 3.236347 1_555
K3 Se7 3.236432 1_455
K3 Se5 3.242875 1_555
K3 Se0 3.321969 1_555
K4 Se4 3.236358 1_555
K4 Se7 3.236422 1_565
K4 Se6 3.242872 1_555
K4 Se0 3.321979 1_555
K5 Se5 3.236306 1_655
K5 Se6 3.236307 1_545
K5 Se7 3.243205 1_554
K5 Se1 3.321895 1_555
K6 Se3 3.338543 1_555
K6 Se4 3.338551 1_555
K6 Se1 3.385183 1_555
K6 Se5 3.532592 1_555
K6 Se6 3.532596 1_555
K7 Se2 3.338739 1_556
K7 Se5 3.338793 1_556
K7 Se0 3.385070 1_555
K7 Se7 3.532687 1_455
K7 Se4 3.532700 1_455
K8 Se2 3.338744 1_556
K8 Se6 3.338786 1_556
K8 Se0 3.385067 1_555
K8 Se7 3.532658 1_565
K8 Se3 3.532726 1_565
K9 Se7 3.338547 1_555
K9 Se3 3.338651 1_555
K9 Se1 3.385082 1_555
K9 Se6 3.532595 1_545
K9 Se2 3.532768 1_545
K10 Se7 3.338584 1_555
K10 Se4 3.338636 1_555
K10 Se1 3.385091 1_555
K10 Se5 3.532587 1_655
K10 Se2 3.532746 1_655
K11 Se6 3.338855 1_556
K11 Se5 3.338856 1_556
K11 Se0 3.385104 1_555
K11 Se3 3.532582 1_555
K11 Se4 3.532604 1_555
Mn0 Se0 2.585377 1_555
Mn0 Se6 2.585780 1_555
Mn0 Se5 2.585783 1_555
Mn0 Se2 2.585955 1_555
Mn1 Se1 2.585487 1_556
Mn1 Se7 2.585592 1_555
Mn1 Se4 2.585625 1_555
Mn1 Se3 2.585627 1_555
