# generated using pymatgen
data_CeYCo4
_symmetry_space_group_name_H-M   'P 1'
_cell_length_a   5.02053593
_cell_length_b   5.02053593
_cell_length_c   5.02053593
_cell_angle_alpha   60.00000000
_cell_angle_beta   60.00000000
_cell_angle_gamma   60.00000000
_symmetry_Int_Tables_number   1
_chemical_formula_structural   CeYCo4
_chemical_formula_sum   'Ce1 Y1 Co4'
_cell_volume   89.48190889
_cell_formula_units_Z   1
loop_
 _symmetry_equiv_pos_site_id
 _symmetry_equiv_pos_as_xyz
  1  'x, y, z'
loop_
 _atom_site_type_symbol
 _atom_site_label
 _atom_site_symmetry_multiplicity
 _atom_site_fract_x
 _atom_site_fract_y
 _atom_site_fract_z
 _atom_site_occupancy
  Ce  Ce0  1  0.25000000  0.25000000  0.25000000  1
  Y  Y0  1  0.00000000  0.00000000  0.00000000  1
  Co  Co0  1  0.62512500  0.62512500  0.12462400  1
  Co  Co1  1  0.62512500  0.12462400  0.62512500  1
  Co  Co2  1  0.12462400  0.62512500  0.62512500  1
  Co  Co3  1  0.62512500  0.62512500  0.62512500  1
loop_
_geom_bond_atom_site_label_1
_geom_bond_atom_site_label_2
_geom_bond_distance
_geom_bond_site_symmetry_2
Ce0 Co2 2.943816 1_555
Ce0 Co1 2.943816 1_555
Ce0 Co0 2.943816 1_555
Ce0 Co3 2.943818 1_455
Ce0 Co3 2.943818 1_545
Ce0 Co3 2.943818 1_554
Ce0 Co0 2.943820 1_545
Ce0 Co1 2.943820 1_554
Ce0 Co2 2.943820 1_545
Ce0 Co2 2.943820 1_554
Ce0 Co0 2.943820 1_455
Ce0 Co1 2.943820 1_455
Ce0 Y0 3.074438 1_556
Ce0 Y0 3.074438 1_565
Ce0 Y0 3.074438 1_555
Ce0 Y0 3.074438 1_655
Co0 Co2 2.507753 1_654
Co0 Co1 2.507753 1_564
Co0 Co3 2.507753 1_554
Co0 Co2 2.512783 1_555
Co0 Co1 2.512783 1_555
Co0 Co3 2.512783 1_555
Co0 Y0 2.943281 1_655
Co0 Y0 2.943281 1_565
Co0 Y0 2.943285 1_665
Co1 Co2 2.507753 1_645
Co1 Co3 2.507753 1_545
Co1 Co2 2.512783 1_555
Co1 Co3 2.512783 1_555
Co1 Y0 2.943281 1_556
Co1 Y0 2.943281 1_655
Co1 Y0 2.943285 1_656
Co2 Co3 2.507753 1_455
Co2 Co3 2.512783 1_555
Co2 Y0 2.943281 1_556
Co2 Y0 2.943281 1_565
Co2 Y0 2.943285 1_566
Co3 Y0 2.943283 1_566
Co3 Y0 2.943283 1_656
Co3 Y0 2.943283 1_665
