# generated using pymatgen
data_Ir
_symmetry_space_group_name_H-M   'P 1'
_cell_length_a   4.46686252
_cell_length_b   14.38600160
_cell_length_c   24.47691050
_cell_angle_alpha   90.00000000
_cell_angle_beta   90.00000000
_cell_angle_gamma   90.00000000
_symmetry_Int_Tables_number   1
_chemical_formula_structural   Ir
_chemical_formula_sum   Ir16
_cell_volume   1572.89340032
_cell_formula_units_Z   16
loop_
 _symmetry_equiv_pos_site_id
 _symmetry_equiv_pos_as_xyz
  1  'x, y, z'
loop_
 _atom_site_type_symbol
 _atom_site_label
 _atom_site_symmetry_multiplicity
 _atom_site_fract_x
 _atom_site_fract_y
 _atom_site_fract_z
 _atom_site_occupancy
  Ir  Ir0_0  1  0.00000000  0.08199420  0.12500000  1
  Ir  Ir0_1  1  0.00000000  0.08199420  0.62500000  1
  Ir  Ir0_2  1  0.00000000  0.58199420  0.12500000  1
  Ir  Ir0_3  1  0.00000000  0.58199420  0.62500000  1
  Ir  Ir0_4  1  0.50000000  0.08199420  0.12500000  1
  Ir  Ir0_5  1  0.50000000  0.08199420  0.62500000  1
  Ir  Ir0_6  1  0.50000000  0.58199420  0.12500000  1
  Ir  Ir0_7  1  0.50000000  0.58199420  0.62500000  1
  Ir  Ir1_0  1  0.00000000  0.41800580  0.37500000  1
  Ir  Ir1_1  1  0.00000000  0.41800580  0.87500000  1
  Ir  Ir1_2  1  0.00000000  0.91800580  0.37500000  1
  Ir  Ir1_3  1  0.00000000  0.91800580  0.87500000  1
  Ir  Ir1_4  1  0.50000000  0.41800580  0.37500000  1
  Ir  Ir1_5  1  0.50000000  0.41800580  0.87500000  1
  Ir  Ir1_6  1  0.50000000  0.91800580  0.37500000  1
  Ir  Ir1_7  1  0.50000000  0.91800580  0.87500000  1
loop_
_geom_bond_atom_site_label_1
_geom_bond_atom_site_label_2
_geom_bond_distance
_geom_bond_site_symmetry_2
Ir0_0 Ir0_4 2.233431 1_455
Ir0_0 Ir0_4 2.233431 1_555
Ir0_1 Ir0_5 2.233431 1_555
Ir0_1 Ir0_5 2.233431 1_455
Ir0_2 Ir0_6 2.233431 1_555
Ir0_2 Ir0_6 2.233431 1_455
Ir0_3 Ir0_7 2.233431 1_555
Ir0_3 Ir0_7 2.233431 1_455
Ir1_0 Ir1_4 2.233431 1_455
Ir1_0 Ir1_4 2.233431 1_555
Ir1_1 Ir1_5 2.233431 1_455
Ir1_1 Ir1_5 2.233431 1_555
Ir1_2 Ir1_6 2.233431 1_455
Ir1_2 Ir1_6 2.233431 1_555
Ir1_3 Ir1_7 2.233431 1_455
Ir1_3 Ir1_7 2.233431 1_555
