# generated using pymatgen
data_HfCrCuS4
_symmetry_space_group_name_H-M   'P 1'
_cell_length_a   6.49066796
_cell_length_b   7.41692277
_cell_length_c   12.39575924
_cell_angle_alpha   81.56236863
_cell_angle_beta   85.15353603
_cell_angle_gamma   90.20211640
_symmetry_Int_Tables_number   1
_chemical_formula_structural   HfCrCuS4
_chemical_formula_sum   'Hf4 Cr4 Cu4 S16'
_cell_volume   588.09530527
_cell_formula_units_Z   4
loop_
 _symmetry_equiv_pos_site_id
 _symmetry_equiv_pos_as_xyz
  1  'x, y, z'
loop_
 _atom_site_type_symbol
 _atom_site_label
 _atom_site_symmetry_multiplicity
 _atom_site_fract_x
 _atom_site_fract_y
 _atom_site_fract_z
 _atom_site_occupancy
  Hf  Hf0  1  0.13878300  0.70159200  0.70043300  1
  Hf  Hf1  1  0.85870400  0.29101000  0.30138300  1
  Hf  Hf2  1  0.76532900  0.11190700  0.99786000  1
  Hf  Hf3  1  0.36653500  0.56332200  0.29597300  1
  Cr  Cr0  1  0.24228500  0.88111600  0.99896400  1
  Cr  Cr1  1  0.63348700  0.43857400  0.70544000  1
  Cr  Cr2  1  0.37740300  0.04492400  0.29185500  1
  Cr  Cr3  1  0.63473200  0.95942400  0.70197500  1
  Cu  Cu0  1  0.12382400  0.19848600  0.70399600  1
  Cu  Cu1  1  0.87437900  0.80436500  0.29355100  1
  Cu  Cu2  1  0.25723900  0.37127200  0.99257200  1
  Cu  Cu3  1  0.74654800  0.63236100  0.00012800  1
  S  S0  1  0.10277600  0.65484400  0.89635800  1
  S  S1  1  0.89062300  0.35545200  0.10653800  1
  S  S2  1  0.11088300  0.14687500  0.89251500  1
  S  S3  1  0.90938900  0.84357000  0.10651800  1
  S  S4  1  0.17824600  0.79178200  0.37518700  1
  S  S5  1  0.80910200  0.21903300  0.63632300  1
  S  S6  1  0.19478000  0.27493500  0.37587300  1
  S  S7  1  0.79425500  0.71434200  0.63358800  1
  S  S8  1  0.32015700  0.98109400  0.62992200  1
  S  S9  1  0.68094500  0.01512500  0.37584700  1
  S  S10  1  0.32184800  0.45329000  0.63154400  1
  S  S11  1  0.69397300  0.54233500  0.37625100  1
  S  S12  1  0.39189800  0.09542300  0.10445800  1
  S  S13  1  0.58337500  0.89899700  0.88861100  1
  S  S14  1  0.39331700  0.60777800  0.09926800  1
  S  S15  1  0.60518400  0.40677500  0.88706900  1
loop_
_geom_bond_atom_site_label_1
_geom_bond_atom_site_label_2
_geom_bond_distance
_geom_bond_site_symmetry_2
Hf0 S8 2.392599 1_555
Hf0 S0 2.393643 1_555
Hf0 S10 2.416233 1_555
Hf0 S7 2.446991 1_455
Hf1 S9 2.370509 1_555
Hf1 S1 2.383440 1_555
Hf1 S11 2.415216 1_555
Hf1 S6 2.436185 1_655
Hf2 S3 2.467537 1_546
Hf2 S2 2.490898 1_655
Hf2 S13 2.570414 1_545
Hf2 S1 2.574483 1_556
Hf2 S12 2.654272 1_556
Hf2 S15 2.669337 1_555
Hf3 S4 2.372570 1_555
Hf3 S14 2.403397 1_555
Hf3 S11 2.417760 1_555
Hf3 S6 2.444120 1_555
Cr0 S2 2.406776 1_565
Cr0 S3 2.433876 1_456
Cr0 S12 2.448103 1_566
Cr0 S0 2.462601 1_555
Cr0 S14 2.469249 1_556
Cr0 S13 2.494614 1_555
Cr1 S15 2.220875 1_555
Cr1 S5 2.223110 1_555
Cr1 S10 2.286429 1_555
Cr1 S7 2.314929 1_555
Cr2 S12 2.291861 1_555
Cr2 S9 2.301440 1_555
Cr2 S4 2.334786 1_545
Cr2 S6 2.393140 1_555
Cr3 S5 2.240511 1_565
Cr3 S13 2.286612 1_555
Cr3 S8 2.293652 1_555
Cr3 S7 2.326390 1_555
Cu0 S5 2.270239 1_455
Cu0 S8 2.306089 1_545
Cu0 S2 2.306184 1_555
Cu0 S10 2.306489 1_555
Cu1 S3 2.285589 1_555
Cu1 S4 2.287690 1_655
Cu1 S9 2.307799 1_565
Cu1 S11 2.322820 1_555
Cu2 S2 2.450393 1_555
Cu2 S12 2.501616 1_556
Cu2 S15 2.505132 1_555
Cu2 S0 2.516330 1_555
Cu2 S14 2.544336 1_556
Cu2 S1 2.655796 1_456
Cu3 S3 2.477990 1_555
Cu3 S14 2.501037 1_555
Cu3 S1 2.501889 1_555
Cu3 S13 2.530500 1_554
Cu3 S0 2.541703 1_654
Cu3 S15 2.549507 1_554
