# generated using pymatgen
data_Li6Yb(BO3)3
_symmetry_space_group_name_H-M   'P 1'
_cell_length_a   16.62595400
_cell_length_b   6.67655900
_cell_length_c   7.28102848
_cell_angle_alpha   75.32364710
_cell_angle_beta   90.00000000
_cell_angle_gamma   90.00000000
_symmetry_Int_Tables_number   1
_chemical_formula_structural   Li6Yb(BO3)3
_chemical_formula_sum   'Li24 Yb4 B12 O36'
_cell_volume   781.85404663
_cell_formula_units_Z   4
loop_
 _symmetry_equiv_pos_site_id
 _symmetry_equiv_pos_as_xyz
  1  'x, y, z'
loop_
 _atom_site_type_symbol
 _atom_site_label
 _atom_site_symmetry_multiplicity
 _atom_site_fract_x
 _atom_site_fract_y
 _atom_site_fract_z
 _atom_site_occupancy
  Li  Li0  1  0.02939500  0.33005900  0.54563800  1
  Li  Li1  1  0.52939500  0.16994100  0.45436200  1
  Li  Li2  1  0.97060500  0.66994100  0.45436200  1
  Li  Li3  1  0.47060500  0.83005900  0.54563800  1
  Li  Li4  1  0.20736300  0.04475500  0.43181000  1
  Li  Li5  1  0.70736300  0.45524500  0.56819000  1
  Li  Li6  1  0.79263700  0.95524500  0.56819000  1
  Li  Li7  1  0.29263700  0.54475500  0.43181000  1
  Li  Li8  1  0.94446600  0.39903600  0.13920000  1
  Li  Li9  1  0.44446600  0.10096400  0.86080000  1
  Li  Li10  1  0.05553400  0.60096400  0.86080000  1
  Li  Li11  1  0.55553400  0.89903600  0.13920000  1
  Li  Li12  1  0.20905900  0.63884100  0.72269900  1
  Li  Li13  1  0.70905900  0.86115900  0.27730100  1
  Li  Li14  1  0.79094100  0.36115900  0.27730100  1
  Li  Li15  1  0.29094100  0.13884100  0.72269900  1
  Li  Li16  1  0.04598900  0.05964400  0.29631900  1
  Li  Li17  1  0.54598900  0.44035600  0.70368100  1
  Li  Li18  1  0.95401100  0.94035600  0.70368100  1
  Li  Li19  1  0.45401100  0.55964400  0.29631900  1
  Li  Li20  1  0.99766600  0.82066800  0.07699100  1
  Li  Li21  1  0.49766600  0.67933200  0.92300900  1
  Li  Li22  1  0.00233400  0.17933200  0.92300900  1
  Li  Li23  1  0.50233400  0.32066800  0.07699100  1
  Yb  Yb0  1  0.30751700  0.34381000  0.08150400  1
  Yb  Yb1  1  0.80751700  0.15619000  0.91849600  1
  Yb  Yb2  1  0.69248300  0.65619000  0.91849600  1
  Yb  Yb3  1  0.19248300  0.84381000  0.08150400  1
  B  B0  1  0.88136000  0.00149300  0.28748000  1
  B  B1  1  0.38136000  0.49850700  0.71252000  1
  B  B2  1  0.11864000  0.99850700  0.71252000  1
  B  B3  1  0.61864000  0.50149300  0.28748000  1
  B  B4  1  0.13701000  0.34152600  0.07896400  1
  B  B5  1  0.63701000  0.15847400  0.92103600  1
  B  B6  1  0.86299000  0.65847400  0.92103600  1
  B  B7  1  0.36299000  0.84152600  0.07896400  1
  B  B8  1  0.38496900  0.18769700  0.44065500  1
  B  B9  1  0.88496900  0.31230300  0.55934500  1
  B  B10  1  0.61503100  0.81230300  0.55934500  1
  B  B11  1  0.11503100  0.68769700  0.44065500  1
  O  O0  1  0.93087600  0.05177400  0.12954000  1
  O  O1  1  0.43087600  0.44822600  0.87046000  1
  O  O2  1  0.06912400  0.94822600  0.87046000  1
  O  O3  1  0.56912400  0.55177400  0.12954000  1
  O  O4  1  0.80049100  0.05024500  0.26275300  1
  O  O5  1  0.30049100  0.44975500  0.73724700  1
  O  O6  1  0.19950900  0.94975500  0.73724700  1
  O  O7  1  0.69950900  0.55024500  0.26275300  1
  O  O8  1  0.91118700  0.91014300  0.46478400  1
  O  O9  1  0.41118700  0.58985700  0.53521600  1
  O  O10  1  0.08881300  0.08985700  0.53521600  1
  O  O11  1  0.58881300  0.41014300  0.46478400  1
  O  O12  1  0.05416000  0.33110000  0.07988800  1
  O  O13  1  0.55416000  0.16890000  0.92011200  1
  O  O14  1  0.94584000  0.66890000  0.92011200  1
  O  O15  1  0.44584000  0.83110000  0.07988800  1
  O  O16  1  0.32597500  0.02764900  0.99618300  1
  O  O17  1  0.82597500  0.47235100  0.00381700  1
  O  O18  1  0.67402500  0.97235100  0.00381700  1
  O  O19  1  0.17402500  0.52764900  0.99618300  1
  O  O20  1  0.18139000  0.16578000  0.15518600  1
  O  O21  1  0.68139000  0.33422000  0.84481400  1
  O  O22  1  0.81861000  0.83422000  0.84481400  1
  O  O23  1  0.31861000  0.66578000  0.15518600  1
  O  O24  1  0.42240100  0.07635000  0.60490500  1
  O  O25  1  0.92240100  0.42365000  0.39509500  1
  O  O26  1  0.57759900  0.92365000  0.39509500  1
  O  O27  1  0.07759900  0.57635000  0.60490500  1
  O  O28  1  0.30299200  0.22448400  0.42891500  1
  O  O29  1  0.80299200  0.27551600  0.57108500  1
  O  O30  1  0.69700800  0.77551600  0.57108500  1
  O  O31  1  0.19700800  0.72448400  0.42891500  1
  O  O32  1  0.43160700  0.26847800  0.28140700  1
  O  O33  1  0.93160700  0.23152200  0.71859300  1
  O  O34  1  0.56839300  0.73152200  0.71859300  1
  O  O35  1  0.06839300  0.76847800  0.28140700  1
loop_
_geom_bond_atom_site_label_1
_geom_bond_atom_site_label_2
_geom_bond_distance
_geom_bond_site_symmetry_2
Li0 O10 1.901383 1_555
Li0 O27 1.972828 1_555
Li0 O33 2.059639 1_455
Li0 O25 2.099822 1_455
Li1 O11 1.901383 1_555
Li1 O26 1.972828 1_545
Li1 O32 2.059639 1_555
Li1 O24 2.099822 1_555
Li2 O8 1.901383 1_555
Li2 O25 1.972828 1_555
Li2 O35 2.059639 1_655
Li2 O27 2.099822 1_655
Li3 O9 1.901383 1_555
Li3 O24 1.972828 1_565
Li3 O34 2.059639 1_555
Li3 O26 2.099822 1_555
Li4 O28 1.988822 1_555
Li4 O20 2.017759 1_555
Li4 O31 2.150648 1_545
Li4 O6 2.156458 1_545
Li4 O10 2.158075 1_555
Li5 O29 1.988822 1_555
Li5 O21 2.017759 1_555
Li5 O30 2.150648 1_555
Li5 O7 2.156458 1_555
Li5 O11 2.158075 1_555
Li6 O30 1.988822 1_555
Li6 O22 2.017759 1_555
Li6 O29 2.150648 1_565
Li6 O4 2.156458 1_565
Li6 O8 2.158075 1_555
Li7 O31 1.988822 1_555
Li7 O23 2.017759 1_555
Li7 O28 2.150648 1_555
Li7 O5 2.156458 1_555
Li7 O9 2.158075 1_555
Li8 O25 1.946323 1_555
Li8 O12 1.953871 1_655
Li8 O14 2.082093 1_554
Li8 O17 2.201765 1_555
Li8 O0 2.348221 1_555
Li9 O24 1.946323 1_555
Li9 O13 1.953871 1_555
Li9 O15 2.082093 1_546
Li9 O16 2.201765 1_555
Li9 O1 2.348221 1_555
Li10 O27 1.946323 1_555
Li10 O14 1.953871 1_455
Li10 O12 2.082093 1_556
Li10 O19 2.201765 1_555
Li10 O2 2.348221 1_555
Li11 O26 1.946323 1_555
Li11 O15 1.953871 1_555
Li11 O13 2.082093 1_564
Li11 O18 2.201765 1_555
Li11 O3 2.348221 1_555
Li12 O5 1.961648 1_555
Li12 O19 2.026425 1_555
Li12 O31 2.079149 1_555
Li12 O6 2.111147 1_555
Li12 O27 2.422404 1_555
Li13 O4 1.961648 1_565
Li13 O18 2.026425 1_555
Li13 O30 2.079149 1_555
Li13 O7 2.111147 1_555
Li13 O26 2.422404 1_555
Li14 O7 1.961648 1_555
Li14 O17 2.026425 1_555
Li14 O29 2.079149 1_555
Li14 O4 2.111147 1_555
Li14 O25 2.422404 1_555
Li15 O6 1.961648 1_545
Li15 O16 2.026425 1_555
Li15 O28 2.079149 1_555
Li15 O5 2.111147 1_555
Li15 O24 2.422404 1_555
Li16 O10 1.936745 1_555
Li16 O35 2.009122 1_545
Li16 O12 2.083096 1_555
Li16 O0 2.274323 1_455
Li16 O20 2.501377 1_555
Li16 O8 2.627450 1_445
Li17 O11 1.936745 1_555
Li17 O34 2.009122 1_555
Li17 O13 2.083096 1_555
Li17 O1 2.274323 1_555
Li17 O21 2.501377 1_555
Li17 O9 2.627450 1_555
Li18 O8 1.936745 1_555
Li18 O33 2.009122 1_565
Li18 O14 2.083096 1_555
Li18 O2 2.274323 1_655
Li18 O22 2.501377 1_555
Li18 O10 2.627450 1_665
Li19 O9 1.936745 1_555
Li19 O32 2.009122 1_555
Li19 O15 2.083096 1_555
Li19 O3 2.274323 1_555
Li19 O23 2.501377 1_555
Li19 O11 2.627450 1_555
Li20 O35 1.859190 1_655
Li20 O14 1.913218 1_554
Li20 O2 1.936268 1_654
Li20 O0 2.014810 1_565
Li21 O34 1.859190 1_555
Li21 O15 1.913218 1_556
Li21 O3 1.936268 1_556
Li21 O1 2.014810 1_555
Li22 O33 1.859190 1_455
Li22 O12 1.913218 1_556
Li22 O0 1.936268 1_456
Li22 O2 2.014810 1_545
Li23 O32 1.859190 1_555
Li23 O13 1.913218 1_554
Li23 O1 1.936268 1_554
Li23 O3 2.014810 1_555
B0 O8 1.373135 1_545
B0 O4 1.384345 1_555
B0 O0 1.384645 1_555
B1 O9 1.373135 1_555
B1 O5 1.384345 1_555
B1 O1 1.384645 1_555
B2 O10 1.373135 1_565
B2 O6 1.384345 1_555
B2 O2 1.384645 1_555
B3 O11 1.373135 1_555
B3 O7 1.384345 1_555
B3 O3 1.384645 1_555
B4 O20 1.378143 1_555
B4 O12 1.379148 1_555
B4 O19 1.380831 1_554
B5 O21 1.378143 1_555
B5 O13 1.379148 1_555
B5 O18 1.380831 1_546
B6 O22 1.378143 1_555
B6 O14 1.379148 1_555
B6 O17 1.380831 1_556
B7 O23 1.378143 1_555
B7 O15 1.379148 1_555
B7 O16 1.380831 1_564
B8 O28 1.383696 1_555
B8 O32 1.385521 1_555
B8 O24 1.385523 1_555
B9 O29 1.383696 1_555
B9 O33 1.385521 1_555
B9 O25 1.385523 1_555
B10 O30 1.383696 1_555
B10 O34 1.385521 1_555
B10 O26 1.385523 1_555
B11 O31 1.383696 1_555
B11 O35 1.385521 1_555
B11 O27 1.385523 1_555
O0 Yb1 2.551632 1_554
O1 Yb0 2.551632 1_556
O2 Yb3 2.551632 1_556
O3 Yb2 2.551632 1_554
O4 Yb1 2.428651 1_554
O5 Yb0 2.428651 1_556
O6 Yb3 2.428651 1_556
O7 Yb2 2.428651 1_554
O16 Yb0 2.366501 1_556
O16 Yb3 2.536132 1_546
O17 Yb1 2.366501 1_554
O17 Yb2 2.536132 1_554
O18 Yb2 2.366501 1_554
O18 Yb1 2.536132 1_564
O19 Yb3 2.366501 1_556
O19 Yb0 2.536132 1_556
O20 Yb3 2.351000 1_545
O20 Yb0 2.403094 1_555
O21 Yb2 2.351000 1_555
O21 Yb1 2.403094 1_555
O22 Yb1 2.351000 1_565
O22 Yb2 2.403094 1_555
O23 Yb0 2.351000 1_555
O23 Yb3 2.403094 1_555
O28 Yb0 2.453087 1_555
O29 Yb1 2.453087 1_555
O30 Yb2 2.453087 1_555
O31 Yb3 2.453087 1_555
O32 Yb0 2.501388 1_555
O33 Yb1 2.501388 1_555
O34 Yb2 2.501388 1_555
O35 Yb3 2.501388 1_555
