# generated using pymatgen
data_H9CN7O3
_symmetry_space_group_name_H-M   'P 1'
_cell_length_a   6.87496000
_cell_length_b   8.57702700
_cell_length_c   12.95649400
_cell_angle_alpha   90.00000000
_cell_angle_beta   90.00000000
_cell_angle_gamma   90.00000000
_symmetry_Int_Tables_number   1
_chemical_formula_structural   H9CN7O3
_chemical_formula_sum   'H36 C4 N28 O12'
_cell_volume   764.00192206
_cell_formula_units_Z   4
loop_
 _symmetry_equiv_pos_site_id
 _symmetry_equiv_pos_as_xyz
  1  'x, y, z'
loop_
 _atom_site_type_symbol
 _atom_site_label
 _atom_site_symmetry_multiplicity
 _atom_site_fract_x
 _atom_site_fract_y
 _atom_site_fract_z
 _atom_site_occupancy
  H  H0  1  0.25000000  0.55013700  0.62816700  1
  H  H1  1  0.75000000  0.44986300  0.37183300  1
  H  H2  1  0.75000000  0.55013700  0.87183300  1
  H  H3  1  0.25000000  0.44986300  0.12816700  1
  H  H4  1  0.25000000  0.94826100  0.69905100  1
  H  H5  1  0.75000000  0.05173900  0.30094900  1
  H  H6  1  0.75000000  0.94826100  0.80094900  1
  H  H7  1  0.25000000  0.05173900  0.19905100  1
  H  H8  1  0.25000000  0.65767100  0.89264000  1
  H  H9  1  0.75000000  0.34232900  0.10736000  1
  H  H10  1  0.75000000  0.65767100  0.60736000  1
  H  H11  1  0.25000000  0.34232900  0.39264000  1
  H  H12  1  0.12894500  0.75907200  0.51642600  1
  H  H13  1  0.62894500  0.24092800  0.48357400  1
  H  H14  1  0.87105500  0.75907200  0.98357400  1
  H  H15  1  0.37105500  0.24092800  0.01642600  1
  H  H16  1  0.87105500  0.24092800  0.48357400  1
  H  H17  1  0.37105500  0.75907200  0.51642600  1
  H  H18  1  0.12894500  0.24092800  0.01642600  1
  H  H19  1  0.62894500  0.75907200  0.98357400  1
  H  H20  1  0.12906700  0.99017300  0.87482600  1
  H  H21  1  0.62906700  0.00982700  0.12517400  1
  H  H22  1  0.87093300  0.99017300  0.62517400  1
  H  H23  1  0.37093300  0.00982700  0.37482600  1
  H  H24  1  0.87093300  0.00982700  0.12517400  1
  H  H25  1  0.37093300  0.99017300  0.87482600  1
  H  H26  1  0.12906700  0.00982700  0.37482600  1
  H  H27  1  0.62906700  0.99017300  0.62517400  1
  H  H28  1  0.12939300  0.40521000  0.82781800  1
  H  H29  1  0.62939300  0.59479000  0.17218200  1
  H  H30  1  0.87060700  0.40521000  0.67218200  1
  H  H31  1  0.37060700  0.59479000  0.32781800  1
  H  H32  1  0.87060700  0.59479000  0.17218200  1
  H  H33  1  0.37060700  0.40521000  0.82781800  1
  H  H34  1  0.12939300  0.59479000  0.32781800  1
  H  H35  1  0.62939300  0.40521000  0.67218200  1
  C  C0  1  0.25000000  0.71876100  0.73992400  1
  C  C1  1  0.75000000  0.28123900  0.26007600  1
  C  C2  1  0.75000000  0.71876100  0.76007600  1
  C  C3  1  0.25000000  0.28123900  0.23992400  1
  N  N0  1  0.25000000  0.66822700  0.64222900  1
  N  N1  1  0.75000000  0.33177300  0.35777100  1
  N  N2  1  0.75000000  0.66822700  0.85777100  1
  N  N3  1  0.25000000  0.33177300  0.14222900  1
  N  N4  1  0.25000000  0.87233300  0.75999700  1
  N  N5  1  0.75000000  0.12766700  0.24000300  1
  N  N6  1  0.75000000  0.87233300  0.74000300  1
  N  N7  1  0.25000000  0.12766700  0.25999700  1
  N  N8  1  0.25000000  0.61633600  0.81818200  1
  N  N9  1  0.75000000  0.38366400  0.18181800  1
  N  N10  1  0.75000000  0.61633600  0.68181800  1
  N  N11  1  0.25000000  0.38366400  0.31818200  1
  N  N12  1  0.25000000  0.77662800  0.56117400  1
  N  N13  1  0.75000000  0.22337200  0.43882600  1
  N  N14  1  0.75000000  0.77662800  0.93882600  1
  N  N15  1  0.25000000  0.22337200  0.06117400  1
  N  N16  1  0.25000000  0.92274800  0.86294400  1
  N  N17  1  0.75000000  0.07725200  0.13705600  1
  N  N18  1  0.75000000  0.92274800  0.63705600  1
  N  N19  1  0.25000000  0.07725200  0.36294400  1
  N  N20  1  0.25000000  0.45624800  0.79598400  1
  N  N21  1  0.75000000  0.54375200  0.20401600  1
  N  N22  1  0.75000000  0.45624800  0.70401600  1
  N  N23  1  0.25000000  0.54375200  0.29598400  1
  N  N24  1  0.25000000  0.24007000  0.59690400  1
  N  N25  1  0.75000000  0.75993000  0.40309600  1
  N  N26  1  0.75000000  0.24007000  0.90309600  1
  N  N27  1  0.25000000  0.75993000  0.09690400  1
  O  O0  1  0.25000000  0.36562600  0.54341000  1
  O  O1  1  0.75000000  0.63437400  0.45659000  1
  O  O2  1  0.75000000  0.36562600  0.95659000  1
  O  O3  1  0.25000000  0.63437400  0.04341000  1
  O  O4  1  0.40994900  0.17927900  0.62350400  1
  O  O5  1  0.90994900  0.82072100  0.37649600  1
  O  O6  1  0.59005100  0.17927900  0.87649600  1
  O  O7  1  0.09005100  0.82072100  0.12350400  1
  O  O8  1  0.59005100  0.82072100  0.37649600  1
  O  O9  1  0.09005100  0.17927900  0.62350400  1
  O  O10  1  0.40994900  0.82072100  0.12350400  1
  O  O11  1  0.90994900  0.17927900  0.87649600  1
loop_
_geom_bond_atom_site_label_1
_geom_bond_atom_site_label_2
_geom_bond_distance
_geom_bond_site_symmetry_2
H0 N0 1.029117 1_555
H1 N1 1.029117 1_555
H2 N2 1.029117 1_555
H3 N3 1.029117 1_555
H4 N4 1.023548 1_555
H5 N5 1.023548 1_555
H6 N6 1.023548 1_555
H7 N7 1.023548 1_555
H8 N8 1.027797 1_555
H9 N9 1.027797 1_555
H10 N10 1.027797 1_555
H11 N11 1.027797 1_555
H12 N12 1.025404 1_555
H13 N13 1.025404 1_555
H14 N14 1.025404 1_555
H15 N15 1.025404 1_555
H16 N13 1.025404 1_555
H17 N12 1.025404 1_555
H18 N15 1.025404 1_555
H19 N14 1.025404 1_555
H20 N16 1.024393 1_555
H21 N17 1.024393 1_555
H22 N18 1.024393 1_555
H23 N19 1.024393 1_555
H24 N17 1.024393 1_555
H25 N16 1.024393 1_555
H26 N19 1.024393 1_555
H27 N18 1.024393 1_555
H28 N20 1.024339 1_555
H29 N21 1.024339 1_555
H30 N22 1.024339 1_555
H31 N23 1.024339 1_555
H32 N21 1.024339 1_555
H33 N20 1.024339 1_555
H34 N23 1.024339 1_555
H35 N22 1.024339 1_555
C0 N0 1.337936 1_555
C0 N8 1.341588 1_555
C0 N4 1.342621 1_555
C1 N1 1.337936 1_555
C1 N9 1.341588 1_555
C1 N5 1.342621 1_555
C2 N2 1.337936 1_555
C2 N10 1.341588 1_555
C2 N6 1.342621 1_555
C3 N3 1.337936 1_555
C3 N11 1.341588 1_555
C3 N7 1.342621 1_555
N0 N12 1.402621 1_555
N1 N13 1.402621 1_555
N10 N22 1.402877 1_555
N11 N23 1.402877 1_555
N14 N2 1.402621 1_555
N15 N3 1.402621 1_555
N16 N4 1.402172 1_555
N17 N5 1.402172 1_555
N18 N6 1.402172 1_555
N19 N7 1.402172 1_555
N20 N8 1.402877 1_555
N21 N9 1.402877 1_555
N24 O4 1.264855 1_555
N24 O9 1.264855 1_555
N24 O0 1.280659 1_555
N25 O8 1.264855 1_555
N25 O5 1.264855 1_555
N25 O1 1.280659 1_555
N26 O6 1.264855 1_555
N26 O11 1.264855 1_555
N26 O2 1.280659 1_555
N27 O10 1.264855 1_555
N27 O7 1.264855 1_555
N27 O3 1.280659 1_555
