# generated using pymatgen
data_Tm(BRu)4
_symmetry_space_group_name_H-M   'P 1'
_cell_length_a   9.13961712
_cell_length_b   9.13961712
_cell_length_c   9.13961712
_cell_angle_alpha   132.09151072
_cell_angle_beta   132.09151072
_cell_angle_gamma   70.08453400
_symmetry_Int_Tables_number   1
_chemical_formula_structural   Tm(BRu)4
_chemical_formula_sum   'Tm4 B16 Ru16'
_cell_volume   412.14591106
_cell_formula_units_Z   4
loop_
 _symmetry_equiv_pos_site_id
 _symmetry_equiv_pos_as_xyz
  1  'x, y, z'
loop_
 _atom_site_type_symbol
 _atom_site_label
 _atom_site_symmetry_multiplicity
 _atom_site_fract_x
 _atom_site_fract_y
 _atom_site_fract_z
 _atom_site_occupancy
  Tm  Tm0  1  0.75000000  0.75000000  -0.00000000  1
  Tm  Tm1  1  0.25000000  0.25000000  -0.00000000  1
  Tm  Tm2  1  0.00000000  0.50000000  0.50000000  1
  Tm  Tm3  1  0.50000000  -0.00000000  0.50000000  1
  B  B0  1  0.72143118  0.41373558  0.97263401  1
  B  B1  1  0.22143118  0.24879717  0.30769560  1
  B  B2  1  0.66373558  0.47143118  0.47263401  1
  B  B3  1  0.16373558  0.69110157  0.19230440  1
  B  B4  1  0.02856882  0.83626442  0.52736599  1
  B  B5  1  0.52856882  0.00120283  0.19230440  1
  B  B6  1  0.08626442  0.77856882  0.02736599  1
  B  B7  1  0.58626442  0.55889843  0.30769560  1
  B  B8  1  0.94110157  0.91373558  0.69230440  1
  B  B9  1  0.44110157  0.74879717  0.02736599  1
  B  B10  1  0.49879717  0.97143118  0.80769560  1
  B  B11  1  0.99879717  0.19110157  0.52736599  1
  B  B12  1  0.80889843  0.33626442  0.80769560  1
  B  B13  1  0.30889843  0.50120283  0.47263401  1
  B  B14  1  0.25120283  0.27856882  0.69230440  1
  B  B15  1  0.75120283  0.05889843  0.97263401  1
  Ru  Ru0  1  0.03910360  0.57315755  0.23554560  1
  Ru  Ru1  1  0.53910360  0.30355800  0.46594605  1
  Ru  Ru2  1  0.82315755  0.78910360  0.73554560  1
  Ru  Ru3  1  0.32315755  0.58761195  0.03405395  1
  Ru  Ru4  1  0.71089640  0.67684245  0.26445440  1
  Ru  Ru5  1  0.21089640  0.94644200  0.03405395  1
  Ru  Ru6  1  0.92684245  0.46089640  0.76445440  1
  Ru  Ru7  1  0.42684245  0.66238805  0.46594605  1
  Ru  Ru8  1  0.83761195  0.07315755  0.53405395  1
  Ru  Ru9  1  0.33761195  0.80355800  0.76445440  1
  Ru  Ru10  1  0.55355800  0.28910360  0.96594605  1
  Ru  Ru11  1  0.05355800  0.08761195  0.26445440  1
  Ru  Ru12  1  0.91238805  0.17684245  0.96594605  1
  Ru  Ru13  1  0.41238805  0.44644200  0.73554560  1
  Ru  Ru14  1  0.19644200  0.96089640  0.53405395  1
  Ru  Ru15  1  0.69644200  0.16238805  0.23554560  1
loop_
_geom_bond_atom_site_label_1
_geom_bond_atom_site_label_2
_geom_bond_distance
_geom_bond_site_symmetry_2
B0 B12 1.792179 1_555
B0 Ru4 2.119815 1_556
B0 Ru10 2.151023 1_555
B0 Ru13 2.202420 1_555
B0 Ru12 2.264666 1_555
B0 Ru0 2.271984 1_656
B0 Tm3 2.940988 1_555
B0 Tm0 3.000783 1_556
B0 Tm2 3.186956 1_656
B1 B13 1.792179 1_555
B1 Ru5 2.119815 1_545
B1 Ru11 2.151023 1_555
B1 Ru12 2.202420 1_454
B1 Ru13 2.264666 1_555
B1 Ru1 2.271984 1_555
B1 Tm2 2.940988 1_555
B1 Tm1 3.000783 1_555
B1 Tm3 3.186956 1_555
B2 B7 1.792179 1_555
B2 Ru6 2.119815 1_555
B2 Ru1 2.151023 1_555
B2 Ru15 2.202420 1_555
B2 Ru7 2.264666 1_555
B2 Ru2 2.271984 1_555
B2 Tm1 2.940988 1_555
B2 Tm2 3.000783 1_655
B2 Tm0 3.186956 1_556
B3 B6 1.792179 1_555
B3 Ru7 2.119815 1_555
B3 Ru0 2.151023 1_555
B3 Ru14 2.202420 1_555
B3 Ru6 2.264666 1_454
B3 Ru3 2.271984 1_555
B3 Tm0 2.940988 1_455
B3 Tm3 3.000783 1_565
B3 Tm1 3.186956 1_555
B4 B8 1.792179 1_455
B4 Ru0 2.119815 1_555
B4 Ru14 2.151023 1_555
B4 Ru9 2.202420 1_555
B4 Ru8 2.264666 1_465
B4 Ru4 2.271984 1_455
B4 Tm1 2.940988 1_566
B4 Tm2 3.000783 1_555
B4 Tm0 3.186956 1_455
B5 B9 1.792179 1_545
B5 Ru1 2.119815 1_555
B5 Ru15 2.151023 1_555
B5 Ru8 2.202420 1_555
B5 Ru9 2.264666 1_544
B5 Ru5 2.271984 1_545
B5 Tm0 2.940988 1_545
B5 Tm3 3.000783 1_555
B5 Tm1 3.186956 1_555
B6 Ru2 2.119815 1_454
B6 Ru5 2.151023 1_555
B6 Ru11 2.202420 1_565
B6 Ru3 2.264666 1_555
B6 Ru6 2.271984 1_454
B6 Tm3 2.940988 1_565
B6 Tm0 3.000783 1_455
B6 Tm2 3.186956 1_554
B7 Ru3 2.119815 1_555
B7 Ru4 2.151023 1_555
B7 Ru10 2.202420 1_554
B7 Ru2 2.264666 1_555
B7 Ru7 2.271984 1_555
B7 Tm2 2.940988 1_655
B7 Tm1 3.000783 1_555
B7 Tm3 3.186956 1_565
B8 Ru12 2.119815 1_565
B8 Ru2 2.151023 1_555
B8 Ru5 2.202420 1_656
B8 Ru4 2.264666 1_555
B8 Ru8 2.271984 1_565
B8 Tm2 2.940988 1_655
B8 Tm1 3.000783 1_666
B8 Tm3 3.186956 1_565
B9 Ru13 2.119815 1_554
B9 Ru3 2.151023 1_555
B9 Ru4 2.202420 1_555
B9 Ru5 2.264666 1_555
B9 Ru9 2.271984 1_554
B9 Tm3 2.940988 1_565
B9 Tm0 3.000783 1_555
B9 Tm2 3.186956 1_554
B10 B15 1.792179 1_565
B10 Ru14 2.119815 1_555
B10 Ru9 2.151023 1_555
B10 Ru7 2.202420 1_555
B10 Ru15 2.264666 1_566
B10 Ru10 2.271984 1_565
B10 Tm0 2.940988 1_556
B10 Tm3 3.000783 1_565
B10 Tm1 3.186956 1_566
B11 B14 1.792179 1_655
B11 Ru15 2.119815 1_555
B11 Ru8 2.151023 1_555
B11 Ru6 2.202420 1_555
B11 Ru14 2.264666 1_645
B11 Ru11 2.271984 1_655
B11 Tm1 2.940988 1_656
B11 Tm2 3.000783 1_655
B11 Tm0 3.186956 1_545
B12 Ru8 2.119815 1_555
B12 Ru6 2.151023 1_555
B12 Ru1 2.202420 1_555
B12 Ru0 2.264666 1_656
B12 Ru12 2.271984 1_555
B12 Tm0 2.940988 1_556
B12 Tm3 3.000783 1_555
B12 Tm1 3.186956 1_656
B13 Ru9 2.119815 1_555
B13 Ru7 2.151023 1_555
B13 Ru0 2.202420 1_555
B13 Ru1 2.264666 1_555
B13 Ru13 2.271984 1_555
B13 Tm1 2.940988 1_555
B13 Tm2 3.000783 1_555
B13 Tm0 3.186956 1_556
B14 Ru10 2.119815 1_555
B14 Ru13 2.151023 1_555
B14 Ru3 2.202420 1_556
B14 Ru11 2.264666 1_555
B14 Ru14 2.271984 1_545
B14 Tm2 2.940988 1_555
B14 Tm1 3.000783 1_556
B14 Tm3 3.186956 1_555
B15 Ru11 2.119815 1_656
B15 Ru12 2.151023 1_555
B15 Ru2 2.202420 1_545
B15 Ru10 2.264666 1_555
B15 Ru15 2.271984 1_556
B15 Tm3 2.940988 1_555
B15 Tm0 3.000783 1_546
B15 Tm2 3.186956 1_656
Ru0 Tm0 2.891006 1_455
Ru0 Tm2 3.147093 1_555
Ru0 Tm1 3.198993 1_555
Ru1 Tm1 2.891006 1_555
Ru1 Tm3 3.147093 1_555
Ru1 Tm0 3.198993 1_556
Ru2 Tm2 2.891006 1_655
Ru2 Tm0 3.147093 1_556
Ru2 Tm3 3.198993 1_565
Ru3 Tm3 2.891006 1_565
Ru3 Tm1 3.147093 1_555
Ru3 Tm2 3.198993 1_554
Ru4 Tm2 2.891006 1_655
Ru4 Tm0 3.147093 1_555
Ru4 Tm3 3.198993 1_565
Ru5 Tm3 2.891006 1_565
Ru5 Tm1 3.147093 1_565
Ru5 Tm2 3.198993 1_554
Ru6 Tm0 2.891006 1_556
Ru6 Tm2 3.147093 1_655
Ru6 Tm1 3.198993 1_656
Ru7 Tm1 2.891006 1_555
Ru7 Tm3 3.147093 1_565
Ru7 Tm0 3.198993 1_556
Ru8 Tm1 2.891006 1_656
Ru8 Tm3 3.147093 1_555
Ru8 Tm0 3.198993 1_545
Ru9 Tm0 2.891006 1_556
Ru9 Tm2 3.147093 1_555
Ru9 Tm1 3.198993 1_566
Ru10 Tm3 2.891006 1_555
Ru10 Tm1 3.147093 1_556
Ru10 Tm2 3.198993 1_656
Ru11 Tm2 2.891006 1_555
Ru11 Tm0 3.147093 1_445
Ru11 Tm3 3.198993 1_555
Ru12 Tm3 2.891006 1_555
Ru12 Tm1 3.147093 1_656
Ru12 Tm2 3.198993 1_656
Ru13 Tm2 2.891006 1_555
Ru13 Tm0 3.147093 1_556
Ru13 Tm3 3.198993 1_555
Ru14 Tm1 2.891006 1_566
Ru14 Tm3 3.147093 1_565
Ru14 Tm0 3.198993 1_455
Ru15 Tm0 2.891006 1_545
Ru15 Tm2 3.147093 1_655
Ru15 Tm1 3.198993 1_555
