# generated using pymatgen
data_Li3MnV(PO4)3
_symmetry_space_group_name_H-M   'P 1'
_cell_length_a   8.57711500
_cell_length_b   8.69378892
_cell_length_c   8.70105159
_cell_angle_alpha   119.04543114
_cell_angle_beta   118.82765989
_cell_angle_gamma   89.42556878
_symmetry_Int_Tables_number   1
_chemical_formula_structural   Li3MnV(PO4)3
_chemical_formula_sum   'Li6 Mn2 V2 P6 O24'
_cell_volume   475.18285579
_cell_formula_units_Z   2
loop_
 _symmetry_equiv_pos_site_id
 _symmetry_equiv_pos_as_xyz
  1  'x, y, z'
loop_
 _atom_site_type_symbol
 _atom_site_label
 _atom_site_symmetry_multiplicity
 _atom_site_fract_x
 _atom_site_fract_y
 _atom_site_fract_z
 _atom_site_occupancy
  Li  Li0  1  0.28693700  0.89142600  0.62886700  1
  Li  Li1  1  0.32239200  0.34399300  0.38292600  1
  Li  Li2  1  0.78001700  0.73223300  0.62606000  1
  Li  Li3  1  0.24577900  0.36631200  0.98228700  1
  Li  Li4  1  0.74730300  0.62119200  0.98242400  1
  Li  Li5  1  0.82399600  0.04104100  0.38667800  1
  Mn  Mn0  1  0.14006600  0.85394100  0.20818900  1
  Mn  Mn1  1  0.86360100  0.15417500  0.80127400  1
  V  V0  1  0.64351000  0.35946600  0.21172300  1
  V  V1  1  0.35739600  0.63921100  0.79297900  1
  P  P0  1  0.05028300  0.53307600  0.28066000  1
  P  P1  1  0.54246300  0.75261800  0.27802300  1
  P  P2  1  0.74627600  0.95061500  0.99590600  1
  P  P3  1  0.46482600  0.24927300  0.72812400  1
  P  P4  1  0.24547000  0.04646200  0.00072700  1
  P  P5  1  0.95472600  0.46902100  0.72042700  1
  O  O0  1  0.08305900  0.73083100  0.32383600  1
  O  O1  1  0.07435500  0.39106300  0.10443900  1
  O  O2  1  0.34468300  0.75505100  0.22931400  1
  O  O3  1  0.55233000  0.70733600  0.08716600  1
  O  O4  1  0.20795200  0.55169400  0.48508700  1
  O  O5  1  0.90490200  0.92549200  0.16824400  1
  O  O6  1  0.69912100  0.93065700  0.46966200  1
  O  O7  1  0.19347900  0.01521100  0.13286500  1
  O  O8  1  0.30347800  0.89036800  0.87432400  1
  O  O9  1  0.57746400  0.59813900  0.32338100  1
  O  O10  1  0.39843600  0.23670300  0.16512900  1
  O  O11  1  0.15837400  0.52108400  0.78520300  1
  O  O12  1  0.85405400  0.48051700  0.23002200  1
  O  O13  1  0.58585300  0.76820200  0.83114200  1
  O  O14  1  0.41923000  0.39549700  0.67055300  1
  O  O15  1  0.69400200  0.11258800  0.12392700  1
  O  O16  1  0.80592200  0.97925100  0.86767000  1
  O  O17  1  0.32822600  0.05863800  0.55008200  1
  O  O18  1  0.07938100  0.06324200  0.82720500  1
  O  O19  1  0.81420600  0.47229000  0.52609900  1
  O  O20  1  0.45575400  0.30293800  0.92192400  1
  O  O21  1  0.66925700  0.26420300  0.78904000  1
  O  O22  1  0.93318500  0.60697600  0.89960900  1
  O  O23  1  0.91934200  0.26897800  0.66880400  1
loop_
_geom_bond_atom_site_label_1
_geom_bond_atom_site_label_2
_geom_bond_distance
_geom_bond_site_symmetry_2
Li0 O17 1.980071 1_565
Li0 O0 2.006613 1_555
Li0 O8 2.075673 1_555
Li0 O4 2.526357 1_555
Li1 O14 2.017035 1_555
Li1 O4 2.064345 1_555
Li1 O10 2.085690 1_555
Li1 O7 2.414819 1_555
Li1 O1 2.557166 1_555
Li2 O9 1.990064 1_555
Li2 O16 2.063028 1_555
Li2 O19 2.067286 1_555
Li2 O6 2.579532 1_555
Li3 O20 2.105767 1_555
Li3 O1 2.148585 1_556
Li3 O10 2.284152 1_556
Li3 O18 2.359234 1_555
Li3 O11 2.508732 1_555
Li3 O23 2.537100 1_455
Li4 O22 2.023329 1_555
Li4 O3 2.229342 1_556
Li4 O13 2.263628 1_555
Li4 O5 2.291476 1_556
Li5 O23 1.998688 1_555
Li5 O6 2.007164 1_545
Li5 O5 2.122968 1_545
Li5 O15 2.401155 1_555
Mn0 O2 1.914452 1_555
Mn0 O7 1.949322 1_565
Mn0 O0 1.981884 1_555
Mn0 O5 2.021106 1_455
Mn0 O22 2.202687 1_454
Mn0 O17 2.215487 1_565
Mn1 O21 1.897555 1_555
Mn1 O18 1.960202 1_655
Mn1 O16 2.008726 1_545
Mn1 O23 2.052151 1_555
Mn1 O1 2.160674 1_656
Mn1 O6 2.185607 1_545
O0 P0 1.567368 1_555
O1 P0 1.542718 1_555
O2 P1 1.540271 1_555
O3 P1 1.555630 1_555
O3 V1 2.029542 1_554
O4 P0 1.556932 1_555
O4 V1 2.031672 1_555
O5 P2 1.578602 1_554
O6 P1 1.535122 1_555
O7 P4 1.547497 1_555
O8 P4 1.537428 1_566
O8 V1 2.068161 1_555
O9 P1 1.562651 1_555
O9 V0 2.029781 1_555
O10 P4 1.561854 1_555
O10 V0 2.127200 1_555
O11 P5 1.546704 1_455
O11 V1 1.956915 1_555
O12 P0 1.529860 1_655
O12 V0 1.998032 1_555
O13 P2 1.548340 1_555
O13 V1 2.064582 1_555
O14 P3 1.561850 1_555
O14 V1 2.058159 1_555
O15 P2 1.539685 1_544
O15 V0 2.021409 1_555
O16 P2 1.546430 1_555
O17 P3 1.521493 1_555
O18 P4 1.570275 1_556
O19 P5 1.546982 1_555
O19 V0 2.037029 1_555
O20 P3 1.558556 1_555
O20 V0 2.022322 1_556
O21 P3 1.553643 1_555
O22 P5 1.536544 1_555
O23 P5 1.561743 1_555
