# generated using pymatgen
data_HoB2Ru
_symmetry_space_group_name_H-M   'P 1'
_cell_length_a   5.28715239
_cell_length_b   5.86925528
_cell_length_c   6.32571899
_cell_angle_alpha   90.00000000
_cell_angle_beta   90.00000000
_cell_angle_gamma   90.00000000
_symmetry_Int_Tables_number   1
_chemical_formula_structural   HoB2Ru
_chemical_formula_sum   'Ho4 B8 Ru4'
_cell_volume   196.29747923
_cell_formula_units_Z   4
loop_
 _symmetry_equiv_pos_site_id
 _symmetry_equiv_pos_as_xyz
  1  'x, y, z'
loop_
 _atom_site_type_symbol
 _atom_site_label
 _atom_site_symmetry_multiplicity
 _atom_site_fract_x
 _atom_site_fract_y
 _atom_site_fract_z
 _atom_site_occupancy
  Ho  Ho0  1  0.25000000  0.51019635  0.83612958  1
  Ho  Ho1  1  0.25000000  0.01019635  0.66387042  1
  Ho  Ho2  1  0.75000000  0.48980465  0.16386842  1
  Ho  Ho3  1  0.75000000  0.98980465  0.33613158  1
  B  B0  1  0.08405802  0.86809718  0.03852640  1
  B  B1  1  0.41594098  0.36809618  0.46147360  1
  B  B2  1  0.58405902  0.13190282  0.96147160  1
  B  B3  1  0.91594098  0.63190282  0.53852840  1
  B  B4  1  0.91594098  0.13190282  0.96147160  1
  B  B5  1  0.58405902  0.63190282  0.53852840  1
  B  B6  1  0.41594198  0.86809718  0.03852640  1
  B  B7  1  0.08405902  0.36809618  0.46147360  1
  Ru  Ru0  1  0.25000000  0.68135099  0.31831867  1
  Ru  Ru1  1  0.25000000  0.18135199  0.18168133  1
  Ru  Ru2  1  0.75000000  0.31864801  0.68168333  1
  Ru  Ru3  1  0.75000000  0.81864801  0.81831667  1
loop_
_geom_bond_atom_site_label_1
_geom_bond_atom_site_label_2
_geom_bond_distance
_geom_bond_site_symmetry_2
Ho0 Ru1 2.916020 1_556
Ho1 Ru0 2.916024 1_545
Ho2 Ru3 2.916016 1_554
Ho3 Ru2 2.916016 1_565
B0 B6 1.754721 1_555
B0 B4 1.850682 1_464
B0 Ru1 2.229382 1_565
B0 Ru0 2.259118 1_555
B0 Ru3 2.268074 1_454
B0 Ho0 2.611802 1_554
B0 Ho1 2.661221 1_564
B0 Ho3 2.678404 1_455
B0 Ho2 2.945825 1_455
B1 B7 1.754710 1_555
B1 B5 1.850689 1_555
B1 Ru0 2.229380 1_555
B1 Ru1 2.259110 1_555
B1 Ru2 2.268077 1_555
B1 Ho1 2.611796 1_555
B1 Ho0 2.661221 1_555
B1 Ho2 2.678409 1_555
B1 Ho3 2.945824 1_545
B2 B4 1.754710 1_555
B2 B6 1.850682 1_546
B2 Ru3 2.229380 1_545
B2 Ru2 2.259093 1_555
B2 Ru1 2.268078 1_556
B2 Ho2 2.611805 1_556
B2 Ho3 2.661240 1_546
B2 Ho1 2.678388 1_555
B2 Ho0 2.945833 1_555
B3 B5 1.754710 1_555
B3 B7 1.850689 1_655
B3 Ru2 2.229380 1_555
B3 Ru3 2.259093 1_555
B3 Ru0 2.268077 1_655
B3 Ho3 2.611805 1_555
B3 Ho2 2.661240 1_555
B3 Ho0 2.678388 1_655
B3 Ho1 2.945833 1_665
B4 Ru3 2.229380 1_545
B4 Ru2 2.259093 1_555
B4 Ru1 2.268078 1_656
B4 Ho2 2.611805 1_556
B4 Ho3 2.661240 1_546
B4 Ho1 2.678388 1_655
B4 Ho0 2.945833 1_655
B5 Ru2 2.229380 1_555
B5 Ru3 2.259093 1_555
B5 Ru0 2.268077 1_555
B5 Ho3 2.611805 1_555
B5 Ho2 2.661240 1_555
B5 Ho0 2.678388 1_555
B5 Ho1 2.945833 1_565
B6 Ru1 2.229382 1_565
B6 Ru0 2.259118 1_555
B6 Ru3 2.268074 1_554
B6 Ho0 2.611802 1_554
B6 Ho1 2.661221 1_564
B6 Ho3 2.678404 1_555
B6 Ho2 2.945825 1_555
B7 Ru0 2.229380 1_555
B7 Ru1 2.259110 1_555
B7 Ru2 2.268077 1_455
B7 Ho1 2.611796 1_555
B7 Ho0 2.661221 1_555
B7 Ho2 2.678409 1_455
B7 Ho3 2.945824 1_445
