# generated using pymatgen
data_Nd2In3Cu
_symmetry_space_group_name_H-M   'P 1'
_cell_length_a   3.81601700
_cell_length_b   4.82727118
_cell_length_c   8.39617915
_cell_angle_alpha   90.02603719
_cell_angle_beta   90.00000000
_cell_angle_gamma   90.00000000
_symmetry_Int_Tables_number   1
_chemical_formula_structural   Nd2In3Cu
_chemical_formula_sum   'Nd2 In3 Cu1'
_cell_volume   154.66557097
_cell_formula_units_Z   1
loop_
 _symmetry_equiv_pos_site_id
 _symmetry_equiv_pos_as_xyz
  1  'x, y, z'
loop_
 _atom_site_type_symbol
 _atom_site_label
 _atom_site_symmetry_multiplicity
 _atom_site_fract_x
 _atom_site_fract_y
 _atom_site_fract_z
 _atom_site_occupancy
  Nd  Nd0  1  0.00000000  0.00002800  0.00785700  1
  Nd  Nd1  1  0.00000000  0.49995900  0.49683100  1
  In  In0  1  0.50000000  0.49995600  0.83735200  1
  In  In1  1  0.50000000  0.49984700  0.18186500  1
  In  In2  1  0.50000000  0.99996400  0.64726900  1
  Cu  Cu0  1  0.50000000  0.00004600  0.32882600  1
loop_
_geom_bond_atom_site_label_1
_geom_bond_atom_site_label_2
_geom_bond_distance
_geom_bond_site_symmetry_2
In0 In1 2.892593 1_556
In0 In2 2.892935 1_545
In0 In2 2.894209 1_555
In0 Nd0 3.393246 1_566
In0 Nd0 3.393246 1_666
In0 Nd0 3.393677 1_556
In0 Nd0 3.393677 1_656
In0 Nd1 3.437268 1_555
In0 Nd1 3.437268 1_655
In1 Nd1 3.260971 1_555
In1 Nd1 3.260971 1_655
In1 Nd0 3.404885 1_655
In1 Nd0 3.404885 1_555
In1 Nd0 3.407064 1_565
In1 Nd0 3.407064 1_665
In2 Nd1 3.325494 1_555
In2 Nd1 3.325494 1_655
In2 Nd1 3.326292 1_665
In2 Nd1 3.326292 1_565
In2 Nd0 3.578634 1_566
In2 Nd0 3.578634 1_666
Cu0 In2 2.673705 1_545
Cu0 In1 2.710395 1_555
Cu0 In1 2.711107 1_545
Cu0 Nd0 3.301977 1_655
Cu0 Nd0 3.301977 1_555
Cu0 Nd1 3.383904 1_555
Cu0 Nd1 3.383904 1_655
Cu0 Nd1 3.385417 1_545
Cu0 Nd1 3.385417 1_645
