# generated using pymatgen
data_CaPd2Pb
_symmetry_space_group_name_H-M   'P 1'
_cell_length_a   11.07435034
_cell_length_b   11.07435034
_cell_length_c   11.07435034
_cell_angle_alpha   125.39692408
_cell_angle_beta   118.80813813
_cell_angle_gamma   86.49615347
_symmetry_Int_Tables_number   1
_chemical_formula_structural   CaPd2Pb
_chemical_formula_sum   'Ca1 Pd2 Pb1'
_cell_volume   923.81632032
_cell_formula_units_Z   1
loop_
 _symmetry_equiv_pos_site_id
 _symmetry_equiv_pos_as_xyz
  1  'x, y, z'
loop_
 _atom_site_type_symbol
 _atom_site_label
 _atom_site_symmetry_multiplicity
 _atom_site_fract_x
 _atom_site_fract_y
 _atom_site_fract_z
 _atom_site_occupancy
  Ca  Ca0  1  0.00000000  0.00000000  0.00000000  1
  Pd  Pd0  1  0.00000000  0.24285900  0.24285900  1
  Pd  Pd1  1  0.00000000  0.75714100  0.75714100  1
  Pb  Pb0  1  0.00000000  0.50000000  0.50000000  1
loop_
_geom_bond_atom_site_label_1
_geom_bond_atom_site_label_2
_geom_bond_distance
_geom_bond_site_symmetry_2
Ca0 Pd0 2.467209 1_555
Ca0 Pd1 2.467209 1_544
Pb0 Pd1 2.612301 1_555
Pb0 Pd0 2.612301 1_555
