# generated using pymatgen
data_Ba3Y2MoO9
_symmetry_space_group_name_H-M   'P 1'
_cell_length_a   6.09949885
_cell_length_b   8.64772700
_cell_length_c   10.58033854
_cell_angle_alpha   65.87870388
_cell_angle_beta   73.24697647
_cell_angle_gamma   90.00000000
_symmetry_Int_Tables_number   1
_chemical_formula_structural   Ba3Y2MoO9
_chemical_formula_sum   'Ba6 Y4 Mo2 O18'
_cell_volume   483.27929412
_cell_formula_units_Z   2
loop_
 _symmetry_equiv_pos_site_id
 _symmetry_equiv_pos_as_xyz
  1  'x, y, z'
loop_
 _atom_site_type_symbol
 _atom_site_label
 _atom_site_symmetry_multiplicity
 _atom_site_fract_x
 _atom_site_fract_y
 _atom_site_fract_z
 _atom_site_occupancy
  Ba  Ba0  1  0.50000000  0.26325300  0.00000000  1
  Ba  Ba1  1  0.83859300  0.57969300  0.32281300  1
  Ba  Ba2  1  0.16140700  0.90250700  0.67718700  1
  Ba  Ba3  1  0.50000000  0.73674700  0.00000000  1
  Ba  Ba4  1  0.83859300  0.09749300  0.32281300  1
  Ba  Ba5  1  0.16140700  0.42030700  0.67718700  1
  Y  Y0  1  0.00000000  0.00000000  0.00000000  1
  Y  Y1  1  0.32883100  0.32883100  0.34233700  1
  Y  Y2  1  0.67116900  0.67116900  0.65766300  1
  Y  Y3  1  0.00000000  0.50000000  0.00000000  1
  Mo  Mo0  1  0.33395900  0.83395900  0.33208100  1
  Mo  Mo1  1  0.66604100  0.16604100  0.66791900  1
  O  O0  1  0.00000000  0.24635900  0.00000000  1
  O  O1  1  0.32977300  0.60147200  0.34045200  1
  O  O2  1  0.67022700  0.94192500  0.65954800  1
  O  O3  1  0.16076100  0.41070400  0.17859300  1
  O  O4  1  0.49011100  0.75991800  0.48016400  1
  O  O5  1  0.81674600  0.08988300  0.82023300  1
  O  O6  1  0.33935300  0.58929600  0.82140700  1
  O  O7  1  0.63698000  0.91011700  0.17976700  1
  O  O8  1  0.97027500  0.24008200  0.51983600  1
  O  O9  1  0.00000000  0.75364100  0.00000000  1
  O  O10  1  0.32977300  0.05807500  0.34045200  1
  O  O11  1  0.67022700  0.39852800  0.65954800  1
  O  O12  1  0.83923900  0.58929600  0.82140700  1
  O  O13  1  0.18325400  0.91011700  0.17976700  1
  O  O14  1  0.50988900  0.24008200  0.51983600  1
  O  O15  1  0.66064700  0.41070400  0.17859300  1
  O  O16  1  0.02972500  0.75991800  0.48016400  1
  O  O17  1  0.36302000  0.08988300  0.82023300  1
loop_
_geom_bond_atom_site_label_1
_geom_bond_atom_site_label_2
_geom_bond_distance
_geom_bond_site_symmetry_2
Ba0 O12 3.032031 1_554
Ba0 O6 3.032034 1_554
Ba0 O3 3.032037 1_555
Ba0 O15 3.032040 1_555
Ba0 O0 3.053247 1_555
Ba0 O0 3.053247 1_655
Ba0 O13 3.132126 1_545
Ba0 O7 3.132128 1_545
Ba0 O5 3.132132 1_554
Ba0 O17 3.132135 1_554
Ba0 O11 3.133915 1_554
Ba0 O10 3.133916 1_555
Ba1 O15 2.901617 1_555
Ba1 O3 2.901623 1_655
Ba1 O9 2.959681 1_655
Ba1 O1 3.065467 1_655
Ba1 O1 3.065473 1_555
Ba1 O7 3.083174 1_555
Ba1 O13 3.083180 1_655
Ba1 O11 3.087234 1_555
Ba1 O14 3.094689 1_555
Ba1 O8 3.094692 1_555
Ba1 O4 3.130403 1_555
Ba1 O16 3.130406 1_655
Ba2 O6 2.901629 1_555
Ba2 O12 2.901636 1_455
Ba2 O9 2.959680 1_556
Ba2 O2 3.065467 1_455
Ba2 O2 3.065473 1_555
Ba2 O17 3.083161 1_565
Ba2 O5 3.083168 1_465
Ba2 O10 3.087235 1_565
Ba2 O4 3.094695 1_555
Ba2 O16 3.094698 1_555
Ba2 O14 3.130397 1_565
Ba2 O8 3.130400 1_465
Ba3 O3 3.032031 1_555
Ba3 O15 3.032034 1_555
Ba3 O12 3.032037 1_554
Ba3 O6 3.032040 1_554
Ba3 O9 3.053247 1_555
Ba3 O9 3.053247 1_655
Ba3 O5 3.132126 1_564
Ba3 O17 3.132128 1_564
Ba3 O13 3.132132 1_555
Ba3 O7 3.132135 1_555
Ba3 O1 3.133915 1_555
Ba3 O2 3.133916 1_554
Ba4 O15 2.901629 1_555
Ba4 O3 2.901636 1_655
Ba4 O0 2.959680 1_655
Ba4 O10 3.065467 1_655
Ba4 O10 3.065473 1_555
Ba4 O7 3.083161 1_545
Ba4 O13 3.083168 1_645
Ba4 O2 3.087235 1_545
Ba4 O14 3.094695 1_555
Ba4 O8 3.094698 1_555
Ba4 O4 3.130397 1_545
Ba4 O16 3.130400 1_645
Ba5 O6 2.901617 1_555
Ba5 O12 2.901623 1_455
Ba5 O0 2.959681 1_556
Ba5 O11 3.065467 1_455
Ba5 O11 3.065473 1_555
Ba5 O17 3.083174 1_555
Ba5 O5 3.083180 1_455
Ba5 O1 3.087234 1_555
Ba5 O4 3.094689 1_555
Ba5 O16 3.094692 1_555
Ba5 O14 3.130403 1_555
Ba5 O8 3.130406 1_455
Mo0 O16 1.952490 1_555
Mo0 O4 1.952494 1_555
Mo0 O13 1.965268 1_555
Mo0 O7 1.965276 1_555
Mo0 O1 1.975778 1_555
Mo0 O10 1.975778 1_565
Mo1 O8 1.952490 1_555
Mo1 O14 1.952494 1_555
Mo1 O5 1.965268 1_555
Mo1 O17 1.965276 1_555
Mo1 O11 1.975778 1_555
Mo1 O2 1.975778 1_545
O0 Y0 2.130445 1_555
O0 Y3 2.193418 1_555
O1 Y1 2.349638 1_555
O2 Y2 2.349638 1_555
O3 Y1 2.138914 1_555
O3 Y3 2.236925 1_555
O4 Y2 2.313680 1_555
O5 Y0 2.342734 1_656
O6 Y2 2.138923 1_555
O6 Y3 2.236921 1_556
O7 Y0 2.342730 1_665
O8 Y1 2.313676 1_655
O9 Y0 2.130445 1_565
O9 Y3 2.193418 1_555
O10 Y1 2.349638 1_555
O11 Y2 2.349638 1_555
O12 Y2 2.138914 1_555
O12 Y3 2.236925 1_656
O13 Y0 2.342734 1_565
O14 Y1 2.313680 1_555
O15 Y1 2.138923 1_555
O15 Y3 2.236921 1_655
O16 Y2 2.313676 1_455
O17 Y0 2.342730 1_556
