# generated using pymatgen
data_Ba6Cu3Hg3O13
_symmetry_space_group_name_H-M   'P 1'
_cell_length_a   8.76340229
_cell_length_b   8.76340229
_cell_length_c   11.25204496
_cell_angle_alpha   62.06616965
_cell_angle_beta   62.06616965
_cell_angle_gamma   36.63489893
_symmetry_Int_Tables_number   1
_chemical_formula_structural   Ba6Cu3Hg3O13
_chemical_formula_sum   'Ba6 Cu3 Hg3 O13'
_cell_volume   448.48517602
_cell_formula_units_Z   1
loop_
 _symmetry_equiv_pos_site_id
 _symmetry_equiv_pos_as_xyz
  1  'x, y, z'
loop_
 _atom_site_type_symbol
 _atom_site_label
 _atom_site_symmetry_multiplicity
 _atom_site_fract_x
 _atom_site_fract_y
 _atom_site_fract_z
 _atom_site_occupancy
  Ba  Ba0  1  0.09328400  0.09328400  0.72015300  1
  Ba  Ba1  1  0.43101500  0.43101500  0.70619900  1
  Ba  Ba2  1  0.76573900  0.76573900  0.70351900  1
  Ba  Ba3  1  0.23426100  0.23426100  0.29648100  1
  Ba  Ba4  1  0.56898500  0.56898500  0.29380100  1
  Ba  Ba5  1  0.90671600  0.90671600  0.27984700  1
  Cu  Cu0  1  0.33293900  0.33293900  0.49880500  1
  Cu  Cu1  1  0.66706100  0.66706100  0.50119500  1
  Cu  Cu2  1  0.00000000  0.00000000  0.50000000  1
  Hg  Hg0  1  0.50000000  0.50000000  0.00000000  1
  Hg  Hg1  1  0.83666100  0.83666100  0.00005400  1
  Hg  Hg2  1  0.16333900  0.16333900  0.99994600  1
  O  O0  1  0.23984200  0.23984200  0.79152000  1
  O  O1  1  0.56957700  0.56957700  0.79133200  1
  O  O2  1  0.89910800  0.89910800  0.79165400  1
  O  O3  1  0.43042300  0.43042300  0.20866800  1
  O  O4  1  0.76015800  0.76015800  0.20848000  1
  O  O5  1  0.10089200  0.10089200  0.20834600  1
  O  O6  1  0.50000000  0.00000000  0.50000000  1
  O  O7  1  0.82971900  0.33503300  0.49901600  1
  O  O8  1  0.17028100  0.66496700  0.50098400  1
  O  O9  1  0.00000000  0.50000000  0.50000000  1
  O  O10  1  0.33503300  0.82971900  0.49901600  1
  O  O11  1  0.66496700  0.17028100  0.50098400  1
  O  O12  1  0.00000000  0.00000000  0.00000000  1
loop_
_geom_bond_atom_site_label_1
_geom_bond_atom_site_label_2
_geom_bond_distance
_geom_bond_site_symmetry_2
Ba0 O12 2.738781 1_556
Ba0 O1 2.840906 1_455
Ba0 O1 2.840906 1_545
Ba0 O9 2.908140 1_555
Ba0 O6 2.908140 1_555
Ba0 O2 2.918957 1_445
Ba0 O0 2.919569 1_555
Ba0 O7 2.933749 1_455
Ba0 O10 2.933749 1_545
Ba1 O11 2.783085 1_555
Ba1 O8 2.783085 1_555
Ba1 O10 2.799871 1_555
Ba1 O7 2.799871 1_555
Ba1 O0 2.832993 1_555
Ba1 O2 2.878907 1_545
Ba1 O2 2.878907 1_455
Ba1 O1 2.900428 1_555
Ba2 O6 2.793013 1_565
Ba2 O9 2.793013 1_655
Ba2 O11 2.798778 1_565
Ba2 O8 2.798778 1_655
Ba2 O2 2.842479 1_555
Ba2 O0 2.886269 1_565
Ba2 O0 2.886269 1_655
Ba2 O1 2.906283 1_555
Ba3 O9 2.793013 1_555
Ba3 O6 2.793013 1_555
Ba3 O7 2.798778 1_455
Ba3 O10 2.798778 1_545
Ba3 O5 2.842479 1_555
Ba3 O4 2.886269 1_545
Ba3 O4 2.886269 1_455
Ba3 O3 2.906283 1_555
Ba4 O10 2.783085 1_555
Ba4 O7 2.783085 1_555
Ba4 O11 2.799871 1_555
Ba4 O8 2.799871 1_555
Ba4 O4 2.832993 1_555
Ba4 O5 2.878907 1_565
Ba4 O5 2.878907 1_655
Ba4 O3 2.900428 1_555
Ba5 O12 2.738781 1_665
Ba5 O3 2.840906 1_655
Ba5 O3 2.840906 1_565
Ba5 O9 2.908140 1_655
Ba5 O6 2.908140 1_565
Ba5 O5 2.918957 1_665
Ba5 O4 2.919569 1_555
Ba5 O11 2.933749 1_565
Ba5 O8 2.933749 1_655
Cu0 O6 1.944900 1_555
Cu0 O9 1.944900 1_555
Cu0 O8 1.968856 1_555
Cu0 O11 1.968856 1_555
Cu1 O9 1.944900 1_655
Cu1 O6 1.944900 1_565
Cu1 O10 1.968856 1_555
Cu1 O7 1.968856 1_555
Cu2 O10 1.949531 1_545
Cu2 O11 1.949531 1_455
Cu2 O8 1.949531 1_545
Cu2 O7 1.949531 1_455
Hg0 O3 2.042173 1_555
Hg0 O1 2.042173 1_554
Hg1 O2 2.042965 1_554
Hg1 O4 2.043080 1_555
Hg2 O5 2.042965 1_556
Hg2 O0 2.043080 1_555
