# generated using pymatgen
data_Y6Ge2O13F3
_symmetry_space_group_name_H-M   'P 1'
_cell_length_a   5.45092100
_cell_length_b   6.01683001
_cell_length_c   10.35552763
_cell_angle_alpha   89.04831717
_cell_angle_beta   89.54984667
_cell_angle_gamma   74.29997908
_symmetry_Int_Tables_number   1
_chemical_formula_structural   Y6Ge2O13F3
_chemical_formula_sum   'Y6 Ge2 O13 F3'
_cell_volume   326.91474143
_cell_formula_units_Z   1
loop_
 _symmetry_equiv_pos_site_id
 _symmetry_equiv_pos_as_xyz
  1  'x, y, z'
loop_
 _atom_site_type_symbol
 _atom_site_label
 _atom_site_symmetry_multiplicity
 _atom_site_fract_x
 _atom_site_fract_y
 _atom_site_fract_z
 _atom_site_occupancy
  Y  Y0  1  0.71262100  0.80729000  0.75191200  1
  Y  Y1  1  0.28268900  0.18911000  0.25176300  1
  Y  Y2  1  0.81184800  0.30420500  0.96020700  1
  Y  Y3  1  0.18412200  0.70132100  0.45177900  1
  Y  Y4  1  0.18041300  0.70933500  0.04415300  1
  Y  Y5  1  0.80731400  0.29918400  0.54955200  1
  Ge  Ge0  1  0.69270700  0.51723900  0.25208200  1
  Ge  Ge1  1  0.30393200  0.48145000  0.74844800  1
  O  O0  1  0.51018600  0.39538600  0.12896400  1
  O  O1  1  0.48454700  0.61066200  0.62463100  1
  O  O2  1  0.48774900  0.60209800  0.87421700  1
  O  O3  1  0.50847400  0.39224100  0.37770800  1
  O  O4  1  0.95841800  0.46370300  0.13206800  1
  O  O5  1  0.03770500  0.53587800  0.62933400  1
  O  O6  1  0.04733100  0.52974400  0.87005000  1
  O  O7  1  0.95463500  0.45875600  0.37276900  1
  O  O8  1  0.52911900  0.81809200  0.25064400  1
  O  O9  1  0.47889400  0.18414500  0.73390300  1
  O  O10  1  0.90300600  0.11452000  0.76124500  1
  O  O11  1  0.10313600  0.87389800  0.24911500  1
  O  O12  1  0.79521900  0.93837100  0.95725800  1
  F  F0  1  0.21189900  0.06635000  0.47777600  1
  F  F1  1  0.22345400  0.07291500  0.02579800  1
  F  F2  1  0.79058100  0.93410800  0.52462200  1
loop_
_geom_bond_atom_site_label_1
_geom_bond_atom_site_label_2
_geom_bond_distance
_geom_bond_site_symmetry_2
Ge0 O8 1.788253 1_555
Ge0 O7 1.861656 1_555
Ge0 O4 1.865107 1_555
Ge0 O0 1.897007 1_555
Ge0 O3 1.903226 1_555
Ge1 O9 1.793198 1_555
Ge1 O6 1.841484 1_555
Ge1 O5 1.868737 1_555
Ge1 O1 1.891826 1_555
Ge1 O2 1.916433 1_555
O0 Y1 2.334739 1_555
O0 Y2 2.357390 1_554
O0 Y4 2.388062 1_555
O1 Y5 2.335508 1_555
O1 Y0 2.357137 1_555
O1 Y3 2.390282 1_555
O2 Y0 2.318086 1_555
O2 Y2 2.320463 1_555
O2 Y4 2.392914 1_556
O3 Y3 2.327937 1_555
O3 Y1 2.366804 1_555
O3 Y5 2.377514 1_555
O4 Y2 2.284881 1_554
O4 Y4 2.320188 1_655
O4 Y1 2.403392 1_655
O5 Y5 2.304615 1_455
O5 Y3 2.314027 1_555
O5 Y0 2.426007 1_455
O6 Y2 2.289673 1_455
O6 Y4 2.335360 1_556
O6 Y0 2.435650 1_455
O7 Y5 2.292132 1_555
O7 Y3 2.325531 1_655
O7 Y1 2.421214 1_655
O8 Y1 2.272806 1_565
O9 Y0 2.285959 1_545
O10 Y0 2.355673 1_545
O10 Y2 2.355770 1_555
O10 Y5 2.436331 1_555
O11 Y3 2.317689 1_555
O11 Y4 2.343678 1_555
O11 Y1 2.358477 1_565
O12 Y2 2.228119 1_565
O12 Y4 2.353703 1_656
O12 Y0 2.368447 1_555
F0 Y3 2.262624 1_545
F0 Y5 2.390697 1_455
F0 Y1 2.500992 1_555
F1 Y4 2.267160 1_545
F1 Y2 2.394708 1_454
F1 Y1 2.501391 1_555
F2 Y5 2.242244 1_565
F2 Y3 2.348637 1_655
F2 Y0 2.530390 1_555
