# generated using pymatgen
data_NaHoP2O7
_symmetry_space_group_name_H-M   'P 1'
_cell_length_a   5.35232373
_cell_length_b   8.61441700
_cell_length_c   13.92734329
_cell_angle_alpha   69.77076643
_cell_angle_beta   90.00000000
_cell_angle_gamma   90.00000000
_symmetry_Int_Tables_number   1
_chemical_formula_structural   NaHoP2O7
_chemical_formula_sum   'Na4 Ho4 P8 O28'
_cell_volume   602.54016339
_cell_formula_units_Z   4
loop_
 _symmetry_equiv_pos_site_id
 _symmetry_equiv_pos_as_xyz
  1  'x, y, z'
loop_
 _atom_site_type_symbol
 _atom_site_label
 _atom_site_symmetry_multiplicity
 _atom_site_fract_x
 _atom_site_fract_y
 _atom_site_fract_z
 _atom_site_occupancy
  Na  Na0  1  0.22257007  0.94679498  0.33393430  1
  Na  Na1  1  0.27742993  0.94679498  0.83393430  1
  Na  Na2  1  0.77742993  0.05320502  0.66606570  1
  Na  Na3  1  0.72257007  0.05320502  0.16606570  1
  Ho  Ho0  1  0.73351625  0.24740885  0.85268462  1
  Ho  Ho1  1  0.76648375  0.24740885  0.35268462  1
  Ho  Ho2  1  0.26648375  0.75259115  0.14731538  1
  Ho  Ho3  1  0.23351625  0.75259115  0.64731538  1
  P  P0  1  0.21451210  0.18884247  0.02238177  1
  P  P1  1  0.28548790  0.18884247  0.52238177  1
  P  P2  1  0.78548790  0.81115753  0.97761823  1
  P  P3  1  0.71451210  0.81115753  0.47761823  1
  P  P4  1  0.24477299  0.31384583  0.18719962  1
  P  P5  1  0.25522701  0.31384583  0.68719962  1
  P  P6  1  0.75522701  0.68615417  0.81280038  1
  P  P7  1  0.74477299  0.68615417  0.31280038  1
  O  O0  1  0.36273219  0.23599654  0.92467133  1
  O  O1  1  0.13726781  0.23599654  0.42467133  1
  O  O2  1  0.63726781  0.76400346  0.07532867  1
  O  O3  1  0.86273219  0.76400346  0.57532867  1
  O  O4  1  0.30223160  0.02991792  0.10354463  1
  O  O5  1  0.19776840  0.02991792  0.60354463  1
  O  O6  1  0.69776840  0.97008208  0.89645537  1
  O  O7  1  0.80223160  0.97008208  0.39645537  1
  O  O8  1  0.93462524  0.18689323  0.00337557  1
  O  O9  1  0.56537476  0.18689323  0.50337557  1
  O  O10  1  0.06537476  0.81310677  0.99662443  1
  O  O11  1  0.43462524  0.81310677  0.49662443  1
  O  O12  1  0.27124089  0.33178883  0.06913062  1
  O  O13  1  0.22875911  0.33178883  0.56913062  1
  O  O14  1  0.72875911  0.66821117  0.93086938  1
  O  O15  1  0.77124089  0.66821117  0.43086938  1
  O  O16  1  0.23339052  0.48761339  0.18768129  1
  O  O17  1  0.26660948  0.48761339  0.68768129  1
  O  O18  1  0.76660948  0.51238661  0.81231871  1
  O  O19  1  0.73339052  0.51238661  0.31231871  1
  O  O20  1  0.00669229  0.21584125  0.22629348  1
  O  O21  1  0.49330771  0.21584125  0.72629348  1
  O  O22  1  0.99330771  0.78415875  0.77370652  1
  O  O23  1  0.50669229  0.78415875  0.27370652  1
  O  O24  1  0.47013260  0.21650752  0.24416478  1
  O  O25  1  0.02986740  0.21650752  0.74416478  1
  O  O26  1  0.52986740  0.78349248  0.75583522  1
  O  O27  1  0.97013260  0.78349248  0.25583522  1
loop_
_geom_bond_atom_site_label_1
_geom_bond_atom_site_label_2
_geom_bond_distance
_geom_bond_site_symmetry_2
Na0 O23 2.406602 1_555
Na0 O11 2.438022 1_555
Na0 O7 2.445566 1_455
Na0 O27 2.458822 1_455
Na0 O20 2.559551 1_565
Na0 O24 2.590028 1_565
Na1 O22 2.406602 1_455
Na1 O10 2.438022 1_555
Na1 O6 2.445566 1_555
Na1 O26 2.458822 1_555
Na1 O21 2.559551 1_565
Na1 O25 2.590028 1_565
Na2 O21 2.406602 1_555
Na2 O9 2.438022 1_555
Na2 O5 2.445566 1_655
Na2 O25 2.458822 1_655
Na2 O22 2.559551 1_545
Na2 O26 2.590028 1_545
Na3 O20 2.406602 1_655
Na3 O8 2.438022 1_555
Na3 O4 2.445566 1_555
Na3 O24 2.458822 1_555
Na3 O23 2.559551 1_545
Na3 O27 2.590028 1_545
Ho0 O18 2.161105 1_555
Ho0 O0 2.210235 1_555
Ho0 O8 2.253537 1_556
Ho0 O6 2.260186 1_545
Ho0 O25 2.269213 1_655
Ho0 O21 2.270810 1_555
Ho1 O19 2.161105 1_555
Ho1 O1 2.210235 1_655
Ho1 O9 2.253537 1_555
Ho1 O7 2.260186 1_545
Ho1 O24 2.269213 1_555
Ho1 O20 2.270810 1_655
Ho2 O16 2.161105 1_555
Ho2 O2 2.210235 1_555
Ho2 O10 2.253537 1_554
Ho2 O4 2.260186 1_565
Ho2 O27 2.269213 1_455
Ho2 O23 2.270810 1_555
Ho3 O17 2.161105 1_555
Ho3 O3 2.210235 1_455
Ho3 O11 2.253537 1_555
Ho3 O5 2.260186 1_565
Ho3 O26 2.269213 1_555
Ho3 O22 2.270810 1_455
O0 P0 1.504655 1_556
O1 P1 1.504655 1_555
O2 P2 1.504655 1_554
O3 P3 1.504655 1_555
O4 P0 1.517322 1_555
O5 P1 1.517322 1_555
O6 P2 1.517322 1_555
O7 P3 1.517322 1_555
O8 P0 1.522355 1_655
O9 P1 1.522355 1_555
O10 P2 1.522355 1_455
O11 P3 1.522355 1_555
O12 P4 1.603807 1_555
O12 P0 1.608385 1_555
O13 P5 1.603807 1_555
O13 P1 1.608385 1_555
O14 P6 1.603807 1_555
O14 P2 1.608385 1_555
O15 P7 1.603807 1_555
O15 P3 1.608385 1_555
O16 P4 1.500476 1_555
O17 P5 1.500476 1_555
O18 P6 1.500476 1_555
O19 P7 1.500476 1_555
O20 P4 1.521554 1_555
O21 P5 1.521554 1_555
O22 P6 1.521554 1_555
O23 P7 1.521554 1_555
O24 P4 1.525581 1_555
O25 P5 1.525581 1_555
O26 P6 1.525581 1_555
O27 P7 1.525581 1_555
