# generated using pymatgen
data_Sr2Mg(H4O3)2
_symmetry_space_group_name_H-M   'P 1'
_cell_length_a   3.86463811
_cell_length_b   7.81720957
_cell_length_c   8.08374942
_cell_angle_alpha   81.51678262
_cell_angle_beta   90.11233835
_cell_angle_gamma   89.88993762
_symmetry_Int_Tables_number   1
_chemical_formula_structural   Sr2Mg(H4O3)2
_chemical_formula_sum   'Sr2 Mg1 H8 O6'
_cell_volume   241.54261390
_cell_formula_units_Z   1
loop_
 _symmetry_equiv_pos_site_id
 _symmetry_equiv_pos_as_xyz
  1  'x, y, z'
loop_
 _atom_site_type_symbol
 _atom_site_label
 _atom_site_symmetry_multiplicity
 _atom_site_fract_x
 _atom_site_fract_y
 _atom_site_fract_z
 _atom_site_occupancy
  Sr  Sr0  1  0.00160100  0.74777600  0.64859500  1
  Sr  Sr1  1  0.99826600  0.26486200  0.12025500  1
  Mg  Mg0  1  0.50223600  0.37391900  0.50735000  1
  H  H0  1  0.20440400  0.05420700  0.80897800  1
  H  H1  1  0.79698500  0.05371500  0.80906500  1
  H  H2  1  0.79225000  0.92511000  0.28969500  1
  H  H3  1  0.20761500  0.92516600  0.28995800  1
  H  H4  1  0.50036700  0.03585600  0.59729300  1
  H  H5  1  0.49753200  0.98146700  0.07731100  1
  H  H6  1  0.50099700  0.49777400  0.79579600  1
  H  H7  1  0.49740400  0.56428300  0.05736700  1
  O  O0  1  0.00058800  0.09698400  0.86842700  1
  O  O1  1  0.00033700  0.86883800  0.35400300  1
  O  O2  1  0.50095500  0.94949600  0.69976800  1
  O  O3  1  0.49923600  0.03810800  0.17691800  1
  O  O4  1  0.50258900  0.53934200  0.67086400  1
  O  O5  1  0.49663800  0.45809600  0.00756500  1
loop_
_geom_bond_atom_site_label_1
_geom_bond_atom_site_label_2
_geom_bond_distance
_geom_bond_site_symmetry_2
Mg0 O4 1.980835 1_555
H0 O0 1.005528 1_555
H1 O0 1.005608 1_655
H2 O1 1.019798 1_655
H2 O3 1.627337 1_565
H3 O1 1.019479 1_555
H3 O3 1.629259 1_565
H4 O2 0.988415 1_545
H5 O3 0.974482 1_565
H6 O4 1.014285 1_555
H7 O5 0.974541 1_555
O0 Sr1 2.579667 1_456
O1 Sr0 2.429351 1_555
O2 Sr0 2.565722 1_555
O2 Sr0 2.566142 1_655
O3 Sr1 2.616105 1_455
O3 Sr1 2.616924 1_555
O4 Sr0 2.516599 1_655
O4 Sr0 2.517114 1_555
O5 Sr1 2.536387 1_455
O5 Sr1 2.538829 1_555
