# generated using pymatgen
data_Ba2PrVO6
_symmetry_space_group_name_H-M   'P 1'
_cell_length_a   8.54063541
_cell_length_b   8.54063541
_cell_length_c   8.54063541
_cell_angle_alpha   90.00000000
_cell_angle_beta   90.00000000
_cell_angle_gamma   90.00000000
_symmetry_Int_Tables_number   1
_chemical_formula_structural   Ba2PrVO6
_chemical_formula_sum   'Ba8 Pr4 V4 O24'
_cell_volume   622.97489875
_cell_formula_units_Z   4
loop_
 _symmetry_equiv_pos_site_id
 _symmetry_equiv_pos_as_xyz
  1  'x, y, z'
loop_
 _atom_site_type_symbol
 _atom_site_label
 _atom_site_symmetry_multiplicity
 _atom_site_fract_x
 _atom_site_fract_y
 _atom_site_fract_z
 _atom_site_occupancy
  Ba  Ba0  1  0.50000000  0.50000000  0.50000000  1
  Ba  Ba1  1  -0.00000000  -0.00000000  -0.00000000  1
  Ba  Ba2  1  -0.00000000  -0.00000000  0.50000000  1
  Ba  Ba3  1  -0.00000000  0.50000000  -0.00000000  1
  Ba  Ba4  1  0.50000000  -0.00000000  -0.00000000  1
  Ba  Ba5  1  0.50000000  0.50000000  -0.00000000  1
  Ba  Ba6  1  0.50000000  -0.00000000  0.50000000  1
  Ba  Ba7  1  -0.00000000  0.50000000  0.50000000  1
  Pr  Pr0  1  0.75000000  0.75000000  0.75000000  1
  Pr  Pr1  1  0.75000000  0.25000000  0.25000000  1
  Pr  Pr2  1  0.25000000  0.75000000  0.25000000  1
  Pr  Pr3  1  0.25000000  0.25000000  0.75000000  1
  V  V0  1  0.25000000  0.25000000  0.25000000  1
  V  V1  1  0.25000000  0.75000000  0.75000000  1
  V  V2  1  0.75000000  0.25000000  0.75000000  1
  V  V3  1  0.75000000  0.75000000  0.25000000  1
  O  O0  1  0.24044140  0.26062813  0.47460748  1
  O  O1  1  0.24044140  0.73937187  0.52539252  1
  O  O2  1  0.75955860  0.26062813  0.52539252  1
  O  O3  1  0.75955860  0.73937187  0.47460748  1
  O  O4  1  0.26062813  0.47460748  0.24044140  1
  O  O5  1  0.73937187  0.52539252  0.24044140  1
  O  O6  1  0.26062813  0.52539252  0.75955860  1
  O  O7  1  0.73937187  0.47460748  0.75955860  1
  O  O8  1  0.47460748  0.24044140  0.26062813  1
  O  O9  1  0.52539252  0.24044140  0.73937187  1
  O  O10  1  0.52539252  0.75955860  0.26062813  1
  O  O11  1  0.47460748  0.75955860  0.73937187  1
  O  O12  1  0.25955860  0.23937187  0.02539252  1
  O  O13  1  0.25955860  0.76062813  0.97460748  1
  O  O14  1  0.74044140  0.23937187  0.97460748  1
  O  O15  1  0.74044140  0.76062813  0.02539252  1
  O  O16  1  0.23937187  0.02539252  0.25955860  1
  O  O17  1  0.76062813  0.97460748  0.25955860  1
  O  O18  1  0.23937187  0.97460748  0.74044140  1
  O  O19  1  0.76062813  0.02539252  0.74044140  1
  O  O20  1  0.02539252  0.25955860  0.23937187  1
  O  O21  1  0.97460748  0.25955860  0.76062813  1
  O  O22  1  0.97460748  0.74044140  0.23937187  1
  O  O23  1  0.02539252  0.74044140  0.76062813  1
loop_
_geom_bond_atom_site_label_1
_geom_bond_atom_site_label_2
_geom_bond_distance
_geom_bond_site_symmetry_2
Ba0 O0 3.023365 1_555
Ba0 O10 3.023365 1_555
Ba0 O9 3.023365 1_555
Ba0 O3 3.023365 1_555
Ba0 O2 3.023365 1_555
Ba0 O4 3.023365 1_555
Ba0 O11 3.023365 1_555
Ba0 O1 3.023365 1_555
Ba0 O8 3.023365 1_555
Ba0 O5 3.023365 1_555
Ba0 O6 3.023365 1_555
Ba0 O7 3.023365 1_555
Ba1 O13 3.023365 1_544
Ba1 O17 3.023365 1_445
Ba1 O21 3.023365 1_454
Ba1 O16 3.023365 1_555
Ba1 O12 3.023365 1_555
Ba1 O20 3.023365 1_555
Ba1 O23 3.023365 1_544
Ba1 O19 3.023365 1_454
Ba1 O15 3.023365 1_445
Ba1 O14 3.023365 1_454
Ba1 O18 3.023365 1_544
Ba1 O22 3.023365 1_445
Ba2 O19 2.905771 1_455
Ba2 O18 2.905771 1_545
Ba2 O17 2.905771 1_445
Ba2 O16 2.905771 1_555
Ba2 O1 3.036239 1_545
Ba2 O0 3.036239 1_555
Ba2 O3 3.036239 1_445
Ba2 O2 3.036239 1_455
Ba2 O20 3.148964 1_555
Ba2 O21 3.148964 1_455
Ba2 O22 3.148964 1_445
Ba2 O23 3.148964 1_545
Ba3 O23 2.905771 1_554
Ba3 O22 2.905771 1_455
Ba3 O21 2.905771 1_454
Ba3 O20 2.905771 1_555
Ba3 O5 3.036239 1_455
Ba3 O4 3.036239 1_555
Ba3 O7 3.036239 1_454
Ba3 O6 3.036239 1_554
Ba3 O12 3.148964 1_555
Ba3 O13 3.148964 1_554
Ba3 O14 3.148964 1_454
Ba3 O15 3.148964 1_455
Ba4 O15 2.905771 1_545
Ba4 O14 2.905771 1_554
Ba4 O13 2.905771 1_544
Ba4 O12 2.905771 1_555
Ba4 O11 3.036239 1_544
Ba4 O9 3.036239 1_554
Ba4 O8 3.036239 1_555
Ba4 O10 3.036239 1_545
Ba4 O16 3.148964 1_555
Ba4 O17 3.148964 1_545
Ba4 O18 3.148964 1_544
Ba4 O19 3.148964 1_554
Ba5 O6 2.905771 1_554
Ba5 O4 2.905771 1_555
Ba5 O5 2.905771 1_555
Ba5 O7 2.905771 1_554
Ba5 O14 3.036239 1_554
Ba5 O15 3.036239 1_555
Ba5 O12 3.036239 1_555
Ba5 O13 3.036239 1_554
Ba5 O9 3.148964 1_554
Ba5 O11 3.148964 1_554
Ba5 O8 3.148964 1_555
Ba5 O10 3.148964 1_555
Ba6 O9 2.905771 1_555
Ba6 O8 2.905771 1_555
Ba6 O10 2.905771 1_545
Ba6 O11 2.905771 1_545
Ba6 O18 3.036239 1_545
Ba6 O19 3.036239 1_555
Ba6 O16 3.036239 1_555
Ba6 O17 3.036239 1_545
Ba6 O3 3.148964 1_545
Ba6 O2 3.148964 1_555
Ba6 O1 3.148964 1_545
Ba6 O0 3.148964 1_555
Ba7 O0 2.905771 1_555
Ba7 O3 2.905771 1_455
Ba7 O2 2.905771 1_455
Ba7 O1 2.905771 1_555
Ba7 O22 3.036239 1_455
Ba7 O23 3.036239 1_555
Ba7 O20 3.036239 1_555
Ba7 O21 3.036239 1_455
Ba7 O7 3.148964 1_455
Ba7 O4 3.148964 1_555
Ba7 O5 3.148964 1_455
Ba7 O6 3.148964 1_555
O0 V0 1.922171 1_555
O0 Pr3 2.355193 1_555
O1 V1 1.922171 1_555
O1 Pr2 2.355193 1_555
O2 V2 1.922171 1_555
O2 Pr1 2.355193 1_555
O3 V3 1.922171 1_555
O3 Pr0 2.355193 1_555
O4 V0 1.922171 1_555
O4 Pr2 2.355193 1_555
O5 V3 1.922171 1_555
O5 Pr1 2.355193 1_555
O6 V1 1.922171 1_555
O6 Pr3 2.355193 1_555
O7 V2 1.922171 1_555
O7 Pr0 2.355193 1_555
O8 V0 1.922171 1_555
O8 Pr1 2.355193 1_555
O9 V2 1.922171 1_555
O9 Pr3 2.355193 1_555
O10 V3 1.922171 1_555
O10 Pr2 2.355193 1_555
O11 V1 1.922171 1_555
O11 Pr0 2.355193 1_555
O12 V0 1.922171 1_555
O12 Pr3 2.355193 1_554
O13 V1 1.922171 1_555
O13 Pr2 2.355193 1_556
O14 V2 1.922171 1_555
O14 Pr1 2.355193 1_556
O15 V3 1.922171 1_555
O15 Pr0 2.355193 1_554
O16 V0 1.922171 1_555
O16 Pr2 2.355193 1_545
O17 V3 1.922171 1_555
O17 Pr1 2.355193 1_565
O18 V1 1.922171 1_555
O18 Pr3 2.355193 1_565
O19 V2 1.922171 1_555
O19 Pr0 2.355193 1_545
O20 V0 1.922171 1_555
O20 Pr1 2.355193 1_455
O21 V2 1.922171 1_555
O21 Pr3 2.355193 1_655
O22 V3 1.922171 1_555
O22 Pr2 2.355193 1_655
O23 V1 1.922171 1_555
O23 Pr0 2.355193 1_455
