# generated using pymatgen
data_YbSmB12
_symmetry_space_group_name_H-M   'P 1'
_cell_length_a   5.82474686
_cell_length_b   5.82474686
_cell_length_c   5.82474686
_cell_angle_alpha   60.00000000
_cell_angle_beta   60.00000000
_cell_angle_gamma   60.00000000
_symmetry_Int_Tables_number   1
_chemical_formula_structural   YbSmB12
_chemical_formula_sum   'Yb1 Sm1 B12'
_cell_volume   139.73852954
_cell_formula_units_Z   1
loop_
 _symmetry_equiv_pos_site_id
 _symmetry_equiv_pos_as_xyz
  1  'x, y, z'
loop_
 _atom_site_type_symbol
 _atom_site_label
 _atom_site_symmetry_multiplicity
 _atom_site_fract_x
 _atom_site_fract_y
 _atom_site_fract_z
 _atom_site_occupancy
  Yb  Yb0  1  0.50000000  0.50000000  0.50000000  1
  Sm  Sm0  1  0.00000000  0.00000000  0.00000000  1
  B  B0  1  0.89997100  0.60002900  0.60002900  1
  B  B1  1  0.39997100  0.10002900  0.10002900  1
  B  B2  1  0.89997100  0.89997100  0.60002900  1
  B  B3  1  0.39997100  0.39997100  0.10002900  1
  B  B4  1  0.60002900  0.89997100  0.60002900  1
  B  B5  1  0.10002900  0.39997100  0.10002900  1
  B  B6  1  0.60002900  0.60002900  0.89997100  1
  B  B7  1  0.10002900  0.10002900  0.39997100  1
  B  B8  1  0.89997100  0.60002900  0.89997100  1
  B  B9  1  0.39997100  0.10002900  0.39997100  1
  B  B10  1  0.60002900  0.89997100  0.89997100  1
  B  B11  1  0.10002900  0.39997100  0.39997100  1
loop_
_geom_bond_atom_site_label_1
_geom_bond_atom_site_label_2
_geom_bond_distance
_geom_bond_site_symmetry_2
B0 B11 1.647965 1_655
B0 B2 1.747086 1_555
B0 B8 1.747086 1_555
B0 B6 1.747086 1_555
B0 B4 1.747086 1_555
B0 Yb0 3.026692 1_555
B0 Sm0 3.026692 1_656
B0 Sm0 3.026692 1_665
B0 Yb0 3.026692 1_655
B1 B10 1.647965 1_544
B1 B7 1.747086 1_555
B1 B5 1.747086 1_555
B1 B3 1.747086 1_555
B1 B9 1.747086 1_555
B1 Sm0 3.026692 1_655
B1 Yb0 3.026692 1_554
B1 Yb0 3.026692 1_545
B1 Sm0 3.026692 1_555
B2 B7 1.647965 1_665
B2 B8 1.747086 1_555
B2 B4 1.747086 1_555
B2 Sm0 3.026692 1_665
B2 Sm0 3.026692 1_666
B2 Yb0 3.026692 1_655
B2 Yb0 3.026692 1_565
B3 B6 1.647965 1_554
B3 B5 1.747086 1_555
B3 B9 1.747086 1_555
B3 Yb0 3.026692 1_555
B3 Sm0 3.026692 1_655
B3 Sm0 3.026692 1_565
B3 Yb0 3.026692 1_554
B4 B9 1.647965 1_565
B4 B6 1.747086 1_555
B4 Yb0 3.026692 1_555
B4 Sm0 3.026692 1_566
B4 Sm0 3.026692 1_665
B4 Yb0 3.026692 1_565
B5 B8 1.647965 1_454
B5 B7 1.747086 1_555
B5 Sm0 3.026692 1_565
B5 Yb0 3.026692 1_554
B5 Yb0 3.026692 1_455
B5 Sm0 3.026692 1_555
B6 B8 1.747086 1_555
B6 Yb0 3.026692 1_555
B6 Yb0 3.026692 1_556
B6 Sm0 3.026692 1_566
B6 Sm0 3.026692 1_656
B7 B9 1.747086 1_555
B7 Sm0 3.026692 1_556
B7 Sm0 3.026692 1_555
B7 Yb0 3.026692 1_455
B7 Yb0 3.026692 1_545
B8 Sm0 3.026692 1_656
B8 Yb0 3.026692 1_556
B8 Yb0 3.026692 1_655
B8 Sm0 3.026692 1_666
B9 Yb0 3.026692 1_555
B9 Sm0 3.026692 1_655
B9 Sm0 3.026692 1_556
B9 Yb0 3.026692 1_545
B10 B2 1.747086 1_555
B10 B8 1.747086 1_555
B10 B6 1.747086 1_555
B10 B4 1.747086 1_555
B10 Sm0 3.026692 1_566
B10 Yb0 3.026692 1_556
B10 Yb0 3.026692 1_565
B10 Sm0 3.026692 1_666
B11 B7 1.747086 1_555
B11 B5 1.747086 1_555
B11 B3 1.747086 1_555
B11 B9 1.747086 1_555
B11 Yb0 3.026692 1_555
B11 Sm0 3.026692 1_556
B11 Sm0 3.026692 1_565
B11 Yb0 3.026692 1_455
