# generated using pymatgen
data_Li10Co3Ni7O20
_symmetry_space_group_name_H-M   'P 1'
_cell_length_a   11.43961667
_cell_length_b   11.43961667
_cell_length_c   11.66178852
_cell_angle_alpha   67.53553432
_cell_angle_beta   67.53553432
_cell_angle_gamma   14.25540512
_symmetry_Int_Tables_number   1
_chemical_formula_structural   Li10Co3Ni7O20
_chemical_formula_sum   'Li10 Co3 Ni7 O20'
_cell_volume   346.81713361
_cell_formula_units_Z   1
loop_
 _symmetry_equiv_pos_site_id
 _symmetry_equiv_pos_as_xyz
  1  'x, y, z'
loop_
 _atom_site_type_symbol
 _atom_site_label
 _atom_site_symmetry_multiplicity
 _atom_site_fract_x
 _atom_site_fract_y
 _atom_site_fract_z
 _atom_site_occupancy
  Li  Li0  1  0.70000800  0.70000800  0.35112200  1
  Li  Li1  1  0.69987100  0.69987100  0.85035600  1
  Li  Li2  1  0.89947000  0.89947000  0.94791200  1
  Li  Li3  1  0.89957200  0.89957200  0.45095600  1
  Li  Li4  1  0.50118600  0.50118600  0.74736800  1
  Li  Li5  1  0.49881400  0.49881400  0.25263200  1
  Li  Li6  1  0.29999200  0.29999200  0.64887800  1
  Li  Li7  1  0.30012900  0.30012900  0.14964400  1
  Li  Li8  1  0.10053000  0.10053000  0.05208800  1
  Li  Li9  1  0.10042800  0.10042800  0.54904400  1
  Co  Co0  1  0.90050600  0.90050600  0.19899000  1
  Co  Co1  1  0.50000000  0.50000000  0.50000000  1
  Co  Co2  1  0.09949400  0.09949400  0.80101000  1
  Ni  Ni0  1  0.90283200  0.90283200  0.69978000  1
  Ni  Ni1  1  0.69979100  0.69979100  0.10170100  1
  Ni  Ni2  1  0.70020400  0.70020400  0.59789500  1
  Ni  Ni3  1  0.29979600  0.29979600  0.40210500  1
  Ni  Ni4  1  0.50000000  0.50000000  0.00000000  1
  Ni  Ni5  1  0.30020900  0.30020900  0.89829900  1
  Ni  Ni6  1  0.09716800  0.09716800  0.30022000  1
  O  O0  1  0.80014400  0.80014400  0.52376500  1
  O  O1  1  0.99079500  0.99079500  0.13129200  1
  O  O2  1  0.59962100  0.59962100  0.91189300  1
  O  O3  1  0.81026100  0.81026100  0.26966400  1
  O  O4  1  0.80096000  0.80096000  0.78562600  1
  O  O5  1  0.99757900  0.99757900  0.39216600  1
  O  O6  1  0.00242100  0.00242100  0.60783400  1
  O  O7  1  0.59105700  0.59105700  0.41781000  1
  O  O8  1  0.80081100  0.80081100  0.00947000  1
  O  O9  1  0.00920500  0.00920500  0.86870800  1
  O  O10  1  0.40129500  0.40129500  0.81290700  1
  O  O11  1  0.18973900  0.18973900  0.73033600  1
  O  O12  1  0.40048200  0.40048200  0.30908700  1
  O  O13  1  0.40894300  0.40894300  0.58219000  1
  O  O14  1  0.59870500  0.59870500  0.18709300  1
  O  O15  1  0.19985600  0.19985600  0.47623500  1
  O  O16  1  0.19918900  0.19918900  0.99053000  1
  O  O17  1  0.19904000  0.19904000  0.21437400  1
  O  O18  1  0.59951800  0.59951800  0.69091300  1
  O  O19  1  0.40037900  0.40037900  0.08810700  1
loop_
_geom_bond_atom_site_label_1
_geom_bond_atom_site_label_2
_geom_bond_distance
_geom_bond_site_symmetry_2
Li0 O15 2.034638 1_655
Li0 O15 2.034638 1_565
Li0 O17 2.141364 1_655
Li0 O17 2.141364 1_565
Li0 O7 2.289383 1_555
Li0 O3 2.310022 1_555
Li1 O11 2.067534 1_655
Li1 O11 2.067534 1_565
Li1 O2 2.106394 1_555
Li1 O4 2.121897 1_555
Li1 O16 2.160495 1_565
Li1 O16 2.160495 1_655
Li2 O8 2.072121 1_556
Li2 O10 2.108324 1_655
Li2 O10 2.108324 1_565
Li2 O19 2.171222 1_566
Li2 O19 2.171222 1_656
Li2 O9 2.299404 1_665
Li3 O5 2.060532 1_555
Li3 O0 2.083276 1_555
Li3 O13 2.157088 1_655
Li3 O13 2.157088 1_565
Li3 O12 2.173962 1_565
Li3 O12 2.173962 1_655
Li4 O9 2.061238 1_655
Li4 O9 2.061238 1_565
Li4 O18 2.070025 1_555
Li4 O10 2.095715 1_555
Li4 O6 2.151347 1_655
Li4 O6 2.151347 1_565
Li5 O1 2.061238 1_545
Li5 O1 2.061238 1_455
Li5 O12 2.070025 1_555
Li5 O14 2.095715 1_555
Li5 O5 2.151347 1_545
Li5 O5 2.151347 1_455
Li6 O0 2.034638 1_455
Li6 O0 2.034638 1_545
Li6 O4 2.141364 1_455
Li6 O4 2.141364 1_545
Li6 O13 2.289383 1_555
Li6 O11 2.310022 1_555
Li7 O3 2.067534 1_545
Li7 O3 2.067534 1_455
Li7 O19 2.106394 1_555
Li7 O17 2.121897 1_555
Li7 O8 2.160495 1_455
Li7 O8 2.160495 1_545
Li8 O16 2.072121 1_554
Li8 O14 2.108324 1_455
Li8 O14 2.108324 1_545
Li8 O2 2.171222 1_454
Li8 O2 2.171222 1_544
Li8 O1 2.299404 1_445
Li9 O6 2.060532 1_555
Li9 O15 2.083276 1_555
Li9 O7 2.157088 1_545
Li9 O7 2.157088 1_455
Li9 O18 2.173962 1_455
Li9 O18 2.173962 1_545
Co0 O3 1.891108 1_555
Co0 O1 1.891701 1_555
Co0 O12 1.913831 1_655
Co0 O12 1.913831 1_565
Co0 O19 1.920882 1_565
Co0 O19 1.920882 1_655
Co1 O6 1.911143 1_655
Co1 O6 1.911143 1_565
Co1 O5 1.911143 1_455
Co1 O5 1.911143 1_545
Co1 O7 1.914694 1_555
Co1 O13 1.914694 1_555
Co2 O11 1.891108 1_555
Co2 O9 1.891701 1_555
Co2 O18 1.913831 1_545
Co2 O18 1.913831 1_455
Co2 O2 1.920882 1_545
Co2 O2 1.920882 1_455
Ni0 O10 1.928998 1_565
Ni0 O10 1.928998 1_655
Ni0 O13 1.941141 1_565
Ni0 O13 1.941141 1_655
Ni0 O6 2.096269 1_665
Ni0 O4 2.137243 1_555
Ni1 O16 1.925990 1_564
Ni1 O16 1.925990 1_654
Ni1 O17 1.929862 1_655
Ni1 O17 1.929862 1_565
Ni1 O14 2.120880 1_555
Ni1 O8 2.125262 1_555
Ni2 O15 2.009086 1_655
Ni2 O15 2.009086 1_565
Ni2 O11 2.043068 1_655
Ni2 O11 2.043068 1_565
Ni2 O0 2.093926 1_555
Ni2 O18 2.119426 1_555
Ni3 O0 2.009086 1_545
Ni3 O0 2.009086 1_455
Ni3 O3 2.043068 1_455
Ni3 O3 2.043068 1_545
Ni3 O15 2.093926 1_555
Ni3 O12 2.119426 1_555
Ni4 O1 2.038707 1_455
Ni4 O1 2.038707 1_545
Ni4 O9 2.038707 1_564
Ni4 O9 2.038707 1_654
Ni4 O19 2.093085 1_555
Ni4 O2 2.093085 1_554
Ni5 O8 1.925990 1_546
Ni5 O8 1.925990 1_456
Ni5 O4 1.929862 1_545
Ni5 O4 1.929862 1_455
Ni5 O10 2.120880 1_555
Ni5 O16 2.125262 1_555
Ni6 O14 1.928998 1_545
Ni6 O14 1.928998 1_455
Ni6 O7 1.941141 1_545
Ni6 O7 1.941141 1_455
Ni6 O5 2.096269 1_445
Ni6 O17 2.137243 1_555
