# generated using pymatgen
data_Sr(Mg4Al3)4
_symmetry_space_group_name_H-M   'P 1'
_cell_length_a   9.21307962
_cell_length_b   9.21307962
_cell_length_c   9.21307962
_cell_angle_alpha   109.47122063
_cell_angle_beta   109.47122063
_cell_angle_gamma   109.47122063
_symmetry_Int_Tables_number   1
_chemical_formula_structural   Sr(Mg4Al3)4
_chemical_formula_sum   'Sr1 Mg16 Al12'
_cell_volume   601.99458217
_cell_formula_units_Z   1
loop_
 _symmetry_equiv_pos_site_id
 _symmetry_equiv_pos_as_xyz
  1  'x, y, z'
loop_
 _atom_site_type_symbol
 _atom_site_label
 _atom_site_symmetry_multiplicity
 _atom_site_fract_x
 _atom_site_fract_y
 _atom_site_fract_z
 _atom_site_occupancy
  Sr  Sr0  1  0.00000000  0.00000000  0.00000000  1
  Mg  Mg0  1  0.36162600  0.36162600  0.36162600  1
  Mg  Mg1  1  0.71706100  0.31951700  0.31951700  1
  Mg  Mg2  1  0.63837400  0.00000000  0.00000000  1
  Mg  Mg3  1  0.28293900  0.60245600  0.60245600  1
  Mg  Mg4  1  0.00000000  0.68048300  0.39754400  1
  Mg  Mg5  1  0.60245600  0.60245600  0.28293900  1
  Mg  Mg6  1  0.39754400  0.00000000  0.68048300  1
  Mg  Mg7  1  0.00000000  0.00000000  0.63837400  1
  Mg  Mg8  1  0.31951700  0.71706100  0.31951700  1
  Mg  Mg9  1  0.68048300  0.39754400  0.00000000  1
  Mg  Mg10  1  0.68048300  0.00000000  0.39754400  1
  Mg  Mg11  1  0.31951700  0.31951700  0.71706100  1
  Mg  Mg12  1  0.00000000  0.63837400  0.00000000  1
  Mg  Mg13  1  0.60245600  0.28293900  0.60245600  1
  Mg  Mg14  1  0.39754400  0.68048300  0.00000000  1
  Mg  Mg15  1  0.00000000  0.39754400  0.68048300  1
  Al  Al0  1  0.81763500  0.62889200  0.62889200  1
  Al  Al1  1  0.18236500  0.81125700  0.81125700  1
  Al  Al2  1  0.00000000  0.37110800  0.18874300  1
  Al  Al3  1  0.62889200  0.81763500  0.62889200  1
  Al  Al4  1  0.37110800  0.18874300  0.00000000  1
  Al  Al5  1  0.81125700  0.18236500  0.81125700  1
  Al  Al6  1  0.18874300  0.37110800  0.00000000  1
  Al  Al7  1  0.18874300  0.00000000  0.37110800  1
  Al  Al8  1  0.81125700  0.81125700  0.18236500  1
  Al  Al9  1  0.62889200  0.62889200  0.81763500  1
  Al  Al10  1  0.37110800  0.00000000  0.18874300  1
  Al  Al11  1  0.00000000  0.18874300  0.37110800  1
loop_
_geom_bond_atom_site_label_1
_geom_bond_atom_site_label_2
_geom_bond_distance
_geom_bond_site_symmetry_2
Mg0 Mg13 3.038790 1_555
Mg0 Mg5 3.038790 1_555
Mg0 Mg3 3.038790 1_555
Mg0 Sr0 3.331689 1_555
Mg1 Mg2 3.038790 1_555
Mg1 Mg15 3.122363 1_655
Mg1 Mg4 3.122363 1_655
Mg1 Mg5 3.194815 1_555
Mg1 Mg13 3.194815 1_555
Mg1 Mg10 3.194815 1_555
Mg1 Mg9 3.194815 1_555
Mg2 Mg6 3.038790 1_554
Mg2 Sr0 3.331689 1_655
Mg3 Mg4 3.122363 1_555
Mg3 Mg8 3.194815 1_555
Mg3 Mg6 3.194815 1_565
Mg4 Mg7 3.038790 1_565
Mg4 Mg8 3.194815 1_555
Mg4 Mg6 3.194815 1_565
Mg4 Mg5 3.194815 1_455
Mg4 Mg9 3.194815 1_455
Mg5 Mg9 3.122363 1_555
Mg5 Mg8 3.194815 1_555
Mg6 Mg8 3.122363 1_545
Mg6 Mg9 3.194815 1_556
Mg7 Sr0 3.331689 1_556
Mg10 Mg7 3.038790 1_655
Mg10 Mg13 3.122363 1_555
Mg10 Mg8 3.122363 1_545
Mg10 Mg14 3.194815 1_545
Mg10 Mg5 3.194815 1_545
Mg10 Mg15 3.194815 1_655
Mg11 Mg7 3.038790 1_555
Mg11 Mg14 3.122363 1_556
Mg11 Mg9 3.122363 1_556
Mg11 Mg3 3.194815 1_555
Mg11 Mg13 3.194815 1_555
Mg11 Mg15 3.194815 1_555
Mg11 Mg6 3.194815 1_555
Mg12 Mg9 3.038790 1_455
Mg12 Mg8 3.038790 1_555
Mg12 Mg15 3.038790 1_554
Mg12 Sr0 3.331689 1_565
Mg13 Mg6 3.122363 1_555
Mg13 Mg15 3.194815 1_655
Mg13 Mg9 3.194815 1_556
Mg14 Mg2 3.038790 1_565
Mg14 Mg5 3.122363 1_555
Mg14 Mg15 3.194815 1_554
Mg14 Mg3 3.194815 1_554
Mg14 Mg8 3.194815 1_555
Mg15 Mg3 3.122363 1_555
Al0 Al1 2.743662 1_655
Al0 Al9 2.839619 1_555
Al0 Al3 2.839619 1_555
Al0 Mg1 2.858217 1_555
Al0 Mg13 3.016029 1_555
Al0 Mg5 3.016029 1_555
Al0 Mg4 3.181539 1_655
Al0 Mg15 3.181539 1_655
Al0 Mg7 3.223937 1_665
Al0 Mg12 3.223937 1_656
Al0 Sr0 3.278731 1_666
Al1 Al4 2.839619 1_566
Al1 Al10 2.839619 1_566
Al1 Mg3 2.858217 1_555
Al1 Mg6 3.016029 1_565
Al1 Mg14 3.016029 1_556
Al1 Mg4 3.181539 1_555
Al1 Mg15 3.181539 1_555
Al1 Mg12 3.223937 1_556
Al1 Mg7 3.223937 1_565
Al1 Sr0 3.278731 1_566
Al2 Al6 2.839619 1_555
Al2 Al5 2.839619 1_454
Al2 Mg4 2.858217 1_555
Al2 Mg8 3.016029 1_555
Al2 Mg9 3.016029 1_455
Al2 Mg3 3.181539 1_555
Al2 Mg1 3.181539 1_455
Al2 Mg2 3.223937 1_455
Al2 Mg0 3.223937 1_555
Al2 Sr0 3.278731 1_555
Al3 Al5 2.743662 1_565
Al3 Al9 2.839619 1_555
Al3 Mg8 2.858217 1_555
Al3 Mg3 3.016029 1_555
Al3 Mg5 3.016029 1_555
Al3 Mg10 3.181539 1_565
Al3 Mg6 3.181539 1_565
Al3 Mg7 3.223937 1_665
Al3 Mg2 3.223937 1_566
Al3 Sr0 3.278731 1_666
Al4 Al6 2.743662 1_555
Al4 Mg9 2.858217 1_555
Al4 Mg1 3.016029 1_555
Al4 Mg6 3.016029 1_554
Al4 Mg5 3.181539 1_555
Al4 Mg11 3.181539 1_554
Al4 Mg0 3.223937 1_555
Al4 Mg7 3.223937 1_554
Al4 Sr0 3.278731 1_555
Al5 Al6 2.839619 1_656
Al5 Mg13 2.858217 1_555
Al5 Mg9 3.016029 1_556
Al5 Mg15 3.016029 1_655
Al5 Mg6 3.181539 1_555
Al5 Mg10 3.181539 1_555
Al5 Mg2 3.223937 1_556
Al5 Mg7 3.223937 1_655
Al5 Sr0 3.278731 1_656
Al6 Mg14 2.858217 1_555
Al6 Mg8 3.016029 1_555
Al6 Mg15 3.016029 1_554
Al6 Mg5 3.181539 1_555
Al6 Mg11 3.181539 1_554
Al6 Mg0 3.223937 1_555
Al6 Mg7 3.223937 1_554
Al6 Sr0 3.278731 1_555
Al7 Al8 2.839619 1_445
Al7 Mg6 2.858217 1_555
Al7 Mg11 3.016029 1_555
Al7 Mg4 3.016029 1_545
Al7 Mg13 3.181539 1_555
Al7 Mg8 3.181539 1_545
Al7 Mg0 3.223937 1_555
Al7 Mg12 3.223937 1_545
Al7 Sr0 3.278731 1_555
Al8 Al9 2.743662 1_554
Al8 Mg5 2.858217 1_555
Al8 Mg4 3.016029 1_655
Al8 Mg10 3.016029 1_565
Al8 Mg14 3.181539 1_555
Al8 Mg9 3.181539 1_555
Al8 Mg2 3.223937 1_565
Al8 Mg12 3.223937 1_655
Al8 Sr0 3.278731 1_665
Al9 Mg11 2.858217 1_555
Al9 Mg3 3.016029 1_555
Al9 Mg13 3.016029 1_555
Al9 Mg14 3.181539 1_556
Al9 Mg9 3.181539 1_556
Al9 Mg12 3.223937 1_656
Al9 Mg2 3.223937 1_566
Al9 Sr0 3.278731 1_666
Al10 Al7 2.743662 1_555
Al10 Al4 2.839619 1_555
Al10 Mg10 2.858217 1_555
Al10 Mg1 3.016029 1_555
Al10 Mg14 3.016029 1_545
Al10 Mg13 3.181539 1_555
Al10 Mg8 3.181539 1_545
Al10 Mg12 3.223937 1_545
Al10 Mg0 3.223937 1_555
Al10 Sr0 3.278731 1_555
Al11 Al2 2.743662 1_555
Al11 Al7 2.839619 1_555
Al11 Al8 2.839619 1_445
Al11 Mg15 2.858217 1_555
Al11 Mg11 3.016029 1_555
Al11 Mg10 3.016029 1_455
Al11 Mg3 3.181539 1_555
Al11 Mg1 3.181539 1_455
Al11 Mg0 3.223937 1_555
Al11 Mg2 3.223937 1_455
Al11 Sr0 3.278731 1_555
