# generated using pymatgen
data_V2FeO4
_symmetry_space_group_name_H-M   'P 1'
_cell_length_a   6.05866748
_cell_length_b   6.06937194
_cell_length_c   6.10502215
_cell_angle_alpha   59.69746597
_cell_angle_beta   60.39335629
_cell_angle_gamma   60.14976007
_symmetry_Int_Tables_number   1
_chemical_formula_structural   V2FeO4
_chemical_formula_sum   'V4 Fe2 O8'
_cell_volume   159.01891492
_cell_formula_units_Z   2
loop_
 _symmetry_equiv_pos_site_id
 _symmetry_equiv_pos_as_xyz
  1  'x, y, z'
loop_
 _atom_site_type_symbol
 _atom_site_label
 _atom_site_symmetry_multiplicity
 _atom_site_fract_x
 _atom_site_fract_y
 _atom_site_fract_z
 _atom_site_occupancy
  V  V0  1  0.49922800  0.00107600  0.49981100  1
  V  V1  1  0.99954000  0.50012600  0.50034100  1
  V  V2  1  0.50016600  0.49998800  0.99949000  1
  V  V3  1  0.50098500  0.49927400  0.49977000  1
  Fe  Fe0  1  0.12199400  0.12319400  0.12666500  1
  Fe  Fe1  1  0.87927000  0.86982300  0.87984700  1
  O  O0  1  0.73902300  0.73751500  0.73958500  1
  O  O1  1  0.26296000  0.25248200  0.71874900  1
  O  O2  1  0.25903200  0.71617900  0.26345900  1
  O  O3  1  0.71653300  0.26932700  0.25984900  1
  O  O4  1  0.74381100  0.28267700  0.73563600  1
  O  O5  1  0.28419300  0.73457500  0.73441300  1
  O  O6  1  0.26016100  0.26375300  0.26045000  1
  O  O7  1  0.73310400  0.75001100  0.28193300  1
loop_
_geom_bond_atom_site_label_1
_geom_bond_atom_site_label_2
_geom_bond_distance
_geom_bond_site_symmetry_2
Fe0 O2 2.012658 1_545
Fe0 O3 2.016838 1_455
Fe0 O1 2.034828 1_554
Fe0 O6 2.045790 1_555
Fe1 O7 2.007624 1_556
Fe1 O5 2.014773 1_655
Fe1 O4 2.041583 1_565
Fe1 O0 2.047490 1_555
O0 V2 2.046913 1_555
O0 V0 2.058464 1_565
O0 V1 2.069403 1_555
O1 V0 2.038926 1_555
O1 V1 2.067969 1_455
O1 V3 2.082104 1_555
O2 V1 2.043208 1_455
O2 V3 2.053119 1_555
O2 V2 2.086243 1_554
O3 V3 2.038913 1_555
O3 V2 2.047251 1_554
O3 V0 2.086005 1_555
O4 V1 2.032031 1_555
O4 V3 2.055190 1_555
O4 V2 2.090400 1_555
O5 V3 2.038347 1_555
O5 V2 2.066601 1_555
O5 V0 2.069105 1_565
O6 V2 2.046869 1_554
O6 V0 2.053465 1_555
O6 V1 2.067991 1_455
O7 V0 2.032919 1_565
O7 V3 2.074239 1_555
O7 V1 2.081539 1_555
