# generated using pymatgen
data_Sn2SbS2I3
_symmetry_space_group_name_H-M   'P 1'
_cell_length_a   7.77617680
_cell_length_b   7.77617680
_cell_length_c   17.46130300
_cell_angle_alpha   90.00000000
_cell_angle_beta   90.00000000
_cell_angle_gamma   147.68845972
_symmetry_Int_Tables_number   1
_chemical_formula_structural   Sn2SbS2I3
_chemical_formula_sum   'Sn4 Sb2 S4 I6'
_cell_volume   564.38435049
_cell_formula_units_Z   2
loop_
 _symmetry_equiv_pos_site_id
 _symmetry_equiv_pos_as_xyz
  1  'x, y, z'
loop_
 _atom_site_type_symbol
 _atom_site_label
 _atom_site_symmetry_multiplicity
 _atom_site_fract_x
 _atom_site_fract_y
 _atom_site_fract_z
 _atom_site_occupancy
  Sn  Sn0  1  0.87072000  0.12928000  0.49379600  1
  Sn  Sn1  1  0.14024600  0.85975400  0.52410400  1
  Sn  Sn2  1  0.85975400  0.14024600  0.02410400  1
  Sn  Sn3  1  0.12928000  0.87072000  0.99379600  1
  Sb  Sb0  1  0.20956900  0.79043100  0.29029500  1
  Sb  Sb1  1  0.79043100  0.20956900  0.79029500  1
  S  S0  1  0.27254800  0.72745200  0.41922300  1
  S  S1  1  0.72927100  0.27072900  0.57882600  1
  S  S2  1  0.27072900  0.72927100  0.07882600  1
  S  S3  1  0.72745200  0.27254800  0.91922300  1
  I  I0  1  0.84547000  0.15453000  0.24933700  1
  I  I1  1  0.15453000  0.84547000  0.74933700  1
  I  I2  1  0.57358200  0.42641800  0.34985800  1
  I  I3  1  0.44297300  0.55702700  0.61047000  1
  I  I4  1  0.55702700  0.44297300  0.11047000  1
  I  I5  1  0.42641800  0.57358200  0.84985800  1
loop_
_geom_bond_atom_site_label_1
_geom_bond_atom_site_label_2
_geom_bond_distance
_geom_bond_site_symmetry_2
S0 Sb0 2.439922 1_555
S0 Sn1 2.694408 1_555
S0 Sn0 2.920258 1_455
S0 Sn0 2.920258 1_565
S1 Sn0 2.582472 1_555
S1 Sn1 2.713531 1_655
S1 Sn1 2.713531 1_545
S2 Sn3 2.582472 1_554
S2 Sn2 2.713531 1_565
S2 Sn2 2.713531 1_455
S3 Sb1 2.439922 1_555
S3 Sn2 2.694408 1_556
S3 Sn3 2.920258 1_655
S3 Sn3 2.920258 1_545
I0 Sb0 3.051970 1_655
I0 Sb0 3.051970 1_545
I1 Sb1 3.051970 1_565
I1 Sb1 3.051970 1_455
I2 Sb0 3.144830 1_545
I2 Sb0 3.144830 1_655
I3 Sn0 3.161825 1_455
I3 Sn0 3.161825 1_565
I4 Sn3 3.161825 1_544
I4 Sn3 3.161825 1_654
I5 Sb1 3.144830 1_455
I5 Sb1 3.144830 1_565
