# generated using pymatgen
data_Sr5Mg
_symmetry_space_group_name_H-M   'P 1'
_cell_length_a   7.95948996
_cell_length_b   7.95948996
_cell_length_c   7.95948959
_cell_angle_alpha   52.92823267
_cell_angle_beta   52.92823267
_cell_angle_gamma   52.92823060
_symmetry_Int_Tables_number   1
_chemical_formula_structural   Sr5Mg
_chemical_formula_sum   'Sr5 Mg1'
_cell_volume   297.45066553
_cell_formula_units_Z   1
loop_
 _symmetry_equiv_pos_site_id
 _symmetry_equiv_pos_as_xyz
  1  'x, y, z'
loop_
 _atom_site_type_symbol
 _atom_site_label
 _atom_site_symmetry_multiplicity
 _atom_site_fract_x
 _atom_site_fract_y
 _atom_site_fract_z
 _atom_site_occupancy
  Sr  Sr0  1  0.00000000  0.66206800  0.33793200  1
  Sr  Sr1  1  0.83374600  0.83374600  0.83374600  1
  Sr  Sr2  1  0.66206800  0.33793200  0.00000000  1
  Sr  Sr3  1  0.33793200  0.00000000  0.66206800  1
  Sr  Sr4  1  0.16625400  0.16625400  0.16625400  1
  Mg  Mg0  1  0.50000000  0.50000000  0.50000000  1
loop_
_geom_bond_atom_site_label_1
_geom_bond_atom_site_label_2
_geom_bond_distance
_geom_bond_site_symmetry_2
Sr0 Sr3 4.067816 1_555
Sr0 Sr3 4.067816 1_465
Sr0 Sr2 4.067816 1_555
Sr0 Sr2 4.067817 1_456
Sr0 Sr1 4.149454 1_455
Sr0 Sr4 4.149454 1_555
Sr0 Sr2 4.152280 1_465
Sr0 Sr3 4.152280 1_564
Sr0 Sr1 4.163421 1_454
Sr0 Sr4 4.163422 1_565
Sr1 Sr4 4.095810 1_566
Sr1 Sr4 4.095810 1_656
Sr1 Sr4 4.095810 1_665
Sr1 Sr3 4.149454 1_565
Sr1 Sr2 4.149455 1_556
Sr1 Sr2 4.163421 1_566
Sr1 Sr3 4.163422 1_665
Sr2 Sr3 4.067816 1_564
Sr2 Sr3 4.067817 1_555
Sr2 Sr4 4.149455 1_555
Sr2 Sr3 4.152280 1_654
Sr2 Sr4 4.163421 1_655
Sr3 Sr4 4.149454 1_555
Sr3 Sr4 4.163421 1_556
Mg0 Sr1 4.095784 1_455
Mg0 Sr4 4.095784 1_655
Mg0 Sr4 4.095784 1_565
Mg0 Sr1 4.095784 1_545
Mg0 Sr4 4.095784 1_556
Mg0 Sr1 4.095784 1_554
Mg0 Sr2 4.142492 1_556
Mg0 Sr2 4.142492 1_555
Mg0 Sr3 4.142492 1_565
Mg0 Sr0 4.142492 1_555
Mg0 Sr3 4.142492 1_555
Mg0 Sr0 4.142492 1_655
