# generated using pymatgen
data_EuIn4Cu
_symmetry_space_group_name_H-M   'P 1'
_cell_length_a   8.78152596
_cell_length_b   8.78152596
_cell_length_c   7.38441904
_cell_angle_alpha   89.99998556
_cell_angle_beta   90.00001444
_cell_angle_gamma   150.21787905
_symmetry_Int_Tables_number   1
_chemical_formula_structural   EuIn4Cu
_chemical_formula_sum   'Eu2 In8 Cu2'
_cell_volume   282.84807578
_cell_formula_units_Z   2
loop_
 _symmetry_equiv_pos_site_id
 _symmetry_equiv_pos_as_xyz
  1  'x, y, z'
loop_
 _atom_site_type_symbol
 _atom_site_label
 _atom_site_symmetry_multiplicity
 _atom_site_fract_x
 _atom_site_fract_y
 _atom_site_fract_z
 _atom_site_occupancy
  Eu  Eu0  1  0.88012199  0.11987801  0.75000000  1
  Eu  Eu1  1  0.11988043  0.88011957  0.25000000  1
  In  In0  1  0.49999951  0.50000049  0.00000582  1
  In  In1  1  0.49999951  0.50000049  0.49999418  1
  In  In2  1  0.07191266  0.92808734  0.75000000  1
  In  In3  1  0.92808552  0.07191448  0.25000000  1
  In  In4  1  0.68586139  0.31413861  0.95049741  1
  In  In5  1  0.31413919  0.68586081  0.04950144  1
  In  In6  1  0.68586139  0.31413861  0.54950259  1
  In  In7  1  0.31413919  0.68586081  0.45049856  1
  Cu  Cu0  1  0.22753522  0.77246478  0.75000000  1
  Cu  Cu1  1  0.77246498  0.22753502  0.25000000  1
loop_
_geom_bond_atom_site_label_1
_geom_bond_atom_site_label_2
_geom_bond_distance
_geom_bond_site_symmetry_2
Eu0 In2 3.255305 1_645
Eu0 In7 3.352358 1_545
Eu0 In7 3.352358 1_655
Eu0 In5 3.352358 1_546
Eu0 In5 3.352358 1_656
Eu0 In0 3.555413 1_656
Eu0 In0 3.555413 1_546
Eu0 In1 3.555414 1_655
Eu0 In1 3.555414 1_545
Eu0 In6 3.614382 1_555
Eu0 In4 3.614382 1_555
Eu0 In3 3.780894 1_556
Eu0 In3 3.780895 1_555
Eu1 In3 3.255377 1_465
Eu1 In6 3.352353 1_565
Eu1 In6 3.352353 1_455
Eu1 In4 3.352354 1_564
Eu1 In4 3.352354 1_454
Eu1 In0 3.555401 1_455
Eu1 In0 3.555401 1_565
Eu1 In1 3.555402 1_455
Eu1 In1 3.555402 1_565
Eu1 In7 3.614357 1_555
Eu1 In5 3.614357 1_555
Eu1 In2 3.780910 1_554
Eu1 In2 3.780910 1_555
In0 In3 3.160776 1_565
In0 In3 3.160776 1_455
In0 In2 3.160821 1_654
In0 In2 3.160821 1_544
In0 In5 3.175750 1_555
In0 In4 3.175787 1_554
In1 In3 3.160776 1_565
In1 In3 3.160776 1_455
In1 In2 3.160821 1_655
In1 In2 3.160821 1_545
In1 In7 3.175750 1_555
In1 In6 3.175787 1_555
Cu0 In2 2.641416 1_555
Cu0 In5 2.655582 1_556
Cu0 In7 2.655583 1_555
Cu0 In6 2.790169 1_455
Cu0 In6 2.790169 1_565
Cu0 In4 2.790170 1_455
Cu0 In4 2.790170 1_565
Cu0 Eu0 3.435141 1_565
Cu0 Eu0 3.435141 1_455
Cu1 In3 2.641381 1_555
Cu1 In4 2.655585 1_554
Cu1 In6 2.655586 1_555
Cu1 In7 2.790176 1_545
Cu1 In7 2.790176 1_655
Cu1 In5 2.790176 1_545
Cu1 In5 2.790176 1_655
Cu1 Eu1 3.435112 1_655
Cu1 Eu1 3.435112 1_545
