# generated using pymatgen
data_Mn(BH4)2
_symmetry_space_group_name_H-M   'P 1'
_cell_length_a   8.36226026
_cell_length_b   8.29969326
_cell_length_c   7.03568045
_cell_angle_alpha   65.48537494
_cell_angle_beta   64.56162313
_cell_angle_gamma   49.95300193
_symmetry_Int_Tables_number   1
_chemical_formula_structural   Mn(BH4)2
_chemical_formula_sum   'Mn4 B8 H32'
_cell_volume   330.71552893
_cell_formula_units_Z   4
loop_
 _symmetry_equiv_pos_site_id
 _symmetry_equiv_pos_as_xyz
  1  'x, y, z'
loop_
 _atom_site_type_symbol
 _atom_site_label
 _atom_site_symmetry_multiplicity
 _atom_site_fract_x
 _atom_site_fract_y
 _atom_site_fract_z
 _atom_site_occupancy
  Mn  Mn0  1  0.71987300  0.71987300  0.28012700  1
  Mn  Mn1  1  0.28012700  0.28012700  0.71987300  1
  Mn  Mn2  1  0.53012700  0.53012700  0.96987300  1
  Mn  Mn3  1  0.96987300  0.96987300  0.53012700  1
  B  B0  1  0.86517400  0.33450600  0.32917700  1
  B  B1  1  0.33450600  0.86517400  0.47114300  1
  B  B2  1  0.47114300  0.32917700  0.33450600  1
  B  B3  1  0.32917700  0.47114300  0.86517400  1
  B  B4  1  0.38482600  0.91549400  0.92082300  1
  B  B5  1  0.91549400  0.38482600  0.77885700  1
  B  B6  1  0.77885700  0.92082300  0.91549400  1
  B  B7  1  0.92082300  0.77885700  0.38482600  1
  H  H0  1  0.94994000  0.18910700  0.23874800  1
  H  H1  1  0.18910700  0.94994000  0.62220600  1
  H  H2  1  0.62220600  0.23874800  0.18910700  1
  H  H3  1  0.23874800  0.62220600  0.94994000  1
  H  H4  1  0.30006000  0.06089300  0.01125200  1
  H  H5  1  0.06089300  0.30006000  0.62779400  1
  H  H6  1  0.62779400  0.01125200  0.06089300  1
  H  H7  1  0.01125200  0.62779400  0.30006000  1
  H  H8  1  0.27903200  0.34732200  0.99420700  1
  H  H9  1  0.34732200  0.27903200  0.37943900  1
  H  H10  1  0.37943900  0.99420700  0.34732200  1
  H  H11  1  0.99420700  0.37943900  0.27903200  1
  H  H12  1  0.97096800  0.90267800  0.25579300  1
  H  H13  1  0.90267800  0.97096800  0.87056100  1
  H  H14  1  0.87056100  0.25579300  0.90267800  1
  H  H15  1  0.25579300  0.87056100  0.97096800  1
  H  H16  1  0.52674300  0.37497300  0.81183700  1
  H  H17  1  0.37497300  0.52674300  0.28644700  1
  H  H18  1  0.28644700  0.81183700  0.37497300  1
  H  H19  1  0.81183700  0.28644700  0.52674300  1
  H  H20  1  0.72325700  0.87502700  0.43816300  1
  H  H21  1  0.87502700  0.72325700  0.96355300  1
  H  H22  1  0.96355300  0.43816300  0.87502700  1
  H  H23  1  0.43816300  0.96355300  0.72325700  1
  H  H24  1  0.69947100  0.48465600  0.26369900  1
  H  H25  1  0.48465600  0.69947100  0.55217500  1
  H  H26  1  0.55217500  0.26369900  0.48465600  1
  H  H27  1  0.26369900  0.55217500  0.69947100  1
  H  H28  1  0.55052900  0.76534400  0.98630100  1
  H  H29  1  0.76534400  0.55052900  0.69782500  1
  H  H30  1  0.69782500  0.98630100  0.76534400  1
  H  H31  1  0.98630100  0.69782500  0.55052900  1
loop_
_geom_bond_atom_site_label_1
_geom_bond_atom_site_label_2
_geom_bond_distance
_geom_bond_site_symmetry_2
B0 H11 1.228577 1_555
B0 H0 1.229830 1_555
B0 H19 1.235472 1_555
B0 H24 1.239009 1_555
B1 H10 1.228577 1_555
B1 H1 1.229835 1_555
B1 H18 1.235472 1_555
B1 H25 1.239012 1_555
B2 H9 1.228577 1_555
B2 H2 1.229832 1_555
B2 H17 1.235472 1_555
B2 H26 1.239014 1_555
B3 H8 1.228577 1_555
B3 H3 1.229837 1_555
B3 H16 1.235472 1_555
B3 H27 1.239008 1_555
B4 H15 1.228577 1_555
B4 H4 1.229830 1_566
B4 H23 1.235472 1_555
B4 H28 1.239009 1_555
B5 H14 1.228577 1_555
B5 H5 1.229835 1_655
B5 H22 1.235472 1_555
B5 H29 1.239012 1_555
B6 H13 1.228577 1_555
B6 H6 1.229832 1_566
B6 H21 1.235472 1_555
B6 H30 1.239014 1_555
B7 H12 1.228577 1_555
B7 H7 1.229837 1_655
B7 H20 1.235472 1_555
B7 H31 1.239008 1_555
H0 Mn3 2.085445 1_545
H1 Mn3 2.085450 1_455
H2 Mn2 2.085445 1_554
H3 Mn2 2.085442 1_555
H4 Mn1 2.085445 1_554
H5 Mn1 2.085450 1_555
H6 Mn0 2.085445 1_545
H7 Mn0 2.085442 1_455
H8 Mn1 2.215405 1_555
H9 Mn1 2.215405 1_555
H10 Mn0 2.215405 1_555
H11 Mn0 2.215405 1_555
H12 Mn3 2.215405 1_555
H13 Mn3 2.215405 1_555
H14 Mn2 2.215405 1_555
H15 Mn2 2.215405 1_555
H16 Mn2 2.038987 1_555
H17 Mn2 2.038987 1_554
H18 Mn3 2.038987 1_455
H19 Mn3 2.038987 1_545
H20 Mn0 2.038987 1_555
H21 Mn0 2.038987 1_556
H22 Mn1 2.038987 1_655
H23 Mn1 2.038987 1_565
H24 Mn0 2.118124 1_555
H25 Mn0 2.118128 1_555
H26 Mn1 2.118130 1_555
H27 Mn1 2.118133 1_555
H28 Mn2 2.118124 1_555
H29 Mn2 2.118128 1_555
H30 Mn3 2.118130 1_555
H31 Mn3 2.118133 1_555
