# generated using pymatgen
data_Ni3Cl4
_symmetry_space_group_name_H-M   'P 1'
_cell_length_a   11.64900686
_cell_length_b   11.64900686
_cell_length_c   6.09164507
_cell_angle_alpha   86.28291031
_cell_angle_beta   86.28291031
_cell_angle_gamma   17.30983132
_symmetry_Int_Tables_number   1
_chemical_formula_structural   Ni3Cl4
_chemical_formula_sum   'Ni6 Cl8'
_cell_volume   245.42569882
_cell_formula_units_Z   2
loop_
 _symmetry_equiv_pos_site_id
 _symmetry_equiv_pos_as_xyz
  1  'x, y, z'
loop_
 _atom_site_type_symbol
 _atom_site_label
 _atom_site_symmetry_multiplicity
 _atom_site_fract_x
 _atom_site_fract_y
 _atom_site_fract_z
 _atom_site_occupancy
  Ni  Ni0  1  0.00000000  0.00000000  0.00000000  1
  Ni  Ni1  1  0.62508300  0.62508300  0.12554800  1
  Ni  Ni2  1  0.25230300  0.25230300  0.25196400  1
  Ni  Ni3  1  0.50000000  0.50000000  0.50000000  1
  Ni  Ni4  1  0.74769700  0.74769700  0.74803600  1
  Ni  Ni5  1  0.37491700  0.37491700  0.87445200  1
  Cl  Cl0  1  0.81241300  0.81241300  0.06308300  1
  Cl  Cl1  1  0.44090800  0.44090800  0.16545000  1
  Cl  Cl2  1  0.06140700  0.06140700  0.32065700  1
  Cl  Cl3  1  0.69285800  0.69285800  0.40894200  1
  Cl  Cl4  1  0.30714200  0.30714200  0.59105800  1
  Cl  Cl5  1  0.93859300  0.93859300  0.67934300  1
  Cl  Cl6  1  0.55909200  0.55909200  0.83455000  1
  Cl  Cl7  1  0.18758700  0.18758700  0.93691700  1
loop_
_geom_bond_atom_site_label_1
_geom_bond_atom_site_label_2
_geom_bond_distance
_geom_bond_site_symmetry_2
Cl0 Ni2 2.470770 1_565
Cl0 Ni2 2.470770 1_655
Cl0 Ni5 2.499778 1_564
Cl0 Ni5 2.499778 1_654
Cl0 Ni4 2.506029 1_554
Cl1 Ni0 2.400262 1_655
Cl1 Ni0 2.400262 1_565
Cl1 Ni5 2.409551 1_554
Cl1 Ni3 2.523791 1_555
Cl2 Ni3 2.462571 1_455
Cl2 Ni3 2.462571 1_545
Cl2 Ni0 2.485614 1_555
Cl2 Ni1 2.531389 1_455
Cl2 Ni1 2.531389 1_545
Cl3 Ni2 2.385432 1_655
Cl3 Ni2 2.385432 1_565
Cl3 Ni1 2.402193 1_555
Cl3 Ni4 2.490875 1_555
Cl4 Ni4 2.385432 1_455
Cl4 Ni4 2.385432 1_545
Cl4 Ni5 2.402193 1_555
Cl4 Ni2 2.490875 1_555
Cl5 Ni3 2.462571 1_565
Cl5 Ni3 2.462571 1_655
Cl5 Ni0 2.485614 1_666
Cl5 Ni5 2.531389 1_565
Cl5 Ni5 2.531389 1_655
Cl6 Ni0 2.400262 1_656
Cl6 Ni0 2.400262 1_566
Cl6 Ni1 2.409551 1_556
Cl6 Ni3 2.523791 1_555
Cl7 Ni4 2.470770 1_455
Cl7 Ni4 2.470770 1_545
Cl7 Ni1 2.499778 1_456
Cl7 Ni1 2.499778 1_546
Cl7 Ni2 2.506029 1_556
