# generated using pymatgen
data_KSmH2S2O9
_symmetry_space_group_name_H-M   'P 1'
_cell_length_a   8.55288900
_cell_length_b   10.12993500
_cell_length_c   10.45975500
_cell_angle_alpha   61.40281722
_cell_angle_beta   90.00000000
_cell_angle_gamma   90.00000000
_symmetry_Int_Tables_number   1
_chemical_formula_structural   KSmH2S2O9
_chemical_formula_sum   'K4 Sm4 H8 S8 O36'
_cell_volume   795.68055233
_cell_formula_units_Z   4
loop_
 _symmetry_equiv_pos_site_id
 _symmetry_equiv_pos_as_xyz
  1  'x, y, z'
loop_
 _atom_site_type_symbol
 _atom_site_label
 _atom_site_symmetry_multiplicity
 _atom_site_fract_x
 _atom_site_fract_y
 _atom_site_fract_z
 _atom_site_occupancy
  K  K0  1  0.81500300  0.21390500  0.30759800  1
  K  K1  1  0.31500300  0.78609500  0.19240200  1
  K  K2  1  0.18499700  0.78609500  0.69240200  1
  K  K3  1  0.68499700  0.21390500  0.80759800  1
  Sm  Sm0  1  0.84669100  0.73890800  0.03226200  1
  Sm  Sm1  1  0.34669100  0.26109200  0.46773800  1
  Sm  Sm2  1  0.15330900  0.26109200  0.96773800  1
  Sm  Sm3  1  0.65330900  0.73890800  0.53226200  1
  H  H0  1  0.51426100  0.71417300  0.94689300  1
  H  H1  1  0.01426100  0.28582700  0.55310700  1
  H  H2  1  0.48573900  0.28582700  0.05310700  1
  H  H3  1  0.98573900  0.71417300  0.44689300  1
  H  H4  1  0.51940800  0.59211100  0.11092600  1
  H  H5  1  0.01940800  0.40788900  0.38907400  1
  H  H6  1  0.48059200  0.40788900  0.88907400  1
  H  H7  1  0.98059200  0.59211100  0.61092600  1
  S  S0  1  0.18685200  0.48463800  0.11006800  1
  S  S1  1  0.68685200  0.51536200  0.38993200  1
  S  S2  1  0.81314800  0.51536200  0.88993200  1
  S  S3  1  0.31314800  0.48463800  0.61006800  1
  S  S4  1  0.86771100  0.94966400  0.17763800  1
  S  S5  1  0.36771100  0.05033600  0.32236200  1
  S  S6  1  0.13228900  0.05033600  0.82236200  1
  S  S7  1  0.63228900  0.94966400  0.67763800  1
  O  O0  1  0.31488900  0.45858400  0.21726100  1
  O  O1  1  0.81488900  0.54141600  0.28273900  1
  O  O2  1  0.68511100  0.54141600  0.78273900  1
  O  O3  1  0.18511100  0.45858400  0.71726100  1
  O  O4  1  0.07916600  0.59632400  0.11706000  1
  O  O5  1  0.57916600  0.40367600  0.38294000  1
  O  O6  1  0.92083400  0.40367600  0.88294000  1
  O  O7  1  0.42083400  0.59632400  0.61706000  1
  O  O8  1  0.10339300  0.33947000  0.15257400  1
  O  O9  1  0.60339300  0.66053000  0.34742600  1
  O  O10  1  0.89660700  0.66053000  0.84742600  1
  O  O11  1  0.39660700  0.33947000  0.65257400  1
  O  O12  1  0.25174200  0.53800400  0.96225800  1
  O  O13  1  0.75174200  0.46199600  0.53774200  1
  O  O14  1  0.74825800  0.46199600  0.03774200  1
  O  O15  1  0.24825800  0.53800400  0.46225800  1
  O  O16  1  0.78677800  0.92893400  0.31146900  1
  O  O17  1  0.28677800  0.07106600  0.18853100  1
  O  O18  1  0.21322200  0.07106600  0.68853100  1
  O  O19  1  0.71322200  0.92893400  0.81146900  1
  O  O20  1  0.94640400  0.09870500  0.11233300  1
  O  O21  1  0.44640400  0.90129500  0.38766700  1
  O  O22  1  0.05359600  0.90129500  0.88766700  1
  O  O23  1  0.55359600  0.09870500  0.61233300  1
  O  O24  1  0.75378600  0.94582900  0.07039200  1
  O  O25  1  0.25378600  0.05417100  0.42960800  1
  O  O26  1  0.24621400  0.05417100  0.92960800  1
  O  O27  1  0.74621400  0.94582900  0.57039200  1
  O  O28  1  0.98125500  0.82471300  0.21133300  1
  O  O29  1  0.48125500  0.17528700  0.28866700  1
  O  O30  1  0.01874500  0.17528700  0.78866700  1
  O  O31  1  0.51874500  0.82471300  0.71133300  1
  O  O32  1  0.55391200  0.69476300  0.04233200  1
  O  O33  1  0.05391200  0.30523700  0.45766800  1
  O  O34  1  0.44608800  0.30523700  0.95766800  1
  O  O35  1  0.94608800  0.69476300  0.54233200  1
loop_
_geom_bond_atom_site_label_1
_geom_bond_atom_site_label_2
_geom_bond_distance
_geom_bond_site_symmetry_2
K0 O14 2.796114 1_555
K0 O27 2.851406 1_545
K0 O16 2.877721 1_545
K0 O8 2.890800 1_655
K0 O29 2.900797 1_555
K0 O33 2.980854 1_655
K0 O20 3.012978 1_555
K0 O5 3.136148 1_555
K0 O1 3.201358 1_555
K1 O15 2.796114 1_555
K1 O26 2.851406 1_564
K1 O17 2.877721 1_565
K1 O9 2.890800 1_555
K1 O28 2.900797 1_455
K1 O32 2.980854 1_555
K1 O21 3.012978 1_555
K1 O4 3.136148 1_555
K1 O0 3.201358 1_555
K2 O12 2.796114 1_555
K2 O25 2.851406 1_565
K2 O18 2.877721 1_565
K2 O10 2.890800 1_455
K2 O31 2.900797 1_555
K2 O35 2.980854 1_455
K2 O22 3.012978 1_555
K2 O7 3.136148 1_555
K2 O3 3.201358 1_555
K3 O13 2.796114 1_555
K3 O24 2.851406 1_546
K3 O19 2.877721 1_545
K3 O11 2.890800 1_555
K3 O30 2.900797 1_655
K3 O34 2.980854 1_555
K3 O23 3.012978 1_555
K3 O6 3.136148 1_555
K3 O2 3.201358 1_555
H0 O32 0.980974 1_556
H1 O33 0.980974 1_555
H2 O34 0.980974 1_554
H3 O35 0.980974 1_555
H4 O32 0.984354 1_555
H5 O33 0.984354 1_555
H6 O34 0.984354 1_555
H7 O35 0.984354 1_555
O0 S0 1.497567 1_555
O0 Sm1 2.433675 1_555
O1 S1 1.497567 1_555
O1 Sm0 2.433675 1_555
O2 S2 1.497567 1_555
O2 Sm3 2.433675 1_555
O3 S3 1.497567 1_555
O3 Sm2 2.433675 1_555
O4 S0 1.487565 1_555
O4 Sm0 2.366426 1_455
O5 S1 1.487565 1_555
O5 Sm1 2.366426 1_555
O6 S2 1.487565 1_555
O6 Sm2 2.366426 1_655
O7 S3 1.487565 1_555
O7 Sm3 2.366426 1_555
O8 S0 1.497936 1_555
O8 Sm2 2.453548 1_554
O9 S1 1.497936 1_555
O9 Sm3 2.453548 1_555
O10 S2 1.497936 1_555
O10 Sm0 2.453548 1_556
O11 S3 1.497936 1_555
O11 Sm1 2.453548 1_555
O12 S0 1.480019 1_556
O12 Sm2 2.902882 1_555
O13 S1 1.480019 1_555
O13 Sm3 2.902882 1_555
O14 S2 1.480019 1_554
O14 Sm0 2.902882 1_555
O15 S3 1.480019 1_555
O15 Sm1 2.902882 1_555
O16 S4 1.483711 1_555
O16 Sm3 2.467054 1_555
O17 S5 1.483711 1_555
O17 Sm2 2.467054 1_554
O18 S6 1.483711 1_555
O18 Sm1 2.467054 1_555
O19 S7 1.483711 1_555
O19 Sm0 2.467054 1_556
O20 S4 1.487200 1_545
O20 Sm2 2.396522 1_654
O21 S5 1.487200 1_565
O21 Sm3 2.396522 1_555
O22 S6 1.487200 1_565
O22 Sm0 2.396522 1_456
O23 S7 1.487200 1_545
O23 Sm1 2.396522 1_555
O24 S4 1.500340 1_555
O24 Sm0 2.446298 1_555
O25 S5 1.500340 1_555
O25 Sm1 2.446298 1_555
O26 S6 1.500340 1_555
O26 Sm2 2.446298 1_555
O27 S7 1.500340 1_555
O27 Sm3 2.446298 1_555
O28 S4 1.497454 1_555
O28 Sm0 2.673369 1_555
O29 S5 1.497454 1_555
O29 Sm1 2.673369 1_555
O30 S6 1.497454 1_555
O30 Sm2 2.673369 1_555
O31 S7 1.497454 1_555
O31 Sm3 2.673369 1_555
O32 Sm0 2.537031 1_555
O33 Sm1 2.537031 1_555
O34 Sm2 2.537031 1_555
O35 Sm3 2.537031 1_555
