# generated using pymatgen
data_Zn(BiO2)4
_symmetry_space_group_name_H-M   'P 1'
_cell_length_a   8.79408656
_cell_length_b   8.79408656
_cell_length_c   10.14197792
_cell_angle_alpha   55.46070789
_cell_angle_beta   55.46070789
_cell_angle_gamma   22.36263872
_symmetry_Int_Tables_number   1
_chemical_formula_structural   Zn(BiO2)4
_chemical_formula_sum   'Zn1 Bi4 O8'
_cell_volume   243.53050996
_cell_formula_units_Z   1
loop_
 _symmetry_equiv_pos_site_id
 _symmetry_equiv_pos_as_xyz
  1  'x, y, z'
loop_
 _atom_site_type_symbol
 _atom_site_label
 _atom_site_symmetry_multiplicity
 _atom_site_fract_x
 _atom_site_fract_y
 _atom_site_fract_z
 _atom_site_occupancy
  Zn  Zn0  1  0.29765200  0.29765200  0.22299500  1
  Bi  Bi0  1  0.64114200  0.64114200  0.57121300  1
  Bi  Bi1  1  0.12356100  0.12356100  0.20255600  1
  Bi  Bi2  1  0.85306700  0.85306700  0.84802300  1
  Bi  Bi3  1  0.35292100  0.35292100  0.48912700  1
  O  O0  1  0.87307600  0.87307600  0.61417400  1
  O  O1  1  0.45113200  0.45113200  0.77564000  1
  O  O2  1  0.52711000  0.52711000  0.26513500  1
  O  O3  1  0.15169300  0.15169300  0.39405200  1
  O  O4  1  0.19483800  0.19483800  0.64785600  1
  O  O5  1  0.80211200  0.80211200  0.09860800  1
  O  O6  1  0.80292700  0.80292700  0.36397900  1
  O  O7  1  0.25412400  0.25412400  0.91543500  1
loop_
_geom_bond_atom_site_label_1
_geom_bond_atom_site_label_2
_geom_bond_distance
_geom_bond_site_symmetry_2
Bi0 O4 2.281025 1_655
Bi0 O4 2.281025 1_565
Bi0 O6 2.329850 1_555
Bi0 O3 2.406545 1_655
Bi0 O3 2.406545 1_565
Bi0 O1 2.681456 1_555
Bi1 O2 2.204437 1_545
Bi1 O2 2.204437 1_455
Bi1 O3 2.257703 1_555
Bi1 O7 2.443762 1_554
Bi2 O5 2.156182 1_556
Bi2 O0 2.190358 1_555
Bi2 O1 2.207761 1_565
Bi2 O1 2.207761 1_655
Bi2 O7 2.222804 1_655
Bi2 O7 2.222804 1_565
Bi3 O4 2.226198 1_555
Bi3 O0 2.268738 1_455
Bi3 O0 2.268738 1_545
Bi3 O2 2.510342 1_555
Bi3 O6 2.555129 1_545
Bi3 O6 2.555129 1_455
O3 Zn0 2.074129 1_555
O5 Zn0 2.096001 1_655
O5 Zn0 2.096001 1_565
O6 Zn0 2.260808 1_565
O6 Zn0 2.260808 1_655
