# generated using pymatgen
data_CuSi7N10
_symmetry_space_group_name_H-M   'P 1'
_cell_length_a   6.69895917
_cell_length_b   6.91021100
_cell_length_c   9.70076724
_cell_angle_alpha   90.00000000
_cell_angle_beta   103.88469953
_cell_angle_gamma   90.00000000
_symmetry_Int_Tables_number   1
_chemical_formula_structural   CuSi7N10
_chemical_formula_sum   'Cu2 Si14 N20'
_cell_volume   435.93908875
_cell_formula_units_Z   2
loop_
 _symmetry_equiv_pos_site_id
 _symmetry_equiv_pos_as_xyz
  1  'x, y, z'
loop_
 _atom_site_type_symbol
 _atom_site_label
 _atom_site_symmetry_multiplicity
 _atom_site_fract_x
 _atom_site_fract_y
 _atom_site_fract_z
 _atom_site_occupancy
  Cu  Cu0  1  0.97406200  0.90514400  0.68494100  1
  Cu  Cu1  1  0.97406200  0.09485600  0.18494100  1
  Si  Si0  1  0.54407900  0.98146900  0.82368800  1
  Si  Si1  1  0.54407900  0.01853100  0.32368800  1
  Si  Si2  1  0.35138100  0.01907300  0.02150600  1
  Si  Si3  1  0.35138100  0.98092700  0.52150600  1
  Si  Si4  1  0.11341000  0.40016200  0.07392200  1
  Si  Si5  1  0.11341000  0.59983800  0.57392200  1
  Si  Si6  1  0.65738500  0.36235500  0.98966200  1
  Si  Si7  1  0.65738500  0.63764500  0.48966200  1
  Si  Si8  1  0.84577400  0.61797600  0.80937000  1
  Si  Si9  1  0.84577400  0.38202400  0.30937000  1
  Si  Si10  1  0.29935500  0.62099300  0.88221000  1
  Si  Si11  1  0.29935500  0.37900700  0.38221000  1
  Si  Si12  1  0.48412700  0.36741900  0.68630300  1
  Si  Si13  1  0.48412700  0.63258100  0.18630300  1
  N  N0  1  0.75390000  0.84865600  0.80826900  1
  N  N1  1  0.75390000  0.15134400  0.30826900  1
  N  N2  1  0.55422100  0.13731700  0.96899400  1
  N  N3  1  0.55422100  0.86268300  0.46899400  1
  N  N4  1  0.32461700  0.86789600  0.86911300  1
  N  N5  1  0.32461700  0.13210400  0.36911300  1
  N  N6  1  0.15280600  0.15851700  0.04699500  1
  N  N7  1  0.15280600  0.84148300  0.54699500  1
  N  N8  1  0.28747100  0.50565200  0.72308300  1
  N  N9  1  0.28747100  0.49434800  0.22308300  1
  N  N10  1  0.44997500  0.12091200  0.67184900  1
  N  N11  1  0.44997500  0.87908800  0.17184900  1
  N  N12  1  0.88031000  0.38448200  0.12943800  1
  N  N13  1  0.88031000  0.61551800  0.62943800  1
  N  N14  1  0.07551000  0.56808600  0.93472500  1
  N  N15  1  0.07551000  0.43191400  0.43472500  1
  N  N16  1  0.69796200  0.41826700  0.82331600  1
  N  N17  1  0.69796200  0.58173300  0.32331600  1
  N  N18  1  0.49595600  0.54010900  0.02191700  1
  N  N19  1  0.49595600  0.45989100  0.52191700  1
loop_
_geom_bond_atom_site_label_1
_geom_bond_atom_site_label_2
_geom_bond_distance
_geom_bond_site_symmetry_2
Cu0 N7 2.046225 1_655
Cu0 N13 2.127804 1_555
Cu0 N0 2.146096 1_555
Cu0 N4 2.599878 1_655
Cu1 N6 2.046225 1_655
Cu1 N12 2.127804 1_555
Cu1 N1 2.146096 1_555
Cu1 N5 2.599878 1_655
N0 Si8 1.707846 1_555
N0 Si0 1.715002 1_555
N1 Si9 1.707846 1_555
N1 Si1 1.715002 1_555
N2 Si6 1.693965 1_555
N2 Si0 1.762207 1_545
N2 Si2 1.762307 1_556
N3 Si7 1.693965 1_555
N3 Si1 1.762207 1_565
N3 Si3 1.762307 1_555
N4 Si10 1.722223 1_555
N4 Si2 1.783737 1_566
N4 Si0 1.811746 1_555
N5 Si11 1.722223 1_555
N5 Si3 1.783737 1_545
N5 Si1 1.811746 1_555
N6 Si2 1.707939 1_555
N6 Si4 1.720250 1_555
N7 Si3 1.707939 1_555
N7 Si5 1.720250 1_555
N8 Si10 1.722058 1_555
N8 Si12 1.732297 1_555
N8 Si5 1.751343 1_555
N9 Si11 1.722058 1_555
N9 Si13 1.732297 1_555
N9 Si4 1.751343 1_555
N10 Si12 1.719951 1_555
N10 Si3 1.742612 1_545
N10 Si0 1.746379 1_545
N11 Si13 1.719951 1_555
N11 Si2 1.742612 1_565
N11 Si1 1.746379 1_565
N12 Si6 1.766423 1_554
N12 Si4 1.773062 1_655
N12 Si9 1.815026 1_555
N13 Si7 1.766423 1_555
N13 Si5 1.773062 1_655
N13 Si8 1.815026 1_555
N14 Si10 1.734475 1_555
N14 Si8 1.751545 1_455
N14 Si4 1.752080 1_556
N15 Si11 1.734475 1_555
N15 Si9 1.751545 1_455
N15 Si5 1.752080 1_555
N16 Si8 1.722658 1_555
N16 Si12 1.740188 1_555
N16 Si6 1.742888 1_555
N17 Si9 1.722658 1_555
N17 Si13 1.740188 1_555
N17 Si7 1.742888 1_555
N18 Si6 1.714207 1_554
N18 Si13 1.737303 1_555
N18 Si10 1.739839 1_554
N19 Si7 1.714207 1_555
N19 Si12 1.737303 1_555
N19 Si11 1.739839 1_555
