# generated using pymatgen
data_Li7Co5O12
_symmetry_space_group_name_H-M   'P 1'
_cell_length_a   5.77671700
_cell_length_b   5.82687854
_cell_length_c   6.57089878
_cell_angle_alpha   103.17982819
_cell_angle_beta   102.59495047
_cell_angle_gamma   90.52169778
_symmetry_Int_Tables_number   1
_chemical_formula_structural   Li7Co5O12
_chemical_formula_sum   'Li7 Co5 O12'
_cell_volume   209.76662688
_cell_formula_units_Z   1
loop_
 _symmetry_equiv_pos_site_id
 _symmetry_equiv_pos_as_xyz
  1  'x, y, z'
loop_
 _atom_site_type_symbol
 _atom_site_label
 _atom_site_symmetry_multiplicity
 _atom_site_fract_x
 _atom_site_fract_y
 _atom_site_fract_z
 _atom_site_occupancy
  Li  Li0  1  0.00000000  0.50000000  0.00000000  1
  Li  Li1  1  0.33546900  0.83235400  0.32695800  1
  Li  Li2  1  0.17316100  0.16752800  0.67721100  1
  Li  Li3  1  0.50000000  0.50000000  0.00000000  1
  Li  Li4  1  0.66453100  0.16764600  0.67304200  1
  Li  Li5  1  0.82683900  0.83247200  0.32278900  1
  Li  Li6  1  0.50000000  0.00000000  0.00000000  1
  Co  Co0  1  0.00000000  0.00000000  0.00000000  1
  Co  Co1  1  0.82731200  0.32556900  0.32515600  1
  Co  Co2  1  0.33563800  0.32661000  0.33067200  1
  Co  Co3  1  0.66436200  0.67339000  0.66932800  1
  Co  Co4  1  0.17268800  0.67443100  0.67484400  1
  O  O0  1  0.76729200  0.76617800  0.98892500  1
  O  O1  1  0.08079700  0.07717200  0.31065100  1
  O  O2  1  0.91812100  0.44128700  0.65397800  1
  O  O3  1  0.22412400  0.76699700  0.98589200  1
  O  O4  1  0.41790300  0.42254400  0.66633100  1
  O  O5  1  0.59066600  0.11035600  0.34065400  1
  O  O6  1  0.23270800  0.23382200  0.01107500  1
  O  O7  1  0.58209700  0.57745600  0.33366900  1
  O  O8  1  0.40933400  0.88964400  0.65934600  1
  O  O9  1  0.77587600  0.23300300  0.01410800  1
  O  O10  1  0.91920300  0.92282800  0.68934900  1
  O  O11  1  0.08187900  0.55871300  0.34602200  1
loop_
_geom_bond_atom_site_label_1
_geom_bond_atom_site_label_2
_geom_bond_distance
_geom_bond_site_symmetry_2
Li0 O9 2.046133 1_455
Li0 O3 2.046133 1_554
Li0 O0 2.065125 1_454
Li0 O6 2.065125 1_555
Li0 O11 2.164184 1_555
Li0 O2 2.164184 1_454
Li1 O1 2.061544 1_565
Li1 O7 2.068505 1_555
Li1 O8 2.079000 1_555
Li1 O3 2.135182 1_554
Li1 O5 2.153501 1_565
Li1 O11 2.198317 1_555
Li2 O10 2.063101 1_445
Li2 O4 2.065493 1_555
Li2 O6 2.088606 1_556
Li2 O8 2.126100 1_545
Li2 O2 2.189565 1_455
Li2 O1 2.284622 1_555
Li3 O7 2.080162 1_555
Li3 O4 2.080162 1_554
Li3 O0 2.202697 1_554
Li3 O6 2.202697 1_555
Li3 O3 2.239467 1_554
Li3 O9 2.239467 1_555
Li4 O10 2.061544 1_545
Li4 O4 2.068505 1_555
Li4 O5 2.079000 1_555
Li4 O9 2.135182 1_556
Li4 O8 2.153501 1_545
Li4 O2 2.198317 1_555
Li5 O1 2.063101 1_665
Li5 O7 2.065493 1_555
Li5 O0 2.088606 1_554
Li5 O5 2.126100 1_565
Li5 O11 2.189565 1_655
Li5 O10 2.284622 1_555
Li6 O3 2.056796 1_544
Li6 O9 2.056796 1_555
Li6 O0 2.070707 1_544
Li6 O6 2.070707 1_555
Li6 O8 2.127078 1_544
Li6 O5 2.127078 1_555
Co0 O0 1.883468 1_444
Co0 O6 1.883468 1_555
Co0 O3 1.885497 1_544
Co0 O9 1.885497 1_455
Co0 O1 1.936202 1_555
Co0 O10 1.936202 1_444
Co1 O5 1.881344 1_555
Co1 O9 1.945793 1_555
Co1 O11 1.953875 1_655
Co1 O7 2.049115 1_555
Co1 O2 2.057464 1_555
Co1 O1 2.069964 1_655
Co2 O5 1.947271 1_555
Co2 O6 1.996958 1_555
Co2 O11 2.006609 1_555
Co2 O1 2.021484 1_555
Co2 O7 2.024981 1_555
Co2 O4 2.092541 1_555
Co3 O8 1.947271 1_555
Co3 O0 1.996958 1_555
Co3 O2 2.006609 1_555
Co3 O10 2.021484 1_555
Co3 O4 2.024981 1_555
Co3 O7 2.092541 1_555
Co4 O8 1.881344 1_555
Co4 O3 1.945793 1_555
Co4 O2 1.953875 1_455
Co4 O4 2.049115 1_555
Co4 O11 2.057464 1_555
Co4 O10 2.069964 1_455
