# generated using pymatgen
data_HoMn6(Sn2Ge)2
_symmetry_space_group_name_H-M   'P 1'
_cell_length_a   5.34758572
_cell_length_b   5.34758572
_cell_length_c   8.66926700
_cell_angle_alpha   90.00000000
_cell_angle_beta   90.00000000
_cell_angle_gamma   119.99999652
_symmetry_Int_Tables_number   1
_chemical_formula_structural   HoMn6(Sn2Ge)2
_chemical_formula_sum   'Ho1 Mn6 Sn4 Ge2'
_cell_volume   214.69826519
_cell_formula_units_Z   1
loop_
 _symmetry_equiv_pos_site_id
 _symmetry_equiv_pos_as_xyz
  1  'x, y, z'
loop_
 _atom_site_type_symbol
 _atom_site_label
 _atom_site_symmetry_multiplicity
 _atom_site_fract_x
 _atom_site_fract_y
 _atom_site_fract_z
 _atom_site_occupancy
  Ho  Ho0  1  0.00000000  0.00000000  0.00000000  1
  Mn  Mn0  1  0.50000000  0.50000000  0.76715900  1
  Mn  Mn1  1  0.50000000  0.50000000  0.23284100  1
  Mn  Mn2  1  0.00000000  0.50000000  0.76715900  1
  Mn  Mn3  1  0.00000000  0.50000000  0.23284100  1
  Mn  Mn4  1  0.50000000  0.00000000  0.76715900  1
  Mn  Mn5  1  0.50000000  0.00000000  0.23284100  1
  Sn  Sn0  1  0.66666700  0.33333300  0.50000000  1
  Sn  Sn1  1  0.33333300  0.66666700  0.50000000  1
  Sn  Sn2  1  0.00000000  0.00000000  0.66616000  1
  Sn  Sn3  1  0.00000000  0.00000000  0.33384000  1
  Ge  Ge0  1  0.66666700  0.33333300  0.00000000  1
  Ge  Ge1  1  0.33333300  0.66666700  0.00000000  1
loop_
_geom_bond_atom_site_label_1
_geom_bond_atom_site_label_2
_geom_bond_distance
_geom_bond_site_symmetry_2
Ho0 Sn2 2.894148 1_554
Ho0 Sn3 2.894148 1_555
Mn0 Sn1 2.783390 1_555
Mn0 Sn0 2.783390 1_555
Mn0 Sn2 2.813507 1_665
Mn0 Sn2 2.813507 1_555
Mn1 Sn1 2.783390 1_555
Mn1 Sn0 2.783390 1_555
Mn1 Sn3 2.813507 1_665
Mn1 Sn3 2.813507 1_555
Mn2 Sn0 2.783387 1_455
Mn2 Sn1 2.783387 1_555
Mn2 Sn2 2.813507 1_565
Mn2 Sn2 2.813507 1_555
Mn3 Sn0 2.783387 1_455
Mn3 Sn1 2.783387 1_555
Mn3 Sn3 2.813507 1_555
Mn3 Sn3 2.813507 1_565
Mn4 Sn1 2.783387 1_545
Mn4 Sn0 2.783387 1_555
Mn4 Sn2 2.813507 1_655
Mn4 Sn2 2.813507 1_555
Mn5 Sn1 2.783387 1_545
Mn5 Sn0 2.783387 1_555
Mn5 Sn3 2.813507 1_555
Mn5 Sn3 2.813507 1_655
Sn2 Sn3 2.880971 1_555
Ge0 Mn2 2.541189 1_654
Ge0 Mn3 2.541189 1_655
Ge0 Mn4 2.541189 1_554
Ge0 Mn5 2.541189 1_555
Ge0 Mn1 2.541191 1_555
Ge0 Mn0 2.541191 1_554
Ge0 Ho0 3.087427 1_655
Ge0 Ho0 3.087432 1_555
Ge0 Ho0 3.087432 1_665
Ge1 Mn2 2.541189 1_554
Ge1 Mn4 2.541189 1_564
Ge1 Mn3 2.541189 1_555
Ge1 Mn5 2.541189 1_565
Ge1 Mn1 2.541191 1_555
Ge1 Mn0 2.541191 1_554
Ge1 Ho0 3.087427 1_565
Ge1 Ho0 3.087432 1_555
Ge1 Ho0 3.087432 1_665
