# generated using pymatgen
data_Rb8Hf(MoO4)6
_symmetry_space_group_name_H-M   'P 1'
_cell_length_a   10.98345563
_cell_length_b   10.98345563
_cell_length_c   8.14437370
_cell_angle_alpha   81.47709499
_cell_angle_beta   81.47709499
_cell_angle_gamma   124.11066690
_symmetry_Int_Tables_number   1
_chemical_formula_structural   Rb8Hf(MoO4)6
_chemical_formula_sum   'Rb8 Hf1 Mo6 O24'
_cell_volume   771.71943419
_cell_formula_units_Z   1
loop_
 _symmetry_equiv_pos_site_id
 _symmetry_equiv_pos_as_xyz
  1  'x, y, z'
loop_
 _atom_site_type_symbol
 _atom_site_label
 _atom_site_symmetry_multiplicity
 _atom_site_fract_x
 _atom_site_fract_y
 _atom_site_fract_z
 _atom_site_occupancy
  Rb  Rb0  1  0.66514400  0.33485600  0.50000000  1
  Rb  Rb1  1  0.33485600  0.66514400  0.50000000  1
  Rb  Rb2  1  0.48095500  0.13394800  0.10986100  1
  Rb  Rb3  1  0.51904500  0.86605200  0.89013900  1
  Rb  Rb4  1  0.86605200  0.51904500  0.89013900  1
  Rb  Rb5  1  0.13394800  0.48095500  0.10986100  1
  Rb  Rb6  1  0.78690100  0.78690100  0.64514300  1
  Rb  Rb7  1  0.21309900  0.21309900  0.35485700  1
  Hf  Hf0  1  0.00000000  0.00000000  0.00000000  1
  Mo  Mo0  1  0.61700300  0.61700300  0.20499400  1
  Mo  Mo1  1  0.38299700  0.38299700  0.79500600  1
  Mo  Mo2  1  0.74157600  0.05189200  0.28507000  1
  Mo  Mo3  1  0.25842400  0.94810800  0.71493000  1
  Mo  Mo4  1  0.94810800  0.25842400  0.71493000  1
  Mo  Mo5  1  0.05189200  0.74157600  0.28507000  1
  O  O0  1  0.23695900  0.78320000  0.22712600  1
  O  O1  1  0.76304100  0.21680000  0.77287400  1
  O  O2  1  0.21680000  0.76304000  0.77287400  1
  O  O3  1  0.78320000  0.23696000  0.22712600  1
  O  O4  1  0.58772700  0.93340200  0.20241600  1
  O  O5  1  0.41227300  0.06659800  0.79758400  1
  O  O6  1  0.06659800  0.41227300  0.79758400  1
  O  O7  1  0.93340200  0.58772700  0.20241600  1
  O  O8  1  0.68178300  0.97235800  0.51444900  1
  O  O9  1  0.31821700  0.02764200  0.48555100  1
  O  O10  1  0.02764200  0.31821700  0.48555100  1
  O  O11  1  0.97235800  0.68178300  0.51444900  1
  O  O12  1  0.91238200  0.06090400  0.18804400  1
  O  O13  1  0.08761800  0.93909600  0.81195600  1
  O  O14  1  0.93909600  0.08761800  0.81195600  1
  O  O15  1  0.06090400  0.91238200  0.18804400  1
  O  O16  1  0.44512500  0.59388000  0.18956100  1
  O  O17  1  0.55487500  0.40612000  0.81043900  1
  O  O18  1  0.40612000  0.55487500  0.81043900  1
  O  O19  1  0.59388000  0.44512500  0.18956100  1
  O  O20  1  0.65017700  0.65017700  0.40497600  1
  O  O21  1  0.34982300  0.34982300  0.59502400  1
  O  O22  1  0.78903400  0.78903400  0.03190200  1
  O  O23  1  0.21096600  0.21096600  0.96809800  1
loop_
_geom_bond_atom_site_label_1
_geom_bond_atom_site_label_2
_geom_bond_distance
_geom_bond_site_symmetry_2
Hf0 O15 2.075551 1_545
Hf0 O12 2.075551 1_455
Hf0 O14 2.075551 1_454
Hf0 O13 2.075551 1_544
Hf0 O23 2.104023 1_554
Hf0 O22 2.104023 1_445
Mo0 O20 1.766688 1_555
Mo0 O16 1.784991 1_555
Mo0 O19 1.784991 1_555
Mo0 O22 1.882646 1_555
Mo1 O21 1.766688 1_555
Mo1 O17 1.784991 1_555
Mo1 O18 1.784991 1_555
Mo1 O23 1.882646 1_555
Mo2 O4 1.769911 1_545
Mo2 O3 1.781281 1_555
Mo2 O8 1.787052 1_545
Mo2 O12 1.866249 1_555
Mo3 O5 1.769911 1_565
Mo3 O2 1.781281 1_555
Mo3 O9 1.787052 1_565
Mo3 O13 1.866249 1_555
Mo4 O6 1.769911 1_655
Mo4 O1 1.781270 1_555
Mo4 O10 1.787052 1_655
Mo4 O14 1.866249 1_555
Mo5 O7 1.769911 1_455
Mo5 O0 1.781270 1_555
Mo5 O11 1.787052 1_455
Mo5 O15 1.866249 1_555
O0 Rb1 3.032226 1_555
O0 Rb2 3.083275 1_565
O0 Rb5 3.203125 1_555
O0 Rb3 3.396610 1_554
O1 Rb0 3.032226 1_555
O1 Rb3 3.083275 1_545
O1 Rb4 3.203125 1_555
O1 Rb2 3.396610 1_556
O2 Rb1 3.032219 1_555
O2 Rb4 3.083274 1_455
O2 Rb3 3.203123 1_555
O2 Rb5 3.396603 1_556
O3 Rb0 3.032219 1_555
O3 Rb5 3.083274 1_655
O3 Rb2 3.203123 1_555
O3 Rb4 3.396603 1_554
O4 Rb3 2.843434 1_554
O4 Rb1 2.996498 1_555
O4 Rb2 3.076107 1_565
O5 Rb2 2.843434 1_556
O5 Rb0 2.996498 1_555
O5 Rb3 3.076107 1_545
O6 Rb5 2.843434 1_556
O6 Rb1 2.996498 1_555
O6 Rb4 3.076107 1_455
O7 Rb4 2.843434 1_554
O7 Rb0 2.996498 1_555
O7 Rb5 3.076107 1_655
O8 Rb3 2.983206 1_555
O8 Rb6 2.995752 1_555
O8 Rb1 3.427672 1_555
O9 Rb2 2.983206 1_555
O9 Rb7 2.995752 1_555
O9 Rb0 3.427672 1_555
O10 Rb5 2.983206 1_555
O10 Rb7 2.995752 1_555
O10 Rb1 3.427672 1_555
O11 Rb4 2.983206 1_555
O11 Rb6 2.995752 1_555
O11 Rb0 3.427672 1_555
O12 Rb7 3.370463 1_655
O13 Rb6 3.370463 1_455
O14 Rb6 3.370463 1_545
O15 Rb7 3.370463 1_565
O16 Rb1 3.035482 1_555
O16 Rb5 3.127737 1_555
O16 Rb3 3.173732 1_554
O16 Rb7 3.340422 1_555
O17 Rb0 3.035482 1_555
O17 Rb4 3.127737 1_555
O17 Rb2 3.173732 1_556
O17 Rb6 3.340422 1_555
O18 Rb1 3.035482 1_555
O18 Rb3 3.127737 1_555
O18 Rb5 3.173732 1_556
O18 Rb6 3.340422 1_555
O19 Rb0 3.035482 1_555
O19 Rb2 3.127737 1_555
O19 Rb4 3.173732 1_554
O19 Rb7 3.340422 1_555
O20 Rb6 2.747400 1_555
O20 Rb0 3.535860 1_555
O20 Rb1 3.535860 1_555
O21 Rb7 2.747400 1_555
O21 Rb0 3.535860 1_555
O21 Rb1 3.535860 1_555
O22 Rb6 3.156923 1_554
O23 Rb7 3.156923 1_556
