# generated using pymatgen
data_K2Na(SbO3)3
_symmetry_space_group_name_H-M   'P 1'
_cell_length_a   9.62874600
_cell_length_b   9.62947000
_cell_length_c   9.63062900
_cell_angle_alpha   90.00000000
_cell_angle_beta   90.00000000
_cell_angle_gamma   90.00000000
_symmetry_Int_Tables_number   1
_chemical_formula_structural   K2Na(SbO3)3
_chemical_formula_sum   'K8 Na4 Sb12 O36'
_cell_volume   892.94923148
_cell_formula_units_Z   4
loop_
 _symmetry_equiv_pos_site_id
 _symmetry_equiv_pos_as_xyz
  1  'x, y, z'
loop_
 _atom_site_type_symbol
 _atom_site_label
 _atom_site_symmetry_multiplicity
 _atom_site_fract_x
 _atom_site_fract_y
 _atom_site_fract_z
 _atom_site_occupancy
  K  K0  1  0.85205300  0.90165300  0.14779600  1
  K  K1  1  0.14794700  0.90165300  0.85220400  1
  K  K2  1  0.84882700  0.60245500  0.84858100  1
  K  K3  1  0.15117300  0.60245500  0.15141900  1
  K  K4  1  0.65117300  0.10245500  0.34858100  1
  K  K5  1  0.34882700  0.10245500  0.65141900  1
  K  K6  1  0.64794700  0.40165300  0.64779600  1
  K  K7  1  0.35205300  0.40165300  0.35220400  1
  Na  Na0  1  0.24199000  0.50814200  0.75835400  1
  Na  Na1  1  0.75801000  0.50814200  0.24164600  1
  Na  Na2  1  0.25801000  0.00814200  0.25835400  1
  Na  Na3  1  0.74199000  0.00814200  0.74164600  1
  Sb  Sb0  1  0.50000000  0.09104400  0.00000000  1
  Sb  Sb1  1  0.50000000  0.40943800  0.00000000  1
  Sb  Sb2  1  0.65913600  0.75040000  0.49919300  1
  Sb  Sb3  1  0.34086400  0.75040000  0.50080700  1
  Sb  Sb4  1  0.00022800  0.25039200  0.65951000  1
  Sb  Sb5  1  0.99977200  0.25039200  0.34049000  1
  Sb  Sb6  1  0.00000000  0.90943800  0.50000000  1
  Sb  Sb7  1  0.00000000  0.59104400  0.50000000  1
  Sb  Sb8  1  0.84086400  0.25040000  0.99919300  1
  Sb  Sb9  1  0.15913600  0.25040000  0.00080700  1
  Sb  Sb10  1  0.50022800  0.75039200  0.84049000  1
  Sb  Sb11  1  0.49977200  0.75039200  0.15951000  1
  O  O0  1  0.66287900  0.74790500  0.28761100  1
  O  O1  1  0.33712100  0.74790500  0.71238900  1
  O  O2  1  0.66189800  0.75361500  0.71101000  1
  O  O3  1  0.33810200  0.75361500  0.28899000  1
  O  O4  1  0.00262500  0.46194900  0.66249700  1
  O  O5  1  0.00305700  0.03875000  0.33763700  1
  O  O6  1  0.99694300  0.03875000  0.66236300  1
  O  O7  1  0.99737500  0.46194900  0.33750300  1
  O  O8  1  0.28849500  0.08817000  0.00319300  1
  O  O9  1  0.71167500  0.41311300  0.00244000  1
  O  O10  1  0.71150500  0.08817000  0.99680700  1
  O  O11  1  0.28832500  0.41311300  0.99756000  1
  O  O12  1  0.83810200  0.25361500  0.21101000  1
  O  O13  1  0.16189800  0.25361500  0.78899000  1
  O  O14  1  0.83712100  0.24790500  0.78761100  1
  O  O15  1  0.16287900  0.24790500  0.21238900  1
  O  O16  1  0.49694300  0.53875000  0.83763700  1
  O  O17  1  0.49737500  0.96194900  0.16249700  1
  O  O18  1  0.50262500  0.96194900  0.83750300  1
  O  O19  1  0.50305700  0.53875000  0.16236300  1
  O  O20  1  0.21167500  0.91311300  0.49756000  1
  O  O21  1  0.78849500  0.58817000  0.49680700  1
  O  O22  1  0.78832500  0.91311300  0.50244000  1
  O  O23  1  0.21150500  0.58817000  0.50319300  1
  O  O24  1  0.00000000  0.11222000  0.00000000  1
  O  O25  1  0.00000000  0.38953000  0.00000000  1
  O  O26  1  0.63872200  0.75013700  0.00013300  1
  O  O27  1  0.36127800  0.75013700  0.99986700  1
  O  O28  1  0.00074600  0.75020300  0.63866600  1
  O  O29  1  0.99925400  0.75020300  0.36133400  1
  O  O30  1  0.50000000  0.88953000  0.50000000  1
  O  O31  1  0.50000000  0.61222000  0.50000000  1
  O  O32  1  0.86127800  0.25013700  0.50013300  1
  O  O33  1  0.13872200  0.25013700  0.49986700  1
  O  O34  1  0.50074600  0.25020300  0.86133400  1
  O  O35  1  0.49925400  0.25020300  0.13866600  1
loop_
_geom_bond_atom_site_label_1
_geom_bond_atom_site_label_2
_geom_bond_distance
_geom_bond_site_symmetry_2
K0 O10 2.678006 1_564
K0 O5 2.683197 1_665
K0 O0 2.706083 1_555
K0 O24 2.857737 1_665
K0 O29 2.892232 1_555
K0 O26 2.893171 1_555
K1 O8 2.678006 1_566
K1 O6 2.683197 1_465
K1 O1 2.706083 1_555
K1 O24 2.857737 1_566
K1 O28 2.892232 1_555
K1 O27 2.893171 1_555
K2 O2 2.667152 1_555
K2 O4 2.689844 1_655
K2 O9 2.695160 1_556
K2 O26 2.871472 1_556
K2 O28 2.872429 1_655
K2 O25 2.906762 1_656
K3 O3 2.667152 1_555
K3 O7 2.689844 1_455
K3 O11 2.695160 1_554
K3 O27 2.871472 1_554
K3 O29 2.872429 1_455
K3 O25 2.906762 1_555
K4 O12 2.667152 1_555
K4 O17 2.689844 1_545
K4 O22 2.695160 1_545
K4 O32 2.871472 1_555
K4 O35 2.872429 1_555
K4 O30 2.906762 1_545
K5 O13 2.667152 1_555
K5 O18 2.689844 1_545
K5 O20 2.695160 1_545
K5 O33 2.871472 1_555
K5 O34 2.872429 1_555
K5 O30 2.906762 1_545
K6 O21 2.678006 1_555
K6 O16 2.683197 1_555
K6 O14 2.706083 1_555
K6 O31 2.857737 1_555
K6 O34 2.892232 1_555
K6 O32 2.893171 1_555
K7 O23 2.678006 1_555
K7 O19 2.683197 1_555
K7 O15 2.706083 1_555
K7 O31 2.857737 1_555
K7 O35 2.892232 1_555
K7 O33 2.893171 1_555
Na0 O11 2.518625 1_555
Na0 O4 2.522325 1_555
Na0 O1 2.522997 1_555
Na0 O13 2.586307 1_555
Na0 O16 2.587720 1_555
Na0 O23 2.592036 1_555
Na1 O9 2.518625 1_555
Na1 O7 2.522325 1_555
Na1 O0 2.522997 1_555
Na1 O12 2.586307 1_555
Na1 O19 2.587720 1_555
Na1 O21 2.592036 1_555
Na2 O20 2.518625 1_545
Na2 O17 2.522325 1_545
Na2 O15 2.522997 1_555
Na2 O3 2.586307 1_545
Na2 O5 2.587720 1_555
Na2 O8 2.592036 1_555
Na3 O22 2.518625 1_545
Na3 O18 2.522325 1_545
Na3 O14 2.522997 1_555
Na3 O2 2.586307 1_545
Na3 O6 2.587720 1_555
Na3 O10 2.592036 1_555
O0 Sb11 1.997271 1_555
O0 Sb2 2.038128 1_555
O1 Sb10 1.997271 1_555
O1 Sb3 2.038128 1_555
O2 Sb10 1.994783 1_555
O2 Sb2 2.040339 1_555
O3 Sb11 1.994783 1_555
O3 Sb3 2.040339 1_555
O4 Sb7 1.998760 1_555
O4 Sb4 2.037516 1_555
O5 Sb6 1.999107 1_545
O5 Sb5 2.038431 1_455
O6 Sb6 1.999107 1_645
O6 Sb4 2.038431 1_655
O7 Sb7 1.998760 1_655
O7 Sb5 2.037516 1_555
O8 Sb9 1.998098 1_555
O8 Sb0 2.036948 1_555
O9 Sb8 2.000830 1_554
O9 Sb1 2.038607 1_555
O10 Sb8 1.998098 1_555
O10 Sb0 2.036948 1_556
O11 Sb9 2.000830 1_556
O11 Sb1 2.038607 1_556
O12 Sb5 1.994783 1_555
O12 Sb8 2.040339 1_554
O13 Sb4 1.994783 1_555
O13 Sb9 2.040339 1_556
O14 Sb4 1.997271 1_655
O14 Sb8 2.038128 1_555
O15 Sb5 1.997271 1_455
O15 Sb9 2.038128 1_555
O16 Sb1 1.999107 1_556
O16 Sb10 2.038431 1_555
O17 Sb0 1.998760 1_565
O17 Sb11 2.037516 1_555
O18 Sb0 1.998760 1_566
O18 Sb10 2.037516 1_555
O19 Sb1 1.999107 1_555
O19 Sb11 2.038431 1_555
O20 Sb3 2.000830 1_555
O20 Sb6 2.038607 1_555
O21 Sb2 1.998098 1_555
O21 Sb7 2.036948 1_655
O22 Sb2 2.000830 1_555
O22 Sb6 2.038607 1_655
O23 Sb3 1.998098 1_555
O23 Sb7 2.036948 1_555
O24 Sb9 2.029394 1_555
O24 Sb8 2.029394 1_454
O25 Sb8 2.035404 1_454
O25 Sb9 2.035404 1_555
O26 Sb10 2.035211 1_554
O26 Sb11 2.036158 1_555
O27 Sb11 2.035211 1_556
O27 Sb10 2.036158 1_555
O28 Sb7 2.032823 1_555
O28 Sb6 2.033374 1_555
O29 Sb7 2.032823 1_655
O29 Sb6 2.033374 1_655
O30 Sb2 2.035404 1_555
O30 Sb3 2.035404 1_555
O31 Sb2 2.029394 1_555
O31 Sb3 2.029394 1_555
O32 Sb5 2.035211 1_555
O32 Sb4 2.036158 1_655
O33 Sb4 2.035211 1_555
O33 Sb5 2.036158 1_455
O34 Sb0 2.032823 1_556
O34 Sb1 2.033374 1_556
O35 Sb0 2.032823 1_555
O35 Sb1 2.033374 1_555
