# generated using pymatgen
data_BaSc2Si3O10
_symmetry_space_group_name_H-M   'P 1'
_cell_length_a   11.96830635
_cell_length_b   5.29069510
_cell_length_c   6.61330190
_cell_angle_alpha   72.79913052
_cell_angle_beta   90.00000000
_cell_angle_gamma   90.00000000
_symmetry_Int_Tables_number   1
_chemical_formula_structural   BaSc2Si3O10
_chemical_formula_sum   'Ba2 Sc4 Si6 O20'
_cell_volume   400.02918781
_cell_formula_units_Z   2
loop_
 _symmetry_equiv_pos_site_id
 _symmetry_equiv_pos_as_xyz
  1  'x, y, z'
loop_
 _atom_site_type_symbol
 _atom_site_label
 _atom_site_symmetry_multiplicity
 _atom_site_fract_x
 _atom_site_fract_y
 _atom_site_fract_z
 _atom_site_occupancy
  Ba  Ba0  1  0.25000000  0.24020872  0.02506524  1
  Ba  Ba1  1  0.75000000  0.75979128  0.97493476  1
  Sc  Sc0  1  0.10195973  0.84890797  0.67698591  1
  Sc  Sc1  1  0.60195973  0.15109203  0.32301409  1
  Sc  Sc2  1  0.89804027  0.15109203  0.32301409  1
  Sc  Sc3  1  0.39804027  0.84890797  0.67698591  1
  Si  Si0  1  0.25000000  0.42757793  0.48725692  1
  Si  Si1  1  0.75000000  0.57242207  0.51274308  1
  Si  Si2  1  0.05355728  0.69722301  0.21021293  1
  Si  Si3  1  0.55355728  0.30277699  0.78978707  1
  Si  Si4  1  0.94644272  0.30277699  0.78978707  1
  Si  Si5  1  0.44644272  0.69722301  0.21021293  1
  O  O0  1  0.25000000  0.65424872  0.60633650  1
  O  O1  1  0.75000000  0.34575128  0.39366350  1
  O  O2  1  0.25000000  0.12433261  0.63710489  1
  O  O3  1  0.75000000  0.87566739  0.36289511  1
  O  O4  1  0.14248004  0.45988383  0.33098789  1
  O  O5  1  0.64248004  0.54011617  0.66901211  1
  O  O6  1  0.85751996  0.54011617  0.66901211  1
  O  O7  1  0.35751996  0.45988383  0.33098789  1
  O  O8  1  0.93919658  0.54332596  0.19975692  1
  O  O9  1  0.43919658  0.45667404  0.80024308  1
  O  O10  1  0.06080342  0.45667404  0.80024308  1
  O  O11  1  0.56080342  0.54332596  0.19975692  1
  O  O12  1  0.11129885  0.85135682  0.98637316  1
  O  O13  1  0.61129885  0.14864318  0.01362684  1
  O  O14  1  0.88870115  0.14864318  0.01362684  1
  O  O15  1  0.38870115  0.85135682  0.98637316  1
  O  O16  1  0.04250394  0.89808736  0.35724538  1
  O  O17  1  0.54250394  0.10191264  0.64275462  1
  O  O18  1  0.95749606  0.10191264  0.64275462  1
  O  O19  1  0.45749606  0.89808736  0.35724538  1
loop_
_geom_bond_atom_site_label_1
_geom_bond_atom_site_label_2
_geom_bond_distance
_geom_bond_site_symmetry_2
Ba0 O12 2.713846 1_544
Ba0 O15 2.713846 1_544
Ba0 O10 2.764501 1_554
Ba0 O9 2.764501 1_554
Ba0 O2 2.808731 1_554
Ba0 O7 2.913865 1_555
Ba0 O4 2.913865 1_555
Ba0 O0 2.979793 1_554
Ba1 O13 2.713846 1_566
Ba1 O14 2.713846 1_566
Ba1 O11 2.764501 1_556
Ba1 O8 2.764501 1_556
Ba1 O3 2.808731 1_556
Ba1 O6 2.913865 1_555
Ba1 O5 2.913865 1_555
Ba1 O1 2.979793 1_556
O0 Si0 1.617694 1_555
O0 Sc0 2.168594 1_555
O0 Sc3 2.168594 1_555
O1 Si1 1.617694 1_555
O1 Sc1 2.168594 1_555
O1 Sc2 2.168594 1_555
O2 Si0 1.617325 1_555
O2 Sc3 2.259401 1_545
O2 Sc0 2.259401 1_545
O3 Si1 1.617325 1_555
O3 Sc2 2.259401 1_565
O3 Sc1 2.259401 1_565
O4 Si0 1.627484 1_555
O4 Si2 1.659567 1_555
O5 Si1 1.627484 1_555
O5 Si3 1.659567 1_555
O6 Si1 1.627484 1_555
O6 Si4 1.659567 1_555
O7 Si0 1.627484 1_555
O7 Si5 1.659567 1_555
O8 Si2 1.604491 1_655
O8 Sc2 2.052565 1_555
O9 Si3 1.604491 1_555
O9 Sc3 2.052565 1_555
O10 Si4 1.604491 1_455
O10 Sc0 2.052565 1_555
O11 Si5 1.604491 1_555
O11 Sc1 2.052565 1_555
O12 Si2 1.618626 1_556
O12 Sc0 2.052985 1_555
O13 Si3 1.618626 1_554
O13 Sc1 2.052985 1_555
O14 Si4 1.618626 1_554
O14 Sc2 2.052985 1_555
O15 Si5 1.618626 1_556
O15 Sc3 2.052985 1_555
O16 Si2 1.644242 1_555
O16 Sc2 2.157125 1_465
O16 Sc0 2.172540 1_555
O17 Si3 1.644242 1_555
O17 Sc3 2.157125 1_545
O17 Sc1 2.172540 1_555
O18 Si4 1.644242 1_555
O18 Sc0 2.157125 1_645
O18 Sc2 2.172540 1_555
O19 Si5 1.644242 1_555
O19 Sc1 2.157125 1_565
O19 Sc3 2.172540 1_555
