# generated using pymatgen
data_Li4MnCo3O8
_symmetry_space_group_name_H-M   'P 1'
_cell_length_a   5.91650598
_cell_length_b   5.91650598
_cell_length_c   5.04769967
_cell_angle_alpha   73.90278975
_cell_angle_beta   73.90278975
_cell_angle_gamma   60.11682138
_symmetry_Int_Tables_number   1
_chemical_formula_structural   Li4MnCo3O8
_chemical_formula_sum   'Li4 Mn1 Co3 O8'
_cell_volume   145.12825496
_cell_formula_units_Z   1
loop_
 _symmetry_equiv_pos_site_id
 _symmetry_equiv_pos_as_xyz
  1  'x, y, z'
loop_
 _atom_site_type_symbol
 _atom_site_label
 _atom_site_symmetry_multiplicity
 _atom_site_fract_x
 _atom_site_fract_y
 _atom_site_fract_z
 _atom_site_occupancy
  Li  Li0  1  0.00000000  0.50000000  0.50000000  1
  Li  Li1  1  0.25080400  0.25080400  0.99629200  1
  Li  Li2  1  0.50000000  0.00000000  0.50000000  1
  Li  Li3  1  0.74919600  0.74919600  0.00370800  1
  Mn  Mn0  1  0.50000000  0.50000000  0.50000000  1
  Co  Co0  1  0.75301000  0.24699000  0.00000000  1
  Co  Co1  1  0.00000000  0.00000000  0.50000000  1
  Co  Co2  1  0.24699000  0.75301000  0.00000000  1
  O  O0  1  0.62265800  0.14870300  0.73582500  1
  O  O1  1  0.88600300  0.88600300  0.24943800  1
  O  O2  1  0.14870300  0.62265800  0.73582500  1
  O  O3  1  0.38522700  0.38522700  0.25897500  1
  O  O4  1  0.37734200  0.85129700  0.26417500  1
  O  O5  1  0.61477300  0.61477300  0.74102500  1
  O  O6  1  0.85129700  0.37734200  0.26417500  1
  O  O7  1  0.11399700  0.11399700  0.75056200  1
loop_
_geom_bond_atom_site_label_1
_geom_bond_atom_site_label_2
_geom_bond_distance
_geom_bond_site_symmetry_2
Li0 O2 2.100885 1_555
Li0 O6 2.100885 1_455
Li0 O3 2.124675 1_555
Li0 O5 2.124675 1_455
Li0 O1 2.146303 1_455
Li0 O7 2.146303 1_555
Li1 O2 2.108531 1_555
Li1 O0 2.108531 1_555
Li1 O7 2.148295 1_555
Li1 O3 2.196141 1_556
Li1 O4 2.236420 1_546
Li1 O6 2.236420 1_456
Li2 O4 2.100885 1_545
Li2 O0 2.100885 1_555
Li2 O3 2.124675 1_555
Li2 O5 2.124675 1_545
Li2 O7 2.146303 1_555
Li2 O1 2.146303 1_545
Li3 O4 2.108531 1_555
Li3 O6 2.108531 1_555
Li3 O1 2.148295 1_555
Li3 O5 2.196141 1_554
Li3 O2 2.236420 1_654
Li3 O0 2.236420 1_564
Mn0 O3 1.943746 1_555
Mn0 O5 1.943746 1_555
Mn0 O0 1.966629 1_555
Mn0 O4 1.966629 1_555
Mn0 O2 1.966629 1_555
Mn0 O6 1.966629 1_555
Co0 O1 2.037047 1_545
Co0 O7 2.037047 1_654
Co0 O0 2.039193 1_554
Co0 O6 2.039193 1_555
Co0 O5 2.086815 1_554
Co0 O3 2.086815 1_555
Co1 O7 1.977068 1_555
Co1 O1 1.977068 1_445
Co1 O6 2.079686 1_455
Co1 O4 2.079686 1_545
Co1 O0 2.079686 1_455
Co1 O2 2.079686 1_545
Co2 O7 2.037047 1_564
Co2 O1 2.037047 1_455
Co2 O2 2.039193 1_554
Co2 O4 2.039193 1_555
Co2 O5 2.086815 1_554
Co2 O3 2.086815 1_555
