# generated using pymatgen
data_MgV4(GeO4)4
_symmetry_space_group_name_H-M   'P 1'
_cell_length_a   4.54835595
_cell_length_b   4.76830309
_cell_length_c   11.56730198
_cell_angle_alpha   89.98346394
_cell_angle_beta   90.13810152
_cell_angle_gamma   89.46827937
_symmetry_Int_Tables_number   1
_chemical_formula_structural   MgV4(GeO4)4
_chemical_formula_sum   'Mg1 V4 Ge4 O16'
_cell_volume   250.85940463
_cell_formula_units_Z   1
loop_
 _symmetry_equiv_pos_site_id
 _symmetry_equiv_pos_as_xyz
  1  'x, y, z'
loop_
 _atom_site_type_symbol
 _atom_site_label
 _atom_site_symmetry_multiplicity
 _atom_site_fract_x
 _atom_site_fract_y
 _atom_site_fract_z
 _atom_site_occupancy
  Mg  Mg0  1  0.50118000  0.24371200  0.43499500  1
  V  V0  1  0.00907200  0.74512500  0.56850000  1
  V  V1  1  0.49750700  0.75195900  0.06566800  1
  V  V2  1  0.49739200  0.25237200  0.93166800  1
  V  V3  1  0.00128400  0.25758800  0.43676900  1
  Ge  Ge0  1  0.99552400  0.75340000  0.82065100  1
  Ge  Ge1  1  0.50376000  0.24222000  0.68767100  1
  Ge  Ge2  1  0.50440900  0.74855500  0.30955700  1
  Ge  Ge3  1  0.99833600  0.25245300  0.17591700  1
  O  O0  1  0.23343000  0.08664200  0.30775500  1
  O  O1  1  0.26426700  0.58744900  0.42789400  1
  O  O2  1  0.24895300  0.07820800  0.06340900  1
  O  O3  1  0.26674800  0.08828600  0.56527500  1
  O  O4  1  0.26887400  0.58411400  0.18827600  1
  O  O5  1  0.27430400  0.08167600  0.81195100  1
  O  O6  1  0.21908600  0.57720500  0.69616000  1
  O  O7  1  0.24789200  0.57878400  0.93965800  1
  O  O8  1  0.74784800  0.42560900  0.06288600  1
  O  O9  1  0.75881500  0.41545700  0.30554800  1
  O  O10  1  0.72844000  0.91951700  0.18861500  1
  O  O11  1  0.72132300  0.41936800  0.81162100  1
  O  O12  1  0.74951700  0.90967700  0.43087700  1
  O  O13  1  0.74793900  0.92459100  0.94047000  1
  O  O14  1  0.74024600  0.40466000  0.56411700  1
  O  O15  1  0.77385400  0.92137200  0.69742700  1
loop_
_geom_bond_atom_site_label_1
_geom_bond_atom_site_label_2
_geom_bond_distance
_geom_bond_site_symmetry_2
Mg0 O12 1.944725 1_545
Mg0 O1 1.954755 1_555
Mg0 O3 1.994741 1_555
Mg0 O14 2.002615 1_555
Mg0 O0 2.054073 1_555
Mg0 O9 2.076398 1_555
Ge0 O15 1.914979 1_555
Ge0 O6 1.950741 1_655
Ge0 O13 1.961251 1_555
Ge0 O7 1.969727 1_655
Ge0 O5 2.026207 1_665
Ge0 O11 2.034593 1_555
Ge1 O3 1.926985 1_555
Ge1 O11 1.938502 1_555
Ge1 O5 1.939922 1_555
Ge1 O14 1.954922 1_555
Ge1 O15 1.956234 1_545
Ge1 O6 2.049357 1_555
Ge2 O1 1.918083 1_555
Ge2 O10 1.918752 1_555
Ge2 O4 1.933802 1_555
Ge2 O12 1.952299 1_555
Ge2 O9 1.957045 1_555
Ge2 O0 2.020238 1_565
Ge3 O8 1.914141 1_555
Ge3 O2 1.916652 1_655
Ge3 O9 2.008045 1_555
Ge3 O0 2.017399 1_655
Ge3 O4 2.017670 1_655
Ge3 O10 2.021317 1_545
O0 V3 1.999682 1_555
O1 V3 1.987624 1_555
O1 V0 2.133408 1_555
O2 V1 1.914678 1_545
O2 V2 2.076962 1_554
O3 V0 2.021933 1_545
O3 V3 2.071649 1_555
O4 V1 1.937848 1_555
O5 V2 1.902354 1_555
O6 V0 1.926775 1_555
O7 V2 1.920060 1_555
O7 V1 2.026218 1_556
O8 V1 1.920004 1_555
O8 V2 2.072132 1_554
O9 V3 2.015615 1_655
O10 V1 1.942473 1_555
O11 V2 1.902880 1_555
O12 V3 2.025588 1_665
O12 V0 2.125230 1_655
O13 V2 1.928246 1_565
O13 V1 2.024104 1_556
O14 V3 2.016180 1_655
O14 V0 2.041998 1_655
O15 V0 2.016600 1_655
