# generated using pymatgen
data_Li4Mn3NbO8
_symmetry_space_group_name_H-M   'P 1'
_cell_length_a   6.09550554
_cell_length_b   6.09550554
_cell_length_c   6.09550584
_cell_angle_alpha   61.35180183
_cell_angle_beta   61.35180183
_cell_angle_gamma   61.35179304
_symmetry_Int_Tables_number   1
_chemical_formula_structural   Li4Mn3NbO8
_chemical_formula_sum   'Li4 Mn3 Nb1 O8'
_cell_volume   165.00984622
_cell_formula_units_Z   1
loop_
 _symmetry_equiv_pos_site_id
 _symmetry_equiv_pos_as_xyz
  1  'x, y, z'
loop_
 _atom_site_type_symbol
 _atom_site_label
 _atom_site_symmetry_multiplicity
 _atom_site_fract_x
 _atom_site_fract_y
 _atom_site_fract_z
 _atom_site_occupancy
  Li  Li0  1  0.50371700  0.50371700  0.50371700  1
  Li  Li1  1  0.00624700  0.00624700  0.49490800  1
  Li  Li2  1  0.00624700  0.49490800  0.00624700  1
  Li  Li3  1  0.50509200  0.99375300  0.99375300  1
  Mn  Mn0  1  0.50000000  0.50000000  0.00000000  1
  Mn  Mn1  1  0.50000000  0.00000000  0.50000000  1
  Mn  Mn2  1  0.00000000  0.50000000  0.50000000  1
  Nb  Nb0  1  0.00000000  0.00000000  0.00000000  1
  O  O0  1  0.73796300  0.73796300  0.73796300  1
  O  O1  1  0.23624300  0.23624300  0.77325300  1
  O  O2  1  0.23624300  0.77325300  0.23624300  1
  O  O3  1  0.26203700  0.26203700  0.26203700  1
  O  O4  1  0.77325300  0.23624300  0.23624300  1
  O  O5  1  0.76375700  0.76375700  0.22674700  1
  O  O6  1  0.76375700  0.22674700  0.76375700  1
  O  O7  1  0.22674700  0.76375700  0.76375700  1
loop_
_geom_bond_atom_site_label_1
_geom_bond_atom_site_label_2
_geom_bond_distance
_geom_bond_site_symmetry_2
Li0 O7 2.269889 1_555
Li0 O6 2.269889 1_555
Li0 O5 2.269889 1_555
Li0 O4 2.329708 1_555
Li0 O2 2.329708 1_555
Li0 O1 2.329708 1_555
Li1 O7 2.135718 1_545
Li1 O6 2.135718 1_455
Li1 O2 2.141704 1_545
Li1 O4 2.141704 1_455
Li1 O3 2.227919 1_555
Li1 O0 2.336999 1_445
Li2 O5 2.135718 1_455
Li2 O7 2.135719 1_554
Li2 O1 2.141704 1_554
Li2 O4 2.141704 1_455
Li2 O3 2.227919 1_555
Li2 O0 2.336999 1_454
Li3 O1 2.135718 1_565
Li3 O2 2.135719 1_556
Li3 O5 2.141704 1_556
Li3 O6 2.141704 1_565
Li3 O0 2.227919 1_555
Li3 O3 2.336999 1_566
Mn0 O0 2.081714 1_554
Mn0 O3 2.081714 1_555
Mn0 O2 2.223727 1_555
Mn0 O4 2.223727 1_555
Mn0 O6 2.223727 1_554
Mn0 O7 2.223727 1_554
Mn1 O0 2.081713 1_545
Mn1 O3 2.081713 1_555
Mn1 O1 2.223727 1_555
Mn1 O5 2.223727 1_545
Mn1 O4 2.223727 1_555
Mn1 O7 2.223727 1_545
Mn2 O0 2.081713 1_455
Mn2 O3 2.081713 1_555
Mn2 O1 2.223727 1_555
Mn2 O5 2.223727 1_455
Mn2 O2 2.223727 1_555
Mn2 O6 2.223727 1_455
Nb0 O2 2.056482 1_545
Nb0 O4 2.056482 1_455
Nb0 O6 2.056482 1_454
Nb0 O7 2.056482 1_544
Nb0 O1 2.056482 1_554
Nb0 O5 2.056482 1_445
