# generated using pymatgen
data_LiMg14BO15
_symmetry_space_group_name_H-M   'P 1'
_cell_length_a   8.60182767
_cell_length_b   8.35413609
_cell_length_c   4.27894251
_cell_angle_alpha   90.00000000
_cell_angle_beta   90.00000000
_cell_angle_gamma   90.00000000
_symmetry_Int_Tables_number   1
_chemical_formula_structural   LiMg14BO15
_chemical_formula_sum   'Li1 Mg14 B1 O15'
_cell_volume   307.48839871
_cell_formula_units_Z   1
loop_
 _symmetry_equiv_pos_site_id
 _symmetry_equiv_pos_as_xyz
  1  'x, y, z'
loop_
 _atom_site_type_symbol
 _atom_site_label
 _atom_site_symmetry_multiplicity
 _atom_site_fract_x
 _atom_site_fract_y
 _atom_site_fract_z
 _atom_site_occupancy
  Li  Li0  1  0.99116927  -0.00000000  -0.00000000  1
  Mg  Mg0  1  0.50247693  -0.00000000  -0.00000000  1
  Mg  Mg1  1  0.50197415  0.50000000  -0.00000000  1
  Mg  Mg2  1  0.00018438  0.25940129  0.50000000  1
  Mg  Mg3  1  0.00018438  0.74059871  0.50000000  1
  Mg  Mg4  1  0.50085055  0.24902419  0.50000000  1
  Mg  Mg5  1  0.50085055  0.75097581  0.50000000  1
  Mg  Mg6  1  0.24012169  -0.00000000  0.50000000  1
  Mg  Mg7  1  0.24126106  0.50000000  0.50000000  1
  Mg  Mg8  1  0.75834663  -0.00000000  0.50000000  1
  Mg  Mg9  1  0.75349327  0.50000000  0.50000000  1
  Mg  Mg10  1  0.24956974  0.26269116  0.00000000  1
  Mg  Mg11  1  0.24956974  0.73730884  -0.00000000  1
  Mg  Mg12  1  0.75039494  0.24418227  0.00000000  1
  Mg  Mg13  1  0.75039494  0.75581773  -0.00000000  1
  B  B0  1  0.94413564  0.50000000  -0.00000000  1
  O  O0  1  0.27485428  0.50000000  -0.00000000  1
  O  O1  1  0.75519893  -0.00000000  -0.00000000  1
  O  O2  1  0.77001279  0.50000000  -0.00000000  1
  O  O3  1  0.24687129  0.25301458  0.50000000  1
  O  O4  1  0.24687129  0.74698542  0.50000000  1
  O  O5  1  0.75422499  0.24980404  0.50000000  1
  O  O6  1  0.75422499  0.75019596  0.50000000  1
  O  O7  1  0.99953892  -0.00000000  0.50000000  1
  O  O8  1  0.99025404  0.50000000  0.50000000  1
  O  O9  1  0.50269276  -0.00000000  0.50000000  1
  O  O10  1  0.51392362  0.50000000  0.50000000  1
  O  O11  1  0.99444190  0.32942698  0.00000000  1
  O  O12  1  0.99444190  0.67057302  -0.00000000  1
  O  O13  1  0.50873522  0.25096725  -0.00000000  1
  O  O14  1  0.50873522  0.74903275  -0.00000000  1
loop_
_geom_bond_atom_site_label_1
_geom_bond_atom_site_label_2
_geom_bond_distance
_geom_bond_site_symmetry_2
Li0 O1 2.029776 1_555
Li0 O7 2.140682 1_554
Li0 O7 2.140682 1_555
Mg0 O14 2.097306 1_545
Mg0 O13 2.097306 1_555
Mg0 O9 2.139472 1_555
Mg0 O9 2.139472 1_554
Mg0 O1 2.173871 1_555
Mg1 O0 1.953646 1_555
Mg1 O13 2.081266 1_555
Mg1 O14 2.081266 1_555
Mg1 O10 2.141939 1_555
Mg1 O10 2.141939 1_554
Mg1 O2 2.305622 1_555
Mg2 O8 2.011809 1_455
Mg2 O5 2.117219 1_455
Mg2 O3 2.122629 1_555
Mg2 O7 2.167081 1_455
Mg2 O11 2.218560 1_456
Mg2 O11 2.218560 1_455
Mg3 O8 2.011809 1_455
Mg3 O6 2.117219 1_455
Mg3 O4 2.122629 1_555
Mg3 O7 2.167081 1_465
Mg3 O12 2.218560 1_455
Mg3 O12 2.218560 1_456
Mg4 O9 2.080442 1_555
Mg4 O10 2.099700 1_555
Mg4 O13 2.140608 1_555
Mg4 O13 2.140608 1_556
Mg4 O5 2.179493 1_555
Mg4 O3 2.184940 1_555
Mg5 O9 2.080442 1_565
Mg5 O10 2.099700 1_555
Mg5 O14 2.140608 1_556
Mg5 O14 2.140608 1_555
Mg5 O6 2.179493 1_555
Mg5 O4 2.184940 1_555
Mg6 O7 2.069452 1_455
Mg6 O3 2.114515 1_555
Mg6 O4 2.114515 1_545
Mg6 O9 2.258591 1_555
Mg7 O3 2.063914 1_555
Mg7 O4 2.063914 1_555
Mg7 O0 2.158897 1_555
Mg7 O0 2.158897 1_556
Mg7 O8 2.159119 1_455
Mg7 O10 2.345396 1_555
Mg8 O7 2.074695 1_555
Mg8 O6 2.087198 1_545
Mg8 O5 2.087198 1_555
Mg8 O1 2.139643 1_556
Mg8 O1 2.139643 1_555
Mg8 O9 2.199091 1_555
Mg9 O8 2.036575 1_555
Mg9 O10 2.060737 1_555
Mg9 O5 2.090181 1_555
Mg9 O6 2.090181 1_555
Mg9 O2 2.144185 1_555
Mg9 O2 2.144185 1_556
Mg10 O0 1.994405 1_555
Mg10 O3 2.141124 1_554
Mg10 O3 2.141124 1_555
Mg10 O13 2.231447 1_555
Mg10 O11 2.264276 1_455
Mg11 O0 1.994405 1_555
Mg11 O4 2.141124 1_554
Mg11 O4 2.141124 1_555
Mg11 O14 2.231447 1_555
Mg11 O12 2.264276 1_455
Mg12 O1 2.040350 1_555
Mg12 O13 2.079488 1_555
Mg12 O5 2.140240 1_554
Mg12 O5 2.140240 1_555
Mg12 O2 2.143788 1_555
Mg12 O11 2.216755 1_555
Mg13 O1 2.040350 1_565
Mg13 O14 2.079488 1_555
Mg13 O6 2.140240 1_555
Mg13 O6 2.140240 1_554
Mg13 O2 2.143788 1_555
Mg13 O12 2.216755 1_555
B0 O12 1.489244 1_555
B0 O11 1.489244 1_555
B0 O2 1.497775 1_555
B0 O8 2.175939 1_555
B0 O8 2.175939 1_554
