# generated using pymatgen
data_LaMg2
_symmetry_space_group_name_H-M   'P 1'
_cell_length_a   6.21095394
_cell_length_b   6.21095383
_cell_length_c   6.21095380
_cell_angle_alpha   59.99997684
_cell_angle_beta   59.99998006
_cell_angle_gamma   59.99998345
_symmetry_Int_Tables_number   1
_chemical_formula_structural   LaMg2
_chemical_formula_sum   'La2 Mg4'
_cell_volume   169.41806392
_cell_formula_units_Z   2
loop_
 _symmetry_equiv_pos_site_id
 _symmetry_equiv_pos_as_xyz
  1  'x, y, z'
loop_
 _atom_site_type_symbol
 _atom_site_label
 _atom_site_symmetry_multiplicity
 _atom_site_fract_x
 _atom_site_fract_y
 _atom_site_fract_z
 _atom_site_occupancy
  La  La0  1  0.12500000  0.12500000  0.12500000  1
  La  La1  1  0.87500000  0.87500000  0.87500000  1
  Mg  Mg0  1  0.50000000  0.00000000  0.50000000  1
  Mg  Mg1  1  0.00000000  0.50000000  0.50000000  1
  Mg  Mg2  1  0.50000000  0.50000000  0.50000000  1
  Mg  Mg3  1  0.50000000  0.50000000  0.00000000  1
loop_
_geom_bond_atom_site_label_1
_geom_bond_atom_site_label_2
_geom_bond_distance
_geom_bond_site_symmetry_2
La0 Mg2 3.641493 1_554
La0 Mg2 3.641493 1_545
La0 Mg2 3.641494 1_455
La0 Mg1 3.641494 1_545
La0 Mg1 3.641494 1_554
La0 Mg0 3.641494 1_455
La0 Mg0 3.641494 1_554
La0 Mg3 3.641494 1_455
La0 Mg3 3.641494 1_545
La0 Mg3 3.641495 1_555
La0 Mg0 3.641495 1_555
La0 Mg1 3.641495 1_555
La0 La1 3.803416 1_445
La0 La1 3.803416 1_454
La0 La1 3.803416 1_544
La0 La1 3.803418 1_444
La1 Mg2 3.641493 1_556
La1 Mg2 3.641493 1_565
La1 Mg2 3.641494 1_655
La1 Mg1 3.641494 1_665
La1 Mg1 3.641494 1_656
La1 Mg0 3.641494 1_665
La1 Mg0 3.641494 1_566
La1 Mg3 3.641494 1_656
La1 Mg3 3.641494 1_566
La1 Mg3 3.641495 1_556
La1 Mg0 3.641495 1_565
La1 Mg1 3.641495 1_655
Mg0 Mg3 3.105476 1_555
Mg0 Mg3 3.105476 1_546
Mg0 Mg1 3.105476 1_555
Mg0 Mg1 3.105476 1_645
Mg0 Mg2 3.105477 1_555
Mg0 Mg2 3.105477 1_545
Mg1 Mg3 3.105476 1_555
Mg1 Mg3 3.105476 1_456
Mg1 Mg2 3.105477 1_555
Mg1 Mg2 3.105477 1_455
Mg2 Mg3 3.105477 1_556
Mg2 Mg3 3.105477 1_555
