# generated using pymatgen
data_CoO2
_symmetry_space_group_name_H-M   'P 1'
_cell_length_a   2.90954981
_cell_length_b   14.07799055
_cell_length_c   2.91087237
_cell_angle_alpha   85.14677145
_cell_angle_beta   60.77688003
_cell_angle_gamma   84.71270021
_symmetry_Int_Tables_number   1
_chemical_formula_structural   CoO2
_chemical_formula_sum   'Co2 O4'
_cell_volume   103.50553984
_cell_formula_units_Z   2
loop_
 _symmetry_equiv_pos_site_id
 _symmetry_equiv_pos_as_xyz
  1  'x, y, z'
loop_
 _atom_site_type_symbol
 _atom_site_label
 _atom_site_symmetry_multiplicity
 _atom_site_fract_x
 _atom_site_fract_y
 _atom_site_fract_z
 _atom_site_occupancy
  Co  Co0  1  0.50000500  0.50000800  0.49999600  1
  Co  Co1  1  0.99999300  0.99999100  0.00000900  1
  O  O0  1  0.72337600  0.93139600  0.66700300  1
  O  O1  1  0.17236200  0.43145800  0.21811400  1
  O  O2  1  0.82765300  0.56855900  0.78186400  1
  O  O3  1  0.27661000  0.06858800  0.33301500  1
loop_
_geom_bond_atom_site_label_1
_geom_bond_atom_site_label_2
_geom_bond_distance
_geom_bond_site_symmetry_2
Co0 O2 1.892246 1_555
Co0 O1 1.892256 1_555
Co0 O2 1.910559 1_455
Co0 O1 1.910563 1_655
Co0 O1 2.022899 1_556
Co0 O2 2.022936 1_554
Co1 O0 1.892959 1_554
Co1 O3 1.892976 1_665
Co1 O0 1.910516 1_555
Co1 O3 1.910529 1_664
Co1 O0 2.023293 1_654
Co1 O3 2.023305 1_565
