# generated using pymatgen
data_Li9Mn2Co5O16
_symmetry_space_group_name_H-M   'P 1'
_cell_length_a   5.18388400
_cell_length_b   6.45345878
_cell_length_c   8.60616194
_cell_angle_alpha   97.04663070
_cell_angle_beta   94.23636350
_cell_angle_gamma   95.58651873
_symmetry_Int_Tables_number   1
_chemical_formula_structural   Li9Mn2Co5O16
_chemical_formula_sum   'Li9 Mn2 Co5 O16'
_cell_volume   283.30326252
_cell_formula_units_Z   1
loop_
 _symmetry_equiv_pos_site_id
 _symmetry_equiv_pos_as_xyz
  1  'x, y, z'
loop_
 _atom_site_type_symbol
 _atom_site_label
 _atom_site_symmetry_multiplicity
 _atom_site_fract_x
 _atom_site_fract_y
 _atom_site_fract_z
 _atom_site_occupancy
  Li  Li0  1  0.76146800  0.56297800  0.94509200  1
  Li  Li1  1  0.24985700  0.93278800  0.55861400  1
  Li  Li2  1  0.75798600  0.32175400  0.19212500  1
  Li  Li3  1  0.24347600  0.45326600  0.06687400  1
  Li  Li4  1  0.74931100  0.81375000  0.68282100  1
  Li  Li5  1  0.24157600  0.18392800  0.31221700  1
  Li  Li6  1  0.23775700  0.68502600  0.81193200  1
  Li  Li7  1  0.75828100  0.05034200  0.42725100  1
  Li  Li8  1  0.00156000  0.75165100  0.24920400  1
  Mn  Mn0  1  0.99996900  0.99769600  0.00309400  1
  Mn  Mn1  1  0.49977900  0.37549500  0.62389600  1
  Co  Co0  1  0.49933100  0.12655600  0.87486300  1
  Co  Co1  1  0.00040900  0.49970300  0.49827000  1
  Co  Co2  1  0.50670500  0.87093500  0.13034800  1
  Co  Co3  1  0.00028500  0.25025500  0.74945500  1
  Co  Co4  1  0.49805900  0.62403000  0.37577600  1
  O  O0  1  0.11664300  0.73706000  0.02722800  1
  O  O1  1  0.61298400  0.10481700  0.66739400  1
  O  O2  1  0.15572000  0.48889500  0.30396700  1
  O  O3  1  0.60149900  0.60469500  0.16622200  1
  O  O4  1  0.11103800  0.98361300  0.78703700  1
  O  O5  1  0.60886700  0.35623700  0.40909800  1
  O  O6  1  0.64274700  0.86961500  0.92305300  1
  O  O7  1  0.10622100  0.22749100  0.53828700  1
  O  O8  1  0.38769900  0.39308900  0.83896100  1
  O  O9  1  0.84689400  0.74758300  0.45858900  1
  O  O10  1  0.35603900  0.12839800  0.07777000  1
  O  O11  1  0.88806000  0.27106500  0.96069200  1
  O  O12  1  0.38829900  0.64780100  0.58762200  1
  O  O13  1  0.87992100  0.03600000  0.20532300  1
  O  O14  1  0.89221600  0.51638700  0.70896000  1
  O  O15  1  0.39934500  0.88710100  0.33796400  1
loop_
_geom_bond_atom_site_label_1
_geom_bond_atom_site_label_2
_geom_bond_distance
_geom_bond_site_symmetry_2
Li0 O11 2.070578 1_555
Li0 O0 2.088513 1_656
Li0 O3 2.129035 1_556
Li0 O6 2.154674 1_555
Li0 O14 2.184685 1_555
Li0 O8 2.206747 1_555
Li1 O12 2.074370 1_555
Li1 O15 2.101899 1_555
Li1 O7 2.130767 1_565
Li1 O4 2.141668 1_555
Li1 O1 2.174890 1_565
Li1 O9 2.351364 1_455
Li2 O13 2.020122 1_555
Li2 O5 2.068502 1_555
Li2 O3 2.098426 1_555
Li2 O11 2.147148 1_554
Li2 O2 2.315176 1_655
Li2 O10 2.399313 1_555
Li3 O0 2.063383 1_555
Li3 O3 2.082789 1_555
Li3 O2 2.113218 1_555
Li3 O8 2.154850 1_554
Li3 O11 2.162876 1_454
Li3 O10 2.241210 1_555
Li4 O9 2.036263 1_555
Li4 O1 2.085949 1_565
Li4 O12 2.118597 1_555
Li4 O4 2.152294 1_655
Li4 O14 2.154092 1_555
Li4 O6 2.175828 1_555
Li5 O2 2.068011 1_555
Li5 O13 2.110379 1_455
Li5 O7 2.112488 1_555
Li5 O10 2.142999 1_555
Li5 O5 2.163944 1_555
Li5 O15 2.183976 1_545
Li6 O0 2.000085 1_556
Li6 O14 2.080288 1_455
Li6 O4 2.125412 1_555
Li6 O12 2.130410 1_555
Li6 O8 2.138615 1_555
Li6 O6 2.382880 1_555
Li7 O13 2.049392 1_555
Li7 O15 2.090672 1_545
Li7 O9 2.094512 1_545
Li7 O7 2.132892 1_655
Li7 O5 2.208350 1_555
Li7 O1 2.250659 1_555
Li8 O9 2.027733 1_455
Li8 O2 2.034792 1_555
Li8 O0 2.037015 1_555
Li8 O13 2.065844 1_465
Li8 O15 2.202782 1_555
Li8 O3 2.223161 1_455
Mn0 O0 1.871714 1_655
Mn0 O13 1.887283 1_565
Mn0 O11 1.976857 1_564
Mn0 O10 1.979942 1_665
Mn0 O4 1.980938 1_654
Mn0 O6 1.990152 1_554
Mn1 O12 1.955826 1_555
Mn1 O1 1.965562 1_555
Mn1 O5 1.965774 1_555
Mn1 O8 1.973930 1_555
Mn1 O14 2.181225 1_555
Mn1 O7 2.200735 1_555
Co0 O1 1.914393 1_555
Co0 O8 1.920086 1_555
Co0 O10 1.946680 1_556
Co0 O6 1.958928 1_545
Co0 O4 2.171756 1_545
Co0 O11 2.172842 1_555
Co1 O2 1.905403 1_555
Co1 O9 1.910669 1_455
Co1 O14 1.930822 1_455
Co1 O7 1.952854 1_555
Co1 O12 2.182902 1_555
Co1 O5 2.189869 1_455
Co2 O3 1.887066 1_555
Co2 O15 1.904122 1_555
Co2 O6 1.965564 1_554
Co2 O10 1.990063 1_565
Co2 O13 2.130690 1_565
Co2 O0 2.197562 1_555
Co3 O14 1.921029 1_455
Co3 O4 1.922689 1_545
Co3 O7 1.929652 1_555
Co3 O11 1.942408 1_455
Co3 O1 2.161397 1_455
Co3 O8 2.170977 1_555
Co4 O15 1.878854 1_555
Co4 O3 1.912131 1_555
Co4 O5 1.920774 1_555
Co4 O2 1.922560 1_555
Co4 O12 1.942395 1_555
Co4 O9 1.950170 1_555
