# generated using pymatgen
data_TmAsPd
_symmetry_space_group_name_H-M   'P 1'
_cell_length_a   4.06320855
_cell_length_b   6.97621629
_cell_length_c   7.86685984
_cell_angle_alpha   90.00000000
_cell_angle_beta   90.00000000
_cell_angle_gamma   90.00000000
_symmetry_Int_Tables_number   1
_chemical_formula_structural   TmAsPd
_chemical_formula_sum   'Tm4 As4 Pd4'
_cell_volume   222.99260618
_cell_formula_units_Z   4
loop_
 _symmetry_equiv_pos_site_id
 _symmetry_equiv_pos_as_xyz
  1  'x, y, z'
loop_
 _atom_site_type_symbol
 _atom_site_label
 _atom_site_symmetry_multiplicity
 _atom_site_fract_x
 _atom_site_fract_y
 _atom_site_fract_z
 _atom_site_occupancy
  Tm  Tm0  1  0.75000000  0.96576594  0.19178648  1
  Tm  Tm1  1  0.75000000  0.46576594  0.30821252  1
  Tm  Tm2  1  0.25000000  0.03423406  0.80821252  1
  Tm  Tm3  1  0.25000000  0.53423406  0.69178748  1
  As  As0  1  0.75000000  0.25643063  0.62121613  1
  As  As1  1  0.75000000  0.75643063  0.87878387  1
  As  As2  1  0.25000000  0.74356937  0.37878387  1
  As  As3  1  0.25000000  0.24356937  0.12121613  1
  Pd  Pd0  1  0.75000000  0.85827125  0.56303084  1
  Pd  Pd1  1  0.75000000  0.35827125  0.93696916  1
  Pd  Pd2  1  0.25000000  0.14172875  0.43696916  1
  Pd  Pd3  1  0.25000000  0.64172875  0.06303084  1
loop_
_geom_bond_atom_site_label_1
_geom_bond_atom_site_label_2
_geom_bond_distance
_geom_bond_site_symmetry_2
As0 Pd1 2.583590 1_555
As0 Pd2 2.620802 1_555
As0 Pd2 2.620802 1_655
As0 Pd0 2.815109 1_545
As0 Tm3 2.862087 1_655
As0 Tm3 2.862087 1_555
As0 Tm1 2.862843 1_555
As0 Tm2 2.948603 1_655
As0 Tm2 2.948603 1_555
As1 Pd0 2.583590 1_555
As1 Pd3 2.620802 1_556
As1 Pd3 2.620802 1_656
As1 Pd1 2.815109 1_555
As1 Tm2 2.862087 1_665
As1 Tm2 2.862087 1_565
As1 Tm0 2.862836 1_556
As1 Tm3 2.948603 1_655
As1 Tm3 2.948603 1_555
As2 Pd3 2.583590 1_555
As2 Pd0 2.620802 1_455
As2 Pd0 2.620802 1_555
As2 Pd2 2.815109 1_565
As2 Tm1 2.862087 1_555
As2 Tm1 2.862087 1_455
As2 Tm3 2.862843 1_555
As2 Tm0 2.948607 1_455
As2 Tm0 2.948607 1_555
As3 Pd2 2.583590 1_555
As3 Pd1 2.620802 1_454
As3 Pd1 2.620802 1_554
As3 Pd3 2.815109 1_555
As3 Tm0 2.862086 1_545
As3 Tm0 2.862086 1_445
As3 Tm2 2.862843 1_554
As3 Tm1 2.948603 1_555
As3 Tm1 2.948603 1_455
Pd0 Pd2 3.003540 1_565
Pd0 Pd2 3.003540 1_665
Pd0 Tm0 3.015268 1_555
Pd0 Tm2 3.058531 1_665
Pd0 Tm2 3.058531 1_565
Pd0 Tm3 3.203671 1_655
Pd0 Tm3 3.203671 1_555
Pd0 Tm1 3.393560 1_555
Pd1 Pd3 3.003540 1_656
Pd1 Pd3 3.003540 1_556
Pd1 Tm1 3.015260 1_556
Pd1 Tm3 3.058531 1_655
Pd1 Tm3 3.058531 1_555
Pd1 Tm2 3.203671 1_555
Pd1 Tm2 3.203671 1_655
Pd1 Tm0 3.393556 1_546
Pd2 Tm2 3.015260 1_555
Pd2 Tm0 3.058536 1_445
Pd2 Tm0 3.058536 1_545
Pd2 Tm1 3.203671 1_555
Pd2 Tm1 3.203671 1_455
Pd2 Tm3 3.393560 1_555
Pd3 Tm3 3.015260 1_554
Pd3 Tm1 3.058531 1_455
Pd3 Tm1 3.058531 1_555
Pd3 Tm0 3.203668 1_555
Pd3 Tm0 3.203668 1_455
Pd3 Tm2 3.393560 1_564
