# generated using pymatgen
data_NaMg6Cd
_symmetry_space_group_name_H-M   'P 1'
_cell_length_a   5.25773700
_cell_length_b   6.41891400
_cell_length_c   11.12101700
_cell_angle_alpha   90.00000000
_cell_angle_beta   90.00000000
_cell_angle_gamma   90.00000000
_symmetry_Int_Tables_number   1
_chemical_formula_structural   NaMg6Cd
_chemical_formula_sum   'Na2 Mg12 Cd2'
_cell_volume   375.32277610
_cell_formula_units_Z   2
loop_
 _symmetry_equiv_pos_site_id
 _symmetry_equiv_pos_as_xyz
  1  'x, y, z'
loop_
 _atom_site_type_symbol
 _atom_site_label
 _atom_site_symmetry_multiplicity
 _atom_site_fract_x
 _atom_site_fract_y
 _atom_site_fract_z
 _atom_site_occupancy
  Na  Na0  1  0.50000000  0.00000000  0.16680000  1
  Na  Na1  1  0.50000000  0.50000000  0.66680000  1
  Mg  Mg0  1  0.50000000  0.24900400  0.41657400  1
  Mg  Mg1  1  0.50000000  0.75099600  0.41657400  1
  Mg  Mg2  1  0.00000000  0.74870000  0.08322000  1
  Mg  Mg3  1  0.00000000  0.25130000  0.08322000  1
  Mg  Mg4  1  0.00000000  0.00000000  0.33407200  1
  Mg  Mg5  1  0.00000000  0.50000000  0.33318600  1
  Mg  Mg6  1  0.50000000  0.74900400  0.91657400  1
  Mg  Mg7  1  0.50000000  0.25099600  0.91657400  1
  Mg  Mg8  1  0.00000000  0.24870000  0.58322000  1
  Mg  Mg9  1  0.00000000  0.75130000  0.58322000  1
  Mg  Mg10  1  0.00000000  0.50000000  0.83407200  1
  Mg  Mg11  1  0.00000000  0.00000000  0.83318600  1
  Cd  Cd0  1  0.50000000  0.50000000  0.16634900  1
  Cd  Cd1  1  0.50000000  0.00000000  0.66634900  1
loop_
_geom_bond_atom_site_label_1
_geom_bond_atom_site_label_2
_geom_bond_distance
_geom_bond_site_symmetry_2
Mg0 Mg1 3.196671 1_545
Mg0 Na0 3.204765 1_555
Mg0 Mg4 3.210521 1_555
Mg0 Mg4 3.210521 1_655
Mg0 Na1 3.215511 1_555
Mg0 Mg8 3.216454 1_555
Mg0 Mg8 3.216454 1_655
Mg0 Mg5 3.219730 1_555
Mg0 Mg5 3.219730 1_655
Mg0 Mg1 3.222243 1_555
Mg1 Na0 3.204765 1_565
Mg1 Mg4 3.210521 1_565
Mg1 Mg4 3.210521 1_665
Mg1 Na1 3.215511 1_555
Mg1 Mg9 3.216454 1_555
Mg1 Mg9 3.216454 1_655
Mg1 Mg5 3.219730 1_555
Mg1 Mg5 3.219730 1_655
Mg2 Mg3 3.192768 1_555
Mg2 Mg5 3.205644 1_555
Mg2 Mg6 3.216454 1_454
Mg2 Mg6 3.216454 1_554
Mg2 Na0 3.221322 1_565
Mg2 Na0 3.221322 1_465
Mg2 Mg4 3.222514 1_565
Mg2 Mg3 3.226146 1_565
Mg3 Mg5 3.205644 1_555
Mg3 Mg7 3.216454 1_554
Mg3 Mg7 3.216454 1_454
Mg3 Na0 3.221322 1_455
Mg3 Na0 3.221322 1_555
Mg3 Mg4 3.222514 1_555
Mg4 Mg9 3.197758 1_545
Mg4 Mg8 3.197758 1_555
Mg4 Mg5 3.209472 1_545
Mg4 Mg5 3.209472 1_555
Mg4 Na0 3.220469 1_555
Mg4 Na0 3.220469 1_455
Mg5 Mg8 3.214642 1_555
Mg5 Mg9 3.214642 1_555
Mg6 Mg7 3.196671 1_555
Mg6 Na1 3.204765 1_555
Mg6 Na0 3.215511 1_566
Mg6 Mg7 3.222243 1_565
Mg7 Na1 3.204765 1_555
Mg7 Na0 3.215511 1_556
Mg8 Mg9 3.192768 1_545
Mg8 Na1 3.221322 1_455
Mg8 Na1 3.221322 1_555
Mg8 Mg9 3.226146 1_555
Mg9 Na1 3.221322 1_555
Mg9 Na1 3.221322 1_455
Mg10 Mg3 3.197758 1_556
Mg10 Mg2 3.197758 1_556
Mg10 Mg11 3.209472 1_555
Mg10 Mg11 3.209472 1_565
Mg10 Mg7 3.210521 1_455
Mg10 Mg7 3.210521 1_555
Mg10 Mg6 3.210521 1_555
Mg10 Mg6 3.210521 1_455
Mg10 Na1 3.220469 1_555
Mg10 Na1 3.220469 1_455
Mg10 Mg8 3.222514 1_555
Mg10 Mg9 3.222514 1_555
Mg11 Mg9 3.205644 1_545
Mg11 Mg8 3.205644 1_555
Mg11 Mg2 3.214642 1_546
Mg11 Mg3 3.214642 1_556
Mg11 Mg6 3.219730 1_545
Mg11 Mg7 3.219730 1_555
Mg11 Mg6 3.219730 1_445
Mg11 Mg7 3.219730 1_455
Cd0 Mg6 3.204775 1_554
Cd0 Mg7 3.204775 1_554
Cd0 Na0 3.209461 1_565
Cd0 Na0 3.209461 1_555
Cd0 Mg3 3.211550 1_655
Cd0 Mg2 3.211550 1_655
Cd0 Mg3 3.211550 1_555
Cd0 Mg2 3.211550 1_555
Cd0 Mg1 3.215501 1_555
Cd0 Mg0 3.215501 1_555
Cd0 Mg5 3.217677 1_655
Cd0 Mg5 3.217677 1_555
Cd1 Mg0 3.204775 1_555
Cd1 Mg1 3.204775 1_545
Cd1 Na1 3.209461 1_545
Cd1 Na1 3.209461 1_555
Cd1 Mg9 3.211550 1_645
Cd1 Mg9 3.211550 1_545
Cd1 Mg8 3.211550 1_555
Cd1 Mg8 3.211550 1_655
Cd1 Mg6 3.215501 1_545
Cd1 Mg7 3.215501 1_555
Cd1 Mg11 3.217677 1_655
Cd1 Mg11 3.217677 1_555
