# generated using pymatgen
data_Ca2FeIrO6
_symmetry_space_group_name_H-M   'P 1'
_cell_length_a   5.58643100
_cell_length_b   9.45769406
_cell_length_c   9.46596413
_cell_angle_alpha   69.94461590
_cell_angle_beta   90.00092558
_cell_angle_gamma   89.99889131
_symmetry_Int_Tables_number   1
_chemical_formula_structural   Ca2FeIrO6
_chemical_formula_sum   'Ca8 Fe4 Ir4 O24'
_cell_volume   469.80468645
_cell_formula_units_Z   4
loop_
 _symmetry_equiv_pos_site_id
 _symmetry_equiv_pos_as_xyz
  1  'x, y, z'
loop_
 _atom_site_type_symbol
 _atom_site_label
 _atom_site_symmetry_multiplicity
 _atom_site_fract_x
 _atom_site_fract_y
 _atom_site_fract_z
 _atom_site_occupancy
  Ca  Ca0  1  0.94634500  0.11819100  0.13093500  1
  Ca  Ca1  1  0.94432700  0.61775200  0.63122800  1
  Ca  Ca2  1  0.44636700  0.88202500  0.36905800  1
  Ca  Ca3  1  0.44421800  0.38203500  0.86878900  1
  Ca  Ca4  1  0.55367600  0.11817900  0.63093800  1
  Ca  Ca5  1  0.55567900  0.61774200  0.13121600  1
  Ca  Ca6  1  0.05361000  0.88204500  0.86903800  1
  Ca  Ca7  1  0.05575400  0.38203400  0.36876500  1
  Fe  Fe0  1  0.49998000  0.50011400  0.49997200  1
  Fe  Fe1  1  0.00007800  0.50013400  0.99999800  1
  Fe  Fe2  1  0.49999100  0.99985500  0.00002100  1
  Fe  Fe3  1  0.00001500  0.99987300  0.50004800  1
  Ir  Ir0  1  0.50003800  0.25037000  0.24917400  1
  Ir  Ir1  1  0.50000200  0.74965500  0.75084200  1
  Ir  Ir2  1  0.00001400  0.74961400  0.25086100  1
  Ir  Ir3  1  0.99996000  0.25037000  0.74917300  1
  O  O0  1  0.47224300  0.32766200  0.42062900  1
  O  O1  1  0.47503900  0.82931200  0.91866400  1
  O  O2  1  0.97500300  0.17076000  0.58160700  1
  O  O3  1  0.97225800  0.67242900  0.07928500  1
  O  O4  1  0.02492800  0.82925100  0.41855300  1
  O  O5  1  0.02775700  0.32764800  0.92058700  1
  O  O6  1  0.52775400  0.67234200  0.57915700  1
  O  O7  1  0.52496700  0.17070200  0.08155000  1
  O  O8  1  0.20281100  0.91973000  0.12542500  1
  O  O9  1  0.20001200  0.42276300  0.62510600  1
  O  O10  1  0.70264100  0.08040800  0.37445300  1
  O  O11  1  0.70013400  0.57698800  0.87510400  1
  O  O12  1  0.29709100  0.91979700  0.62537600  1
  O  O13  1  0.30000000  0.42277200  0.12507100  1
  O  O14  1  0.79736500  0.08041400  0.87442500  1
  O  O15  1  0.79995500  0.57704500  0.37505200  1
  O  O16  1  0.20928100  0.12692100  0.32555100  1
  O  O17  1  0.20497200  0.62731700  0.82354000  1
  O  O18  1  0.70909300  0.87312300  0.17436300  1
  O  O19  1  0.70528400  0.37255400  0.67656700  1
  O  O20  1  0.29066500  0.12693500  0.82552000  1
  O  O21  1  0.29489200  0.62737300  0.32351500  1
  O  O22  1  0.79104600  0.87319900  0.67432200  1
  O  O23  1  0.79475400  0.37256700  0.17652200  1
loop_
_geom_bond_atom_site_label_1
_geom_bond_atom_site_label_2
_geom_bond_distance
_geom_bond_site_symmetry_2
Ca0 O5 2.321756 1_654
Ca0 O8 2.376035 1_645
Ca0 O16 2.379591 1_655
Ca0 O7 2.418094 1_555
Ca0 O18 2.577673 1_545
Ca0 O10 2.594225 1_555
Ca0 O14 2.703887 1_554
Ca0 O23 2.720894 1_555
Ca1 O4 2.344131 1_655
Ca1 O9 2.348971 1_655
Ca1 O17 2.356932 1_655
Ca1 O6 2.398030 1_555
Ca1 O19 2.581241 1_555
Ca1 O11 2.593947 1_555
Ca1 O15 2.705431 1_555
Ca1 O22 2.722548 1_555
Ca2 O6 2.321567 1_555
Ca2 O10 2.374525 1_565
Ca2 O18 2.379978 1_555
Ca2 O4 2.418934 1_555
Ca2 O16 2.575658 1_565
Ca2 O8 2.594784 1_555
Ca2 O12 2.702681 1_555
Ca2 O21 2.722975 1_555
Ca3 O7 2.343847 1_556
Ca3 O11 2.350065 1_555
Ca3 O19 2.357511 1_555
Ca3 O5 2.396840 1_555
Ca3 O17 2.582563 1_555
Ca3 O9 2.592459 1_555
Ca3 O13 2.706270 1_556
Ca3 O20 2.720724 1_555
Ca4 O0 2.321680 1_555
Ca4 O12 2.376028 1_545
Ca4 O20 2.379705 1_555
Ca4 O2 2.417879 1_555
Ca4 O22 2.577318 1_545
Ca4 O14 2.593916 1_555
Ca4 O10 2.703632 1_555
Ca4 O19 2.721123 1_555
Ca5 O1 2.343862 1_554
Ca5 O13 2.348914 1_555
Ca5 O21 2.357549 1_555
Ca5 O3 2.398056 1_555
Ca5 O23 2.581141 1_555
Ca5 O15 2.593925 1_555
Ca5 O11 2.705216 1_554
Ca5 O18 2.722449 1_555
Ca6 O3 2.321991 1_456
Ca6 O14 2.374256 1_465
Ca6 O22 2.379383 1_455
Ca6 O1 2.418945 1_555
Ca6 O20 2.575559 1_565
Ca6 O12 2.594768 1_555
Ca6 O8 2.702786 1_556
Ca6 O17 2.723232 1_555
Ca7 O2 2.344000 1_455
Ca7 O15 2.349982 1_455
Ca7 O23 2.357364 1_455
Ca7 O0 2.397019 1_555
Ca7 O21 2.582757 1_555
Ca7 O13 2.592696 1_555
Ca7 O9 2.706811 1_555
Ca7 O16 2.720532 1_555
Fe0 O6 2.019051 1_555
Fe0 O0 2.021983 1_555
Fe0 O15 2.036163 1_555
Fe0 O9 2.037690 1_555
Fe0 O21 2.042627 1_555
Fe0 O19 2.044988 1_555
Fe1 O3 2.020285 1_456
Fe1 O5 2.022673 1_555
Fe1 O11 2.035738 1_455
Fe1 O13 2.037176 1_556
Fe1 O17 2.041859 1_555
Fe1 O23 2.044714 1_456
Fe2 O1 2.016447 1_554
Fe2 O7 2.020201 1_565
Fe2 O8 2.030448 1_555
Fe2 O14 2.032876 1_564
Fe2 O18 2.041549 1_555
Fe2 O20 2.044199 1_564
Fe3 O4 2.017982 1_555
Fe3 O2 2.020751 1_465
Fe3 O12 2.029509 1_555
Fe3 O10 2.032776 1_465
Fe3 O22 2.040620 1_455
Fe3 O16 2.043948 1_565
Ir0 O7 1.981109 1_555
Ir0 O16 1.986293 1_555
Ir0 O10 1.990910 1_555
Ir0 O13 1.993393 1_555
Ir0 O23 1.993556 1_555
Ir0 O0 2.001568 1_555
Ir1 O1 1.982800 1_555
Ir1 O22 1.988240 1_555
Ir1 O12 1.993479 1_555
Ir1 O17 1.995684 1_555
Ir1 O11 1.995696 1_555
Ir1 O6 2.003715 1_555
Ir2 O4 1.981509 1_555
Ir2 O18 1.987435 1_455
Ir2 O8 1.992935 1_555
Ir2 O21 1.994443 1_555
Ir2 O15 1.994745 1_455
Ir2 O3 2.001971 1_455
Ir3 O2 1.980248 1_555
Ir3 O20 1.985892 1_655
Ir3 O14 1.990826 1_555
Ir3 O19 1.993196 1_555
Ir3 O9 1.993336 1_655
Ir3 O5 2.001119 1_655
