# generated using pymatgen
data_Sr4Se3S
_symmetry_space_group_name_H-M   'P 1'
_cell_length_a   14.59430638
_cell_length_b   14.59430638
_cell_length_c   14.59430701
_cell_angle_alpha   17.33042198
_cell_angle_beta   17.33042198
_cell_angle_gamma   17.33042494
_symmetry_Int_Tables_number   1
_chemical_formula_structural   Sr4Se3S
_chemical_formula_sum   'Sr4 Se3 S1'
_cell_volume   240.69496494
_cell_formula_units_Z   1
loop_
 _symmetry_equiv_pos_site_id
 _symmetry_equiv_pos_as_xyz
  1  'x, y, z'
loop_
 _atom_site_type_symbol
 _atom_site_label
 _atom_site_symmetry_multiplicity
 _atom_site_fract_x
 _atom_site_fract_y
 _atom_site_fract_z
 _atom_site_occupancy
  Sr  Sr0  1  0.87570932  0.87570932  0.87570932  1
  Sr  Sr1  1  0.12429068  0.12429068  0.12429068  1
  Sr  Sr2  1  0.37289100  0.37289100  0.37289100  1
  Sr  Sr3  1  0.62710900  0.62710900  0.62710900  1
  Se  Se0  1  0.25142701  0.25142701  0.25142701  1
  Se  Se1  1  0.50000000  0.50000000  0.50000000  1
  Se  Se2  1  0.74857299  0.74857299  0.74857299  1
  S  S0  1  0.00000000  0.00000000  -0.00000000  1
loop_
_geom_bond_atom_site_label_1
_geom_bond_atom_site_label_2
_geom_bond_distance
_geom_bond_site_symmetry_2
Se0 Sr3 3.127305 1_554
Se0 Sr3 3.127305 1_455
Se0 Sr3 3.127305 1_545
Se0 Sr0 3.128204 1_445
Se0 Sr0 3.128204 1_454
Se0 Sr0 3.128204 1_544
Se1 Sr1 3.127993 1_556
Se1 Sr0 3.127993 1_554
Se1 Sr1 3.127993 1_655
Se1 Sr1 3.127993 1_565
Se1 Sr0 3.127993 1_545
Se1 Sr0 3.127993 1_455
Se2 Sr2 3.127305 1_556
Se2 Sr2 3.127305 1_655
Se2 Sr2 3.127305 1_565
Se2 Sr1 3.128204 1_665
Se2 Sr1 3.128204 1_656
Se2 Sr1 3.128204 1_566
S0 Sr3 3.058608 1_445
S0 Sr2 3.058608 1_554
S0 Sr3 3.058609 1_544
S0 Sr2 3.058609 1_455
S0 Sr2 3.058609 1_545
S0 Sr3 3.058609 1_454
