# generated using pymatgen
data_Mn3Sn2Pd5
_symmetry_space_group_name_H-M   'P 1'
_cell_length_a   18.70013959
_cell_length_b   18.70013959
_cell_length_c   18.70013919
_cell_angle_alpha   13.90477343
_cell_angle_beta   13.90477343
_cell_angle_gamma   13.90477464
_symmetry_Int_Tables_number   1
_chemical_formula_structural   Mn3Sn2Pd5
_chemical_formula_sum   'Mn6 Sn4 Pd10'
_cell_volume   328.64808559
_cell_formula_units_Z   2
loop_
 _symmetry_equiv_pos_site_id
 _symmetry_equiv_pos_as_xyz
  1  'x, y, z'
loop_
 _atom_site_type_symbol
 _atom_site_label
 _atom_site_symmetry_multiplicity
 _atom_site_fract_x
 _atom_site_fract_y
 _atom_site_fract_z
 _atom_site_occupancy
  Mn  Mn0  1  0.09997100  0.09997100  0.09997100  1
  Mn  Mn1  1  0.90002900  0.90002900  0.90002900  1
  Mn  Mn2  1  0.50000000  0.50000000  0.50000000  1
  Mn  Mn3  1  0.69933000  0.69933000  0.69933000  1
  Mn  Mn4  1  0.30067000  0.30067000  0.30067000  1
  Mn  Mn5  1  0.00000000  0.00000000  0.00000000  1
  Sn  Sn0  1  0.60014800  0.60014800  0.60014800  1
  Sn  Sn1  1  0.19994800  0.19994800  0.19994800  1
  Sn  Sn2  1  0.80005200  0.80005200  0.80005200  1
  Sn  Sn3  1  0.39985200  0.39985200  0.39985200  1
  Pd  Pd0  1  0.74996900  0.74996900  0.74996900  1
  Pd  Pd1  1  0.54996300  0.54996300  0.54996300  1
  Pd  Pd2  1  0.15002900  0.15002900  0.15002900  1
  Pd  Pd3  1  0.34940800  0.34940800  0.34940800  1
  Pd  Pd4  1  0.95054100  0.95054100  0.95054100  1
  Pd  Pd5  1  0.04945900  0.04945900  0.04945900  1
  Pd  Pd6  1  0.84997100  0.84997100  0.84997100  1
  Pd  Pd7  1  0.45003700  0.45003700  0.45003700  1
  Pd  Pd8  1  0.65059200  0.65059200  0.65059200  1
  Pd  Pd9  1  0.25003100  0.25003100  0.25003100  1
loop_
_geom_bond_atom_site_label_1
_geom_bond_atom_site_label_2
_geom_bond_distance
_geom_bond_site_symmetry_2
Mn0 Pd0 2.772887 1_445
Mn0 Pd0 2.772887 1_544
Mn0 Pd0 2.772887 1_454
Mn0 Pd7 2.774076 1_554
Mn0 Pd7 2.774076 1_455
Mn0 Pd7 2.774076 1_545
Mn0 Pd2 2.780709 1_555
Mn0 Pd5 2.805928 1_555
Mn1 Pd9 2.772887 1_665
Mn1 Pd9 2.772887 1_656
Mn1 Pd9 2.772887 1_566
Mn1 Pd1 2.774076 1_556
Mn1 Pd1 2.774076 1_655
Mn1 Pd1 2.774076 1_565
Mn1 Pd6 2.780709 1_555
Mn1 Pd4 2.805928 1_555
Mn2 Pd6 2.772312 1_554
Mn2 Pd2 2.772312 1_556
Mn2 Pd6 2.772313 1_545
Mn2 Pd6 2.772313 1_455
Mn2 Pd2 2.772313 1_655
Mn2 Pd2 2.772313 1_565
Mn2 Pd1 2.775431 1_555
Mn2 Pd7 2.775431 1_555
Mn3 Pd8 2.707383 1_555
Mn3 Pd3 2.771406 1_556
Mn3 Pd3 2.771406 1_565
Mn3 Pd3 2.771406 1_655
Mn3 Pd5 2.775251 1_665
Mn3 Pd5 2.775251 1_656
Mn3 Pd5 2.775251 1_566
Mn3 Pd0 2.812983 1_555
Mn4 Pd3 2.707383 1_555
Mn4 Pd8 2.771406 1_554
Mn4 Pd8 2.771406 1_545
Mn4 Pd8 2.771406 1_455
Mn4 Pd4 2.775251 1_445
Mn4 Pd4 2.775251 1_454
Mn4 Pd4 2.775251 1_544
Mn4 Pd9 2.812983 1_555
Mn5 Pd5 2.747434 1_555
Mn5 Pd4 2.747434 1_444
Mn5 Pd3 2.762044 1_554
Mn5 Pd8 2.762044 1_445
Mn5 Pd3 2.762044 1_455
Mn5 Pd3 2.762044 1_545
Mn5 Pd8 2.762044 1_544
Mn5 Pd8 2.762044 1_454
Pd0 Sn3 2.775027 1_556
Pd0 Sn3 2.775027 1_655
Pd0 Sn3 2.775027 1_565
Pd0 Sn2 2.782097 1_555
Pd1 Sn1 2.773128 1_556
Pd1 Sn1 2.773128 1_565
Pd1 Sn1 2.773128 1_655
Pd1 Sn0 2.787763 1_555
Pd2 Sn2 2.772424 1_445
Pd2 Sn2 2.772424 1_454
Pd2 Sn2 2.772424 1_544
Pd2 Sn1 2.772987 1_555
Pd3 Sn3 2.802151 1_555
Pd4 Sn0 2.780215 1_556
Pd4 Sn0 2.780215 1_565
Pd4 Sn0 2.780215 1_655
Pd5 Sn3 2.780215 1_554
Pd5 Sn3 2.780215 1_455
Pd5 Sn3 2.780215 1_545
Pd6 Sn1 2.772424 1_665
Pd6 Sn1 2.772424 1_566
Pd6 Sn1 2.772424 1_656
Pd6 Sn2 2.772987 1_555
Pd7 Sn2 2.773128 1_554
Pd7 Sn2 2.773128 1_455
Pd7 Sn2 2.773128 1_545
Pd7 Sn3 2.787763 1_555
Pd8 Sn0 2.802151 1_555
Pd9 Sn0 2.775027 1_554
Pd9 Sn0 2.775027 1_545
Pd9 Sn0 2.775027 1_455
Pd9 Sn1 2.782097 1_555
