# generated using pymatgen
data_La(AsRh)2
_symmetry_space_group_name_H-M   'P 1'
_cell_length_a   4.34679895
_cell_length_b   4.34679895
_cell_length_c   9.86893116
_cell_angle_alpha   90.00000000
_cell_angle_beta   90.00000000
_cell_angle_gamma   90.00000000
_symmetry_Int_Tables_number   1
_chemical_formula_structural   La(AsRh)2
_chemical_formula_sum   'La2 As4 Rh4'
_cell_volume   186.47010980
_cell_formula_units_Z   2
loop_
 _symmetry_equiv_pos_site_id
 _symmetry_equiv_pos_as_xyz
  1  'x, y, z'
loop_
 _atom_site_type_symbol
 _atom_site_label
 _atom_site_symmetry_multiplicity
 _atom_site_fract_x
 _atom_site_fract_y
 _atom_site_fract_z
 _atom_site_occupancy
  La  La0  1  0.00000000  0.50000000  0.25426971  1
  La  La1  1  0.50000000  0.00000000  0.74573029  1
  As  As0  1  -0.00000000  -0.00000000  0.50000000  1
  As  As1  1  0.50000000  0.50000000  0.50000000  1
  As  As2  1  0.00000000  0.50000000  0.86565754  1
  As  As3  1  0.50000000  0.00000000  0.13434246  1
  Rh  Rh0  1  -0.00000000  0.00000000  -0.00000000  1
  Rh  Rh1  1  0.50000000  0.50000000  -0.00000000  1
  Rh  Rh2  1  -0.00000000  0.50000000  0.61606070  1
  Rh  Rh3  1  0.50000000  -0.00000000  0.38393930  1
loop_
_geom_bond_atom_site_label_1
_geom_bond_atom_site_label_2
_geom_bond_distance
_geom_bond_site_symmetry_2
La0 Rh1 3.319730 1_555
La0 Rh1 3.319730 1_455
La0 Rh0 3.319730 1_565
La0 Rh0 3.319730 1_555
La0 Rh3 3.329409 1_455
La0 Rh3 3.329409 1_565
La0 Rh3 3.329409 1_555
La0 Rh3 3.329409 1_465
La1 Rh1 3.319730 1_546
La1 Rh1 3.319730 1_556
La1 Rh0 3.319730 1_556
La1 Rh0 3.319730 1_656
La1 Rh2 3.329409 1_545
La1 Rh2 3.329409 1_655
La1 Rh2 3.329409 1_645
La1 Rh2 3.329409 1_555
As0 Rh2 2.456745 1_545
As0 Rh3 2.456745 1_555
As0 Rh2 2.456745 1_555
As0 Rh3 2.456745 1_455
As0 La0 3.256494 1_545
As0 La1 3.256494 1_455
As0 La0 3.256494 1_555
As0 La1 3.256494 1_555
As1 Rh2 2.456745 1_555
As1 Rh3 2.456745 1_565
As1 Rh3 2.456745 1_555
As1 Rh2 2.456745 1_655
As1 La0 3.256494 1_555
As1 La1 3.256494 1_565
As1 La1 3.256494 1_555
As1 La0 3.256494 1_655
As2 Rh2 2.463254 1_555
As2 Rh1 2.545870 1_556
As2 Rh0 2.545870 1_566
As2 Rh0 2.545870 1_556
As2 Rh1 2.545870 1_456
As2 La1 3.293650 1_565
As2 La1 3.293650 1_465
As2 La1 3.293650 1_555
As2 La1 3.293650 1_455
As3 Rh3 2.463254 1_555
As3 Rh1 2.545870 1_545
As3 Rh1 2.545870 1_555
As3 Rh0 2.545870 1_655
As3 Rh0 2.545870 1_555
As3 La0 3.293650 1_655
As3 La0 3.293650 1_545
As3 La0 3.293650 1_645
As3 La0 3.293650 1_555
