# generated using pymatgen
data_CdH
_symmetry_space_group_name_H-M   'P 1'
_cell_length_a   3.06053023
_cell_length_b   3.06053023
_cell_length_c   7.24011500
_cell_angle_alpha   90.00000000
_cell_angle_beta   90.00000000
_cell_angle_gamma   120.00000507
_symmetry_Int_Tables_number   1
_chemical_formula_structural   CdH
_chemical_formula_sum   'Cd2 H2'
_cell_volume   58.73127410
_cell_formula_units_Z   2
loop_
 _symmetry_equiv_pos_site_id
 _symmetry_equiv_pos_as_xyz
  1  'x, y, z'
loop_
 _atom_site_type_symbol
 _atom_site_label
 _atom_site_symmetry_multiplicity
 _atom_site_fract_x
 _atom_site_fract_y
 _atom_site_fract_z
 _atom_site_occupancy
  Cd  Cd0  1  0.66666700  0.33333300  0.55206800  1
  Cd  Cd1  1  0.33333300  0.66666700  0.05206800  1
  H  H0  1  0.66666700  0.33333300  0.82293000  1
  H  H1  1  0.33333300  0.66666700  0.32293000  1
loop_
_geom_bond_atom_site_label_1
_geom_bond_atom_site_label_2
_geom_bond_distance
_geom_bond_site_symmetry_2
Cd0 H0 1.961072 1_555
Cd0 H1 2.423738 1_545
Cd0 H1 2.423738 1_655
Cd0 H1 2.423742 1_555
Cd1 H1 1.961072 1_555
Cd1 H0 2.423738 1_454
Cd1 H0 2.423738 1_564
Cd1 H0 2.423742 1_554
