# generated using pymatgen
data_Ni3S2
_symmetry_space_group_name_H-M   'P 1'
_cell_length_a   7.17975631
_cell_length_b   7.17975631
_cell_length_c   7.17975669
_cell_angle_alpha   27.34676834
_cell_angle_beta   27.34676834
_cell_angle_gamma   27.34677423
_symmetry_Int_Tables_number   1
_chemical_formula_structural   Ni3S2
_chemical_formula_sum   'Ni3 S2'
_cell_volume   68.92127752
_cell_formula_units_Z   1
loop_
 _symmetry_equiv_pos_site_id
 _symmetry_equiv_pos_as_xyz
  1  'x, y, z'
loop_
 _atom_site_type_symbol
 _atom_site_label
 _atom_site_symmetry_multiplicity
 _atom_site_fract_x
 _atom_site_fract_y
 _atom_site_fract_z
 _atom_site_occupancy
  Ni  Ni0  1  0.10508500  0.10508500  0.10508500  1
  Ni  Ni1  1  0.99076900  0.99076900  0.99076900  1
  Ni  Ni2  1  0.51001800  0.51001800  0.51001800  1
  S  S0  1  0.38195900  0.38195900  0.38195900  1
  S  S1  1  0.88716800  0.88716800  0.88716800  1
loop_
_geom_bond_atom_site_label_1
_geom_bond_atom_site_label_2
_geom_bond_distance
_geom_bond_site_symmetry_2
Ni0 S0 2.282399 1_554
Ni0 S0 2.282399 1_545
Ni0 S0 2.282399 1_455
Ni1 S1 2.146752 1_555
Ni1 S0 2.297375 1_665
Ni1 S0 2.297376 1_566
Ni1 S0 2.297376 1_656
Ni2 S1 2.159862 1_554
Ni2 S1 2.159863 1_545
Ni2 S1 2.159863 1_455
Ni2 S0 2.653555 1_555
