# generated using pymatgen
data_Ca4Ge3Au5
_symmetry_space_group_name_H-M   'P 1'
_cell_length_a   5.80752085
_cell_length_b   5.80752085
_cell_length_c   10.65746134
_cell_angle_alpha   85.68433097
_cell_angle_beta   85.68433097
_cell_angle_gamma   45.90397561
_symmetry_Int_Tables_number   1
_chemical_formula_structural   Ca4Ge3Au5
_chemical_formula_sum   'Ca4 Ge3 Au5'
_cell_volume   257.28253358
_cell_formula_units_Z   1
loop_
 _symmetry_equiv_pos_site_id
 _symmetry_equiv_pos_as_xyz
  1  'x, y, z'
loop_
 _atom_site_type_symbol
 _atom_site_label
 _atom_site_symmetry_multiplicity
 _atom_site_fract_x
 _atom_site_fract_y
 _atom_site_fract_z
 _atom_site_occupancy
  Ca  Ca0  1  0.68542594  0.68542594  0.68927232  1
  Ca  Ca1  1  0.19010692  0.19010692  0.18267568  1
  Ca  Ca2  1  0.39053178  0.39053178  0.89879898  1
  Ca  Ca3  1  0.89118619  0.89118619  0.39400467  1
  Ge  Ge0  1  0.17283293  0.17283293  0.48796210  1
  Ge  Ge1  1  0.98456093  0.98456093  0.66776722  1
  Ge  Ge2  1  0.48683309  0.48683309  0.18379224  1
  Au  Au0  1  0.68217018  0.68217018  0.98991732  1
  Au  Au1  1  0.38553314  0.38553314  0.60363062  1
  Au  Au2  1  0.90619587  0.90619587  0.10899606  1
  Au  Au3  1  0.09389837  0.09389837  0.87697827  1
  Au  Au4  1  0.60312466  0.60312466  0.38860651  1
loop_
_geom_bond_atom_site_label_1
_geom_bond_atom_site_label_2
_geom_bond_distance
_geom_bond_site_symmetry_2
Ca0 Ge0 3.130050 1_565
Ca0 Ge0 3.130050 1_655
Ca0 Ge1 3.142814 1_545
Ca0 Ge1 3.142814 1_455
Ca0 Ge1 3.188861 1_555
Ca1 Ge2 3.138718 1_545
Ca1 Ge2 3.138718 1_455
Ca1 Ge2 3.174630 1_555
Ca1 Ge0 3.243711 1_555
Ca2 Ge2 3.285942 1_556
Ca2 Ge1 3.434827 1_545
Ca2 Ge1 3.434827 1_455
Ca3 Ge1 3.160077 1_555
Ca3 Ge0 3.251150 1_665
Ca3 Ge2 3.289357 1_565
Ca3 Ge2 3.289357 1_655
Ca3 Ge0 3.347151 1_655
Ca3 Ge0 3.347151 1_565
Ge0 Ge1 2.663877 1_445
Au0 Au3 2.766712 1_565
Au0 Au3 2.766712 1_655
Au0 Au2 2.801551 1_556
Au0 Ge2 2.815772 1_556
Au0 Ca1 3.063458 1_566
Au0 Ca1 3.063458 1_656
Au0 Ca0 3.201455 1_555
Au0 Ca2 3.268719 1_565
Au0 Ca2 3.268719 1_655
Au0 Ca2 3.341798 1_555
Au1 Ge1 2.614614 1_545
Au1 Ge1 2.614614 1_455
Au1 Ge0 2.674569 1_555
Au1 Au4 3.129842 1_555
Au1 Ca2 3.150565 1_555
Au1 Ca3 3.178294 1_545
Au1 Ca3 3.178294 1_455
Au1 Ca0 3.197390 1_545
Au1 Ca0 3.197390 1_455
Au1 Ca0 3.405823 1_555
Au2 Ge2 2.573030 1_565
Au2 Ge2 2.573030 1_655
Au2 Ca3 3.028578 1_555
Au2 Au3 3.055051 1_664
Au2 Ca1 3.197980 1_665
Au2 Ca2 3.199472 1_564
Au2 Ca2 3.199472 1_654
Au2 Ca1 3.284873 1_565
Au2 Ca1 3.284873 1_655
Au3 Ge1 2.600976 1_445
Au3 Ca0 3.125536 1_455
Au3 Ca0 3.125536 1_545
Au3 Ca2 3.135500 1_545
Au3 Ca2 3.135500 1_455
Au3 Ca2 3.200052 1_555
Au3 Ca1 3.495863 1_556
Au4 Ge2 2.599113 1_555
Au4 Ge0 2.633435 1_565
Au4 Ge0 2.633435 1_655
Au4 Ca3 3.086197 1_555
Au4 Ca3 3.201435 1_545
Au4 Ca3 3.201435 1_455
Au4 Ca1 3.236873 1_565
Au4 Ca1 3.236873 1_655
Au4 Ca0 3.391698 1_555
