# generated using pymatgen
data_Mn2Bi3O7
_symmetry_space_group_name_H-M   'P 1'
_cell_length_a   5.80791902
_cell_length_b   5.86709700
_cell_length_c   10.71502926
_cell_angle_alpha   105.88514525
_cell_angle_beta   90.00685182
_cell_angle_gamma   89.99777968
_symmetry_Int_Tables_number   1
_chemical_formula_structural   Mn2Bi3O7
_chemical_formula_sum   'Mn4 Bi6 O14'
_cell_volume   351.17816730
_cell_formula_units_Z   2
loop_
 _symmetry_equiv_pos_site_id
 _symmetry_equiv_pos_as_xyz
  1  'x, y, z'
loop_
 _atom_site_type_symbol
 _atom_site_label
 _atom_site_symmetry_multiplicity
 _atom_site_fract_x
 _atom_site_fract_y
 _atom_site_fract_z
 _atom_site_occupancy
  Mn  Mn0  1  0.51162700  0.62746400  0.78563300  1
  Mn  Mn1  1  0.51143800  0.84184000  0.21434600  1
  Mn  Mn2  1  0.00324700  0.37877400  0.20804500  1
  Mn  Mn3  1  0.00311400  0.17048600  0.79167300  1
  Bi  Bi0  1  0.41681200  0.12739200  0.00007600  1
  Bi  Bi1  1  0.91327900  0.83369200  0.00008100  1
  Bi  Bi2  1  0.03889300  0.96973200  0.37335200  1
  Bi  Bi3  1  0.03906400  0.59632200  0.62667200  1
  Bi  Bi4  1  0.53354500  0.05228500  0.62945600  1
  Bi  Bi5  1  0.53340000  0.42301000  0.37058700  1
  O  O0  1  0.53515600  0.75328600  0.00000000  1
  O  O1  1  0.03340600  0.20826100  0.99998700  1
  O  O2  1  0.42705300  0.07966400  0.43609800  1
  O  O3  1  0.42700900  0.64349400  0.56394800  1
  O  O4  1  0.93571100  0.95098300  0.57591100  1
  O  O5  1  0.93567300  0.37518100  0.42410600  1
  O  O6  1  0.27688000  0.63218400  0.25533100  1
  O  O7  1  0.27711500  0.37679300  0.74468700  1
  O  O8  1  0.75256000  0.39532200  0.73888900  1
  O  O9  1  0.75229800  0.65670000  0.26116300  1
  O  O10  1  0.27941400  0.07335600  0.18605400  1
  O  O11  1  0.27960100  0.88725100  0.81395800  1
  O  O12  1  0.76192500  0.88025700  0.81421600  1
  O  O13  1  0.76177900  0.06627000  0.18573100  1
loop_
_geom_bond_atom_site_label_1
_geom_bond_atom_site_label_2
_geom_bond_distance
_geom_bond_site_symmetry_2
Mn0 O8 1.921090 1_555
Mn0 O7 1.964023 1_555
Mn0 O11 1.994488 1_555
Mn0 O12 2.039176 1_555
Mn0 O0 2.216148 1_556
Mn0 O3 2.452494 1_555
Mn1 O9 1.920018 1_555
Mn1 O6 1.964119 1_555
Mn1 O10 1.994515 1_565
Mn1 O13 2.040371 1_565
Mn1 O0 2.216010 1_555
Mn1 O2 2.453204 1_565
Mn2 O6 2.140216 1_555
Mn2 O9 2.144553 1_455
Mn2 O1 2.186478 1_554
Mn2 O13 2.268435 1_455
Mn2 O5 2.353953 1_455
Mn2 O10 2.368098 1_555
Mn3 O7 2.141262 1_555
Mn3 O8 2.141418 1_455
Mn3 O1 2.188927 1_555
Mn3 O12 2.268383 1_445
Mn3 O4 2.350875 1_445
Mn3 O11 2.369398 1_545
Bi0 O10 2.248254 1_555
Bi0 O11 2.249179 1_544
Bi0 O1 2.276814 1_554
Bi0 O0 2.299780 1_545
Bi1 O0 2.246173 1_555
Bi1 O13 2.260028 1_565
Bi1 O12 2.260763 1_554
Bi1 O1 2.306012 1_664
Bi2 O4 2.283197 1_455
Bi2 O5 2.367628 1_465
Bi2 O2 2.390129 1_565
Bi2 O6 2.461915 1_555
Bi2 O9 2.525852 1_455
Bi2 O10 2.649030 1_565
Bi2 O13 2.752309 1_465
Bi3 O5 2.283242 1_455
Bi3 O4 2.367570 1_455
Bi3 O3 2.388982 1_555
Bi3 O7 2.461819 1_555
Bi3 O8 2.526309 1_455
Bi3 O11 2.648913 1_555
Bi3 O12 2.751763 1_455
Bi4 O2 2.209688 1_555
Bi4 O3 2.388803 1_545
Bi4 O8 2.398252 1_555
Bi4 O4 2.439607 1_545
Bi4 O7 2.465938 1_555
Bi5 O3 2.209281 1_555
Bi5 O2 2.388827 1_555
Bi5 O9 2.398206 1_555
Bi5 O5 2.440070 1_555
Bi5 O6 2.465770 1_555
