# generated using pymatgen
data_ZrCrAgS4
_symmetry_space_group_name_H-M   'P 1'
_cell_length_a   7.43765466
_cell_length_b   7.43765466
_cell_length_c   10.53646337
_cell_angle_alpha   89.62783129
_cell_angle_beta   89.62783129
_cell_angle_gamma   89.20466354
_symmetry_Int_Tables_number   1
_chemical_formula_structural   ZrCrAgS4
_chemical_formula_sum   'Zr4 Cr4 Ag4 S16'
_cell_volume   582.78312046
_cell_formula_units_Z   4
loop_
 _symmetry_equiv_pos_site_id
 _symmetry_equiv_pos_as_xyz
  1  'x, y, z'
loop_
 _atom_site_type_symbol
 _atom_site_label
 _atom_site_symmetry_multiplicity
 _atom_site_fract_x
 _atom_site_fract_y
 _atom_site_fract_z
 _atom_site_occupancy
  Zr  Zr0  1  0.00152900  0.23940900  0.62298400  1
  Zr  Zr1  1  0.73940900  0.00152900  0.37298400  1
  Zr  Zr2  1  0.50152900  0.73940900  0.12298400  1
  Zr  Zr3  1  0.23940900  0.50152900  0.87298400  1
  Cr  Cr0  1  0.00301200  0.74945500  0.62404200  1
  Cr  Cr1  1  0.74945500  0.50301200  0.87404200  1
  Cr  Cr2  1  0.24945500  0.00301200  0.37404200  1
  Cr  Cr3  1  0.50301200  0.24945500  0.12404200  1
  Ag  Ag0  1  0.01179200  0.99632900  0.00441200  1
  Ag  Ag1  1  0.51179200  0.49632900  0.50441200  1
  Ag  Ag2  1  0.49632900  0.01179200  0.75441200  1
  Ag  Ag3  1  0.99632900  0.51179200  0.25441200  1
  S  S0  1  0.00503400  0.22625900  0.38059300  1
  S  S1  1  0.77204300  0.98644600  0.61776100  1
  S  S2  1  0.01334800  0.77852200  0.39297500  1
  S  S3  1  0.73241900  0.48440100  0.10723300  1
  S  S4  1  0.48644600  0.77204300  0.36776100  1
  S  S5  1  0.27852200  0.01334800  0.14297500  1
  S  S6  1  0.48440100  0.23241900  0.35723300  1
  S  S7  1  0.72625900  0.00503400  0.13059300  1
  S  S8  1  0.50503400  0.72625900  0.88059300  1
  S  S9  1  0.27204300  0.48644600  0.11776100  1
  S  S10  1  0.51334800  0.27852200  0.89297500  1
  S  S11  1  0.23241900  0.98440100  0.60723300  1
  S  S12  1  0.98644600  0.27204300  0.86776100  1
  S  S13  1  0.77852200  0.51334800  0.64297500  1
  S  S14  1  0.98440100  0.73241900  0.85723300  1
  S  S15  1  0.22625900  0.50503400  0.63059300  1
loop_
_geom_bond_atom_site_label_1
_geom_bond_atom_site_label_2
_geom_bond_distance
_geom_bond_site_symmetry_2
Cr0 S2 2.443616 1_555
Cr0 S1 2.445058 1_455
Cr0 S15 2.445955 1_555
Cr0 S13 2.446215 1_455
Cr0 S14 2.462545 1_455
Cr0 S11 2.463951 1_555
Cr1 S13 2.443616 1_555
Cr1 S12 2.445058 1_555
Cr1 S8 2.445955 1_555
Cr1 S10 2.446215 1_555
Cr1 S3 2.462545 1_556
Cr1 S14 2.463951 1_555
Cr2 S5 2.443616 1_555
Cr2 S4 2.445058 1_545
Cr2 S0 2.445955 1_555
Cr2 S2 2.446215 1_545
Cr2 S11 2.462545 1_545
Cr2 S6 2.463951 1_555
Cr3 S10 2.443616 1_554
Cr3 S9 2.445058 1_555
Cr3 S7 2.445955 1_555
Cr3 S5 2.446215 1_555
Cr3 S6 2.462545 1_555
Cr3 S3 2.463951 1_555
Ag0 S5 2.475916 1_565
Ag0 S7 2.498494 1_465
Ag0 S12 2.503653 1_464
Ag0 S14 2.520700 1_454
Ag1 S13 2.475916 1_555
Ag1 S15 2.498494 1_555
Ag1 S4 2.503653 1_555
Ag1 S6 2.520700 1_555
Ag2 S10 2.475916 1_555
Ag2 S8 2.498494 1_545
Ag2 S1 2.503653 1_545
Ag2 S11 2.520700 1_545
Ag3 S2 2.475916 1_655
Ag3 S0 2.498494 1_655
Ag3 S9 2.503653 1_655
Ag3 S3 2.520700 1_555
S0 Zr0 2.556401 1_555
S0 Zr1 2.607450 1_455
S1 Zr0 2.558886 1_665
S1 Zr1 2.593606 1_565
S2 Zr1 2.618007 1_465
S3 Zr2 2.546347 1_555
S4 Zr1 2.558886 1_565
S4 Zr2 2.593606 1_555
S5 Zr2 2.618007 1_545
S6 Zr1 2.546347 1_555
S7 Zr1 2.556401 1_555
S7 Zr2 2.607450 1_545
S8 Zr2 2.556401 1_556
S8 Zr3 2.607450 1_555
S9 Zr2 2.558886 1_555
S9 Zr3 2.593606 1_554
S10 Zr3 2.618007 1_555
S11 Zr0 2.546347 1_565
S12 Zr3 2.558886 1_655
S12 Zr0 2.593606 1_655
S13 Zr0 2.618007 1_655
S14 Zr3 2.546347 1_655
S15 Zr3 2.556401 1_555
S15 Zr0 2.607450 1_555
