# generated using pymatgen
data_LiFe2(PO3)5
_symmetry_space_group_name_H-M   'P 1'
_cell_length_a   7.29070514
_cell_length_b   7.29070514
_cell_length_c   13.21028905
_cell_angle_alpha   85.75316697
_cell_angle_beta   85.75316697
_cell_angle_gamma   116.04697889
_symmetry_Int_Tables_number   1
_chemical_formula_structural   LiFe2(PO3)5
_chemical_formula_sum   'Li2 Fe4 P10 O30'
_cell_volume   624.66835985
_cell_formula_units_Z   2
loop_
 _symmetry_equiv_pos_site_id
 _symmetry_equiv_pos_as_xyz
  1  'x, y, z'
loop_
 _atom_site_type_symbol
 _atom_site_label
 _atom_site_symmetry_multiplicity
 _atom_site_fract_x
 _atom_site_fract_y
 _atom_site_fract_z
 _atom_site_occupancy
  Li  Li0  1  0.11999000  0.95216700  0.78824800  1
  Li  Li1  1  0.95216700  0.11999000  0.28824800  1
  Fe  Fe0  1  0.78907500  0.30916600  0.74446800  1
  Fe  Fe1  1  0.30916600  0.78907500  0.24446800  1
  Fe  Fe2  1  0.21587000  0.27410200  0.60461900  1
  Fe  Fe3  1  0.27410200  0.21587000  0.10461900  1
  P  P0  1  0.35197400  0.97531400  0.51001200  1
  P  P1  1  0.69274000  0.59986300  0.55838500  1
  P  P2  1  0.62493000  0.84439300  0.83868100  1
  P  P3  1  0.97531400  0.35197400  0.01001200  1
  P  P4  1  0.59986300  0.69274000  0.05838500  1
  P  P5  1  0.84439300  0.62493000  0.33868100  1
  P  P6  1  0.80373500  0.07029300  0.52796600  1
  P  P7  1  0.07029300  0.80373500  0.02796600  1
  P  P8  1  0.22988700  0.44902800  0.81097600  1
  P  P9  1  0.44902800  0.22988700  0.31097600  1
  O  O0  1  0.82767200  0.84977600  0.81182600  1
  O  O1  1  0.84977600  0.82767200  0.31182600  1
  O  O2  1  0.75141200  0.51846600  0.65135300  1
  O  O3  1  0.51846600  0.75141200  0.15135300  1
  O  O4  1  0.77752800  0.84210600  0.55651000  1
  O  O5  1  0.84210600  0.77752800  0.05651000  1
  O  O6  1  0.56561900  0.81544400  0.96139000  1
  O  O7  1  0.81544400  0.56561900  0.46139000  1
  O  O8  1  0.58472200  0.02027100  0.79586300  1
  O  O9  1  0.02027100  0.58472200  0.29586300  1
  O  O10  1  0.78863000  0.29216200  0.95763400  1
  O  O11  1  0.29216200  0.78863000  0.45763400  1
  O  O12  1  0.16126800  0.91333700  0.92490400  1
  O  O13  1  0.46825200  0.51257500  0.54479000  1
  O  O14  1  0.91333700  0.16126800  0.42490400  1
  O  O15  1  0.45156100  0.63583300  0.80387200  1
  O  O16  1  0.51257500  0.46825200  0.04479000  1
  O  O17  1  0.63583300  0.45156100  0.30387200  1
  O  O18  1  0.91110800  0.18915800  0.61537400  1
  O  O19  1  0.18915800  0.91110800  0.11537400  1
  O  O20  1  0.58107800  0.05798200  0.54522400  1
  O  O21  1  0.05798200  0.58107800  0.04522400  1
  O  O22  1  0.07926400  0.51783200  0.76996500  1
  O  O23  1  0.51783200  0.07926400  0.26996500  1
  O  O24  1  0.17172100  0.37558300  0.93098700  1
  O  O25  1  0.37558300  0.17172100  0.43098700  1
  O  O26  1  0.25082200  0.27817700  0.76000100  1
  O  O27  1  0.27817700  0.25082200  0.26000100  1
  O  O28  1  0.22841700  0.99447600  0.60275200  1
  O  O29  1  0.99447600  0.22841700  0.10275200  1
loop_
_geom_bond_atom_site_label_1
_geom_bond_atom_site_label_2
_geom_bond_distance
_geom_bond_site_symmetry_2
Li0 O12 1.873310 1_555
Li0 O0 1.914775 1_455
Li0 O26 2.126812 1_565
Li0 O28 2.472204 1_555
Li1 O14 1.873310 1_555
Li1 O1 1.914775 1_545
Li1 O27 2.126812 1_655
Li1 O29 2.472204 1_555
Fe0 O8 1.999870 1_555
Fe0 O2 2.014199 1_555
Fe0 O22 2.063677 1_655
Fe0 O18 2.268325 1_555
Fe1 O9 1.999870 1_555
Fe1 O3 2.014199 1_555
Fe1 O23 2.063677 1_565
Fe1 O19 2.268325 1_555
Fe2 O13 1.950593 1_555
Fe2 O18 2.018029 1_455
Fe2 O28 2.082318 1_545
Fe2 O26 2.087823 1_555
Fe3 O16 1.950593 1_555
Fe3 O19 2.018029 1_545
Fe3 O29 2.082318 1_455
Fe3 O27 2.087823 1_555
O0 P2 1.477023 1_555
O1 P5 1.477023 1_555
O2 P1 1.495414 1_555
O3 P4 1.495414 1_555
O4 P1 1.591976 1_555
O4 P6 1.601145 1_565
O5 P4 1.591976 1_555
O5 P7 1.601145 1_655
O6 P4 1.605679 1_556
O6 P2 1.620062 1_555
O7 P1 1.605679 1_555
O7 P5 1.620062 1_555
O8 P2 1.515704 1_545
O9 P5 1.515704 1_455
O10 P3 1.477949 1_556
O11 P0 1.477949 1_555
O12 P7 1.473684 1_556
O13 P1 1.503894 1_555
O14 P6 1.473684 1_555
O15 P8 1.581523 1_555
O15 P2 1.619545 1_555
O16 P4 1.503894 1_555
O17 P9 1.581523 1_555
O17 P5 1.619545 1_555
O18 P6 1.543833 1_555
O19 P7 1.543833 1_555
O20 P6 1.584115 1_555
O20 P0 1.625457 1_545
O21 P7 1.584115 1_555
O21 P3 1.625457 1_455
O22 P8 1.510865 1_555
O23 P9 1.510865 1_555
O24 P8 1.598519 1_555
O24 P3 1.644822 1_456
O25 P9 1.598519 1_555
O25 P0 1.644822 1_545
O26 P8 1.517996 1_555
O27 P9 1.517996 1_555
O28 P0 1.518003 1_555
O29 P3 1.518003 1_555
