# generated using pymatgen
data_Yb3Pm
_symmetry_space_group_name_H-M   'P 1'
_cell_length_a   5.60474590
_cell_length_b   5.60474590
_cell_length_c   5.60474590
_cell_angle_alpha   60.00000000
_cell_angle_beta   60.00000000
_cell_angle_gamma   60.00000000
_symmetry_Int_Tables_number   1
_chemical_formula_structural   Yb3Pm
_chemical_formula_sum   'Yb3 Pm1'
_cell_volume   124.49525149
_cell_formula_units_Z   1
loop_
 _symmetry_equiv_pos_site_id
 _symmetry_equiv_pos_as_xyz
  1  'x, y, z'
loop_
 _atom_site_type_symbol
 _atom_site_label
 _atom_site_symmetry_multiplicity
 _atom_site_fract_x
 _atom_site_fract_y
 _atom_site_fract_z
 _atom_site_occupancy
  Yb  Yb0  1  0.25000000  0.25000000  0.25000000  1
  Yb  Yb1  1  0.75000000  0.75000000  0.75000000  1
  Yb  Yb2  1  0.50000000  0.50000000  0.50000000  1
  Pm  Pm0  1  0.00000000  0.00000000  0.00000000  1
loop_
_geom_bond_atom_site_label_1
_geom_bond_atom_site_label_2
_geom_bond_distance
_geom_bond_site_symmetry_2
Yb0 Yb2 3.432192 1_555
Yb0 Yb2 3.432192 1_545
Yb0 Yb2 3.432192 1_554
Yb0 Yb2 3.432192 1_455
Yb1 Yb2 3.432192 1_556
Yb1 Yb2 3.432192 1_555
Yb1 Yb2 3.432192 1_565
Yb1 Yb2 3.432192 1_655
Pm0 Yb1 3.432192 1_444
Pm0 Yb1 3.432192 1_445
Pm0 Yb0 3.432192 1_545
Pm0 Yb0 3.432192 1_555
Pm0 Yb1 3.432192 1_454
Pm0 Yb0 3.432192 1_554
Pm0 Yb1 3.432192 1_544
Pm0 Yb0 3.432192 1_455
