# generated using pymatgen
data_CaU3Ti8O24
_symmetry_space_group_name_H-M   'P 1'
_cell_length_a   7.50474000
_cell_length_b   7.85782394
_cell_length_c   8.45750307
_cell_angle_alpha   98.93237861
_cell_angle_beta   111.53004347
_cell_angle_gamma   94.83442283
_symmetry_Int_Tables_number   1
_chemical_formula_structural   CaU3Ti8O24
_chemical_formula_sum   'Ca1 U3 Ti8 O24'
_cell_volume   452.87297740
_cell_formula_units_Z   1
loop_
 _symmetry_equiv_pos_site_id
 _symmetry_equiv_pos_as_xyz
  1  'x, y, z'
loop_
 _atom_site_type_symbol
 _atom_site_label
 _atom_site_symmetry_multiplicity
 _atom_site_fract_x
 _atom_site_fract_y
 _atom_site_fract_z
 _atom_site_occupancy
  Ca  Ca0  1  0.00000000  0.00000000  0.00000000  1
  U  U0  1  0.75022300  0.24840600  0.25100100  1
  U  U1  1  0.50000000  0.50000000  0.50000000  1
  U  U2  1  0.24977700  0.75159400  0.74899900  1
  Ti  Ti0  1  0.93507600  0.32198700  0.72018300  1
  Ti  Ti1  1  0.17780100  0.07777100  0.45872700  1
  Ti  Ti2  1  0.68333100  0.57741900  0.96662300  1
  Ti  Ti3  1  0.42880600  0.82735100  0.20888400  1
  Ti  Ti4  1  0.06492400  0.67801300  0.27981700  1
  Ti  Ti5  1  0.31666900  0.42258100  0.03337700  1
  Ti  Ti6  1  0.82219900  0.92222900  0.54127300  1
  Ti  Ti7  1  0.57119400  0.17264900  0.79111600  1
  O  O0  1  0.75009100  0.40685500  0.81219600  1
  O  O1  1  0.00273700  0.15492900  0.56906800  1
  O  O2  1  0.50655600  0.65556200  0.06724600  1
  O  O3  1  0.25618500  0.90648800  0.31768000  1
  O  O4  1  0.24990900  0.59314500  0.18780400  1
  O  O5  1  0.49344400  0.34443800  0.93275400  1
  O  O6  1  0.99726300  0.84507100  0.43093200  1
  O  O7  1  0.74381500  0.09351200  0.68232000  1
  O  O8  1  0.14607000  0.51300100  0.80534400  1
  O  O9  1  0.39494500  0.25825300  0.55674000  1
  O  O10  1  0.89546000  0.74460200  0.06489100  1
  O  O11  1  0.64626900  0.00725200  0.30675000  1
  O  O12  1  0.85393000  0.48699900  0.19465600  1
  O  O13  1  0.10454000  0.25539800  0.93510900  1
  O  O14  1  0.60505500  0.74174700  0.44326000  1
  O  O15  1  0.35373100  0.99274800  0.69325000  1
  O  O16  1  0.78297400  0.40515700  0.50886100  1
  O  O17  1  0.03054800  0.16675800  0.27342600  1
  O  O18  1  0.53123300  0.65925200  0.76170000  1
  O  O19  1  0.29534000  0.90089600  0.00782700  1
  O  O20  1  0.21702600  0.59484300  0.49113900  1
  O  O21  1  0.46876700  0.34074800  0.23830000  1
  O  O22  1  0.96945200  0.83324200  0.72657400  1
  O  O23  1  0.70466000  0.09910400  0.99217300  1
loop_
_geom_bond_atom_site_label_1
_geom_bond_atom_site_label_2
_geom_bond_distance
_geom_bond_site_symmetry_2
Ca0 O10 2.310178 1_445
Ca0 O13 2.310178 1_554
Ca0 O23 2.392220 1_454
Ca0 O19 2.392220 1_545
Ca0 O17 2.395100 1_555
Ca0 O22 2.395100 1_444
O0 Ti0 1.940474 1_555
O0 Ti2 1.950131 1_555
O0 Ti7 2.127709 1_555
O1 Ti0 1.918897 1_455
O1 Ti1 1.955257 1_555
O1 Ti6 2.109413 1_445
O2 Ti2 1.914411 1_554
O2 Ti3 1.934237 1_555
O2 Ti5 2.135927 1_555
O3 Ti1 1.931440 1_565
O3 Ti3 1.935104 1_555
O3 Ti4 2.106117 1_555
O4 Ti4 1.940474 1_555
O4 Ti5 1.950131 1_555
O4 Ti3 2.127709 1_555
O5 Ti5 1.914411 1_556
O5 Ti7 1.934237 1_555
O5 Ti2 2.135927 1_555
O6 Ti4 1.918897 1_655
O6 Ti6 1.955257 1_555
O6 Ti1 2.109413 1_665
O7 Ti6 1.931440 1_545
O7 Ti7 1.935104 1_555
O7 Ti0 2.106117 1_555
O8 Ti0 1.924982 1_455
O8 Ti5 2.151737 1_556
O8 U2 2.156735 1_555
O9 Ti1 1.899459 1_555
O9 U1 2.183738 1_555
O9 Ti7 2.184234 1_555
O10 Ti2 1.813347 1_554
O10 Ti4 1.976391 1_655
O11 Ti3 1.898210 1_545
O11 U0 2.172560 1_555
O11 Ti6 2.182155 1_545
O12 Ti4 1.924982 1_655
O12 Ti2 2.151737 1_554
O12 U0 2.156735 1_555
O13 Ti5 1.813347 1_556
O13 Ti0 1.976391 1_455
O14 Ti6 1.899459 1_555
O14 U1 2.183738 1_555
O14 Ti3 2.184234 1_555
O15 Ti7 1.898210 1_565
O15 U2 2.172560 1_555
O15 Ti1 2.182155 1_565
O16 Ti0 1.978746 1_555
O16 U0 2.248341 1_555
O16 U1 2.288711 1_555
O17 Ti1 1.834563 1_555
O17 U0 2.201330 1_455
O18 Ti2 1.933375 1_555
O18 U2 2.261784 1_555
O18 U1 2.286784 1_555
O19 Ti3 1.838842 1_555
O19 U2 2.206958 1_554
O20 Ti4 1.978746 1_555
O20 U2 2.248341 1_555
O20 U1 2.288711 1_555
O21 Ti5 1.933375 1_555
O21 U0 2.261784 1_555
O21 U1 2.286784 1_555
O22 Ti6 1.834563 1_555
O22 U2 2.201330 1_655
O23 Ti7 1.838842 1_555
O23 U0 2.206958 1_556
