# generated using pymatgen
data_Ni(Pt3O4)4
_symmetry_space_group_name_H-M   'P 1'
_cell_length_a   5.69200000
_cell_length_b   5.73776700
_cell_length_c   11.33227600
_cell_angle_alpha   90.00000000
_cell_angle_beta   90.00000000
_cell_angle_gamma   90.00000000
_symmetry_Int_Tables_number   1
_chemical_formula_structural   Ni(Pt3O4)4
_chemical_formula_sum   'Ni1 Pt12 O16'
_cell_volume   370.10499215
_cell_formula_units_Z   1
loop_
 _symmetry_equiv_pos_site_id
 _symmetry_equiv_pos_as_xyz
  1  'x, y, z'
loop_
 _atom_site_type_symbol
 _atom_site_label
 _atom_site_symmetry_multiplicity
 _atom_site_fract_x
 _atom_site_fract_y
 _atom_site_fract_z
 _atom_site_occupancy
  Ni  Ni0  1  0.50000000  0.50000000  0.50000000  1
  Pt  Pt0  1  0.50000000  0.00000000  0.62618900  1
  Pt  Pt1  1  0.50000000  0.00000000  0.12565000  1
  Pt  Pt2  1  0.74920400  0.50000000  0.24671500  1
  Pt  Pt3  1  0.74920400  0.50000000  0.75328500  1
  Pt  Pt4  1  0.00000000  0.75129800  0.50000000  1
  Pt  Pt5  1  0.00000000  0.75255000  0.00000000  1
  Pt  Pt6  1  0.50000000  0.00000000  0.37381100  1
  Pt  Pt7  1  0.50000000  0.00000000  0.87435000  1
  Pt  Pt8  1  0.25079600  0.50000000  0.24671500  1
  Pt  Pt9  1  0.25079600  0.50000000  0.75328500  1
  Pt  Pt10  1  0.00000000  0.24870200  0.50000000  1
  Pt  Pt11  1  0.00000000  0.24745000  0.00000000  1
  O  O0  1  0.72856400  0.72996200  0.61622600  1
  O  O1  1  0.75090700  0.75220400  0.12441600  1
  O  O2  1  0.27143600  0.27003800  0.38377400  1
  O  O3  1  0.24909300  0.24779600  0.87558400  1
  O  O4  1  0.27143600  0.72996200  0.38377400  1
  O  O5  1  0.24909300  0.75220400  0.87558400  1
  O  O6  1  0.72856400  0.27003800  0.61622600  1
  O  O7  1  0.75090700  0.24779600  0.12441600  1
  O  O8  1  0.27143600  0.27003800  0.61622600  1
  O  O9  1  0.24909300  0.24779600  0.12441600  1
  O  O10  1  0.72856400  0.72996200  0.38377400  1
  O  O11  1  0.75090700  0.75220400  0.87558400  1
  O  O12  1  0.72856400  0.27003800  0.38377400  1
  O  O13  1  0.75090700  0.24779600  0.87558400  1
  O  O14  1  0.27143600  0.72996200  0.61622600  1
  O  O15  1  0.24909300  0.75220400  0.12441600  1
loop_
_geom_bond_atom_site_label_1
_geom_bond_atom_site_label_2
_geom_bond_distance
_geom_bond_site_symmetry_2
Ni0 O2 2.273396 1_555
Ni0 O10 2.273396 1_555
Ni0 O12 2.273396 1_555
Ni0 O4 2.273396 1_555
Ni0 O14 2.273396 1_555
Ni0 O8 2.273396 1_555
Ni0 O6 2.273396 1_555
Ni0 O0 2.273396 1_555
O0 Pt0 2.026327 1_565
O0 Pt4 2.033917 1_655
O0 Pt3 2.041372 1_555
O1 Pt5 1.999533 1_655
O1 Pt2 2.003734 1_555
O1 Pt1 2.015278 1_565
O2 Pt6 2.026327 1_555
O2 Pt10 2.033917 1_555
O2 Pt8 2.041372 1_555
O3 Pt11 1.999533 1_556
O3 Pt9 2.003734 1_555
O3 Pt7 2.015278 1_555
O4 Pt6 2.026327 1_565
O4 Pt4 2.033917 1_555
O4 Pt8 2.041372 1_555
O5 Pt5 1.999533 1_556
O5 Pt9 2.003734 1_555
O5 Pt7 2.015278 1_565
O6 Pt0 2.026327 1_555
O6 Pt10 2.033917 1_655
O6 Pt3 2.041372 1_555
O7 Pt11 1.999533 1_655
O7 Pt2 2.003734 1_555
O7 Pt1 2.015278 1_555
O8 Pt0 2.026327 1_555
O8 Pt10 2.033917 1_555
O8 Pt9 2.041372 1_555
O9 Pt11 1.999533 1_555
O9 Pt8 2.003734 1_555
O9 Pt1 2.015278 1_555
O10 Pt6 2.026327 1_565
O10 Pt4 2.033917 1_655
O10 Pt2 2.041372 1_555
O11 Pt5 1.999533 1_656
O11 Pt3 2.003734 1_555
O11 Pt7 2.015278 1_565
O12 Pt6 2.026327 1_555
O12 Pt10 2.033917 1_655
O12 Pt2 2.041372 1_555
O13 Pt11 1.999533 1_656
O13 Pt3 2.003734 1_555
O13 Pt7 2.015278 1_555
O14 Pt0 2.026327 1_565
O14 Pt4 2.033917 1_555
O14 Pt9 2.041372 1_555
O15 Pt5 1.999533 1_555
O15 Pt8 2.003734 1_555
O15 Pt1 2.015278 1_565
