# generated using pymatgen
data_La6Fe13Pb
_symmetry_space_group_name_H-M   'P 1'
_cell_length_a   13.27022606
_cell_length_b   13.27022606
_cell_length_c   13.27022606
_cell_angle_alpha   144.56687242
_cell_angle_beta   144.56687242
_cell_angle_gamma   50.98045521
_symmetry_Int_Tables_number   1
_chemical_formula_structural   La6Fe13Pb
_chemical_formula_sum   'La12 Fe26 Pb2'
_cell_volume   781.35171092
_cell_formula_units_Z   2
loop_
 _symmetry_equiv_pos_site_id
 _symmetry_equiv_pos_as_xyz
  1  'x, y, z'
loop_
 _atom_site_type_symbol
 _atom_site_label
 _atom_site_symmetry_multiplicity
 _atom_site_fract_x
 _atom_site_fract_y
 _atom_site_fract_z
 _atom_site_occupancy
  La  La0  1  0.60413700  0.60413700  0.00000000  1
  La  La1  1  0.10413700  0.10413700  0.00000000  1
  La  La2  1  0.39586300  0.39586300  0.00000000  1
  La  La3  1  0.89586300  0.89586300  0.00000000  1
  La  La4  1  0.48013100  0.98013100  0.82491400  1
  La  La5  1  0.15521700  0.65521700  0.17508600  1
  La  La6  1  0.98013100  0.15521700  0.50000000  1
  La  La7  1  0.65521700  0.48013100  0.50000000  1
  La  La8  1  0.51986900  0.01986900  0.17508600  1
  La  La9  1  0.84478300  0.34478300  0.82491400  1
  La  La10  1  0.01986900  0.84478300  0.50000000  1
  La  La11  1  0.34478300  0.51986900  0.50000000  1
  Fe  Fe0  1  0.50000000  0.00000000  0.50000000  1
  Fe  Fe1  1  0.00000000  0.50000000  0.50000000  1
  Fe  Fe2  1  0.56688600  0.71041300  0.27729800  1
  Fe  Fe3  1  0.43311400  0.28958700  0.72270200  1
  Fe  Fe4  1  0.06688600  0.78958700  0.85647300  1
  Fe  Fe5  1  0.93311400  0.21041300  0.14352700  1
  Fe  Fe6  1  0.28958700  0.56688600  0.85647300  1
  Fe  Fe7  1  0.71041300  0.43311400  0.14352700  1
  Fe  Fe8  1  0.21041300  0.06688600  0.27729800  1
  Fe  Fe9  1  0.78958700  0.93311400  0.72270200  1
  Fe  Fe10  1  0.62107100  0.12107100  0.85626300  1
  Fe  Fe11  1  0.26480800  0.76480800  0.14373700  1
  Fe  Fe12  1  0.12107100  0.26480800  0.50000000  1
  Fe  Fe13  1  0.76480800  0.62107100  0.50000000  1
  Fe  Fe14  1  0.37892900  0.87892900  0.14373700  1
  Fe  Fe15  1  0.73519200  0.23519200  0.85626300  1
  Fe  Fe16  1  0.87892900  0.73519200  0.50000000  1
  Fe  Fe17  1  0.23519200  0.37892900  0.50000000  1
  Fe  Fe18  1  0.79594700  0.29594700  0.27372600  1
  Fe  Fe19  1  0.02222100  0.52222100  0.72627400  1
  Fe  Fe20  1  0.29594700  0.02222100  0.50000000  1
  Fe  Fe21  1  0.52222100  0.79594700  0.50000000  1
  Fe  Fe22  1  0.20405300  0.70405300  0.72627400  1
  Fe  Fe23  1  0.97777900  0.47777900  0.27372600  1
  Fe  Fe24  1  0.70405300  0.97777900  0.50000000  1
  Fe  Fe25  1  0.47777900  0.20405300  0.50000000  1
  Pb  Pb0  1  0.25000000  0.25000000  0.00000000  1
  Pb  Pb1  1  0.75000000  0.75000000  0.00000000  1
loop_
_geom_bond_atom_site_label_1
_geom_bond_atom_site_label_2
_geom_bond_distance
_geom_bond_site_symmetry_2
La0 Pb1 3.494436 1_555
La1 Pb0 3.494436 1_555
La2 Pb0 3.494436 1_555
La3 Pb1 3.494436 1_555
La4 Pb1 3.432493 1_556
La4 Pb0 3.432493 1_566
La5 Pb1 3.432493 1_455
La5 Pb0 3.432493 1_555
La6 Pb1 3.432493 1_545
La6 Pb0 3.432493 1_656
La7 Pb0 3.432493 1_555
La7 Pb1 3.432493 1_556
La8 Pb1 3.432493 1_545
La8 Pb0 3.432493 1_555
La9 Pb1 3.432493 1_556
La9 Pb0 3.432493 1_656
La10 Pb1 3.432493 1_455
La10 Pb0 3.432493 1_566
La11 Pb0 3.432493 1_555
La11 Pb1 3.432493 1_556
Fe0 Fe9 2.400423 1_545
Fe0 Fe3 2.400423 1_555
Fe0 Fe2 2.400423 1_545
Fe0 Fe8 2.400423 1_555
Fe0 Fe10 2.451175 1_555
Fe0 Fe15 2.451175 1_555
Fe0 Fe14 2.451175 1_545
Fe0 Fe11 2.451175 1_545
Fe0 Fe20 2.532562 1_555
Fe0 Fe25 2.532562 1_555
Fe0 Fe24 2.532562 1_545
Fe0 Fe21 2.532562 1_545
Fe1 Fe6 2.400420 1_555
Fe1 Fe5 2.400420 1_455
Fe1 Fe7 2.400420 1_455
Fe1 Fe4 2.400420 1_555
Fe1 Fe16 2.451175 1_455
Fe1 Fe13 2.451175 1_455
Fe1 Fe17 2.451175 1_555
Fe1 Fe12 2.451175 1_555
Fe1 Fe19 2.532562 1_555
Fe1 Fe23 2.532562 1_455
Fe1 Fe22 2.532562 1_555
Fe1 Fe18 2.532562 1_455
Fe2 Fe6 2.521808 1_554
Fe2 Fe7 2.521812 1_555
Fe2 Fe9 2.543674 1_555
Fe2 Fe24 2.629523 1_555
Fe2 Fe21 2.629543 1_555
Fe2 La0 3.066554 1_555
Fe2 La2 3.066574 1_555
Fe3 Fe7 2.521808 1_556
Fe3 Fe6 2.521812 1_555
Fe3 Fe8 2.543674 1_555
Fe3 La2 3.066554 1_556
Fe3 La0 3.066574 1_556
Fe4 Fe8 2.521808 1_566
Fe4 Fe9 2.521812 1_455
Fe4 Fe6 2.543663 1_555
Fe4 La1 3.066567 1_566
Fe4 La3 3.066567 1_456
Fe5 Fe9 2.521808 1_544
Fe5 Fe8 2.521812 1_655
Fe5 Fe7 2.543663 1_555
Fe5 La1 3.066567 1_655
Fe5 La3 3.066567 1_545
Fe6 La2 3.066567 1_556
Fe6 La0 3.066567 1_556
Fe7 La2 3.066567 1_555
Fe7 La0 3.066567 1_555
Fe8 La1 3.066554 1_555
Fe8 La3 3.066574 1_445
Fe9 La3 3.066554 1_556
Fe9 La1 3.066574 1_666
Fe10 Fe5 2.485483 1_556
Fe10 Fe7 2.485483 1_556
Fe10 Fe18 2.518293 1_556
Fe10 Fe20 2.543088 1_555
Fe10 Fe21 2.543088 1_545
Fe10 Fe9 2.568055 1_545
Fe10 Fe3 2.568055 1_555
Fe10 Fe15 2.733993 1_555
Fe10 La4 3.006317 1_545
Fe10 La3 3.177969 1_546
Fe10 La2 3.177969 1_556
Fe11 Fe6 2.485483 1_554
Fe11 Fe4 2.485483 1_554
Fe11 Fe19 2.518293 1_554
Fe11 Fe20 2.543088 1_565
Fe11 Fe21 2.543088 1_555
Fe11 Fe8 2.568068 1_565
Fe11 Fe2 2.568068 1_555
Fe11 Fe14 2.733993 1_555
Fe11 La5 3.006317 1_555
Fe11 La2 3.177969 1_555
Fe11 La3 3.177969 1_455
Fe12 Fe3 2.485480 1_555
Fe12 Fe8 2.485493 1_555
Fe12 Fe20 2.518293 1_555
Fe12 Fe19 2.543088 1_555
Fe12 Fe18 2.543088 1_455
Fe12 Fe6 2.568063 1_555
Fe12 Fe5 2.568063 1_455
Fe12 Fe17 2.733993 1_555
Fe12 La6 3.006317 1_455
Fe12 La2 3.177969 1_556
Fe12 La3 3.177969 1_445
Fe13 Fe9 2.485480 1_555
Fe13 Fe2 2.485493 1_555
Fe13 Fe21 2.518293 1_555
Fe13 Fe19 2.543088 1_655
Fe13 Fe18 2.543088 1_555
Fe13 Fe4 2.568063 1_655
Fe13 Fe7 2.568063 1_555
Fe13 Fe16 2.733993 1_555
Fe13 La7 3.006317 1_555
Fe13 La2 3.177969 1_555
Fe13 La3 3.177969 1_556
Fe14 Fe6 2.485483 1_554
Fe14 Fe4 2.485483 1_554
Fe14 Fe22 2.518293 1_554
Fe14 Fe24 2.543088 1_555
Fe14 Fe25 2.543088 1_565
Fe14 Fe2 2.568055 1_555
Fe14 Fe8 2.568055 1_565
Fe14 La8 3.006317 1_565
Fe14 La1 3.177969 1_565
Fe14 La0 3.177969 1_555
Fe15 Fe7 2.485483 1_556
Fe15 Fe5 2.485483 1_556
Fe15 Fe23 2.518293 1_556
Fe15 Fe25 2.543088 1_555
Fe15 Fe24 2.543088 1_545
Fe15 Fe3 2.568068 1_555
Fe15 Fe9 2.568068 1_545
Fe15 La9 3.006317 1_555
Fe15 La1 3.177969 1_656
Fe15 La0 3.177969 1_556
Fe16 Fe2 2.485480 1_555
Fe16 Fe9 2.485493 1_555
Fe16 Fe24 2.518293 1_555
Fe16 Fe23 2.543088 1_555
Fe16 Fe22 2.543088 1_655
Fe16 Fe7 2.568063 1_555
Fe16 Fe4 2.568063 1_655
Fe16 La10 3.006317 1_655
Fe16 La1 3.177969 1_666
Fe16 La0 3.177969 1_555
Fe17 Fe8 2.485480 1_555
Fe17 Fe3 2.485493 1_555
Fe17 Fe25 2.518293 1_555
Fe17 Fe23 2.543088 1_455
Fe17 Fe22 2.543088 1_555
Fe17 Fe5 2.568063 1_455
Fe17 Fe6 2.568063 1_555
Fe17 La11 3.006317 1_555
Fe17 La1 3.177969 1_555
Fe17 La0 3.177969 1_556
Fe18 Fe19 2.584473 1_655
Fe18 Fe7 2.629531 1_555
Fe18 Fe5 2.629531 1_555
Fe18 La7 3.147806 1_555
Fe18 La6 3.147806 1_555
Fe18 La2 3.270736 1_555
Fe18 La3 3.270736 1_545
Fe18 La4 3.371255 1_544
Fe19 Fe6 2.629531 1_555
Fe19 Fe4 2.629531 1_555
Fe19 La6 3.147806 1_455
Fe19 La7 3.147806 1_455
Fe19 La2 3.270736 1_556
Fe19 La3 3.270736 1_456
Fe19 La5 3.371255 1_556
Fe20 Fe21 2.584473 1_545
Fe20 Fe3 2.629523 1_555
Fe20 Fe8 2.629543 1_555
Fe20 La5 3.147806 1_545
Fe20 La4 3.147806 1_545
Fe20 La2 3.270736 1_556
Fe20 La3 3.270736 1_445
Fe20 La6 3.371255 1_455
Fe21 Fe9 2.629523 1_555
Fe21 La5 3.147806 1_555
Fe21 La4 3.147806 1_555
Fe21 La3 3.270736 1_556
Fe21 La2 3.270736 1_555
Fe21 La7 3.371255 1_555
Fe22 Fe23 2.584473 1_455
Fe22 Fe4 2.629531 1_555
Fe22 Fe6 2.629531 1_555
Fe22 La10 3.147806 1_555
Fe22 La11 3.147806 1_555
Fe22 La1 3.270736 1_566
Fe22 La0 3.270736 1_556
Fe22 La8 3.371255 1_566
Fe23 Fe5 2.629531 1_555
Fe23 Fe7 2.629531 1_555
Fe23 La10 3.147806 1_655
Fe23 La11 3.147806 1_655
Fe23 La0 3.270736 1_555
Fe23 La1 3.270736 1_655
Fe23 La9 3.371255 1_554
Fe24 Fe25 2.584473 1_565
Fe24 Fe9 2.629543 1_555
Fe24 La8 3.147806 1_565
Fe24 La9 3.147806 1_565
Fe24 La1 3.270736 1_666
Fe24 La0 3.270736 1_555
Fe24 La10 3.371255 1_655
Fe25 Fe8 2.629523 1_555
Fe25 Fe3 2.629543 1_555
Fe25 La9 3.147806 1_555
Fe25 La8 3.147806 1_555
Fe25 La0 3.270736 1_556
Fe25 La1 3.270736 1_555
Fe25 La11 3.371255 1_555
