# generated using pymatgen
data_LaZrF7
_symmetry_space_group_name_H-M   'P 1'
_cell_length_a   5.87615527
_cell_length_b   6.32103786
_cell_length_c   8.51952854
_cell_angle_alpha   77.88477725
_cell_angle_beta   90.00000000
_cell_angle_gamma   90.00000000
_symmetry_Int_Tables_number   1
_chemical_formula_structural   LaZrF7
_chemical_formula_sum   'La2 Zr2 F14'
_cell_volume   309.39625373
_cell_formula_units_Z   2
loop_
 _symmetry_equiv_pos_site_id
 _symmetry_equiv_pos_as_xyz
  1  'x, y, z'
loop_
 _atom_site_type_symbol
 _atom_site_label
 _atom_site_symmetry_multiplicity
 _atom_site_fract_x
 _atom_site_fract_y
 _atom_site_fract_z
 _atom_site_occupancy
  La  La0  1  0.20021773  0.65986363  0.31259121  1
  La  La1  1  0.70021773  0.34013637  0.68740879  1
  Zr  Zr0  1  0.21033012  0.80869968  0.77690963  1
  Zr  Zr1  1  0.71033012  0.19130032  0.22309037  1
  F  F0  1  0.37547859  0.44109350  0.53066446  1
  F  F1  1  0.87547859  0.55890650  0.46933554  1
  F  F2  1  0.93012773  0.94599088  0.22499597  1
  F  F3  1  0.43012773  0.05400912  0.77500403  1
  F  F4  1  0.45729565  0.97037260  0.23884022  1
  F  F5  1  0.95729565  0.02962740  0.76115978  1
  F  F6  1  0.50020640  0.44561519  0.21497486  1
  F  F7  1  0.00020640  0.55438481  0.78502514  1
  F  F8  1  0.19833937  0.75492114  0.01779435  1
  F  F9  1  0.69833937  0.24507886  0.98220565  1
  F  F10  1  0.21530974  0.86007426  0.53504617  1
  F  F11  1  0.71530974  0.13992574  0.46495383  1
  F  F12  1  0.98905667  0.38160967  0.21240016  1
  F  F13  1  0.48905667  0.61839033  0.78759984  1
loop_
_geom_bond_atom_site_label_1
_geom_bond_atom_site_label_2
_geom_bond_distance
_geom_bond_site_symmetry_2
F0 La0 2.312183 1_555
F0 La1 2.339676 1_555
F1 La1 2.312183 1_555
F1 La0 2.339676 1_655
F2 Zr1 2.015497 1_565
F2 La0 2.404232 1_655
F3 Zr0 2.015497 1_545
F3 La1 2.404232 1_555
F4 Zr1 2.024925 1_565
F4 La0 2.451832 1_555
F5 Zr0 2.024925 1_645
F5 La1 2.451832 1_555
F6 Zr1 2.016637 1_555
F6 La0 2.471000 1_555
F7 Zr0 2.016637 1_555
F7 La1 2.471000 1_455
F8 Zr0 2.009804 1_554
F8 La0 2.456724 1_555
F9 Zr1 2.009804 1_556
F9 La1 2.456724 1_555
F10 Zr0 2.017759 1_555
F10 La0 2.491596 1_555
F11 Zr1 2.017759 1_555
F11 La1 2.491596 1_555
F12 Zr1 2.022850 1_555
F12 La0 2.447852 1_655
F13 Zr0 2.022850 1_555
F13 La1 2.447852 1_555
