# generated using pymatgen
data_Ce3SiAgSe7
_symmetry_space_group_name_H-M   'P 1'
_cell_length_a   10.79232781
_cell_length_b   10.79232781
_cell_length_c   6.06507100
_cell_angle_alpha   90.00000000
_cell_angle_beta   90.00000000
_cell_angle_gamma   119.99999886
_symmetry_Int_Tables_number   1
_chemical_formula_structural   Ce3SiAgSe7
_chemical_formula_sum   'Ce6 Si2 Ag2 Se14'
_cell_volume   611.78212387
_cell_formula_units_Z   2
loop_
 _symmetry_equiv_pos_site_id
 _symmetry_equiv_pos_as_xyz
  1  'x, y, z'
loop_
 _atom_site_type_symbol
 _atom_site_label
 _atom_site_symmetry_multiplicity
 _atom_site_fract_x
 _atom_site_fract_y
 _atom_site_fract_z
 _atom_site_occupancy
  Ce  Ce0  1  0.12555800  0.35690000  0.74007600  1
  Ce  Ce1  1  0.76865800  0.12555800  0.24007600  1
  Ce  Ce2  1  0.35690000  0.23134200  0.24007600  1
  Ce  Ce3  1  0.64310000  0.76865800  0.74007600  1
  Ce  Ce4  1  0.23134200  0.87444200  0.74007600  1
  Ce  Ce5  1  0.87444200  0.64310000  0.24007600  1
  Si  Si0  1  0.33333300  0.66666700  0.33095100  1
  Si  Si1  1  0.66666700  0.33333300  0.83095100  1
  Ag  Ag0  1  0.00000000  0.00000000  0.18499500  1
  Ag  Ag1  1  0.00000000  0.00000000  0.68499500  1
  Se  Se0  1  0.52234900  0.10859300  0.98008600  1
  Se  Se1  1  0.47765100  0.89140700  0.48008600  1
  Se  Se2  1  0.10859300  0.58624500  0.48008600  1
  Se  Se3  1  0.58624500  0.47765100  0.98008600  1
  Se  Se4  1  0.09396900  0.26956900  0.22671400  1
  Se  Se5  1  0.82440000  0.09396900  0.72671400  1
  Se  Se6  1  0.41375500  0.52234900  0.48008600  1
  Se  Se7  1  0.89140700  0.41375500  0.98008600  1
  Se  Se8  1  0.33333300  0.66666700  0.95613700  1
  Se  Se9  1  0.66666700  0.33333300  0.45613700  1
  Se  Se10  1  0.90603100  0.73043100  0.72671400  1
  Se  Se11  1  0.17560000  0.90603100  0.22671400  1
  Se  Se12  1  0.73043100  0.82440000  0.22671400  1
  Se  Se13  1  0.26956900  0.17560000  0.72671400  1
loop_
_geom_bond_atom_site_label_1
_geom_bond_atom_site_label_2
_geom_bond_distance
_geom_bond_site_symmetry_2
Ce0 Se2 3.016560 1_555
Ce0 Se13 3.048225 1_555
Ce0 Se4 3.065051 1_556
Ce0 Se5 3.065885 1_455
Ce0 Se6 3.129717 1_555
Ce0 Se4 3.221426 1_555
Ce0 Se8 3.228827 1_555
Ce0 Se7 3.229858 1_455
Ce1 Se0 3.016551 1_554
Ce1 Se4 3.048225 1_655
Ce1 Se5 3.065051 1_555
Ce1 Se12 3.065885 1_545
Ce1 Se7 3.129716 1_554
Ce1 Se5 3.221426 1_554
Ce1 Se9 3.228820 1_555
Ce1 Se1 3.229865 1_545
Ce2 Se3 3.016555 1_554
Ce2 Se11 3.048225 1_545
Ce2 Se13 3.065051 1_555
Ce2 Se4 3.065885 1_555
Ce2 Se0 3.129724 1_554
Ce2 Se13 3.221426 1_554
Ce2 Se9 3.228829 1_555
Ce2 Se6 3.229868 1_555
Ce3 Se6 3.016555 1_555
Ce3 Se5 3.048225 1_565
Ce3 Se12 3.065051 1_556
Ce3 Se10 3.065885 1_555
Ce3 Se1 3.129724 1_555
Ce3 Se12 3.221426 1_555
Ce3 Se8 3.228829 1_555
Ce3 Se3 3.229868 1_555
Ce4 Se1 3.016551 1_555
Ce4 Se10 3.048225 1_455
Ce4 Se11 3.065051 1_556
Ce4 Se13 3.065885 1_565
Ce4 Se2 3.129716 1_555
Ce4 Se11 3.221426 1_555
Ce4 Se8 3.228820 1_555
Ce4 Se0 3.229865 1_565
Ce5 Se7 3.016560 1_554
Ce5 Se12 3.048225 1_555
Ce5 Se10 3.065051 1_555
Ce5 Se11 3.065885 1_655
Ce5 Se3 3.129717 1_554
Ce5 Se10 3.221426 1_554
Ce5 Se9 3.228827 1_555
Ce5 Se2 3.229858 1_655
Ag0 Se11 2.570210 1_545
Ag0 Se4 2.570210 1_555
Ag0 Se12 2.570210 1_445
Ag1 Se5 2.570210 1_455
Ag1 Se10 2.570210 1_445
Ag1 Se13 2.570210 1_555
Se0 Si1 2.312834 1_555
Se1 Si0 2.312834 1_555
Se2 Si0 2.312834 1_555
Se3 Si1 2.312834 1_555
Se6 Si0 2.312834 1_555
Se7 Si1 2.312834 1_555
Se8 Si0 2.273274 1_556
Se9 Si1 2.273274 1_555
