# generated using pymatgen
data_La3TaCo2O9
_symmetry_space_group_name_H-M   'P 1'
_cell_length_a   5.78294500
_cell_length_b   8.03839600
_cell_length_c   18.68979546
_cell_angle_alpha   64.61797461
_cell_angle_beta   90.00000000
_cell_angle_gamma   90.00000000
_symmetry_Int_Tables_number   1
_chemical_formula_structural   La3TaCo2O9
_chemical_formula_sum   'La12 Ta4 Co8 O36'
_cell_volume   784.94034844
_cell_formula_units_Z   4
loop_
 _symmetry_equiv_pos_site_id
 _symmetry_equiv_pos_as_xyz
  1  'x, y, z'
loop_
 _atom_site_type_symbol
 _atom_site_label
 _atom_site_symmetry_multiplicity
 _atom_site_fract_x
 _atom_site_fract_y
 _atom_site_fract_z
 _atom_site_occupancy
  La  La0  1  0.55091600  0.10860700  0.65456600  1
  La  La1  1  0.54364800  0.42282100  0.33792100  1
  La  La2  1  0.55914100  0.73486600  0.99599100  1
  La  La3  1  0.94085900  0.73486600  0.49599100  1
  La  La4  1  0.94908400  0.10860700  0.15456600  1
  La  La5  1  0.95635200  0.42282100  0.83792100  1
  La  La6  1  0.44908400  0.89139300  0.34543400  1
  La  La7  1  0.44085900  0.26513400  0.00400900  1
  La  La8  1  0.45635200  0.57717900  0.66207900  1
  La  La9  1  0.05914100  0.26513400  0.50400900  1
  La  La10  1  0.04364800  0.57717900  0.16207900  1
  La  La11  1  0.05091600  0.89139300  0.84543400  1
  Ta  Ta0  1  0.50105800  0.83557600  0.16674000  1
  Ta  Ta1  1  0.49894200  0.16442400  0.83326000  1
  Ta  Ta2  1  0.99894200  0.83557600  0.66674000  1
  Ta  Ta3  1  0.00105800  0.16442400  0.33326000  1
  Co  Co0  1  0.00358300  0.32998300  0.66979900  1
  Co  Co1  1  0.99641700  0.67001700  0.33020100  1
  Co  Co2  1  0.00000000  0.00000000  0.00000000  1
  Co  Co3  1  0.50000000  0.00000000  0.50000000  1
  Co  Co4  1  0.49641700  0.32998300  0.16979900  1
  Co  Co5  1  0.50358300  0.67001700  0.83020100  1
  Co  Co6  1  0.50000000  0.50000000  0.50000000  1
  Co  Co7  1  0.00000000  0.50000000  0.00000000  1
  O  O0  1  0.29685500  0.35526300  0.60263500  1
  O  O1  1  0.30336400  0.69129600  0.26265800  1
  O  O2  1  0.30578500  0.01949200  0.92738600  1
  O  O3  1  0.19421500  0.01949200  0.42738600  1
  O  O4  1  0.20314500  0.35526300  0.10263500  1
  O  O5  1  0.19663600  0.69129600  0.76265800  1
  O  O6  1  0.70314500  0.64473700  0.39736500  1
  O  O7  1  0.69421500  0.98050800  0.07261400  1
  O  O8  1  0.69663600  0.30870400  0.73734200  1
  O  O9  1  0.80578500  0.98050800  0.57261400  1
  O  O10  1  0.80336400  0.30870400  0.23734200  1
  O  O11  1  0.79685500  0.64473700  0.89736500  1
  O  O12  1  0.80150400  0.38252200  0.56938500  1
  O  O13  1  0.78628900  0.71614000  0.22957900  1
  O  O14  1  0.78415800  0.05253300  0.89678600  1
  O  O15  1  0.71584200  0.05253300  0.39678600  1
  O  O16  1  0.69849600  0.38252200  0.06938500  1
  O  O17  1  0.71371100  0.71614000  0.72957900  1
  O  O18  1  0.19849600  0.61747800  0.43061500  1
  O  O19  1  0.21584200  0.94746700  0.10321400  1
  O  O20  1  0.21371100  0.28386000  0.77042100  1
  O  O21  1  0.28415800  0.94746700  0.60321400  1
  O  O22  1  0.28628900  0.28386000  0.27042100  1
  O  O23  1  0.30150400  0.61747800  0.93061500  1
  O  O24  1  0.97183400  0.37565800  0.36341200  1
  O  O25  1  0.96694900  0.72672900  0.02835200  1
  O  O26  1  0.97239900  0.03731900  0.70136400  1
  O  O27  1  0.53305100  0.72672900  0.52835200  1
  O  O28  1  0.52760100  0.03731900  0.20136400  1
  O  O29  1  0.52816600  0.37565800  0.86341200  1
  O  O30  1  0.02816600  0.62434200  0.63658800  1
  O  O31  1  0.02760100  0.96268100  0.29863600  1
  O  O32  1  0.03305100  0.27327100  0.97164800  1
  O  O33  1  0.46694900  0.27327100  0.47164800  1
  O  O34  1  0.47183400  0.62434200  0.13658800  1
  O  O35  1  0.47239900  0.96268100  0.79863600  1
loop_
_geom_bond_atom_site_label_1
_geom_bond_atom_site_label_2
_geom_bond_distance
_geom_bond_site_symmetry_2
La0 O0 2.319919 1_555
La0 O21 2.458557 1_545
La0 O35 2.474801 1_545
La0 O12 2.545082 1_555
La0 O26 2.569956 1_555
La0 O9 2.632638 1_545
La0 O8 2.797140 1_555
La0 O17 3.002135 1_545
La0 O33 3.129842 1_555
La1 O33 2.304934 1_555
La1 O1 2.442217 1_555
La1 O22 2.502479 1_555
La1 O24 2.519387 1_555
La1 O6 2.639361 1_555
La1 O13 2.745058 1_555
La1 O10 2.847667 1_555
La1 O15 2.873022 1_555
La2 O23 2.364656 1_555
La2 O25 2.428559 1_556
La2 O34 2.438803 1_556
La2 O2 2.551542 1_565
La2 O11 2.637669 1_555
La2 O16 2.687409 1_556
La2 O14 2.755471 1_565
La2 O7 2.997350 1_556
La3 O18 2.364656 1_655
La3 O27 2.428559 1_555
La3 O30 2.438803 1_655
La3 O3 2.551542 1_665
La3 O6 2.637669 1_555
La3 O12 2.687409 1_555
La3 O15 2.755471 1_565
La3 O9 2.997350 1_555
La4 O4 2.319919 1_655
La4 O19 2.458557 1_645
La4 O31 2.474801 1_645
La4 O16 2.545082 1_555
La4 O28 2.569956 1_555
La4 O7 2.632638 1_545
La4 O10 2.797140 1_555
La4 O13 3.002135 1_545
La4 O32 3.129842 1_654
La5 O32 2.304934 1_655
La5 O5 2.442217 1_655
La5 O20 2.502479 1_655
La5 O29 2.519387 1_555
La5 O11 2.639361 1_555
La5 O17 2.745058 1_555
La5 O8 2.847667 1_555
La5 O14 2.873022 1_555
La6 O6 2.319919 1_555
La6 O15 2.458557 1_565
La6 O28 2.474801 1_565
La6 O18 2.545082 1_555
La6 O31 2.569956 1_555
La6 O3 2.632638 1_565
La6 O1 2.797140 1_555
La6 O22 3.002135 1_565
La6 O27 3.129842 1_555
La7 O16 2.364656 1_555
La7 O32 2.428559 1_554
La7 O29 2.438803 1_554
La7 O7 2.551542 1_545
La7 O4 2.637669 1_555
La7 O23 2.687409 1_554
La7 O19 2.755471 1_545
La7 O2 2.997350 1_554
La8 O27 2.304934 1_555
La8 O8 2.442217 1_555
La8 O17 2.502479 1_555
La8 O30 2.519387 1_555
La8 O0 2.639361 1_555
La8 O20 2.745058 1_555
La8 O5 2.847667 1_555
La8 O21 2.873022 1_555
La9 O12 2.364656 1_455
La9 O33 2.428559 1_555
La9 O24 2.438803 1_455
La9 O9 2.551542 1_445
La9 O0 2.637669 1_555
La9 O18 2.687409 1_555
La9 O21 2.755471 1_545
La9 O3 2.997350 1_555
La10 O25 2.304934 1_455
La10 O10 2.442217 1_455
La10 O13 2.502479 1_455
La10 O34 2.519387 1_555
La10 O4 2.639361 1_555
La10 O22 2.745058 1_555
La10 O1 2.847667 1_555
La10 O19 2.873022 1_555
La11 O11 2.319919 1_455
La11 O14 2.458557 1_465
La11 O26 2.474801 1_465
La11 O23 2.545082 1_555
La11 O35 2.569956 1_555
La11 O2 2.632638 1_565
La11 O5 2.797140 1_555
La11 O20 3.002135 1_565
La11 O25 3.129842 1_456
Co0 O0 2.067528 1_555
Co0 O12 2.094419 1_455
Co0 O20 2.133775 1_555
Co0 O8 2.142087 1_455
Co0 O26 2.173756 1_455
Co0 O30 2.178335 1_555
Co1 O6 2.067528 1_555
Co1 O18 2.094419 1_655
Co1 O13 2.133775 1_555
Co1 O1 2.142087 1_655
Co1 O31 2.173756 1_655
Co1 O24 2.178335 1_555
Co2 O32 2.035863 1_554
Co2 O25 2.035863 1_445
Co2 O19 2.181559 1_545
Co2 O14 2.181559 1_454
Co2 O2 2.193422 1_554
Co2 O7 2.193422 1_445
Co3 O33 2.035863 1_555
Co3 O27 2.035863 1_545
Co3 O15 2.181559 1_555
Co3 O21 2.181559 1_545
Co3 O9 2.193422 1_545
Co3 O3 2.193422 1_555
Co4 O4 2.067528 1_555
Co4 O16 2.094419 1_555
Co4 O22 2.133775 1_555
Co4 O10 2.142087 1_555
Co4 O28 2.173756 1_555
Co4 O34 2.178335 1_555
Co5 O11 2.067528 1_555
Co5 O23 2.094419 1_555
Co5 O17 2.133775 1_555
Co5 O5 2.142087 1_555
Co5 O35 2.173756 1_555
Co5 O29 2.178335 1_555
Co6 O27 2.113505 1_555
Co6 O33 2.113505 1_555
Co6 O6 2.121324 1_555
Co6 O0 2.121324 1_555
Co6 O18 2.136271 1_555
Co6 O12 2.136271 1_555
Co7 O25 2.113505 1_455
Co7 O32 2.113505 1_554
Co7 O4 2.121324 1_555
Co7 O11 2.121324 1_454
Co7 O16 2.136271 1_455
Co7 O23 2.136271 1_554
O1 Ta0 2.020744 1_555
O2 Ta1 1.985630 1_555
O3 Ta3 1.985630 1_555
O5 Ta2 2.020744 1_455
O7 Ta0 1.985630 1_555
O8 Ta1 2.020744 1_555
O9 Ta2 1.985630 1_555
O10 Ta3 2.020744 1_655
O13 Ta0 2.013748 1_555
O14 Ta1 2.005893 1_555
O15 Ta3 2.005893 1_655
O17 Ta2 2.013748 1_555
O19 Ta0 2.005893 1_555
O20 Ta1 2.013748 1_555
O21 Ta2 2.005893 1_455
O22 Ta3 2.013748 1_555
O24 Ta3 2.012364 1_655
O26 Ta2 1.992955 1_545
O28 Ta0 1.992955 1_545
O29 Ta1 2.012364 1_555
O30 Ta2 2.012364 1_455
O31 Ta3 1.992955 1_565
O34 Ta0 2.012364 1_555
O35 Ta1 1.992955 1_565
