# generated using pymatgen
data_La2CuO4
_symmetry_space_group_name_H-M   'P 1'
_cell_length_a   7.11806109
_cell_length_b   7.11497870
_cell_length_c   3.81951655
_cell_angle_alpha   74.47810572
_cell_angle_beta   74.38902103
_cell_angle_gamma   31.13287325
_symmetry_Int_Tables_number   1
_chemical_formula_structural   La2CuO4
_chemical_formula_sum   'La2 Cu1 O4'
_cell_volume   96.05321516
_cell_formula_units_Z   1
loop_
 _symmetry_equiv_pos_site_id
 _symmetry_equiv_pos_as_xyz
  1  'x, y, z'
loop_
 _atom_site_type_symbol
 _atom_site_label
 _atom_site_symmetry_multiplicity
 _atom_site_fract_x
 _atom_site_fract_y
 _atom_site_fract_z
 _atom_site_occupancy
  La  La0  1  0.36196400  0.36037400  0.63962600  1
  La  La1  1  0.63962600  0.63803600  0.36196400  1
  Cu  Cu0  1  0.99844200  0.00155800  0.99844200  1
  O  O0  1  0.00131400  0.99868600  0.49755400  1
  O  O1  1  0.49755400  0.50244600  0.00131400  1
  O  O2  1  0.15945100  0.21235000  0.78765000  1
  O  O3  1  0.78765000  0.84054900  0.15945100  1
loop_
_geom_bond_atom_site_label_1
_geom_bond_atom_site_label_2
_geom_bond_distance
_geom_bond_site_symmetry_2
La0 O2 2.312675 1_555
La0 O3 2.631516 1_546
La0 O0 2.642359 1_555
La0 O1 2.642359 1_555
La0 O1 2.645169 1_556
La0 O0 2.645169 1_645
La0 O3 2.770978 1_545
La0 O3 2.770978 1_456
La0 O3 2.918819 1_455
La1 O3 2.312675 1_555
La1 O2 2.631516 1_655
La1 O0 2.642359 1_555
La1 O1 2.642359 1_555
La1 O0 2.645169 1_645
La1 O1 2.645169 1_556
La1 O2 2.770978 1_565
La1 O2 2.770978 1_654
La1 O2 2.918819 1_564
Cu0 O0 1.906431 1_646
Cu0 O1 1.906431 1_646
Cu0 O0 1.913148 1_645
Cu0 O1 1.913148 1_556
Cu0 O2 2.451679 1_655
Cu0 O3 2.451679 1_546
