# generated using pymatgen
data_ThCr2O10
_symmetry_space_group_name_H-M   'P 1'
_cell_length_a   9.54363900
_cell_length_b   12.89223800
_cell_length_c   17.59326519
_cell_angle_alpha   48.79333556
_cell_angle_beta   90.00000000
_cell_angle_gamma   90.00000000
_symmetry_Int_Tables_number   1
_chemical_formula_structural   ThCr2O10
_chemical_formula_sum   'Th8 Cr16 O80'
_cell_volume   1628.55312647
_cell_formula_units_Z   8
loop_
 _symmetry_equiv_pos_site_id
 _symmetry_equiv_pos_as_xyz
  1  'x, y, z'
loop_
 _atom_site_type_symbol
 _atom_site_label
 _atom_site_symmetry_multiplicity
 _atom_site_fract_x
 _atom_site_fract_y
 _atom_site_fract_z
 _atom_site_occupancy
  Th  Th0  1  0.66595400  0.00182700  0.14807500  1
  Th  Th1  1  0.33404600  0.99817300  0.85192500  1
  Th  Th2  1  0.16595400  0.99817300  0.35192500  1
  Th  Th3  1  0.83404600  0.00182700  0.64807500  1
  Th  Th4  1  0.75620800  0.53095600  0.10624600  1
  Th  Th5  1  0.24379200  0.46904400  0.89375400  1
  Th  Th6  1  0.25620800  0.46904400  0.39375400  1
  Th  Th7  1  0.74379200  0.53095600  0.60624600  1
  Cr  Cr0  1  0.48070100  0.73280000  0.13898300  1
  Cr  Cr1  1  0.51929900  0.26720000  0.86101700  1
  Cr  Cr2  1  0.98070100  0.26720000  0.36101700  1
  Cr  Cr3  1  0.01929900  0.73280000  0.63898300  1
  Cr  Cr4  1  0.75023900  0.95060600  0.39073500  1
  Cr  Cr5  1  0.24976100  0.04939400  0.60926500  1
  Cr  Cr6  1  0.25023900  0.04939400  0.10926500  1
  Cr  Cr7  1  0.74976100  0.95060600  0.89073500  1
  Cr  Cr8  1  0.95943900  0.71992500  0.35558900  1
  Cr  Cr9  1  0.04056100  0.28007500  0.64441100  1
  Cr  Cr10  1  0.45943900  0.28007500  0.14441100  1
  Cr  Cr11  1  0.54056100  0.71992500  0.85558900  1
  Cr  Cr12  1  0.86210300  0.34109800  0.00790200  1
  Cr  Cr13  1  0.13789700  0.65890200  0.99209800  1
  Cr  Cr14  1  0.36210300  0.65890200  0.49209800  1
  Cr  Cr15  1  0.63789700  0.34109800  0.50790200  1
  O  O0  1  0.16579700  0.95736400  0.09095800  1
  O  O1  1  0.83420300  0.04263600  0.90904200  1
  O  O2  1  0.66579700  0.04263600  0.40904200  1
  O  O3  1  0.33420300  0.95736400  0.59095800  1
  O  O4  1  0.84312300  0.93506700  0.07243300  1
  O  O5  1  0.15687700  0.06493300  0.92756700  1
  O  O6  1  0.34312300  0.06493300  0.42756700  1
  O  O7  1  0.65687700  0.93506700  0.57243300  1
  O  O8  1  0.55973000  0.20318200  0.11841900  1
  O  O9  1  0.44027000  0.79681800  0.88158100  1
  O  O10  1  0.05973000  0.79681800  0.38158100  1
  O  O11  1  0.94027000  0.20318200  0.61841900  1
  O  O12  1  0.67284700  0.96794300  0.29687200  1
  O  O13  1  0.32715300  0.03205700  0.70312800  1
  O  O14  1  0.17284700  0.03205700  0.20312800  1
  O  O15  1  0.82715300  0.96794300  0.79687200  1
  O  O16  1  0.86918300  0.63998800  0.17637900  1
  O  O17  1  0.13081700  0.36001200  0.82362100  1
  O  O18  1  0.36918300  0.36001200  0.32362100  1
  O  O19  1  0.63081700  0.63998800  0.67637900  1
  O  O20  1  0.57256400  0.40389700  0.27561400  1
  O  O21  1  0.42743600  0.59610300  0.72438600  1
  O  O22  1  0.07256400  0.59610300  0.22438600  1
  O  O23  1  0.92743600  0.40389700  0.77561400  1
  O  O24  1  0.39180400  0.84386500  0.03352100  1
  O  O25  1  0.60819600  0.15613500  0.96647900  1
  O  O26  1  0.89180400  0.15613500  0.46647900  1
  O  O27  1  0.10819600  0.84386500  0.53352100  1
  O  O28  1  0.33884700  0.83061200  0.42386600  1
  O  O29  1  0.66115300  0.16938800  0.57613400  1
  O  O30  1  0.83884700  0.16938800  0.07613400  1
  O  O31  1  0.16115300  0.83061200  0.92386600  1
  O  O32  1  0.73996200  0.42602200  0.41194300  1
  O  O33  1  0.26003800  0.57397800  0.58805700  1
  O  O34  1  0.23996200  0.57397800  0.08805700  1
  O  O35  1  0.76003800  0.42602200  0.91194300  1
  O  O36  1  0.97025400  0.61469800  0.03375400  1
  O  O37  1  0.02974600  0.38530200  0.96624600  1
  O  O38  1  0.47025400  0.38530200  0.46624600  1
  O  O39  1  0.52974600  0.61469800  0.53375400  1
  O  O40  1  0.60620900  0.81744900  0.14569800  1
  O  O41  1  0.39379100  0.18255100  0.85430200  1
  O  O42  1  0.10620900  0.18255100  0.35430200  1
  O  O43  1  0.89379100  0.81744900  0.64569800  1
  O  O44  1  0.55577000  0.61612400  0.13699800  1
  O  O45  1  0.44423000  0.38387600  0.86300200  1
  O  O46  1  0.05577000  0.38387600  0.36300200  1
  O  O47  1  0.94423000  0.61612400  0.63699800  1
  O  O48  1  0.41755100  0.99407100  0.14147200  1
  O  O49  1  0.58244900  0.00592900  0.85852800  1
  O  O50  1  0.91755100  0.00592900  0.35852800  1
  O  O51  1  0.08244900  0.99407100  0.64147200  1
  O  O52  1  0.85536800  0.61154700  0.45478500  1
  O  O53  1  0.14463200  0.38845300  0.54521500  1
  O  O54  1  0.35536800  0.38845300  0.04521500  1
  O  O55  1  0.64463200  0.61154700  0.95478500  1
  O  O56  1  0.87754000  0.34966800  0.26057700  1
  O  O57  1  0.12246000  0.65033200  0.73942300  1
  O  O58  1  0.37754000  0.65033200  0.23942300  1
  O  O59  1  0.62246000  0.34966800  0.76057700  1
  O  O60  1  0.82867600  0.38067100  0.08004900  1
  O  O61  1  0.17132400  0.61932900  0.91995100  1
  O  O62  1  0.32867600  0.61932900  0.41995100  1
  O  O63  1  0.67132400  0.38067100  0.58004900  1
  O  O64  1  0.61438900  0.75959500  0.30116600  1
  O  O65  1  0.38561100  0.24040500  0.69883400  1
  O  O66  1  0.11438900  0.24040500  0.19883400  1
  O  O67  1  0.88561100  0.75959500  0.80116600  1
  O  O68  1  0.86036100  0.83787500  0.25336800  1
  O  O69  1  0.13963900  0.16212500  0.74663200  1
  O  O70  1  0.36036100  0.16212500  0.24663200  1
  O  O71  1  0.63963900  0.83787500  0.75336800  1
  O  O72  1  0.56429700  0.36603900  0.16319200  1
  O  O73  1  0.43570300  0.63396100  0.83680800  1
  O  O74  1  0.06429700  0.63396100  0.33680800  1
  O  O75  1  0.93570300  0.36603900  0.66319200  1
  O  O76  1  0.74768700  0.78464500  0.49665200  1
  O  O77  1  0.25231300  0.21535500  0.50334800  1
  O  O78  1  0.24768700  0.21535500  0.00334800  1
  O  O79  1  0.75231300  0.78464500  0.99665200  1
loop_
_geom_bond_atom_site_label_1
_geom_bond_atom_site_label_2
_geom_bond_distance
_geom_bond_site_symmetry_2
Cr0 O24 1.646891 1_555
Cr0 O58 1.657370 1_555
Cr0 O40 1.676164 1_555
Cr0 O44 1.687118 1_555
Cr1 O25 1.646891 1_555
Cr1 O59 1.657370 1_555
Cr1 O41 1.676164 1_555
Cr1 O45 1.687118 1_555
Cr2 O26 1.646891 1_555
Cr2 O56 1.657370 1_555
Cr2 O42 1.676164 1_655
Cr2 O46 1.687118 1_655
Cr3 O27 1.646891 1_555
Cr3 O57 1.657370 1_555
Cr3 O43 1.676164 1_455
Cr3 O47 1.687118 1_455
Cr4 O2 1.632296 1_565
Cr4 O76 1.672658 1_555
Cr4 O12 1.684090 1_555
Cr4 O50 1.687293 1_565
Cr5 O3 1.632296 1_545
Cr5 O77 1.672658 1_555
Cr5 O13 1.684090 1_555
Cr5 O51 1.687293 1_545
Cr6 O0 1.632296 1_545
Cr6 O78 1.672658 1_555
Cr6 O14 1.684090 1_555
Cr6 O48 1.687293 1_545
Cr7 O1 1.632296 1_565
Cr7 O79 1.672658 1_555
Cr7 O15 1.684090 1_555
Cr7 O49 1.687293 1_565
Cr8 O10 1.644755 1_655
Cr8 O52 1.664825 1_555
Cr8 O74 1.679693 1_655
Cr8 O68 1.684501 1_555
Cr9 O11 1.644755 1_455
Cr9 O53 1.664825 1_555
Cr9 O75 1.679693 1_455
Cr9 O69 1.684501 1_555
Cr10 O8 1.644755 1_555
Cr10 O54 1.664825 1_555
Cr10 O72 1.679693 1_555
Cr10 O70 1.684501 1_555
Cr11 O9 1.644755 1_555
Cr11 O55 1.664825 1_555
Cr11 O73 1.679693 1_555
Cr11 O71 1.684501 1_555
Cr12 O35 1.600726 1_554
Cr12 O60 1.681191 1_555
Cr12 O37 1.694504 1_654
Cr12 O30 1.699877 1_555
Cr13 O34 1.600726 1_556
Cr13 O61 1.681191 1_555
Cr13 O36 1.694504 1_456
Cr13 O31 1.699877 1_555
Cr14 O33 1.600726 1_555
Cr14 O62 1.681191 1_555
Cr14 O39 1.694504 1_555
Cr14 O28 1.699877 1_555
Cr15 O32 1.600726 1_555
Cr15 O63 1.681191 1_555
Cr15 O38 1.694504 1_555
Cr15 O29 1.699877 1_555
O4 Th0 2.622942 1_565
O5 Th1 2.622942 1_545
O6 Th2 2.622942 1_545
O7 Th3 2.622942 1_565
O8 Th0 2.500842 1_555
O9 Th1 2.500842 1_555
O10 Th2 2.500842 1_555
O11 Th3 2.500842 1_555
O12 Th0 2.354028 1_565
O13 Th1 2.354028 1_545
O14 Th2 2.354028 1_545
O15 Th3 2.354028 1_565
O16 O22 2.042379 1_655
O16 Th4 2.635527 1_555
O17 O23 2.042379 1_455
O17 Th5 2.635527 1_555
O18 O20 2.042379 1_555
O18 Th6 2.635527 1_555
O19 O21 2.042379 1_555
O19 Th7 2.635527 1_555
O20 Th4 2.864056 1_555
O21 Th5 2.864056 1_555
O22 Th6 2.864056 1_555
O23 Th7 2.864056 1_555
O24 Th1 2.468712 1_554
O25 Th0 2.468712 1_556
O26 Th3 2.468712 1_555
O27 Th2 2.468712 1_555
O28 Th2 2.321368 1_555
O29 Th3 2.321368 1_555
O30 Th0 2.321368 1_555
O31 Th1 2.321368 1_555
O36 Th4 2.269566 1_555
O37 Th5 2.269566 1_555
O38 Th6 2.269566 1_555
O39 Th7 2.269566 1_555
O40 Th0 2.471472 1_565
O41 Th1 2.471472 1_545
O42 Th2 2.471472 1_545
O43 Th3 2.471472 1_565
O44 Th4 2.437261 1_555
O45 Th5 2.437261 1_555
O46 Th6 2.437261 1_555
O47 Th7 2.437261 1_555
O48 Th0 2.378837 1_565
O49 Th1 2.378837 1_545
O50 Th2 2.378837 1_645
O51 Th3 2.378837 1_465
O52 Th7 2.380378 1_555
O53 Th6 2.380378 1_555
O54 Th5 2.380378 1_554
O55 Th4 2.380378 1_556
O56 Th4 2.411324 1_555
O57 Th5 2.411324 1_555
O58 Th6 2.411324 1_555
O59 Th7 2.411324 1_555
O60 Th4 2.370915 1_555
O61 Th5 2.370915 1_555
O62 Th6 2.370915 1_555
O63 Th7 2.370915 1_555
O64 Th0 2.483314 1_565
O65 Th1 2.483314 1_545
O66 Th2 2.483314 1_545
O67 Th3 2.483314 1_565
O68 Th0 2.486508 1_565
O69 Th1 2.486508 1_545
O70 Th2 2.486508 1_545
O71 Th3 2.486508 1_565
O72 Th4 2.464184 1_555
O73 Th5 2.464184 1_555
O74 Th6 2.464184 1_555
O75 Th7 2.464184 1_555
O76 Th7 2.471293 1_555
O77 Th6 2.471293 1_555
O78 Th5 2.471293 1_554
O79 Th4 2.471293 1_556
