# generated using pymatgen
data_K4Na4NbW7O24
_symmetry_space_group_name_H-M   'P 1'
_cell_length_a   8.01952400
_cell_length_b   8.01952400
_cell_length_c   8.01090200
_cell_angle_alpha   90.00000000
_cell_angle_beta   90.00000000
_cell_angle_gamma   90.00000000
_symmetry_Int_Tables_number   1
_chemical_formula_structural   K4Na4NbW7O24
_chemical_formula_sum   'K4 Na4 Nb1 W7 O24'
_cell_volume   515.20325926
_cell_formula_units_Z   1
loop_
 _symmetry_equiv_pos_site_id
 _symmetry_equiv_pos_as_xyz
  1  'x, y, z'
loop_
 _atom_site_type_symbol
 _atom_site_label
 _atom_site_symmetry_multiplicity
 _atom_site_fract_x
 _atom_site_fract_y
 _atom_site_fract_z
 _atom_site_occupancy
  K  K0  1  0.25116400  0.25116400  0.25171700  1
  K  K1  1  0.25116400  0.74883600  0.25171700  1
  K  K2  1  0.74883600  0.25116400  0.25171700  1
  K  K3  1  0.74883600  0.74883600  0.25171700  1
  Na  Na0  1  0.25118200  0.25118200  0.74853500  1
  Na  Na1  1  0.25118200  0.74881800  0.74853500  1
  Na  Na2  1  0.74881800  0.25118200  0.74853500  1
  Na  Na3  1  0.74881800  0.74881800  0.74853500  1
  Nb  Nb0  1  0.50000000  0.50000000  0.50291300  1
  W  W0  1  0.00000000  0.00000000  0.99833400  1
  W  W1  1  0.00000000  0.00000000  0.50113800  1
  W  W2  1  0.00000000  0.50000000  0.99755700  1
  W  W3  1  0.00000000  0.50000000  0.50198700  1
  W  W4  1  0.50000000  0.00000000  0.99755700  1
  W  W5  1  0.50000000  0.00000000  0.50198700  1
  W  W6  1  0.50000000  0.50000000  0.99883000  1
  O  O0  1  0.25549800  0.00000000  0.99600300  1
  O  O1  1  0.25587600  0.00000000  0.50375200  1
  O  O2  1  0.24954300  0.50000000  0.99580300  1
  O  O3  1  0.24797300  0.50000000  0.50359600  1
  O  O4  1  0.74450200  0.00000000  0.99600300  1
  O  O5  1  0.74412400  0.00000000  0.50375200  1
  O  O6  1  0.75045700  0.50000000  0.99580300  1
  O  O7  1  0.75202700  0.50000000  0.50359600  1
  O  O8  1  0.00000000  0.25549800  0.99600300  1
  O  O9  1  0.00000000  0.25587600  0.50375200  1
  O  O10  1  0.00000000  0.74450200  0.99600300  1
  O  O11  1  0.00000000  0.74412400  0.50375200  1
  O  O12  1  0.50000000  0.24954300  0.99580300  1
  O  O13  1  0.50000000  0.24797300  0.50359600  1
  O  O14  1  0.50000000  0.75045700  0.99580300  1
  O  O15  1  0.50000000  0.75202700  0.50359600  1
  O  O16  1  0.00000000  0.00000000  0.26202800  1
  O  O17  1  0.00000000  0.00000000  0.73967700  1
  O  O18  1  0.00000000  0.50000000  0.25692400  1
  O  O19  1  0.00000000  0.50000000  0.74399000  1
  O  O20  1  0.50000000  0.00000000  0.25692400  1
  O  O21  1  0.50000000  0.00000000  0.74399000  1
  O  O22  1  0.50000000  0.50000000  0.24659600  1
  O  O23  1  0.50000000  0.50000000  0.75194600  1
loop_
_geom_bond_atom_site_label_1
_geom_bond_atom_site_label_2
_geom_bond_distance
_geom_bond_site_symmetry_2
K0 O22 2.822427 1_555
K0 O18 2.835667 1_555
K0 O20 2.835667 1_555
K0 O13 2.838008 1_555
K0 O3 2.838008 1_555
K0 O16 2.849729 1_555
K0 O1 2.852186 1_555
K0 O9 2.852186 1_555
K0 O12 2.860995 1_554
K0 O2 2.860995 1_554
K0 O8 2.873086 1_554
K0 O0 2.873086 1_554
K1 O22 2.822427 1_555
K1 O18 2.835667 1_555
K1 O20 2.835667 1_565
K1 O3 2.838008 1_555
K1 O15 2.838008 1_555
K1 O16 2.849729 1_565
K1 O11 2.852186 1_555
K1 O1 2.852186 1_565
K1 O2 2.860995 1_554
K1 O14 2.860995 1_554
K1 O10 2.873086 1_554
K1 O0 2.873086 1_564
K2 O22 2.822427 1_555
K2 O20 2.835667 1_555
K2 O18 2.835667 1_655
K2 O13 2.838008 1_555
K2 O7 2.838008 1_555
K2 O16 2.849729 1_655
K2 O5 2.852186 1_555
K2 O9 2.852186 1_655
K2 O12 2.860995 1_554
K2 O6 2.860995 1_554
K2 O4 2.873086 1_554
K2 O8 2.873086 1_654
K3 O22 2.822427 1_555
K3 O20 2.835667 1_565
K3 O18 2.835667 1_655
K3 O7 2.838008 1_555
K3 O15 2.838008 1_555
K3 O16 2.849729 1_665
K3 O11 2.852186 1_655
K3 O5 2.852186 1_565
K3 O6 2.860995 1_554
K3 O14 2.860995 1_554
K3 O4 2.873086 1_564
K3 O10 2.873086 1_654
Na0 O13 2.798652 1_555
Na0 O3 2.798652 1_555
Na0 O9 2.811462 1_555
Na0 O1 2.811462 1_555
Na0 O2 2.811677 1_555
Na0 O12 2.811677 1_555
Na0 O23 2.822057 1_555
Na0 O8 2.826468 1_555
Na0 O0 2.826468 1_555
Na0 O21 2.835595 1_555
Na0 O19 2.835595 1_555
Na0 O17 2.849619 1_555
Na1 O3 2.798652 1_555
Na1 O15 2.798652 1_555
Na1 O1 2.811462 1_565
Na1 O11 2.811462 1_555
Na1 O14 2.811677 1_555
Na1 O2 2.811677 1_555
Na1 O23 2.822057 1_555
Na1 O10 2.826468 1_555
Na1 O0 2.826468 1_565
Na1 O19 2.835595 1_555
Na1 O21 2.835595 1_565
Na1 O17 2.849619 1_565
Na2 O13 2.798652 1_555
Na2 O7 2.798652 1_555
Na2 O5 2.811462 1_555
Na2 O9 2.811462 1_655
Na2 O6 2.811677 1_555
Na2 O12 2.811677 1_555
Na2 O23 2.822057 1_555
Na2 O8 2.826468 1_655
Na2 O4 2.826468 1_555
Na2 O21 2.835595 1_555
Na2 O19 2.835595 1_655
Na2 O17 2.849619 1_655
Na3 O15 2.798652 1_555
Na3 O7 2.798652 1_555
Na3 O11 2.811462 1_655
Na3 O5 2.811462 1_565
Na3 O14 2.811677 1_555
Na3 O6 2.811677 1_555
Na3 O23 2.822057 1_555
Na3 O10 2.826468 1_655
Na3 O4 2.826468 1_565
Na3 O21 2.835595 1_565
Na3 O19 2.835595 1_655
Na3 O17 2.849619 1_665
Nb0 O23 1.994979 1_555
Nb0 O15 2.021144 1_555
Nb0 O7 2.021144 1_555
Nb0 O13 2.021144 1_555
Nb0 O3 2.021144 1_555
Nb0 O22 2.053330 1_555
O0 W4 1.960829 1_555
O0 W0 2.049057 1_555
O1 W5 1.957809 1_555
O1 W1 2.052111 1_555
O2 W2 2.001265 1_555
O2 W6 2.008692 1_555
O3 W3 1.988667 1_555
O4 W4 1.960829 1_555
O4 W0 2.049057 1_655
O5 W5 1.957809 1_555
O5 W1 2.052111 1_655
O6 W2 2.001265 1_655
O6 W6 2.008692 1_555
O7 W3 1.988667 1_655
O8 W2 1.960829 1_555
O8 W0 2.049057 1_555
O9 W3 1.957809 1_555
O9 W1 2.052111 1_555
O10 W2 1.960829 1_555
O10 W0 2.049057 1_565
O11 W3 1.957809 1_555
O11 W1 2.052111 1_565
O12 W4 2.001265 1_555
O12 W6 2.008692 1_555
O13 W5 1.988667 1_555
O14 W4 2.001265 1_565
O14 W6 2.008692 1_555
O15 W5 1.988667 1_565
O16 W1 1.915487 1_555
O16 W0 2.112427 1_554
O17 W1 1.910913 1_555
O17 W0 2.072076 1_555
O18 W3 1.963176 1_555
O18 W2 2.077764 1_554
O19 W3 1.938662 1_555
O19 W2 2.031300 1_555
O20 W5 1.963176 1_555
O20 W4 2.077764 1_554
O21 W5 1.938662 1_555
O21 W4 2.031300 1_555
O22 W6 1.984829 1_554
O23 W6 1.977764 1_555
