# generated using pymatgen
data_Sr3TbRhO6
_symmetry_space_group_name_H-M   'P 1'
_cell_length_a   6.80687478
_cell_length_b   6.80687478
_cell_length_c   6.80687526
_cell_angle_alpha   92.03875872
_cell_angle_beta   92.03875872
_cell_angle_gamma   92.03876363
_symmetry_Int_Tables_number   1
_chemical_formula_structural   Sr3TbRhO6
_chemical_formula_sum   'Sr6 Tb2 Rh2 O12'
_cell_volume   314.77311916
_cell_formula_units_Z   2
loop_
 _symmetry_equiv_pos_site_id
 _symmetry_equiv_pos_as_xyz
  1  'x, y, z'
loop_
 _atom_site_type_symbol
 _atom_site_label
 _atom_site_symmetry_multiplicity
 _atom_site_fract_x
 _atom_site_fract_y
 _atom_site_fract_z
 _atom_site_occupancy
  Sr  Sr0  1  0.88072137  0.61927863  0.25000000  1
  Sr  Sr1  1  0.61927863  0.25000000  0.88072137  1
  Sr  Sr2  1  0.25000000  0.88072137  0.61927863  1
  Sr  Sr3  1  0.11927863  0.38072137  0.75000000  1
  Sr  Sr4  1  0.75000000  0.11927863  0.38072137  1
  Sr  Sr5  1  0.38072137  0.75000000  0.11927863  1
  Tb  Tb0  1  0.75000000  0.75000000  0.75000000  1
  Tb  Tb1  1  0.25000000  0.25000000  0.25000000  1
  Rh  Rh0  1  0.50000000  0.50000000  0.50000000  1
  Rh  Rh1  1  -0.00000000  -0.00000000  0.00000000  1
  O  O0  1  0.58927458  0.79105860  0.45491531  1
  O  O1  1  0.45491531  0.58927458  0.79105860  1
  O  O2  1  0.79105860  0.45491531  0.58927458  1
  O  O3  1  0.91072542  0.04508469  0.70894140  1
  O  O4  1  0.70894140  0.91072542  0.04508469  1
  O  O5  1  0.04508469  0.70894140  0.91072542  1
  O  O6  1  0.41072542  0.20894140  0.54508469  1
  O  O7  1  0.54508469  0.41072542  0.20894140  1
  O  O8  1  0.20894140  0.54508469  0.41072542  1
  O  O9  1  0.08927458  0.95491531  0.29105860  1
  O  O10  1  0.95491531  0.29105860  0.08927458  1
  O  O11  1  0.29105860  0.08927458  0.95491531  1
loop_
_geom_bond_atom_site_label_1
_geom_bond_atom_site_label_2
_geom_bond_distance
_geom_bond_site_symmetry_2
O0 Rh0 2.087935 1_555
O0 Tb0 2.283608 1_555
O0 Sr4 2.527665 1_565
O0 Sr5 2.647358 1_555
O0 Sr2 2.681991 1_555
O0 Sr0 2.737572 1_555
O1 Rh0 2.087935 1_555
O1 Tb0 2.283608 1_555
O1 Sr5 2.527666 1_556
O1 Sr3 2.647358 1_555
O1 Sr1 2.681991 1_555
O1 Sr2 2.737572 1_555
O2 Rh0 2.087935 1_555
O2 Tb0 2.283608 1_555
O2 Sr3 2.527666 1_655
O2 Sr4 2.647358 1_555
O2 Sr0 2.681991 1_555
O2 Sr1 2.737572 1_555
O3 Rh1 2.087935 1_656
O3 Tb0 2.283608 1_545
O3 Sr4 2.527666 1_555
O3 Sr3 2.647358 1_655
O3 Sr2 2.681991 1_645
O3 Sr1 2.737572 1_555
O4 Rh1 2.087935 1_665
O4 Tb0 2.283608 1_554
O4 Sr5 2.527665 1_555
O4 Sr4 2.647358 1_565
O4 Sr1 2.681991 1_564
O4 Sr0 2.737572 1_555
O5 Rh1 2.087935 1_566
O5 Tb0 2.283608 1_455
O5 Sr3 2.527666 1_555
O5 Sr5 2.647358 1_556
O5 Sr0 2.681991 1_456
O5 Sr2 2.737572 1_555
O6 Rh0 2.087935 1_555
O6 Tb1 2.283608 1_555
O6 Sr2 2.527665 1_545
O6 Sr1 2.647358 1_555
O6 Sr4 2.681991 1_555
O6 Sr3 2.737572 1_555
O7 Rh0 2.087935 1_555
O7 Tb1 2.283608 1_555
O7 Sr1 2.527666 1_554
O7 Sr0 2.647358 1_555
O7 Sr5 2.681991 1_555
O7 Sr4 2.737572 1_555
O8 Rh0 2.087935 1_555
O8 Tb1 2.283608 1_555
O8 Sr0 2.527666 1_455
O8 Sr2 2.647358 1_555
O8 Sr3 2.681991 1_555
O8 Sr5 2.737572 1_555
O9 Rh1 2.087935 1_565
O9 Tb1 2.283608 1_565
O9 Sr2 2.527666 1_555
O9 Sr0 2.647358 1_455
O9 Sr4 2.681991 1_465
O9 Sr5 2.737572 1_555
O10 Rh1 2.087935 1_655
O10 Tb1 2.283608 1_655
O10 Sr0 2.527666 1_555
O10 Sr1 2.647358 1_554
O10 Sr3 2.681991 1_654
O10 Sr4 2.737572 1_555
O11 Rh1 2.087935 1_556
O11 Tb1 2.283608 1_556
O11 Sr1 2.527665 1_555
O11 Sr2 2.647358 1_545
O11 Sr5 2.681991 1_546
O11 Sr3 2.737572 1_555
