# generated using pymatgen
data_LuNi4B
_symmetry_space_group_name_H-M   'P 1'
_cell_length_a   4.93267041
_cell_length_b   4.93267041
_cell_length_c   6.93570500
_cell_angle_alpha   90.00000000
_cell_angle_beta   90.00000000
_cell_angle_gamma   120.00000548
_symmetry_Int_Tables_number   1
_chemical_formula_structural   LuNi4B
_chemical_formula_sum   'Lu2 Ni8 B2'
_cell_volume   146.14548939
_cell_formula_units_Z   2
loop_
 _symmetry_equiv_pos_site_id
 _symmetry_equiv_pos_as_xyz
  1  'x, y, z'
loop_
 _atom_site_type_symbol
 _atom_site_label
 _atom_site_symmetry_multiplicity
 _atom_site_fract_x
 _atom_site_fract_y
 _atom_site_fract_z
 _atom_site_occupancy
  Lu  Lu0  1  0.00000000  0.00000000  0.00000000  1
  Lu  Lu1  1  0.00000000  0.00000000  0.50000000  1
  Ni  Ni0  1  0.66666700  0.33333300  0.00000000  1
  Ni  Ni1  1  0.33333300  0.66666700  0.00000000  1
  Ni  Ni2  1  0.50000000  0.50000000  0.70716400  1
  Ni  Ni3  1  0.50000000  0.00000000  0.70716400  1
  Ni  Ni4  1  0.00000000  0.50000000  0.70716400  1
  Ni  Ni5  1  0.50000000  0.50000000  0.29283600  1
  Ni  Ni6  1  0.50000000  0.00000000  0.29283600  1
  Ni  Ni7  1  0.00000000  0.50000000  0.29283600  1
  B  B0  1  0.66666700  0.33333300  0.50000000  1
  B  B1  1  0.33333300  0.66666700  0.50000000  1
loop_
_geom_bond_atom_site_label_1
_geom_bond_atom_site_label_2
_geom_bond_distance
_geom_bond_site_symmetry_2
Lu0 Ni1 2.847876 1_545
Lu0 Ni0 2.847876 1_455
Lu0 Ni1 2.847880 1_555
Lu0 Ni0 2.847880 1_445
Lu0 Ni1 2.847880 1_445
Lu0 Ni0 2.847880 1_555
Lu1 Ni5 2.854345 1_555
Lu1 Ni2 2.854345 1_555
Lu1 Ni2 2.854345 1_445
Lu1 Ni5 2.854345 1_445
Lu1 Ni6 2.854345 1_555
Lu1 Ni7 2.854345 1_555
Lu1 Ni3 2.854345 1_455
Lu1 Ni4 2.854345 1_555
Lu1 Ni4 2.854345 1_545
Lu1 Ni7 2.854345 1_545
Lu1 Ni6 2.854345 1_455
Lu1 Ni3 2.854345 1_555
Ni0 Ni6 2.480455 1_555
Ni0 Ni3 2.480455 1_554
Ni0 Ni4 2.480455 1_654
Ni0 Ni7 2.480455 1_655
Ni0 Ni2 2.480458 1_554
Ni0 Ni5 2.480458 1_555
Ni0 Ni1 2.847876 1_545
Ni0 Ni1 2.847876 1_655
Ni0 Ni1 2.847884 1_555
Ni1 Ni3 2.480455 1_564
Ni1 Ni4 2.480455 1_554
Ni1 Ni7 2.480455 1_555
Ni1 Ni6 2.480455 1_565
Ni1 Ni2 2.480458 1_554
Ni1 Ni5 2.480458 1_555
B0 Ni4 2.022888 1_655
B0 Ni3 2.022888 1_555
B0 Ni6 2.022888 1_555
B0 Ni7 2.022888 1_655
B0 Ni5 2.022891 1_555
B0 Ni2 2.022891 1_555
B0 Lu1 2.847876 1_655
B0 Lu1 2.847880 1_665
B0 Lu1 2.847880 1_555
B1 Ni6 2.022888 1_565
B1 Ni4 2.022888 1_555
B1 Ni7 2.022888 1_555
B1 Ni3 2.022888 1_565
B1 Ni5 2.022891 1_555
B1 Ni2 2.022891 1_555
B1 Lu1 2.847876 1_565
B1 Lu1 2.847880 1_665
B1 Lu1 2.847880 1_555
