# generated using pymatgen
data_Ca(WO2)2
_symmetry_space_group_name_H-M   'P 1'
_cell_length_a   3.28420800
_cell_length_b   9.60282200
_cell_length_c   11.47242200
_cell_angle_alpha   90.00000000
_cell_angle_beta   90.00000000
_cell_angle_gamma   90.00000000
_symmetry_Int_Tables_number   1
_chemical_formula_structural   Ca(WO2)2
_chemical_formula_sum   'Ca4 W8 O16'
_cell_volume   361.81339988
_cell_formula_units_Z   4
loop_
 _symmetry_equiv_pos_site_id
 _symmetry_equiv_pos_as_xyz
  1  'x, y, z'
loop_
 _atom_site_type_symbol
 _atom_site_label
 _atom_site_symmetry_multiplicity
 _atom_site_fract_x
 _atom_site_fract_y
 _atom_site_fract_z
 _atom_site_occupancy
  Ca  Ca0  1  0.75000000  0.23861700  0.34503100  1
  Ca  Ca1  1  0.25000000  0.76138300  0.65496900  1
  Ca  Ca2  1  0.75000000  0.73861700  0.15496900  1
  Ca  Ca3  1  0.25000000  0.26138300  0.84503100  1
  W  W0  1  0.25000000  0.41105300  0.10157100  1
  W  W1  1  0.75000000  0.08894700  0.60157100  1
  W  W2  1  0.25000000  0.91105300  0.39842900  1
  W  W3  1  0.75000000  0.58894700  0.89842900  1
  W  W4  1  0.75000000  0.55865600  0.38272900  1
  W  W5  1  0.25000000  0.44134400  0.61727100  1
  W  W6  1  0.75000000  0.05865600  0.11727100  1
  W  W7  1  0.25000000  0.94134400  0.88272900  1
  O  O0  1  0.25000000  0.91499200  0.07436700  1
  O  O1  1  0.75000000  0.08500800  0.92563300  1
  O  O2  1  0.25000000  0.41499200  0.42563300  1
  O  O3  1  0.75000000  0.58500800  0.57436700  1
  O  O4  1  0.25000000  0.03389100  0.71231100  1
  O  O5  1  0.75000000  0.96610900  0.28768900  1
  O  O6  1  0.25000000  0.53389100  0.78768900  1
  O  O7  1  0.75000000  0.46610900  0.21231100  1
  O  O8  1  0.25000000  0.62202300  0.02765800  1
  O  O9  1  0.75000000  0.37797700  0.97234200  1
  O  O10  1  0.25000000  0.12202300  0.47234200  1
  O  O11  1  0.75000000  0.87797700  0.52765800  1
  O  O12  1  0.75000000  0.80222300  0.82324200  1
  O  O13  1  0.25000000  0.19777700  0.17675800  1
  O  O14  1  0.25000000  0.69777700  0.32324200  1
  O  O15  1  0.75000000  0.30222300  0.67675800  1
loop_
_geom_bond_atom_site_label_1
_geom_bond_atom_site_label_2
_geom_bond_distance
_geom_bond_site_symmetry_2
Ca0 O10 2.466441 1_555
Ca0 O10 2.466441 1_655
Ca0 O2 2.533809 1_555
Ca0 O2 2.533809 1_655
Ca0 O13 2.564593 1_555
Ca0 O13 2.564593 1_655
Ca0 O7 2.662836 1_555
Ca0 O5 2.698268 1_545
Ca1 O11 2.466441 1_455
Ca1 O11 2.466441 1_555
Ca1 O3 2.533809 1_555
Ca1 O3 2.533809 1_455
Ca1 O12 2.564593 1_455
Ca1 O12 2.564593 1_555
Ca1 O6 2.662836 1_555
Ca1 O4 2.698268 1_565
Ca2 O8 2.466441 1_555
Ca2 O8 2.466441 1_655
Ca2 O0 2.533809 1_555
Ca2 O0 2.533809 1_655
Ca2 O14 2.564593 1_555
Ca2 O14 2.564593 1_655
Ca2 O5 2.662836 1_555
Ca2 O7 2.698268 1_555
Ca3 O9 2.466441 1_555
Ca3 O9 2.466441 1_455
Ca3 O1 2.533809 1_455
Ca3 O1 2.533809 1_555
Ca3 O15 2.564593 1_555
Ca3 O15 2.564593 1_455
Ca3 O4 2.662836 1_555
Ca3 O6 2.698268 1_555
O0 W6 2.200459 1_465
O0 W6 2.200459 1_565
O0 W7 2.213067 1_554
O1 W7 2.200459 1_645
O1 W7 2.200459 1_545
O1 W6 2.213067 1_556
O2 W4 2.200459 1_555
O2 W4 2.200459 1_455
O2 W5 2.213067 1_555
O3 W5 2.200459 1_555
O3 W5 2.200459 1_655
O3 W4 2.213067 1_555
O4 W1 2.142447 1_455
O4 W1 2.142447 1_555
O4 W7 2.147616 1_545
O5 W2 2.142447 1_555
O5 W2 2.142447 1_655
O5 W6 2.147616 1_565
O6 W3 2.142447 1_455
O6 W3 2.142447 1_555
O6 W5 2.147616 1_555
O7 W0 2.142447 1_555
O7 W0 2.142447 1_655
O7 W4 2.147616 1_555
O8 W0 2.196210 1_555
O8 W3 2.235040 1_554
O8 W3 2.235040 1_454
O9 W3 2.196210 1_555
O9 W0 2.235040 1_556
O9 W0 2.235040 1_656
O10 W2 2.196210 1_545
O10 W1 2.235040 1_555
O10 W1 2.235040 1_455
O11 W1 2.196210 1_565
O11 W2 2.235040 1_555
O11 W2 2.235040 1_655
O12 W3 2.222286 1_555
O12 W7 2.224192 1_655
O12 W7 2.224192 1_555
O13 W0 2.222286 1_555
O13 W6 2.224192 1_555
O13 W6 2.224192 1_455
O14 W2 2.222286 1_555
O14 W4 2.224192 1_455
O14 W4 2.224192 1_555
O15 W1 2.222286 1_555
O15 W5 2.224192 1_555
O15 W5 2.224192 1_655
