# generated using pymatgen
data_Te4MoW3(SeS)2
_symmetry_space_group_name_H-M   'P 1'
_cell_length_a   3.39559789
_cell_length_b   3.39559789
_cell_length_c   38.88356900
_cell_angle_alpha   90.00000000
_cell_angle_beta   90.00000000
_cell_angle_gamma   119.99999782
_symmetry_Int_Tables_number   1
_chemical_formula_structural   Te4MoW3(SeS)2
_chemical_formula_sum   'Te4 Mo1 W3 Se2 S2'
_cell_volume   388.26591946
_cell_formula_units_Z   1
loop_
 _symmetry_equiv_pos_site_id
 _symmetry_equiv_pos_as_xyz
  1  'x, y, z'
loop_
 _atom_site_type_symbol
 _atom_site_label
 _atom_site_symmetry_multiplicity
 _atom_site_fract_x
 _atom_site_fract_y
 _atom_site_fract_z
 _atom_site_occupancy
  Te  Te0  1  0.00000000  0.00000000  0.70613300  1
  Te  Te1  1  0.33333300  0.66666700  0.42130700  1
  Te  Te2  1  0.33333300  0.66666700  0.51771900  1
  Te  Te3  1  0.00000000  0.00000000  0.60919400  1
  Mo  Mo0  1  0.00000000  0.00000000  0.46951600  1
  W  W0  1  0.00000000  0.00000000  0.09391900  1
  W  W1  1  0.33333300  0.66666700  0.28180500  1
  W  W2  1  0.33333300  0.66666700  0.65769300  1
  Se  Se0  1  0.33333300  0.66666700  0.05128800  1
  Se  Se1  1  0.33333300  0.66666700  0.13655200  1
  S  S0  1  0.00000000  0.00000000  0.32059100  1
  S  S1  1  0.00000000  0.00000000  0.24303000  1
loop_
_geom_bond_atom_site_label_1
_geom_bond_atom_site_label_2
_geom_bond_distance
_geom_bond_site_symmetry_2
Te0 W2 2.718640 1_545
Te0 W2 2.718642 1_555
Te0 W2 2.718642 1_445
Te3 W2 2.720230 1_545
Te3 W2 2.720232 1_555
Te3 W2 2.720232 1_445
Mo0 Te2 2.712263 1_545
Mo0 Te2 2.712265 1_445
Mo0 Te2 2.712265 1_555
Mo0 Te1 2.712424 1_545
Mo0 Te1 2.712427 1_555
Mo0 Te1 2.712427 1_445
Se0 W0 2.567322 1_565
Se0 W0 2.567324 1_555
Se0 W0 2.567324 1_665
Se1 W0 2.567372 1_565
Se1 W0 2.567375 1_555
Se1 W0 2.567375 1_665
S0 W1 2.473426 1_545
S0 W1 2.473428 1_555
S0 W1 2.473428 1_445
S1 W1 2.473165 1_545
S1 W1 2.473167 1_445
S1 W1 2.473167 1_555
