# generated using pymatgen
data_AgSb3PbS6
_symmetry_space_group_name_H-M   'P 1'
_cell_length_a   13.25733648
_cell_length_b   17.27935949
_cell_length_c   19.46149776
_cell_angle_alpha   90.00000000
_cell_angle_beta   90.23689516
_cell_angle_gamma   90.00000000
_symmetry_Int_Tables_number   1
_chemical_formula_structural   AgSb3PbS6
_chemical_formula_sum   'Ag16 Sb48 Pb16 S96'
_cell_volume   4458.16838102
_cell_formula_units_Z   16
loop_
 _symmetry_equiv_pos_site_id
 _symmetry_equiv_pos_as_xyz
  1  'x, y, z'
loop_
 _atom_site_type_symbol
 _atom_site_label
 _atom_site_symmetry_multiplicity
 _atom_site_fract_x
 _atom_site_fract_y
 _atom_site_fract_z
 _atom_site_occupancy
  Ag  Ag0  1  0.65067368  0.31367157  0.64394328  1
  Ag  Ag1  1  0.84932632  0.81367157  0.35605672  1
  Ag  Ag2  1  0.34932632  0.68632843  0.35605672  1
  Ag  Ag3  1  0.15067368  0.18632843  0.64394328  1
  Ag  Ag4  1  0.16579500  0.67803895  0.85686833  1
  Ag  Ag5  1  0.33420500  0.17803895  0.14313167  1
  Ag  Ag6  1  0.83420500  0.32196105  0.14313167  1
  Ag  Ag7  1  0.66579500  0.82196105  0.85686833  1
  Ag  Ag8  1  0.67459830  0.55234317  0.64439374  1
  Ag  Ag9  1  0.82540170  0.05234317  0.35560626  1
  Ag  Ag10  1  0.32540170  0.44765683  0.35560626  1
  Ag  Ag11  1  0.17459830  0.94765683  0.64439374  1
  Ag  Ag12  1  0.16559073  0.43281773  0.86692120  1
  Ag  Ag13  1  0.33440927  0.93281773  0.13307880  1
  Ag  Ag14  1  0.83440927  0.56718227  0.13307880  1
  Ag  Ag15  1  0.66559073  0.06718227  0.86692120  1
  Sb  Sb0  1  0.15356968  0.18982787  0.87696847  1
  Sb  Sb1  1  0.34643032  0.68982787  0.12303153  1
  Sb  Sb2  1  0.84643032  0.81017213  0.12303153  1
  Sb  Sb3  1  0.65356968  0.31017213  0.87696847  1
  Sb  Sb4  1  0.11412791  0.80042273  0.04421276  1
  Sb  Sb5  1  0.38587209  0.30042273  0.95578724  1
  Sb  Sb6  1  0.88587209  0.19957727  0.95578724  1
  Sb  Sb7  1  0.61412791  0.69957727  0.04421276  1
  Sb  Sb8  1  0.37596066  0.31659723  0.55392488  1
  Sb  Sb9  1  0.12403934  0.81659723  0.44607512  1
  Sb  Sb10  1  0.62403934  0.68340277  0.44607512  1
  Sb  Sb11  1  0.87596066  0.18340277  0.55392488  1
  Sb  Sb12  1  0.87467593  0.68542163  0.55235271  1
  Sb  Sb13  1  0.62532407  0.18542163  0.44764729  1
  Sb  Sb14  1  0.12532407  0.31457837  0.44764729  1
  Sb  Sb15  1  0.37467593  0.81457837  0.55235271  1
  Sb  Sb16  1  0.36556211  0.82815747  0.94163987  1
  Sb  Sb17  1  0.13443789  0.32815747  0.05836013  1
  Sb  Sb18  1  0.63443789  0.17184253  0.05836013  1
  Sb  Sb19  1  0.86556211  0.67184253  0.94163987  1
  Sb  Sb20  1  0.12590785  0.68994409  0.63650050  1
  Sb  Sb21  1  0.37409215  0.18994409  0.36349950  1
  Sb  Sb22  1  0.87409215  0.31005591  0.36349950  1
  Sb  Sb23  1  0.62590785  0.81005591  0.63650050  1
  Sb  Sb24  1  0.62258056  0.56711157  0.85155530  1
  Sb  Sb25  1  0.87741944  0.06711157  0.14844470  1
  Sb  Sb26  1  0.37741944  0.43288843  0.14844470  1
  Sb  Sb27  1  0.12258056  0.93288843  0.85155530  1
  Sb  Sb28  1  0.37638535  0.56443992  0.93933249  1
  Sb  Sb29  1  0.12361465  0.06443992  0.06066751  1
  Sb  Sb30  1  0.62361465  0.43556008  0.06066751  1
  Sb  Sb31  1  0.87638535  0.93556008  0.93933249  1
  Sb  Sb32  1  0.14734136  0.43384106  0.62715291  1
  Sb  Sb33  1  0.35265864  0.93384106  0.37284709  1
  Sb  Sb34  1  0.85265864  0.56615894  0.37284709  1
  Sb  Sb35  1  0.64734136  0.06615894  0.62715291  1
  Sb  Sb36  1  0.86809791  0.42080814  0.55963337  1
  Sb  Sb37  1  0.63190209  0.92080814  0.44036663  1
  Sb  Sb38  1  0.13190209  0.57919186  0.44036663  1
  Sb  Sb39  1  0.36809791  0.07919186  0.55963337  1
  Sb  Sb40  1  0.38124787  0.06326924  0.95476687  1
  Sb  Sb41  1  0.11875213  0.56326924  0.04523313  1
  Sb  Sb42  1  0.61875213  0.93673076  0.04523313  1
  Sb  Sb43  1  0.88124787  0.43673076  0.95476687  1
  Sb  Sb44  1  0.61984244  0.44713819  0.45462665  1
  Sb  Sb45  1  0.88015756  0.94713819  0.54537335  1
  Sb  Sb46  1  0.38015756  0.55286181  0.54537335  1
  Sb  Sb47  1  0.11984244  0.05286181  0.45462665  1
  Pb  Pb0  1  0.92751934  0.32512563  0.75657517  1
  Pb  Pb1  1  0.57248066  0.82512563  0.24342483  1
  Pb  Pb2  1  0.07248066  0.67487437  0.24342483  1
  Pb  Pb3  1  0.42751934  0.17487437  0.75657517  1
  Pb  Pb4  1  0.89745752  0.80766235  0.75024898  1
  Pb  Pb5  1  0.60254248  0.30766235  0.24975102  1
  Pb  Pb6  1  0.10254248  0.19233765  0.24975102  1
  Pb  Pb7  1  0.39745752  0.69233765  0.75024898  1
  Pb  Pb8  1  0.91262933  0.56796041  0.74384309  1
  Pb  Pb9  1  0.58737067  0.06796041  0.25615691  1
  Pb  Pb10  1  0.08737067  0.43203959  0.25615691  1
  Pb  Pb11  1  0.41262933  0.93203959  0.74384309  1
  Pb  Pb12  1  0.41264022  0.43742013  0.74985707  1
  Pb  Pb13  1  0.08735978  0.93742013  0.25014293  1
  Pb  Pb14  1  0.58735978  0.56257987  0.25014293  1
  Pb  Pb15  1  0.91264022  0.06257987  0.74985707  1
  S  S0  1  0.47434508  0.20027562  0.60026428  1
  S  S1  1  0.02565492  0.70027562  0.39973572  1
  S  S2  1  0.52565492  0.79972438  0.39973572  1
  S  S3  1  0.97434508  0.29972438  0.60026428  1
  S  S4  1  0.20812502  0.69910257  0.98378667  1
  S  S5  1  0.29187498  0.19910257  0.01621333  1
  S  S6  1  0.79187498  0.30089743  0.01621333  1
  S  S7  1  0.70812502  0.80089743  0.98378667  1
  S  S8  1  0.49268206  0.66959906  0.89364647  1
  S  S9  1  0.00731794  0.16959906  0.10635353  1
  S  S10  1  0.50731794  0.33040094  0.10635353  1
  S  S11  1  0.99268206  0.83040094  0.89364647  1
  S  S12  1  0.28157428  0.29314501  0.84577860  1
  S  S13  1  0.21842572  0.79314501  0.15422140  1
  S  S14  1  0.71842572  0.70685499  0.15422140  1
  S  S15  1  0.78157428  0.20685499  0.84577860  1
  S  S16  1  0.51006096  0.14875761  0.90593359  1
  S  S17  1  0.98993904  0.64875761  0.09406641  1
  S  S18  1  0.48993904  0.85124239  0.09406641  1
  S  S19  1  0.01006096  0.35124239  0.90593359  1
  S  S20  1  0.73436873  0.33544319  0.50407640  1
  S  S21  1  0.76563127  0.83544319  0.49592360  1
  S  S22  1  0.26563127  0.66455681  0.49592360  1
  S  S23  1  0.23436873  0.16455681  0.50407640  1
  S  S24  1  0.28039832  0.81323493  0.82888373  1
  S  S25  1  0.21960168  0.31323493  0.17111627  1
  S  S26  1  0.71960168  0.18676507  0.17111627  1
  S  S27  1  0.78039832  0.68676507  0.82888373  1
  S  S28  1  0.06552011  0.19004533  0.76587539  1
  S  S29  1  0.43447989  0.69004533  0.23412461  1
  S  S30  1  0.93447989  0.80995467  0.23412461  1
  S  S31  1  0.56552011  0.30995467  0.76587539  1
  S  S32  1  0.99619579  0.78844470  0.59196977  1
  S  S33  1  0.50380421  0.28844470  0.40803023  1
  S  S34  1  0.00380421  0.21155530  0.40803023  1
  S  S35  1  0.49619579  0.71155530  0.59196977  1
  S  S36  1  0.77262887  0.68750655  0.65843681  1
  S  S37  1  0.72737113  0.18750655  0.34156319  1
  S  S38  1  0.22737113  0.31249345  0.34156319  1
  S  S39  1  0.27262887  0.81249345  0.65843681  1
  S  S40  1  0.05093301  0.69464348  0.75547448  1
  S  S41  1  0.44906699  0.19464348  0.24452552  1
  S  S42  1  0.94906699  0.30535652  0.24452552  1
  S  S43  1  0.55093301  0.80535652  0.75547448  1
  S  S44  1  0.25969848  0.32102849  0.65878767  1
  S  S45  1  0.24030152  0.82102849  0.34121233  1
  S  S46  1  0.74030152  0.67897151  0.34121233  1
  S  S47  1  0.75969848  0.17897151  0.65878767  1
  S  S48  1  0.49869187  0.46231639  0.90199030  1
  S  S49  1  0.00130813  0.96231639  0.09800970  1
  S  S50  1  0.50130813  0.53768361  0.09800970  1
  S  S51  1  0.99869187  0.03768361  0.90199030  1
  S  S52  1  0.22700277  0.90953499  0.99724054  1
  S  S53  1  0.27299723  0.40953499  0.00275946  1
  S  S54  1  0.77299723  0.09046501  0.00275946  1
  S  S55  1  0.72700277  0.59046501  0.99724054  1
  S  S56  1  0.27323488  0.54093977  0.65583829  1
  S  S57  1  0.22676512  0.04093977  0.34416171  1
  S  S58  1  0.72676512  0.45906023  0.34416171  1
  S  S59  1  0.77323488  0.95906023  0.65583829  1
  S  S60  1  0.47110731  0.94225426  0.90241704  1
  S  S61  1  0.02889269  0.44225426  0.09758296  1
  S  S62  1  0.52889269  0.05774574  0.09758296  1
  S  S63  1  0.97110731  0.55774574  0.90241704  1
  S  S64  1  0.26649210  0.07631535  0.84781429  1
  S  S65  1  0.23350790  0.57631535  0.15218571  1
  S  S66  1  0.73350790  0.92368465  0.15218571  1
  S  S67  1  0.76649210  0.42368465  0.84781429  1
  S  S68  1  0.72144453  0.54301185  0.51661933  1
  S  S69  1  0.77855547  0.04301185  0.48338067  1
  S  S70  1  0.27855547  0.45698815  0.48338067  1
  S  S71  1  0.22144453  0.95698815  0.51661933  1
  S  S72  1  0.07277720  0.44479406  0.74255249  1
  S  S73  1  0.42722280  0.94479406  0.25744751  1
  S  S74  1  0.92722280  0.55520594  0.25744751  1
  S  S75  1  0.57277720  0.05520594  0.74255249  1
  S  S76  1  0.49728202  0.41178148  0.59891135  1
  S  S77  1  0.00271798  0.91178148  0.40108865  1
  S  S78  1  0.50271798  0.58821852  0.40108865  1
  S  S79  1  0.99728202  0.08821852  0.59891135  1
  S  S80  1  0.99267668  0.58200933  0.59712680  1
  S  S81  1  0.50732332  0.08200933  0.40287320  1
  S  S82  1  0.00732332  0.41799067  0.40287320  1
  S  S83  1  0.49267668  0.91799067  0.59712680  1
  S  S84  1  0.27188249  0.55215853  0.83671145  1
  S  S85  1  0.22811751  0.05215853  0.16328855  1
  S  S86  1  0.72811751  0.44784147  0.16328855  1
  S  S87  1  0.77188249  0.94784147  0.83671145  1
  S  S88  1  0.54190392  0.56393349  0.73341200  1
  S  S89  1  0.95809608  0.06393349  0.26658800  1
  S  S90  1  0.45809608  0.43606651  0.26658800  1
  S  S91  1  0.04190392  0.93606651  0.73341200  1
  S  S92  1  0.78626613  0.42844610  0.67148925  1
  S  S93  1  0.71373387  0.92844610  0.32851075  1
  S  S94  1  0.21373387  0.57155390  0.32851075  1
  S  S95  1  0.28626613  0.07155390  0.67148925  1
loop_
_geom_bond_atom_site_label_1
_geom_bond_atom_site_label_2
_geom_bond_distance
_geom_bond_site_symmetry_2
Ag0 S31 2.632823 1_555
Ag0 S92 2.728364 1_555
Ag0 S47 2.754365 1_555
Ag0 S76 2.786157 1_555
Ag0 S20 2.967666 1_555
Ag0 S0 3.163866 1_555
Ag1 S30 2.632823 1_555
Ag1 S93 2.728364 1_555
Ag1 S46 2.754365 1_555
Ag1 S77 2.786157 1_655
Ag1 S21 2.967666 1_555
Ag1 S1 3.163866 1_655
Ag2 S29 2.632823 1_555
Ag2 S94 2.728364 1_555
Ag2 S45 2.754365 1_555
Ag2 S78 2.786157 1_555
Ag2 S22 2.967666 1_555
Ag2 S2 3.163866 1_555
Ag3 S28 2.632823 1_555
Ag3 S95 2.728364 1_555
Ag3 S44 2.754365 1_555
Ag3 S79 2.786157 1_455
Ag3 S23 2.967666 1_555
Ag3 S3 3.163866 1_455
Ag4 S40 2.504017 1_555
Ag4 S4 2.556744 1_555
Ag4 S84 2.620633 1_555
Ag4 S24 2.840633 1_555
Ag5 S41 2.504017 1_555
Ag5 S5 2.556744 1_555
Ag5 S85 2.620633 1_555
Ag5 S25 2.840633 1_555
Ag6 S42 2.504017 1_555
Ag6 S6 2.556744 1_555
Ag6 S86 2.620633 1_555
Ag6 S26 2.840633 1_555
Ag7 S43 2.504017 1_555
Ag7 S7 2.556744 1_555
Ag7 S87 2.620633 1_555
Ag7 S27 2.840633 1_555
Ag8 S88 2.482199 1_555
Ag8 S68 2.570615 1_555
Ag8 S92 2.654532 1_555
Ag8 S36 2.686170 1_555
Ag9 S89 2.482199 1_555
Ag9 S69 2.570615 1_555
Ag9 S93 2.654532 1_545
Ag9 S37 2.686170 1_555
Ag10 S90 2.482199 1_555
Ag10 S70 2.570615 1_555
Ag10 S94 2.654532 1_555
Ag10 S38 2.686170 1_555
Ag11 S91 2.482199 1_555
Ag11 S71 2.570615 1_555
Ag11 S95 2.654532 1_565
Ag11 S39 2.686170 1_555
Ag12 S84 2.567215 1_555
Ag12 S19 2.612997 1_555
Ag12 S72 2.718561 1_555
Ag12 S12 2.891992 1_555
Ag12 S53 3.024399 1_556
Ag13 S85 2.567215 1_565
Ag13 S18 2.612997 1_555
Ag13 S73 2.718561 1_555
Ag13 S13 2.891992 1_555
Ag13 S52 3.024399 1_554
Ag14 S86 2.567215 1_555
Ag14 S17 2.612997 1_555
Ag14 S74 2.718561 1_555
Ag14 S14 2.891992 1_555
Ag14 S55 3.024399 1_554
Ag15 S87 2.567215 1_545
Ag15 S16 2.612997 1_555
Ag15 S75 2.718561 1_555
Ag15 S15 2.891992 1_555
Ag15 S54 3.024399 1_556
Pb0 S72 2.839549 1_655
Pb0 S28 2.970724 1_655
Pb0 S92 3.067651 1_555
Pb0 S19 3.134316 1_655
Pb0 S3 3.138100 1_555
Pb1 S73 2.839549 1_555
Pb1 S29 2.970724 1_555
Pb1 S93 3.067651 1_555
Pb1 S18 3.134316 1_555
Pb1 S2 3.138100 1_555
Pb2 S74 2.839549 1_455
Pb2 S30 2.970724 1_455
Pb2 S94 3.067651 1_555
Pb2 S17 3.134316 1_455
Pb2 S1 3.138100 1_555
Pb3 S75 2.839549 1_555
Pb3 S31 2.970724 1_555
Pb3 S95 3.067651 1_555
Pb3 S16 3.134316 1_555
Pb3 S0 3.138100 1_555
Pb4 S40 2.821760 1_655
Pb4 S91 2.950000 1_655
Pb4 S27 3.022254 1_555
Pb4 S11 3.083364 1_555
Pb4 S36 3.196492 1_555
Pb5 S41 2.821760 1_555
Pb5 S90 2.950000 1_555
Pb5 S26 3.022254 1_555
Pb5 S10 3.083364 1_555
Pb5 S37 3.196492 1_555
Pb6 S42 2.821760 1_455
Pb6 S89 2.950000 1_455
Pb6 S25 3.022254 1_555
Pb6 S9 3.083364 1_555
Pb6 S38 3.196492 1_555
Pb7 S43 2.821760 1_555
Pb7 S88 2.950000 1_555
Pb7 S24 3.022254 1_555
Pb7 S8 3.083364 1_555
Pb7 S39 3.196492 1_555
Pb8 S40 2.863809 1_655
Pb8 S72 3.006353 1_655
Pb8 S80 3.059903 1_555
Pb8 S27 3.170247 1_555
Pb8 S63 3.183761 1_555
Pb8 S36 3.232503 1_555
Pb8 S92 3.252886 1_555
Pb9 S41 2.863809 1_555
Pb9 S73 3.006353 1_545
Pb9 S81 3.059903 1_555
Pb9 S26 3.170247 1_555
Pb9 S62 3.183761 1_555
Pb9 S37 3.232503 1_555
Pb9 S93 3.252886 1_545
Pb10 S42 2.863809 1_455
Pb10 S74 3.006353 1_455
Pb10 S82 3.059903 1_555
Pb10 S25 3.170247 1_555
Pb10 S61 3.183761 1_555
Pb10 S38 3.232503 1_555
Pb10 S94 3.252886 1_555
Pb11 S43 2.863809 1_555
Pb11 S75 3.006353 1_565
Pb11 S83 3.059903 1_555
Pb11 S24 3.170247 1_555
Pb11 S60 3.183761 1_555
Pb11 S39 3.232503 1_555
Pb11 S95 3.252886 1_565
Pb12 S88 2.796892 1_555
Pb12 S31 3.008471 1_555
Pb12 S56 3.152028 1_555
Pb12 S76 3.179993 1_555
Pb12 S48 3.197590 1_555
Pb12 S84 3.208770 1_555
Pb13 S89 2.796892 1_465
Pb13 S30 3.008471 1_455
Pb13 S57 3.152028 1_565
Pb13 S77 3.179993 1_555
Pb13 S49 3.197590 1_555
Pb13 S85 3.208770 1_565
Pb14 S90 2.796892 1_555
Pb14 S29 3.008471 1_555
Pb14 S58 3.152028 1_555
Pb14 S78 3.179993 1_555
Pb14 S50 3.197590 1_555
Pb14 S86 3.208770 1_555
Pb15 S91 2.796892 1_645
Pb15 S28 3.008471 1_655
Pb15 S59 3.152028 1_545
Pb15 S79 3.179993 1_555
Pb15 S51 3.197590 1_555
Pb15 S87 3.208770 1_545
S0 Sb8 2.558274 1_555
S0 Sb39 2.641513 1_555
S1 Sb9 2.558274 1_555
S1 Sb38 2.641513 1_555
S2 Sb10 2.558274 1_555
S2 Sb37 2.641513 1_555
S3 Sb11 2.558274 1_555
S3 Sb36 2.641513 1_555
S4 Sb4 2.452155 1_556
S4 Sb41 2.890424 1_556
S5 Sb5 2.452155 1_554
S5 Sb40 2.890424 1_554
S6 Sb6 2.452155 1_554
S6 Sb43 2.890424 1_554
S7 Sb7 2.452155 1_556
S7 Sb42 2.890424 1_556
S8 Sb28 2.545733 1_555
S8 Sb24 2.604706 1_555
S9 Sb29 2.545733 1_555
S9 Sb25 2.604706 1_455
S10 Sb30 2.545733 1_555
S10 Sb26 2.604706 1_555
S11 Sb31 2.545733 1_555
S11 Sb27 2.604706 1_655
S12 Sb0 2.538486 1_555
S12 Sb5 2.546923 1_555
S13 Sb1 2.538486 1_555
S13 Sb4 2.546923 1_555
S14 Sb2 2.538486 1_555
S14 Sb7 2.546923 1_555
S15 Sb3 2.538486 1_555
S15 Sb6 2.546923 1_555
S16 Sb40 2.452549 1_555
S17 Sb41 2.452549 1_655
S18 Sb42 2.452549 1_555
S19 Sb43 2.452549 1_455
S20 Sb36 2.544035 1_555
S20 Sb44 2.635206 1_555
S21 Sb37 2.544035 1_555
S21 Sb45 2.635206 1_555
S22 Sb38 2.544035 1_555
S22 Sb46 2.635206 1_555
S23 Sb39 2.544035 1_555
S23 Sb47 2.635206 1_555
S24 Sb16 2.477125 1_555
S24 Sb27 2.975651 1_555
S25 Sb17 2.477125 1_555
S25 Sb26 2.975651 1_555
S26 Sb18 2.477125 1_555
S26 Sb25 2.975651 1_555
S27 Sb19 2.477125 1_555
S27 Sb24 2.975651 1_555
S28 Sb0 2.452784 1_555
S29 Sb1 2.452784 1_555
S30 Sb2 2.452784 1_555
S31 Sb3 2.452784 1_555
S32 Sb12 2.519645 1_555
S32 Sb20 2.567641 1_655
S33 Sb13 2.519645 1_555
S33 Sb21 2.567641 1_555
S34 Sb14 2.519645 1_555
S34 Sb22 2.567641 1_455
S35 Sb15 2.519645 1_555
S35 Sb23 2.567641 1_555
S36 Sb12 2.473266 1_555
S36 Sb23 2.905691 1_555
S37 Sb13 2.473266 1_555
S37 Sb22 2.905691 1_555
S38 Sb14 2.473266 1_555
S38 Sb21 2.905691 1_555
S39 Sb15 2.473266 1_555
S39 Sb20 2.905691 1_555
S40 Sb20 2.524822 1_555
S41 Sb21 2.524822 1_555
S42 Sb22 2.524822 1_555
S43 Sb23 2.524822 1_555
S44 Sb32 2.527868 1_555
S44 Sb8 2.563664 1_555
S45 Sb33 2.527868 1_555
S45 Sb9 2.563664 1_555
S46 Sb34 2.527868 1_555
S46 Sb10 2.563664 1_555
S47 Sb35 2.527868 1_555
S47 Sb11 2.563664 1_555
S48 Sb28 2.506179 1_555
S48 Sb24 2.636914 1_555
S49 Sb29 2.506179 1_565
S49 Sb25 2.636914 1_465
S50 Sb30 2.506179 1_555
S50 Sb26 2.636914 1_555
S51 Sb31 2.506179 1_545
S51 Sb27 2.636914 1_645
S52 Sb16 2.557124 1_555
S52 Sb4 2.577004 1_556
S52 Sb27 3.175767 1_555
S53 Sb17 2.557124 1_555
S53 Sb5 2.577004 1_554
S53 Sb26 3.175767 1_555
S54 Sb18 2.557124 1_555
S54 Sb6 2.577004 1_554
S54 Sb25 3.175767 1_555
S55 Sb19 2.557124 1_555
S55 Sb7 2.577004 1_556
S55 Sb24 3.175767 1_555
S56 Sb32 2.552305 1_555
S56 Sb46 2.588179 1_555
S57 Sb33 2.552305 1_545
S57 Sb47 2.588179 1_555
S58 Sb34 2.552305 1_555
S58 Sb44 2.588179 1_555
S59 Sb35 2.552305 1_565
S59 Sb45 2.588179 1_555
S60 Sb16 2.536986 1_555
S60 Sb40 2.615287 1_565
S61 Sb17 2.536986 1_555
S61 Sb41 2.615287 1_555
S62 Sb18 2.536986 1_555
S62 Sb42 2.615287 1_545
S63 Sb19 2.536986 1_555
S63 Sb43 2.615287 1_555
S64 Sb0 2.533237 1_555
S64 Sb40 2.582948 1_555
S64 Sb27 3.128668 1_545
S65 Sb1 2.533237 1_555
S65 Sb41 2.582948 1_555
S65 Sb26 3.128668 1_555
S66 Sb2 2.533237 1_555
S66 Sb42 2.582948 1_555
S66 Sb25 3.128668 1_565
S67 Sb3 2.533237 1_555
S67 Sb43 2.582948 1_555
S67 Sb24 3.128668 1_555
S68 Sb44 2.449676 1_555
S68 Sb36 2.987677 1_555
S68 Sb10 3.069617 1_555
S69 Sb45 2.449676 1_545
S69 Sb37 2.987677 1_545
S69 Sb11 3.069617 1_555
S70 Sb46 2.449676 1_555
S70 Sb38 2.987677 1_555
S70 Sb8 3.069617 1_555
S71 Sb47 2.449676 1_565
S71 Sb39 2.987677 1_565
S71 Sb9 3.069617 1_555
S72 Sb32 2.464790 1_555
S73 Sb33 2.464790 1_555
S74 Sb34 2.464790 1_555
S75 Sb35 2.464790 1_555
S76 Sb8 2.459049 1_555
S76 Sb46 3.070189 1_555
S77 Sb9 2.459049 1_555
S77 Sb47 3.070189 1_565
S78 Sb10 2.459049 1_555
S78 Sb44 3.070189 1_555
S79 Sb11 2.459049 1_555
S79 Sb45 3.070189 1_545
S80 Sb12 2.527507 1_555
S80 Sb20 2.678460 1_655
S81 Sb13 2.527507 1_555
S81 Sb21 2.678460 1_555
S82 Sb14 2.527507 1_555
S82 Sb22 2.678460 1_455
S83 Sb15 2.527507 1_555
S83 Sb23 2.678460 1_555
S84 Sb28 2.435203 1_555
S85 Sb29 2.435203 1_555
S86 Sb30 2.435203 1_555
S87 Sb31 2.435203 1_555
S88 Sb24 2.532422 1_555
S89 Sb25 2.532422 1_555
S90 Sb26 2.532422 1_555
S91 Sb27 2.532422 1_555
S92 Sb36 2.439818 1_555
S93 Sb37 2.439818 1_555
S94 Sb38 2.439818 1_555
S95 Sb39 2.439818 1_555
