# generated using pymatgen
data_TbNiSn4
_symmetry_space_group_name_H-M   'P 1'
_cell_length_a   14.36594541
_cell_length_b   14.36594541
_cell_length_c   4.52590100
_cell_angle_alpha   90.00000000
_cell_angle_beta   90.00000000
_cell_angle_gamma   162.26277905
_symmetry_Int_Tables_number   1
_chemical_formula_structural   TbNiSn4
_chemical_formula_sum   'Tb2 Ni2 Sn8'
_cell_volume   284.56227561
_cell_formula_units_Z   2
loop_
 _symmetry_equiv_pos_site_id
 _symmetry_equiv_pos_as_xyz
  1  'x, y, z'
loop_
 _atom_site_type_symbol
 _atom_site_label
 _atom_site_symmetry_multiplicity
 _atom_site_fract_x
 _atom_site_fract_y
 _atom_site_fract_z
 _atom_site_occupancy
  Tb  Tb0  1  0.80662700  0.19337300  0.50000000  1
  Tb  Tb1  1  0.19337300  0.80662700  0.50000000  1
  Ni  Ni0  1  0.55137300  0.44862700  0.00000000  1
  Ni  Ni1  1  0.44862700  0.55137300  0.00000000  1
  Sn  Sn0  1  0.60874500  0.39125500  0.50000000  1
  Sn  Sn1  1  0.39125500  0.60874500  0.50000000  1
  Sn  Sn2  1  0.71400400  0.28599600  0.00000000  1
  Sn  Sn3  1  0.28599600  0.71400400  0.00000000  1
  Sn  Sn4  1  0.89053700  0.10946300  0.00000000  1
  Sn  Sn5  1  0.10946300  0.89053700  0.00000000  1
  Sn  Sn6  1  0.00000000  0.00000000  0.00000000  1
  Sn  Sn7  1  0.50000000  0.50000000  0.50000000  1
loop_
_geom_bond_atom_site_label_1
_geom_bond_atom_site_label_2
_geom_bond_distance
_geom_bond_site_symmetry_2
Ni0 Sn6 2.651828 1_555
Ni0 Sn6 2.651828 1_665
Ni0 Sn7 2.692186 1_554
Ni0 Sn7 2.692186 1_555
Ni0 Sn5 2.761294 1_545
Ni0 Sn5 2.761294 1_655
Ni0 Sn0 2.788118 1_555
Ni0 Sn0 2.788118 1_554
Ni1 Sn6 2.651828 1_555
Ni1 Sn6 2.651828 1_665
Ni1 Sn7 2.692186 1_554
Ni1 Sn7 2.692186 1_555
Ni1 Sn4 2.761294 1_455
Ni1 Sn4 2.761294 1_565
Ni1 Sn1 2.788118 1_555
Ni1 Sn1 2.788118 1_554
Sn0 Sn7 3.087095 1_555
Sn0 Sn5 3.166486 1_545
Sn0 Sn5 3.166486 1_546
Sn0 Sn5 3.166486 1_656
Sn0 Sn5 3.166486 1_655
Sn0 Tb1 3.267576 1_655
Sn0 Tb1 3.267576 1_545
Sn1 Sn7 3.087095 1_555
Sn1 Sn4 3.166486 1_455
Sn1 Sn4 3.166486 1_456
Sn1 Sn4 3.166486 1_566
Sn1 Sn4 3.166486 1_565
Sn1 Tb0 3.267576 1_565
Sn1 Tb0 3.267576 1_455
Sn2 Sn3 3.013658 1_655
Sn2 Sn3 3.013658 1_545
Sn2 Tb1 3.220130 1_655
Sn2 Tb1 3.220130 1_654
Sn2 Tb1 3.220130 1_544
Sn2 Tb1 3.220130 1_545
Sn2 Tb0 3.469118 1_555
Sn2 Tb0 3.469118 1_554
Sn3 Tb0 3.220130 1_564
Sn3 Tb0 3.220130 1_455
Sn3 Tb0 3.220130 1_565
Sn3 Tb0 3.220130 1_454
Sn3 Tb1 3.469118 1_555
Sn3 Tb1 3.469118 1_554
Sn4 Tb0 3.285605 1_554
Sn4 Tb0 3.285605 1_555
Sn5 Tb1 3.285605 1_554
Sn5 Tb1 3.285605 1_555
