# generated using pymatgen
data_Fe8H10O17
_symmetry_space_group_name_H-M   'P 1'
_cell_length_a   6.14642400
_cell_length_b   10.11264753
_cell_length_c   11.04412594
_cell_angle_alpha   94.11383232
_cell_angle_beta   89.93714344
_cell_angle_gamma   91.98503728
_symmetry_Int_Tables_number   1
_chemical_formula_structural   Fe8H10O17
_chemical_formula_sum   'Fe16 H20 O34'
_cell_volume   684.28530551
_cell_formula_units_Z   2
loop_
 _symmetry_equiv_pos_site_id
 _symmetry_equiv_pos_as_xyz
  1  'x, y, z'
loop_
 _atom_site_type_symbol
 _atom_site_label
 _atom_site_symmetry_multiplicity
 _atom_site_fract_x
 _atom_site_fract_y
 _atom_site_fract_z
 _atom_site_occupancy
  Fe  Fe0  1  0.01377200  0.68655100  0.08718900  1
  Fe  Fe1  1  0.01530300  0.84721400  0.60698000  1
  Fe  Fe2  1  0.27211400  0.18246100  0.58020500  1
  Fe  Fe3  1  0.24797900  0.27497100  0.07784400  1
  Fe  Fe4  1  0.00907300  0.31077200  0.80694200  1
  Fe  Fe5  1  0.00451100  0.13530100  0.26391000  1
  Fe  Fe6  1  0.25983500  0.83162100  0.31651000  1
  Fe  Fe7  1  0.26575300  0.66998300  0.80338100  1
  Fe  Fe8  1  0.49960100  0.68775800  0.08744900  1
  Fe  Fe9  1  0.52183100  0.83298100  0.60450200  1
  Fe  Fe10  1  0.74979100  0.19225500  0.55211300  1
  Fe  Fe11  1  0.71209300  0.13517700  0.97550200  1
  Fe  Fe12  1  0.49365300  0.31639700  0.79316900  1
  Fe  Fe13  1  0.51981800  0.14273700  0.26487200  1
  Fe  Fe14  1  0.75911700  0.83461200  0.32292900  1
  Fe  Fe15  1  0.76317700  0.67130500  0.79963300  1
  H  H0  1  0.98890200  0.61097100  0.33147600  1
  H  H1  1  0.03834800  0.59034200  0.59783400  1
  H  H2  1  0.26099500  0.47570500  0.92183200  1
  H  H3  1  0.26140000  0.29731000  0.37769300  1
  H  H4  1  0.99699800  0.39737300  0.56173300  1
  H  H5  1  0.01091400  0.01608800  0.46755500  1
  H  H6  1  0.91390400  0.36180000  0.20827300  1
  H  H7  1  0.23631500  0.49903800  0.15819800  1
  H  H8  1  0.35559200  0.92276100  0.81196800  1
  H  H9  1  0.51314100  0.61087600  0.33190200  1
  H  H10  1  0.51116900  0.54992000  0.62163200  1
  H  H11  1  0.75500300  0.46737400  0.91591300  1
  H  H12  1  0.71566300  0.08123200  0.74991300  1
  H  H13  1  0.51041200  0.00848100  0.46513100  1
  H  H14  1  0.77483000  0.90601500  0.09799600  1
  H  H15  1  0.71754300  0.49683700  0.14317400  1
  H  H16  1  0.87166500  0.93144200  0.84768300  1
  H  H17  1  0.39652900  0.98182200  0.00201500  1
  H  H18  1  0.07844600  0.01563900  0.91147800  1
  H  H19  1  0.59966800  0.32994800  0.13236000  1
  O  O0  1  0.99911100  0.68850500  0.28410600  1
  O  O1  1  0.01598300  0.95771600  0.33165200  1
  O  O2  1  0.02187400  0.64872700  0.67059600  1
  O  O3  1  0.01407500  0.69274200  0.90952400  1
  O  O4  1  0.24204800  0.19316600  0.75541100  1
  O  O5  1  0.25502300  0.45938100  0.83167600  1
  O  O6  1  0.25831700  0.10967600  0.15356400  1
  O  O7  1  0.26970900  0.20376600  0.39455300  1
  O  O8  1  0.00576300  0.31838400  0.60653400  1
  O  O9  1  0.00867000  0.04718300  0.55862900  1
  O  O10  1  0.06249000  0.33891900  0.22635500  1
  O  O11  1  0.99014800  0.26502500  0.97114700  1
  O  O12  1  0.26308200  0.80573900  0.13075800  1
  O  O13  1  0.24872900  0.54040900  0.08031200  1
  O  O14  1  0.29175900  0.85956000  0.74182600  1
  O  O15  1  0.26214600  0.80240400  0.49808800  1
  O  O16  1  0.50959900  0.68880400  0.28502200  1
  O  O17  1  0.51299300  0.95882800  0.33277200  1
  O  O18  1  0.51136700  0.63518900  0.66990000  1
  O  O19  1  0.51557500  0.69161300  0.91047500  1
  O  O20  1  0.74089800  0.17706700  0.76808300  1
  O  O21  1  0.76163100  0.45240300  0.82562300  1
  O  O22  1  0.75551600  0.10446800  0.14617100  1
  O  O23  1  0.76813000  0.19565500  0.38234100  1
  O  O24  1  0.51880900  0.31630700  0.60781100  1
  O  O25  1  0.51443200  0.04170300  0.55751400  1
  O  O26  1  0.50267600  0.28256700  0.96747300  1
  O  O27  1  0.76452800  0.81705700  0.12964000  1
  O  O28  1  0.74792300  0.55611200  0.07870400  1
  O  O29  1  0.77542300  0.85488500  0.73148500  1
  O  O30  1  0.76692900  0.79839100  0.49474800  1
  O  O31  1  0.47534200  0.00323700  0.92804400  1
  O  O32  1  0.92637400  0.98758800  0.92323400  1
  O  O33  1  0.50741000  0.33678000  0.20532700  1
loop_
_geom_bond_atom_site_label_1
_geom_bond_atom_site_label_2
_geom_bond_distance
_geom_bond_site_symmetry_2
Fe0 O12 1.955222 1_555
Fe0 O3 1.967634 1_554
Fe0 O28 2.062054 1_455
Fe0 O27 2.087627 1_455
Fe0 O13 2.099279 1_555
Fe0 O0 2.175245 1_455
Fe1 O15 1.979638 1_555
Fe1 O30 1.993694 1_455
Fe1 O29 2.014650 1_455
Fe1 O9 2.129991 1_565
Fe1 O2 2.175371 1_555
Fe1 O14 2.254991 1_555
Fe2 O4 1.939234 1_555
Fe2 O24 2.005937 1_555
Fe2 O7 2.077089 1_555
Fe2 O9 2.085859 1_555
Fe2 O25 2.098124 1_555
Fe2 O8 2.179802 1_555
Fe3 O6 1.924981 1_555
Fe3 O11 1.971327 1_454
Fe3 O26 1.985793 1_554
Fe3 O10 2.074362 1_555
Fe3 O33 2.173766 1_555
Fe4 O11 1.905916 1_455
Fe4 O4 1.951396 1_555
Fe4 O5 2.098336 1_555
Fe4 O20 2.119725 1_455
Fe4 O21 2.124819 1_455
Fe4 O8 2.220321 1_555
Fe5 O6 1.991091 1_555
Fe5 O1 1.997862 1_545
Fe5 O22 2.010824 1_455
Fe5 O23 2.033944 1_455
Fe5 O10 2.147175 1_555
Fe5 O7 2.236461 1_555
Fe6 O17 1.984203 1_555
Fe6 O1 2.000424 1_555
Fe6 O15 2.048017 1_555
Fe6 O12 2.049551 1_555
Fe6 O0 2.134723 1_455
Fe6 O16 2.154967 1_555
Fe7 O19 1.936017 1_555
Fe7 O3 1.949896 1_555
Fe7 O14 2.080529 1_555
Fe7 O2 2.093093 1_555
Fe7 O18 2.129212 1_555
Fe7 O5 2.173367 1_555
Fe8 O12 1.949975 1_555
Fe8 O19 1.959991 1_554
Fe8 O28 2.057480 1_555
Fe8 O27 2.084491 1_555
Fe8 O13 2.104394 1_555
Fe8 O16 2.182210 1_555
Fe9 O30 1.957746 1_555
Fe9 O15 1.985511 1_555
Fe9 O14 2.082130 1_555
Fe9 O29 2.093237 1_555
Fe9 O18 2.173676 1_555
Fe9 O25 2.211429 1_565
Fe10 O23 1.880949 1_555
Fe10 O24 1.994613 1_555
Fe10 O8 2.053414 1_655
Fe10 O25 2.067477 1_555
Fe10 O9 2.205996 1_655
Fe10 O20 2.401552 1_555
Fe11 O22 1.952259 1_556
Fe11 O31 1.984774 1_555
Fe11 O26 2.009572 1_555
Fe11 O32 2.075181 1_545
Fe11 O11 2.121511 1_555
Fe11 O20 2.364642 1_555
Fe12 O4 1.977828 1_555
Fe12 O26 1.980383 1_555
Fe12 O24 2.052716 1_555
Fe12 O20 2.112542 1_555
Fe12 O5 2.116653 1_555
Fe12 O21 2.122905 1_555
Fe13 O22 1.982163 1_555
Fe13 O6 2.028422 1_555
Fe13 O23 2.036420 1_555
Fe13 O17 2.053683 1_545
Fe13 O33 2.117660 1_555
Fe13 O7 2.174723 1_555
Fe14 O30 1.959201 1_555
Fe14 O1 1.974506 1_655
Fe14 O17 1.997484 1_555
Fe14 O16 2.111321 1_555
Fe14 O27 2.129667 1_555
Fe14 O0 2.145128 1_555
Fe15 O19 1.959158 1_555
Fe15 O3 1.959921 1_655
Fe15 O29 2.051660 1_555
Fe15 O18 2.114797 1_555
Fe15 O2 2.141222 1_655
Fe15 O21 2.252234 1_555
H0 O0 0.973540 1_555
H1 O2 0.969797 1_555
H2 O5 0.998039 1_555
H3 O7 0.980201 1_555
H4 O8 0.972381 1_655
H5 O9 1.032308 1_555
H5 O1 1.573614 1_545
H6 O10 0.974247 1_655
H7 O13 0.984910 1_555
H8 O14 1.036713 1_555
H8 O31 1.630448 1_565
H9 O16 0.974334 1_555
H10 O18 0.980665 1_555
H11 O21 0.998807 1_555
H12 O20 0.982508 1_555
H13 O25 1.051081 1_555
H13 O17 1.511422 1_545
H14 O27 0.988201 1_555
H15 O28 0.976901 1_555
H16 O32 1.025224 1_555
H16 O29 1.556780 1_555
H17 O31 0.982958 1_564
H18 O32 0.978589 1_445
H19 O33 0.984609 1_555
