# generated using pymatgen
data_Ba3(WN2)2
_symmetry_space_group_name_H-M   'P 1'
_cell_length_a   7.76467204
_cell_length_b   10.81629793
_cell_length_c   6.14738335
_cell_angle_alpha   90.00000182
_cell_angle_beta   90.98057116
_cell_angle_gamma   134.14743077
_symmetry_Int_Tables_number   1
_chemical_formula_structural   Ba3(WN2)2
_chemical_formula_sum   'Ba6 W4 N8'
_cell_volume   370.35707718
_cell_formula_units_Z   2
loop_
 _symmetry_equiv_pos_site_id
 _symmetry_equiv_pos_as_xyz
  1  'x, y, z'
loop_
 _atom_site_type_symbol
 _atom_site_label
 _atom_site_symmetry_multiplicity
 _atom_site_fract_x
 _atom_site_fract_y
 _atom_site_fract_z
 _atom_site_occupancy
  Ba  Ba0  1  0.19417000  0.93837800  0.00609300  1
  Ba  Ba1  1  0.80583000  0.74420900  0.49390700  1
  Ba  Ba2  1  0.80583000  0.06162200  0.99390700  1
  Ba  Ba3  1  0.19417000  0.25579100  0.50609300  1
  Ba  Ba4  1  0.00000000  0.55483400  0.75000000  1
  Ba  Ba5  1  0.00000000  0.44516600  0.25000000  1
  W  W0  1  0.48817200  0.12818700  0.51710200  1
  W  W1  1  0.51182800  0.64001500  0.98289800  1
  W  W2  1  0.51182800  0.87181300  0.48289800  1
  W  W3  1  0.48817200  0.35998500  0.01710200  1
  N  N0  1  0.26864000  0.87425900  0.58660900  1
  N  N1  1  0.73136000  0.60561900  0.91339100  1
  N  N2  1  0.73136000  0.12574100  0.41339100  1
  N  N3  1  0.26864000  0.39438100  0.08660900  1
  N  N4  1  0.48089100  0.23523400  0.77548400  1
  N  N5  1  0.51910900  0.75434300  0.72451600  1
  N  N6  1  0.51910900  0.76476600  0.22451600  1
  N  N7  1  0.48089100  0.24565700  0.27548400  1
loop_
_geom_bond_atom_site_label_1
_geom_bond_atom_site_label_2
_geom_bond_distance
_geom_bond_site_symmetry_2
Ba0 N4 2.725088 1_564
Ba0 N0 2.841628 1_554
Ba0 N1 2.847012 1_454
Ba0 N7 2.883010 1_565
Ba1 N5 2.725082 1_555
Ba1 N1 2.841632 1_555
Ba1 N0 2.847016 1_655
Ba1 N6 2.883003 1_555
Ba2 N6 2.725088 1_546
Ba2 N2 2.841628 1_556
Ba2 N3 2.847012 1_656
Ba2 N5 2.883010 1_545
Ba3 N7 2.725082 1_555
Ba3 N3 2.841632 1_555
Ba3 N2 2.847016 1_455
Ba3 N4 2.883003 1_555
Ba4 N1 2.707290 1_455
Ba4 N0 2.707290 1_555
Ba4 N5 2.972036 1_555
Ba4 N4 2.972036 1_455
Ba5 N3 2.707290 1_555
Ba5 N2 2.707290 1_455
Ba5 N7 2.972036 1_455
Ba5 N6 2.972036 1_555
N0 W2 2.020780 1_555
N0 W0 2.033462 1_565
N1 W3 2.020780 1_556
N1 W1 2.033462 1_555
N2 W0 2.020780 1_555
N2 W2 2.033462 1_545
N3 W1 2.020780 1_554
N3 W3 2.033462 1_555
N4 W3 1.980141 1_556
N4 W0 1.990228 1_555
N5 W2 1.980141 1_555
N5 W1 1.990228 1_555
N6 W1 1.980141 1_554
N6 W2 1.990228 1_555
N7 W0 1.980141 1_555
N7 W3 1.990228 1_555
