# generated using pymatgen
data_H4CN4O3
_symmetry_space_group_name_H-M   'P 1'
_cell_length_a   7.86233400
_cell_length_b   11.25216100
_cell_length_c   13.91633305
_cell_angle_alpha   53.80227637
_cell_angle_beta   90.00000000
_cell_angle_gamma   90.00000000
_symmetry_Int_Tables_number   1
_chemical_formula_structural   H4CN4O3
_chemical_formula_sum   'H32 C8 N32 O24'
_cell_volume   993.52098449
_cell_formula_units_Z   8
loop_
 _symmetry_equiv_pos_site_id
 _symmetry_equiv_pos_as_xyz
  1  'x, y, z'
loop_
 _atom_site_type_symbol
 _atom_site_label
 _atom_site_symmetry_multiplicity
 _atom_site_fract_x
 _atom_site_fract_y
 _atom_site_fract_z
 _atom_site_occupancy
  H  H0  1  0.25693400  0.14618600  0.35521200  1
  H  H1  1  0.24306600  0.14618600  0.85521200  1
  H  H2  1  0.74306600  0.85381400  0.64478800  1
  H  H3  1  0.75693400  0.85381400  0.14478800  1
  H  H4  1  0.26627500  0.78972200  0.43132900  1
  H  H5  1  0.23372500  0.78972200  0.93132900  1
  H  H6  1  0.73372500  0.21027800  0.56867100  1
  H  H7  1  0.76627500  0.21027800  0.06867100  1
  H  H8  1  0.38343500  0.85151900  0.55304500  1
  H  H9  1  0.11656500  0.85151900  0.05304500  1
  H  H10  1  0.61656500  0.14848100  0.44695500  1
  H  H11  1  0.88343500  0.14848100  0.94695500  1
  H  H12  1  0.17261500  0.84652400  0.56644500  1
  H  H13  1  0.32738500  0.84652400  0.06644500  1
  H  H14  1  0.82738500  0.15347600  0.43355500  1
  H  H15  1  0.67261500  0.15347600  0.93355500  1
  H  H16  1  0.22680200  0.09828300  0.12759100  1
  H  H17  1  0.27319800  0.09828300  0.62759100  1
  H  H18  1  0.77319800  0.90171700  0.87240900  1
  H  H19  1  0.72680200  0.90171700  0.37240900  1
  H  H20  1  0.22709600  0.90385100  0.22593600  1
  H  H21  1  0.27290400  0.90385100  0.72593600  1
  H  H22  1  0.77290400  0.09614900  0.77406400  1
  H  H23  1  0.72709600  0.09614900  0.27406400  1
  H  H24  1  0.34731300  0.33565300  0.14922600  1
  H  H25  1  0.15268700  0.33565300  0.64922600  1
  H  H26  1  0.65268700  0.66434700  0.85077400  1
  H  H27  1  0.84731300  0.66434700  0.35077400  1
  H  H28  1  0.13547700  0.32934300  0.15954600  1
  H  H29  1  0.36452300  0.32934300  0.65954600  1
  H  H30  1  0.86452300  0.67065700  0.84045400  1
  H  H31  1  0.63547700  0.67065700  0.34045400  1
  C  C0  1  0.22998500  0.45447200  0.37699200  1
  C  C1  1  0.27001500  0.45447200  0.87699200  1
  C  C2  1  0.77001500  0.54552800  0.62300800  1
  C  C3  1  0.72998500  0.54552800  0.12300800  1
  C  C4  1  0.25151200  0.01258300  0.30213400  1
  C  C5  1  0.24848800  0.01258300  0.80213400  1
  C  C6  1  0.74848800  0.98741700  0.69786600  1
  C  C7  1  0.75151200  0.98741700  0.19786600  1
  N  N0  1  0.25409500  0.14380100  0.28271500  1
  N  N1  1  0.24590500  0.14380100  0.78271500  1
  N  N2  1  0.74590500  0.85619900  0.71728500  1
  N  N3  1  0.75409500  0.85619900  0.21728500  1
  N  N4  1  0.27211700  0.90285000  0.50930000  1
  N  N5  1  0.22788300  0.90285000  0.00930000  1
  N  N6  1  0.72788300  0.09715000  0.49070000  1
  N  N7  1  0.77211700  0.09715000  0.99070000  1
  N  N8  1  0.24199400  0.27234200  0.16628000  1
  N  N9  1  0.25800600  0.27234200  0.66628000  1
  N  N10  1  0.75800600  0.72765800  0.83372000  1
  N  N11  1  0.74199400  0.72765800  0.33372000  1
  N  N12  1  0.25516000  0.89025100  0.41516800  1
  N  N13  1  0.24484000  0.89025100  0.91516800  1
  N  N14  1  0.74484000  0.10974900  0.58483200  1
  N  N15  1  0.75516000  0.10974900  0.08483200  1
  N  N16  1  0.38119000  0.37226000  0.40449600  1
  N  N17  1  0.11881000  0.37226000  0.90449600  1
  N  N18  1  0.61881000  0.62774000  0.59550400  1
  N  N19  1  0.88119000  0.62774000  0.09550400  1
  N  N20  1  0.06856200  0.38681600  0.39189700  1
  N  N21  1  0.43143800  0.38681600  0.89189700  1
  N  N22  1  0.93143800  0.61318400  0.60810300  1
  N  N23  1  0.56856200  0.61318400  0.10810300  1
  N  N24  1  0.23292200  0.59984000  0.34356000  1
  N  N25  1  0.26707800  0.59984000  0.84356000  1
  N  N26  1  0.76707800  0.40016000  0.65644000  1
  N  N27  1  0.73292200  0.40016000  0.15644000  1
  N  N28  1  0.24604300  0.00314400  0.21059100  1
  N  N29  1  0.25395700  0.00314400  0.71059100  1
  N  N30  1  0.75395700  0.99685600  0.78940900  1
  N  N31  1  0.74604300  0.99685600  0.28940900  1
  O  O0  1  0.52173300  0.43530400  0.37975700  1
  O  O1  1  0.97826700  0.43530400  0.87975700  1
  O  O2  1  0.47826700  0.56469600  0.62024300  1
  O  O3  1  0.02173300  0.56469600  0.12024300  1
  O  O4  1  0.94536200  0.42533400  0.42430300  1
  O  O5  1  0.55463800  0.42533400  0.92430300  1
  O  O6  1  0.05463800  0.57466600  0.57569700  1
  O  O7  1  0.44536200  0.57466600  0.07569700  1
  O  O8  1  0.05777800  0.29064700  0.37406000  1
  O  O9  1  0.44222200  0.29064700  0.87406000  1
  O  O10  1  0.94222200  0.70935300  0.62594000  1
  O  O11  1  0.55777800  0.70935300  0.12594000  1
  O  O12  1  0.10963000  0.68310100  0.28425600  1
  O  O13  1  0.39037000  0.68310100  0.78425600  1
  O  O14  1  0.89037000  0.31689900  0.71574400  1
  O  O15  1  0.60963000  0.31689900  0.21574400  1
  O  O16  1  0.36844400  0.23593200  0.45385900  1
  O  O17  1  0.13155600  0.23593200  0.95385900  1
  O  O18  1  0.63155600  0.76406800  0.54614100  1
  O  O19  1  0.86844400  0.76406800  0.04614100  1
  O  O20  1  0.35658800  0.64343700  0.37178600  1
  O  O21  1  0.14341200  0.64343700  0.87178600  1
  O  O22  1  0.64341200  0.35656300  0.62821400  1
  O  O23  1  0.85658800  0.35656300  0.12821400  1
loop_
_geom_bond_atom_site_label_1
_geom_bond_atom_site_label_2
_geom_bond_distance
_geom_bond_site_symmetry_2
H0 N0 1.025213 1_555
H1 N1 1.025213 1_555
H2 N2 1.025213 1_555
H3 N3 1.025213 1_555
H4 N12 1.018466 1_555
H5 N13 1.018466 1_555
H6 N14 1.018466 1_555
H7 N15 1.018466 1_555
H8 N4 1.027085 1_555
H9 N5 1.027085 1_555
H10 N6 1.027085 1_555
H11 N7 1.027085 1_555
H12 N4 1.025090 1_555
H13 N5 1.025090 1_555
H14 N6 1.025090 1_555
H15 N7 1.025090 1_555
H16 N28 1.021054 1_555
H17 N29 1.021054 1_555
H18 N30 1.021054 1_555
H19 N31 1.021054 1_555
H20 N28 1.016985 1_565
H21 N29 1.016985 1_565
H22 N30 1.016985 1_545
H23 N31 1.016985 1_545
H24 N8 1.024595 1_555
H25 N9 1.024595 1_555
H26 N10 1.024595 1_555
H27 N11 1.024595 1_555
H28 N8 1.024950 1_555
H29 N9 1.024950 1_555
H30 N10 1.024950 1_555
H31 N11 1.024950 1_555
C0 N24 1.411967 1_555
C0 N16 1.413271 1_555
C0 N20 1.430673 1_555
C1 N25 1.411967 1_555
C1 N17 1.413271 1_555
C1 N21 1.430673 1_555
C2 N26 1.411967 1_555
C2 N18 1.413271 1_555
C2 N22 1.430673 1_555
C3 N27 1.411967 1_555
C3 N19 1.413271 1_555
C3 N23 1.430673 1_555
C4 N0 1.334978 1_555
C4 N28 1.340102 1_555
C4 N12 1.346281 1_545
C5 N1 1.334978 1_555
C5 N29 1.340102 1_555
C5 N13 1.346281 1_545
C6 N2 1.334978 1_555
C6 N30 1.340102 1_555
C6 N14 1.346281 1_565
C7 N3 1.334978 1_555
C7 N31 1.340102 1_555
C7 N15 1.346281 1_565
N0 N8 1.399427 1_555
N1 N9 1.399427 1_555
N10 N2 1.399427 1_555
N11 N3 1.399427 1_555
N12 N4 1.404724 1_555
N13 N5 1.404724 1_556
N14 N6 1.404724 1_555
N15 N7 1.404724 1_554
N16 O0 1.246716 1_555
N16 O16 1.261108 1_555
N17 O1 1.246716 1_455
N17 O17 1.261108 1_555
N18 O2 1.246716 1_555
N18 O18 1.261108 1_555
N19 O3 1.246716 1_655
N19 O19 1.261108 1_555
N20 O8 1.247810 1_555
N20 O4 1.249138 1_455
N21 O9 1.247810 1_555
N21 O5 1.249138 1_555
N22 O10 1.247810 1_555
N22 O6 1.249138 1_655
N23 O11 1.247810 1_555
N23 O7 1.249138 1_555
N24 O20 1.252165 1_555
N24 O12 1.259064 1_555
N25 O21 1.252165 1_555
N25 O13 1.259064 1_555
N26 O22 1.252165 1_555
N26 O14 1.259064 1_555
N27 O23 1.252165 1_555
N27 O15 1.259064 1_555
