# generated using pymatgen
data_Zn2CoWO6
_symmetry_space_group_name_H-M   'P 1'
_cell_length_a   5.25764770
_cell_length_b   5.21219932
_cell_length_c   5.52637155
_cell_angle_alpha   90.14608518
_cell_angle_beta   117.46743348
_cell_angle_gamma   119.23360509
_symmetry_Int_Tables_number   1
_chemical_formula_structural   Zn2CoWO6
_chemical_formula_sum   'Zn2 Co1 W1 O6'
_cell_volume   112.06783924
_cell_formula_units_Z   1
loop_
 _symmetry_equiv_pos_site_id
 _symmetry_equiv_pos_as_xyz
  1  'x, y, z'
loop_
 _atom_site_type_symbol
 _atom_site_label
 _atom_site_symmetry_multiplicity
 _atom_site_fract_x
 _atom_site_fract_y
 _atom_site_fract_z
 _atom_site_occupancy
  Zn  Zn0  1  0.55460700  0.78240500  0.34706700  1
  Zn  Zn1  1  0.49656600  0.25948500  0.74958300  1
  Co  Co0  1  0.98011600  0.49578400  0.47866900  1
  W  W0  1  0.98816500  0.00280700  0.98799100  1
  O  O0  1  0.82021100  0.62343400  0.70456900  1
  O  O1  1  0.10485100  0.36938500  0.20814800  1
  O  O2  1  0.43973800  0.08622700  0.19473900  1
  O  O3  1  0.83451700  0.74934600  0.20393500  1
  O  O4  1  0.09452900  0.22096500  0.71453300  1
  O  O5  1  0.51156400  0.89807900  0.71328700  1
loop_
_geom_bond_atom_site_label_1
_geom_bond_atom_site_label_2
_geom_bond_distance
_geom_bond_site_symmetry_2
Co0 O0 2.053861 1_555
Co0 O4 2.059251 1_655
Co0 O1 2.102519 1_655
Co0 O3 2.136374 1_555
Co0 O5 2.192408 1_655
Co0 O2 2.244447 1_555
O0 Zn1 1.948315 1_555
O0 W0 2.036135 1_565
O0 Zn0 2.265701 1_555
O1 W0 1.913636 1_454
O1 Zn0 2.039628 1_555
O2 W0 1.902137 1_454
O2 Zn0 2.013226 1_545
O3 W0 1.917552 1_564
O3 Zn0 2.035198 1_555
O4 Zn1 1.937377 1_555
O4 W0 2.014146 1_455
O4 Zn0 2.393296 1_445
O5 Zn1 1.937164 1_565
O5 W0 2.008035 1_565
O5 Zn0 2.249515 1_555
