# generated using pymatgen
data_TaZn2CoO6
_symmetry_space_group_name_H-M   'P 1'
_cell_length_a   7.58991700
_cell_length_b   5.14061800
_cell_length_c   5.26920383
_cell_angle_alpha   88.80093403
_cell_angle_beta   90.00000000
_cell_angle_gamma   90.00000000
_symmetry_Int_Tables_number   1
_chemical_formula_structural   TaZn2CoO6
_chemical_formula_sum   'Ta2 Zn4 Co2 O12'
_cell_volume   205.54279012
_cell_formula_units_Z   2
loop_
 _symmetry_equiv_pos_site_id
 _symmetry_equiv_pos_as_xyz
  1  'x, y, z'
loop_
 _atom_site_type_symbol
 _atom_site_label
 _atom_site_symmetry_multiplicity
 _atom_site_fract_x
 _atom_site_fract_y
 _atom_site_fract_z
 _atom_site_occupancy
  Ta  Ta0  1  0.00000000  0.00000000  0.50000000  1
  Ta  Ta1  1  0.50000000  0.00000000  0.50000000  1
  Zn  Zn0  1  0.75000000  0.99691700  0.02692300  1
  Zn  Zn1  1  0.75000000  0.51236100  0.55758500  1
  Zn  Zn2  1  0.25000000  0.48763900  0.44241500  1
  Zn  Zn3  1  0.25000000  0.00308300  0.97307700  1
  Co  Co0  1  0.00000000  0.50000000  0.00000000  1
  Co  Co1  1  0.50000000  0.50000000  0.00000000  1
  O  O0  1  0.43690500  0.18918100  0.18238700  1
  O  O1  1  0.56496300  0.68081900  0.30809900  1
  O  O2  1  0.56309500  0.81081900  0.81761300  1
  O  O3  1  0.06496300  0.31918100  0.69190100  1
  O  O4  1  0.25000000  0.87482400  0.55156500  1
  O  O5  1  0.43503700  0.31918100  0.69190100  1
  O  O6  1  0.93503700  0.68081900  0.30809900  1
  O  O7  1  0.06309500  0.18918100  0.18238700  1
  O  O8  1  0.75000000  0.37740200  0.93097400  1
  O  O9  1  0.93690500  0.81081900  0.81761300  1
  O  O10  1  0.25000000  0.62259800  0.06902600  1
  O  O11  1  0.75000000  0.12517600  0.44843500  1
loop_
_geom_bond_atom_site_label_1
_geom_bond_atom_site_label_2
_geom_bond_distance
_geom_bond_site_symmetry_2
Co0 O7 1.908304 1_555
Co0 O9 1.908304 1_454
Co0 O3 1.950852 1_554
Co0 O6 1.950852 1_455
Co0 O10 2.034575 1_555
Co0 O8 2.034575 1_454
Co1 O0 1.908304 1_555
Co1 O2 1.908304 1_554
Co1 O1 1.950852 1_555
Co1 O5 1.950852 1_554
Co1 O10 2.034575 1_555
Co1 O8 2.034575 1_554
O0 Ta1 1.976819 1_555
O0 Zn3 2.046495 1_554
O1 Ta1 2.006786 1_565
O1 Zn1 2.098287 1_555
O2 Ta1 1.976819 1_565
O2 Zn0 2.046495 1_556
O3 Ta0 2.006786 1_555
O3 Zn2 2.098287 1_555
O4 Ta1 2.020149 1_565
O4 Ta0 2.020149 1_565
O4 Zn2 2.083329 1_555
O4 Zn3 2.330020 1_565
O5 Ta1 2.006786 1_555
O5 Zn2 2.098287 1_555
O6 Ta0 2.006786 1_665
O6 Zn1 2.098287 1_555
O7 Ta0 1.976819 1_555
O7 Zn3 2.046495 1_554
O8 Zn0 2.009944 1_546
O8 Zn1 2.072463 1_555
O9 Ta0 1.976819 1_665
O9 Zn0 2.046495 1_556
O10 Zn3 2.009944 1_564
O10 Zn2 2.072463 1_555
O11 Ta1 2.020149 1_555
O11 Ta0 2.020149 1_655
O11 Zn1 2.083329 1_555
O11 Zn0 2.330020 1_545
