# generated using pymatgen
data_MgTiBiO5
_symmetry_space_group_name_H-M   'P 1'
_cell_length_a   10.85218700
_cell_length_b   5.37198600
_cell_length_c   8.43820771
_cell_angle_alpha   69.47877042
_cell_angle_beta   90.00000000
_cell_angle_gamma   90.00000000
_symmetry_Int_Tables_number   1
_chemical_formula_structural   MgTiBiO5
_chemical_formula_sum   'Mg4 Ti4 Bi4 O20'
_cell_volume   460.71227107
_cell_formula_units_Z   4
loop_
 _symmetry_equiv_pos_site_id
 _symmetry_equiv_pos_as_xyz
  1  'x, y, z'
loop_
 _atom_site_type_symbol
 _atom_site_label
 _atom_site_symmetry_multiplicity
 _atom_site_fract_x
 _atom_site_fract_y
 _atom_site_fract_z
 _atom_site_occupancy
  Mg  Mg0  1  0.09029700  0.53870300  0.83206100  1
  Mg  Mg1  1  0.90970300  0.46129700  0.16793900  1
  Mg  Mg2  1  0.59029700  0.46129700  0.66793900  1
  Mg  Mg3  1  0.40970300  0.53870300  0.33206100  1
  Ti  Ti0  1  0.37867000  0.14654500  0.04755000  1
  Ti  Ti1  1  0.62133000  0.85345500  0.95245000  1
  Ti  Ti2  1  0.87867000  0.85345500  0.45245000  1
  Ti  Ti3  1  0.12133000  0.14654500  0.54755000  1
  Bi  Bi0  1  0.89553500  0.04114900  0.84120000  1
  Bi  Bi1  1  0.10446500  0.95885100  0.15880000  1
  Bi  Bi2  1  0.60446500  0.04114900  0.34120000  1
  Bi  Bi3  1  0.39553500  0.95885100  0.65880000  1
  O  O0  1  0.95797400  0.84406500  0.65519400  1
  O  O1  1  0.04638100  0.31221100  0.68105500  1
  O  O2  1  0.80190800  0.17613600  0.32591300  1
  O  O3  1  0.46526100  0.74960400  0.49367900  1
  O  O4  1  0.72798200  0.69484500  0.51560300  1
  O  O5  1  0.77201800  0.69484500  0.01560300  1
  O  O6  1  0.45361900  0.31221100  0.18105500  1
  O  O7  1  0.54638100  0.68778900  0.81894500  1
  O  O8  1  0.53473900  0.25039600  0.50632100  1
  O  O9  1  0.45797400  0.15593500  0.84480600  1
  O  O10  1  0.27201800  0.30515500  0.48439700  1
  O  O11  1  0.04202600  0.15593500  0.34480600  1
  O  O12  1  0.54202600  0.84406500  0.15519400  1
  O  O13  1  0.22798200  0.30515500  0.98439700  1
  O  O14  1  0.96526100  0.25039600  0.00632100  1
  O  O15  1  0.03473900  0.74960400  0.99367900  1
  O  O16  1  0.19809200  0.82386400  0.67408700  1
  O  O17  1  0.95361900  0.68778900  0.31894500  1
  O  O18  1  0.30190800  0.82386400  0.17408700  1
  O  O19  1  0.69809200  0.17613600  0.82591300  1
loop_
_geom_bond_atom_site_label_1
_geom_bond_atom_site_label_2
_geom_bond_distance
_geom_bond_site_symmetry_2
Mg0 O16 2.015037 1_555
Mg0 O13 2.080458 1_555
Mg0 O1 2.101934 1_555
Mg0 O15 2.142486 1_555
Mg0 O14 2.192131 1_456
Mg0 O0 2.294323 1_455
Mg1 O2 2.015037 1_555
Mg1 O5 2.080458 1_555
Mg1 O17 2.101934 1_555
Mg1 O14 2.142486 1_555
Mg1 O15 2.192131 1_654
Mg1 O11 2.294323 1_655
Mg2 O19 2.015037 1_555
Mg2 O4 2.080458 1_555
Mg2 O7 2.101934 1_555
Mg2 O8 2.142486 1_555
Mg2 O3 2.192131 1_555
Mg2 O9 2.294323 1_555
Mg3 O18 2.015037 1_555
Mg3 O10 2.080458 1_555
Mg3 O6 2.101934 1_555
Mg3 O3 2.142486 1_555
Mg3 O8 2.192131 1_555
Mg3 O12 2.294323 1_555
Bi0 O14 2.208061 1_556
Bi0 O15 2.231070 1_645
Bi0 O19 2.251224 1_555
Bi0 O0 2.282242 1_545
Bi0 O1 2.290559 1_655
Bi0 O5 2.346038 1_546
Bi1 O15 2.208061 1_554
Bi1 O14 2.231070 1_465
Bi1 O18 2.251224 1_555
Bi1 O11 2.282242 1_565
Bi1 O17 2.290559 1_455
Bi1 O13 2.346038 1_564
Bi2 O8 2.208061 1_555
Bi2 O3 2.231070 1_545
Bi2 O2 2.251224 1_555
Bi2 O12 2.282242 1_545
Bi2 O6 2.290559 1_555
Bi2 O4 2.346038 1_545
Bi3 O3 2.208061 1_555
Bi3 O8 2.231070 1_565
Bi3 O16 2.251224 1_555
Bi3 O9 2.282242 1_565
Bi3 O7 2.290559 1_555
Bi3 O10 2.346038 1_565
O0 Ti2 1.899877 1_555
O0 Ti3 2.360788 1_665
O1 Ti3 1.850834 1_555
O2 Ti2 1.881801 1_545
O4 Ti2 1.834616 1_555
O5 Ti1 1.834616 1_554
O6 Ti0 1.850834 1_555
O7 Ti1 1.850834 1_555
O9 Ti0 1.899877 1_556
O9 Ti1 2.360788 1_545
O10 Ti3 1.834616 1_555
O11 Ti3 1.899877 1_555
O11 Ti2 2.360788 1_445
O12 Ti1 1.899877 1_554
O12 Ti0 2.360788 1_565
O13 Ti0 1.834616 1_556
O16 Ti3 1.881801 1_565
O17 Ti2 1.850834 1_555
O18 Ti0 1.881801 1_565
O19 Ti1 1.881801 1_545
