# generated using pymatgen
data_K2Nd2Mg(SO4)4
_symmetry_space_group_name_H-M   'P 1'
_cell_length_a   5.79421292
_cell_length_b   7.09634636
_cell_length_c   10.83615203
_cell_angle_alpha   96.23380603
_cell_angle_beta   105.27707833
_cell_angle_gamma   88.93193511
_symmetry_Int_Tables_number   1
_chemical_formula_structural   K2Nd2Mg(SO4)4
_chemical_formula_sum   'K2 Nd2 Mg1 S4 O16'
_cell_volume   427.24881845
_cell_formula_units_Z   1
loop_
 _symmetry_equiv_pos_site_id
 _symmetry_equiv_pos_as_xyz
  1  'x, y, z'
loop_
 _atom_site_type_symbol
 _atom_site_label
 _atom_site_symmetry_multiplicity
 _atom_site_fract_x
 _atom_site_fract_y
 _atom_site_fract_z
 _atom_site_occupancy
  K  K0  1  0.68716576  0.18638352  0.21307420  1
  K  K1  1  0.06464845  0.82983922  0.90170918  1
  Nd  Nd0  1  0.23256657  0.70434166  0.28551154  1
  Nd  Nd1  1  0.88253066  0.27991053  0.64981441  1
  Mg  Mg0  1  0.52044317  0.49579628  0.79687668  1
  S  S0  1  0.17276542  0.32058334  0.94594024  1
  S  S1  1  0.86414726  0.76516161  0.52729462  1
  S  S2  1  0.69309443  0.70851724  0.11162767  1
  S  S3  1  0.28178427  0.22044399  0.40691676  1
  O  O0  1  0.61063348  0.64926029  0.97190151  1
  O  O1  1  0.30105214  0.39265946  0.34171845  1
  O  O2  1  0.92522241  0.59182397  0.59380140  1
  O  O3  1  0.03092163  0.78481414  0.44556328  1
  O  O4  1  0.25019558  0.05417497  0.30805454  1
  O  O5  1  0.37454686  0.19192106  0.98198705  1
  O  O6  1  0.89465267  0.84962545  0.13335757  1
  O  O7  1  0.20112929  0.42854912  0.83312128  1
  O  O8  1  0.07428192  0.23755682  0.46300918  1
  O  O9  1  0.48987138  0.80223647  0.15452287  1
  O  O10  1  0.79018927  0.55170879  0.18965166  1
  O  O11  1  0.15254955  0.46169884  0.05211760  1
  O  O12  1  0.94600560  0.20838041  0.88380111  1
  O  O13  1  0.89831873  0.93215195  0.62777275  1
  O  O14  1  0.50972314  0.19945402  0.50583768  1
  O  O15  1  0.61406035  0.75485886  0.44644577  1
loop_
_geom_bond_atom_site_label_1
_geom_bond_atom_site_label_2
_geom_bond_distance
_geom_bond_site_symmetry_2
K0 O5 2.679845 1_554
K0 O10 2.724356 1_555
K0 O6 2.809678 1_545
K0 O9 2.915308 1_545
K0 O8 3.018876 1_655
K0 O4 3.165678 1_555
K0 O1 3.188950 1_555
K0 O4 3.302789 1_655
K1 O12 2.774939 1_465
K1 O6 2.917561 1_456
K1 O7 3.008861 1_555
K1 O13 3.033455 1_455
K1 O5 3.073521 1_565
K1 O9 3.186763 1_556
K1 O11 3.190354 1_556
K1 O0 3.245428 1_455
K1 O0 3.319825 1_555
Nd0 O3 2.350965 1_555
Nd0 O1 2.356477 1_555
Nd0 O15 2.432739 1_555
Nd0 O9 2.467383 1_555
Nd0 O4 2.469354 1_565
Nd0 O6 2.491512 1_455
Nd0 O10 2.697849 1_455
Nd0 O11 2.835883 1_555
Nd1 O14 2.345797 1_555
Nd1 O2 2.391702 1_555
Nd1 O13 2.455732 1_545
Nd1 O7 2.480162 1_655
Nd1 O8 2.542235 1_655
Nd1 O12 2.569610 1_555
Mg0 O0 2.026455 1_555
Mg0 O7 2.064381 1_555
O0 S2 1.478373 1_556
O1 S3 1.496427 1_555
O2 S1 1.483091 1_555
O3 S1 1.490123 1_455
O4 S3 1.484432 1_555
O5 S0 1.466336 1_555
O6 S2 1.506503 1_555
O7 S0 1.556459 1_555
O8 S3 1.481011 1_555
O9 S2 1.495665 1_555
O10 S2 1.483211 1_555
O11 S0 1.468583 1_554
O12 S0 1.506668 1_655
O13 S1 1.497963 1_555
O14 S3 1.482166 1_555
O15 S1 1.481110 1_555
