# generated using pymatgen
data_Ta7S12
_symmetry_space_group_name_H-M   'P 1'
_cell_length_a   5.75846388
_cell_length_b   5.75846402
_cell_length_c   12.80047880
_cell_angle_alpha   85.70204444
_cell_angle_beta   94.29796368
_cell_angle_gamma   59.98920093
_symmetry_Int_Tables_number   1
_chemical_formula_structural   Ta7S12
_chemical_formula_sum   'Ta7 S12'
_cell_volume   363.40190538
_cell_formula_units_Z   1
loop_
 _symmetry_equiv_pos_site_id
 _symmetry_equiv_pos_as_xyz
  1  'x, y, z'
loop_
 _atom_site_type_symbol
 _atom_site_label
 _atom_site_symmetry_multiplicity
 _atom_site_fract_x
 _atom_site_fract_y
 _atom_site_fract_z
 _atom_site_occupancy
  Ta  Ta0  1  0.91628160  0.08371840  0.75010324  1
  Ta  Ta1  1  0.58371263  0.74985575  0.75234627  1
  Ta  Ta2  1  0.25014425  0.41628737  0.75234627  1
  Ta  Ta3  1  0.74985575  0.58371263  0.24765373  1
  Ta  Ta4  1  0.41628737  0.25014425  0.24765373  1
  Ta  Ta5  1  0.08371840  0.91628160  0.24989676  1
  Ta  Ta6  1  0.00000000  -0.00000000  0.00000000  1
  S  S0  1  0.70853165  0.29146835  0.12204388  1
  S  S1  1  0.37368086  0.95874527  0.12185968  1
  S  S2  1  0.04125573  0.62631914  0.12185968  1
  S  S3  1  0.95874427  0.37368086  0.87814032  1
  S  S4  1  0.62631914  0.04125473  0.87814032  1
  S  S5  1  0.29146835  0.70853165  0.87795612  1
  S  S6  1  0.78857770  0.21142230  0.37032452  1
  S  S7  1  0.45906862  0.87608471  0.37030309  1
  S  S8  1  0.12391529  0.54093138  0.37030309  1
  S  S9  1  0.87608471  0.45906862  0.62969691  1
  S  S10  1  0.54093138  0.12391529  0.62969691  1
  S  S11  1  0.21142230  0.78857770  0.62967548  1
loop_
_geom_bond_atom_site_label_1
_geom_bond_atom_site_label_2
_geom_bond_distance
_geom_bond_site_symmetry_2
S0 Ta6 2.458188 1_655
S0 Ta3 2.494545 1_555
S0 Ta4 2.494545 1_555
S0 Ta5 2.506926 1_645
S1 Ta6 2.459667 1_565
S1 Ta3 2.495081 1_555
S1 Ta4 2.495264 1_565
S1 Ta5 2.508479 1_555
S2 Ta6 2.459665 1_565
S2 Ta4 2.495079 1_555
S2 Ta3 2.495268 1_455
S2 Ta5 2.508477 1_555
S3 Ta6 2.459665 1_656
S3 Ta1 2.495079 1_555
S3 Ta2 2.495268 1_655
S3 Ta0 2.508477 1_555
S4 Ta6 2.459667 1_656
S4 Ta2 2.495081 1_555
S4 Ta1 2.495264 1_545
S4 Ta0 2.508479 1_555
S5 Ta6 2.458188 1_566
S5 Ta2 2.494545 1_555
S5 Ta1 2.494545 1_555
S5 Ta0 2.506926 1_465
S6 Ta5 2.459524 1_645
S6 Ta4 2.464980 1_555
S6 Ta3 2.464980 1_555
S7 Ta5 2.459189 1_555
S7 Ta4 2.463652 1_565
S7 Ta3 2.464423 1_555
S8 Ta5 2.459189 1_555
S8 Ta3 2.463652 1_455
S8 Ta4 2.464423 1_555
S9 Ta0 2.459189 1_555
S9 Ta2 2.463652 1_655
S9 Ta1 2.464423 1_555
S10 Ta0 2.459189 1_555
S10 Ta1 2.463652 1_545
S10 Ta2 2.464423 1_555
S11 Ta0 2.459524 1_465
S11 Ta1 2.464980 1_555
S11 Ta2 2.464980 1_555
