# generated using pymatgen
data_LiAl4Cd2O8
_symmetry_space_group_name_H-M   'P 1'
_cell_length_a   6.29078735
_cell_length_b   6.29078735
_cell_length_c   5.82539457
_cell_angle_alpha   62.41849323
_cell_angle_beta   62.41849323
_cell_angle_gamma   58.38693212
_symmetry_Int_Tables_number   1
_chemical_formula_structural   LiAl4Cd2O8
_chemical_formula_sum   'Li1 Al4 Cd2 O8'
_cell_volume   166.43616334
_cell_formula_units_Z   1
loop_
 _symmetry_equiv_pos_site_id
 _symmetry_equiv_pos_as_xyz
  1  'x, y, z'
loop_
 _atom_site_type_symbol
 _atom_site_label
 _atom_site_symmetry_multiplicity
 _atom_site_fract_x
 _atom_site_fract_y
 _atom_site_fract_z
 _atom_site_occupancy
  Li  Li0  1  0.66249200  0.66249200  0.08750800  1
  Al  Al0  1  0.46276800  0.46276800  0.02789700  1
  Al  Al1  1  0.51119600  0.98404400  0.50238000  1
  Al  Al2  1  0.98404400  0.51119600  0.50238000  1
  Al  Al3  1  0.46276800  0.46276800  0.54656700  1
  Cd  Cd0  1  0.10481300  0.10481300  0.14518700  1
  Cd  Cd1  1  0.92128700  0.92128700  0.82871300  1
  O  O0  1  0.26433400  0.26433400  0.69952000  1
  O  O1  1  0.27922300  0.67307300  0.27385200  1
  O  O2  1  0.67307300  0.27922300  0.27385200  1
  O  O3  1  0.26433400  0.26433400  0.27181200  1
  O  O4  1  0.75090900  0.75090900  0.28369500  1
  O  O5  1  0.71885700  0.33482700  0.72315800  1
  O  O6  1  0.33482700  0.71885700  0.72315800  1
  O  O7  1  0.75090900  0.75090900  0.71448800  1
loop_
_geom_bond_atom_site_label_1
_geom_bond_atom_site_label_2
_geom_bond_distance
_geom_bond_site_symmetry_2
Li0 O7 1.851081 1_554
Li0 O4 1.851087 1_555
Li0 O2 2.114484 1_555
Li0 O1 2.114484 1_555
Al0 O3 1.866581 1_555
Al0 O5 1.926132 1_554
Al0 O6 1.926132 1_554
Al0 O1 1.938624 1_555
Al0 O2 1.938624 1_555
Al1 O4 1.918448 1_555
Al1 O7 1.918452 1_555
Al1 O0 2.047569 1_565
Al1 O3 2.047569 1_565
Al1 O6 2.073720 1_555
Al1 O2 2.166851 1_565
Al2 O4 1.918448 1_555
Al2 O7 1.918452 1_555
Al2 O0 2.047569 1_655
Al2 O3 2.047569 1_655
Al2 O5 2.073720 1_555
Al2 O1 2.166851 1_655
Al3 O0 1.866581 1_555
Al3 O5 1.926132 1_555
Al3 O6 1.926132 1_555
Al3 O1 1.938624 1_555
Al3 O2 1.938624 1_555
Cd0 O1 2.212365 1_545
Cd0 O2 2.212365 1_455
Cd0 O3 2.232681 1_555
Cd0 O0 2.232681 1_554
Cd1 O6 2.130318 1_655
Cd1 O5 2.130318 1_565
Cd1 O7 2.294671 1_555
Cd1 O4 2.294676 1_556
