# generated using pymatgen
data_Gd3Al2(Ni2H3)3
_symmetry_space_group_name_H-M   'P 1'
_cell_length_a   8.00636156
_cell_length_b   8.00636156
_cell_length_c   8.00636156
_cell_angle_alpha   109.47122063
_cell_angle_beta   109.47122063
_cell_angle_gamma   109.47122063
_symmetry_Int_Tables_number   1
_chemical_formula_structural   Gd3Al2(Ni2H3)3
_chemical_formula_sum   'Gd6 Al4 Ni12 H18'
_cell_volume   395.07878035
_cell_formula_units_Z   2
loop_
 _symmetry_equiv_pos_site_id
 _symmetry_equiv_pos_as_xyz
  1  'x, y, z'
loop_
 _atom_site_type_symbol
 _atom_site_label
 _atom_site_symmetry_multiplicity
 _atom_site_fract_x
 _atom_site_fract_y
 _atom_site_fract_z
 _atom_site_occupancy
  Gd  Gd0  1  0.72936900  0.72936900  0.00000000  1
  Gd  Gd1  1  0.27063100  0.00000000  0.27063100  1
  Gd  Gd2  1  0.00000000  0.27063100  0.27063100  1
  Gd  Gd3  1  0.27063100  0.27063100  0.00000000  1
  Gd  Gd4  1  0.72936900  0.00000000  0.72936900  1
  Gd  Gd5  1  0.00000000  0.72936900  0.72936900  1
  Al  Al0  1  0.00000000  0.00000000  0.50000000  1
  Al  Al1  1  0.00000000  0.50000000  0.00000000  1
  Al  Al2  1  0.50000000  0.00000000  0.00000000  1
  Al  Al3  1  0.50000000  0.50000000  0.50000000  1
  Ni  Ni0  1  0.33848800  0.33848800  0.67697500  1
  Ni  Ni1  1  0.66151200  0.00000000  0.33848800  1
  Ni  Ni2  1  0.00000000  0.66151200  0.33848800  1
  Ni  Ni3  1  0.66151200  0.33848800  0.00000000  1
  Ni  Ni4  1  0.33848800  0.67697500  0.33848800  1
  Ni  Ni5  1  0.00000000  0.33848800  0.66151200  1
  Ni  Ni6  1  0.33848800  0.66151200  0.00000000  1
  Ni  Ni7  1  0.33848800  0.00000000  0.66151200  1
  Ni  Ni8  1  0.67697500  0.33848800  0.33848800  1
  Ni  Ni9  1  0.66151200  0.66151200  0.32302500  1
  Ni  Ni10  1  0.66151200  0.32302500  0.66151200  1
  Ni  Ni11  1  0.32302500  0.66151200  0.66151200  1
  H  H0  1  0.00000000  0.00000000  0.73245300  1
  H  H1  1  0.00000000  0.73245300  0.00000000  1
  H  H2  1  0.73245300  0.00000000  0.00000000  1
  H  H3  1  0.26754700  0.26754700  0.26754700  1
  H  H4  1  0.00000000  0.00000000  0.26754700  1
  H  H5  1  0.00000000  0.26754700  0.00000000  1
  H  H6  1  0.26754700  0.00000000  0.00000000  1
  H  H7  1  0.73245300  0.73245300  0.73245300  1
  H  H8  1  0.50000000  0.75000000  0.25000000  1
  H  H9  1  0.25000000  0.75000000  0.50000000  1
  H  H10  1  0.25000000  0.50000000  0.75000000  1
  H  H11  1  0.50000000  0.25000000  0.75000000  1
  H  H12  1  0.75000000  0.50000000  0.25000000  1
  H  H13  1  0.75000000  0.25000000  0.50000000  1
  H  H14  1  0.50000000  0.50000000  0.00000000  1
  H  H15  1  0.50000000  0.00000000  0.50000000  1
  H  H16  1  0.00000000  0.50000000  0.50000000  1
  H  H17  1  0.00000000  0.00000000  0.00000000  1
loop_
_geom_bond_atom_site_label_1
_geom_bond_atom_site_label_2
_geom_bond_distance
_geom_bond_site_symmetry_2
Gd0 H14 2.120505 1_555
Gd0 H4 2.158665 1_665
Gd0 H7 2.158665 1_554
Gd0 H2 2.158665 1_565
Gd0 H1 2.158665 1_655
Gd0 H17 2.501970 1_665
Gd1 H15 2.120505 1_555
Gd1 H6 2.158665 1_555
Gd1 H3 2.158665 1_555
Gd1 H4 2.158665 1_555
Gd1 H1 2.158665 1_545
Gd1 H17 2.501970 1_555
Gd2 H16 2.120505 1_555
Gd2 H5 2.158665 1_555
Gd2 H2 2.158665 1_455
Gd2 H3 2.158665 1_555
Gd2 H4 2.158665 1_555
Gd2 H17 2.501970 1_555
Gd3 H14 2.120505 1_555
Gd3 H5 2.158665 1_555
Gd3 H6 2.158665 1_555
Gd3 H3 2.158665 1_555
Gd3 H0 2.158665 1_554
Gd3 H17 2.501970 1_555
Gd4 H15 2.120505 1_555
Gd4 H7 2.158665 1_545
Gd4 H5 2.158665 1_656
Gd4 H2 2.158665 1_556
Gd4 H0 2.158665 1_655
Gd4 H17 2.501970 1_656
Gd5 H16 2.120505 1_555
Gd5 H7 2.158665 1_455
Gd5 H0 2.158665 1_565
Gd5 H6 2.158665 1_566
Gd5 H1 2.158665 1_556
Gd5 H17 2.501970 1_566
Al0 H4 1.861103 1_555
Al0 H0 1.861103 1_555
Al1 H1 1.861103 1_555
Al1 H5 1.861103 1_555
Al2 H6 1.861103 1_555
Al2 H2 1.861103 1_555
Al3 H7 1.861103 1_555
Al3 H3 1.861103 1_555
H8 Ni6 1.702584 1_555
H8 Ni1 1.702584 1_565
H8 Ni4 1.702586 1_555
H8 Ni9 1.702586 1_555
H9 Ni2 1.702584 1_555
H9 Ni7 1.702584 1_565
H9 Ni4 1.702586 1_555
H9 Ni11 1.702586 1_555
H10 Ni6 1.702584 1_556
H10 Ni5 1.702584 1_555
H10 Ni11 1.702586 1_555
H10 Ni0 1.702586 1_555
H11 Ni7 1.702584 1_555
H11 Ni3 1.702584 1_556
H11 Ni0 1.702586 1_555
H11 Ni10 1.702586 1_555
H12 Ni3 1.702584 1_555
H12 Ni2 1.702584 1_655
H12 Ni9 1.702586 1_555
H12 Ni8 1.702586 1_555
H13 Ni1 1.702584 1_555
H13 Ni5 1.702584 1_655
H13 Ni10 1.702586 1_555
H13 Ni8 1.702586 1_555
H14 Ni6 2.111662 1_555
H14 Ni3 2.111662 1_555
H14 Ni9 2.111668 1_555
H14 Ni0 2.111668 1_554
H15 Ni7 2.111662 1_555
H15 Ni1 2.111662 1_555
H15 Ni4 2.111668 1_545
H15 Ni10 2.111668 1_555
H16 Ni5 2.111662 1_555
H16 Ni2 2.111662 1_555
H16 Ni8 2.111668 1_455
H16 Ni11 2.111668 1_555
