# generated using pymatgen
data_SrAl2(SiO4)2
_symmetry_space_group_name_H-M   'P 1'
_cell_length_a   9.31961762
_cell_length_b   9.31961762
_cell_length_c   8.44129456
_cell_angle_alpha   82.98285184
_cell_angle_beta   82.98285184
_cell_angle_gamma   89.59666603
_symmetry_Int_Tables_number   1
_chemical_formula_structural   SrAl2(SiO4)2
_chemical_formula_sum   'Sr4 Al8 Si8 O32'
_cell_volume   722.20549822
_cell_formula_units_Z   4
loop_
 _symmetry_equiv_pos_site_id
 _symmetry_equiv_pos_as_xyz
  1  'x, y, z'
loop_
 _atom_site_type_symbol
 _atom_site_label
 _atom_site_symmetry_multiplicity
 _atom_site_fract_x
 _atom_site_fract_y
 _atom_site_fract_z
 _atom_site_occupancy
  Sr  Sr0  1  0.56695500  0.06429500  0.70046700  1
  Sr  Sr1  1  0.93570500  0.43304500  0.79953300  1
  Sr  Sr2  1  0.43304500  0.93570500  0.29953300  1
  Sr  Sr3  1  0.06429500  0.56695500  0.20046700  1
  Al  Al0  1  0.79391000  0.93975900  0.38426000  1
  Al  Al1  1  0.06024100  0.20609000  0.11574000  1
  Al  Al2  1  0.20609000  0.06024100  0.61574000  1
  Al  Al3  1  0.93975900  0.79391000  0.88426000  1
  Al  Al4  1  0.70847400  0.45054300  0.47919900  1
  Al  Al5  1  0.54945700  0.29152600  0.02080100  1
  Al  Al6  1  0.29152600  0.54945700  0.52080100  1
  Al  Al7  1  0.45054300  0.70847400  0.97919900  1
  Si  Si0  1  0.56641300  0.71805500  0.60295100  1
  Si  Si1  1  0.28194500  0.43358700  0.89704900  1
  Si  Si2  1  0.43358700  0.28194500  0.39704900  1
  Si  Si3  1  0.71805500  0.56641300  0.10295100  1
  Si  Si4  1  0.94091600  0.21499200  0.48939100  1
  Si  Si5  1  0.78500800  0.05908400  0.01060900  1
  Si  Si6  1  0.05908400  0.78500800  0.51060900  1
  Si  Si7  1  0.21499200  0.94091600  0.98939100  1
  O  O0  1  0.62876400  0.87106700  0.49618000  1
  O  O1  1  0.12893300  0.37123600  0.00382000  1
  O  O2  1  0.37123600  0.12893300  0.50382000  1
  O  O3  1  0.87106700  0.62876400  0.99618000  1
  O  O4  1  0.85482700  0.35550500  0.55715200  1
  O  O5  1  0.64449500  0.14517300  0.94284800  1
  O  O6  1  0.14517300  0.64449500  0.44284800  1
  O  O7  1  0.35550500  0.85482700  0.05715200  1
  O  O8  1  0.98476000  0.73508100  0.69478400  1
  O  O9  1  0.26491900  0.01524000  0.80521600  1
  O  O10  1  0.01524000  0.26491900  0.30521600  1
  O  O11  1  0.73508100  0.98476000  0.19478400  1
  O  O12  1  0.51903600  0.76994900  0.77961700  1
  O  O13  1  0.23005100  0.48096400  0.72038300  1
  O  O14  1  0.48096400  0.23005100  0.22038300  1
  O  O15  1  0.76994900  0.51903600  0.27961700  1
  O  O16  1  0.94047600  0.82259800  0.38455500  1
  O  O17  1  0.17740200  0.05952400  0.11544500  1
  O  O18  1  0.05952400  0.17740200  0.61544500  1
  O  O19  1  0.82259800  0.94047600  0.88455500  1
  O  O20  1  0.67993300  0.58482500  0.60869000  1
  O  O21  1  0.41517500  0.32006700  0.89131000  1
  O  O22  1  0.32006700  0.41517500  0.39131000  1
  O  O23  1  0.58482500  0.67993300  0.10869000  1
  O  O24  1  0.82230000  0.08560900  0.49313200  1
  O  O25  1  0.91439100  0.17770000  0.00686800  1
  O  O26  1  0.17770000  0.91439100  0.50686800  1
  O  O27  1  0.08560900  0.82230000  0.99313200  1
  O  O28  1  0.56916000  0.32253100  0.49112800  1
  O  O29  1  0.67746900  0.43084000  0.00887200  1
  O  O30  1  0.43084000  0.67746900  0.50887200  1
  O  O31  1  0.32253100  0.56916000  0.99112800  1
loop_
_geom_bond_atom_site_label_1
_geom_bond_atom_site_label_2
_geom_bond_distance
_geom_bond_site_symmetry_2
Al0 O16 1.742757 1_555
Al0 O11 1.755494 1_555
Al0 O24 1.769718 1_565
Al0 O0 1.783824 1_555
Al1 O17 1.742757 1_555
Al1 O10 1.755494 1_555
Al1 O25 1.769718 1_455
Al1 O1 1.783824 1_555
Al2 O18 1.742757 1_555
Al2 O9 1.755494 1_555
Al2 O26 1.769718 1_545
Al2 O2 1.783824 1_555
Al3 O19 1.742757 1_555
Al3 O8 1.755494 1_555
Al3 O27 1.769718 1_655
Al3 O3 1.783824 1_555
Al4 O28 1.754901 1_555
Al4 O15 1.755157 1_555
Al4 O20 1.757898 1_555
Al4 O4 1.771368 1_555
Al5 O29 1.754901 1_555
Al5 O14 1.755157 1_555
Al5 O21 1.757898 1_554
Al5 O5 1.771368 1_554
Al6 O30 1.754901 1_555
Al6 O13 1.755157 1_555
Al6 O22 1.757898 1_555
Al6 O6 1.771368 1_555
Al7 O31 1.754901 1_555
Al7 O12 1.755157 1_555
Al7 O23 1.757898 1_556
Al7 O7 1.771368 1_556
O0 Si0 1.659267 1_555
O0 Sr2 2.631617 1_555
O0 Sr0 2.655164 1_565
O1 Si1 1.659267 1_554
O1 Sr3 2.631617 1_555
O1 Sr1 2.655164 1_454
O2 Si2 1.659267 1_555
O2 Sr0 2.631617 1_555
O2 Sr2 2.655164 1_545
O3 Si3 1.659267 1_556
O3 Sr1 2.631617 1_555
O3 Sr3 2.655164 1_656
O4 Si4 1.655851 1_555
O4 Sr1 2.454025 1_555
O5 Si5 1.655851 1_556
O5 Sr0 2.454025 1_555
O6 Si6 1.655851 1_555
O6 Sr3 2.454025 1_555
O7 Si7 1.655851 1_554
O7 Sr2 2.454025 1_555
O8 Si6 1.636455 1_655
O8 Sr1 2.868014 1_555
O9 Si7 1.636455 1_545
O9 Sr0 2.868014 1_555
O10 Si4 1.636455 1_455
O10 Sr3 2.868014 1_555
O11 Si5 1.636455 1_565
O11 Sr2 2.868014 1_555
O12 Si0 1.632523 1_555
O12 Sr0 2.769019 1_565
O13 Si1 1.632523 1_555
O13 Sr1 2.769019 1_455
O14 Si2 1.632523 1_555
O14 Sr2 2.769019 1_545
O15 Si3 1.632523 1_555
O15 Sr3 2.769019 1_655
O16 Si6 1.633300 1_655
O16 Sr3 3.138527 1_655
O17 Si7 1.633300 1_544
O17 Sr2 3.138527 1_545
O18 Si4 1.633300 1_455
O18 Sr1 3.138527 1_455
O19 Si5 1.633300 1_566
O19 Sr0 3.138527 1_565
O20 Si0 1.625628 1_555
O20 Sr1 3.257624 1_555
O21 Si1 1.625628 1_555
O21 Sr0 3.257624 1_555
O22 Si2 1.625628 1_555
O22 Sr3 3.257624 1_555
O23 Si3 1.625628 1_555
O23 Sr2 3.257624 1_555
O24 Si4 1.636434 1_555
O24 Sr0 2.769425 1_555
O25 Si5 1.636434 1_555
O25 Sr1 2.769425 1_554
O26 Si6 1.636434 1_555
O26 Sr2 2.769425 1_555
O27 Si7 1.636434 1_555
O27 Sr3 2.769425 1_556
O28 Si2 1.641777 1_555
O28 Sr0 2.804956 1_555
O29 Si3 1.641777 1_555
O29 Sr1 2.804956 1_554
O30 Si0 1.641777 1_555
O30 Sr2 2.804956 1_555
O31 Si1 1.641777 1_555
O31 Sr3 2.804956 1_556
