# generated using pymatgen
data_Gd2TiZnO6
_symmetry_space_group_name_H-M   'P 1'
_cell_length_a   5.72995700
_cell_length_b   5.39904000
_cell_length_c   9.38925553
_cell_angle_alpha   55.47362008
_cell_angle_beta   90.00000000
_cell_angle_gamma   90.00000000
_symmetry_Int_Tables_number   1
_chemical_formula_structural   Gd2TiZnO6
_chemical_formula_sum   'Gd4 Ti2 Zn2 O12'
_cell_volume   239.30693685
_cell_formula_units_Z   2
loop_
 _symmetry_equiv_pos_site_id
 _symmetry_equiv_pos_as_xyz
  1  'x, y, z'
loop_
 _atom_site_type_symbol
 _atom_site_label
 _atom_site_symmetry_multiplicity
 _atom_site_fract_x
 _atom_site_fract_y
 _atom_site_fract_z
 _atom_site_occupancy
  Gd  Gd0  1  0.43104500  0.77044400  0.74764400  1
  Gd  Gd1  1  0.06895500  0.77044400  0.24764400  1
  Gd  Gd2  1  0.56895500  0.22955600  0.25235600  1
  Gd  Gd3  1  0.93104500  0.22955600  0.75235600  1
  Ti  Ti0  1  0.00000000  0.50000000  0.00000000  1
  Ti  Ti1  1  0.50000000  0.50000000  0.50000000  1
  Zn  Zn0  1  0.50000000  0.00000000  0.00000000  1
  Zn  Zn1  1  0.00000000  0.00000000  0.50000000  1
  O  O0  1  0.81662700  0.14944500  0.05362900  1
  O  O1  1  0.68337300  0.14944500  0.55362900  1
  O  O2  1  0.18337300  0.85055500  0.94637100  1
  O  O3  1  0.31662700  0.85055500  0.44637100  1
  O  O4  1  0.29234900  0.25801000  0.06148700  1
  O  O5  1  0.20765100  0.25801000  0.56148700  1
  O  O6  1  0.70765100  0.74199000  0.93851300  1
  O  O7  1  0.79234900  0.74199000  0.43851300  1
  O  O8  1  0.04140300  0.62933400  0.75789300  1
  O  O9  1  0.45859700  0.62933400  0.25789300  1
  O  O10  1  0.95859700  0.37066600  0.24210700  1
  O  O11  1  0.54140300  0.37066600  0.74210700  1
loop_
_geom_bond_atom_site_label_1
_geom_bond_atom_site_label_2
_geom_bond_distance
_geom_bond_site_symmetry_2
Gd0 O11 2.277835 1_555
Gd0 O1 2.317437 1_565
Gd0 O6 2.331359 1_555
Gd0 O8 2.343337 1_555
Gd0 O5 2.531279 1_565
Gd0 O2 2.568556 1_555
Gd0 O3 2.689182 1_555
Gd0 O4 2.779874 1_556
Gd1 O10 2.277835 1_455
Gd1 O0 2.317437 1_465
Gd1 O7 2.331359 1_455
Gd1 O9 2.343337 1_555
Gd1 O4 2.531279 1_565
Gd1 O3 2.568556 1_555
Gd1 O2 2.689182 1_554
Gd1 O5 2.779874 1_555
Gd2 O9 2.277835 1_555
Gd2 O3 2.317437 1_545
Gd2 O4 2.331359 1_555
Gd2 O10 2.343337 1_555
Gd2 O7 2.531279 1_545
Gd2 O0 2.568556 1_555
Gd2 O1 2.689182 1_555
Gd2 O6 2.779874 1_554
Gd3 O8 2.277835 1_655
Gd3 O2 2.317437 1_645
Gd3 O5 2.331359 1_655
Gd3 O11 2.343337 1_555
Gd3 O6 2.531279 1_545
Gd3 O1 2.568556 1_555
Gd3 O0 2.689182 1_556
Gd3 O7 2.779874 1_555
O0 Ti0 1.964537 1_655
O0 Zn0 2.157929 1_555
O1 Ti1 1.964537 1_555
O1 Zn1 2.157929 1_655
O2 Ti0 1.964537 1_556
O2 Zn0 2.157929 1_566
O3 Ti1 1.964537 1_555
O3 Zn1 2.157929 1_565
O4 Ti0 1.997841 1_555
O4 Zn0 2.145014 1_555
O5 Ti1 1.997841 1_555
O5 Zn1 2.145014 1_555
O6 Ti0 1.997841 1_656
O6 Zn0 2.145014 1_566
O7 Ti1 1.997841 1_555
O7 Zn1 2.145014 1_665
O8 Ti0 1.977873 1_556
O8 Zn1 2.105094 1_565
O9 Ti1 1.977873 1_555
O9 Zn0 2.105094 1_565
O10 Ti0 1.977873 1_655
O10 Zn1 2.105094 1_655
O11 Ti1 1.977873 1_555
O11 Zn0 2.105094 1_556
