# generated using pymatgen
data_Ho10Mn13C18
_symmetry_space_group_name_H-M   'P 1'
_cell_length_a   8.69607112
_cell_length_b   8.69607112
_cell_length_c   8.69607112
_cell_angle_alpha   109.47122063
_cell_angle_beta   109.47122063
_cell_angle_gamma   109.47122063
_symmetry_Int_Tables_number   1
_chemical_formula_structural   Ho10Mn13C18
_chemical_formula_sum   'Ho10 Mn13 C18'
_cell_volume   506.22939263
_cell_formula_units_Z   1
loop_
 _symmetry_equiv_pos_site_id
 _symmetry_equiv_pos_as_xyz
  1  'x, y, z'
loop_
 _atom_site_type_symbol
 _atom_site_label
 _atom_site_symmetry_multiplicity
 _atom_site_fract_x
 _atom_site_fract_y
 _atom_site_fract_z
 _atom_site_occupancy
  Ho  Ho0  1  0.50000000  0.75000000  0.25000000  1
  Ho  Ho1  1  0.75000000  0.50000000  0.25000000  1
  Ho  Ho2  1  0.25000000  0.75000000  0.50000000  1
  Ho  Ho3  1  0.25000000  0.50000000  0.75000000  1
  Ho  Ho4  1  0.50000000  0.25000000  0.75000000  1
  Ho  Ho5  1  0.75000000  0.25000000  0.50000000  1
  Ho  Ho6  1  0.40911700  0.00000000  0.00000000  1
  Ho  Ho7  1  0.00000000  0.40911700  0.00000000  1
  Ho  Ho8  1  0.00000000  0.00000000  0.40911700  1
  Ho  Ho9  1  0.59088300  0.59088300  0.59088300  1
  Mn  Mn0  1  0.00000000  0.00000000  0.00000000  1
  Mn  Mn1  1  0.66604500  0.82004700  0.00000000  1
  Mn  Mn2  1  0.84599900  0.17995300  0.17995300  1
  Mn  Mn3  1  0.66604500  0.00000000  0.82004700  1
  Mn  Mn4  1  0.82004700  0.66604500  0.00000000  1
  Mn  Mn5  1  0.00000000  0.66604500  0.82004700  1
  Mn  Mn6  1  0.17995300  0.84599900  0.17995300  1
  Mn  Mn7  1  0.17995300  0.17995300  0.84599900  1
  Mn  Mn8  1  0.00000000  0.82004700  0.66604500  1
  Mn  Mn9  1  0.82004700  0.00000000  0.66604500  1
  Mn  Mn10  1  0.33395500  0.33395500  0.15400100  1
  Mn  Mn11  1  0.15400100  0.33395500  0.33395500  1
  Mn  Mn12  1  0.33395500  0.15400100  0.33395500  1
  C  C0  1  0.70351100  0.21977100  0.00000000  1
  C  C1  1  0.48373900  0.78022900  0.78022900  1
  C  C2  1  0.70351100  0.00000000  0.21977100  1
  C  C3  1  0.21977100  0.70351100  0.00000000  1
  C  C4  1  0.00000000  0.70351100  0.21977100  1
  C  C5  1  0.78022900  0.48373900  0.78022900  1
  C  C6  1  0.78022900  0.78022900  0.48373900  1
  C  C7  1  0.00000000  0.21977100  0.70351100  1
  C  C8  1  0.21977100  0.00000000  0.70351100  1
  C  C9  1  0.29648900  0.29648900  0.51626100  1
  C  C10  1  0.51626100  0.29648900  0.29648900  1
  C  C11  1  0.29648900  0.51626100  0.29648900  1
  C  C12  1  0.56873400  0.56873400  0.00000000  1
  C  C13  1  0.00000000  0.43126600  0.43126600  1
  C  C14  1  0.56873400  0.00000000  0.56873400  1
  C  C15  1  0.00000000  0.56873400  0.56873400  1
  C  C16  1  0.43126600  0.00000000  0.43126600  1
  C  C17  1  0.43126600  0.43126600  0.00000000  1
loop_
_geom_bond_atom_site_label_1
_geom_bond_atom_site_label_2
_geom_bond_distance
_geom_bond_site_symmetry_2
Ho6 Mn0 3.557711 1_555
Ho7 Mn0 3.557711 1_555
Ho8 Mn0 3.557711 1_555
Ho9 Mn0 3.557711 1_666
Mn0 Mn7 2.802299 1_554
Mn0 Mn2 2.802299 1_455
Mn0 Mn6 2.802299 1_545
Mn0 Mn3 2.802307 1_454
Mn0 Mn5 2.802307 1_544
Mn0 Mn4 2.802307 1_445
Mn0 Mn9 2.802307 1_454
Mn0 Mn8 2.802307 1_544
Mn0 Mn1 2.802307 1_445
Mn0 Mn10 2.802308 1_555
Mn0 Mn11 2.802308 1_555
Mn0 Mn12 2.802308 1_555
C0 Mn3 1.859748 1_554
C0 Mn2 1.859752 1_555
C0 Ho1 2.460412 1_555
C0 Ho4 2.460412 1_554
C0 Ho7 2.555101 1_655
C0 Ho6 2.635272 1_555
C1 Mn1 1.859752 1_556
C1 Mn3 1.859752 1_565
C1 Ho3 2.460408 1_555
C1 Ho2 2.460408 1_555
C1 Ho9 2.555108 1_555
C1 Ho6 2.635266 1_566
C2 Mn1 1.859748 1_545
C2 Mn2 1.859752 1_555
C2 Ho0 2.460412 1_545
C2 Ho5 2.460412 1_555
C2 Ho8 2.555101 1_655
C2 Ho6 2.635272 1_555
C3 Mn5 1.859748 1_554
C3 Mn6 1.859752 1_555
C3 Ho3 2.460412 1_554
C3 Ho0 2.460412 1_555
C3 Ho6 2.555101 1_565
C3 Ho7 2.635272 1_555
C4 Mn4 1.859748 1_455
C4 Mn6 1.859752 1_555
C4 Ho2 2.460412 1_555
C4 Ho1 2.460412 1_455
C4 Ho8 2.555101 1_565
C4 Ho7 2.635272 1_555
C5 Mn4 1.859752 1_556
C5 Mn5 1.859752 1_655
C5 Ho4 2.460408 1_555
C5 Ho5 2.460408 1_555
C5 Ho9 2.555108 1_555
C5 Ho7 2.635266 1_656
C6 Mn8 1.859752 1_655
C6 Mn9 1.859752 1_565
C6 Ho0 2.460408 1_555
C6 Ho1 2.460408 1_555
C6 Ho9 2.555108 1_555
C6 Ho8 2.635266 1_665
C7 Mn9 1.859748 1_455
C7 Mn7 1.859752 1_555
C7 Ho3 2.460412 1_555
C7 Ho5 2.460412 1_455
C7 Ho7 2.555101 1_556
C7 Ho8 2.635272 1_555
C8 Mn8 1.859748 1_545
C8 Mn7 1.859752 1_555
C8 Ho2 2.460412 1_545
C8 Ho4 2.460412 1_555
C8 Ho6 2.555101 1_556
C8 Ho8 2.635272 1_555
C9 Mn11 1.859758 1_555
C9 Mn12 1.859758 1_555
C9 Ho3 2.460406 1_555
C9 Ho4 2.460406 1_555
C9 Ho8 2.555098 1_555
C9 Ho9 2.635276 1_555
C10 Mn10 1.859758 1_555
C10 Mn12 1.859758 1_555
C10 Ho1 2.460406 1_555
C10 Ho5 2.460406 1_555
C10 Ho6 2.555098 1_555
C10 Ho9 2.635276 1_555
C11 Mn10 1.859758 1_555
C11 Mn11 1.859758 1_555
C11 Ho0 2.460406 1_555
C11 Ho2 2.460406 1_555
C11 Ho7 2.555098 1_555
C11 Ho9 2.635276 1_555
C12 C17 1.380365 1_555
C12 Mn4 2.063810 1_555
C12 Mn1 2.063810 1_555
C12 Ho1 2.603489 1_555
C12 Ho4 2.603489 1_554
C12 Ho3 2.603489 1_554
C12 Ho0 2.603489 1_555
C13 C15 1.380365 1_555
C13 Mn11 2.063802 1_555
C13 Mn2 2.063811 1_455
C13 Ho2 2.603489 1_555
C13 Ho3 2.603489 1_555
C13 Ho1 2.603489 1_455
C13 Ho5 2.603489 1_455
C14 C16 1.380365 1_555
C14 Mn3 2.063810 1_555
C14 Mn9 2.063810 1_555
C14 Ho4 2.603489 1_555
C14 Ho2 2.603489 1_545
C14 Ho5 2.603489 1_555
C14 Ho0 2.603489 1_545
C15 Mn8 2.063810 1_555
C15 Mn5 2.063810 1_555
C15 Ho2 2.603489 1_555
C15 Ho3 2.603489 1_555
C15 Ho1 2.603489 1_455
C15 Ho5 2.603489 1_455
C16 Mn12 2.063802 1_555
C16 Mn6 2.063811 1_545
C16 Ho5 2.603489 1_555
C16 Ho4 2.603489 1_555
C16 Ho2 2.603489 1_545
C16 Ho0 2.603489 1_545
C17 Mn10 2.063802 1_555
C17 Mn7 2.063811 1_554
C17 Ho1 2.603489 1_555
C17 Ho4 2.603489 1_554
C17 Ho3 2.603489 1_554
C17 Ho0 2.603489 1_555
