# generated using pymatgen
data_HfSiRu
_symmetry_space_group_name_H-M   'P 1'
_cell_length_a   6.63937753
_cell_length_b   7.32841866
_cell_length_c   7.55629745
_cell_angle_alpha   119.00730973
_cell_angle_beta   116.06097237
_cell_angle_gamma   90.00000000
_symmetry_Int_Tables_number   1
_chemical_formula_structural   HfSiRu
_chemical_formula_sum   'Hf6 Si6 Ru6'
_cell_volume   278.02576622
_cell_formula_units_Z   6
loop_
 _symmetry_equiv_pos_site_id
 _symmetry_equiv_pos_as_xyz
  1  'x, y, z'
loop_
 _atom_site_type_symbol
 _atom_site_label
 _atom_site_symmetry_multiplicity
 _atom_site_fract_x
 _atom_site_fract_y
 _atom_site_fract_z
 _atom_site_occupancy
  Hf  Hf0  1  0.24186004  0.47003816  0.44007533  1
  Hf  Hf1  1  0.80178471  0.52996184  0.55992467  1
  Hf  Hf2  1  0.66242031  0.74694915  0.99389831  1
  Hf  Hf3  1  0.66852100  0.25305085  0.00610169  1
  Hf  Hf4  1  0.84887303  0.05303646  0.60607391  1
  Hf  Hf5  1  0.24279912  0.94696354  0.39392609  1
  Si  Si0  1  0.27985341  0.27453703  0.04907206  1
  Si  Si1  1  0.23078035  0.72546297  0.95092794  1
  Si  Si2  1  0.57728954  0.83836483  0.66491226  1
  Si  Si3  1  0.91237728  0.16163517  0.33508774  1
  Si  Si4  1  0.91237728  0.67345357  0.33508774  1
  Si  Si5  1  0.57728954  0.32654643  0.66491226  1
  Ru  Ru0  1  0.00047299  -0.00000000  -0.00000000  1
  Ru  Ru1  1  0.00047299  0.50000000  -0.00000000  1
  Ru  Ru2  1  0.49475252  0.65110098  0.24789185  1
  Ru  Ru3  1  0.24686067  0.34889902  0.75210815  1
  Ru  Ru4  1  0.24686067  0.90320813  0.75210815  1
  Ru  Ru5  1  0.49475252  0.09679187  0.24789185  1
loop_
_geom_bond_atom_site_label_1
_geom_bond_atom_site_label_2
_geom_bond_distance
_geom_bond_site_symmetry_2
Hf0 Si4 2.694272 1_455
Hf0 Si3 2.694272 1_455
Hf0 Si2 2.712937 1_555
Hf0 Si5 2.712947 1_555
Hf0 Si0 2.719392 1_555
Hf0 Ru4 2.882655 1_555
Hf0 Ru3 2.882665 1_555
Hf0 Ru1 3.114492 1_555
Hf0 Ru0 3.114496 1_555
Hf1 Si5 2.694272 1_555
Hf1 Si2 2.694272 1_555
Hf1 Si3 2.712937 1_555
Hf1 Si4 2.712947 1_555
Hf1 Si1 2.719388 1_655
Hf1 Ru5 2.882655 1_555
Hf1 Ru2 2.882665 1_555
Hf1 Ru1 3.114492 1_656
Hf1 Ru0 3.114496 1_666
Hf2 Si4 2.697837 1_556
Hf2 Si3 2.697842 1_566
Hf2 Si2 2.707148 1_555
Hf2 Si5 2.707153 1_555
Hf2 Si1 2.734220 1_555
Hf2 Ru1 2.881823 1_656
Hf2 Ru0 2.881823 1_666
Hf2 Ru2 2.932725 1_556
Hf2 Ru5 2.932729 1_566
Hf2 Ru4 3.140331 1_555
Hf2 Ru3 3.140336 1_555
Hf3 Si5 2.697839 1_554
Hf3 Si2 2.697844 1_544
Hf3 Si3 2.707150 1_555
Hf3 Si4 2.707155 1_555
Hf3 Si0 2.734206 1_555
Hf3 Ru1 2.881828 1_655
Hf3 Ru0 2.881828 1_655
Hf3 Ru3 2.932720 1_554
Hf3 Ru4 2.932725 1_544
Hf3 Ru5 3.140327 1_555
Hf3 Ru2 3.140332 1_555
Hf4 Si5 2.703095 1_555
Hf4 Si2 2.703095 1_545
Hf4 Si4 2.709809 1_545
Hf4 Si3 2.709818 1_555
Hf4 Ru4 2.831711 1_645
Hf4 Ru3 2.831712 1_655
Hf4 Ru2 2.864678 1_545
Hf4 Ru5 2.864686 1_555
Hf4 Si0 2.888260 1_656
Hf4 Ru0 2.917875 1_656
Hf4 Ru1 2.917880 1_656
Hf5 Si4 2.703095 1_455
Hf5 Si3 2.703095 1_465
Hf5 Si5 2.709809 1_565
Hf5 Si2 2.709818 1_555
Hf5 Ru5 2.831711 1_565
Hf5 Ru2 2.831711 1_555
Hf5 Ru3 2.864677 1_565
Hf5 Ru4 2.864686 1_555
Hf5 Si1 2.888256 1_554
Hf5 Ru0 2.917875 1_565
Hf5 Ru1 2.917880 1_555
Ru0 Si1 2.509607 1_544
Ru0 Si0 2.509612 1_555
Ru0 Si3 2.559067 1_455
Ru0 Si2 2.559067 1_444
Ru0 Ru4 2.844579 1_544
Ru0 Ru5 2.844579 1_555
Ru1 Si1 2.509597 1_554
Ru1 Si0 2.509601 1_555
Ru1 Si4 2.559067 1_455
Ru1 Si5 2.559067 1_454
Ru1 Ru3 2.844579 1_554
Ru1 Ru2 2.844580 1_555
Ru2 Si0 2.450303 1_555
Ru2 Si1 2.476762 1_554
Ru2 Si2 2.530210 1_555
Ru2 Si4 2.537577 1_555
Ru3 Si1 2.450305 1_555
Ru3 Si0 2.476760 1_556
Ru3 Si3 2.530210 1_455
Ru3 Si5 2.537576 1_555
Ru4 Si1 2.450311 1_555
Ru4 Si0 2.476775 1_566
Ru4 Si4 2.530210 1_455
Ru4 Si2 2.537576 1_555
Ru5 Si0 2.450309 1_555
Ru5 Si1 2.476777 1_544
Ru5 Si5 2.530209 1_555
Ru5 Si3 2.537577 1_555
