# generated using pymatgen
data_Dy2CdCu2
_symmetry_space_group_name_H-M   'P 1'
_cell_length_a   7.44706251
_cell_length_b   7.44706251
_cell_length_c   3.72293662
_cell_angle_alpha   90.00000000
_cell_angle_beta   90.00000000
_cell_angle_gamma   89.99989136
_symmetry_Int_Tables_number   1
_chemical_formula_structural   Dy2CdCu2
_chemical_formula_sum   'Dy4 Cd2 Cu4'
_cell_volume   206.46937415
_cell_formula_units_Z   2
loop_
 _symmetry_equiv_pos_site_id
 _symmetry_equiv_pos_as_xyz
  1  'x, y, z'
loop_
 _atom_site_type_symbol
 _atom_site_label
 _atom_site_symmetry_multiplicity
 _atom_site_fract_x
 _atom_site_fract_y
 _atom_site_fract_z
 _atom_site_occupancy
  Dy  Dy0  1  0.67481232  0.17481232  0.50000000  1
  Dy  Dy1  1  0.32518768  0.82518768  0.50000000  1
  Dy  Dy2  1  0.17478773  0.32521227  0.50000000  1
  Dy  Dy3  1  0.82521227  0.67478773  0.50000000  1
  Cd  Cd0  1  -0.00000000  -0.00000000  -0.00000000  1
  Cd  Cd1  1  0.50000000  0.50000000  -0.00000000  1
  Cu  Cu0  1  0.12008255  0.62008255  0.00000000  1
  Cu  Cu1  1  0.87991745  0.37991745  0.00000000  1
  Cu  Cu2  1  0.62012242  0.87987758  -0.00000000  1
  Cu  Cu3  1  0.37987758  0.12012242  -0.00000000  1
loop_
_geom_bond_atom_site_label_1
_geom_bond_atom_site_label_2
_geom_bond_distance
_geom_bond_site_symmetry_2
Cd0 Cu3 2.967040 1_555
Cd0 Cu2 2.967040 1_445
Cd0 Cu1 2.967231 1_455
Cd0 Cu0 2.967231 1_545
Cd0 Dy0 3.320306 1_455
Cd0 Dy0 3.320306 1_454
Cd0 Dy1 3.320306 1_544
Cd0 Dy1 3.320306 1_545
Cd0 Dy3 3.320371 1_444
Cd0 Dy3 3.320371 1_445
Cd0 Dy2 3.320371 1_554
Cd0 Dy2 3.320371 1_555
Cd1 Cu3 2.967040 1_555
Cd1 Cu2 2.967040 1_555
Cd1 Cu1 2.967231 1_555
Cd1 Cu0 2.967231 1_555
Cd1 Dy0 3.320306 1_554
Cd1 Dy1 3.320306 1_554
Cd1 Dy1 3.320306 1_555
Cd1 Dy0 3.320306 1_555
Cd1 Dy2 3.320371 1_555
Cd1 Dy3 3.320371 1_555
Cd1 Dy2 3.320371 1_554
Cd1 Dy3 3.320371 1_554
Cu0 Cu1 2.529358 1_455
Cu0 Dy1 2.851519 1_555
Cu0 Dy1 2.851519 1_554
Cu0 Dy2 2.907419 1_554
Cu0 Dy2 2.907419 1_555
Cu0 Dy3 2.907419 1_454
Cu0 Dy3 2.907419 1_455
Cu1 Dy0 2.851519 1_554
Cu1 Dy0 2.851519 1_555
Cu1 Dy2 2.907419 1_655
Cu1 Dy3 2.907419 1_555
Cu1 Dy2 2.907419 1_654
Cu1 Dy3 2.907419 1_554
Cu2 Cu3 2.530193 1_565
Cu2 Dy3 2.851394 1_555
Cu2 Dy3 2.851394 1_554
Cu2 Dy0 2.907766 1_564
Cu2 Dy0 2.907766 1_565
Cu2 Dy1 2.907766 1_555
Cu2 Dy1 2.907766 1_554
Cu3 Dy2 2.851394 1_555
Cu3 Dy2 2.851394 1_554
Cu3 Dy0 2.907766 1_555
Cu3 Dy1 2.907766 1_544
Cu3 Dy1 2.907766 1_545
Cu3 Dy0 2.907766 1_554
