# generated using pymatgen
data_ErTiCo11
_symmetry_space_group_name_H-M   'P 1'
_cell_length_a   4.68418100
_cell_length_b   6.33059359
_cell_length_c   6.33059359
_cell_angle_alpha   97.57840114
_cell_angle_beta   111.71339001
_cell_angle_gamma   68.28660999
_symmetry_Int_Tables_number   1
_chemical_formula_structural   ErTiCo11
_chemical_formula_sum   'Er1 Ti1 Co11'
_cell_volume   162.02791331
_cell_formula_units_Z   1
loop_
 _symmetry_equiv_pos_site_id
 _symmetry_equiv_pos_as_xyz
  1  'x, y, z'
loop_
 _atom_site_type_symbol
 _atom_site_label
 _atom_site_symmetry_multiplicity
 _atom_site_fract_x
 _atom_site_fract_y
 _atom_site_fract_z
 _atom_site_occupancy
  Er  Er0  1  0.00720700  0.99279300  0.00720700  1
  Ti  Ti0  1  0.63119600  0.36880400  0.63119600  1
  Co  Co0  1  0.49981500  0.99557600  0.49939700  1
  Co  Co1  1  0.00400600  0.99557600  0.49939700  1
  Co  Co2  1  0.49981500  0.50060300  0.00442400  1
  Co  Co3  1  0.00400600  0.50060300  0.00442400  1
  Co  Co4  1  0.72453900  0.77546100  0.22453900  1
  Co  Co5  1  0.28136600  0.21863400  0.78136600  1
  Co  Co6  1  0.49887200  0.78321200  0.78095500  1
  Co  Co7  1  0.49887200  0.21904500  0.21678800  1
  Co  Co8  1  0.35317900  0.64682100  0.35317900  1
  Co  Co9  1  0.99856300  0.35984200  0.35696800  1
  Co  Co10  1  0.99856300  0.64303200  0.64015800  1
loop_
_geom_bond_atom_site_label_1
_geom_bond_atom_site_label_2
_geom_bond_distance
_geom_bond_site_symmetry_2
Er0 Ti0 3.118445 1_464
Co0 Co1 2.322459 1_555
Co0 Co1 2.361722 1_655
Co0 Co6 2.372074 1_555
Co0 Co4 2.389108 1_555
Co0 Co5 2.417622 1_565
Co0 Co7 2.420601 1_565
Co0 Co8 2.513107 1_555
Co0 Co10 2.521742 1_555
Co0 Co9 2.572798 1_465
Co0 Ti0 2.614094 1_565
Co0 Er0 3.119131 1_555
Co0 Er0 3.211566 1_656
Co1 Co6 2.372076 1_555
Co1 Co4 2.389108 1_455
Co1 Co5 2.417622 1_565
Co1 Co7 2.420598 1_465
Co1 Co8 2.513107 1_555
Co1 Co10 2.521742 1_455
Co1 Co9 2.572798 1_465
Co1 Ti0 2.614094 1_465
Co1 Er0 3.119131 1_555
Co1 Er0 3.211566 1_556
Co2 Co3 2.322459 1_555
Co2 Co3 2.361722 1_655
Co2 Co7 2.372074 1_555
Co2 Co4 2.389108 1_555
Co2 Co5 2.417622 1_554
Co2 Co6 2.420601 1_554
Co2 Co8 2.513107 1_555
Co2 Co9 2.521742 1_555
Co2 Ti0 2.614094 1_554
Co2 Er0 3.119131 1_555
Co2 Er0 3.211566 1_645
Co3 Co7 2.372076 1_555
Co3 Co4 2.389108 1_455
Co3 Co5 2.417622 1_554
Co3 Co6 2.420598 1_454
Co3 Co8 2.513107 1_555
Co3 Co9 2.521742 1_455
Co3 Ti0 2.614094 1_454
Co3 Er0 3.119131 1_555
Co3 Er0 3.211566 1_545
Co4 Co9 2.561220 1_555
Co4 Co8 2.573637 1_655
Co4 Co8 2.573638 1_555
Co4 Co7 2.609036 1_565
Co4 Co6 2.609036 1_554
Co4 Er0 2.955365 1_555
Co4 Er0 2.955365 1_655
Co5 Co7 2.560912 1_556
Co5 Co6 2.560912 1_545
Co5 Co9 2.626039 1_455
Co5 Ti0 2.652639 1_455
Co5 Ti0 2.652639 1_555
Co5 Er0 2.998926 1_646
Co5 Er0 2.998926 1_546
Co6 Ti0 2.596359 1_555
Co6 Co8 2.645129 1_555
Co6 Er0 2.965542 1_656
Co6 Er0 2.965546 1_556
Co7 Ti0 2.596359 1_555
Co7 Co9 2.618917 1_555
Co7 Co9 2.618921 1_455
Co7 Co8 2.645129 1_555
Co7 Er0 2.965542 1_645
Co7 Er0 2.965546 1_545
Co8 Ti0 2.305732 1_555
Co8 Er0 2.869317 1_555
Co8 Co9 2.886912 1_555
Co8 Co9 2.886912 1_455
Co9 Ti0 2.844368 1_655
Co9 Ti0 2.844368 1_555
Co9 Er0 2.990526 1_645
Co10 Co9 2.362254 1_555
Co10 Co4 2.561220 1_555
Co10 Co2 2.572798 1_656
Co10 Co3 2.572798 1_656
Co10 Co6 2.618917 1_555
Co10 Co6 2.618921 1_655
Co10 Co5 2.626039 1_655
Co10 Ti0 2.844368 1_655
Co10 Ti0 2.844368 1_555
Co10 Co8 2.886912 1_555
Co10 Co8 2.886912 1_655
Co10 Er0 2.990526 1_656
