# generated using pymatgen
data_MgWO4
_symmetry_space_group_name_H-M   'P 1'
_cell_length_a   5.68974464
_cell_length_b   4.68506124
_cell_length_c   4.93855669
_cell_angle_alpha   89.45081384
_cell_angle_beta   90.00000000
_cell_angle_gamma   90.00000000
_symmetry_Int_Tables_number   1
_chemical_formula_structural   MgWO4
_chemical_formula_sum   'Mg2 W2 O8'
_cell_volume   131.64008058
_cell_formula_units_Z   2
loop_
 _symmetry_equiv_pos_site_id
 _symmetry_equiv_pos_as_xyz
  1  'x, y, z'
loop_
 _atom_site_type_symbol
 _atom_site_label
 _atom_site_symmetry_multiplicity
 _atom_site_fract_x
 _atom_site_fract_y
 _atom_site_fract_z
 _atom_site_occupancy
  Mg  Mg0  1  0.33070114  0.50000000  0.75000000  1
  Mg  Mg1  1  0.66929886  0.50000000  0.25000000  1
  W  W0  1  0.81884885  -0.00000000  0.75000000  1
  W  W1  1  0.18115115  -0.00000000  0.25000000  1
  O  O0  1  0.37732671  0.25793005  0.09950804  1
  O  O1  1  0.37732671  0.74206995  0.40049196  1
  O  O2  1  0.62267329  0.74206995  0.90049196  1
  O  O3  1  0.62267329  0.25793005  0.59950804  1
  O  O4  1  0.89210823  0.21636919  0.06516934  1
  O  O5  1  0.89210823  0.78363081  0.43483066  1
  O  O6  1  0.10789177  0.78363081  0.93483066  1
  O  O7  1  0.10789177  0.21636919  0.56516934  1
loop_
_geom_bond_atom_site_label_1
_geom_bond_atom_site_label_2
_geom_bond_distance
_geom_bond_site_symmetry_2
Mg0 O7 2.056543 1_555
Mg0 O6 2.056543 1_555
Mg0 O0 2.073250 1_556
Mg0 O1 2.073250 1_555
Mg0 O3 2.148133 1_555
Mg0 O2 2.148133 1_555
Mg1 O5 2.056543 1_555
Mg1 O4 2.056543 1_555
Mg1 O2 2.073250 1_554
Mg1 O3 2.073250 1_555
Mg1 O0 2.148133 1_555
Mg1 O1 2.148133 1_555
O0 W1 1.800361 1_555
O1 W1 1.800361 1_565
O2 W0 1.800361 1_565
O3 W0 1.800361 1_555
O4 W0 1.911601 1_554
O4 W1 2.132533 1_655
O5 W0 1.911601 1_565
O5 W1 2.132533 1_665
O6 W1 1.911601 1_566
O6 W0 2.132533 1_465
O7 W1 1.911601 1_555
O7 W0 2.132533 1_455
