# generated using pymatgen
data_La3CoW(SO2)3
_symmetry_space_group_name_H-M   'P 1'
_cell_length_a   9.44330746
_cell_length_b   9.44330746
_cell_length_c   5.57883400
_cell_angle_alpha   90.00000000
_cell_angle_beta   90.00000000
_cell_angle_gamma   119.99999622
_symmetry_Int_Tables_number   1
_chemical_formula_structural   La3CoW(SO2)3
_chemical_formula_sum   'La6 Co2 W2 S6 O12'
_cell_volume   430.84627954
_cell_formula_units_Z   2
loop_
 _symmetry_equiv_pos_site_id
 _symmetry_equiv_pos_as_xyz
  1  'x, y, z'
loop_
 _atom_site_type_symbol
 _atom_site_label
 _atom_site_symmetry_multiplicity
 _atom_site_fract_x
 _atom_site_fract_y
 _atom_site_fract_z
 _atom_site_occupancy
  La  La0  1  0.09015100  0.68537800  0.25000000  1
  La  La1  1  0.59522700  0.90984900  0.25000000  1
  La  La2  1  0.31462200  0.40477300  0.25000000  1
  La  La3  1  0.90984900  0.31462200  0.75000000  1
  La  La4  1  0.40477300  0.09015100  0.75000000  1
  La  La5  1  0.68537800  0.59522700  0.75000000  1
  Co  Co0  1  0.00000000  0.00000000  0.00000000  1
  Co  Co1  1  0.00000000  0.00000000  0.50000000  1
  W  W0  1  0.33333300  0.66666700  0.75000000  1
  W  W1  1  0.66666700  0.33333300  0.25000000  1
  S  S0  1  0.16744000  0.21210000  0.75000000  1
  S  S1  1  0.04466000  0.83256000  0.75000000  1
  S  S2  1  0.78790000  0.95534000  0.75000000  1
  S  S3  1  0.83256000  0.78790000  0.25000000  1
  S  S4  1  0.95534000  0.16744000  0.25000000  1
  S  S5  1  0.21210000  0.04466000  0.25000000  1
  O  O0  1  0.16055400  0.52446600  0.97710500  1
  O  O1  1  0.36391300  0.83944600  0.97710500  1
  O  O2  1  0.47553400  0.63608700  0.97710500  1
  O  O3  1  0.83944600  0.47553400  0.47710500  1
  O  O4  1  0.63608700  0.16055400  0.47710500  1
  O  O5  1  0.52446600  0.36391300  0.47710500  1
  O  O6  1  0.83944600  0.47553400  0.02289500  1
  O  O7  1  0.63608700  0.16055400  0.02289500  1
  O  O8  1  0.52446600  0.36391300  0.02289500  1
  O  O9  1  0.16055400  0.52446600  0.52289500  1
  O  O10  1  0.36391300  0.83944600  0.52289500  1
  O  O11  1  0.47553400  0.63608700  0.52289500  1
loop_
_geom_bond_atom_site_label_1
_geom_bond_atom_site_label_2
_geom_bond_distance
_geom_bond_site_symmetry_2
La0 O9 2.465578 1_555
La0 O0 2.465578 1_554
La0 O6 2.538817 1_455
La0 O3 2.538817 1_455
La0 O1 2.712318 1_554
La0 O10 2.712318 1_555
La0 S5 2.988341 1_565
La0 S3 3.034707 1_455
La0 S1 3.239482 1_555
La0 S1 3.239482 1_554
La1 O10 2.465571 1_555
La1 O1 2.465571 1_554
La1 O7 2.538819 1_565
La1 O4 2.538819 1_565
La1 O11 2.712319 1_555
La1 O2 2.712319 1_554
La1 S3 2.988341 1_555
La1 S4 3.034707 1_565
La1 S2 3.239482 1_555
La1 S2 3.239482 1_554
La2 O11 2.465572 1_555
La2 O2 2.465572 1_554
La2 O8 2.538811 1_555
La2 O5 2.538811 1_555
La2 O0 2.712312 1_554
La2 O9 2.712312 1_555
La2 S4 2.988341 1_455
La2 S5 3.034707 1_555
La2 S0 3.239482 1_555
La2 S0 3.239482 1_554
La3 O3 2.465578 1_555
La3 O6 2.465578 1_556
La3 O0 2.538817 1_655
La3 O9 2.538817 1_655
La3 O4 2.712318 1_555
La3 O7 2.712318 1_556
La3 S2 2.988341 1_545
La3 S0 3.034707 1_655
La3 S4 3.239482 1_555
La3 S4 3.239482 1_556
La4 O4 2.465571 1_555
La4 O7 2.465571 1_556
La4 O10 2.538819 1_545
La4 O1 2.538819 1_545
La4 O8 2.712319 1_556
La4 O5 2.712319 1_555
La4 S0 2.988341 1_555
La4 S1 3.034707 1_545
La4 S5 3.239482 1_556
La4 S5 3.239482 1_555
La5 O5 2.465572 1_555
La5 O8 2.465572 1_556
La5 O2 2.538811 1_555
La5 O11 2.538811 1_555
La5 O6 2.712312 1_556
La5 O3 2.712312 1_555
La5 S1 2.988341 1_655
La5 S2 3.034707 1_555
La5 S3 3.239482 1_555
La5 S3 3.239482 1_556
Co0 S4 2.300016 1_455
Co0 S1 2.300016 1_544
Co0 S2 2.300016 1_444
Co0 S5 2.300016 1_555
Co0 S3 2.300016 1_445
Co0 S0 2.300016 1_554
Co1 S4 2.300016 1_455
Co1 S1 2.300016 1_545
Co1 S2 2.300016 1_445
Co1 S5 2.300016 1_555
Co1 S3 2.300016 1_445
Co1 S0 2.300016 1_555
O0 W0 1.969675 1_555
O1 W0 1.969670 1_555
O2 W0 1.969684 1_555
O3 W1 1.969675 1_555
O4 W1 1.969670 1_555
O5 W1 1.969684 1_555
O6 W1 1.969675 1_555
O7 W1 1.969670 1_555
O8 W1 1.969684 1_555
O9 W0 1.969675 1_555
O10 W0 1.969670 1_555
O11 W0 1.969684 1_555
