# generated using pymatgen
data_Yb(AlFe)6
_symmetry_space_group_name_H-M   'P 1'
_cell_length_a   4.94786508
_cell_length_b   6.53826910
_cell_length_c   6.53826910
_cell_angle_alpha   98.49329881
_cell_angle_beta   112.23319971
_cell_angle_gamma   67.76680029
_symmetry_Int_Tables_number   1
_chemical_formula_structural   Yb(AlFe)6
_chemical_formula_sum   'Yb1 Al6 Fe6'
_cell_volume   181.23095819
_cell_formula_units_Z   1
loop_
 _symmetry_equiv_pos_site_id
 _symmetry_equiv_pos_as_xyz
  1  'x, y, z'
loop_
 _atom_site_type_symbol
 _atom_site_label
 _atom_site_symmetry_multiplicity
 _atom_site_fract_x
 _atom_site_fract_y
 _atom_site_fract_z
 _atom_site_occupancy
  Yb  Yb0  1  0.00000000  0.00000000  0.00000000  1
  Al  Al0  1  0.65350177  0.34649823  0.65350177  1
  Al  Al1  1  0.34649823  0.65350177  0.34649823  1
  Al  Al2  1  0.00000000  0.33705339  0.33705339  1
  Al  Al3  1  0.00000000  0.66294661  0.66294661  1
  Al  Al4  1  0.69176971  0.80823029  0.19176971  1
  Al  Al5  1  0.30823029  0.19176971  0.80823029  1
  Fe  Fe0  1  0.50000000  0.00000000  0.50000000  1
  Fe  Fe1  1  0.00000000  0.00000000  0.50000000  1
  Fe  Fe2  1  0.50000000  0.50000000  0.00000000  1
  Fe  Fe3  1  0.00000000  0.50000000  0.00000000  1
  Fe  Fe4  1  0.50000000  0.76046266  0.76046266  1
  Fe  Fe5  1  0.50000000  0.23953734  0.23953734  1
loop_
_geom_bond_atom_site_label_1
_geom_bond_atom_site_label_2
_geom_bond_distance
_geom_bond_site_symmetry_2
Al0 Fe5 2.584347 1_555
Al0 Fe4 2.584347 1_555
Al0 Fe0 2.601971 1_555
Al0 Fe2 2.601971 1_556
Al0 Fe1 2.601971 1_655
Al0 Fe3 2.601971 1_656
Al0 Al1 2.634585 1_555
Al0 Al5 2.807748 1_555
Al0 Al5 2.807748 1_655
Al0 Yb0 2.973514 1_656
Al1 Fe5 2.584347 1_555
Al1 Fe4 2.584347 1_555
Al1 Fe2 2.601971 1_555
Al1 Fe0 2.601971 1_565
Al1 Fe3 2.601971 1_555
Al1 Fe1 2.601971 1_565
Al1 Al4 2.807748 1_555
Al1 Al4 2.807748 1_455
Al1 Yb0 2.973514 1_565
Al2 Fe3 2.585551 1_555
Al2 Fe1 2.585551 1_555
Al2 Fe2 2.585551 1_455
Al2 Fe0 2.585551 1_555
Al2 Fe5 2.610229 1_555
Al2 Fe5 2.610229 1_455
Al2 Al3 2.781960 1_555
Al2 Yb0 2.877228 1_555
Al2 Al5 2.988553 1_555
Al2 Al4 2.988553 1_455
Al3 Fe1 2.585551 1_565
Al3 Fe3 2.585551 1_556
Al3 Fe0 2.585551 1_465
Al3 Fe2 2.585551 1_556
Al3 Fe4 2.610229 1_455
Al3 Fe4 2.610229 1_555
Al3 Yb0 2.877228 1_566
Al3 Al4 2.988553 1_455
Al3 Al5 2.988553 1_555
Al4 Fe2 2.516783 1_555
Al4 Fe0 2.516783 1_565
Al4 Fe3 2.516783 1_655
Al4 Fe1 2.516783 1_665
Al4 Fe5 2.624781 1_565
Al4 Fe4 2.624781 1_554
Al4 Yb0 2.971304 1_665
Al4 Yb0 2.971304 1_565
Al5 Fe0 2.516783 1_555
Al5 Fe2 2.516783 1_556
Al5 Fe1 2.516783 1_555
Al5 Fe3 2.516783 1_556
Al5 Fe5 2.624781 1_556
Al5 Fe4 2.624781 1_545
Al5 Yb0 2.971304 1_556
Al5 Yb0 2.971304 1_656
Fe0 Fe1 2.473933 1_555
Fe0 Fe1 2.473933 1_655
Fe0 Fe4 2.478067 1_545
Fe0 Fe5 2.478067 1_555
Fe0 Yb0 3.269135 1_656
Fe0 Yb0 3.269135 1_555
Fe1 Fe5 2.478067 1_455
Fe1 Fe4 2.478067 1_545
Fe1 Yb0 3.269135 1_555
Fe1 Yb0 3.269135 1_556
Fe2 Fe3 2.473933 1_655
Fe2 Fe3 2.473933 1_555
Fe2 Fe4 2.478067 1_554
Fe2 Fe5 2.478067 1_555
Fe2 Yb0 3.269135 1_655
Fe2 Yb0 3.269135 1_565
Fe3 Fe4 2.478067 1_454
Fe3 Fe5 2.478067 1_555
Fe3 Yb0 3.269135 1_565
Fe3 Yb0 3.269135 1_555
Fe4 Yb0 3.209597 1_566
Fe4 Yb0 3.209597 1_666
Fe5 Yb0 3.209597 1_555
Fe5 Yb0 3.209597 1_655
