# generated using pymatgen
data_PrAsPd
_symmetry_space_group_name_H-M   'P 1'
_cell_length_a   4.37598086
_cell_length_b   4.37598086
_cell_length_c   7.91428375
_cell_angle_alpha   90.00000000
_cell_angle_beta   90.00000000
_cell_angle_gamma   119.99999329
_symmetry_Int_Tables_number   1
_chemical_formula_structural   PrAsPd
_chemical_formula_sum   'Pr2 As2 Pd2'
_cell_volume   131.24812409
_cell_formula_units_Z   2
loop_
 _symmetry_equiv_pos_site_id
 _symmetry_equiv_pos_as_xyz
  1  'x, y, z'
loop_
 _atom_site_type_symbol
 _atom_site_label
 _atom_site_symmetry_multiplicity
 _atom_site_fract_x
 _atom_site_fract_y
 _atom_site_fract_z
 _atom_site_occupancy
  Pr  Pr0  1  0.00000000  -0.00000000  -0.00000000  1
  Pr  Pr1  1  0.00000000  -0.00000000  0.50000000  1
  As  As0  1  0.33333300  0.66666700  0.75000000  1
  As  As1  1  0.66666700  0.33333300  0.25000000  1
  Pd  Pd0  1  0.33333300  0.66666700  0.25000000  1
  Pd  Pd1  1  0.66666700  0.33333300  0.75000000  1
loop_
_geom_bond_atom_site_label_1
_geom_bond_atom_site_label_2
_geom_bond_distance
_geom_bond_site_symmetry_2
As0 Pd1 2.526471 1_455
As0 Pd1 2.526471 1_565
As0 Pd1 2.526479 1_555
As0 Pr1 3.209018 1_565
As0 Pr0 3.209018 1_566
As0 Pr1 3.209022 1_555
As0 Pr0 3.209022 1_556
As0 Pr0 3.209022 1_666
As0 Pr1 3.209022 1_665
As1 Pd0 2.526471 1_545
As1 Pd0 2.526471 1_655
As1 Pd0 2.526479 1_555
As1 Pr0 3.209018 1_655
As1 Pr1 3.209018 1_655
As1 Pr1 3.209022 1_665
As1 Pr0 3.209022 1_665
As1 Pr1 3.209022 1_555
As1 Pr0 3.209022 1_555
Pd0 Pr0 3.209018 1_565
Pd0 Pr1 3.209018 1_565
Pd0 Pr1 3.209022 1_555
Pd0 Pr0 3.209022 1_555
Pd0 Pr0 3.209022 1_665
Pd0 Pr1 3.209022 1_665
Pd1 Pr0 3.209018 1_656
Pd1 Pr1 3.209018 1_655
Pd1 Pr0 3.209022 1_666
Pd1 Pr1 3.209022 1_665
Pd1 Pr1 3.209022 1_555
Pd1 Pr0 3.209022 1_556
