# generated using pymatgen
data_VO2
_symmetry_space_group_name_H-M   'P 1'
_cell_length_a   5.49233237
_cell_length_b   6.29419005
_cell_length_c   6.29568599
_cell_angle_alpha   97.24418542
_cell_angle_beta   90.79024237
_cell_angle_gamma   89.21673284
_symmetry_Int_Tables_number   1
_chemical_formula_structural   VO2
_chemical_formula_sum   'V6 O12'
_cell_volume   215.86709032
_cell_formula_units_Z   6
loop_
 _symmetry_equiv_pos_site_id
 _symmetry_equiv_pos_as_xyz
  1  'x, y, z'
loop_
 _atom_site_type_symbol
 _atom_site_label
 _atom_site_symmetry_multiplicity
 _atom_site_fract_x
 _atom_site_fract_y
 _atom_site_fract_z
 _atom_site_occupancy
  V  V0  1  0.00007300  0.99614800  0.99621700  1
  V  V1  1  0.75208700  0.07984000  0.55747500  1
  V  V2  1  0.24798400  0.55755500  0.07972800  1
  V  V3  1  0.49998300  0.49833900  0.49820100  1
  V  V4  1  0.74513700  0.43170000  0.92000700  1
  V  V5  1  0.25469600  0.91998300  0.43187200  1
  O  O0  1  0.30045000  0.87228000  0.12466200  1
  O  O1  1  0.81711100  0.37043900  0.60923300  1
  O  O2  1  0.18286500  0.60922600  0.37039400  1
  O  O3  1  0.69961200  0.12454700  0.87222900  1
  O  O4  1  0.91092700  0.02860100  0.31215100  1
  O  O5  1  0.43833300  0.52952200  0.82008700  1
  O  O6  1  0.94005200  0.67165500  0.96434000  1
  O  O7  1  0.44126300  0.18283800  0.47334700  1
  O  O8  1  0.55871600  0.47336000  0.18274800  1
  O  O9  1  0.05995200  0.96430700  0.67165500  1
  O  O10  1  0.56165500  0.82003200  0.52945200  1
  O  O11  1  0.08910200  0.31213100  0.02870500  1
loop_
_geom_bond_atom_site_label_1
_geom_bond_atom_site_label_2
_geom_bond_distance
_geom_bond_site_symmetry_2
O0 V5 1.938794 1_555
O0 V2 1.989777 1_555
O0 V0 2.017559 1_554
O1 V1 1.855698 1_555
O1 V4 1.989945 1_555
O1 V3 2.059240 1_555
O2 V2 1.856652 1_555
O2 V5 1.989272 1_555
O2 V3 2.058611 1_555
O3 V4 1.937795 1_555
O3 V1 1.990443 1_555
O3 V0 2.018123 1_645
O4 V1 1.776057 1_555
O4 V0 2.039441 1_644
O4 V5 2.157731 1_645
O5 V4 1.911637 1_555
O5 V2 1.940477 1_556
O5 V3 2.043685 1_555
O6 V4 1.853288 1_555
O6 V2 1.992070 1_656
O6 V0 2.057581 1_655
O7 V1 1.909595 1_555
O7 V5 1.945616 1_545
O7 V3 2.002435 1_555
O8 V2 1.909332 1_555
O8 V4 1.945058 1_554
O8 V3 2.002619 1_555
O9 V5 1.852276 1_555
O9 V1 1.992323 1_465
O9 V0 2.058403 1_555
O10 V5 1.911915 1_555
O10 V1 1.941165 1_565
O10 V3 2.041982 1_555
O11 V2 1.776201 1_555
O11 V0 2.039050 1_544
O11 V4 2.158475 1_454
