# generated using pymatgen
data_Li5AlO4
_symmetry_space_group_name_H-M   'P 1'
_cell_length_a   8.88488207
_cell_length_b   9.00464381
_cell_length_c   9.03579114
_cell_angle_alpha   90.00000000
_cell_angle_beta   90.00000000
_cell_angle_gamma   90.00000000
_symmetry_Int_Tables_number   1
_chemical_formula_structural   Li5AlO4
_chemical_formula_sum   'Li40 Al8 O32'
_cell_volume   722.91026226
_cell_formula_units_Z   8
loop_
 _symmetry_equiv_pos_site_id
 _symmetry_equiv_pos_as_xyz
  1  'x, y, z'
loop_
 _atom_site_type_symbol
 _atom_site_label
 _atom_site_symmetry_multiplicity
 _atom_site_fract_x
 _atom_site_fract_y
 _atom_site_fract_z
 _atom_site_occupancy
  Li  Li0  1  0.86818061  0.14659587  0.62040468  1
  Li  Li1  1  0.36818061  0.85340413  0.87959532  1
  Li  Li2  1  0.63181939  0.64659587  0.37959532  1
  Li  Li3  1  0.13181939  0.35340413  0.12040468  1
  Li  Li4  1  0.13181939  0.85340413  0.37959532  1
  Li  Li5  1  0.63181939  0.14659587  0.12040468  1
  Li  Li6  1  0.36818061  0.35340413  0.62040468  1
  Li  Li7  1  0.86818061  0.64659587  0.87959532  1
  Li  Li8  1  0.83314267  0.10605553  0.88043315  1
  Li  Li9  1  0.33314267  0.89394447  0.61956685  1
  Li  Li10  1  0.66685733  0.60605553  0.11956685  1
  Li  Li11  1  0.16685733  0.39394447  0.38043315  1
  Li  Li12  1  0.16685733  0.89394447  0.11956685  1
  Li  Li13  1  0.66685733  0.10605553  0.38043315  1
  Li  Li14  1  0.33314267  0.39394447  0.88043315  1
  Li  Li15  1  0.83314267  0.60605553  0.61956685  1
  Li  Li16  1  0.90035135  0.12716554  0.14414898  1
  Li  Li17  1  0.40035135  0.87283446  0.35585102  1
  Li  Li18  1  0.59964865  0.62716554  0.85585102  1
  Li  Li19  1  0.86236926  0.88614477  0.39791859  1
  Li  Li20  1  0.09964865  0.87283446  0.85585102  1
  Li  Li21  1  0.59964865  0.12716554  0.64414898  1
  Li  Li22  1  0.40035135  0.37283446  0.14414898  1
  Li  Li23  1  0.90035135  0.62716554  0.35585102  1
  Li  Li24  1  0.89740574  0.38152510  0.84086660  1
  Li  Li25  1  0.39740574  0.61847490  0.65913340  1
  Li  Li26  1  0.60259426  0.88152510  0.15913340  1
  Li  Li27  1  0.10259426  0.11847490  0.34086660  1
  Li  Li28  1  0.10259426  0.61847490  0.15913340  1
  Li  Li29  1  0.60259426  0.38152510  0.34086660  1
  Li  Li30  1  0.39740574  0.11847490  0.84086660  1
  Li  Li31  1  0.89740574  0.88152510  0.65913340  1
  Li  Li32  1  0.86236926  0.38614477  0.10208141  1
  Li  Li33  1  0.36236926  0.61385523  0.39791859  1
  Li  Li34  1  0.63763074  0.88614477  0.89791859  1
  Li  Li35  1  0.13763074  0.11385523  0.60208141  1
  Li  Li36  1  0.13763074  0.61385523  0.89791859  1
  Li  Li37  1  0.63763074  0.38614477  0.60208141  1
  Li  Li38  1  0.36236926  0.11385523  0.10208141  1
  Li  Li39  1  0.09964865  0.37283446  0.64414898  1
  Al  Al0  1  0.88373688  0.35574737  0.37707874  1
  Al  Al1  1  0.38373688  0.64425263  0.12292126  1
  Al  Al2  1  0.61626312  0.85574737  0.62292126  1
  Al  Al3  1  0.11626312  0.14425263  0.87707874  1
  Al  Al4  1  0.11626312  0.64425263  0.62292126  1
  Al  Al5  1  0.61626312  0.35574737  0.87707874  1
  Al  Al6  1  0.38373688  0.14425263  0.37707874  1
  Al  Al7  1  0.88373688  0.85574737  0.12292126  1
  O  O0  1  0.76742054  0.25189278  0.25654931  1
  O  O1  1  0.26742054  0.74810722  0.24345069  1
  O  O2  1  0.73257946  0.75189278  0.74345069  1
  O  O3  1  0.23257946  0.24810722  0.75654931  1
  O  O4  1  0.23257946  0.74810722  0.74345069  1
  O  O5  1  0.73257946  0.25189278  0.75654931  1
  O  O6  1  0.26742054  0.24810722  0.25654931  1
  O  O7  1  0.76742054  0.75189278  0.24345069  1
  O  O8  1  0.76099345  0.48579826  0.46214603  1
  O  O9  1  0.26099345  0.51420174  0.03785397  1
  O  O10  1  0.73900655  0.98579826  0.53785397  1
  O  O11  1  0.23900655  0.01420174  0.96214603  1
  O  O12  1  0.23900655  0.51420174  0.53785397  1
  O  O13  1  0.73900655  0.48579826  0.96214603  1
  O  O14  1  0.26099345  0.01420174  0.46214603  1
  O  O15  1  0.76099345  0.98579826  0.03785397  1
  O  O16  1  -0.00028922  0.46325021  0.25730444  1
  O  O17  1  0.49971078  0.53674979  0.24269556  1
  O  O18  1  0.50028922  0.96325021  0.74269556  1
  O  O19  1  0.00028922  0.03674979  0.75730444  1
  O  O20  1  0.00657217  0.75220903  0.01034663  1
  O  O21  1  0.50028922  0.46325021  0.75730444  1
  O  O22  1  0.49971078  0.03674979  0.25730444  1
  O  O23  1  -0.00028922  0.96325021  0.24269556  1
  O  O24  1  0.00657217  0.25220903  0.48965337  1
  O  O25  1  0.50657217  0.74779097  0.01034663  1
  O  O26  1  0.49342783  0.75220903  0.51034663  1
  O  O27  1  0.99342783  0.24779097  0.98965337  1
  O  O28  1  0.99342783  0.74779097  0.51034663  1
  O  O29  1  0.49342783  0.25220903  0.98965337  1
  O  O30  1  0.50657217  0.24779097  0.48965337  1
  O  O31  1  0.00028922  0.53674979  0.74269556  1
loop_
_geom_bond_atom_site_label_1
_geom_bond_atom_site_label_2
_geom_bond_distance
_geom_bond_site_symmetry_2
Li0 O24 1.952465 1_655
Li0 O5 1.965676 1_555
Li0 O19 1.971361 1_655
Li0 O10 1.992505 1_545
Li1 O25 1.952465 1_556
Li1 O4 1.965676 1_555
Li1 O18 1.971361 1_555
Li1 O11 1.992505 1_565
Li2 O26 1.952465 1_555
Li2 O7 1.965676 1_555
Li2 O17 1.971361 1_555
Li2 O8 1.992505 1_555
Li3 O27 1.952465 1_454
Li3 O6 1.965676 1_555
Li3 O16 1.971361 1_555
Li3 O9 1.992505 1_555
Li4 O28 1.952465 1_455
Li4 O1 1.965676 1_555
Li4 O23 1.971361 1_555
Li4 O14 1.992505 1_565
Li5 O29 1.952465 1_554
Li5 O0 1.965676 1_555
Li5 O22 1.971361 1_555
Li5 O15 1.992505 1_545
Li6 O30 1.952465 1_555
Li6 O3 1.965676 1_555
Li6 O21 1.971361 1_555
Li6 O12 1.992505 1_555
Li7 O20 1.952465 1_656
Li7 O2 1.965676 1_555
Li7 O31 1.971361 1_655
Li7 O13 1.992505 1_555
Li8 O15 1.899165 1_546
Li8 O5 1.943164 1_555
Li8 O19 1.957734 1_655
Li8 O27 2.151962 1_555
Li9 O14 1.899165 1_565
Li9 O4 1.943164 1_555
Li9 O18 1.957734 1_555
Li9 O26 2.151962 1_555
Li10 O13 1.899165 1_554
Li10 O7 1.943164 1_555
Li10 O17 1.957734 1_555
Li10 O25 2.151962 1_555
Li11 O12 1.899165 1_555
Li11 O6 1.943164 1_555
Li11 O16 1.957734 1_555
Li11 O24 2.151962 1_555
Li12 O11 1.899165 1_564
Li12 O1 1.943164 1_555
Li12 O23 1.957734 1_555
Li12 O20 2.151962 1_555
Li13 O10 1.899165 1_545
Li13 O0 1.943164 1_555
Li13 O22 1.957734 1_555
Li13 O30 2.151962 1_555
Li14 O9 1.899165 1_556
Li14 O3 1.943164 1_555
Li14 O21 1.957734 1_555
Li14 O29 2.151962 1_555
Li15 O8 1.899165 1_555
Li15 O2 1.943164 1_555
Li15 O31 1.957734 1_655
Li15 O28 2.151962 1_555
Li16 O0 1.920375 1_555
Li16 O23 1.936698 1_645
Li16 O27 1.952557 1_554
Li16 O15 2.018911 1_545
Li17 O1 1.920375 1_555
Li17 O22 1.936698 1_565
Li17 O26 1.952557 1_555
Li17 O14 2.018911 1_565
Li18 O2 1.920375 1_555
Li18 O21 1.936698 1_555
Li18 O25 1.952557 1_556
Li18 O13 2.018911 1_555
Li19 O10 1.898778 1_555
Li19 O23 1.984512 1_655
Li19 O28 1.984946 1_555
Li19 O7 2.030070 1_555
Li20 O4 1.920375 1_555
Li20 O19 1.936698 1_565
Li20 O20 1.952557 1_556
Li20 O11 2.018911 1_565
Li21 O5 1.920375 1_555
Li21 O18 1.936698 1_545
Li21 O30 1.952557 1_555
Li21 O10 2.018911 1_545
Li22 O6 1.920375 1_555
Li22 O17 1.936698 1_555
Li22 O29 1.952557 1_554
Li22 O9 2.018911 1_555
Li23 O7 1.920375 1_555
Li23 O16 1.936698 1_655
Li23 O28 1.952557 1_555
Li23 O8 2.018911 1_555
Li24 O31 1.891069 1_655
Li24 O27 1.996359 1_555
Li24 O13 2.015731 1_555
Li24 O5 2.021799 1_555
Li25 O21 1.891069 1_555
Li25 O26 1.996359 1_555
Li25 O12 2.015731 1_555
Li25 O4 2.021799 1_555
Li26 O22 1.891069 1_565
Li26 O25 1.996359 1_555
Li26 O15 2.015731 1_555
Li26 O7 2.021799 1_555
Li27 O23 1.891069 1_545
Li27 O24 1.996359 1_555
Li27 O14 2.015731 1_555
Li27 O6 2.021799 1_555
Li28 O16 1.891069 1_555
Li28 O20 1.996359 1_555
Li28 O9 2.015731 1_555
Li28 O1 2.021799 1_555
Li29 O17 1.891069 1_555
Li29 O30 1.996359 1_555
Li29 O8 2.015731 1_555
Li29 O0 2.021799 1_555
Li30 O18 1.891069 1_545
Li30 O29 1.996359 1_555
Li30 O11 2.015731 1_555
Li30 O3 2.021799 1_555
Li31 O19 1.891069 1_665
Li31 O28 1.996359 1_555
Li31 O10 2.015731 1_555
Li31 O2 2.021799 1_555
Li32 O13 1.898778 1_554
Li32 O16 1.984512 1_655
Li32 O27 1.984946 1_554
Li32 O0 2.030070 1_555
Li33 O12 1.898778 1_555
Li33 O17 1.984512 1_555
Li33 O26 1.984946 1_555
Li33 O1 2.030070 1_555
Li34 O15 1.898778 1_556
Li34 O18 1.984512 1_555
Li34 O25 1.984946 1_556
Li34 O2 2.030070 1_555
Li35 O14 1.898778 1_555
Li35 O19 1.984512 1_555
Li35 O24 1.984946 1_555
Li35 O3 2.030070 1_555
Li36 O9 1.898778 1_556
Li36 O31 1.984512 1_555
Li36 O20 1.984946 1_556
Li36 O4 2.030070 1_555
Li37 O8 1.898778 1_555
Li37 O21 1.984512 1_555
Li37 O30 1.984946 1_555
Li37 O5 2.030070 1_555
Li38 O11 1.898778 1_554
Li38 O22 1.984512 1_555
Li38 O29 1.984946 1_554
Li38 O6 2.030070 1_555
Li39 O3 1.920375 1_555
Li39 O31 1.936698 1_555
Li39 O24 1.952557 1_555
Li39 O12 2.018911 1_555
Al0 O24 1.759271 1_655
Al0 O0 1.768806 1_555
Al0 O8 1.775256 1_555
Al0 O16 1.780478 1_655
Al1 O25 1.759271 1_555
Al1 O1 1.768806 1_555
Al1 O9 1.775256 1_555
Al1 O17 1.780478 1_555
Al2 O26 1.759271 1_555
Al2 O2 1.768806 1_555
Al2 O10 1.775256 1_555
Al2 O18 1.780478 1_555
Al3 O27 1.759271 1_455
Al3 O3 1.768806 1_555
Al3 O11 1.775256 1_555
Al3 O19 1.780478 1_555
Al4 O28 1.759271 1_455
Al4 O4 1.768806 1_555
Al4 O12 1.775256 1_555
Al4 O31 1.780478 1_555
Al5 O29 1.759271 1_555
Al5 O5 1.768806 1_555
Al5 O13 1.775256 1_555
Al5 O21 1.780478 1_555
Al6 O30 1.759271 1_555
Al6 O6 1.768806 1_555
Al6 O14 1.775256 1_555
Al6 O22 1.780478 1_555
Al7 O20 1.759271 1_655
Al7 O7 1.768806 1_555
Al7 O15 1.775256 1_555
Al7 O23 1.780478 1_655
