# generated using pymatgen
data_Mg2Ag
_symmetry_space_group_name_H-M   'P 1'
_cell_length_a   7.26158968
_cell_length_b   7.26158968
_cell_length_c   4.70853502
_cell_angle_alpha   90.00000000
_cell_angle_beta   90.00000000
_cell_angle_gamma   152.45419214
_symmetry_Int_Tables_number   1
_chemical_formula_structural   Mg2Ag
_chemical_formula_sum   'Mg4 Ag2'
_cell_volume   114.82095740
_cell_formula_units_Z   2
loop_
 _symmetry_equiv_pos_site_id
 _symmetry_equiv_pos_as_xyz
  1  'x, y, z'
loop_
 _atom_site_type_symbol
 _atom_site_label
 _atom_site_symmetry_multiplicity
 _atom_site_fract_x
 _atom_site_fract_y
 _atom_site_fract_z
 _atom_site_occupancy
  Mg  Mg0  1  0.24582523  0.75417477  0.25000000  1
  Mg  Mg1  1  0.92743192  0.07256808  0.25000000  1
  Mg  Mg2  1  0.75417477  0.24582523  0.75000000  1
  Mg  Mg3  1  0.07256808  0.92743192  0.75000000  1
  Ag  Ag0  1  0.59100637  0.40899363  0.25000000  1
  Ag  Ag1  1  0.40899363  0.59100637  0.75000000  1
loop_
_geom_bond_atom_site_label_1
_geom_bond_atom_site_label_2
_geom_bond_distance
_geom_bond_site_symmetry_2
Ag0 Mg0 2.785278 1_655
Ag0 Mg0 2.785278 1_545
Ag0 Mg1 2.883130 1_565
Ag0 Mg1 2.883130 1_455
Ag0 Mg3 2.932398 1_655
Ag0 Mg3 2.932398 1_654
Ag0 Mg3 2.932398 1_545
Ag0 Mg3 2.932398 1_544
Ag1 Mg2 2.785278 1_565
Ag1 Mg2 2.785278 1_455
Ag1 Mg3 2.883130 1_655
Ag1 Mg3 2.883130 1_545
Ag1 Mg1 2.932398 1_565
Ag1 Mg1 2.932398 1_456
Ag1 Mg1 2.932398 1_566
Ag1 Mg1 2.932398 1_455
