# generated using pymatgen
data_Ca2CoRhO6
_symmetry_space_group_name_H-M   'P 1'
_cell_length_a   6.48047443
_cell_length_b   6.48047443
_cell_length_c   6.30848768
_cell_angle_alpha   86.29906366
_cell_angle_beta   86.29906366
_cell_angle_gamma   91.61646571
_symmetry_Int_Tables_number   1
_chemical_formula_structural   Ca2CoRhO6
_chemical_formula_sum   'Ca4 Co2 Rh2 O12'
_cell_volume   263.69138791
_cell_formula_units_Z   2
loop_
 _symmetry_equiv_pos_site_id
 _symmetry_equiv_pos_as_xyz
  1  'x, y, z'
loop_
 _atom_site_type_symbol
 _atom_site_label
 _atom_site_symmetry_multiplicity
 _atom_site_fract_x
 _atom_site_fract_y
 _atom_site_fract_z
 _atom_site_occupancy
  Ca  Ca0  1  0.87970100  0.12029900  0.50000000  1
  Ca  Ca1  1  0.62084000  0.73805400  0.86982500  1
  Ca  Ca2  1  0.11691800  0.88308200  0.00000000  1
  Ca  Ca3  1  0.26194600  0.37916000  0.13017500  1
  Co  Co0  1  0.25697400  0.74302600  0.50000000  1
  Co  Co1  1  0.75069200  0.24930800  0.00000000  1
  Rh  Rh0  1  0.00299100  0.50050700  0.73795900  1
  Rh  Rh1  1  0.49949300  0.99700900  0.26204100  1
  O  O0  1  0.91912200  0.51750500  0.04082400  1
  O  O1  1  0.54070200  0.91937900  0.54967400  1
  O  O2  1  0.29474000  0.61212900  0.78634400  1
  O  O3  1  0.01266000  0.19947000  0.84269700  1
  O  O4  1  0.38787100  0.70526000  0.21365600  1
  O  O5  1  0.80053000  0.98734000  0.15730300  1
  O  O6  1  0.96730200  0.80335100  0.67374000  1
  O  O7  1  0.48249500  0.08087800  0.95917600  1
  O  O8  1  0.08062100  0.45929800  0.45032600  1
  O  O9  1  0.70842900  0.40061700  0.74758700  1
  O  O10  1  0.19664900  0.03269800  0.32626000  1
  O  O11  1  0.59938300  0.29157100  0.25241300  1
loop_
_geom_bond_atom_site_label_1
_geom_bond_atom_site_label_2
_geom_bond_distance
_geom_bond_site_symmetry_2
Ca0 O6 2.365981 1_545
Ca0 O10 2.365981 1_655
Ca0 O3 2.457275 1_655
Ca0 O5 2.457275 1_545
Ca0 O1 2.513340 1_545
Ca0 O8 2.513340 1_655
Ca0 O11 2.688442 1_555
Ca0 O9 2.688442 1_555
Ca1 O2 2.347577 1_555
Ca1 O1 2.364956 1_555
Ca1 O9 2.435147 1_555
Ca1 O7 2.503216 1_565
Ca1 O6 2.504116 1_555
Ca1 O4 2.555178 1_556
Ca1 O0 2.677504 1_556
Ca1 O5 2.792761 1_556
Ca2 O5 2.355248 1_455
Ca2 O3 2.355248 1_564
Ca2 O10 2.410380 1_565
Ca2 O6 2.410380 1_454
Ca2 O2 2.539099 1_554
Ca2 O4 2.539099 1_555
Ca2 O0 2.651292 1_455
Ca2 O7 2.651292 1_564
Ca3 O4 2.347577 1_555
Ca3 O8 2.364956 1_555
Ca3 O11 2.435147 1_555
Ca3 O0 2.503216 1_455
Ca3 O10 2.504116 1_555
Ca3 O2 2.555178 1_554
Ca3 O7 2.677504 1_554
Ca3 O3 2.792761 1_554
Co0 O4 1.978259 1_555
Co0 O2 1.978259 1_555
Co0 O10 2.170058 1_565
Co0 O6 2.170058 1_455
Co0 O8 2.187958 1_555
Co0 O1 2.187958 1_555
Co1 O9 1.855247 1_554
Co1 O11 1.855247 1_555
Co1 O3 1.956013 1_654
Co1 O5 1.956013 1_545
Co1 O7 2.065322 1_554
Co1 O0 2.065322 1_555
O0 Rh0 1.963287 1_654
O1 Rh1 1.889236 1_555
O2 Rh0 2.053512 1_555
O3 Rh0 2.022919 1_555
O4 Rh1 2.053512 1_555
O5 Rh1 2.022919 1_555
O6 Rh0 2.001092 1_655
O7 Rh1 1.963287 1_546
O8 Rh0 1.889236 1_555
O9 Rh0 1.994211 1_655
O10 Rh1 2.001092 1_545
O11 Rh1 1.994211 1_545
