# generated using pymatgen
data_K2BiAuF6
_symmetry_space_group_name_H-M   'P 1'
_cell_length_a   6.68669871
_cell_length_b   6.68669871
_cell_length_c   6.68669871
_cell_angle_alpha   60.00000000
_cell_angle_beta   60.00000000
_cell_angle_gamma   60.00000000
_symmetry_Int_Tables_number   1
_chemical_formula_structural   K2BiAuF6
_chemical_formula_sum   'K2 Bi1 Au1 F6'
_cell_volume   211.40743997
_cell_formula_units_Z   1
loop_
 _symmetry_equiv_pos_site_id
 _symmetry_equiv_pos_as_xyz
  1  'x, y, z'
loop_
 _atom_site_type_symbol
 _atom_site_label
 _atom_site_symmetry_multiplicity
 _atom_site_fract_x
 _atom_site_fract_y
 _atom_site_fract_z
 _atom_site_occupancy
  K  K0  1  0.75000000  0.75000000  0.75000000  1
  K  K1  1  0.25000000  0.25000000  0.25000000  1
  Bi  Bi0  1  0.00000000  0.00000000  0.00000000  1
  Au  Au0  1  0.50000000  0.50000000  0.50000000  1
  F  F0  1  0.76097300  0.23902700  0.23902700  1
  F  F1  1  0.23902700  0.23902700  0.76097300  1
  F  F2  1  0.23902700  0.76097300  0.76097300  1
  F  F3  1  0.23902700  0.76097300  0.23902700  1
  F  F4  1  0.76097300  0.23902700  0.76097300  1
  F  F5  1  0.76097300  0.76097300  0.23902700  1
loop_
_geom_bond_atom_site_label_1
_geom_bond_atom_site_label_2
_geom_bond_distance
_geom_bond_site_symmetry_2
Bi0 F0 2.260340 1_455
Bi0 F5 2.260340 1_445
Bi0 F4 2.260340 1_454
Bi0 F3 2.260340 1_545
Bi0 F1 2.260340 1_554
Bi0 F2 2.260340 1_544
Au0 F5 2.467870 1_555
Au0 F2 2.467870 1_555
Au0 F3 2.467870 1_555
Au0 F0 2.467870 1_555
Au0 F1 2.467870 1_555
Au0 F4 2.467870 1_555
F0 K0 3.344959 1_545
F0 K1 3.344959 1_655
F0 K0 3.344959 1_554
F0 K1 3.344959 1_555
F1 K0 3.344959 1_455
F1 K1 3.344959 1_555
F1 K0 3.344959 1_545
F1 K1 3.344959 1_556
F2 K0 3.344959 1_555
F2 K1 3.344959 1_556
F2 K1 3.344959 1_565
F2 K0 3.344959 1_455
F3 K1 3.344959 1_565
F3 K0 3.344959 1_554
F3 K0 3.344959 1_455
F3 K1 3.344959 1_555
F4 K0 3.344959 1_555
F4 K0 3.344959 1_545
F4 K1 3.344959 1_556
F4 K1 3.344959 1_655
F5 K0 3.344959 1_554
F5 K0 3.344959 1_555
F5 K1 3.344959 1_655
F5 K1 3.344959 1_565
