# generated using pymatgen
data_Na3Ni2P2(CO7)2
_symmetry_space_group_name_H-M   'P 1'
_cell_length_a   8.87797333
_cell_length_b   10.36161822
_cell_length_c   6.58976162
_cell_angle_alpha   90.00000000
_cell_angle_beta   90.00000000
_cell_angle_gamma   88.69738924
_symmetry_Int_Tables_number   1
_chemical_formula_structural   Na3Ni2P2(CO7)2
_chemical_formula_sum   'Na6 Ni4 P4 C4 O28'
_cell_volume   606.03663707
_cell_formula_units_Z   2
loop_
 _symmetry_equiv_pos_site_id
 _symmetry_equiv_pos_as_xyz
  1  'x, y, z'
loop_
 _atom_site_type_symbol
 _atom_site_label
 _atom_site_symmetry_multiplicity
 _atom_site_fract_x
 _atom_site_fract_y
 _atom_site_fract_z
 _atom_site_occupancy
  Na  Na0  1  0.25585766  0.12230921  0.47117843  1
  Na  Na1  1  0.25296348  0.62391591  0.01183541  1
  Na  Na2  1  0.25093174  0.62070987  0.49066658  1
  Na  Na3  1  0.74414234  0.37769079  0.97117843  1
  Na  Na4  1  0.74703652  0.87608409  0.51183541  1
  Na  Na5  1  0.74906826  0.87929013  0.99066658  1
  Ni  Ni0  1  0.34828877  0.38765106  0.75303105  1
  Ni  Ni1  1  0.34363611  0.89324143  0.75641212  1
  Ni  Ni2  1  0.65171123  0.11234894  0.25303105  1
  Ni  Ni3  1  0.65636389  0.60675857  0.25641212  1
  P  P0  1  0.42469405  0.36200700  0.25297812  1
  P  P1  1  0.42281874  0.85545232  0.25211201  1
  P  P2  1  0.57530595  0.13799300  0.75297812  1
  P  P3  1  0.57718126  0.64454768  0.75211201  1
  C  C0  1  0.07214987  0.35669566  0.74761436  1
  C  C1  1  0.07012901  0.85692995  0.74789735  1
  C  C2  1  0.92785013  0.14330434  0.24761436  1
  C  C3  1  0.92987099  0.64307005  0.24789735  1
  O  O0  1  0.06650534  0.16124824  0.24914157  1
  O  O1  1  0.06905137  0.66108196  0.24968707  1
  O  O2  1  0.13080609  0.47081757  0.75325341  1
  O  O3  1  0.12963256  0.96960702  0.74467379  1
  O  O4  1  0.17127275  0.26263387  0.74092234  1
  O  O5  1  0.17090142  0.76247094  0.75028396  1
  O  O6  1  0.33019331  0.40231838  0.06469527  1
  O  O7  1  0.33074750  0.40259783  0.44039465  1
  O  O8  1  0.32452539  0.88387366  0.06418060  1
  O  O9  1  0.32639496  0.89482932  0.43880973  1
  O  O10  1  0.42283784  0.06789811  0.74252161  1
  O  O11  1  0.42702169  0.57165420  0.75037181  1
  O  O12  1  0.46028128  0.21488732  0.25892784  1
  O  O13  1  0.45922562  0.70592024  0.25856691  1
  O  O14  1  0.53971872  0.28511268  0.75892784  1
  O  O15  1  0.54077438  0.79407976  0.75856691  1
  O  O16  1  0.57716216  0.43210189  0.24252161  1
  O  O17  1  0.57297831  0.92834580  0.25037181  1
  O  O18  1  0.66980669  0.09768162  0.56469527  1
  O  O19  1  0.66925250  0.09740217  0.94039465  1
  O  O20  1  0.67547461  0.61612634  0.56418060  1
  O  O21  1  0.67360504  0.60517068  0.93880973  1
  O  O22  1  0.82872725  0.23736613  0.24092234  1
  O  O23  1  0.82909858  0.73752906  0.25028396  1
  O  O24  1  0.86919391  0.02918243  0.25325341  1
  O  O25  1  0.87036744  0.53039298  0.24467379  1
  O  O26  1  0.93349466  0.33875176  0.74914157  1
  O  O27  1  0.93094863  0.83891804  0.74968707  1
loop_
_geom_bond_atom_site_label_1
_geom_bond_atom_site_label_2
_geom_bond_distance
_geom_bond_site_symmetry_2
Na0 O0 2.258052 1_555
Na0 O10 2.382175 1_555
Na0 O4 2.405834 1_555
Na0 O9 2.434395 1_545
Na0 O12 2.499876 1_555
Na0 O3 2.662344 1_545
Na1 O1 2.289616 1_555
Na1 O5 2.348402 1_554
Na1 O11 2.368917 1_554
Na1 O6 2.406654 1_555
Na1 O2 2.583500 1_554
Na1 O13 2.605675 1_555
Na1 O8 2.802823 1_555
Na2 O1 2.296381 1_555
Na2 O5 2.354114 1_555
Na2 O11 2.365394 1_555
Na2 O7 2.376263 1_555
Na2 O13 2.571523 1_555
Na2 O2 2.572762 1_555
Na3 O26 2.258052 1_555
Na3 O16 2.382175 1_556
Na3 O22 2.405834 1_556
Na3 O21 2.434395 1_555
Na3 O14 2.499876 1_555
Na3 O25 2.662344 1_556
Na4 O27 2.289616 1_555
Na4 O23 2.348402 1_555
Na4 O17 2.368917 1_555
Na4 O18 2.406654 1_565
Na4 O24 2.583500 1_565
Na4 O15 2.605675 1_555
Na4 O20 2.802823 1_555
Na5 O27 2.296381 1_555
Na5 O23 2.354114 1_556
Na5 O17 2.365394 1_556
Na5 O19 2.376263 1_565
Na5 O15 2.571523 1_555
Na5 O24 2.572762 1_566
Ni0 O14 1.984081 1_555
Ni0 O11 2.045603 1_555
Ni0 O4 2.060748 1_555
Ni0 O6 2.065396 1_556
Ni0 O7 2.071609 1_555
Ni0 O2 2.096416 1_555
Ni1 O10 1.958510 1_565
Ni1 O15 2.009305 1_555
Ni1 O8 2.037702 1_556
Ni1 O3 2.042897 1_555
Ni1 O5 2.069744 1_555
Ni1 O9 2.098551 1_555
Ni2 O12 1.984081 1_555
Ni2 O17 2.045603 1_545
Ni2 O22 2.060748 1_555
Ni2 O18 2.065396 1_555
Ni2 O19 2.071609 1_554
Ni2 O24 2.096416 1_555
Ni3 O16 1.958510 1_555
Ni3 O13 2.009305 1_555
Ni3 O20 2.037702 1_555
Ni3 O25 2.042897 1_555
Ni3 O23 2.069744 1_555
Ni3 O21 2.098551 1_554
C0 O26 1.249152 1_455
C0 O4 1.298952 1_555
C0 O2 1.303393 1_555
C1 O27 1.253898 1_455
C1 O3 1.292540 1_555
C1 O5 1.311027 1_555
C2 O0 1.249152 1_655
C2 O22 1.298952 1_555
C2 O24 1.303393 1_555
C3 O1 1.253898 1_655
C3 O25 1.292540 1_555
C3 O23 1.311027 1_555
O6 P0 1.549789 1_555
O7 P0 1.543338 1_555
O8 P1 1.539560 1_555
O9 P1 1.548235 1_555
O10 P2 1.552162 1_555
O11 P3 1.547117 1_555
O12 P0 1.550241 1_555
O13 P1 1.576114 1_555
O14 P2 1.550241 1_555
O15 P3 1.576114 1_555
O16 P0 1.552162 1_555
O17 P1 1.547117 1_555
O18 P2 1.549789 1_555
O19 P2 1.543338 1_555
O20 P3 1.539560 1_555
O21 P3 1.548235 1_555
