# generated using pymatgen
data_YAgO3
_symmetry_space_group_name_H-M   'P 1'
_cell_length_a   6.42856308
_cell_length_b   6.42856384
_cell_length_c   11.47762573
_cell_angle_alpha   90.00000099
_cell_angle_beta   89.99999844
_cell_angle_gamma   120.00001544
_symmetry_Int_Tables_number   1
_chemical_formula_structural   YAgO3
_chemical_formula_sum   'Y6 Ag6 O18'
_cell_volume   410.78113821
_cell_formula_units_Z   6
loop_
 _symmetry_equiv_pos_site_id
 _symmetry_equiv_pos_as_xyz
  1  'x, y, z'
loop_
 _atom_site_type_symbol
 _atom_site_label
 _atom_site_symmetry_multiplicity
 _atom_site_fract_x
 _atom_site_fract_y
 _atom_site_fract_z
 _atom_site_occupancy
  Y  Y0  1  0.66666669  0.33333379  0.23424911  1
  Y  Y1  1  0.33333342  0.66666655  0.73421904  1
  Y  Y2  1  0.66666637  0.33333323  0.73421901  1
  Y  Y3  1  0.33333359  0.66666690  0.23424937  1
  Y  Y4  1  0.00000018  0.00000015  0.77238753  1
  Y  Y5  1  -0.00000007  0.00000007  0.27241446  1
  Ag  Ag0  1  0.66743444  -0.00000173  0.50125197  1
  Ag  Ag1  1  0.66741761  0.66741805  0.00129603  1
  Ag  Ag2  1  0.00000261  0.33258572  0.00129630  1
  Ag  Ag3  1  -0.00000260  0.66743418  0.50125193  1
  Ag  Ag4  1  0.33256261  0.33256272  0.50125172  1
  Ag  Ag5  1  0.33258533  0.00000215  0.00129630  1
  O  O0  1  0.66666555  0.33333235  0.02554056  1
  O  O1  1  0.33333445  0.66666758  0.52550926  1
  O  O2  1  0.66666765  0.33333435  0.52550957  1
  O  O3  1  0.33333240  0.66666564  0.02554070  1
  O  O4  1  -0.00000150  -0.00000153  0.97313541  1
  O  O5  1  0.00000157  0.00000140  0.47309857  1
  O  O6  1  0.35613950  0.00000027  0.82862308  1
  O  O7  1  0.35613544  0.35613521  0.32862293  1
  O  O8  1  -0.00000059  0.64386447  0.32862290  1
  O  O9  1  0.00000066  0.35613986  0.82862301  1
  O  O10  1  0.64386039  0.64386063  0.82862304  1
  O  O11  1  0.64386445  -0.00000014  0.32862291  1
  O  O12  1  0.31067342  -0.00000002  0.17344182  1
  O  O13  1  0.31067471  0.31067460  0.67340626  1
  O  O14  1  -0.00000019  0.68932510  0.67340628  1
  O  O15  1  -0.00000004  0.31067349  0.17344187  1
  O  O16  1  0.68932677  0.68932687  0.17344178  1
  O  O17  1  0.68932518  0.00000009  0.67340629  1
loop_
_geom_bond_atom_site_label_1
_geom_bond_atom_site_label_2
_geom_bond_distance
_geom_bond_site_symmetry_2
Ag0 O17 1.980927 1_555
Ag0 O11 1.987157 1_555
Ag0 O5 2.162201 1_655
Ag0 O1 2.163305 1_545
Ag0 O2 2.163332 1_555
Ag1 O16 1.980838 1_555
Ag1 O10 1.987653 1_554
Ag1 O4 2.162309 1_664
Ag1 O3 2.163246 1_555
Ag1 O0 2.163250 1_555
Ag2 O15 1.980837 1_555
Ag2 O9 1.987656 1_554
Ag2 O4 2.162339 1_554
Ag2 O3 2.163219 1_555
Ag2 O0 2.163254 1_455
Ag3 O14 1.980928 1_555
Ag3 O8 1.987157 1_555
Ag3 O5 2.162198 1_565
Ag3 O2 2.163302 1_455
Ag3 O1 2.163337 1_555
Ag4 O13 1.980929 1_555
Ag4 O7 1.987155 1_555
Ag4 O5 2.162172 1_555
Ag4 O1 2.163329 1_555
Ag4 O2 2.163331 1_555
Ag5 O12 1.980836 1_555
Ag5 O6 1.987655 1_554
Ag5 O4 2.162337 1_554
Ag5 O0 2.163221 1_555
Ag5 O3 2.163252 1_545
O0 Y0 2.395479 1_555
O1 Y1 2.395493 1_555
O2 Y2 2.395489 1_555
O3 Y3 2.395480 1_555
O4 Y4 2.304109 1_555
O5 Y5 2.303377 1_555
O6 Y2 2.339485 1_555
O6 Y1 2.339490 1_545
O6 Y4 2.378708 1_555
O7 Y0 2.339335 1_555
O7 Y3 2.339338 1_555
O7 Y5 2.378599 1_555
O8 Y0 2.339333 1_455
O8 Y3 2.339339 1_555
O8 Y5 2.378599 1_565
O9 Y1 2.339483 1_555
O9 Y2 2.339491 1_455
O9 Y4 2.378709 1_555
O10 Y1 2.339485 1_555
O10 Y2 2.339488 1_555
O10 Y4 2.378710 1_665
O11 Y3 2.339333 1_545
O11 Y0 2.339340 1_555
O11 Y5 2.378599 1_655
O12 Y5 2.297646 1_555
O12 Y3 2.326434 1_545
O12 Y0 2.326435 1_555
O13 Y4 2.297700 1_555
O13 Y2 2.326446 1_555
O13 Y1 2.326448 1_555
O14 Y4 2.297702 1_565
O14 Y2 2.326448 1_455
O14 Y1 2.326449 1_555
O15 Y5 2.297645 1_555
O15 Y0 2.326434 1_455
O15 Y3 2.326435 1_555
O16 Y5 2.297644 1_665
O16 Y0 2.326432 1_555
O16 Y3 2.326434 1_555
O17 Y4 2.297702 1_655
O17 Y1 2.326447 1_545
O17 Y2 2.326448 1_555
