# generated using pymatgen
data_Te4Mo3W(SeS)2
_symmetry_space_group_name_H-M   'P 1'
_cell_length_a   3.39911977
_cell_length_b   3.39911977
_cell_length_c   40.21176000
_cell_angle_alpha   90.00000000
_cell_angle_beta   90.00000000
_cell_angle_gamma   119.99999544
_symmetry_Int_Tables_number   1
_chemical_formula_structural   Te4Mo3W(SeS)2
_chemical_formula_sum   'Te4 Mo3 W1 Se2 S2'
_cell_volume   402.36173054
_cell_formula_units_Z   1
loop_
 _symmetry_equiv_pos_site_id
 _symmetry_equiv_pos_as_xyz
  1  'x, y, z'
loop_
 _atom_site_type_symbol
 _atom_site_label
 _atom_site_symmetry_multiplicity
 _atom_site_fract_x
 _atom_site_fract_y
 _atom_site_fract_z
 _atom_site_occupancy
  Te  Te0  1  0.33333300  0.66666700  0.32705200  1
  Te  Te1  1  0.66666700  0.33333300  0.42395400  1
  Te  Te2  1  0.66666700  0.33333300  0.51718100  1
  Te  Te3  1  0.33333300  0.66666700  0.23378700  1
  Mo  Mo0  1  0.33333300  0.66666700  0.09388500  1
  Mo  Mo1  1  0.33333300  0.66666700  0.47056500  1
  Mo  Mo2  1  0.66666700  0.33333300  0.28042700  1
  W  W0  1  0.66666700  0.33333300  0.65804700  1
  Se  Se0  1  0.33333300  0.66666700  0.69928300  1
  Se  Se1  1  0.33333300  0.66666700  0.61687100  1
  S  S0  1  0.66666700  0.33333300  0.05648300  1
  S  S1  1  0.66666700  0.33333300  0.13121300  1
loop_
_geom_bond_atom_site_label_1
_geom_bond_atom_site_label_2
_geom_bond_distance
_geom_bond_site_symmetry_2
Mo0 S1 2.470710 1_455
Mo0 S1 2.470710 1_565
Mo0 S1 2.470714 1_555
Mo0 S0 2.472519 1_455
Mo0 S0 2.472519 1_565
Mo0 S0 2.472523 1_555
Mo1 Te1 2.713737 1_455
Mo1 Te1 2.713737 1_565
Mo1 Te1 2.713741 1_555
Mo1 Te2 2.713876 1_455
Mo1 Te2 2.713876 1_565
Mo1 Te2 2.713880 1_555
Mo2 Te0 2.714126 1_545
Mo2 Te0 2.714126 1_655
Mo2 Te0 2.714130 1_555
Mo2 Te3 2.714543 1_545
Mo2 Te3 2.714543 1_655
Mo2 Te3 2.714547 1_555
Se0 W0 2.569215 1_455
Se0 W0 2.569215 1_565
Se0 W0 2.569219 1_555
Se1 W0 2.567659 1_455
Se1 W0 2.567659 1_565
Se1 W0 2.567663 1_555
