# generated using pymatgen
data_HgCS(NCl)2
_symmetry_space_group_name_H-M   'P 1'
_cell_length_a   4.10784900
_cell_length_b   8.81167670
_cell_length_c   9.79588526
_cell_angle_alpha   91.65681819
_cell_angle_beta   90.00000000
_cell_angle_gamma   90.00000000
_symmetry_Int_Tables_number   1
_chemical_formula_structural   HgCS(NCl)2
_chemical_formula_sum   'Hg2 C2 S2 N4 Cl4'
_cell_volume   354.43378598
_cell_formula_units_Z   2
loop_
 _symmetry_equiv_pos_site_id
 _symmetry_equiv_pos_as_xyz
  1  'x, y, z'
loop_
 _atom_site_type_symbol
 _atom_site_label
 _atom_site_symmetry_multiplicity
 _atom_site_fract_x
 _atom_site_fract_y
 _atom_site_fract_z
 _atom_site_occupancy
  Hg  Hg0  1  0.58478400  0.83047800  0.10815600  1
  Hg  Hg1  1  0.08478400  0.16952200  0.89184400  1
  C  C0  1  0.61339600  0.77330000  0.44961800  1
  C  C1  1  0.11339600  0.22670000  0.55038200  1
  S  S0  1  0.60886600  0.92993700  0.36233400  1
  S  S1  1  0.10886600  0.07006300  0.63766600  1
  N  N0  1  0.61943400  0.66594300  0.51933600  1
  N  N1  1  0.11943400  0.33405700  0.48066400  1
  N  N2  1  0.56608900  0.40985300  0.25674000  1
  N  N3  1  0.06608900  0.59014700  0.74326000  1
  Cl  Cl0  1  0.57324600  0.88872200  0.86375800  1
  Cl  Cl1  1  0.07324600  0.11127800  0.13624200  1
  Cl  Cl2  1  0.08408500  0.65108300  0.13694600  1
  Cl  Cl3  1  0.58408500  0.34891700  0.86305400  1
loop_
_geom_bond_atom_site_label_1
_geom_bond_atom_site_label_2
_geom_bond_distance
_geom_bond_site_symmetry_2
Hg0 S0 2.617494 1_555
Hg1 S1 2.617494 1_555
C0 N0 1.182921 1_555
C0 S0 1.644598 1_555
C1 N1 1.182921 1_555
C1 S1 1.644598 1_555
Cl0 Hg0 2.463410 1_556
Cl1 Hg1 2.463410 1_554
Cl2 Hg0 2.609784 1_455
Cl2 Hg0 2.614300 1_555
Cl3 Hg1 2.609784 1_555
Cl3 Hg1 2.614300 1_655
