# generated using pymatgen
data_Pm3Hg
_symmetry_space_group_name_H-M   'P 1'
_cell_length_a   6.16913424
_cell_length_b   6.16913424
_cell_length_c   6.16913424
_cell_angle_alpha   134.32184283
_cell_angle_beta   134.32184283
_cell_angle_gamma   66.58574857
_symmetry_Int_Tables_number   1
_chemical_formula_structural   Pm3Hg
_chemical_formula_sum   'Pm3 Hg1'
_cell_volume   118.26619902
_cell_formula_units_Z   1
loop_
 _symmetry_equiv_pos_site_id
 _symmetry_equiv_pos_as_xyz
  1  'x, y, z'
loop_
 _atom_site_type_symbol
 _atom_site_label
 _atom_site_symmetry_multiplicity
 _atom_site_fract_x
 _atom_site_fract_y
 _atom_site_fract_z
 _atom_site_occupancy
  Pm  Pm0  1  0.75000000  0.25000000  0.50000000  1
  Pm  Pm1  1  0.25000000  0.75000000  0.50000000  1
  Pm  Pm2  1  0.50000000  0.50000000  0.00000000  1
  Hg  Hg0  1  0.00000000  0.00000000  0.00000000  1
loop_
_geom_bond_atom_site_label_1
_geom_bond_atom_site_label_2
_geom_bond_distance
_geom_bond_site_symmetry_2
Pm0 Pm1 3.386354 1_544
Pm0 Pm1 3.386354 1_555
Pm0 Pm1 3.386354 1_645
Pm0 Pm1 3.386354 1_656
Pm0 Pm2 3.518722 1_555
Pm0 Pm2 3.518722 1_556
Pm0 Pm2 3.518722 1_656
Pm0 Pm2 3.518722 1_545
Pm1 Pm2 3.518722 1_455
Pm1 Pm2 3.518722 1_555
Pm1 Pm2 3.518722 1_566
Pm1 Pm2 3.518722 1_556
Hg0 Pm2 3.386354 1_455
Hg0 Pm2 3.386354 1_556
Hg0 Pm2 3.386354 1_444
Hg0 Pm2 3.386354 1_545
Hg0 Pm0 3.518722 1_444
Hg0 Pm1 3.518722 1_545
Hg0 Pm0 3.518722 1_455
Hg0 Pm1 3.518722 1_444
Hg0 Pm1 3.518722 1_544
Hg0 Pm1 3.518722 1_555
Hg0 Pm0 3.518722 1_555
Hg0 Pm0 3.518722 1_454
