# generated using pymatgen
data_Cs4Rb2Fe2O5
_symmetry_space_group_name_H-M   'P 1'
_cell_length_a   7.31376230
_cell_length_b   7.37749162
_cell_length_c   12.38299100
_cell_angle_alpha   90.00064837
_cell_angle_beta   90.00086369
_cell_angle_gamma   93.41105943
_symmetry_Int_Tables_number   1
_chemical_formula_structural   Cs4Rb2Fe2O5
_chemical_formula_sum   'Cs8 Rb4 Fe4 O10'
_cell_volume   666.96804728
_cell_formula_units_Z   2
loop_
 _symmetry_equiv_pos_site_id
 _symmetry_equiv_pos_as_xyz
  1  'x, y, z'
loop_
 _atom_site_type_symbol
 _atom_site_label
 _atom_site_symmetry_multiplicity
 _atom_site_fract_x
 _atom_site_fract_y
 _atom_site_fract_z
 _atom_site_occupancy
  Cs  Cs0  1  0.68630200  0.34237300  0.99999900  1
  Cs  Cs1  1  0.68632200  0.84240000  0.49999900  1
  Cs  Cs2  1  0.31368100  0.65760400  0.00000000  1
  Cs  Cs3  1  0.31369900  0.15762900  0.49999900  1
  Cs  Cs4  1  0.00001100  0.49999100  0.74357000  1
  Cs  Cs5  1  0.99998800  0.00001200  0.24357100  1
  Cs  Cs6  1  0.00001200  0.49999100  0.25642800  1
  Cs  Cs7  1  0.99998800  0.00001100  0.75642800  1
  Rb  Rb0  1  0.49998100  0.49996700  0.71969700  1
  Rb  Rb1  1  0.50001800  0.00003400  0.21969900  1
  Rb  Rb2  1  0.49998000  0.49996800  0.28029900  1
  Rb  Rb3  1  0.50002000  0.00003700  0.78030200  1
  Fe  Fe0  1  0.80789900  0.30679300  0.50000000  1
  Fe  Fe1  1  0.19210200  0.19319700  0.99999900  1
  Fe  Fe2  1  0.80785200  0.80679500  0.00000600  1
  Fe  Fe3  1  0.19214900  0.69318800  0.49999600  1
  O  O0  1  0.99998600  0.00000800  0.00000000  1
  O  O1  1  0.00001400  0.49998800  0.50000000  1
  O  O2  1  0.71602500  0.70906200  0.13313900  1
  O  O3  1  0.71602500  0.20905600  0.63314500  1
  O  O4  1  0.28396800  0.29095100  0.86685600  1
  O  O5  1  0.28397600  0.79093500  0.36686300  1
  O  O6  1  0.28398300  0.29093500  0.13314400  1
  O  O7  1  0.28397900  0.79094200  0.63314200  1
  O  O8  1  0.71603500  0.70905600  0.86686200  1
  O  O9  1  0.71600500  0.20907700  0.36685500  1
loop_
_geom_bond_atom_site_label_1
_geom_bond_atom_site_label_2
_geom_bond_distance
_geom_bond_site_symmetry_2
Cs0 O8 3.164412 1_555
Cs0 O2 3.164432 1_556
Cs0 O6 3.374569 1_556
Cs0 O4 3.374597 1_555
Cs0 O0 3.511780 1_556
Cs1 O3 3.164261 1_565
Cs1 O9 3.164413 1_565
Cs1 O5 3.374650 1_555
Cs1 O7 3.374718 1_555
Cs1 O1 3.512084 1_655
Cs2 O4 3.164231 1_554
Cs2 O6 3.164365 1_555
Cs2 O2 3.374653 1_555
Cs2 O8 3.374755 1_554
Cs2 O0 3.512054 1_465
Cs3 O5 3.164438 1_545
Cs3 O7 3.164474 1_545
Cs3 O9 3.374485 1_555
Cs3 O3 3.374567 1_555
Cs3 O1 3.511752 1_555
Cs4 O1 3.016125 1_555
Cs4 O4 3.066459 1_555
Cs4 O8 3.066708 1_455
Cs4 O3 3.203119 1_455
Cs4 O7 3.203177 1_555
Cs5 O0 3.016138 1_555
Cs5 O9 3.066695 1_555
Cs5 O5 3.066805 1_645
Cs5 O2 3.203124 1_545
Cs5 O6 3.203161 1_655
Cs6 O1 3.016150 1_555
Cs6 O6 3.066597 1_555
Cs6 O2 3.066757 1_455
Cs6 O5 3.203116 1_555
Cs6 O9 3.203173 1_455
Cs7 O0 3.016150 1_556
Cs7 O3 3.066492 1_555
Cs7 O7 3.066765 1_645
Cs7 O4 3.203132 1_655
Cs7 O8 3.203161 1_545
Fe0 O9 1.905783 1_555
Fe0 O3 1.905821 1_555
Fe0 O1 1.940982 1_655
Fe1 O6 1.905809 1_556
Fe1 O4 1.905825 1_555
Fe1 O0 1.940956 1_456
Fe2 O2 1.905569 1_555
Fe2 O8 1.905647 1_554
Fe2 O0 1.941168 1_565
Fe3 O5 1.905606 1_555
Fe3 O7 1.905739 1_555
Fe3 O1 1.941107 1_555
O2 Rb2 2.811958 1_555
O2 Rb1 2.942174 1_565
O3 Rb3 2.811494 1_555
O3 Rb0 2.941953 1_555
O4 Rb0 2.811530 1_555
O4 Rb3 2.942013 1_555
O5 Rb1 2.811998 1_565
O5 Rb2 2.942152 1_555
O6 Rb2 2.811447 1_555
O6 Rb1 2.941872 1_555
O7 Rb3 2.811893 1_565
O7 Rb0 2.942148 1_555
O8 Rb0 2.811961 1_555
O8 Rb3 2.942259 1_565
O9 Rb1 2.811454 1_555
O9 Rb2 2.941778 1_555
