# generated using pymatgen
data_PrYSi2O7
_symmetry_space_group_name_H-M   'P 1'
_cell_length_a   8.67302400
_cell_length_b   5.44265100
_cell_length_c   13.98106933
_cell_angle_alpha   67.53363041
_cell_angle_beta   90.00000000
_cell_angle_gamma   90.00000000
_symmetry_Int_Tables_number   1
_chemical_formula_structural   PrYSi2O7
_chemical_formula_sum   'Pr4 Y4 Si8 O28'
_cell_volume   609.87702253
_cell_formula_units_Z   4
loop_
 _symmetry_equiv_pos_site_id
 _symmetry_equiv_pos_as_xyz
  1  'x, y, z'
loop_
 _atom_site_type_symbol
 _atom_site_label
 _atom_site_symmetry_multiplicity
 _atom_site_fract_x
 _atom_site_fract_y
 _atom_site_fract_z
 _atom_site_occupancy
  Pr  Pr0  1  0.80851700  0.47446300  0.77220600  1
  Pr  Pr1  1  0.30851700  0.52553700  0.72779400  1
  Pr  Pr2  1  0.19148300  0.52553700  0.22779400  1
  Pr  Pr3  1  0.69148300  0.47446300  0.27220600  1
  Y  Y0  1  0.60364100  0.17383100  0.59161300  1
  Y  Y1  1  0.10364100  0.82616900  0.90838700  1
  Y  Y2  1  0.39635900  0.82616900  0.40838700  1
  Y  Y3  1  0.89635900  0.17383100  0.09161300  1
  Si  Si0  1  0.24699200  0.25668200  0.02090400  1
  Si  Si1  1  0.74699200  0.74331800  0.47909600  1
  Si  Si2  1  0.75300800  0.74331800  0.97909600  1
  Si  Si3  1  0.25300800  0.25668200  0.52090400  1
  Si  Si4  1  0.50568800  0.03765900  0.17929400  1
  Si  Si5  1  0.00568800  0.96234100  0.32070600  1
  Si  Si6  1  0.49431200  0.96234100  0.82070600  1
  Si  Si7  1  0.99431200  0.03765900  0.67929400  1
  O  O0  1  0.42187700  0.20759600  0.06865000  1
  O  O1  1  0.92187700  0.79240400  0.43135000  1
  O  O2  1  0.57812300  0.79240400  0.93135000  1
  O  O3  1  0.07812300  0.20759600  0.56865000  1
  O  O4  1  0.15686700  0.97731100  0.03935000  1
  O  O5  1  0.65686700  0.02268900  0.46065000  1
  O  O6  1  0.84313300  0.02268900  0.96065000  1
  O  O7  1  0.34313300  0.97731100  0.53935000  1
  O  O8  1  0.13552400  0.41100100  0.07828900  1
  O  O9  1  0.63552400  0.58899900  0.42171100  1
  O  O10  1  0.86447600  0.58899900  0.92171100  1
  O  O11  1  0.36447600  0.41100100  0.57828900  1
  O  O12  1  0.25048800  0.47256300  0.90281300  1
  O  O13  1  0.75048800  0.52743700  0.59718700  1
  O  O14  1  0.74951200  0.52743700  0.09718700  1
  O  O15  1  0.24951200  0.47256300  0.40281300  1
  O  O16  1  0.48887500  0.19495800  0.25881500  1
  O  O17  1  0.98887500  0.80504200  0.24118500  1
  O  O18  1  0.51112500  0.80504200  0.74118500  1
  O  O19  1  0.01112500  0.19495800  0.75881500  1
  O  O20  1  0.42268400  0.74843900  0.23866900  1
  O  O21  1  0.92268400  0.25156100  0.26133100  1
  O  O22  1  0.57731600  0.25156100  0.76133100  1
  O  O23  1  0.07731600  0.74843900  0.73866900  1
  O  O24  1  0.68400400  0.96112000  0.16744100  1
  O  O25  1  0.18400400  0.03888000  0.33255900  1
  O  O26  1  0.31599600  0.03888000  0.83255900  1
  O  O27  1  0.81599600  0.96112000  0.66744100  1
loop_
_geom_bond_atom_site_label_1
_geom_bond_atom_site_label_2
_geom_bond_distance
_geom_bond_site_symmetry_2
O0 Si0 1.637470 1_555
O0 Si4 1.638076 1_555
O1 Si1 1.637470 1_555
O1 Si5 1.638076 1_655
O2 Si2 1.637470 1_555
O2 Si6 1.638076 1_555
O3 Si3 1.637470 1_555
O3 Si7 1.638076 1_455
O4 Si0 1.640053 1_565
O4 Y1 2.322398 1_554
O4 Y3 2.716635 1_465
O4 Pr2 2.850661 1_555
O5 Si1 1.640053 1_545
O5 Y0 2.322398 1_555
O5 Y2 2.716635 1_545
O5 Pr3 2.850661 1_555
O6 Si2 1.640053 1_545
O6 Y3 2.322398 1_556
O6 Y1 2.716635 1_645
O6 Pr0 2.850661 1_555
O7 Si3 1.640053 1_565
O7 Y2 2.322398 1_555
O7 Y0 2.716635 1_565
O7 Pr1 2.850661 1_555
O8 Si0 1.672956 1_555
O8 Y3 2.412432 1_455
O8 Pr2 2.447268 1_555
O8 Y1 2.592799 1_554
O9 Si1 1.672956 1_555
O9 Y2 2.412432 1_555
O9 Pr3 2.447268 1_555
O9 Y0 2.592799 1_555
O10 Si2 1.672956 1_555
O10 Y1 2.412432 1_655
O10 Pr0 2.447268 1_555
O10 Y3 2.592799 1_556
O11 Si3 1.672956 1_555
O11 Y0 2.412432 1_555
O11 Pr1 2.447268 1_555
O11 Y2 2.592799 1_555
O12 Si0 1.620108 1_556
O12 Y1 2.333814 1_555
O12 Pr1 2.405161 1_555
O13 Si1 1.620108 1_555
O13 Y0 2.333814 1_555
O13 Pr0 2.405161 1_555
O14 Si2 1.620108 1_554
O14 Y3 2.333814 1_555
O14 Pr3 2.405161 1_555
O15 Si3 1.620108 1_555
O15 Y2 2.333814 1_555
O15 Pr2 2.405161 1_555
O16 Si4 1.648560 1_555
O16 Pr3 2.377974 1_555
O16 Y2 2.416128 1_545
O16 Pr2 3.079228 1_555
O17 Si5 1.648560 1_655
O17 Pr2 2.377974 1_655
O17 Y3 2.416128 1_565
O17 Pr3 3.079228 1_555
O18 Si6 1.648560 1_555
O18 Pr1 2.377974 1_555
O18 Y0 2.416128 1_565
O18 Pr0 3.079228 1_555
O19 Si7 1.648560 1_455
O19 Pr0 2.377974 1_455
O19 Y1 2.416128 1_545
O19 Pr1 3.079228 1_555
O20 Si4 1.639061 1_565
O20 Pr2 2.378396 1_555
O20 Y2 2.574625 1_555
O20 Pr3 2.709979 1_555
O21 Si5 1.639061 1_645
O21 Pr3 2.378396 1_555
O21 Y3 2.574625 1_555
O21 Pr2 2.709979 1_655
O22 Si6 1.639061 1_545
O22 Pr0 2.378396 1_555
O22 Y0 2.574625 1_555
O22 Pr1 2.709979 1_555
O23 Si7 1.639061 1_465
O23 Pr1 2.378396 1_555
O23 Y1 2.574625 1_555
O23 Pr0 2.709979 1_455
O24 Si4 1.626512 1_565
O24 Y3 2.217716 1_565
O24 Pr3 2.490007 1_555
O25 Si5 1.626512 1_545
O25 Y2 2.217716 1_545
O25 Pr2 2.490007 1_555
O26 Si6 1.626512 1_545
O26 Y1 2.217716 1_545
O26 Pr1 2.490007 1_555
O27 Si7 1.626512 1_565
O27 Y0 2.217716 1_565
O27 Pr0 2.490007 1_555
