# generated using pymatgen
data_Na3CrC6O17
_symmetry_space_group_name_H-M   'P 1'
_cell_length_a   10.73770260
_cell_length_b   10.73770260
_cell_length_c   14.18375321
_cell_angle_alpha   80.26654731
_cell_angle_beta   80.26654731
_cell_angle_gamma   75.07630097
_symmetry_Int_Tables_number   1
_chemical_formula_structural   Na3CrC6O17
_chemical_formula_sum   'Na12 Cr4 C24 O68'
_cell_volume   1543.86596471
_cell_formula_units_Z   4
loop_
 _symmetry_equiv_pos_site_id
 _symmetry_equiv_pos_as_xyz
  1  'x, y, z'
loop_
 _atom_site_type_symbol
 _atom_site_label
 _atom_site_symmetry_multiplicity
 _atom_site_fract_x
 _atom_site_fract_y
 _atom_site_fract_z
 _atom_site_occupancy
  Na  Na0  1  0.24434492  0.97701546  0.03813001  1
  Na  Na1  1  0.97701546  0.24434492  0.53813001  1
  Na  Na2  1  0.64771196  0.65260576  0.28427245  1
  Na  Na3  1  0.65260576  0.64771196  0.78427245  1
  Na  Na4  1  0.06633005  0.33600263  0.03375845  1
  Na  Na5  1  0.33600263  0.06633005  0.53375845  1
  Na  Na6  1  0.41242838  0.61898441  0.06101300  1
  Na  Na7  1  0.61898441  0.41242838  0.56101300  1
  Na  Na8  1  0.92161233  0.37881736  0.28361630  1
  Na  Na9  1  0.37881736  0.92161233  0.78361630  1
  Na  Na10  1  0.88424400  0.71003088  0.00543184  1
  Na  Na11  1  0.71003088  0.88424400  0.50543184  1
  Cr  Cr0  1  0.09220461  0.82477466  0.27669222  1
  Cr  Cr1  1  0.82477466  0.09220461  0.77669222  1
  Cr  Cr2  1  0.47562774  0.20727721  0.29345175  1
  Cr  Cr3  1  0.20727721  0.47562774  0.79345175  1
  C  C0  1  0.61006659  0.94447814  0.31888097  1
  C  C1  1  0.94447814  0.61006659  0.81888097  1
  C  C2  1  0.03888129  0.09541128  0.21858849  1
  C  C3  1  0.09541128  0.03888129  0.71858849  1
  C  C4  1  0.92382607  0.69845087  0.22282873  1
  C  C5  1  0.69845087  0.92382607  0.72282873  1
  C  C6  1  0.66278113  0.35192347  0.24179300  1
  C  C7  1  0.35192347  0.66278113  0.74179300  1
  C  C8  1  0.33743305  0.76063228  0.34218167  1
  C  C9  1  0.76063228  0.33743305  0.84218167  1
  C  C10  1  0.60054365  0.37658161  0.34770267  1
  C  C11  1  0.37658161  0.60054365  0.84770267  1
  C  C12  1  0.35565097  0.68972419  0.25083130  1
  C  C13  1  0.68972419  0.35565097  0.75083130  1
  C  C14  1  0.53953779  0.96387098  0.22712190  1
  C  C15  1  0.96387098  0.53953779  0.72712190  1
  C  C16  1  0.94759461  0.63678364  0.32891912  1
  C  C17  1  0.63678364  0.94759461  0.82891912  1
  C  C18  1  0.20461707  0.25729889  0.34853928  1
  C  C19  1  0.25729889  0.20461707  0.84853928  1
  C  C20  1  0.22865566  0.35481200  0.25565553  1
  C  C21  1  0.35481200  0.22865566  0.75565553  1
  C  C22  1  0.94481793  0.07222292  0.31361744  1
  C  C23  1  0.07222292  0.94481793  0.81361744  1
  O  O0  1  0.45230057  0.84436965  0.04631510  1
  O  O1  1  0.84436965  0.45230057  0.54631510  1
  O  O2  1  0.58469249  0.04709211  0.36213727  1
  O  O3  1  0.04709211  0.58469249  0.86213727  1
  O  O4  1  0.97724176  0.79420153  0.18973765  1
  O  O5  1  0.79420153  0.97724176  0.68973765  1
  O  O6  1  0.34817042  0.35342735  0.22565119  1
  O  O7  1  0.35342735  0.34817042  0.72565119  1
  O  O8  1  0.81403324  0.05990743  0.06078497  1
  O  O9  1  0.05990743  0.81403324  0.56078497  1
  O  O10  1  0.43225961  0.74510225  0.38598500  1
  O  O11  1  0.74510225  0.43225961  0.88598500  1
  O  O12  1  0.25230806  0.71413766  0.20850187  1
  O  O13  1  0.71413766  0.25230806  0.70850187  1
  O  O14  1  0.68081728  0.83828715  0.34711413  1
  O  O15  1  0.83828715  0.68081728  0.84711413  1
  O  O16  1  0.94794889  0.95278386  0.34552363  1
  O  O17  1  0.95278386  0.94794889  0.84552363  1
  O  O18  1  0.15410466  0.77708870  0.00954964  1
  O  O19  1  0.77708870  0.15410466  0.50954964  1
  O  O20  1  0.84985275  0.46097220  0.02396352  1
  O  O21  1  0.46097220  0.84985275  0.52396352  1
  O  O22  1  0.03587214  0.20690439  0.17684703  1
  O  O23  1  0.20690439  0.03587214  0.67684703  1
  O  O24  1  0.88413477  0.55701441  0.37161207  1
  O  O25  1  0.55701441  0.88413477  0.87161207  1
  O  O26  1  0.50636295  0.32098141  0.38108319  1
  O  O27  1  0.32098141  0.50636295  0.88108319  1
  O  O28  1  0.92493148  0.08478540  0.02565813  1
  O  O29  1  0.08478540  0.92493148  0.52565813  1
  O  O30  1  0.85862083  0.65356834  0.17801101  1
  O  O31  1  0.65356834  0.85862083  0.67801101  1
  O  O32  1  0.30954068  0.18160418  0.37777452  1
  O  O33  1  0.18160418  0.30954068  0.87777452  1
  O  O34  1  0.13137195  0.42501957  0.21981956  1
  O  O35  1  0.42501957  0.13137195  0.71981956  1
  O  O36  1  0.15392488  0.52253312  0.06080048  1
  O  O37  1  0.52253312  0.15392488  0.56080048  1
  O  O38  1  0.64381813  0.44398064  0.39156142  1
  O  O39  1  0.44398064  0.64381813  0.89156142  1
  O  O40  1  0.23957476  0.44569581  0.51595732  1
  O  O41  1  0.44569581  0.23957476  0.01595732  1
  O  O42  1  0.11528444  0.99012617  0.19002552  1
  O  O43  1  0.99012617  0.11528444  0.69002552  1
  O  O44  1  0.74248412  0.41543205  0.19942868  1
  O  O45  1  0.41543205  0.74248412  0.69942868  1
  O  O46  1  0.09244495  0.25822510  0.38817313  1
  O  O47  1  0.25822510  0.09244495  0.88817313  1
  O  O48  1  0.46213127  0.62035197  0.22159432  1
  O  O49  1  0.62035197  0.46213127  0.72159432  1
  O  O50  1  0.62421471  0.26555644  0.20923132  1
  O  O51  1  0.26555644  0.62421471  0.70923132  1
  O  O52  1  0.87522527  0.16971614  0.34943330  1
  O  O53  1  0.16971614  0.87522527  0.84943330  1
  O  O54  1  0.55413978  0.86865658  0.18362764  1
  O  O55  1  0.86865658  0.55413978  0.68362764  1
  O  O56  1  0.03356762  0.67596098  0.36159330  1
  O  O57  1  0.67596098  0.03356762  0.86159330  1
  O  O58  1  0.33149760  0.21561878  0.04477999  1
  O  O59  1  0.21561878  0.33149760  0.54477999  1
  O  O60  1  0.46919476  0.07926549  0.20748435  1
  O  O61  1  0.07926549  0.46919476  0.70748435  1
  O  O62  1  0.22240413  0.83288494  0.36056829  1
  O  O63  1  0.83288494  0.22240413  0.86056829  1
  O  O64  1  0.78633220  0.96055445  0.03667751  1
  O  O65  1  0.96055445  0.78633220  0.53667751  1
  O  O66  1  0.45879482  0.35278733  0.02246782  1
  O  O67  1  0.35278733  0.45879482  0.52246782  1
loop_
_geom_bond_atom_site_label_1
_geom_bond_atom_site_label_2
_geom_bond_distance
_geom_bond_site_symmetry_2
Na0 O47 2.275727 1_564
Na0 O0 2.328495 1_555
Na0 O42 2.361032 1_555
Na0 O18 2.685196 1_555
Na0 O58 2.965679 1_565
Na1 O46 2.275727 1_655
Na1 O1 2.328495 1_555
Na1 O43 2.361032 1_555
Na1 O19 2.685196 1_555
Na1 O59 2.965679 1_655
Na2 O48 2.437163 1_555
Na2 O14 2.443179 1_555
Na2 O38 2.491956 1_555
Na2 O30 2.500626 1_555
Na2 O10 2.567553 1_555
Na2 O54 2.567850 1_555
Na2 O44 2.873462 1_555
Na2 O24 2.885166 1_555
Na3 O49 2.437163 1_555
Na3 O15 2.443179 1_555
Na3 O39 2.491956 1_555
Na3 O31 2.500626 1_555
Na3 O11 2.567553 1_555
Na3 O55 2.567850 1_555
Na3 O45 2.873462 1_555
Na3 O25 2.885166 1_555
Na4 O22 2.281525 1_555
Na4 O33 2.369210 1_554
Na4 O20 2.379642 1_455
Na4 O36 2.528930 1_555
Na4 O58 2.826463 1_555
Na5 O23 2.281525 1_555
Na5 O32 2.369210 1_555
Na5 O21 2.379642 1_545
Na5 O37 2.528930 1_555
Na5 O59 2.826463 1_555
Na6 O39 2.348829 1_554
Na6 O48 2.428802 1_555
Na6 O0 2.533110 1_555
Na6 O12 2.641589 1_555
Na6 O66 2.901773 1_555
Na6 O18 2.991498 1_555
Na7 O38 2.348829 1_555
Na7 O49 2.428802 1_555
Na7 O1 2.533110 1_555
Na7 O13 2.641589 1_555
Na7 O67 2.901773 1_555
Na7 O19 2.991498 1_555
Na8 O44 2.346991 1_555
Na8 O24 2.371076 1_555
Na8 O52 2.422987 1_555
Na8 O34 2.423334 1_655
Na8 O46 2.507583 1_655
Na8 O22 2.521240 1_655
Na9 O45 2.346991 1_555
Na9 O25 2.371076 1_555
Na9 O53 2.422987 1_555
Na9 O35 2.423334 1_565
Na9 O47 2.507583 1_565
Na9 O23 2.521240 1_565
Na10 O30 2.406550 1_555
Na10 O15 2.465147 1_554
Na10 O64 2.706837 1_555
Na10 O3 2.740601 1_654
Na10 O20 2.756011 1_555
Na11 O31 2.406550 1_555
Na11 O14 2.465147 1_555
Na11 O65 2.706837 1_555
Na11 O2 2.740601 1_565
Na11 O21 2.756011 1_555
Cr0 O56 2.002771 1_555
Cr0 O4 2.003289 1_455
Cr0 O62 2.009370 1_555
Cr0 O12 2.019059 1_555
Cr0 O16 2.021773 1_455
Cr0 O42 2.027442 1_555
Cr1 O57 2.002771 1_555
Cr1 O5 2.003289 1_545
Cr1 O63 2.009370 1_555
Cr1 O13 2.019059 1_555
Cr1 O17 2.021773 1_545
Cr1 O43 2.027442 1_555
Cr2 O50 1.995294 1_555
Cr2 O26 2.000959 1_555
Cr2 O60 2.006255 1_555
Cr2 O2 2.015125 1_555
Cr2 O6 2.022156 1_555
Cr2 O32 2.026685 1_555
Cr3 O51 1.995294 1_555
Cr3 O27 2.000959 1_555
Cr3 O61 2.006255 1_555
Cr3 O3 2.015125 1_555
Cr3 O7 2.022156 1_555
Cr3 O33 2.026685 1_555
C0 O14 1.240955 1_555
C0 O2 1.296974 1_565
C1 O15 1.240955 1_555
C1 O3 1.296974 1_655
C2 O22 1.237614 1_555
C2 O42 1.296159 1_545
C3 O23 1.237614 1_555
C3 O43 1.296159 1_455
C4 O30 1.246777 1_555
C4 O4 1.286812 1_555
C5 O31 1.246777 1_555
C5 O5 1.286812 1_555
C6 O44 1.243665 1_555
C6 O50 1.285354 1_555
C7 O45 1.243665 1_555
C7 O51 1.285354 1_555
C8 O10 1.241775 1_555
C8 O62 1.288967 1_555
C9 O11 1.241775 1_555
C9 O63 1.288967 1_555
C10 O38 1.244925 1_555
C10 O26 1.287164 1_555
C11 O39 1.244925 1_555
C11 O27 1.287164 1_555
C12 O48 1.240789 1_555
C12 O12 1.297217 1_555
C13 O49 1.240789 1_555
C13 O13 1.297217 1_555
C14 O54 1.244358 1_555
C14 O60 1.286773 1_565
C15 O55 1.244358 1_555
C15 O61 1.286773 1_655
C16 O24 1.245146 1_555
C16 O56 1.286298 1_655
C17 O25 1.245146 1_555
C17 O57 1.286298 1_565
C18 O46 1.238403 1_555
C18 O32 1.293923 1_555
C19 O47 1.238403 1_555
C19 O33 1.293923 1_555
C20 O34 1.249891 1_555
C20 O6 1.279013 1_555
C21 O35 1.249891 1_555
C21 O7 1.279013 1_555
C22 O52 1.249364 1_555
C22 O16 1.279620 1_545
C23 O53 1.249364 1_555
C23 O17 1.279620 1_455
O28 O8 1.286783 1_555
O29 O9 1.286783 1_555
O40 O67 1.279264 1_555
O40 O59 1.301665 1_555
O41 O66 1.279264 1_555
O41 O58 1.301665 1_555
O64 O8 1.290224 1_565
O65 O9 1.290224 1_655
