# generated using pymatgen
data_Sr2CrSbO6
_symmetry_space_group_name_H-M   'P 1'
_cell_length_a   5.61466000
_cell_length_b   5.61490400
_cell_length_c   16.18078500
_cell_angle_alpha   89.99943454
_cell_angle_beta   89.99928874
_cell_angle_gamma   89.99956121
_symmetry_Int_Tables_number   1
_chemical_formula_structural   Sr2CrSbO6
_chemical_formula_sum   'Sr8 Cr4 Sb4 O24'
_cell_volume   510.11181782
_cell_formula_units_Z   4
loop_
 _symmetry_equiv_pos_site_id
 _symmetry_equiv_pos_as_xyz
  1  'x, y, z'
loop_
 _atom_site_type_symbol
 _atom_site_label
 _atom_site_symmetry_multiplicity
 _atom_site_fract_x
 _atom_site_fract_y
 _atom_site_fract_z
 _atom_site_occupancy
  Sr  Sr0  1  0.99992700  0.49998800  0.12499300  1
  Sr  Sr1  1  0.50003000  0.00006800  0.37503700  1
  Sr  Sr2  1  0.00001900  0.49999300  0.62501000  1
  Sr  Sr3  1  0.50003200  0.99998100  0.87496600  1
  Sr  Sr4  1  0.49998900  0.00002900  0.12499300  1
  Sr  Sr5  1  0.99999200  0.50001400  0.37503700  1
  Sr  Sr6  1  0.50007400  0.00002500  0.62500900  1
  Sr  Sr7  1  0.99995700  0.49997300  0.87496500  1
  Cr  Cr0  1  0.00020900  0.99982700  0.50003100  1
  Cr  Cr1  1  0.49970200  0.49990200  0.74998300  1
  Cr  Cr2  1  0.00008600  0.99982900  0.99993300  1
  Cr  Cr3  1  0.49964200  0.50005800  0.25003900  1
  Sb  Sb0  1  0.50002200  0.49995500  0.99997900  1
  Sb  Sb1  1  0.99994100  0.00004500  0.25000400  1
  Sb  Sb2  1  0.50013400  0.49997700  0.50002100  1
  Sb  Sb3  1  0.99996500  0.00000700  0.74999600  1
  O  O0  1  0.00000000  0.99999800  0.12589400  1
  O  O1  1  0.49994400  0.50006900  0.37592500  1
  O  O2  1  0.00012500  0.00003700  0.62590800  1
  O  O3  1  0.49999600  0.50001000  0.87589100  1
  O  O4  1  0.49997600  0.50004800  0.12408800  1
  O  O5  1  0.00008800  0.00005200  0.37411200  1
  O  O6  1  0.49997300  0.50001300  0.62411300  1
  O  O7  1  0.00002500  0.99996600  0.87408300  1
  O  O8  1  0.20821500  0.29550100  0.99995800  1
  O  O9  1  0.70809100  0.79563800  0.25002700  1
  O  O10  1  0.20844700  0.29541000  0.50001000  1
  O  O11  1  0.70833300  0.79536700  0.74999600  1
  O  O12  1  0.79180700  0.70438400  0.99995300  1
  O  O13  1  0.29172500  0.20450900  0.25001200  1
  O  O14  1  0.79177200  0.70463000  0.50002000  1
  O  O15  1  0.29161900  0.20460200  0.75001800  1
  O  O16  1  0.70449700  0.20817600  0.99995900  1
  O  O17  1  0.20434300  0.70823600  0.25001600  1
  O  O18  1  0.70476600  0.20834800  0.50001100  1
  O  O19  1  0.20457800  0.70836600  0.75001000  1
  O  O20  1  0.29560400  0.79177800  0.99995300  1
  O  O21  1  0.79547200  0.29186900  0.25002300  1
  O  O22  1  0.29554600  0.79167000  0.50001700  1
  O  O23  1  0.79533600  0.29165500  0.75000400  1
loop_
_geom_bond_atom_site_label_1
_geom_bond_atom_site_label_2
_geom_bond_distance
_geom_bond_site_symmetry_2
Cr0 O22 2.028720 1_555
Cr0 O14 2.029028 1_455
Cr0 O10 2.030155 1_565
Cr0 O18 2.030384 1_465
Cr0 O2 2.036789 1_565
Cr0 O5 2.037469 1_565
Cr1 O15 2.028355 1_555
Cr1 O19 2.028736 1_555
Cr1 O23 2.030374 1_555
Cr1 O11 2.030885 1_555
Cr1 O6 2.036676 1_555
Cr1 O3 2.037291 1_555
Cr2 O20 2.029208 1_555
Cr2 O12 2.029654 1_455
Cr2 O8 2.030211 1_565
Cr2 O16 2.030491 1_465
Cr2 O7 2.036352 1_555
Cr2 O0 2.038148 1_556
Cr3 O17 2.028613 1_555
Cr3 O13 2.028962 1_555
Cr3 O9 2.030824 1_555
Cr3 O21 2.031086 1_555
Cr3 O1 2.036935 1_555
Cr3 O4 2.037987 1_555
O0 Sb1 2.008197 1_465
O0 Sr4 2.807306 1_565
O0 Sr4 2.807430 1_465
O0 Sr0 2.807434 1_465
O0 Sr0 2.807546 1_455
O1 Sb2 2.007971 1_555
O1 Sr5 2.807097 1_455
O1 Sr1 2.807483 1_565
O1 Sr1 2.807495 1_555
O1 Sr5 2.807636 1_555
O2 Sb3 2.007841 1_455
O2 Sr6 2.807081 1_555
O2 Sr2 2.807242 1_555
O2 Sr6 2.807654 1_455
O2 Sr2 2.807737 1_545
O3 Sb0 2.007841 1_555
O3 Sr7 2.807151 1_555
O3 Sr3 2.807329 1_555
O3 Sr7 2.807589 1_455
O3 Sr3 2.807655 1_545
O4 Sb0 2.008181 1_554
O4 Sr0 2.807093 1_555
O4 Sr4 2.807384 1_565
O4 Sr4 2.807597 1_555
O4 Sr0 2.807643 1_455
O5 Sb1 2.008165 1_455
O5 Sr1 2.807044 1_555
O5 Sr5 2.807279 1_455
O5 Sr1 2.807695 1_455
O5 Sr5 2.807705 1_445
O6 Sb2 2.007906 1_555
O6 Sr2 2.807109 1_555
O6 Sr6 2.807422 1_555
O6 Sr6 2.807557 1_565
O6 Sr2 2.807626 1_655
O7 Sb3 2.007825 1_465
O7 Sr3 2.807327 1_455
O7 Sr3 2.807406 1_555
O7 Sr7 2.807449 1_455
O7 Sr7 2.807528 1_465
O8 Sb0 2.000563 1_555
O8 Sr7 2.603038 1_455
O8 Sr0 2.603674 1_456
O8 Sr3 3.086775 1_545
O8 Sr4 3.086963 1_556
O9 Sb1 2.000610 1_565
O9 Sr1 2.602646 1_565
O9 Sr4 2.602960 1_565
O9 Sr5 3.087536 1_555
O9 Sr0 3.087670 1_555
O10 Sb2 2.000376 1_555
O10 Sr5 2.603611 1_455
O10 Sr2 2.603825 1_555
O10 Sr1 3.085339 1_555
O10 Sr6 3.085881 1_555
O11 Sb3 2.000359 1_565
O11 Sr3 2.603204 1_555
O11 Sr6 2.603426 1_565
O11 Sr7 3.085581 1_555
O11 Sr2 3.085881 1_655
O12 Sb0 2.000382 1_555
O12 Sr7 2.602547 1_555
O12 Sr0 2.603093 1_556
O12 Sr3 3.086835 1_555
O12 Sr4 3.087665 1_566
O13 Sb1 2.000490 1_455
O13 Sr4 2.603395 1_555
O13 Sr1 2.603482 1_555
O13 Sr5 3.086830 1_455
O13 Sr0 3.086886 1_455
O14 Sb2 2.000428 1_555
O14 Sr5 2.603168 1_555
O14 Sr2 2.603381 1_655
O14 Sr6 3.086012 1_565
O14 Sr1 3.086214 1_565
O15 Sb3 2.000315 1_455
O15 Sr3 2.603233 1_545
O15 Sr6 2.603991 1_555
O15 Sr7 3.085387 1_455
O15 Sr2 3.085914 1_555
O16 Sb0 2.000518 1_555
O16 Sr3 2.602888 1_545
O16 Sr4 2.603349 1_556
O16 Sr7 3.086547 1_555
O16 Sr0 3.086973 1_556
O17 Sb1 2.000420 1_465
O17 Sr5 2.602986 1_455
O17 Sr0 2.603278 1_455
O17 Sr4 3.087404 1_565
O17 Sr1 3.087671 1_565
O18 Sb2 2.000334 1_555
O18 Sr1 2.603535 1_555
O18 Sr6 2.603796 1_555
O18 Sr5 3.085238 1_555
O18 Sr2 3.085571 1_655
O19 Sb3 2.000328 1_465
O19 Sr7 2.603256 1_455
O19 Sr2 2.603658 1_555
O19 Sr3 3.085632 1_555
O19 Sr6 3.086319 1_565
O20 Sb0 2.000536 1_555
O20 Sr3 2.602701 1_555
O20 Sr4 2.603422 1_566
O20 Sr7 3.087120 1_455
O20 Sr0 3.087669 1_456
O21 Sb1 2.000705 1_555
O21 Sr0 2.603097 1_555
O21 Sr5 2.603162 1_555
O21 Sr1 3.086717 1_555
O21 Sr4 3.087174 1_555
O22 Sb2 2.000486 1_555
O22 Sr1 2.603244 1_565
O22 Sr6 2.603435 1_565
O22 Sr5 3.086310 1_455
O22 Sr2 3.086381 1_555
O23 Sb3 2.000412 1_555
O23 Sr7 2.603183 1_555
O23 Sr2 2.603761 1_655
O23 Sr3 3.085370 1_545
O23 Sr6 3.085511 1_555
