# generated using pymatgen
data_Li9Mn2Co5O16
_symmetry_space_group_name_H-M   'P 1'
_cell_length_a   2.94197400
_cell_length_b   9.72768629
_cell_length_c   10.12281920
_cell_angle_alpha   85.60808327
_cell_angle_beta   87.53026548
_cell_angle_gamma   83.49603025
_symmetry_Int_Tables_number   1
_chemical_formula_structural   Li9Mn2Co5O16
_chemical_formula_sum   'Li9 Mn2 Co5 O16'
_cell_volume   286.81793346
_cell_formula_units_Z   1
loop_
 _symmetry_equiv_pos_site_id
 _symmetry_equiv_pos_as_xyz
  1  'x, y, z'
loop_
 _atom_site_type_symbol
 _atom_site_label
 _atom_site_symmetry_multiplicity
 _atom_site_fract_x
 _atom_site_fract_y
 _atom_site_fract_z
 _atom_site_occupancy
  Li  Li0  1  0.86790000  0.24717400  0.80812600  1
  Li  Li1  1  0.11862500  0.75955200  0.69086200  1
  Li  Li2  1  0.38233800  0.24784700  0.56075800  1
  Li  Li3  1  0.62298800  0.75392000  0.43869000  1
  Li  Li4  1  0.87957500  0.24643600  0.31311000  1
  Li  Li5  1  0.13023600  0.74666500  0.18959400  1
  Li  Li6  1  0.37876700  0.24929400  0.06468300  1
  Li  Li7  1  0.61217600  0.75557800  0.92987700  1
  Li  Li8  1  0.51424600  0.99139400  0.75144900  1
  Mn  Mn0  1  0.99608300  0.99905600  0.99441100  1
  Mn  Mn1  1  0.25003700  0.50162700  0.37491400  1
  Co  Co0  1  0.24939300  0.49896400  0.87489700  1
  Co  Co1  1  0.75257300  0.49704100  0.62550400  1
  Co  Co2  1  0.00357000  0.00171000  0.50887300  1
  Co  Co3  1  0.48975100  0.00250400  0.25138300  1
  Co  Co4  1  0.74701100  0.50248200  0.12397500  1
  O  O0  1  0.46440400  0.10923800  0.91836800  1
  O  O1  1  0.67893000  0.61366200  0.78374100  1
  O  O2  1  0.94166100  0.11431400  0.63660000  1
  O  O3  1  0.18750100  0.61357300  0.53242000  1
  O  O4  1  0.42367200  0.11065000  0.40365100  1
  O  O5  1  0.65366900  0.62221300  0.28085700  1
  O  O6  1  0.90602300  0.11240700  0.15531400  1
  O  O7  1  0.18077400  0.61421100  0.03561600  1
  O  O8  1  0.31782100  0.38089200  0.71673500  1
  O  O9  1  0.59028400  0.88490700  0.58383400  1
  O  O10  1  0.84669000  0.38242200  0.46873300  1
  O  O11  1  0.08133700  0.89320200  0.34918200  1
  O  O12  1  0.32028500  0.38609300  0.21822400  1
  O  O13  1  0.52569300  0.89554500  0.09178000  1
  O  O14  1  0.82156400  0.38362200  0.96489100  1
  O  O15  1  0.06442200  0.88180400  0.85894500  1
loop_
_geom_bond_atom_site_label_1
_geom_bond_atom_site_label_2
_geom_bond_distance
_geom_bond_site_symmetry_2
Li0 O8 2.097653 1_655
Li0 O0 2.114775 1_555
Li0 O14 2.135790 1_555
Li0 O8 2.152826 1_555
Li0 O2 2.231581 1_555
Li0 O0 2.351905 1_655
Li1 O15 2.139688 1_555
Li1 O9 2.142483 1_455
Li1 O9 2.153522 1_555
Li1 O1 2.162883 1_455
Li1 O3 2.210345 1_555
Li1 O1 2.239307 1_555
Li2 O2 2.024978 1_455
Li2 O8 2.106071 1_555
Li2 O2 2.111008 1_555
Li2 O10 2.130088 1_455
Li2 O10 2.134595 1_555
Li2 O4 2.144033 1_555
Li3 O9 2.009568 1_555
Li3 O5 2.115942 1_555
Li3 O3 2.121016 1_555
Li3 O11 2.143735 1_655
Li3 O11 2.154834 1_555
Li3 O3 2.223983 1_655
Li4 O4 2.119839 1_555
Li4 O10 2.125554 1_555
Li4 O12 2.130994 1_655
Li4 O6 2.131360 1_555
Li4 O4 2.146879 1_655
Li4 O12 2.214849 1_555
Li5 O5 2.054129 1_555
Li5 O7 2.087103 1_555
Li5 O5 2.094384 1_455
Li5 O13 2.119957 1_555
Li5 O11 2.224552 1_555
Li5 O13 2.364256 1_455
Li6 O0 2.076660 1_554
Li6 O12 2.111415 1_555
Li6 O6 2.118629 1_555
Li6 O14 2.120140 1_554
Li6 O6 2.161400 1_455
Li6 O14 2.206906 1_454
Li7 O15 1.986513 1_655
Li7 O15 2.033854 1_555
Li7 O1 2.087836 1_555
Li7 O7 2.168061 1_556
Li7 O13 2.198171 1_556
Li7 O7 2.289717 1_656
Li8 O15 2.022304 1_555
Li8 O9 2.045964 1_555
Li8 O2 2.089085 1_565
Li8 O0 2.104258 1_565
Li8 O15 2.126893 1_655
Li8 O2 2.262431 1_465
Mn0 O15 1.840018 1_655
Mn0 O0 1.938147 1_665
Mn0 O0 1.945665 1_565
Mn0 O13 1.986612 1_556
Mn0 O13 2.009477 1_656
Mn0 O6 2.027480 1_566
Mn1 O10 1.923705 1_455
Mn1 O5 1.933826 1_555
Mn1 O3 1.989245 1_555
Mn1 O12 2.003452 1_555
Mn1 O10 2.200385 1_555
Mn1 O5 2.206231 1_455
Co0 O14 1.933290 1_455
Co0 O1 1.937655 1_555
Co0 O8 2.030902 1_555
Co0 O7 2.035745 1_556
Co0 O1 2.112957 1_455
Co0 O14 2.114260 1_555
Co1 O8 1.957334 1_555
Co1 O3 1.967544 1_655
Co1 O10 2.000372 1_555
Co1 O1 2.022973 1_555
Co1 O8 2.107545 1_655
Co1 O3 2.116848 1_555
Co2 O2 1.748194 1_455
Co2 O9 1.856494 1_445
Co2 O4 1.948197 1_555
Co2 O11 1.988564 1_545
Co2 O9 2.093501 1_545
Co2 O4 2.177684 1_455
Co3 O11 1.892091 1_545
Co3 O6 1.903482 1_555
Co3 O4 1.922647 1_555
Co3 O13 1.980359 1_545
Co3 O6 2.146309 1_455
Co3 O11 2.169739 1_645
Co4 O7 1.917481 1_655
Co4 O12 1.954871 1_555
Co4 O5 2.031556 1_555
Co4 O14 2.043424 1_554
Co4 O7 2.079838 1_555
Co4 O12 2.139447 1_655
