# generated using pymatgen
data_UO4
_symmetry_space_group_name_H-M   'P 1'
_cell_length_a   6.19263585
_cell_length_b   6.19263585
_cell_length_c   6.89093300
_cell_angle_alpha   90.00000000
_cell_angle_beta   90.00000000
_cell_angle_gamma   142.69833859
_symmetry_Int_Tables_number   1
_chemical_formula_structural   UO4
_chemical_formula_sum   'U2 O8'
_cell_volume   160.14373534
_cell_formula_units_Z   2
loop_
 _symmetry_equiv_pos_site_id
 _symmetry_equiv_pos_as_xyz
  1  'x, y, z'
loop_
 _atom_site_type_symbol
 _atom_site_label
 _atom_site_symmetry_multiplicity
 _atom_site_fract_x
 _atom_site_fract_y
 _atom_site_fract_z
 _atom_site_occupancy
  U  U0  1  0.50000000  0.50000000  0.50000000  1
  U  U1  1  0.00000000  0.00000000  0.00000000  1
  O  O0  1  0.65263200  0.34736800  0.53877000  1
  O  O1  1  0.34736800  0.65263200  0.46123000  1
  O  O2  1  0.84736800  0.15263200  0.03877000  1
  O  O3  1  0.15263200  0.84736800  0.96123000  1
  O  O4  1  0.98515900  0.01484100  0.66507900  1
  O  O5  1  0.01484100  0.98515900  0.33492100  1
  O  O6  1  0.51484100  0.48515900  0.16507900  1
  O  O7  1  0.48515900  0.51484100  0.83492100  1
loop_
_geom_bond_atom_site_label_1
_geom_bond_atom_site_label_2
_geom_bond_distance
_geom_bond_site_symmetry_2
O0 U0 1.810930 1_555
O1 U0 1.810930 1_555
O2 U1 1.810930 1_655
O3 U1 1.810930 1_566
O4 U0 2.290491 1_655
O4 U0 2.290491 1_545
O4 U1 2.314480 1_656
O5 U0 2.290491 1_455
O5 U0 2.290491 1_565
O5 U1 2.314480 1_565
O6 U1 2.290491 1_555
O6 U1 2.290491 1_665
O6 U0 2.314480 1_555
O7 U1 2.290491 1_556
O7 U1 2.290491 1_666
O7 U0 2.314480 1_555
