# generated using pymatgen
data_LiCoPO4
_symmetry_space_group_name_H-M   'P 1'
_cell_length_a   4.82148361
_cell_length_b   8.38882148
_cell_length_c   8.49128671
_cell_angle_alpha   99.72020632
_cell_angle_beta   89.86099170
_cell_angle_gamma   73.14874769
_symmetry_Int_Tables_number   1
_chemical_formula_structural   LiCoPO4
_chemical_formula_sum   'Li4 Co4 P4 O16'
_cell_volume   323.49661710
_cell_formula_units_Z   4
loop_
 _symmetry_equiv_pos_site_id
 _symmetry_equiv_pos_as_xyz
  1  'x, y, z'
loop_
 _atom_site_type_symbol
 _atom_site_label
 _atom_site_symmetry_multiplicity
 _atom_site_fract_x
 _atom_site_fract_y
 _atom_site_fract_z
 _atom_site_occupancy
  Li  Li0  1  0.99384200  0.01531000  0.00203700  1
  Li  Li1  1  0.49145700  0.01375200  0.50173500  1
  Li  Li2  1  0.14304200  0.71124500  0.28569000  1
  Li  Li3  1  0.64527800  0.71268600  0.78611600  1
  Co  Co0  1  0.31088600  0.37736200  0.57462000  1
  Co  Co1  1  0.82580600  0.34923300  0.71315800  1
  Co  Co2  1  0.80894100  0.38377400  0.06081400  1
  Co  Co3  1  0.32777800  0.34273900  0.22692600  1
  P  P0  1  0.70504600  0.58916200  0.43046100  1
  P  P1  1  0.20636000  0.59148200  0.93405900  1
  P  P2  1  0.93025400  0.13510400  0.35375600  1
  P  P3  1  0.43183700  0.13732900  0.85733200  1
  O  O0  1  0.02700100  0.94544400  0.32180400  1
  O  O1  1  0.52764300  0.94749500  0.82589600  1
  O  O2  1  0.60894400  0.77896500  0.46163800  1
  O  O3  1  0.10944200  0.78108000  0.96586300  1
  O  O4  1  0.90745700  0.52137100  0.27205900  1
  O  O5  1  0.41204000  0.52537600  0.77589800  1
  O  O6  1  0.19957000  0.20508100  0.37979300  1
  O  O7  1  0.70038000  0.20833700  0.87387400  1
  O  O8  1  0.22939700  0.20505600  0.01568100  1
  O  O9  1  0.72473000  0.20115700  0.51183300  1
  O  O10  1  0.37681700  0.52318400  0.07933100  1
  O  O11  1  0.88280100  0.52341100  0.57570800  1
  O  O12  1  0.43663300  0.51802500  0.41396400  1
  O  O13  1  0.93718600  0.52136100  0.90798700  1
  O  O14  1  0.75985200  0.20344000  0.20848100  1
  O  O15  1  0.25399300  0.20321600  0.71201800  1
loop_
_geom_bond_atom_site_label_1
_geom_bond_atom_site_label_2
_geom_bond_distance
_geom_bond_site_symmetry_2
Li0 O3 1.851027 1_644
Li0 O8 2.196229 1_655
Li0 O14 2.204616 1_555
Li0 O7 2.254449 1_554
Li1 O2 1.855220 1_545
Li1 O9 2.173470 1_555
Li1 O6 2.210765 1_555
Li1 O15 2.236516 1_555
Li2 O0 1.850775 1_555
Li2 O4 2.197272 1_455
Li2 O10 2.203566 1_555
Li2 O12 2.256281 1_555
Li3 O1 1.855384 1_555
Li3 O5 2.172574 1_555
Li3 O13 2.210430 1_555
Li3 O11 2.236645 1_555
Co0 O11 2.071528 1_455
Co0 O5 2.083074 1_555
Co0 O15 2.092099 1_555
Co0 O9 2.114070 1_555
Co0 O12 2.138991 1_555
Co0 O6 2.181800 1_555
Co1 O15 2.071809 1_655
Co1 O9 2.083481 1_555
Co1 O11 2.092784 1_555
Co1 O5 2.113539 1_555
Co1 O7 2.140130 1_555
Co1 O13 2.181170 1_555
Co2 O10 2.063235 1_555
Co2 O13 2.077055 1_554
Co2 O4 2.097224 1_555
Co2 O8 2.131740 1_655
Co2 O7 2.149748 1_554
Co2 O14 2.182531 1_555
Co3 O14 2.062802 1_555
Co3 O6 2.077662 1_555
Co3 O8 2.097312 1_555
Co3 O4 2.130967 1_455
Co3 O12 2.150098 1_555
Co3 O10 2.182800 1_555
O0 P2 1.498631 1_465
O1 P3 1.500002 1_565
O2 P0 1.499763 1_555
O3 P1 1.498144 1_555
O4 P0 1.580671 1_555
O5 P1 1.586756 1_555
O6 P2 1.574513 1_455
O7 P3 1.571875 1_555
O8 P3 1.580368 1_554
O9 P2 1.585792 1_555
O10 P1 1.579845 1_554
O11 P0 1.587651 1_555
O12 P0 1.571932 1_555
O13 P1 1.574609 1_655
O14 P2 1.579866 1_555
O15 P3 1.588684 1_555
