# generated using pymatgen
data_AlCu(WO4)2
_symmetry_space_group_name_H-M   'P 1'
_cell_length_a   5.07215000
_cell_length_b   5.60153257
_cell_length_c   5.72937213
_cell_angle_alpha   109.79236212
_cell_angle_beta   90.73389643
_cell_angle_gamma   113.68036826
_symmetry_Int_Tables_number   1
_chemical_formula_structural   AlCu(WO4)2
_chemical_formula_sum   'Al1 Cu1 W2 O8'
_cell_volume   138.16178683
_cell_formula_units_Z   1
loop_
 _symmetry_equiv_pos_site_id
 _symmetry_equiv_pos_as_xyz
  1  'x, y, z'
loop_
 _atom_site_type_symbol
 _atom_site_label
 _atom_site_symmetry_multiplicity
 _atom_site_fract_x
 _atom_site_fract_y
 _atom_site_fract_z
 _atom_site_occupancy
  Al  Al0  1  0.00000000  0.00000000  0.50000000  1
  Cu  Cu0  1  0.50000000  0.00000000  0.00000000  1
  W  W0  1  0.24871500  0.49844900  0.18390500  1
  W  W1  1  0.75128500  0.50155100  0.81609500  1
  O  O0  1  0.21029900  0.77965400  0.43732100  1
  O  O1  1  0.22446900  0.24112300  0.32405600  1
  O  O2  1  0.15699500  0.70244700  0.96139400  1
  O  O3  1  0.32076600  0.28788200  0.81311800  1
  O  O4  1  0.77553100  0.75887700  0.67594400  1
  O  O5  1  0.78970100  0.22034600  0.56267900  1
  O  O6  1  0.84300500  0.29755300  0.03860600  1
  O  O7  1  0.67923400  0.71211800  0.18688200  1
loop_
_geom_bond_atom_site_label_1
_geom_bond_atom_site_label_2
_geom_bond_distance
_geom_bond_site_symmetry_2
Al0 O5 1.886098 1_455
Al0 O0 1.886098 1_545
Al0 O1 1.962888 1_555
Al0 O4 1.962888 1_445
Al0 O7 2.079515 1_445
Al0 O3 2.079515 1_555
Cu0 O2 1.806925 1_544
Cu0 O6 1.806925 1_555
Cu0 O7 2.625886 1_545
Cu0 O3 2.625886 1_554
O0 W0 1.825424 1_555
O1 W0 1.838903 1_555
O2 W1 1.911948 1_455
O2 W0 2.132093 1_556
O3 W1 2.021629 1_555
O3 W0 2.169554 1_556
O4 W1 1.838903 1_555
O5 W1 1.825424 1_555
O6 W0 1.911948 1_655
O6 W1 2.132093 1_554
O7 W0 2.021629 1_555
O7 W1 2.169554 1_554
