# generated using pymatgen
data_TaFe
_symmetry_space_group_name_H-M   'P 1'
_cell_length_a   4.84727659
_cell_length_b   4.84722404
_cell_length_c   18.10370554
_cell_angle_alpha   82.32013011
_cell_angle_beta   89.99993667
_cell_angle_gamma   120.00026735
_symmetry_Int_Tables_number   1
_chemical_formula_structural   TaFe
_chemical_formula_sum   'Ta13 Fe13'
_cell_volume   363.96067330
_cell_formula_units_Z   13
loop_
 _symmetry_equiv_pos_site_id
 _symmetry_equiv_pos_as_xyz
  1  'x, y, z'
loop_
 _atom_site_type_symbol
 _atom_site_label
 _atom_site_symmetry_multiplicity
 _atom_site_fract_x
 _atom_site_fract_y
 _atom_site_fract_z
 _atom_site_occupancy
  Ta  Ta0  1  0.22645137  0.45290473  0.32057942  1
  Ta  Ta1  1  0.72476245  0.44952791  0.82600746  1
  Ta  Ta2  1  0.27523755  0.55047209  0.17399254  1
  Ta  Ta3  1  0.77354863  0.54709527  0.67942058  1
  Ta  Ta4  1  0.17401096  0.34802292  0.47809308  1
  Ta  Ta5  1  0.67329651  0.34659203  0.98024570  1
  Ta  Ta6  1  0.32670349  0.65340797  0.01975430  1
  Ta  Ta7  1  0.82598904  0.65197708  0.52190692  1
  Ta  Ta8  1  0.58434118  0.16868036  0.24700796  1
  Ta  Ta9  1  0.08234444  0.16468687  0.75299094  1
  Ta  Ta10  1  0.91765556  0.83531313  0.24700906  1
  Ta  Ta11  1  0.41565882  0.83131964  0.75299204  1
  Ta  Ta12  1  0.50000000  -0.00000000  0.50000000  1
  Fe  Fe0  1  0.79584469  0.09168621  0.11117642  1
  Fe  Fe1  1  0.29029682  0.09183723  0.61788587  1
  Fe  Fe2  1  0.29584252  0.09168521  0.11117542  1
  Fe  Fe3  1  0.80154141  0.09183623  0.61788587  1
  Fe  Fe4  1  0.79591895  0.59183690  0.11108224  1
  Fe  Fe5  1  0.29019483  0.58038667  0.61793105  1
  Fe  Fe6  1  0.70970318  0.90816277  0.38211413  1
  Fe  Fe7  1  0.20415531  0.90831379  0.88882358  1
  Fe  Fe8  1  0.19845759  0.90816377  0.38211413  1
  Fe  Fe9  1  0.70415748  0.90831479  0.88882458  1
  Fe  Fe10  1  0.70980517  0.41961333  0.38206895  1
  Fe  Fe11  1  0.20408105  0.40816310  0.88891776  1
  Fe  Fe12  1  0.00000000  -0.00000000  0.00000000  1
loop_
_geom_bond_atom_site_label_1
_geom_bond_atom_site_label_2
_geom_bond_distance
_geom_bond_site_symmetry_2
Ta0 Ta2 2.621979 1_555
Ta0 Ta4 2.817425 1_555
Ta0 Ta10 3.092061 1_445
Ta0 Ta8 3.092244 1_455
Ta0 Ta8 3.092254 1_555
Ta0 Ta10 3.092736 1_455
Ta0 Ta10 3.092738 1_555
Ta0 Ta8 3.093062 1_565
Ta1 Ta3 2.621979 1_555
Ta1 Ta5 2.758838 1_555
Ta1 Ta9 3.087911 1_665
Ta1 Ta11 3.088053 1_555
Ta1 Ta11 3.088059 1_655
Ta1 Ta9 3.088501 1_555
Ta1 Ta9 3.088515 1_655
Ta1 Ta11 3.088791 1_545
Ta2 Ta6 2.758838 1_555
Ta2 Ta8 3.088053 1_555
Ta2 Ta8 3.088059 1_455
Ta2 Ta8 3.088791 1_565
Ta3 Ta7 2.817425 1_555
Ta3 Ta9 3.092061 1_665
Ta3 Ta9 3.092736 1_655
Ta3 Ta9 3.092738 1_555
Ta4 Ta7 2.905773 1_455
Ta4 Ta7 2.905786 1_555
Ta4 Ta7 2.907093 1_445
Ta5 Ta6 2.885955 1_656
Ta5 Ta6 2.885958 1_556
Ta5 Ta6 2.887299 1_546
Ta10 Ta8 2.798399 1_555
Ta10 Ta8 2.798626 1_565
Ta10 Ta8 2.798647 1_665
Ta10 Ta2 3.087911 1_665
Ta10 Ta2 3.088501 1_555
Ta10 Ta2 3.088515 1_655
Ta11 Ta9 2.798399 1_555
Ta11 Ta9 2.798626 1_565
Ta11 Ta9 2.798647 1_665
Ta11 Ta3 3.092244 1_455
Ta11 Ta3 3.092254 1_555
Ta11 Ta3 3.093062 1_565
Ta12 Ta7 2.825379 1_555
Ta12 Ta4 2.825379 1_545
Ta12 Ta4 2.826096 1_655
Ta12 Ta7 2.826096 1_445
Ta12 Ta7 2.826097 1_545
Ta12 Ta4 2.826097 1_555
Fe0 Fe4 2.423290 1_545
Fe0 Fe2 2.423630 1_655
Fe0 Fe2 2.423646 1_555
Fe0 Fe4 2.423935 1_555
Fe0 Fe12 2.430365 1_655
Fe0 Ta2 2.669449 1_545
Fe0 Ta2 2.673341 1_655
Fe0 Ta5 2.729322 1_554
Fe0 Ta10 2.803029 1_545
Fe0 Ta8 2.804497 1_555
Fe0 Ta6 2.921044 1_545
Fe0 Ta6 2.926341 1_655
Fe1 Fe5 2.368465 1_555
Fe1 Fe3 2.369130 1_455
Fe1 Fe3 2.478146 1_555
Fe1 Fe5 2.478759 1_545
Fe1 Ta12 2.548042 1_555
Fe1 Ta3 2.661884 1_555
Fe1 Ta3 2.662162 1_445
Fe1 Ta9 2.776686 1_555
Fe1 Ta11 2.808603 1_545
Fe1 Ta4 2.850360 1_555
Fe1 Ta7 2.970172 1_445
Fe1 Ta7 2.970256 1_555
Fe2 Fe4 2.423289 1_445
Fe2 Fe4 2.423943 1_555
Fe2 Ta2 2.669453 1_545
Fe2 Ta2 2.673347 1_555
Fe2 Ta5 2.729307 1_554
Fe2 Ta10 2.803049 1_445
Fe2 Ta8 2.804518 1_555
Fe2 Ta6 2.921020 1_545
Fe2 Ta6 2.926339 1_555
Fe3 Fe5 2.368476 1_655
Fe3 Fe5 2.478755 1_545
Fe3 Ta12 2.548047 1_555
Fe3 Ta3 2.661882 1_555
Fe3 Ta3 2.662157 1_545
Fe3 Ta9 2.776691 1_655
Fe3 Ta11 2.808609 1_545
Fe3 Ta4 2.850355 1_655
Fe3 Ta7 2.970164 1_545
Fe3 Ta7 2.970258 1_555
Fe4 Ta2 2.672120 1_555
Fe4 Ta2 2.672131 1_655
Fe4 Ta5 2.724485 1_554
Fe4 Ta8 2.803862 1_555
Fe4 Ta10 2.806470 1_555
Fe4 Ta6 2.922765 1_655
Fe4 Ta6 2.922775 1_555
Fe5 Ta12 2.549561 1_565
Fe5 Ta3 2.661714 1_555
Fe5 Ta3 2.661717 1_455
Fe5 Ta9 2.776100 1_555
Fe5 Ta11 2.807671 1_555
Fe5 Ta4 2.849995 1_555
Fe5 Ta7 2.970704 1_555
Fe5 Ta7 2.970714 1_455
Fe6 Fe8 2.369125 1_655
Fe6 Fe8 2.478151 1_555
Fe6 Ta12 2.548042 1_565
Fe6 Ta0 2.661884 1_555
Fe6 Ta0 2.662162 1_665
Fe6 Ta10 2.776686 1_555
Fe6 Ta8 2.808603 1_565
Fe6 Ta7 2.850360 1_555
Fe6 Ta4 2.970172 1_665
Fe6 Ta4 2.970256 1_555
Fe7 Fe9 2.423630 1_455
Fe7 Fe9 2.423646 1_555
Fe7 Ta1 2.669449 1_565
Fe7 Ta1 2.673341 1_455
Fe7 Ta6 2.729322 1_556
Fe7 Ta9 2.803029 1_565
Fe7 Ta11 2.804497 1_555
Fe7 Ta5 2.921044 1_565
Fe7 Ta5 2.926341 1_455
Fe8 Ta12 2.548050 1_565
Fe8 Ta0 2.661885 1_555
Fe8 Ta0 2.662155 1_565
Fe8 Ta10 2.776689 1_455
Fe8 Ta8 2.808611 1_565
Fe8 Ta7 2.850353 1_455
Fe8 Ta4 2.970163 1_565
Fe8 Ta4 2.970260 1_555
Fe9 Ta1 2.669453 1_565
Fe9 Ta1 2.673347 1_555
Fe9 Ta6 2.729307 1_556
Fe9 Ta9 2.803049 1_665
Fe9 Ta11 2.804518 1_555
Fe9 Ta5 2.921020 1_565
Fe9 Ta5 2.926339 1_555
Fe10 Fe6 2.368465 1_555
Fe10 Fe8 2.368473 1_655
Fe10 Fe8 2.478758 1_545
Fe10 Fe6 2.478759 1_545
Fe10 Ta12 2.549561 1_555
Fe10 Ta0 2.661714 1_555
Fe10 Ta0 2.661717 1_655
Fe10 Ta10 2.776100 1_555
Fe10 Ta8 2.807671 1_555
Fe10 Ta7 2.849995 1_555
Fe10 Ta4 2.970704 1_555
Fe10 Ta4 2.970714 1_655
Fe11 Fe9 2.423289 1_445
Fe11 Fe7 2.423290 1_545
Fe11 Fe7 2.423935 1_555
Fe11 Fe9 2.423943 1_555
Fe11 Fe12 2.432369 1_556
Fe11 Ta1 2.672120 1_555
Fe11 Ta1 2.672131 1_455
Fe11 Ta6 2.724485 1_556
Fe11 Ta11 2.803862 1_555
Fe11 Ta9 2.806470 1_555
Fe11 Ta5 2.922765 1_455
Fe11 Ta5 2.922775 1_555
Fe12 Fe2 2.430355 1_555
Fe12 Fe9 2.430355 1_444
Fe12 Fe7 2.430365 1_544
Fe12 Fe4 2.432369 1_445
Fe12 Ta6 2.820289 1_555
Fe12 Ta5 2.820289 1_444
Fe12 Ta5 2.821015 1_454
Fe12 Ta6 2.821015 1_545
Fe12 Ta5 2.821022 1_554
Fe12 Ta6 2.821022 1_445
