# generated using pymatgen
data_Ba2FeMoO6
_symmetry_space_group_name_H-M   'P 1'
_cell_length_a   5.78234494
_cell_length_b   5.79912065
_cell_length_c   10.02277212
_cell_angle_alpha   89.88158347
_cell_angle_beta   106.77982693
_cell_angle_gamma   119.90639363
_symmetry_Int_Tables_number   1
_chemical_formula_structural   Ba2FeMoO6
_chemical_formula_sum   'Ba4 Fe2 Mo2 O12'
_cell_volume   274.82518744
_cell_formula_units_Z   2
loop_
 _symmetry_equiv_pos_site_id
 _symmetry_equiv_pos_as_xyz
  1  'x, y, z'
loop_
 _atom_site_type_symbol
 _atom_site_label
 _atom_site_symmetry_multiplicity
 _atom_site_fract_x
 _atom_site_fract_y
 _atom_site_fract_z
 _atom_site_occupancy
  Ba  Ba0  1  0.74755400  0.37543800  0.12461500  1
  Ba  Ba1  1  0.75288900  0.87524400  0.62571900  1
  Ba  Ba2  1  0.24733700  0.62446000  0.87543900  1
  Ba  Ba3  1  0.25199700  0.12498900  0.37429800  1
  Fe  Fe0  1  0.98918300  0.49943900  0.49988900  1
  Fe  Fe1  1  0.00803400  0.00003100  0.99995900  1
  Mo  Mo0  1  0.49926900  0.24880900  0.74908800  1
  Mo  Mo1  1  0.50134800  0.75112300  0.25090400  1
  O  O0  1  0.74538900  0.62614700  0.87548200  1
  O  O1  1  0.75623400  0.12552400  0.37532500  1
  O  O2  1  0.24369500  0.37379200  0.12446200  1
  O  O3  1  0.25551800  0.87467000  0.62476400  1
  O  O4  1  0.75229600  0.37346300  0.62576800  1
  O  O5  1  0.73550600  0.86997500  0.12932100  1
  O  O6  1  0.26519900  0.37110900  0.62926500  1
  O  O7  1  0.24680700  0.87409000  0.12628800  1
  O  O8  1  0.24715400  0.12575000  0.87395000  1
  O  O9  1  0.26492200  0.62964100  0.37057000  1
  O  O10  1  0.73592000  0.12939700  0.87082900  1
  O  O11  1  0.75374900  0.62691100  0.37406600  1
loop_
_geom_bond_atom_site_label_1
_geom_bond_atom_site_label_2
_geom_bond_distance
_geom_bond_site_symmetry_2
Ba0 O2 2.874072 1_655
Ba0 O11 2.879272 1_555
Ba0 O10 2.886336 1_554
Ba0 O0 2.886880 1_554
Ba0 O7 2.888638 1_655
Ba0 O5 2.897749 1_545
Ba0 O1 2.898587 1_555
Ba0 O8 2.901848 1_554
Ba0 O5 2.904048 1_555
Ba0 O2 2.908296 1_555
Ba0 O7 2.910391 1_545
Ba0 O9 2.925594 1_655
Ba1 O8 2.870154 1_665
Ba1 O3 2.871562 1_555
Ba1 O6 2.887408 1_555
Ba1 O0 2.887984 1_555
Ba1 O4 2.890944 1_565
Ba1 O9 2.893302 1_555
Ba1 O1 2.896589 1_565
Ba1 O4 2.908180 1_555
Ba1 O11 2.909493 1_555
Ba1 O3 2.910812 1_655
Ba1 O6 2.913937 1_665
Ba1 O10 2.918140 1_565
Ba2 O0 2.874919 1_555
Ba2 O4 2.880789 1_455
Ba2 O2 2.885810 1_556
Ba2 O5 2.886211 1_556
Ba2 O8 2.891620 1_555
Ba2 O10 2.895441 1_565
Ba2 O3 2.899171 1_555
Ba2 O7 2.905303 1_556
Ba2 O10 2.906054 1_455
Ba2 O0 2.907451 1_455
Ba2 O8 2.907575 1_565
Ba2 O6 2.927540 1_555
Ba3 O7 2.867958 1_545
Ba3 O1 2.871208 1_455
Ba3 O2 2.887746 1_555
Ba3 O11 2.888152 1_445
Ba3 O9 2.890444 1_555
Ba3 O6 2.892612 1_555
Ba3 O3 2.897321 1_545
Ba3 O4 2.906219 1_555
Ba3 O11 2.910792 1_555
Ba3 O9 2.911160 1_545
Ba3 O1 2.911170 1_555
Ba3 O5 2.917532 1_445
Fe0 O4 1.999475 1_555
Fe0 O11 1.999626 1_555
Fe0 O1 2.050031 1_555
Fe0 O3 2.056675 1_655
Fe0 O6 2.183580 1_655
Fe0 O9 2.186539 1_655
Fe1 O7 2.008769 1_546
Fe1 O8 2.009391 1_555
Fe1 O2 2.048461 1_556
Fe1 O0 2.048832 1_445
Fe1 O10 2.170459 1_455
Fe1 O5 2.173417 1_446
Mo0 O6 1.947400 1_555
Mo0 O10 1.954034 1_555
Mo0 O4 2.043700 1_555
Mo0 O3 2.048040 1_545
Mo0 O8 2.052549 1_555
Mo0 O0 2.069702 1_555
Mo1 O9 1.945930 1_555
Mo1 O5 1.952415 1_555
Mo1 O11 2.043801 1_555
Mo1 O1 2.049503 1_565
Mo1 O7 2.053368 1_555
Mo1 O2 2.069861 1_555
