# generated using pymatgen
data_Ca3V3(CoO6)2
_symmetry_space_group_name_H-M   'P 1'
_cell_length_a   10.89507763
_cell_length_b   10.89507763
_cell_length_c   10.89507763
_cell_angle_alpha   109.47122063
_cell_angle_beta   109.47122063
_cell_angle_gamma   109.47122063
_symmetry_Int_Tables_number   1
_chemical_formula_structural   Ca3V3(CoO6)2
_chemical_formula_sum   'Ca12 V12 Co8 O48'
_cell_volume   995.56379805
_cell_formula_units_Z   4
loop_
 _symmetry_equiv_pos_site_id
 _symmetry_equiv_pos_as_xyz
  1  'x, y, z'
loop_
 _atom_site_type_symbol
 _atom_site_label
 _atom_site_symmetry_multiplicity
 _atom_site_fract_x
 _atom_site_fract_y
 _atom_site_fract_z
 _atom_site_occupancy
  Ca  Ca0  1  0.25000000  0.37500000  0.12500000  1
  Ca  Ca1  1  0.75000000  0.62500000  0.87500000  1
  Ca  Ca2  1  0.75000000  0.12500000  0.37500000  1
  Ca  Ca3  1  0.12500000  0.25000000  0.37500000  1
  Ca  Ca4  1  0.37500000  0.75000000  0.12500000  1
  Ca  Ca5  1  0.25000000  0.87500000  0.62500000  1
  Ca  Ca6  1  0.87500000  0.75000000  0.62500000  1
  Ca  Ca7  1  0.62500000  0.25000000  0.87500000  1
  Ca  Ca8  1  0.37500000  0.12500000  0.25000000  1
  Ca  Ca9  1  0.62500000  0.87500000  0.75000000  1
  Ca  Ca10  1  0.12500000  0.37500000  0.75000000  1
  Ca  Ca11  1  0.87500000  0.62500000  0.25000000  1
  V  V0  1  0.25000000  0.62500000  0.37500000  1
  V  V1  1  0.75000000  0.37500000  0.62500000  1
  V  V2  1  0.75000000  0.87500000  0.12500000  1
  V  V3  1  0.37500000  0.25000000  0.62500000  1
  V  V4  1  0.62500000  0.75000000  0.37500000  1
  V  V5  1  0.25000000  0.12500000  0.87500000  1
  V  V6  1  0.12500000  0.75000000  0.87500000  1
  V  V7  1  0.87500000  0.25000000  0.12500000  1
  V  V8  1  0.62500000  0.37500000  0.25000000  1
  V  V9  1  0.37500000  0.62500000  0.75000000  1
  V  V10  1  0.87500000  0.12500000  0.75000000  1
  V  V11  1  0.12500000  0.87500000  0.25000000  1
  Co  Co0  1  0.00000000  0.00000000  0.00000000  1
  Co  Co1  1  0.50000000  0.00000000  0.50000000  1
  Co  Co2  1  0.00000000  0.50000000  0.50000000  1
  Co  Co3  1  0.50000000  0.00000000  0.00000000  1
  Co  Co4  1  0.50000000  0.50000000  0.00000000  1
  Co  Co5  1  0.50000000  0.50000000  0.50000000  1
  Co  Co6  1  0.00000000  0.00000000  0.50000000  1
  Co  Co7  1  0.00000000  0.50000000  0.00000000  1
  O  O0  1  0.48268700  0.37971900  0.29084800  1
  O  O1  1  0.51731300  0.62028100  0.70915200  1
  O  O2  1  0.58887100  0.19183900  0.20915200  1
  O  O3  1  0.91112900  0.12028100  0.60296800  1
  O  O4  1  0.29084800  0.48268700  0.37971900  1
  O  O5  1  0.30816100  0.91112900  0.29084800  1
  O  O6  1  0.41112900  0.80816100  0.79084800  1
  O  O7  1  0.08887100  0.87971900  0.39703200  1
  O  O8  1  0.70915200  0.51731300  0.62028100  1
  O  O9  1  0.69183900  0.08887100  0.70915200  1
  O  O10  1  0.01731300  0.30816100  0.89703200  1
  O  O11  1  0.20915200  0.58887100  0.19183900  1
  O  O12  1  0.12028100  0.01731300  0.20915200  1
  O  O13  1  0.98268700  0.69183900  0.10296800  1
  O  O14  1  0.79084800  0.41112900  0.80816100  1
  O  O15  1  0.87971900  0.98268700  0.79084800  1
  O  O16  1  0.60296800  0.91112900  0.12028100  1
  O  O17  1  0.19183900  0.48268700  0.60296800  1
  O  O18  1  0.39703200  0.08887100  0.87971900  1
  O  O19  1  0.80816100  0.51731300  0.39703200  1
  O  O20  1  0.89703200  0.01731300  0.30816100  1
  O  O21  1  0.37971900  0.58887100  0.89703200  1
  O  O22  1  0.10296800  0.98268700  0.69183900  1
  O  O23  1  0.62028100  0.41112900  0.10296800  1
  O  O24  1  0.37971900  0.29084800  0.48268700  1
  O  O25  1  0.58887100  0.89703200  0.37971900  1
  O  O26  1  0.62028100  0.70915200  0.51731300  1
  O  O27  1  0.41112900  0.10296800  0.62028100  1
  O  O28  1  0.12028100  0.60296800  0.91112900  1
  O  O29  1  0.01731300  0.20915200  0.12028100  1
  O  O30  1  0.87971900  0.39703200  0.08887100  1
  O  O31  1  0.98268700  0.79084800  0.87971900  1
  O  O32  1  0.30816100  0.89703200  0.01731300  1
  O  O33  1  0.91112900  0.29084800  0.30816100  1
  O  O34  1  0.69183900  0.10296800  0.98268700  1
  O  O35  1  0.08887100  0.70915200  0.69183900  1
  O  O36  1  0.19183900  0.20915200  0.58887100  1
  O  O37  1  0.48268700  0.60296800  0.19183900  1
  O  O38  1  0.80816100  0.79084800  0.41112900  1
  O  O39  1  0.51731300  0.39703200  0.80816100  1
  O  O40  1  0.29084800  0.30816100  0.91112900  1
  O  O41  1  0.70915200  0.69183900  0.08887100  1
  O  O42  1  0.20915200  0.12028100  0.01731300  1
  O  O43  1  0.79084800  0.87971900  0.98268700  1
  O  O44  1  0.89703200  0.37971900  0.58887100  1
  O  O45  1  0.10296800  0.62028100  0.41112900  1
  O  O46  1  0.60296800  0.19183900  0.48268700  1
  O  O47  1  0.39703200  0.80816100  0.51731300  1
loop_
_geom_bond_atom_site_label_1
_geom_bond_atom_site_label_2
_geom_bond_distance
_geom_bond_site_symmetry_2
Ca0 O4 2.435998 1_555
Ca0 O42 2.435998 1_555
Ca0 O40 2.435998 1_554
Ca0 O11 2.435998 1_555
Ca0 O37 2.547915 1_555
Ca0 O29 2.547915 1_555
Ca0 O0 2.547915 1_555
Ca0 O10 2.547915 1_554
Ca1 O41 2.435998 1_556
Ca1 O14 2.435998 1_555
Ca1 O43 2.435998 1_555
Ca1 O8 2.435998 1_555
Ca1 O1 2.547915 1_555
Ca1 O13 2.547915 1_556
Ca1 O39 2.547915 1_555
Ca1 O31 2.547915 1_555
Ca2 O44 2.435998 1_555
Ca2 O16 2.435998 1_545
Ca2 O46 2.435998 1_555
Ca2 O20 2.435998 1_555
Ca2 O3 2.547915 1_555
Ca2 O33 2.547915 1_555
Ca2 O25 2.547915 1_545
Ca2 O2 2.547915 1_555
Ca3 O24 2.435998 1_555
Ca3 O36 2.435998 1_555
Ca3 O29 2.435998 1_555
Ca3 O33 2.435998 1_455
Ca3 O17 2.547915 1_555
Ca3 O12 2.547915 1_555
Ca3 O20 2.547915 1_455
Ca3 O4 2.547915 1_555
Ca4 O25 2.435998 1_555
Ca4 O37 2.435998 1_555
Ca4 O28 2.435998 1_554
Ca4 O32 2.435998 1_555
Ca4 O21 2.547915 1_554
Ca4 O16 2.547915 1_555
Ca4 O11 2.547915 1_555
Ca4 O5 2.547915 1_555
Ca5 O47 2.435998 1_555
Ca5 O22 2.435998 1_555
Ca5 O18 2.435998 1_565
Ca5 O45 2.435998 1_555
Ca5 O27 2.547915 1_565
Ca5 O35 2.547915 1_555
Ca5 O7 2.547915 1_555
Ca5 O6 2.547915 1_555
Ca6 O35 2.435998 1_655
Ca6 O38 2.435998 1_555
Ca6 O26 2.435998 1_555
Ca6 O31 2.435998 1_555
Ca6 O15 2.547915 1_555
Ca6 O22 2.547915 1_655
Ca6 O8 2.547915 1_555
Ca6 O19 2.547915 1_555
Ca7 O39 2.435998 1_555
Ca7 O30 2.435998 1_556
Ca7 O34 2.435998 1_555
Ca7 O27 2.435998 1_555
Ca7 O23 2.547915 1_556
Ca7 O14 2.547915 1_555
Ca7 O9 2.547915 1_555
Ca7 O18 2.547915 1_555
Ca8 O0 2.435998 1_555
Ca8 O12 2.435998 1_555
Ca8 O2 2.435998 1_555
Ca8 O5 2.435998 1_545
Ca8 O46 2.547915 1_555
Ca8 O42 2.547915 1_555
Ca8 O32 2.547915 1_545
Ca8 O24 2.547915 1_555
Ca9 O9 2.435998 1_565
Ca9 O6 2.435998 1_555
Ca9 O15 2.435998 1_555
Ca9 O1 2.435998 1_555
Ca9 O34 2.547915 1_565
Ca9 O26 2.547915 1_555
Ca9 O43 2.547915 1_555
Ca9 O47 2.547915 1_555
Ca10 O21 2.435998 1_555
Ca10 O3 2.435998 1_455
Ca10 O10 2.435998 1_555
Ca10 O17 2.435998 1_555
Ca10 O44 2.547915 1_455
Ca10 O40 2.547915 1_555
Ca10 O28 2.547915 1_555
Ca10 O36 2.547915 1_555
Ca11 O13 2.435998 1_555
Ca11 O19 2.435998 1_555
Ca11 O7 2.435998 1_655
Ca11 O23 2.435998 1_555
Ca11 O45 2.547915 1_655
Ca11 O30 2.547915 1_555
Ca11 O38 2.547915 1_555
Ca11 O41 2.547915 1_555
Co0 O31 2.122113 1_444
Co0 O15 2.122113 1_444
Co0 O43 2.122113 1_444
Co0 O29 2.122113 1_555
Co0 O42 2.122113 1_555
Co0 O12 2.122113 1_555
Co1 O27 2.122113 1_555
Co1 O47 2.122113 1_545
Co1 O46 2.122113 1_555
Co1 O9 2.122113 1_555
Co1 O5 2.122113 1_545
Co1 O25 2.122113 1_545
Co2 O17 2.122113 1_555
Co2 O19 2.122113 1_455
Co2 O45 2.122113 1_555
Co2 O35 2.122113 1_555
Co2 O33 2.122113 1_455
Co2 O44 2.122113 1_455
Co3 O2 2.122113 1_555
Co3 O16 2.122113 1_545
Co3 O34 2.122113 1_554
Co3 O32 2.122113 1_545
Co3 O6 2.122113 1_544
Co3 O18 2.122113 1_554
Co4 O41 2.122113 1_555
Co4 O23 2.122113 1_555
Co4 O40 2.122113 1_554
Co4 O37 2.122113 1_555
Co4 O39 2.122113 1_554
Co4 O21 2.122113 1_554
Co5 O8 2.122113 1_555
Co5 O0 2.122113 1_555
Co5 O24 2.122113 1_555
Co5 O1 2.122113 1_555
Co5 O26 2.122113 1_555
Co5 O4 2.122113 1_555
Co6 O20 2.122113 1_455
Co6 O7 2.122113 1_545
Co6 O3 2.122113 1_455
Co6 O22 2.122113 1_545
Co6 O38 2.122113 1_445
Co6 O36 2.122113 1_555
Co7 O11 2.122113 1_555
Co7 O28 2.122113 1_554
Co7 O13 2.122113 1_455
Co7 O10 2.122113 1_554
Co7 O14 2.122113 1_454
Co7 O30 2.122113 1_455
O0 V8 1.761451 1_555
O1 V9 1.761451 1_555
O2 V8 1.761451 1_555
O3 V10 1.761451 1_555
O4 V0 1.761451 1_555
O5 V11 1.761451 1_555
O6 V9 1.761451 1_555
O7 V11 1.761451 1_555
O8 V1 1.761451 1_555
O9 V10 1.761451 1_555
O10 V10 1.761451 1_455
O11 V0 1.761451 1_555
O12 V11 1.761451 1_545
O13 V11 1.761451 1_655
O14 V1 1.761451 1_555
O15 V10 1.761451 1_565
O16 V2 1.761451 1_555
O17 V9 1.761451 1_555
O18 V5 1.761451 1_555
O19 V8 1.761451 1_555
O20 V2 1.761451 1_545
O21 V9 1.761451 1_555
O22 V5 1.761451 1_565
O23 V8 1.761451 1_555
O24 V3 1.761451 1_555
O25 V4 1.761451 1_555
O26 V4 1.761451 1_555
O27 V3 1.761451 1_555
O28 V6 1.761451 1_555
O29 V7 1.761451 1_455
O30 V7 1.761451 1_555
O31 V6 1.761451 1_655
O32 V6 1.761451 1_554
O33 V7 1.761451 1_555
O34 V7 1.761451 1_556
O35 V6 1.761451 1_555
O36 V3 1.761451 1_555
O37 V4 1.761451 1_555
O38 V4 1.761451 1_555
O39 V3 1.761451 1_555
O40 V5 1.761451 1_555
O41 V2 1.761451 1_555
O42 V5 1.761451 1_554
O43 V2 1.761451 1_556
O44 V1 1.761451 1_555
O45 V0 1.761451 1_555
O46 V1 1.761451 1_555
O47 V0 1.761451 1_555
