# generated using pymatgen
data_Sr2AgPd
_symmetry_space_group_name_H-M   'P 1'
_cell_length_a   11.78417702
_cell_length_b   12.81194919
_cell_length_c   12.81194896
_cell_angle_alpha   61.70280060
_cell_angle_beta   62.61998464
_cell_angle_gamma   62.61998287
_symmetry_Int_Tables_number   1
_chemical_formula_structural   Sr2AgPd
_chemical_formula_sum   'Sr2 Ag1 Pd1'
_cell_volume   1438.18591573
_cell_formula_units_Z   1
loop_
 _symmetry_equiv_pos_site_id
 _symmetry_equiv_pos_as_xyz
  1  'x, y, z'
loop_
 _atom_site_type_symbol
 _atom_site_label
 _atom_site_symmetry_multiplicity
 _atom_site_fract_x
 _atom_site_fract_y
 _atom_site_fract_z
 _atom_site_occupancy
  Sr  Sr0  1  0.76883736  0.00000000  1.00000000  1
  Sr  Sr1  1  0.23116264  1.00000000  0.00000000  1
  Ag  Ag0  1  0.50000000  0.00000000  0.00000000  1
  Pd  Pd0  1  0.00000000  0.00000000  0.00000000  1
loop_
_geom_bond_atom_site_label_1
_geom_bond_atom_site_label_2
_geom_bond_distance
_geom_bond_site_symmetry_2
Ag0 Sr1 3.168027 1_545
Ag0 Sr0 3.168027 1_554
Pd0 Sr0 2.724061 1_454
Pd0 Sr1 2.724061 1_545
