# generated using pymatgen
data_CaHoCr2O6
_symmetry_space_group_name_H-M   'P 1'
_cell_length_a   5.30358500
_cell_length_b   5.53434500
_cell_length_c   7.58341500
_cell_angle_alpha   90.00000000
_cell_angle_beta   90.00000000
_cell_angle_gamma   90.00000000
_symmetry_Int_Tables_number   1
_chemical_formula_structural   CaHoCr2O6
_chemical_formula_sum   'Ca2 Ho2 Cr4 O12'
_cell_volume   222.58740461
_cell_formula_units_Z   2
loop_
 _symmetry_equiv_pos_site_id
 _symmetry_equiv_pos_as_xyz
  1  'x, y, z'
loop_
 _atom_site_type_symbol
 _atom_site_label
 _atom_site_symmetry_multiplicity
 _atom_site_fract_x
 _atom_site_fract_y
 _atom_site_fract_z
 _atom_site_occupancy
  Ca  Ca0  1  0.48748700  0.19780200  0.00000000  1
  Ca  Ca1  1  0.98748700  0.80219800  0.50000000  1
  Ho  Ho0  1  0.01942100  0.68326800  0.00000000  1
  Ho  Ho1  1  0.51942100  0.31673200  0.50000000  1
  Cr  Cr0  1  0.00068400  0.24610100  0.75003900  1
  Cr  Cr1  1  0.00068400  0.24610100  0.24996100  1
  Cr  Cr2  1  0.50068400  0.75389900  0.25003900  1
  Cr  Cr3  1  0.50068400  0.75389900  0.74996100  1
  O  O0  1  0.10724800  0.22044600  0.50000000  1
  O  O1  1  0.19973100  0.94304600  0.80343400  1
  O  O2  1  0.19973100  0.94304600  0.19656600  1
  O  O3  1  0.29799500  0.46204600  0.80073600  1
  O  O4  1  0.29799500  0.46204600  0.19926400  1
  O  O5  1  0.41039800  0.71483300  0.50000000  1
  O  O6  1  0.60724800  0.77955400  0.00000000  1
  O  O7  1  0.69973100  0.05695400  0.30343400  1
  O  O8  1  0.69973100  0.05695400  0.69656600  1
  O  O9  1  0.79799500  0.53795400  0.69926400  1
  O  O10  1  0.79799500  0.53795400  0.30073600  1
  O  O11  1  0.91039800  0.28516700  0.00000000  1
loop_
_geom_bond_atom_site_label_1
_geom_bond_atom_site_label_2
_geom_bond_distance
_geom_bond_site_symmetry_2
Ca0 O11 2.294467 1_555
Ca0 O3 2.330685 1_554
Ca0 O4 2.330685 1_555
Ca0 O6 2.400292 1_545
Ca0 O1 2.557137 1_544
Ca0 O2 2.557137 1_545
Ca0 O8 2.677615 1_554
Ca0 O7 2.677615 1_555
Ca1 O5 2.294467 1_655
Ca1 O10 2.330685 1_555
Ca1 O9 2.330685 1_555
Ca1 O0 2.400292 1_665
Ca1 O7 2.557137 1_565
Ca1 O8 2.557137 1_565
Ca1 O1 2.677615 1_655
Ca1 O2 2.677615 1_655
Ho0 O6 2.250007 1_455
Ho0 O11 2.277838 1_455
Ho0 O2 2.281115 1_555
Ho0 O1 2.281115 1_554
Ho0 O3 2.442379 1_554
Ho0 O4 2.442379 1_555
Ho0 O10 2.688314 1_455
Ho0 O9 2.688314 1_454
Ho1 O0 2.250007 1_555
Ho1 O5 2.277838 1_555
Ho1 O8 2.281115 1_555
Ho1 O7 2.281115 1_555
Ho1 O10 2.442379 1_555
Ho1 O9 2.442379 1_555
Ho1 O4 2.688314 1_555
Ho1 O3 2.688314 1_555
Cr0 O8 1.951376 1_455
Cr0 O11 1.967021 1_456
Cr0 O9 1.978070 1_455
Cr0 O0 1.983674 1_555
Cr0 O3 2.015551 1_555
Cr0 O1 2.022725 1_545
Cr1 O7 1.951376 1_455
Cr1 O11 1.967021 1_455
Cr1 O10 1.978070 1_455
Cr1 O0 1.983674 1_555
Cr1 O4 2.015551 1_555
Cr1 O2 2.022725 1_545
Cr2 O2 1.951376 1_555
Cr2 O5 1.967021 1_555
Cr2 O4 1.978070 1_555
Cr2 O6 1.983674 1_555
Cr2 O10 2.015551 1_555
Cr2 O7 2.022725 1_565
Cr3 O1 1.951376 1_555
Cr3 O5 1.967021 1_555
Cr3 O3 1.978070 1_555
Cr3 O6 1.983674 1_556
Cr3 O9 2.015551 1_555
Cr3 O8 2.022725 1_565
