# generated using pymatgen
data_CrNi2
_symmetry_space_group_name_H-M   'P 1'
_cell_length_a   4.68912064
_cell_length_b   4.68912064
_cell_length_c   4.68912064
_cell_angle_alpha   60.00000000
_cell_angle_beta   60.00000000
_cell_angle_gamma   60.00000000
_symmetry_Int_Tables_number   1
_chemical_formula_structural   CrNi2
_chemical_formula_sum   'Cr2 Ni4'
_cell_volume   72.90531991
_cell_formula_units_Z   2
loop_
 _symmetry_equiv_pos_site_id
 _symmetry_equiv_pos_as_xyz
  1  'x, y, z'
loop_
 _atom_site_type_symbol
 _atom_site_label
 _atom_site_symmetry_multiplicity
 _atom_site_fract_x
 _atom_site_fract_y
 _atom_site_fract_z
 _atom_site_occupancy
  Cr  Cr0  1  0.25000000  0.25000000  0.25000000  1
  Cr  Cr1  1  0.00000000  0.00000000  0.00000000  1
  Ni  Ni0  1  0.62500000  0.62500000  0.12500000  1
  Ni  Ni1  1  0.62500000  0.12500000  0.62500000  1
  Ni  Ni2  1  0.12500000  0.62500000  0.62500000  1
  Ni  Ni3  1  0.62500000  0.62500000  0.62500000  1
loop_
_geom_bond_atom_site_label_1
_geom_bond_atom_site_label_2
_geom_bond_distance
_geom_bond_site_symmetry_2
Cr0 Ni1 2.749241 1_455
Cr0 Ni0 2.749241 1_545
Cr0 Ni0 2.749241 1_455
Cr0 Ni2 2.749241 1_555
Cr0 Ni1 2.749241 1_554
Cr0 Ni2 2.749241 1_545
Cr0 Ni0 2.749241 1_555
Cr0 Ni1 2.749241 1_555
Cr0 Ni3 2.749241 1_545
Cr0 Ni2 2.749241 1_554
Cr0 Ni3 2.749241 1_455
Cr0 Ni3 2.749241 1_554
Cr0 Cr1 2.871488 1_555
Cr0 Cr1 2.871488 1_556
Cr0 Cr1 2.871488 1_565
Cr0 Cr1 2.871488 1_655
Cr1 Ni0 2.749241 1_545
Cr1 Ni0 2.749241 1_455
Cr1 Ni1 2.749241 1_554
Cr1 Ni2 2.749241 1_545
Cr1 Ni3 2.749241 1_445
Cr1 Ni3 2.749241 1_544
Cr1 Ni3 2.749241 1_454
Cr1 Ni1 2.749241 1_455
Cr1 Ni0 2.749241 1_445
Cr1 Ni1 2.749241 1_454
Cr1 Ni2 2.749241 1_554
Cr1 Ni2 2.749241 1_544
Ni0 Ni1 2.344560 1_555
Ni0 Ni1 2.344560 1_564
Ni0 Ni2 2.344560 1_555
Ni0 Ni3 2.344560 1_554
Ni0 Ni3 2.344560 1_555
Ni0 Ni2 2.344560 1_654
Ni1 Ni3 2.344560 1_545
Ni1 Ni2 2.344560 1_645
Ni1 Ni2 2.344560 1_555
Ni1 Ni3 2.344560 1_555
Ni2 Ni3 2.344560 1_455
Ni2 Ni3 2.344560 1_555
