# generated using pymatgen
data_BaReH9
_symmetry_space_group_name_H-M   'P 1'
_cell_length_a   10.06104000
_cell_length_b   3.80886200
_cell_length_c   5.24115699
_cell_angle_alpha   87.31194321
_cell_angle_beta   90.00000000
_cell_angle_gamma   90.00000000
_symmetry_Int_Tables_number   1
_chemical_formula_structural   BaReH9
_chemical_formula_sum   'Ba2 Re2 H18'
_cell_volume   200.62597146
_cell_formula_units_Z   2
loop_
 _symmetry_equiv_pos_site_id
 _symmetry_equiv_pos_as_xyz
  1  'x, y, z'
loop_
 _atom_site_type_symbol
 _atom_site_label
 _atom_site_symmetry_multiplicity
 _atom_site_fract_x
 _atom_site_fract_y
 _atom_site_fract_z
 _atom_site_occupancy
  Ba  Ba0  1  0.00000000  0.00000000  0.00000000  1
  Ba  Ba1  1  0.50000000  0.00000000  0.00000000  1
  Re  Re0  1  0.25000000  0.56557100  0.53050300  1
  Re  Re1  1  0.75000000  0.43442900  0.46949700  1
  H  H0  1  0.25000000  0.60707700  0.84888400  1
  H  H1  1  0.75000000  0.39292300  0.15111600  1
  H  H2  1  0.40525500  0.49683700  0.65551900  1
  H  H3  1  0.90525500  0.50316300  0.34448100  1
  H  H4  1  0.59474500  0.50316300  0.34448100  1
  H  H5  1  0.09474500  0.49683700  0.65551900  1
  H  H6  1  0.25000000  0.13265500  0.99795000  1
  H  H7  1  0.75000000  0.86734500  0.00205000  1
  H  H8  1  0.33686800  0.94469400  0.53835100  1
  H  H9  1  0.83686800  0.05530600  0.46164900  1
  H  H10  1  0.66313200  0.05530600  0.46164900  1
  H  H11  1  0.16313200  0.94469400  0.53835100  1
  H  H12  1  0.25000000  0.01323700  0.12403000  1
  H  H13  1  0.75000000  0.98676300  0.87597000  1
  H  H14  1  0.35968200  0.52033500  0.27453300  1
  H  H15  1  0.85968200  0.47966500  0.72546700  1
  H  H16  1  0.64031800  0.47966500  0.72546700  1
  H  H17  1  0.14031800  0.52033500  0.27453300  1
loop_
_geom_bond_atom_site_label_1
_geom_bond_atom_site_label_2
_geom_bond_distance
_geom_bond_site_symmetry_2
Ba0 H6 2.565430 1_554
Ba0 H7 2.565430 1_445
Ba0 H12 2.598986 1_555
Ba0 H13 2.598986 1_444
Ba0 H17 2.674818 1_545
Ba0 H15 2.674818 1_454
Ba0 H5 2.725629 1_554
Ba0 H3 2.725629 1_445
Ba0 H5 2.857595 1_544
Ba0 H3 2.857595 1_455
Ba0 H17 2.873798 1_555
Ba0 H15 2.873798 1_444
Ba0 H9 2.939442 1_455
Ba0 H11 2.939442 1_544
Ba1 H6 2.565430 1_554
Ba1 H7 2.565430 1_545
Ba1 H13 2.598986 1_544
Ba1 H12 2.598986 1_555
Ba1 H16 2.674818 1_554
Ba1 H14 2.674818 1_545
Ba1 H4 2.725629 1_545
Ba1 H2 2.725629 1_554
Ba1 H4 2.857595 1_555
Ba1 H2 2.857595 1_544
Ba1 H14 2.873798 1_555
Ba1 H16 2.873798 1_544
Ba1 H10 2.939442 1_555
Ba1 H8 2.939442 1_544
H0 Re0 1.683522 1_555
H1 Re1 1.683522 1_555
H2 Re0 1.709298 1_555
H3 Re1 1.709298 1_555
H4 Re1 1.709298 1_555
H5 Re0 1.709298 1_555
H8 Re0 1.690066 1_555
H9 Re1 1.690066 1_555
H10 Re1 1.690066 1_555
H11 Re0 1.690066 1_555
H12 H6 0.784447 1_554
H13 H7 0.784447 1_556
H14 Re0 1.751841 1_555
H15 Re1 1.751841 1_555
H16 Re1 1.751841 1_555
H17 Re0 1.751841 1_555
