# generated using pymatgen
data_ZnW2SO3
_symmetry_space_group_name_H-M   'P 1'
_cell_length_a   7.96717158
_cell_length_b   8.95527019
_cell_length_c   8.49361227
_cell_angle_alpha   92.12117302
_cell_angle_beta   78.53832814
_cell_angle_gamma   74.66799117
_symmetry_Int_Tables_number   1
_chemical_formula_structural   ZnW2SO3
_chemical_formula_sum   'Zn4 W8 S4 O12'
_cell_volume   570.20420930
_cell_formula_units_Z   4
loop_
 _symmetry_equiv_pos_site_id
 _symmetry_equiv_pos_as_xyz
  1  'x, y, z'
loop_
 _atom_site_type_symbol
 _atom_site_label
 _atom_site_symmetry_multiplicity
 _atom_site_fract_x
 _atom_site_fract_y
 _atom_site_fract_z
 _atom_site_occupancy
  Zn  Zn0  1  0.00000000  0.00000000  0.00000000  1
  Zn  Zn1  1  0.50000000  0.50000000  0.50000000  1
  Zn  Zn2  1  0.51287900  0.98891600  0.24971100  1
  Zn  Zn3  1  0.48712100  0.01108400  0.75028900  1
  W  W0  1  0.41621400  0.59000000  0.21421700  1
  W  W1  1  0.58378600  0.41000000  0.78578300  1
  W  W2  1  0.18441300  0.43054000  0.52839400  1
  W  W3  1  0.81558700  0.56946000  0.47160600  1
  W  W4  1  0.73184100  0.28711300  0.08457600  1
  W  W5  1  0.26815900  0.71288700  0.91542400  1
  W  W6  1  0.00394600  0.76725000  0.23623900  1
  W  W7  1  0.99605400  0.23275000  0.76376100  1
  S  S0  1  0.34054600  0.24505400  0.05137000  1
  S  S1  1  0.65945400  0.75494600  0.94863000  1
  S  S2  1  0.73879800  0.08439000  0.46276400  1
  S  S3  1  0.26120200  0.91561000  0.53723600  1
  O  O0  1  0.72526200  0.00226800  0.61817000  1
  O  O1  1  0.27473800  0.99773200  0.38183000  1
  O  O2  1  0.25180700  0.05165500  0.67816000  1
  O  O3  1  0.74819300  0.94834500  0.32184000  1
  O  O4  1  0.27113700  0.10658200  0.05394500  1
  O  O5  1  0.72886300  0.89341800  0.94605500  1
  O  O6  1  0.55223400  0.76704600  0.13241000  1
  O  O7  1  0.44776600  0.23295400  0.86759000  1
  O  O8  1  0.55616700  0.19080000  0.46509700  1
  O  O9  1  0.44383300  0.80920000  0.53490300  1
  O  O10  1  0.50162000  0.19332500  0.14577300  1
  O  O11  1  0.49838000  0.80667500  0.85422700  1
loop_
_geom_bond_atom_site_label_1
_geom_bond_atom_site_label_2
_geom_bond_distance
_geom_bond_site_symmetry_2
W0 Zn1 2.737042 1_555
W1 Zn1 2.737042 1_555
W2 Zn1 2.713700 1_555
W3 Zn1 2.713700 1_555
W4 Zn0 2.835462 1_655
W5 Zn0 2.835462 1_566
W6 Zn0 2.944759 1_565
W7 Zn0 2.944759 1_656
O0 S2 1.533622 1_555
O0 Zn3 1.983268 1_555
O1 S3 1.533622 1_555
O1 Zn2 1.983268 1_555
O2 S3 1.652520 1_545
O2 Zn3 2.033442 1_555
O2 W7 2.210669 1_455
O3 S2 1.652520 1_565
O3 Zn2 2.033442 1_555
O3 W6 2.210669 1_655
O4 S0 1.484538 1_555
O4 Zn0 2.690489 1_555
O5 S1 1.484538 1_555
O5 Zn0 2.690489 1_666
O6 S1 1.608304 1_554
O6 Zn2 2.106797 1_555
O6 W0 2.204972 1_555
O7 S0 1.608304 1_556
O7 Zn3 2.106797 1_555
O7 W1 2.204972 1_555
O8 S2 1.509815 1_555
O8 Zn1 2.680779 1_555
O9 S3 1.509815 1_555
O9 Zn1 2.680779 1_555
O10 S0 1.620632 1_555
O10 Zn2 2.050008 1_545
O10 W4 2.192720 1_555
O11 S1 1.620632 1_555
O11 Zn3 2.050008 1_565
O11 W5 2.192720 1_555
