# generated using pymatgen
data_Ca2Eu(CuO3)2
_symmetry_space_group_name_H-M   'P 1'
_cell_length_a   8.22387589
_cell_length_b   8.22387589
_cell_length_c   6.32678917
_cell_angle_alpha   74.43523092
_cell_angle_beta   74.43523092
_cell_angle_gamma   44.06742307
_symmetry_Int_Tables_number   1
_chemical_formula_structural   Ca2Eu(CuO3)2
_chemical_formula_sum   'Ca4 Eu2 Cu4 O12'
_cell_volume   284.86115724
_cell_formula_units_Z   2
loop_
 _symmetry_equiv_pos_site_id
 _symmetry_equiv_pos_as_xyz
  1  'x, y, z'
loop_
 _atom_site_type_symbol
 _atom_site_label
 _atom_site_symmetry_multiplicity
 _atom_site_fract_x
 _atom_site_fract_y
 _atom_site_fract_z
 _atom_site_occupancy
  Ca  Ca0  1  0.04591100  0.95939300  0.24968700  1
  Ca  Ca1  1  0.95939300  0.04591100  0.74968700  1
  Ca  Ca2  1  0.01098700  0.38988600  0.27654000  1
  Ca  Ca3  1  0.38988600  0.01098700  0.77654000  1
  Eu  Eu0  1  0.98761900  0.60454500  0.72552500  1
  Eu  Eu1  1  0.60454500  0.98761900  0.22552500  1
  Cu  Cu0  1  0.67454600  0.49207800  0.00665300  1
  Cu  Cu1  1  0.49207800  0.67454600  0.50665300  1
  Cu  Cu2  1  0.32349400  0.51012600  0.99408900  1
  Cu  Cu3  1  0.51012600  0.32349400  0.49408900  1
  O  O0  1  0.68366300  0.71149400  0.02529600  1
  O  O1  1  0.71149400  0.68366300  0.52529600  1
  O  O2  1  0.31033400  0.29332400  0.97509600  1
  O  O3  1  0.29332400  0.31033400  0.47509600  1
  O  O4  1  0.34819600  0.72791700  0.97599800  1
  O  O5  1  0.72791700  0.34819600  0.47599800  1
  O  O6  1  0.65158700  0.27203800  0.02514000  1
  O  O7  1  0.27203800  0.65158700  0.52514000  1
  O  O8  1  0.00479100  0.24344300  0.97515300  1
  O  O9  1  0.24344300  0.00479100  0.47515300  1
  O  O10  1  0.99278600  0.76184300  0.02082200  1
  O  O11  1  0.76184300  0.99278600  0.52082200  1
loop_
_geom_bond_atom_site_label_1
_geom_bond_atom_site_label_2
_geom_bond_distance
_geom_bond_site_symmetry_2
Ca0 O4 2.336753 1_554
Ca0 O7 2.347375 1_555
Ca0 O8 2.364462 1_564
Ca0 O11 2.378207 1_455
Ca0 O9 2.685908 1_565
Ca0 O5 2.746638 1_465
Ca0 O10 2.747521 1_455
Ca0 O6 2.770468 1_465
Ca1 O5 2.336753 1_555
Ca1 O6 2.347375 1_556
Ca1 O9 2.364462 1_655
Ca1 O10 2.378207 1_546
Ca1 O8 2.685908 1_655
Ca1 O4 2.746638 1_645
Ca1 O11 2.747521 1_545
Ca1 O7 2.770468 1_645
Ca2 O9 2.390925 1_555
Ca2 O1 2.406105 1_455
Ca2 O2 2.410840 1_554
Ca2 O3 2.517674 1_555
Ca2 O8 2.541979 1_554
Ca2 O5 2.543135 1_455
Ca2 O0 2.564582 1_455
Ca2 O10 2.968680 1_455
Ca3 O8 2.390925 1_555
Ca3 O0 2.406105 1_546
Ca3 O3 2.410840 1_555
Ca3 O2 2.517674 1_555
Ca3 O9 2.541979 1_555
Ca3 O4 2.543135 1_545
Ca3 O1 2.564582 1_545
Ca3 O11 2.968680 1_545
Eu0 O0 2.410528 1_556
Eu0 O3 2.421437 1_655
Eu0 O11 2.423061 1_555
Eu0 O1 2.482529 1_555
Eu0 O2 2.531048 1_655
Eu0 O10 2.565983 1_556
Eu0 O7 2.583365 1_655
Eu0 O8 2.886728 1_655
Eu1 O1 2.410528 1_555
Eu1 O2 2.421437 1_564
Eu1 O10 2.423061 1_555
Eu1 O0 2.482529 1_555
Eu1 O3 2.531048 1_565
Eu1 O11 2.565983 1_555
Eu1 O6 2.583365 1_565
Eu1 O9 2.886728 1_565
Cu0 O8 1.882724 1_654
Cu0 O0 1.894455 1_555
Cu0 O4 1.897248 1_554
Cu0 O6 1.920801 1_555
Cu1 O9 1.882724 1_565
Cu1 O1 1.894455 1_555
Cu1 O5 1.897248 1_555
Cu1 O7 1.920801 1_555
Cu2 O10 1.887087 1_456
Cu2 O2 1.898506 1_555
Cu2 O6 1.907526 1_556
Cu2 O4 1.913827 1_555
Cu3 O11 1.887087 1_545
Cu3 O3 1.898506 1_555
Cu3 O7 1.907526 1_555
Cu3 O5 1.913827 1_555
