# generated using pymatgen
data_FeSb4C6(O3F11)2
_symmetry_space_group_name_H-M   'P 1'
_cell_length_a   9.94407803
_cell_length_b   10.81472223
_cell_length_c   12.68030600
_cell_angle_alpha   90.00000000
_cell_angle_beta   90.00000000
_cell_angle_gamma   110.49285288
_symmetry_Int_Tables_number   1
_chemical_formula_structural   FeSb4C6(O3F11)2
_chemical_formula_sum   'Fe2 Sb8 C12 O12 F44'
_cell_volume   1277.37232834
_cell_formula_units_Z   2
loop_
 _symmetry_equiv_pos_site_id
 _symmetry_equiv_pos_as_xyz
  1  'x, y, z'
loop_
 _atom_site_type_symbol
 _atom_site_label
 _atom_site_symmetry_multiplicity
 _atom_site_fract_x
 _atom_site_fract_y
 _atom_site_fract_z
 _atom_site_occupancy
  Fe  Fe0  1  0.50000000  0.50000000  0.50000000  1
  Fe  Fe1  1  0.00000000  0.00000000  0.00000000  1
  Sb  Sb0  1  0.48460600  0.72406600  0.86765800  1
  Sb  Sb1  1  0.51539400  0.27593400  0.13234200  1
  Sb  Sb2  1  0.01539400  0.77593400  0.36765800  1
  Sb  Sb3  1  0.98460600  0.22406600  0.63234200  1
  Sb  Sb4  1  0.90147100  0.50245400  0.79785800  1
  Sb  Sb5  1  0.59852900  0.99754600  0.29785800  1
  Sb  Sb6  1  0.09853000  0.49754600  0.20214200  1
  Sb  Sb7  1  0.40147100  0.00245400  0.70214200  1
  C  C0  1  0.86490800  0.83488000  0.04990500  1
  C  C1  1  0.97828900  0.93097100  0.85845900  1
  C  C2  1  0.52171100  0.56902900  0.35845900  1
  C  C3  1  0.02171100  0.06902900  0.14154100  1
  C  C4  1  0.47828900  0.43097100  0.64154200  1
  C  C5  1  0.15280400  0.93239200  0.02156300  1
  C  C6  1  0.34719600  0.56760800  0.52156300  1
  C  C7  1  0.84719600  0.06760900  0.97843700  1
  C  C8  1  0.36490700  0.33488000  0.45009500  1
  C  C9  1  0.13509300  0.16512000  0.95009500  1
  C  C10  1  0.63509300  0.66512000  0.54990500  1
  C  C11  1  0.65280400  0.43239200  0.47843700  1
  O  O0  1  0.28526600  0.23723600  0.42182900  1
  O  O1  1  0.24094700  0.88931700  0.03111700  1
  O  O2  1  0.25905200  0.61068300  0.53111700  1
  O  O3  1  0.75905200  0.11068300  0.96888300  1
  O  O4  1  0.74094700  0.38931700  0.46888300  1
  O  O5  1  0.78526600  0.73723600  0.07817100  1
  O  O6  1  0.71473300  0.76276400  0.57817100  1
  O  O7  1  0.21473400  0.26276400  0.92182900  1
  O  O8  1  0.03258100  0.11232600  0.22388800  1
  O  O9  1  0.46742000  0.38767500  0.72388800  1
  O  O10  1  0.53258100  0.61232600  0.27611200  1
  O  O11  1  0.96742000  0.88767500  0.77611200  1
  F  F0  1  0.57279400  0.10444100  0.77153000  1
  F  F1  1  0.92720600  0.39556000  0.27152900  1
  F  F2  1  0.42720600  0.89555900  0.22847000  1
  F  F3  1  0.07279400  0.60444100  0.72847000  1
  F  F4  1  0.29205800  0.05624400  0.80616100  1
  F  F5  1  0.20794200  0.44375600  0.30616100  1
  F  F6  1  0.70794300  0.94375700  0.19383900  1
  F  F7  1  0.79205700  0.55624300  0.69383900  1
  F  F8  1  0.56849600  0.59909700  0.90877600  1
  F  F9  1  0.93150400  0.90090300  0.40877600  1
  F  F10  1  0.43150400  0.40090200  0.09122300  1
  F  F11  1  0.06849500  0.09909700  0.59122300  1
  F  F12  1  0.45126100  0.65430100  0.72650800  1
  F  F13  1  0.04874000  0.84569900  0.22650800  1
  F  F14  1  0.54874000  0.34570000  0.27349200  1
  F  F15  1  0.00119600  0.42033600  0.88452000  1
  F  F16  1  0.66557700  0.84616600  0.82030700  1
  F  F17  1  0.83442200  0.65383500  0.32030700  1
  F  F18  1  0.33442300  0.15383500  0.17969300  1
  F  F19  1  0.16557700  0.34616500  0.67969300  1
  F  F20  1  0.51951600  0.81758500  0.99750900  1
  F  F21  1  0.98048300  0.68241600  0.49750900  1
  F  F22  1  0.48048400  0.18241600  0.00249100  1
  F  F23  1  0.01951600  0.31758400  0.50249100  1
  F  F24  1  0.29571600  0.62043000  0.90714300  1
  F  F25  1  0.49880400  0.07966400  0.38452000  1
  F  F26  1  0.70428400  0.37957000  0.09285700  1
  F  F27  1  0.79571600  0.12043100  0.59285700  1
  F  F28  1  0.99880300  0.57966400  0.11547900  1
  F  F29  1  0.50119600  0.92033600  0.61547900  1
  F  F30  1  0.72504400  0.38231800  0.84821400  1
  F  F31  1  0.77495600  0.11768100  0.34821400  1
  F  F32  1  0.27495600  0.61768100  0.15178600  1
  F  F33  1  0.22504500  0.88231900  0.65178600  1
  F  F34  1  0.91100600  0.64218700  0.89254800  1
  F  F35  1  0.58899400  0.85781300  0.39254800  1
  F  F36  1  0.08899400  0.35781300  0.10745200  1
  F  F37  1  0.41100600  0.14218700  0.60745200  1
  F  F38  1  0.89342900  0.35777300  0.68411600  1
  F  F39  1  0.60657100  0.14222700  0.18411600  1
  F  F40  1  0.10657000  0.64222700  0.31588400  1
  F  F41  1  0.39342900  0.85777300  0.81588400  1
  F  F42  1  0.20428400  0.87956900  0.40714300  1
  F  F43  1  0.95126000  0.15430100  0.77349200  1
loop_
_geom_bond_atom_site_label_1
_geom_bond_atom_site_label_2
_geom_bond_distance
_geom_bond_site_symmetry_2
C0 O5 1.133679 1_555
C0 Fe1 1.927238 1_665
C1 O11 1.133937 1_555
C1 Fe1 1.926737 1_666
C2 O10 1.133941 1_555
C2 Fe0 1.926737 1_555
C3 O8 1.133941 1_555
C3 Fe1 1.926737 1_555
C4 O9 1.133925 1_555
C4 Fe0 1.926748 1_555
C5 O1 1.133946 1_555
C5 Fe1 1.922530 1_565
C6 O2 1.133955 1_555
C6 Fe0 1.922530 1_555
C7 O3 1.133948 1_555
C7 Fe1 1.922537 1_656
C8 O0 1.133675 1_555
C8 Fe0 1.927242 1_555
C9 O7 1.133675 1_555
C9 Fe1 1.927242 1_556
C10 O6 1.133672 1_555
C10 Fe0 1.927242 1_555
C11 O4 1.133946 1_555
C11 Fe0 1.922530 1_555
F0 Sb7 1.891406 1_555
F1 Sb6 1.891405 1_655
F2 Sb5 1.891406 1_555
F3 Sb4 1.891406 1_455
F4 Sb7 1.924857 1_555
F5 Sb6 1.924850 1_555
F6 Sb5 1.924858 1_555
F7 Sb4 1.924858 1_555
F8 Sb0 1.893073 1_555
F9 Sb2 1.893073 1_655
F10 Sb1 1.893067 1_555
F11 Sb3 1.893070 1_455
F12 Sb0 1.925489 1_555
F13 Sb2 1.925489 1_555
F14 Sb1 1.925493 1_555
F15 Sb4 1.896400 1_455
F16 Sb0 1.918031 1_555
F17 Sb2 1.918034 1_655
F18 Sb1 1.918027 1_555
F19 Sb3 1.918027 1_455
F20 Sb0 1.899658 1_555
F21 Sb2 1.899653 1_655
F22 Sb1 1.899653 1_555
F23 Sb3 1.899653 1_455
F24 Sb0 1.887053 1_555
F25 Sb5 1.896400 1_545
F26 Sb1 1.887053 1_555
F27 Sb3 1.887051 1_555
F28 Sb6 1.896421 1_655
F29 Sb7 1.896407 1_565
F30 Sb4 1.891477 1_555
F31 Sb5 1.891474 1_545
F32 Sb6 1.891467 1_555
F33 Sb7 1.891467 1_565
F34 Sb4 1.906302 1_555
F35 Sb5 1.906302 1_555
F36 Sb6 1.906300 1_555
F37 Sb7 1.906302 1_555
F38 Sb3 2.064451 1_555
F38 Sb4 2.108839 1_555
F39 Sb1 2.064451 1_555
F39 Sb5 2.108839 1_545
F40 Sb2 2.064444 1_555
F40 Sb6 2.108844 1_555
F41 Sb0 2.064451 1_555
F41 Sb7 2.108839 1_565
F42 Sb2 1.887051 1_555
F43 Sb3 1.925489 1_555
