# generated using pymatgen
data_Sm2Co12P7
_symmetry_space_group_name_H-M   'P 1'
_cell_length_a   9.07440230
_cell_length_b   9.07440230
_cell_length_c   3.62334100
_cell_angle_alpha   90.00000000
_cell_angle_beta   90.00000000
_cell_angle_gamma   120.00000217
_symmetry_Int_Tables_number   1
_chemical_formula_structural   Sm2Co12P7
_chemical_formula_sum   'Sm2 Co12 P7'
_cell_volume   258.39011105
_cell_formula_units_Z   1
loop_
 _symmetry_equiv_pos_site_id
 _symmetry_equiv_pos_as_xyz
  1  'x, y, z'
loop_
 _atom_site_type_symbol
 _atom_site_label
 _atom_site_symmetry_multiplicity
 _atom_site_fract_x
 _atom_site_fract_y
 _atom_site_fract_z
 _atom_site_occupancy
  Sm  Sm0  1  0.33333300  0.66666700  0.50000000  1
  Sm  Sm1  1  0.00000000  0.00000000  0.00000000  1
  Co  Co0  1  0.09944600  0.39190900  0.00000000  1
  Co  Co1  1  0.60809100  0.70753700  0.00000000  1
  Co  Co2  1  0.29246300  0.90055400  0.00000000  1
  Co  Co3  1  0.04848300  0.76643000  0.50000000  1
  Co  Co4  1  0.23357000  0.28205300  0.50000000  1
  Co  Co5  1  0.71794700  0.95151700  0.50000000  1
  Co  Co6  1  0.81825000  0.60426000  0.00000000  1
  Co  Co7  1  0.39574000  0.21399000  0.00000000  1
  Co  Co8  1  0.78601000  0.18175000  0.00000000  1
  Co  Co9  1  0.89889000  0.43613200  0.50000000  1
  Co  Co10  1  0.56386800  0.46275800  0.50000000  1
  Co  Co11  1  0.53724200  0.10111000  0.50000000  1
  P  P0  1  0.77433500  0.73245600  0.50000000  1
  P  P1  1  0.26754400  0.04187900  0.50000000  1
  P  P2  1  0.95812100  0.22566500  0.50000000  1
  P  P3  1  0.66666700  0.33333300  0.00000000  1
  P  P4  1  0.07000100  0.62717300  0.00000000  1
  P  P5  1  0.37282700  0.44282800  0.00000000  1
  P  P6  1  0.55717200  0.92999900  0.00000000  1
loop_
_geom_bond_atom_site_label_1
_geom_bond_atom_site_label_2
_geom_bond_distance
_geom_bond_site_symmetry_2
Co0 P4 2.280250 1_555
Co0 P5 2.285050 1_555
Co0 P2 2.295196 1_455
Co0 P2 2.295196 1_454
Co0 Sm0 2.951503 1_554
Co0 Sm0 2.951503 1_555
Co0 Sm1 3.201971 1_555
Co1 P5 2.280249 1_555
Co1 P6 2.285050 1_555
Co1 P0 2.295196 1_555
Co1 P0 2.295196 1_554
Co1 Sm0 2.951505 1_555
Co1 Sm0 2.951505 1_554
Co1 Sm1 3.201970 1_665
Co2 P6 2.280250 1_555
Co2 P4 2.285050 1_555
Co2 P1 2.295196 1_565
Co2 P1 2.295196 1_564
Co2 Sm0 2.951498 1_554
Co2 Sm0 2.951498 1_555
Co2 Sm1 3.201971 1_565
Co3 P4 2.272421 1_556
Co3 P4 2.272421 1_555
Co3 P1 2.287033 1_565
Co3 P0 2.348806 1_455
Co3 Sm1 2.983372 1_566
Co3 Sm1 2.983372 1_565
Co4 P5 2.272421 1_556
Co4 P5 2.272421 1_555
Co4 P2 2.287033 1_455
Co4 P1 2.348806 1_555
Co4 Sm1 2.983372 1_555
Co4 Sm1 2.983372 1_556
Co5 P6 2.272421 1_555
Co5 P6 2.272421 1_556
Co5 P0 2.287033 1_555
Co5 P2 2.348806 1_565
Co5 Sm1 2.983372 1_665
Co5 Sm1 2.983372 1_666
Co6 P3 2.134143 1_555
Co6 P4 2.187951 1_655
Co6 P0 2.292990 1_554
Co6 P0 2.292990 1_555
Co6 Sm1 3.113425 1_665
Co7 P3 2.134143 1_555
Co7 P5 2.187951 1_555
Co7 P1 2.292990 1_554
Co7 P1 2.292990 1_555
Co7 Sm1 3.113425 1_555
Co8 P3 2.134135 1_555
Co8 P6 2.187951 1_545
Co8 P2 2.292990 1_554
Co8 P2 2.292990 1_555
Co8 Sm1 3.113426 1_655
Co9 P2 2.227777 1_555
Co9 P4 2.450846 1_656
Co9 P4 2.450846 1_655
Co9 P3 2.574341 1_555
Co9 P3 2.574341 1_556
Co10 P0 2.227777 1_555
Co10 P5 2.450846 1_556
Co10 P5 2.450846 1_555
Co10 P3 2.574347 1_556
Co10 P3 2.574347 1_555
Co11 P1 2.227777 1_555
Co11 P6 2.450846 1_546
Co11 P6 2.450846 1_545
Co11 P3 2.574341 1_555
Co11 P3 2.574341 1_556
P0 Sm1 2.897958 1_666
P0 Sm1 2.897958 1_665
P1 Sm1 2.897958 1_556
P1 Sm1 2.897958 1_555
P2 Sm1 2.897958 1_655
P2 Sm1 2.897958 1_656
P4 Sm0 2.874769 1_554
P4 Sm0 2.874769 1_555
P5 Sm0 2.874776 1_555
P5 Sm0 2.874776 1_554
P6 Sm0 2.874771 1_555
P6 Sm0 2.874771 1_554
