# generated using pymatgen
data_Ca8Al3
_symmetry_space_group_name_H-M   'P 1'
_cell_length_a   9.47078040
_cell_length_b   9.55446267
_cell_length_c   9.62363170
_cell_angle_alpha   99.08265254
_cell_angle_beta   100.96672002
_cell_angle_gamma   119.70375014
_symmetry_Int_Tables_number   1
_chemical_formula_structural   Ca8Al3
_chemical_formula_sum   'Ca16 Al6'
_cell_volume   709.38460988
_cell_formula_units_Z   2
loop_
 _symmetry_equiv_pos_site_id
 _symmetry_equiv_pos_as_xyz
  1  'x, y, z'
loop_
 _atom_site_type_symbol
 _atom_site_label
 _atom_site_symmetry_multiplicity
 _atom_site_fract_x
 _atom_site_fract_y
 _atom_site_fract_z
 _atom_site_occupancy
  Ca  Ca0  1  0.53189337  0.70095167  0.65002898  1
  Ca  Ca1  1  0.46810663  0.29904833  0.34997102  1
  Ca  Ca2  1  0.07932169  0.23067064  0.10620951  1
  Ca  Ca3  1  0.92067831  0.76932936  0.89379049  1
  Ca  Ca4  1  0.87913809  0.40122985  0.64952027  1
  Ca  Ca5  1  0.12086191  0.59877015  0.35047973  1
  Ca  Ca6  1  0.33247801  0.87760855  0.10935389  1
  Ca  Ca7  1  0.66752199  0.12239145  0.89064611  1
  Ca  Ca8  1  0.95973248  0.06096955  0.66961363  1
  Ca  Ca9  1  0.04026752  0.93903045  0.33038637  1
  Ca  Ca10  1  0.70204145  0.49846262  0.10972071  1
  Ca  Ca11  1  0.29795855  0.50153738  0.89027929  1
  Ca  Ca12  1  0.77474954  0.15270525  0.30023984  1
  Ca  Ca13  1  0.22525046  0.84729475  0.69976016  1
  Ca  Ca14  1  0.54584118  0.71219586  0.29818225  1
  Ca  Ca15  1  0.45415882  0.28780414  0.70181775  1
  Al  Al0  1  -0.00000000  0.50000000  -0.00000000  1
  Al  Al1  1  0.50000000  -0.00000000  0.50000000  1
  Al  Al2  1  0.17293012  0.33708215  0.50026747  1
  Al  Al3  1  0.82706988  0.66291785  0.49973253  1
  Al  Al4  1  0.67604527  0.84066246  0.02652189  1
  Al  Al5  1  0.32395473  0.15933754  0.97347811  1
loop_
_geom_bond_atom_site_label_1
_geom_bond_atom_site_label_2
_geom_bond_distance
_geom_bond_site_symmetry_2
Al0 Ca4 3.167457 1_454
Al0 Ca5 3.167457 1_555
Al0 Ca11 3.189954 1_554
Al0 Ca10 3.189954 1_455
Al0 Ca6 3.212637 1_555
Al0 Ca7 3.212637 1_454
Al0 Ca2 3.268796 1_555
Al0 Ca3 3.268796 1_454
Al1 Ca14 3.367487 1_545
Al1 Ca15 3.367487 1_555
Al1 Ca13 3.409057 1_545
Al1 Ca12 3.409057 1_555
Al1 Ca5 3.508663 1_545
Al1 Ca4 3.508663 1_555
Al1 Ca0 3.511630 1_545
Al1 Ca1 3.511630 1_555
Al1 Ca6 3.538640 1_545
Al1 Ca7 3.538640 1_555
Al2 Ca0 3.249941 1_555
Al2 Ca12 3.257865 1_455
Al2 Ca15 3.262420 1_555
Al2 Ca5 3.265254 1_555
Al2 Ca8 3.320096 1_455
Al2 Ca9 3.351926 1_545
Al2 Ca1 3.523991 1_555
Al2 Ca11 3.544249 1_555
Al2 Ca2 3.579277 1_555
Al2 Ca4 3.621249 1_455
Al3 Ca1 3.249941 1_555
Al3 Ca13 3.257865 1_655
Al3 Ca14 3.262420 1_555
Al3 Ca4 3.265254 1_555
Al3 Ca9 3.320096 1_655
Al3 Ca8 3.351926 1_565
Al3 Ca0 3.523991 1_555
Al3 Ca10 3.544249 1_555
Al3 Ca3 3.579277 1_555
Al3 Ca5 3.621249 1_655
Al4 Ca3 3.143258 1_554
Al4 Ca7 3.201319 1_564
Al4 Ca11 3.227055 1_554
Al4 Ca12 3.243916 1_565
Al4 Ca14 3.256040 1_555
Al4 Ca0 3.399769 1_554
Al4 Ca2 3.597203 1_665
Al4 Ca10 3.597333 1_555
Al4 Ca6 3.658406 1_555
Al4 Ca9 3.662646 1_655
Al5 Ca2 3.143258 1_556
Al5 Ca6 3.201319 1_546
Al5 Ca10 3.227055 1_556
Al5 Ca13 3.243916 1_545
Al5 Ca15 3.256040 1_555
Al5 Ca1 3.399769 1_556
Al5 Ca3 3.597203 1_445
Al5 Ca11 3.597333 1_555
Al5 Ca7 3.658406 1_555
Al5 Ca8 3.662646 1_455
