# generated using pymatgen
data_RbNa2Ge17
_symmetry_space_group_name_H-M   'P 1'
_cell_length_a   10.98525025
_cell_length_b   10.98524892
_cell_length_c   10.98525395
_cell_angle_alpha   60.00084970
_cell_angle_beta   60.00084416
_cell_angle_gamma   60.00084376
_symmetry_Int_Tables_number   1
_chemical_formula_structural   RbNa2Ge17
_chemical_formula_sum   'Rb2 Na4 Ge34'
_cell_volume   937.39641699
_cell_formula_units_Z   2
loop_
 _symmetry_equiv_pos_site_id
 _symmetry_equiv_pos_as_xyz
  1  'x, y, z'
loop_
 _atom_site_type_symbol
 _atom_site_label
 _atom_site_symmetry_multiplicity
 _atom_site_fract_x
 _atom_site_fract_y
 _atom_site_fract_z
 _atom_site_occupancy
  Rb  Rb0  1  0.25000035  0.24999958  0.25000057  1
  Rb  Rb1  1  -0.00000043  0.00000022  -0.00000019  1
  Na  Na0  1  0.12500036  0.62499981  0.62499993  1
  Na  Na1  1  0.62499989  0.62499988  0.12500040  1
  Na  Na2  1  0.62499984  0.12500038  0.62499986  1
  Na  Na3  1  0.62499963  0.62500011  0.62499975  1
  Ge  Ge0  1  0.38967764  0.99559257  0.61913434  1
  Ge  Ge1  1  0.38967752  0.99559406  0.99559354  1
  Ge  Ge2  1  0.61913772  0.99559248  0.99559269  1
  Ge  Ge3  1  0.86032217  0.63086405  0.25440827  1
  Ge  Ge4  1  0.25440813  0.63086126  0.25440820  1
  Ge  Ge5  1  0.63086411  0.25440811  0.86032213  1
  Ge  Ge6  1  0.25440704  0.25440698  0.86032248  1
  Ge  Ge7  1  0.63086423  0.86032202  0.25440820  1
  Ge  Ge8  1  0.86032199  0.25440843  0.63086414  1
  Ge  Ge9  1  0.25440807  0.25440794  0.63086104  1
  Ge  Ge10  1  0.25440715  0.86032279  0.25440704  1
  Ge  Ge11  1  0.61913400  0.99559261  0.38967778  1
  Ge  Ge12  1  0.99559371  0.99559419  0.38967743  1
  Ge  Ge13  1  0.99559248  0.38967795  0.61913421  1
  Ge  Ge14  1  0.99559267  0.61913405  0.38967781  1
  Ge  Ge15  1  0.38967789  0.61913432  0.99559232  1
  Ge  Ge16  1  0.99559276  0.61913766  0.99559282  1
  Ge  Ge17  1  0.86032279  0.25440718  0.25440690  1
  Ge  Ge18  1  0.63086081  0.25440807  0.25440802  1
  Ge  Ge19  1  0.25440831  0.86032204  0.63086407  1
  Ge  Ge20  1  0.40716554  0.77850223  0.40716532  1
  Ge  Ge21  1  0.84283463  0.84283479  0.47149783  1
  Ge  Ge22  1  0.47149764  0.84283488  0.84283463  1
  Ge  Ge23  1  0.84283197  0.84283206  0.84283219  1
  Ge  Ge24  1  0.77850211  0.40716540  0.40716535  1
  Ge  Ge25  1  0.40716793  0.40716797  0.40716814  1
  Ge  Ge26  1  0.40716531  0.40716539  0.77850200  1
  Ge  Ge27  1  0.84283474  0.47149762  0.84283474  1
  Ge  Ge28  1  0.49999942  0.49999940  0.49999939  1
  Ge  Ge29  1  0.75000053  0.75000075  0.75000077  1
  Ge  Ge30  1  0.61913430  0.38967758  0.99559271  1
  Ge  Ge31  1  0.99559252  0.99559278  0.61913774  1
  Ge  Ge32  1  0.25440844  0.63086418  0.86032179  1
  Ge  Ge33  1  0.99559410  0.38967724  0.99559365  1
loop_
_geom_bond_atom_site_label_1
_geom_bond_atom_site_label_2
_geom_bond_distance
_geom_bond_site_symmetry_2
Ge0 Ge22 2.497897 1_555
Ge0 Ge19 2.501592 1_555
Ge0 Ge9 2.501661 1_565
Ge0 Ge11 2.520669 1_555
Ge0 Na2 3.555360 1_565
Ge0 Na3 3.555385 1_555
Ge1 Ge22 2.497859 1_555
Ge1 Ge6 2.501656 1_565
Ge1 Ge10 2.501661 1_556
Ge1 Ge2 2.520664 1_555
Ge1 Na2 3.555406 1_565
Ge1 Na1 3.555409 1_556
Ge2 Ge23 2.497889 1_555
Ge2 Ge5 2.501663 1_565
Ge2 Ge7 2.501663 1_556
Ge2 Na1 3.555378 1_556
Ge2 Na2 3.555382 1_565
Ge3 Ge7 2.520685 1_555
Ge3 Na1 3.555353 1_555
Ge3 Na3 3.555383 1_555
Ge4 Na1 3.555373 1_555
Ge4 Na0 3.555373 1_555
Ge5 Ge8 2.520685 1_555
Ge5 Na2 3.555352 1_555
Ge5 Na3 3.555385 1_555
Ge6 Ge9 2.520681 1_555
Ge6 Na2 3.555401 1_555
Ge6 Na0 3.555401 1_555
Ge7 Na1 3.555352 1_555
Ge7 Na3 3.555381 1_555
Ge8 Na2 3.555353 1_555
Ge8 Na3 3.555382 1_555
Ge9 Na2 3.555374 1_555
Ge9 Na0 3.555375 1_555
Ge10 Ge20 2.497845 1_555
Ge10 Ge12 2.501660 1_455
Ge10 Ge4 2.520680 1_555
Ge10 Na1 3.555402 1_555
Ge10 Na0 3.555404 1_555
Ge11 Ge21 2.497900 1_555
Ge11 Ge7 2.501593 1_555
Ge11 Ge18 2.501663 1_565
Ge11 Na2 3.555361 1_565
Ge11 Na3 3.555386 1_555
Ge12 Ge21 2.497861 1_555
Ge12 Ge17 2.501657 1_565
Ge12 Ge31 2.520665 1_555
Ge12 Na2 3.555406 1_565
Ge12 Na0 3.555411 1_655
Ge13 Ge27 2.497897 1_555
Ge13 Ge8 2.501593 1_555
Ge13 Ge9 2.501664 1_655
Ge13 Ge14 2.520667 1_555
Ge13 Na0 3.555358 1_655
Ge13 Na3 3.555389 1_555
Ge14 Ge21 2.497900 1_555
Ge14 Ge3 2.501593 1_555
Ge14 Ge4 2.501664 1_655
Ge14 Na0 3.555360 1_655
Ge14 Na3 3.555389 1_555
Ge15 Ge22 2.497897 1_555
Ge15 Ge32 2.501593 1_555
Ge15 Ge4 2.501668 1_556
Ge15 Ge30 2.520670 1_555
Ge15 Na1 3.555361 1_556
Ge15 Na3 3.555387 1_555
Ge16 Ge23 2.497893 1_555
Ge16 Ge3 2.501662 1_556
Ge16 Ge32 2.501664 1_655
Ge16 Ge33 2.520668 1_555
Ge16 Na1 3.555381 1_556
Ge16 Na0 3.555383 1_655
Ge17 Ge24 2.497844 1_555
Ge17 Ge33 2.501658 1_554
Ge17 Ge18 2.520686 1_555
Ge17 Na1 3.555401 1_555
Ge17 Na2 3.555405 1_555
Ge18 Ge25 2.497879 1_555
Ge18 Ge30 2.501661 1_554
Ge18 Na1 3.555375 1_555
Ge18 Na2 3.555377 1_555
Ge19 Ge20 2.497881 1_555
Ge19 Ge31 2.501664 1_455
Ge19 Ge32 2.520684 1_555
Ge19 Na0 3.555352 1_555
Ge19 Na3 3.555378 1_555
Ge20 Ge7 2.497880 1_555
Ge20 Ge28 2.498035 1_555
Ge20 Na3 3.457174 1_555
Ge20 Na1 3.457176 1_555
Ge20 Na0 3.457178 1_555
Ge21 Ge29 2.498037 1_555
Ge21 Na2 3.457179 1_565
Ge21 Na0 3.457182 1_655
Ge21 Na3 3.457183 1_555
Ge22 Ge29 2.498036 1_555
Ge22 Na2 3.457180 1_565
Ge22 Na3 3.457183 1_555
Ge22 Na1 3.457183 1_556
Ge23 Ge31 2.497892 1_555
Ge23 Ge29 2.497915 1_555
Ge23 Na1 3.457174 1_556
Ge23 Na2 3.457176 1_565
Ge23 Na0 3.457176 1_655
Ge24 Ge3 2.497881 1_555
Ge24 Ge8 2.497882 1_555
Ge24 Ge28 2.498034 1_555
Ge24 Na2 3.457176 1_555
Ge24 Na1 3.457176 1_555
Ge24 Na3 3.457177 1_555
Ge25 Ge9 2.497879 1_555
Ge25 Ge4 2.497879 1_555
Ge25 Ge28 2.497915 1_555
Ge25 Na0 3.457169 1_555
Ge25 Na2 3.457169 1_555
Ge25 Na1 3.457171 1_555
Ge26 Ge6 2.497845 1_555
Ge26 Ge32 2.497881 1_555
Ge26 Ge5 2.497883 1_555
Ge26 Ge28 2.498034 1_555
Ge26 Na0 3.457175 1_555
Ge26 Na2 3.457175 1_555
Ge26 Na3 3.457177 1_555
Ge27 Ge33 2.497860 1_555
Ge27 Ge30 2.497898 1_555
Ge27 Ge29 2.498038 1_555
Ge27 Na0 3.457181 1_655
Ge27 Na1 3.457182 1_556
Ge27 Na3 3.457186 1_555
Ge28 Na3 3.363522 1_555
Ge28 Na2 3.363559 1_555
Ge28 Na0 3.363560 1_555
Ge28 Na1 3.363560 1_555
Ge29 Na3 3.363534 1_555
Ge29 Na2 3.363564 1_565
Ge29 Na1 3.363566 1_556
Ge29 Na0 3.363566 1_655
Ge30 Ge5 2.501594 1_555
Ge30 Na1 3.555360 1_556
Ge30 Na3 3.555392 1_555
Ge31 Ge8 2.501663 1_565
Ge31 Na2 3.555380 1_565
Ge31 Na0 3.555381 1_655
Ge32 Na0 3.555352 1_555
Ge32 Na3 3.555378 1_555
Ge33 Ge6 2.501656 1_655
Ge33 Na0 3.555407 1_655
Ge33 Na1 3.555410 1_556
