# generated using pymatgen
data_Y6NiBr10
_symmetry_space_group_name_H-M   'P 1'
_cell_length_a   7.26049481
_cell_length_b   9.05444036
_cell_length_c   9.08052964
_cell_angle_alpha   108.18498488
_cell_angle_beta   97.08812128
_cell_angle_gamma   105.58866764
_symmetry_Int_Tables_number   1
_chemical_formula_structural   Y6NiBr10
_chemical_formula_sum   'Y6 Ni1 Br10'
_cell_volume   532.07861402
_cell_formula_units_Z   1
loop_
 _symmetry_equiv_pos_site_id
 _symmetry_equiv_pos_as_xyz
  1  'x, y, z'
loop_
 _atom_site_type_symbol
 _atom_site_label
 _atom_site_symmetry_multiplicity
 _atom_site_fract_x
 _atom_site_fract_y
 _atom_site_fract_z
 _atom_site_occupancy
  Y  Y0  1  0.87728864  0.95570699  0.24588577  1
  Y  Y1  1  0.12271136  0.04429301  0.75411423  1
  Y  Y2  1  0.02817978  0.70302692  0.90663981  1
  Y  Y3  1  0.97182022  0.29697308  0.09336019  1
  Y  Y4  1  0.64165804  0.86552384  0.82277491  1
  Y  Y5  1  0.35834196  0.13447616  0.17722509  1
  Ni  Ni0  1  -0.00000000  -0.00000000  -0.00000000  1
  Br  Br0  1  0.64042859  0.53986065  0.72512196  1
  Br  Br1  1  0.35957141  0.46013935  0.27487804  1
  Br  Br2  1  0.74195727  0.91358299  0.53676056  1
  Br  Br3  1  0.25804273  0.08641701  0.46323944  1
  Br  Br4  1  0.91305434  0.62787169  0.17769085  1
  Br  Br5  1  0.08694566  0.37212831  0.82230915  1
  Br  Br6  1  0.54887568  0.18164628  0.91247085  1
  Br  Br7  1  0.45112432  0.81835372  0.08752915  1
  Br  Br8  1  0.21422824  0.73878899  0.64746860  1
  Br  Br9  1  0.78577176  0.26121101  0.35253140  1
loop_
_geom_bond_atom_site_label_1
_geom_bond_atom_site_label_2
_geom_bond_distance
_geom_bond_site_symmetry_2
Ni0 Y0 2.607242 1_445
Ni0 Y1 2.607242 1_554
Ni0 Y4 2.623447 1_444
Ni0 Y5 2.623447 1_555
Ni0 Y2 2.628027 1_544
Ni0 Y3 2.628027 1_455
Br0 Y4 2.798762 1_555
Br0 Y2 2.815075 1_655
Br1 Y5 2.798762 1_555
Br1 Y3 2.815075 1_455
Br2 Y1 2.894032 1_665
Br2 Y4 2.909771 1_555
Br2 Y0 3.025763 1_555
Br3 Y0 2.894032 1_445
Br3 Y5 2.909771 1_555
Br3 Y1 3.025763 1_555
Br4 Y2 2.909829 1_654
Br4 Y0 2.927240 1_555
Br4 Y3 3.013423 1_555
Br5 Y3 2.909829 1_456
Br5 Y1 2.927240 1_555
Br5 Y2 3.013423 1_555
Br6 Y1 2.984261 1_555
Br6 Y5 3.003328 1_556
Br6 Y4 3.004430 1_545
Br6 Y3 3.029747 1_556
Br7 Y0 2.984261 1_555
Br7 Y4 3.003328 1_554
Br7 Y5 3.004430 1_565
Br7 Y2 3.029747 1_554
Br8 Y2 2.914307 1_555
Br8 Y1 2.916442 1_565
Br8 Y4 3.034521 1_555
Br9 Y3 2.914307 1_555
Br9 Y0 2.916442 1_545
Br9 Y5 3.034521 1_555
