# generated using pymatgen
data_Lu3Mg2TiS8
_symmetry_space_group_name_H-M   'P 1'
_cell_length_a   7.71433884
_cell_length_b   7.62490547
_cell_length_c   7.71377900
_cell_angle_alpha   59.61296959
_cell_angle_beta   60.00156876
_cell_angle_gamma   59.61957066
_symmetry_Int_Tables_number   1
_chemical_formula_structural   Lu3Mg2TiS8
_chemical_formula_sum   'Lu3 Mg2 Ti1 S8'
_cell_volume   318.96792367
_cell_formula_units_Z   1
loop_
 _symmetry_equiv_pos_site_id
 _symmetry_equiv_pos_as_xyz
  1  'x, y, z'
loop_
 _atom_site_type_symbol
 _atom_site_label
 _atom_site_symmetry_multiplicity
 _atom_site_fract_x
 _atom_site_fract_y
 _atom_site_fract_z
 _atom_site_occupancy
  Lu  Lu0  1  0.50000800  0.50001100  0.49997500  1
  Lu  Lu1  1  0.49999900  0.49998900  0.00000300  1
  Lu  Lu2  1  0.99999500  0.49999500  0.50001300  1
  Mg  Mg0  1  0.87516700  0.87444200  0.87523600  1
  Mg  Mg1  1  0.12482200  0.12557200  0.12477600  1
  Ti  Ti0  1  0.50000800  0.00000500  0.49999000  1
  S  S0  1  0.73526800  0.75828000  0.73543100  1
  S  S1  1  0.26473100  0.24173600  0.72896400  1
  S  S2  1  0.25570900  0.73250600  0.25588500  1
  S  S3  1  0.72903300  0.24163700  0.26466200  1
  S  S4  1  0.74427500  0.26749500  0.74410500  1
  S  S5  1  0.27097500  0.75835400  0.73533900  1
  S  S6  1  0.26473900  0.24169900  0.26458500  1
  S  S7  1  0.73527700  0.75827500  0.27103800  1
loop_
_geom_bond_atom_site_label_1
_geom_bond_atom_site_label_2
_geom_bond_distance
_geom_bond_site_symmetry_2
Lu0 S2 2.651737 1_555
Lu0 S4 2.651774 1_555
Lu0 S7 2.680009 1_555
Lu0 S1 2.680095 1_555
Lu0 S3 2.681003 1_555
Lu0 S5 2.681107 1_555
Lu1 S4 2.651747 1_554
Lu1 S2 2.651777 1_555
Lu1 S6 2.680090 1_555
Lu1 S0 2.680137 1_554
Lu1 S5 2.681009 1_554
Lu1 S3 2.681031 1_555
Lu2 S4 2.650627 1_555
Lu2 S2 2.650651 1_655
Lu2 S1 2.681061 1_655
Lu2 S7 2.681087 1_555
Lu2 S0 2.681136 1_555
Lu2 S6 2.681253 1_655
Mg0 S4 2.432735 1_565
Mg0 S7 2.491390 1_556
Mg0 S5 2.491786 1_655
Mg0 S0 2.491840 1_555
Mg1 S2 2.432815 1_545
Mg1 S1 2.491455 1_554
Mg1 S3 2.491672 1_455
Mg1 S6 2.491769 1_555
S0 Ti0 2.552501 1_565
S1 Ti0 2.552518 1_555
S3 Ti0 2.552089 1_555
S5 Ti0 2.552236 1_565
S6 Ti0 2.552354 1_555
S7 Ti0 2.552394 1_565
