# generated using pymatgen
data_Sn3P2(NO5)2
_symmetry_space_group_name_H-M   'P 1'
_cell_length_a   11.23650158
_cell_length_b   11.23650158
_cell_length_c   7.74869000
_cell_angle_alpha   90.00000000
_cell_angle_beta   90.00000000
_cell_angle_gamma   145.19413625
_symmetry_Int_Tables_number   1
_chemical_formula_structural   Sn3P2(NO5)2
_chemical_formula_sum   'Sn6 P4 N4 O20'
_cell_volume   558.43503998
_cell_formula_units_Z   2
loop_
 _symmetry_equiv_pos_site_id
 _symmetry_equiv_pos_as_xyz
  1  'x, y, z'
loop_
 _atom_site_type_symbol
 _atom_site_label
 _atom_site_symmetry_multiplicity
 _atom_site_fract_x
 _atom_site_fract_y
 _atom_site_fract_z
 _atom_site_occupancy
  Sn  Sn0  1  0.89226500  0.10773500  0.95395100  1
  Sn  Sn1  1  0.10773500  0.89226500  0.45395100  1
  Sn  Sn2  1  0.49183700  0.98694200  0.80639500  1
  Sn  Sn3  1  0.01305800  0.50816300  0.80639500  1
  Sn  Sn4  1  0.50816300  0.01305800  0.30639500  1
  Sn  Sn5  1  0.98694200  0.49183700  0.30639500  1
  P  P0  1  0.84682200  0.15317800  0.52840600  1
  P  P1  1  0.15317800  0.84682200  0.02840600  1
  P  P2  1  0.63834900  0.36165100  0.55325800  1
  P  P3  1  0.36165100  0.63834900  0.05325800  1
  N  N0  1  0.36138000  0.29714000  0.90443300  1
  N  N1  1  0.70286000  0.63862000  0.90443300  1
  N  N2  1  0.63862000  0.70286000  0.40443300  1
  N  N3  1  0.29714000  0.36138000  0.40443300  1
  O  O0  1  0.78476300  0.21523700  0.90894200  1
  O  O1  1  0.21523700  0.78476300  0.40894200  1
  O  O2  1  0.89615300  0.10384700  0.66912000  1
  O  O3  1  0.10384700  0.89615300  0.16912000  1
  O  O4  1  0.47324200  0.15850800  0.43862800  1
  O  O5  1  0.84149200  0.52675800  0.43862800  1
  O  O6  1  0.52675800  0.84149200  0.93862800  1
  O  O7  1  0.15850800  0.47324200  0.93862800  1
  O  O8  1  0.60960300  0.00750100  0.55525200  1
  O  O9  1  0.99249900  0.39039700  0.55525200  1
  O  O10  1  0.39039700  0.99249900  0.05525200  1
  O  O11  1  0.00750100  0.60960300  0.05525200  1
  O  O12  1  0.68701300  0.31298700  0.71170900  1
  O  O13  1  0.31298700  0.68701300  0.21170900  1
  O  O14  1  0.86428600  0.13571400  0.34002000  1
  O  O15  1  0.13571400  0.86428600  0.84002000  1
  O  O16  1  0.57167000  0.42833000  0.60177000  1
  O  O17  1  0.42833000  0.57167000  0.10177000  1
  O  O18  1  0.54941700  0.45058300  0.96171000  1
  O  O19  1  0.45058300  0.54941700  0.46171000  1
loop_
_geom_bond_atom_site_label_1
_geom_bond_atom_site_label_2
_geom_bond_distance
_geom_bond_site_symmetry_2
N0 O18 1.285142 1_555
N1 O18 1.285142 1_555
N2 O19 1.285142 1_555
N3 O19 1.285142 1_555
O0 Sn2 2.044505 1_545
O0 Sn3 2.044505 1_655
O0 Sn0 2.331537 1_555
O1 Sn5 2.044505 1_455
O1 Sn4 2.044505 1_565
O1 Sn1 2.331537 1_555
O2 P0 1.519193 1_555
O2 Sn0 2.208641 1_555
O3 P1 1.519193 1_555
O3 Sn1 2.208641 1_555
O4 P2 1.576990 1_555
O4 Sn4 2.219926 1_555
O4 Sn1 2.377937 1_545
O5 P2 1.576990 1_555
O5 Sn5 2.219926 1_555
O5 Sn1 2.377937 1_655
O6 P3 1.576990 1_556
O6 Sn2 2.219926 1_555
O6 Sn0 2.377937 1_565
O7 P3 1.576990 1_556
O7 Sn3 2.219926 1_555
O7 Sn0 2.377937 1_455
O8 P0 1.631729 1_555
O8 Sn2 2.255983 1_545
O8 Sn4 2.266802 1_555
O9 P0 1.631729 1_555
O9 Sn3 2.255983 1_655
O9 Sn5 2.266802 1_555
O10 P1 1.631729 1_555
O10 Sn4 2.255983 1_565
O10 Sn2 2.266802 1_554
O11 P1 1.631729 1_555
O11 Sn5 2.255983 1_455
O11 Sn3 2.266802 1_554
O12 P2 1.611363 1_555
O12 Sn3 2.361280 1_655
O12 Sn2 2.361280 1_545
O13 P3 1.611363 1_555
O13 Sn4 2.361280 1_565
O13 Sn5 2.361280 1_455
O14 P0 1.507019 1_555
O15 P1 1.507019 1_556
O16 P2 1.478470 1_555
O17 P3 1.478470 1_555
