# generated using pymatgen
data_BaTiO3
_symmetry_space_group_name_H-M   'P 1'
_cell_length_a   3.76440197
_cell_length_b   3.76440197
_cell_length_c   8.88149300
_cell_angle_alpha   90.00000000
_cell_angle_beta   90.00000000
_cell_angle_gamma   90.21449600
_symmetry_Int_Tables_number   1
_chemical_formula_structural   BaTiO3
_chemical_formula_sum   'Ba1 Ti1 O3'
_cell_volume   125.85628830
_cell_formula_units_Z   1
loop_
 _symmetry_equiv_pos_site_id
 _symmetry_equiv_pos_as_xyz
  1  'x, y, z'
loop_
 _atom_site_type_symbol
 _atom_site_label
 _atom_site_symmetry_multiplicity
 _atom_site_fract_x
 _atom_site_fract_y
 _atom_site_fract_z
 _atom_site_occupancy
  Ba  Ba0  1  0.98734300  0.01265700  0.00000000  1
  Ti  Ti0  1  0.02831900  0.97168100  0.50000000  1
  O  O0  1  0.48855300  0.51144700  0.00000000  1
  O  O1  1  0.49373700  0.01875200  0.50000000  1
  O  O2  1  0.98124800  0.50626300  0.50000000  1
loop_
_geom_bond_atom_site_label_1
_geom_bond_atom_site_label_2
_geom_bond_distance
_geom_bond_site_symmetry_2
Ba0 O0 2.656855 1_655
Ba0 O0 2.656855 1_545
Ba0 O0 2.660358 1_555
Ba0 O0 2.673266 1_645
O1 Ti0 1.760298 1_545
O1 Ti0 2.020828 1_645
O2 Ti0 1.760298 1_655
O2 Ti0 2.020828 1_645
