# generated using pymatgen
data_Sm9Al5S21
_symmetry_space_group_name_H-M   'P 1'
_cell_length_a   11.57144347
_cell_length_b   11.57144347
_cell_length_c   11.57144336
_cell_angle_alpha   94.62566062
_cell_angle_beta   94.62566059
_cell_angle_gamma   94.62566620
_symmetry_Int_Tables_number   1
_chemical_formula_structural   Sm9Al5S21
_chemical_formula_sum   'Sm18 Al10 S42'
_cell_volume   1533.38611543
_cell_formula_units_Z   2
loop_
 _symmetry_equiv_pos_site_id
 _symmetry_equiv_pos_as_xyz
  1  'x, y, z'
loop_
 _atom_site_type_symbol
 _atom_site_label
 _atom_site_symmetry_multiplicity
 _atom_site_fract_x
 _atom_site_fract_y
 _atom_site_fract_z
 _atom_site_occupancy
  Sm  Sm0  1  0.11527141  0.88161715  0.73907689  1
  Sm  Sm1  1  0.45478503  0.22460550  0.07205696  1
  Sm  Sm2  1  0.76715683  0.55195807  0.39759574  1
  Sm  Sm3  1  0.39759574  0.76715683  0.55195807  1
  Sm  Sm4  1  0.73907689  0.11527141  0.88161715  1
  Sm  Sm5  1  0.07205696  0.45478503  0.22460550  1
  Sm  Sm6  1  0.22460550  0.07205696  0.45478503  1
  Sm  Sm7  1  0.55195807  0.39759574  0.76715683  1
  Sm  Sm8  1  0.88161715  0.73907689  0.11527141  1
  Sm  Sm9  1  0.20778601  0.43419425  0.58466354  1
  Sm  Sm10  1  0.54845481  0.77713323  0.93061011  1
  Sm  Sm11  1  0.87543597  0.10042588  0.24558774  1
  Sm  Sm12  1  0.93061011  0.54845481  0.77713323  1
  Sm  Sm13  1  0.24558774  0.87543597  0.10042588  1
  Sm  Sm14  1  0.58466354  0.20778601  0.43419425  1
  Sm  Sm15  1  0.10042588  0.24558774  0.87543597  1
  Sm  Sm16  1  0.43419425  0.58466354  0.20778601  1
  Sm  Sm17  1  0.77713323  0.93061011  0.54845481  1
  Al  Al0  1  0.72118225  0.38818070  0.04739379  1
  Al  Al1  1  0.04739379  0.72118225  0.38818070  1
  Al  Al2  1  0.38818070  0.04739379  0.72118225  1
  Al  Al3  1  0.88318979  0.22534894  0.54824431  1
  Al  Al4  1  0.22534894  0.54824431  0.88318979  1
  Al  Al5  1  0.54824431  0.88318979  0.22534894  1
  Al  Al6  1  0.85765890  0.85765890  0.85765890  1
  Al  Al7  1  0.17400588  0.17400588  0.17400588  1
  Al  Al8  1  0.67529638  0.67529638  0.67529638  1
  Al  Al9  1  0.35608033  0.35608033  0.35608033  1
  S  S0  1  0.83956885  0.50855610  0.17121865  1
  S  S1  1  0.17121865  0.83956885  0.50855610  1
  S  S2  1  0.50855610  0.17121865  0.83956885  1
  S  S3  1  0.67274307  0.00674145  0.33959716  1
  S  S4  1  0.00674145  0.33959716  0.67274307  1
  S  S5  1  0.33959716  0.67274307  0.00674145  1
  S  S6  1  0.54347252  0.44818583  0.00981652  1
  S  S7  1  0.87141817  0.78430559  0.35587335  1
  S  S8  1  0.20813755  0.10667872  0.69390341  1
  S  S9  1  0.69390341  0.20813755  0.10667872  1
  S  S10  1  0.00981652  0.54347252  0.44818583  1
  S  S11  1  0.35587335  0.87141817  0.78430559  1
  S  S12  1  0.78430559  0.35587335  0.87141817  1
  S  S13  1  0.10667872  0.69390341  0.20813755  1
  S  S14  1  0.44818583  0.00981652  0.54347252  1
  S  S15  1  0.96425335  0.06758700  0.47890633  1
  S  S16  1  0.29856187  0.38653454  0.81386559  1
  S  S17  1  0.62956052  0.72197340  0.16109805  1
  S  S18  1  0.81386559  0.29856187  0.38653454  1
  S  S19  1  0.16109805  0.62956052  0.72197340  1
  S  S20  1  0.47890633  0.96425335  0.06758700  1
  S  S21  1  0.72197340  0.16109805  0.62956052  1
  S  S22  1  0.06758700  0.47890633  0.96425335  1
  S  S23  1  0.38653454  0.81386559  0.29856187  1
  S  S24  1  0.55151301  0.40814239  0.31037339  1
  S  S25  1  0.89087960  0.75960932  0.66719768  1
  S  S26  1  0.23618213  0.09861282  0.00026709  1
  S  S27  1  0.00026709  0.23618213  0.09861282  1
  S  S28  1  0.31037339  0.55151301  0.40814239  1
  S  S29  1  0.66719768  0.89087960  0.75960932  1
  S  S30  1  0.75960932  0.66719768  0.89087960  1
  S  S31  1  0.09861282  0.00026709  0.23618213  1
  S  S32  1  0.40814239  0.31037339  0.55151301  1
  S  S33  1  0.15226319  0.28432251  0.37547914  1
  S  S34  1  0.48978162  0.62281988  0.72590267  1
  S  S35  1  0.79531988  0.94210719  0.03687249  1
  S  S36  1  0.72590267  0.48978162  0.62281988  1
  S  S37  1  0.03687249  0.79531988  0.94210719  1
  S  S38  1  0.37547914  0.15226319  0.28432251  1
  S  S39  1  0.94210719  0.03687249  0.79531988  1
  S  S40  1  0.28432251  0.37547914  0.15226319  1
  S  S41  1  0.62281988  0.72590267  0.48978162  1
loop_
_geom_bond_atom_site_label_1
_geom_bond_atom_site_label_2
_geom_bond_distance
_geom_bond_site_symmetry_2
Al0 S0 2.218918 1_555
Al0 S12 2.231799 1_554
Al0 S6 2.243785 1_555
Al0 S9 2.251669 1_555
Al1 S1 2.218918 1_555
Al1 S7 2.231799 1_455
Al1 S10 2.243784 1_555
Al1 S13 2.251669 1_555
Al2 S2 2.218918 1_555
Al2 S11 2.231799 1_545
Al2 S14 2.243785 1_555
Al2 S8 2.251669 1_555
Al3 S4 2.218755 1_655
Al3 S18 2.232901 1_555
Al3 S15 2.239989 1_555
Al3 S21 2.256214 1_555
Al4 S5 2.218755 1_556
Al4 S16 2.232901 1_555
Al4 S22 2.239988 1_555
Al4 S19 2.256214 1_555
Al5 S3 2.218755 1_565
Al5 S23 2.232901 1_555
Al5 S20 2.239988 1_555
Al5 S17 2.256214 1_555
Al6 S39 2.409118 1_565
Al6 S35 2.409118 1_556
Al6 S37 2.409118 1_655
Al6 S30 2.468996 1_555
Al6 S25 2.468996 1_555
Al6 S29 2.468996 1_555
Al7 S31 2.317783 1_555
Al7 S26 2.317783 1_555
Al7 S27 2.317783 1_555
Al7 S40 2.606596 1_555
Al7 S33 2.606596 1_555
Al7 S38 2.606596 1_555
Al8 S34 2.317263 1_555
Al8 S41 2.317263 1_555
Al8 S36 2.317263 1_555
Al8 S25 2.616027 1_555
Al8 S30 2.616028 1_555
Al8 S29 2.616028 1_555
Al9 S24 2.404439 1_555
Al9 S32 2.404439 1_555
Al9 S28 2.404439 1_555
Al9 S33 2.470177 1_555
Al9 S40 2.470177 1_555
Al9 S38 2.470177 1_555
S0 Sm8 2.809126 1_555
S0 Sm2 2.832995 1_555
S0 Sm5 2.840775 1_655
S1 Sm0 2.809126 1_555
S1 Sm3 2.832995 1_555
S1 Sm6 2.840775 1_565
S2 Sm4 2.809126 1_555
S2 Sm7 2.832995 1_555
S2 Sm1 2.840775 1_556
S3 Sm14 2.792966 1_555
S3 Sm11 2.837484 1_555
S3 Sm17 2.849600 1_545
S4 Sm9 2.792966 1_555
S4 Sm15 2.837485 1_555
S4 Sm12 2.849600 1_455
S5 Sm16 2.792966 1_555
S5 Sm13 2.837485 1_555
S5 Sm10 2.849600 1_554
S6 Sm7 2.832911 1_554
S6 Sm1 2.873451 1_555
S6 Sm16 3.089745 1_555
S7 Sm8 2.804827 1_555
S7 Sm2 2.949118 1_555
S7 Sm17 3.017272 1_555
S8 Sm6 2.787716 1_555
S8 Sm0 2.840615 1_545
S8 Sm15 2.958115 1_555
S9 Sm1 2.787716 1_555
S9 Sm4 2.840615 1_554
S9 Sm11 2.958115 1_555
S10 Sm2 2.832911 1_455
S10 Sm5 2.873451 1_555
S10 Sm9 3.089745 1_555
S11 Sm0 2.804827 1_555
S11 Sm3 2.949118 1_555
S11 Sm10 3.017272 1_555
S12 Sm4 2.804827 1_555
S12 Sm7 2.949118 1_555
S12 Sm12 3.017272 1_555
S13 Sm5 2.787716 1_555
S13 Sm8 2.840615 1_455
S13 Sm13 2.958114 1_555
S14 Sm3 2.832911 1_545
S14 Sm6 2.873451 1_555
S14 Sm14 3.089745 1_555
S15 Sm17 2.789536 1_545
S15 Sm11 2.875878 1_555
S15 Sm6 3.044580 1_655
S16 Sm15 2.876099 1_555
S16 Sm9 2.884730 1_555
S16 Sm7 3.018660 1_555
S17 Sm16 2.771842 1_555
S17 Sm10 2.892918 1_554
S17 Sm8 3.000092 1_555
S18 Sm11 2.876099 1_555
S18 Sm14 2.884730 1_555
S18 Sm2 3.018660 1_555
S19 Sm9 2.771842 1_555
S19 Sm12 2.892918 1_455
S19 Sm0 3.000092 1_555
S20 Sm10 2.789536 1_554
S20 Sm13 2.875878 1_555
S20 Sm1 3.044580 1_565
S21 Sm14 2.771842 1_555
S21 Sm17 2.892918 1_545
S21 Sm4 3.000092 1_555
S22 Sm12 2.789536 1_455
S22 Sm15 2.875878 1_555
S22 Sm5 3.044580 1_556
S23 Sm13 2.876099 1_555
S23 Sm16 2.884730 1_555
S23 Sm3 3.018660 1_555
S24 Sm16 2.828913 1_555
S24 Sm14 2.857557 1_555
S24 Sm2 2.944106 1_555
S24 Sm1 3.397367 1_555
S25 Sm17 2.846508 1_555
S25 Sm0 2.880627 1_655
S25 Sm12 2.896175 1_555
S26 Sm15 2.812081 1_554
S26 Sm1 2.843439 1_555
S26 Sm13 2.920962 1_545
S27 Sm11 2.812081 1_455
S27 Sm5 2.843440 1_555
S27 Sm15 2.920962 1_554
S28 Sm9 2.828913 1_555
S28 Sm16 2.857557 1_555
S28 Sm3 2.944106 1_555
S28 Sm5 3.397367 1_555
S29 Sm10 2.846508 1_555
S29 Sm4 2.880627 1_565
S29 Sm17 2.896175 1_555
S30 Sm12 2.846508 1_555
S30 Sm8 2.880627 1_556
S30 Sm10 2.896175 1_555
S31 Sm13 2.812081 1_545
S31 Sm6 2.843440 1_555
S31 Sm11 2.920962 1_455
S32 Sm14 2.828913 1_555
S32 Sm9 2.857557 1_555
S32 Sm7 2.944106 1_555
S32 Sm6 3.397367 1_555
S33 Sm6 2.854327 1_555
S33 Sm9 2.858647 1_555
S33 Sm5 2.896444 1_555
S34 Sm7 2.825833 1_555
S34 Sm10 2.850140 1_555
S34 Sm3 2.908955 1_555
S35 Sm8 2.813479 1_555
S35 Sm4 2.875499 1_564
S35 Sm11 2.949539 1_565
S35 Sm10 3.389922 1_554
S36 Sm2 2.825833 1_555
S36 Sm12 2.850140 1_555
S36 Sm7 2.908955 1_555
S37 Sm0 2.813479 1_555
S37 Sm8 2.875499 1_456
S37 Sm13 2.949539 1_556
S37 Sm12 3.389922 1_455
S38 Sm1 2.854327 1_555
S38 Sm14 2.858647 1_555
S38 Sm6 2.896443 1_555
S39 Sm4 2.813479 1_555
S39 Sm0 2.875499 1_645
S39 Sm15 2.949539 1_655
S39 Sm17 3.389922 1_545
S40 Sm5 2.854327 1_555
S40 Sm16 2.858647 1_555
S40 Sm1 2.896444 1_555
S41 Sm3 2.825833 1_555
S41 Sm17 2.850140 1_555
S41 Sm2 2.908955 1_555
