# generated using pymatgen
data_Mn8(Al9Zn)3
_symmetry_space_group_name_H-M   'P 1'
_cell_length_a   7.78028400
_cell_length_b   12.56986607
_cell_length_c   12.29851800
_cell_angle_alpha   90.00000000
_cell_angle_beta   90.00000000
_cell_angle_gamma   108.02799083
_symmetry_Int_Tables_number   1
_chemical_formula_structural   Mn8(Al9Zn)3
_chemical_formula_sum   'Mn16 Al54 Zn6'
_cell_volume   1143.71077483
_cell_formula_units_Z   2
loop_
 _symmetry_equiv_pos_site_id
 _symmetry_equiv_pos_as_xyz
  1  'x, y, z'
loop_
 _atom_site_type_symbol
 _atom_site_label
 _atom_site_symmetry_multiplicity
 _atom_site_fract_x
 _atom_site_fract_y
 _atom_site_fract_z
 _atom_site_occupancy
  Mn  Mn0  1  0.64038300  0.28076500  0.05127800  1
  Mn  Mn1  1  0.35961700  0.71923500  0.94872200  1
  Mn  Mn2  1  0.35961700  0.71923500  0.55127800  1
  Mn  Mn3  1  0.64038300  0.28076500  0.44872200  1
  Mn  Mn4  1  0.45854100  0.91708100  0.25000000  1
  Mn  Mn5  1  0.54145900  0.08291900  0.75000000  1
  Mn  Mn6  1  0.08581800  0.17163700  0.58806700  1
  Mn  Mn7  1  0.91418200  0.82836300  0.41193300  1
  Mn  Mn8  1  0.91418200  0.82836300  0.08806700  1
  Mn  Mn9  1  0.08581800  0.17163700  0.91193300  1
  Mn  Mn10  1  0.44529500  0.56557700  0.25000000  1
  Mn  Mn11  1  0.55470500  0.43442300  0.75000000  1
  Mn  Mn12  1  0.12028200  0.56557700  0.25000000  1
  Mn  Mn13  1  0.87971800  0.43442300  0.75000000  1
  Mn  Mn14  1  0.08209800  0.16419600  0.25000000  1
  Mn  Mn15  1  0.91790200  0.83580400  0.75000000  1
  Al  Al0  1  0.36139900  0.72279800  0.14893500  1
  Al  Al1  1  0.63860100  0.27720200  0.85106500  1
  Al  Al2  1  0.63860100  0.27720200  0.64893500  1
  Al  Al3  1  0.36139900  0.72279800  0.35106500  1
  Al  Al4  1  0.31720600  0.22103500  0.11672900  1
  Al  Al5  1  0.68279400  0.77896500  0.88327100  1
  Al  Al6  1  0.68279400  0.77896500  0.61672900  1
  Al  Al7  1  0.90383000  0.22103500  0.38327100  1
  Al  Al8  1  0.31720600  0.22103500  0.38327100  1
  Al  Al9  1  0.09617000  0.77896500  0.61672900  1
  Al  Al10  1  0.09617000  0.77896500  0.88327100  1
  Al  Al11  1  0.90383000  0.22103500  0.11672900  1
  Al  Al12  1  0.54114200  0.43705400  0.13134900  1
  Al  Al13  1  0.45885800  0.56294600  0.86865100  1
  Al  Al14  1  0.45885800  0.56294600  0.63134900  1
  Al  Al15  1  0.89591200  0.43705400  0.36865100  1
  Al  Al16  1  0.54114200  0.43705400  0.36865100  1
  Al  Al17  1  0.10408800  0.56294600  0.63134900  1
  Al  Al18  1  0.10408800  0.56294600  0.86865100  1
  Al  Al19  1  0.89591200  0.43705400  0.13134900  1
  Al  Al20  1  0.53995100  0.07990300  0.12470800  1
  Al  Al21  1  0.46004900  0.92009700  0.87529200  1
  Al  Al22  1  0.46004900  0.92009700  0.62470800  1
  Al  Al23  1  0.53995100  0.07990300  0.37529200  1
  Al  Al24  1  0.63579100  0.65378100  0.06738200  1
  Al  Al25  1  0.36420900  0.34621900  0.93261800  1
  Al  Al26  1  0.36420900  0.34621900  0.56738200  1
  Al  Al27  1  0.01798900  0.65378100  0.43261800  1
  Al  Al28  1  0.63579100  0.65378100  0.43261800  1
  Al  Al29  1  0.98201100  0.34621900  0.56738200  1
  Al  Al30  1  0.98201100  0.34621900  0.93261800  1
  Al  Al31  1  0.01798900  0.65378100  0.06738200  1
  Al  Al32  1  0.26095900  0.52191700  0.06305700  1
  Al  Al33  1  0.73904100  0.47808300  0.93694300  1
  Al  Al34  1  0.73904100  0.47808300  0.56305700  1
  Al  Al35  1  0.26095900  0.52191700  0.43694300  1
  Al  Al36  1  0.69098900  0.77781100  0.25000000  1
  Al  Al37  1  0.30901100  0.22218900  0.75000000  1
  Al  Al38  1  0.08682200  0.77781100  0.25000000  1
  Al  Al39  1  0.91317800  0.22218900  0.75000000  1
  Al  Al40  1  0.18727700  0.37455400  0.25000000  1
  Al  Al41  1  0.81272300  0.62544600  0.75000000  1
  Al  Al42  1  0.62918400  0.89152200  0.06470100  1
  Al  Al43  1  0.37081600  0.10847800  0.93529900  1
  Al  Al44  1  0.37081600  0.10847800  0.56470100  1
  Al  Al45  1  0.26233900  0.89152200  0.43529900  1
  Al  Al46  1  0.62918400  0.89152200  0.43529900  1
  Al  Al47  1  0.73766100  0.10847800  0.56470100  1
  Al  Al48  1  0.73766100  0.10847800  0.93529900  1
  Al  Al49  1  0.26233900  0.89152200  0.06470100  1
  Al  Al50  1  0.21436200  0.00852100  0.25000000  1
  Al  Al51  1  0.78563800  0.99147900  0.75000000  1
  Al  Al52  1  0.79416000  0.00852100  0.25000000  1
  Al  Al53  1  0.20584000  0.99147900  0.75000000  1
  Zn  Zn0  1  0.02263200  0.04526400  0.08469600  1
  Zn  Zn1  1  0.97736800  0.95473600  0.91530400  1
  Zn  Zn2  1  0.97736800  0.95473600  0.58469600  1
  Zn  Zn3  1  0.02263200  0.04526400  0.41530400  1
  Zn  Zn4  1  0.63754700  0.27509300  0.25000000  1
  Zn  Zn5  1  0.36245300  0.72490700  0.75000000  1
loop_
_geom_bond_atom_site_label_1
_geom_bond_atom_site_label_2
_geom_bond_distance
_geom_bond_site_symmetry_2
Mn0 Zn4 2.444926 1_555
Mn1 Zn5 2.444926 1_555
Mn2 Zn5 2.444926 1_555
Mn3 Zn4 2.444926 1_555
Mn6 Zn2 2.592896 1_445
Mn6 Zn3 2.606933 1_555
Mn7 Zn3 2.592896 1_665
Mn7 Zn2 2.606933 1_555
Mn8 Zn0 2.592896 1_665
Mn8 Zn1 2.606933 1_554
Mn9 Zn1 2.592896 1_445
Mn9 Zn0 2.606933 1_556
Mn10 Mn12 2.528693 1_555
Mn11 Mn13 2.528693 1_555
Mn14 Zn0 2.480708 1_555
Mn14 Zn3 2.480708 1_555
Mn15 Zn1 2.480708 1_555
Mn15 Zn2 2.480708 1_555
Al0 Mn1 2.462691 1_554
Al0 Al3 2.485899 1_555
Al0 Mn12 2.583598 1_555
Al0 Mn10 2.583598 1_555
Al0 Al32 2.623107 1_555
Al0 Mn4 2.633935 1_555
Al0 Al49 2.678972 1_555
Al0 Al42 2.678976 1_555
Al0 Al24 2.731760 1_555
Al0 Al31 2.731767 1_555
Al0 Al36 2.738831 1_555
Al0 Al38 2.738831 1_555
Al1 Mn0 2.462691 1_556
Al1 Al2 2.485899 1_555
Al1 Mn11 2.583598 1_555
Al1 Mn13 2.583598 1_555
Al1 Al33 2.623107 1_555
Al1 Mn5 2.633935 1_555
Al1 Al48 2.678972 1_555
Al1 Al43 2.678976 1_555
Al1 Al25 2.731760 1_555
Al1 Al30 2.731767 1_555
Al1 Al37 2.738831 1_555
Al1 Al39 2.738831 1_555
Al2 Mn3 2.462691 1_555
Al2 Mn11 2.583598 1_555
Al2 Mn13 2.583598 1_555
Al2 Al34 2.623107 1_555
Al2 Mn5 2.633935 1_555
Al2 Al47 2.678972 1_555
Al2 Al44 2.678976 1_555
Al2 Al26 2.731760 1_555
Al2 Al29 2.731767 1_555
Al2 Al37 2.738831 1_555
Al2 Al39 2.738831 1_555
Al3 Mn2 2.462691 1_555
Al3 Mn12 2.583598 1_555
Al3 Mn10 2.583598 1_555
Al3 Al35 2.623107 1_555
Al3 Mn4 2.633935 1_555
Al3 Al45 2.678972 1_555
Al3 Al46 2.678976 1_555
Al3 Al36 2.738831 1_555
Al3 Al38 2.738831 1_555
Al4 Mn14 2.394571 1_555
Al4 Mn0 2.522976 1_555
Al4 Zn0 2.674912 1_555
Al4 Al43 2.742219 1_554
Al4 Zn4 2.883001 1_555
Al4 Al40 2.939310 1_555
Al4 Al50 3.023143 1_555
Al4 Mn9 3.046045 1_554
Al5 Mn15 2.394571 1_555
Al5 Mn1 2.522976 1_555
Al5 Zn1 2.674912 1_555
Al5 Zn5 2.883001 1_555
Al5 Al51 3.023143 1_555
Al5 Mn8 3.046045 1_556
Al6 Mn15 2.394571 1_555
Al6 Mn2 2.522976 1_555
Al6 Zn2 2.674912 1_555
Al6 Zn5 2.883001 1_555
Al6 Mn7 3.046045 1_555
Al7 Mn14 2.394566 1_655
Al7 Mn3 2.522976 1_555
Al7 Zn3 2.674907 1_655
Al7 Zn4 2.883001 1_555
Al7 Mn6 3.046037 1_655
Al8 Mn14 2.394571 1_555
Al8 Mn3 2.522976 1_555
Al8 Zn3 2.674912 1_555
Al8 Zn4 2.883001 1_555
Al8 Mn6 3.046045 1_555
Al9 Mn15 2.394566 1_455
Al9 Mn2 2.522976 1_555
Al9 Zn2 2.674907 1_455
Al9 Zn5 2.883001 1_555
Al9 Mn7 3.046037 1_455
Al10 Mn15 2.394566 1_455
Al10 Mn1 2.522976 1_555
Al10 Zn1 2.674907 1_455
Al10 Al31 2.716731 1_556
Al10 Al18 2.740927 1_555
Al10 Al49 2.742223 1_556
Al10 Al21 2.839561 1_555
Al10 Zn5 2.883001 1_555
Al10 Al41 2.939305 1_455
Al10 Al53 3.023143 1_555
Al10 Mn8 3.046037 1_456
Al11 Mn14 2.394566 1_655
Al11 Mn0 2.522976 1_555
Al11 Zn0 2.674907 1_655
Al11 Al30 2.716731 1_554
Al11 Al19 2.740927 1_555
Al11 Al48 2.742223 1_554
Al11 Al20 2.839561 1_555
Al11 Zn4 2.883001 1_555
Al11 Al40 2.939305 1_655
Al11 Al52 3.023143 1_555
Al11 Mn9 3.046037 1_654
Al12 Mn10 2.457849 1_555
Al12 Mn0 2.522733 1_555
Al12 Al24 2.709408 1_555
Al12 Al4 2.740924 1_555
Al12 Al19 2.760211 1_555
Al12 Zn4 2.789568 1_555
Al12 Al33 2.803857 1_554
Al12 Al32 2.834533 1_555
Al12 Al25 2.863461 1_554
Al12 Al16 2.918463 1_555
Al12 Al40 2.997952 1_555
Al13 Mn11 2.457849 1_555
Al13 Mn1 2.522733 1_555
Al13 Al25 2.709408 1_555
Al13 Al5 2.740924 1_555
Al13 Al18 2.760211 1_555
Al13 Zn5 2.789568 1_555
Al13 Al32 2.803857 1_556
Al13 Al33 2.834533 1_555
Al13 Al24 2.863461 1_556
Al13 Al14 2.918463 1_555
Al13 Al41 2.997952 1_555
Al14 Mn11 2.457849 1_555
Al14 Mn2 2.522733 1_555
Al14 Al26 2.709408 1_555
Al14 Al6 2.740924 1_555
Al14 Al17 2.760211 1_555
Al14 Zn5 2.789568 1_555
Al14 Al35 2.803857 1_555
Al14 Al34 2.834533 1_555
Al14 Al28 2.863461 1_555
Al14 Al41 2.997952 1_555
Al15 Mn12 2.457849 1_655
Al15 Mn3 2.522729 1_555
Al15 Al27 2.709408 1_655
Al15 Al7 2.740927 1_555
Al15 Al16 2.760211 1_555
Al15 Zn4 2.789564 1_555
Al15 Al34 2.803861 1_555
Al15 Al35 2.834540 1_655
Al15 Al29 2.863464 1_555
Al15 Al19 2.918463 1_555
Al15 Al40 2.997952 1_655
Al16 Mn10 2.457849 1_555
Al16 Mn3 2.522733 1_555
Al16 Al28 2.709408 1_555
Al16 Al8 2.740924 1_555
Al16 Zn4 2.789568 1_555
Al16 Al34 2.803857 1_555
Al16 Al35 2.834533 1_555
Al16 Al26 2.863461 1_555
Al16 Al40 2.997952 1_555
Al17 Mn13 2.457849 1_455
Al17 Mn2 2.522729 1_555
Al17 Al29 2.709408 1_455
Al17 Al9 2.740927 1_555
Al17 Zn5 2.789564 1_555
Al17 Al35 2.803861 1_555
Al17 Al34 2.834540 1_455
Al17 Al27 2.863464 1_555
Al17 Al18 2.918463 1_555
Al17 Al41 2.997952 1_455
Al18 Mn13 2.457849 1_455
Al18 Mn1 2.522729 1_555
Al18 Al30 2.709408 1_455
Al18 Zn5 2.789564 1_555
Al18 Al32 2.803861 1_556
Al18 Al33 2.834540 1_455
Al18 Al31 2.863464 1_556
Al18 Al41 2.997952 1_455
Al19 Mn12 2.457849 1_655
Al19 Mn0 2.522729 1_555
Al19 Al31 2.709408 1_655
Al19 Zn4 2.789564 1_555
Al19 Al33 2.803861 1_554
Al19 Al32 2.834540 1_655
Al19 Al30 2.863464 1_554
Al19 Al40 2.997952 1_655
Al20 Mn4 2.482332 1_545
Al20 Mn0 2.565084 1_555
Al20 Al43 2.753098 1_554
Al20 Al48 2.753098 1_554
Al20 Al49 2.766080 1_545
Al20 Al42 2.766088 1_545
Al20 Zn4 2.795988 1_555
Al20 Al4 2.839548 1_555
Al20 Al50 2.861746 1_555
Al20 Al52 2.861758 1_555
Al21 Mn5 2.482332 1_565
Al21 Mn1 2.565084 1_555
Al21 Al49 2.753098 1_556
Al21 Al42 2.753098 1_556
Al21 Al48 2.766080 1_565
Al21 Al43 2.766088 1_565
Al21 Zn5 2.795988 1_555
Al21 Al5 2.839548 1_555
Al21 Al51 2.861746 1_555
Al21 Al53 2.861758 1_555
Al22 Mn5 2.482332 1_565
Al22 Mn2 2.565084 1_555
Al22 Al45 2.753098 1_555
Al22 Al46 2.753098 1_555
Al22 Al47 2.766080 1_565
Al22 Al44 2.766088 1_565
Al22 Zn5 2.795988 1_555
Al22 Al6 2.839548 1_555
Al22 Al9 2.839561 1_555
Al22 Al51 2.861746 1_555
Al22 Al53 2.861758 1_555
Al23 Mn4 2.482332 1_545
Al23 Mn3 2.565084 1_555
Al23 Al47 2.753098 1_555
Al23 Al44 2.753098 1_555
Al23 Al45 2.766080 1_545
Al23 Al46 2.766088 1_545
Al23 Zn4 2.795988 1_555
Al23 Al8 2.839548 1_555
Al23 Al7 2.839561 1_555
Al23 Al50 2.861746 1_555
Al23 Al52 2.861758 1_555
Al24 Mn8 2.574839 1_555
Al24 Al36 2.691621 1_555
Al24 Al5 2.716731 1_554
Al24 Mn10 2.730019 1_555
Al24 Al32 2.874549 1_555
Al24 Mn1 2.918525 1_554
Al24 Al31 2.973609 1_655
Al24 Al42 3.004860 1_555
Al24 Al33 3.032224 1_554
Al25 Mn9 2.574839 1_555
Al25 Al37 2.691621 1_555
Al25 Al4 2.716731 1_556
Al25 Mn11 2.730019 1_555
Al25 Al33 2.874549 1_555
Al25 Mn0 2.918525 1_556
Al25 Al30 2.973609 1_455
Al25 Al43 3.004860 1_555
Al25 Al32 3.032224 1_556
Al26 Mn6 2.574839 1_555
Al26 Al37 2.691621 1_555
Al26 Al8 2.716731 1_555
Al26 Mn11 2.730019 1_555
Al26 Al34 2.874549 1_555
Al26 Mn3 2.918525 1_555
Al26 Al29 2.973609 1_455
Al26 Al44 3.004860 1_555
Al26 Al35 3.032224 1_555
Al27 Mn7 2.574830 1_455
Al27 Al38 2.691621 1_555
Al27 Al9 2.716731 1_555
Al27 Mn12 2.730022 1_555
Al27 Al3 2.731767 1_555
Al27 Al35 2.874562 1_555
Al27 Mn2 2.918525 1_555
Al27 Al28 2.973609 1_455
Al27 Al45 3.004865 1_555
Al27 Al34 3.032224 1_455
Al28 Mn7 2.574839 1_555
Al28 Al36 2.691621 1_555
Al28 Al6 2.716731 1_555
Al28 Mn10 2.730019 1_555
Al28 Al3 2.731760 1_555
Al28 Al35 2.874549 1_555
Al28 Mn2 2.918525 1_555
Al28 Al46 3.004860 1_555
Al28 Al34 3.032224 1_555
Al29 Mn6 2.574830 1_655
Al29 Al39 2.691621 1_555
Al29 Al7 2.716731 1_555
Al29 Mn13 2.730022 1_555
Al29 Al34 2.874562 1_555
Al29 Mn3 2.918525 1_555
Al29 Al47 3.004865 1_555
Al29 Al35 3.032224 1_655
Al30 Mn9 2.574830 1_655
Al30 Al39 2.691621 1_555
Al30 Mn13 2.730022 1_555
Al30 Al33 2.874562 1_555
Al30 Mn0 2.918525 1_556
Al30 Al48 3.004865 1_555
Al30 Al32 3.032224 1_656
Al31 Mn8 2.574830 1_455
Al31 Al38 2.691621 1_555
Al31 Mn12 2.730022 1_555
Al31 Al32 2.874562 1_555
Al31 Mn1 2.918525 1_554
Al31 Al49 3.004865 1_555
Al31 Al33 3.032224 1_454
Al32 Mn10 2.675231 1_555
Al32 Mn12 2.675234 1_555
Al32 Mn1 2.745861 1_554
Al32 Al40 2.896285 1_555
Al33 Mn11 2.675231 1_555
Al33 Mn13 2.675234 1_555
Al33 Mn0 2.745861 1_556
Al33 Al41 2.896285 1_555
Al34 Mn11 2.675231 1_555
Al34 Mn13 2.675234 1_555
Al34 Mn3 2.745861 1_555
Al34 Al41 2.896285 1_555
Al35 Mn10 2.675231 1_555
Al35 Mn12 2.675234 1_555
Al35 Mn2 2.745861 1_555
Al35 Al40 2.896285 1_555
Al36 Mn8 2.588910 1_555
Al36 Mn7 2.588910 1_555
Al36 Al52 2.759249 1_565
Al36 Mn10 2.759446 1_555
Al36 Al46 2.809455 1_555
Al36 Al42 2.809455 1_555
Al36 Mn4 2.880098 1_555
Al36 Al38 3.079693 1_655
Al37 Mn9 2.588910 1_555
Al37 Mn6 2.588910 1_555
Al37 Al53 2.759249 1_545
Al37 Mn11 2.759446 1_555
Al37 Al44 2.809455 1_555
Al37 Al43 2.809455 1_555
Al37 Mn5 2.880098 1_555
Al37 Al39 3.079693 1_455
Al38 Mn7 2.588905 1_455
Al38 Mn8 2.588905 1_455
Al38 Al50 2.759249 1_565
Al38 Mn12 2.759446 1_555
Al38 Al45 2.809457 1_555
Al38 Al49 2.809457 1_555
Al38 Mn4 2.880104 1_555
Al39 Mn6 2.588905 1_655
Al39 Mn9 2.588905 1_655
Al39 Al51 2.759249 1_545
Al39 Mn13 2.759446 1_555
Al39 Al47 2.809457 1_555
Al39 Al48 2.809457 1_555
Al39 Mn5 2.880104 1_555
Al40 Mn14 2.514357 1_555
Al40 Mn10 2.609944 1_555
Al40 Mn12 2.609944 1_555
Al40 Al7 2.939305 1_455
Al40 Al8 2.939310 1_555
Al41 Mn15 2.514357 1_555
Al41 Mn11 2.609944 1_555
Al41 Mn13 2.609944 1_555
Al41 Al9 2.939305 1_655
Al41 Al6 2.939310 1_555
Al41 Al5 2.939310 1_555
Al42 Mn8 2.592136 1_555
Al42 Mn4 2.706157 1_555
Al42 Al5 2.742219 1_554
Al42 Al52 2.799172 1_565
Al42 Al49 2.854158 1_555
Al42 Mn1 2.883026 1_554
Al42 Al48 3.042617 1_564
Al42 Zn0 3.082864 1_665
Al42 Zn1 3.164405 1_554
Al43 Mn9 2.592136 1_555
Al43 Mn5 2.706157 1_555
Al43 Al53 2.799172 1_545
Al43 Al48 2.854158 1_555
Al43 Mn0 2.883026 1_556
Al43 Al49 3.042617 1_546
Al43 Zn1 3.082864 1_445
Al43 Zn0 3.164405 1_556
Al44 Mn6 2.592136 1_555
Al44 Mn5 2.706157 1_555
Al44 Al8 2.742219 1_555
Al44 Al53 2.799172 1_545
Al44 Al47 2.854158 1_555
Al44 Mn3 2.883026 1_555
Al44 Al45 3.042617 1_545
Al44 Zn2 3.082864 1_445
Al44 Zn3 3.164405 1_555
Al45 Mn7 2.592136 1_455
Al45 Mn4 2.706157 1_555
Al45 Al9 2.742223 1_555
Al45 Al50 2.799172 1_565
Al45 Al46 2.854158 1_555
Al45 Mn2 2.883019 1_555
Al45 Zn3 3.082871 1_565
Al45 Zn2 3.164411 1_455
Al46 Mn7 2.592136 1_555
Al46 Mn4 2.706157 1_555
Al46 Al6 2.742219 1_555
Al46 Al52 2.799172 1_565
Al46 Mn2 2.883026 1_555
Al46 Al47 3.042617 1_565
Al46 Zn3 3.082864 1_665
Al46 Zn2 3.164405 1_555
Al47 Mn6 2.592136 1_655
Al47 Mn5 2.706157 1_555
Al47 Al7 2.742223 1_555
Al47 Al51 2.799172 1_545
Al47 Mn3 2.883019 1_555
Al47 Zn2 3.082871 1_545
Al47 Zn3 3.164411 1_655
Al48 Mn9 2.592136 1_655
Al48 Mn5 2.706157 1_555
Al48 Al51 2.799172 1_545
Al48 Mn0 2.883019 1_556
Al48 Zn1 3.082871 1_545
Al48 Zn0 3.164411 1_656
Al49 Mn8 2.592136 1_455
Al49 Mn4 2.706157 1_555
Al49 Al50 2.799172 1_565
Al49 Mn1 2.883019 1_554
Al49 Zn0 3.082871 1_565
Al49 Zn1 3.164411 1_454
Al50 Mn14 2.476782 1_555
Al50 Mn4 2.506357 1_545
Al50 Zn0 2.645378 1_555
Al50 Zn3 2.645378 1_555
Al50 Al8 3.023143 1_555
Al51 Mn15 2.476782 1_555
Al51 Mn5 2.506357 1_565
Al51 Zn2 2.645378 1_555
Al51 Zn1 2.645378 1_555
Al51 Al6 3.023143 1_555
Al52 Mn14 2.476777 1_655
Al52 Mn4 2.506357 1_545
Al52 Zn3 2.645373 1_655
Al52 Zn0 2.645373 1_655
Al52 Al7 3.023143 1_555
Al53 Mn15 2.476777 1_455
Al53 Mn5 2.506357 1_565
Al53 Zn1 2.645373 1_455
Al53 Zn2 2.645373 1_455
Al53 Al9 3.023143 1_555
Zn0 Zn1 2.347524 1_444
Zn2 Zn3 2.347524 1_665
