# generated using pymatgen
data_MgSn2
_symmetry_space_group_name_H-M   'P 1'
_cell_length_a   5.94339099
_cell_length_b   5.94339099
_cell_length_c   8.02933055
_cell_angle_alpha   68.45982877
_cell_angle_beta   68.45982877
_cell_angle_gamma   36.30724927
_symmetry_Int_Tables_number   1
_chemical_formula_structural   MgSn2
_chemical_formula_sum   'Mg2 Sn4'
_cell_volume   154.89728958
_cell_formula_units_Z   2
loop_
 _symmetry_equiv_pos_site_id
 _symmetry_equiv_pos_as_xyz
  1  'x, y, z'
loop_
 _atom_site_type_symbol
 _atom_site_label
 _atom_site_symmetry_multiplicity
 _atom_site_fract_x
 _atom_site_fract_y
 _atom_site_fract_z
 _atom_site_occupancy
  Mg  Mg0  1  0.81129400  0.81129400  0.63893700  1
  Mg  Mg1  1  0.18870600  0.18870600  0.36106300  1
  Sn  Sn0  1  0.14417700  0.14417700  0.96662300  1
  Sn  Sn1  1  0.52867300  0.52867300  0.68642000  1
  Sn  Sn2  1  0.47132700  0.47132700  0.31358000  1
  Sn  Sn3  1  0.85582300  0.85582300  0.03337700  1
loop_
_geom_bond_atom_site_label_1
_geom_bond_atom_site_label_2
_geom_bond_distance
_geom_bond_site_symmetry_2
Mg0 Sn1 3.065162 1_555
Mg0 Sn2 3.141954 1_655
Mg0 Sn2 3.141954 1_565
Mg0 Sn0 3.174396 1_655
Mg0 Sn0 3.174396 1_565
Mg0 Sn1 3.213465 1_655
Mg0 Sn1 3.213465 1_565
Mg0 Sn3 3.393285 1_556
Mg1 Sn2 3.065162 1_555
Mg1 Sn1 3.141954 1_545
Mg1 Sn1 3.141954 1_455
Mg1 Sn3 3.174396 1_545
Mg1 Sn3 3.174396 1_455
Mg1 Sn2 3.213465 1_455
Mg1 Sn2 3.213465 1_545
Mg1 Sn0 3.393285 1_554
Sn0 Sn3 3.089698 1_446
Sn0 Sn3 3.228198 1_456
Sn0 Sn3 3.228198 1_546
Sn0 Sn2 3.286109 1_456
Sn0 Sn2 3.286109 1_546
Sn1 Sn3 3.286109 1_456
Sn1 Sn3 3.286109 1_546
