# generated using pymatgen
data_Al8(Pb3O7)3
_symmetry_space_group_name_H-M   'P 1'
_cell_length_a   13.47031800
_cell_length_b   13.47031800
_cell_length_c   13.47031800
_cell_angle_alpha   90.00000000
_cell_angle_beta   90.00000000
_cell_angle_gamma   90.00000000
_symmetry_Int_Tables_number   1
_chemical_formula_structural   Al8(Pb3O7)3
_chemical_formula_sum   'Al32 Pb36 O84'
_cell_volume   2444.18202171
_cell_formula_units_Z   4
loop_
 _symmetry_equiv_pos_site_id
 _symmetry_equiv_pos_as_xyz
  1  'x, y, z'
loop_
 _atom_site_type_symbol
 _atom_site_label
 _atom_site_symmetry_multiplicity
 _atom_site_fract_x
 _atom_site_fract_y
 _atom_site_fract_z
 _atom_site_occupancy
  Al  Al0  1  0.21838000  0.45458500  0.10696000  1
  Al  Al1  1  0.10696000  0.21838000  0.45458500  1
  Al  Al2  1  0.45458500  0.10696000  0.21838000  1
  Al  Al3  1  0.04541500  0.89304000  0.71838000  1
  Al  Al4  1  0.60696000  0.28162000  0.54541500  1
  Al  Al5  1  0.54541500  0.60696000  0.28162000  1
  Al  Al6  1  0.39304000  0.78162000  0.95458500  1
  Al  Al7  1  0.89304000  0.71838000  0.04541500  1
  Al  Al8  1  0.95458500  0.39304000  0.78162000  1
  Al  Al9  1  0.71838000  0.04541500  0.89304000  1
  Al  Al10  1  0.78162000  0.95458500  0.39304000  1
  Al  Al11  1  0.28162000  0.54541500  0.60696000  1
  Al  Al12  1  0.78162000  0.54541500  0.89304000  1
  Al  Al13  1  0.89304000  0.78162000  0.54541500  1
  Al  Al14  1  0.54541500  0.89304000  0.78162000  1
  Al  Al15  1  0.95458500  0.10696000  0.28162000  1
  Al  Al16  1  0.39304000  0.71838000  0.45458500  1
  Al  Al17  1  0.45458500  0.39304000  0.71838000  1
  Al  Al18  1  0.60696000  0.21838000  0.04541500  1
  Al  Al19  1  0.10696000  0.28162000  0.95458500  1
  Al  Al20  1  0.04541500  0.60696000  0.21838000  1
  Al  Al21  1  0.28162000  0.95458500  0.10696000  1
  Al  Al22  1  0.21838000  0.04541500  0.60696000  1
  Al  Al23  1  0.71838000  0.45458500  0.39304000  1
  Al  Al24  1  0.07454100  0.07454100  0.07454100  1
  Al  Al25  1  0.42545900  0.92545900  0.57454100  1
  Al  Al26  1  0.57454100  0.42545900  0.92545900  1
  Al  Al27  1  0.92545900  0.57454100  0.42545900  1
  Al  Al28  1  0.92545900  0.92545900  0.92545900  1
  Al  Al29  1  0.57454100  0.07454100  0.42545900  1
  Al  Al30  1  0.42545900  0.57454100  0.07454100  1
  Al  Al31  1  0.07454100  0.42545900  0.57454100  1
  Pb  Pb0  1  0.26537100  0.95682400  0.37654900  1
  Pb  Pb1  1  0.37654900  0.26537100  0.95682400  1
  Pb  Pb2  1  0.95682400  0.37654900  0.26537100  1
  Pb  Pb3  1  0.54317600  0.62345100  0.76537100  1
  Pb  Pb4  1  0.87654900  0.23462900  0.04317600  1
  Pb  Pb5  1  0.04317600  0.87654900  0.23462900  1
  Pb  Pb6  1  0.12345100  0.73462900  0.45682400  1
  Pb  Pb7  1  0.62345100  0.76537100  0.54317600  1
  Pb  Pb8  1  0.45682400  0.12345100  0.73462900  1
  Pb  Pb9  1  0.76537100  0.54317600  0.62345100  1
  Pb  Pb10  1  0.73462900  0.45682400  0.12345100  1
  Pb  Pb11  1  0.23462900  0.04317600  0.87654900  1
  Pb  Pb12  1  0.73462900  0.04317600  0.62345100  1
  Pb  Pb13  1  0.62345100  0.73462900  0.04317600  1
  Pb  Pb14  1  0.04317600  0.62345100  0.73462900  1
  Pb  Pb15  1  0.45682400  0.37654900  0.23462900  1
  Pb  Pb16  1  0.12345100  0.76537100  0.95682400  1
  Pb  Pb17  1  0.95682400  0.12345100  0.76537100  1
  Pb  Pb18  1  0.87654900  0.26537100  0.54317600  1
  Pb  Pb19  1  0.37654900  0.23462900  0.45682400  1
  Pb  Pb20  1  0.54317600  0.87654900  0.26537100  1
  Pb  Pb21  1  0.23462900  0.45682400  0.37654900  1
  Pb  Pb22  1  0.26537100  0.54317600  0.87654900  1
  Pb  Pb23  1  0.76537100  0.95682400  0.12345100  1
  Pb  Pb24  1  0.50000000  0.50000000  0.50000000  1
  Pb  Pb25  1  0.00000000  0.50000000  0.00000000  1
  Pb  Pb26  1  0.00000000  0.00000000  0.50000000  1
  Pb  Pb27  1  0.50000000  0.00000000  0.00000000  1
  Pb  Pb28  1  0.22448200  0.22448200  0.22448200  1
  Pb  Pb29  1  0.27551800  0.77551800  0.72448200  1
  Pb  Pb30  1  0.72448200  0.27551800  0.77551800  1
  Pb  Pb31  1  0.77551800  0.72448200  0.27551800  1
  Pb  Pb32  1  0.77551800  0.77551800  0.77551800  1
  Pb  Pb33  1  0.72448200  0.22448200  0.27551800  1
  Pb  Pb34  1  0.27551800  0.72448200  0.22448200  1
  Pb  Pb35  1  0.22448200  0.27551800  0.72448200  1
  O  O0  1  0.04717100  0.05407400  0.20306400  1
  O  O1  1  0.20306400  0.04717100  0.05407400  1
  O  O2  1  0.05407400  0.20306400  0.04717100  1
  O  O3  1  0.44592600  0.79693600  0.54717100  1
  O  O4  1  0.70306400  0.45282900  0.94592600  1
  O  O5  1  0.94592600  0.70306400  0.45282900  1
  O  O6  1  0.29693600  0.95282900  0.55407400  1
  O  O7  1  0.79693600  0.54717100  0.44592600  1
  O  O8  1  0.55407400  0.29693600  0.95282900  1
  O  O9  1  0.54717100  0.44592600  0.79693600  1
  O  O10  1  0.95282900  0.55407400  0.29693600  1
  O  O11  1  0.45282900  0.94592600  0.70306400  1
  O  O12  1  0.95282900  0.94592600  0.79693600  1
  O  O13  1  0.79693600  0.95282900  0.94592600  1
  O  O14  1  0.94592600  0.79693600  0.95282900  1
  O  O15  1  0.55407400  0.20306400  0.45282900  1
  O  O16  1  0.29693600  0.54717100  0.05407400  1
  O  O17  1  0.05407400  0.29693600  0.54717100  1
  O  O18  1  0.70306400  0.04717100  0.44592600  1
  O  O19  1  0.20306400  0.45282900  0.55407400  1
  O  O20  1  0.44592600  0.70306400  0.04717100  1
  O  O21  1  0.45282900  0.55407400  0.20306400  1
  O  O22  1  0.04717100  0.44592600  0.70306400  1
  O  O23  1  0.54717100  0.05407400  0.29693600  1
  O  O24  1  0.71180900  0.62102900  0.80956200  1
  O  O25  1  0.80956200  0.71180900  0.62102900  1
  O  O26  1  0.62102900  0.80956200  0.71180900  1
  O  O27  1  0.87897100  0.19043800  0.21180900  1
  O  O28  1  0.30956200  0.78819100  0.37897100  1
  O  O29  1  0.37897100  0.30956200  0.78819100  1
  O  O30  1  0.69043800  0.28819100  0.12102900  1
  O  O31  1  0.19043800  0.21180900  0.87897100  1
  O  O32  1  0.12102900  0.69043800  0.28819100  1
  O  O33  1  0.21180900  0.87897100  0.19043800  1
  O  O34  1  0.28819100  0.12102900  0.69043800  1
  O  O35  1  0.78819100  0.37897100  0.30956200  1
  O  O36  1  0.28819100  0.37897100  0.19043800  1
  O  O37  1  0.19043800  0.28819100  0.37897100  1
  O  O38  1  0.37897100  0.19043800  0.28819100  1
  O  O39  1  0.12102900  0.80956200  0.78819100  1
  O  O40  1  0.69043800  0.21180900  0.62102900  1
  O  O41  1  0.62102900  0.69043800  0.21180900  1
  O  O42  1  0.30956200  0.71180900  0.87897100  1
  O  O43  1  0.80956200  0.78819100  0.12102900  1
  O  O44  1  0.87897100  0.30956200  0.71180900  1
  O  O45  1  0.78819100  0.12102900  0.80956200  1
  O  O46  1  0.71180900  0.87897100  0.30956200  1
  O  O47  1  0.21180900  0.62102900  0.69043800  1
  O  O48  1  0.00000000  0.00000000  0.00000000  1
  O  O49  1  0.50000000  0.00000000  0.50000000  1
  O  O50  1  0.50000000  0.50000000  0.00000000  1
  O  O51  1  0.00000000  0.50000000  0.50000000  1
  O  O52  1  0.38484100  0.49334600  0.66961500  1
  O  O53  1  0.66961500  0.38484100  0.49334600  1
  O  O54  1  0.49334600  0.66961500  0.38484100  1
  O  O55  1  0.00665400  0.33038500  0.88484100  1
  O  O56  1  0.16961500  0.11515900  0.50665400  1
  O  O57  1  0.50665400  0.16961500  0.11515900  1
  O  O58  1  0.83038500  0.61515900  0.99334600  1
  O  O59  1  0.33038500  0.88484100  0.00665400  1
  O  O60  1  0.99334600  0.83038500  0.61515900  1
  O  O61  1  0.88484100  0.00665400  0.33038500  1
  O  O62  1  0.61515900  0.99334600  0.83038500  1
  O  O63  1  0.11515900  0.50665400  0.16961500  1
  O  O64  1  0.61515900  0.50665400  0.33038500  1
  O  O65  1  0.33038500  0.61515900  0.50665400  1
  O  O66  1  0.50665400  0.33038500  0.61515900  1
  O  O67  1  0.99334600  0.66961500  0.11515900  1
  O  O68  1  0.83038500  0.88484100  0.49334600  1
  O  O69  1  0.49334600  0.83038500  0.88484100  1
  O  O70  1  0.16961500  0.38484100  0.00665400  1
  O  O71  1  0.66961500  0.11515900  0.99334600  1
  O  O72  1  0.00665400  0.16961500  0.38484100  1
  O  O73  1  0.11515900  0.99334600  0.66961500  1
  O  O74  1  0.38484100  0.00665400  0.16961500  1
  O  O75  1  0.88484100  0.49334600  0.83038500  1
  O  O76  1  0.39219800  0.39219800  0.39219800  1
  O  O77  1  0.10780200  0.60780200  0.89219800  1
  O  O78  1  0.89219800  0.10780200  0.60780200  1
  O  O79  1  0.60780200  0.89219800  0.10780200  1
  O  O80  1  0.60780200  0.60780200  0.60780200  1
  O  O81  1  0.89219800  0.39219800  0.10780200  1
  O  O82  1  0.10780200  0.89219800  0.39219800  1
  O  O83  1  0.39219800  0.10780200  0.89219800  1
loop_
_geom_bond_atom_site_label_1
_geom_bond_atom_site_label_2
_geom_bond_distance
_geom_bond_site_symmetry_2
Al0 O63 1.771304 1_555
Al0 O70 1.771925 1_555
Al0 O16 1.783998 1_555
Al0 O36 1.784989 1_555
Al1 O56 1.771304 1_555
Al1 O72 1.771925 1_555
Al1 O17 1.783998 1_555
Al1 O37 1.784989 1_555
Al2 O57 1.771304 1_555
Al2 O74 1.771925 1_555
Al2 O23 1.783998 1_555
Al2 O38 1.784989 1_555
Al3 O60 1.771304 1_455
Al3 O73 1.771925 1_555
Al3 O12 1.783998 1_455
Al3 O39 1.784989 1_555
Al4 O53 1.771304 1_555
Al4 O66 1.771925 1_555
Al4 O15 1.783998 1_555
Al4 O40 1.784989 1_555
Al5 O54 1.771304 1_555
Al5 O64 1.771925 1_555
Al5 O21 1.783998 1_555
Al5 O41 1.784989 1_555
Al6 O59 1.771304 1_556
Al6 O69 1.771925 1_555
Al6 O20 1.783998 1_556
Al6 O42 1.784989 1_555
Al7 O58 1.771304 1_554
Al7 O67 1.771925 1_555
Al7 O14 1.783998 1_554
Al7 O43 1.784989 1_555
Al8 O55 1.771304 1_655
Al8 O75 1.771925 1_555
Al8 O22 1.783998 1_655
Al8 O44 1.784989 1_555
Al9 O62 1.771304 1_545
Al9 O71 1.771925 1_555
Al9 O13 1.783998 1_545
Al9 O45 1.784989 1_555
Al10 O61 1.771304 1_565
Al10 O68 1.771925 1_555
Al10 O18 1.783998 1_565
Al10 O46 1.784989 1_555
Al11 O52 1.771304 1_555
Al11 O65 1.771925 1_555
Al11 O19 1.783998 1_555
Al11 O47 1.784989 1_555
Al12 O75 1.771304 1_555
Al12 O58 1.771925 1_555
Al12 O4 1.783998 1_555
Al12 O24 1.784989 1_555
Al13 O68 1.771304 1_555
Al13 O60 1.771925 1_555
Al13 O5 1.783998 1_555
Al13 O25 1.784989 1_555
Al14 O69 1.771304 1_555
Al14 O62 1.771925 1_555
Al14 O11 1.783998 1_555
Al14 O26 1.784989 1_555
Al15 O72 1.771304 1_655
Al15 O61 1.771925 1_555
Al15 O0 1.783998 1_655
Al15 O27 1.784989 1_555
Al16 O65 1.771304 1_555
Al16 O54 1.771925 1_555
Al16 O3 1.783998 1_555
Al16 O28 1.784989 1_555
Al17 O66 1.771304 1_555
Al17 O52 1.771925 1_555
Al17 O9 1.783998 1_555
Al17 O29 1.784989 1_555
Al18 O71 1.771304 1_554
Al18 O57 1.771925 1_555
Al18 O8 1.783998 1_554
Al18 O30 1.784989 1_555
Al19 O70 1.771304 1_556
Al19 O55 1.771925 1_555
Al19 O2 1.783998 1_556
Al19 O31 1.784989 1_555
Al20 O67 1.771304 1_455
Al20 O63 1.771925 1_555
Al20 O10 1.783998 1_455
Al20 O32 1.784989 1_555
Al21 O74 1.771304 1_565
Al21 O59 1.771925 1_555
Al21 O1 1.783998 1_565
Al21 O33 1.784989 1_555
Al22 O73 1.771304 1_545
Al22 O56 1.771925 1_555
Al22 O6 1.783998 1_545
Al22 O34 1.784989 1_555
Al23 O64 1.771304 1_555
Al23 O53 1.771925 1_555
Al23 O7 1.783998 1_555
Al23 O35 1.784989 1_555
Al24 O48 1.739137 1_555
Al24 O0 1.791409 1_555
Al24 O1 1.791409 1_555
Al24 O2 1.791409 1_555
Al25 O49 1.739137 1_565
Al25 O6 1.791409 1_555
Al25 O11 1.791409 1_555
Al25 O3 1.791409 1_555
Al26 O50 1.739137 1_556
Al26 O8 1.791409 1_555
Al26 O4 1.791409 1_555
Al26 O9 1.791409 1_555
Al27 O51 1.739137 1_655
Al27 O10 1.791409 1_555
Al27 O7 1.791409 1_555
Al27 O5 1.791409 1_555
Al28 O48 1.739137 1_666
Al28 O14 1.791409 1_555
Al28 O12 1.791409 1_555
Al28 O13 1.791409 1_555
Al29 O49 1.739137 1_555
Al29 O23 1.791409 1_555
Al29 O15 1.791409 1_555
Al29 O18 1.791409 1_555
Al30 O50 1.739137 1_555
Al30 O16 1.791409 1_555
Al30 O21 1.791409 1_555
Al30 O20 1.791409 1_555
Al31 O51 1.739137 1_555
Al31 O19 1.791409 1_555
Al31 O17 1.791409 1_555
Al31 O22 1.791409 1_555
O0 Pb5 2.429421 1_545
O1 Pb11 2.429421 1_554
O2 Pb4 2.429421 1_455
O3 Pb7 2.429421 1_555
O4 Pb10 2.429421 1_556
O5 Pb6 2.429421 1_655
O6 Pb0 2.429421 1_555
O7 Pb9 2.429421 1_555
O8 Pb1 2.429421 1_555
O9 Pb3 2.429421 1_555
O10 Pb2 2.429421 1_555
O11 Pb8 2.429421 1_565
O12 Pb17 2.429421 1_565
O13 Pb23 2.429421 1_556
O14 Pb16 2.429421 1_655
O15 Pb19 2.429421 1_555
O16 Pb22 2.429421 1_554
O17 Pb18 2.429421 1_455
O18 Pb12 2.429421 1_555
O19 Pb21 2.429421 1_555
O20 Pb13 2.429421 1_555
O21 Pb15 2.429421 1_555
O22 Pb14 2.429421 1_555
O23 Pb20 2.429421 1_545
O24 Pb32 2.297259 1_555
O24 Pb3 2.348468 1_555
O25 Pb32 2.297259 1_555
O25 Pb9 2.348468 1_555
O26 Pb32 2.297259 1_555
O26 Pb7 2.348468 1_555
O27 Pb33 2.297259 1_555
O27 Pb4 2.348468 1_555
O28 Pb34 2.297259 1_555
O28 Pb0 2.348468 1_555
O29 Pb35 2.297259 1_555
O29 Pb1 2.348468 1_555
O30 Pb33 2.297259 1_555
O30 Pb10 2.348468 1_555
O31 Pb35 2.297259 1_555
O31 Pb11 2.348468 1_555
O32 Pb34 2.297259 1_555
O32 Pb6 2.348468 1_555
O33 Pb34 2.297259 1_555
O33 Pb5 2.348468 1_555
O34 Pb35 2.297259 1_555
O34 Pb8 2.348468 1_555
O35 Pb33 2.297259 1_555
O35 Pb2 2.348468 1_555
O36 Pb28 2.297259 1_555
O36 Pb15 2.348468 1_555
O37 Pb28 2.297259 1_555
O37 Pb21 2.348468 1_555
O38 Pb28 2.297259 1_555
O38 Pb19 2.348468 1_555
O39 Pb29 2.297259 1_555
O39 Pb16 2.348468 1_555
O40 Pb30 2.297259 1_555
O40 Pb12 2.348468 1_555
O41 Pb31 2.297259 1_555
O41 Pb13 2.348468 1_555
O42 Pb29 2.297259 1_555
O42 Pb22 2.348468 1_555
O43 Pb31 2.297259 1_555
O43 Pb23 2.348468 1_555
O44 Pb30 2.297259 1_555
O44 Pb18 2.348468 1_555
O45 Pb30 2.297259 1_555
O45 Pb17 2.348468 1_555
O46 Pb31 2.297259 1_555
O46 Pb20 2.348468 1_555
O47 Pb29 2.297259 1_555
O47 Pb14 2.348468 1_555
O52 Pb24 2.763061 1_555
O53 Pb24 2.763061 1_555
O54 Pb24 2.763061 1_555
O55 Pb25 2.763061 1_556
O56 Pb26 2.763061 1_555
O57 Pb27 2.763061 1_555
O58 Pb25 2.763061 1_656
O59 Pb27 2.763061 1_565
O60 Pb26 2.763061 1_665
O61 Pb26 2.763061 1_655
O62 Pb27 2.763061 1_566
O63 Pb25 2.763061 1_555
O64 Pb24 2.763061 1_555
O65 Pb24 2.763061 1_555
O66 Pb24 2.763061 1_555
O67 Pb25 2.763061 1_655
O68 Pb26 2.763061 1_665
O69 Pb27 2.763061 1_566
O70 Pb25 2.763061 1_555
O71 Pb27 2.763061 1_556
O72 Pb26 2.763061 1_555
O73 Pb26 2.763061 1_565
O74 Pb27 2.763061 1_555
O75 Pb25 2.763061 1_656
O76 Pb21 2.303755 1_555
O76 Pb15 2.303755 1_555
O76 Pb19 2.303755 1_555
O76 Pb24 2.515158 1_555
O77 Pb22 2.303755 1_555
O77 Pb16 2.303755 1_555
O77 Pb14 2.303755 1_555
O77 Pb25 2.515158 1_556
O78 Pb18 2.303755 1_555
O78 Pb17 2.303755 1_555
O78 Pb12 2.303755 1_555
O78 Pb26 2.515158 1_655
O79 Pb20 2.303755 1_555
O79 Pb23 2.303755 1_555
O79 Pb13 2.303755 1_555
O79 Pb27 2.515158 1_565
O80 Pb3 2.303755 1_555
O80 Pb9 2.303755 1_555
O80 Pb7 2.303755 1_555
O80 Pb24 2.515158 1_555
O81 Pb2 2.303755 1_555
O81 Pb4 2.303755 1_555
O81 Pb10 2.303755 1_555
O81 Pb25 2.515158 1_655
O82 Pb5 2.303755 1_555
O82 Pb0 2.303755 1_555
O82 Pb6 2.303755 1_555
O82 Pb26 2.515158 1_565
O83 Pb11 2.303755 1_555
O83 Pb1 2.303755 1_555
O83 Pb8 2.303755 1_555
O83 Pb27 2.515158 1_556
