# generated using pymatgen
data_FeOF
_symmetry_space_group_name_H-M   'P 1'
_cell_length_a   14.21554965
_cell_length_b   14.21803763
_cell_length_c   3.09563200
_cell_angle_alpha   90.00000000
_cell_angle_beta   90.00000000
_cell_angle_gamma   90.06982636
_symmetry_Int_Tables_number   1
_chemical_formula_structural   FeOF
_chemical_formula_sum   'Fe18 O18 F18'
_cell_volume   625.68006884
_cell_formula_units_Z   18
loop_
 _symmetry_equiv_pos_site_id
 _symmetry_equiv_pos_as_xyz
  1  'x, y, z'
loop_
 _atom_site_type_symbol
 _atom_site_label
 _atom_site_symmetry_multiplicity
 _atom_site_fract_x
 _atom_site_fract_y
 _atom_site_fract_z
 _atom_site_occupancy
  Fe  Fe0  1  0.01341300  0.99799600  0.00000000  1
  Fe  Fe1  1  0.00370600  0.34053200  0.00000000  1
  Fe  Fe2  1  0.00482800  0.65765800  0.00000000  1
  Fe  Fe3  1  0.14674900  0.17151600  0.50000000  1
  Fe  Fe4  1  0.15379900  0.49813000  0.50000000  1
  Fe  Fe5  1  0.14809500  0.82523300  0.50000000  1
  Fe  Fe6  1  0.33223500  0.00044800  0.00000000  1
  Fe  Fe7  1  0.34604800  0.32990700  0.00000000  1
  Fe  Fe8  1  0.34625700  0.66531100  0.00000000  1
  Fe  Fe9  1  0.48786700  0.49754400  0.50000000  1
  Fe  Fe10  1  0.50526900  0.18224200  0.50000000  1
  Fe  Fe11  1  0.49966800  0.81845500  0.50000000  1
  Fe  Fe12  1  0.67913400  0.99719700  0.00000000  1
  Fe  Fe13  1  0.67265000  0.32431100  0.00000000  1
  Fe  Fe14  1  0.66710900  0.67693700  0.00000000  1
  Fe  Fe15  1  0.82037500  0.16469700  0.50000000  1
  Fe  Fe16  1  0.85085100  0.50180300  0.50000000  1
  Fe  Fe17  1  0.82122800  0.83020200  0.50000000  1
  O  O0  1  0.06180000  0.27216800  0.50000000  1
  O  O1  1  0.06674200  0.60221500  0.50000000  1
  O  O2  1  0.06666200  0.93496600  0.50000000  1
  O  O3  1  0.10155300  0.10242600  0.00000000  1
  O  O4  1  0.10485800  0.43473200  0.00000000  1
  O  O5  1  0.09857700  0.76552000  0.00000000  1
  O  O6  1  0.39447600  0.26256700  0.50000000  1
  O  O7  1  0.40045900  0.60393800  0.50000000  1
  O  O8  1  0.43619800  0.43349300  0.00000000  1
  O  O9  1  0.43068000  0.77433300  0.00000000  1
  O  O10  1  0.56667400  0.23384700  0.00000000  1
  O  O11  1  0.60254100  0.73051900  0.50000000  1
  O  O12  1  0.73583300  0.27339000  0.50000000  1
  O  O13  1  0.72998300  0.93353000  0.50000000  1
  O  O14  1  0.76564600  0.10218200  0.00000000  1
  O  O15  1  0.77208600  0.76477100  0.00000000  1
  O  O16  1  0.89715900  0.56973000  0.00000000  1
  O  O17  1  0.93399200  0.39599300  0.50000000  1
  F  F0  1  0.23037100  0.23378800  0.00000000  1
  F  F1  1  0.23478000  0.56664400  0.00000000  1
  F  F2  1  0.23482500  0.89761900  0.00000000  1
  F  F3  1  0.26876100  0.06910800  0.50000000  1
  F  F4  1  0.26642700  0.73309200  0.50000000  1
  F  F5  1  0.26963500  0.39888200  0.50000000  1
  F  F6  1  0.40192000  0.93737900  0.50000000  1
  F  F7  1  0.43622600  0.09802600  0.00000000  1
  F  F8  1  0.56801100  0.56245100  0.00000000  1
  F  F9  1  0.56199500  0.90196200  0.00000000  1
  F  F10  1  0.59618600  0.06340000  0.50000000  1
  F  F11  1  0.60424300  0.40264000  0.50000000  1
  F  F12  1  0.72805100  0.59763900  0.50000000  1
  F  F13  1  0.76526700  0.43944900  0.00000000  1
  F  F14  1  0.89898700  0.22532500  0.00000000  1
  F  F15  1  0.89875800  0.90090900  0.00000000  1
  F  F16  1  0.93432300  0.06373600  0.50000000  1
  F  F17  1  0.93603500  0.73751100  0.50000000  1
loop_
_geom_bond_atom_site_label_1
_geom_bond_atom_site_label_2
_geom_bond_distance
_geom_bond_site_symmetry_2
Fe0 O3 1.941641 1_565
Fe0 O2 1.942547 1_555
Fe0 O2 1.942547 1_554
Fe1 O4 1.963869 1_555
Fe1 O17 2.000393 1_455
Fe1 O17 2.000393 1_454
Fe1 O0 2.006112 1_555
Fe1 O0 2.006112 1_554
Fe2 O1 1.947685 1_555
Fe2 O1 1.947685 1_554
Fe2 O16 1.975070 1_455
Fe2 O5 2.030511 1_555
Fe3 O0 1.873626 1_555
Fe3 O3 1.942150 1_555
Fe3 O3 1.942150 1_556
Fe4 O4 1.921132 1_556
Fe4 O4 1.921132 1_555
Fe4 O1 1.930307 1_555
Fe5 O5 1.900156 1_556
Fe5 O5 1.900156 1_555
Fe5 O2 1.943878 1_555
Fe7 O6 1.946272 1_554
Fe7 O6 1.946272 1_555
Fe7 O8 1.951111 1_555
Fe8 O7 1.937136 1_554
Fe8 O7 1.937136 1_555
Fe8 O9 1.959208 1_555
Fe9 O8 1.939829 1_555
Fe9 O8 1.939829 1_556
Fe9 O7 1.958781 1_555
Fe10 O10 1.922104 1_556
Fe10 O10 1.922104 1_555
Fe10 O6 1.946604 1_555
Fe11 O11 1.925163 1_555
Fe11 O9 1.936376 1_556
Fe11 O9 1.936376 1_555
Fe12 O14 1.932891 1_565
Fe12 O13 1.933716 1_555
Fe12 O13 1.933716 1_554
Fe13 O12 1.930860 1_554
Fe13 O12 1.930860 1_555
Fe13 O10 1.979698 1_555
Fe14 O15 1.944737 1_555
Fe14 O11 1.954561 1_555
Fe14 O11 1.954561 1_554
Fe15 O14 1.946632 1_556
Fe15 O14 1.946632 1_555
Fe15 O12 1.958862 1_555
Fe16 O17 1.914278 1_555
Fe16 O16 1.939145 1_555
Fe16 O16 1.939145 1_556
Fe17 O15 1.935878 1_555
Fe17 O15 1.935878 1_556
Fe17 O13 1.960976 1_555
F0 Fe7 2.136884 1_555
F0 Fe3 2.142466 1_554
F0 Fe3 2.142466 1_555
F1 Fe8 2.115152 1_555
F1 Fe4 2.160365 1_554
F1 Fe4 2.160365 1_555
F2 Fe6 2.012482 1_565
F2 Fe5 2.229786 1_554
F2 Fe5 2.229786 1_555
F3 Fe6 2.040844 1_555
F3 Fe6 2.040844 1_556
F3 Fe3 2.265963 1_555
F4 Fe5 2.133374 1_555
F4 Fe8 2.148249 1_556
F4 Fe8 2.148249 1_555
F5 Fe7 2.130734 1_556
F5 Fe7 2.130734 1_555
F5 Fe4 2.169892 1_555
F6 Fe6 2.045314 1_565
F6 Fe6 2.045314 1_566
F6 Fe11 2.189881 1_555
F7 Fe6 2.026112 1_555
F7 Fe10 2.188587 1_555
F7 Fe10 2.188587 1_554
F8 Fe9 2.131386 1_554
F8 Fe9 2.131386 1_555
F8 Fe14 2.151409 1_555
F9 Fe11 2.141934 1_555
F9 Fe11 2.141934 1_554
F9 Fe12 2.144958 1_555
F10 Fe10 2.128567 1_555
F10 Fe12 2.162138 1_546
F10 Fe12 2.162138 1_545
F11 Fe9 2.136130 1_555
F11 Fe13 2.141101 1_556
F11 Fe13 2.141101 1_555
F12 Fe14 2.102333 1_556
F12 Fe14 2.102333 1_555
F12 Fe16 2.215815 1_555
F13 Fe13 2.099542 1_555
F13 Fe16 2.158530 1_555
F13 Fe16 2.158530 1_554
F14 Fe15 2.094107 1_554
F14 Fe15 2.094107 1_555
F14 Fe1 2.212058 1_655
F15 Fe0 2.134597 1_655
F15 Fe17 2.149043 1_554
F15 Fe17 2.149043 1_555
F16 Fe0 2.129793 1_645
F16 Fe0 2.129793 1_646
F16 Fe15 2.165663 1_555
F17 Fe17 2.098959 1_555
F17 Fe2 2.154951 1_656
F17 Fe2 2.154951 1_655
