# generated using pymatgen
data_CaP4(Br3O)4
_symmetry_space_group_name_H-M   'P 1'
_cell_length_a   5.87195217
_cell_length_b   11.72150414
_cell_length_c   11.67641224
_cell_angle_alpha   89.74306947
_cell_angle_beta   90.01533612
_cell_angle_gamma   95.25171028
_symmetry_Int_Tables_number   1
_chemical_formula_structural   CaP4(Br3O)4
_chemical_formula_sum   'Ca1 P4 Br12 O4'
_cell_volume   800.28372023
_cell_formula_units_Z   1
loop_
 _symmetry_equiv_pos_site_id
 _symmetry_equiv_pos_as_xyz
  1  'x, y, z'
loop_
 _atom_site_type_symbol
 _atom_site_label
 _atom_site_symmetry_multiplicity
 _atom_site_fract_x
 _atom_site_fract_y
 _atom_site_fract_z
 _atom_site_occupancy
  Ca  Ca0  1  0.41945100  0.01426400  0.24639600  1
  P  P0  1  0.37211200  0.32930900  0.24671100  1
  P  P1  1  0.60412600  0.68617700  0.74575100  1
  P  P2  1  0.92798800  0.18465300  0.74439800  1
  P  P3  1  0.04380400  0.74808400  0.24439800  1
  Br  Br0  1  0.82831700  0.66836400  0.59674000  1
  Br  Br1  1  0.91044500  0.04053800  0.24706600  1
  Br  Br2  1  0.31002500  0.82704200  0.40182200  1
  Br  Br3  1  0.70112700  0.16750800  0.89495400  1
  Br  Br4  1  0.17259100  0.36044400  0.39902200  1
  Br  Br5  1  0.82656700  0.66648800  0.89535400  1
  Br  Br6  1  0.37111900  0.52816500  0.74517200  1
  Br  Br7  1  0.69846700  0.16374600  0.59526700  1
  Br  Br8  1  0.10973700  0.02970800  0.74673700  1
  Br  Br9  1  0.17335100  0.35988300  0.09361500  1
  Br  Br10  1  0.31009200  0.83103900  0.08806200  1
  Br  Br11  1  0.65561700  0.46175500  0.24592300  1
  O  O0  1  0.49254700  0.79384500  0.74578700  1
  O  O1  1  0.07546100  0.29358900  0.74229000  1
  O  O2  1  0.44603200  0.21068300  0.24750000  1
  O  O3  1  0.06144400  0.62221700  0.24343400  1
loop_
_geom_bond_atom_site_label_1
_geom_bond_atom_site_label_2
_geom_bond_distance
_geom_bond_site_symmetry_2
Ca0 O2 2.293407 1_555
Br0 P1 2.204248 1_555
Br1 Ca0 2.871341 1_555
Br1 Ca0 3.032610 1_655
Br2 P3 2.535335 1_555
Br2 Ca0 2.868647 1_565
Br3 P2 2.203271 1_555
Br4 P0 2.180335 1_555
Br5 P1 2.204784 1_555
Br6 P1 2.199695 1_555
Br7 P2 2.202439 1_555
Br8 P2 2.189204 1_455
Br9 P0 2.180792 1_555
Br10 P3 2.535733 1_555
Br10 Ca0 2.867983 1_565
Br11 P0 2.169867 1_555
O0 P1 1.474234 1_555
O1 P2 1.475890 1_455
O2 P0 1.494081 1_555
O3 P3 1.488503 1_555
