# generated using pymatgen
data_Co3(OF2)2
_symmetry_space_group_name_H-M   'P 1'
_cell_length_a   4.70110805
_cell_length_b   9.27275184
_cell_length_c   4.68849844
_cell_angle_alpha   90.80798881
_cell_angle_beta   90.01421073
_cell_angle_gamma   89.99250914
_symmetry_Int_Tables_number   1
_chemical_formula_structural   Co3(OF2)2
_chemical_formula_sum   'Co6 O4 F8'
_cell_volume   204.36167032
_cell_formula_units_Z   2
loop_
 _symmetry_equiv_pos_site_id
 _symmetry_equiv_pos_as_xyz
  1  'x, y, z'
loop_
 _atom_site_type_symbol
 _atom_site_label
 _atom_site_symmetry_multiplicity
 _atom_site_fract_x
 _atom_site_fract_y
 _atom_site_fract_z
 _atom_site_occupancy
  Co  Co0  1  0.02415500  0.66278300  0.02757800  1
  Co  Co1  1  0.52416700  0.50387600  0.47236400  1
  Co  Co2  1  0.98886100  0.34016500  0.01267600  1
  Co  Co3  1  0.48887000  0.82649700  0.48731600  1
  Co  Co4  1  0.95737200  0.00623500  0.95745700  1
  Co  Co5  1  0.45733300  0.16043700  0.54266900  1
  O  O0  1  0.82970500  0.48879700  0.18799500  1
  O  O1  1  0.32970900  0.67787300  0.31194100  1
  O  O2  1  0.68022600  0.99545700  0.69283900  1
  O  O3  1  0.18023700  0.17119900  0.80721100  1
  F  F0  1  0.78368700  0.16405400  0.20505000  1
  F  F1  1  0.28365500  0.00265300  0.29500300  1
  F  F2  1  0.72385900  0.67263100  0.70719600  1
  F  F3  1  0.22378900  0.49402800  0.79268700  1
  F  F4  1  0.81395000  0.84241600  0.20068300  1
  F  F5  1  0.31399700  0.32423600  0.29927500  1
  F  F6  1  0.69819600  0.32612600  0.68686300  1
  F  F7  1  0.19823200  0.84053300  0.81319700  1
loop_
_geom_bond_atom_site_label_1
_geom_bond_atom_site_label_2
_geom_bond_distance
_geom_bond_site_symmetry_2
Co0 O1 1.963238 1_555
Co0 O0 2.009749 1_455
Co0 F2 2.064079 1_454
Co0 F4 2.090838 1_455
Co0 F7 2.108111 1_554
Co0 F3 2.119861 1_554
Co1 O0 1.963653 1_555
Co1 O1 2.009498 1_555
Co1 F3 2.064667 1_555
Co1 F5 2.090798 1_555
Co1 F6 2.107933 1_555
Co1 F2 2.119781 1_555
Co2 O0 1.761553 1_555
Co2 O3 2.037083 1_654
Co2 F5 2.041624 1_655
Co2 F6 2.052075 1_554
Co2 F3 2.088449 1_654
Co2 F0 2.110222 1_555
Co3 O1 1.761605 1_555
Co3 O2 2.037094 1_555
Co3 F4 2.042052 1_555
Co3 F7 2.052707 1_555
Co3 F2 2.087895 1_555
Co3 F1 2.110110 1_565
Co4 O2 1.800693 1_545
Co4 O3 1.991227 1_655
Co4 F7 2.017691 1_645
Co4 F0 2.026838 1_556
Co4 F4 2.027822 1_546
Co4 F1 2.204260 1_656
Co5 O3 1.800697 1_555
Co5 O2 1.990887 1_545
Co5 F6 2.017545 1_555
Co5 F1 2.026708 1_555
Co5 F5 2.027678 1_555
Co5 F0 2.205299 1_555
