# generated using pymatgen
data_SrV2(AsO5)2
_symmetry_space_group_name_H-M   'P 1'
_cell_length_a   5.00096200
_cell_length_b   12.74520500
_cell_length_c   12.92960600
_cell_angle_alpha   90.00000000
_cell_angle_beta   90.00000000
_cell_angle_gamma   90.00000000
_symmetry_Int_Tables_number   1
_chemical_formula_structural   SrV2(AsO5)2
_chemical_formula_sum   'Sr4 V8 As8 O40'
_cell_volume   824.11092364
_cell_formula_units_Z   4
loop_
 _symmetry_equiv_pos_site_id
 _symmetry_equiv_pos_as_xyz
  1  'x, y, z'
loop_
 _atom_site_type_symbol
 _atom_site_label
 _atom_site_symmetry_multiplicity
 _atom_site_fract_x
 _atom_site_fract_y
 _atom_site_fract_z
 _atom_site_occupancy
  Sr  Sr0  1  0.73815200  0.00728700  0.76748800  1
  Sr  Sr1  1  0.23815200  0.49271300  0.23251200  1
  Sr  Sr2  1  0.26184800  0.50728700  0.73251200  1
  Sr  Sr3  1  0.76184800  0.99271300  0.26748800  1
  V  V0  1  0.49349700  0.34775400  0.99333600  1
  V  V1  1  0.99349700  0.15224600  0.00666400  1
  V  V2  1  0.50650300  0.84775400  0.50666400  1
  V  V3  1  0.00650300  0.65224600  0.49333600  1
  V  V4  1  0.77408000  0.75611000  0.09745100  1
  V  V5  1  0.27408000  0.74389000  0.90254900  1
  V  V6  1  0.22592000  0.25611000  0.40254900  1
  V  V7  1  0.72592000  0.24389000  0.59745100  1
  As  As0  1  0.95867600  0.53293100  0.99720700  1
  As  As1  1  0.45867600  0.96706900  0.00279300  1
  As  As2  1  0.04132400  0.03293100  0.50279300  1
  As  As3  1  0.54132400  0.46706900  0.49720700  1
  As  As4  1  0.26509100  0.76132700  0.28093900  1
  As  As5  1  0.76509100  0.73867300  0.71906100  1
  As  As6  1  0.73490900  0.26132700  0.21906100  1
  As  As7  1  0.23490900  0.23867300  0.78093900  1
  O  O0  1  0.75649800  0.26694100  0.96699400  1
  O  O1  1  0.25649800  0.23305900  0.03300600  1
  O  O2  1  0.24350200  0.76694100  0.53300600  1
  O  O3  1  0.74350200  0.73305900  0.46699400  1
  O  O4  1  0.01960400  0.78743300  0.01037500  1
  O  O5  1  0.51960400  0.71256700  0.98962500  1
  O  O6  1  0.98039600  0.28743300  0.48962500  1
  O  O7  1  0.48039600  0.21256700  0.51037500  1
  O  O8  1  0.09415300  0.60171200  0.89411600  1
  O  O9  1  0.59415300  0.89828800  0.10588400  1
  O  O10  1  0.90584700  0.10171200  0.60588400  1
  O  O11  1  0.40584700  0.39828800  0.39411600  1
  O  O12  1  0.90566500  0.60505000  0.10958700  1
  O  O13  1  0.40566500  0.89495000  0.89041300  1
  O  O14  1  0.67783100  0.47826500  0.94534800  1
  O  O15  1  0.09433500  0.10505000  0.39041300  1
  O  O16  1  0.18710100  0.44422200  0.04494600  1
  O  O17  1  0.68710100  0.05577800  0.95505400  1
  O  O18  1  0.81289900  0.94422200  0.45505400  1
  O  O19  1  0.31289900  0.55577800  0.54494600  1
  O  O20  1  0.51658200  0.18684600  0.72263200  1
  O  O21  1  0.01658200  0.31315400  0.27736800  1
  O  O22  1  0.48341800  0.68684600  0.77736800  1
  O  O23  1  0.98341800  0.81315400  0.22263300  1
  O  O24  1  0.01663700  0.29915400  0.69785800  1
  O  O25  1  0.51663700  0.20084600  0.30214200  1
  O  O26  1  0.98336300  0.79915400  0.80214200  1
  O  O27  1  0.48336300  0.70084600  0.19785800  1
  O  O28  1  0.10255600  0.13437500  0.84994800  1
  O  O29  1  0.60255600  0.36562500  0.15005200  1
  O  O30  1  0.89744400  0.63437500  0.65005200  1
  O  O31  1  0.39744400  0.86562500  0.34994800  1
  O  O32  1  0.32787100  0.34814500  0.85271400  1
  O  O33  1  0.82787100  0.15185500  0.14728600  1
  O  O34  1  0.67212900  0.84814500  0.64728600  1
  O  O35  1  0.17212900  0.65185500  0.35271400  1
  O  O36  1  0.82216900  0.52173500  0.44534800  1
  O  O37  1  0.32216900  0.97826500  0.55465200  1
  O  O38  1  0.17783100  0.02173500  0.05465200  1
  O  O39  1  0.59433500  0.39495000  0.60958700  1
loop_
_geom_bond_atom_site_label_1
_geom_bond_atom_site_label_2
_geom_bond_distance
_geom_bond_site_symmetry_2
As0 O14 1.705178 1_555
As0 O16 1.721695 1_656
As0 O8 1.733261 1_655
As0 O12 1.739670 1_556
As1 O38 1.705178 1_565
As1 O17 1.721695 1_564
As1 O9 1.733261 1_555
As1 O13 1.739670 1_554
As2 O37 1.705178 1_545
As2 O18 1.721695 1_445
As2 O10 1.733261 1_455
As2 O15 1.739670 1_555
As3 O36 1.705178 1_555
As3 O19 1.721695 1_555
As3 O11 1.733261 1_555
As3 O39 1.739670 1_555
As4 O27 1.714538 1_555
As4 O23 1.728844 1_455
As4 O31 1.732416 1_555
As4 O35 1.738983 1_555
As5 O26 1.714538 1_555
As5 O22 1.728850 1_555
As5 O30 1.732416 1_555
As5 O34 1.738983 1_555
As6 O25 1.714538 1_555
As6 O21 1.728850 1_655
As6 O29 1.732416 1_555
As6 O33 1.738983 1_555
As7 O24 1.714538 1_555
As7 O20 1.728850 1_555
As7 O28 1.732416 1_555
As7 O32 1.738983 1_555
O0 V0 1.704923 1_555
O0 V1 1.950572 1_556
O1 V1 1.704923 1_455
O1 V0 1.950572 1_554
O2 V2 1.704923 1_555
O2 V3 1.950572 1_555
O3 V3 1.704923 1_655
O3 V2 1.950572 1_555
O4 V4 1.713057 1_455
O4 V5 1.967538 1_554
O5 V5 1.713057 1_555
O5 V4 1.967538 1_556
O6 V6 1.713057 1_655
O6 V7 1.967538 1_555
O7 V7 1.713057 1_555
O7 V6 1.967538 1_555
O8 V5 2.026131 1_555
O8 Sr2 2.552950 1_555
O9 V4 2.026131 1_555
O9 Sr3 2.552950 1_555
O10 V7 2.026131 1_555
O10 Sr0 2.552950 1_555
O11 V6 2.026131 1_555
O11 Sr1 2.552950 1_555
O12 V4 2.040686 1_555
O12 Sr1 2.709389 1_655
O13 V5 2.040686 1_555
O13 Sr0 2.709389 1_565
O14 V0 2.000411 1_555
O15 V6 2.040686 1_555
O15 Sr3 2.709389 1_445
O16 V0 2.074809 1_554
O16 Sr1 2.515654 1_555
O17 V1 2.074809 1_556
O17 Sr0 2.515654 1_555
O18 V2 2.074809 1_555
O18 Sr3 2.515654 1_555
O19 V3 2.074809 1_555
O19 Sr2 2.515654 1_555
O20 V7 2.060155 1_555
O20 Sr0 2.607964 1_555
O21 V6 2.060155 1_555
O21 Sr1 2.607964 1_555
O22 V5 2.060155 1_555
O22 Sr2 2.607964 1_555
O23 V4 2.060166 1_555
O23 Sr3 2.607961 1_555
O24 V7 2.072490 1_455
O24 Sr2 2.956578 1_555
O25 V6 2.072490 1_555
O25 Sr3 2.956578 1_545
O26 V5 2.072490 1_655
O26 Sr0 2.956578 1_565
O27 V4 2.072490 1_555
O27 Sr1 2.956578 1_555
O28 V1 2.110719 1_456
O28 Sr0 2.661089 1_455
O29 V0 2.110719 1_554
O29 Sr1 2.661089 1_555
O30 V3 2.110719 1_655
O30 Sr2 2.661089 1_655
O31 V2 2.110719 1_555
O31 Sr3 2.661089 1_555
O32 V0 1.997972 1_555
O32 Sr2 2.576516 1_555
O33 V1 1.997972 1_555
O33 Sr3 2.576516 1_545
O34 V2 1.997972 1_555
O34 Sr0 2.576516 1_565
O35 V3 1.997972 1_555
O35 Sr1 2.576516 1_555
O36 V3 2.000411 1_655
O37 V2 2.000411 1_555
O38 V1 2.000411 1_455
O39 V7 2.040686 1_555
O39 Sr2 2.709389 1_555
