# generated using pymatgen
data_Na4Al3Si3NO12
_symmetry_space_group_name_H-M   'P 1'
_cell_length_a   8.91747100
_cell_length_b   8.91747100
_cell_length_c   8.91747100
_cell_angle_alpha   90.00000000
_cell_angle_beta   90.00000000
_cell_angle_gamma   90.00000000
_symmetry_Int_Tables_number   1
_chemical_formula_structural   Na4Al3Si3NO12
_chemical_formula_sum   'Na8 Al6 Si6 N2 O24'
_cell_volume   709.12878886
_cell_formula_units_Z   2
loop_
 _symmetry_equiv_pos_site_id
 _symmetry_equiv_pos_as_xyz
  1  'x, y, z'
loop_
 _atom_site_type_symbol
 _atom_site_label
 _atom_site_symmetry_multiplicity
 _atom_site_fract_x
 _atom_site_fract_y
 _atom_site_fract_z
 _atom_site_occupancy
  Na  Na0  1  0.17070900  0.17070900  0.17070900  1
  Na  Na1  1  0.82929100  0.82929100  0.17070900  1
  Na  Na2  1  0.82929100  0.17070900  0.82929100  1
  Na  Na3  1  0.67070900  0.67070900  0.67070900  1
  Na  Na4  1  0.17070900  0.82929100  0.82929100  1
  Na  Na5  1  0.32929100  0.32929100  0.67070900  1
  Na  Na6  1  0.67070900  0.32929100  0.32929100  1
  Na  Na7  1  0.32929100  0.67070900  0.32929100  1
  Al  Al0  1  0.25000000  0.00000000  0.50000000  1
  Al  Al1  1  0.75000000  0.00000000  0.50000000  1
  Al  Al2  1  0.50000000  0.25000000  0.00000000  1
  Al  Al3  1  0.50000000  0.75000000  0.00000000  1
  Al  Al4  1  0.00000000  0.50000000  0.25000000  1
  Al  Al5  1  0.00000000  0.50000000  0.75000000  1
  Si  Si0  1  0.25000000  0.50000000  0.00000000  1
  Si  Si1  1  0.75000000  0.50000000  0.00000000  1
  Si  Si2  1  0.00000000  0.25000000  0.50000000  1
  Si  Si3  1  0.00000000  0.75000000  0.50000000  1
  Si  Si4  1  0.50000000  0.00000000  0.25000000  1
  Si  Si5  1  0.50000000  0.00000000  0.75000000  1
  N  N0  1  0.00000000  0.00000000  0.00000000  1
  N  N1  1  0.50000000  0.50000000  0.50000000  1
  O  O0  1  0.13807300  0.14841000  0.43294400  1
  O  O1  1  0.86192700  0.85159000  0.43294400  1
  O  O2  1  0.86192700  0.14841000  0.56705600  1
  O  O3  1  0.43294400  0.13807300  0.14841000  1
  O  O4  1  0.64841000  0.63807300  0.93294400  1
  O  O5  1  0.13807300  0.85159000  0.56705600  1
  O  O6  1  0.43294400  0.86192700  0.85159000  1
  O  O7  1  0.35159000  0.36192700  0.93294400  1
  O  O8  1  0.56705600  0.86192700  0.14841000  1
  O  O9  1  0.64841000  0.36192700  0.06705600  1
  O  O10  1  0.56705600  0.13807300  0.85159000  1
  O  O11  1  0.35159000  0.63807300  0.06705600  1
  O  O12  1  0.14841000  0.43294400  0.13807300  1
  O  O13  1  0.63807300  0.93294400  0.64841000  1
  O  O14  1  0.14841000  0.56705600  0.86192700  1
  O  O15  1  0.36192700  0.06705600  0.64841000  1
  O  O16  1  0.85159000  0.56705600  0.13807300  1
  O  O17  1  0.63807300  0.06705600  0.35159000  1
  O  O18  1  0.85159000  0.43294400  0.86192700  1
  O  O19  1  0.36192700  0.93294400  0.35159000  1
  O  O20  1  0.93294400  0.64841000  0.63807300  1
  O  O21  1  0.93294400  0.35159000  0.36192700  1
  O  O22  1  0.06705600  0.35159000  0.63807300  1
  O  O23  1  0.06705600  0.64841000  0.36192700  1
loop_
_geom_bond_atom_site_label_1
_geom_bond_atom_site_label_2
_geom_bond_distance
_geom_bond_site_symmetry_2
Na0 O0 2.364888 1_555
Na0 O3 2.364888 1_555
Na0 O12 2.364888 1_555
Na1 O8 2.364888 1_555
Na1 O1 2.364888 1_555
Na1 O16 2.364888 1_555
Na2 O10 2.364888 1_555
Na2 O2 2.364888 1_555
Na2 O18 2.364888 1_555
Na3 O13 2.364888 1_555
Na3 O20 2.364888 1_555
Na3 O4 2.364888 1_555
Na4 O5 2.364888 1_555
Na4 O6 2.364888 1_555
Na4 O14 2.364888 1_555
Na5 O22 2.364888 1_555
Na5 O7 2.364888 1_555
Na5 O15 2.364888 1_555
Na6 O17 2.364888 1_555
Na6 O9 2.364888 1_555
Na6 O21 2.364888 1_555
Na7 O11 2.364888 1_555
Na7 O23 2.364888 1_555
Na7 O19 2.364888 1_555
Al0 O0 1.762181 1_555
Al0 O19 1.762181 1_545
Al0 O15 1.762181 1_555
Al0 O5 1.762181 1_545
Al1 O17 1.762181 1_555
Al1 O2 1.762181 1_555
Al1 O13 1.762181 1_545
Al1 O1 1.762181 1_545
Al2 O7 1.762181 1_554
Al2 O3 1.762181 1_555
Al2 O9 1.762181 1_555
Al2 O10 1.762181 1_554
Al3 O11 1.762181 1_555
Al3 O8 1.762181 1_555
Al3 O6 1.762181 1_554
Al3 O4 1.762181 1_554
Al4 O21 1.762181 1_455
Al4 O12 1.762181 1_555
Al4 O23 1.762181 1_555
Al4 O16 1.762181 1_455
Al5 O22 1.762181 1_555
Al5 O14 1.762181 1_555
Al5 O20 1.762181 1_455
Al5 O18 1.762181 1_455
N0 Na0 2.636688 1_555
N0 Na2 2.636688 1_454
N0 Na1 2.636688 1_445
N0 Na4 2.636688 1_544
N1 Na5 2.636688 1_555
N1 Na6 2.636688 1_555
N1 Na3 2.636688 1_555
N1 Na7 2.636688 1_555
O0 Si2 1.641425 1_555
O1 Si3 1.641425 1_655
O2 Si2 1.641425 1_655
O3 Si4 1.641425 1_555
O4 Si1 1.641425 1_556
O5 Si3 1.641425 1_555
O6 Si5 1.641425 1_565
O7 Si0 1.641425 1_556
O8 Si4 1.641425 1_565
O9 Si1 1.641425 1_555
O10 Si5 1.641425 1_555
O11 Si0 1.641425 1_555
O12 Si0 1.641425 1_555
O13 Si5 1.641425 1_565
O14 Si0 1.641425 1_556
O15 Si5 1.641425 1_555
O16 Si1 1.641425 1_555
O17 Si4 1.641425 1_555
O18 Si1 1.641425 1_556
O19 Si4 1.641425 1_565
O20 Si3 1.641425 1_655
O21 Si2 1.641425 1_655
O22 Si2 1.641425 1_555
O23 Si3 1.641425 1_555
