# generated using pymatgen
data_B2(CN2)3
_symmetry_space_group_name_H-M   'P 1'
_cell_length_a   5.21088100
_cell_length_b   5.25848600
_cell_length_c   8.35018100
_cell_angle_alpha   90.00000000
_cell_angle_beta   90.00000000
_cell_angle_gamma   90.00000000
_symmetry_Int_Tables_number   1
_chemical_formula_structural   B2(CN2)3
_chemical_formula_sum   'B4 C6 N12'
_cell_volume   228.80618861
_cell_formula_units_Z   2
loop_
 _symmetry_equiv_pos_site_id
 _symmetry_equiv_pos_as_xyz
  1  'x, y, z'
loop_
 _atom_site_type_symbol
 _atom_site_label
 _atom_site_symmetry_multiplicity
 _atom_site_fract_x
 _atom_site_fract_y
 _atom_site_fract_z
 _atom_site_occupancy
  B  B0  1  0.15379100  0.75802200  0.50000000  1
  B  B1  1  0.84620900  0.24197800  0.50000000  1
  B  B2  1  0.34620900  0.25802200  0.00000000  1
  B  B3  1  0.65379100  0.74197800  0.00000000  1
  C  C0  1  0.50000000  0.00000000  0.83284000  1
  C  C1  1  0.00000000  0.50000000  0.66716000  1
  C  C2  1  0.50000000  0.00000000  0.16716000  1
  C  C3  1  0.50000000  0.50000000  0.50000000  1
  C  C4  1  0.00000000  0.00000000  0.00000000  1
  C  C5  1  0.00000000  0.50000000  0.33284000  1
  N  N0  1  0.98881500  0.26694700  0.34817900  1
  N  N1  1  0.48881500  0.23305300  0.84817900  1
  N  N2  1  0.51118500  0.76694700  0.84817900  1
  N  N3  1  0.51118500  0.76694700  0.15182100  1
  N  N4  1  0.57595300  0.28038400  0.50000000  1
  N  N5  1  0.48881500  0.23305300  0.15182100  1
  N  N6  1  0.01118500  0.73305300  0.65182100  1
  N  N7  1  0.92404700  0.78038400  0.00000000  1
  N  N8  1  0.07595300  0.21961600  0.00000000  1
  N  N9  1  0.42404700  0.71961600  0.50000000  1
  N  N10  1  0.98881500  0.26694700  0.65182100  1
  N  N11  1  0.01118500  0.73305300  0.34817900  1
loop_
_geom_bond_atom_site_label_1
_geom_bond_atom_site_label_2
_geom_bond_distance
_geom_bond_site_symmetry_2
B0 N9 1.422679 1_555
B0 N11 1.475326 1_555
B0 N6 1.475326 1_555
B1 N4 1.422679 1_555
B1 N0 1.475326 1_555
B1 N10 1.475326 1_555
B2 N8 1.422679 1_555
B2 N1 1.475326 1_554
B2 N5 1.475326 1_555
B3 N7 1.422679 1_555
B3 N3 1.475326 1_555
B3 N2 1.475326 1_554
C0 N2 1.233559 1_545
C0 N1 1.233559 1_555
C1 N6 1.233559 1_555
C1 N10 1.233559 1_455
C2 N3 1.233559 1_545
C2 N5 1.233559 1_555
C3 N4 1.220785 1_555
C3 N9 1.220785 1_555
C4 N8 1.220785 1_555
C4 N7 1.220785 1_445
C5 N11 1.233559 1_555
C5 N0 1.233559 1_455
