# generated using pymatgen
data_Ce2Si2Sn
_symmetry_space_group_name_H-M   'P 1'
_cell_length_a   7.38993878
_cell_length_b   7.38992631
_cell_length_c   4.42711278
_cell_angle_alpha   90.00000000
_cell_angle_beta   90.00000000
_cell_angle_gamma   89.94810211
_symmetry_Int_Tables_number   1
_chemical_formula_structural   Ce2Si2Sn
_chemical_formula_sum   'Ce4 Si4 Sn2'
_cell_volume   241.76941279
_cell_formula_units_Z   2
loop_
 _symmetry_equiv_pos_site_id
 _symmetry_equiv_pos_as_xyz
  1  'x, y, z'
loop_
 _atom_site_type_symbol
 _atom_site_label
 _atom_site_symmetry_multiplicity
 _atom_site_fract_x
 _atom_site_fract_y
 _atom_site_fract_z
 _atom_site_occupancy
  Ce  Ce0  1  0.68163317  0.17995572  0.50000000  1
  Ce  Ce1  1  0.32013304  0.81843651  0.50000000  1
  Ce  Ce2  1  0.18044861  0.31945880  0.50000000  1
  Ce  Ce3  1  0.81943032  0.68050422  0.50000000  1
  Si  Si0  1  0.11267440  0.61218883  -0.00000000  1
  Si  Si1  1  0.88774898  0.38726067  -0.00000000  1
  Si  Si2  1  0.61273074  0.88736451  -0.00000000  1
  Si  Si3  1  0.38618083  0.11389990  -0.00000000  1
  Sn  Sn0  1  0.00072493  0.00191103  0.00000000  1
  Sn  Sn1  1  0.49829399  0.49901782  0.00000000  1
loop_
_geom_bond_atom_site_label_1
_geom_bond_atom_site_label_2
_geom_bond_distance
_geom_bond_site_symmetry_2
Ce0 Si1 3.093715 1_556
Ce0 Si1 3.093715 1_555
Ce0 Si2 3.136291 1_545
Ce0 Si2 3.136291 1_546
Ce0 Si3 3.147567 1_555
Ce0 Si3 3.147567 1_556
Ce0 Sn0 3.490826 1_656
Ce0 Sn0 3.490826 1_655
Ce0 Sn1 3.505587 1_556
Ce0 Sn1 3.505587 1_555
Ce1 Si0 3.094758 1_556
Ce1 Si0 3.094758 1_555
Ce1 Si2 3.136358 1_556
Ce1 Si2 3.136358 1_555
Ce1 Si3 3.147612 1_565
Ce1 Si3 3.147612 1_566
Ce1 Sn1 3.492779 1_556
Ce1 Sn1 3.492779 1_555
Ce1 Sn0 3.507694 1_566
Ce1 Sn0 3.507694 1_565
Ce2 Si3 3.084585 1_555
Ce2 Si3 3.084585 1_556
Ce2 Si1 3.134905 1_455
Ce2 Si1 3.134905 1_456
Ce2 Si0 3.135025 1_556
Ce2 Si0 3.135025 1_555
Ce2 Sn0 3.489447 1_555
Ce2 Sn0 3.489447 1_556
Ce2 Sn1 3.490465 1_555
Ce2 Sn1 3.490465 1_556
Ce3 Si2 3.092850 1_556
Ce3 Si2 3.092850 1_555
Ce3 Si1 3.138287 1_556
Ce3 Si1 3.138287 1_555
Ce3 Si0 3.138288 1_656
Ce3 Si0 3.138288 1_655
Ce3 Sn1 3.512308 1_555
Ce3 Sn1 3.512308 1_556
Ce3 Sn0 3.513117 1_665
Ce3 Sn0 3.513117 1_666
Si0 Si1 2.351761 1_455
Si0 Sn1 2.969165 1_555
Si0 Sn0 2.995766 1_565
Si1 Sn0 2.966842 1_655
Si1 Sn1 2.993481 1_555
Si2 Si3 2.366512 1_565
Si2 Sn0 2.990332 1_665
Si2 Sn1 2.992596 1_555
Si3 Sn1 2.964857 1_555
Si3 Sn0 2.967002 1_555
