# generated using pymatgen
data_Ac
_symmetry_space_group_name_H-M   'P 1'
_cell_length_a   8.05565980
_cell_length_b   8.05565846
_cell_length_c   8.05565964
_cell_angle_alpha   59.99999514
_cell_angle_beta   60.00000067
_cell_angle_gamma   59.99999487
_symmetry_Int_Tables_number   1
_chemical_formula_structural   Ac
_chemical_formula_sum   Ac8
_cell_volume   369.64789907
_cell_formula_units_Z   8
loop_
 _symmetry_equiv_pos_site_id
 _symmetry_equiv_pos_as_xyz
  1  'x, y, z'
loop_
 _atom_site_type_symbol
 _atom_site_label
 _atom_site_symmetry_multiplicity
 _atom_site_fract_x
 _atom_site_fract_y
 _atom_site_fract_z
 _atom_site_occupancy
  Ac  Ac0_0  1  0.00000000  0.00000000  0.00000000  1
  Ac  Ac0_1  1  0.00000000  0.00000000  0.50000000  1
  Ac  Ac0_2  1  0.00000000  0.50000000  0.00000000  1
  Ac  Ac0_3  1  0.00000000  0.50000000  0.50000000  1
  Ac  Ac0_4  1  0.50000000  0.00000000  0.00000000  1
  Ac  Ac0_5  1  0.50000000  0.00000000  0.50000000  1
  Ac  Ac0_6  1  0.50000000  0.50000000  0.00000000  1
  Ac  Ac0_7  1  0.50000000  0.50000000  0.50000000  1
loop_
_geom_bond_atom_site_label_1
_geom_bond_atom_site_label_2
_geom_bond_distance
_geom_bond_site_symmetry_2
Ac0_0 Ac0_3 4.027829 1_554
Ac0_0 Ac0_2 4.027829 1_555
Ac0_0 Ac0_2 4.027829 1_545
Ac0_0 Ac0_3 4.027829 1_545
Ac0_0 Ac0_6 4.027829 1_455
Ac0_0 Ac0_6 4.027829 1_545
Ac0_0 Ac0_1 4.027830 1_554
Ac0_0 Ac0_1 4.027830 1_555
Ac0_0 Ac0_5 4.027830 1_554
Ac0_0 Ac0_5 4.027830 1_455
Ac0_0 Ac0_4 4.027830 1_455
Ac0_0 Ac0_4 4.027830 1_555
Ac0_1 Ac0_3 4.027829 1_555
Ac0_1 Ac0_2 4.027829 1_555
Ac0_1 Ac0_2 4.027829 1_546
Ac0_1 Ac0_3 4.027829 1_545
Ac0_1 Ac0_7 4.027829 1_455
Ac0_1 Ac0_7 4.027829 1_545
Ac0_1 Ac0_4 4.027830 1_456
Ac0_1 Ac0_5 4.027830 1_455
Ac0_1 Ac0_4 4.027830 1_555
Ac0_1 Ac0_5 4.027830 1_555
Ac0_2 Ac0_4 4.027829 1_555
Ac0_2 Ac0_4 4.027829 1_465
Ac0_2 Ac0_3 4.027830 1_554
Ac0_2 Ac0_3 4.027830 1_555
Ac0_2 Ac0_7 4.027830 1_455
Ac0_2 Ac0_6 4.027830 1_455
Ac0_2 Ac0_7 4.027830 1_554
Ac0_2 Ac0_6 4.027830 1_555
Ac0_3 Ac0_5 4.027829 1_465
Ac0_3 Ac0_5 4.027829 1_555
Ac0_3 Ac0_7 4.027830 1_455
Ac0_3 Ac0_6 4.027830 1_456
Ac0_3 Ac0_6 4.027830 1_555
Ac0_3 Ac0_7 4.027830 1_555
Ac0_4 Ac0_6 4.027829 1_545
Ac0_4 Ac0_7 4.027829 1_554
Ac0_4 Ac0_7 4.027829 1_545
Ac0_4 Ac0_6 4.027829 1_555
Ac0_4 Ac0_5 4.027830 1_554
Ac0_4 Ac0_5 4.027830 1_555
Ac0_5 Ac0_7 4.027829 1_545
Ac0_5 Ac0_6 4.027829 1_555
Ac0_5 Ac0_7 4.027829 1_555
Ac0_5 Ac0_6 4.027829 1_546
Ac0_6 Ac0_7 4.027830 1_555
Ac0_6 Ac0_7 4.027830 1_554
