# generated using pymatgen
data_Sr2FeCu(PbO3)2
_symmetry_space_group_name_H-M   'P 1'
_cell_length_a   5.53221000
_cell_length_b   5.65376100
_cell_length_c   12.33889200
_cell_angle_alpha   90.00000000
_cell_angle_beta   90.00000000
_cell_angle_gamma   90.00000000
_symmetry_Int_Tables_number   1
_chemical_formula_structural   Sr2FeCu(PbO3)2
_chemical_formula_sum   'Sr4 Fe2 Cu2 Pb4 O12'
_cell_volume   385.93331158
_cell_formula_units_Z   2
loop_
 _symmetry_equiv_pos_site_id
 _symmetry_equiv_pos_as_xyz
  1  'x, y, z'
loop_
 _atom_site_type_symbol
 _atom_site_label
 _atom_site_symmetry_multiplicity
 _atom_site_fract_x
 _atom_site_fract_y
 _atom_site_fract_z
 _atom_site_occupancy
  Sr  Sr0  1  0.00000000  0.00313800  0.64341600  1
  Sr  Sr1  1  0.00000000  0.99686200  0.35658400  1
  Sr  Sr2  1  0.50000000  0.49686200  0.64341600  1
  Sr  Sr3  1  0.50000000  0.50313800  0.35658400  1
  Fe  Fe0  1  0.50000000  0.00000000  0.50000000  1
  Fe  Fe1  1  0.00000000  0.50000000  0.50000000  1
  Cu  Cu0  1  0.00000000  0.00000000  0.00000000  1
  Cu  Cu1  1  0.50000000  0.50000000  0.00000000  1
  Pb  Pb0  1  0.00000000  0.51014900  0.85545000  1
  Pb  Pb1  1  0.00000000  0.48985100  0.14455000  1
  Pb  Pb2  1  0.50000000  0.98985100  0.85545000  1
  Pb  Pb3  1  0.50000000  0.01014900  0.14455000  1
  O  O0  1  0.25000000  0.25000000  0.49470600  1
  O  O1  1  0.25000000  0.75000000  0.50529400  1
  O  O2  1  0.75000000  0.25000000  0.49470600  1
  O  O3  1  0.75000000  0.75000000  0.50529400  1
  O  O4  1  0.00000000  0.47817400  0.67884200  1
  O  O5  1  0.00000000  0.52182600  0.32115800  1
  O  O6  1  0.50000000  0.02182600  0.67884200  1
  O  O7  1  0.50000000  0.97817400  0.32115800  1
  O  O8  1  0.00000000  0.92337900  0.85373800  1
  O  O9  1  0.00000000  0.07662100  0.14626200  1
  O  O10  1  0.50000000  0.57662100  0.85373800  1
  O  O11  1  0.50000000  0.42337900  0.14626200  1
loop_
_geom_bond_atom_site_label_1
_geom_bond_atom_site_label_2
_geom_bond_distance
_geom_bond_site_symmetry_2
Fe0 O3 1.978614 1_545
Fe0 O2 1.978614 1_555
Fe0 O1 1.978614 1_545
Fe0 O0 1.978614 1_555
Fe0 O6 2.210160 1_555
Fe0 O7 2.210160 1_545
Fe1 O2 1.978614 1_455
Fe1 O1 1.978614 1_555
Fe1 O3 1.978614 1_455
Fe1 O0 1.978614 1_555
Fe1 O4 2.210160 1_555
Fe1 O5 2.210160 1_555
Cu0 O9 1.855975 1_555
Cu0 O8 1.855975 1_544
Cu1 O11 1.855975 1_555
Cu1 O10 1.855975 1_554
O0 Sr3 2.620240 1_555
O0 Sr1 2.620240 1_545
O0 Sr2 2.688443 1_555
O0 Sr0 2.688443 1_555
O1 Sr2 2.620240 1_555
O1 Sr0 2.620240 1_565
O1 Sr3 2.688443 1_555
O1 Sr1 2.688443 1_555
O2 Sr3 2.620240 1_555
O2 Sr1 2.620240 1_645
O2 Sr2 2.688443 1_555
O2 Sr0 2.688443 1_655
O3 Sr2 2.620240 1_555
O3 Sr0 2.620240 1_665
O3 Sr3 2.688443 1_555
O3 Sr1 2.688443 1_655
O4 Pb0 2.186633 1_555
O4 Sr0 2.721079 1_555
O4 Sr2 2.802423 1_455
O4 Sr2 2.802423 1_555
O4 Sr0 3.000037 1_565
O5 Pb1 2.186633 1_555
O5 Sr1 2.721079 1_555
O5 Sr3 2.802423 1_555
O5 Sr3 2.802423 1_455
O5 Sr1 3.000037 1_545
O6 Pb2 2.186633 1_545
O6 Sr2 2.721079 1_555
O6 Sr0 2.802423 1_655
O6 Sr0 2.802423 1_555
O6 Sr2 3.000037 1_545
O7 Pb3 2.186633 1_565
O7 Sr3 2.721079 1_555
O7 Sr1 2.802423 1_655
O7 Sr1 2.802423 1_555
O7 Sr3 3.000037 1_565
O8 Pb0 2.336399 1_555
O8 Sr0 2.634027 1_565
O9 Pb1 2.336399 1_555
O9 Sr1 2.634027 1_545
O10 Pb2 2.336399 1_555
O10 Sr2 2.634027 1_555
O11 Pb3 2.336399 1_555
O11 Sr3 2.634027 1_555
