# generated using pymatgen
data_K2LiGdCl6
_symmetry_space_group_name_H-M   'P 1'
_cell_length_a   7.38789549
_cell_length_b   7.38789549
_cell_length_c   7.38789549
_cell_angle_alpha   60.00000000
_cell_angle_beta   60.00000000
_cell_angle_gamma   60.00000000
_symmetry_Int_Tables_number   1
_chemical_formula_structural   K2LiGdCl6
_chemical_formula_sum   'K2 Li1 Gd1 Cl6'
_cell_volume   285.13283485
_cell_formula_units_Z   1
loop_
 _symmetry_equiv_pos_site_id
 _symmetry_equiv_pos_as_xyz
  1  'x, y, z'
loop_
 _atom_site_type_symbol
 _atom_site_label
 _atom_site_symmetry_multiplicity
 _atom_site_fract_x
 _atom_site_fract_y
 _atom_site_fract_z
 _atom_site_occupancy
  K  K0  1  0.75000000  0.75000000  0.75000000  1
  K  K1  1  0.25000000  0.25000000  0.25000000  1
  Li  Li0  1  0.50000000  0.50000000  0.50000000  1
  Gd  Gd0  1  0.00000000  0.00000000  0.00000000  1
  Cl  Cl0  1  0.74578900  0.25421100  0.25421100  1
  Cl  Cl1  1  0.25421100  0.25421100  0.74578900  1
  Cl  Cl2  1  0.25421100  0.74578900  0.74578900  1
  Cl  Cl3  1  0.25421100  0.74578900  0.25421100  1
  Cl  Cl4  1  0.74578900  0.25421100  0.74578900  1
  Cl  Cl5  1  0.74578900  0.74578900  0.25421100  1
loop_
_geom_bond_atom_site_label_1
_geom_bond_atom_site_label_2
_geom_bond_distance
_geom_bond_site_symmetry_2
Cl0 Li0 2.568019 1_555
Cl0 Gd0 2.656012 1_655
Cl0 K0 3.694210 1_554
Cl0 K0 3.694210 1_545
Cl0 K1 3.694210 1_655
Cl0 K1 3.694210 1_555
Cl1 Li0 2.568019 1_555
Cl1 Gd0 2.656012 1_556
Cl1 K1 3.694210 1_556
Cl1 K0 3.694210 1_455
Cl1 K0 3.694210 1_545
Cl1 K1 3.694210 1_555
Cl2 Li0 2.568019 1_555
Cl2 Gd0 2.656012 1_566
Cl2 K0 3.694210 1_555
Cl2 K0 3.694210 1_455
Cl2 K1 3.694210 1_556
Cl2 K1 3.694210 1_565
Cl3 Li0 2.568019 1_555
Cl3 Gd0 2.656012 1_565
Cl3 K1 3.694210 1_565
Cl3 K0 3.694210 1_554
Cl3 K0 3.694210 1_455
Cl3 K1 3.694210 1_555
Cl4 Li0 2.568019 1_555
Cl4 Gd0 2.656012 1_656
Cl4 K0 3.694210 1_555
Cl4 K0 3.694210 1_545
Cl4 K1 3.694210 1_655
Cl4 K1 3.694210 1_556
Cl5 Li0 2.568019 1_555
Cl5 Gd0 2.656012 1_665
Cl5 K0 3.694210 1_555
Cl5 K1 3.694210 1_655
Cl5 K0 3.694210 1_554
Cl5 K1 3.694210 1_565
