# generated using pymatgen
data_K3UF7
_symmetry_space_group_name_H-M   'P 1'
_cell_length_a   11.36985557
_cell_length_b   11.36985557
_cell_length_c   11.36985557
_cell_angle_alpha   131.24883067
_cell_angle_beta   131.24883067
_cell_angle_gamma   71.41803636
_symmetry_Int_Tables_number   1
_chemical_formula_structural   K3UF7
_chemical_formula_sum   'K12 U4 F28'
_cell_volume   813.16691950
_cell_formula_units_Z   4
loop_
 _symmetry_equiv_pos_site_id
 _symmetry_equiv_pos_as_xyz
  1  'x, y, z'
loop_
 _atom_site_type_symbol
 _atom_site_label
 _atom_site_symmetry_multiplicity
 _atom_site_fract_x
 _atom_site_fract_y
 _atom_site_fract_z
 _atom_site_occupancy
  K  K0  1  0.75000000  0.25000000  0.50000000  1
  K  K1  1  0.00000000  0.00000000  0.00000000  1
  K  K2  1  0.25000000  0.75000000  0.50000000  1
  K  K3  1  0.50000000  0.50000000  0.00000000  1
  K  K4  1  0.66721100  0.14779900  0.04340800  1
  K  K5  1  0.37380300  0.91721100  0.01941200  1
  K  K6  1  0.89779900  0.35439100  0.98058800  1
  K  K7  1  0.10439100  0.62380300  0.95659200  1
  K  K8  1  0.08278900  0.10220100  0.45659200  1
  K  K9  1  0.37619700  0.33278900  0.48058800  1
  K  K10  1  0.85220100  0.89560900  0.51941200  1
  K  K11  1  0.64560900  0.62619700  0.54340800  1
  U  U0  1  0.48157000  0.98157000  0.50000000  1
  U  U1  1  0.73157000  0.73157000  0.00000000  1
  U  U2  1  0.26843000  0.26843000  0.00000000  1
  U  U3  1  0.01843000  0.51843000  0.50000000  1
  F  F0  1  0.20224100  0.49185200  0.15451000  1
  F  F1  1  0.79773100  0.45224100  0.21038800  1
  F  F2  1  0.24185200  0.58734200  0.78961200  1
  F  F3  1  0.33734200  0.04773100  0.84549000  1
  F  F4  1  0.54775900  0.75814800  0.34549000  1
  F  F5  1  0.95226900  0.79775900  0.28961200  1
  F  F6  1  0.50814800  0.66265800  0.71038800  1
  F  F7  1  0.41265800  0.20226900  0.65451000  1
  F  F8  1  0.74431500  0.08124100  0.78778400  1
  F  F9  1  0.70653100  0.99431500  0.16307400  1
  F  F10  1  0.83124100  0.54345700  0.83692600  1
  F  F11  1  0.29345700  0.95653100  0.21221600  1
  F  F12  1  0.00568500  0.16875900  0.71221600  1
  F  F13  1  0.04346900  0.25568500  0.33692600  1
  F  F14  1  0.91875900  0.70654300  0.66307400  1
  F  F15  1  0.45654300  0.29346900  0.28778400  1
  F  F16  1  0.60521900  0.10521900  0.50000000  1
  F  F17  1  0.85521900  0.85521900  0.00000000  1
  F  F18  1  0.14478100  0.14478100  0.00000000  1
  F  F19  1  0.89478100  0.39478100  0.50000000  1
  F  F20  1  0.50865400  0.38284900  0.15700200  1
  F  F21  1  0.10165200  0.75865400  0.62580500  1
  F  F22  1  0.13284900  0.47584600  0.37419500  1
  F  F23  1  0.22584600  0.35165200  0.84299800  1
  F  F24  1  0.24134600  0.86715100  0.34299800  1
  F  F25  1  0.64834800  0.49134600  0.87419500  1
  F  F26  1  0.61715100  0.77415400  0.12580500  1
  F  F27  1  0.52415400  0.89834800  0.65700200  1
loop_
_geom_bond_atom_site_label_1
_geom_bond_atom_site_label_2
_geom_bond_distance
_geom_bond_site_symmetry_2
F0 U2 2.178486 1_555
F0 K2 2.709171 1_555
F0 K7 2.939243 1_554
F0 K6 2.946365 1_454
F1 U3 2.178492 1_655
F1 K3 2.709168 1_555
F1 K6 2.939233 1_554
F1 K4 2.946371 1_555
F2 U3 2.178492 1_555
F2 K3 2.709166 1_556
F2 K5 2.939246 1_556
F2 K7 2.946355 1_555
F3 U2 2.178486 1_556
F3 K2 2.709171 1_545
F3 K4 2.939243 1_556
F3 K5 2.946365 1_546
F4 U0 2.178486 1_555
F4 K3 2.709171 1_555
F4 K11 2.939243 1_555
F4 K10 2.946365 1_555
F5 U1 2.178492 1_555
F5 K2 2.709168 1_655
F5 K10 2.939233 1_555
F5 K8 2.946371 1_665
F6 U1 2.178492 1_556
F6 K2 2.709166 1_555
F6 K9 2.939246 1_555
F6 K11 2.946355 1_555
F7 U0 2.178486 1_545
F7 K3 2.709171 1_556
F7 K8 2.939243 1_555
F7 K9 2.946365 1_555
F8 U0 2.300704 1_545
F8 K6 2.632117 1_555
F8 K1 2.665388 1_656
F8 K4 3.134511 1_556
F8 K10 3.172267 1_545
F9 U1 2.300704 1_555
F9 K4 2.632117 1_565
F9 K0 2.665388 1_565
F9 K5 3.134511 1_555
F9 K8 3.172267 1_665
F10 U1 2.300704 1_556
F10 K7 2.632117 1_655
F10 K0 2.665388 1_555
F10 K6 3.134511 1_555
F10 K11 3.172267 1_555
F11 U0 2.300704 1_555
F11 K5 2.632117 1_555
F11 K1 2.665388 1_565
F11 K7 3.134511 1_554
F11 K9 3.172267 1_565
F12 U2 2.300704 1_556
F12 K10 2.632117 1_445
F12 K0 2.665388 1_455
F12 K8 3.134511 1_555
F12 K6 3.172267 1_455
F13 U3 2.300704 1_555
F13 K8 2.632117 1_555
F13 K1 2.665388 1_555
F13 K9 3.134511 1_555
F13 K4 3.172267 1_455
F14 U3 2.300704 1_655
F14 K11 2.632117 1_555
F14 K1 2.665388 1_666
F14 K10 3.134511 1_555
F14 K7 3.172267 1_655
F15 U2 2.300704 1_555
F15 K9 2.632117 1_555
F15 K0 2.665388 1_555
F15 K11 3.134511 1_555
F15 K5 3.172267 1_545
F16 U0 2.283112 1_545
F16 K0 2.673302 1_555
F16 K9 3.037317 1_555
F16 K10 3.037317 1_545
F16 K5 3.251683 1_545
F16 K6 3.251683 1_555
F17 U1 2.283112 1_555
F17 K1 2.673302 1_665
F17 K8 3.037317 1_665
F17 K11 3.037317 1_554
F17 K7 3.251683 1_654
F17 K4 3.251683 1_565
F18 U2 2.283112 1_555
F18 K1 2.673302 1_555
F18 K6 3.037317 1_454
F18 K5 3.037317 1_545
F18 K9 3.251683 1_555
F18 K10 3.251683 1_444
F19 U3 2.283112 1_655
F19 K0 2.673302 1_555
F19 K4 3.037317 1_555
F19 K7 3.037317 1_655
F19 K8 3.251683 1_655
F19 K11 3.251683 1_555
F20 U2 2.260968 1_555
F20 K11 2.660303 1_555
F20 K4 2.740162 1_555
F20 K3 2.791181 1_555
F21 U3 2.260968 1_555
F21 K10 2.660303 1_455
F21 K5 2.740162 1_556
F21 K2 2.791181 1_555
F22 U3 2.260964 1_555
F22 K9 2.660296 1_555
F22 K6 2.740165 1_454
F22 K2 2.791192 1_555
F23 U2 2.260963 1_556
F23 K8 2.660304 1_555
F23 K7 2.740157 1_555
F23 K3 2.791191 1_556
F24 U0 2.260968 1_555
F24 K7 2.660303 1_554
F24 K8 2.740162 1_565
F24 K2 2.791181 1_555
F25 U1 2.260968 1_556
F25 K6 2.660303 1_555
F25 K9 2.740162 1_555
F25 K3 2.791181 1_556
F26 U1 2.260964 1_555
F26 K5 2.660296 1_555
F26 K10 2.740165 1_555
F26 K3 2.791192 1_555
F27 U0 2.260963 1_555
F27 K4 2.660304 1_566
F27 K11 2.740157 1_555
F27 K2 2.791191 1_555
