# generated using pymatgen
data_ErCo9Si4
_symmetry_space_group_name_H-M   'P 1'
_cell_length_a   7.88313199
_cell_length_b   7.88313199
_cell_length_c   7.88313199
_cell_angle_alpha   121.70486847
_cell_angle_beta   121.70486847
_cell_angle_gamma   87.07160494
_symmetry_Int_Tables_number   1
_chemical_formula_structural   ErCo9Si4
_chemical_formula_sum   'Er2 Co18 Si8'
_cell_volume   336.99767382
_cell_formula_units_Z   2
loop_
 _symmetry_equiv_pos_site_id
 _symmetry_equiv_pos_as_xyz
  1  'x, y, z'
loop_
 _atom_site_type_symbol
 _atom_site_label
 _atom_site_symmetry_multiplicity
 _atom_site_fract_x
 _atom_site_fract_y
 _atom_site_fract_z
 _atom_site_occupancy
  Er  Er0  1  0.25000000  0.25000000  0.00000000  1
  Er  Er1  1  0.75000000  0.75000000  0.00000000  1
  Co  Co0  1  0.50000000  0.00000000  0.50000000  1
  Co  Co1  1  0.00000000  0.50000000  0.50000000  1
  Co  Co2  1  0.31279600  0.81279600  0.76400700  1
  Co  Co3  1  0.68720400  0.18720400  0.23599300  1
  Co  Co4  1  0.04878900  0.54878900  0.23599300  1
  Co  Co5  1  0.81279600  0.04878900  0.50000000  1
  Co  Co6  1  0.45121100  0.68720400  0.50000000  1
  Co  Co7  1  0.95121100  0.45121100  0.76400700  1
  Co  Co8  1  0.18720400  0.95121100  0.50000000  1
  Co  Co9  1  0.54878900  0.31279600  0.50000000  1
  Co  Co10  1  0.19759700  0.07030200  0.26789900  1
  Co  Co11  1  0.80240300  0.92969800  0.73210100  1
  Co  Co12  1  0.07030200  0.80240300  0.87270400  1
  Co  Co13  1  0.69759700  0.42969800  0.12729600  1
  Co  Co14  1  0.92969800  0.19759700  0.12729600  1
  Co  Co15  1  0.30240300  0.57030200  0.87270400  1
  Co  Co16  1  0.57030200  0.69759700  0.26789900  1
  Co  Co17  1  0.42969800  0.30240300  0.73210100  1
  Si  Si0  1  0.79066300  0.29066300  0.83598400  1
  Si  Si1  1  0.20933700  0.70933700  0.16401600  1
  Si  Si2  1  0.45467900  0.95467900  0.16401600  1
  Si  Si3  1  0.29066300  0.45467900  0.50000000  1
  Si  Si4  1  0.04532100  0.20933700  0.50000000  1
  Si  Si5  1  0.54532100  0.04532100  0.83598400  1
  Si  Si6  1  0.70933700  0.54532100  0.50000000  1
  Si  Si7  1  0.95467900  0.79066300  0.50000000  1
loop_
_geom_bond_atom_site_label_1
_geom_bond_atom_site_label_2
_geom_bond_distance
_geom_bond_site_symmetry_2
Er0 Si2 3.206598 1_545
Er0 Si7 3.206598 1_444
Er0 Si1 3.206598 1_555
Er0 Si5 3.206598 1_554
Er0 Si4 3.206598 1_554
Er0 Si6 3.206598 1_555
Er0 Si3 3.206598 1_555
Er0 Si0 3.206598 1_454
Er1 Si3 3.206598 1_554
Er1 Si6 3.206598 1_554
Er1 Si5 3.206598 1_564
Er1 Si7 3.206598 1_555
Er1 Si0 3.206598 1_554
Er1 Si2 3.206598 1_555
Er1 Si4 3.206598 1_665
Er1 Si1 3.206598 1_655
Co0 Si5 2.300916 1_555
Co0 Si0 2.300916 1_555
Co0 Si1 2.300916 1_545
Co0 Si2 2.300916 1_545
Co0 Co11 2.384118 1_545
Co0 Co10 2.384118 1_555
Co0 Co16 2.384118 1_545
Co0 Co17 2.384118 1_555
Co0 Co8 2.514966 1_545
Co0 Co5 2.514966 1_555
Co0 Co6 2.514966 1_545
Co0 Co9 2.514966 1_555
Co1 Si3 2.300916 1_555
Co1 Si7 2.300916 1_455
Co1 Si4 2.300916 1_555
Co1 Si6 2.300916 1_455
Co1 Co12 2.384113 1_555
Co1 Co13 2.384113 1_455
Co1 Co15 2.384113 1_555
Co1 Co14 2.384113 1_455
Co1 Co4 2.514966 1_555
Co1 Co3 2.514966 1_455
Co1 Co7 2.514966 1_455
Co1 Co2 2.514966 1_555
Co2 Si2 2.271351 1_556
Co2 Si5 2.280092 1_565
Co2 Si3 2.413448 1_555
Co2 Si7 2.413448 1_455
Co2 Co6 2.571567 1_555
Co2 Co8 2.571567 1_555
Co2 Er1 3.104658 1_556
Co2 Er0 3.104658 1_566
Co3 Si5 2.271351 1_554
Co3 Si2 2.280092 1_545
Co3 Si4 2.413448 1_655
Co3 Si6 2.413448 1_555
Co3 Co5 2.571567 1_555
Co3 Co9 2.571567 1_555
Co3 Er1 3.104658 1_545
Co3 Er0 3.104658 1_555
Co4 Si0 2.271351 1_454
Co4 Si1 2.280092 1_555
Co4 Si7 2.413448 1_455
Co4 Si3 2.413448 1_555
Co4 Co6 2.571567 1_555
Co4 Co8 2.571567 1_555
Co4 Er1 3.104658 1_455
Co4 Er0 3.104658 1_555
Co5 Si7 2.271351 1_545
Co5 Si4 2.280092 1_655
Co5 Si0 2.413448 1_555
Co5 Si2 2.413448 1_545
Co5 Co7 2.571567 1_555
Co5 Er0 3.104658 1_656
Co5 Er1 3.104658 1_545
Co6 Si6 2.271351 1_555
Co6 Si3 2.280092 1_555
Co6 Si5 2.413448 1_565
Co6 Si1 2.413448 1_555
Co6 Er1 3.104658 1_556
Co6 Er0 3.104658 1_555
Co7 Si1 2.271351 1_656
Co7 Si0 2.280092 1_555
Co7 Si4 2.413448 1_655
Co7 Si6 2.413448 1_555
Co7 Co9 2.571567 1_555
Co7 Er0 3.104658 1_656
Co7 Er1 3.104658 1_556
Co8 Si4 2.271351 1_565
Co8 Si7 2.280092 1_455
Co8 Si5 2.413448 1_565
Co8 Si1 2.413448 1_555
Co8 Er0 3.104658 1_566
Co8 Er1 3.104658 1_455
Co9 Si3 2.271351 1_555
Co9 Si6 2.280092 1_555
Co9 Si2 2.413448 1_545
Co9 Si0 2.413448 1_555
Co9 Er1 3.104658 1_556
Co9 Er0 3.104658 1_555
Co10 Co14 2.277657 1_455
Co10 Co12 2.277664 1_544
Co10 Si3 2.460959 1_555
Co10 Si4 2.460959 1_555
Co10 Co8 2.491328 1_545
Co10 Co9 2.491328 1_555
Co10 Co17 2.520599 1_555
Co10 Si1 2.525807 1_545
Co10 Si2 2.525807 1_545
Co10 Er0 3.280044 1_555
Co10 Er1 3.280044 1_445
Co11 Co12 2.277657 1_655
Co11 Co14 2.277664 1_566
Co11 Si6 2.460959 1_555
Co11 Si7 2.460959 1_555
Co11 Co5 2.491328 1_565
Co11 Co6 2.491328 1_555
Co11 Co16 2.520599 1_555
Co11 Si0 2.525807 1_565
Co11 Si5 2.525807 1_565
Co11 Er0 3.280044 1_666
Co11 Er1 3.280044 1_556
Co12 Si2 2.460960 1_556
Co12 Si1 2.460966 1_556
Co12 Co2 2.491322 1_555
Co12 Co7 2.491332 1_455
Co12 Co15 2.520599 1_555
Co12 Si7 2.525799 1_455
Co12 Si6 2.525805 1_455
Co12 Er0 3.280040 1_566
Co12 Er1 3.280050 1_456
Co13 Co16 2.277657 1_555
Co13 Co17 2.277664 1_554
Co13 Si5 2.460960 1_554
Co13 Si0 2.460966 1_554
Co13 Co3 2.491322 1_555
Co13 Co4 2.491332 1_655
Co13 Co14 2.520599 1_555
Co13 Si6 2.525799 1_555
Co13 Si7 2.525805 1_555
Co13 Er0 3.280040 1_555
Co13 Er1 3.280050 1_555
Co14 Si5 2.460960 1_554
Co14 Si0 2.460966 1_554
Co14 Co3 2.491322 1_555
Co14 Co4 2.491332 1_655
Co14 Si4 2.525799 1_655
Co14 Si3 2.525805 1_655
Co14 Er1 3.280040 1_545
Co14 Er0 3.280050 1_655
Co15 Co17 2.277657 1_555
Co15 Co16 2.277664 1_556
Co15 Si2 2.460960 1_556
Co15 Si1 2.460966 1_556
Co15 Co2 2.491322 1_555
Co15 Co7 2.491332 1_455
Co15 Si3 2.525799 1_555
Co15 Si4 2.525805 1_555
Co15 Er1 3.280040 1_556
Co15 Er0 3.280050 1_556
Co16 Si7 2.460959 1_555
Co16 Si6 2.460959 1_555
Co16 Co5 2.491328 1_565
Co16 Co6 2.491328 1_555
Co16 Si1 2.525807 1_555
Co16 Si2 2.525807 1_555
Co16 Er1 3.280044 1_555
Co16 Er0 3.280044 1_555
Co17 Si4 2.460959 1_555
Co17 Si3 2.460959 1_555
Co17 Co8 2.491328 1_545
Co17 Co9 2.491328 1_555
Co17 Si5 2.525807 1_555
Co17 Si0 2.525807 1_555
Co17 Er1 3.280044 1_556
Co17 Er0 3.280044 1_556
