# generated using pymatgen
data_Ca2Al2Si6Sn(H3O11)2
_symmetry_space_group_name_H-M   'P 1'
_cell_length_a   7.90966349
_cell_length_b   7.87857900
_cell_length_c   16.01830440
_cell_angle_alpha   90.00000000
_cell_angle_beta   107.50292907
_cell_angle_gamma   90.00000000
_symmetry_Int_Tables_number   1
_chemical_formula_structural   Ca2Al2Si6Sn(H3O11)2
_chemical_formula_sum   'Ca4 Al4 Si12 Sn2 H12 O44'
_cell_volume   951.99560781
_cell_formula_units_Z   2
loop_
 _symmetry_equiv_pos_site_id
 _symmetry_equiv_pos_as_xyz
  1  'x, y, z'
loop_
 _atom_site_type_symbol
 _atom_site_label
 _atom_site_symmetry_multiplicity
 _atom_site_fract_x
 _atom_site_fract_y
 _atom_site_fract_z
 _atom_site_occupancy
  Ca  Ca0  1  0.50629300  0.31063100  0.20461700  1
  Ca  Ca1  1  0.49370700  0.68936900  0.79538400  1
  Ca  Ca2  1  0.49370700  0.81063100  0.29538400  1
  Ca  Ca3  1  0.50629300  0.18936900  0.70461600  1
  Al  Al0  1  0.15921100  0.52518400  0.25301000  1
  Al  Al1  1  0.84078900  0.47481600  0.74699000  1
  Al  Al2  1  0.84078900  0.02518400  0.24699000  1
  Al  Al3  1  0.15921100  0.97481600  0.75301000  1
  Si  Si0  1  0.74927700  0.17196400  0.05381100  1
  Si  Si1  1  0.25072300  0.82803600  0.94618900  1
  Si  Si2  1  0.25072300  0.67196400  0.44618900  1
  Si  Si3  1  0.74927700  0.32803600  0.55381100  1
  Si  Si4  1  0.19953100  0.19903000  0.00249500  1
  Si  Si5  1  0.80046900  0.80097000  0.99750500  1
  Si  Si6  1  0.80046900  0.69903000  0.49750500  1
  Si  Si7  1  0.19953100  0.30097000  0.50249500  1
  Si  Si8  1  0.14896000  0.14409400  0.32388600  1
  Si  Si9  1  0.85104000  0.85590600  0.67611400  1
  Si  Si10  1  0.85104000  0.64409400  0.17611400  1
  Si  Si11  1  0.14896000  0.35590600  0.82388600  1
  Sn  Sn0  1  0.50000000  0.00000000  0.50000000  1
  Sn  Sn1  1  0.50000000  0.50000000  0.00000000  1
  H  H0  1  0.61842200  0.45989000  0.37995000  1
  H  H1  1  0.38157800  0.54011000  0.62005000  1
  H  H2  1  0.38157800  0.95989000  0.12005000  1
  H  H3  1  0.61842200  0.04011000  0.87995000  1
  H  H4  1  0.27287200  0.61885600  0.13195000  1
  H  H5  1  0.72712800  0.38114400  0.86805000  1
  H  H6  1  0.72712800  0.11885600  0.36805000  1
  H  H7  1  0.27287200  0.88114400  0.63195000  1
  H  H8  1  0.24149700  0.03050600  0.15981600  1
  H  H9  1  0.75850300  0.96949400  0.84018400  1
  H  H10  1  0.75850300  0.53050600  0.34018400  1
  H  H11  1  0.24149700  0.46949400  0.65981600  1
  O  O0  1  0.21527200  0.30605400  0.27388000  1
  O  O1  1  0.78472800  0.69394600  0.72612000  1
  O  O2  1  0.78472800  0.80605400  0.22612000  1
  O  O3  1  0.21527200  0.19394600  0.77388000  1
  O  O4  1  0.31102500  0.59122700  0.19438400  1
  O  O5  1  0.68897500  0.40877300  0.80561600  1
  O  O6  1  0.68897500  0.09122700  0.30561600  1
  O  O7  1  0.31102500  0.90877300  0.69438400  1
  O  O8  1  0.28373300  0.01172400  0.99680400  1
  O  O9  1  0.71626700  0.98827600  0.00319600  1
  O  O10  1  0.71626700  0.51172400  0.50319600  1
  O  O11  1  0.28373300  0.48827600  0.49680400  1
  O  O12  1  0.08603900  0.23405900  0.40683100  1
  O  O13  1  0.91396100  0.76594100  0.59316900  1
  O  O14  1  0.91396100  0.73405900  0.09316900  1
  O  O15  1  0.08603900  0.26594100  0.90683100  1
  O  O16  1  0.32525700  0.02119300  0.36897300  1
  O  O17  1  0.67474300  0.97880700  0.63102700  1
  O  O18  1  0.67474300  0.52119300  0.13102700  1
  O  O19  1  0.32525700  0.47880700  0.86897300  1
  O  O20  1  0.34804500  0.33403600  0.05560100  1
  O  O21  1  0.65195500  0.66596400  0.94439900  1
  O  O22  1  0.65195500  0.83403600  0.44439900  1
  O  O23  1  0.34804500  0.16596400  0.55560100  1
  O  O24  1  0.36807600  0.99816500  0.17649400  1
  O  O25  1  0.63192400  0.00183500  0.82350600  1
  O  O26  1  0.63192400  0.49816500  0.32350600  1
  O  O27  1  0.36807600  0.50183500  0.67649400  1
  O  O28  1  0.72332000  0.14511400  0.14971800  1
  O  O29  1  0.27668000  0.85488600  0.85028200  1
  O  O30  1  0.27668000  0.64511400  0.35028200  1
  O  O31  1  0.72332000  0.35488600  0.64971800  1
  O  O32  1  0.37655400  0.70744000  0.02081000  1
  O  O33  1  0.62344600  0.29256000  0.97919000  1
  O  O34  1  0.62344600  0.20744000  0.47919000  1
  O  O35  1  0.37655400  0.79256000  0.52081000  1
  O  O36  1  0.94764300  0.26772800  0.06554600  1
  O  O37  1  0.05235700  0.73227200  0.93445400  1
  O  O38  1  0.05235700  0.76772800  0.43445400  1
  O  O39  1  0.94764300  0.23227200  0.56554600  1
  O  O40  1  0.07971900  0.13394800  0.06838200  1
  O  O41  1  0.92028100  0.86605200  0.93161800  1
  O  O42  1  0.92028100  0.63394800  0.43161800  1
  O  O43  1  0.07971900  0.36605200  0.56838200  1
loop_
_geom_bond_atom_site_label_1
_geom_bond_atom_site_label_2
_geom_bond_distance
_geom_bond_site_symmetry_2
Ca0 O20 2.345475 1_555
Ca0 O26 2.378843 1_555
Ca0 O6 2.507421 1_555
Ca0 O28 2.515673 1_555
Ca0 O18 2.619457 1_555
Ca0 O4 2.673437 1_555
Ca0 O24 2.676246 1_545
Ca0 O0 2.840257 1_555
Ca1 O21 2.345461 1_555
Ca1 O27 2.378853 1_555
Ca1 O7 2.507428 1_555
Ca1 O29 2.515665 1_555
Ca1 O19 2.619448 1_555
Ca1 O5 2.673438 1_555
Ca1 O25 2.676245 1_565
Ca1 O1 2.840267 1_555
Ca2 O22 2.345461 1_555
Ca2 O24 2.378853 1_555
Ca2 O4 2.507428 1_555
Ca2 O30 2.515665 1_555
Ca2 O16 2.619448 1_565
Ca2 O6 2.673438 1_565
Ca2 O26 2.676245 1_555
Ca2 O2 2.840267 1_555
Ca3 O23 2.345461 1_555
Ca3 O25 2.378853 1_555
Ca3 O5 2.507428 1_555
Ca3 O31 2.515665 1_555
Ca3 O17 2.619448 1_545
Ca3 O7 2.673438 1_545
Ca3 O27 2.676245 1_555
Ca3 O3 2.840267 1_555
Al0 O0 1.788795 1_555
Al0 O4 1.809098 1_555
Al0 O30 1.820180 1_555
Al1 O1 1.788795 1_555
Al1 O5 1.809098 1_555
Al1 O31 1.820180 1_555
Al2 O2 1.788795 1_545
Al2 O6 1.809098 1_555
Al2 O28 1.820180 1_555
Al3 O3 1.788795 1_565
Al3 O7 1.809098 1_555
Al3 O29 1.820180 1_555
H0 O26 0.988880 1_555
H1 O27 0.988880 1_555
H2 O24 0.988880 1_555
H3 O25 0.988880 1_555
H4 O4 0.978309 1_555
H5 O5 0.978309 1_555
H6 O6 0.978309 1_555
H7 O7 0.978309 1_555
H8 O24 0.988839 1_545
H9 O25 0.988839 1_565
H10 O26 0.988839 1_555
H11 O27 0.988839 1_555
O0 Si8 1.672619 1_555
O1 Si9 1.672619 1_555
O2 Si10 1.672619 1_555
O3 Si11 1.672619 1_555
O8 Si4 1.632821 1_556
O8 Si1 1.640905 1_545
O9 Si5 1.632821 1_554
O9 Si0 1.640905 1_565
O10 Si6 1.632821 1_555
O10 Si3 1.640905 1_555
O11 Si7 1.632821 1_555
O11 Si2 1.640905 1_555
O12 Si7 1.613841 1_555
O12 Si8 1.706782 1_555
O13 Si6 1.613841 1_555
O13 Si9 1.706782 1_555
O14 Si5 1.613841 1_554
O14 Si10 1.706782 1_555
O15 Si4 1.613841 1_556
O15 Si11 1.706782 1_555
O16 Si8 1.672689 1_555
O16 Sn0 2.144389 1_555
O17 Si9 1.672689 1_555
O17 Sn0 2.144389 1_565
O18 Si10 1.672689 1_555
O18 Sn1 2.144389 1_555
O19 Si11 1.672689 1_555
O19 Sn1 2.144389 1_556
O20 Si4 1.622910 1_555
O20 Sn1 2.142763 1_555
O21 Si5 1.622910 1_555
O21 Sn1 2.142763 1_556
O22 Si6 1.622910 1_555
O22 Sn0 2.142763 1_565
O23 Si7 1.622910 1_555
O23 Sn0 2.142763 1_555
O28 Si0 1.623805 1_555
O29 Si1 1.623805 1_555
O30 Si2 1.623805 1_555
O31 Si3 1.623805 1_555
O32 Si1 1.614459 1_554
O32 Sn1 1.982757 1_555
O33 Si0 1.614459 1_556
O33 Sn1 1.982757 1_556
O34 Si3 1.614459 1_555
O34 Sn0 1.982757 1_555
O35 Si2 1.614459 1_555
O35 Sn0 1.982757 1_565
O36 Si0 1.699695 1_555
O37 Si1 1.699695 1_555
O38 Si2 1.699695 1_555
O39 Si3 1.699695 1_555
O40 Si4 1.696018 1_555
O41 Si5 1.696018 1_555
O42 Si6 1.696018 1_555
O43 Si7 1.696018 1_555
