# generated using pymatgen
data_NdSb2Pd
_symmetry_space_group_name_H-M   'P 1'
_cell_length_a   5.78196200
_cell_length_b   5.78196200
_cell_length_c   6.19641800
_cell_angle_alpha   90.00000000
_cell_angle_beta   90.00000000
_cell_angle_gamma   90.00000000
_symmetry_Int_Tables_number   1
_chemical_formula_structural   NdSb2Pd
_chemical_formula_sum   'Nd2 Sb4 Pd2'
_cell_volume   207.15297419
_cell_formula_units_Z   2
loop_
 _symmetry_equiv_pos_site_id
 _symmetry_equiv_pos_as_xyz
  1  'x, y, z'
loop_
 _atom_site_type_symbol
 _atom_site_label
 _atom_site_symmetry_multiplicity
 _atom_site_fract_x
 _atom_site_fract_y
 _atom_site_fract_z
 _atom_site_occupancy
  Nd  Nd0  1  0.75000000  0.75000000  0.66981900  1
  Nd  Nd1  1  0.25000000  0.25000000  0.33018100  1
  Sb  Sb0  1  0.75000000  0.75000000  0.16191000  1
  Sb  Sb1  1  0.25000000  0.25000000  0.83809000  1
  Sb  Sb2  1  0.75000000  0.25000000  0.50000000  1
  Sb  Sb3  1  0.25000000  0.75000000  0.50000000  1
  Pd  Pd0  1  0.75000000  0.25000000  0.00000000  1
  Pd  Pd1  1  0.25000000  0.75000000  0.00000000  1
loop_
_geom_bond_atom_site_label_1
_geom_bond_atom_site_label_2
_geom_bond_distance
_geom_bond_site_symmetry_2
Nd0 Sb0 3.049202 1_556
Nd0 Sb3 3.076531 1_655
Nd0 Sb2 3.076531 1_565
Nd0 Sb3 3.076531 1_555
Nd0 Sb2 3.076531 1_555
Nd0 Sb0 3.147216 1_555
Nd0 Pd1 3.541700 1_556
Nd0 Pd1 3.541700 1_656
Nd0 Pd0 3.541700 1_566
Nd0 Pd0 3.541700 1_556
Nd1 Sb1 3.049202 1_554
Nd1 Sb3 3.076531 1_555
Nd1 Sb3 3.076531 1_545
Nd1 Sb2 3.076531 1_455
Nd1 Sb2 3.076531 1_555
Nd1 Sb1 3.147216 1_555
Nd1 Pd0 3.541700 1_455
Nd1 Pd0 3.541700 1_555
Nd1 Pd1 3.541700 1_555
Nd1 Pd1 3.541700 1_545
Pd0 Sb1 3.060115 1_654
Pd0 Sb1 3.060115 1_554
Pd0 Sb0 3.060115 1_545
Pd0 Sb0 3.060115 1_555
Pd0 Sb2 3.098209 1_554
Pd0 Sb2 3.098209 1_555
Pd1 Sb1 3.060115 1_564
Pd1 Sb1 3.060115 1_554
Pd1 Sb0 3.060115 1_455
Pd1 Sb0 3.060115 1_555
Pd1 Sb3 3.098209 1_555
Pd1 Sb3 3.098209 1_554
