# generated using pymatgen
data_Cr2AgS4
_symmetry_space_group_name_H-M   'P 1'
_cell_length_a   7.16950458
_cell_length_b   7.16950464
_cell_length_c   7.16820038
_cell_angle_alpha   60.00664062
_cell_angle_beta   60.00612896
_cell_angle_gamma   59.98823613
_symmetry_Int_Tables_number   1
_chemical_formula_structural   Cr2AgS4
_chemical_formula_sum   'Cr4 Ag2 S8'
_cell_volume   260.54137930
_cell_formula_units_Z   2
loop_
 _symmetry_equiv_pos_site_id
 _symmetry_equiv_pos_as_xyz
  1  'x, y, z'
loop_
 _atom_site_type_symbol
 _atom_site_label
 _atom_site_symmetry_multiplicity
 _atom_site_fract_x
 _atom_site_fract_y
 _atom_site_fract_z
 _atom_site_occupancy
  Cr  Cr0  1  0.12500000  0.12500000  0.12500000  1
  Cr  Cr1  1  0.62500000  0.12500000  0.12500000  1
  Cr  Cr2  1  0.12500000  0.62500000  0.12500000  1
  Cr  Cr3  1  0.12500000  0.12500000  0.62500000  1
  Ag  Ag0  1  0.50001909  0.49997622  0.49999871  1
  Ag  Ag1  1  0.74998091  0.75002378  0.75000129  1
  S  S0  1  0.36074902  0.36069036  0.36156067  1
  S  S1  1  0.33296893  0.88842649  0.88929243  1
  S  S2  1  0.88923868  0.88929371  0.33301165  1
  S  S3  1  0.88840892  0.33297699  0.88929817  1
  S  S4  1  0.36076132  0.36070629  0.91698835  1
  S  S5  1  0.36159108  0.91702301  0.36070183  1
  S  S6  1  0.88925098  0.88930964  0.88843933  1
  S  S7  1  0.91703107  0.36157351  0.36070757  1
loop_
_geom_bond_atom_site_label_1
_geom_bond_atom_site_label_2
_geom_bond_distance
_geom_bond_site_symmetry_2
Cr0 S2 2.398841 1_445
Cr0 S4 2.398841 1_554
Cr0 S1 2.402346 1_544
Cr0 S7 2.402346 1_455
Cr0 S3 2.402422 1_454
Cr0 S5 2.402422 1_545
Cr1 S5 2.398425 1_545
Cr1 S3 2.398425 1_554
Cr1 S6 2.402168 1_544
Cr1 S0 2.402168 1_555
Cr1 S2 2.402174 1_545
Cr1 S4 2.402174 1_554
Cr2 S7 2.398483 1_455
Cr2 S1 2.398483 1_554
Cr2 S4 2.402451 1_554
Cr2 S2 2.402451 1_455
Cr2 S6 2.402501 1_454
Cr2 S0 2.402501 1_555
Cr3 S6 2.398700 1_445
Cr3 S0 2.398700 1_555
Cr3 S7 2.402260 1_455
Cr3 S1 2.402260 1_545
Cr3 S5 2.402310 1_545
Cr3 S3 2.402310 1_455
Ag0 S4 2.440873 1_555
Ag0 S0 2.440880 1_555
Ag0 S7 2.440996 1_555
Ag0 S5 2.441212 1_555
Ag1 S2 2.440873 1_555
Ag1 S6 2.440880 1_555
Ag1 S1 2.440996 1_555
Ag1 S3 2.441212 1_555
