# generated using pymatgen
data_Li4V3Fe5O16
_symmetry_space_group_name_H-M   'P 1'
_cell_length_a   5.92763200
_cell_length_b   5.94274607
_cell_length_c   9.62594386
_cell_angle_alpha   90.89934084
_cell_angle_beta   89.55775128
_cell_angle_gamma   119.89596229
_symmetry_Int_Tables_number   1
_chemical_formula_structural   Li4V3Fe5O16
_chemical_formula_sum   'Li4 V3 Fe5 O16'
_cell_volume   293.92951485
_cell_formula_units_Z   1
loop_
 _symmetry_equiv_pos_site_id
 _symmetry_equiv_pos_as_xyz
  1  'x, y, z'
loop_
 _atom_site_type_symbol
 _atom_site_label
 _atom_site_symmetry_multiplicity
 _atom_site_fract_x
 _atom_site_fract_y
 _atom_site_fract_z
 _atom_site_occupancy
  Li  Li0  1  0.67498800  0.33564800  0.89381800  1
  Li  Li1  1  0.99159500  0.99294400  0.99551700  1
  Li  Li2  1  0.99851900  0.00259200  0.49597900  1
  Li  Li3  1  0.34155200  0.66272600  0.39414800  1
  V  V0  1  0.83452600  0.17336100  0.21564600  1
  V  V1  1  0.66398000  0.84448800  0.71192700  1
  V  V2  1  0.18320700  0.34556600  0.71710500  1
  Fe  Fe0  1  0.82595300  0.65879100  0.21310200  1
  Fe  Fe1  1  0.66012300  0.33385300  0.49105800  1
  Fe  Fe2  1  0.33851100  0.16351500  0.21552800  1
  Fe  Fe3  1  0.16476900  0.82756700  0.71211900  1
  Fe  Fe4  1  0.32422100  0.66945300  0.99181300  1
  O  O0  1  0.81925300  0.67756000  0.60155000  1
  O  O1  1  0.52198800  0.47623200  0.33967800  1
  O  O2  1  0.67506300  0.31640000  0.10368500  1
  O  O3  1  0.99121200  0.00623400  0.30993200  1
  O  O4  1  0.00088000  0.00883000  0.80937300  1
  O  O5  1  0.32444400  0.16548200  0.59923400  1
  O  O6  1  0.96427000  0.46332600  0.33553300  1
  O  O7  1  0.53598100  0.03513800  0.33674300  1
  O  O8  1  0.15750500  0.83589900  0.09858200  1
  O  O9  1  0.84465500  0.17337600  0.60592600  1
  O  O10  1  0.49813400  0.96234500  0.83528600  1
  O  O11  1  0.04204700  0.52262100  0.83883700  1
  O  O12  1  0.33531300  0.66213800  0.60192000  1
  O  O13  1  0.66856900  0.84712900  0.10353300  1
  O  O14  1  0.47355300  0.51217800  0.83676900  1
  O  O15  1  0.14548900  0.32490800  0.10349900  1
loop_
_geom_bond_atom_site_label_1
_geom_bond_atom_site_label_2
_geom_bond_distance
_geom_bond_site_symmetry_2
Li0 O11 1.959459 1_655
Li0 O10 1.997368 1_545
Li0 O2 2.025211 1_556
Li0 O14 2.026012 1_555
Li1 O4 1.794753 1_665
Li1 O8 1.944614 1_656
Li1 O13 1.960077 1_556
Li1 O15 1.990159 1_666
Li2 O3 1.792467 1_555
Li2 O5 1.947455 1_655
Li2 O9 1.963703 1_555
Li2 O0 1.972751 1_545
Li3 O1 1.949851 1_555
Li3 O12 2.000084 1_555
Li3 O7 2.004385 1_565
Li3 O6 2.020078 1_455
Fe0 O1 1.991730 1_555
Fe0 O3 2.007249 1_565
Fe0 O8 2.031361 1_655
Fe0 O2 2.045132 1_555
Fe0 O13 2.080520 1_555
Fe0 O6 2.101835 1_555
Fe1 O5 2.015128 1_555
Fe1 O0 2.054194 1_555
Fe1 O1 2.063371 1_555
Fe1 O9 2.102435 1_555
Fe1 O7 2.128659 1_555
Fe1 O6 2.166859 1_555
Fe2 O1 2.000049 1_555
Fe2 O3 2.004282 1_455
Fe2 O8 2.019028 1_545
Fe2 O2 2.038407 1_555
Fe2 O7 2.062243 1_555
Fe2 O15 2.130113 1_555
Fe3 O4 1.994493 1_565
Fe3 O11 2.010652 1_555
Fe3 O12 2.013730 1_555
Fe3 O5 2.065708 1_565
Fe3 O0 2.075091 1_455
Fe3 O10 2.092990 1_555
Fe4 O8 1.984471 1_556
Fe4 O11 2.066450 1_555
Fe4 O13 2.070641 1_556
Fe4 O15 2.088001 1_556
Fe4 O10 2.152258 1_555
Fe4 O14 2.155239 1_555
O0 V1 1.955015 1_555
O2 V0 1.903419 1_555
O3 V0 1.906212 1_555
O4 V2 1.961240 1_555
O4 V1 1.969188 1_445
O5 V2 1.993476 1_555
O6 V0 1.876916 1_555
O7 V0 1.927274 1_555
O9 V1 1.991805 1_545
O9 V2 2.042410 1_655
O10 V1 1.873302 1_555
O11 V2 2.001034 1_555
O12 V2 1.985133 1_555
O12 V1 1.995607 1_555
O13 V0 1.985078 1_565
O14 V2 1.888209 1_555
O14 V1 2.109424 1_555
O15 V0 1.928491 1_455
