# generated using pymatgen
data_Zn2SiO5
_symmetry_space_group_name_H-M   'P 1'
_cell_length_a   5.19510300
_cell_length_b   7.32217014
_cell_length_c   7.32217014
_cell_angle_alpha   63.68089229
_cell_angle_beta   69.22177513
_cell_angle_gamma   69.22177513
_symmetry_Int_Tables_number   1
_chemical_formula_structural   Zn2SiO5
_chemical_formula_sum   'Zn4 Si2 O10'
_cell_volume   226.84830205
_cell_formula_units_Z   2
loop_
 _symmetry_equiv_pos_site_id
 _symmetry_equiv_pos_as_xyz
  1  'x, y, z'
loop_
 _atom_site_type_symbol
 _atom_site_label
 _atom_site_symmetry_multiplicity
 _atom_site_fract_x
 _atom_site_fract_y
 _atom_site_fract_z
 _atom_site_occupancy
  Zn  Zn0  1  0.18424600  0.62320200  0.06566300  1
  Zn  Zn1  1  0.87311100  0.37679800  0.93433700  1
  Zn  Zn2  1  0.18424600  0.06566300  0.62320200  1
  Zn  Zn3  1  0.87311100  0.93433700  0.37679800  1
  Si  Si0  1  0.65225300  0.86285200  0.86285200  1
  Si  Si1  1  0.37795800  0.13714800  0.13714800  1
  O  O0  1  0.59278400  0.62689300  0.97486300  1
  O  O1  1  0.19454000  0.37310700  0.02513700  1
  O  O2  1  0.59278400  0.97486300  0.62689300  1
  O  O3  1  0.19454000  0.02513700  0.37310700  1
  O  O4  1  0.97218200  0.85775500  0.85775500  1
  O  O5  1  0.68769300  0.14224500  0.14224500  1
  O  O6  1  0.00531600  0.65497400  0.34502600  1
  O  O7  1  0.00531600  0.34502600  0.65497400  1
  O  O8  1  0.40702600  0.00000000  0.00000000  1
  O  O9  1  0.16989200  0.50000000  0.50000000  1
loop_
_geom_bond_atom_site_label_1
_geom_bond_atom_site_label_2
_geom_bond_distance
_geom_bond_site_symmetry_2
O0 Si0 1.641823 1_555
O0 Zn1 1.960984 1_555
O0 Zn0 1.992718 1_556
O1 Si1 1.641825 1_555
O1 Zn0 1.960984 1_555
O1 Zn1 1.992718 1_454
O2 Si0 1.641823 1_555
O2 Zn3 1.960984 1_555
O2 Zn2 1.992718 1_565
O3 Si1 1.641825 1_555
O3 Zn2 1.960984 1_555
O3 Zn3 1.992718 1_445
O4 Si0 1.636599 1_555
O4 Zn2 2.002482 1_665
O4 Zn0 2.002482 1_656
O5 Si1 1.636599 1_555
O5 Zn1 2.002479 1_554
O5 Zn3 2.002479 1_545
O6 O9 1.471222 1_555
O6 Zn0 2.005469 1_555
O6 Zn3 2.005469 1_455
O7 O9 1.471222 1_555
O7 Zn2 2.005469 1_555
O7 Zn1 2.005469 1_455
O8 Si0 1.648869 1_544
O8 Si1 1.648871 1_555
