# generated using pymatgen
data_Er4(CoB2)3
_symmetry_space_group_name_H-M   'P 1'
_cell_length_a   5.29790944
_cell_length_b   5.29790900
_cell_length_c   7.87409180
_cell_angle_alpha   70.34145231
_cell_angle_beta   70.34145080
_cell_angle_gamma   59.99999650
_symmetry_Int_Tables_number   1
_chemical_formula_structural   Er4(CoB2)3
_chemical_formula_sum   'Er4 Co3 B6'
_cell_volume   176.36797843
_cell_formula_units_Z   1
loop_
 _symmetry_equiv_pos_site_id
 _symmetry_equiv_pos_as_xyz
  1  'x, y, z'
loop_
 _atom_site_type_symbol
 _atom_site_label
 _atom_site_symmetry_multiplicity
 _atom_site_fract_x
 _atom_site_fract_y
 _atom_site_fract_z
 _atom_site_occupancy
  Er  Er0  1  0.74488100  0.74488100  0.76535700  1
  Er  Er1  1  0.25511900  0.25511900  0.23464300  1
  Er  Er2  1  0.58886000  0.58886000  0.23342000  1
  Er  Er3  1  0.41114000  0.41114000  0.76658000  1
  Co  Co0  1  0.00000000  0.00000000  0.00000000  1
  Co  Co1  1  0.88822400  0.88822400  0.33532700  1
  Co  Co2  1  0.11177600  0.11177600  0.66467300  1
  B  B0  1  0.50000000  0.16785700  0.50000000  1
  B  B1  1  0.83214300  0.50000000  0.50000000  1
  B  B2  1  0.16785700  0.83214300  0.50000000  1
  B  B3  1  0.16785700  0.50000000  0.50000000  1
  B  B4  1  0.83214300  0.16785700  0.50000000  1
  B  B5  1  0.50000000  0.83214300  0.50000000  1
loop_
_geom_bond_atom_site_label_1
_geom_bond_atom_site_label_2
_geom_bond_distance
_geom_bond_site_symmetry_2
Co0 Co1 2.433036 1_445
Co0 Co2 2.433036 1_554
Co0 Er3 3.496330 1_544
Co0 Er2 3.496330 1_455
Co0 Er2 3.496330 1_445
Co0 Er3 3.496330 1_554
Co0 Er3 3.496330 1_454
Co0 Er2 3.496330 1_545
Co0 Er0 3.500637 1_454
Co0 Er1 3.500637 1_545
Co0 Er1 3.500637 1_455
Co0 Er0 3.500637 1_544
Co0 Er1 3.500637 1_555
Co0 Er0 3.500637 1_444
B0 B3 1.759663 1_555
B0 B4 1.759664 1_555
B0 B5 1.778582 1_545
B0 Co2 2.134809 1_555
B0 Co1 2.134811 1_545
B0 Er0 2.614730 1_545
B0 Er1 2.614730 1_555
B0 Er2 2.614891 1_555
B0 Er3 2.614891 1_555
B1 B5 1.759663 1_555
B1 B4 1.759663 1_555
B1 B3 1.778582 1_655
B1 Co1 2.134809 1_555
B1 Co2 2.134812 1_655
B1 Er1 2.614730 1_655
B1 Er0 2.614730 1_555
B1 Er3 2.614891 1_555
B1 Er2 2.614891 1_555
B2 B3 1.759663 1_555
B2 B5 1.759664 1_555
B2 B4 1.778582 1_465
B2 Co2 2.134814 1_565
B2 Co1 2.134814 1_455
B2 Er1 2.614730 1_565
B2 Er0 2.614730 1_455
B2 Er2 2.614891 1_555
B2 Er3 2.614891 1_555
B3 Co2 2.134809 1_555
B3 Co1 2.134812 1_455
B3 Er0 2.614730 1_455
B3 Er1 2.614730 1_555
B3 Er2 2.614891 1_555
B3 Er3 2.614891 1_555
B4 Co1 2.134814 1_545
B4 Co2 2.134814 1_655
B4 Er0 2.614730 1_545
B4 Er1 2.614730 1_655
B4 Er3 2.614891 1_555
B4 Er2 2.614891 1_555
B5 Co1 2.134809 1_555
B5 Co2 2.134811 1_565
B5 Er1 2.614730 1_565
B5 Er0 2.614730 1_555
B5 Er3 2.614891 1_555
B5 Er2 2.614891 1_555
