# generated using pymatgen
data_Ba2CoCu2(SO)2
_symmetry_space_group_name_H-M   'P 1'
_cell_length_a   10.28101209
_cell_length_b   10.28101209
_cell_length_c   10.28101209
_cell_angle_alpha   157.52839823
_cell_angle_beta   157.52839823
_cell_angle_gamma   31.99025796
_symmetry_Int_Tables_number   1
_chemical_formula_structural   Ba2CoCu2(SO)2
_chemical_formula_sum   'Ba2 Co1 Cu2 S2 O2'
_cell_volume   158.63843390
_cell_formula_units_Z   1
loop_
 _symmetry_equiv_pos_site_id
 _symmetry_equiv_pos_as_xyz
  1  'x, y, z'
loop_
 _atom_site_type_symbol
 _atom_site_label
 _atom_site_symmetry_multiplicity
 _atom_site_fract_x
 _atom_site_fract_y
 _atom_site_fract_z
 _atom_site_occupancy
  Ba  Ba0  1  0.59714200  0.59714200  0.00000000  1
  Ba  Ba1  1  0.40285800  0.40285800  0.00000000  1
  Co  Co0  1  0.00000000  0.00000000  0.00000000  1
  Cu  Cu0  1  0.25000000  0.75000000  0.50000000  1
  Cu  Cu1  1  0.75000000  0.25000000  0.50000000  1
  S  S0  1  0.81879400  0.81879400  0.00000000  1
  S  S1  1  0.18120600  0.18120600  0.00000000  1
  O  O0  1  0.50000000  0.00000000  0.50000000  1
  O  O1  1  0.00000000  0.50000000  0.50000000  1
loop_
_geom_bond_atom_site_label_1
_geom_bond_atom_site_label_2
_geom_bond_distance
_geom_bond_site_symmetry_2
Ba0 O0 2.774838 1_554
Ba0 O0 2.774838 1_565
Ba0 O1 2.774838 1_554
Ba0 O1 2.774838 1_655
Ba0 S1 3.284322 1_666
Ba0 S1 3.284322 1_554
Ba0 S1 3.284322 1_655
Ba0 S1 3.284322 1_565
Ba1 O1 2.774838 1_554
Ba1 O0 2.774838 1_554
Ba1 O1 2.774838 1_655
Ba1 O0 2.774838 1_565
Ba1 S0 3.284322 1_545
Ba1 S0 3.284322 1_455
Ba1 S0 3.284322 1_556
Ba1 S0 3.284322 1_444
Co0 O1 2.003227 1_544
Co0 O0 2.003227 1_555
Co0 O0 2.003227 1_454
Co0 O1 2.003227 1_555
Cu0 S1 2.421140 1_555
Cu0 S0 2.421140 1_556
Cu0 S1 2.421140 1_566
Cu0 S0 2.421140 1_455
Cu1 S1 2.421140 1_555
Cu1 S0 2.421140 1_556
Cu1 S1 2.421140 1_656
Cu1 S0 2.421140 1_545
