# generated using pymatgen
data_Li9Mn2Co5O16
_symmetry_space_group_name_H-M   'P 1'
_cell_length_a   2.87942300
_cell_length_b   19.52274739
_cell_length_c   5.17308155
_cell_angle_alpha   91.83104442
_cell_angle_beta   90.00000000
_cell_angle_gamma   85.77086596
_symmetry_Int_Tables_number   1
_chemical_formula_structural   Li9Mn2Co5O16
_chemical_formula_sum   'Li9 Mn2 Co5 O16'
_cell_volume   289.86017888
_cell_formula_units_Z   1
loop_
 _symmetry_equiv_pos_site_id
 _symmetry_equiv_pos_as_xyz
  1  'x, y, z'
loop_
 _atom_site_type_symbol
 _atom_site_label
 _atom_site_symmetry_multiplicity
 _atom_site_fract_x
 _atom_site_fract_y
 _atom_site_fract_z
 _atom_site_occupancy
  Li  Li0  1  0.43912000  0.12175900  0.17712200  1
  Li  Li1  1  0.31443700  0.37112700  0.55852400  1
  Li  Li2  1  0.18530800  0.62938400  0.93900000  1
  Li  Li3  1  0.05897800  0.88204300  0.33430200  1
  Li  Li4  1  0.94110500  0.11778900  0.66839200  1
  Li  Li5  1  0.81393000  0.37214100  0.06058500  1
  Li  Li6  1  0.68586900  0.62826200  0.43805200  1
  Li  Li7  1  0.56113300  0.87773400  0.82257500  1
  Li  Li8  1  0.50001600  0.99996700  0.50020500  1
  Mn  Mn0  1  0.00017200  0.99965600  0.00082100  1
  Mn  Mn1  1  0.74984400  0.50031200  0.74960800  1
  Co  Co0  1  0.87558800  0.24882400  0.37267000  1
  Co  Co1  1  0.62467200  0.75065500  0.12771800  1
  Co  Co2  1  0.37515700  0.24968600  0.87199700  1
  Co  Co3  1  0.24987000  0.50026000  0.24988000  1
  Co  Co4  1  0.12472800  0.75054400  0.62672300  1
  O  O0  1  0.47256200  0.05487600  0.85780500  1
  O  O1  1  0.34560900  0.30878200  0.21914000  1
  O  O2  1  0.22118300  0.55763300  0.61752400  1
  O  O3  1  0.09709200  0.80581600  0.97771100  1
  O  O4  1  0.97085700  0.05828700  0.31020300  1
  O  O5  1  0.84562300  0.30875400  0.71507700  1
  O  O6  1  0.72232400  0.55535200  0.11810700  1
  O  O7  1  0.59655100  0.80689800  0.47613600  1
  O  O8  1  0.40390000  0.19220000  0.52887800  1
  O  O9  1  0.27874100  0.44251900  0.88262100  1
  O  O10  1  0.15428100  0.69143800  0.27893500  1
  O  O11  1  0.02932700  0.94134600  0.68997000  1
  O  O12  1  0.90296400  0.19407100  0.02695700  1
  O  O13  1  0.77747500  0.44505000  0.38130000  1
  O  O14  1  0.65393000  0.69214000  0.77868700  1
  O  O15  1  0.52765300  0.94469400  0.14277500  1
loop_
_geom_bond_atom_site_label_1
_geom_bond_atom_site_label_2
_geom_bond_distance
_geom_bond_site_symmetry_2
Li0 O4 2.031837 1_455
Li0 O4 2.031841 1_555
Li0 O0 2.070379 1_554
Li0 O12 2.174496 1_555
Li0 O12 2.174496 1_455
Li0 O8 2.243246 1_555
Li1 O5 2.065520 1_555
Li1 O5 2.065522 1_455
Li1 O1 2.102183 1_555
Li1 O9 2.143272 1_555
Li1 O13 2.251504 1_555
Li1 O13 2.251506 1_455
Li2 O14 2.078060 1_555
Li2 O14 2.078060 1_455
Li2 O10 2.101401 1_556
Li2 O2 2.137353 1_555
Li2 O6 2.257071 1_456
Li2 O6 2.257071 1_556
Li3 O11 2.140611 1_555
Li3 O15 2.149360 1_455
Li3 O15 2.149362 1_555
Li3 O7 2.195538 1_455
Li3 O7 2.195540 1_555
Li3 O3 2.330230 1_554
Li4 O0 2.147122 1_555
Li4 O0 2.147124 1_655
Li4 O4 2.153581 1_555
Li4 O8 2.181633 1_555
Li4 O8 2.181635 1_655
Li4 O12 2.338767 1_556
Li5 O1 2.081361 1_655
Li5 O1 2.081363 1_555
Li5 O5 2.139227 1_554
Li5 O13 2.148640 1_555
Li5 O9 2.208773 1_654
Li5 O9 2.208774 1_554
Li6 O10 2.080410 1_655
Li6 O10 2.080411 1_555
Li6 O14 2.124009 1_555
Li6 O6 2.145663 1_555
Li6 O2 2.215286 1_655
Li6 O2 2.215288 1_555
Li7 O11 2.032647 1_655
Li7 O11 2.032647 1_555
Li7 O15 2.074836 1_556
Li7 O3 2.179319 1_555
Li7 O3 2.179319 1_655
Li7 O7 2.226094 1_555
Li8 O4 2.097533 1_465
Li8 O4 2.097537 1_565
Li8 O11 2.100205 1_555
Li8 O11 2.100207 1_655
Li8 O0 2.106718 1_565
Li8 O15 2.109368 1_555
Mn0 O4 1.935838 1_465
Mn0 O11 1.938481 1_554
Mn0 O15 1.951273 1_455
Mn0 O15 1.951273 1_555
Mn0 O0 1.956260 1_564
Mn0 O0 1.956260 1_464
Mn1 O2 1.958059 1_655
Mn1 O2 1.958061 1_555
Mn1 O9 1.965179 1_555
Mn1 O9 1.965181 1_655
Mn1 O6 2.156693 1_556
Mn1 O13 2.157865 1_555
Co0 O8 1.999557 1_555
Co0 O8 1.999557 1_655
Co0 O1 2.031180 1_655
Co0 O1 2.031180 1_555
Co0 O12 2.052464 1_555
Co0 O5 2.089621 1_555
Co1 O3 1.970212 1_554
Co1 O3 1.970214 1_654
Co1 O10 2.017854 1_555
Co1 O10 2.017856 1_655
Co1 O7 2.078760 1_555
Co1 O14 2.103848 1_554
Co2 O12 1.985810 1_556
Co2 O12 1.985812 1_456
Co2 O5 2.028328 1_555
Co2 O5 2.028328 1_455
Co2 O8 2.067834 1_555
Co2 O1 2.101503 1_556
Co3 O6 1.932566 1_555
Co3 O6 1.932566 1_455
Co3 O13 1.933192 1_455
Co3 O13 1.933192 1_555
Co3 O2 2.174549 1_555
Co3 O9 2.176332 1_554
Co4 O7 1.984490 1_555
Co4 O7 1.984490 1_455
Co4 O14 2.010233 1_455
Co4 O14 2.010233 1_555
Co4 O3 2.080761 1_555
Co4 O10 2.104398 1_555
