# generated using pymatgen
data_DyNiP
_symmetry_space_group_name_H-M   'P 1'
_cell_length_a   3.87316227
_cell_length_b   3.87316227
_cell_length_c   15.41899912
_cell_angle_alpha   90.00000000
_cell_angle_beta   90.00000000
_cell_angle_gamma   119.99999750
_symmetry_Int_Tables_number   1
_chemical_formula_structural   DyNiP
_chemical_formula_sum   'Dy4 Ni4 P4'
_cell_volume   200.31718672
_cell_formula_units_Z   4
loop_
 _symmetry_equiv_pos_site_id
 _symmetry_equiv_pos_as_xyz
  1  'x, y, z'
loop_
 _atom_site_type_symbol
 _atom_site_label
 _atom_site_symmetry_multiplicity
 _atom_site_fract_x
 _atom_site_fract_y
 _atom_site_fract_z
 _atom_site_occupancy
  Dy  Dy0  1  0.00000000  0.00000000  0.50000000  1
  Dy  Dy1  1  0.00000000  0.00000000  0.00000000  1
  Dy  Dy2  1  0.00000000  0.00000000  0.25000000  1
  Dy  Dy3  1  0.00000000  0.00000000  0.75000000  1
  Ni  Ni0  1  0.33333300  0.66666700  0.37183159  1
  Ni  Ni1  1  0.66666700  0.33333300  0.62816841  1
  Ni  Ni2  1  0.66666700  0.33333300  0.87183159  1
  Ni  Ni3  1  0.33333300  0.66666700  0.12816841  1
  P  P0  1  0.33333300  0.66666700  0.87693376  1
  P  P1  1  0.66666700  0.33333300  0.12306624  1
  P  P2  1  0.66666700  0.33333300  0.37693376  1
  P  P3  1  0.33333300  0.66666700  0.62306624  1
loop_
_geom_bond_atom_site_label_1
_geom_bond_atom_site_label_2
_geom_bond_distance
_geom_bond_site_symmetry_2
Dy0 P2 2.932777 1_455
Dy0 P3 2.932777 1_545
Dy0 P2 2.932779 1_445
Dy0 P3 2.932779 1_445
Dy0 P3 2.932779 1_555
Dy0 P2 2.932779 1_555
Dy0 Ni1 2.984281 1_455
Dy0 Ni0 2.984281 1_545
Dy0 Ni0 2.984283 1_445
Dy0 Ni1 2.984283 1_445
Dy0 Ni1 2.984283 1_555
Dy0 Ni0 2.984283 1_555
Dy1 P0 2.932777 1_544
Dy1 P1 2.932777 1_455
Dy1 P0 2.932779 1_554
Dy1 P0 2.932779 1_444
Dy1 P1 2.932779 1_445
Dy1 P1 2.932779 1_555
Dy1 Ni3 2.984281 1_545
Dy1 Ni2 2.984281 1_454
Dy1 Ni3 2.984283 1_555
Dy1 Ni3 2.984283 1_445
Dy1 Ni2 2.984283 1_554
Dy1 Ni2 2.984283 1_444
Dy2 Ni3 2.920495 1_545
Dy2 Ni0 2.920495 1_545
Dy2 Ni0 2.920498 1_555
Dy2 Ni3 2.920498 1_445
Dy2 Ni0 2.920498 1_445
Dy2 Ni3 2.920498 1_555
Dy2 P1 2.971708 1_455
Dy2 P2 2.971708 1_455
Dy2 P1 2.971711 1_445
Dy2 P2 2.971711 1_555
Dy2 P1 2.971711 1_555
Dy2 P2 2.971711 1_445
Dy3 Ni2 2.920495 1_455
Dy3 Ni1 2.920495 1_455
Dy3 Ni1 2.920498 1_445
Dy3 Ni1 2.920498 1_555
Dy3 Ni2 2.920498 1_445
Dy3 Ni2 2.920498 1_555
Dy3 P3 2.971708 1_545
Dy3 P0 2.971708 1_545
Dy3 P3 2.971711 1_555
Dy3 P0 2.971711 1_555
Dy3 P3 2.971711 1_445
Dy3 P0 2.971711 1_445
Ni0 P2 2.237553 1_455
Ni0 P2 2.237553 1_565
Ni0 P2 2.237559 1_555
Ni1 P3 2.237553 1_545
Ni1 P3 2.237553 1_655
Ni1 P3 2.237559 1_555
Ni2 P0 2.237553 1_545
Ni2 P0 2.237553 1_655
Ni2 P0 2.237559 1_555
Ni3 P1 2.237553 1_455
Ni3 P1 2.237553 1_565
Ni3 P1 2.237559 1_555
