# generated using pymatgen
data_BiN
_symmetry_space_group_name_H-M   'P 1'
_cell_length_a   3.69427885
_cell_length_b   3.74224822
_cell_length_c   6.52892591
_cell_angle_alpha   93.01701538
_cell_angle_beta   56.37135246
_cell_angle_gamma   95.42241827
_symmetry_Int_Tables_number   1
_chemical_formula_structural   BiN
_chemical_formula_sum   'Bi2 N2'
_cell_volume   74.81966580
_cell_formula_units_Z   2
loop_
 _symmetry_equiv_pos_site_id
 _symmetry_equiv_pos_as_xyz
  1  'x, y, z'
loop_
 _atom_site_type_symbol
 _atom_site_label
 _atom_site_symmetry_multiplicity
 _atom_site_fract_x
 _atom_site_fract_y
 _atom_site_fract_z
 _atom_site_occupancy
  Bi  Bi0  1  0.61085700  0.09598800  0.03880500  1
  Bi  Bi1  1  0.56073600  0.64838100  0.54026100  1
  N  N0  1  0.23870600  0.05040800  0.45432500  1
  N  N1  1  0.10959600  0.70135400  0.95569500  1
loop_
_geom_bond_atom_site_label_1
_geom_bond_atom_site_label_2
_geom_bond_distance
_geom_bond_site_symmetry_2
Bi0 N0 2.269869 1_555
Bi0 N1 2.278753 1_644
Bi0 N1 2.533047 1_544
Bi0 N1 2.656034 1_654
Bi1 N0 2.271571 1_565
Bi1 N1 2.274343 1_555
Bi1 N0 2.582934 1_665
Bi1 N0 2.615666 1_555
