# generated using pymatgen
data_ScAgSe2
_symmetry_space_group_name_H-M   'P 1'
_cell_length_a   3.99573998
_cell_length_b   6.78147425
_cell_length_c   13.21755954
_cell_angle_alpha   90.00000000
_cell_angle_beta   90.00000000
_cell_angle_gamma   90.00000000
_symmetry_Int_Tables_number   1
_chemical_formula_structural   ScAgSe2
_chemical_formula_sum   'Sc4 Ag4 Se8'
_cell_volume   358.15631374
_cell_formula_units_Z   4
loop_
 _symmetry_equiv_pos_site_id
 _symmetry_equiv_pos_as_xyz
  1  'x, y, z'
loop_
 _atom_site_type_symbol
 _atom_site_label
 _atom_site_symmetry_multiplicity
 _atom_site_fract_x
 _atom_site_fract_y
 _atom_site_fract_z
 _atom_site_occupancy
  Sc  Sc0  1  0.27563571  0.71778346  0.63039772  1
  Sc  Sc1  1  0.77563571  0.78221654  0.36960228  1
  Sc  Sc2  1  0.72436429  0.21778346  0.86960228  1
  Sc  Sc3  1  0.22436429  0.28221654  0.13039772  1
  Ag  Ag0  1  0.51540446  0.71272381  0.88068223  1
  Ag  Ag1  1  0.01540446  0.78727619  0.11931777  1
  Ag  Ag2  1  0.48459554  0.21272381  0.61931777  1
  Ag  Ag3  1  0.98459554  0.28727619  0.38068223  1
  Se  Se0  1  0.77665445  0.92210450  0.72550973  1
  Se  Se1  1  0.27665445  0.57789550  0.27449027  1
  Se  Se2  1  0.22334555  0.42210450  0.77449027  1
  Se  Se3  1  0.72334555  0.07789550  0.22550973  1
  Se  Se4  1  0.77101743  0.52893041  0.53040616  1
  Se  Se5  1  0.27101743  0.97106959  0.46959384  1
  Se  Se6  1  0.22898257  0.02893041  0.96959384  1
  Se  Se7  1  0.72898257  0.47106959  0.03040616  1
loop_
_geom_bond_atom_site_label_1
_geom_bond_atom_site_label_2
_geom_bond_distance
_geom_bond_site_symmetry_2
Sc0 Se4 2.702782 1_555
Sc0 Se4 2.729927 1_455
Sc0 Se5 2.732791 1_555
Sc0 Se0 2.734143 1_455
Sc0 Se0 2.740086 1_555
Sc0 Se2 2.773366 1_555
Sc1 Se5 2.702782 1_655
Sc1 Se5 2.729927 1_555
Sc1 Se4 2.732791 1_555
Sc1 Se1 2.734143 1_555
Sc1 Se1 2.740086 1_655
Sc1 Se3 2.773366 1_565
Sc2 Se6 2.702782 1_555
Sc2 Se6 2.729927 1_655
Sc2 Se7 2.732791 1_556
Sc2 Se2 2.734143 1_655
Sc2 Se2 2.740086 1_555
Sc2 Se0 2.773366 1_545
Sc3 Se7 2.702782 1_455
Sc3 Se7 2.729927 1_555
Sc3 Se6 2.732791 1_554
Sc3 Se3 2.734143 1_555
Sc3 Se3 2.740086 1_455
Sc3 Se1 2.773366 1_555
Ag0 Se2 2.686283 1_555
Ag0 Se6 2.699835 1_565
Ag0 Se0 2.704155 1_555
Ag0 Se7 2.707444 1_556
Ag1 Se3 2.686283 1_465
Ag1 Se7 2.699835 1_455
Ag1 Se1 2.704155 1_555
Ag1 Se6 2.707444 1_564
Ag2 Se0 2.686283 1_545
Ag2 Se4 2.699835 1_555
Ag2 Se2 2.704155 1_555
Ag2 Se5 2.707444 1_545
Ag3 Se1 2.686283 1_655
Ag3 Se5 2.699835 1_645
Ag3 Se3 2.704155 1_555
Ag3 Se4 2.707444 1_555
