# generated using pymatgen
data_Mg5Si6
_symmetry_space_group_name_H-M   'P 1'
_cell_length_a   5.05565500
_cell_length_b   5.97399863
_cell_length_c   14.04740651
_cell_angle_alpha   80.86989132
_cell_angle_beta   82.73743974
_cell_angle_gamma   79.51203428
_symmetry_Int_Tables_number   1
_chemical_formula_structural   Mg5Si6
_chemical_formula_sum   'Mg10 Si12'
_cell_volume   409.80905830
_cell_formula_units_Z   2
loop_
 _symmetry_equiv_pos_site_id
 _symmetry_equiv_pos_as_xyz
  1  'x, y, z'
loop_
 _atom_site_type_symbol
 _atom_site_label
 _atom_site_symmetry_multiplicity
 _atom_site_fract_x
 _atom_site_fract_y
 _atom_site_fract_z
 _atom_site_occupancy
  Mg  Mg0  1  0.66479400  0.92966100  0.84378000  1
  Mg  Mg1  1  0.74764700  0.60928400  0.47181800  1
  Mg  Mg2  1  0.24503300  0.83083100  0.35656500  1
  Mg  Mg3  1  0.98256100  0.20977100  0.64212200  1
  Mg  Mg4  1  0.08848700  0.09996800  0.93517100  1
  Mg  Mg5  1  0.04419100  0.98343000  0.14935500  1
  Mg  Mg6  1  0.33943900  0.30698000  0.42402700  1
  Mg  Mg7  1  0.16960100  0.70989700  0.58589300  1
  Mg  Mg8  1  0.49997400  0.44747800  0.89907500  1
  Mg  Mg9  1  0.96257600  0.52625600  0.06680100  1
  Si  Si0  1  0.44107400  0.71754400  0.03968000  1
  Si  Si1  1  0.56462300  0.08787100  0.04687800  1
  Si  Si2  1  0.53816100  0.01724200  0.59780500  1
  Si  Si3  1  0.87273100  0.11034500  0.46542100  1
  Si  Si4  1  0.47952300  0.15310000  0.22400500  1
  Si  Si5  1  0.00121100  0.50415600  0.80500100  1
  Si  Si6  1  0.41947400  0.30054400  0.71794700  1
  Si  Si7  1  0.80134200  0.66178500  0.27138000  1
  Si  Si8  1  0.38620300  0.56340900  0.20955100  1
  Si  Si9  1  0.66186000  0.62721100  0.68378600  1
  Si  Si10  1  0.20441600  0.84710400  0.77693800  1
  Si  Si11  1  0.88168100  0.25240200  0.29051100  1
loop_
_geom_bond_atom_site_label_1
_geom_bond_atom_site_label_2
_geom_bond_distance
_geom_bond_site_symmetry_2
Mg0 Si10 2.752654 1_655
Mg0 Si10 2.767601 1_555
Mg0 Si6 2.807637 1_565
Mg0 Si5 2.877901 1_655
Mg0 Si0 3.014315 1_556
Mg0 Si1 3.099285 1_566
Mg0 Si9 3.102105 1_555
Mg1 Si7 2.767192 1_555
Mg1 Si3 2.945630 1_555
Mg1 Si9 2.970431 1_555
Mg1 Si3 3.155544 1_565
Mg1 Si2 3.185704 1_565
Mg2 Si8 2.754237 1_555
Mg2 Si3 2.758216 1_465
Mg2 Si4 2.777498 1_565
Mg2 Si11 2.929714 1_465
Mg2 Si7 2.976664 1_555
Mg2 Si7 3.061105 1_455
Mg3 Si6 2.742626 1_655
Mg3 Si3 2.785466 1_555
Mg3 Si10 2.808708 1_645
Mg3 Si9 2.818079 1_555
Mg3 Si2 2.865209 1_655
Mg3 Si2 2.877479 1_555
Mg3 Si6 2.896095 1_555
Mg3 Si5 3.119091 1_655
Mg4 Si5 2.789909 1_555
Mg4 Si10 2.824891 1_545
Mg4 Si1 2.909457 1_456
Mg4 Si0 2.943947 1_546
Mg4 Si1 3.019572 1_556
Mg5 Si11 2.703215 1_465
Mg5 Si7 2.723846 1_455
Mg5 Si0 2.785213 1_555
Mg5 Si8 2.849159 1_555
Mg5 Si1 2.895958 1_465
Mg5 Si4 2.950246 1_565
Mg5 Si1 2.956240 1_565
Mg5 Si4 2.967108 1_465
Mg6 Si3 2.780422 1_455
Mg6 Si3 2.830863 1_555
Mg6 Si2 2.934372 1_555
Mg6 Si4 3.053055 1_555
Mg6 Si11 3.115752 1_555
Mg6 Si8 3.157030 1_555
Mg7 Si9 2.842163 1_455
Mg7 Si2 2.879750 1_565
Mg7 Si9 2.920747 1_555
Mg7 Si10 2.962275 1_555
Mg7 Si3 2.981572 1_465
Mg7 Si6 3.007565 1_555
Mg7 Si5 3.197932 1_555
Mg8 Si0 2.698238 1_556
Mg8 Si1 2.744671 1_556
Mg8 Si5 2.757944 1_655
Mg8 Si6 2.917302 1_555
Mg8 Si5 2.934110 1_555
Mg8 Si10 2.987559 1_555
Mg8 Si9 3.103617 1_555
Mg9 Si0 2.724200 1_555
Mg9 Si0 2.817520 1_655
Mg9 Si7 3.079709 1_555
Mg9 Si8 3.171346 1_655
Si0 Si8 2.418124 1_555
Si0 Si1 2.425867 1_565
Si1 Si4 2.550289 1_555
Si2 Si3 2.418199 1_555
Si2 Si9 2.458939 1_545
Si2 Si6 2.520596 1_555
Si4 Si8 2.391105 1_555
Si5 Si9 2.503083 1_455
Si5 Si6 2.515626 1_555
Si6 Si9 2.442347 1_555
Si7 Si8 2.564494 1_555
Si10 Si5 2.411604 1_555
Si10 Si9 2.731444 1_555
Si11 Si7 2.382393 1_555
Si11 Si3 2.466454 1_555
Si11 Si4 2.540422 1_555
