# generated using pymatgen
data_Mg(SnO2)2
_symmetry_space_group_name_H-M   'P 1'
_cell_length_a   6.63026771
_cell_length_b   6.63026771
_cell_length_c   6.63026771
_cell_angle_alpha   121.93548251
_cell_angle_beta   119.80286560
_cell_angle_gamma   88.51121070
_symmetry_Int_Tables_number   1
_chemical_formula_structural   Mg(SnO2)2
_chemical_formula_sum   'Mg2 Sn4 O8'
_cell_volume   203.22703269
_cell_formula_units_Z   2
loop_
 _symmetry_equiv_pos_site_id
 _symmetry_equiv_pos_as_xyz
  1  'x, y, z'
loop_
 _atom_site_type_symbol
 _atom_site_label
 _atom_site_symmetry_multiplicity
 _atom_site_fract_x
 _atom_site_fract_y
 _atom_site_fract_z
 _atom_site_occupancy
  Mg  Mg0  1  0.60372200  0.85372200  0.75000000  1
  Mg  Mg1  1  0.39627800  0.14627800  0.25000000  1
  Sn  Sn0  1  0.50000000  0.50000000  0.00000000  1
  Sn  Sn1  1  0.00000000  0.50000000  0.00000000  1
  Sn  Sn2  1  0.00000000  0.00000000  0.50000000  1
  Sn  Sn3  1  0.00000000  0.50000000  0.50000000  1
  O  O0  1  0.25809700  0.27970400  0.52160700  1
  O  O1  1  0.25809700  0.73649100  0.97839300  1
  O  O2  1  0.29818800  0.28217200  0.01601600  1
  O  O3  1  0.23384400  0.71782800  0.51601600  1
  O  O4  1  0.70181200  0.71782800  0.98398400  1
  O  O5  1  0.74190300  0.26350900  0.02160700  1
  O  O6  1  0.76615600  0.28217200  0.48398400  1
  O  O7  1  0.74190300  0.72029600  0.47839300  1
loop_
_geom_bond_atom_site_label_1
_geom_bond_atom_site_label_2
_geom_bond_distance
_geom_bond_site_symmetry_2
Mg0 O3 2.021624 1_555
Mg0 O4 2.021624 1_555
Mg0 O5 2.185743 1_566
Mg0 O7 2.185748 1_555
Mg1 O6 2.021624 1_555
Mg1 O2 2.021624 1_555
Mg1 O1 2.185743 1_544
Mg1 O0 2.185748 1_555
O0 Sn0 2.220388 1_556
O0 Sn3 2.220388 1_555
O0 Sn2 2.455253 1_555
O1 Sn3 2.220387 1_555
O1 Sn0 2.220392 1_556
O1 Sn1 2.455258 1_556
O2 Sn0 2.071592 1_555
O2 Sn2 2.410629 1_554
O2 Sn1 2.410629 1_555
O3 Sn3 2.071592 1_555
O3 Sn2 2.410629 1_565
O3 Sn1 2.410629 1_555
O4 Sn0 2.071592 1_556
O4 Sn1 2.410629 1_656
O4 Sn2 2.410629 1_666
O5 Sn3 2.220387 1_655
O5 Sn0 2.220392 1_555
O5 Sn1 2.455258 1_655
O6 Sn3 2.071592 1_655
O6 Sn1 2.410629 1_656
O6 Sn2 2.410629 1_655
O7 Sn0 2.220388 1_555
O7 Sn3 2.220388 1_655
O7 Sn2 2.455253 1_665
