# generated using pymatgen
data_Si4MoW
_symmetry_space_group_name_H-M   'P 1'
_cell_length_a   3.20894579
_cell_length_b   3.20894579
_cell_length_c   7.80827154
_cell_angle_alpha   90.00000000
_cell_angle_beta   90.00000000
_cell_angle_gamma   90.00000000
_symmetry_Int_Tables_number   1
_chemical_formula_structural   Si4MoW
_chemical_formula_sum   'Si4 Mo1 W1'
_cell_volume   80.40437285
_cell_formula_units_Z   1
loop_
 _symmetry_equiv_pos_site_id
 _symmetry_equiv_pos_as_xyz
  1  'x, y, z'
loop_
 _atom_site_type_symbol
 _atom_site_label
 _atom_site_symmetry_multiplicity
 _atom_site_fract_x
 _atom_site_fract_y
 _atom_site_fract_z
 _atom_site_occupancy
  Si  Si0  1  0.50000000  0.50000000  0.16445608  1
  Si  Si1  1  0.00000000  0.00000000  0.66545026  1
  Si  Si2  1  -0.00000000  -0.00000000  0.33454974  1
  Si  Si3  1  0.50000000  0.50000000  0.83554392  1
  Mo  Mo0  1  -0.00000000  0.00000000  0.00000000  1
  W  W0  1  0.50000000  0.50000000  0.50000000  1
loop_
_geom_bond_atom_site_label_1
_geom_bond_atom_site_label_2
_geom_bond_distance
_geom_bond_site_symmetry_2
Si0 Si3 2.568235 1_554
Si0 W0 2.620018 1_555
Si0 Si2 2.629185 1_655
Si0 Si2 2.629185 1_665
Si0 Si2 2.629185 1_565
Si0 Si2 2.629185 1_555
Si1 Si2 2.583761 1_555
Si1 W0 2.611058 1_455
Si1 W0 2.611058 1_555
Si1 W0 2.611058 1_445
Si1 W0 2.611058 1_545
Si1 Si3 2.629185 1_445
Si1 Si3 2.629185 1_555
Si1 Si3 2.629185 1_545
Si1 Si3 2.629185 1_455
Si2 W0 2.611058 1_455
Si2 W0 2.611058 1_555
Si2 W0 2.611058 1_445
Si2 W0 2.611058 1_545
Si3 W0 2.620018 1_555
Mo0 Si0 2.607226 1_445
Mo0 Si3 2.607226 1_554
Mo0 Si0 2.607226 1_455
Mo0 Si3 2.607226 1_544
Mo0 Si3 2.607226 1_444
Mo0 Si3 2.607226 1_454
Mo0 Si0 2.607226 1_555
Mo0 Si0 2.607226 1_545
Mo0 Si2 2.612255 1_555
Mo0 Si1 2.612255 1_554
