# generated using pymatgen
data_Li9Co7O16
_symmetry_space_group_name_H-M   'P 1'
_cell_length_a   2.96559400
_cell_length_b   5.05037700
_cell_length_c   18.98924078
_cell_angle_alpha   87.55029376
_cell_angle_beta   90.00000000
_cell_angle_gamma   90.00000000
_symmetry_Int_Tables_number   1
_chemical_formula_structural   Li9Co7O16
_chemical_formula_sum   'Li9 Co7 O16'
_cell_volume   284.14892811
_cell_formula_units_Z   1
loop_
 _symmetry_equiv_pos_site_id
 _symmetry_equiv_pos_as_xyz
  1  'x, y, z'
loop_
 _atom_site_type_symbol
 _atom_site_label
 _atom_site_symmetry_multiplicity
 _atom_site_fract_x
 _atom_site_fract_y
 _atom_site_fract_z
 _atom_site_occupancy
  Li  Li0  1  0.50000000  0.62902300  0.62548200  1
  Li  Li1  1  0.00000000  0.75062000  0.74936500  1
  Li  Li2  1  0.50000000  0.87622100  0.87354400  1
  Li  Li3  1  0.00000000  0.00000000  0.00000000  1
  Li  Li4  1  0.50000000  0.12377900  0.12645600  1
  Li  Li5  1  0.00000000  0.50000000  0.50000000  1
  Li  Li6  1  0.50000000  0.37097700  0.37451800  1
  Li  Li7  1  0.00000000  0.24938000  0.25063500  1
  Li  Li8  1  0.50000000  0.00000000  0.50000000  1
  Co  Co0  1  0.00000000  0.12646200  0.62006400  1
  Co  Co1  1  0.00000000  0.87353800  0.37993600  1
  Co  Co2  1  0.50000000  0.24325900  0.74886500  1
  Co  Co3  1  0.00000000  0.36883200  0.87456300  1
  Co  Co4  1  0.50000000  0.50000000  0.00000000  1
  Co  Co5  1  0.00000000  0.63116800  0.12543700  1
  Co  Co6  1  0.50000000  0.75674100  0.25113500  1
  O  O0  1  0.50000000  0.30379600  0.56694400  1
  O  O1  1  0.00000000  0.40571500  0.68526500  1
  O  O2  1  0.50000000  0.53978600  0.81297200  1
  O  O3  1  0.00000000  0.65614400  0.93715900  1
  O  O4  1  0.50000000  0.80058500  0.06619300  1
  O  O5  1  0.00000000  0.15177100  0.42954100  1
  O  O6  1  0.50000000  0.04589800  0.31060400  1
  O  O7  1  0.00000000  0.91514700  0.18729100  1
  O  O8  1  0.50000000  0.95410200  0.68939600  1
  O  O9  1  0.00000000  0.08485300  0.81270900  1
  O  O10  1  0.50000000  0.19941500  0.93380700  1
  O  O11  1  0.00000000  0.34385600  0.06284100  1
  O  O12  1  0.50000000  0.46021400  0.18702800  1
  O  O13  1  0.00000000  0.84822900  0.57045900  1
  O  O14  1  0.50000000  0.69620400  0.43305600  1
  O  O15  1  0.00000000  0.59428500  0.31473500  1
loop_
_geom_bond_atom_site_label_1
_geom_bond_atom_site_label_2
_geom_bond_distance
_geom_bond_site_symmetry_2
Li0 O0 2.022272 1_555
Li0 O8 2.082970 1_555
Li0 O13 2.101694 1_555
Li0 O13 2.101694 1_655
Li0 O1 2.156364 1_655
Li0 O1 2.156364 1_555
Li1 O8 2.109863 1_555
Li1 O8 2.109863 1_455
Li1 O9 2.114186 1_565
Li1 O2 2.163660 1_555
Li1 O2 2.163660 1_455
Li1 O1 2.167272 1_555
Li2 O10 2.033090 1_565
Li2 O2 2.092149 1_555
Li2 O9 2.130579 1_665
Li2 O9 2.130579 1_565
Li2 O3 2.185988 1_655
Li2 O3 2.185988 1_555
Li3 O11 2.148699 1_555
Li3 O3 2.148699 1_544
Li3 O4 2.164417 1_445
Li3 O4 2.164417 1_545
Li3 O10 2.164417 1_454
Li3 O10 2.164417 1_554
Li4 O4 2.033090 1_545
Li4 O12 2.092149 1_555
Li4 O7 2.130579 1_545
Li4 O7 2.130579 1_645
Li4 O11 2.185988 1_555
Li4 O11 2.185988 1_655
Li5 O14 2.165384 1_555
Li5 O14 2.165384 1_455
Li5 O0 2.165384 1_455
Li5 O0 2.165384 1_555
Li5 O13 2.254834 1_555
Li5 O5 2.254834 1_555
Li6 O14 2.022272 1_555
Li6 O6 2.082970 1_555
Li6 O5 2.101694 1_555
Li6 O5 2.101694 1_655
Li6 O15 2.156364 1_655
Li6 O15 2.156364 1_555
Li7 O6 2.109863 1_455
Li7 O6 2.109863 1_555
Li7 O7 2.114186 1_545
Li7 O12 2.163660 1_555
Li7 O12 2.163660 1_455
Li7 O15 2.167272 1_555
Li8 O0 2.033900 1_555
Li8 O14 2.033900 1_545
Li8 O13 2.118652 1_545
Li8 O13 2.118652 1_645
Li8 O5 2.118652 1_555
Li8 O5 2.118652 1_655
Co0 O13 1.724812 1_545
Co0 O1 1.916049 1_555
Co0 O0 1.985210 1_455
Co0 O0 1.985210 1_555
Co0 O8 2.142847 1_445
Co0 O8 2.142847 1_545
Co1 O5 1.724812 1_565
Co1 O15 1.916049 1_555
Co1 O14 1.985210 1_555
Co1 O14 1.985210 1_455
Co1 O6 2.142847 1_465
Co1 O6 2.142847 1_565
Co2 O8 1.883841 1_545
Co2 O2 1.969897 1_555
Co2 O9 2.055622 1_555
Co2 O9 2.055622 1_655
Co2 O1 2.060514 1_555
Co2 O1 2.060514 1_655
Co3 O9 1.892229 1_555
Co3 O3 1.914636 1_555
Co3 O10 2.028327 1_455
Co3 O10 2.028327 1_555
Co3 O2 2.055646 1_455
Co3 O2 2.055646 1_555
Co4 O4 2.011860 1_555
Co4 O10 2.011860 1_554
Co4 O11 2.040609 1_555
Co4 O11 2.040609 1_655
Co4 O3 2.040609 1_554
Co4 O3 2.040609 1_654
Co5 O7 1.892229 1_555
Co5 O11 1.914636 1_555
Co5 O4 2.028327 1_555
Co5 O4 2.028327 1_455
Co5 O12 2.055646 1_555
Co5 O12 2.055646 1_455
Co6 O6 1.883841 1_565
Co6 O12 1.969897 1_555
Co6 O7 2.055622 1_655
Co6 O7 2.055622 1_555
Co6 O15 2.060514 1_555
Co6 O15 2.060514 1_655
