# generated using pymatgen
data_Cs3B(SeO4)3
_symmetry_space_group_name_H-M   'P 1'
_cell_length_a   11.44248809
_cell_length_b   8.03998115
_cell_length_c   15.81235618
_cell_angle_alpha   90.00000000
_cell_angle_beta   101.19709658
_cell_angle_gamma   90.00000000
_symmetry_Int_Tables_number   1
_chemical_formula_structural   Cs3B(SeO4)3
_chemical_formula_sum   'Cs12 B4 Se12 O48'
_cell_volume   1427.00534209
_cell_formula_units_Z   4
loop_
 _symmetry_equiv_pos_site_id
 _symmetry_equiv_pos_as_xyz
  1  'x, y, z'
loop_
 _atom_site_type_symbol
 _atom_site_label
 _atom_site_symmetry_multiplicity
 _atom_site_fract_x
 _atom_site_fract_y
 _atom_site_fract_z
 _atom_site_occupancy
  Cs  Cs0  1  0.12429927  0.71045651  0.05979580  1
  Cs  Cs1  1  0.87570073  0.21045651  0.44020420  1
  Cs  Cs2  1  0.87570073  0.28954349  0.94020420  1
  Cs  Cs3  1  0.12429927  0.78954349  0.55979580  1
  Cs  Cs4  1  0.13598197  0.42959707  0.30121151  1
  Cs  Cs5  1  0.86401803  0.92959707  0.19878849  1
  Cs  Cs6  1  0.86401803  0.57040293  0.69878849  1
  Cs  Cs7  1  0.13598197  0.07040293  0.80121151  1
  Cs  Cs8  1  0.46089326  0.27868842  0.04649328  1
  Cs  Cs9  1  0.53910674  0.77868842  0.45350672  1
  Cs  Cs10  1  0.53910674  0.72131158  0.95350672  1
  Cs  Cs11  1  0.46089326  0.22131158  0.54649328  1
  B  B0  1  0.65902155  0.55209517  0.26888937  1
  B  B1  1  0.34097845  0.05209517  0.23111063  1
  B  B2  1  0.34097845  0.44790483  0.73111063  1
  B  B3  1  0.65902155  0.94790483  0.76888937  1
  Se  Se0  1  0.49062044  0.79691824  0.18788231  1
  Se  Se1  1  0.50937956  0.29691824  0.31211769  1
  Se  Se2  1  0.50937956  0.20308176  0.81211769  1
  Se  Se3  1  0.49062044  0.70308176  0.68788231  1
  Se  Se4  1  0.18438043  0.57067516  0.83384305  1
  Se  Se5  1  0.81561957  0.07067516  0.66615695  1
  Se  Se6  1  0.81561957  0.42932484  0.16615695  1
  Se  Se7  1  0.18438043  0.92932484  0.33384305  1
  Se  Se8  1  0.16381818  0.17429156  0.09387898  1
  Se  Se9  1  0.83618182  0.67429156  0.40612102  1
  Se  Se10  1  0.83618182  0.82570844  0.90612102  1
  Se  Se11  1  0.16381818  0.32570844  0.59387898  1
  O  O0  1  0.43488775  0.42789991  0.35902929  1
  O  O1  1  0.56511225  0.92789991  0.14097071  1
  O  O2  1  0.56511225  0.57210009  0.64097071  1
  O  O3  1  0.43488775  0.07210009  0.85902929  1
  O  O4  1  0.41102007  0.66490005  0.12400113  1
  O  O5  1  0.58897993  0.16490005  0.37599887  1
  O  O6  1  0.58897993  0.33509995  0.87599887  1
  O  O7  1  0.41102007  0.83509995  0.62400113  1
  O  O8  1  0.92054258  0.53977051  0.13717398  1
  O  O9  1  0.07945742  0.03977051  0.36282602  1
  O  O10  1  0.07945742  0.46022949  0.86282602  1
  O  O11  1  0.92054258  0.96022949  0.63717398  1
  O  O12  1  0.13949570  0.80581017  0.25228067  1
  O  O13  1  0.86050430  0.30581017  0.24771933  1
  O  O14  1  0.86050430  0.19418983  0.74771933  1
  O  O15  1  0.13949570  0.69418983  0.75228067  1
  O  O16  1  0.27240639  0.65984851  0.91497922  1
  O  O17  1  0.72759361  0.15984851  0.58502078  1
  O  O18  1  0.72759361  0.34015149  0.08502078  1
  O  O19  1  0.27240639  0.84015149  0.41497922  1
  O  O20  1  0.22114335  0.36031966  0.11033223  1
  O  O21  1  0.77885665  0.86031966  0.38966777  1
  O  O22  1  0.77885665  0.63968034  0.88966777  1
  O  O23  1  0.22114335  0.13968034  0.61033223  1
  O  O24  1  0.04822558  0.14642568  0.13809344  1
  O  O25  1  0.95177442  0.64642568  0.36190656  1
  O  O26  1  0.95177442  0.85357432  0.86190656  1
  O  O27  1  0.04822558  0.35357432  0.63809344  1
  O  O28  1  0.14597204  0.11109653  0.99431569  1
  O  O29  1  0.85402796  0.61109653  0.50568431  1
  O  O30  1  0.85402796  0.88890347  0.00568431  1
  O  O31  1  0.14597204  0.38890347  0.49431569  1
  O  O32  1  0.58885822  0.39619710  0.24567627  1
  O  O33  1  0.41114178  0.89619710  0.25432373  1
  O  O34  1  0.41114178  0.60380290  0.75432373  1
  O  O35  1  0.58885822  0.10380290  0.74567627  1
  O  O36  1  0.27536705  0.03248195  0.14333067  1
  O  O37  1  0.72463295  0.53248195  0.35666933  1
  O  O38  1  0.72463295  0.96751805  0.85666933  1
  O  O39  1  0.27536705  0.46751805  0.64333067  1
  O  O40  1  0.42106944  0.19820670  0.22774983  1
  O  O41  1  0.57893056  0.69820670  0.27225017  1
  O  O42  1  0.57893056  0.80179330  0.77225017  1
  O  O43  1  0.42106944  0.30179330  0.72774983  1
  O  O44  1  0.27481619  0.08419520  0.29854070  1
  O  O45  1  0.72518381  0.58419520  0.20145930  1
  O  O46  1  0.72518381  0.91580480  0.70145930  1
  O  O47  1  0.27481619  0.41580480  0.79854070  1
loop_
_geom_bond_atom_site_label_1
_geom_bond_atom_site_label_2
_geom_bond_distance
_geom_bond_site_symmetry_2
Cs0 O20 3.073658 1_555
Cs0 O12 3.110655 1_555
Cs0 O16 3.128636 1_554
Cs0 O8 3.150232 1_455
Cs0 O36 3.247974 1_565
Cs0 O4 3.261124 1_555
Cs0 O30 3.365540 1_455
Cs0 O28 3.407197 1_564
Cs0 O26 3.551529 1_454
Cs0 O10 3.659304 1_554
Cs1 O21 3.073658 1_545
Cs1 O13 3.110655 1_555
Cs1 O17 3.128636 1_555
Cs1 O9 3.150232 1_655
Cs1 O37 3.247974 1_555
Cs1 O5 3.261124 1_555
Cs1 O31 3.365540 1_655
Cs1 O29 3.407197 1_555
Cs1 O27 3.551529 1_655
Cs1 O11 3.659304 1_545
Cs2 O22 3.073658 1_555
Cs2 O14 3.110655 1_555
Cs2 O18 3.128636 1_556
Cs2 O10 3.150232 1_655
Cs2 O38 3.247974 1_545
Cs2 O6 3.261124 1_555
Cs2 O28 3.365540 1_655
Cs2 O30 3.407197 1_546
Cs2 O24 3.551529 1_656
Cs2 O8 3.659304 1_556
Cs3 O23 3.073658 1_565
Cs3 O15 3.110655 1_555
Cs3 O19 3.128636 1_555
Cs3 O11 3.150232 1_455
Cs3 O39 3.247974 1_555
Cs3 O7 3.261124 1_555
Cs3 O29 3.365540 1_455
Cs3 O31 3.407197 1_555
Cs3 O25 3.551529 1_455
Cs3 O9 3.659304 1_565
Cs4 O25 3.031271 1_455
Cs4 O31 3.050902 1_555
Cs4 O12 3.124327 1_555
Cs4 O44 3.203651 1_555
Cs4 O13 3.256767 1_455
Cs4 O8 3.332604 1_455
Cs4 O0 3.364457 1_555
Cs4 O9 3.381635 1_555
Cs4 O20 3.392919 1_555
Cs4 O24 3.440707 1_555
Cs5 O24 3.031271 1_665
Cs5 O30 3.050902 1_555
Cs5 O13 3.124327 1_565
Cs5 O45 3.203651 1_555
Cs5 O12 3.256767 1_655
Cs5 O9 3.332604 1_665
Cs5 O1 3.364457 1_555
Cs5 O8 3.381635 1_555
Cs5 O21 3.392919 1_555
Cs5 O25 3.440707 1_555
Cs6 O27 3.031271 1_655
Cs6 O29 3.050902 1_555
Cs6 O14 3.124327 1_555
Cs6 O46 3.203651 1_555
Cs6 O15 3.256767 1_655
Cs6 O10 3.332604 1_655
Cs6 O2 3.364457 1_555
Cs6 O11 3.381635 1_555
Cs6 O22 3.392919 1_555
Cs6 O26 3.440707 1_555
Cs7 O26 3.031271 1_445
Cs7 O28 3.050902 1_555
Cs7 O15 3.124327 1_545
Cs7 O47 3.203651 1_555
Cs7 O14 3.256767 1_455
Cs7 O11 3.332604 1_445
Cs7 O3 3.364457 1_555
Cs7 O10 3.381635 1_555
Cs7 O23 3.392919 1_555
Cs7 O27 3.440707 1_555
Cs8 O18 3.034184 1_555
Cs8 O40 3.057460 1_555
Cs8 O20 3.170348 1_555
Cs8 O1 3.303978 1_545
Cs8 O6 3.340103 1_554
Cs8 O32 3.341439 1_555
Cs8 O3 3.360290 1_554
Cs8 O4 3.426544 1_555
Cs8 O36 3.468735 1_555
Cs8 O28 3.785067 1_554
Cs9 O19 3.034184 1_555
Cs9 O41 3.057460 1_555
Cs9 O21 3.170348 1_555
Cs9 O0 3.303978 1_555
Cs9 O7 3.340103 1_555
Cs9 O33 3.341439 1_555
Cs9 O2 3.360290 1_555
Cs9 O5 3.426544 1_565
Cs9 O37 3.468735 1_555
Cs9 O29 3.785067 1_555
Cs10 O16 3.034184 1_555
Cs10 O42 3.057460 1_555
Cs10 O22 3.170348 1_555
Cs10 O3 3.303978 1_565
Cs10 O4 3.340103 1_556
Cs10 O34 3.341439 1_555
Cs10 O1 3.360290 1_556
Cs10 O6 3.426544 1_555
Cs10 O38 3.468735 1_555
Cs10 O30 3.785067 1_556
Cs11 O17 3.034184 1_555
Cs11 O43 3.057460 1_555
Cs11 O23 3.170348 1_555
Cs11 O2 3.303978 1_555
Cs11 O5 3.340103 1_555
Cs11 O35 3.341439 1_555
Cs11 O0 3.360290 1_555
Cs11 O7 3.426544 1_545
Cs11 O39 3.468735 1_555
Cs11 O31 3.785067 1_555
B0 O45 1.445712 1_555
B0 O37 1.452710 1_555
B0 O32 1.495291 1_555
B0 O41 1.497198 1_555
B1 O44 1.445712 1_555
B1 O36 1.452710 1_555
B1 O33 1.495291 1_545
B1 O40 1.497198 1_555
B2 O47 1.445712 1_555
B2 O39 1.452710 1_555
B2 O34 1.495291 1_555
B2 O43 1.497198 1_555
B3 O46 1.445712 1_555
B3 O38 1.452710 1_555
B3 O35 1.495291 1_565
B3 O42 1.497198 1_555
O0 Se1 1.622139 1_555
O1 Se0 1.622139 1_555
O2 Se3 1.622139 1_555
O3 Se2 1.622139 1_555
O4 Se0 1.618406 1_555
O5 Se1 1.618406 1_555
O6 Se2 1.618406 1_555
O7 Se3 1.618406 1_555
O8 Se6 1.628993 1_555
O9 Se7 1.628993 1_545
O10 Se4 1.628993 1_555
O11 Se5 1.628993 1_565
O12 Se7 1.629724 1_555
O13 Se6 1.629724 1_555
O14 Se5 1.629724 1_555
O15 Se4 1.629724 1_555
O16 Se4 1.634824 1_555
O17 Se5 1.634824 1_555
O18 Se6 1.634824 1_555
O19 Se7 1.634824 1_555
O20 Se8 1.633608 1_555
O21 Se9 1.633608 1_555
O22 Se10 1.633608 1_555
O23 Se11 1.633608 1_555
O24 Se8 1.627134 1_555
O25 Se9 1.627134 1_555
O26 Se10 1.627134 1_555
O27 Se11 1.627134 1_555
O28 Se8 1.628961 1_556
O29 Se9 1.628961 1_555
O30 Se10 1.628961 1_554
O31 Se11 1.628961 1_555
O32 Se1 1.714354 1_555
O33 Se0 1.714354 1_555
O34 Se3 1.714354 1_555
O35 Se2 1.714354 1_555
O36 Se8 1.775653 1_555
O37 Se9 1.775653 1_555
O38 Se10 1.775653 1_555
O39 Se11 1.775653 1_555
O40 Se1 1.705025 1_555
O41 Se0 1.705025 1_555
O42 Se3 1.705025 1_555
O43 Se2 1.705025 1_555
O44 Se7 1.776847 1_545
O45 Se6 1.776847 1_555
O46 Se5 1.776847 1_565
O47 Se4 1.776847 1_555
