# generated using pymatgen
data_Eu2P3Pt4
_symmetry_space_group_name_H-M   'P 1'
_cell_length_a   10.07653179
_cell_length_b   10.07653179
_cell_length_c   10.07653179
_cell_angle_alpha   156.10915607
_cell_angle_beta   156.10915607
_cell_angle_gamma   34.04098332
_symmetry_Int_Tables_number   1
_chemical_formula_structural   Eu2P3Pt4
_chemical_formula_sum   'Eu2 P3 Pt4'
_cell_volume   167.64791140
_cell_formula_units_Z   1
loop_
 _symmetry_equiv_pos_site_id
 _symmetry_equiv_pos_as_xyz
  1  'x, y, z'
loop_
 _atom_site_type_symbol
 _atom_site_label
 _atom_site_symmetry_multiplicity
 _atom_site_fract_x
 _atom_site_fract_y
 _atom_site_fract_z
 _atom_site_occupancy
  Eu  Eu0  1  0.12915500  0.12915500  0.00000000  1
  Eu  Eu1  1  0.87084500  0.87084500  0.00000000  1
  P  P0  1  0.42691800  0.42691800  0.00000000  1
  P  P1  1  0.57308200  0.57308200  0.00000000  1
  P  P2  1  0.25000000  0.75000000  0.50000000  1
  Pt  Pt0  1  0.50015000  0.00015000  0.50000000  1
  Pt  Pt1  1  0.99985000  0.49985000  0.50000000  1
  Pt  Pt2  1  0.30485100  0.30485100  0.00000000  1
  Pt  Pt3  1  0.69514900  0.69514900  0.00000000  1
loop_
_geom_bond_atom_site_label_1
_geom_bond_atom_site_label_2
_geom_bond_distance
_geom_bond_site_symmetry_2
Eu0 P2 3.126157 1_555
Eu0 P2 3.126157 1_544
Eu0 P1 3.141236 1_455
Eu0 P1 3.141236 1_556
Eu0 P1 3.141236 1_444
Eu0 P1 3.141236 1_545
Eu0 Pt3 3.212020 1_556
Eu0 Pt3 3.212020 1_444
Eu0 Pt3 3.212020 1_545
Eu0 Pt3 3.212020 1_455
Eu0 Pt0 3.244989 1_555
Eu0 Pt0 3.244989 1_454
Eu0 Pt1 3.249420 1_444
Eu0 Pt1 3.249420 1_455
Eu0 Pt2 3.385726 1_555
Eu1 P2 3.126157 1_655
Eu1 P2 3.126157 1_554
Eu1 P0 3.141236 1_554
Eu1 P0 3.141236 1_666
Eu1 P0 3.141236 1_655
Eu1 P0 3.141236 1_565
Eu1 Pt2 3.212020 1_666
Eu1 Pt2 3.212020 1_554
Eu1 Pt2 3.212020 1_565
Eu1 Pt2 3.212020 1_655
Eu1 Pt1 3.244989 1_565
Eu1 Pt1 3.244989 1_554
Eu1 Pt0 3.249420 1_564
Eu1 Pt0 3.249420 1_665
Eu1 Pt3 3.385726 1_555
P0 Pt2 2.352275 1_555
P0 Pt1 2.514978 1_454
P0 Pt1 2.514978 1_555
P0 Pt0 2.518213 1_554
P0 Pt0 2.518213 1_565
P1 Pt3 2.352275 1_555
P1 Pt0 2.514978 1_554
P1 Pt0 2.514978 1_565
P1 Pt1 2.518213 1_454
P1 Pt1 2.518213 1_555
P2 Pt3 2.338191 1_455
P2 Pt3 2.338191 1_556
P2 Pt2 2.338191 1_566
P2 Pt2 2.338191 1_555
Pt0 Pt1 2.949545 1_545
Pt0 Pt1 2.949545 1_444
Pt0 Pt1 2.949545 1_455
Pt0 Pt1 2.949545 1_556
