# generated using pymatgen
data_Sr2GaCo2O7
_symmetry_space_group_name_H-M   'P 1'
_cell_length_a   5.17601325
_cell_length_b   5.23867690
_cell_length_c   12.46532943
_cell_angle_alpha   102.13103923
_cell_angle_beta   101.92624895
_cell_angle_gamma   89.97707271
_symmetry_Int_Tables_number   1
_chemical_formula_structural   Sr2GaCo2O7
_chemical_formula_sum   'Sr4 Ga2 Co4 O14'
_cell_volume   322.99505763
_cell_formula_units_Z   2
loop_
 _symmetry_equiv_pos_site_id
 _symmetry_equiv_pos_as_xyz
  1  'x, y, z'
loop_
 _atom_site_type_symbol
 _atom_site_label
 _atom_site_symmetry_multiplicity
 _atom_site_fract_x
 _atom_site_fract_y
 _atom_site_fract_z
 _atom_site_occupancy
  Sr  Sr0  1  0.15591300  0.15847600  0.29941600  1
  Sr  Sr1  1  0.85713000  0.84358700  0.70023300  1
  Sr  Sr2  1  0.65561100  0.64434800  0.29917100  1
  Sr  Sr3  1  0.35664300  0.35958500  0.70050900  1
  Ga  Ga0  1  0.20168200  0.82111700  0.49961600  1
  Ga  Ga1  1  0.70080600  0.18094200  0.49853100  1
  Co  Co0  1  0.44481800  0.93978700  0.87577700  1
  Co  Co1  1  0.06711500  0.56150700  0.12124400  1
  Co  Co2  1  0.94728500  0.44091400  0.88166600  1
  Co  Co3  1  0.57182400  0.06402300  0.12961900  1
  O  O0  1  0.80826900  0.30373800  0.13147300  1
  O  O1  1  0.83244700  0.84135400  0.49897800  1
  O  O2  1  0.30890900  0.33088100  0.13435400  1
  O  O3  1  0.84445400  0.35130200  0.64450100  1
  O  O4  1  0.69120000  0.18305000  0.85750500  1
  O  O5  1  0.19651600  0.17764700  0.86373500  1
  O  O6  1  0.33317200  0.16235000  0.49918600  1
  O  O7  1  0.18156100  0.68230300  0.86566100  1
  O  O8  1  0.68308400  0.69302500  0.87309200  1
  O  O9  1  0.34367000  0.79926300  0.64611000  1
  O  O10  1  0.19592900  0.65228500  0.35182300  1
  O  O11  1  0.69336800  0.19869200  0.34826200  1
  O  O12  1  0.84086200  0.80716000  0.14136800  1
  O  O13  1  0.33937800  0.83318300  0.14084300  1
loop_
_geom_bond_atom_site_label_1
_geom_bond_atom_site_label_2
_geom_bond_distance
_geom_bond_site_symmetry_2
Ga0 O9 1.849589 1_555
Ga0 O10 1.862708 1_555
Ga0 O1 1.912529 1_455
Ga0 O6 1.914495 1_565
Ga1 O3 1.849051 1_555
Ga1 O11 1.887386 1_555
Ga1 O1 1.905451 1_545
Ga1 O6 1.907198 1_555
Co0 O8 1.786270 1_555
Co0 O5 1.795717 1_565
Co0 O4 1.882974 1_565
Co0 O7 1.884428 1_555
Co0 O9 2.739913 1_555
Co1 O2 1.746413 1_555
Co1 O12 1.753570 1_455
Co1 O0 1.944020 1_455
Co1 O13 1.945345 1_555
Co1 O10 2.750580 1_555
Co2 O7 1.821154 1_655
Co2 O4 1.827002 1_555
Co2 O5 1.898530 1_655
Co2 O8 1.903496 1_555
Co3 O0 1.747190 1_555
Co3 O13 1.752534 1_545
Co3 O12 1.941228 1_545
Co3 O2 1.951090 1_555
Co3 O11 2.608672 1_555
O0 Sr2 2.700352 1_555
O0 Sr0 2.703907 1_655
O1 Sr2 2.466672 1_555
O1 Sr1 2.482999 1_555
O2 Sr0 2.670472 1_555
O2 Sr2 2.683010 1_555
O3 Sr1 2.523105 1_555
O3 Sr3 2.596152 1_655
O3 Sr3 2.753227 1_555
O3 Sr1 2.884245 1_545
O4 Sr1 2.640616 1_545
O4 Sr3 2.653787 1_555
O5 Sr3 2.692196 1_555
O5 Sr1 2.706657 1_445
O6 Sr0 2.465315 1_555
O6 Sr3 2.482843 1_555
O7 Sr1 2.661965 1_455
O7 Sr3 2.687862 1_555
O8 Sr3 2.730369 1_555
O8 Sr1 2.755678 1_555
O9 Sr3 2.531241 1_555
O9 Sr1 2.601136 1_555
O9 Sr1 2.736241 1_455
O9 Sr3 2.867985 1_565
O10 Sr0 2.529025 1_555
O10 Sr2 2.593747 1_555
O10 Sr2 2.735684 1_455
O10 Sr0 2.858895 1_565
O11 Sr2 2.532569 1_555
O11 Sr0 2.587508 1_655
O11 Sr0 2.720373 1_555
O11 Sr2 2.837282 1_545
O12 Sr2 2.646053 1_555
O12 Sr0 2.660528 1_665
O13 Sr2 2.652747 1_555
O13 Sr0 2.659269 1_565
