# generated using pymatgen
data_Li4MnCo2O7
_symmetry_space_group_name_H-M   'P 1'
_cell_length_a   3.02193400
_cell_length_b   6.41556471
_cell_length_c   13.66470133
_cell_angle_alpha   83.16943757
_cell_angle_beta   86.42429013
_cell_angle_gamma   76.66673129
_symmetry_Int_Tables_number   1
_chemical_formula_structural   Li4MnCo2O7
_chemical_formula_sum   'Li8 Mn2 Co4 O14'
_cell_volume   255.78512699
_cell_formula_units_Z   2
loop_
 _symmetry_equiv_pos_site_id
 _symmetry_equiv_pos_as_xyz
  1  'x, y, z'
loop_
 _atom_site_type_symbol
 _atom_site_label
 _atom_site_symmetry_multiplicity
 _atom_site_fract_x
 _atom_site_fract_y
 _atom_site_fract_z
 _atom_site_occupancy
  Li  Li0  1  0.14879600  0.92632000  0.78217700  1
  Li  Li1  1  0.99261800  0.50531000  0.50092600  1
  Li  Li2  1  0.85555400  0.07396200  0.21491200  1
  Li  Li3  1  0.56561800  0.21725700  0.64469700  1
  Li  Li4  1  0.42642400  0.78471100  0.35857000  1
  Li  Li5  1  0.28928300  0.35745300  0.07085600  1
  Li  Li6  1  0.72300700  0.63395700  0.92744900  1
  Li  Li7  1  0.85623600  0.57235800  0.71341400  1
  Mn  Mn0  1  0.00182900  0.00412700  0.99712200  1
  Mn  Mn1  1  0.56546200  0.71373700  0.14377500  1
  Co  Co0  1  0.71533200  0.13831600  0.43138300  1
  Co  Co1  1  0.43237900  0.29918700  0.84864900  1
  Co  Co2  1  0.28773600  0.84698600  0.57806900  1
  Co  Co3  1  0.14111000  0.42404500  0.28813100  1
  O  O0  1  0.58318600  0.98904200  0.89260500  1
  O  O1  1  0.41903400  0.56717400  0.60064800  1
  O  O2  1  0.27354800  0.11906500  0.32524300  1
  O  O3  1  0.01767600  0.25459800  0.75830200  1
  O  O4  1  0.87943800  0.83701700  0.46894100  1
  O  O5  1  0.69332700  0.40597000  0.18252400  1
  O  O6  1  0.16386600  0.69412700  0.03716900  1
  O  O7  1  0.69800600  0.88999400  0.66876000  1
  O  O8  1  0.59261300  0.44609900  0.39167200  1
  O  O9  1  0.40585700  0.02437200  0.10428700  1
  O  O10  1  0.16672100  0.15425000  0.53450700  1
  O  O11  1  0.97145900  0.73420200  0.24983400  1
  O  O12  1  0.84200000  0.30830400  0.95906000  1
  O  O13  1  0.29188600  0.57805900  0.82632000  1
loop_
_geom_bond_atom_site_label_1
_geom_bond_atom_site_label_2
_geom_bond_distance
_geom_bond_site_symmetry_2
Li0 O3 2.041283 1_565
Li0 O0 2.190256 1_555
Li0 O7 2.190302 1_555
Li0 O7 2.192637 1_455
Li0 O13 2.192996 1_555
Li0 O0 2.205874 1_455
Li1 O1 2.063602 1_655
Li1 O4 2.073272 1_555
Li1 O8 2.099067 1_555
Li1 O1 2.129687 1_555
Li1 O10 2.190373 1_655
Li1 O8 2.267200 1_655
Li2 O5 2.072291 1_555
Li2 O2 2.112381 1_655
Li2 O11 2.126736 1_545
Li2 O9 2.169939 1_655
Li2 O9 2.191605 1_555
Li2 O2 2.233455 1_555
Li3 O7 2.034986 1_545
Li3 O10 2.116501 1_555
Li3 O3 2.189512 1_555
Li3 O3 2.199409 1_655
Li3 O1 2.202578 1_555
Li3 O10 2.279290 1_655
Li4 O2 2.087810 1_565
Li4 O8 2.113642 1_555
Li4 O11 2.142113 1_555
Li4 O4 2.161732 1_455
Li4 O11 2.185829 1_455
Li4 O4 2.202532 1_555
Li5 O9 2.083220 1_555
Li5 O6 2.104429 1_555
Li5 O5 2.106366 1_555
Li5 O12 2.185492 1_554
Li5 O12 2.197469 1_454
Li5 O5 2.276031 1_455
Li6 O12 2.034465 1_555
Li6 O13 2.072083 1_555
Li6 O13 2.128570 1_655
Li6 O6 2.184666 1_556
Li6 O6 2.189929 1_656
Li6 O0 2.217650 1_555
Li7 O7 2.011180 1_555
Li7 O3 2.012794 1_655
Li7 O13 2.098529 1_655
Li7 O1 2.099399 1_555
Li7 O1 2.219739 1_655
Li7 O13 2.224093 1_555
Mn0 O12 1.914992 1_455
Mn0 O6 1.954489 1_546
Mn0 O0 1.991063 1_445
Mn0 O9 1.998345 1_556
Mn0 O0 2.185639 1_545
Mn0 O9 2.239021 1_456
Mn1 O5 1.937332 1_555
Mn1 O9 1.956724 1_565
Mn1 O6 1.986270 1_555
Mn1 O11 1.991037 1_555
Mn1 O11 2.225271 1_455
Mn1 O6 2.240106 1_655
Co0 O4 1.897224 1_545
Co0 O8 1.939979 1_555
Co0 O10 2.048220 1_655
Co0 O2 2.064304 1_555
Co0 O10 2.099855 1_555
Co0 O2 2.146106 1_655
Co1 O13 1.735012 1_555
Co1 O3 1.902326 1_555
Co1 O0 1.964488 1_545
Co1 O12 2.024673 1_555
Co1 O3 2.076692 1_655
Co1 O12 2.258268 1_455
Co2 O1 1.740746 1_555
Co2 O7 1.892037 1_555
Co2 O10 1.946670 1_565
Co2 O4 2.009662 1_455
Co2 O7 2.089722 1_455
Co2 O4 2.249970 1_555
Co3 O2 1.916722 1_555
Co3 O11 1.952276 1_455
Co3 O8 2.064198 1_555
Co3 O5 2.069487 1_455
Co3 O8 2.101462 1_455
Co3 O5 2.128589 1_555
