# generated using pymatgen
data_ZrNiGe
_symmetry_space_group_name_H-M   'P 1'
_cell_length_a   3.87615593
_cell_length_b   6.55762871
_cell_length_c   7.33349380
_cell_angle_alpha   90.00000000
_cell_angle_beta   90.00000000
_cell_angle_gamma   90.00000000
_symmetry_Int_Tables_number   1
_chemical_formula_structural   ZrNiGe
_chemical_formula_sum   'Zr4 Ni4 Ge4'
_cell_volume   186.40561582
_cell_formula_units_Z   4
loop_
 _symmetry_equiv_pos_site_id
 _symmetry_equiv_pos_as_xyz
  1  'x, y, z'
loop_
 _atom_site_type_symbol
 _atom_site_label
 _atom_site_symmetry_multiplicity
 _atom_site_fract_x
 _atom_site_fract_y
 _atom_site_fract_z
 _atom_site_occupancy
  Zr  Zr0  1  0.25000000  0.01699147  0.80919668  1
  Zr  Zr1  1  0.25000000  0.51699147  0.69080332  1
  Zr  Zr2  1  0.75000000  0.98300853  0.19080332  1
  Zr  Zr3  1  0.75000000  0.48300853  0.30919668  1
  Ni  Ni0  1  0.25000000  0.13948430  0.43765474  1
  Ni  Ni1  1  0.25000000  0.63948430  0.06234526  1
  Ni  Ni2  1  0.75000000  0.86051570  0.56234526  1
  Ni  Ni3  1  0.75000000  0.36051570  0.93765474  1
  Ge  Ge0  1  0.25000000  0.76750423  0.38648795  1
  Ge  Ge1  1  0.25000000  0.26750423  0.11351205  1
  Ge  Ge2  1  0.75000000  0.23249577  0.61351205  1
  Ge  Ge3  1  0.75000000  0.73249577  0.88648795  1
loop_
_geom_bond_atom_site_label_1
_geom_bond_atom_site_label_2
_geom_bond_distance
_geom_bond_site_symmetry_2
Ni0 Ni2 2.817607 1_445
Ni0 Ni2 2.817607 1_545
Ni0 Zr0 2.840638 1_555
Ni0 Zr2 2.843620 1_445
Ni0 Zr2 2.843620 1_545
Ni0 Zr1 3.094320 1_555
Ni0 Zr3 3.117415 1_555
Ni0 Zr3 3.117415 1_455
Ni1 Ni3 2.817607 1_554
Ni1 Ni3 2.817607 1_454
Ni1 Zr1 2.840638 1_554
Ni1 Zr3 2.843620 1_455
Ni1 Zr3 2.843620 1_555
Ni1 Zr0 3.094320 1_564
Ni1 Zr2 3.117415 1_555
Ni1 Zr2 3.117415 1_455
Ni2 Zr2 2.840638 1_555
Ni2 Zr0 2.843620 1_565
Ni2 Zr0 2.843620 1_665
Ni2 Zr3 3.094320 1_555
Ni2 Zr1 3.117415 1_555
Ni2 Zr1 3.117415 1_655
Ni3 Zr3 2.840638 1_556
Ni3 Zr1 2.843620 1_655
Ni3 Zr1 2.843620 1_555
Ni3 Zr2 3.094320 1_546
Ni3 Zr0 3.117415 1_555
Ni3 Zr0 3.117415 1_655
Ge0 Ni2 2.406524 1_455
Ge0 Ni2 2.406524 1_555
Ge0 Ni0 2.467999 1_565
Ge0 Ni1 2.520986 1_555
Ge0 Zr3 2.749173 1_455
Ge0 Zr3 2.749173 1_555
Ge0 Zr1 2.771129 1_555
Ge0 Zr2 2.795111 1_555
Ge0 Zr2 2.795111 1_455
Ge1 Ni3 2.406524 1_454
Ge1 Ni3 2.406524 1_554
Ge1 Ni1 2.467999 1_555
Ge1 Ni0 2.520986 1_555
Ge1 Zr2 2.749173 1_445
Ge1 Zr2 2.749173 1_545
Ge1 Zr0 2.771129 1_554
Ge1 Zr3 2.795111 1_455
Ge1 Zr3 2.795111 1_555
Ge2 Ni0 2.406524 1_555
Ge2 Ni0 2.406524 1_655
Ge2 Ni2 2.467999 1_545
Ge2 Ni3 2.520986 1_555
Ge2 Zr1 2.749173 1_655
Ge2 Zr1 2.749173 1_555
Ge2 Zr3 2.771129 1_555
Ge2 Zr0 2.795111 1_555
Ge2 Zr0 2.795111 1_655
Ge3 Ni1 2.406524 1_556
Ge3 Ni1 2.406524 1_656
Ge3 Ni3 2.467999 1_555
Ge3 Ni2 2.520986 1_555
Ge3 Zr0 2.749173 1_565
Ge3 Zr0 2.749173 1_665
Ge3 Zr2 2.771129 1_556
Ge3 Zr1 2.795111 1_655
Ge3 Zr1 2.795111 1_555
