# generated using pymatgen
data_La5Cu4P4(ClO2)2
_symmetry_space_group_name_H-M   'P 1'
_cell_length_a   4.07651700
_cell_length_b   4.07651700
_cell_length_c   20.67873226
_cell_angle_alpha   95.65670638
_cell_angle_beta   95.65670638
_cell_angle_gamma   90.00000000
_symmetry_Int_Tables_number   1
_chemical_formula_structural   La5Cu4P4(ClO2)2
_chemical_formula_sum   'La5 Cu4 P4 Cl2 O4'
_cell_volume   340.28393978
_cell_formula_units_Z   1
loop_
 _symmetry_equiv_pos_site_id
 _symmetry_equiv_pos_as_xyz
  1  'x, y, z'
loop_
 _atom_site_type_symbol
 _atom_site_label
 _atom_site_symmetry_multiplicity
 _atom_site_fract_x
 _atom_site_fract_y
 _atom_site_fract_z
 _atom_site_occupancy
  La  La0  1  0.63437800  0.63437800  0.26875600  1
  La  La1  1  0.36562200  0.36562200  0.73124400  1
  La  La2  1  0.19431800  0.19431800  0.38863600  1
  La  La3  1  0.80568200  0.80568200  0.61136400  1
  La  La4  1  0.00000000  0.00000000  0.00000000  1
  Cu  Cu0  1  0.06209800  0.56209800  0.12419600  1
  Cu  Cu1  1  0.56209800  0.06209800  0.12419600  1
  Cu  Cu2  1  0.93790200  0.43790200  0.87580400  1
  Cu  Cu3  1  0.43790200  0.93790200  0.87580400  1
  P  P0  1  0.52744100  0.52744100  0.05488200  1
  P  P1  1  0.47255900  0.47255900  0.94511800  1
  P  P2  1  0.09064100  0.09064100  0.18128100  1
  P  P3  1  0.90935900  0.90935900  0.81871900  1
  Cl  Cl0  1  0.72786100  0.72786100  0.45572300  1
  Cl  Cl1  1  0.27213900  0.27213900  0.54427700  1
  O  O0  1  0.66421500  0.16421500  0.32843100  1
  O  O1  1  0.16421500  0.66421500  0.32843100  1
  O  O2  1  0.33578500  0.83578500  0.67156900  1
  O  O3  1  0.83578500  0.33578500  0.67156900  1
loop_
_geom_bond_atom_site_label_1
_geom_bond_atom_site_label_2
_geom_bond_distance
_geom_bond_site_symmetry_2
La0 O0 2.376482 1_565
La0 O1 2.376482 1_655
La0 O0 2.376485 1_555
La0 O1 2.376485 1_555
La1 O3 2.376482 1_455
La1 O2 2.376482 1_545
La1 O3 2.376485 1_555
La1 O2 2.376485 1_555
La2 O1 2.382080 1_555
La2 O0 2.382080 1_555
La2 O0 2.382084 1_455
La2 O1 2.382084 1_545
La3 O3 2.382080 1_555
La3 O2 2.382080 1_555
La3 O2 2.382084 1_655
La3 O3 2.382084 1_565
La4 P1 3.093856 1_554
La4 P0 3.093856 1_445
La4 P0 3.093856 1_455
La4 P0 3.093856 1_545
La4 P1 3.093856 1_454
La4 P1 3.093856 1_544
La4 P0 3.093856 1_555
La4 P1 3.093856 1_444
Cu0 P2 2.349652 1_555
Cu0 P2 2.349656 1_565
Cu0 P0 2.483747 1_555
Cu0 P0 2.483747 1_455
Cu0 La4 3.259151 1_565
Cu0 La4 3.259151 1_555
Cu1 P2 2.349652 1_555
Cu1 P2 2.349656 1_655
Cu1 P0 2.483747 1_555
Cu1 P0 2.483747 1_545
Cu1 La4 3.259151 1_655
Cu1 La4 3.259151 1_555
Cu2 P3 2.349652 1_555
Cu2 P3 2.349656 1_545
Cu2 P1 2.483747 1_555
Cu2 P1 2.483747 1_655
Cu2 La4 3.259151 1_656
Cu2 La4 3.259151 1_666
Cu3 P3 2.349652 1_555
Cu3 P3 2.349656 1_455
Cu3 P1 2.483747 1_555
Cu3 P1 2.483747 1_565
Cu3 La4 3.259151 1_566
Cu3 La4 3.259151 1_666
P0 P1 2.247620 1_554
Cl0 La3 3.187036 1_555
Cl0 La2 3.193135 1_555
Cl0 La2 3.193138 1_655
Cl0 La2 3.193138 1_565
Cl0 La2 3.193140 1_665
Cl1 La2 3.187036 1_555
Cl1 La3 3.193135 1_555
Cl1 La3 3.193138 1_455
Cl1 La3 3.193138 1_545
Cl1 La3 3.193140 1_445
