# generated using pymatgen
data_Ca3Nd8(RuO6)4
_symmetry_space_group_name_H-M   'P 1'
_cell_length_a   11.44994856
_cell_length_b   11.44994856
_cell_length_c   11.44994856
_cell_angle_alpha   120.21335649
_cell_angle_beta   120.21335649
_cell_angle_gamma   89.63085126
_symmetry_Int_Tables_number   1
_chemical_formula_structural   Ca3Nd8(RuO6)4
_chemical_formula_sum   'Ca6 Nd16 Ru8 O48'
_cell_volume   1057.99357149
_cell_formula_units_Z   2
loop_
 _symmetry_equiv_pos_site_id
 _symmetry_equiv_pos_as_xyz
  1  'x, y, z'
loop_
 _atom_site_type_symbol
 _atom_site_label
 _atom_site_symmetry_multiplicity
 _atom_site_fract_x
 _atom_site_fract_y
 _atom_site_fract_z
 _atom_site_occupancy
  Ca  Ca0  1  0.71737100  0.71737100  0.00000000  1
  Ca  Ca1  1  0.46737100  0.96737100  0.50000000  1
  Ca  Ca2  1  0.00112800  0.00112800  0.00000000  1
  Ca  Ca3  1  0.75112800  0.25112800  0.50000000  1
  Ca  Ca4  1  0.21095400  0.21095400  0.00000000  1
  Ca  Ca5  1  0.96095400  0.46095400  0.50000000  1
  Nd  Nd0  1  0.14756300  0.41360500  0.31126400  1
  Nd  Nd1  1  0.10234200  0.83629900  0.68873600  1
  Nd  Nd2  1  0.16360500  0.35234200  0.76604200  1
  Nd  Nd3  1  0.58629900  0.39756300  0.23395800  1
  Nd  Nd4  1  0.49949300  0.42993000  0.53009600  1
  Nd  Nd5  1  0.89983400  0.96939700  0.46990400  1
  Nd  Nd6  1  0.17993000  0.14983400  0.43043700  1
  Nd  Nd7  1  0.71939700  0.74949300  0.56956300  1
  Nd  Nd8  1  0.56895300  0.33585400  0.81109400  1
  Nd  Nd9  1  0.52476000  0.75785900  0.18890600  1
  Nd  Nd10  1  0.08585400  0.77476000  0.26690100  1
  Nd  Nd11  1  0.50785900  0.81895300  0.73309900  1
  Nd  Nd12  1  0.94735600  0.41843700  0.92969700  1
  Nd  Nd13  1  0.48874000  0.01765900  0.07030300  1
  Nd  Nd14  1  0.16843700  0.73874000  0.97108100  1
  Nd  Nd15  1  0.76765900  0.19735600  0.02891900  1
  Ru  Ru0  1  0.33847400  0.08639500  0.25538100  1
  Ru  Ru1  1  0.83101400  0.08309300  0.74461900  1
  Ru  Ru2  1  0.83639500  0.08101400  0.24792100  1
  Ru  Ru3  1  0.83309300  0.58847400  0.75207900  1
  Ru  Ru4  1  0.33392300  0.58523000  0.24950900  1
  Ru  Ru5  1  0.33572100  0.08441300  0.75049100  1
  Ru  Ru6  1  0.33523000  0.58572100  0.75130700  1
  Ru  Ru7  1  0.83441300  0.58392300  0.24869300  1
  O  O0  1  0.17162900  0.66484200  0.72484900  1
  O  O1  1  0.93999300  0.44678000  0.27515100  1
  O  O2  1  0.41484200  0.18999300  0.99321300  1
  O  O3  1  0.19678000  0.42162900  0.00678700  1
  O  O4  1  0.73927200  0.22693600  0.81169900  1
  O  O5  1  0.41523700  0.92757300  0.18830100  1
  O  O6  1  0.97693600  0.66523700  0.98766400  1
  O  O7  1  0.67757300  0.98927200  0.01233600  1
  O  O8  1  0.46968100  0.74818100  0.48993500  1
  O  O9  1  0.25824600  0.97974600  0.51006500  1
  O  O10  1  0.49818100  0.50824600  0.77850000  1
  O  O11  1  0.72974600  0.71968100  0.22150000  1
  O  O12  1  0.48898600  0.77211100  0.93571200  1
  O  O13  1  0.83639800  0.55327400  0.06428800  1
  O  O14  1  0.52211100  0.08639800  0.78312400  1
  O  O15  1  0.30327400  0.73898600  0.21687600  1
  O  O16  1  0.72642000  0.42002900  0.71382700  1
  O  O17  1  0.70620200  0.01259200  0.28617300  1
  O  O18  1  0.17002900  0.95620200  0.19360900  1
  O  O19  1  0.76259200  0.97642000  0.80639100  1
  O  O20  1  0.43476100  0.17641500  0.50291200  1
  O  O21  1  0.67350400  0.93185000  0.49708800  1
  O  O22  1  0.92641500  0.92350400  0.24165400  1
  O  O23  1  0.68185000  0.68476100  0.75834600  1
  O  O24  1  0.97268300  0.47459600  0.72559600  1
  O  O25  1  0.74900000  0.24708800  0.27440400  1
  O  O26  1  0.22459600  0.99900000  0.00191300  1
  O  O27  1  0.99708800  0.22268300  0.99808700  1
  O  O28  1  0.31997800  0.58421400  0.92005600  1
  O  O29  1  0.66415800  0.39992200  0.07994400  1
  O  O30  1  0.33421400  0.91415800  0.76423600  1
  O  O31  1  0.14992200  0.56997800  0.23576400  1
  O  O32  1  0.50383800  0.21403900  0.31143100  1
  O  O33  1  0.90260800  0.19240700  0.68856900  1
  O  O34  1  0.96403900  0.15260800  0.21020100  1
  O  O35  1  0.94240700  0.75383800  0.78979900  1
  O  O36  1  0.24823100  0.23693700  0.30522500  1
  O  O37  1  0.93171200  0.94300600  0.69477500  1
  O  O38  1  0.98693700  0.18171200  0.48870600  1
  O  O39  1  0.69300600  0.49823100  0.51129400  1
  O  O40  1  0.36334500  0.43160700  0.28336600  1
  O  O41  1  0.14824000  0.07997900  0.71663400  1
  O  O42  1  0.18160700  0.39824000  0.56826100  1
  O  O43  1  0.82997900  0.61334500  0.43173900  1
  O  O44  1  0.51538700  0.59715400  0.25919700  1
  O  O45  1  0.33795600  0.25619000  0.74080300  1
  O  O46  1  0.34715400  0.58795600  0.58176600  1
  O  O47  1  0.00619000  0.76538700  0.41823400  1
loop_
_geom_bond_atom_site_label_1
_geom_bond_atom_site_label_2
_geom_bond_distance
_geom_bond_site_symmetry_2
Ca0 O22 2.406302 1_555
Ca0 O23 2.406302 1_554
Ca0 O11 2.454336 1_555
Ca0 O10 2.454336 1_554
Ca0 O13 2.505751 1_555
Ca0 O12 2.505756 1_554
Ca1 O20 2.406298 1_565
Ca1 O21 2.406307 1_555
Ca1 O8 2.454336 1_555
Ca1 O9 2.454336 1_555
Ca1 O14 2.505747 1_565
Ca1 O15 2.505751 1_555
Ca2 O18 2.395619 1_545
Ca2 O19 2.395627 1_444
Ca2 O35 2.408135 1_444
Ca2 O34 2.408135 1_455
Ca2 O27 2.547809 1_454
Ca2 O26 2.547809 1_545
Ca2 O37 2.856354 1_444
Ca2 O36 2.856354 1_555
Ca3 O16 2.395619 1_555
Ca3 O17 2.395627 1_555
Ca3 O32 2.408135 1_555
Ca3 O33 2.408135 1_555
Ca3 O24 2.547809 1_555
Ca3 O25 2.547815 1_555
Ca3 O38 2.856354 1_555
Ca3 O39 2.856354 1_555
Ca4 O2 2.381209 1_554
Ca4 O3 2.381209 1_555
Ca4 O27 2.441241 1_454
Ca4 O26 2.441252 1_545
Ca4 O41 2.462435 1_554
Ca4 O40 2.462439 1_555
Ca5 O1 2.381209 1_555
Ca5 O0 2.381209 1_655
Ca5 O25 2.441247 1_555
Ca5 O24 2.441252 1_555
Ca5 O43 2.462435 1_555
Ca5 O42 2.462445 1_655
Nd0 O1 2.263003 1_455
Nd0 O36 2.309685 1_555
Nd0 O46 2.347960 1_555
Nd0 O31 2.352806 1_555
Nd0 O27 2.558684 1_454
Nd0 O40 2.667578 1_555
Nd0 O42 2.864877 1_555
Nd0 O34 2.972962 1_455
Nd1 O0 2.263001 1_555
Nd1 O37 2.309695 1_455
Nd1 O47 2.347954 1_555
Nd1 O30 2.352795 1_555
Nd1 O26 2.558685 1_556
Nd1 O41 2.667575 1_565
Nd1 O43 2.864888 1_455
Nd1 O35 2.972972 1_455
Nd2 O3 2.263006 1_556
Nd2 O38 2.309687 1_455
Nd2 O45 2.347961 1_555
Nd2 O28 2.352797 1_555
Nd2 O24 2.558676 1_455
Nd2 O42 2.667575 1_555
Nd2 O41 2.864893 1_555
Nd2 O33 2.972968 1_455
Nd3 O2 2.263003 1_554
Nd3 O39 2.309685 1_555
Nd3 O44 2.347967 1_555
Nd3 O29 2.352806 1_555
Nd3 O25 2.558675 1_555
Nd3 O43 2.667576 1_555
Nd3 O40 2.864882 1_555
Nd3 O32 2.972962 1_555
Nd4 O16 2.434042 1_555
Nd4 O40 2.456276 1_555
Nd4 O39 2.497834 1_555
Nd4 O32 2.505273 1_555
Nd4 O10 2.523850 1_555
Nd4 O46 2.566506 1_555
Nd4 O23 2.572003 1_555
Nd4 O36 2.586447 1_555
Nd4 O20 2.821049 1_555
Nd5 O17 2.434035 1_565
Nd5 O41 2.456269 1_665
Nd5 O38 2.497834 1_565
Nd5 O33 2.505273 1_565
Nd5 O11 2.523850 1_555
Nd5 O47 2.566515 1_655
Nd5 O22 2.572003 1_555
Nd5 O37 2.586447 1_555
Nd5 O21 2.821035 1_555
Nd6 O18 2.434042 1_545
Nd6 O42 2.456265 1_555
Nd6 O36 2.497834 1_555
Nd6 O34 2.505273 1_455
Nd6 O9 2.523850 1_545
Nd6 O45 2.566515 1_555
Nd6 O20 2.572000 1_555
Nd6 O38 2.586447 1_455
Nd6 O22 2.821043 1_445
Nd7 O19 2.434046 1_555
Nd7 O43 2.456269 1_555
Nd7 O37 2.497834 1_555
Nd7 O35 2.505273 1_555
Nd7 O8 2.523850 1_555
Nd7 O44 2.566515 1_555
Nd7 O21 2.572011 1_555
Nd7 O39 2.586447 1_555
Nd7 O23 2.821043 1_555
Nd8 O10 2.260209 1_555
Nd8 O4 2.306977 1_555
Nd8 O29 2.358556 1_556
Nd8 O45 2.371731 1_555
Nd8 O20 2.498223 1_555
Nd8 O14 2.733986 1_555
Nd8 O13 2.806964 1_556
Nd8 O16 2.922950 1_555
Nd9 O11 2.260209 1_555
Nd9 O5 2.306977 1_555
Nd9 O28 2.358556 1_554
Nd9 O44 2.371720 1_555
Nd9 O21 2.498224 1_555
Nd9 O15 2.733987 1_555
Nd9 O12 2.806970 1_554
Nd9 O17 2.922940 1_565
Nd10 O9 2.260209 1_555
Nd10 O6 2.306977 1_454
Nd10 O31 2.358556 1_555
Nd10 O47 2.371731 1_555
Nd10 O22 2.498232 1_455
Nd10 O13 2.733987 1_455
Nd10 O15 2.806964 1_555
Nd10 O18 2.922950 1_555
Nd11 O8 2.260209 1_555
Nd11 O7 2.306977 1_556
Nd11 O30 2.358556 1_555
Nd11 O46 2.371726 1_555
Nd11 O23 2.498232 1_555
Nd11 O12 2.733980 1_555
Nd11 O14 2.806963 1_565
Nd11 O19 2.922940 1_555
Nd12 O13 2.433755 1_556
Nd12 O33 2.446438 1_555
Nd12 O4 2.481090 1_555
Nd12 O16 2.502167 1_555
Nd12 O3 2.523565 1_656
Nd12 O31 2.534334 1_656
Nd12 O6 2.537535 1_555
Nd12 O27 2.694887 1_555
Nd12 O24 2.855824 1_555
Nd13 O12 2.433745 1_544
Nd13 O32 2.446438 1_555
Nd13 O5 2.481090 1_545
Nd13 O17 2.502173 1_555
Nd13 O2 2.523565 1_554
Nd13 O30 2.534334 1_544
Nd13 O7 2.537535 1_545
Nd13 O26 2.694886 1_545
Nd13 O25 2.855830 1_555
Nd14 O15 2.433755 1_556
Nd14 O35 2.446438 1_455
Nd14 O6 2.481090 1_455
Nd14 O18 2.502167 1_556
Nd14 O0 2.523565 1_555
Nd14 O28 2.534334 1_555
Nd14 O5 2.537535 1_556
Nd14 O24 2.694886 1_455
Nd14 O26 2.855824 1_556
Nd15 O14 2.433748 1_554
Nd15 O34 2.446438 1_555
Nd15 O7 2.481090 1_545
Nd15 O19 2.502161 1_544
Nd15 O1 2.523565 1_555
Nd15 O29 2.534334 1_555
Nd15 O4 2.537535 1_554
Nd15 O25 2.694882 1_555
Nd15 O27 2.855835 1_554
O0 Ru6 2.025996 1_555
O1 Ru7 2.026002 1_555
O2 Ru5 2.025995 1_555
O3 Ru4 2.025996 1_555
O4 Ru1 1.980531 1_555
O5 Ru0 1.980531 1_565
O6 Ru3 1.980531 1_555
O7 Ru2 1.980531 1_565
O8 Ru4 2.009225 1_555
O9 Ru5 2.009226 1_565
O10 Ru6 2.009225 1_555
O11 Ru7 2.009219 1_555
O12 Ru6 1.970851 1_555
O13 Ru7 1.970851 1_555
O14 Ru5 1.970855 1_555
O15 Ru4 1.970845 1_555
O16 Ru3 2.011283 1_555
O17 Ru2 2.011289 1_555
O18 Ru0 2.011283 1_565
O19 Ru1 2.011290 1_565
O20 Ru0 2.059215 1_555
O21 Ru1 2.059211 1_565
O22 Ru2 2.059205 1_565
O23 Ru3 2.059205 1_555
O24 Ru3 2.099916 1_555
O25 Ru2 2.099925 1_555
O26 Ru0 2.099916 1_565
O27 Ru1 2.099918 1_555
O28 Ru6 2.034025 1_555
O29 Ru7 2.034019 1_555
O30 Ru5 2.034013 1_565
O31 Ru4 2.034025 1_555
O32 Ru0 2.000399 1_555
O33 Ru1 2.000399 1_555
O34 Ru2 2.000399 1_555
O35 Ru3 2.000399 1_555
O36 Ru0 1.986200 1_555
O37 Ru1 1.986200 1_565
O38 Ru2 1.986200 1_555
O39 Ru3 1.986200 1_555
O40 Ru4 1.976100 1_555
O41 Ru5 1.976112 1_555
O42 Ru6 1.976107 1_555
O43 Ru7 1.976105 1_555
O44 Ru4 2.025945 1_555
O45 Ru5 2.025956 1_555
O46 Ru6 2.025951 1_555
O47 Ru7 2.025950 1_455
