# generated using pymatgen
data_LaCuGe
_symmetry_space_group_name_H-M   'P 1'
_cell_length_a   4.23712132
_cell_length_b   4.23712132
_cell_length_c   4.25734683
_cell_angle_alpha   90.00000000
_cell_angle_beta   90.00000000
_cell_angle_gamma   119.99998531
_symmetry_Int_Tables_number   1
_chemical_formula_structural   LaCuGe
_chemical_formula_sum   'La1 Cu1 Ge1'
_cell_volume   66.19291793
_cell_formula_units_Z   1
loop_
 _symmetry_equiv_pos_site_id
 _symmetry_equiv_pos_as_xyz
  1  'x, y, z'
loop_
 _atom_site_type_symbol
 _atom_site_label
 _atom_site_symmetry_multiplicity
 _atom_site_fract_x
 _atom_site_fract_y
 _atom_site_fract_z
 _atom_site_occupancy
  La  La0  1  0.33333300  0.66666700  -0.00000000  1
  Cu  Cu0  1  0.66666700  0.33333300  0.50000000  1
  Ge  Ge0  1  -0.00000000  -0.00000000  0.50000000  1
loop_
_geom_bond_atom_site_label_1
_geom_bond_atom_site_label_2
_geom_bond_distance
_geom_bond_site_symmetry_2
Cu0 Ge0 2.446301 1_655
Cu0 Ge0 2.446305 1_555
Cu0 Ge0 2.446305 1_665
Cu0 La0 3.242783 1_545
Cu0 La0 3.242783 1_546
Cu0 La0 3.242783 1_655
Cu0 La0 3.242783 1_656
Cu0 La0 3.242788 1_555
Cu0 La0 3.242788 1_556
Ge0 La0 3.242782 1_545
Ge0 La0 3.242782 1_546
Ge0 La0 3.242785 1_445
Ge0 La0 3.242785 1_446
Ge0 La0 3.242785 1_555
Ge0 La0 3.242785 1_556
