# generated using pymatgen
data_Li9Mn2Co5O16
_symmetry_space_group_name_H-M   'P 1'
_cell_length_a   5.19449952
_cell_length_b   10.29335537
_cell_length_c   5.92209099
_cell_angle_alpha   104.65014685
_cell_angle_beta   70.88561591
_cell_angle_gamma   84.82409407
_symmetry_Int_Tables_number   1
_chemical_formula_structural   Li9Mn2Co5O16
_chemical_formula_sum   'Li9 Mn2 Co5 O16'
_cell_volume   284.22955298
_cell_formula_units_Z   1
loop_
 _symmetry_equiv_pos_site_id
 _symmetry_equiv_pos_as_xyz
  1  'x, y, z'
loop_
 _atom_site_type_symbol
 _atom_site_label
 _atom_site_symmetry_multiplicity
 _atom_site_fract_x
 _atom_site_fract_y
 _atom_site_fract_z
 _atom_site_occupancy
  Li  Li0  1  0.50487400  0.12062500  0.93177600  1
  Li  Li1  1  0.49965400  0.36981500  0.31219300  1
  Li  Li2  1  0.50014200  0.62975100  0.69560100  1
  Li  Li3  1  0.49548400  0.87774100  0.07291800  1
  Li  Li4  1  0.50198800  0.12248800  0.44091200  1
  Li  Li5  1  0.49533900  0.37361700  0.80531900  1
  Li  Li6  1  0.50218500  0.62956500  0.18676700  1
  Li  Li7  1  0.49689600  0.87743700  0.55503900  1
  Li  Li8  1  0.00118100  0.99884700  0.49998900  1
  Mn  Mn0  1  0.99840700  0.99864800  0.00423300  1
  Mn  Mn1  1  0.99681100  0.50084600  0.24776600  1
  Co  Co0  1  0.99483200  0.24986900  0.37227100  1
  Co  Co1  1  0.00235700  0.49958900  0.74644600  1
  Co  Co2  1  0.00576700  0.75384700  0.13674100  1
  Co  Co3  1  0.00005400  0.24113300  0.85682300  1
  Co  Co4  1  0.00193900  0.75195200  0.62274500  1
  O  O0  1  0.23819000  0.06727300  0.74289300  1
  O  O1  1  0.21958300  0.31827300  0.10762400  1
  O  O2  1  0.20991500  0.56056500  0.46279700  1
  O  O3  1  0.23519300  0.81900800  0.87405800  1
  O  O4  1  0.21006000  0.06955400  0.21396100  1
  O  O5  1  0.23230200  0.32431700  0.60539000  1
  O  O6  1  0.23177200  0.56740600  0.98796600  1
  O  O7  1  0.23114200  0.80739700  0.36309900  1
  O  O8  1  0.75812300  0.17550600  0.14011300  1
  O  O9  1  0.76758900  0.43476000  0.50944100  1
  O  O10  1  0.78590200  0.67850700  0.87997900  1
  O  O11  1  0.76906200  0.92894400  0.26091800  1
  O  O12  1  0.77203500  0.19924000  0.65129000  1
  O  O13  1  0.78657200  0.44075100  0.03304200  1
  O  O14  1  0.76630800  0.68108300  0.38559900  1
  O  O15  1  0.78834100  0.93164700  0.79429200  1
loop_
_geom_bond_atom_site_label_1
_geom_bond_atom_site_label_2
_geom_bond_distance
_geom_bond_site_symmetry_2
Li0 O0 2.076824 1_555
Li0 O4 2.080342 1_556
Li0 O8 2.101521 1_556
Li0 O15 2.124116 1_545
Li0 O12 2.170878 1_555
Li0 O1 2.189361 1_556
Li1 O5 2.027884 1_555
Li1 O8 2.104736 1_555
Li1 O9 2.141515 1_555
Li1 O2 2.148885 1_555
Li1 O13 2.163488 1_555
Li1 O1 2.198657 1_555
Li2 O3 2.080473 1_555
Li2 O6 2.120307 1_555
Li2 O14 2.126334 1_555
Li2 O9 2.132720 1_555
Li2 O10 2.136868 1_555
Li2 O2 2.395629 1_555
Li3 O15 2.077558 1_554
Li3 O3 2.100161 1_554
Li3 O11 2.100327 1_555
Li3 O4 2.149588 1_565
Li3 O7 2.150894 1_555
Li3 O10 2.216915 1_554
Li4 O8 2.076496 1_555
Li4 O0 2.109195 1_555
Li4 O11 2.118602 1_545
Li4 O5 2.187441 1_555
Li4 O12 2.233995 1_555
Li4 O4 2.348667 1_555
Li5 O12 1.991819 1_555
Li5 O5 2.099269 1_555
Li5 O6 2.114095 1_555
Li5 O9 2.135858 1_555
Li5 O1 2.136607 1_556
Li5 O13 2.374486 1_556
Li6 O7 2.007152 1_555
Li6 O14 2.103213 1_555
Li6 O13 2.120044 1_555
Li6 O10 2.137756 1_554
Li6 O6 2.152369 1_554
Li6 O2 2.153608 1_555
Li7 O11 2.074456 1_555
Li7 O0 2.075901 1_565
Li7 O7 2.123719 1_555
Li7 O14 2.143479 1_555
Li7 O3 2.195292 1_555
Li7 O15 2.401694 1_555
Li8 O7 2.024989 1_555
Li8 O4 2.034368 1_565
Li8 O15 2.055313 1_455
Li8 O12 2.097162 1_465
Li8 O11 2.176065 1_455
Li8 O0 2.210176 1_565
Mn0 O8 1.926332 1_565
Mn0 O11 1.940284 1_555
Mn0 O3 1.942659 1_654
Mn0 O15 1.950037 1_554
Mn0 O4 1.965863 1_665
Mn0 O0 1.973564 1_664
Mn1 O14 1.932606 1_555
Mn1 O1 1.936316 1_655
Mn1 O9 1.937236 1_555
Mn1 O6 1.944342 1_654
Mn1 O13 1.955961 1_555
Mn1 O2 1.968473 1_655
Co0 O4 1.905977 1_655
Co0 O12 1.906128 1_555
Co0 O1 1.955318 1_655
Co0 O9 1.964665 1_555
Co0 O8 2.175464 1_555
Co0 O5 2.182999 1_655
Co1 O5 1.890721 1_555
Co1 O10 1.894386 1_455
Co1 O2 1.961476 1_555
Co1 O13 1.974936 1_456
Co1 O9 2.167146 1_455
Co1 O6 2.171298 1_555
Co2 O11 1.907507 1_455
Co2 O3 1.935973 1_554
Co2 O14 1.950909 1_455
Co2 O6 1.974403 1_554
Co2 O7 2.059569 1_555
Co2 O10 2.217781 1_454
Co3 O0 1.905593 1_555
Co3 O12 1.959906 1_455
Co3 O5 2.015085 1_555
Co3 O8 2.048385 1_456
Co3 O13 2.070526 1_456
Co3 O1 2.193840 1_556
Co4 O7 1.864171 1_555
Co4 O15 1.904049 1_455
Co4 O10 1.941015 1_455
Co4 O2 1.986762 1_555
Co4 O14 2.184324 1_455
Co4 O3 2.229747 1_555
