# generated using pymatgen
data_K2CuH14C4(N3O4)2
_symmetry_space_group_name_H-M   'P 1'
_cell_length_a   13.44317200
_cell_length_b   4.00385500
_cell_length_c   14.27550266
_cell_angle_alpha   79.23412575
_cell_angle_beta   90.00000000
_cell_angle_gamma   90.00000000
_symmetry_Int_Tables_number   1
_chemical_formula_structural   K2CuH14C4(N3O4)2
_chemical_formula_sum   'K4 Cu2 H28 C8 N12 O16'
_cell_volume   754.84759703
_cell_formula_units_Z   2
loop_
 _symmetry_equiv_pos_site_id
 _symmetry_equiv_pos_as_xyz
  1  'x, y, z'
loop_
 _atom_site_type_symbol
 _atom_site_label
 _atom_site_symmetry_multiplicity
 _atom_site_fract_x
 _atom_site_fract_y
 _atom_site_fract_z
 _atom_site_occupancy
  K  K0  1  0.90314200  0.69026100  0.36092900  1
  K  K1  1  0.59685800  0.69026100  0.86092900  1
  K  K2  1  0.09685800  0.30973900  0.63907100  1
  K  K3  1  0.40314200  0.30973900  0.13907100  1
  Cu  Cu0  1  0.50000000  0.00000000  0.50000000  1
  Cu  Cu1  1  0.00000000  0.00000000  0.00000000  1
  H  H0  1  0.48788500  0.17181100  0.66746100  1
  H  H1  1  0.01211500  0.17181100  0.16746100  1
  H  H2  1  0.51211500  0.82818900  0.33253900  1
  H  H3  1  0.98788500  0.82818900  0.83253900  1
  H  H4  1  0.77651700  0.27910100  0.61445000  1
  H  H5  1  0.72348300  0.27910100  0.11445000  1
  H  H6  1  0.22348300  0.72089900  0.38555000  1
  H  H7  1  0.27651700  0.72089900  0.88555000  1
  H  H8  1  0.65898500  0.88905100  0.40539200  1
  H  H9  1  0.84101500  0.88905100  0.90539200  1
  H  H10  1  0.34101500  0.11094900  0.59460800  1
  H  H11  1  0.15898500  0.11094900  0.09460800  1
  H  H12  1  0.89752000  0.91532400  0.56571500  1
  H  H13  1  0.60248000  0.91532400  0.06571500  1
  H  H14  1  0.10248000  0.08467600  0.43428500  1
  H  H15  1  0.39752000  0.08467600  0.93428500  1
  H  H16  1  0.90457200  0.73658500  0.67368600  1
  H  H17  1  0.59542800  0.73658500  0.17368600  1
  H  H18  1  0.09542800  0.26341500  0.32631400  1
  H  H19  1  0.40457200  0.26341500  0.82631400  1
  H  H20  1  0.76080600  0.48326500  0.75498700  1
  H  H21  1  0.73919400  0.48326500  0.25498700  1
  H  H22  1  0.23919400  0.51673500  0.24501300  1
  H  H23  1  0.26080600  0.51673500  0.74501300  1
  H  H24  1  0.84337800  0.39951700  0.83373000  1
  H  H25  1  0.65662200  0.39951700  0.33373000  1
  H  H26  1  0.15662200  0.60048300  0.16627000  1
  H  H27  1  0.34337800  0.60048300  0.66627000  1
  C  C0  1  0.62877200  0.23317600  0.64614000  1
  C  C1  1  0.87122800  0.23317600  0.14614000  1
  C  C2  1  0.37122800  0.76682400  0.35386000  1
  C  C3  1  0.12877200  0.76682400  0.85386000  1
  C  C4  1  0.72054700  0.09325000  0.50286400  1
  C  C5  1  0.77945300  0.09325000  0.00286400  1
  C  C6  1  0.27945300  0.90675000  0.49713600  1
  C  C7  1  0.22054700  0.90675000  0.99713600  1
  N  N0  1  0.54056800  0.14739400  0.61777100  1
  N  N1  1  0.95943200  0.14739400  0.11777100  1
  N  N2  1  0.45943200  0.85260600  0.38222900  1
  N  N3  1  0.04056800  0.85260600  0.88222900  1
  N  N4  1  0.71090700  0.22129500  0.58660200  1
  N  N5  1  0.78909300  0.22129500  0.08660200  1
  N  N6  1  0.28909300  0.77870500  0.41339800  1
  N  N7  1  0.21090700  0.77870500  0.91339800  1
  N  N8  1  0.63932100  0.02088800  0.45742600  1
  N  N9  1  0.86067900  0.02088800  0.95742600  1
  N  N10  1  0.36067900  0.97911200  0.54257400  1
  N  N11  1  0.13932100  0.97911200  0.04257400  1
  O  O0  1  0.64734400  0.32504400  0.72601600  1
  O  O1  1  0.85265600  0.32504400  0.22601600  1
  O  O2  1  0.35265600  0.67495600  0.27398400  1
  O  O3  1  0.14734400  0.67495600  0.77398400  1
  O  O4  1  0.81007800  0.06128800  0.47434400  1
  O  O5  1  0.68992200  0.06128800  0.97434400  1
  O  O6  1  0.18992200  0.93871200  0.52565600  1
  O  O7  1  0.31007800  0.93871200  0.02565600  1
  O  O8  1  0.94584400  0.82211200  0.61692300  1
  O  O9  1  0.55415600  0.82211200  0.11692300  1
  O  O10  1  0.05415600  0.17788800  0.38307700  1
  O  O11  1  0.44584400  0.17788800  0.88307700  1
  O  O12  1  0.82250400  0.57760700  0.77998500  1
  O  O13  1  0.67749600  0.57760700  0.27998500  1
  O  O14  1  0.17749600  0.42239300  0.22001500  1
  O  O15  1  0.32250400  0.42239300  0.72001500  1
loop_
_geom_bond_atom_site_label_1
_geom_bond_atom_site_label_2
_geom_bond_distance
_geom_bond_site_symmetry_2
K0 O4 2.700354 1_565
K0 O1 2.712987 1_555
K0 O10 2.861381 1_655
K0 O10 2.874671 1_665
K0 O1 2.966617 1_565
K0 O4 3.000867 1_555
K1 O5 2.700354 1_565
K1 O0 2.712987 1_555
K1 O11 2.861381 1_555
K1 O11 2.874671 1_565
K1 O0 2.966617 1_565
K1 O5 3.000867 1_555
K2 O6 2.700354 1_545
K2 O3 2.712987 1_555
K2 O8 2.861381 1_455
K2 O8 2.874671 1_445
K2 O3 2.966617 1_545
K2 O6 3.000867 1_555
K3 O7 2.700354 1_545
K3 O2 2.712987 1_555
K3 O9 2.861381 1_555
K3 O9 2.874671 1_545
K3 O2 2.966617 1_545
K3 O7 3.000867 1_555
Cu0 N0 1.960339 1_555
Cu0 N2 1.960339 1_545
Cu0 N8 1.966011 1_555
Cu0 N10 1.966011 1_545
Cu1 N1 1.960339 1_455
Cu1 N3 1.960339 1_544
Cu1 N11 1.966011 1_545
Cu1 N9 1.966011 1_454
H0 N0 1.019915 1_555
H1 N1 1.019915 1_455
H2 N2 1.019915 1_555
H3 N3 1.019915 1_655
H4 N4 1.011889 1_555
H5 N5 1.011889 1_555
H6 N6 1.011889 1_555
H7 N7 1.011889 1_555
H8 N8 1.023115 1_565
H9 N9 1.023115 1_565
H10 N10 1.023115 1_545
H11 N11 1.023115 1_545
H12 O8 0.996878 1_555
H13 O9 0.996878 1_555
H14 O10 0.996878 1_555
H15 O11 0.996878 1_555
H16 O8 0.988964 1_555
H17 O9 0.988964 1_555
H18 O10 0.988964 1_555
H19 O11 0.988964 1_555
H20 O12 1.004152 1_555
H20 K1 2.880966 1_555
H21 O13 1.004152 1_555
H21 K0 2.880966 1_555
H22 O14 1.004152 1_555
H22 K3 2.880966 1_555
H23 O15 1.004152 1_555
H23 K2 2.880966 1_555
H24 O12 0.985621 1_555
H25 O13 0.985621 1_555
H26 O14 0.985621 1_555
H27 O15 0.985621 1_555
C0 O0 1.286288 1_555
C0 N0 1.319061 1_555
C0 N4 1.399612 1_555
C1 O1 1.286288 1_555
C1 N1 1.319061 1_555
C1 N5 1.399612 1_555
C2 O2 1.286288 1_555
C2 N2 1.319061 1_555
C2 N6 1.399612 1_555
C3 O3 1.286288 1_555
C3 N3 1.319061 1_555
C3 N7 1.399612 1_555
C4 O4 1.284604 1_555
C4 N8 1.329369 1_555
C4 N4 1.391967 1_555
C5 O5 1.284604 1_554
C5 N9 1.329369 1_554
C5 N5 1.391967 1_555
C6 O6 1.284604 1_555
C6 N10 1.329369 1_555
C6 N6 1.391967 1_555
C7 O7 1.284604 1_556
C7 N11 1.329369 1_556
C7 N7 1.391967 1_555
