# generated using pymatgen
data_BaNiO3
_symmetry_space_group_name_H-M   'P 1'
_cell_length_a   5.67753215
_cell_length_b   5.67753078
_cell_length_c   4.78331070
_cell_angle_alpha   90.00000000
_cell_angle_beta   90.00000000
_cell_angle_gamma   119.99999595
_symmetry_Int_Tables_number   1
_chemical_formula_structural   BaNiO3
_chemical_formula_sum   'Ba2 Ni2 O6'
_cell_volume   133.52984355
_cell_formula_units_Z   2
loop_
 _symmetry_equiv_pos_site_id
 _symmetry_equiv_pos_as_xyz
  1  'x, y, z'
loop_
 _atom_site_type_symbol
 _atom_site_label
 _atom_site_symmetry_multiplicity
 _atom_site_fract_x
 _atom_site_fract_y
 _atom_site_fract_z
 _atom_site_occupancy
  Ba  Ba0  1  0.66666700  0.33333400  0.74927646  1
  Ba  Ba1  1  0.33333300  0.66666600  0.24927546  1
  Ni  Ni0  1  0.00000000  -0.00000000  0.48842741  1
  Ni  Ni1  1  0.00000000  -0.00000000  0.98842841  1
  O  O0  1  0.85347643  0.14652357  0.23826638  1
  O  O1  1  0.70695386  0.85347743  0.73826538  1
  O  O2  1  0.14652357  0.29304614  0.73826538  1
  O  O3  1  0.85347543  0.70695186  0.23826638  1
  O  O4  1  0.14652357  0.85347743  0.73826538  1
  O  O5  1  0.29304614  0.14652357  0.23826638  1
loop_
_geom_bond_atom_site_label_1
_geom_bond_atom_site_label_2
_geom_bond_distance
_geom_bond_site_symmetry_2
Ba0 O2 2.846154 1_555
Ba0 O1 2.846155 1_555
Ba0 O1 2.846155 1_545
Ba0 O4 2.846156 1_655
Ba0 O4 2.846156 1_545
Ba0 O2 2.846159 1_655
Ba0 O3 2.974152 1_556
Ba0 O0 2.974158 1_556
Ba0 O5 2.974161 1_556
Ba0 O3 3.057679 1_555
Ba0 O0 3.057685 1_555
Ba0 O5 3.057688 1_555
Ba1 O5 2.846150 1_555
Ba1 O0 2.846153 1_455
Ba1 O3 2.846153 1_555
Ba1 O0 2.846158 1_565
Ba1 O3 2.846158 1_455
Ba1 O5 2.846161 1_565
Ba1 O2 2.974158 1_555
Ba1 O4 2.974161 1_555
Ba1 O1 2.974161 1_555
Ba1 O2 3.057685 1_554
Ba1 O4 3.057688 1_554
Ba1 O1 3.057688 1_554
Ni0 O2 1.871970 1_555
Ni0 O4 1.871970 1_545
Ni0 O1 1.871970 1_445
Ni0 O5 1.872957 1_555
Ni0 O0 1.872960 1_455
Ni0 O3 1.872964 1_445
Ni1 O5 1.871970 1_556
Ni1 O0 1.871973 1_456
Ni1 O3 1.871977 1_446
Ni1 O2 1.872963 1_555
Ni1 O4 1.872963 1_545
Ni1 O1 1.872963 1_445
