# generated using pymatgen
data_ZrCrAgS4
_symmetry_space_group_name_H-M   'P 1'
_cell_length_a   11.38322100
_cell_length_b   3.62398300
_cell_length_c   13.24396600
_cell_angle_alpha   90.00000000
_cell_angle_beta   90.00000000
_cell_angle_gamma   90.00000000
_symmetry_Int_Tables_number   1
_chemical_formula_structural   ZrCrAgS4
_chemical_formula_sum   'Zr4 Cr4 Ag4 S16'
_cell_volume   546.34802372
_cell_formula_units_Z   4
loop_
 _symmetry_equiv_pos_site_id
 _symmetry_equiv_pos_as_xyz
  1  'x, y, z'
loop_
 _atom_site_type_symbol
 _atom_site_label
 _atom_site_symmetry_multiplicity
 _atom_site_fract_x
 _atom_site_fract_y
 _atom_site_fract_z
 _atom_site_occupancy
  Zr  Zr0  1  0.05775400  0.25000000  0.11722900  1
  Zr  Zr1  1  0.55775400  0.25000000  0.38277100  1
  Zr  Zr2  1  0.08671400  0.25000000  0.59562200  1
  Zr  Zr3  1  0.58671400  0.25000000  0.90437800  1
  Cr  Cr0  1  0.94520200  0.75000000  0.88960800  1
  Cr  Cr1  1  0.44520200  0.75000000  0.61039200  1
  Cr  Cr2  1  0.91700500  0.75000000  0.40516100  1
  Cr  Cr3  1  0.41700500  0.75000000  0.09483900  1
  Ag  Ag0  1  0.24678100  0.25000000  0.32994300  1
  Ag  Ag1  1  0.75817600  0.75000000  0.66517100  1
  Ag  Ag2  1  0.25817600  0.75000000  0.83482900  1
  Ag  Ag3  1  0.74678100  0.25000000  0.17005700  1
  S  S0  1  0.02136100  0.75000000  0.71668600  1
  S  S1  1  0.96451300  0.25000000  0.29159900  1
  S  S2  1  0.46451300  0.25000000  0.20840100  1
  S  S3  1  0.52136100  0.75000000  0.78331400  1
  S  S4  1  0.08347600  0.25000000  0.92279000  1
  S  S5  1  0.90695900  0.75000000  0.06721100  1
  S  S6  1  0.40695900  0.75000000  0.43278900  1
  S  S7  1  0.58347600  0.25000000  0.57721000  1
  S  S8  1  0.11817500  0.75000000  0.45895900  1
  S  S9  1  0.87509200  0.25000000  0.52058100  1
  S  S10  1  0.37509200  0.25000000  0.97941900  1
  S  S11  1  0.61817500  0.75000000  0.04104100  1
  S  S12  1  0.21312600  0.75000000  0.16046400  1
  S  S13  1  0.80566600  0.25000000  0.84942100  1
  S  S14  1  0.30566600  0.25000000  0.65057900  1
  S  S15  1  0.71312600  0.75000000  0.33953600  1
loop_
_geom_bond_atom_site_label_1
_geom_bond_atom_site_label_2
_geom_bond_distance
_geom_bond_site_symmetry_2
Cr0 S5 2.392113 1_556
Cr0 S4 2.440067 1_655
Cr0 S4 2.440067 1_665
Cr0 S0 2.448769 1_655
Cr0 S13 2.467692 1_555
Cr0 S13 2.467692 1_565
Cr1 S6 2.392113 1_555
Cr1 S7 2.440067 1_565
Cr1 S7 2.440067 1_555
Cr1 S3 2.448769 1_555
Cr1 S14 2.467692 1_555
Cr1 S14 2.467692 1_565
Cr2 S8 2.398246 1_655
Cr2 S1 2.416158 1_555
Cr2 S1 2.416158 1_565
Cr2 S9 2.418185 1_565
Cr2 S9 2.418185 1_555
Cr2 S15 2.478206 1_555
Cr3 S11 2.398246 1_555
Cr3 S2 2.416158 1_555
Cr3 S2 2.416158 1_565
Cr3 S10 2.418185 1_564
Cr3 S10 2.418185 1_554
Cr3 S12 2.478206 1_555
Ag0 S8 2.888955 1_545
Ag0 S8 2.888955 1_555
Ag0 S6 2.909153 1_555
Ag0 S6 2.909153 1_545
Ag0 S12 2.910016 1_555
Ag0 S12 2.910016 1_545
Ag0 S2 2.955342 1_555
Ag1 S7 2.931749 1_555
Ag1 S7 2.931749 1_565
Ag1 S9 2.953231 1_555
Ag1 S9 2.953231 1_565
Ag1 S0 3.072598 1_655
Ag1 S13 3.087091 1_555
Ag1 S13 3.087091 1_565
Ag1 S3 3.116909 1_555
Ag2 S4 2.931749 1_555
Ag2 S4 2.931749 1_565
Ag2 S10 2.953231 1_555
Ag2 S10 2.953231 1_565
Ag2 S3 3.072598 1_555
Ag2 S14 3.087091 1_555
Ag2 S14 3.087091 1_565
Ag2 S0 3.116909 1_555
Ag3 S11 2.888955 1_555
Ag3 S11 2.888955 1_545
Ag3 S5 2.909153 1_545
Ag3 S5 2.909153 1_555
Ag3 S15 2.910016 1_545
Ag3 S15 2.910016 1_555
Ag3 S1 2.955342 1_555
S0 Zr2 2.531310 1_565
S0 Zr2 2.531310 1_555
S1 Zr0 2.541581 1_655
S2 Zr1 2.541581 1_555
S3 Zr3 2.531310 1_555
S3 Zr3 2.531310 1_565
S4 Zr0 2.591736 1_556
S5 Zr0 2.582367 1_655
S5 Zr0 2.582367 1_665
S6 Zr1 2.582367 1_565
S6 Zr1 2.582367 1_555
S7 Zr1 2.591736 1_555
S8 Zr2 2.586025 1_555
S8 Zr2 2.586025 1_565
S9 Zr2 2.605899 1_655
S10 Zr3 2.605899 1_555
S11 Zr3 2.586025 1_564
S11 Zr3 2.586025 1_554
S12 Zr0 2.596007 1_555
S12 Zr0 2.596007 1_565
S13 Zr3 2.596482 1_555
S14 Zr2 2.596482 1_555
S15 Zr1 2.596007 1_565
S15 Zr1 2.596007 1_555
