# generated using pymatgen
data_Sb2Te3WC4(OF3)4
_symmetry_space_group_name_H-M   'P 1'
_cell_length_a   11.42142800
_cell_length_b   11.47761500
_cell_length_c   18.59545400
_cell_angle_alpha   90.00000000
_cell_angle_beta   90.00000000
_cell_angle_gamma   90.00000000
_symmetry_Int_Tables_number   1
_chemical_formula_structural   Sb2Te3WC4(OF3)4
_chemical_formula_sum   'Sb8 Te12 W4 C16 O16 F48'
_cell_volume   2437.69207345
_cell_formula_units_Z   4
loop_
 _symmetry_equiv_pos_site_id
 _symmetry_equiv_pos_as_xyz
  1  'x, y, z'
loop_
 _atom_site_type_symbol
 _atom_site_label
 _atom_site_symmetry_multiplicity
 _atom_site_fract_x
 _atom_site_fract_y
 _atom_site_fract_z
 _atom_site_occupancy
  Sb  Sb0  1  0.25000000  0.65086800  0.93560200  1
  Sb  Sb1  1  0.75000000  0.34913200  0.06439800  1
  Sb  Sb2  1  0.75000000  0.51449400  0.75542800  1
  Sb  Sb3  1  0.25000000  0.15086800  0.56439800  1
  Sb  Sb4  1  0.75000000  0.84913200  0.43560200  1
  Sb  Sb5  1  0.25000000  0.98550600  0.25542800  1
  Sb  Sb6  1  0.75000000  0.01449400  0.74457200  1
  Sb  Sb7  1  0.25000000  0.48550600  0.24457200  1
  Te  Te0  1  0.25000000  0.52634900  0.53365200  1
  Te  Te1  1  0.75000000  0.47365100  0.46634800  1
  Te  Te2  1  0.40941700  0.75021200  0.68578200  1
  Te  Te3  1  0.59058300  0.24978800  0.31421800  1
  Te  Te4  1  0.90941700  0.24978800  0.31421800  1
  Te  Te5  1  0.75000000  0.97365100  0.03365200  1
  Te  Te6  1  0.40941700  0.25021200  0.81421800  1
  Te  Te7  1  0.90941700  0.74978800  0.18578200  1
  Te  Te8  1  0.59058300  0.74978800  0.18578200  1
  Te  Te9  1  0.09058300  0.75021200  0.68578200  1
  Te  Te10  1  0.09058300  0.25021200  0.81421800  1
  Te  Te11  1  0.25000000  0.02634900  0.96634800  1
  W  W0  1  0.75000000  0.13117900  0.45436100  1
  W  W1  1  0.75000000  0.63117900  0.04563900  1
  W  W2  1  0.25000000  0.36882100  0.95436100  1
  W  W3  1  0.25000000  0.86882100  0.54563900  1
  C  C0  1  0.43979400  0.86381500  0.54651700  1
  C  C1  1  0.75000000  0.30494300  0.50353900  1
  C  C2  1  0.25000000  0.70429300  0.42517500  1
  C  C3  1  0.56020600  0.63618500  0.04651700  1
  C  C4  1  0.06020600  0.36381500  0.95348300  1
  C  C5  1  0.75000000  0.80494300  0.99646100  1
  C  C6  1  0.43979400  0.36381500  0.95348300  1
  C  C7  1  0.93979400  0.13618500  0.45348300  1
  C  C8  1  0.75000000  0.79570700  0.92517500  1
  C  C9  1  0.25000000  0.19505700  0.00353900  1
  C  C10  1  0.25000000  0.69505700  0.49646100  1
  C  C11  1  0.75000000  0.29570700  0.57482500  1
  C  C12  1  0.56020600  0.13618500  0.45348300  1
  C  C13  1  0.06020600  0.86381500  0.54651700  1
  C  C14  1  0.93979400  0.63618500  0.04651700  1
  C  C15  1  0.25000000  0.20429300  0.07482500  1
  O  O0  1  0.75000000  0.66001400  0.16024200  1
  O  O1  1  0.25000000  0.83998600  0.66024200  1
  O  O2  1  0.03733700  0.63183100  0.02852400  1
  O  O3  1  0.96266300  0.36816900  0.97147600  1
  O  O4  1  0.25000000  0.71910500  0.36309500  1
  O  O5  1  0.03733700  0.13183100  0.47147600  1
  O  O6  1  0.25000000  0.33998600  0.83975800  1
  O  O7  1  0.75000000  0.16001400  0.33975800  1
  O  O8  1  0.75000000  0.28089500  0.63690500  1
  O  O9  1  0.53733700  0.36816900  0.97147600  1
  O  O10  1  0.53733700  0.86816900  0.52852400  1
  O  O11  1  0.75000000  0.78089500  0.86309500  1
  O  O12  1  0.46266300  0.63183100  0.02852400  1
  O  O13  1  0.46266300  0.13183100  0.47147600  1
  O  O14  1  0.96266300  0.86816900  0.52852400  1
  O  O15  1  0.25000000  0.21910500  0.13690500  1
  F  F0  1  0.12555500  0.87005600  0.25523200  1
  F  F1  1  0.25000000  0.44937200  0.05304500  1
  F  F2  1  0.37444500  0.87005600  0.25523200  1
  F  F3  1  0.87720600  0.51740000  0.52862800  1
  F  F4  1  0.51749200  0.37871800  0.78853800  1
  F  F5  1  0.25000000  0.94937200  0.44695500  1
  F  F6  1  0.37189000  0.23303000  0.61414600  1
  F  F7  1  0.87444500  0.12994400  0.74476800  1
  F  F8  1  0.48250800  0.12128200  0.28853800  1
  F  F9  1  0.12811000  0.73303000  0.88585400  1
  F  F10  1  0.62279400  0.51740000  0.52862800  1
  F  F11  1  0.37720600  0.48260000  0.47137200  1
  F  F12  1  0.75000000  0.23901000  0.98736700  1
  F  F13  1  0.75000000  0.73901000  0.51263300  1
  F  F14  1  0.98250800  0.87871800  0.71146200  1
  F  F15  1  0.75000000  0.01814100  0.84791300  1
  F  F16  1  0.75000000  0.05062800  0.55304500  1
  F  F17  1  0.12555500  0.37005600  0.24476800  1
  F  F18  1  0.51749200  0.87871800  0.71146200  1
  F  F19  1  0.37189000  0.73303000  0.88585400  1
  F  F20  1  0.62811000  0.76697000  0.38585400  1
  F  F21  1  0.37720600  0.98260000  0.02862800  1
  F  F22  1  0.12279400  0.48260000  0.47137200  1
  F  F23  1  0.25000000  0.48185900  0.34791300  1
  F  F24  1  0.01749200  0.62128200  0.21146200  1
  F  F25  1  0.62279400  0.01740000  0.97137200  1
  F  F26  1  0.48250800  0.62128200  0.21146200  1
  F  F27  1  0.75000000  0.88982200  0.14614300  1
  F  F28  1  0.62555500  0.62994400  0.75523200  1
  F  F29  1  0.87720600  0.01740000  0.97137200  1
  F  F30  1  0.12279400  0.98260000  0.02862800  1
  F  F31  1  0.75000000  0.38982200  0.35385700  1
  F  F32  1  0.75000000  0.55062800  0.94695500  1
  F  F33  1  0.25000000  0.98185900  0.15208700  1
  F  F34  1  0.62555500  0.12994400  0.74476800  1
  F  F35  1  0.25000000  0.11017800  0.85385700  1
  F  F36  1  0.87189000  0.26697000  0.11414600  1
  F  F37  1  0.87444500  0.62994400  0.75523200  1
  F  F38  1  0.25000000  0.61017800  0.64614300  1
  F  F39  1  0.98250800  0.37871800  0.78853800  1
  F  F40  1  0.87189000  0.76697000  0.38585400  1
  F  F41  1  0.75000000  0.51814100  0.65208700  1
  F  F42  1  0.62811000  0.26697000  0.11414600  1
  F  F43  1  0.37444500  0.37005600  0.24476800  1
  F  F44  1  0.12811000  0.23303000  0.61414600  1
  F  F45  1  0.25000000  0.26099000  0.48736700  1
  F  F46  1  0.01749200  0.12128200  0.28853800  1
  F  F47  1  0.25000000  0.76099000  0.01263300  1
loop_
_geom_bond_atom_site_label_1
_geom_bond_atom_site_label_2
_geom_bond_distance
_geom_bond_site_symmetry_2
C0 O10 1.164312 1_555
C0 W3 2.168541 1_555
C1 C11 1.329827 1_555
C1 Te1 2.056161 1_555
C1 W0 2.194061 1_555
C2 O4 1.166857 1_555
C3 O12 1.164312 1_555
C3 W1 2.168541 1_555
C4 O3 1.164312 1_455
C4 W2 2.168541 1_555
C5 C8 1.329827 1_555
C5 Te5 2.056161 1_556
C5 W1 2.194061 1_556
C6 O9 1.164312 1_555
C6 W2 2.168541 1_555
C7 O5 1.164312 1_655
C7 W0 2.168541 1_555
C8 O11 1.166857 1_555
C9 Te11 2.056161 1_554
C9 W2 2.194061 1_554
C10 C2 1.329827 1_555
C10 Te0 2.056161 1_555
C10 W3 2.194061 1_555
C11 O8 1.166857 1_555
C12 O13 1.164312 1_555
C12 W0 2.168541 1_555
C13 O14 1.164312 1_455
C13 W3 2.168541 1_555
C14 O2 1.164312 1_655
C14 W1 2.168541 1_555
C15 O15 1.166857 1_555
C15 C9 1.329827 1_555
O0 Te7 2.145336 1_555
O0 Te8 2.145336 1_555
O0 W1 2.156640 1_555
O1 Te2 2.145336 1_555
O1 Te9 2.145336 1_555
O1 W3 2.156640 1_555
O6 Te10 2.145336 1_555
O6 Te6 2.145336 1_555
O6 W2 2.156640 1_555
O7 Te4 2.145336 1_555
O7 Te3 2.145336 1_555
O7 W0 2.156640 1_555
F0 Sb5 1.943215 1_555
F1 W2 2.054813 1_554
F2 Sb5 1.943215 1_555
F3 Te1 1.924639 1_555
F4 Te6 1.981707 1_555
F5 W3 2.054813 1_555
F6 Sb3 1.919162 1_555
F7 Sb6 1.943215 1_555
F8 Te3 1.981707 1_555
F9 Sb0 1.919162 1_555
F10 Te1 1.924639 1_555
F11 Te0 1.924639 1_555
F12 Sb1 1.910336 1_556
F13 Sb4 1.910336 1_555
F14 Te9 1.981707 1_655
F15 Sb6 1.922129 1_555
F16 W0 2.054813 1_555
F17 Sb7 1.943215 1_555
F18 Te2 1.981707 1_555
F19 Sb0 1.919162 1_555
F20 Sb4 1.919162 1_555
F21 Te11 1.924639 1_564
F22 Te0 1.924639 1_555
F23 Sb7 1.922129 1_555
F24 Te7 1.981707 1_455
F25 Te5 1.924639 1_546
F26 Te8 1.981707 1_555
F27 Te5 2.302490 1_555
F27 Te7 2.538070 1_555
F27 Te8 2.538070 1_555
F28 Sb2 1.943215 1_555
F29 Te5 1.924639 1_546
F30 Te11 1.924639 1_564
F31 Te1 2.302490 1_555
F31 Te4 2.538070 1_555
F31 Te3 2.538070 1_555
F32 W1 2.054813 1_556
F33 Sb5 1.922129 1_555
F34 Sb6 1.943215 1_555
F35 Te11 2.302490 1_555
F35 Te6 2.538070 1_555
F35 Te10 2.538070 1_555
F36 Sb1 1.919162 1_555
F37 Sb2 1.943215 1_555
F38 Te0 2.302490 1_555
F38 Te9 2.538070 1_555
F38 Te2 2.538070 1_555
F39 Te10 1.981707 1_655
F40 Sb4 1.919162 1_555
F41 Sb2 1.922129 1_555
F42 Sb1 1.919162 1_555
F43 Sb7 1.943215 1_555
F44 Sb3 1.919162 1_555
F45 Sb3 1.910336 1_555
F46 Te4 1.981707 1_455
F47 Sb0 1.910336 1_554
