# generated using pymatgen
data_V2ZnO4
_symmetry_space_group_name_H-M   'P 1'
_cell_length_a   2.98393400
_cell_length_b   9.80194000
_cell_length_c   9.97800100
_cell_angle_alpha   90.00000000
_cell_angle_beta   90.00000000
_cell_angle_gamma   90.00000000
_symmetry_Int_Tables_number   1
_chemical_formula_structural   V2ZnO4
_chemical_formula_sum   'V8 Zn4 O16'
_cell_volume   291.83998604
_cell_formula_units_Z   4
loop_
 _symmetry_equiv_pos_site_id
 _symmetry_equiv_pos_as_xyz
  1  'x, y, z'
loop_
 _atom_site_type_symbol
 _atom_site_label
 _atom_site_symmetry_multiplicity
 _atom_site_fract_x
 _atom_site_fract_y
 _atom_site_fract_z
 _atom_site_occupancy
  V  V0  1  0.72700500  0.61821300  0.92791000  1
  V  V1  1  0.72700500  0.88178700  0.42791000  1
  V  V2  1  0.27299500  0.38178700  0.42791000  1
  V  V3  1  0.72700500  0.88178700  0.07209000  1
  V  V4  1  0.27299500  0.38178700  0.07209000  1
  V  V5  1  0.72700500  0.61821300  0.57209000  1
  V  V6  1  0.27299500  0.11821300  0.57209000  1
  V  V7  1  0.27299500  0.11821300  0.92791000  1
  Zn  Zn0  1  0.17383900  0.86026800  0.75000000  1
  Zn  Zn1  1  0.17383900  0.63973200  0.25000000  1
  Zn  Zn2  1  0.82616100  0.36026800  0.75000000  1
  Zn  Zn3  1  0.82616100  0.13973200  0.25000000  1
  O  O0  1  0.24346400  0.48050600  0.61203100  1
  O  O1  1  0.75653600  0.51949400  0.38796900  1
  O  O2  1  0.19991200  0.75000000  0.50000000  1
  O  O3  1  0.75653600  0.98050600  0.61203100  1
  O  O4  1  0.75653600  0.98050600  0.88796900  1
  O  O5  1  0.67618900  0.78519700  0.25000000  1
  O  O6  1  0.24346400  0.01949400  0.38796900  1
  O  O7  1  0.32381100  0.28519700  0.25000000  1
  O  O8  1  0.19991200  0.75000000  0.00000000  1
  O  O9  1  0.80008800  0.25000000  0.50000000  1
  O  O10  1  0.24346400  0.48050600  0.88796900  1
  O  O11  1  0.32381100  0.21480300  0.75000000  1
  O  O12  1  0.67618900  0.71480300  0.75000000  1
  O  O13  1  0.80008800  0.25000000  0.00000000  1
  O  O14  1  0.24346400  0.01949400  0.11203100  1
  O  O15  1  0.75653600  0.51949400  0.11203100  1
loop_
_geom_bond_atom_site_label_1
_geom_bond_atom_site_label_2
_geom_bond_distance
_geom_bond_site_symmetry_2
O0 V5 2.015590 1_555
O0 V2 2.078279 1_555
O0 V5 2.087032 1_455
O0 Zn2 2.198802 1_455
O0 Zn2 2.511449 1_555
O1 V2 2.015590 1_555
O1 V5 2.078279 1_555
O1 V2 2.087032 1_655
O1 Zn1 2.198802 1_655
O1 Zn1 2.511449 1_555
O2 V1 2.043856 1_455
O2 V5 2.043856 1_455
O2 V1 2.158660 1_555
O2 V5 2.158660 1_555
O3 V6 2.015590 1_565
O3 V1 2.078279 1_555
O3 V6 2.087032 1_665
O3 Zn0 2.198802 1_655
O3 Zn0 2.511449 1_555
O4 V7 2.015590 1_565
O4 V3 2.078279 1_556
O4 V7 2.087032 1_665
O4 Zn0 2.198802 1_655
O4 Zn0 2.511449 1_555
O5 V1 2.017585 1_555
O5 V3 2.017585 1_555
O5 Zn1 2.058667 1_655
O5 Zn1 2.068806 1_555
O6 V1 2.015590 1_545
O6 V6 2.078279 1_555
O6 V1 2.087032 1_445
O6 Zn3 2.198802 1_455
O6 Zn3 2.511449 1_555
O7 V4 2.017585 1_555
O7 V2 2.017585 1_555
O7 Zn3 2.058667 1_455
O7 Zn3 2.068806 1_555
O8 V3 2.043856 1_455
O8 V0 2.043856 1_454
O8 V3 2.158660 1_555
O8 V0 2.158660 1_554
O9 V6 2.043856 1_655
O9 V2 2.043856 1_655
O9 V2 2.158660 1_555
O9 V6 2.158660 1_555
O10 V0 2.015590 1_555
O10 V4 2.078279 1_556
O10 V0 2.087032 1_455
O10 Zn2 2.198802 1_455
O10 Zn2 2.511449 1_555
O11 V7 2.017585 1_555
O11 V6 2.017585 1_555
O11 Zn2 2.058667 1_455
O11 Zn2 2.068806 1_555
O12 V5 2.017585 1_555
O12 V0 2.017585 1_555
O12 Zn0 2.058667 1_655
O12 Zn0 2.068806 1_555
O13 V4 2.043856 1_655
O13 V7 2.043856 1_654
O13 V4 2.158660 1_555
O13 V7 2.158660 1_554
O14 V3 2.015590 1_545
O14 V7 2.078279 1_554
O14 V3 2.087032 1_445
O14 Zn3 2.198802 1_455
O14 Zn3 2.511449 1_555
O15 V4 2.015590 1_555
O15 V0 2.078279 1_554
O15 V4 2.087032 1_655
O15 Zn1 2.198802 1_655
O15 Zn1 2.511449 1_555
