# generated using pymatgen
data_NaCaPO4
_symmetry_space_group_name_H-M   'P 1'
_cell_length_a   5.47906100
_cell_length_b   9.20626000
_cell_length_c   20.65820000
_cell_angle_alpha   90.00000000
_cell_angle_beta   90.00000000
_cell_angle_gamma   90.00000000
_symmetry_Int_Tables_number   1
_chemical_formula_structural   NaCaPO4
_chemical_formula_sum   'Na12 Ca12 P12 O48'
_cell_volume   1042.03390313
_cell_formula_units_Z   12
loop_
 _symmetry_equiv_pos_site_id
 _symmetry_equiv_pos_as_xyz
  1  'x, y, z'
loop_
 _atom_site_type_symbol
 _atom_site_label
 _atom_site_symmetry_multiplicity
 _atom_site_fract_x
 _atom_site_fract_y
 _atom_site_fract_z
 _atom_site_occupancy
  Na  Na0  1  0.28356900  0.42795300  0.22376900  1
  Na  Na1  1  0.73779200  0.93616200  0.94263400  1
  Na  Na2  1  0.23779200  0.06383800  0.05736600  1
  Na  Na3  1  0.73779200  0.56383800  0.44263400  1
  Na  Na4  1  0.23779200  0.43616200  0.55736600  1
  Na  Na5  1  0.78356900  0.57204700  0.77623100  1
  Na  Na6  1  0.78356900  0.92795300  0.27623100  1
  Na  Na7  1  0.28356900  0.07204700  0.72376900  1
  Na  Na8  1  0.76794900  0.92456400  0.60819100  1
  Na  Na9  1  0.26794900  0.07543600  0.39180900  1
  Na  Na10  1  0.76794900  0.57543600  0.10819100  1
  Na  Na11  1  0.26794900  0.42456400  0.89180900  1
  Ca  Ca0  1  0.29450000  0.79620000  0.83481000  1
  Ca  Ca1  1  0.79450000  0.20380000  0.16519000  1
  Ca  Ca2  1  0.29450000  0.70380000  0.33481000  1
  Ca  Ca3  1  0.79450000  0.29620000  0.66519000  1
  Ca  Ca4  1  0.27200700  0.70522800  0.66881300  1
  Ca  Ca5  1  0.77200700  0.29477200  0.33118700  1
  Ca  Ca6  1  0.27200700  0.79477200  0.16881300  1
  Ca  Ca7  1  0.77200700  0.20522800  0.83118700  1
  Ca  Ca8  1  0.23584000  0.79885000  0.50211200  1
  Ca  Ca9  1  0.73584000  0.20115000  0.49788800  1
  Ca  Ca10  1  0.23584000  0.70115000  0.00211200  1
  Ca  Ca11  1  0.73584000  0.29885000  0.99788800  1
  P  P0  1  0.27630400  0.08913600  0.57466900  1
  P  P1  1  0.24164600  0.41219700  0.40743600  1
  P  P2  1  0.74164600  0.91219700  0.09256400  1
  P  P3  1  0.24164600  0.08780300  0.90743600  1
  P  P4  1  0.77434700  0.91626400  0.75780100  1
  P  P5  1  0.27434700  0.08373600  0.24219900  1
  P  P6  1  0.74164600  0.58780300  0.59256400  1
  P  P7  1  0.77434700  0.58373600  0.25780100  1
  P  P8  1  0.27434700  0.41626400  0.74219900  1
  P  P9  1  0.77630400  0.58913600  0.92533100  1
  P  P10  1  0.27630400  0.41086400  0.07466900  1
  P  P11  1  0.77630400  0.91086400  0.42533100  1
  O  O0  1  0.05486400  0.19414100  0.58141600  1
  O  O1  1  0.55486400  0.80585900  0.41858400  1
  O  O2  1  0.05486400  0.30585900  0.08141600  1
  O  O3  1  0.55486400  0.69414100  0.91858400  1
  O  O4  1  0.51153400  0.15944200  0.60376200  1
  O  O5  1  0.01153400  0.84055800  0.39623800  1
  O  O6  1  0.51153400  0.34055800  0.10376200  1
  O  O7  1  0.01153400  0.65944200  0.89623800  1
  O  O8  1  0.21974800  0.94378400  0.61005900  1
  O  O9  1  0.71974800  0.05621600  0.38994100  1
  O  O10  1  0.21974800  0.55621600  0.11005900  1
  O  O11  1  0.71974800  0.44378400  0.88994100  1
  O  O12  1  0.33398800  0.05754700  0.50256000  1
  O  O13  1  0.83398800  0.94245300  0.49744000  1
  O  O14  1  0.33398800  0.44245300  0.00256000  1
  O  O15  1  0.83398800  0.55754700  0.99744000  1
  O  O16  1  0.03767900  0.35222100  0.77282000  1
  O  O17  1  0.53767900  0.64777900  0.22718000  1
  O  O18  1  0.03767900  0.14777900  0.27282000  1
  O  O19  1  0.53767900  0.85222100  0.72718000  1
  O  O20  1  0.48663900  0.16780900  0.92121600  1
  O  O21  1  0.49088300  0.30844900  0.75161600  1
  O  O22  1  0.49088300  0.19155100  0.25161600  1
  O  O23  1  0.99088300  0.80844900  0.74838400  1
  O  O24  1  0.33471900  0.56466300  0.77519200  1
  O  O25  1  0.83471900  0.43533700  0.22480800  1
  O  O26  1  0.33471900  0.93533700  0.27519200  1
  O  O27  1  0.83471900  0.06466300  0.72480800  1
  O  O28  1  0.21840000  0.44164500  0.66967400  1
  O  O29  1  0.71840000  0.55835500  0.33032600  1
  O  O30  1  0.21840000  0.05835500  0.16967400  1
  O  O31  1  0.71840000  0.94164500  0.83032600  1
  O  O32  1  0.02370900  0.18799800  0.92658600  1
  O  O33  1  0.52370900  0.81200200  0.07341400  1
  O  O34  1  0.02370900  0.31200200  0.42658600  1
  O  O35  1  0.52370900  0.68799800  0.57341400  1
  O  O36  1  0.71918200  0.55186400  0.66528600  1
  O  O37  1  0.21918200  0.44813600  0.33471400  1
  O  O38  1  0.71918200  0.94813600  0.16528600  1
  O  O39  1  0.21918200  0.05186400  0.83471400  1
  O  O40  1  0.73140100  0.44398000  0.55266900  1
  O  O41  1  0.23140100  0.55602000  0.44733100  1
  O  O42  1  0.73140100  0.05602000  0.05266900  1
  O  O43  1  0.23140100  0.94398000  0.94733100  1
  O  O44  1  0.98663900  0.66780900  0.57878400  1
  O  O45  1  0.48663900  0.33219100  0.42121600  1
  O  O46  1  0.98663900  0.83219100  0.07878400  1
  O  O47  1  0.99088300  0.69155100  0.24838400  1
loop_
_geom_bond_atom_site_label_1
_geom_bond_atom_site_label_2
_geom_bond_distance
_geom_bond_site_symmetry_2
Na0 O37 2.326348 1_555
Na0 O17 2.457455 1_555
Na0 O25 2.460310 1_455
Na0 O22 2.521467 1_555
Na0 O10 2.652287 1_555
Na1 O31 2.323061 1_555
Na1 O3 2.493162 1_555
Na1 O42 2.527036 1_566
Na1 O20 2.576308 1_565
Na1 O43 2.707211 1_655
Na1 O43 2.777176 1_555
Na1 O32 2.817676 1_665
Na2 O30 2.323061 1_555
Na2 O2 2.493162 1_555
Na2 O43 2.527036 1_544
Na2 O46 2.576308 1_445
Na2 O42 2.707211 1_555
Na2 O42 2.777176 1_455
Na2 O33 2.817676 1_545
Na3 O29 2.323061 1_555
Na3 O1 2.493162 1_555
Na3 O40 2.527036 1_555
Na3 O45 2.576308 1_555
Na3 O41 2.707211 1_655
Na3 O41 2.777176 1_555
Na3 O34 2.817676 1_655
Na4 O28 2.323061 1_555
Na4 O0 2.493162 1_555
Na4 O41 2.527036 1_555
Na4 O44 2.576308 1_455
Na4 O40 2.707211 1_555
Na4 O40 2.777176 1_455
Na4 O35 2.817676 1_555
Na5 O36 2.326348 1_555
Na5 O16 2.457455 1_655
Na5 O24 2.460310 1_555
Na5 O23 2.521467 1_555
Na5 O11 2.652287 1_555
Na6 O38 2.326348 1_555
Na6 O18 2.457455 1_665
Na6 O26 2.460310 1_555
Na6 O47 2.521467 1_555
Na6 O9 2.652287 1_565
Na7 O39 2.326348 1_555
Na7 O19 2.457455 1_545
Na7 O27 2.460310 1_455
Na7 O21 2.521467 1_555
Na7 O8 2.652287 1_545
Na8 O13 2.322199 1_555
Na8 O8 2.482050 1_655
Na8 O4 2.580291 1_565
Na8 O35 2.655209 1_555
Na8 O44 2.718842 1_555
Na8 O27 2.757016 1_565
Na8 O19 2.842114 1_555
Na9 O12 2.322199 1_555
Na9 O9 2.482050 1_555
Na9 O5 2.580291 1_545
Na9 O34 2.655209 1_555
Na9 O45 2.718842 1_555
Na9 O26 2.757016 1_545
Na9 O18 2.842114 1_555
Na10 O15 2.322199 1_554
Na10 O10 2.482050 1_655
Na10 O6 2.580291 1_555
Na10 O33 2.655209 1_555
Na10 O46 2.718842 1_555
Na10 O25 2.757016 1_555
Na10 O17 2.842114 1_555
Na11 O14 2.322199 1_556
Na11 O11 2.482050 1_555
Na11 O7 2.580291 1_555
Na11 O32 2.655209 1_555
Na11 O20 2.718842 1_555
Na11 O24 2.757016 1_555
Na11 O16 2.842114 1_555
Ca0 O7 2.366263 1_555
Ca0 O39 2.389613 1_565
Ca0 O3 2.431647 1_555
Ca0 O23 2.442896 1_455
Ca0 O24 2.471654 1_555
Ca0 O19 2.642907 1_555
Ca0 O31 2.682511 1_555
Ca0 O43 2.715456 1_555
Ca1 O6 2.366263 1_555
Ca1 O38 2.389613 1_545
Ca1 O2 2.431647 1_655
Ca1 O22 2.442896 1_555
Ca1 O25 2.471654 1_555
Ca1 O18 2.642907 1_655
Ca1 O30 2.682511 1_655
Ca1 O42 2.715456 1_555
Ca2 O5 2.366263 1_555
Ca2 O37 2.389613 1_555
Ca2 O1 2.431647 1_555
Ca2 O47 2.442896 1_455
Ca2 O26 2.471654 1_555
Ca2 O17 2.642907 1_555
Ca2 O29 2.682511 1_555
Ca2 O41 2.715456 1_555
Ca3 O4 2.366263 1_555
Ca3 O36 2.389613 1_555
Ca3 O0 2.431647 1_655
Ca3 O21 2.442896 1_555
Ca3 O27 2.471654 1_555
Ca3 O16 2.642907 1_655
Ca3 O28 2.682511 1_655
Ca3 O40 2.715456 1_555
Ca4 O19 2.324655 1_555
Ca4 O35 2.410600 1_555
Ca4 O28 2.444389 1_555
Ca4 O23 2.444913 1_455
Ca4 O44 2.454048 1_455
Ca4 O8 2.525571 1_555
Ca4 O24 2.573352 1_555
Ca4 O36 2.828742 1_555
Ca5 O18 2.324655 1_655
Ca5 O34 2.410600 1_655
Ca5 O29 2.444389 1_555
Ca5 O22 2.444913 1_555
Ca5 O45 2.454048 1_555
Ca5 O9 2.525571 1_555
Ca5 O25 2.573352 1_555
Ca5 O37 2.828742 1_655
Ca6 O17 2.324655 1_555
Ca6 O33 2.410600 1_555
Ca6 O30 2.444389 1_565
Ca6 O47 2.444913 1_455
Ca6 O46 2.454048 1_455
Ca6 O10 2.525571 1_555
Ca6 O26 2.573352 1_555
Ca6 O38 2.828742 1_555
Ca7 O16 2.324655 1_655
Ca7 O32 2.410600 1_655
Ca7 O31 2.444389 1_545
Ca7 O21 2.444913 1_555
Ca7 O20 2.454048 1_555
Ca7 O11 2.525571 1_555
Ca7 O27 2.573352 1_555
Ca7 O39 2.828742 1_655
Ca8 O35 2.387227 1_555
Ca8 O44 2.414215 1_455
Ca8 O12 2.441606 1_565
Ca8 O1 2.457027 1_555
Ca8 O41 2.505792 1_555
Ca8 O5 2.538019 1_555
Ca8 O13 2.570004 1_455
Ca8 O8 2.600190 1_555
Ca9 O34 2.387227 1_655
Ca9 O45 2.414215 1_555
Ca9 O13 2.441606 1_545
Ca9 O0 2.457027 1_655
Ca9 O40 2.505792 1_555
Ca9 O4 2.538019 1_555
Ca9 O12 2.570004 1_555
Ca9 O9 2.600190 1_555
Ca10 O33 2.387227 1_555
Ca10 O46 2.414215 1_455
Ca10 O14 2.441606 1_555
Ca10 O3 2.457027 1_554
Ca10 O43 2.505792 1_554
Ca10 O7 2.538019 1_554
Ca10 O15 2.570004 1_454
Ca10 O10 2.600190 1_555
Ca11 O32 2.387227 1_655
Ca11 O20 2.414215 1_555
Ca11 O15 2.441606 1_555
Ca11 O2 2.457027 1_656
Ca11 O42 2.505792 1_556
Ca11 O6 2.538019 1_556
Ca11 O14 2.570004 1_556
Ca11 O11 2.600190 1_555
O0 P0 1.557562 1_555
O1 P11 1.557562 1_555
O2 P10 1.557562 1_555
O3 P9 1.557562 1_555
O4 P0 1.562453 1_555
O5 P11 1.562453 1_455
O6 P10 1.562453 1_555
O7 P9 1.562453 1_455
O8 P0 1.556008 1_565
O9 P11 1.556008 1_545
O10 P10 1.556008 1_555
O11 P9 1.556008 1_555
O12 P0 1.550322 1_555
O13 P11 1.550322 1_555
O14 P10 1.550322 1_555
O15 P9 1.550322 1_555
O16 P8 1.558606 1_555
O17 P7 1.558606 1_555
O18 P5 1.558606 1_555
O19 P4 1.558606 1_555
O20 P3 1.557371 1_555
O21 P8 1.559046 1_555
O22 P5 1.559046 1_555
O23 P4 1.559046 1_555
O24 P8 1.562199 1_555
O25 P7 1.562199 1_555
O26 P5 1.562199 1_565
O27 P4 1.562199 1_545
O28 P8 1.547021 1_555
O29 P7 1.547021 1_555
O30 P5 1.547021 1_555
O31 P4 1.547021 1_555
O32 P3 1.559877 1_555
O33 P2 1.559877 1_555
O34 P1 1.559877 1_555
O35 P6 1.559877 1_555
O36 P6 1.543225 1_555
O37 P1 1.543225 1_555
O38 P2 1.543225 1_555
O39 P3 1.543225 1_555
O40 P6 1.560627 1_555
O41 P1 1.560627 1_555
O42 P2 1.560627 1_545
O43 P3 1.560627 1_565
O44 P6 1.557371 1_555
O45 P1 1.557371 1_555
O46 P2 1.557371 1_555
O47 P7 1.559046 1_555
