# generated using pymatgen
data_Mg3Si4
_symmetry_space_group_name_H-M   'P 1'
_cell_length_a   6.72639200
_cell_length_b   7.26393760
_cell_length_c   11.76305739
_cell_angle_alpha   107.20797307
_cell_angle_beta   87.67941660
_cell_angle_gamma   104.75871404
_symmetry_Int_Tables_number   1
_chemical_formula_structural   Mg3Si4
_chemical_formula_sum   'Mg12 Si16'
_cell_volume   530.52480342
_cell_formula_units_Z   4
loop_
 _symmetry_equiv_pos_site_id
 _symmetry_equiv_pos_as_xyz
  1  'x, y, z'
loop_
 _atom_site_type_symbol
 _atom_site_label
 _atom_site_symmetry_multiplicity
 _atom_site_fract_x
 _atom_site_fract_y
 _atom_site_fract_z
 _atom_site_occupancy
  Mg  Mg0  1  0.35182300  0.91361000  0.54735600  1
  Mg  Mg1  1  0.55504700  0.57438900  0.62018000  1
  Mg  Mg2  1  0.28043700  0.07348600  0.12206600  1
  Mg  Mg3  1  0.04385600  0.21543100  0.92649100  1
  Mg  Mg4  1  0.69492300  0.42475200  0.19995000  1
  Mg  Mg5  1  0.56556600  0.82309600  0.21716700  1
  Mg  Mg6  1  0.06435000  0.55614200  0.66669300  1
  Mg  Mg7  1  0.88584700  0.99624400  0.64183700  1
  Mg  Mg8  1  0.80247200  0.23122000  0.44534100  1
  Mg  Mg9  1  0.02750800  0.84558800  0.29235800  1
  Mg  Mg10  1  0.53428000  0.24910300  0.92133800  1
  Mg  Mg11  1  0.39993700  0.63802900  0.92316500  1
  Si  Si0  1  0.66706800  0.04214400  0.04769400  1
  Si  Si1  1  0.79664100  0.56706300  0.86431100  1
  Si  Si2  1  0.18626700  0.22747200  0.51387500  1
  Si  Si3  1  0.95629200  0.63913600  0.46694300  1
  Si  Si4  1  0.09691000  0.45889000  0.27500700  1
  Si  Si5  1  0.31765200  0.46899500  0.10122000  1
  Si  Si6  1  0.67225200  0.29169800  0.69128600  1
  Si  Si7  1  0.38647200  0.86869400  0.76894800  1
  Si  Si8  1  0.41239300  0.11145000  0.35994100  1
  Si  Si9  1  0.36923300  0.43437300  0.38688200  1
  Si  Si10  1  0.73508000  0.87362300  0.84079600  1
  Si  Si11  1  0.01417500  0.61155300  0.04547400  1
  Si  Si12  1  0.65214300  0.73077100  0.42316200  1
  Si  Si13  1  0.91092600  0.11420500  0.20314800  1
  Si  Si14  1  0.29408500  0.27309300  0.71801200  1
  Si  Si15  1  0.10934800  0.83919400  0.90319600  1
loop_
_geom_bond_atom_site_label_1
_geom_bond_atom_site_label_2
_geom_bond_distance
_geom_bond_site_symmetry_2
Mg0 Si7 2.747046 1_555
Mg0 Si12 2.821131 1_555
Mg0 Si3 2.886766 1_455
Mg0 Si14 2.889865 1_565
Mg0 Si2 2.907466 1_565
Mg0 Si8 2.931705 1_565
Mg0 Si6 3.095644 1_565
Mg1 Si6 2.726214 1_555
Mg1 Si7 2.789119 1_555
Mg1 Si9 2.847169 1_555
Mg1 Si12 2.853942 1_555
Mg1 Si10 2.915741 1_555
Mg1 Si14 2.926567 1_555
Mg1 Si2 3.044506 1_555
Mg1 Si3 3.196165 1_555
Mg2 Si13 2.681497 1_455
Mg2 Si15 2.738387 1_544
Mg2 Si0 2.753187 1_555
Mg2 Si8 2.883277 1_555
Mg2 Si5 2.902085 1_555
Mg2 Si11 3.249383 1_545
Mg3 Si5 2.710535 1_556
Mg3 Si10 2.748781 1_445
Mg3 Si15 2.810473 1_545
Mg3 Si11 2.857522 1_556
Mg3 Si14 2.989435 1_555
Mg3 Si0 3.030552 1_456
Mg4 Si0 2.789920 1_555
Mg4 Si4 2.806129 1_655
Mg4 Si12 2.954570 1_555
Mg4 Si5 2.960889 1_555
Mg4 Si13 2.987559 1_555
Mg4 Si9 3.039118 1_555
Mg4 Si11 3.068024 1_655
Mg5 Si8 2.673460 1_565
Mg5 Si5 2.679575 1_555
Mg5 Si13 2.750942 1_565
Mg5 Si12 2.816955 1_555
Mg5 Si0 2.860965 1_565
Mg6 Si7 2.717521 1_555
Mg6 Si3 2.759055 1_455
Mg6 Si2 2.818259 1_555
Mg6 Si1 2.877027 1_455
Mg6 Si6 2.900906 1_455
Mg6 Si15 2.902630 1_555
Mg6 Si14 3.067306 1_555
Mg7 Si6 2.788048 1_565
Mg7 Si10 2.807153 1_555
Mg7 Si3 2.928407 1_555
Mg7 Si12 2.941848 1_555
Mg7 Si2 2.947972 1_665
Mg7 Si14 2.950754 1_665
Mg8 Si8 2.680261 1_555
Mg8 Si2 2.744524 1_655
Mg8 Si3 2.815794 1_555
Mg8 Si13 2.843570 1_555
Mg8 Si6 2.927265 1_555
Mg9 Si13 2.753383 1_465
Mg9 Si8 2.788340 1_565
Mg9 Si3 2.841213 1_455
Mg9 Si11 2.890366 1_555
Mg9 Si4 2.910490 1_555
Mg9 Si12 2.968118 1_455
Mg9 Si2 3.172437 1_565
Mg10 Si0 2.716747 1_556
Mg10 Si1 2.764584 1_555
Mg10 Si7 2.766081 1_545
Mg10 Si5 2.843976 1_556
Mg10 Si6 2.902724 1_555
Mg10 Si14 3.010657 1_555
Mg10 Si10 3.225725 1_545
Mg11 Si5 2.698569 1_556
Mg11 Si15 2.776048 1_555
Mg11 Si10 2.790696 1_555
Mg11 Si7 2.827633 1_555
Mg11 Si1 2.864503 1_555
Mg11 Si11 2.906369 1_556
Mg11 Si14 2.958066 1_555
Mg11 Si0 2.995475 1_566
Si0 Si13 2.355304 1_555
Si0 Si10 2.462383 1_544
Si1 Si6 2.391627 1_555
Si1 Si15 2.442435 1_655
Si1 Si10 2.459735 1_555
Si1 Si11 2.528012 1_656
Si2 Si8 2.414468 1_555
Si2 Si9 2.498402 1_555
Si3 Si4 2.532848 1_655
Si4 Si9 2.370433 1_555
Si4 Si5 2.485254 1_555
Si8 Si9 2.363610 1_555
Si10 Si7 2.512729 1_555
Si10 Si15 2.741903 1_655
Si11 Si15 2.637514 1_554
Si11 Si5 2.693776 1_555
Si12 Si9 2.423534 1_555
Si12 Si3 2.423975 1_555
Si13 Si4 2.405393 1_655
Si14 Si2 2.439188 1_555
Si14 Si6 2.524428 1_555
Si15 Si7 2.402640 1_555
