# generated using pymatgen
data_CaZn2(H5O4)2
_symmetry_space_group_name_H-M   'P 1'
_cell_length_a   11.07487200
_cell_length_b   5.96656300
_cell_length_c   6.48817289
_cell_angle_alpha   77.62207832
_cell_angle_beta   90.00000000
_cell_angle_gamma   90.00000000
_symmetry_Int_Tables_number   1
_chemical_formula_structural   CaZn2(H5O4)2
_chemical_formula_sum   'Ca2 Zn4 H20 O16'
_cell_volume   418.76558359
_cell_formula_units_Z   2
loop_
 _symmetry_equiv_pos_site_id
 _symmetry_equiv_pos_as_xyz
  1  'x, y, z'
loop_
 _atom_site_type_symbol
 _atom_site_label
 _atom_site_symmetry_multiplicity
 _atom_site_fract_x
 _atom_site_fract_y
 _atom_site_fract_z
 _atom_site_occupancy
  Ca  Ca0  1  0.50000000  0.50000000  0.00000000  1
  Ca  Ca1  1  0.00000000  0.00000000  0.00000000  1
  Zn  Zn0  1  0.66658800  0.34325700  0.53055100  1
  Zn  Zn1  1  0.16658800  0.15674300  0.46944900  1
  Zn  Zn2  1  0.33341200  0.65674300  0.46944900  1
  Zn  Zn3  1  0.83341200  0.84325700  0.53055100  1
  H  H0  1  0.60956600  0.73180000  0.53015100  1
  H  H1  1  0.10956600  0.76820000  0.46984900  1
  H  H2  1  0.39043400  0.26820000  0.46984900  1
  H  H3  1  0.89043400  0.23180000  0.53015100  1
  H  H4  1  0.55438700  0.11226800  0.32422000  1
  H  H5  1  0.05438700  0.38773200  0.67578000  1
  H  H6  1  0.44561300  0.88773200  0.67578000  1
  H  H7  1  0.94561300  0.61226800  0.32422000  1
  H  H8  1  0.61206200  0.10913700  0.88070700  1
  H  H9  1  0.11206200  0.39086300  0.11929300  1
  H  H10  1  0.38793800  0.89086300  0.11929300  1
  H  H11  1  0.88793800  0.60913700  0.88070700  1
  H  H12  1  0.66920400  0.74942700  0.19060400  1
  H  H13  1  0.16920400  0.75057300  0.80939600  1
  H  H14  1  0.33079600  0.25057300  0.80939600  1
  H  H15  1  0.83079600  0.24942700  0.19060400  1
  H  H16  1  0.73679300  0.76514000  0.96612500  1
  H  H17  1  0.23679300  0.73486000  0.03387500  1
  H  H18  1  0.26320700  0.23486000  0.03387500  1
  H  H19  1  0.76320700  0.26514000  0.96612500  1
  O  O0  1  0.68314600  0.68994700  0.45821200  1
  O  O1  1  0.18314600  0.81005300  0.54178800  1
  O  O2  1  0.31685400  0.31005300  0.54178800  1
  O  O3  1  0.81685400  0.18994700  0.45821200  1
  O  O4  1  0.53852200  0.26798100  0.34226600  1
  O  O5  1  0.03852200  0.23201900  0.65773400  1
  O  O6  1  0.46147800  0.73201900  0.65773400  1
  O  O7  1  0.96147800  0.76798100  0.34226600  1
  O  O8  1  0.62855000  0.27380500  0.83436900  1
  O  O9  1  0.12855000  0.22619500  0.16563100  1
  O  O10  1  0.37145000  0.72619500  0.16563100  1
  O  O11  1  0.87145000  0.77380500  0.83436900  1
  O  O12  1  0.65529800  0.76688100  0.03494200  1
  O  O13  1  0.15529800  0.73311900  0.96505800  1
  O  O14  1  0.34470200  0.23311900  0.96505800  1
  O  O15  1  0.84470200  0.26688100  0.03494200  1
loop_
_geom_bond_atom_site_label_1
_geom_bond_atom_site_label_2
_geom_bond_distance
_geom_bond_site_symmetry_2
Ca0 O8 2.371694 1_554
Ca0 O10 2.371694 1_555
Ca0 O12 2.387438 1_555
Ca0 O14 2.387438 1_554
Ca0 O6 2.389959 1_554
Ca0 O4 2.389959 1_555
Ca1 O9 2.371694 1_555
Ca1 O11 2.371694 1_444
Ca1 O15 2.387438 1_455
Ca1 O13 2.387438 1_544
Ca1 O5 2.389959 1_554
Ca1 O7 2.389959 1_445
H0 O0 0.997112 1_555
H1 O1 0.997112 1_555
H2 O2 0.997112 1_555
H3 O3 0.997112 1_555
H4 O4 0.976929 1_555
H5 O5 0.976929 1_555
H6 O6 0.976929 1_555
H7 O7 0.976929 1_555
H8 O8 0.981023 1_555
H9 O9 0.981023 1_555
H10 O10 0.981023 1_555
H11 O11 0.981023 1_555
H12 O12 1.004736 1_555
H13 O13 1.004736 1_555
H14 O14 1.004736 1_555
H15 O15 1.004736 1_555
H16 O12 1.007991 1_556
H17 O13 1.007991 1_554
H18 O14 1.007991 1_554
H19 O15 1.007991 1_556
O0 Zn3 2.002641 1_555
O0 Zn0 2.028935 1_555
O1 Zn2 2.002641 1_555
O1 Zn1 2.028935 1_565
O2 Zn1 2.002641 1_555
O2 Zn2 2.028935 1_555
O3 Zn0 2.002641 1_555
O3 Zn3 2.028935 1_545
O4 Zn0 1.985180 1_555
O5 Zn1 1.985180 1_555
O6 Zn2 1.985180 1_555
O7 Zn3 1.985180 1_555
O8 Zn0 1.970966 1_555
O9 Zn1 1.970966 1_555
O10 Zn2 1.970966 1_555
O11 Zn3 1.970966 1_555
