# generated using pymatgen
data_Na20Zn8Sn11
_symmetry_space_group_name_H-M   'P 1'
_cell_length_a   9.34485398
_cell_length_b   9.38951863
_cell_length_c   27.59896096
_cell_angle_alpha   91.40472572
_cell_angle_beta   80.25304032
_cell_angle_gamma   119.84276860
_symmetry_Int_Tables_number   1
_chemical_formula_structural   Na20Zn8Sn11
_chemical_formula_sum   'Na40 Zn16 Sn22'
_cell_volume   2065.13140800
_cell_formula_units_Z   2
loop_
 _symmetry_equiv_pos_site_id
 _symmetry_equiv_pos_as_xyz
  1  'x, y, z'
loop_
 _atom_site_type_symbol
 _atom_site_label
 _atom_site_symmetry_multiplicity
 _atom_site_fract_x
 _atom_site_fract_y
 _atom_site_fract_z
 _atom_site_occupancy
  Na  Na0  1  0.54427507  0.72590966  0.68715486  1
  Na  Na1  1  0.00552027  0.77409034  0.81284514  1
  Na  Na2  1  0.46188210  0.27576318  0.31057951  1
  Na  Na3  1  0.99669843  0.22423682  0.18942049  1
  Na  Na4  1  0.91823284  0.71982755  0.68799355  1
  Na  Na5  1  0.38639884  0.78017245  0.81200645  1
  Na  Na6  1  0.07707409  0.27411415  0.31001894  1
  Na  Na7  1  0.61297888  0.22588585  0.18998106  1
  Na  Na8  1  0.54422142  0.34159890  0.68670964  1
  Na  Na9  1  0.38933216  0.15840110  0.81329036  1
  Na  Na10  1  0.46422085  0.65997034  0.31060703  1
  Na  Na11  1  0.61485754  0.84002966  0.18939297  1
  Na  Na12  1  0.18546297  0.18253904  0.00007149  1
  Na  Na13  1  0.50299542  0.31746096  0.49992851  1
  Na  Na14  1  0.81487412  0.81694910  0.00019016  1
  Na  Na15  1  0.49811518  0.68305090  0.49980984  1
  Na  Na16  1  0.85849814  0.19182332  0.93920958  1
  Na  Na17  1  0.10588439  0.30817668  0.56079042  1
  Na  Na18  1  0.14111336  0.80731608  0.06191421  1
  Na  Na19  1  0.89571148  0.69268392  0.43808579  1
  Na  Na20  1  0.03628961  0.63151910  0.93984751  1
  Na  Na21  1  0.84461802  0.86848090  0.56015249  1
  Na  Na22  1  0.96402611  0.36929627  0.06068909  1
  Na  Na23  1  0.15541893  0.13070373  0.43931091  1
  Na  Na24  1  0.28878520  0.41992115  0.89411183  1
  Na  Na25  1  0.26297588  0.08007885  0.60588817  1
  Na  Na26  1  0.71062248  0.57957120  0.10739279  1
  Na  Na27  1  0.73844407  0.92042880  0.39260721  1
  Na  Na28  1  0.66351393  0.41904324  0.89462111  1
  Na  Na29  1  0.63909180  0.08095676  0.60537889  1
  Na  Na30  1  0.33343843  0.58036441  0.10718849  1
  Na  Na31  1  0.36026250  0.91963559  0.39281151  1
  Na  Na32  1  0.66900693  0.79959892  0.89422022  1
  Na  Na33  1  0.26362823  0.70040108  0.60577978  1
  Na  Na34  1  0.33005836  0.19945707  0.10716781  1
  Na  Na35  1  0.73776910  0.30054293  0.39283219  1
  Na  Na36  1  0.42013761  0.01258780  0.93905877  1
  Na  Na37  1  0.84660858  0.48741220  0.56094123  1
  Na  Na38  1  0.57937427  0.98683802  0.06133413  1
  Na  Na39  1  0.15387038  0.51316198  0.43866587  1
  Zn  Zn0  1  0.78219199  0.91813631  0.76991010  1
  Zn  Zn1  1  0.13396578  0.58186369  0.73008990  1
  Zn  Zn2  1  0.20885054  0.08232496  0.23154098  1
  Zn  Zn3  1  0.85806657  0.41767504  0.26845902  1
  Zn  Zn4  1  0.49967946  0.50010321  0.00017797  1
  Zn  Zn5  1  0.49975422  0.99989679  0.49982203  1
  Zn  Zn6  1  0.79187030  0.40320849  0.76740326  1
  Zn  Zn7  1  0.65606508  0.09679151  0.73259674  1
  Zn  Zn8  1  0.21218054  0.59229411  0.23144159  1
  Zn  Zn9  1  0.35132803  0.90770589  0.26855841  1
  Zn  Zn10  1  0.00499749  0.11462982  0.83266812  1
  Zn  Zn11  1  0.22303579  0.38537018  0.66733188  1
  Zn  Zn12  1  0.98019597  0.87279807  0.17232746  1
  Zn  Zn13  1  0.77972535  0.62720193  0.32767254  1
  Zn  Zn14  1  0.71836218  0.59702624  0.23413349  1
  Zn  Zn15  1  0.85546943  0.90297376  0.26586651  1
  Sn  Sn0  1  0.34695379  0.66084850  0.98951693  1
  Sn  Sn1  1  0.17562223  0.83915150  0.51048307  1
  Sn  Sn2  1  0.65348598  0.34002007  0.01062782  1
  Sn  Sn3  1  0.82409373  0.15997993  0.48937218  1
  Sn  Sn4  1  0.70189107  0.11974142  0.83208888  1
  Sn  Sn5  1  0.91423853  0.38025858  0.66791112  1
  Sn  Sn6  1  0.29890241  0.87999473  0.16924157  1
  Sn  Sn7  1  0.08814926  0.62000527  0.33075843  1
  Sn  Sn8  1  0.61999623  0.57845803  0.79563254  1
  Sn  Sn9  1  0.33717073  0.92154197  0.70436746  1
  Sn  Sn10  1  0.39578960  0.42610627  0.20711722  1
  Sn  Sn11  1  0.67680055  0.07389373  0.29288278  1
  Sn  Sn12  1  0.01230731  0.44249216  0.83474031  1
  Sn  Sn13  1  0.90455546  0.05750784  0.66525969  1
  Sn  Sn14  1  0.97538041  0.56068772  0.17075800  1
  Sn  Sn15  1  0.08545070  0.93931228  0.32924200  1
  Sn  Sn16  1  0.08422011  0.99770846  0.90434288  1
  Sn  Sn17  1  0.49085453  0.50229154  0.59565712  1
  Sn  Sn18  1  0.91759164  0.00041360  0.09735337  1
  Sn  Sn19  1  0.51453142  0.49958640  0.40264663  1
  Sn  Sn20  1  0.28197356  0.42015572  0.76619621  1
  Sn  Sn21  1  0.12801405  0.07984428  0.73380379  1
loop_
_geom_bond_atom_site_label_1
_geom_bond_atom_site_label_2
_geom_bond_distance
_geom_bond_site_symmetry_2
Na0 Sn17 3.187217 1_555
Na0 Sn13 3.219490 1_565
Na0 Zn11 3.232990 1_555
Na0 Sn20 3.240674 1_555
Na0 Sn9 3.244922 1_555
Na0 Zn0 3.307674 1_555
Na0 Zn1 3.363638 1_555
Na0 Zn7 3.376416 1_565
Na0 Sn8 3.643673 1_555
Na0 Na33 3.649950 1_555
Na1 Sn16 3.187217 1_555
Na1 Sn12 3.219490 1_555
Na1 Zn10 3.232990 1_565
Na1 Sn21 3.240674 1_565
Na1 Sn8 3.244922 1_455
Na1 Zn1 3.307674 1_555
Na1 Zn0 3.363638 1_455
Na1 Zn6 3.376416 1_455
Na1 Sn9 3.643673 1_555
Na1 Na32 3.649950 1_455
Na2 Sn19 3.201191 1_555
Na2 Zn3 3.246955 1_555
Na2 Zn13 3.252250 1_555
Na2 Zn14 3.271018 1_555
Na2 Zn2 3.305501 1_555
Na2 Zn9 3.318324 1_545
Na2 Sn15 3.320517 1_545
Na2 Sn11 3.357986 1_555
Na2 Sn10 3.491463 1_555
Na3 Sn18 3.201191 1_555
Na3 Zn2 3.246955 1_655
Na3 Zn12 3.252250 1_545
Na3 Zn15 3.271018 1_545
Na3 Zn3 3.305501 1_555
Na3 Zn8 3.318324 1_655
Na3 Sn14 3.320517 1_555
Na3 Sn10 3.357986 1_655
Na3 Sn11 3.491463 1_555
Na4 Sn5 3.205672 1_555
Na4 Zn1 3.249325 1_655
Na4 Sn21 3.301959 1_665
Na4 Zn6 3.314378 1_555
Na4 Sn13 3.315279 1_565
Na4 Zn0 3.372076 1_555
Na4 Sn8 3.473126 1_555
Na4 Sn9 3.506492 1_655
Na5 Sn4 3.205672 1_565
Na5 Zn0 3.249325 1_555
Na5 Sn20 3.301959 1_555
Na5 Zn7 3.314378 1_565
Na5 Sn12 3.315279 1_555
Na5 Zn1 3.372076 1_555
Na5 Sn9 3.473126 1_555
Na5 Sn8 3.506492 1_555
Na6 Sn7 3.237377 1_555
Na6 Sn15 3.242027 1_545
Na6 Zn2 3.250108 1_555
Na6 Zn8 3.295325 1_555
Na6 Zn3 3.307183 1_455
Na6 Sn11 3.362455 1_455
Na6 Zn15 3.373627 1_445
Na6 Sn10 3.475229 1_555
Na7 Sn6 3.237377 1_545
Na7 Sn14 3.242026 1_555
Na7 Zn3 3.250108 1_555
Na7 Zn9 3.295324 1_545
Na7 Zn2 3.307183 1_555
Na7 Sn10 3.362455 1_555
Na7 Zn14 3.373627 1_555
Na7 Sn11 3.475229 1_555
Na8 Sn17 3.193638 1_555
Na8 Sn5 3.241859 1_555
Na8 Zn7 3.310862 1_555
Na8 Zn6 3.316581 1_555
Na8 Zn11 3.353432 1_555
Na8 Sn20 3.355852 1_555
Na8 Sn9 3.423052 1_545
Na8 Sn21 3.433445 1_555
Na8 Sn8 3.648312 1_555
Na9 Sn16 3.193638 1_545
Na9 Sn4 3.241859 1_555
Na9 Zn6 3.310862 1_555
Na9 Zn7 3.316581 1_555
Na9 Zn10 3.353432 1_555
Na9 Sn21 3.355852 1_555
Na9 Sn8 3.423052 1_555
Na9 Sn20 3.433445 1_555
Na9 Sn9 3.648312 1_545
Na10 Zn14 3.175324 1_555
Na10 Sn19 3.199690 1_555
Na10 Zn13 3.223251 1_555
Na10 Zn15 3.225725 1_555
Na10 Sn7 3.291902 1_555
Na10 Zn9 3.295410 1_555
Na10 Zn8 3.302977 1_555
Na10 Sn11 3.372087 1_565
Na10 Sn10 3.507439 1_555
Na11 Zn15 3.175324 1_555
Na11 Sn18 3.199690 1_565
Na11 Zn12 3.223251 1_555
Na11 Zn14 3.225725 1_555
Na11 Sn6 3.291902 1_555
Na11 Zn8 3.295410 1_555
Na11 Zn9 3.302977 1_555
Na11 Sn10 3.372087 1_555
Na11 Sn11 3.507439 1_565
Na12 Zn4 2.966753 1_555
Na12 Sn16 3.142389 1_544
Na12 Sn18 3.176188 1_455
Na13 Zn5 2.966753 1_545
Na13 Sn17 3.142389 1_555
Na13 Sn19 3.176188 1_555
Na14 Zn4 2.967430 1_555
Na14 Sn16 3.150796 1_654
Na14 Sn18 3.174785 1_565
Na14 Na32 3.397605 1_554
Na15 Zn5 2.967430 1_555
Na15 Sn17 3.150796 1_555
Na15 Sn19 3.174785 1_555
Na15 Na33 3.397605 1_555
Na16 Zn10 3.250500 1_655
Na16 Sn2 3.275940 1_556
Na16 Sn12 3.388416 1_655
Na16 Sn4 3.423642 1_555
Na16 Sn16 3.427880 1_645
Na16 Na32 3.502891 1_545
Na17 Zn11 3.250500 1_555
Na17 Sn3 3.275940 1_455
Na17 Sn13 3.388416 1_455
Na17 Sn5 3.423642 1_455
Na17 Sn17 3.427880 1_555
Na17 Na33 3.502891 1_555
Na18 Sn0 3.283360 1_554
Na18 Zn12 3.346943 1_455
Na18 Sn18 3.405493 1_465
Na18 Sn6 3.434005 1_555
Na18 Sn14 3.461421 1_455
Na19 Sn1 3.283360 1_655
Na19 Zn13 3.346943 1_555
Na19 Sn19 3.405493 1_555
Na19 Sn7 3.434005 1_655
Na19 Sn15 3.461421 1_655
Na20 Sn0 3.303990 1_555
Na20 Sn12 3.344718 1_555
Na20 Sn16 3.386275 1_555
Na20 Sn2 3.500804 1_456
Na21 Sn1 3.303991 1_655
Na21 Sn13 3.344718 1_565
Na21 Sn17 3.386275 1_555
Na21 Sn3 3.500804 1_565
Na22 Sn2 3.309207 1_555
Na22 Sn18 3.425832 1_555
Na22 Sn14 3.481464 1_555
Na22 Sn0 3.505955 1_654
Na23 Sn3 3.309207 1_455
Na23 Sn19 3.425832 1_555
Na23 Sn15 3.481464 1_545
Na23 Sn1 3.505955 1_545
Na24 Sn0 3.363757 1_555
Na24 Sn12 3.376470 1_555
Na24 Sn16 3.432211 1_545
Na24 Zn10 3.441539 1_555
Na24 Sn8 3.456493 1_555
Na24 Sn20 3.541744 1_555
Na24 Na32 3.567956 1_555
Na25 Sn1 3.363757 1_545
Na25 Sn13 3.376470 1_455
Na25 Sn17 3.432211 1_555
Na25 Zn11 3.441539 1_555
Na25 Sn9 3.456493 1_545
Na25 Sn21 3.541744 1_555
Na25 Na33 3.567956 1_545
Na26 Sn14 3.335850 1_555
Na26 Sn2 3.386668 1_555
Na26 Zn12 3.394413 1_555
Na26 Sn10 3.397160 1_555
Na26 Sn18 3.420219 1_565
Na26 Zn14 3.509022 1_555
Na27 Sn15 3.335851 1_655
Na27 Sn3 3.386668 1_565
Na27 Zn13 3.394413 1_555
Na27 Sn11 3.397160 1_565
Na27 Sn19 3.420219 1_555
Na27 Zn15 3.509022 1_555
Na28 Sn2 3.279584 1_556
Na28 Sn12 3.298981 1_655
Na28 Zn4 3.309256 1_556
Na28 Sn8 3.324468 1_555
Na28 Sn4 3.400084 1_555
Na28 Zn6 3.537577 1_555
Na28 Na32 3.548234 1_555
Na29 Sn3 3.279584 1_555
Na29 Sn13 3.298981 1_555
Na29 Zn5 3.309256 1_545
Na29 Sn9 3.324468 1_545
Na29 Sn5 3.400084 1_555
Na29 Zn7 3.537577 1_555
Na29 Na33 3.548234 1_545
Na30 Sn0 3.319712 1_554
Na30 Zn4 3.347580 1_555
Na30 Sn6 3.381208 1_555
Na30 Sn10 3.409316 1_555
Na30 Sn14 3.423582 1_455
Na30 Zn8 3.442110 1_555
Na31 Sn1 3.319712 1_555
Na31 Zn5 3.347580 1_555
Na31 Sn7 3.381208 1_555
Na31 Sn11 3.409316 1_565
Na31 Sn15 3.423582 1_555
Na31 Zn9 3.442110 1_555
Na32 Zn10 3.269692 1_665
Na32 Sn8 3.335131 1_555
Na32 Sn4 3.350484 1_565
Na32 Sn0 3.355252 1_555
Na32 Sn16 3.428082 1_655
Na32 Zn0 3.451814 1_555
Na32 Zn4 3.656686 1_556
Na32 Na5 3.699386 1_555
Na32 Na36 3.804278 1_565
Na33 Zn11 3.269692 1_555
Na33 Sn9 3.335131 1_555
Na33 Sn5 3.350484 1_455
Na33 Sn1 3.355252 1_555
Na33 Sn17 3.428082 1_555
Na33 Zn1 3.451814 1_555
Na33 Zn5 3.656686 1_555
Na33 Na4 3.699386 1_455
Na33 Na37 3.804278 1_455
Na34 Sn6 3.351299 1_545
Na34 Sn2 3.384008 1_555
Na34 Sn10 3.391233 1_555
Na34 Sn18 3.403272 1_455
Na34 Zn12 3.410299 1_445
Na34 Zn2 3.450206 1_555
Na35 Sn7 3.351299 1_655
Na35 Sn3 3.384008 1_555
Na35 Sn11 3.391233 1_555
Na35 Sn19 3.403272 1_555
Na35 Zn13 3.410299 1_555
Na35 Zn3 3.450206 1_555
Na36 Sn0 3.312055 1_545
Na36 Sn16 3.371468 1_545
Na36 Sn4 3.396725 1_555
Na36 Sn2 3.549244 1_556
Na37 Sn1 3.312055 1_655
Na37 Sn17 3.371468 1_555
Na37 Sn5 3.396725 1_555
Na37 Sn3 3.549244 1_555
Na38 Sn2 3.323994 1_565
Na38 Sn6 3.410552 1_555
Na38 Sn18 3.413280 1_565
Na38 Sn0 3.543828 1_554
Na39 Sn3 3.323994 1_455
Na39 Sn7 3.410552 1_555
Na39 Sn19 3.413280 1_555
Na39 Sn1 3.543828 1_555
Zn0 Zn7 2.779761 1_565
Zn0 Zn10 2.824943 1_665
Zn1 Zn6 2.779761 1_455
Zn1 Zn11 2.824943 1_555
Zn2 Zn9 2.867060 1_545
Zn3 Zn8 2.867059 1_655
Zn6 Zn7 2.730289 1_555
Zn8 Zn9 2.825009 1_555
Zn12 Zn15 2.716125 1_555
Zn12 Zn2 2.819194 1_665
Zn12 Zn14 2.845905 1_555
Zn13 Zn14 2.716125 1_555
Zn13 Zn3 2.819194 1_555
Zn13 Zn15 2.845905 1_555
Zn14 Zn15 2.693414 1_555
Zn14 Zn3 2.850056 1_555
Zn15 Zn2 2.850056 1_665
Sn0 Zn4 2.590238 1_556
Sn1 Zn5 2.590238 1_555
Sn2 Zn4 2.592310 1_555
Sn3 Zn5 2.592310 1_545
Sn4 Zn0 2.812435 1_545
Sn4 Zn7 2.836719 1_555
Sn4 Zn10 2.859406 1_655
Sn4 Zn6 2.911308 1_555
Sn5 Zn1 2.812435 1_655
Sn5 Zn6 2.836719 1_555
Sn5 Zn11 2.859406 1_655
Sn5 Zn7 2.911308 1_555
Sn6 Zn9 2.848486 1_555
Sn6 Zn2 2.866130 1_565
Sn6 Zn8 2.911803 1_555
Sn6 Zn12 2.931891 1_455
Sn7 Zn8 2.848486 1_555
Sn7 Zn3 2.866130 1_455
Sn7 Zn9 2.911803 1_555
Sn7 Zn13 2.931892 1_455
Sn8 Zn0 2.812325 1_555
Sn8 Zn6 2.835165 1_555
Sn9 Zn1 2.812325 1_555
Sn9 Zn7 2.835166 1_565
Sn10 Zn2 2.832233 1_555
Sn10 Zn8 2.837752 1_555
Sn10 Zn14 2.847065 1_555
Sn11 Zn3 2.832233 1_555
Sn11 Zn9 2.837752 1_545
Sn11 Zn15 2.847065 1_545
Sn12 Zn6 2.887844 1_455
Sn12 Sn20 2.977491 1_555
Sn12 Sn4 2.985929 1_455
Sn12 Zn1 2.989948 1_555
Sn12 Zn10 3.044391 1_555
Sn13 Zn7 2.887844 1_555
Sn13 Sn21 2.977491 1_655
Sn13 Sn5 2.985929 1_555
Sn13 Zn0 2.989948 1_545
Sn13 Zn11 3.044391 1_655
Sn14 Zn3 2.826188 1_555
Sn14 Zn14 2.882413 1_555
Sn14 Zn8 2.892528 1_655
Sn14 Zn12 2.907801 1_555
Sn14 Sn6 3.012139 1_655
Sn15 Zn2 2.826188 1_565
Sn15 Zn15 2.882413 1_455
Sn15 Zn9 2.892528 1_555
Sn15 Zn13 2.907801 1_455
Sn15 Sn7 3.012139 1_555
Sn16 Zn10 2.660380 1_565
Sn17 Zn11 2.660380 1_555
Sn18 Zn12 2.699777 1_545
Sn19 Zn13 2.699777 1_555
Sn20 Zn1 2.800419 1_555
Sn20 Zn11 2.853266 1_555
Sn20 Sn21 2.966405 1_555
Sn20 Sn8 2.997346 1_555
Sn20 Zn10 3.091114 1_555
Sn21 Zn0 2.800419 1_445
Sn21 Zn10 2.853266 1_555
Sn21 Sn9 2.997346 1_545
Sn21 Zn11 3.091114 1_555
