# generated using pymatgen
data_Tb2InNi2
_symmetry_space_group_name_H-M   'P 1'
_cell_length_a   3.70482142
_cell_length_b   3.86053235
_cell_length_c   7.35632040
_cell_angle_alpha   105.21226091
_cell_angle_beta   90.00000000
_cell_angle_gamma   90.00000000
_symmetry_Int_Tables_number   1
_chemical_formula_structural   Tb2InNi2
_chemical_formula_sum   'Tb2 In1 Ni2'
_cell_volume   101.52770913
_cell_formula_units_Z   1
loop_
 _symmetry_equiv_pos_site_id
 _symmetry_equiv_pos_as_xyz
  1  'x, y, z'
loop_
 _atom_site_type_symbol
 _atom_site_label
 _atom_site_symmetry_multiplicity
 _atom_site_fract_x
 _atom_site_fract_y
 _atom_site_fract_z
 _atom_site_occupancy
  Tb  Tb0  1  0.50000000  0.63728596  0.27457192  1
  Tb  Tb1  1  0.50000000  0.36271404  0.72542808  1
  In  In0  1  -0.00000000  0.00000000  0.00000000  1
  Ni  Ni0  1  0.00000000  0.79957829  0.59915659  1
  Ni  Ni1  1  -0.00000000  0.20042171  0.40084341  1
loop_
_geom_bond_atom_site_label_1
_geom_bond_atom_site_label_2
_geom_bond_distance
_geom_bond_site_symmetry_2
In0 Ni1 2.845410 1_555
In0 Ni0 2.845410 1_544
In0 Tb0 3.310016 1_455
In0 Tb1 3.310016 1_444
In0 Tb1 3.310016 1_544
In0 Tb0 3.310016 1_555
In0 Tb1 3.310016 1_554
In0 Tb0 3.310016 1_445
In0 Tb0 3.310016 1_545
In0 Tb1 3.310016 1_454
Ni0 Ni1 2.389069 1_555
Ni0 Ni1 2.389069 1_565
Ni0 Tb1 2.821487 1_565
Ni0 Tb1 2.821487 1_465
Ni0 Tb1 2.821487 1_455
Ni0 Tb1 2.821487 1_555
Ni0 Tb0 2.956387 1_455
Ni0 Tb0 2.956387 1_555
Ni1 Tb0 2.821487 1_445
Ni1 Tb0 2.821487 1_545
Ni1 Tb0 2.821487 1_555
Ni1 Tb0 2.821487 1_455
Ni1 Tb1 2.956387 1_455
Ni1 Tb1 2.956387 1_555
