# generated using pymatgen
data_CsYMg6
_symmetry_space_group_name_H-M   'P 1'
_cell_length_a   5.43247400
_cell_length_b   7.35301000
_cell_length_c   11.90818700
_cell_angle_alpha   90.00000000
_cell_angle_beta   90.00000000
_cell_angle_gamma   90.00000000
_symmetry_Int_Tables_number   1
_chemical_formula_structural   CsYMg6
_chemical_formula_sum   'Cs2 Y2 Mg12'
_cell_volume   475.67295420
_cell_formula_units_Z   2
loop_
 _symmetry_equiv_pos_site_id
 _symmetry_equiv_pos_as_xyz
  1  'x, y, z'
loop_
 _atom_site_type_symbol
 _atom_site_label
 _atom_site_symmetry_multiplicity
 _atom_site_fract_x
 _atom_site_fract_y
 _atom_site_fract_z
 _atom_site_occupancy
  Cs  Cs0  1  0.00000000  0.50000000  0.83315900  1
  Cs  Cs1  1  0.00000000  0.00000000  0.33315900  1
  Y  Y0  1  0.00000000  0.50000000  0.34125700  1
  Y  Y1  1  0.00000000  0.00000000  0.84125700  1
  Mg  Mg0  1  0.00000000  0.25428500  0.08133300  1
  Mg  Mg1  1  0.00000000  0.74571500  0.08133300  1
  Mg  Mg2  1  0.50000000  0.22229800  0.92850100  1
  Mg  Mg3  1  0.50000000  0.77770200  0.92850100  1
  Mg  Mg4  1  0.50000000  0.50000000  0.16356200  1
  Mg  Mg5  1  0.50000000  0.50000000  0.64235800  1
  Mg  Mg6  1  0.00000000  0.75428500  0.58133300  1
  Mg  Mg7  1  0.00000000  0.24571500  0.58133300  1
  Mg  Mg8  1  0.50000000  0.72229800  0.42850100  1
  Mg  Mg9  1  0.50000000  0.27770200  0.42850100  1
  Mg  Mg10  1  0.50000000  0.00000000  0.66356200  1
  Mg  Mg11  1  0.50000000  0.00000000  0.14235800  1
loop_
_geom_bond_atom_site_label_1
_geom_bond_atom_site_label_2
_geom_bond_distance
_geom_bond_site_symmetry_2
Cs0 Mg1 3.463833 1_556
Cs0 Mg0 3.463833 1_556
Cs0 Mg6 3.533943 1_555
Cs0 Mg7 3.533943 1_555
Cs0 Mg5 3.541236 1_455
Cs0 Mg5 3.541236 1_555
Cs0 Mg2 3.582807 1_455
Cs0 Mg2 3.582807 1_555
Cs0 Mg3 3.582807 1_455
Cs0 Mg3 3.582807 1_555
Cs0 Y1 3.677769 1_565
Cs0 Y1 3.677769 1_555
Cs1 Mg7 3.463833 1_555
Cs1 Mg6 3.463833 1_545
Cs1 Mg0 3.533943 1_555
Cs1 Mg1 3.533943 1_545
Cs1 Mg11 3.541236 1_555
Cs1 Mg11 3.541236 1_455
Cs1 Mg8 3.582807 1_445
Cs1 Mg9 3.582807 1_555
Cs1 Mg8 3.582807 1_545
Cs1 Mg9 3.582807 1_455
Cs1 Y0 3.677769 1_555
Cs1 Y0 3.677769 1_545
Mg0 Mg2 3.278031 1_554
Mg0 Mg2 3.278031 1_454
Mg0 Mg11 3.376690 1_455
Mg0 Mg11 3.376690 1_555
Mg0 Mg4 3.406039 1_455
Mg0 Mg4 3.406039 1_555
Mg0 Y1 3.416012 1_554
Mg0 Y0 3.583955 1_555
Mg1 Mg3 3.278031 1_554
Mg1 Mg3 3.278031 1_454
Mg1 Mg11 3.376690 1_465
Mg1 Mg11 3.376690 1_565
Mg1 Mg4 3.406039 1_455
Mg1 Mg4 3.406039 1_555
Mg1 Y1 3.416012 1_564
Mg1 Y0 3.583955 1_555
Mg2 Mg3 3.269119 1_545
Mg2 Y1 3.336027 1_555
Mg2 Y1 3.336027 1_655
Mg2 Mg4 3.464792 1_556
Mg3 Y1 3.336027 1_565
Mg3 Y1 3.336027 1_665
Mg3 Mg4 3.464792 1_556
Mg4 Y0 3.443183 1_655
Mg4 Y0 3.443183 1_555
Mg4 Mg8 3.553231 1_555
Mg4 Mg9 3.553231 1_555
Mg5 Mg9 3.026088 1_555
Mg5 Mg8 3.026088 1_555
Mg5 Mg7 3.376690 1_655
Mg5 Mg6 3.376690 1_555
Mg5 Mg6 3.376690 1_655
Mg5 Mg7 3.376690 1_555
Mg6 Mg8 3.278031 1_555
Mg6 Mg8 3.278031 1_455
Mg6 Y0 3.416012 1_555
Mg6 Y1 3.583955 1_565
Mg7 Mg9 3.278031 1_455
Mg7 Mg9 3.278031 1_555
Mg7 Y0 3.416012 1_555
Mg7 Y1 3.583955 1_555
Mg8 Mg9 3.269119 1_555
Mg8 Y0 3.336027 1_555
Mg8 Y0 3.336027 1_655
Mg9 Y0 3.336027 1_555
Mg9 Y0 3.336027 1_655
Mg10 Mg7 3.406039 1_655
Mg10 Mg7 3.406039 1_555
Mg10 Mg6 3.406039 1_545
Mg10 Mg6 3.406039 1_645
Mg10 Y1 3.443183 1_555
Mg10 Y1 3.443183 1_655
Mg10 Mg9 3.464792 1_555
Mg10 Mg8 3.464792 1_545
Mg10 Mg3 3.553231 1_545
Mg10 Mg2 3.553231 1_555
Mg11 Mg2 3.026088 1_554
Mg11 Mg3 3.026088 1_544
