# generated using pymatgen
data_CoAgPO4
_symmetry_space_group_name_H-M   'P 1'
_cell_length_a   5.73548023
_cell_length_b   6.59123897
_cell_length_c   9.49490249
_cell_angle_alpha   75.68106058
_cell_angle_beta   78.99373674
_cell_angle_gamma   78.47322423
_symmetry_Int_Tables_number   1
_chemical_formula_structural   CoAgPO4
_chemical_formula_sum   'Co4 Ag4 P4 O16'
_cell_volume   336.97307941
_cell_formula_units_Z   4
loop_
 _symmetry_equiv_pos_site_id
 _symmetry_equiv_pos_as_xyz
  1  'x, y, z'
loop_
 _atom_site_type_symbol
 _atom_site_label
 _atom_site_symmetry_multiplicity
 _atom_site_fract_x
 _atom_site_fract_y
 _atom_site_fract_z
 _atom_site_occupancy
  Co  Co0  1  0.78391100  0.16509500  0.56704400  1
  Co  Co1  1  0.21351700  0.82454300  0.43540400  1
  Co  Co2  1  0.32731200  0.93613900  0.78408200  1
  Co  Co3  1  0.66945700  0.06248500  0.21796700  1
  Ag  Ag0  1  0.68094000  0.39463800  0.87619200  1
  Ag  Ag1  1  0.31749000  0.60993300  0.12567500  1
  Ag  Ag2  1  0.18042400  0.46630600  0.77102000  1
  Ag  Ag3  1  0.81858000  0.53203000  0.23082300  1
  P  P0  1  0.67712600  0.71491100  0.53026500  1
  P  P1  1  0.32299000  0.27891800  0.47043000  1
  P  P2  1  0.81131600  0.87356400  0.90130800  1
  P  P3  1  0.18818300  0.13308400  0.09739400  1
  O  O0  1  0.86095200  0.84536000  0.55329200  1
  O  O1  1  0.13788400  0.15083800  0.44824000  1
  O  O2  1  0.64046800  0.77809200  0.36259100  1
  O  O3  1  0.36092400  0.22037500  0.63708400  1
  O  O4  1  0.75919100  0.47700300  0.57870100  1
  O  O5  1  0.24488400  0.51720300  0.41844500  1
  O  O6  1  0.41820100  0.78647700  0.61159200  1
  O  O7  1  0.58340500  0.20698200  0.38991300  1
  O  O8  1  0.79709800  0.09140200  0.78778500  1
  O  O9  1  0.20399600  0.91556100  0.21016700  1
  O  O10  1  0.76172100  0.90054100  0.06058200  1
  O  O11  1  0.24106200  0.10676200  0.93737400  1
  O  O12  1  0.07311000  0.74751200  0.87197800  1
  O  O13  1  0.92561600  0.25778500  0.12550300  1
  O  O14  1  0.62398100  0.74709700  0.87678600  1
  O  O15  1  0.37626300  0.25936600  0.12236300  1
loop_
_geom_bond_atom_site_label_1
_geom_bond_atom_site_label_2
_geom_bond_distance
_geom_bond_site_symmetry_2
Co0 O8 2.043720 1_555
Co0 O4 2.061306 1_555
Co0 O0 2.096560 1_545
Co0 O1 2.122442 1_655
Co0 O7 2.146917 1_555
Co0 O3 2.368797 1_555
Co1 O5 2.041225 1_555
Co1 O9 2.081680 1_555
Co1 O0 2.112244 1_455
Co1 O1 2.136610 1_565
Co1 O6 2.159685 1_555
Co1 O2 2.393077 1_555
Co2 O11 1.985027 1_565
Co2 O12 2.028431 1_555
Co2 O6 2.048117 1_555
Co2 O3 2.059928 1_565
Co2 O14 2.098722 1_555
Co3 O10 1.978333 1_545
Co3 O7 2.022299 1_555
Co3 O2 2.047245 1_545
Co3 O13 2.071397 1_555
Co3 O15 2.112790 1_555
Ag0 O14 2.281712 1_555
Ag0 O8 2.286362 1_555
Ag0 O15 2.710013 1_556
Ag1 O15 2.274736 1_555
Ag1 O9 2.280640 1_555
Ag1 O5 2.663400 1_555
Ag1 O14 2.735734 1_554
Ag2 O12 2.220540 1_555
Ag2 O3 2.272201 1_555
Ag2 O11 2.502159 1_555
Ag2 O6 2.717826 1_555
Ag3 O13 2.204670 1_555
Ag3 O2 2.256729 1_555
Ag3 O10 2.561562 1_555
Ag3 O7 2.732664 1_555
O0 P0 1.562694 1_555
O1 P1 1.554287 1_555
O2 P0 1.586544 1_555
O3 P1 1.579870 1_555
O4 P0 1.524130 1_555
O5 P1 1.526715 1_555
O6 P0 1.576875 1_555
O7 P1 1.581267 1_555
O8 P2 1.565669 1_545
O9 P3 1.560813 1_565
O10 P2 1.532350 1_554
O11 P3 1.537527 1_556
O12 P2 1.574359 1_455
O13 P3 1.573226 1_655
O14 P2 1.566200 1_555
O15 P3 1.570598 1_555
