# generated using pymatgen
data_KNaAl2As2O9
_symmetry_space_group_name_H-M   'P 1'
_cell_length_a   8.36936400
_cell_length_b   5.60430200
_cell_length_c   17.40416600
_cell_angle_alpha   90.00000000
_cell_angle_beta   90.00000000
_cell_angle_gamma   90.00000000
_symmetry_Int_Tables_number   1
_chemical_formula_structural   KNaAl2As2O9
_chemical_formula_sum   'K4 Na4 Al8 As8 O36'
_cell_volume   816.33271914
_cell_formula_units_Z   4
loop_
 _symmetry_equiv_pos_site_id
 _symmetry_equiv_pos_as_xyz
  1  'x, y, z'
loop_
 _atom_site_type_symbol
 _atom_site_label
 _atom_site_symmetry_multiplicity
 _atom_site_fract_x
 _atom_site_fract_y
 _atom_site_fract_z
 _atom_site_occupancy
  K  K0  1  0.45187000  0.75000000  0.76787600  1
  K  K1  1  0.95187000  0.75000000  0.73212400  1
  K  K2  1  0.54813000  0.25000000  0.23212400  1
  K  K3  1  0.04813000  0.25000000  0.26787600  1
  Na  Na0  1  0.58866600  0.25000000  0.63533300  1
  Na  Na1  1  0.08866600  0.25000000  0.86466700  1
  Na  Na2  1  0.41133400  0.75000000  0.36466700  1
  Na  Na3  1  0.91133400  0.75000000  0.13533300  1
  Al  Al0  1  0.78080400  0.75000000  0.93898000  1
  Al  Al1  1  0.28080400  0.75000000  0.56102000  1
  Al  Al2  1  0.21919600  0.25000000  0.06102000  1
  Al  Al3  1  0.71919600  0.25000000  0.43898000  1
  Al  Al4  1  0.50000000  0.00000000  0.00000000  1
  Al  Al5  1  0.00000000  0.50000000  0.50000000  1
  Al  Al6  1  0.50000000  0.50000000  0.00000000  1
  Al  Al7  1  0.00000000  0.00000000  0.50000000  1
  As  As0  1  0.68904000  0.25000000  0.85278900  1
  As  As1  1  0.18904000  0.25000000  0.64721100  1
  As  As2  1  0.31096000  0.75000000  0.14721100  1
  As  As3  1  0.81096000  0.75000000  0.35278900  1
  As  As4  1  0.16992200  0.75000000  0.94070900  1
  As  As5  1  0.66992200  0.75000000  0.55929100  1
  As  As6  1  0.83007800  0.25000000  0.05929100  1
  As  As7  1  0.33007800  0.25000000  0.44070900  1
  O  O0  1  0.59832800  0.25000000  0.76718400  1
  O  O1  1  0.09832800  0.25000000  0.73281600  1
  O  O2  1  0.40167200  0.75000000  0.23281600  1
  O  O3  1  0.90167200  0.75000000  0.26718400  1
  O  O4  1  0.80995100  0.00166200  0.86677700  1
  O  O5  1  0.30995100  0.49833800  0.63322300  1
  O  O6  1  0.19004900  0.50166200  0.13322300  1
  O  O7  1  0.69004900  0.99833800  0.36677700  1
  O  O8  1  0.19004900  0.99833800  0.13322300  1
  O  O9  1  0.69004900  0.50166200  0.36677700  1
  O  O10  1  0.80995100  0.49833800  0.86677700  1
  O  O11  1  0.30995100  0.00166200  0.63322300  1
  O  O12  1  0.54106400  0.25000000  0.92512200  1
  O  O13  1  0.04106400  0.25000000  0.57487800  1
  O  O14  1  0.45893600  0.75000000  0.07487800  1
  O  O15  1  0.95893600  0.75000000  0.42512200  1
  O  O16  1  0.27216600  0.00155400  0.97459500  1
  O  O17  1  0.77216600  0.49844600  0.52540500  1
  O  O18  1  0.72783400  0.50155400  0.02540500  1
  O  O19  1  0.22783400  0.99844600  0.47459500  1
  O  O20  1  0.72783400  0.99844600  0.02540500  1
  O  O21  1  0.22783400  0.50155400  0.47459500  1
  O  O22  1  0.27216600  0.49844600  0.97459500  1
  O  O23  1  0.77216600  0.00155400  0.52540500  1
  O  O24  1  0.16986500  0.75000000  0.84434700  1
  O  O25  1  0.66986500  0.75000000  0.65565300  1
  O  O26  1  0.83013500  0.25000000  0.15565300  1
  O  O27  1  0.33013500  0.25000000  0.34434700  1
  O  O28  1  0.98357100  0.75000000  0.97977000  1
  O  O29  1  0.48357100  0.75000000  0.52023000  1
  O  O30  1  0.01642900  0.25000000  0.02023000  1
  O  O31  1  0.51642900  0.25000000  0.47977000  1
  O  O32  1  0.55888500  0.75000000  0.93802200  1
  O  O33  1  0.05888500  0.75000000  0.56197800  1
  O  O34  1  0.44111500  0.25000000  0.06197800  1
  O  O35  1  0.94111500  0.25000000  0.43802200  1
loop_
_geom_bond_atom_site_label_1
_geom_bond_atom_site_label_2
_geom_bond_distance
_geom_bond_site_symmetry_2
K0 O25 2.672735 1_555
K0 O24 2.709592 1_555
K0 O5 2.981963 1_555
K0 O11 2.981963 1_565
K0 O0 3.058543 1_565
K0 O0 3.058543 1_555
K0 O32 3.093733 1_555
K1 O24 2.672735 1_655
K1 O25 2.709592 1_555
K1 O10 2.981963 1_555
K1 O4 2.981963 1_565
K1 O1 3.058543 1_655
K1 O1 3.058543 1_665
K1 O33 3.093733 1_655
K2 O27 2.672735 1_555
K2 O26 2.709592 1_555
K2 O9 2.981963 1_555
K2 O7 2.981963 1_545
K2 O2 3.058543 1_545
K2 O2 3.058543 1_555
K2 O34 3.093733 1_555
K3 O26 2.672735 1_455
K3 O27 2.709592 1_555
K3 O8 2.981963 1_545
K3 O6 2.981963 1_555
K3 O3 3.058543 1_445
K3 O3 3.058543 1_455
K3 O35 3.093733 1_455
Na0 O0 2.296181 1_555
Na0 O11 2.716557 1_555
Na0 O5 2.716557 1_555
Na0 O31 2.774125 1_555
Na0 O23 2.820931 1_555
Na0 O17 2.820931 1_555
Na0 O25 2.904988 1_555
Na0 O25 2.904988 1_545
Na1 O1 2.296181 1_555
Na1 O4 2.716557 1_455
Na1 O10 2.716557 1_455
Na1 O30 2.774125 1_556
Na1 O22 2.820931 1_555
Na1 O16 2.820931 1_555
Na1 O24 2.904988 1_545
Na1 O24 2.904988 1_555
Na2 O2 2.296181 1_555
Na2 O7 2.716557 1_555
Na2 O9 2.716557 1_555
Na2 O29 2.774125 1_555
Na2 O21 2.820931 1_555
Na2 O19 2.820931 1_555
Na2 O27 2.904988 1_555
Na2 O27 2.904988 1_565
Na3 O3 2.296181 1_555
Na3 O8 2.716557 1_655
Na3 O6 2.716557 1_655
Na3 O28 2.774125 1_554
Na3 O18 2.820931 1_555
Na3 O20 2.820931 1_555
Na3 O26 2.904988 1_555
Na3 O26 2.904988 1_565
Al0 O28 1.839536 1_555
Al0 O32 1.857396 1_555
Al0 O10 1.904687 1_555
Al0 O4 1.904687 1_565
Al0 O20 2.097070 1_556
Al0 O18 2.097070 1_556
Al1 O29 1.839536 1_555
Al1 O33 1.857396 1_555
Al1 O5 1.904687 1_555
Al1 O11 1.904687 1_565
Al1 O21 2.097070 1_555
Al1 O19 2.097070 1_555
Al2 O30 1.839536 1_555
Al2 O34 1.857396 1_555
Al2 O8 1.904687 1_545
Al2 O6 1.904687 1_555
Al2 O22 2.097070 1_554
Al2 O16 2.097070 1_554
Al3 O31 1.839536 1_555
Al3 O35 1.857396 1_555
Al3 O9 1.904687 1_555
Al3 O7 1.904687 1_545
Al3 O17 2.097070 1_555
Al3 O23 2.097070 1_555
Al4 O32 1.835602 1_544
Al4 O34 1.835602 1_555
Al4 O12 1.944076 1_554
Al4 O14 1.944076 1_545
Al4 O16 1.957437 1_554
Al4 O20 1.957437 1_545
Al5 O35 1.835602 1_455
Al5 O33 1.835602 1_555
Al5 O15 1.944076 1_455
Al5 O13 1.944076 1_555
Al5 O17 1.957437 1_455
Al5 O21 1.957437 1_555
Al6 O32 1.835602 1_554
Al6 O34 1.835602 1_555
Al6 O14 1.944076 1_555
Al6 O12 1.944076 1_554
Al6 O22 1.957437 1_554
Al6 O18 1.957437 1_555
Al7 O35 1.835602 1_455
Al7 O33 1.835602 1_545
Al7 O13 1.944076 1_555
Al7 O15 1.944076 1_445
Al7 O23 1.957437 1_455
Al7 O19 1.957437 1_545
As0 O0 1.672166 1_555
As0 O10 1.737903 1_555
As0 O4 1.737903 1_555
As0 O12 1.765960 1_555
As1 O1 1.672166 1_555
As1 O5 1.737903 1_555
As1 O11 1.737903 1_555
As1 O13 1.765960 1_555
As2 O2 1.672166 1_555
As2 O6 1.737903 1_555
As2 O8 1.737903 1_555
As2 O14 1.765960 1_555
As3 O3 1.672166 1_555
As3 O7 1.737903 1_555
As3 O9 1.737903 1_555
As3 O15 1.765960 1_555
As4 O24 1.677100 1_555
As4 O28 1.701363 1_455
As4 O16 1.751445 1_565
As4 O22 1.751445 1_555
As5 O25 1.677100 1_555
As5 O29 1.701363 1_555
As5 O17 1.751445 1_555
As5 O23 1.751445 1_565
As6 O26 1.677100 1_555
As6 O30 1.701363 1_655
As6 O20 1.751445 1_545
As6 O18 1.751445 1_555
As7 O27 1.677100 1_555
As7 O31 1.701363 1_555
As7 O21 1.751445 1_555
As7 O19 1.751445 1_545
