# generated using pymatgen
data_Re4(As2S)3
_symmetry_space_group_name_H-M   'P 1'
_cell_length_a   7.03755294
_cell_length_b   7.03755294
_cell_length_c   7.03755232
_cell_angle_alpha   59.85021489
_cell_angle_beta   59.85021489
_cell_angle_gamma   59.85021878
_symmetry_Int_Tables_number   1
_chemical_formula_structural   Re4(As2S)3
_chemical_formula_sum   'Re4 As6 S3'
_cell_volume   245.62424766
_cell_formula_units_Z   1
loop_
 _symmetry_equiv_pos_site_id
 _symmetry_equiv_pos_as_xyz
  1  'x, y, z'
loop_
 _atom_site_type_symbol
 _atom_site_label
 _atom_site_symmetry_multiplicity
 _atom_site_fract_x
 _atom_site_fract_y
 _atom_site_fract_z
 _atom_site_occupancy
  Re  Re0  1  0.40035991  0.40035991  0.40035991  1
  Re  Re1  1  0.39865976  0.79704328  0.39865976  1
  Re  Re2  1  0.79704328  0.39865976  0.39865976  1
  Re  Re3  1  0.39865976  0.39865976  0.79704328  1
  As  As0  1  0.00005978  0.00005978  0.00005978  1
  As  As1  1  0.14201222  0.14201222  0.14201222  1
  As  As2  1  0.14216470  0.57037130  0.14216470  1
  As  As3  1  0.57037130  0.14216470  0.14216470  1
  As  As4  1  0.14216470  0.14216470  0.57037130  1
  As  As5  1  0.63957972  0.63957972  0.63957972  1
  S  S0  1  0.63121696  0.10649196  0.63121696  1
  S  S1  1  0.10649196  0.63121696  0.63121696  1
  S  S2  1  0.63121696  0.63121696  0.10649196  1
loop_
_geom_bond_atom_site_label_1
_geom_bond_atom_site_label_2
_geom_bond_distance
_geom_bond_site_symmetry_2
Re0 S2 2.336081 1_555
Re0 S0 2.336081 1_555
Re0 S1 2.336081 1_555
Re1 S2 2.319403 1_555
Re1 S1 2.319403 1_555
Re2 S2 2.319403 1_555
Re2 S0 2.319403 1_555
Re3 S0 2.319403 1_555
Re3 S1 2.319403 1_555
As0 As1 2.449801 1_555
As0 As4 2.464457 1_554
As0 As3 2.464458 1_455
As0 As2 2.464458 1_545
As1 Re3 2.624106 1_554
As1 Re1 2.624106 1_545
As1 Re2 2.624106 1_455
As2 Re3 2.640235 1_554
As2 Re2 2.640235 1_455
As2 Re0 2.642695 1_555
As3 Re3 2.640235 1_554
As3 Re1 2.640235 1_545
As3 Re0 2.642695 1_555
As4 Re1 2.640236 1_545
As4 Re2 2.640236 1_455
As4 Re0 2.642696 1_555
As5 Re1 2.467856 1_555
As5 Re2 2.467856 1_555
As5 Re3 2.467856 1_555
