# generated using pymatgen
data_Nb5(PPd)4
_symmetry_space_group_name_H-M   'P 1'
_cell_length_a   7.61527235
_cell_length_b   7.61527235
_cell_length_c   7.61527235
_cell_angle_alpha   93.28350677
_cell_angle_beta   93.28350677
_cell_angle_gamma   152.30654485
_symmetry_Int_Tables_number   1
_chemical_formula_structural   Nb5(PPd)4
_chemical_formula_sum   'Nb5 P4 Pd4'
_cell_volume   199.27799857
_cell_formula_units_Z   1
loop_
 _symmetry_equiv_pos_site_id
 _symmetry_equiv_pos_as_xyz
  1  'x, y, z'
loop_
 _atom_site_type_symbol
 _atom_site_label
 _atom_site_symmetry_multiplicity
 _atom_site_fract_x
 _atom_site_fract_y
 _atom_site_fract_z
 _atom_site_occupancy
  Nb  Nb0  1  0.68735200  0.62266600  0.31001800  1
  Nb  Nb1  1  0.31264800  0.37733400  0.68998200  1
  Nb  Nb2  1  0.00000000  0.00000000  0.00000000  1
  Nb  Nb3  1  0.62266600  0.31264800  0.93531400  1
  Nb  Nb4  1  0.37733400  0.68735200  0.06468600  1
  P  P0  1  0.75700000  0.05909400  0.81609400  1
  P  P1  1  0.24300000  0.94090600  0.18390600  1
  P  P2  1  0.94090600  0.75700000  0.69790500  1
  P  P3  1  0.05909400  0.24300000  0.30209500  1
  Pd  Pd0  1  0.88434400  0.40442900  0.28877300  1
  Pd  Pd1  1  0.59557100  0.88434400  0.47991400  1
  Pd  Pd2  1  0.11565600  0.59557100  0.71122700  1
  Pd  Pd3  1  0.40442900  0.11565600  0.52008600  1
loop_
_geom_bond_atom_site_label_1
_geom_bond_atom_site_label_2
_geom_bond_distance
_geom_bond_site_symmetry_2
Nb0 P3 2.589127 1_665
Nb0 P3 2.589129 1_555
Nb0 P1 2.696755 1_655
Nb0 P1 2.696755 1_545
Nb0 Pd1 2.899698 1_555
Nb0 Pd3 2.911947 1_665
Nb0 Pd3 2.911949 1_555
Nb0 P2 3.000437 1_555
Nb0 Pd0 3.074206 1_555
Nb1 P2 2.589127 1_445
Nb1 P2 2.589129 1_555
Nb1 P0 2.696755 1_455
Nb1 P0 2.696755 1_565
Nb1 Pd3 2.899698 1_555
Nb1 Pd1 2.911947 1_445
Nb1 Pd1 2.911949 1_555
Nb1 P3 3.000437 1_555
Nb1 Pd2 3.074206 1_555
Nb2 P0 2.615022 1_454
Nb2 P1 2.615022 1_545
Nb2 P2 2.615028 1_444
Nb2 P3 2.615028 1_555
Nb3 P1 2.589128 1_546
Nb3 P1 2.589128 1_656
Nb3 P2 2.696759 1_445
Nb3 P2 2.696761 1_555
Nb3 Pd0 2.899701 1_556
Nb3 Pd2 2.911944 1_545
Nb3 Pd2 2.911944 1_655
Nb3 P0 3.000444 1_555
Nb3 Pd3 3.074199 1_555
Nb4 P0 2.589128 1_564
Nb4 P0 2.589128 1_454
Nb4 P3 2.696759 1_665
Nb4 P3 2.696761 1_555
Nb4 Pd2 2.899701 1_554
Nb4 Pd0 2.911944 1_565
Nb4 Pd0 2.911944 1_455
Nb4 P1 3.000444 1_555
Nb4 Pd1 3.074199 1_555
P0 Pd2 2.377296 1_545
P0 Pd2 2.377296 1_655
P0 Pd1 2.487655 1_545
P1 Pd0 2.377296 1_455
P1 Pd0 2.377296 1_565
P1 Pd3 2.487655 1_565
P2 Pd3 2.377285 1_665
P2 Pd3 2.377290 1_555
P2 Pd2 2.487648 1_655
P3 Pd1 2.377285 1_445
P3 Pd1 2.377290 1_555
P3 Pd0 2.487648 1_455
Pd0 Pd1 2.871265 1_545
Pd0 Pd1 2.871268 1_655
Pd0 Pd3 2.871273 1_665
Pd0 Pd3 2.871276 1_555
Pd0 Pd2 3.137701 1_655
Pd1 Pd2 2.871273 1_665
Pd1 Pd2 2.871276 1_555
Pd1 Pd3 3.137702 1_565
Pd2 Pd3 2.871265 1_565
Pd2 Pd3 2.871268 1_455
