# generated using pymatgen
data_In(Cu3O4)2
_symmetry_space_group_name_H-M   'P 1'
_cell_length_a   6.48022127
_cell_length_b   6.46185468
_cell_length_c   6.46175792
_cell_angle_alpha   60.00576149
_cell_angle_beta   60.09907633
_cell_angle_gamma   60.09993307
_symmetry_Int_Tables_number   1
_chemical_formula_structural   In(Cu3O4)2
_chemical_formula_sum   'In1 Cu6 O8'
_cell_volume   191.62546482
_cell_formula_units_Z   1
loop_
 _symmetry_equiv_pos_site_id
 _symmetry_equiv_pos_as_xyz
  1  'x, y, z'
loop_
 _atom_site_type_symbol
 _atom_site_label
 _atom_site_symmetry_multiplicity
 _atom_site_fract_x
 _atom_site_fract_y
 _atom_site_fract_z
 _atom_site_occupancy
  In  In0  1  -0.00000000  -0.00000000  0.00000000  1
  Cu  Cu0  1  -0.00000000  -0.00000000  0.50000000  1
  Cu  Cu1  1  0.50000000  -0.00000000  0.00000000  1
  Cu  Cu2  1  -0.00000000  0.50000000  0.00000000  1
  Cu  Cu3  1  0.50000000  0.50000000  0.00000000  1
  Cu  Cu4  1  -0.00000000  0.50000000  0.50000000  1
  Cu  Cu5  1  0.50000000  -0.00000000  0.50000000  1
  O  O0  1  0.14064864  0.14436634  0.57064378  1
  O  O1  1  0.14064171  0.57064474  0.14436597  1
  O  O2  1  0.57755477  0.14082037  0.14083002  1
  O  O3  1  0.85935829  0.42935526  0.85563403  1
  O  O4  1  0.14063141  0.14436688  0.14435890  1
  O  O5  1  0.85936859  0.85563312  0.85564110  1
  O  O6  1  0.85935136  0.85563366  0.42935622  1
  O  O7  1  0.42244523  0.85917963  0.85916998  1
loop_
_geom_bond_atom_site_label_1
_geom_bond_atom_site_label_2
_geom_bond_distance
_geom_bond_site_symmetry_2
In0 O2 2.238515 1_455
In0 O7 2.238515 1_544
In0 O4 2.266293 1_555
In0 O5 2.266293 1_444
In0 O0 2.266519 1_554
In0 O6 2.266519 1_445
In0 O1 2.266568 1_545
In0 O3 2.266568 1_454
Cu0 O6 1.896735 1_445
Cu0 O0 1.896735 1_555
Cu0 O5 1.896844 1_445
Cu0 O4 1.896844 1_555
Cu1 O2 1.910122 1_555
Cu1 O7 1.910122 1_544
Cu1 O4 1.924053 1_555
Cu1 O5 1.924053 1_544
Cu2 O3 1.896695 1_454
Cu2 O1 1.896695 1_555
Cu2 O4 1.896843 1_555
Cu2 O5 1.896843 1_454
Cu3 O2 1.910208 1_555
Cu3 O7 1.910208 1_554
Cu3 O3 1.923962 1_554
Cu3 O1 1.923962 1_555
Cu4 O1 1.896770 1_555
Cu4 O3 1.896770 1_455
Cu4 O0 1.896816 1_555
Cu4 O6 1.896816 1_455
Cu5 O2 1.910115 1_555
Cu5 O7 1.910115 1_545
Cu5 O0 1.923933 1_555
Cu5 O6 1.923933 1_545
