# generated using pymatgen
data_Er9B5S21
_symmetry_space_group_name_H-M   'P 1'
_cell_length_a   11.14217165
_cell_length_b   11.14217165
_cell_length_c   11.14217184
_cell_angle_alpha   96.05357183
_cell_angle_beta   96.05357183
_cell_angle_gamma   96.05357492
_symmetry_Int_Tables_number   1
_chemical_formula_structural   Er9B5S21
_chemical_formula_sum   'Er18 B10 S42'
_cell_volume   1358.35522353
_cell_formula_units_Z   2
loop_
 _symmetry_equiv_pos_site_id
 _symmetry_equiv_pos_as_xyz
  1  'x, y, z'
loop_
 _atom_site_type_symbol
 _atom_site_label
 _atom_site_symmetry_multiplicity
 _atom_site_fract_x
 _atom_site_fract_y
 _atom_site_fract_z
 _atom_site_occupancy
  Er  Er0  1  0.91928200  0.53027000  0.77211600  1
  Er  Er1  1  0.54645600  0.19457900  0.43234400  1
  Er  Er2  1  0.21945900  0.83479400  0.08549200  1
  Er  Er3  1  0.19457900  0.43234400  0.54645600  1
  Er  Er4  1  0.83479400  0.08549200  0.21945900  1
  Er  Er5  1  0.53027000  0.77211600  0.91928200  1
  Er  Er6  1  0.08549200  0.21945900  0.83479400  1
  Er  Er7  1  0.77211600  0.91928200  0.53027000  1
  Er  Er8  1  0.43234400  0.54645600  0.19457900  1
  Er  Er9  1  0.73338300  0.08610300  0.85614400  1
  Er  Er10  1  0.37311400  0.75853500  0.50742700  1
  Er  Er11  1  0.06561400  0.45303400  0.20036600  1
  Er  Er12  1  0.45303400  0.20036600  0.06561400  1
  Er  Er13  1  0.08610300  0.85614400  0.73338300  1
  Er  Er14  1  0.75853500  0.50742700  0.37311400  1
  Er  Er15  1  0.50742700  0.37311400  0.75853500  1
  Er  Er16  1  0.20036600  0.06561400  0.45303400  1
  Er  Er17  1  0.85614400  0.73338300  0.08610300  1
  B  B0  1  0.75927500  0.41908000  0.07907400  1
  B  B1  1  0.41908000  0.07907400  0.75927500  1
  B  B2  1  0.07907400  0.75927500  0.41908000  1
  B  B3  1  0.58120000  0.91373900  0.26287200  1
  B  B4  1  0.26287200  0.58120000  0.91373900  1
  B  B5  1  0.91373900  0.26287200  0.58120000  1
  B  B6  1  0.04285900  0.04285900  0.04285900  1
  B  B7  1  0.73085000  0.73085000  0.73085000  1
  B  B8  1  0.22888400  0.22888400  0.22888400  1
  B  B9  1  0.54423400  0.54423400  0.54423400  1
  S  S0  1  0.96575900  0.64993200  0.30386600  1
  S  S1  1  0.64993200  0.30386600  0.96575900  1
  S  S2  1  0.30386600  0.96575900  0.64993200  1
  S  S3  1  0.46767600  0.79923500  0.15284000  1
  S  S4  1  0.15284000  0.46767600  0.79923500  1
  S  S5  1  0.79923500  0.15284000  0.46767600  1
  S  S6  1  0.53959400  0.35890900  0.27154700  1
  S  S7  1  0.16931000  0.02661500  0.95210800  1
  S  S8  1  0.84765700  0.70752400  0.62971900  1
  S  S9  1  0.70752400  0.62971900  0.84765700  1
  S  S10  1  0.35890900  0.27154700  0.53959400  1
  S  S11  1  0.02661500  0.95210800  0.16931000  1
  S  S12  1  0.95210800  0.16931000  0.02661500  1
  S  S13  1  0.62971900  0.84765700  0.70752400  1
  S  S14  1  0.27154700  0.53959400  0.35890900  1
  S  S15  1  0.74270400  0.91813300  0.01125600  1
  S  S16  1  0.43032400  0.57254800  0.64802800  1
  S  S17  1  0.10586400  0.25171300  0.32224500  1
  S  S18  1  0.57254800  0.64802800  0.43032400  1
  S  S19  1  0.25171300  0.32224500  0.10586400  1
  S  S20  1  0.91813300  0.01125600  0.74270400  1
  S  S21  1  0.32224500  0.10586400  0.25171300  1
  S  S22  1  0.01125600  0.74270400  0.91813300  1
  S  S23  1  0.64802800  0.43032400  0.57254800  1
  S  S24  1  0.68436600  0.56184200  0.14081500  1
  S  S25  1  0.34229400  0.21697400  0.82961400  1
  S  S26  1  0.01185300  0.90127700  0.48593900  1
  S  S27  1  0.90127700  0.48593900  0.01185300  1
  S  S28  1  0.56184200  0.14081500  0.68436600  1
  S  S29  1  0.21697400  0.82961400  0.34229400  1
  S  S30  1  0.82961400  0.34229400  0.21697400  1
  S  S31  1  0.48593900  0.01185300  0.90127700  1
  S  S32  1  0.14081500  0.68436600  0.56184200  1
  S  S33  1  0.74335300  0.86169900  0.28732100  1
  S  S34  1  0.42430400  0.52971200  0.94272800  1
  S  S35  1  0.07642000  0.21205300  0.59772500  1
  S  S36  1  0.52971200  0.94272800  0.42430400  1
  S  S37  1  0.21205300  0.59772500  0.07642000  1
  S  S38  1  0.86169900  0.28732100  0.74335300  1
  S  S39  1  0.59772500  0.07642000  0.21205300  1
  S  S40  1  0.28732100  0.74335300  0.86169900  1
  S  S41  1  0.94272800  0.42430400  0.52971200  1
loop_
_geom_bond_atom_site_label_1
_geom_bond_atom_site_label_2
_geom_bond_distance
_geom_bond_site_symmetry_2
Er0 S38 2.692477 1_555
Er0 S4 2.758860 1_655
Er0 S22 2.761201 1_655
Er0 S8 2.789467 1_555
Er0 S27 2.791039 1_556
Er0 S9 2.876949 1_555
Er0 S41 2.880703 1_555
Er1 S10 2.686777 1_555
Er1 S6 2.694596 1_555
Er1 S36 2.783961 1_545
Er1 S39 2.803048 1_555
Er1 S5 2.895686 1_555
Er1 S28 2.923772 1_555
Er1 S23 2.958963 1_555
Er1 S21 3.044307 1_555
Er2 S37 2.624940 1_555
Er2 S7 2.799239 1_564
Er2 S40 2.802115 1_554
Er2 S11 2.820615 1_555
Er2 S22 2.844946 1_554
Er2 S3 2.867951 1_555
Er2 S29 2.870980 1_555
Er2 S21 3.392234 1_565
Er3 S14 2.686777 1_555
Er3 S10 2.694596 1_555
Er3 S41 2.783961 1_455
Er3 S35 2.803048 1_555
Er3 S4 2.895686 1_555
Er3 S32 2.923772 1_555
Er3 S16 2.958963 1_555
Er3 S17 3.044307 1_555
Er4 S39 2.624940 1_555
Er4 S11 2.799239 1_645
Er4 S33 2.802115 1_545
Er4 S12 2.820615 1_555
Er4 S15 2.844946 1_545
Er4 S5 2.867951 1_555
Er4 S30 2.870980 1_555
Er4 S17 3.392234 1_655
Er5 S40 2.692477 1_555
Er5 S3 2.758860 1_556
Er5 S15 2.761201 1_556
Er5 S9 2.789468 1_555
Er5 S31 2.791039 1_565
Er5 S13 2.876949 1_555
Er5 S34 2.880703 1_555
Er6 S35 2.624940 1_555
Er6 S12 2.799239 1_456
Er6 S38 2.802115 1_455
Er6 S7 2.820615 1_555
Er6 S20 2.844946 1_455
Er6 S4 2.867951 1_555
Er6 S25 2.870980 1_555
Er6 S19 3.392234 1_556
Er7 S33 2.692477 1_555
Er7 S5 2.758860 1_565
Er7 S20 2.761201 1_565
Er7 S13 2.789467 1_555
Er7 S26 2.791039 1_655
Er7 S8 2.876949 1_555
Er7 S36 2.880703 1_555
Er8 S6 2.686777 1_555
Er8 S14 2.694596 1_555
Er8 S34 2.783961 1_554
Er8 S37 2.803048 1_555
Er8 S3 2.895686 1_555
Er8 S24 2.923772 1_555
Er8 S18 2.958963 1_555
Er8 S19 3.044307 1_555
Er9 S15 2.680638 1_546
Er9 S20 2.686844 1_555
Er9 S28 2.721842 1_555
Er9 S1 2.886831 1_555
Er9 S31 2.904792 1_555
Er9 S12 2.929561 1_556
Er9 S38 2.991194 1_555
Er9 S13 3.025940 1_545
Er10 S29 2.638579 1_555
Er10 S32 2.781266 1_555
Er10 S16 2.812067 1_555
Er10 S18 2.819324 1_555
Er10 S36 2.846175 1_555
Er10 S14 2.853321 1_555
Er10 S2 2.882449 1_555
Er10 S13 3.423625 1_555
Er11 S27 2.718810 1_455
Er11 S37 2.749302 1_555
Er11 S0 2.762732 1_455
Er11 S14 2.763089 1_555
Er11 S17 2.793428 1_555
Er11 S30 2.817395 1_455
Er11 S19 2.882041 1_555
Er12 S31 2.718810 1_554
Er12 S39 2.749302 1_555
Er12 S1 2.762732 1_554
Er12 S6 2.763089 1_555
Er12 S19 2.793428 1_555
Er12 S25 2.817395 1_554
Er12 S21 2.882041 1_555
Er13 S20 2.680638 1_465
Er13 S22 2.686844 1_555
Er13 S32 2.721842 1_555
Er13 S2 2.886831 1_555
Er13 S26 2.904792 1_555
Er13 S7 2.929561 1_565
Er13 S40 2.991194 1_555
Er13 S8 3.025940 1_455
Er14 S30 2.638579 1_555
Er14 S24 2.781266 1_555
Er14 S18 2.812067 1_555
Er14 S23 2.819324 1_555
Er14 S41 2.846175 1_555
Er14 S6 2.853321 1_555
Er14 S0 2.882449 1_555
Er14 S8 3.423625 1_555
Er15 S25 2.638579 1_555
Er15 S28 2.781266 1_555
Er15 S23 2.812067 1_555
Er15 S16 2.819324 1_555
Er15 S34 2.846175 1_555
Er15 S10 2.853322 1_555
Er15 S1 2.882449 1_555
Er15 S9 3.423625 1_555
Er16 S26 2.718810 1_545
Er16 S35 2.749302 1_555
Er16 S2 2.762732 1_545
Er16 S10 2.763089 1_555
Er16 S21 2.793428 1_555
Er16 S29 2.817395 1_545
Er16 S17 2.882041 1_555
Er17 S22 2.680638 1_654
Er17 S15 2.686844 1_555
Er17 S24 2.721841 1_555
Er17 S0 2.886831 1_555
Er17 S27 2.904792 1_555
Er17 S11 2.929561 1_655
Er17 S33 2.991194 1_555
Er17 S9 3.025940 1_554
B0 S1 1.931374 1_554
B0 S27 1.933484 1_555
B0 S24 1.967352 1_555
B0 S30 1.967682 1_555
B1 S2 1.931374 1_545
B1 S31 1.933484 1_555
B1 S28 1.967352 1_555
B1 S25 1.967682 1_555
B2 S0 1.931374 1_455
B2 S26 1.933484 1_555
B2 S32 1.967352 1_555
B2 S29 1.967682 1_555
B3 S3 1.932203 1_555
B3 S36 1.950120 1_555
B3 S39 1.951458 1_565
B3 S33 1.955808 1_555
B4 S4 1.932203 1_555
B4 S34 1.950120 1_555
B4 S37 1.951458 1_556
B4 S40 1.955808 1_555
B5 S5 1.932203 1_555
B5 S41 1.950120 1_555
B5 S35 1.951458 1_655
B5 S38 1.955808 1_555
B6 S11 1.831936 1_545
B6 S7 1.831936 1_554
B6 S12 1.831936 1_455
B7 S9 1.830306 1_555
B7 S8 1.830306 1_555
B7 S13 1.830306 1_555
B8 S19 1.828695 1_555
B8 S17 1.828695 1_555
B8 S21 1.828695 1_555
B9 S18 1.834385 1_555
B9 S16 1.834385 1_555
B9 S23 1.834385 1_555
