# generated using pymatgen
data_Rb
_symmetry_space_group_name_H-M   'P 1'
_cell_length_a   12.37205786
_cell_length_b   19.88278733
_cell_length_c   19.88278992
_cell_angle_alpha   84.36508913
_cell_angle_beta   71.73523422
_cell_angle_gamma   71.73523473
_symmetry_Int_Tables_number   1
_chemical_formula_structural   Rb
_chemical_formula_sum   Rb8
_cell_volume   4410.57047884
_cell_formula_units_Z   8
loop_
 _symmetry_equiv_pos_site_id
 _symmetry_equiv_pos_as_xyz
  1  'x, y, z'
loop_
 _atom_site_type_symbol
 _atom_site_label
 _atom_site_symmetry_multiplicity
 _atom_site_fract_x
 _atom_site_fract_y
 _atom_site_fract_z
 _atom_site_occupancy
  Rb  Rb0  1  0.78959191  0.29694697  0.12375029  1
  Rb  Rb1  1  0.91340383  0.87624142  0.29696197  1
  Rb  Rb2  1  0.78959191  0.12375029  0.29694697  1
  Rb  Rb3  1  0.21040809  0.70305303  0.87624971  1
  Rb  Rb4  1  0.21040809  0.87624971  0.70305303  1
  Rb  Rb5  1  0.91340383  0.29696197  0.87624142  1
  Rb  Rb6  1  0.08659617  0.12375858  0.70303803  1
  Rb  Rb7  1  0.08659617  0.70303803  0.12375858  1
loop_
_geom_bond_atom_site_label_1
_geom_bond_atom_site_label_2
_geom_bond_distance
_geom_bond_site_symmetry_2
Rb0 Rb2 4.624764 1_555
Rb0 Rb5 4.673242 1_554
Rb1 Rb7 4.624787 1_655
Rb1 Rb2 4.673242 1_565
Rb3 Rb4 4.624764 1_555
Rb3 Rb7 4.673242 1_556
Rb4 Rb6 4.673242 1_565
Rb5 Rb6 4.624787 1_655
