# generated using pymatgen
data_Ca3Hg2
_symmetry_space_group_name_H-M   'P 1'
_cell_length_a   4.16472509
_cell_length_b   8.53331989
_cell_length_c   8.53331989
_cell_angle_alpha   90.00000000
_cell_angle_beta   90.00000000
_cell_angle_gamma   90.00000000
_symmetry_Int_Tables_number   1
_chemical_formula_structural   Ca3Hg2
_chemical_formula_sum   'Ca6 Hg4'
_cell_volume   303.26507058
_cell_formula_units_Z   2
loop_
 _symmetry_equiv_pos_site_id
 _symmetry_equiv_pos_as_xyz
  1  'x, y, z'
loop_
 _atom_site_type_symbol
 _atom_site_label
 _atom_site_symmetry_multiplicity
 _atom_site_fract_x
 _atom_site_fract_y
 _atom_site_fract_z
 _atom_site_occupancy
  Ca  Ca0  1  -0.00000000  -0.00000000  -0.00000000  1
  Ca  Ca1  1  -0.00000000  0.50000000  0.50000000  1
  Ca  Ca2  1  0.50000000  0.15577614  0.65577614  1
  Ca  Ca3  1  0.50000000  0.34422386  0.15577614  1
  Ca  Ca4  1  0.50000000  0.65577614  0.84422386  1
  Ca  Ca5  1  0.50000000  0.84422386  0.34422386  1
  Hg  Hg0  1  -0.00000000  0.35916201  0.85916201  1
  Hg  Hg1  1  0.00000000  0.14083799  0.35916201  1
  Hg  Hg2  1  -0.00000000  0.85916201  0.64083799  1
  Hg  Hg3  1  0.00000000  0.64083799  0.14083799  1
loop_
_geom_bond_atom_site_label_1
_geom_bond_atom_site_label_2
_geom_bond_distance
_geom_bond_site_symmetry_2
Ca0 Hg1 3.292056 1_555
Ca0 Hg0 3.292056 1_554
Ca0 Hg2 3.292056 1_544
Ca0 Hg3 3.292056 1_545
Ca1 Hg3 3.292056 1_555
Ca1 Hg2 3.292056 1_555
Ca1 Hg0 3.292056 1_555
Ca1 Hg1 3.292056 1_555
Ca2 Hg0 3.218780 1_555
Ca2 Hg0 3.218780 1_655
Ca2 Hg2 3.280086 1_645
Ca2 Hg1 3.280086 1_655
Ca2 Hg2 3.280086 1_545
Ca2 Hg1 3.280086 1_555
Ca3 Hg1 3.218780 1_555
Ca3 Hg1 3.218780 1_655
Ca3 Hg3 3.280086 1_655
Ca3 Hg3 3.280086 1_555
Ca3 Hg0 3.280086 1_554
Ca3 Hg0 3.280086 1_654
Ca4 Hg2 3.218780 1_555
Ca4 Hg2 3.218780 1_655
Ca4 Hg0 3.280086 1_555
Ca4 Hg0 3.280086 1_655
Ca4 Hg3 3.280086 1_556
Ca4 Hg3 3.280086 1_656
Ca5 Hg3 3.218780 1_655
Ca5 Hg3 3.218780 1_555
Ca5 Hg2 3.280086 1_555
Ca5 Hg2 3.280086 1_655
Ca5 Hg1 3.280086 1_565
Ca5 Hg1 3.280086 1_665
