# generated using pymatgen
data_Nd2FeSb4
_symmetry_space_group_name_H-M   'P 1'
_cell_length_a   4.43058900
_cell_length_b   4.43058900
_cell_length_c   9.59720000
_cell_angle_alpha   90.00000000
_cell_angle_beta   90.00000000
_cell_angle_gamma   90.00000000
_symmetry_Int_Tables_number   1
_chemical_formula_structural   Nd2FeSb4
_chemical_formula_sum   'Nd2 Fe1 Sb4'
_cell_volume   188.39417698
_cell_formula_units_Z   1
loop_
 _symmetry_equiv_pos_site_id
 _symmetry_equiv_pos_as_xyz
  1  'x, y, z'
loop_
 _atom_site_type_symbol
 _atom_site_label
 _atom_site_symmetry_multiplicity
 _atom_site_fract_x
 _atom_site_fract_y
 _atom_site_fract_z
 _atom_site_occupancy
  Nd  Nd0  1  0.00000000  0.50000000  0.23843700  1
  Nd  Nd1  1  0.50000000  0.00000000  0.76156300  1
  Fe  Fe0  1  0.50000000  0.50000000  0.00000000  1
  Sb  Sb0  1  0.00000000  0.50000000  0.87603200  1
  Sb  Sb1  1  0.50000000  0.00000000  0.12396800  1
  Sb  Sb2  1  0.50000000  0.50000000  0.50000000  1
  Sb  Sb3  1  0.00000000  0.00000000  0.50000000  1
loop_
_geom_bond_atom_site_label_1
_geom_bond_atom_site_label_2
_geom_bond_distance
_geom_bond_site_symmetry_2
Nd0 Sb1 3.319931 1_555
Nd0 Sb1 3.319931 1_565
Nd0 Sb1 3.319931 1_465
Nd0 Sb1 3.319931 1_455
Nd0 Sb2 3.347984 1_555
Nd0 Sb3 3.347984 1_555
Nd0 Sb3 3.347984 1_565
Nd0 Sb2 3.347984 1_455
Nd0 Sb0 3.478073 1_554
Nd1 Sb0 3.319931 1_655
Nd1 Sb0 3.319931 1_545
Nd1 Sb0 3.319931 1_645
Nd1 Sb0 3.319931 1_555
Nd1 Sb2 3.347984 1_555
Nd1 Sb2 3.347984 1_545
Nd1 Sb3 3.347984 1_655
Nd1 Sb3 3.347984 1_555
Nd1 Sb1 3.478073 1_556
Fe0 Sb1 2.514562 1_565
Fe0 Sb1 2.514562 1_555
Fe0 Sb0 2.514562 1_554
Fe0 Sb0 2.514562 1_654
Fe0 Nd0 3.184960 1_555
Fe0 Nd0 3.184960 1_655
Fe0 Nd1 3.184960 1_564
Fe0 Nd1 3.184960 1_554
Sb2 Sb3 3.132900 1_565
Sb2 Sb3 3.132900 1_655
Sb2 Sb3 3.132900 1_665
Sb2 Sb3 3.132900 1_555
