# generated using pymatgen
data_Ba3FeRu2O9
_symmetry_space_group_name_H-M   'P 1'
_cell_length_a   5.80262864
_cell_length_b   5.80262864
_cell_length_c   14.20295400
_cell_angle_alpha   90.00000000
_cell_angle_beta   90.00000000
_cell_angle_gamma   120.00000734
_symmetry_Int_Tables_number   1
_chemical_formula_structural   Ba3FeRu2O9
_chemical_formula_sum   'Ba6 Fe2 Ru4 O18'
_cell_volume   414.15111512
_cell_formula_units_Z   2
loop_
 _symmetry_equiv_pos_site_id
 _symmetry_equiv_pos_as_xyz
  1  'x, y, z'
loop_
 _atom_site_type_symbol
 _atom_site_label
 _atom_site_symmetry_multiplicity
 _atom_site_fract_x
 _atom_site_fract_y
 _atom_site_fract_z
 _atom_site_occupancy
  Ba  Ba0  1  0.66666700  0.33333300  0.59276600  1
  Ba  Ba1  1  0.33333300  0.66666700  0.40589700  1
  Ba  Ba2  1  0.33333300  0.66666700  0.09276600  1
  Ba  Ba3  1  0.66666700  0.33333300  0.90589700  1
  Ba  Ba4  1  0.00000000  0.00000000  0.75256600  1
  Ba  Ba5  1  0.00000000  0.00000000  0.25256600  1
  Fe  Fe0  1  0.66666700  0.33333300  0.34891700  1
  Fe  Fe1  1  0.33333300  0.66666700  0.84891700  1
  Ru  Ru0  1  0.00000000  0.00000000  0.50257300  1
  Ru  Ru1  1  0.00000000  0.00000000  0.00257300  1
  Ru  Ru2  1  0.33333300  0.66666700  0.65688700  1
  Ru  Ru3  1  0.66666700  0.33333300  0.15688700  1
  O  O0  1  0.48533800  0.97067600  0.74650500  1
  O  O1  1  0.48533800  0.51466200  0.74650500  1
  O  O2  1  0.02932400  0.51466200  0.74650500  1
  O  O3  1  0.51466200  0.02932400  0.24650500  1
  O  O4  1  0.51466200  0.48533800  0.24650500  1
  O  O5  1  0.97067600  0.48533800  0.24650500  1
  O  O6  1  0.16558000  0.33116100  0.58002200  1
  O  O7  1  0.16558000  0.83442000  0.58002200  1
  O  O8  1  0.66883900  0.83442000  0.58002200  1
  O  O9  1  0.83742800  0.67485700  0.42027800  1
  O  O10  1  0.83742800  0.16257200  0.42027800  1
  O  O11  1  0.32514300  0.16257200  0.42027800  1
  O  O12  1  0.83442000  0.66883900  0.08002200  1
  O  O13  1  0.83442000  0.16558000  0.08002200  1
  O  O14  1  0.33116100  0.16558000  0.08002200  1
  O  O15  1  0.16257200  0.32514300  0.92027800  1
  O  O16  1  0.16257200  0.83742800  0.92027800  1
  O  O17  1  0.67485700  0.83742800  0.92027800  1
loop_
_geom_bond_atom_site_label_1
_geom_bond_atom_site_label_2
_geom_bond_distance
_geom_bond_site_symmetry_2
Ba0 O2 2.844142 1_655
Ba0 O0 2.844142 1_545
Ba0 O1 2.844145 1_555
Ba0 O8 2.906970 1_545
Ba0 O6 2.906970 1_655
Ba0 O7 2.906975 1_545
Ba0 O7 2.906975 1_655
Ba0 O6 2.906981 1_555
Ba0 O8 2.906981 1_555
Ba0 O10 2.991177 1_555
Ba0 O11 2.991182 1_555
Ba0 O9 2.991182 1_555
Ba1 O3 2.906238 1_565
Ba1 O5 2.906238 1_455
Ba1 O4 2.906241 1_555
Ba1 O10 2.908786 1_565
Ba1 O10 2.908786 1_455
Ba1 O11 2.908786 1_555
Ba1 O9 2.908786 1_555
Ba1 O11 2.908786 1_565
Ba1 O9 2.908786 1_455
Ba1 O8 2.993116 1_555
Ba1 O6 2.993116 1_555
Ba1 O7 2.993116 1_555
Ba2 O3 2.844142 1_565
Ba2 O5 2.844142 1_455
Ba2 O4 2.844145 1_555
Ba2 O12 2.906970 1_455
Ba2 O14 2.906970 1_565
Ba2 O13 2.906975 1_455
Ba2 O13 2.906975 1_565
Ba2 O14 2.906981 1_555
Ba2 O12 2.906981 1_555
Ba2 O16 2.991177 1_554
Ba2 O15 2.991182 1_554
Ba2 O17 2.991182 1_554
Ba3 O2 2.906238 1_655
Ba3 O0 2.906238 1_545
Ba3 O1 2.906241 1_555
Ba3 O16 2.908786 1_655
Ba3 O16 2.908786 1_545
Ba3 O15 2.908786 1_555
Ba3 O17 2.908786 1_555
Ba3 O15 2.908786 1_655
Ba3 O17 2.908786 1_545
Ba3 O14 2.993116 1_556
Ba3 O12 2.993116 1_556
Ba3 O13 2.993116 1_556
Ba4 O17 2.888535 1_445
Ba4 O15 2.888535 1_555
Ba4 O16 2.888538 1_545
Ba4 O1 2.906329 1_555
Ba4 O1 2.906329 1_445
Ba4 O0 2.906329 1_445
Ba4 O2 2.906329 1_555
Ba4 O0 2.906329 1_545
Ba4 O2 2.906329 1_545
Ba4 O7 2.962265 1_545
Ba4 O6 2.962268 1_555
Ba4 O8 2.962268 1_445
Ba5 O9 2.888535 1_445
Ba5 O11 2.888535 1_555
Ba5 O10 2.888538 1_455
Ba5 O4 2.906329 1_555
Ba5 O4 2.906329 1_445
Ba5 O3 2.906329 1_555
Ba5 O5 2.906329 1_445
Ba5 O5 2.906329 1_455
Ba5 O3 2.906329 1_455
Ba5 O13 2.962265 1_455
Ba5 O12 2.962268 1_445
Ba5 O14 2.962268 1_555
Fe0 O10 1.993159 1_555
Fe0 O11 1.993168 1_555
Fe0 O9 1.993168 1_555
Fe0 O5 2.109415 1_555
Fe0 O3 2.109415 1_555
Fe0 O4 2.109419 1_555
Fe1 O16 1.993159 1_555
Fe1 O15 1.993168 1_555
Fe1 O17 1.993168 1_555
Fe1 O0 2.109415 1_555
Fe1 O2 2.109415 1_555
Fe1 O1 2.109419 1_555
O0 Ru2 1.988474 1_555
O1 Ru2 1.988478 1_555
O2 Ru2 1.988474 1_555
O3 Ru3 1.988474 1_555
O4 Ru3 1.988478 1_555
O5 Ru3 1.988474 1_555
O6 Ru0 1.994851 1_555
O6 Ru2 2.008582 1_555
O7 Ru0 1.994847 1_565
O7 Ru2 2.008582 1_555
O8 Ru0 1.994851 1_665
O8 Ru2 2.008582 1_555
O9 Ru0 2.008943 1_665
O10 Ru0 2.008947 1_655
O11 Ru0 2.008943 1_555
O12 Ru1 1.994851 1_665
O12 Ru3 2.008582 1_555
O13 Ru1 1.994847 1_655
O13 Ru3 2.008582 1_555
O14 Ru1 1.994851 1_555
O14 Ru3 2.008582 1_555
O15 Ru1 2.008943 1_556
O16 Ru1 2.008947 1_566
O17 Ru1 2.008943 1_666
