# generated using pymatgen
data_Ba2YCuO5
_symmetry_space_group_name_H-M   'P 1'
_cell_length_a   6.03843500
_cell_length_b   6.03843500
_cell_length_c   7.99082800
_cell_angle_alpha   90.00000000
_cell_angle_beta   90.00000000
_cell_angle_gamma   90.00000000
_symmetry_Int_Tables_number   1
_chemical_formula_structural   Ba2YCuO5
_chemical_formula_sum   'Ba4 Y2 Cu2 O10'
_cell_volume   291.36714213
_cell_formula_units_Z   2
loop_
 _symmetry_equiv_pos_site_id
 _symmetry_equiv_pos_as_xyz
  1  'x, y, z'
loop_
 _atom_site_type_symbol
 _atom_site_label
 _atom_site_symmetry_multiplicity
 _atom_site_fract_x
 _atom_site_fract_y
 _atom_site_fract_z
 _atom_site_occupancy
  Ba  Ba0  1  0.00000000  0.50000000  0.25165500  1
  Ba  Ba1  1  0.00000000  0.50000000  0.74834500  1
  Ba  Ba2  1  0.50000000  0.00000000  0.25165500  1
  Ba  Ba3  1  0.50000000  0.00000000  0.74834500  1
  Y  Y0  1  0.50000000  0.50000000  0.50000000  1
  Y  Y1  1  0.00000000  0.00000000  0.00000000  1
  Cu  Cu0  1  0.00000000  0.00000000  0.50000000  1
  Cu  Cu1  1  0.50000000  0.50000000  0.00000000  1
  O  O0  1  0.27485100  0.27485100  0.00000000  1
  O  O1  1  0.72514900  0.72514900  0.00000000  1
  O  O2  1  0.72514900  0.27485100  0.00000000  1
  O  O3  1  0.27485100  0.72514900  0.00000000  1
  O  O4  1  0.00000000  0.00000000  0.26578300  1
  O  O5  1  0.00000000  0.00000000  0.73421700  1
  O  O6  1  0.25000400  0.25000400  0.50000000  1
  O  O7  1  0.74999600  0.74999600  0.50000000  1
  O  O8  1  0.74999600  0.25000400  0.50000000  1
  O  O9  1  0.25000400  0.74999600  0.50000000  1
loop_
_geom_bond_atom_site_label_1
_geom_bond_atom_site_label_2
_geom_bond_distance
_geom_bond_site_symmetry_2
Ba0 O9 2.914791 1_555
Ba0 O6 2.914791 1_555
Ba0 O7 2.914791 1_455
Ba0 O8 2.914791 1_455
Ba0 O3 2.940531 1_555
Ba0 O0 2.940531 1_555
Ba0 O1 2.940531 1_455
Ba0 O2 2.940531 1_455
Ba0 O4 3.021327 1_555
Ba0 O4 3.021327 1_565
Ba1 O9 2.914791 1_555
Ba1 O6 2.914791 1_555
Ba1 O7 2.914791 1_455
Ba1 O8 2.914791 1_455
Ba1 O3 2.940531 1_556
Ba1 O0 2.940531 1_556
Ba1 O1 2.940531 1_456
Ba1 O2 2.940531 1_456
Ba1 O5 3.021327 1_555
Ba1 O5 3.021327 1_565
Ba2 O8 2.914791 1_555
Ba2 O7 2.914791 1_545
Ba2 O6 2.914791 1_555
Ba2 O9 2.914791 1_545
Ba2 O2 2.940531 1_555
Ba2 O0 2.940531 1_555
Ba2 O1 2.940531 1_545
Ba2 O3 2.940531 1_545
Ba2 O4 3.021327 1_555
Ba2 O4 3.021327 1_655
Ba3 O7 2.914791 1_545
Ba3 O6 2.914791 1_555
Ba3 O9 2.914791 1_545
Ba3 O8 2.914791 1_555
Ba3 O2 2.940531 1_556
Ba3 O0 2.940531 1_556
Ba3 O1 2.940531 1_546
Ba3 O3 2.940531 1_546
Ba3 O5 3.021327 1_555
Ba3 O5 3.021327 1_655
Cu0 O5 1.871588 1_555
Cu0 O4 1.871588 1_555
Cu0 O7 2.134943 1_445
Cu0 O9 2.134943 1_545
Cu0 O8 2.134943 1_455
Cu0 O6 2.134943 1_555
Cu1 O1 1.922691 1_555
Cu1 O2 1.922691 1_555
Cu1 O3 1.922691 1_555
Cu1 O0 1.922691 1_555
O0 Y1 2.347128 1_555
O1 Y1 2.347128 1_665
O2 Y1 2.347128 1_655
O3 Y1 2.347128 1_565
O4 Y1 2.123826 1_555
O5 Y1 2.123826 1_556
O6 Y0 2.134875 1_555
O7 Y0 2.134875 1_555
O8 Y0 2.134875 1_555
O9 Y0 2.134875 1_555
