# generated using pymatgen
data_Lu(MnGa)6
_symmetry_space_group_name_H-M   'P 1'
_cell_length_a   8.89455256
_cell_length_b   6.83176234
_cell_length_c   6.64614104
_cell_angle_alpha   82.57759652
_cell_angle_beta   49.60968785
_cell_angle_gamma   47.81271563
_symmetry_Int_Tables_number   1
_chemical_formula_structural   Lu(MnGa)6
_chemical_formula_sum   'Lu1 Mn6 Ga6'
_cell_volume   191.50731500
_cell_formula_units_Z   1
loop_
 _symmetry_equiv_pos_site_id
 _symmetry_equiv_pos_as_xyz
  1  'x, y, z'
loop_
 _atom_site_type_symbol
 _atom_site_label
 _atom_site_symmetry_multiplicity
 _atom_site_fract_x
 _atom_site_fract_y
 _atom_site_fract_z
 _atom_site_occupancy
  Lu  Lu0  1  0.00000000  0.00000000  0.00000000  1
  Mn  Mn0  1  0.00000000  0.00000000  0.50000000  1
  Mn  Mn1  1  0.50000000  0.50000000  0.00000000  1
  Mn  Mn2  1  0.99590900  0.35285400  0.64714600  1
  Mn  Mn3  1  0.00409100  0.64714600  0.35285400  1
  Mn  Mn4  1  0.64714600  0.00409100  0.99590900  1
  Mn  Mn5  1  0.35285400  0.99590900  0.00409100  1
  Ga  Ga0  1  0.50973000  0.26266500  0.73733500  1
  Ga  Ga1  1  0.49027000  0.73733500  0.26266500  1
  Ga  Ga2  1  0.73733500  0.49027000  0.50973000  1
  Ga  Ga3  1  0.26266500  0.50973000  0.49027000  1
  Ga  Ga4  1  0.50000000  0.00000000  0.50000000  1
  Ga  Ga5  1  0.00000000  0.50000000  0.00000000  1
loop_
_geom_bond_atom_site_label_1
_geom_bond_atom_site_label_2
_geom_bond_distance
_geom_bond_site_symmetry_2
Lu0 Mn5 3.137539 1_545
Lu0 Mn3 3.137539 1_545
Lu0 Mn2 3.137539 1_454
Lu0 Mn4 3.137539 1_454
Lu0 Mn1 3.323071 1_455
Lu0 Mn0 3.323071 1_555
Lu0 Mn0 3.323071 1_554
Lu0 Mn1 3.323071 1_545
Mn0 Mn1 2.421890 1_456
Mn0 Mn1 2.421890 1_545
Mn0 Mn2 2.685878 1_455
Mn0 Mn5 2.685878 1_545
Mn0 Mn4 2.685878 1_455
Mn0 Mn3 2.685878 1_545
Mn1 Mn2 2.685878 1_554
Mn1 Mn5 2.685878 1_555
Mn1 Mn4 2.685878 1_554
Mn1 Mn3 2.685878 1_555
Mn2 Mn3 2.620907 1_655
Mn2 Mn5 3.000202 1_556
Mn2 Mn5 3.000202 1_645
Mn2 Mn4 3.098232 1_565
Mn2 Mn4 3.098232 1_654
Mn3 Mn4 3.000202 1_465
Mn3 Mn4 3.000202 1_554
Mn3 Mn5 3.098232 1_456
Mn3 Mn5 3.098232 1_545
Mn4 Mn5 2.620907 1_546
Ga0 Mn0 2.455814 1_655
Ga0 Mn1 2.455814 1_556
Ga0 Mn4 2.570147 1_555
Ga0 Ga4 2.613901 1_555
Ga0 Ga5 2.613901 1_556
Ga0 Mn3 2.631931 1_645
Ga0 Mn3 2.631931 1_556
Ga0 Mn5 2.790332 1_546
Ga0 Ga2 2.907913 1_555
Ga0 Ga3 3.058247 1_555
Ga0 Lu0 3.212127 1_655
Ga0 Lu0 3.212127 1_566
Ga1 Mn1 2.455814 1_555
Ga1 Mn0 2.455814 1_565
Ga1 Mn5 2.570147 1_555
Ga1 Ga4 2.613901 1_565
Ga1 Ga5 2.613901 1_655
Ga1 Mn2 2.631931 1_554
Ga1 Mn2 2.631931 1_465
Ga1 Mn4 2.790332 1_564
Ga1 Ga3 2.907913 1_555
Ga1 Ga2 3.058247 1_555
Ga1 Lu0 3.212127 1_655
Ga1 Lu0 3.212127 1_566
Ga2 Mn1 2.455814 1_556
Ga2 Mn0 2.455814 1_655
Ga2 Mn2 2.570147 1_555
Ga2 Ga4 2.613901 1_565
Ga2 Ga5 2.613901 1_655
Ga2 Mn5 2.631931 1_556
Ga2 Mn5 2.631931 1_645
Ga2 Mn3 2.790332 1_655
Ga2 Lu0 3.212127 1_566
Ga2 Lu0 3.212127 1_655
Ga3 Mn0 2.455814 1_565
Ga3 Mn1 2.455814 1_555
Ga3 Mn3 2.570147 1_555
Ga3 Ga4 2.613901 1_555
Ga3 Ga5 2.613901 1_556
Ga3 Mn4 2.631931 1_465
Ga3 Mn4 2.631931 1_554
Ga3 Mn2 2.790332 1_455
Ga3 Lu0 3.212127 1_655
Ga3 Lu0 3.212127 1_566
Ga4 Ga5 2.421890 1_556
Ga4 Ga5 2.421890 1_645
Ga4 Mn3 2.698198 1_645
Ga4 Mn5 2.698198 1_546
Ga4 Mn4 2.698198 1_554
Ga4 Mn2 2.698198 1_455
Ga4 Lu0 3.415881 1_556
Ga4 Lu0 3.415881 1_655
Ga5 Mn3 2.698198 1_555
Ga5 Mn5 2.698198 1_545
Ga5 Mn4 2.698198 1_464
Ga5 Mn2 2.698198 1_454
Ga5 Lu0 3.415881 1_565
Ga5 Lu0 3.415881 1_555
