# generated using pymatgen
data_V8Fe3N8
_symmetry_space_group_name_H-M   'P 1'
_cell_length_a   8.22422529
_cell_length_b   4.02993909
_cell_length_c   5.91279600
_cell_angle_alpha   90.00000115
_cell_angle_beta   75.41294993
_cell_angle_gamma   75.81792799
_symmetry_Int_Tables_number   1
_chemical_formula_structural   V8Fe3N8
_chemical_formula_sum   'V8 Fe3 N8'
_cell_volume   183.47348324
_cell_formula_units_Z   1
loop_
 _symmetry_equiv_pos_site_id
 _symmetry_equiv_pos_as_xyz
  1  'x, y, z'
loop_
 _atom_site_type_symbol
 _atom_site_label
 _atom_site_symmetry_multiplicity
 _atom_site_fract_x
 _atom_site_fract_y
 _atom_site_fract_z
 _atom_site_occupancy
  V  V0  1  0.07484600  0.96257700  0.74921800  1
  V  V1  1  0.92515400  0.03742300  0.25078200  1
  V  V2  1  0.69508100  0.65245900  0.49023300  1
  V  V3  1  0.30491900  0.34754100  0.50976700  1
  V  V4  1  0.81489300  0.59255300  0.95333200  1
  V  V5  1  0.18510700  0.40744700  0.04666800  1
  V  V6  1  0.58067400  0.20966300  0.82075300  1
  V  V7  1  0.41932600  0.79033700  0.17924700  1
  Fe  Fe0  1  0.00000000  0.50000000  0.50000000  1
  Fe  Fe1  1  0.37879600  0.81060200  0.77120200  1
  Fe  Fe2  1  0.62120400  0.18939800  0.22879800  1
  N  N0  1  0.18803700  0.90598100  0.04071600  1
  N  N1  1  0.81196300  0.09401900  0.95928400  1
  N  N2  1  0.29491800  0.85254100  0.50670900  1
  N  N3  1  0.70508200  0.14745900  0.49329100  1
  N  N4  1  0.59450800  0.70274600  0.83869300  1
  N  N5  1  0.40549200  0.29725400  0.16130700  1
  N  N6  1  0.07109000  0.46445500  0.77228500  1
  N  N7  1  0.92891000  0.53554500  0.22771500  1
loop_
_geom_bond_atom_site_label_1
_geom_bond_atom_site_label_2
_geom_bond_distance
_geom_bond_site_symmetry_2
Fe0 N6 1.840495 1_555
Fe0 N7 1.840495 1_455
Fe1 N2 1.853772 1_555
Fe1 N4 1.863928 1_555
Fe1 N0 1.895716 1_556
Fe2 N3 1.853772 1_555
Fe2 N5 1.863928 1_555
Fe2 N1 1.895716 1_554
N0 V5 2.015302 1_555
N0 V5 2.015310 1_565
N0 V1 2.140987 1_465
N0 V0 2.143231 1_554
N0 V7 2.203817 1_555
N1 V4 2.015302 1_555
N1 V4 2.015310 1_545
N1 V0 2.140987 1_645
N1 V1 2.143231 1_556
N1 V6 2.203817 1_555
N2 V7 1.932637 1_555
N2 V0 1.956536 1_555
N2 V3 2.016812 1_555
N2 V3 2.016816 1_565
N3 V6 1.932637 1_555
N3 V1 1.956536 1_555
N3 V2 2.016812 1_555
N3 V2 2.016816 1_545
N4 V2 2.007439 1_555
N4 V6 2.022276 1_555
N4 V6 2.022276 1_565
N4 V4 2.041138 1_555
N4 V7 2.131789 1_556
N5 V3 2.007439 1_555
N5 V7 2.022276 1_555
N5 V7 2.022276 1_545
N5 V5 2.041138 1_555
N5 V6 2.131789 1_554
N6 V0 2.019277 1_555
N6 V0 2.019277 1_545
N6 V4 2.045209 1_455
N6 V5 2.055449 1_556
N6 V3 2.093323 1_555
N7 V1 2.019277 1_555
N7 V1 2.019277 1_565
N7 V5 2.045209 1_655
N7 V4 2.055449 1_554
N7 V2 2.093323 1_555
