# generated using pymatgen
data_BaCaEuBiO6
_symmetry_space_group_name_H-M   'P 1'
_cell_length_a   8.59444607
_cell_length_b   8.61956166
_cell_length_c   8.59914686
_cell_angle_alpha   90.00000000
_cell_angle_beta   90.00000000
_cell_angle_gamma   90.00000000
_symmetry_Int_Tables_number   1
_chemical_formula_structural   BaCaEuBiO6
_chemical_formula_sum   'Ba4 Ca4 Eu4 Bi4 O24'
_cell_volume   637.02787646
_cell_formula_units_Z   4
loop_
 _symmetry_equiv_pos_site_id
 _symmetry_equiv_pos_as_xyz
  1  'x, y, z'
loop_
 _atom_site_type_symbol
 _atom_site_label
 _atom_site_symmetry_multiplicity
 _atom_site_fract_x
 _atom_site_fract_y
 _atom_site_fract_z
 _atom_site_occupancy
  Ba  Ba0  1  0.00000000  -0.00000000  0.00000000  1
  Ba  Ba1  1  0.50000000  0.50000000  0.50000000  1
  Ba  Ba2  1  0.00000000  0.50000000  0.00000000  1
  Ba  Ba3  1  0.00000000  -0.00000000  0.50000000  1
  Ca  Ca0  1  0.00000000  0.50000000  0.50000000  1
  Ca  Ca1  1  0.50000000  -0.00000000  0.50000000  1
  Ca  Ca2  1  0.50000000  0.50000000  0.00000000  1
  Ca  Ca3  1  0.50000000  -0.00000000  0.00000000  1
  Eu  Eu0  1  0.25541836  0.25079162  0.25115955  1
  Eu  Eu1  1  0.74458164  0.74920838  0.25115955  1
  Eu  Eu2  1  0.74458164  0.25079162  0.74884045  1
  Eu  Eu3  1  0.25541836  0.74920838  0.74884045  1
  Bi  Bi0  1  0.74361964  0.74907086  0.75064347  1
  Bi  Bi1  1  0.25638036  0.25092914  0.75064347  1
  Bi  Bi2  1  0.25638036  0.74907086  0.24935653  1
  Bi  Bi3  1  0.74361964  0.25092914  0.24935653  1
  O  O0  1  0.98967854  0.21381604  0.27546487  1
  O  O1  1  0.01032146  0.78618396  0.27546487  1
  O  O2  1  0.01032146  0.21381604  0.72453513  1
  O  O3  1  0.98967854  0.78618396  0.72453513  1
  O  O4  1  0.30189881  0.99040919  0.20082415  1
  O  O5  1  0.30189881  0.00959081  0.79917585  1
  O  O6  1  0.69810119  0.00959081  0.20082415  1
  O  O7  1  0.69810119  0.99040919  0.79917585  1
  O  O8  1  0.21983622  0.28241349  0.99288650  1
  O  O9  1  0.78016378  0.28241349  0.00711350  1
  O  O10  1  0.21983622  0.71758651  0.00711350  1
  O  O11  1  0.78016378  0.71758651  0.99288650  1
  O  O12  1  0.50842580  0.31317338  0.20469146  1
  O  O13  1  0.49157420  0.68682662  0.20469146  1
  O  O14  1  0.49157420  0.31317338  0.79530854  1
  O  O15  1  0.50842580  0.68682662  0.79530854  1
  O  O16  1  0.20543363  0.51074115  0.30823110  1
  O  O17  1  0.20543363  0.48925885  0.69176890  1
  O  O18  1  0.79456637  0.48925885  0.30823110  1
  O  O19  1  0.79456637  0.51074115  0.69176890  1
  O  O20  1  0.30636328  0.19895439  0.51119558  1
  O  O21  1  0.69363672  0.19895439  0.48880442  1
  O  O22  1  0.30636328  0.80104561  0.48880442  1
  O  O23  1  0.69363672  0.80104561  0.51119558  1
loop_
_geom_bond_atom_site_label_1
_geom_bond_atom_site_label_2
_geom_bond_distance
_geom_bond_site_symmetry_2
Ba0 O1 3.002592 1_545
Ba0 O0 3.002592 1_455
Ba0 O3 3.002592 1_444
Ba0 O2 3.002592 1_554
Ba0 O8 3.082075 1_554
Ba0 O9 3.082075 1_455
Ba0 O10 3.082075 1_545
Ba0 O11 3.082075 1_444
Ba0 O7 3.117900 1_444
Ba0 O4 3.117900 1_545
Ba0 O5 3.117900 1_554
Ba0 O6 3.117900 1_455
Ba1 O14 3.007836 1_555
Ba1 O15 3.007836 1_555
Ba1 O12 3.007836 1_555
Ba1 O13 3.007836 1_555
Ba1 O17 3.022765 1_555
Ba1 O18 3.022765 1_555
Ba1 O16 3.022765 1_555
Ba1 O19 3.022765 1_555
Ba1 O20 3.084192 1_555
Ba1 O23 3.084192 1_555
Ba1 O21 3.084192 1_555
Ba1 O22 3.084192 1_555
Ba2 O10 2.662886 1_555
Ba2 O11 2.662886 1_454
Ba2 O9 2.662886 1_455
Ba2 O8 2.662886 1_554
Ba2 O19 3.186088 1_454
Ba2 O16 3.186088 1_555
Ba2 O17 3.186088 1_554
Ba2 O18 3.186088 1_455
Ba3 O2 2.670683 1_555
Ba3 O3 2.670683 1_445
Ba3 O1 2.670683 1_545
Ba3 O0 2.670683 1_455
Ba3 O20 3.143717 1_555
Ba3 O21 3.143717 1_455
Ba3 O23 3.143717 1_445
Ba3 O22 3.143717 1_545
Ca0 O17 2.417692 1_555
Ca0 O16 2.417692 1_555
Ca0 O18 2.417692 1_455
Ca0 O19 2.417692 1_455
Ca1 O23 2.391592 1_545
Ca1 O21 2.391592 1_555
Ca1 O22 2.391592 1_545
Ca1 O20 2.391592 1_555
Ca2 O12 2.386780 1_555
Ca2 O13 2.386780 1_555
Ca2 O14 2.386780 1_554
Ca2 O15 2.386780 1_554
Ca2 O10 3.052703 1_555
Ca2 O11 3.052703 1_554
Ca2 O9 3.052703 1_555
Ca2 O8 3.052703 1_554
Ca3 O4 2.426483 1_545
Ca3 O7 2.426483 1_544
Ca3 O5 2.426483 1_554
Ca3 O6 2.426483 1_555
Eu0 O8 2.258392 1_554
Eu0 O12 2.275316 1_555
Eu0 O0 2.315470 1_455
Eu0 O4 2.320384 1_545
Eu0 O20 2.321947 1_555
Eu0 O16 2.333649 1_555
Eu1 O11 2.258392 1_554
Eu1 O13 2.275316 1_555
Eu1 O1 2.315470 1_655
Eu1 O6 2.320384 1_565
Eu1 O23 2.321947 1_555
Eu1 O18 2.333649 1_555
Eu2 O9 2.258392 1_556
Eu2 O14 2.275316 1_555
Eu2 O2 2.315470 1_655
Eu2 O7 2.320384 1_545
Eu2 O21 2.321947 1_555
Eu2 O19 2.333649 1_555
Eu3 O10 2.258392 1_556
Eu3 O15 2.275316 1_555
Eu3 O3 2.315470 1_455
Eu3 O5 2.320384 1_565
Eu3 O22 2.321947 1_555
Eu3 O17 2.333649 1_555
Bi0 O11 2.124036 1_555
Bi0 O15 2.126328 1_555
Bi0 O3 2.150550 1_555
Bi0 O23 2.150562 1_555
Bi0 O7 2.157446 1_555
Bi0 O19 2.160595 1_555
Bi1 O8 2.124036 1_555
Bi1 O14 2.126328 1_555
Bi1 O2 2.150550 1_555
Bi1 O20 2.150562 1_555
Bi1 O5 2.157446 1_555
Bi1 O17 2.160595 1_555
Bi2 O10 2.124036 1_555
Bi2 O13 2.126328 1_555
Bi2 O1 2.150550 1_555
Bi2 O22 2.150562 1_555
Bi2 O4 2.157446 1_555
Bi2 O16 2.160595 1_555
Bi3 O9 2.124036 1_555
Bi3 O12 2.126328 1_555
Bi3 O0 2.150550 1_555
Bi3 O21 2.150562 1_555
Bi3 O6 2.157446 1_555
Bi3 O18 2.160595 1_555
