# generated using pymatgen
data_Mn5Al2V
_symmetry_space_group_name_H-M   'P 1'
_cell_length_a   4.09123264
_cell_length_b   4.09123264
_cell_length_c   7.07426767
_cell_angle_alpha   73.43197095
_cell_angle_beta   106.56802905
_cell_angle_gamma   119.86283609
_symmetry_Int_Tables_number   1
_chemical_formula_structural   Mn5Al2V
_chemical_formula_sum   'Mn5 Al2 V1'
_cell_volume   96.95349065
_cell_formula_units_Z   1
loop_
 _symmetry_equiv_pos_site_id
 _symmetry_equiv_pos_as_xyz
  1  'x, y, z'
loop_
 _atom_site_type_symbol
 _atom_site_label
 _atom_site_symmetry_multiplicity
 _atom_site_fract_x
 _atom_site_fract_y
 _atom_site_fract_z
 _atom_site_occupancy
  Mn  Mn0  1  0.74961100  0.25038900  0.24842800  1
  Mn  Mn1  1  0.25039500  0.74960500  0.75175500  1
  Mn  Mn2  1  0.00038900  0.99961100  0.00157200  1
  Mn  Mn3  1  0.49960500  0.50039500  0.49824500  1
  Mn  Mn4  1  0.37500000  0.62500000  0.12500000  1
  Al  Al0  1  0.12445000  0.87555000  0.37266800  1
  Al  Al1  1  0.62555000  0.37445000  0.87733200  1
  V  V0  1  0.87500000  0.12500000  0.62500000  1
loop_
_geom_bond_atom_site_label_1
_geom_bond_atom_site_label_2
_geom_bond_distance
_geom_bond_site_symmetry_2
Mn0 Mn4 2.502726 1_545
Mn0 Mn4 2.502726 1_655
Mn0 Mn4 2.504605 1_555
Mn0 V0 2.515228 1_555
Mn1 Mn4 2.493017 1_556
Mn1 V0 2.509932 1_465
Mn1 V0 2.511166 1_565
Mn1 V0 2.511166 1_455
Mn2 Mn4 2.502726 1_455
Mn2 Mn4 2.502726 1_565
Mn2 Mn4 2.504605 1_555
Mn2 V0 2.515228 1_464
Mn3 Mn4 2.493017 1_555
Mn3 V0 2.509932 1_555
Mn3 V0 2.511166 1_455
Mn3 V0 2.511166 1_565
Al0 Mn2 2.478669 1_555
Al0 Mn0 2.504648 1_565
Al0 Mn0 2.504648 1_455
Al0 Mn0 2.506133 1_465
Al0 Mn3 2.508033 1_565
Al0 Mn3 2.508033 1_455
Al0 Mn3 2.508275 1_555
Al0 Mn1 2.532020 1_555
Al1 Mn0 2.478669 1_556
Al1 Mn2 2.504648 1_656
Al1 Mn2 2.504648 1_546
Al1 Mn2 2.506133 1_646
Al1 Mn1 2.508033 1_655
Al1 Mn1 2.508033 1_545
Al1 Mn1 2.508275 1_555
Al1 Mn3 2.532020 1_555
