# generated using pymatgen
data_Ho3Mg
_symmetry_space_group_name_H-M   'P 1'
_cell_length_a   7.11244818
_cell_length_b   7.11244818
_cell_length_c   18.49795896
_cell_angle_alpha   90.00000000
_cell_angle_beta   90.00000000
_cell_angle_gamma   90.00000000
_symmetry_Int_Tables_number   1
_chemical_formula_structural   Ho3Mg
_chemical_formula_sum   'Ho24 Mg8'
_cell_volume   935.75475367
_cell_formula_units_Z   8
loop_
 _symmetry_equiv_pos_site_id
 _symmetry_equiv_pos_as_xyz
  1  'x, y, z'
loop_
 _atom_site_type_symbol
 _atom_site_label
 _atom_site_symmetry_multiplicity
 _atom_site_fract_x
 _atom_site_fract_y
 _atom_site_fract_z
 _atom_site_occupancy
  Ho  Ho0_0  1  0.25000000  0.25000000  0.38240667  1
  Ho  Ho0_1  1  0.25000000  0.25000000  0.88240667  1
  Ho  Ho0_2  1  0.25000000  0.75000000  0.38240667  1
  Ho  Ho0_3  1  0.25000000  0.75000000  0.88240667  1
  Ho  Ho0_4  1  0.75000000  0.25000000  0.38240667  1
  Ho  Ho0_5  1  0.75000000  0.25000000  0.88240667  1
  Ho  Ho0_6  1  0.75000000  0.75000000  0.38240667  1
  Ho  Ho0_7  1  0.75000000  0.75000000  0.88240667  1
  Ho  Ho1_0  1  0.00000000  0.00000000  0.25000000  1
  Ho  Ho1_1  1  0.00000000  0.00000000  0.75000000  1
  Ho  Ho1_2  1  0.00000000  0.50000000  0.25000000  1
  Ho  Ho1_3  1  0.00000000  0.50000000  0.75000000  1
  Ho  Ho1_4  1  0.50000000  0.00000000  0.25000000  1
  Ho  Ho1_5  1  0.50000000  0.00000000  0.75000000  1
  Ho  Ho1_6  1  0.50000000  0.50000000  0.25000000  1
  Ho  Ho1_7  1  0.50000000  0.50000000  0.75000000  1
  Ho  Ho2_0  1  0.25000000  0.25000000  0.11759333  1
  Ho  Ho2_1  1  0.25000000  0.25000000  0.61759333  1
  Ho  Ho2_2  1  0.25000000  0.75000000  0.11759333  1
  Ho  Ho2_3  1  0.25000000  0.75000000  0.61759333  1
  Ho  Ho2_4  1  0.75000000  0.25000000  0.11759333  1
  Ho  Ho2_5  1  0.75000000  0.25000000  0.61759333  1
  Ho  Ho2_6  1  0.75000000  0.75000000  0.11759333  1
  Ho  Ho2_7  1  0.75000000  0.75000000  0.61759333  1
  Mg  Mg0_0  1  0.00000000  0.00000000  0.00000000  1
  Mg  Mg0_1  1  0.00000000  0.00000000  0.50000000  1
  Mg  Mg0_2  1  0.00000000  0.50000000  0.00000000  1
  Mg  Mg0_3  1  0.00000000  0.50000000  0.50000000  1
  Mg  Mg0_4  1  0.50000000  0.00000000  0.00000000  1
  Mg  Mg0_5  1  0.50000000  0.00000000  0.50000000  1
  Mg  Mg0_6  1  0.50000000  0.50000000  0.00000000  1
  Mg  Mg0_7  1  0.50000000  0.50000000  0.50000000  1
loop_
_geom_bond_atom_site_label_1
_geom_bond_atom_site_label_2
_geom_bond_distance
_geom_bond_site_symmetry_2
Ho0_0 Mg0_1 3.324909 1_555
Ho0_0 Mg0_5 3.324909 1_555
Ho0_0 Mg0_3 3.324909 1_555
Ho0_0 Mg0_7 3.324909 1_555
Ho0_0 Ho1_4 3.510300 1_555
Ho0_0 Ho1_0 3.510300 1_555
Ho0_0 Ho1_6 3.510300 1_555
Ho0_0 Ho1_2 3.510300 1_555
Ho0_0 Ho0_2 3.556224 1_555
Ho0_0 Ho0_4 3.556224 1_555
Ho0_0 Ho0_4 3.556224 1_455
Ho0_0 Ho0_2 3.556224 1_545
Ho0_1 Mg0_2 3.324909 1_556
Ho0_1 Mg0_0 3.324909 1_556
Ho0_1 Mg0_4 3.324909 1_556
Ho0_1 Mg0_6 3.324909 1_556
Ho0_1 Ho1_1 3.510300 1_555
Ho0_1 Ho1_5 3.510300 1_555
Ho0_1 Ho1_3 3.510300 1_555
Ho0_1 Ho1_7 3.510300 1_555
Ho0_1 Ho0_5 3.556224 1_555
Ho0_1 Ho0_3 3.556224 1_555
Ho0_1 Ho0_5 3.556224 1_455
Ho0_1 Ho0_3 3.556224 1_545
Ho0_2 Mg0_3 3.324909 1_555
Ho0_2 Mg0_7 3.324909 1_555
Ho0_2 Mg0_1 3.324909 1_565
Ho0_2 Mg0_5 3.324909 1_565
Ho0_2 Ho1_6 3.510300 1_555
Ho0_2 Ho1_2 3.510300 1_555
Ho0_2 Ho1_0 3.510300 1_565
Ho0_2 Ho1_4 3.510300 1_565
Ho0_2 Ho0_6 3.556224 1_555
Ho0_2 Ho0_6 3.556224 1_455
Ho0_3 Mg0_2 3.324909 1_556
Ho0_3 Mg0_6 3.324909 1_556
Ho0_3 Mg0_0 3.324909 1_566
Ho0_3 Mg0_4 3.324909 1_566
Ho0_3 Ho1_3 3.510300 1_555
Ho0_3 Ho1_7 3.510300 1_555
Ho0_3 Ho1_1 3.510300 1_565
Ho0_3 Ho1_5 3.510300 1_565
Ho0_3 Ho0_7 3.556224 1_555
Ho0_3 Ho0_7 3.556224 1_455
Ho0_4 Mg0_7 3.324909 1_555
Ho0_4 Mg0_5 3.324909 1_555
Ho0_4 Mg0_3 3.324909 1_655
Ho0_4 Mg0_1 3.324909 1_655
Ho0_4 Ho1_4 3.510300 1_555
Ho0_4 Ho1_6 3.510300 1_555
Ho0_4 Ho1_2 3.510300 1_655
Ho0_4 Ho1_0 3.510300 1_655
Ho0_4 Ho0_6 3.556224 1_555
Ho0_4 Ho0_6 3.556224 1_545
Ho0_5 Mg0_4 3.324909 1_556
Ho0_5 Mg0_6 3.324909 1_556
Ho0_5 Mg0_2 3.324909 1_656
Ho0_5 Mg0_0 3.324909 1_656
Ho0_5 Ho1_5 3.510300 1_555
Ho0_5 Ho1_7 3.510300 1_555
Ho0_5 Ho1_1 3.510300 1_655
Ho0_5 Ho1_3 3.510300 1_655
Ho0_5 Ho0_7 3.556224 1_555
Ho0_5 Ho0_7 3.556224 1_545
Ho0_6 Mg0_7 3.324909 1_555
Ho0_6 Mg0_3 3.324909 1_655
Ho0_6 Mg0_5 3.324909 1_565
Ho0_6 Mg0_1 3.324909 1_665
Ho0_6 Ho1_6 3.510300 1_555
Ho0_6 Ho1_4 3.510300 1_565
Ho0_6 Ho1_2 3.510300 1_655
Ho0_6 Ho1_0 3.510300 1_665
Ho0_7 Mg0_6 3.324909 1_556
Ho0_7 Mg0_4 3.324909 1_566
Ho0_7 Mg0_2 3.324909 1_656
Ho0_7 Mg0_0 3.324909 1_666
Ho0_7 Ho1_7 3.510300 1_555
Ho0_7 Ho1_5 3.510300 1_565
Ho0_7 Ho1_3 3.510300 1_655
Ho0_7 Ho1_1 3.510300 1_665
Ho1_0 Ho2_0 3.510300 1_555
Ho1_0 Ho2_4 3.510300 1_455
Ho1_0 Ho2_2 3.510300 1_545
Ho1_0 Ho2_6 3.510300 1_445
Ho1_0 Ho1_4 3.556224 1_555
Ho1_0 Ho1_2 3.556224 1_555
Ho1_0 Ho1_2 3.556224 1_545
Ho1_0 Ho1_4 3.556224 1_455
Ho1_1 Ho2_1 3.510300 1_555
Ho1_1 Ho2_5 3.510300 1_455
Ho1_1 Ho2_3 3.510300 1_545
Ho1_1 Ho2_7 3.510300 1_445
Ho1_1 Ho1_5 3.556224 1_555
Ho1_1 Ho1_3 3.556224 1_555
Ho1_1 Ho1_5 3.556224 1_455
Ho1_1 Ho1_3 3.556224 1_545
Ho1_2 Ho2_0 3.510300 1_555
Ho1_2 Ho2_2 3.510300 1_555
Ho1_2 Ho2_6 3.510300 1_455
Ho1_2 Ho2_4 3.510300 1_455
Ho1_2 Ho1_6 3.556224 1_555
Ho1_2 Ho1_6 3.556224 1_455
Ho1_3 Ho2_1 3.510300 1_555
Ho1_3 Ho2_3 3.510300 1_555
Ho1_3 Ho2_7 3.510300 1_455
Ho1_3 Ho2_5 3.510300 1_455
Ho1_3 Ho1_7 3.556224 1_555
Ho1_3 Ho1_7 3.556224 1_455
Ho1_4 Ho2_0 3.510300 1_555
Ho1_4 Ho2_4 3.510300 1_555
Ho1_4 Ho2_6 3.510300 1_545
Ho1_4 Ho2_2 3.510300 1_545
Ho1_4 Ho1_6 3.556224 1_555
Ho1_4 Ho1_6 3.556224 1_545
Ho1_5 Ho2_5 3.510300 1_555
Ho1_5 Ho2_1 3.510300 1_555
Ho1_5 Ho2_7 3.510300 1_545
Ho1_5 Ho2_3 3.510300 1_545
Ho1_5 Ho1_7 3.556224 1_555
Ho1_5 Ho1_7 3.556224 1_545
Ho1_6 Ho2_6 3.510300 1_555
Ho1_6 Ho2_0 3.510300 1_555
Ho1_6 Ho2_2 3.510300 1_555
Ho1_6 Ho2_4 3.510300 1_555
Ho1_7 Ho2_7 3.510300 1_555
Ho1_7 Ho2_5 3.510300 1_555
Ho1_7 Ho2_1 3.510300 1_555
Ho1_7 Ho2_3 3.510300 1_555
Ho2_0 Mg0_2 3.324909 1_555
Ho2_0 Mg0_6 3.324909 1_555
Ho2_0 Mg0_0 3.324909 1_555
Ho2_0 Mg0_4 3.324909 1_555
Ho2_0 Ho2_2 3.556224 1_555
Ho2_0 Ho2_4 3.556224 1_555
Ho2_0 Ho2_2 3.556224 1_545
Ho2_0 Ho2_4 3.556224 1_455
Ho2_1 Mg0_3 3.324909 1_555
Ho2_1 Mg0_7 3.324909 1_555
Ho2_1 Mg0_1 3.324909 1_555
Ho2_1 Mg0_5 3.324909 1_555
Ho2_1 Ho2_5 3.556224 1_555
Ho2_1 Ho2_3 3.556224 1_555
Ho2_1 Ho2_5 3.556224 1_455
Ho2_1 Ho2_3 3.556224 1_545
Ho2_2 Mg0_6 3.324909 1_555
Ho2_2 Mg0_2 3.324909 1_555
Ho2_2 Mg0_4 3.324909 1_565
Ho2_2 Mg0_0 3.324909 1_565
Ho2_2 Ho2_6 3.556224 1_555
Ho2_2 Ho2_6 3.556224 1_455
Ho2_3 Mg0_3 3.324909 1_555
Ho2_3 Mg0_7 3.324909 1_555
Ho2_3 Mg0_1 3.324909 1_565
Ho2_3 Mg0_5 3.324909 1_565
Ho2_3 Ho2_7 3.556224 1_555
Ho2_3 Ho2_7 3.556224 1_455
Ho2_4 Mg0_6 3.324909 1_555
Ho2_4 Mg0_4 3.324909 1_555
Ho2_4 Mg0_0 3.324909 1_655
Ho2_4 Mg0_2 3.324909 1_655
Ho2_4 Ho2_6 3.556224 1_555
Ho2_4 Ho2_6 3.556224 1_545
Ho2_5 Mg0_7 3.324909 1_555
Ho2_5 Mg0_5 3.324909 1_555
Ho2_5 Mg0_3 3.324909 1_655
Ho2_5 Mg0_1 3.324909 1_655
Ho2_5 Ho2_7 3.556224 1_555
Ho2_5 Ho2_7 3.556224 1_545
Ho2_6 Mg0_6 3.324909 1_555
Ho2_6 Mg0_4 3.324909 1_565
Ho2_6 Mg0_2 3.324909 1_655
Ho2_6 Mg0_0 3.324909 1_665
Ho2_7 Mg0_7 3.324909 1_555
Ho2_7 Mg0_3 3.324909 1_655
Ho2_7 Mg0_5 3.324909 1_565
Ho2_7 Mg0_1 3.324909 1_665
