# generated using pymatgen
data_ErBiW2O9
_symmetry_space_group_name_H-M   'P 1'
_cell_length_a   3.91632700
_cell_length_b   5.74883500
_cell_length_c   16.35640900
_cell_angle_alpha   90.00000000
_cell_angle_beta   90.00000000
_cell_angle_gamma   90.00000000
_symmetry_Int_Tables_number   1
_chemical_formula_structural   ErBiW2O9
_chemical_formula_sum   'Er2 Bi2 W4 O18'
_cell_volume   368.25338913
_cell_formula_units_Z   2
loop_
 _symmetry_equiv_pos_site_id
 _symmetry_equiv_pos_as_xyz
  1  'x, y, z'
loop_
 _atom_site_type_symbol
 _atom_site_label
 _atom_site_symmetry_multiplicity
 _atom_site_fract_x
 _atom_site_fract_y
 _atom_site_fract_z
 _atom_site_occupancy
  Er  Er0  1  0.75000000  0.75000000  0.66564800  1
  Er  Er1  1  0.25000000  0.25000000  0.33435200  1
  Bi  Bi0  1  0.75000000  0.25000000  0.05334600  1
  Bi  Bi1  1  0.25000000  0.75000000  0.94665400  1
  W  W0  1  0.75000000  0.75000000  0.41319100  1
  W  W1  1  0.25000000  0.25000000  0.58680900  1
  W  W2  1  0.75000000  0.25000000  0.84003700  1
  W  W3  1  0.25000000  0.75000000  0.15996300  1
  O  O0  1  0.75000000  0.75000000  0.52357100  1
  O  O1  1  0.25000000  0.25000000  0.47642900  1
  O  O2  1  0.75000000  0.48018800  0.94119000  1
  O  O3  1  0.75000000  0.01981200  0.94119000  1
  O  O4  1  0.25000000  0.98018800  0.05881000  1
  O  O5  1  0.25000000  0.51981200  0.05881000  1
  O  O6  1  0.75000000  0.75000000  0.14656200  1
  O  O7  1  0.25000000  0.25000000  0.85343800  1
  O  O8  1  0.25000000  0.75000000  0.40467000  1
  O  O9  1  0.75000000  0.25000000  0.59533000  1
  O  O10  1  0.25000000  0.50022900  0.22865700  1
  O  O11  1  0.25000000  0.99977100  0.22865700  1
  O  O12  1  0.75000000  0.00022900  0.77134300  1
  O  O13  1  0.75000000  0.49977100  0.77134300  1
  O  O14  1  0.25000000  0.53089900  0.64259300  1
  O  O15  1  0.25000000  0.96910100  0.64259300  1
  O  O16  1  0.75000000  0.03089900  0.35740700  1
  O  O17  1  0.75000000  0.46910100  0.35740700  1
loop_
_geom_bond_atom_site_label_1
_geom_bond_atom_site_label_2
_geom_bond_distance
_geom_bond_site_symmetry_2
Er0 O12 2.249016 1_565
Er0 O13 2.249016 1_555
Er0 O0 2.323870 1_555
Er0 O15 2.358630 1_655
Er0 O15 2.358630 1_555
Er0 O14 2.358630 1_555
Er0 O14 2.358630 1_655
Er1 O10 2.249016 1_555
Er1 O11 2.249016 1_545
Er1 O1 2.323870 1_555
Er1 O17 2.358630 1_455
Er1 O16 2.358630 1_555
Er1 O16 2.358630 1_455
Er1 O17 2.358630 1_555
Bi0 O3 2.261954 1_554
Bi0 O2 2.261954 1_554
Bi0 O5 2.499663 1_655
Bi0 O5 2.499663 1_555
Bi0 O4 2.499663 1_545
Bi0 O4 2.499663 1_645
Bi1 O4 2.261954 1_556
Bi1 O5 2.261954 1_556
Bi1 O2 2.499663 1_555
Bi1 O3 2.499663 1_565
Bi1 O2 2.499663 1_455
Bi1 O3 2.499663 1_465
O0 W0 1.805420 1_555
O1 W1 1.805420 1_555
O2 W2 2.118614 1_555
O3 W2 2.118614 1_555
O4 W3 2.118614 1_555
O5 W3 2.118614 1_555
O6 W3 1.970393 1_555
O6 W3 1.970393 1_655
O7 W2 1.970393 1_555
O7 W2 1.970393 1_455
O8 W0 1.963117 1_555
O8 W0 1.963117 1_455
O9 W1 1.963117 1_655
O9 W1 1.963117 1_555
O10 W3 1.823248 1_555
O11 W3 1.823248 1_555
O12 W2 1.823248 1_555
O13 W2 1.823248 1_555
O14 W1 1.854787 1_555
O15 W1 1.854787 1_565
O16 W0 1.854787 1_545
O17 W0 1.854787 1_555
