# generated using pymatgen
data_TmAl
_symmetry_space_group_name_H-M   'P 1'
_cell_length_a   5.53245548
_cell_length_b   5.75051362
_cell_length_c   11.23607237
_cell_angle_alpha   89.99949216
_cell_angle_beta   89.99999480
_cell_angle_gamma   90.00000000
_symmetry_Int_Tables_number   1
_chemical_formula_structural   TmAl
_chemical_formula_sum   'Tm8 Al8'
_cell_volume   357.46958159
_cell_formula_units_Z   8
loop_
 _symmetry_equiv_pos_site_id
 _symmetry_equiv_pos_as_xyz
  1  'x, y, z'
loop_
 _atom_site_type_symbol
 _atom_site_label
 _atom_site_symmetry_multiplicity
 _atom_site_fract_x
 _atom_site_fract_y
 _atom_site_fract_z
 _atom_site_occupancy
  Tm  Tm0  1  0.25000000  0.16061836  0.01639751  1
  Tm  Tm1  1  0.75000000  0.83938164  0.98360249  1
  Tm  Tm2  1  0.75000000  0.16063540  0.48357906  1
  Tm  Tm3  1  0.25000000  0.83936460  0.51642094  1
  Tm  Tm4  1  0.25000000  0.39830278  0.33136890  1
  Tm  Tm5  1  0.75000000  0.60169722  0.66863110  1
  Tm  Tm6  1  0.75000000  0.39829837  0.16844482  1
  Tm  Tm7  1  0.25000000  0.60170163  0.83155518  1
  Al  Al0  1  -0.00000175  0.93070690  0.24996121  1
  Al  Al1  1  0.49999825  0.06929310  0.75003879  1
  Al  Al2  1  1.00000175  0.06929310  0.75003879  1
  Al  Al3  1  0.50000175  0.93070690  0.24996121  1
  Al  Al4  1  0.25000000  0.65906437  0.09714951  1
  Al  Al5  1  0.75000000  0.34093563  0.90285049  1
  Al  Al6  1  0.75000000  0.65905148  0.40281272  1
  Al  Al7  1  0.25000000  0.34094852  0.59718728  1
loop_
_geom_bond_atom_site_label_1
_geom_bond_atom_site_label_2
_geom_bond_distance
_geom_bond_site_symmetry_2
Al0 Al4 2.702089 1_555
Al0 Al6 2.702389 1_455
Al0 Al3 2.766208 1_455
Al0 Al3 2.766247 1_555
Al0 Tm4 3.159118 1_565
Al0 Tm6 3.159428 1_465
Al0 Tm0 3.247783 1_565
Al0 Tm2 3.248325 1_465
Al0 Tm1 3.338535 1_454
Al0 Tm3 3.339567 1_555
Al0 Tm4 3.481816 1_555
Al0 Tm6 3.482165 1_455
Al1 Al5 2.702089 1_555
Al1 Al7 2.702389 1_555
Al1 Al2 2.766208 1_455
Al1 Al2 2.766247 1_555
Al1 Tm5 3.159118 1_545
Al1 Tm7 3.159428 1_545
Al1 Tm1 3.247783 1_545
Al1 Tm3 3.248325 1_545
Al1 Tm0 3.338534 1_556
Al1 Tm2 3.339567 1_555
Al1 Tm5 3.481815 1_555
Al1 Tm7 3.482165 1_555
Al2 Al5 2.702089 1_555
Al2 Al7 2.702389 1_655
Al2 Tm5 3.159118 1_545
Al2 Tm7 3.159428 1_645
Al2 Tm1 3.247783 1_545
Al2 Tm3 3.248325 1_645
Al2 Tm0 3.338535 1_656
Al2 Tm2 3.339567 1_555
Al2 Tm5 3.481816 1_555
Al2 Tm7 3.482165 1_655
Al3 Al4 2.702089 1_555
Al3 Al6 2.702389 1_555
Al3 Tm4 3.159118 1_565
Al3 Tm6 3.159428 1_565
Al3 Tm0 3.247783 1_565
Al3 Tm2 3.248325 1_565
Al3 Tm1 3.338534 1_554
Al3 Tm3 3.339567 1_555
Al3 Tm4 3.481815 1_555
Al3 Tm6 3.482165 1_555
Al4 Tm7 3.002416 1_554
Al4 Tm0 3.006509 1_555
Al4 Tm0 3.023538 1_565
Al4 Tm4 3.028918 1_555
Al4 Tm1 3.217905 1_554
Al4 Tm1 3.217905 1_454
Al4 Tm6 3.246897 1_455
Al4 Tm6 3.246897 1_555
Al5 Tm6 3.002416 1_556
Al5 Tm1 3.006509 1_555
Al5 Tm1 3.023538 1_545
Al5 Tm5 3.028918 1_555
Al5 Tm0 3.217905 1_556
Al5 Tm0 3.217905 1_656
Al5 Tm7 3.246897 1_655
Al5 Tm7 3.246897 1_555
Al6 Tm5 3.004907 1_555
Al6 Tm2 3.006378 1_555
Al6 Tm2 3.023766 1_565
Al6 Tm6 3.030367 1_555
Al6 Tm3 3.218177 1_555
Al6 Tm3 3.218177 1_655
Al6 Tm4 3.247269 1_655
Al6 Tm4 3.247269 1_555
Al7 Tm4 3.004907 1_555
Al7 Tm3 3.006378 1_555
Al7 Tm3 3.023766 1_545
Al7 Tm7 3.030367 1_555
Al7 Tm2 3.218177 1_555
Al7 Tm2 3.218177 1_455
Al7 Tm5 3.247269 1_455
Al7 Tm5 3.247269 1_555
