# generated using pymatgen
data_Ca(FeO2)2
_symmetry_space_group_name_H-M   'P 1'
_cell_length_a   7.16228418
_cell_length_b   7.16228418
_cell_length_c   9.43644020
_cell_angle_alpha   55.75028850
_cell_angle_beta   55.75028850
_cell_angle_gamma   25.13847837
_symmetry_Int_Tables_number   1
_chemical_formula_structural   Ca(FeO2)2
_chemical_formula_sum   'Ca2 Fe4 O8'
_cell_volume   168.00881159
_cell_formula_units_Z   2
loop_
 _symmetry_equiv_pos_site_id
 _symmetry_equiv_pos_as_xyz
  1  'x, y, z'
loop_
 _atom_site_type_symbol
 _atom_site_label
 _atom_site_symmetry_multiplicity
 _atom_site_fract_x
 _atom_site_fract_y
 _atom_site_fract_z
 _atom_site_occupancy
  Ca  Ca0  1  0.65536000  0.65536000  0.82930300  1
  Ca  Ca1  1  0.34464000  0.34464000  0.17069700  1
  Fe  Fe0  1  0.36967600  0.36967600  0.81816800  1
  Fe  Fe1  1  0.86331500  0.86331500  0.46942900  1
  Fe  Fe2  1  0.13668500  0.13668500  0.53057100  1
  Fe  Fe3  1  0.63032400  0.63032400  0.18183200  1
  O  O0  1  0.13427400  0.13427400  0.31374600  1
  O  O1  1  0.54402000  0.54402000  0.69282500  1
  O  O2  1  0.45598000  0.45598000  0.30717500  1
  O  O3  1  0.86572600  0.86572600  0.68625400  1
  O  O4  1  0.84260000  0.84260000  0.99215300  1
  O  O5  1  0.23913800  0.23913800  0.61919900  1
  O  O6  1  0.15740000  0.15740000  0.00784700  1
  O  O7  1  0.76086200  0.76086200  0.38080100  1
loop_
_geom_bond_atom_site_label_1
_geom_bond_atom_site_label_2
_geom_bond_distance
_geom_bond_site_symmetry_2
Ca0 O5 2.248122 1_655
Ca0 O5 2.248122 1_565
Ca0 O6 2.307432 1_656
Ca0 O6 2.307432 1_566
Ca0 O3 2.427774 1_555
Ca0 O1 2.528603 1_555
Ca1 O7 2.248122 1_545
Ca1 O7 2.248122 1_455
Ca1 O4 2.307432 1_544
Ca1 O4 2.307432 1_454
Ca1 O0 2.427774 1_555
Ca1 O2 2.528603 1_555
Fe0 O1 2.003926 1_555
Fe0 O3 2.015253 1_545
Fe0 O3 2.015253 1_455
Fe0 O4 2.133412 1_455
Fe0 O4 2.133412 1_545
Fe0 O6 2.426072 1_556
Fe1 O7 2.032940 1_555
Fe1 O2 2.040721 1_655
Fe1 O2 2.040721 1_565
Fe1 O3 2.065677 1_555
Fe1 O5 2.147398 1_565
Fe1 O5 2.147398 1_655
Fe2 O5 2.032940 1_555
Fe2 O1 2.040721 1_545
Fe2 O1 2.040721 1_455
Fe2 O0 2.065677 1_555
Fe2 O7 2.147398 1_545
Fe2 O7 2.147398 1_455
Fe3 O2 2.003926 1_555
Fe3 O0 2.015253 1_655
Fe3 O0 2.015253 1_565
Fe3 O6 2.133412 1_655
Fe3 O6 2.133412 1_565
Fe3 O4 2.426072 1_554
