# generated using pymatgen
data_Sr3Sc2Cu2S2O5
_symmetry_space_group_name_H-M   'P 1'
_cell_length_a   13.39607482
_cell_length_b   13.39607482
_cell_length_c   13.39607482
_cell_angle_alpha   162.41089532
_cell_angle_beta   162.41089532
_cell_angle_gamma   24.97443070
_symmetry_Int_Tables_number   1
_chemical_formula_structural   Sr3Sc2Cu2S2O5
_chemical_formula_sum   'Sr3 Sc2 Cu2 S2 O5'
_cell_volume   219.46460362
_cell_formula_units_Z   1
loop_
 _symmetry_equiv_pos_site_id
 _symmetry_equiv_pos_as_xyz
  1  'x, y, z'
loop_
 _atom_site_type_symbol
 _atom_site_label
 _atom_site_symmetry_multiplicity
 _atom_site_fract_x
 _atom_site_fract_y
 _atom_site_fract_z
 _atom_site_occupancy
  Sr  Sr0  1  0.50000000  0.50000000  0.00000000  1
  Sr  Sr1  1  0.64488100  0.64488100  0.00000000  1
  Sr  Sr2  1  0.35511900  0.35511900  0.00000000  1
  Sc  Sc0  1  0.92370900  0.92370900  0.00000000  1
  Sc  Sc1  1  0.07629100  0.07629100  0.00000000  1
  Cu  Cu0  1  0.75000000  0.25000000  0.50000000  1
  Cu  Cu1  1  0.25000000  0.75000000  0.50000000  1
  S  S0  1  0.80081900  0.80081900  0.00000000  1
  S  S1  1  0.19918100  0.19918100  0.00000000  1
  O  O0  1  0.00000000  0.00000000  0.00000000  1
  O  O1  1  0.91328100  0.41328100  0.50000000  1
  O  O2  1  0.41328100  0.91328100  0.50000000  1
  O  O3  1  0.58671900  0.08671900  0.50000000  1
  O  O4  1  0.08671900  0.58671900  0.50000000  1
loop_
_geom_bond_atom_site_label_1
_geom_bond_atom_site_label_2
_geom_bond_distance
_geom_bond_site_symmetry_2
Cu0 S0 2.441735 1_556
Cu0 S0 2.441735 1_545
Cu0 S1 2.441735 1_555
Cu0 S1 2.441735 1_656
Cu1 S0 2.441735 1_556
Cu1 S0 2.441735 1_455
Cu1 S1 2.441735 1_566
Cu1 S1 2.441735 1_555
S0 Sc0 3.214601 1_555
S0 Sr2 3.226047 1_554
S0 Sr2 3.226047 1_565
S0 Sr2 3.226047 1_655
S0 Sr2 3.226047 1_666
S1 Sc1 3.214601 1_555
S1 Sr1 3.226047 1_444
S1 Sr1 3.226047 1_455
S1 Sr1 3.226047 1_545
S1 Sr1 3.226047 1_556
O0 Sc0 1.995648 1_445
O0 Sc1 1.995648 1_555
O0 Sr0 2.896523 1_556
O0 Sr0 2.896523 1_444
O0 Sr0 2.896523 1_545
O0 Sr0 2.896523 1_455
O1 Sc0 2.066236 1_545
O1 Sc0 2.066236 1_556
O1 Sr2 2.551401 1_656
O1 Sr2 2.551401 1_555
O1 Sr0 3.056253 1_656
O1 Sr0 3.056253 1_555
O2 Sc0 2.066236 1_455
O2 Sc0 2.066236 1_556
O2 Sr2 2.551401 1_566
O2 Sr2 2.551401 1_555
O2 Sr0 3.056253 1_566
O2 Sr0 3.056253 1_555
O3 Sc1 2.066236 1_656
O3 Sc1 2.066236 1_555
O3 Sr1 2.551401 1_545
O3 Sr1 2.551401 1_556
O3 Sr0 3.056253 1_545
O3 Sr0 3.056253 1_556
O4 Sc1 2.066236 1_566
O4 Sc1 2.066236 1_555
O4 Sr1 2.551401 1_455
O4 Sr1 2.551401 1_556
O4 Sr0 3.056253 1_455
O4 Sr0 3.056253 1_556
