# generated using pymatgen
data_Fe4O3F5
_symmetry_space_group_name_H-M   'P 1'
_cell_length_a   4.73827700
_cell_length_b   5.64804600
_cell_length_c   10.67704673
_cell_angle_alpha   82.98774141
_cell_angle_beta   90.00000000
_cell_angle_gamma   90.00000000
_symmetry_Int_Tables_number   1
_chemical_formula_structural   Fe4O3F5
_chemical_formula_sum   'Fe8 O6 F10'
_cell_volume   283.60187987
_cell_formula_units_Z   2
loop_
 _symmetry_equiv_pos_site_id
 _symmetry_equiv_pos_as_xyz
  1  'x, y, z'
loop_
 _atom_site_type_symbol
 _atom_site_label
 _atom_site_symmetry_multiplicity
 _atom_site_fract_x
 _atom_site_fract_y
 _atom_site_fract_z
 _atom_site_occupancy
  Fe  Fe0  1  0.73090200  0.24389600  0.73473800  1
  Fe  Fe1  1  0.80004200  0.75807400  0.26508200  1
  Fe  Fe2  1  0.73605600  0.49621200  0.99792400  1
  Fe  Fe3  1  0.76764700  0.99628600  0.51191000  1
  Fe  Fe4  1  0.26909800  0.24389600  0.23473800  1
  Fe  Fe5  1  0.26394400  0.49621200  0.49792400  1
  Fe  Fe6  1  0.19995800  0.75807400  0.76508200  1
  Fe  Fe7  1  0.23235300  0.99628600  0.01191000  1
  O  O0  1  0.04317800  0.72765300  0.93242300  1
  O  O1  1  0.04384500  0.97007900  0.17039000  1
  O  O2  1  0.95682200  0.72765300  0.43242300  1
  O  O3  1  0.95615500  0.97007900  0.67039000  1
  O  O4  1  0.54186800  0.26893300  0.55829600  1
  O  O5  1  0.45813200  0.26893300  0.05829600  1
  F  F0  1  0.04995900  0.23847200  0.41752200  1
  F  F1  1  0.06767100  0.47524000  0.67710300  1
  F  F2  1  0.93232900  0.47524000  0.17710300  1
  F  F3  1  0.95004100  0.23847200  0.91752200  1
  F  F4  1  0.55137300  0.76440400  0.08185500  1
  F  F5  1  0.56070000  0.01686500  0.33156000  1
  F  F6  1  0.54862900  0.54388500  0.82119600  1
  F  F7  1  0.43930000  0.01686500  0.83156000  1
  F  F8  1  0.45137100  0.54388500  0.32119600  1
  F  F9  1  0.44862700  0.76440400  0.58185500  1
loop_
_geom_bond_atom_site_label_1
_geom_bond_atom_site_label_2
_geom_bond_distance
_geom_bond_site_symmetry_2
Fe0 O3 2.064553 1_545
Fe0 O4 2.075144 1_555
Fe1 O1 1.869464 1_655
Fe1 O2 1.923211 1_555
Fe2 O5 1.896176 1_556
Fe2 O0 2.022949 1_655
Fe3 O3 1.903093 1_555
Fe3 O4 1.986793 1_565
Fe3 O2 2.034746 1_555
Fe4 O1 2.064553 1_545
Fe4 O5 2.075144 1_555
Fe5 O4 1.896176 1_555
Fe5 O2 2.022949 1_455
Fe6 O3 1.869464 1_455
Fe6 O0 1.923211 1_555
Fe7 O1 1.903093 1_555
Fe7 O5 1.986793 1_565
Fe7 O0 2.034746 1_554
F0 Fe5 2.046765 1_555
F0 Fe3 2.083147 1_445
F0 Fe4 2.207535 1_555
F1 Fe6 2.047815 1_555
F1 Fe0 2.106168 1_455
F1 Fe5 2.117441 1_555
F2 Fe1 2.047815 1_555
F2 Fe4 2.106168 1_655
F2 Fe2 2.117441 1_554
F3 Fe2 2.046765 1_555
F3 Fe7 2.083147 1_646
F3 Fe0 2.207535 1_555
F4 Fe2 2.048111 1_554
F4 Fe7 2.078249 1_555
F4 Fe1 2.280286 1_555
F5 Fe1 2.044428 1_545
F5 Fe4 2.073244 1_555
F5 Fe3 2.151358 1_545
F6 Fe2 2.073078 1_555
F6 Fe6 2.091630 1_555
F6 Fe0 2.202447 1_555
F7 Fe6 2.044428 1_545
F7 Fe0 2.073244 1_555
F7 Fe7 2.151358 1_546
F8 Fe5 2.073078 1_555
F8 Fe1 2.091630 1_555
F8 Fe4 2.202447 1_555
F9 Fe5 2.048111 1_555
F9 Fe3 2.078249 1_555
F9 Fe6 2.280286 1_555
