# generated using pymatgen
data_Li9Co7O16
_symmetry_space_group_name_H-M   'P 1'
_cell_length_a   5.87287600
_cell_length_b   6.62174715
_cell_length_c   7.65027890
_cell_angle_alpha   90.22819345
_cell_angle_beta   100.53901177
_cell_angle_gamma   103.16768969
_symmetry_Int_Tables_number   1
_chemical_formula_structural   Li9Co7O16
_chemical_formula_sum   'Li9 Co7 O16'
_cell_volume   284.47629823
_cell_formula_units_Z   1
loop_
 _symmetry_equiv_pos_site_id
 _symmetry_equiv_pos_as_xyz
  1  'x, y, z'
loop_
 _atom_site_type_symbol
 _atom_site_label
 _atom_site_symmetry_multiplicity
 _atom_site_fract_x
 _atom_site_fract_y
 _atom_site_fract_z
 _atom_site_occupancy
  Li  Li0  1  0.74543300  0.25670400  0.74005200  1
  Li  Li1  1  0.37393500  0.86819100  0.62295700  1
  Li  Li2  1  0.12447700  0.62503200  0.87688400  1
  Li  Li3  1  0.50000000  0.00000000  0.00000000  1
  Li  Li4  1  0.87552300  0.37496800  0.12311600  1
  Li  Li5  1  0.25456700  0.74329600  0.25994800  1
  Li  Li6  1  0.62606500  0.13180900  0.37704300  1
  Li  Li7  1  0.00000000  0.50000000  0.50000000  1
  Li  Li8  1  0.50000000  0.50000000  0.50000000  1
  Co  Co0  1  0.86854800  0.87044500  0.62439600  1
  Co  Co1  1  0.38009400  0.37687300  0.12718100  1
  Co  Co2  1  0.13145200  0.12955500  0.37560400  1
  Co  Co3  1  0.74843100  0.74355300  0.25658500  1
  Co  Co4  1  0.00000000  0.00000000  0.00000000  1
  Co  Co5  1  0.61990600  0.62312700  0.87281900  1
  Co  Co6  1  0.25156900  0.25644700  0.74341500  1
  O  O0  1  0.68412700  0.91269800  0.81863400  1
  O  O1  1  0.33596400  0.56113100  0.70725000  1
  O  O2  1  0.09280800  0.30759600  0.94438500  1
  O  O3  1  0.44653000  0.66500100  0.06040400  1
  O  O4  1  0.83615900  0.05721400  0.18718000  1
  O  O5  1  0.20119100  0.42444700  0.29400000  1
  O  O6  1  0.58621900  0.81532700  0.43437500  1
  O  O7  1  0.94482500  0.18622100  0.56584100  1
  O  O8  1  0.79880900  0.57555300  0.70600000  1
  O  O9  1  0.41378100  0.18467300  0.56562500  1
  O  O10  1  0.16384100  0.94278600  0.81282000  1
  O  O11  1  0.55347000  0.33499900  0.93959600  1
  O  O12  1  0.90719200  0.69240400  0.05561500  1
  O  O13  1  0.31587300  0.08730200  0.18136600  1
  O  O14  1  0.66403600  0.43886900  0.29275000  1
  O  O15  1  0.05517500  0.81377900  0.43415900  1
loop_
_geom_bond_atom_site_label_1
_geom_bond_atom_site_label_2
_geom_bond_distance
_geom_bond_site_symmetry_2
Li0 O7 2.044576 1_555
Li0 O8 2.087245 1_555
Li0 O9 2.103042 1_555
Li0 O11 2.181680 1_555
Li0 O2 2.288039 1_655
Li0 O0 2.323013 1_545
Li1 O0 2.097799 1_555
Li1 O15 2.102368 1_555
Li1 O1 2.110984 1_555
Li1 O9 2.111961 1_565
Li1 O6 2.147326 1_555
Li1 O10 2.191737 1_555
Li2 O1 2.056830 1_555
Li2 O8 2.066616 1_455
Li2 O3 2.101451 1_556
Li2 O10 2.132809 1_555
Li2 O2 2.141320 1_555
Li2 O12 2.142392 1_456
Li3 O0 2.062995 1_544
Li3 O13 2.062995 1_555
Li3 O10 2.170805 1_544
Li3 O4 2.170805 1_555
Li3 O11 2.230873 1_554
Li3 O3 2.230873 1_545
Li4 O14 2.056830 1_555
Li4 O5 2.066616 1_655
Li4 O11 2.101451 1_554
Li4 O4 2.132809 1_555
Li4 O12 2.141320 1_555
Li4 O2 2.142392 1_654
Li5 O15 2.044576 1_555
Li5 O5 2.087245 1_555
Li5 O6 2.103042 1_555
Li5 O3 2.181680 1_555
Li5 O12 2.288039 1_455
Li5 O13 2.323013 1_565
Li6 O13 2.097799 1_555
Li6 O7 2.102368 1_555
Li6 O14 2.110984 1_555
Li6 O6 2.111961 1_545
Li6 O9 2.147326 1_555
Li6 O4 2.191737 1_555
Li7 O15 2.106448 1_555
Li7 O7 2.106448 1_455
Li7 O14 2.248861 1_455
Li7 O1 2.248861 1_555
Li7 O5 2.252612 1_555
Li7 O8 2.252612 1_455
Li8 O1 2.082572 1_555
Li8 O14 2.082572 1_555
Li8 O8 2.096554 1_555
Li8 O5 2.096554 1_555
Li8 O6 2.118467 1_555
Li8 O9 2.118467 1_555
Co0 O6 1.958073 1_555
Co0 O10 2.004103 1_655
Co0 O8 2.027164 1_555
Co0 O0 2.045230 1_555
Co0 O15 2.055900 1_655
Co0 O7 2.104207 1_565
Co1 O14 1.861443 1_555
Co1 O5 1.862788 1_555
Co1 O13 1.929973 1_555
Co1 O2 1.947269 1_554
Co1 O3 1.948040 1_555
Co1 O11 1.957826 1_554
Co2 O9 1.958073 1_555
Co2 O4 2.004103 1_455
Co2 O5 2.027164 1_555
Co2 O13 2.045230 1_555
Co2 O7 2.055900 1_455
Co2 O15 2.104207 1_545
Co3 O6 1.912731 1_555
Co3 O14 1.997922 1_555
Co3 O12 2.003001 1_555
Co3 O15 2.006264 1_655
Co3 O3 2.065642 1_555
Co3 O4 2.117204 1_565
Co4 O4 1.945705 1_455
Co4 O10 1.945705 1_544
Co4 O12 2.052484 1_445
Co4 O2 2.052484 1_554
Co4 O13 2.064977 1_555
Co4 O0 2.064977 1_444
Co5 O1 1.861443 1_555
Co5 O8 1.862788 1_555
Co5 O0 1.929973 1_555
Co5 O12 1.947269 1_556
Co5 O11 1.948040 1_555
Co5 O3 1.957826 1_556
Co6 O9 1.912731 1_555
Co6 O1 1.997922 1_555
Co6 O2 2.003001 1_555
Co6 O7 2.006264 1_455
Co6 O11 2.065642 1_555
Co6 O10 2.117204 1_545
