# generated using pymatgen
data_ScSnPd
_symmetry_space_group_name_H-M   'P 1'
_cell_length_a   7.48229257
_cell_length_b   7.48229162
_cell_length_c   7.24166429
_cell_angle_alpha   90.00000000
_cell_angle_beta   90.00000000
_cell_angle_gamma   119.99999516
_symmetry_Int_Tables_number   1
_chemical_formula_structural   ScSnPd
_chemical_formula_sum   'Sc6 Sn6 Pd6'
_cell_volume   351.10608567
_cell_formula_units_Z   6
loop_
 _symmetry_equiv_pos_site_id
 _symmetry_equiv_pos_as_xyz
  1  'x, y, z'
loop_
 _atom_site_type_symbol
 _atom_site_label
 _atom_site_symmetry_multiplicity
 _atom_site_fract_x
 _atom_site_fract_y
 _atom_site_fract_z
 _atom_site_occupancy
  Sc  Sc0  1  0.40071378  0.01453518  0.25000000  1
  Sc  Sc1  1  0.61382140  0.59928622  0.25000000  1
  Sc  Sc2  1  0.98546482  0.38617860  0.25000000  1
  Sc  Sc3  1  0.38617860  0.98546482  0.75000000  1
  Sc  Sc4  1  0.59928622  0.61382140  0.75000000  1
  Sc  Sc5  1  0.01453518  0.40071378  0.75000000  1
  Sn  Sn0  1  0.72544556  0.00000000  -0.00000000  1
  Sn  Sn1  1  0.27455444  0.27455444  0.50000000  1
  Sn  Sn2  1  0.00000000  0.72544556  0.50000000  1
  Sn  Sn3  1  0.00000000  0.72544556  -0.00000000  1
  Sn  Sn4  1  0.27455444  0.27455444  -0.00000000  1
  Sn  Sn5  1  0.72544556  0.00000000  0.50000000  1
  Pd  Pd0  1  0.33333300  0.66666700  0.03184576  1
  Pd  Pd1  1  0.33333300  0.66666700  0.46815424  1
  Pd  Pd2  1  0.66666700  0.33333300  0.96815424  1
  Pd  Pd3  1  0.66666700  0.33333300  0.53184576  1
  Pd  Pd4  1  0.00000000  -0.00000000  0.25000000  1
  Pd  Pd5  1  0.00000000  -0.00000000  0.75000000  1
loop_
_geom_bond_atom_site_label_1
_geom_bond_atom_site_label_2
_geom_bond_distance
_geom_bond_site_symmetry_2
Sc0 Sn5 3.075274 1_555
Sc0 Sn0 3.075274 1_555
Sc0 Sn1 3.128947 1_555
Sc0 Sn4 3.128947 1_555
Sc0 Sn2 3.234280 1_545
Sc0 Sn3 3.234280 1_545
Sc1 Sn4 3.075274 1_555
Sc1 Sn1 3.075274 1_555
Sc1 Sn2 3.128947 1_655
Sc1 Sn3 3.128947 1_655
Sc1 Sn5 3.234279 1_565
Sc1 Sn0 3.234279 1_565
Sc2 Sn3 3.075274 1_655
Sc2 Sn2 3.075274 1_655
Sc2 Sn5 3.128947 1_555
Sc2 Sn0 3.128947 1_555
Sc2 Sn4 3.234279 1_655
Sc2 Sn1 3.234279 1_655
Sc3 Sn0 3.075274 1_566
Sc3 Sn5 3.075274 1_565
Sc3 Sn2 3.128947 1_555
Sc3 Sn3 3.128947 1_556
Sc3 Sn4 3.234279 1_566
Sc3 Sn1 3.234279 1_565
Sc4 Sn1 3.075274 1_555
Sc4 Sn4 3.075274 1_556
Sc4 Sn0 3.128947 1_566
Sc4 Sn5 3.128947 1_565
Sc4 Sn2 3.234280 1_655
Sc4 Sn3 3.234280 1_656
Sc5 Sn2 3.075274 1_555
Sc5 Sn3 3.075274 1_556
Sc5 Sn4 3.128947 1_556
Sc5 Sn1 3.128947 1_555
Sc5 Sn0 3.234279 1_456
Sc5 Sn5 3.234279 1_455
Pd0 Sn3 2.750275 1_555
Pd0 Sn0 2.750280 1_565
Pd0 Sn4 2.750283 1_555
Pd0 Sc0 2.865750 1_565
Pd0 Sc2 2.865752 1_455
Pd0 Sc1 2.865756 1_555
Pd0 Sc3 3.011448 1_554
Pd0 Sc5 3.011450 1_554
Pd0 Sc4 3.011454 1_554
Pd0 Pd1 3.159600 1_555
Pd1 Sn2 2.750275 1_555
Pd1 Sn5 2.750280 1_565
Pd1 Sn1 2.750283 1_555
Pd1 Sc0 2.865750 1_565
Pd1 Sc2 2.865752 1_455
Pd1 Sc1 2.865756 1_555
Pd1 Sc3 3.011448 1_555
Pd1 Sc5 3.011450 1_555
Pd1 Sc4 3.011454 1_555
Pd2 Sn0 2.750275 1_556
Pd2 Sn3 2.750280 1_656
Pd2 Sn4 2.750283 1_556
Pd2 Sc5 2.865750 1_655
Pd2 Sc3 2.865752 1_545
Pd2 Sc4 2.865756 1_555
Pd2 Sc2 3.011448 1_556
Pd2 Sc0 3.011450 1_556
Pd2 Sc1 3.011454 1_556
Pd2 Pd3 3.159600 1_555
Pd3 Sn5 2.750275 1_555
Pd3 Sn2 2.750280 1_655
Pd3 Sn1 2.750283 1_555
Pd3 Sc5 2.865750 1_655
Pd3 Sc3 2.865752 1_545
Pd3 Sc4 2.865756 1_555
Pd3 Sc2 3.011448 1_555
Pd3 Sc0 3.011450 1_555
Pd3 Sc1 3.011454 1_555
Pd4 Sn3 2.738200 1_545
Pd4 Sn2 2.738200 1_545
Pd4 Sn0 2.738200 1_455
Pd4 Sn5 2.738200 1_455
Pd4 Sn1 2.738200 1_555
Pd4 Sn4 2.738200 1_555
Pd4 Sc2 2.945385 1_455
Pd4 Sc1 2.945386 1_445
Pd4 Sc0 2.945386 1_555
Pd5 Sn2 2.738200 1_545
Pd5 Sn3 2.738200 1_546
Pd5 Sn0 2.738200 1_456
Pd5 Sn5 2.738200 1_455
Pd5 Sn1 2.738200 1_555
Pd5 Sn4 2.738200 1_556
Pd5 Sc5 2.945385 1_555
Pd5 Sc3 2.945386 1_545
Pd5 Sc4 2.945386 1_445
