# generated using pymatgen
data_SrCa3Yb9O18
_symmetry_space_group_name_H-M   'P 1'
_cell_length_a   17.58843343
_cell_length_b   17.58843343
_cell_length_c   3.43176100
_cell_angle_alpha   90.00000000
_cell_angle_beta   90.00000000
_cell_angle_gamma   119.99999786
_symmetry_Int_Tables_number   1
_chemical_formula_structural   SrCa3Yb9O18
_chemical_formula_sum   'Sr2 Ca6 Yb18 O36'
_cell_volume   919.39469659
_cell_formula_units_Z   2
loop_
 _symmetry_equiv_pos_site_id
 _symmetry_equiv_pos_as_xyz
  1  'x, y, z'
loop_
 _atom_site_type_symbol
 _atom_site_label
 _atom_site_symmetry_multiplicity
 _atom_site_fract_x
 _atom_site_fract_y
 _atom_site_fract_z
 _atom_site_occupancy
  Sr  Sr0  1  0.33333300  0.66666700  0.97956900  1
  Sr  Sr1  1  0.66666700  0.33333300  0.47956900  1
  Ca  Ca0  1  0.66774500  0.99669800  0.74953300  1
  Ca  Ca1  1  0.32895300  0.33225500  0.74953300  1
  Ca  Ca2  1  0.33225500  0.00330200  0.24953300  1
  Ca  Ca3  1  0.00330200  0.67104700  0.74953300  1
  Ca  Ca4  1  0.67104700  0.66774500  0.24953300  1
  Ca  Ca5  1  0.99669800  0.32895300  0.24953300  1
  Yb  Yb0  1  0.55600900  0.77324900  0.75064800  1
  Yb  Yb1  1  0.21724000  0.44399100  0.75064800  1
  Yb  Yb2  1  0.44399100  0.22675100  0.25064800  1
  Yb  Yb3  1  0.22675100  0.78276000  0.75064800  1
  Yb  Yb4  1  0.78276000  0.55600900  0.25064800  1
  Yb  Yb5  1  0.77324900  0.21724000  0.25064800  1
  Yb  Yb6  1  0.87237200  0.75589900  0.74656300  1
  Yb  Yb7  1  0.88352700  0.12762800  0.74656300  1
  Yb  Yb8  1  0.12762800  0.24410100  0.24656300  1
  Yb  Yb9  1  0.24410100  0.11647300  0.74656300  1
  Yb  Yb10  1  0.11647300  0.87237200  0.24656300  1
  Yb  Yb11  1  0.75589900  0.88352700  0.24656300  1
  Yb  Yb12  1  0.90032100  0.44516700  0.75527700  1
  Yb  Yb13  1  0.54484500  0.09967900  0.75527700  1
  Yb  Yb14  1  0.09967900  0.55483300  0.25527700  1
  Yb  Yb15  1  0.55483300  0.45515500  0.75527700  1
  Yb  Yb16  1  0.45515500  0.90032100  0.25527700  1
  Yb  Yb17  1  0.44516700  0.54484500  0.25527700  1
  O  O0  1  0.45741000  0.81741200  0.75534200  1
  O  O1  1  0.36000200  0.54259000  0.75534200  1
  O  O2  1  0.54259000  0.18258800  0.25534200  1
  O  O3  1  0.18258800  0.63999800  0.75534200  1
  O  O4  1  0.63999800  0.45741000  0.25534200  1
  O  O5  1  0.81741200  0.36000200  0.25534200  1
  O  O6  1  0.79080200  0.47424000  0.75985000  1
  O  O7  1  0.68343800  0.20919800  0.75985000  1
  O  O8  1  0.20919800  0.52576000  0.25985000  1
  O  O9  1  0.52576000  0.31656200  0.75985000  1
  O  O10  1  0.31656200  0.79080200  0.25985000  1
  O  O11  1  0.47424000  0.68343800  0.25985000  1
  O  O12  1  0.41337100  0.96866000  0.75127400  1
  O  O13  1  0.55528900  0.58662900  0.75127400  1
  O  O14  1  0.58662900  0.03134000  0.25127400  1
  O  O15  1  0.03134000  0.44471100  0.75127400  1
  O  O16  1  0.44471100  0.41337100  0.25127400  1
  O  O17  1  0.96866000  0.55528900  0.25127400  1
  O  O18  1  0.79627700  0.97939500  0.74617200  1
  O  O19  1  0.18311800  0.20372300  0.74617200  1
  O  O20  1  0.20372300  0.02060500  0.24617200  1
  O  O21  1  0.02060500  0.81688200  0.74617200  1
  O  O22  1  0.81688200  0.79627700  0.24617200  1
  O  O23  1  0.97939500  0.18311800  0.24617200  1
  O  O24  1  0.73896200  0.62015400  0.74660700  1
  O  O25  1  0.88119200  0.26103800  0.74660700  1
  O  O26  1  0.26103800  0.37984600  0.24660700  1
  O  O27  1  0.37984600  0.11880800  0.74660700  1
  O  O28  1  0.11880800  0.73896200  0.24660700  1
  O  O29  1  0.62015400  0.88119200  0.24660700  1
  O  O30  1  0.68610300  0.77579700  0.74554400  1
  O  O31  1  0.08969400  0.31389700  0.74554400  1
  O  O32  1  0.31389700  0.22420300  0.24554400  1
  O  O33  1  0.22420300  0.91030600  0.74554400  1
  O  O34  1  0.91030600  0.68610300  0.24554400  1
  O  O35  1  0.77579700  0.08969400  0.24554400  1
loop_
_geom_bond_atom_site_label_1
_geom_bond_atom_site_label_2
_geom_bond_distance
_geom_bond_site_symmetry_2
Ca0 O18 2.427222 1_555
Ca0 O29 2.457090 1_556
Ca0 O35 2.464971 1_566
Ca0 O29 2.471074 1_555
Ca0 O35 2.483957 1_565
Ca0 O14 2.489938 1_565
Ca0 O14 2.498159 1_566
Ca1 O19 2.427222 1_555
Ca1 O26 2.457090 1_556
Ca1 O32 2.464971 1_556
Ca1 O26 2.471074 1_555
Ca1 O32 2.483957 1_555
Ca1 O16 2.489938 1_555
Ca1 O16 2.498160 1_556
Ca2 O20 2.427222 1_555
Ca2 O27 2.457090 1_555
Ca2 O33 2.464971 1_545
Ca2 O27 2.471074 1_554
Ca2 O33 2.483957 1_544
Ca2 O12 2.489938 1_544
Ca2 O12 2.498159 1_545
Ca3 O21 2.427222 1_555
Ca3 O28 2.457090 1_556
Ca3 O34 2.464971 1_456
Ca3 O28 2.471074 1_555
Ca3 O34 2.483957 1_455
Ca3 O17 2.489938 1_455
Ca3 O17 2.498159 1_456
Ca4 O22 2.427222 1_555
Ca4 O24 2.457090 1_555
Ca4 O30 2.464971 1_555
Ca4 O24 2.471074 1_554
Ca4 O30 2.483957 1_554
Ca4 O13 2.489938 1_554
Ca4 O13 2.498160 1_555
Ca5 O23 2.427222 1_555
Ca5 O25 2.457090 1_555
Ca5 O31 2.464971 1_655
Ca5 O25 2.471074 1_554
Ca5 O31 2.483957 1_654
Ca5 O15 2.489938 1_654
Ca5 O15 2.498159 1_655
O0 Yb0 2.226685 1_555
O0 Yb16 2.264807 1_556
O0 Yb16 2.265145 1_555
O0 Sr0 2.568708 1_555
O1 Yb1 2.226685 1_555
O1 Yb17 2.264819 1_556
O1 Yb17 2.265157 1_555
O1 Sr0 2.568719 1_555
O2 Yb2 2.226685 1_555
O2 Yb13 2.264807 1_555
O2 Yb13 2.265145 1_554
O2 Sr1 2.568708 1_555
O3 Yb3 2.226685 1_555
O3 Yb14 2.264813 1_556
O3 Yb14 2.265151 1_555
O3 Sr0 2.568702 1_555
O4 Yb4 2.226685 1_555
O4 Yb15 2.264819 1_555
O4 Yb15 2.265157 1_554
O4 Sr1 2.568719 1_555
O5 Yb5 2.226685 1_555
O5 Yb12 2.264813 1_555
O5 Yb12 2.265151 1_554
O5 Sr1 2.568702 1_555
O6 Yb12 2.226483 1_555
O6 Yb4 2.264661 1_556
O6 Yb4 2.312020 1_555
O6 Sr1 2.534410 1_555
O7 Yb13 2.226494 1_555
O7 Yb5 2.264661 1_556
O7 Yb5 2.312020 1_555
O7 Sr1 2.534401 1_555
O8 Yb14 2.226483 1_555
O8 Yb1 2.264661 1_555
O8 Yb1 2.312020 1_554
O8 Sr0 2.534410 1_554
O9 Yb15 2.226500 1_555
O9 Yb2 2.264661 1_556
O9 Yb2 2.312020 1_555
O9 Sr1 2.534417 1_555
O10 Yb16 2.226494 1_555
O10 Yb3 2.264661 1_555
O10 Yb3 2.312020 1_554
O10 Sr0 2.534401 1_554
O11 Yb17 2.226500 1_555
O11 Yb0 2.264661 1_555
O11 Yb0 2.312020 1_554
O11 Sr0 2.534417 1_554
O12 Yb13 2.308472 1_565
O12 Yb16 2.401143 1_555
O12 Yb16 2.420697 1_556
O13 Yb15 2.308463 1_555
O13 Yb17 2.401132 1_555
O13 Yb17 2.420686 1_556
O14 Yb16 2.308472 1_545
O14 Yb13 2.401143 1_554
O14 Yb13 2.420697 1_555
O15 Yb12 2.308480 1_455
O15 Yb14 2.401133 1_555
O15 Yb14 2.420687 1_556
O16 Yb17 2.308463 1_555
O16 Yb15 2.401132 1_554
O16 Yb15 2.420686 1_555
O17 Yb14 2.308480 1_655
O17 Yb12 2.401133 1_554
O17 Yb12 2.420687 1_555
O18 Yb11 2.256031 1_555
O18 Yb11 2.258071 1_556
O18 Yb7 2.269676 1_565
O19 Yb8 2.256031 1_555
O19 Yb8 2.258071 1_556
O19 Yb9 2.269675 1_555
O20 Yb9 2.256031 1_554
O20 Yb9 2.258071 1_555
O20 Yb10 2.269676 1_545
O21 Yb10 2.256031 1_555
O21 Yb10 2.258071 1_556
O21 Yb6 2.269676 1_455
O22 Yb6 2.256031 1_554
O22 Yb6 2.258071 1_555
O22 Yb11 2.269675 1_555
O23 Yb7 2.256031 1_554
O23 Yb7 2.258071 1_555
O23 Yb8 2.269676 1_655
O24 Yb6 2.367275 1_555
O24 Yb4 2.373232 1_555
O24 Yb4 2.393201 1_556
O25 Yb7 2.367275 1_555
O25 Yb5 2.373232 1_555
O25 Yb5 2.393201 1_556
O26 Yb8 2.367275 1_555
O26 Yb1 2.373232 1_554
O26 Yb1 2.393201 1_555
O27 Yb9 2.367275 1_555
O27 Yb2 2.373232 1_555
O27 Yb2 2.393201 1_556
O28 Yb10 2.367275 1_555
O28 Yb3 2.373232 1_554
O28 Yb3 2.393201 1_555
O29 Yb11 2.367275 1_555
O29 Yb0 2.373232 1_554
O29 Yb0 2.393201 1_555
O30 Yb0 2.266142 1_555
O30 Yb11 2.388195 1_555
O30 Yb11 2.393215 1_556
O31 Yb1 2.266142 1_555
O31 Yb8 2.388195 1_555
O31 Yb8 2.393215 1_556
O32 Yb2 2.266142 1_555
O32 Yb9 2.388195 1_554
O32 Yb9 2.393215 1_555
O33 Yb3 2.266142 1_555
O33 Yb10 2.388195 1_555
O33 Yb10 2.393215 1_556
O34 Yb4 2.266142 1_555
O34 Yb6 2.388195 1_554
O34 Yb6 2.393215 1_555
O35 Yb5 2.266142 1_555
O35 Yb7 2.388195 1_554
O35 Yb7 2.393215 1_555
