# generated using pymatgen
data_Ca7MgMn7FeO24
_symmetry_space_group_name_H-M   'P 1'
_cell_length_a   7.61570692
_cell_length_b   7.61570692
_cell_length_c   7.61570706
_cell_angle_alpha   89.99493530
_cell_angle_beta   89.99493530
_cell_angle_gamma   89.99493553
_symmetry_Int_Tables_number   1
_chemical_formula_structural   Ca7MgMn7FeO24
_chemical_formula_sum   'Ca7 Mg1 Mn7 Fe1 O24'
_cell_volume   441.70332658
_cell_formula_units_Z   1
loop_
 _symmetry_equiv_pos_site_id
 _symmetry_equiv_pos_as_xyz
  1  'x, y, z'
loop_
 _atom_site_type_symbol
 _atom_site_label
 _atom_site_symmetry_multiplicity
 _atom_site_fract_x
 _atom_site_fract_y
 _atom_site_fract_z
 _atom_site_occupancy
  Ca  Ca0  1  0.24980600  0.24980600  0.75016900  1
  Ca  Ca1  1  0.75018200  0.24978800  0.75018200  1
  Ca  Ca2  1  0.75016900  0.24980600  0.24980600  1
  Ca  Ca3  1  0.24978800  0.75018200  0.75018200  1
  Ca  Ca4  1  0.75017000  0.75017000  0.75017000  1
  Ca  Ca5  1  0.24980600  0.75016900  0.24980600  1
  Ca  Ca6  1  0.75018200  0.75018200  0.24978800  1
  Mg  Mg0  1  0.24979600  0.24979600  0.24979600  1
  Mn  Mn0  1  0.49956200  0.00053100  0.00053100  1
  Mn  Mn1  1  0.00053100  0.00053100  0.49956200  1
  Mn  Mn2  1  0.49952700  0.00046300  0.49952700  1
  Mn  Mn3  1  0.00053100  0.49956200  0.00053100  1
  Mn  Mn4  1  0.49952700  0.49952700  0.00046300  1
  Mn  Mn5  1  0.00046300  0.49952700  0.49952700  1
  Mn  Mn6  1  0.49947600  0.49947600  0.49947600  1
  Fe  Fe0  1  0.00057300  0.00057300  0.00057300  1
  O  O0  1  0.00230700  0.25395800  0.00230700  1
  O  O1  1  0.49749500  0.25070800  0.00251600  1
  O  O2  1  0.00251600  0.25070800  0.49749500  1
  O  O3  1  0.49751200  0.25023000  0.49751200  1
  O  O4  1  0.00040900  0.74612000  0.00040900  1
  O  O5  1  0.49972400  0.74927600  0.00025600  1
  O  O6  1  0.00025600  0.74927600  0.49972400  1
  O  O7  1  0.49973300  0.74973000  0.49973300  1
  O  O8  1  0.00040900  0.00040900  0.74612000  1
  O  O9  1  0.49972400  0.00025600  0.74927600  1
  O  O10  1  0.00230700  0.00230700  0.25395800  1
  O  O11  1  0.49749500  0.00251600  0.25070800  1
  O  O12  1  0.00025600  0.49972400  0.74927600  1
  O  O13  1  0.49973300  0.49973300  0.74973000  1
  O  O14  1  0.00251600  0.49749500  0.25070800  1
  O  O15  1  0.49751200  0.49751200  0.25023000  1
  O  O16  1  0.25395800  0.00230700  0.00230700  1
  O  O17  1  0.74612000  0.00040900  0.00040900  1
  O  O18  1  0.25070800  0.00251600  0.49749500  1
  O  O19  1  0.74927600  0.00025600  0.49972400  1
  O  O20  1  0.25070800  0.49749500  0.00251600  1
  O  O21  1  0.74927600  0.49972400  0.00025600  1
  O  O22  1  0.25023000  0.49751200  0.49751200  1
  O  O23  1  0.74973000  0.49973300  0.49973300  1
loop_
_geom_bond_atom_site_label_1
_geom_bond_atom_site_label_2
_geom_bond_distance
_geom_bond_site_symmetry_2
Ca0 O8 2.686364 1_555
Ca0 O9 2.689585 1_555
Ca0 O12 2.689585 1_555
Ca0 O0 2.690787 1_556
Ca0 O16 2.690787 1_556
Ca0 O13 2.691893 1_555
Ca0 O18 2.692648 1_555
Ca0 O2 2.692648 1_555
Ca0 O20 2.692998 1_556
Ca0 O1 2.692998 1_556
Ca0 O22 2.694529 1_555
Ca0 O3 2.694529 1_555
Ca1 O8 2.690500 1_655
Ca1 O17 2.690500 1_556
Ca1 O9 2.692638 1_555
Ca1 O19 2.692638 1_555
Ca1 O12 2.692740 1_655
Ca1 O21 2.692740 1_556
Ca1 O13 2.694565 1_555
Ca1 O23 2.694565 1_555
Ca1 O0 2.715755 1_656
Ca1 O1 2.719487 1_556
Ca1 O2 2.719487 1_655
Ca1 O3 2.721437 1_555
Ca2 O17 2.686364 1_555
Ca2 O21 2.689585 1_555
Ca2 O19 2.689585 1_555
Ca2 O10 2.690787 1_655
Ca2 O0 2.690787 1_655
Ca2 O23 2.691893 1_555
Ca2 O11 2.692648 1_555
Ca2 O1 2.692648 1_555
Ca2 O14 2.692998 1_655
Ca2 O2 2.692998 1_655
Ca2 O15 2.694529 1_555
Ca2 O3 2.694529 1_555
Ca3 O8 2.690500 1_565
Ca3 O4 2.690500 1_556
Ca3 O12 2.692638 1_555
Ca3 O6 2.692638 1_555
Ca3 O9 2.692740 1_565
Ca3 O5 2.692740 1_556
Ca3 O13 2.694565 1_555
Ca3 O7 2.694565 1_555
Ca3 O16 2.715755 1_566
Ca3 O20 2.719487 1_556
Ca3 O18 2.719487 1_565
Ca3 O22 2.721437 1_555
Ca4 O12 2.695314 1_655
Ca4 O9 2.695314 1_565
Ca4 O21 2.695314 1_556
Ca4 O5 2.695314 1_556
Ca4 O6 2.695314 1_655
Ca4 O19 2.695314 1_565
Ca4 O8 2.695425 1_665
Ca4 O4 2.695425 1_656
Ca4 O17 2.695425 1_566
Ca4 O13 2.697387 1_555
Ca4 O23 2.697387 1_555
Ca4 O7 2.697387 1_555
Ca5 O4 2.686364 1_555
Ca5 O5 2.689585 1_555
Ca5 O6 2.689585 1_555
Ca5 O10 2.690787 1_565
Ca5 O16 2.690787 1_565
Ca5 O7 2.691893 1_555
Ca5 O14 2.692648 1_555
Ca5 O20 2.692648 1_555
Ca5 O11 2.692998 1_565
Ca5 O18 2.692998 1_565
Ca5 O15 2.694529 1_555
Ca5 O22 2.694529 1_555
Ca6 O17 2.690500 1_565
Ca6 O4 2.690500 1_655
Ca6 O21 2.692638 1_555
Ca6 O5 2.692638 1_555
Ca6 O6 2.692740 1_655
Ca6 O19 2.692740 1_565
Ca6 O23 2.694565 1_555
Ca6 O7 2.694565 1_555
Ca6 O10 2.715755 1_665
Ca6 O11 2.719487 1_565
Ca6 O14 2.719487 1_655
Ca6 O15 2.721437 1_555
Mg0 O11 2.665413 1_555
Mg0 O14 2.665413 1_555
Mg0 O20 2.665413 1_555
Mg0 O1 2.665413 1_555
Mg0 O2 2.665413 1_555
Mg0 O18 2.665413 1_555
Mg0 O10 2.665817 1_555
Mg0 O0 2.665817 1_555
Mg0 O16 2.665817 1_555
Mg0 O15 2.668080 1_555
Mg0 O22 2.668080 1_555
Mg0 O3 2.668080 1_555
Mn0 O16 1.870544 1_555
Mn0 O17 1.877714 1_555
Mn0 O1 1.905400 1_555
Mn0 O11 1.905400 1_555
Mn0 O5 1.913486 1_545
Mn0 O9 1.913486 1_554
Mn1 O10 1.870544 1_555
Mn1 O8 1.877714 1_555
Mn1 O2 1.905400 1_555
Mn1 O18 1.905400 1_555
Mn1 O19 1.913486 1_455
Mn1 O6 1.913486 1_545
Mn2 O18 1.895060 1_555
Mn2 O11 1.895060 1_555
Mn2 O19 1.902016 1_555
Mn2 O9 1.902016 1_555
Mn2 O3 1.902273 1_555
Mn2 O7 1.909510 1_545
Mn3 O0 1.870544 1_555
Mn3 O4 1.877714 1_555
Mn3 O20 1.905400 1_555
Mn3 O14 1.905400 1_555
Mn3 O21 1.913486 1_455
Mn3 O12 1.913486 1_554
Mn4 O1 1.895060 1_555
Mn4 O20 1.895060 1_555
Mn4 O21 1.902016 1_555
Mn4 O5 1.902016 1_555
Mn4 O15 1.902273 1_555
Mn4 O13 1.909510 1_554
Mn5 O2 1.895060 1_555
Mn5 O14 1.895060 1_555
Mn5 O6 1.902016 1_555
Mn5 O12 1.902016 1_555
Mn5 O22 1.902273 1_555
Mn5 O23 1.909510 1_455
Mn6 O22 1.898305 1_555
Mn6 O3 1.898305 1_555
Mn6 O15 1.898305 1_555
Mn6 O7 1.905863 1_555
Mn6 O23 1.905863 1_555
Mn6 O13 1.905864 1_555
Fe0 O16 1.929799 1_555
Fe0 O0 1.929799 1_555
Fe0 O10 1.929799 1_555
Fe0 O4 1.937840 1_545
Fe0 O17 1.937840 1_455
Fe0 O8 1.937841 1_554
