# generated using pymatgen
data_NdZr
_symmetry_space_group_name_H-M   'P 1'
_cell_length_a   6.82217624
_cell_length_b   6.82217624
_cell_length_c   11.22904400
_cell_angle_alpha   90.00000000
_cell_angle_beta   90.00000000
_cell_angle_gamma   120.00000231
_symmetry_Int_Tables_number   1
_chemical_formula_structural   NdZr
_chemical_formula_sum   'Nd8 Zr8'
_cell_volume   452.60492351
_cell_formula_units_Z   8
loop_
 _symmetry_equiv_pos_site_id
 _symmetry_equiv_pos_as_xyz
  1  'x, y, z'
loop_
 _atom_site_type_symbol
 _atom_site_label
 _atom_site_symmetry_multiplicity
 _atom_site_fract_x
 _atom_site_fract_y
 _atom_site_fract_z
 _atom_site_occupancy
  Nd  Nd0_0  1  0.16666650  0.33333350  0.25000000  1
  Nd  Nd0_1  1  0.16666650  0.33333350  0.75000000  1
  Nd  Nd0_2  1  0.16666650  0.83333350  0.25000000  1
  Nd  Nd0_3  1  0.16666650  0.83333350  0.75000000  1
  Nd  Nd0_4  1  0.66666650  0.33333350  0.25000000  1
  Nd  Nd0_5  1  0.66666650  0.33333350  0.75000000  1
  Nd  Nd0_6  1  0.66666650  0.83333350  0.25000000  1
  Nd  Nd0_7  1  0.66666650  0.83333350  0.75000000  1
  Zr  Zr0_0  1  0.00000000  0.00000000  0.00000000  1
  Zr  Zr0_1  1  0.00000000  0.00000000  0.50000000  1
  Zr  Zr0_2  1  0.00000000  0.50000000  0.00000000  1
  Zr  Zr0_3  1  0.00000000  0.50000000  0.50000000  1
  Zr  Zr0_4  1  0.50000000  0.00000000  0.00000000  1
  Zr  Zr0_5  1  0.50000000  0.00000000  0.50000000  1
  Zr  Zr0_6  1  0.50000000  0.50000000  0.00000000  1
  Zr  Zr0_7  1  0.50000000  0.50000000  0.50000000  1
loop_
_geom_bond_atom_site_label_1
_geom_bond_atom_site_label_2
_geom_bond_distance
_geom_bond_site_symmetry_2
Nd0_0 Nd0_6 3.411088 1_445
Nd0_0 Nd0_6 3.411088 1_555
Nd0_0 Nd0_2 3.411088 1_555
Nd0_0 Nd0_4 3.411088 1_455
Nd0_0 Nd0_2 3.411088 1_545
Nd0_0 Nd0_4 3.411088 1_555
Nd0_0 Zr0_2 3.429171 1_555
Nd0_0 Zr0_3 3.429171 1_555
Nd0_0 Zr0_1 3.429173 1_555
Nd0_0 Zr0_7 3.429173 1_555
Nd0_0 Zr0_0 3.429173 1_555
Nd0_0 Zr0_6 3.429173 1_555
Nd0_1 Nd0_7 3.411088 1_445
Nd0_1 Nd0_7 3.411088 1_555
Nd0_1 Nd0_5 3.411088 1_455
Nd0_1 Nd0_3 3.411088 1_555
Nd0_1 Nd0_3 3.411088 1_545
Nd0_1 Nd0_5 3.411088 1_555
Nd0_1 Zr0_3 3.429171 1_555
Nd0_1 Zr0_2 3.429171 1_556
Nd0_1 Zr0_7 3.429173 1_555
Nd0_1 Zr0_1 3.429173 1_555
Nd0_1 Zr0_0 3.429173 1_556
Nd0_1 Zr0_6 3.429173 1_556
Nd0_2 Nd0_4 3.411088 1_565
Nd0_2 Nd0_4 3.411088 1_455
Nd0_2 Nd0_6 3.411088 1_555
Nd0_2 Nd0_6 3.411088 1_455
Nd0_2 Zr0_0 3.429171 1_565
Nd0_2 Zr0_1 3.429171 1_565
Nd0_2 Zr0_2 3.429173 1_555
Nd0_2 Zr0_5 3.429173 1_565
Nd0_2 Zr0_3 3.429173 1_555
Nd0_2 Zr0_4 3.429173 1_565
Nd0_3 Nd0_5 3.411088 1_565
Nd0_3 Nd0_5 3.411088 1_455
Nd0_3 Nd0_7 3.411088 1_555
Nd0_3 Nd0_7 3.411088 1_455
Nd0_3 Zr0_1 3.429171 1_565
Nd0_3 Zr0_0 3.429171 1_566
Nd0_3 Zr0_5 3.429173 1_565
Nd0_3 Zr0_3 3.429173 1_555
Nd0_3 Zr0_4 3.429173 1_566
Nd0_3 Zr0_2 3.429173 1_556
Nd0_4 Nd0_6 3.411088 1_545
Nd0_4 Nd0_6 3.411088 1_555
Nd0_4 Zr0_6 3.429171 1_555
Nd0_4 Zr0_7 3.429171 1_555
Nd0_4 Zr0_5 3.429173 1_555
Nd0_4 Zr0_2 3.429173 1_655
Nd0_4 Zr0_3 3.429173 1_655
Nd0_4 Zr0_4 3.429173 1_555
Nd0_5 Nd0_7 3.411088 1_545
Nd0_5 Nd0_7 3.411088 1_555
Nd0_5 Zr0_7 3.429171 1_555
Nd0_5 Zr0_6 3.429171 1_556
Nd0_5 Zr0_5 3.429173 1_555
Nd0_5 Zr0_3 3.429173 1_655
Nd0_5 Zr0_4 3.429173 1_556
Nd0_5 Zr0_2 3.429173 1_656
Nd0_6 Zr0_4 3.429171 1_565
Nd0_6 Zr0_5 3.429171 1_565
Nd0_6 Zr0_1 3.429173 1_665
Nd0_6 Zr0_0 3.429173 1_665
Nd0_6 Zr0_6 3.429173 1_555
Nd0_6 Zr0_7 3.429173 1_555
Nd0_7 Zr0_5 3.429171 1_565
Nd0_7 Zr0_4 3.429171 1_566
Nd0_7 Zr0_1 3.429173 1_665
Nd0_7 Zr0_7 3.429173 1_555
Nd0_7 Zr0_0 3.429173 1_666
Nd0_7 Zr0_6 3.429173 1_556
Zr0_0 Zr0_6 3.411088 1_445
Zr0_0 Zr0_6 3.411088 1_555
Zr0_0 Zr0_2 3.411088 1_555
Zr0_0 Zr0_4 3.411088 1_555
Zr0_0 Zr0_4 3.411088 1_455
Zr0_0 Zr0_2 3.411088 1_545
Zr0_1 Zr0_7 3.411088 1_445
Zr0_1 Zr0_7 3.411088 1_555
Zr0_1 Zr0_3 3.411088 1_555
Zr0_1 Zr0_5 3.411088 1_455
Zr0_1 Zr0_3 3.411088 1_545
Zr0_1 Zr0_5 3.411088 1_555
Zr0_2 Zr0_4 3.411088 1_565
Zr0_2 Zr0_4 3.411088 1_455
Zr0_2 Zr0_6 3.411088 1_455
Zr0_2 Zr0_6 3.411088 1_555
Zr0_3 Zr0_5 3.411088 1_565
Zr0_3 Zr0_5 3.411088 1_455
Zr0_3 Zr0_7 3.411088 1_455
Zr0_3 Zr0_7 3.411088 1_555
Zr0_4 Zr0_6 3.411088 1_555
Zr0_4 Zr0_6 3.411088 1_545
Zr0_5 Zr0_7 3.411088 1_555
Zr0_5 Zr0_7 3.411088 1_545
