# generated using pymatgen
data_U2Cu(GeO9)2
_symmetry_space_group_name_H-M   'P 1'
_cell_length_a   8.79220843
_cell_length_b   8.79220843
_cell_length_c   6.95131474
_cell_angle_alpha   67.26404629
_cell_angle_beta   112.73595371
_cell_angle_gamma   133.41391356
_symmetry_Int_Tables_number   1
_chemical_formula_structural   U2Cu(GeO9)2
_chemical_formula_sum   'U2 Cu1 Ge2 O18'
_cell_volume   354.10201763
_cell_formula_units_Z   1
loop_
 _symmetry_equiv_pos_site_id
 _symmetry_equiv_pos_as_xyz
  1  'x, y, z'
loop_
 _atom_site_type_symbol
 _atom_site_label
 _atom_site_symmetry_multiplicity
 _atom_site_fract_x
 _atom_site_fract_y
 _atom_site_fract_z
 _atom_site_occupancy
  U  U0  1  0.75505300  0.24494700  0.86621300  1
  U  U1  1  0.24494700  0.75505300  0.13378700  1
  Cu  Cu0  1  0.00000000  0.00000000  0.00000000  1
  Ge  Ge0  1  0.70081500  0.29918500  0.28431500  1
  Ge  Ge1  1  0.29918500  0.70081500  0.71568500  1
  O  O0  1  0.26755400  0.26755400  0.00000000  1
  O  O1  1  0.73244600  0.73244600  0.00000000  1
  O  O2  1  0.95373800  0.04626200  0.56674900  1
  O  O3  1  0.04626200  0.95373800  0.43325100  1
  O  O4  1  0.92163800  0.44286700  0.16234600  1
  O  O5  1  0.55713300  0.07836200  0.16234600  1
  O  O6  1  0.07836200  0.55713300  0.83765400  1
  O  O7  1  0.44286700  0.92163800  0.83765400  1
  O  O8  1  0.58034100  0.41965900  0.21969900  1
  O  O9  1  0.41965900  0.58034100  0.78030100  1
  O  O10  1  0.76237500  0.23762500  0.56069300  1
  O  O11  1  0.23762500  0.76237500  0.43930700  1
  O  O12  1  0.63091100  0.36908900  0.74196200  1
  O  O13  1  0.36908900  0.63091100  0.25803800  1
  O  O14  1  0.88744500  0.11255500  0.00574500  1
  O  O15  1  0.11255500  0.88744500  0.99425500  1
  O  O16  1  0.15035800  0.15035800  0.50000000  1
  O  O17  1  0.84964200  0.84964200  0.50000000  1
loop_
_geom_bond_atom_site_label_1
_geom_bond_atom_site_label_2
_geom_bond_distance
_geom_bond_site_symmetry_2
Cu0 O14 1.835059 1_455
Cu0 O15 1.835059 1_544
Cu0 O0 1.860430 1_555
Cu0 O1 1.860430 1_445
Ge0 O10 1.752715 1_555
Ge0 O5 1.776916 1_555
Ge0 O4 1.776916 1_555
Ge0 O8 1.803432 1_555
Ge1 O11 1.752715 1_555
Ge1 O6 1.776916 1_555
Ge1 O7 1.776916 1_555
Ge1 O9 1.803432 1_555
O4 U1 2.223545 1_655
O4 U0 2.519108 1_554
O5 U1 2.223545 1_545
O5 U0 2.519108 1_554
O6 U0 2.223545 1_455
O6 U1 2.519108 1_556
O7 U0 2.223545 1_565
O7 U1 2.519108 1_556
O10 U0 2.176173 1_555
O11 U1 2.176173 1_555
O12 U0 1.819008 1_555
O13 U1 1.819008 1_555
O14 U0 1.941044 1_554
O15 U1 1.941044 1_556
O16 O2 1.469160 1_455
O16 O3 1.469160 1_545
O17 O3 1.469160 1_655
O17 O2 1.469160 1_565
