# generated using pymatgen
data_SrMnSb2
_symmetry_space_group_name_H-M   'P 1'
_cell_length_a   4.41700900
_cell_length_b   4.41700900
_cell_length_c   11.72008900
_cell_angle_alpha   90.00000000
_cell_angle_beta   90.00000000
_cell_angle_gamma   90.00000000
_symmetry_Int_Tables_number   1
_chemical_formula_structural   SrMnSb2
_chemical_formula_sum   'Sr2 Mn2 Sb4'
_cell_volume   228.65856728
_cell_formula_units_Z   2
loop_
 _symmetry_equiv_pos_site_id
 _symmetry_equiv_pos_as_xyz
  1  'x, y, z'
loop_
 _atom_site_type_symbol
 _atom_site_label
 _atom_site_symmetry_multiplicity
 _atom_site_fract_x
 _atom_site_fract_y
 _atom_site_fract_z
 _atom_site_occupancy
  Sr  Sr0  1  0.00000000  0.50000000  0.23305200  1
  Sr  Sr1  1  0.50000000  0.00000000  0.76694800  1
  Mn  Mn0  1  0.00000000  0.00000000  0.50000000  1
  Mn  Mn1  1  0.50000000  0.50000000  0.50000000  1
  Sb  Sb0  1  0.00000000  0.00000000  0.00000000  1
  Sb  Sb1  1  0.50000000  0.50000000  0.00000000  1
  Sb  Sb2  1  0.00000000  0.50000000  0.64109300  1
  Sb  Sb3  1  0.50000000  0.00000000  0.35890700  1
loop_
_geom_bond_atom_site_label_1
_geom_bond_atom_site_label_2
_geom_bond_distance
_geom_bond_site_symmetry_2
Mn0 Sb2 2.758978 1_545
Mn0 Sb2 2.758978 1_555
Mn0 Sb3 2.758978 1_555
Mn0 Sb3 2.758978 1_455
Mn1 Sb2 2.758978 1_555
Mn1 Sb3 2.758978 1_555
Mn1 Sb3 2.758978 1_565
Mn1 Sb2 2.758978 1_655
Sb0 Sb1 3.123297 1_445
Sb0 Sb1 3.123297 1_455
Sb0 Sb1 3.123297 1_555
Sb0 Sb1 3.123297 1_545
Sb0 Sr0 3.512547 1_555
Sb0 Sr0 3.512547 1_545
Sb0 Sr1 3.512547 1_454
Sb0 Sr1 3.512547 1_554
Sb1 Sr0 3.512547 1_555
Sb1 Sr0 3.512547 1_655
Sb1 Sr1 3.512547 1_554
Sb1 Sr1 3.512547 1_564
Sb2 Sr1 3.454085 1_555
Sb2 Sr1 3.454085 1_455
Sb2 Sr1 3.454085 1_565
Sb2 Sr1 3.454085 1_465
Sb3 Sr0 3.454085 1_655
Sb3 Sr0 3.454085 1_545
Sb3 Sr0 3.454085 1_555
Sb3 Sr0 3.454085 1_645
