# generated using pymatgen
data_Mn8Si6O25
_symmetry_space_group_name_H-M   'P 1'
_cell_length_a   7.64434269
_cell_length_b   12.84727155
_cell_length_c   12.85579074
_cell_angle_alpha   120.02193488
_cell_angle_beta   89.99999751
_cell_angle_gamma   89.93331621
_symmetry_Int_Tables_number   1
_chemical_formula_structural   Mn8Si6O25
_chemical_formula_sum   'Mn16 Si12 O50'
_cell_volume   1093.16080326
_cell_formula_units_Z   2
loop_
 _symmetry_equiv_pos_site_id
 _symmetry_equiv_pos_as_xyz
  1  'x, y, z'
loop_
 _atom_site_type_symbol
 _atom_site_label
 _atom_site_symmetry_multiplicity
 _atom_site_fract_x
 _atom_site_fract_y
 _atom_site_fract_z
 _atom_site_occupancy
  Mn  Mn0  1  0.00000000  0.00000000  0.00000000  1
  Mn  Mn1  1  0.00025200  0.75850200  0.75824800  1
  Mn  Mn2  1  0.99974800  0.24149800  0.99974600  1
  Mn  Mn3  1  0.00000000  0.00000000  0.24228300  1
  Mn  Mn4  1  0.00025200  0.75850200  0.00025400  1
  Mn  Mn5  1  0.00000000  0.00000000  0.75771700  1
  Mn  Mn6  1  0.99974800  0.24149800  0.24175200  1
  Mn  Mn7  1  0.00000000  0.50000000  0.50000000  1
  Mn  Mn8  1  0.00000000  0.50000000  0.00000000  1
  Mn  Mn9  1  0.00000000  0.00000000  0.50000000  1
  Mn  Mn10  1  0.04022800  0.74735900  0.49492200  1
  Mn  Mn11  1  0.04064000  0.50469300  0.25234700  1
  Mn  Mn12  1  0.04022800  0.74735900  0.25243700  1
  Mn  Mn13  1  0.95977200  0.25264100  0.50507800  1
  Mn  Mn14  1  0.95936000  0.49530700  0.74765300  1
  Mn  Mn15  1  0.95977200  0.25264100  0.74756300  1
  Si  Si0  1  0.64006800  0.66733300  0.57720600  1
  Si  Si1  1  0.64001400  0.42270100  0.09032700  1
  Si  Si2  1  0.63995100  0.90938400  0.33236500  1
  Si  Si3  1  0.64006800  0.66733300  0.09012600  1
  Si  Si4  1  0.63995100  0.90938400  0.57701900  1
  Si  Si5  1  0.64001400  0.42270100  0.33237400  1
  Si  Si6  1  0.35993200  0.33266700  0.42279300  1
  Si  Si7  1  0.35998600  0.57729900  0.90967300  1
  Si  Si8  1  0.36004900  0.09061600  0.66763500  1
  Si  Si9  1  0.35993200  0.33266700  0.90987400  1
  Si  Si10  1  0.36004900  0.09061600  0.42298100  1
  Si  Si11  1  0.35998600  0.57729900  0.66762600  1
  O  O0  1  0.50006800  0.67681100  0.67690700  1
  O  O1  1  0.49993200  0.32318900  0.00009600  1
  O  O2  1  0.50000000  0.00000000  0.32315400  1
  O  O3  1  0.50006800  0.67681100  0.99990400  1
  O  O4  1  0.50000000  0.00000000  0.67684600  1
  O  O5  1  0.49993200  0.32318900  0.32309300  1
  O  O6  1  0.59798400  0.55022500  0.44968900  1
  O  O7  1  0.59798400  0.55022500  0.10053600  1
  O  O8  1  0.59767600  0.89896400  0.44948200  1
  O  O9  1  0.40201600  0.44977500  0.55031100  1
  O  O10  1  0.40201600  0.44977500  0.89946400  1
  O  O11  1  0.40232400  0.10103600  0.55051800  1
  O  O12  1  0.60058300  0.77988100  0.55980200  1
  O  O13  1  0.60067400  0.44027700  0.22013800  1
  O  O14  1  0.60058300  0.77988100  0.22007800  1
  O  O15  1  0.39941700  0.22011900  0.44019800  1
  O  O16  1  0.39932600  0.55972300  0.77986200  1
  O  O17  1  0.39941700  0.22011900  0.77992200  1
  O  O18  1  0.84969400  0.66339200  0.60458200  1
  O  O19  1  0.84965900  0.39502700  0.05878100  1
  O  O20  1  0.84942300  0.94079200  0.33656700  1
  O  O21  1  0.84969400  0.66339200  0.05881000  1
  O  O22  1  0.84942300  0.94079200  0.60422500  1
  O  O23  1  0.84965900  0.39502700  0.33624600  1
  O  O24  1  0.15030600  0.33660800  0.39541800  1
  O  O25  1  0.15034100  0.60497300  0.94121900  1
  O  O26  1  0.15057700  0.05920800  0.66343300  1
  O  O27  1  0.15030600  0.33660800  0.94119000  1
  O  O28  1  0.15057700  0.05920800  0.39577500  1
  O  O29  1  0.15034100  0.60497300  0.66375400  1
  O  O30  1  0.88316300  0.91924100  0.83932000  1
  O  O31  1  0.88257500  0.16068400  0.08034200  1
  O  O32  1  0.88316300  0.91924100  0.07992100  1
  O  O33  1  0.11683700  0.08075900  0.16068000  1
  O  O34  1  0.11742500  0.83931600  0.91965800  1
  O  O35  1  0.11683700  0.08075900  0.92007900  1
  O  O36  1  0.10420400  0.83490600  0.66968100  1
  O  O37  1  0.10379400  0.32987400  0.16493700  1
  O  O38  1  0.10420400  0.83490600  0.16522500  1
  O  O39  1  0.89579600  0.16509400  0.33031900  1
  O  O40  1  0.89620600  0.67012600  0.83506300  1
  O  O41  1  0.89579600  0.16509400  0.83477500  1
  O  O42  1  0.11839600  0.57436800  0.42564200  1
  O  O43  1  0.11839600  0.57436800  0.14872600  1
  O  O44  1  0.11817100  0.85100300  0.42550100  1
  O  O45  1  0.88160400  0.42563200  0.57435800  1
  O  O46  1  0.88160400  0.42563200  0.85127400  1
  O  O47  1  0.88182900  0.14899700  0.57449900  1
  O  O48  1  0.93449700  0.66676300  0.33338100  1
  O  O49  1  0.06550300  0.33323700  0.66661900  1
loop_
_geom_bond_atom_site_label_1
_geom_bond_atom_site_label_2
_geom_bond_distance
_geom_bond_site_symmetry_2
Mn0 O31 1.999046 1_455
Mn0 O34 1.999046 1_544
Mn0 O32 1.999675 1_445
Mn0 O35 1.999675 1_554
Mn0 O33 1.999675 1_555
Mn0 O30 1.999675 1_444
Mn1 O30 1.998464 1_455
Mn1 O36 2.002887 1_555
Mn1 O40 2.005235 1_455
Mn1 O34 2.008088 1_555
Mn1 O29 2.068724 1_555
Mn1 O18 2.075586 1_455
Mn2 O35 1.998464 1_655
Mn2 O41 2.002888 1_555
Mn2 O37 2.005235 1_656
Mn2 O31 2.008088 1_556
Mn2 O19 2.068724 1_556
Mn2 O27 2.075585 1_655
Mn3 O38 2.002020 1_545
Mn3 O39 2.002020 1_455
Mn3 O33 2.016445 1_555
Mn3 O32 2.016445 1_445
Mn3 O20 2.073009 1_445
Mn3 O28 2.073010 1_555
Mn4 O32 1.998464 1_455
Mn4 O38 2.002888 1_555
Mn4 O40 2.005235 1_454
Mn4 O34 2.008088 1_554
Mn4 O25 2.068724 1_554
Mn4 O21 2.075585 1_455
Mn5 O41 2.002020 1_455
Mn5 O36 2.002020 1_545
Mn5 O30 2.016445 1_445
Mn5 O35 2.016445 1_555
Mn5 O26 2.073009 1_555
Mn5 O22 2.073010 1_445
Mn6 O33 1.998464 1_655
Mn6 O39 2.002887 1_555
Mn6 O37 2.005235 1_655
Mn6 O31 2.008088 1_555
Mn6 O23 2.068724 1_555
Mn6 O24 2.075586 1_655
Mn7 O45 1.887251 1_455
Mn7 O42 1.887251 1_555
Mn7 O18 2.168978 1_455
Mn7 O24 2.168978 1_555
Mn7 O29 2.175778 1_555
Mn7 O23 2.175778 1_455
Mn8 O43 1.887251 1_555
Mn8 O46 1.887251 1_454
Mn8 O21 2.168978 1_455
Mn8 O27 2.168978 1_554
Mn8 O25 2.175778 1_554
Mn8 O19 2.175778 1_455
Mn9 O47 1.886509 1_455
Mn9 O44 1.886509 1_545
Mn9 O28 2.172737 1_555
Mn9 O22 2.172737 1_445
Mn9 O26 2.172737 1_555
Mn9 O20 2.172737 1_445
Mn10 O48 1.971907 1_455
Mn10 O36 2.006093 1_555
Mn10 O42 2.026281 1_555
Mn10 O44 2.028666 1_555
Mn10 O22 2.602862 1_455
Mn10 O18 2.607296 1_455
Mn11 O48 1.975987 1_455
Mn11 O37 2.003018 1_555
Mn11 O42 2.030654 1_555
Mn11 O43 2.030665 1_555
Mn11 O23 2.608674 1_455
Mn11 O19 2.608683 1_455
Mn12 O48 1.971897 1_455
Mn12 O38 2.006093 1_555
Mn12 O43 2.026281 1_555
Mn12 O44 2.028656 1_555
Mn12 O20 2.602862 1_455
Mn12 O21 2.607297 1_455
Mn13 O49 1.971907 1_655
Mn13 O39 2.006093 1_555
Mn13 O45 2.026281 1_555
Mn13 O47 2.028666 1_555
Mn13 O28 2.602862 1_655
Mn13 O24 2.607296 1_655
Mn14 O49 1.975987 1_655
Mn14 O40 2.003018 1_555
Mn14 O45 2.030654 1_555
Mn14 O46 2.030665 1_555
Mn14 O29 2.608674 1_655
Mn14 O25 2.608683 1_655
Mn15 O49 1.971897 1_655
Mn15 O41 2.006093 1_555
Mn15 O46 2.026281 1_555
Mn15 O47 2.028656 1_555
Mn15 O26 2.602862 1_655
Mn15 O27 2.607297 1_655
O0 Si11 1.626630 1_555
O0 Si0 1.626818 1_555
O1 Si1 1.626630 1_555
O1 Si9 1.626809 1_554
O2 Si2 1.627544 1_545
O2 Si10 1.627544 1_555
O3 Si7 1.626630 1_555
O3 Si3 1.626809 1_556
O4 Si8 1.627544 1_555
O4 Si4 1.627544 1_545
O5 Si5 1.626630 1_555
O5 Si6 1.626809 1_555
O6 Si0 1.608591 1_555
O6 Si5 1.608790 1_555
O7 Si3 1.608598 1_555
O7 Si1 1.608790 1_555
O8 Si2 1.609681 1_555
O8 Si4 1.609681 1_555
O9 Si6 1.608598 1_555
O9 Si11 1.608790 1_555
O10 Si9 1.608598 1_555
O10 Si7 1.608790 1_555
O11 Si8 1.609681 1_555
O11 Si10 1.609681 1_555
O12 Si4 1.593839 1_555
O12 Si0 1.598314 1_555
O13 Si1 1.596609 1_555
O13 Si5 1.596622 1_555
O14 Si2 1.593844 1_555
O14 Si3 1.598314 1_555
O15 Si10 1.593839 1_555
O15 Si6 1.598322 1_555
O16 Si7 1.596609 1_555
O16 Si11 1.596622 1_555
O17 Si8 1.593844 1_555
O17 Si9 1.598314 1_555
O18 Si0 1.646792 1_555
O19 Si1 1.647297 1_555
O20 Si2 1.646060 1_555
O21 Si3 1.646789 1_555
O22 Si4 1.646060 1_555
O23 Si5 1.647297 1_555
O24 Si6 1.646789 1_555
O25 Si7 1.647297 1_555
O26 Si8 1.646060 1_555
O27 Si9 1.646789 1_555
O28 Si10 1.646060 1_555
O29 Si11 1.647297 1_555
