# generated using pymatgen
data_Ni6Ge2B
_symmetry_space_group_name_H-M   'P 1'
_cell_length_a   6.14050997
_cell_length_b   6.14050997
_cell_length_c   2.92951181
_cell_angle_alpha   90.00000000
_cell_angle_beta   90.00000000
_cell_angle_gamma   119.99999519
_symmetry_Int_Tables_number   1
_chemical_formula_structural   Ni6Ge2B
_chemical_formula_sum   'Ni6 Ge2 B1'
_cell_volume   95.66097171
_cell_formula_units_Z   1
loop_
 _symmetry_equiv_pos_site_id
 _symmetry_equiv_pos_as_xyz
  1  'x, y, z'
loop_
 _atom_site_type_symbol
 _atom_site_label
 _atom_site_symmetry_multiplicity
 _atom_site_fract_x
 _atom_site_fract_y
 _atom_site_fract_z
 _atom_site_occupancy
  Ni  Ni0  1  0.76278776  0.76278776  -0.00000000  1
  Ni  Ni1  1  0.23721224  -0.00000000  -0.00000000  1
  Ni  Ni2  1  -0.00000000  0.23721224  0.00000000  1
  Ni  Ni3  1  0.38152645  0.38152645  0.50000000  1
  Ni  Ni4  1  0.61847355  -0.00000000  0.50000000  1
  Ni  Ni5  1  -0.00000000  0.61847355  0.50000000  1
  Ge  Ge0  1  0.66666700  0.33333300  -0.00000000  1
  Ge  Ge1  1  0.33333300  0.66666700  -0.00000000  1
  B  B0  1  -0.00000000  -0.00000000  0.50000000  1
loop_
_geom_bond_atom_site_label_1
_geom_bond_atom_site_label_2
_geom_bond_distance
_geom_bond_site_symmetry_2
Ge0 Ni2 2.397083 1_655
Ge0 Ni1 2.397088 1_555
Ge0 Ni0 2.397089 1_555
Ge0 Ni4 2.411824 1_555
Ge0 Ni4 2.411824 1_554
Ge0 Ni5 2.411826 1_654
Ge0 Ni5 2.411826 1_655
Ge0 Ni3 2.411828 1_555
Ge0 Ni3 2.411828 1_554
Ge1 Ni1 2.397083 1_565
Ge1 Ni2 2.397088 1_555
Ge1 Ni0 2.397089 1_555
Ge1 Ni5 2.411824 1_554
Ge1 Ni5 2.411824 1_555
Ge1 Ni4 2.411826 1_565
Ge1 Ni4 2.411826 1_564
Ge1 Ni3 2.411828 1_555
Ge1 Ni3 2.411828 1_554
B0 Ni2 2.065722 1_556
B0 Ni2 2.065722 1_555
B0 Ni1 2.065722 1_555
B0 Ni1 2.065722 1_556
B0 Ni0 2.065722 1_446
B0 Ni0 2.065722 1_445
B0 Ni5 2.342767 1_545
B0 Ni4 2.342767 1_455
B0 Ni3 2.342767 1_555
