# generated using pymatgen
data_Bi(CO2)3
_symmetry_space_group_name_H-M   'P 1'
_cell_length_a   10.90118016
_cell_length_b   10.90118016
_cell_length_c   4.27326100
_cell_angle_alpha   90.00000000
_cell_angle_beta   90.00000000
_cell_angle_gamma   120.00000099
_symmetry_Int_Tables_number   1
_chemical_formula_structural   Bi(CO2)3
_chemical_formula_sum   'Bi3 C9 O18'
_cell_volume   439.78162649
_cell_formula_units_Z   3
loop_
 _symmetry_equiv_pos_site_id
 _symmetry_equiv_pos_as_xyz
  1  'x, y, z'
loop_
 _atom_site_type_symbol
 _atom_site_label
 _atom_site_symmetry_multiplicity
 _atom_site_fract_x
 _atom_site_fract_y
 _atom_site_fract_z
 _atom_site_occupancy
  Bi  Bi0  1  0.66666700  0.33333300  0.87555700  1
  Bi  Bi1  1  0.00000000  0.00000000  0.23348600  1
  Bi  Bi2  1  0.33333300  0.66666700  0.52887000  1
  C  C0  1  0.51638600  0.03277100  0.43326400  1
  C  C1  1  0.51638600  0.48361400  0.43326400  1
  C  C2  1  0.96722900  0.48361400  0.43326400  1
  C  C3  1  0.85014300  0.70028700  0.78397900  1
  C  C4  1  0.85014300  0.14985700  0.78397900  1
  C  C5  1  0.29971300  0.14985700  0.78397900  1
  C  C6  1  0.18154600  0.36309300  0.11292700  1
  C  C7  1  0.18154600  0.81845400  0.11292700  1
  C  C8  1  0.63690700  0.81845400  0.11292700  1
  O  O0  1  0.46797100  0.93594200  0.62675100  1
  O  O1  1  0.46797100  0.53202900  0.62675100  1
  O  O2  1  0.06405800  0.53202900  0.62675100  1
  O  O3  1  0.80128000  0.60255900  0.97537700  1
  O  O4  1  0.80128000  0.19872000  0.97537700  1
  O  O5  1  0.39744100  0.19872000  0.97537700  1
  O  O6  1  0.13565400  0.27130900  0.31872900  1
  O  O7  1  0.13565400  0.86434600  0.31872900  1
  O  O8  1  0.72869100  0.86434600  0.31872900  1
  O  O9  1  0.58263500  0.16527000  0.44810600  1
  O  O10  1  0.58263500  0.41736500  0.44810600  1
  O  O11  1  0.83473000  0.41736500  0.44810600  1
  O  O12  1  0.91633200  0.83266300  0.80193200  1
  O  O13  1  0.91633200  0.08366800  0.80193200  1
  O  O14  1  0.16733700  0.08366800  0.80193200  1
  O  O15  1  0.24794200  0.49588400  0.11090700  1
  O  O16  1  0.24794200  0.75205800  0.11090700  1
  O  O17  1  0.50411600  0.75205800  0.11090700  1
loop_
_geom_bond_atom_site_label_1
_geom_bond_atom_site_label_2
_geom_bond_distance
_geom_bond_site_symmetry_2
Bi0 O9 2.419484 1_555
Bi0 O11 2.419484 1_555
Bi0 O10 2.419491 1_555
Bi0 O3 2.577226 1_555
Bi0 O5 2.577226 1_555
Bi0 O4 2.577226 1_555
Bi1 O13 2.428278 1_454
Bi1 O12 2.428284 1_444
Bi1 O14 2.428284 1_554
Bi1 O7 2.587110 1_545
Bi1 O8 2.587119 1_445
Bi1 O6 2.587119 1_555
Bi2 O16 2.406147 1_555
Bi2 O17 2.406153 1_555
Bi2 O15 2.406153 1_555
Bi2 O2 2.576324 1_555
Bi2 O0 2.576324 1_555
Bi2 O1 2.576334 1_555
C0 O0 1.232588 1_545
C0 O9 1.252490 1_555
C1 O1 1.232595 1_555
C1 O10 1.252481 1_555
C2 O2 1.232588 1_655
C2 O11 1.252490 1_555
C3 O3 1.232955 1_555
C3 O12 1.252075 1_555
C4 O4 1.232941 1_555
C4 O13 1.252093 1_555
C5 O5 1.232955 1_555
C5 O14 1.252075 1_555
C6 O6 1.234608 1_555
C6 O15 1.253670 1_555
C7 O7 1.234608 1_555
C7 O16 1.253679 1_555
C8 O8 1.234608 1_555
C8 O17 1.253670 1_555
