# generated using pymatgen
data_MoO3
_symmetry_space_group_name_H-M   'P 1'
_cell_length_a   5.40001800
_cell_length_b   5.44034024
_cell_length_c   7.79665768
_cell_angle_alpha   89.52433034
_cell_angle_beta   89.10702316
_cell_angle_gamma   87.86537190
_symmetry_Int_Tables_number   1
_chemical_formula_structural   MoO3
_chemical_formula_sum   'Mo4 O12'
_cell_volume   228.85612626
_cell_formula_units_Z   4
loop_
 _symmetry_equiv_pos_site_id
 _symmetry_equiv_pos_as_xyz
  1  'x, y, z'
loop_
 _atom_site_type_symbol
 _atom_site_label
 _atom_site_symmetry_multiplicity
 _atom_site_fract_x
 _atom_site_fract_y
 _atom_site_fract_z
 _atom_site_occupancy
  Mo  Mo0  1  0.47727200  0.98955800  0.97529000  1
  Mo  Mo1  1  0.96782000  0.48131000  0.98504300  1
  Mo  Mo2  1  0.97867500  0.48677900  0.47495100  1
  Mo  Mo3  1  0.46175600  0.99663300  0.48530800  1
  O  O0  1  0.28804200  0.28684300  0.53918900  1
  O  O1  1  0.78872500  0.22691000  0.47339900  1
  O  O2  1  0.23256500  0.78156400  0.97453800  1
  O  O3  1  0.73531300  0.73018800  0.03787200  1
  O  O4  1  0.73615100  0.73144400  0.48224900  1
  O  O5  1  0.22850900  0.78270900  0.53242100  1
  O  O6  1  0.78637500  0.22246900  0.03367600  1
  O  O7  1  0.29011000  0.28201400  0.98143800  1
  O  O8  1  0.94877700  0.49332900  0.75832800  1
  O  O9  1  0.44772100  0.00903000  0.25838800  1
  O  O10  1  0.06655200  0.50684000  0.25392900  1
  O  O11  1  0.56564100  0.99237700  0.75397700  1
loop_
_geom_bond_atom_site_label_1
_geom_bond_atom_site_label_2
_geom_bond_distance
_geom_bond_site_symmetry_2
Mo0 O2 1.771541 1_555
Mo0 O11 1.783184 1_555
Mo0 O7 1.853430 1_565
Mo0 O3 2.008505 1_556
Mo0 O6 2.188544 1_566
Mo0 O9 2.213627 1_566
Mo1 O8 1.772731 1_555
Mo1 O6 1.780200 1_556
Mo1 O3 1.856288 1_556
Mo1 O7 2.015854 1_655
Mo1 O10 2.177999 1_656
Mo1 O2 2.210636 1_655
Mo2 O1 1.777565 1_555
Mo2 O10 1.783781 1_655
Mo2 O4 1.832806 1_555
Mo2 O0 2.026451 1_655
Mo2 O5 2.192135 1_655
Mo2 O8 2.213259 1_555
Mo3 O9 1.772637 1_565
Mo3 O5 1.778629 1_555
Mo3 O0 1.854068 1_565
Mo3 O4 2.029229 1_555
Mo3 O11 2.176682 1_555
Mo3 O1 2.203023 1_565
