# generated using pymatgen
data_SrNdNiRuO6
_symmetry_space_group_name_H-M   'P 1'
_cell_length_a   5.53686200
_cell_length_b   5.47312500
_cell_length_c   9.74746341
_cell_angle_alpha   55.80234639
_cell_angle_beta   90.00000000
_cell_angle_gamma   90.00000000
_symmetry_Int_Tables_number   1
_chemical_formula_structural   SrNdNiRuO6
_chemical_formula_sum   'Sr2 Nd2 Ni2 Ru2 O12'
_cell_volume   244.31525605
_cell_formula_units_Z   2
loop_
 _symmetry_equiv_pos_site_id
 _symmetry_equiv_pos_as_xyz
  1  'x, y, z'
loop_
 _atom_site_type_symbol
 _atom_site_label
 _atom_site_symmetry_multiplicity
 _atom_site_fract_x
 _atom_site_fract_y
 _atom_site_fract_z
 _atom_site_occupancy
  Sr  Sr0  1  0.21890200  0.24446600  0.24940400  1
  Sr  Sr1  1  0.78109800  0.24446600  0.74940400  1
  Nd  Nd0  1  0.29871600  0.76233300  0.75179700  1
  Nd  Nd1  1  0.70128400  0.76233300  0.25179700  1
  Ni  Ni0  1  0.75745400  0.49977300  0.00080500  1
  Ni  Ni1  1  0.24254600  0.49977300  0.50080500  1
  Ru  Ru0  1  0.75411900  0.00295300  0.49970300  1
  Ru  Ru1  1  0.24588100  0.00295300  0.99970300  1
  O  O0  1  0.95608300  0.75251900  0.45351800  1
  O  O1  1  0.04391700  0.75251900  0.95351800  1
  O  O2  1  0.52866000  0.23791300  0.54013200  1
  O  O3  1  0.47134000  0.23791300  0.04013200  1
  O  O4  1  0.04519000  0.15627200  0.54556600  1
  O  O5  1  0.95481000  0.15627200  0.04556600  1
  O  O6  1  0.47159800  0.81894600  0.45855800  1
  O  O7  1  0.52840200  0.81894600  0.95855800  1
  O  O8  1  0.76207800  0.33170200  0.25768200  1
  O  O9  1  0.23792200  0.33170200  0.75768200  1
  O  O10  1  0.72890500  0.69312300  0.74283600  1
  O  O11  1  0.27109500  0.69312300  0.24283600  1
loop_
_geom_bond_atom_site_label_1
_geom_bond_atom_site_label_2
_geom_bond_distance
_geom_bond_site_symmetry_2
Nd0 O9 2.349379 1_555
Nd0 O1 2.395974 1_555
Nd0 O4 2.405845 1_565
Nd0 O10 2.421103 1_555
Nd0 O7 2.545017 1_555
Nd0 O2 2.572180 1_565
Nd0 O3 2.825396 1_556
Nd0 O6 2.861260 1_555
Nd1 O8 2.349379 1_555
Nd1 O0 2.395974 1_555
Nd1 O5 2.405845 1_565
Nd1 O11 2.421103 1_555
Nd1 O6 2.545017 1_555
Nd1 O3 2.572180 1_565
Nd1 O2 2.825396 1_555
Nd1 O7 2.861260 1_554
Ni0 O1 1.981162 1_654
Ni0 O5 1.999214 1_555
Ni0 O7 2.005222 1_554
Ni0 O3 2.023121 1_555
Ni0 O10 2.115793 1_554
Ni0 O8 2.127729 1_555
Ni1 O0 1.981162 1_455
Ni1 O4 1.999214 1_555
Ni1 O6 2.005222 1_555
Ni1 O2 2.023121 1_555
Ni1 O11 2.115793 1_555
Ni1 O9 2.127729 1_555
O0 Ru0 2.006357 1_565
O0 Sr0 2.702556 1_665
O0 Sr1 2.823813 1_555
O1 Ru1 2.006357 1_565
O1 Sr1 2.702556 1_465
O1 Sr0 2.823813 1_556
O2 Ru0 1.984190 1_555
O2 Sr1 2.489620 1_555
O3 Ru1 1.984190 1_554
O3 Sr0 2.489620 1_555
O4 Ru0 1.980657 1_455
O4 Sr1 2.719747 1_455
O4 Sr0 2.815223 1_555
O5 Ru1 1.980657 1_654
O5 Sr0 2.719747 1_655
O5 Sr1 2.815223 1_554
O6 Ru0 2.018932 1_565
O6 Sr0 2.490104 1_565
O7 Ru1 2.018932 1_565
O7 Sr1 2.490104 1_565
O8 Ru0 2.008293 1_555
O8 Sr0 2.583699 1_655
O9 Ru1 2.008293 1_555
O9 Sr1 2.583699 1_455
O10 Ru0 1.998519 1_565
O10 Sr1 2.437345 1_555
O11 Ru1 1.998519 1_564
O11 Sr0 2.437345 1_555
