# generated using pymatgen
data_Zr4Os2C
_symmetry_space_group_name_H-M   'P 1'
_cell_length_a   8.85587462
_cell_length_b   8.85587462
_cell_length_c   8.85587462
_cell_angle_alpha   60.00000000
_cell_angle_beta   60.00000000
_cell_angle_gamma   60.00000000
_symmetry_Int_Tables_number   1
_chemical_formula_structural   Zr4Os2C
_chemical_formula_sum   'Zr16 Os8 C4'
_cell_volume   491.11068206
_cell_formula_units_Z   4
loop_
 _symmetry_equiv_pos_site_id
 _symmetry_equiv_pos_as_xyz
  1  'x, y, z'
loop_
 _atom_site_type_symbol
 _atom_site_label
 _atom_site_symmetry_multiplicity
 _atom_site_fract_x
 _atom_site_fract_y
 _atom_site_fract_z
 _atom_site_occupancy
  Zr  Zr0  1  0.12500000  0.62500000  0.62500000  1
  Zr  Zr1  1  0.62500000  0.12500000  0.62500000  1
  Zr  Zr2  1  0.62500000  0.62500000  0.12500000  1
  Zr  Zr3  1  0.62500000  0.62500000  0.62500000  1
  Zr  Zr4  1  0.81278700  0.81278700  0.18721300  1
  Zr  Zr5  1  0.18721300  0.18721300  0.81278700  1
  Zr  Zr6  1  0.81278700  0.18721300  0.81278700  1
  Zr  Zr7  1  0.18721300  0.81278700  0.18721300  1
  Zr  Zr8  1  0.18721300  0.81278700  0.81278700  1
  Zr  Zr9  1  0.81278700  0.18721300  0.18721300  1
  Zr  Zr10  1  0.43721300  0.43721300  0.06278700  1
  Zr  Zr11  1  0.06278700  0.06278700  0.43721300  1
  Zr  Zr12  1  0.43721300  0.06278700  0.43721300  1
  Zr  Zr13  1  0.06278700  0.43721300  0.06278700  1
  Zr  Zr14  1  0.06278700  0.43721300  0.43721300  1
  Zr  Zr15  1  0.43721300  0.06278700  0.06278700  1
  Os  Os0  1  0.75325800  0.41558100  0.41558100  1
  Os  Os1  1  0.41558100  0.75325800  0.41558100  1
  Os  Os2  1  0.41558100  0.41558100  0.75325800  1
  Os  Os3  1  0.41558100  0.41558100  0.41558100  1
  Os  Os4  1  0.49674200  0.83441900  0.83441900  1
  Os  Os5  1  0.83441900  0.49674200  0.83441900  1
  Os  Os6  1  0.83441900  0.83441900  0.49674200  1
  Os  Os7  1  0.83441900  0.83441900  0.83441900  1
  C  C0  1  0.62500000  0.12500000  0.12500000  1
  C  C1  1  0.12500000  0.62500000  0.12500000  1
  C  C2  1  0.12500000  0.12500000  0.62500000  1
  C  C3  1  0.12500000  0.12500000  0.12500000  1
loop_
_geom_bond_atom_site_label_1
_geom_bond_atom_site_label_2
_geom_bond_distance
_geom_bond_site_symmetry_2
Os0 Zr3 2.719485 1_555
Os0 Zr2 2.719493 1_555
Os0 Zr1 2.719493 1_555
Os0 Zr14 2.945207 1_655
Os0 Zr11 2.945212 1_655
Os0 Zr13 2.945212 1_655
Os1 Zr3 2.719485 1_555
Os1 Zr2 2.719493 1_555
Os1 Zr0 2.719493 1_555
Os1 Zr12 2.945207 1_565
Os1 Zr11 2.945212 1_565
Os1 Zr15 2.945212 1_565
Os2 Zr3 2.719485 1_555
Os2 Zr0 2.719493 1_555
Os2 Zr1 2.719493 1_555
Os2 Zr10 2.945207 1_556
Os2 Zr15 2.945212 1_556
Os2 Zr13 2.945212 1_556
Os3 Zr0 2.719488 1_555
Os3 Zr2 2.719488 1_555
Os3 Zr1 2.719488 1_555
Os3 Zr12 2.945216 1_555
Os3 Zr10 2.945216 1_555
Os3 Zr14 2.945216 1_555
Os4 Zr3 2.719485 1_555
Os4 Zr2 2.719493 1_556
Os4 Zr1 2.719493 1_565
Os4 Zr8 2.945207 1_555
Os4 Zr5 2.945212 1_565
Os4 Zr7 2.945212 1_556
Os5 Zr3 2.719485 1_555
Os5 Zr0 2.719493 1_655
Os5 Zr2 2.719493 1_556
Os5 Zr6 2.945207 1_555
Os5 Zr9 2.945212 1_556
Os5 Zr5 2.945212 1_655
Os6 Zr3 2.719485 1_555
Os6 Zr0 2.719493 1_655
Os6 Zr1 2.719493 1_565
Os6 Zr4 2.945207 1_555
Os6 Zr7 2.945212 1_655
Os6 Zr9 2.945212 1_565
Os7 Zr0 2.719488 1_655
Os7 Zr2 2.719488 1_556
Os7 Zr1 2.719488 1_565
Os7 Zr4 2.945216 1_556
Os7 Zr8 2.945216 1_655
Os7 Zr6 2.945216 1_565
C0 Zr9 2.347073 1_555
C0 Zr10 2.347073 1_555
C0 Zr12 2.347073 1_555
C0 Zr6 2.347073 1_554
C0 Zr4 2.347073 1_545
C0 Zr15 2.347073 1_555
C1 Zr7 2.347073 1_555
C1 Zr14 2.347073 1_555
C1 Zr10 2.347073 1_555
C1 Zr8 2.347073 1_554
C1 Zr4 2.347073 1_455
C1 Zr13 2.347073 1_555
C2 Zr5 2.347073 1_555
C2 Zr14 2.347073 1_555
C2 Zr12 2.347073 1_555
C2 Zr8 2.347073 1_545
C2 Zr6 2.347073 1_455
C2 Zr11 2.347073 1_555
C3 Zr13 2.347073 1_555
C3 Zr11 2.347073 1_555
C3 Zr15 2.347073 1_555
C3 Zr7 2.347073 1_545
C3 Zr9 2.347073 1_455
C3 Zr5 2.347073 1_554
