# generated using pymatgen
data_B3C3N7
_symmetry_space_group_name_H-M   'P 1'
_cell_length_a   8.21321273
_cell_length_b   14.47077715
_cell_length_c   17.85229779
_cell_angle_alpha   90.00000000
_cell_angle_beta   90.00000000
_cell_angle_gamma   90.00000000
_symmetry_Int_Tables_number   1
_chemical_formula_structural   B3C3N7
_chemical_formula_sum   'B24 C24 N56'
_cell_volume   2121.77364011
_cell_formula_units_Z   8
loop_
 _symmetry_equiv_pos_site_id
 _symmetry_equiv_pos_as_xyz
  1  'x, y, z'
loop_
 _atom_site_type_symbol
 _atom_site_label
 _atom_site_symmetry_multiplicity
 _atom_site_fract_x
 _atom_site_fract_y
 _atom_site_fract_z
 _atom_site_occupancy
  B  B0  1  0.38434660  0.63130107  0.14588309  1
  B  B1  1  0.11565340  0.36869893  0.64588309  1
  B  B2  1  0.88434660  0.86869893  0.85411691  1
  B  B3  1  0.61565340  0.13130107  0.35411691  1
  B  B4  1  0.34288434  0.65067101  0.30295036  1
  B  B5  1  0.15711566  0.34932899  0.80295036  1
  B  B6  1  0.84288434  0.84932899  0.69704964  1
  B  B7  1  0.65711566  0.15067101  0.19704964  1
  B  B8  1  0.39621372  0.50866596  0.19905108  1
  B  B9  1  0.10378628  0.49133404  0.69905108  1
  B  B10  1  0.89621372  0.99133404  0.80094892  1
  B  B11  1  0.60378628  0.00866596  0.30094892  1
  B  B12  1  0.56627631  0.59592132  0.28162579  1
  B  B13  1  0.93372369  0.40407868  0.78162579  1
  B  B14  1  0.06627631  0.90407868  0.71837421  1
  B  B15  1  0.43372369  0.09592132  0.21837421  1
  B  B16  1  0.50330537  0.63932706  0.82583446  1
  B  B17  1  0.99669463  0.36067294  0.32583446  1
  B  B18  1  0.00330537  0.86067294  0.17416554  1
  B  B19  1  0.49669463  0.13932706  0.67416554  1
  B  B20  1  0.51327614  0.61516314  0.42575574  1
  B  B21  1  0.98672386  0.38483686  0.92575574  1
  B  B22  1  0.01327614  0.88483686  0.57424426  1
  B  B23  1  0.48672386  0.11516314  0.07424426  1
  C  C0  1  0.07039130  0.92390988  0.43808992  1
  C  C1  1  0.42960870  0.07609012  0.93808992  1
  C  C2  1  0.57039130  0.57609012  0.56191008  1
  C  C3  1  0.92960870  0.42390988  0.06191008  1
  C  C4  1  0.60547736  0.99071844  0.44344484  1
  C  C5  1  0.89452264  0.00928156  0.94344484  1
  C  C6  1  0.10547736  0.50928156  0.55655516  1
  C  C7  1  0.39452264  0.49071844  0.05655516  1
  C  C8  1  0.27217159  0.40406854  0.28737487  1
  C  C9  1  0.22782841  0.59593146  0.78737487  1
  C  C10  1  0.77217159  0.09593146  0.71262513  1
  C  C11  1  0.72782841  0.90406854  0.21262513  1
  C  C12  1  0.70025572  0.73999477  0.89013612  1
  C  C13  1  0.79974428  0.26000523  0.39013612  1
  C  C14  1  0.20025572  0.76000523  0.10986388  1
  C  C15  1  0.29974428  0.23999477  0.60986388  1
  C  C16  1  0.11743503  0.75183967  0.27780323  1
  C  C17  1  0.38256497  0.24816033  0.77780323  1
  C  C18  1  0.61743503  0.74816033  0.72219677  1
  C  C19  1  0.88256497  0.25183967  0.22219677  1
  C  C20  1  0.81452284  0.50504370  0.28983561  1
  C  C21  1  0.68547716  0.49495630  0.78983561  1
  C  C22  1  0.31452284  0.99495630  0.71016439  1
  C  C23  1  0.18547716  0.00504370  0.21016439  1
  N  N0  1  0.55044862  0.60355540  0.49398825  1
  N  N1  1  0.94955138  0.39644460  0.99398825  1
  N  N2  1  0.05044862  0.89644460  0.50601175  1
  N  N3  1  0.44955138  0.10355540  0.00601175  1
  N  N4  1  0.08854665  0.94984916  0.37603644  1
  N  N5  1  0.41145335  0.05015084  0.87603644  1
  N  N6  1  0.58854665  0.55015084  0.62396356  1
  N  N7  1  0.91145335  0.44984916  0.12396356  1
  N  N8  1  0.62044455  0.95131172  0.50029084  1
  N  N9  1  0.87955545  0.04868828  0.00029084  1
  N  N10  1  0.12044455  0.54868828  0.49970916  1
  N  N11  1  0.37955545  0.45131172  0.99970916  1
  N  N12  1  0.58749611  0.03574298  0.37875478  1
  N  N13  1  0.91250389  0.96425702  0.87875478  1
  N  N14  1  0.08749611  0.46425702  0.62124522  1
  N  N15  1  0.41250389  0.53574298  0.12124522  1
  N  N16  1  0.36660899  0.42632736  0.23572918  1
  N  N17  1  0.13339101  0.57367264  0.73572918  1
  N  N18  1  0.86660899  0.07367264  0.76427082  1
  N  N19  1  0.63339101  0.92632736  0.26427082  1
  N  N20  1  0.18027627  0.37867579  0.33540208  1
  N  N21  1  0.31972373  0.62132421  0.83540208  1
  N  N22  1  0.68027627  0.12132421  0.66459792  1
  N  N23  1  0.81972373  0.87867579  0.16459792  1
  N  N24  1  0.31819251  0.70687374  0.11051450  1
  N  N25  1  0.18180749  0.29312626  0.61051450  1
  N  N26  1  0.81819251  0.79312626  0.88948550  1
  N  N27  1  0.68180749  0.20687374  0.38948550  1
  N  N28  1  0.58268681  0.69024525  0.89246463  1
  N  N29  1  0.91731319  0.30975475  0.39246463  1
  N  N30  1  0.08268681  0.80975475  0.10753537  1
  N  N31  1  0.41731319  0.19024525  0.60753537  1
  N  N32  1  0.02674610  0.80094648  0.24436715  1
  N  N33  1  0.47325390  0.19905352  0.74436715  1
  N  N34  1  0.52674610  0.69905352  0.75563285  1
  N  N35  1  0.97325390  0.30094648  0.25563285  1
  N  N36  1  0.20876335  0.70395626  0.31822799  1
  N  N37  1  0.29123665  0.29604374  0.81822799  1
  N  N38  1  0.70876335  0.79604374  0.68177201  1
  N  N39  1  0.79123665  0.20395626  0.18177201  1
  N  N40  1  0.71270090  0.55884865  0.26125094  1
  N  N41  1  0.78729910  0.44115135  0.76125094  1
  N  N42  1  0.21270090  0.94115135  0.73874906  1
  N  N43  1  0.28729910  0.05884865  0.23874906  1
  N  N44  1  0.58822446  0.54678986  0.81525738  1
  N  N45  1  0.91177554  0.45321014  0.31525738  1
  N  N46  1  0.08822446  0.95321014  0.18474262  1
  N  N47  1  0.41177554  0.04678986  0.68474262  1
  N  N48  1  0.48098097  0.62302533  0.34994966  1
  N  N49  1  0.01901903  0.37697467  0.84994966  1
  N  N50  1  0.98098097  0.87697467  0.65005034  1
  N  N51  1  0.51901903  0.12302533  0.15005034  1
  N  N52  1  0.41381242  0.61068779  0.22937729  1
  N  N53  1  0.08618758  0.38931221  0.72937729  1
  N  N54  1  0.91381242  0.88931221  0.77062271  1
  N  N55  1  0.58618758  0.11068779  0.27062271  1
loop_
_geom_bond_atom_site_label_1
_geom_bond_atom_site_label_2
_geom_bond_distance
_geom_bond_site_symmetry_2
B0 N24 1.374717 1_555
B0 N15 1.469380 1_555
B0 N52 1.539261 1_555
B1 N25 1.374717 1_555
B1 N14 1.469380 1_555
B1 N53 1.539261 1_555
B2 N26 1.374717 1_555
B2 N13 1.469380 1_555
B2 N54 1.539261 1_555
B3 N27 1.374717 1_555
B3 N12 1.469380 1_555
B3 N55 1.539261 1_555
B4 N36 1.372004 1_555
B4 N48 1.466455 1_555
B4 N52 1.548959 1_555
B5 N37 1.372004 1_555
B5 N49 1.466455 1_555
B5 N53 1.548959 1_555
B6 N38 1.372004 1_555
B6 N50 1.466455 1_555
B6 N54 1.548959 1_555
B7 N39 1.372004 1_555
B7 N51 1.466455 1_555
B7 N55 1.548959 1_555
B8 N16 1.381141 1_555
B8 N15 1.449409 1_555
B8 N52 1.579102 1_555
B9 N17 1.381141 1_555
B9 N14 1.449409 1_555
B9 N53 1.579102 1_555
B10 N18 1.381141 1_565
B10 N13 1.449409 1_555
B10 N54 1.579102 1_555
B11 N19 1.381141 1_545
B11 N12 1.449409 1_555
B11 N55 1.579102 1_555
B12 N40 1.366159 1_555
B12 N48 1.460261 1_555
B12 N52 1.575990 1_555
B13 N41 1.366159 1_555
B13 N49 1.460261 1_655
B13 N53 1.575990 1_655
B14 N42 1.366159 1_555
B14 N50 1.460261 1_455
B14 N54 1.575990 1_455
B15 N43 1.366159 1_555
B15 N51 1.460261 1_555
B15 N55 1.575990 1_555
B16 N44 1.521595 1_555
B16 N34 1.534510 1_555
B16 N21 1.539639 1_555
B16 N28 1.543664 1_555
B17 N45 1.521595 1_555
B17 N35 1.534510 1_555
B17 N20 1.539639 1_655
B17 N29 1.543664 1_555
B18 N46 1.521595 1_555
B18 N32 1.534510 1_555
B18 N23 1.539639 1_455
B18 N30 1.543664 1_555
B19 N47 1.521595 1_555
B19 N33 1.534510 1_555
B19 N22 1.539639 1_555
B19 N31 1.543664 1_555
B20 N0 1.266969 1_555
B20 N48 1.383747 1_555
B21 N1 1.266969 1_555
B21 N49 1.383747 1_655
B22 N2 1.266969 1_555
B22 N50 1.383747 1_455
B23 N3 1.266969 1_555
B23 N51 1.383747 1_555
C0 N4 1.179129 1_555
C0 N2 1.286504 1_555
C1 N5 1.179129 1_555
C1 N3 1.286504 1_556
C2 N6 1.179129 1_555
C2 N0 1.286504 1_555
C3 N7 1.179129 1_555
C3 N1 1.286504 1_554
C4 N8 1.170545 1_555
C4 N12 1.334178 1_565
C5 N9 1.170545 1_556
C5 N13 1.334178 1_545
C6 N10 1.170545 1_555
C6 N14 1.334178 1_555
C7 N11 1.170545 1_554
C7 N15 1.334178 1_555
C8 N20 1.199919 1_555
C8 N16 1.247170 1_555
C9 N21 1.199919 1_555
C9 N17 1.247170 1_555
C10 N22 1.199919 1_555
C10 N18 1.247170 1_555
C11 N23 1.199919 1_555
C11 N19 1.247170 1_555
C12 N28 1.205165 1_555
C12 N26 1.236744 1_555
C13 N29 1.205165 1_555
C13 N27 1.236744 1_555
C14 N30 1.205165 1_555
C14 N24 1.236744 1_555
C15 N31 1.205165 1_555
C15 N25 1.236744 1_555
C16 N32 1.189988 1_555
C16 N36 1.250435 1_555
C17 N33 1.189988 1_555
C17 N37 1.250435 1_555
C18 N34 1.189988 1_555
C18 N38 1.250435 1_555
C19 N35 1.189988 1_555
C19 N39 1.250435 1_555
C20 N45 1.185997 1_555
C20 N40 1.251399 1_555
C21 N44 1.185997 1_555
C21 N41 1.251399 1_555
C22 N47 1.185997 1_565
C22 N42 1.251399 1_555
C23 N46 1.185997 1_545
C23 N43 1.251399 1_555
