# generated using pymatgen
data_HfSiOs
_symmetry_space_group_name_H-M   'P 1'
_cell_length_a   6.63346774
_cell_length_b   7.37464145
_cell_length_c   7.56489712
_cell_angle_alpha   119.17334254
_cell_angle_beta   116.00608144
_cell_angle_gamma   89.99946406
_symmetry_Int_Tables_number   1
_chemical_formula_structural   HfSiOs
_chemical_formula_sum   'Hf6 Si6 Os6'
_cell_volume   279.43151857
_cell_formula_units_Z   6
loop_
 _symmetry_equiv_pos_site_id
 _symmetry_equiv_pos_as_xyz
  1  'x, y, z'
loop_
 _atom_site_type_symbol
 _atom_site_label
 _atom_site_symmetry_multiplicity
 _atom_site_fract_x
 _atom_site_fract_y
 _atom_site_fract_z
 _atom_site_occupancy
  Hf  Hf0  1  0.90260425  0.94724694  0.39452870  1
  Hf  Hf1  1  0.50815001  0.05275128  0.60548846  1
  Hf  Hf2  1  0.50810605  0.52934579  0.55875440  1
  Hf  Hf3  1  0.94923759  0.47059081  0.44107783  1
  Hf  Hf4  1  0.08020906  0.74672086  0.99339052  1
  Hf  Hf5  1  0.08676129  0.25330624  0.00664825  1
  Si  Si0  1  0.17225707  0.67389059  0.33486307  1
  Si  Si1  1  0.83744706  0.32620635  0.66521567  1
  Si  Si2  1  0.17218849  0.16101359  0.33487391  1
  Si  Si3  1  0.83740822  0.83899139  0.66521663  1
  Si  Si4  1  0.46782313  0.72405421  0.94812832  1
  Si  Si5  1  0.51975325  0.27585329  0.05168930  1
  Os  Os0  1  0.25356762  0.90287591  0.75058489  1
  Os  Os1  1  0.50297874  0.09708913  0.24942698  1
  Os  Os2  1  0.25355722  0.34770703  0.75060161  1
  Os  Os3  1  0.50298941  0.65236277  0.24945275  1
  Os  Os4  1  0.75049243  0.50015316  0.00003716  1
  Os  Os5  1  0.75046910  -0.00015833  0.00002155  1
loop_
_geom_bond_atom_site_label_1
_geom_bond_atom_site_label_2
_geom_bond_distance
_geom_bond_site_symmetry_2
Hf0 Si0 2.699636 1_655
Hf0 Si2 2.699653 1_665
Hf0 Si1 2.717947 1_565
Hf0 Si3 2.718080 1_555
Hf0 Os3 2.843004 1_555
Hf0 Os1 2.843242 1_565
Hf0 Os0 2.853489 1_655
Hf0 Os2 2.853548 1_665
Hf0 Si4 2.910579 1_554
Hf0 Os4 2.926091 1_555
Hf0 Os5 2.926245 1_565
Hf1 Si3 2.699726 1_545
Hf1 Si1 2.699768 1_555
Hf1 Si0 2.717641 1_545
Hf1 Si2 2.718001 1_555
Hf1 Os2 2.843676 1_555
Hf1 Os0 2.843711 1_545
Hf1 Os3 2.853055 1_545
Hf1 Os1 2.853245 1_555
Hf1 Si5 2.909393 1_556
Hf1 Os4 2.927585 1_556
Hf1 Os5 2.927819 1_556
Hf2 Si1 2.701647 1_555
Hf2 Si3 2.701697 1_555
Hf2 Si4 2.715958 1_555
Hf2 Si2 2.723549 1_555
Hf2 Si0 2.723853 1_555
Hf2 Os1 2.880374 1_555
Hf2 Os3 2.880765 1_555
Hf2 Os5 3.125536 1_566
Hf2 Os4 3.125584 1_556
Hf3 Si2 2.701600 1_655
Hf3 Si0 2.701647 1_655
Hf3 Si5 2.715259 1_555
Hf3 Si3 2.723673 1_555
Hf3 Si1 2.724231 1_555
Hf3 Os0 2.880747 1_655
Hf3 Os2 2.881428 1_655
Hf3 Os4 3.125569 1_555
Hf3 Os5 3.126141 1_555
Hf4 Si2 2.702505 1_566
Hf4 Si0 2.702531 1_556
Hf4 Si3 2.713096 1_455
Hf4 Si1 2.713331 1_455
Hf4 Si4 2.733610 1_555
Hf4 Os5 2.876841 1_466
Hf4 Os4 2.877196 1_456
Hf4 Os1 2.941141 1_566
Hf4 Os3 2.941398 1_556
Hf4 Os0 3.152286 1_555
Hf4 Os2 3.152380 1_555
Hf5 Si3 2.702349 1_444
Hf5 Si1 2.702464 1_454
Hf5 Si2 2.713542 1_555
Hf5 Si0 2.713681 1_555
Hf5 Si5 2.734969 1_555
Hf5 Os4 2.878010 1_455
Hf5 Os5 2.878109 1_455
Hf5 Os0 2.941842 1_544
Hf5 Os2 2.941889 1_554
Hf5 Os1 3.152646 1_555
Hf5 Os3 3.152897 1_555
Os0 Si4 2.459875 1_555
Os0 Si5 2.497376 1_566
Os0 Si0 2.523483 1_555
Os0 Si3 2.529791 1_455
Os0 Os5 2.857800 1_566
Os1 Si5 2.460992 1_555
Os1 Si4 2.497689 1_544
Os1 Si1 2.523889 1_555
Os1 Si2 2.530155 1_555
Os1 Os5 2.857695 1_555
Os2 Si4 2.459763 1_555
Os2 Si5 2.497278 1_556
Os2 Si2 2.523424 1_555
Os2 Si1 2.529428 1_455
Os2 Os4 2.857977 1_556
Os3 Si5 2.460960 1_555
Os3 Si4 2.497723 1_554
Os3 Si3 2.523696 1_555
Os3 Si0 2.529614 1_555
Os3 Os4 2.857840 1_555
Os4 Si4 2.526443 1_554
Os4 Si5 2.527095 1_555
Os4 Si0 2.550798 1_655
Os4 Si1 2.550949 1_554
Os5 Si4 2.526294 1_544
Os5 Si5 2.527277 1_555
Os5 Si2 2.550647 1_655
Os5 Si3 2.550779 1_544
