# generated using pymatgen
data_DyMg3
_symmetry_space_group_name_H-M   'P 1'
_cell_length_a   6.66608374
_cell_length_b   6.66608232
_cell_length_c   5.15381423
_cell_angle_alpha   90.00000000
_cell_angle_beta   90.00000000
_cell_angle_gamma   120.00001122
_symmetry_Int_Tables_number   1
_chemical_formula_structural   DyMg3
_chemical_formula_sum   'Dy2 Mg6'
_cell_volume   198.33564847
_cell_formula_units_Z   2
loop_
 _symmetry_equiv_pos_site_id
 _symmetry_equiv_pos_as_xyz
  1  'x, y, z'
loop_
 _atom_site_type_symbol
 _atom_site_label
 _atom_site_symmetry_multiplicity
 _atom_site_fract_x
 _atom_site_fract_y
 _atom_site_fract_z
 _atom_site_occupancy
  Dy  Dy0  1  0.66666700  0.33333300  0.25000000  1
  Dy  Dy1  1  0.33333300  0.66666700  0.75000000  1
  Mg  Mg0  1  0.16278186  0.32556472  0.25000000  1
  Mg  Mg1  1  0.16278186  0.83721814  0.25000000  1
  Mg  Mg2  1  0.67443428  0.83721814  0.25000000  1
  Mg  Mg3  1  0.32556572  0.16278186  0.75000000  1
  Mg  Mg4  1  0.83721814  0.16278186  0.75000000  1
  Mg  Mg5  1  0.83721814  0.67443528  0.75000000  1
loop_
_geom_bond_atom_site_label_1
_geom_bond_atom_site_label_2
_geom_bond_distance
_geom_bond_site_symmetry_2
Dy0 Mg3 3.243163 1_554
Dy0 Mg3 3.243163 1_555
Dy0 Mg5 3.243166 1_554
Dy0 Mg5 3.243166 1_555
Dy0 Mg4 3.243167 1_554
Dy0 Mg4 3.243167 1_555
Dy0 Mg2 3.333333 1_545
Dy0 Mg0 3.333337 1_655
Dy0 Mg1 3.333343 1_655
Dy0 Mg1 3.333343 1_545
Dy0 Mg0 3.333350 1_555
Dy0 Mg2 3.333353 1_555
Dy1 Mg2 3.243163 1_555
Dy1 Mg2 3.243163 1_556
Dy1 Mg0 3.243166 1_556
Dy1 Mg0 3.243166 1_555
Dy1 Mg1 3.243167 1_556
Dy1 Mg1 3.243167 1_555
Dy1 Mg3 3.333333 1_565
Dy1 Mg5 3.333337 1_455
Dy1 Mg4 3.333343 1_455
Dy1 Mg4 3.333343 1_565
Dy1 Mg5 3.333350 1_555
Dy1 Mg3 3.333353 1_555
Mg0 Mg4 3.189497 1_455
Mg0 Mg4 3.189497 1_454
Mg0 Mg3 3.189507 1_555
Mg0 Mg3 3.189507 1_554
Mg0 Mg1 3.255359 1_545
Mg0 Mg2 3.255362 1_445
Mg0 Mg2 3.410720 1_555
Mg0 Mg1 3.410724 1_555
Mg1 Mg3 3.189497 1_564
Mg1 Mg3 3.189497 1_565
Mg1 Mg5 3.189497 1_455
Mg1 Mg5 3.189497 1_454
Mg1 Mg2 3.255366 1_455
Mg1 Mg2 3.410718 1_555
Mg2 Mg4 3.189497 1_564
Mg2 Mg4 3.189497 1_565
Mg2 Mg5 3.189507 1_555
Mg2 Mg5 3.189507 1_554
Mg3 Mg5 3.255362 1_445
Mg3 Mg4 3.255366 1_455
Mg3 Mg4 3.410718 1_555
Mg3 Mg5 3.410720 1_555
Mg4 Mg5 3.255359 1_545
Mg4 Mg5 3.410724 1_555
