# generated using pymatgen
data_ErAlGa
_symmetry_space_group_name_H-M   'P 1'
_cell_length_a   4.40303777
_cell_length_b   4.40303777
_cell_length_c   3.51028555
_cell_angle_alpha   90.00000000
_cell_angle_beta   90.00000000
_cell_angle_gamma   120.00000405
_symmetry_Int_Tables_number   1
_chemical_formula_structural   ErAlGa
_chemical_formula_sum   'Er1 Al1 Ga1'
_cell_volume   58.93562345
_cell_formula_units_Z   1
loop_
 _symmetry_equiv_pos_site_id
 _symmetry_equiv_pos_as_xyz
  1  'x, y, z'
loop_
 _atom_site_type_symbol
 _atom_site_label
 _atom_site_symmetry_multiplicity
 _atom_site_fract_x
 _atom_site_fract_y
 _atom_site_fract_z
 _atom_site_occupancy
  Er  Er0  1  0.33333300  0.66666700  -0.00000000  1
  Al  Al0  1  0.66666700  0.33333300  0.50000000  1
  Ga  Ga0  1  0.00000000  0.00000000  0.50000000  1
loop_
_geom_bond_atom_site_label_1
_geom_bond_atom_site_label_2
_geom_bond_distance
_geom_bond_site_symmetry_2
Er0 Ga0 3.089136 1_565
Er0 Ga0 3.089136 1_564
Er0 Ga0 3.089139 1_555
Er0 Ga0 3.089139 1_665
Er0 Ga0 3.089139 1_554
Er0 Ga0 3.089139 1_664
Al0 Ga0 2.542093 1_655
Al0 Ga0 2.542096 1_555
Al0 Ga0 2.542096 1_665
Al0 Er0 3.089136 1_545
Al0 Er0 3.089136 1_546
Al0 Er0 3.089136 1_655
Al0 Er0 3.089136 1_656
Al0 Er0 3.089142 1_555
Al0 Er0 3.089142 1_556
