# generated using pymatgen
data_Mg6ZnMo
_symmetry_space_group_name_H-M   'P 1'
_cell_length_a   4.82035500
_cell_length_b   6.17317500
_cell_length_c   10.60601700
_cell_angle_alpha   90.00000000
_cell_angle_beta   90.00000000
_cell_angle_gamma   90.00000000
_symmetry_Int_Tables_number   1
_chemical_formula_structural   Mg6ZnMo
_chemical_formula_sum   'Mg12 Zn2 Mo2'
_cell_volume   315.60213399
_cell_formula_units_Z   2
loop_
 _symmetry_equiv_pos_site_id
 _symmetry_equiv_pos_as_xyz
  1  'x, y, z'
loop_
 _atom_site_type_symbol
 _atom_site_label
 _atom_site_symmetry_multiplicity
 _atom_site_fract_x
 _atom_site_fract_y
 _atom_site_fract_z
 _atom_site_occupancy
  Mg  Mg0  1  0.00000000  0.26450700  0.09072000  1
  Mg  Mg1  1  0.00000000  0.73549300  0.09072000  1
  Mg  Mg2  1  0.00000000  0.50000000  0.83341400  1
  Mg  Mg3  1  0.50000000  0.24267900  0.91578700  1
  Mg  Mg4  1  0.50000000  0.75732100  0.91578700  1
  Mg  Mg5  1  0.50000000  0.50000000  0.66559300  1
  Mg  Mg6  1  0.00000000  0.76450700  0.59072000  1
  Mg  Mg7  1  0.00000000  0.23549300  0.59072000  1
  Mg  Mg8  1  0.00000000  0.00000000  0.33341400  1
  Mg  Mg9  1  0.50000000  0.74267900  0.41578700  1
  Mg  Mg10  1  0.50000000  0.25732100  0.41578700  1
  Mg  Mg11  1  0.50000000  0.00000000  0.16559300  1
  Zn  Zn0  1  0.00000000  0.50000000  0.31820800  1
  Zn  Zn1  1  0.00000000  0.00000000  0.81820800  1
  Mo  Mo0  1  0.50000000  0.50000000  0.16977100  1
  Mo  Mo1  1  0.50000000  0.00000000  0.66977100  1
loop_
_geom_bond_atom_site_label_1
_geom_bond_atom_site_label_2
_geom_bond_distance
_geom_bond_site_symmetry_2
Mg0 Zn0 2.816856 1_555
Mg0 Mo0 2.936879 1_555
Mg0 Mo0 2.936879 1_455
Mg0 Mg11 3.017574 1_555
Mg0 Mg11 3.017574 1_455
Mg0 Mg3 3.044570 1_554
Mg0 Mg3 3.044570 1_454
Mg0 Mg8 3.048238 1_555
Mg0 Mg2 3.092047 1_554
Mg0 Zn1 3.319614 1_554
Mg1 Zn0 2.816856 1_555
Mg1 Mo0 2.936879 1_455
Mg1 Mo0 2.936879 1_555
Mg1 Mg11 3.017574 1_565
Mg1 Mg11 3.017574 1_465
Mg1 Mg4 3.044570 1_554
Mg1 Mg4 3.044570 1_454
Mg1 Mg8 3.048238 1_565
Mg1 Mg2 3.092047 1_554
Mg1 Zn1 3.319614 1_564
Mg2 Mg5 2.996172 1_455
Mg2 Mg5 2.996172 1_555
Mg2 Mg4 3.015877 1_555
Mg2 Mg4 3.015877 1_455
Mg2 Mg3 3.015877 1_555
Mg2 Mg3 3.015877 1_455
Mg2 Mg6 3.048238 1_555
Mg2 Mg7 3.048238 1_555
Mg2 Zn1 3.090798 1_555
Mg2 Zn1 3.090798 1_565
Mg3 Mg4 2.996200 1_545
Mg3 Mo1 3.008735 1_555
Mg3 Zn1 3.020650 1_655
Mg3 Zn1 3.020650 1_555
Mg3 Mg5 3.092682 1_555
Mg3 Mo0 3.127240 1_556
Mg3 Mg4 3.176975 1_555
Mg4 Mo1 3.008735 1_565
Mg4 Zn1 3.020650 1_565
Mg4 Zn1 3.020650 1_665
Mg4 Mg5 3.092682 1_555
Mg4 Mo0 3.127240 1_556
Mg5 Mg6 3.017574 1_655
Mg5 Mg6 3.017574 1_555
Mg5 Mg7 3.017574 1_555
Mg5 Mg7 3.017574 1_655
Mg5 Mg9 3.043661 1_555
Mg5 Mo1 3.086906 1_555
Mg5 Mo1 3.086906 1_565
Mg6 Zn1 2.816856 1_565
Mg6 Mo1 2.936879 1_465
Mg6 Mo1 2.936879 1_565
Mg6 Mg9 3.044570 1_555
Mg6 Mg9 3.044570 1_455
Mg6 Mg8 3.092047 1_565
Mg6 Zn0 3.319614 1_555
Mg7 Zn1 2.816856 1_555
Mg7 Mo1 2.936879 1_555
Mg7 Mo1 2.936879 1_455
Mg7 Mg8 3.092047 1_555
Mg7 Zn0 3.319614 1_555
Mg8 Mg9 3.015877 1_545
Mg8 Mg9 3.015877 1_445
Mg8 Zn0 3.090798 1_545
Mg8 Zn0 3.090798 1_555
Mg9 Mo0 3.008735 1_555
Mg9 Zn0 3.020650 1_655
Mg9 Zn0 3.020650 1_555
Mg9 Mo1 3.127240 1_565
Mg10 Mg9 2.996200 1_555
Mg10 Mo0 3.008735 1_555
Mg10 Mg8 3.015877 1_555
Mg10 Mg8 3.015877 1_655
Mg10 Zn0 3.020650 1_655
Mg10 Zn0 3.020650 1_555
Mg10 Mg5 3.043661 1_555
Mg10 Mg7 3.044570 1_655
Mg10 Mg7 3.044570 1_555
Mg10 Mg11 3.092682 1_555
Mg10 Mo1 3.127240 1_555
Mg10 Mg9 3.176975 1_545
Mg11 Mg8 2.996172 1_655
Mg11 Mg8 2.996172 1_555
Mg11 Mg3 3.043661 1_554
Mg11 Mg4 3.043661 1_544
Mg11 Mo0 3.086906 1_555
Mg11 Mo0 3.086906 1_545
Mg11 Mg9 3.092682 1_545
Mo0 Zn0 2.878794 1_655
Mo0 Zn0 2.878794 1_555
Mo1 Zn1 2.878794 1_655
Mo1 Zn1 2.878794 1_555
