# generated using pymatgen
data_La2CoSi3
_symmetry_space_group_name_H-M   'P 1'
_cell_length_a   4.07007308
_cell_length_b   4.07007308
_cell_length_c   8.76395800
_cell_angle_alpha   90.00000000
_cell_angle_beta   90.00000000
_cell_angle_gamma   120.00001764
_symmetry_Int_Tables_number   1
_chemical_formula_structural   La2CoSi3
_chemical_formula_sum   'La2 Co1 Si3'
_cell_volume   125.72894103
_cell_formula_units_Z   1
loop_
 _symmetry_equiv_pos_site_id
 _symmetry_equiv_pos_as_xyz
  1  'x, y, z'
loop_
 _atom_site_type_symbol
 _atom_site_label
 _atom_site_symmetry_multiplicity
 _atom_site_fract_x
 _atom_site_fract_y
 _atom_site_fract_z
 _atom_site_occupancy
  La  La0  1  0.33333300  0.66666700  0.74349900  1
  La  La1  1  0.33333300  0.66666700  0.25650100  1
  Co  Co0  1  0.66666700  0.33333300  0.50000000  1
  Si  Si0  1  0.66666700  0.33333300  0.00000000  1
  Si  Si1  1  0.00000000  0.00000000  0.50000000  1
  Si  Si2  1  0.00000000  0.00000000  0.00000000  1
loop_
_geom_bond_atom_site_label_1
_geom_bond_atom_site_label_2
_geom_bond_distance
_geom_bond_site_symmetry_2
La0 Si1 3.174247 1_565
La0 Si1 3.174249 1_665
La0 Si1 3.174249 1_555
La0 Si0 3.251947 1_456
La0 Si0 3.251947 1_566
La0 Si2 3.251948 1_566
La0 Si2 3.251950 1_556
La0 Si2 3.251950 1_666
La0 Si0 3.251953 1_556
La1 Si1 3.174247 1_565
La1 Si1 3.174249 1_665
La1 Si1 3.174249 1_555
La1 Si0 3.251947 1_565
La1 Si0 3.251947 1_455
La1 Si2 3.251948 1_565
La1 Si2 3.251950 1_665
La1 Si2 3.251950 1_555
La1 Si0 3.251953 1_555
Co0 Si1 2.349856 1_655
Co0 Si1 2.349859 1_665
Co0 Si1 2.349859 1_555
Co0 La1 3.174246 1_545
Co0 La0 3.174246 1_655
Co0 La1 3.174246 1_655
Co0 La0 3.174246 1_545
Co0 La1 3.174252 1_555
Co0 La0 3.174252 1_555
Si0 Si2 2.349856 1_655
Si0 Si2 2.349859 1_665
Si0 Si2 2.349859 1_555
