# generated using pymatgen
data_Na3Zn2(WO4)3
_symmetry_space_group_name_H-M   'P 1'
_cell_length_a   9.32191935
_cell_length_b   9.32191935
_cell_length_c   7.38881530
_cell_angle_alpha   74.47123438
_cell_angle_beta   74.47123438
_cell_angle_gamma   98.39691740
_symmetry_Int_Tables_number   1
_chemical_formula_structural   Na3Zn2(WO4)3
_chemical_formula_sum   'Na6 Zn4 W6 O24'
_cell_volume   579.43154460
_cell_formula_units_Z   2
loop_
 _symmetry_equiv_pos_site_id
 _symmetry_equiv_pos_as_xyz
  1  'x, y, z'
loop_
 _atom_site_type_symbol
 _atom_site_label
 _atom_site_symmetry_multiplicity
 _atom_site_fract_x
 _atom_site_fract_y
 _atom_site_fract_z
 _atom_site_occupancy
  Na  Na0  1  0.23477900  0.76522100  0.25000000  1
  Na  Na1  1  0.76522100  0.23477900  0.75000000  1
  Na  Na2  1  0.00000000  0.00000000  0.00000000  1
  Na  Na3  1  0.00000000  0.00000000  0.50000000  1
  Na  Na4  1  0.52388700  0.47611300  0.25000000  1
  Na  Na5  1  0.47611300  0.52388700  0.75000000  1
  Zn  Zn0  1  0.55781900  0.86433200  0.36978600  1
  Zn  Zn1  1  0.44218100  0.13566800  0.63021400  1
  Zn  Zn2  1  0.13566800  0.44218100  0.13021400  1
  Zn  Zn3  1  0.86433200  0.55781900  0.86978600  1
  W  W0  1  0.77622300  0.22377700  0.25000000  1
  W  W1  1  0.22377700  0.77622300  0.75000000  1
  W  W2  1  0.38134700  0.16805800  0.12107700  1
  W  W3  1  0.61865300  0.83194200  0.87892300  1
  W  W4  1  0.83194200  0.61865300  0.37892300  1
  W  W5  1  0.16805800  0.38134700  0.62107700  1
  O  O0  1  0.46325500  0.11670500  0.32200300  1
  O  O1  1  0.53674500  0.88329500  0.67799700  1
  O  O2  1  0.88329500  0.53674500  0.17799700  1
  O  O3  1  0.11670500  0.46325500  0.82200300  1
  O  O4  1  0.50424100  0.84007600  0.11634900  1
  O  O5  1  0.49575900  0.15992400  0.88365100  1
  O  O6  1  0.15992400  0.49575900  0.38365100  1
  O  O7  1  0.84007600  0.50424100  0.61634900  1
  O  O8  1  0.20038500  0.03695600  0.19580800  1
  O  O9  1  0.79961500  0.96304400  0.80419200  1
  O  O10  1  0.96304400  0.79961500  0.30419200  1
  O  O11  1  0.03695600  0.20038500  0.69580800  1
  O  O12  1  0.75186500  0.02271300  0.23250100  1
  O  O13  1  0.24813500  0.97728700  0.76749900  1
  O  O14  1  0.97728700  0.24813500  0.26749900  1
  O  O15  1  0.02271300  0.75186500  0.73250100  1
  O  O16  1  0.65675300  0.25930900  0.47972300  1
  O  O17  1  0.34324700  0.74069100  0.52027700  1
  O  O18  1  0.74069100  0.34324700  0.02027700  1
  O  O19  1  0.25930900  0.65675300  0.97972300  1
  O  O20  1  0.63865000  0.65300200  0.41281100  1
  O  O21  1  0.36135000  0.34699800  0.58718900  1
  O  O22  1  0.34699800  0.36135000  0.08718900  1
  O  O23  1  0.65300200  0.63865000  0.91281100  1
loop_
_geom_bond_atom_site_label_1
_geom_bond_atom_site_label_2
_geom_bond_distance
_geom_bond_site_symmetry_2
Na0 O6 2.358534 1_555
Na0 O4 2.358534 1_555
Na0 O19 2.442745 1_554
Na0 O17 2.442745 1_555
Na0 O8 2.538213 1_565
Na0 O10 2.538213 1_455
Na1 O5 2.358534 1_555
Na1 O7 2.358534 1_555
Na1 O16 2.442745 1_555
Na1 O18 2.442745 1_556
Na1 O9 2.538213 1_545
Na1 O11 2.538213 1_655
Na2 O11 2.410226 1_554
Na2 O10 2.410226 1_445
Na2 O13 2.560576 1_544
Na2 O12 2.560576 1_455
Na2 O8 2.688346 1_555
Na2 O9 2.688346 1_444
Na3 O9 2.410226 1_445
Na3 O8 2.410226 1_555
Na3 O15 2.560576 1_545
Na3 O14 2.560576 1_455
Na3 O11 2.688346 1_555
Na3 O10 2.688346 1_445
Na4 O21 2.406673 1_555
Na4 O23 2.406673 1_554
Na4 O20 2.558651 1_555
Na4 O22 2.558651 1_555
Na4 O18 2.918842 1_555
Na4 O16 2.918842 1_555
Na5 O22 2.406673 1_556
Na5 O20 2.406673 1_555
Na5 O23 2.558651 1_555
Na5 O21 2.558651 1_555
Na5 O19 2.918842 1_555
Na5 O17 2.918842 1_555
O0 W2 1.830131 1_555
O0 Zn1 2.289574 1_555
O1 W3 1.830131 1_555
O1 Zn0 2.289574 1_555
O2 W4 1.830131 1_555
O2 Zn3 2.289574 1_554
O3 W5 1.830131 1_555
O3 Zn2 2.289574 1_556
O4 W3 1.820392 1_554
O4 Zn0 2.121726 1_555
O5 W2 1.820392 1_556
O5 Zn1 2.121726 1_555
O6 W5 1.820392 1_555
O6 Zn2 2.121726 1_555
O7 W4 1.820392 1_555
O7 Zn3 2.121726 1_555
O8 W2 1.783805 1_555
O9 W3 1.783805 1_555
O10 W4 1.783805 1_555
O11 W5 1.783805 1_555
O12 W0 1.898017 1_555
O12 Zn0 1.978999 1_545
O13 W1 1.898017 1_555
O13 Zn1 1.978999 1_565
O14 W0 1.898017 1_555
O14 Zn2 1.978999 1_655
O15 W1 1.898017 1_555
O15 Zn3 1.978999 1_455
O16 W0 1.904655 1_555
O16 Zn1 2.003821 1_555
O17 W1 1.904655 1_555
O17 Zn0 2.003821 1_555
O18 W0 1.904655 1_555
O18 Zn3 2.003821 1_554
O19 W1 1.904655 1_555
O19 Zn2 2.003821 1_556
O20 W4 1.838954 1_555
O20 Zn0 2.185450 1_555
O21 W5 1.838954 1_555
O21 Zn1 2.185450 1_555
O22 W2 1.838954 1_555
O22 Zn2 2.185450 1_555
O23 W3 1.838954 1_555
O23 Zn3 2.185450 1_555
