# generated using pymatgen
data_Li16Ta2N8O
_symmetry_space_group_name_H-M   'P 1'
_cell_length_a   9.19911595
_cell_length_b   9.19911595
_cell_length_c   9.19911688
_cell_angle_alpha   38.06644369
_cell_angle_beta   38.06644369
_cell_angle_gamma   38.06644333
_symmetry_Int_Tables_number   1
_chemical_formula_structural   Li16Ta2N8O
_chemical_formula_sum   'Li16 Ta2 N8 O1'
_cell_volume   265.68539928
_cell_formula_units_Z   1
loop_
 _symmetry_equiv_pos_site_id
 _symmetry_equiv_pos_as_xyz
  1  'x, y, z'
loop_
 _atom_site_type_symbol
 _atom_site_label
 _atom_site_symmetry_multiplicity
 _atom_site_fract_x
 _atom_site_fract_y
 _atom_site_fract_z
 _atom_site_occupancy
  Li  Li0  1  0.41744500  0.41744500  0.41744500  1
  Li  Li1  1  0.58255500  0.58255500  0.58255500  1
  Li  Li2  1  0.07767200  0.07767200  0.07767200  1
  Li  Li3  1  0.92232800  0.92232800  0.92232800  1
  Li  Li4  1  0.68246100  0.05715800  0.33148100  1
  Li  Li5  1  0.05715800  0.33148100  0.68246100  1
  Li  Li6  1  0.33148100  0.68246100  0.05715800  1
  Li  Li7  1  0.31753900  0.94284200  0.66851900  1
  Li  Li8  1  0.94284200  0.66851900  0.31753900  1
  Li  Li9  1  0.66851900  0.31753900  0.94284200  1
  Li  Li10  1  0.17404800  0.83262100  0.41890900  1
  Li  Li11  1  0.58109100  0.82595200  0.16737900  1
  Li  Li12  1  0.16737900  0.58109100  0.82595200  1
  Li  Li13  1  0.82595200  0.16737900  0.58109100  1
  Li  Li14  1  0.41890900  0.17404800  0.83262100  1
  Li  Li15  1  0.83262100  0.41890900  0.17404800  1
  Ta  Ta0  1  0.24931200  0.24931200  0.24931200  1
  Ta  Ta1  1  0.75068800  0.75068800  0.75068800  1
  N  N0  1  0.22597700  0.91293100  0.53482700  1
  N  N1  1  0.32621500  0.32621500  0.32621500  1
  N  N2  1  0.67378500  0.67378500  0.67378500  1
  N  N3  1  0.91293100  0.53482700  0.22597700  1
  N  N4  1  0.53482700  0.22597700  0.91293100  1
  N  N5  1  0.46517300  0.77402300  0.08706900  1
  N  N6  1  0.08706900  0.46517300  0.77402300  1
  N  N7  1  0.77402300  0.08706900  0.46517300  1
  O  O0  1  0.00000000  0.00000000  0.00000000  1
loop_
_geom_bond_atom_site_label_1
_geom_bond_atom_site_label_2
_geom_bond_distance
_geom_bond_site_symmetry_2
Li0 N7 2.158339 1_555
Li0 N5 2.158339 1_555
Li0 N6 2.158339 1_555
Li0 N1 2.332377 1_555
Li1 N0 2.158339 1_555
Li1 N4 2.158339 1_555
Li1 N3 2.158339 1_555
Li1 N2 2.332377 1_555
Li2 O0 1.985754 1_555
Li2 N5 2.223361 1_545
Li2 N6 2.223361 1_554
Li2 N7 2.223361 1_455
Li3 O0 1.985754 1_666
Li3 N4 2.223361 1_565
Li3 N3 2.223361 1_556
Li3 N0 2.223361 1_655
Li4 N1 2.038971 1_555
Li4 O0 2.046546 1_655
Li4 N7 2.196943 1_555
Li4 N2 2.218289 1_545
Li5 N1 2.038972 1_555
Li5 O0 2.046546 1_556
Li5 N6 2.196943 1_555
Li5 N2 2.218289 1_455
Li6 N1 2.038971 1_555
Li6 O0 2.046546 1_565
Li6 N5 2.196943 1_555
Li6 N2 2.218289 1_554
Li7 N2 2.038971 1_555
Li7 O0 2.046546 1_566
Li7 N0 2.196943 1_555
Li7 N1 2.218289 1_565
Li8 N2 2.038972 1_555
Li8 O0 2.046546 1_665
Li8 N3 2.196943 1_555
Li8 N1 2.218289 1_655
Li9 N2 2.038971 1_555
Li9 O0 2.046546 1_656
Li9 N4 2.196943 1_555
Li9 N1 2.218289 1_556
Li10 N5 2.055862 1_555
Li10 N0 2.123517 1_555
Li10 N7 2.177462 1_465
Li10 N6 2.343815 1_555
Li11 N3 2.055862 1_555
Li11 N5 2.123517 1_555
Li11 N4 2.177462 1_564
Li11 N0 2.343815 1_555
Li12 N0 2.055862 1_555
Li12 N6 2.123517 1_555
Li12 N3 2.177463 1_456
Li12 N4 2.343815 1_555
Li13 N4 2.055862 1_555
Li13 N7 2.123517 1_555
Li13 N0 2.177462 1_645
Li13 N3 2.343815 1_555
Li14 N6 2.055862 1_555
Li14 N4 2.123517 1_555
Li14 N5 2.177462 1_546
Li14 N7 2.343815 1_555
Li15 N7 2.055862 1_555
Li15 N3 2.123517 1_555
Li15 N6 2.177463 1_654
Li15 N5 2.343815 1_555
N0 Ta0 1.969938 1_565
N1 Ta0 1.966094 1_555
N2 Ta1 1.966094 1_555
N3 Ta0 1.969938 1_655
N4 Ta0 1.969938 1_556
N5 Ta1 1.969938 1_554
N6 Ta1 1.969938 1_455
N7 Ta1 1.969938 1_545
