# generated using pymatgen
data_Cs2Bi4Se7
_symmetry_space_group_name_H-M   'P 1'
_cell_length_a   4.24401182
_cell_length_b   13.41347104
_cell_length_c   15.55955421
_cell_angle_alpha   85.29289331
_cell_angle_beta   90.00000000
_cell_angle_gamma   90.00000000
_symmetry_Int_Tables_number   1
_chemical_formula_structural   Cs2Bi4Se7
_chemical_formula_sum   'Cs4 Bi8 Se14'
_cell_volume   882.77017871
_cell_formula_units_Z   2
loop_
 _symmetry_equiv_pos_site_id
 _symmetry_equiv_pos_as_xyz
  1  'x, y, z'
loop_
 _atom_site_type_symbol
 _atom_site_label
 _atom_site_symmetry_multiplicity
 _atom_site_fract_x
 _atom_site_fract_y
 _atom_site_fract_z
 _atom_site_occupancy
  Cs  Cs0  1  0.25000000  0.56849279  0.81209004  1
  Cs  Cs1  1  0.75000000  0.43150721  0.18790996  1
  Cs  Cs2  1  0.75000000  0.82875309  0.62285478  1
  Cs  Cs3  1  0.25000000  0.17124691  0.37714522  1
  Bi  Bi0  1  0.25000000  0.94612343  0.87977359  1
  Bi  Bi1  1  0.75000000  0.05387657  0.12022641  1
  Bi  Bi2  1  0.25000000  0.83155606  0.27488852  1
  Bi  Bi3  1  0.75000000  0.16844394  0.72511148  1
  Bi  Bi4  1  0.75000000  0.73146608  0.05056020  1
  Bi  Bi5  1  0.25000000  0.26853392  0.94943980  1
  Bi  Bi6  1  0.75000000  0.60668333  0.42829721  1
  Bi  Bi7  1  0.25000000  0.39331667  0.57170279  1
  Se  Se0  1  0.25000000  0.45798711  0.39320698  1
  Se  Se1  1  0.75000000  0.54201289  0.60679302  1
  Se  Se2  1  0.25000000  0.59813812  0.03793755  1
  Se  Se3  1  0.75000000  0.40186188  0.96206245  1
  Se  Se4  1  0.75000000  0.98566906  0.29540055  1
  Se  Se5  1  0.25000000  0.01433094  0.70459945  1
  Se  Se6  1  0.75000000  0.79785506  0.86286623  1
  Se  Se7  1  0.25000000  0.20214494  0.13713377  1
  Se  Se8  1  0.25000000  0.75545718  0.45156839  1
  Se  Se9  1  0.75000000  0.24454282  0.54843161  1
  Se  Se10  1  0.75000000  0.69160821  0.24041933  1
  Se  Se11  1  0.25000000  0.30839179  0.75958067  1
  Se  Se12  1  0.25000000  0.90357682  0.08303846  1
  Se  Se13  1  0.75000000  0.09642318  0.91696154  1
loop_
_geom_bond_atom_site_label_1
_geom_bond_atom_site_label_2
_geom_bond_distance
_geom_bond_site_symmetry_2
Cs0 Se2 3.568791 1_556
Cs0 Se11 3.647942 1_555
Cs0 Se3 3.753373 1_555
Cs0 Se3 3.753373 1_455
Cs0 Se6 3.871840 1_555
Cs0 Se6 3.871840 1_455
Cs0 Se1 3.875439 1_455
Cs0 Se1 3.875439 1_555
Cs1 Se3 3.568791 1_554
Cs1 Se10 3.647942 1_555
Cs1 Se2 3.753373 1_555
Cs1 Se2 3.753373 1_655
Cs1 Se7 3.871840 1_655
Cs1 Se7 3.871840 1_555
Cs1 Se0 3.875439 1_555
Cs1 Se0 3.875439 1_655
Cs2 Se5 3.582824 1_565
Cs2 Se5 3.582824 1_665
Cs2 Se8 3.605900 1_555
Cs2 Se8 3.605900 1_655
Cs2 Se6 3.723442 1_555
Cs2 Se1 3.874703 1_555
Cs3 Se4 3.582824 1_445
Cs3 Se4 3.582824 1_545
Cs3 Se9 3.605900 1_455
Cs3 Se9 3.605900 1_555
Cs3 Se7 3.723442 1_555
Cs3 Se0 3.874703 1_555
Bi0 Se5 2.803005 1_565
Bi0 Se6 2.934840 1_555
Bi0 Se6 2.934840 1_455
Bi0 Se13 3.015560 1_565
Bi0 Se13 3.015560 1_465
Bi0 Se12 3.167365 1_556
Bi1 Se4 2.803005 1_545
Bi1 Se7 2.934840 1_555
Bi1 Se7 2.934840 1_655
Bi1 Se12 3.015560 1_645
Bi1 Se12 3.015560 1_545
Bi1 Se13 3.167365 1_554
Bi2 Se8 2.852843 1_555
Bi2 Se10 2.911979 1_455
Bi2 Se10 2.911979 1_555
Bi2 Se4 2.997721 1_455
Bi2 Se4 2.997721 1_555
Bi2 Se12 3.061174 1_555
Bi3 Se9 2.852843 1_555
Bi3 Se11 2.911979 1_655
Bi3 Se11 2.911979 1_555
Bi3 Se5 2.997721 1_655
Bi3 Se5 2.997721 1_555
Bi3 Se13 3.061174 1_555
Bi4 Se2 2.792395 1_555
Bi4 Se2 2.792395 1_655
Bi4 Se10 2.958625 1_555
Bi4 Se6 2.982467 1_554
Bi4 Se12 3.206151 1_555
Bi4 Se12 3.206151 1_655
Bi5 Se3 2.792395 1_455
Bi5 Se3 2.792395 1_555
Bi5 Se11 2.958625 1_555
Bi5 Se7 2.982467 1_556
Bi5 Se13 3.206151 1_455
Bi5 Se13 3.206151 1_555
Bi6 Se1 2.840871 1_555
Bi6 Se8 2.955491 1_555
Bi6 Se8 2.955491 1_655
Bi6 Se0 2.992975 1_655
Bi6 Se0 2.992975 1_555
Bi6 Se10 3.049058 1_555
Bi7 Se0 2.840871 1_555
Bi7 Se9 2.955491 1_455
Bi7 Se9 2.955491 1_555
Bi7 Se1 2.992975 1_555
Bi7 Se1 2.992975 1_455
Bi7 Se11 3.049058 1_555
