# generated using pymatgen
data_Ca(AgO2)2
_symmetry_space_group_name_H-M   'P 1'
_cell_length_a   6.64512110
_cell_length_b   6.64512110
_cell_length_c   16.15464500
_cell_angle_alpha   90.00000000
_cell_angle_beta   90.00000000
_cell_angle_gamma   120.00001094
_symmetry_Int_Tables_number   1
_chemical_formula_structural   Ca(AgO2)2
_chemical_formula_sum   'Ca6 Ag12 O24'
_cell_volume   617.77994009
_cell_formula_units_Z   6
loop_
 _symmetry_equiv_pos_site_id
 _symmetry_equiv_pos_as_xyz
  1  'x, y, z'
loop_
 _atom_site_type_symbol
 _atom_site_label
 _atom_site_symmetry_multiplicity
 _atom_site_fract_x
 _atom_site_fract_y
 _atom_site_fract_z
 _atom_site_occupancy
  Ca  Ca0  1  0.33333300  0.66666700  0.95469400  1
  Ca  Ca1  1  0.00000000  0.00000000  0.62156900  1
  Ca  Ca2  1  0.00000000  0.00000000  0.00024300  1
  Ca  Ca3  1  0.66666700  0.33333300  0.28422000  1
  Ca  Ca4  1  0.33333300  0.66666700  0.71425800  1
  Ca  Ca5  1  0.00000000  0.00000000  0.37383400  1
  Ag  Ag0  1  0.83435100  0.66870100  0.83394600  1
  Ag  Ag1  1  0.33129900  0.16564900  0.83394600  1
  Ag  Ag2  1  0.49865000  0.99730000  0.49897100  1
  Ag  Ag3  1  0.83435100  0.16564900  0.83394600  1
  Ag  Ag4  1  0.66666700  0.33333300  0.66579200  1
  Ag  Ag5  1  0.00270000  0.50135000  0.49897100  1
  Ag  Ag6  1  0.16910200  0.33820400  0.16626600  1
  Ag  Ag7  1  0.49865000  0.50135000  0.49897100  1
  Ag  Ag8  1  0.16910200  0.83089800  0.16626600  1
  Ag  Ag9  1  0.33333300  0.66666700  0.33404000  1
  Ag  Ag10  1  0.66179600  0.83089800  0.16626600  1
  Ag  Ag11  1  0.66666700  0.33333300  0.04208000  1
  O  O0  1  0.69460600  0.84730300  0.90305100  1
  O  O1  1  0.00000000  0.00000000  0.76011000  1
  O  O2  1  0.15269700  0.84730300  0.90305100  1
  O  O3  1  0.15269700  0.30539400  0.90305100  1
  O  O4  1  0.52533200  0.05066300  0.76055600  1
  O  O5  1  0.37444000  0.18722000  0.57657300  1
  O  O6  1  0.52533200  0.47466800  0.76055600  1
  O  O7  1  0.66666700  0.33333300  0.90838500  1
  O  O8  1  0.81278000  0.18722000  0.57657300  1
  O  O9  1  0.66666700  0.33333300  0.42879300  1
  O  O10  1  0.94933700  0.47466800  0.76055600  1
  O  O11  1  0.81278000  0.62556000  0.57657300  1
  O  O12  1  0.18407700  0.36815400  0.42144300  1
  O  O13  1  0.04212600  0.52106300  0.24531800  1
  O  O14  1  0.18407700  0.81592300  0.42144300  1
  O  O15  1  0.33333300  0.66666700  0.57323500  1
  O  O16  1  0.33333300  0.66666700  0.09402900  1
  O  O17  1  0.47893700  0.52106300  0.24531800  1
  O  O18  1  0.63184600  0.81592300  0.42144300  1
  O  O19  1  0.47893700  0.95787400  0.24531800  1
  O  O20  1  0.84503100  0.69006200  0.09804800  1
  O  O21  1  0.00000000  0.00000000  0.23332000  1
  O  O22  1  0.84503100  0.15496900  0.09804800  1
  O  O23  1  0.30993800  0.15496900  0.09804800  1
loop_
_geom_bond_atom_site_label_1
_geom_bond_atom_site_label_2
_geom_bond_distance
_geom_bond_site_symmetry_2
Ca0 O2 2.240206 1_555
Ca0 O0 2.240211 1_555
Ca0 O3 2.240211 1_555
Ca0 O16 2.250907 1_556
Ca1 O1 2.238081 1_555
Ca1 O5 2.274143 1_555
Ca1 O11 2.274143 1_445
Ca1 O8 2.274143 1_455
Ca2 O3 2.356694 1_554
Ca2 O0 2.356694 1_444
Ca2 O2 2.356695 1_544
Ca2 O23 2.382814 1_555
Ca2 O20 2.382814 1_445
Ca2 O22 2.382814 1_455
Ca3 O19 2.250245 1_545
Ca3 O13 2.250245 1_655
Ca3 O17 2.250251 1_555
Ca3 O9 2.335525 1_555
Ca4 O15 2.278177 1_555
Ca4 O4 2.332975 1_565
Ca4 O10 2.332975 1_455
Ca4 O6 2.332987 1_555
Ca5 O12 2.253948 1_555
Ca5 O18 2.253948 1_445
Ca5 O14 2.253948 1_545
Ca5 O21 2.269954 1_555
Ag0 O2 2.149252 1_655
Ag0 O0 2.149256 1_555
Ag0 O6 2.153404 1_555
Ag0 O10 2.153405 1_555
Ag0 O1 2.248951 1_665
Ag0 O7 2.273973 1_555
Ag1 O2 2.149252 1_545
Ag1 O3 2.149256 1_555
Ag1 O6 2.153404 1_555
Ag1 O4 2.153405 1_555
Ag1 O1 2.248951 1_555
Ag1 O7 2.273973 1_555
Ag2 O14 2.207143 1_555
Ag2 O18 2.207143 1_555
Ag2 O8 2.210721 1_565
Ag2 O5 2.210722 1_565
Ag2 O9 2.241635 1_565
Ag2 O15 2.249383 1_555
Ag3 O0 2.149251 1_545
Ag3 O3 2.149251 1_655
Ag3 O4 2.153404 1_555
Ag3 O10 2.153404 1_555
Ag3 O1 2.248947 1_655
Ag3 O7 2.273973 1_555
Ag4 O8 2.214840 1_555
Ag4 O5 2.214844 1_555
Ag4 O11 2.214844 1_555
Ag4 O4 2.233789 1_555
Ag4 O10 2.233789 1_555
Ag4 O6 2.233789 1_555
Ag5 O14 2.207143 1_555
Ag5 O12 2.207143 1_555
Ag5 O8 2.210721 1_455
Ag5 O11 2.210722 1_455
Ag5 O9 2.241635 1_455
Ag5 O15 2.249383 1_555
Ag6 O22 2.170823 1_455
Ag6 O23 2.170824 1_555
Ag6 O17 2.201050 1_555
Ag6 O13 2.201051 1_555
Ag6 O16 2.221454 1_555
Ag6 O21 2.227447 1_555
Ag7 O18 2.207143 1_555
Ag7 O12 2.207143 1_555
Ag7 O5 2.210721 1_555
Ag7 O11 2.210721 1_555
Ag7 O9 2.241640 1_555
Ag7 O15 2.249388 1_555
Ag8 O23 2.170823 1_565
Ag8 O20 2.170823 1_455
Ag8 O13 2.201051 1_555
Ag8 O19 2.201051 1_555
Ag8 O16 2.221450 1_555
Ag8 O21 2.227448 1_565
Ag9 O19 2.205163 1_555
Ag9 O13 2.205163 1_555
Ag9 O17 2.205168 1_555
Ag9 O14 2.223688 1_555
Ag9 O18 2.223693 1_555
Ag9 O12 2.223693 1_555
Ag10 O22 2.170823 1_565
Ag10 O20 2.170824 1_555
Ag10 O17 2.201050 1_555
Ag10 O19 2.201051 1_555
Ag10 O16 2.221454 1_555
Ag10 O21 2.227447 1_665
Ag11 O7 2.159795 1_554
Ag11 O22 2.243197 1_555
Ag11 O20 2.243201 1_555
Ag11 O23 2.243201 1_555
