# generated using pymatgen
data_Mg3Si3(AgO6)2
_symmetry_space_group_name_H-M   'P 1'
_cell_length_a   10.41911526
_cell_length_b   10.41911526
_cell_length_c   10.41911526
_cell_angle_alpha   109.47122063
_cell_angle_beta   109.47122063
_cell_angle_gamma   109.47122063
_symmetry_Int_Tables_number   1
_chemical_formula_structural   Mg3Si3(AgO6)2
_chemical_formula_sum   'Mg12 Si12 Ag8 O48'
_cell_volume   870.70419399
_cell_formula_units_Z   4
loop_
 _symmetry_equiv_pos_site_id
 _symmetry_equiv_pos_as_xyz
  1  'x, y, z'
loop_
 _atom_site_type_symbol
 _atom_site_label
 _atom_site_symmetry_multiplicity
 _atom_site_fract_x
 _atom_site_fract_y
 _atom_site_fract_z
 _atom_site_occupancy
  Mg  Mg0  1  0.25000000  0.37500000  0.12500000  1
  Mg  Mg1  1  0.75000000  0.12500000  0.37500000  1
  Mg  Mg2  1  0.37500000  0.12500000  0.25000000  1
  Mg  Mg3  1  0.12500000  0.37500000  0.75000000  1
  Mg  Mg4  1  0.25000000  0.87500000  0.62500000  1
  Mg  Mg5  1  0.12500000  0.25000000  0.37500000  1
  Mg  Mg6  1  0.62500000  0.25000000  0.87500000  1
  Mg  Mg7  1  0.75000000  0.62500000  0.87500000  1
  Mg  Mg8  1  0.87500000  0.75000000  0.62500000  1
  Mg  Mg9  1  0.87500000  0.62500000  0.25000000  1
  Mg  Mg10  1  0.62500000  0.87500000  0.75000000  1
  Mg  Mg11  1  0.37500000  0.75000000  0.12500000  1
  Si  Si0  1  0.12500000  0.75000000  0.87500000  1
  Si  Si1  1  0.87500000  0.25000000  0.12500000  1
  Si  Si2  1  0.75000000  0.37500000  0.62500000  1
  Si  Si3  1  0.12500000  0.87500000  0.25000000  1
  Si  Si4  1  0.25000000  0.12500000  0.87500000  1
  Si  Si5  1  0.37500000  0.62500000  0.75000000  1
  Si  Si6  1  0.37500000  0.25000000  0.62500000  1
  Si  Si7  1  0.87500000  0.12500000  0.75000000  1
  Si  Si8  1  0.62500000  0.37500000  0.25000000  1
  Si  Si9  1  0.75000000  0.87500000  0.12500000  1
  Si  Si10  1  0.25000000  0.62500000  0.37500000  1
  Si  Si11  1  0.62500000  0.75000000  0.37500000  1
  Ag  Ag0  1  0.50000000  0.00000000  0.00000000  1
  Ag  Ag1  1  0.50000000  0.50000000  0.00000000  1
  Ag  Ag2  1  0.00000000  0.50000000  0.50000000  1
  Ag  Ag3  1  0.00000000  0.00000000  0.50000000  1
  Ag  Ag4  1  0.50000000  0.50000000  0.50000000  1
  Ag  Ag5  1  0.00000000  0.50000000  0.00000000  1
  Ag  Ag6  1  0.50000000  0.00000000  0.50000000  1
  Ag  Ag7  1  0.00000000  0.00000000  0.00000000  1
  O  O0  1  0.59777600  0.89695400  0.36859200  1
  O  O1  1  0.36859200  0.59777600  0.89695400  1
  O  O2  1  0.27081600  0.29917900  0.90222400  1
  O  O3  1  0.47163700  0.60304600  0.20082100  1
  O  O4  1  0.29917900  0.89695400  0.02836300  1
  O  O5  1  0.13140800  0.02836300  0.22918400  1
  O  O6  1  0.36859200  0.27081600  0.47163700  1
  O  O7  1  0.89695400  0.36859200  0.59777600  1
  O  O8  1  0.20082100  0.22918400  0.59777600  1
  O  O9  1  0.47163700  0.36859200  0.27081600  1
  O  O10  1  0.89695400  0.02836300  0.29917900  1
  O  O11  1  0.60304600  0.90222400  0.13140800  1
  O  O12  1  0.90222400  0.13140800  0.60304600  1
  O  O13  1  0.27081600  0.47163700  0.36859200  1
  O  O14  1  0.59777600  0.20082100  0.22918400  1
  O  O15  1  0.22918400  0.59777600  0.20082100  1
  O  O16  1  0.02836300  0.29917900  0.89695400  1
  O  O17  1  0.90222400  0.27081600  0.29917900  1
  O  O18  1  0.02836300  0.22918400  0.13140800  1
  O  O19  1  0.79917900  0.77081600  0.40222400  1
  O  O20  1  0.20082100  0.47163700  0.60304600  1
  O  O21  1  0.60304600  0.20082100  0.47163700  1
  O  O22  1  0.22918400  0.13140800  0.02836300  1
  O  O23  1  0.13140800  0.60304600  0.90222400  1
  O  O24  1  0.40222400  0.10304600  0.63140800  1
  O  O25  1  0.63140800  0.40222400  0.10304600  1
  O  O26  1  0.72918400  0.70082100  0.09777600  1
  O  O27  1  0.52836300  0.39695400  0.79917900  1
  O  O28  1  0.70082100  0.10304600  0.97163700  1
  O  O29  1  0.86859200  0.97163700  0.77081600  1
  O  O30  1  0.63140800  0.72918400  0.52836300  1
  O  O31  1  0.10304600  0.63140800  0.40222400  1
  O  O32  1  0.86859200  0.39695400  0.09777600  1
  O  O33  1  0.77081600  0.86859200  0.97163700  1
  O  O34  1  0.39695400  0.79917900  0.52836300  1
  O  O35  1  0.70082100  0.09777600  0.72918400  1
  O  O36  1  0.79917900  0.52836300  0.39695400  1
  O  O37  1  0.97163700  0.77081600  0.86859200  1
  O  O38  1  0.09777600  0.72918400  0.70082100  1
  O  O39  1  0.97163700  0.70082100  0.10304600  1
  O  O40  1  0.77081600  0.40222400  0.79917900  1
  O  O41  1  0.40222400  0.79917900  0.77081600  1
  O  O42  1  0.72918400  0.52836300  0.63140800  1
  O  O43  1  0.09777600  0.86859200  0.39695400  1
  O  O44  1  0.39695400  0.09777600  0.86859200  1
  O  O45  1  0.10304600  0.97163700  0.70082100  1
  O  O46  1  0.52836300  0.63140800  0.72918400  1
  O  O47  1  0.29917900  0.90222400  0.27081600  1
loop_
_geom_bond_atom_site_label_1
_geom_bond_atom_site_label_2
_geom_bond_distance
_geom_bond_site_symmetry_2
Mg0 O15 2.299163 1_555
Mg0 O22 2.299163 1_555
Mg0 O13 2.299163 1_555
Mg0 O2 2.299163 1_554
Mg0 O9 2.340260 1_555
Mg0 O18 2.340260 1_555
Mg0 O3 2.340266 1_555
Mg0 O16 2.340266 1_554
Mg1 O21 2.299153 1_555
Mg1 O10 2.299153 1_555
Mg1 O11 2.299164 1_545
Mg1 O7 2.299164 1_555
Mg1 O14 2.340260 1_555
Mg1 O17 2.340260 1_555
Mg1 O12 2.340268 1_555
Mg1 O0 2.340268 1_545
Mg2 O9 2.299163 1_555
Mg2 O5 2.299163 1_555
Mg2 O14 2.299163 1_555
Mg2 O47 2.299163 1_545
Mg2 O22 2.340260 1_555
Mg2 O6 2.340260 1_555
Mg2 O4 2.340266 1_545
Mg2 O21 2.340266 1_555
Mg3 O16 2.299153 1_555
Mg3 O20 2.299153 1_555
Mg3 O1 2.299164 1_555
Mg3 O12 2.299164 1_455
Mg3 O8 2.340260 1_555
Mg3 O2 2.340260 1_555
Mg3 O7 2.340268 1_455
Mg3 O23 2.340268 1_555
Mg4 O45 2.299153 1_555
Mg4 O34 2.299153 1_555
Mg4 O31 2.299164 1_555
Mg4 O44 2.299164 1_565
Mg4 O38 2.340260 1_555
Mg4 O41 2.340260 1_555
Mg4 O43 2.340268 1_555
Mg4 O24 2.340268 1_565
Mg5 O6 2.299163 1_555
Mg5 O18 2.299163 1_555
Mg5 O17 2.299163 1_455
Mg5 O8 2.299163 1_555
Mg5 O13 2.340260 1_555
Mg5 O5 2.340260 1_555
Mg5 O10 2.340266 1_455
Mg5 O20 2.340266 1_555
Mg6 O27 2.299153 1_555
Mg6 O28 2.299153 1_555
Mg6 O24 2.299164 1_555
Mg6 O32 2.299164 1_556
Mg6 O35 2.340260 1_555
Mg6 O40 2.340260 1_555
Mg6 O25 2.340268 1_556
Mg6 O44 2.340268 1_555
Mg7 O40 2.299163 1_555
Mg7 O26 2.299163 1_556
Mg7 O42 2.299163 1_555
Mg7 O33 2.299163 1_555
Mg7 O46 2.340260 1_555
Mg7 O37 2.340260 1_555
Mg7 O39 2.340266 1_556
Mg7 O27 2.340266 1_555
Mg8 O19 2.299163 1_555
Mg8 O38 2.299163 1_655
Mg8 O30 2.299163 1_555
Mg8 O37 2.299163 1_555
Mg8 O42 2.340260 1_555
Mg8 O29 2.340260 1_555
Mg8 O45 2.340266 1_655
Mg8 O36 2.340266 1_555
Mg9 O39 2.299153 1_555
Mg9 O36 2.299153 1_555
Mg9 O25 2.299164 1_555
Mg9 O43 2.299164 1_655
Mg9 O19 2.340260 1_555
Mg9 O26 2.340260 1_555
Mg9 O31 2.340268 1_655
Mg9 O32 2.340268 1_555
Mg10 O41 2.299163 1_555
Mg10 O46 2.299163 1_555
Mg10 O29 2.299163 1_555
Mg10 O35 2.299163 1_565
Mg10 O33 2.340260 1_555
Mg10 O30 2.340260 1_555
Mg10 O28 2.340266 1_565
Mg10 O34 2.340266 1_555
Mg11 O3 2.299153 1_555
Mg11 O4 2.299153 1_555
Mg11 O0 2.299164 1_555
Mg11 O23 2.299164 1_554
Mg11 O15 2.340260 1_555
Mg11 O47 2.340260 1_555
Mg11 O1 2.340268 1_554
Mg11 O11 2.340268 1_555
Ag0 O14 2.178113 1_555
Ag0 O41 2.178113 1_544
Ag0 O4 2.178115 1_545
Ag0 O28 2.178115 1_554
Ag0 O11 2.178117 1_545
Ag0 O44 2.178117 1_554
Ag1 O2 2.178113 1_554
Ag1 O26 2.178113 1_555
Ag1 O3 2.178115 1_555
Ag1 O27 2.178115 1_554
Ag1 O25 2.178117 1_555
Ag1 O1 2.178117 1_554
Ag2 O17 2.178113 1_455
Ag2 O38 2.178113 1_555
Ag2 O20 2.178115 1_555
Ag2 O36 2.178115 1_455
Ag2 O7 2.178117 1_455
Ag2 O31 2.178117 1_555
Ag3 O8 2.178113 1_555
Ag3 O19 2.178113 1_445
Ag3 O10 2.178115 1_455
Ag3 O45 2.178115 1_545
Ag3 O12 2.178117 1_455
Ag3 O43 2.178117 1_545
Ag4 O6 2.178113 1_555
Ag4 O9 2.178113 1_555
Ag4 O13 2.178113 1_555
Ag4 O30 2.178113 1_555
Ag4 O42 2.178113 1_555
Ag4 O46 2.178113 1_555
Ag5 O15 2.178113 1_555
Ag5 O40 2.178113 1_454
Ag5 O16 2.178115 1_554
Ag5 O39 2.178115 1_455
Ag5 O23 2.178117 1_554
Ag5 O32 2.178117 1_455
Ag6 O47 2.178113 1_545
Ag6 O35 2.178113 1_555
Ag6 O21 2.178115 1_555
Ag6 O34 2.178115 1_545
Ag6 O24 2.178117 1_555
Ag6 O0 2.178117 1_545
Ag7 O18 2.178113 1_555
Ag7 O33 2.178113 1_444
Ag7 O22 2.178113 1_555
Ag7 O5 2.178113 1_555
Ag7 O29 2.178113 1_444
Ag7 O37 2.178113 1_444
O0 Si11 1.665635 1_555
O1 Si5 1.665635 1_555
O2 Si4 1.665645 1_555
O3 Si11 1.665643 1_555
O4 Si0 1.665643 1_554
O5 Si3 1.665645 1_545
O6 Si6 1.665645 1_555
O7 Si2 1.665635 1_555
O8 Si6 1.665645 1_555
O9 Si8 1.665645 1_555
O10 Si9 1.665643 1_545
O11 Si9 1.665635 1_555
O12 Si7 1.665635 1_555
O13 Si10 1.665645 1_555
O14 Si8 1.665645 1_555
O15 Si10 1.665645 1_555
O16 Si7 1.665643 1_455
O17 Si1 1.665645 1_555
O18 Si1 1.665645 1_455
O19 Si11 1.665645 1_555
O20 Si5 1.665643 1_555
O21 Si2 1.665643 1_555
O22 Si4 1.665645 1_554
O23 Si0 1.665635 1_555
O24 Si6 1.665635 1_555
O25 Si8 1.665635 1_555
O26 Si9 1.665645 1_555
O27 Si6 1.665643 1_555
O28 Si1 1.665643 1_556
O29 Si7 1.665645 1_565
O30 Si11 1.665645 1_555
O31 Si10 1.665635 1_555
O32 Si1 1.665635 1_555
O33 Si9 1.665645 1_556
O34 Si10 1.665643 1_555
O35 Si7 1.665645 1_555
O36 Si8 1.665643 1_555
O37 Si0 1.665645 1_655
O38 Si0 1.665645 1_555
O39 Si3 1.665643 1_655
O40 Si2 1.665645 1_555
O41 Si5 1.665645 1_555
O42 Si2 1.665645 1_555
O43 Si3 1.665635 1_555
O44 Si4 1.665635 1_555
O45 Si4 1.665643 1_565
O46 Si5 1.665645 1_555
O47 Si3 1.665645 1_555
