# generated using pymatgen
data_Hf2N2O
_symmetry_space_group_name_H-M   'P 1'
_cell_length_a   8.70498100
_cell_length_b   8.72064336
_cell_length_c   8.75062947
_cell_angle_alpha   109.60956695
_cell_angle_beta   109.34002743
_cell_angle_gamma   109.25589084
_symmetry_Int_Tables_number   1
_chemical_formula_structural   Hf2N2O
_chemical_formula_sum   'Hf16 N16 O8'
_cell_volume   512.67383104
_cell_formula_units_Z   8
loop_
 _symmetry_equiv_pos_site_id
 _symmetry_equiv_pos_as_xyz
  1  'x, y, z'
loop_
 _atom_site_type_symbol
 _atom_site_label
 _atom_site_symmetry_multiplicity
 _atom_site_fract_x
 _atom_site_fract_y
 _atom_site_fract_z
 _atom_site_occupancy
  Hf  Hf0  1  0.00110200  0.98985100  0.49923600  1
  Hf  Hf1  1  0.74912400  0.29289100  0.46349600  1
  Hf  Hf2  1  0.22233100  0.47150300  0.24928700  1
  Hf  Hf3  1  0.70449000  0.95405200  0.25838300  1
  Hf  Hf4  1  0.25892800  0.21493200  0.03532100  1
  Hf  Hf5  1  0.04213500  0.26580600  0.70626300  1
  Hf  Hf6  1  0.51296700  0.50940400  0.48721100  1
  Hf  Hf7  1  0.99646000  0.50927000  0.99417800  1
  Hf  Hf8  1  0.48998800  0.99834700  0.01187600  1
  Hf  Hf9  1  0.96698300  0.74071300  0.28545000  1
  Hf  Hf10  1  0.52818200  0.25017000  0.21585100  1
  Hf  Hf11  1  0.46599800  0.74871000  0.78527200  1
  Hf  Hf12  1  0.74196500  0.77826200  0.96596000  1
  Hf  Hf13  1  0.28608300  0.03133500  0.74954500  1
  Hf  Hf14  1  0.78589500  0.53727900  0.74909600  1
  Hf  Hf15  1  0.25093400  0.71469100  0.53671900  1
  N  N0  1  0.26682100  0.23890600  0.27180600  1
  N  N1  1  0.01110000  0.53670200  0.22980700  1
  N  N2  1  0.48796200  0.25559900  0.47025400  1
  N  N3  1  0.46022000  0.96792400  0.26825700  1
  N  N4  1  0.46503900  0.72740200  0.04357700  1
  N  N5  1  0.73218700  0.76806000  0.72437500  1
  N  N6  1  0.74150600  0.73236700  0.22587900  1
  N  N7  1  0.27012500  0.50612700  0.45714000  1
  N  N8  1  0.51412700  0.73936300  0.53433400  1
  N  N9  1  0.98754000  0.45014800  0.77807400  1
  N  N10  1  0.76019700  0.53323700  0.01577600  1
  N  N11  1  0.22495000  0.77368100  0.76681900  1
  N  N12  1  0.22754000  0.95853600  0.03167500  1
  N  N13  1  0.53238900  0.27325900  0.95175700  1
  N  N14  1  0.72653100  0.48469300  0.54686500  1
  N  N15  1  0.04935700  0.77750800  0.48450900  1
  O  O0  1  0.03823800  0.99677300  0.73380000  1
  O  O1  1  0.96090900  0.01454300  0.26740000  1
  O  O2  1  0.54910500  0.03431300  0.72585700  1
  O  O3  1  0.94202700  0.21831200  0.52558000  1
  O  O4  1  0.77863600  0.22470300  0.23611600  1
  O  O5  1  0.25104400  0.26991900  0.77885100  1
  O  O6  1  0.24406500  0.46619400  0.97789700  1
  O  O7  1  0.77482200  0.04451600  0.96045000  1
loop_
_geom_bond_atom_site_label_1
_geom_bond_atom_site_label_2
_geom_bond_distance
_geom_bond_site_symmetry_2
Hf0 O0 1.945691 1_555
Hf0 N15 2.002705 1_555
Hf0 O1 2.038927 1_465
Hf0 O3 2.175538 1_465
Hf0 N6 2.310431 1_455
Hf0 O5 2.375635 1_565
Hf1 N14 1.691617 1_555
Hf1 O3 1.972604 1_555
Hf1 O4 2.005925 1_555
Hf1 Hf10 2.181484 1_555
Hf1 N2 2.211778 1_555
Hf1 N9 2.360180 1_555
Hf1 N3 2.545235 1_545
Hf2 N7 1.618569 1_555
Hf2 N1 2.068914 1_555
Hf2 N0 2.244792 1_555
Hf2 O6 2.430503 1_554
Hf3 N4 1.994603 1_555
Hf3 N6 2.006146 1_555
Hf3 O1 2.084619 1_565
Hf3 N3 2.197241 1_555
Hf3 O3 2.256403 1_565
Hf3 O4 2.326486 1_565
Hf4 N0 1.984129 1_555
Hf4 N12 2.149065 1_545
Hf4 O0 2.265935 1_544
Hf4 O5 2.431760 1_554
Hf4 O6 2.439964 1_554
Hf4 N13 2.657828 1_554
Hf5 O3 1.356682 1_455
Hf5 O5 1.699548 1_555
Hf5 N9 1.796863 1_455
Hf5 O6 2.052324 1_555
Hf5 O0 2.428164 1_545
Hf6 N14 1.863343 1_555
Hf6 N8 1.902778 1_555
Hf6 N7 2.031120 1_555
Hf6 N2 2.099686 1_555
Hf6 N5 2.105281 1_555
Hf6 N0 2.171452 1_555
Hf7 N9 1.752089 1_555
Hf7 N1 1.949275 1_656
Hf7 N10 2.196301 1_556
Hf7 O6 2.347053 1_655
Hf8 N11 2.163695 1_554
Hf8 O4 2.218883 1_565
Hf8 N12 2.269220 1_555
Hf8 N4 2.418347 1_555
Hf8 N3 2.431058 1_555
Hf8 N13 2.559705 1_564
Hf8 O7 2.591257 1_564
Hf8 O2 2.810870 1_564
Hf9 N15 1.515619 1_655
Hf9 N6 1.825413 1_555
Hf9 N1 1.882244 1_655
Hf9 N10 2.062775 1_555
Hf9 O1 2.461926 1_565
Hf10 Hf8 2.147895 1_545
Hf10 Hf4 2.197794 1_555
Hf10 O4 2.218953 1_555
Hf10 N2 2.353118 1_555
Hf10 N13 2.397097 1_554
Hf10 N14 2.436419 1_555
Hf10 N12 2.445341 1_545
Hf10 N0 2.459351 1_555
Hf10 N3 2.568172 1_545
Hf11 N11 2.139392 1_555
Hf11 Hf15 2.197056 1_555
Hf11 Hf12 2.267094 1_555
Hf11 Hf8 2.289815 1_556
Hf11 N4 2.331757 1_556
Hf11 N8 2.348559 1_555
Hf11 N7 2.434783 1_555
Hf11 O7 2.504697 1_565
Hf11 N5 2.510386 1_555
Hf11 O2 2.631890 1_565
Hf12 N5 2.057626 1_555
Hf12 O7 2.263101 1_565
Hf12 O1 2.295172 1_566
Hf12 N10 2.363070 1_556
Hf12 N6 2.439125 1_556
Hf12 N4 2.655304 1_556
Hf13 O0 2.027538 1_545
Hf13 N13 2.043760 1_555
Hf13 O5 2.144753 1_555
Hf13 N11 2.201642 1_545
Hf13 N15 2.214745 1_545
Hf13 O2 2.358953 1_555
Hf14 N14 1.517323 1_555
Hf14 N9 2.106422 1_555
Hf14 N5 2.271920 1_555
Hf14 N10 2.427516 1_556
Hf14 N2 2.509476 1_555
Hf15 N7 1.802287 1_555
Hf15 N15 1.964405 1_555
Hf15 N11 2.013259 1_555
Hf15 N1 2.309014 1_555
Hf15 O2 2.555726 1_565
N0 N2 2.042997 1_555
N4 O6 2.172144 1_554
N5 N8 1.935933 1_555
N14 N2 2.048401 1_555
