# generated using pymatgen
data_LuMgWS4
_symmetry_space_group_name_H-M   'P 1'
_cell_length_a   7.58359573
_cell_length_b   7.55182475
_cell_length_c   7.55197985
_cell_angle_alpha   60.33426628
_cell_angle_beta   59.85902678
_cell_angle_gamma   59.85971889
_symmetry_Int_Tables_number   1
_chemical_formula_structural   LuMgWS4
_chemical_formula_sum   'Lu2 Mg2 W2 S8'
_cell_volume   305.93340286
_cell_formula_units_Z   2
loop_
 _symmetry_equiv_pos_site_id
 _symmetry_equiv_pos_as_xyz
  1  'x, y, z'
loop_
 _atom_site_type_symbol
 _atom_site_label
 _atom_site_symmetry_multiplicity
 _atom_site_fract_x
 _atom_site_fract_y
 _atom_site_fract_z
 _atom_site_occupancy
  Lu  Lu0  1  0.50000765  0.50003300  0.49997176  1
  Lu  Lu1  1  0.00001424  0.49998393  0.50000519  1
  Mg  Mg0  1  0.87322095  0.87677237  0.87677736  1
  Mg  Mg1  1  0.12677357  0.12323059  0.12322603  1
  W  W0  1  0.49998891  0.50000651  0.00000230  1
  W  W1  1  0.49999580  0.99999275  0.50000871  1
  S  S0  1  0.72010015  0.75127963  0.75130455  1
  S  S1  1  0.26474656  0.24124749  0.72927229  1
  S  S2  1  0.26473505  0.72927549  0.24124239  1
  S  S3  1  0.72268933  0.24870530  0.24870643  1
  S  S4  1  0.73523604  0.27072645  0.75875847  1
  S  S5  1  0.27731866  0.75128399  0.75129036  1
  S  S6  1  0.27990185  0.24870192  0.24870089  1
  S  S7  1  0.73527525  0.75875556  0.27073427  1
loop_
_geom_bond_atom_site_label_1
_geom_bond_atom_site_label_2
_geom_bond_distance
_geom_bond_site_symmetry_2
Lu0 S7 2.654877 1_555
Lu0 S2 2.654998 1_555
Lu0 S4 2.655060 1_555
Lu0 S1 2.655175 1_555
Lu0 S5 2.679986 1_555
Lu0 S3 2.680122 1_555
Lu1 S1 2.654966 1_555
Lu1 S2 2.654982 1_555
Lu1 S7 2.655030 1_455
Lu1 S4 2.655118 1_455
Lu1 S6 2.680058 1_555
Lu1 S0 2.680118 1_455
Mg0 S4 2.434318 1_565
Mg0 S7 2.434369 1_556
Mg0 S5 2.498683 1_655
Mg0 S0 2.498697 1_555
Mg1 S2 2.434325 1_545
Mg1 S1 2.434350 1_554
Mg1 S3 2.498605 1_455
Mg1 S6 2.498628 1_555
S0 W0 2.533616 1_556
S0 W1 2.533760 1_555
S1 W1 2.501248 1_545
S2 W0 2.501199 1_555
S3 W1 2.533739 1_545
S3 W0 2.533780 1_555
S4 W0 2.501277 1_556
S5 W1 2.533629 1_555
S5 W0 2.533662 1_556
S6 W0 2.533664 1_555
S6 W1 2.533771 1_545
S7 W1 2.501211 1_555
