# generated using pymatgen
data_PrAlCu4
_symmetry_space_group_name_H-M   'P 1'
_cell_length_a   5.34282956
_cell_length_b   5.34282956
_cell_length_c   4.02878400
_cell_angle_alpha   90.00000000
_cell_angle_beta   90.00000000
_cell_angle_gamma   119.99999455
_symmetry_Int_Tables_number   1
_chemical_formula_structural   PrAlCu4
_chemical_formula_sum   'Pr1 Al1 Cu4'
_cell_volume   99.59723446
_cell_formula_units_Z   1
loop_
 _symmetry_equiv_pos_site_id
 _symmetry_equiv_pos_as_xyz
  1  'x, y, z'
loop_
 _atom_site_type_symbol
 _atom_site_label
 _atom_site_symmetry_multiplicity
 _atom_site_fract_x
 _atom_site_fract_y
 _atom_site_fract_z
 _atom_site_occupancy
  Pr  Pr0  1  0.00000000  0.00000000  0.00000000  1
  Al  Al0  1  0.33333300  0.66666700  0.00000000  1
  Cu  Cu0  1  0.66666700  0.33333300  0.00000000  1
  Cu  Cu1  1  0.50091800  0.00183600  0.50000000  1
  Cu  Cu2  1  0.99816400  0.49908200  0.50000000  1
  Cu  Cu3  1  0.50091800  0.49908200  0.50000000  1
loop_
_geom_bond_atom_site_label_1
_geom_bond_atom_site_label_2
_geom_bond_distance
_geom_bond_site_symmetry_2
Al0 Cu1 2.542217 1_565
Al0 Cu1 2.542217 1_564
Al0 Cu2 2.542217 1_455
Al0 Cu2 2.542217 1_454
Al0 Cu3 2.542220 1_554
Al0 Cu3 2.542220 1_555
Al0 Pr0 3.084681 1_565
Al0 Cu0 3.084681 1_455
Al0 Cu0 3.084681 1_565
Al0 Pr0 3.084686 1_665
Al0 Pr0 3.084686 1_555
Al0 Cu0 3.084690 1_555
Cu0 Cu2 2.531888 1_554
Cu0 Cu2 2.531888 1_555
Cu0 Cu1 2.531888 1_555
Cu0 Cu1 2.531888 1_554
Cu0 Cu3 2.531891 1_554
Cu0 Cu3 2.531891 1_555
Cu0 Pr0 3.084681 1_655
Cu0 Pr0 3.084686 1_665
Cu0 Pr0 3.084686 1_555
Cu1 Cu3 2.656701 1_555
Cu1 Cu2 2.656701 1_555
Cu1 Cu3 2.686129 1_545
Cu1 Cu2 2.686129 1_445
Cu1 Pr0 3.345789 1_655
Cu1 Pr0 3.345789 1_656
Cu1 Pr0 3.345789 1_555
Cu1 Pr0 3.345789 1_556
Cu2 Cu3 2.656701 1_555
Cu2 Cu3 2.686129 1_655
Cu2 Pr0 3.345789 1_656
Cu2 Pr0 3.345789 1_655
Cu2 Pr0 3.345789 1_666
Cu2 Pr0 3.345789 1_665
Cu3 Pr0 3.345789 1_555
Cu3 Pr0 3.345789 1_556
Cu3 Pr0 3.345789 1_665
Cu3 Pr0 3.345789 1_666
