# generated using pymatgen
data_HoSiPd2
_symmetry_space_group_name_H-M   'P 1'
_cell_length_a   5.49587696
_cell_length_b   6.92957688
_cell_length_c   7.27702356
_cell_angle_alpha   90.00000000
_cell_angle_beta   90.00000000
_cell_angle_gamma   90.00000000
_symmetry_Int_Tables_number   1
_chemical_formula_structural   HoSiPd2
_chemical_formula_sum   'Ho4 Si4 Pd8'
_cell_volume   277.13890691
_cell_formula_units_Z   4
loop_
 _symmetry_equiv_pos_site_id
 _symmetry_equiv_pos_as_xyz
  1  'x, y, z'
loop_
 _atom_site_type_symbol
 _atom_site_label
 _atom_site_symmetry_multiplicity
 _atom_site_fract_x
 _atom_site_fract_y
 _atom_site_fract_z
 _atom_site_occupancy
  Ho  Ho0  1  0.35771611  0.75000000  0.02848107  1
  Ho  Ho1  1  0.14228389  0.75000000  0.52848107  1
  Ho  Ho2  1  0.64228389  0.25000000  0.97151893  1
  Ho  Ho3  1  0.85771611  0.25000000  0.47151893  1
  Si  Si0  1  0.64235181  0.75000000  0.37765674  1
  Si  Si1  1  0.85764819  0.75000000  0.87765674  1
  Si  Si2  1  0.35764819  0.25000000  0.62234326  1
  Si  Si3  1  0.14235181  0.25000000  0.12234326  1
  Pd  Pd0  1  0.90680751  0.55176153  0.17772040  1
  Pd  Pd1  1  0.59319249  0.94823847  0.67772040  1
  Pd  Pd2  1  0.09319249  0.05176153  0.82227960  1
  Pd  Pd3  1  0.40680751  0.44823847  0.32227960  1
  Pd  Pd4  1  0.09319249  0.44823847  0.82227960  1
  Pd  Pd5  1  0.40680751  0.05176153  0.32227960  1
  Pd  Pd6  1  0.90680751  0.94823847  0.17772040  1
  Pd  Pd7  1  0.59319249  0.55176153  0.67772040  1
loop_
_geom_bond_atom_site_label_1
_geom_bond_atom_site_label_2
_geom_bond_distance
_geom_bond_site_symmetry_2
Ho0 Pd4 2.955963 1_554
Ho0 Pd2 2.955963 1_564
Ho0 Si1 2.958671 1_554
Ho0 Si1 2.959365 1_454
Ho0 Si0 2.983887 1_555
Ho0 Pd3 3.002725 1_555
Ho0 Pd5 3.002725 1_565
Ho0 Pd6 3.034416 1_455
Ho0 Pd0 3.034416 1_455
Ho0 Pd1 3.174448 1_554
Ho0 Pd7 3.174448 1_554
Ho0 Pd6 3.489020 1_555
Ho0 Pd0 3.489020 1_555
Ho1 Pd3 2.955963 1_555
Ho1 Pd5 2.955963 1_565
Ho1 Si0 2.958671 1_455
Ho1 Si0 2.959365 1_555
Ho1 Si1 2.983887 1_455
Ho1 Pd2 3.002725 1_565
Ho1 Pd4 3.002725 1_555
Ho1 Pd1 3.034416 1_555
Ho1 Pd7 3.034416 1_555
Ho1 Pd6 3.174448 1_455
Ho1 Pd0 3.174448 1_455
Ho1 Pd7 3.489020 1_455
Ho1 Pd1 3.489020 1_455
Ho2 Pd0 2.955963 1_556
Ho2 Pd6 2.955963 1_546
Ho2 Si3 2.958671 1_556
Ho2 Si3 2.959365 1_656
Ho2 Si2 2.983887 1_555
Ho2 Pd7 3.002725 1_555
Ho2 Pd1 3.002725 1_545
Ho2 Pd4 3.034416 1_655
Ho2 Pd2 3.034416 1_655
Ho2 Pd3 3.174448 1_556
Ho2 Pd5 3.174448 1_556
Ho2 Pd4 3.489020 1_555
Ho2 Pd2 3.489020 1_555
Ho3 Pd7 2.955963 1_555
Ho3 Pd1 2.955963 1_545
Ho3 Si2 2.958671 1_655
Ho3 Si2 2.959365 1_555
Ho3 Si3 2.983887 1_655
Ho3 Pd0 3.002725 1_555
Ho3 Pd6 3.002725 1_545
Ho3 Pd5 3.034416 1_555
Ho3 Pd3 3.034416 1_555
Ho3 Pd2 3.174448 1_655
Ho3 Pd4 3.174448 1_655
Ho3 Pd5 3.489020 1_655
Ho3 Pd3 3.489020 1_655
Pd0 Si0 2.473125 1_555
Pd0 Si3 2.492147 1_655
Pd0 Si1 2.593848 1_554
Pd0 Pd6 2.747417 1_555
Pd0 Pd4 2.873005 1_654
Pd0 Pd3 3.028598 1_655
Pd0 Pd3 3.028598 1_555
Pd1 Si1 2.473125 1_555
Pd1 Si2 2.492147 1_565
Pd1 Si0 2.593848 1_555
Pd1 Pd7 2.747417 1_555
Pd1 Pd5 2.873005 1_565
Pd1 Pd2 3.028598 1_565
Pd1 Pd2 3.028598 1_665
Pd2 Si2 2.473125 1_555
Pd2 Si1 2.492147 1_445
Pd2 Si3 2.593848 1_556
Pd2 Pd4 2.747417 1_555
Pd2 Pd6 2.873005 1_446
Pd3 Si3 2.473125 1_555
Pd3 Si0 2.492147 1_555
Pd3 Si2 2.593848 1_555
Pd3 Pd5 2.747417 1_555
Pd3 Pd7 2.873005 1_555
Pd4 Si2 2.473125 1_555
Pd4 Si1 2.492147 1_455
Pd4 Si3 2.593848 1_556
Pd4 Pd7 3.028598 1_555
Pd4 Pd7 3.028598 1_455
Pd5 Si3 2.473125 1_555
Pd5 Si0 2.492147 1_545
Pd5 Si2 2.593848 1_555
Pd5 Pd6 3.028598 1_445
Pd5 Pd6 3.028598 1_545
Pd6 Si0 2.473125 1_555
Pd6 Si3 2.492147 1_665
Pd6 Si1 2.593848 1_554
Pd7 Si1 2.473125 1_555
Pd7 Si2 2.492147 1_555
Pd7 Si0 2.593848 1_555
