# generated using pymatgen
data_CeSm
_symmetry_space_group_name_H-M   'P 1'
_cell_length_a   7.02518690
_cell_length_b   7.02518690
_cell_length_c   23.45135800
_cell_angle_alpha   90.00000000
_cell_angle_beta   90.00000000
_cell_angle_gamma   119.99998961
_symmetry_Int_Tables_number   1
_chemical_formula_structural   CeSm
_chemical_formula_sum   'Ce16 Sm16'
_cell_volume   1002.33856203
_cell_formula_units_Z   16
loop_
 _symmetry_equiv_pos_site_id
 _symmetry_equiv_pos_as_xyz
  1  'x, y, z'
loop_
 _atom_site_type_symbol
 _atom_site_label
 _atom_site_symmetry_multiplicity
 _atom_site_fract_x
 _atom_site_fract_y
 _atom_site_fract_z
 _atom_site_occupancy
  Ce  Ce0_0  1  0.16666650  0.33333350  0.12500000  1
  Ce  Ce0_1  1  0.16666650  0.33333350  0.62500000  1
  Ce  Ce0_2  1  0.16666650  0.83333350  0.12500000  1
  Ce  Ce0_3  1  0.16666650  0.83333350  0.62500000  1
  Ce  Ce0_4  1  0.66666650  0.33333350  0.12500000  1
  Ce  Ce0_5  1  0.66666650  0.33333350  0.62500000  1
  Ce  Ce0_6  1  0.66666650  0.83333350  0.12500000  1
  Ce  Ce0_7  1  0.66666650  0.83333350  0.62500000  1
  Ce  Ce1_0  1  0.33333350  0.16666650  0.37500000  1
  Ce  Ce1_1  1  0.33333350  0.16666650  0.87500000  1
  Ce  Ce1_2  1  0.33333350  0.66666650  0.37500000  1
  Ce  Ce1_3  1  0.33333350  0.66666650  0.87500000  1
  Ce  Ce1_4  1  0.83333350  0.16666650  0.37500000  1
  Ce  Ce1_5  1  0.83333350  0.16666650  0.87500000  1
  Ce  Ce1_6  1  0.83333350  0.66666650  0.37500000  1
  Ce  Ce1_7  1  0.83333350  0.66666650  0.87500000  1
  Sm  Sm0_0  1  0.00000000  0.00000000  0.25000000  1
  Sm  Sm0_1  1  0.00000000  0.00000000  0.75000000  1
  Sm  Sm0_2  1  0.00000000  0.50000000  0.25000000  1
  Sm  Sm0_3  1  0.00000000  0.50000000  0.75000000  1
  Sm  Sm0_4  1  0.50000000  0.00000000  0.25000000  1
  Sm  Sm0_5  1  0.50000000  0.00000000  0.75000000  1
  Sm  Sm0_6  1  0.50000000  0.50000000  0.25000000  1
  Sm  Sm0_7  1  0.50000000  0.50000000  0.75000000  1
  Sm  Sm1_0  1  0.00000000  0.00000000  0.00000000  1
  Sm  Sm1_1  1  0.00000000  0.00000000  0.50000000  1
  Sm  Sm1_2  1  0.00000000  0.50000000  0.00000000  1
  Sm  Sm1_3  1  0.00000000  0.50000000  0.50000000  1
  Sm  Sm1_4  1  0.50000000  0.00000000  0.00000000  1
  Sm  Sm1_5  1  0.50000000  0.00000000  0.50000000  1
  Sm  Sm1_6  1  0.50000000  0.50000000  0.00000000  1
  Sm  Sm1_7  1  0.50000000  0.50000000  0.50000000  1
loop_
_geom_bond_atom_site_label_1
_geom_bond_atom_site_label_2
_geom_bond_distance
_geom_bond_site_symmetry_2
Ce0_0 Ce0_2 3.512593 1_555
Ce0_0 Ce0_4 3.512593 1_555
Ce0_0 Ce0_4 3.512593 1_455
Ce0_0 Ce0_2 3.512593 1_545
Ce0_0 Ce0_6 3.512594 1_555
Ce0_0 Ce0_6 3.512594 1_445
Ce0_0 Sm1_2 3.564545 1_555
Ce0_0 Sm0_2 3.564545 1_555
Ce0_0 Sm0_6 3.564547 1_555
Ce0_0 Sm1_6 3.564547 1_555
Ce0_0 Sm1_0 3.564547 1_555
Ce0_0 Sm0_0 3.564547 1_555
Ce0_1 Ce0_3 3.512593 1_555
Ce0_1 Ce0_5 3.512593 1_555
Ce0_1 Ce0_5 3.512593 1_455
Ce0_1 Ce0_3 3.512593 1_545
Ce0_1 Ce0_7 3.512594 1_555
Ce0_1 Ce0_7 3.512594 1_445
Ce0_1 Sm0_3 3.564545 1_555
Ce0_1 Sm1_3 3.564545 1_555
Ce0_1 Sm0_7 3.564547 1_555
Ce0_1 Sm0_1 3.564547 1_555
Ce0_1 Sm1_7 3.564547 1_555
Ce0_1 Sm1_1 3.564547 1_555
Ce0_2 Ce0_6 3.512593 1_455
Ce0_2 Ce0_6 3.512593 1_555
Ce0_2 Ce0_4 3.512594 1_565
Ce0_2 Ce0_4 3.512594 1_455
Ce0_2 Sm1_0 3.564545 1_565
Ce0_2 Sm0_0 3.564545 1_565
Ce0_2 Sm0_2 3.564547 1_555
Ce0_2 Sm1_4 3.564547 1_565
Ce0_2 Sm1_2 3.564547 1_555
Ce0_2 Sm0_4 3.564547 1_565
Ce0_3 Ce0_7 3.512593 1_455
Ce0_3 Ce0_7 3.512593 1_555
Ce0_3 Ce0_5 3.512594 1_565
Ce0_3 Ce0_5 3.512594 1_455
Ce0_3 Sm0_1 3.564545 1_565
Ce0_3 Sm1_1 3.564545 1_565
Ce0_3 Sm0_3 3.564547 1_555
Ce0_3 Sm0_5 3.564547 1_565
Ce0_3 Sm1_5 3.564547 1_565
Ce0_3 Sm1_3 3.564547 1_555
Ce0_4 Ce0_6 3.512593 1_555
Ce0_4 Ce0_6 3.512593 1_545
Ce0_4 Sm0_6 3.564545 1_555
Ce0_4 Sm1_6 3.564545 1_555
Ce0_4 Sm0_4 3.564547 1_555
Ce0_4 Sm1_4 3.564547 1_555
Ce0_4 Sm1_2 3.564547 1_655
Ce0_4 Sm0_2 3.564547 1_655
Ce0_5 Ce0_7 3.512593 1_555
Ce0_5 Ce0_7 3.512593 1_545
Ce0_5 Sm0_7 3.564545 1_555
Ce0_5 Sm1_7 3.564545 1_555
Ce0_5 Sm0_5 3.564547 1_555
Ce0_5 Sm0_3 3.564547 1_655
Ce0_5 Sm1_5 3.564547 1_555
Ce0_5 Sm1_3 3.564547 1_655
Ce0_6 Sm0_4 3.564545 1_565
Ce0_6 Sm1_4 3.564545 1_565
Ce0_6 Sm0_6 3.564547 1_555
Ce0_6 Sm1_0 3.564547 1_665
Ce0_6 Sm0_0 3.564547 1_665
Ce0_6 Sm1_6 3.564547 1_555
Ce0_7 Sm0_5 3.564545 1_565
Ce0_7 Sm1_5 3.564545 1_565
Ce0_7 Sm0_7 3.564547 1_555
Ce0_7 Sm0_1 3.564547 1_665
Ce0_7 Sm1_7 3.564547 1_555
Ce0_7 Sm1_1 3.564547 1_665
Ce1_0 Ce1_2 3.512593 1_555
Ce1_0 Ce1_4 3.512593 1_455
Ce1_0 Ce1_4 3.512593 1_555
Ce1_0 Ce1_2 3.512593 1_545
Ce1_0 Ce1_6 3.512594 1_555
Ce1_0 Ce1_6 3.512594 1_445
Ce1_0 Sm1_5 3.564545 1_555
Ce1_0 Sm0_4 3.564545 1_555
Ce1_0 Sm1_7 3.564547 1_555
Ce1_0 Sm1_1 3.564547 1_555
Ce1_0 Sm0_0 3.564547 1_555
Ce1_0 Sm0_6 3.564547 1_555
Ce1_1 Ce1_3 3.512593 1_555
Ce1_1 Ce1_5 3.512593 1_455
Ce1_1 Ce1_5 3.512593 1_555
Ce1_1 Ce1_3 3.512593 1_545
Ce1_1 Ce1_7 3.512594 1_555
Ce1_1 Ce1_7 3.512594 1_445
Ce1_1 Sm0_5 3.564545 1_555
Ce1_1 Sm1_4 3.564545 1_556
Ce1_1 Sm0_7 3.564547 1_555
Ce1_1 Sm0_1 3.564547 1_555
Ce1_1 Sm1_6 3.564547 1_556
Ce1_1 Sm1_0 3.564547 1_556
Ce1_2 Ce1_6 3.512593 1_555
Ce1_2 Ce1_6 3.512593 1_455
Ce1_2 Ce1_4 3.512594 1_455
Ce1_2 Ce1_4 3.512594 1_565
Ce1_2 Sm1_7 3.564545 1_555
Ce1_2 Sm0_6 3.564545 1_555
Ce1_2 Sm1_3 3.564547 1_555
Ce1_2 Sm1_5 3.564547 1_565
Ce1_2 Sm0_2 3.564547 1_555
Ce1_2 Sm0_4 3.564547 1_565
Ce1_3 Ce1_7 3.512593 1_555
Ce1_3 Ce1_7 3.512593 1_455
Ce1_3 Ce1_5 3.512594 1_455
Ce1_3 Ce1_5 3.512594 1_565
Ce1_3 Sm0_7 3.564545 1_555
Ce1_3 Sm1_6 3.564545 1_556
Ce1_3 Sm0_3 3.564547 1_555
Ce1_3 Sm0_5 3.564547 1_565
Ce1_3 Sm1_2 3.564547 1_556
Ce1_3 Sm1_4 3.564547 1_566
Ce1_4 Ce1_6 3.512593 1_555
Ce1_4 Ce1_6 3.512593 1_545
Ce1_4 Sm1_1 3.564545 1_655
Ce1_4 Sm0_0 3.564545 1_655
Ce1_4 Sm1_5 3.564547 1_555
Ce1_4 Sm1_3 3.564547 1_655
Ce1_4 Sm0_4 3.564547 1_555
Ce1_4 Sm0_2 3.564547 1_655
Ce1_5 Ce1_7 3.512593 1_555
Ce1_5 Ce1_7 3.512593 1_545
Ce1_5 Sm0_1 3.564545 1_655
Ce1_5 Sm1_0 3.564545 1_656
Ce1_5 Sm0_5 3.564547 1_555
Ce1_5 Sm0_3 3.564547 1_655
Ce1_5 Sm1_4 3.564547 1_556
Ce1_5 Sm1_2 3.564547 1_656
Ce1_6 Sm1_3 3.564545 1_655
Ce1_6 Sm0_2 3.564545 1_655
Ce1_6 Sm1_7 3.564547 1_555
Ce1_6 Sm1_1 3.564547 1_665
Ce1_6 Sm0_6 3.564547 1_555
Ce1_6 Sm0_0 3.564547 1_665
Ce1_7 Sm0_3 3.564545 1_655
Ce1_7 Sm1_2 3.564545 1_656
Ce1_7 Sm0_7 3.564547 1_555
Ce1_7 Sm0_1 3.564547 1_665
Ce1_7 Sm1_6 3.564547 1_556
Ce1_7 Sm1_0 3.564547 1_666
Sm0_0 Sm0_2 3.512593 1_555
Sm0_0 Sm0_4 3.512593 1_555
Sm0_0 Sm0_2 3.512593 1_545
Sm0_0 Sm0_4 3.512593 1_455
Sm0_0 Sm0_6 3.512594 1_555
Sm0_0 Sm0_6 3.512594 1_445
Sm0_1 Sm0_3 3.512593 1_555
Sm0_1 Sm0_5 3.512593 1_455
Sm0_1 Sm0_5 3.512593 1_555
Sm0_1 Sm0_3 3.512593 1_545
Sm0_1 Sm0_7 3.512594 1_555
Sm0_1 Sm0_7 3.512594 1_445
Sm0_2 Sm0_6 3.512593 1_455
Sm0_2 Sm0_6 3.512593 1_555
Sm0_2 Sm0_4 3.512594 1_455
Sm0_2 Sm0_4 3.512594 1_565
Sm0_3 Sm0_7 3.512593 1_455
Sm0_3 Sm0_7 3.512593 1_555
Sm0_3 Sm0_5 3.512594 1_565
Sm0_3 Sm0_5 3.512594 1_455
Sm0_4 Sm0_6 3.512593 1_555
Sm0_4 Sm0_6 3.512593 1_545
Sm0_5 Sm0_7 3.512593 1_555
Sm0_5 Sm0_7 3.512593 1_545
Sm1_0 Sm1_2 3.512593 1_555
Sm1_0 Sm1_2 3.512593 1_545
Sm1_0 Sm1_4 3.512593 1_455
Sm1_0 Sm1_4 3.512593 1_555
Sm1_0 Sm1_6 3.512594 1_555
Sm1_0 Sm1_6 3.512594 1_445
Sm1_1 Sm1_3 3.512593 1_555
Sm1_1 Sm1_3 3.512593 1_545
Sm1_1 Sm1_5 3.512593 1_455
Sm1_1 Sm1_5 3.512593 1_555
Sm1_1 Sm1_7 3.512594 1_555
Sm1_1 Sm1_7 3.512594 1_445
Sm1_2 Sm1_6 3.512593 1_455
Sm1_2 Sm1_6 3.512593 1_555
Sm1_2 Sm1_4 3.512594 1_565
Sm1_2 Sm1_4 3.512594 1_455
Sm1_3 Sm1_7 3.512593 1_455
Sm1_3 Sm1_7 3.512593 1_555
Sm1_3 Sm1_5 3.512594 1_455
Sm1_3 Sm1_5 3.512594 1_565
Sm1_4 Sm1_6 3.512593 1_555
Sm1_4 Sm1_6 3.512593 1_545
Sm1_5 Sm1_7 3.512593 1_555
Sm1_5 Sm1_7 3.512593 1_545
