# generated using pymatgen
data_CsSrMg14
_symmetry_space_group_name_H-M   'P 1'
_cell_length_a   6.92111683
_cell_length_b   6.92111619
_cell_length_c   10.64246104
_cell_angle_alpha   90.00000000
_cell_angle_beta   90.00000000
_cell_angle_gamma   120.00000313
_symmetry_Int_Tables_number   1
_chemical_formula_structural   CsSrMg14
_chemical_formula_sum   'Cs1 Sr1 Mg14'
_cell_volume   441.49420465
_cell_formula_units_Z   1
loop_
 _symmetry_equiv_pos_site_id
 _symmetry_equiv_pos_as_xyz
  1  'x, y, z'
loop_
 _atom_site_type_symbol
 _atom_site_label
 _atom_site_symmetry_multiplicity
 _atom_site_fract_x
 _atom_site_fract_y
 _atom_site_fract_z
 _atom_site_occupancy
  Cs  Cs0  1  0.16666700  0.33333300  0.12500000  1
  Sr  Sr0  1  0.16666700  0.33333300  0.62500000  1
  Mg  Mg0  1  0.17306366  0.83653133  0.12500000  1
  Mg  Mg1  1  0.17598474  0.83799187  0.62500000  1
  Mg  Mg2  1  0.66346867  0.32693634  0.12500000  1
  Mg  Mg3  1  0.66200813  0.32401526  0.62500000  1
  Mg  Mg4  1  0.66346867  0.83653133  0.12500000  1
  Mg  Mg5  1  0.66200813  0.83799187  0.62500000  1
  Mg  Mg6  1  0.34853130  0.15146870  0.38124453  1
  Mg  Mg7  1  0.34853130  0.15146870  0.86875547  1
  Mg  Mg8  1  0.34853130  0.69706361  0.38124453  1
  Mg  Mg9  1  0.34853130  0.69706361  0.86875547  1
  Mg  Mg10  1  0.80293639  0.15146870  0.38124453  1
  Mg  Mg11  1  0.80293639  0.15146870  0.86875547  1
  Mg  Mg12  1  0.83333300  0.66666700  0.37459344  1
  Mg  Mg13  1  0.83333300  0.66666700  0.87540656  1
loop_
_geom_bond_atom_site_label_1
_geom_bond_atom_site_label_2
_geom_bond_distance
_geom_bond_site_symmetry_2
Cs0 Mg4 3.460770 1_555
Cs0 Mg0 3.460770 1_555
Cs0 Mg4 3.460770 1_445
Cs0 Mg0 3.460770 1_545
Cs0 Mg2 3.460771 1_455
Cs0 Mg2 3.460771 1_555
Cs0 Mg6 3.491408 1_555
Cs0 Mg7 3.491408 1_554
Cs0 Mg9 3.491416 1_554
Cs0 Mg8 3.491416 1_555
Cs0 Mg10 3.491416 1_455
Cs0 Mg11 3.491416 1_454
Mg0 Mg9 3.319002 1_554
Mg0 Mg8 3.319002 1_555
Mg0 Mg6 3.319009 1_565
Mg0 Mg7 3.319009 1_564
Mg0 Mg12 3.346996 1_455
Mg0 Mg13 3.346996 1_454
Mg1 Mg9 3.204994 1_555
Mg1 Mg8 3.204994 1_555
Mg1 Mg7 3.205001 1_565
Mg1 Mg6 3.205001 1_565
Mg1 Mg3 3.363824 1_565
Mg1 Mg5 3.363825 1_555
Mg1 Mg13 3.364527 1_455
Mg1 Mg12 3.364527 1_455
Mg1 Sr0 3.461009 1_555
Mg1 Sr0 3.461009 1_565
Mg2 Mg6 3.319009 1_555
Mg2 Mg7 3.319009 1_554
Mg3 Mg6 3.205001 1_555
Mg3 Mg7 3.205001 1_555
Mg3 Mg5 3.363824 1_545
Mg3 Sr0 3.461009 1_655
Mg3 Sr0 3.461009 1_555
Mg4 Mg9 3.319010 1_554
Mg4 Mg8 3.319010 1_555
Mg5 Mg9 3.205001 1_555
Mg5 Mg8 3.205001 1_555
Mg5 Sr0 3.461009 1_555
Mg5 Sr0 3.461009 1_665
Mg6 Mg8 3.144990 1_545
Mg6 Sr0 3.388608 1_555
Mg7 Mg9 3.144990 1_545
Mg7 Sr0 3.388608 1_555
Mg8 Sr0 3.388616 1_555
Mg9 Sr0 3.388616 1_555
Mg10 Mg8 3.144990 1_545
Mg10 Mg6 3.144991 1_555
Mg10 Mg3 3.204994 1_555
Mg10 Mg5 3.205001 1_545
Mg10 Mg2 3.319002 1_555
Mg10 Mg4 3.319009 1_545
Mg10 Sr0 3.388616 1_655
Mg10 Mg12 3.466074 1_555
Mg10 Mg12 3.466074 1_545
Mg11 Mg9 3.144990 1_545
Mg11 Mg7 3.144991 1_555
Mg11 Mg3 3.204994 1_555
Mg11 Mg5 3.205001 1_545
Mg11 Mg2 3.319002 1_556
Mg11 Mg4 3.319009 1_546
Mg11 Sr0 3.388616 1_655
Mg11 Mg13 3.466074 1_555
Mg11 Mg13 3.466074 1_545
Mg12 Mg4 3.346989 1_555
Mg12 Mg2 3.346996 1_555
Mg12 Mg5 3.364520 1_555
Mg12 Mg3 3.364527 1_555
Mg12 Mg6 3.466074 1_555
Mg12 Mg6 3.466074 1_665
Mg12 Mg8 3.466074 1_655
Mg12 Mg8 3.466074 1_555
Mg13 Mg4 3.346989 1_556
Mg13 Mg2 3.346996 1_556
Mg13 Mg5 3.364520 1_555
Mg13 Mg3 3.364527 1_555
Mg13 Mg7 3.466074 1_555
Mg13 Mg7 3.466074 1_665
Mg13 Mg9 3.466074 1_655
Mg13 Mg9 3.466074 1_555
