# generated using pymatgen
data_CrSiNi
_symmetry_space_group_name_H-M   'P 1'
_cell_length_a   3.61893000
_cell_length_b   5.76235400
_cell_length_c   6.90323900
_cell_angle_alpha   90.00000000
_cell_angle_beta   90.00000000
_cell_angle_gamma   90.00000000
_symmetry_Int_Tables_number   1
_chemical_formula_structural   CrSiNi
_chemical_formula_sum   'Cr4 Si4 Ni4'
_cell_volume   143.95707942
_cell_formula_units_Z   4
loop_
 _symmetry_equiv_pos_site_id
 _symmetry_equiv_pos_as_xyz
  1  'x, y, z'
loop_
 _atom_site_type_symbol
 _atom_site_label
 _atom_site_symmetry_multiplicity
 _atom_site_fract_x
 _atom_site_fract_y
 _atom_site_fract_z
 _atom_site_occupancy
  Cr  Cr0  1  0.25000000  0.02909400  0.31897700  1
  Cr  Cr1  1  0.25000000  0.52909400  0.18102300  1
  Cr  Cr2  1  0.75000000  0.97090600  0.68102300  1
  Cr  Cr3  1  0.75000000  0.47090600  0.81897700  1
  Si  Si0  1  0.25000000  0.25581100  0.62541700  1
  Si  Si1  1  0.25000000  0.75581100  0.87458300  1
  Si  Si2  1  0.75000000  0.74418900  0.37458300  1
  Si  Si3  1  0.75000000  0.24418900  0.12541700  1
  Ni  Ni0  1  0.25000000  0.14702700  0.94130200  1
  Ni  Ni1  1  0.25000000  0.64702700  0.55869800  1
  Ni  Ni2  1  0.75000000  0.85297300  0.05869800  1
  Ni  Ni3  1  0.75000000  0.35297300  0.44130200  1
loop_
_geom_bond_atom_site_label_1
_geom_bond_atom_site_label_2
_geom_bond_distance
_geom_bond_site_symmetry_2
Cr0 Si2 2.473210 1_445
Cr0 Si2 2.473210 1_545
Cr0 Si0 2.486319 1_555
Cr0 Si3 2.568232 1_555
Cr0 Si3 2.568232 1_455
Cr0 Ni0 2.694292 1_554
Cr0 Ni3 2.733192 1_455
Cr0 Ni3 2.733192 1_555
Cr0 Ni2 2.744541 1_545
Cr0 Ni2 2.744541 1_445
Cr0 Ni1 2.754197 1_545
Cr1 Si3 2.473210 1_455
Cr1 Si3 2.473210 1_555
Cr1 Si1 2.486319 1_554
Cr1 Si2 2.568232 1_555
Cr1 Si2 2.568232 1_455
Cr1 Ni1 2.694292 1_555
Cr1 Ni2 2.733192 1_555
Cr1 Ni2 2.733192 1_455
Cr1 Ni3 2.744541 1_455
Cr1 Ni3 2.744541 1_555
Cr1 Ni0 2.754197 1_554
Cr2 Si0 2.473210 1_665
Cr2 Si0 2.473210 1_565
Cr2 Si2 2.486319 1_555
Cr2 Si1 2.568232 1_655
Cr2 Si1 2.568232 1_555
Cr2 Ni2 2.694292 1_556
Cr2 Ni1 2.733192 1_555
Cr2 Ni1 2.733192 1_655
Cr2 Ni0 2.744541 1_565
Cr2 Ni0 2.744541 1_665
Cr2 Ni3 2.754197 1_565
Cr3 Si1 2.473210 1_655
Cr3 Si1 2.473210 1_555
Cr3 Si3 2.486319 1_556
Cr3 Si0 2.568232 1_555
Cr3 Si0 2.568232 1_655
Cr3 Ni3 2.694292 1_555
Cr3 Ni0 2.733192 1_555
Cr3 Ni0 2.733192 1_655
Cr3 Ni1 2.744541 1_555
Cr3 Ni1 2.744541 1_655
Cr3 Ni2 2.754197 1_556
Ni0 Si0 2.268940 1_555
Ni0 Si3 2.281019 1_456
Ni0 Si3 2.281019 1_556
Ni0 Si1 2.300894 1_545
Ni0 Ni2 2.608078 1_546
Ni0 Ni2 2.608078 1_446
Ni1 Si1 2.268940 1_555
Ni1 Si2 2.281019 1_555
Ni1 Si2 2.281019 1_455
Ni1 Si0 2.300894 1_555
Ni1 Ni3 2.608078 1_455
Ni1 Ni3 2.608078 1_555
Ni2 Si2 2.268940 1_555
Ni2 Si1 2.281019 1_654
Ni2 Si1 2.281019 1_554
Ni2 Si3 2.300894 1_565
Ni3 Si3 2.268940 1_555
Ni3 Si0 2.281019 1_655
Ni3 Si0 2.281019 1_555
Ni3 Si2 2.300894 1_555
