# generated using pymatgen
data_Sr3(TaN2)2
_symmetry_space_group_name_H-M   'P 1'
_cell_length_a   6.15884400
_cell_length_b   10.79959900
_cell_length_c   10.01561300
_cell_angle_alpha   90.00000000
_cell_angle_beta   90.00000000
_cell_angle_gamma   90.00000000
_symmetry_Int_Tables_number   1
_chemical_formula_structural   Sr3(TaN2)2
_chemical_formula_sum   'Sr12 Ta8 N16'
_cell_volume   666.16892322
_cell_formula_units_Z   4
loop_
 _symmetry_equiv_pos_site_id
 _symmetry_equiv_pos_as_xyz
  1  'x, y, z'
loop_
 _atom_site_type_symbol
 _atom_site_label
 _atom_site_symmetry_multiplicity
 _atom_site_fract_x
 _atom_site_fract_y
 _atom_site_fract_z
 _atom_site_occupancy
  Sr  Sr0  1  0.61444600  0.15862400  0.42036600  1
  Sr  Sr1  1  0.88555400  0.84137600  0.42036600  1
  Sr  Sr2  1  0.61444600  0.34137600  0.07963400  1
  Sr  Sr3  1  0.88555400  0.65862400  0.07963400  1
  Sr  Sr4  1  0.38555400  0.84137600  0.57963400  1
  Sr  Sr5  1  0.11444600  0.15862400  0.57963400  1
  Sr  Sr6  1  0.38555400  0.65862400  0.92036600  1
  Sr  Sr7  1  0.11444600  0.34137600  0.92036600  1
  Sr  Sr8  1  0.75000000  0.50000000  0.40070600  1
  Sr  Sr9  1  0.75000000  0.00000000  0.09929400  1
  Sr  Sr10  1  0.25000000  0.50000000  0.59929400  1
  Sr  Sr11  1  0.25000000  0.00000000  0.90070600  1
  Ta  Ta0  1  0.75000000  0.50000000  0.73550700  1
  Ta  Ta1  1  0.75000000  0.00000000  0.76449300  1
  Ta  Ta2  1  0.25000000  0.50000000  0.26449300  1
  Ta  Ta3  1  0.25000000  0.00000000  0.23550700  1
  Ta  Ta4  1  0.60925800  0.25000000  0.75000000  1
  Ta  Ta5  1  0.89074200  0.75000000  0.75000000  1
  Ta  Ta6  1  0.39074200  0.75000000  0.25000000  1
  Ta  Ta7  1  0.10925800  0.25000000  0.25000000  1
  N  N0  1  0.81407400  0.34733200  0.62667300  1
  N  N1  1  0.68592600  0.65266800  0.62667300  1
  N  N2  1  0.81407400  0.15266800  0.87332700  1
  N  N3  1  0.68592600  0.84733200  0.87332700  1
  N  N4  1  0.18592600  0.65266800  0.37332700  1
  N  N5  1  0.31407400  0.34733200  0.37332700  1
  N  N6  1  0.18592600  0.84733200  0.12667300  1
  N  N7  1  0.31407400  0.15266800  0.12667300  1
  N  N8  1  0.50263200  0.42087300  0.83616000  1
  N  N9  1  0.99736800  0.57912700  0.83616000  1
  N  N10  1  0.50263200  0.07912700  0.66384000  1
  N  N11  1  0.99736800  0.92087300  0.66384000  1
  N  N12  1  0.49736800  0.57912700  0.16384000  1
  N  N13  1  0.00263200  0.42087300  0.16384000  1
  N  N14  1  0.49736800  0.92087300  0.33616000  1
  N  N15  1  0.00263200  0.07912700  0.33616000  1
loop_
_geom_bond_atom_site_label_1
_geom_bond_atom_site_label_2
_geom_bond_distance
_geom_bond_site_symmetry_2
N0 Ta0 2.015515 1_555
N0 Ta4 2.054707 1_555
N0 Sr5 2.792414 1_655
N0 Sr8 2.827752 1_555
N0 Sr0 3.151904 1_555
N0 Sr10 3.162552 1_655
N1 Ta0 2.015515 1_555
N1 Ta5 2.054707 1_555
N1 Sr4 2.792414 1_555
N1 Sr8 2.827752 1_555
N1 Sr1 3.151904 1_555
N1 Sr10 3.162552 1_555
N2 Ta1 2.015515 1_555
N2 Ta4 2.054707 1_555
N2 Sr7 2.792414 1_655
N2 Sr9 2.827752 1_556
N2 Sr2 3.151904 1_556
N2 Sr11 3.162552 1_655
N3 Ta1 2.015515 1_565
N3 Ta5 2.054707 1_555
N3 Sr6 2.792414 1_555
N3 Sr9 2.827752 1_566
N3 Sr3 3.151904 1_556
N3 Sr11 3.162552 1_565
N4 Ta2 2.015515 1_555
N4 Ta6 2.054707 1_555
N4 Sr1 2.792414 1_455
N4 Sr10 2.827752 1_555
N4 Sr4 3.151904 1_555
N4 Sr8 3.162552 1_455
N5 Ta2 2.015515 1_555
N5 Ta7 2.054707 1_555
N5 Sr0 2.792414 1_555
N5 Sr10 2.827752 1_555
N5 Sr5 3.151904 1_555
N5 Sr8 3.162552 1_555
N6 Ta3 2.015515 1_565
N6 Ta6 2.054707 1_555
N6 Sr3 2.792414 1_455
N6 Sr11 2.827752 1_564
N6 Sr6 3.151904 1_554
N6 Sr9 3.162552 1_465
N7 Ta3 2.015515 1_555
N7 Ta7 2.054707 1_555
N7 Sr2 2.792414 1_555
N7 Sr11 2.827752 1_554
N7 Sr7 3.151904 1_554
N7 Sr9 3.162552 1_555
N8 Ta0 2.016820 1_555
N8 Ta4 2.140391 1_555
N8 Sr2 2.675406 1_556
N8 Sr7 2.676598 1_555
N8 Sr6 2.797117 1_555
N8 Sr10 2.962974 1_555
N9 Ta0 2.016820 1_555
N9 Ta5 2.140391 1_555
N9 Sr3 2.675406 1_556
N9 Sr6 2.676598 1_655
N9 Sr7 2.797117 1_655
N9 Sr10 2.962974 1_655
N10 Ta1 2.016820 1_555
N10 Ta4 2.140391 1_555
N10 Sr0 2.675406 1_555
N10 Sr5 2.676598 1_555
N10 Sr4 2.797117 1_545
N10 Sr11 2.962974 1_555
N11 Ta1 2.016820 1_565
N11 Ta5 2.140391 1_555
N11 Sr1 2.675406 1_555
N11 Sr4 2.676598 1_655
N11 Sr5 2.797117 1_665
N11 Sr11 2.962974 1_665
N12 Ta2 2.016820 1_555
N12 Ta6 2.140391 1_555
N12 Sr6 2.675406 1_554
N12 Sr3 2.676598 1_555
N12 Sr2 2.797117 1_555
N12 Sr8 2.962974 1_555
N13 Ta2 2.016820 1_555
N13 Ta7 2.140391 1_555
N13 Sr7 2.675406 1_554
N13 Sr2 2.676598 1_455
N13 Sr3 2.797117 1_455
N13 Sr8 2.962974 1_455
N14 Ta3 2.016820 1_565
N14 Ta6 2.140391 1_555
N14 Sr4 2.675406 1_555
N14 Sr1 2.676598 1_555
N14 Sr0 2.797117 1_565
N14 Sr9 2.962974 1_565
N15 Ta3 2.016820 1_555
N15 Ta7 2.140391 1_555
N15 Sr5 2.675406 1_555
N15 Sr0 2.676598 1_455
N15 Sr1 2.797117 1_445
N15 Sr9 2.962974 1_455
