# generated using pymatgen
data_La3Si(Mo2O7)2
_symmetry_space_group_name_H-M   'P 1'
_cell_length_a   6.11773200
_cell_length_b   10.91170400
_cell_length_c   18.28395300
_cell_angle_alpha   90.00000000
_cell_angle_beta   90.00000000
_cell_angle_gamma   90.00000000
_symmetry_Int_Tables_number   1
_chemical_formula_structural   La3Si(Mo2O7)2
_chemical_formula_sum   'La12 Si4 Mo16 O56'
_cell_volume   1220.54310189
_cell_formula_units_Z   4
loop_
 _symmetry_equiv_pos_site_id
 _symmetry_equiv_pos_as_xyz
  1  'x, y, z'
loop_
 _atom_site_type_symbol
 _atom_site_label
 _atom_site_symmetry_multiplicity
 _atom_site_fract_x
 _atom_site_fract_y
 _atom_site_fract_z
 _atom_site_occupancy
  La  La0  1  0.74676800  0.20342900  0.02972100  1
  La  La1  1  0.74676800  0.29657100  0.52972100  1
  La  La2  1  0.24676800  0.79657100  0.97027900  1
  La  La3  1  0.24676800  0.70342900  0.47027900  1
  La  La4  1  0.75328900  0.98004600  0.84187000  1
  La  La5  1  0.75328900  0.51995400  0.34187000  1
  La  La6  1  0.25328900  0.01995400  0.15813000  1
  La  La7  1  0.25328900  0.48004600  0.65813000  1
  La  La8  1  0.75040900  0.62870000  0.83285200  1
  La  La9  1  0.75040900  0.87130000  0.33285200  1
  La  La10  1  0.25040900  0.37130000  0.16714800  1
  La  La11  1  0.25040900  0.12870000  0.66714800  1
  Si  Si0  1  0.74760700  0.60031400  0.55613800  1
  Si  Si1  1  0.74760700  0.89968600  0.05613800  1
  Si  Si2  1  0.24760700  0.39968600  0.44386200  1
  Si  Si3  1  0.24760700  0.10031400  0.94386200  1
  Mo  Mo0  1  0.75148800  0.36794400  0.70294400  1
  Mo  Mo1  1  0.75148800  0.13205600  0.20294400  1
  Mo  Mo2  1  0.25148800  0.63205600  0.29705600  1
  Mo  Mo3  1  0.25148800  0.86794400  0.79705600  1
  Mo  Mo4  1  0.49041400  0.32188400  0.84741700  1
  Mo  Mo5  1  0.00868300  0.18213700  0.34359700  1
  Mo  Mo6  1  0.99041400  0.67811600  0.15258300  1
  Mo  Mo7  1  0.50868300  0.81786300  0.65640300  1
  Mo  Mo8  1  0.50868300  0.68213700  0.15640300  1
  Mo  Mo9  1  0.99041400  0.82188400  0.65258300  1
  Mo  Mo10  1  0.00868300  0.31786300  0.84359700  1
  Mo  Mo11  1  0.49041400  0.17811600  0.34741700  1
  Mo  Mo12  1  0.74857500  0.50516800  0.00385400  1
  Mo  Mo13  1  0.24857500  0.49483200  0.99614600  1
  Mo  Mo14  1  0.24857500  0.00516800  0.49614600  1
  Mo  Mo15  1  0.74857500  0.99483200  0.50385400  1
  O  O0  1  0.25943000  0.90760500  0.59517400  1
  O  O1  1  0.25943000  0.59239500  0.09517400  1
  O  O2  1  0.75943000  0.09239500  0.40482600  1
  O  O3  1  0.75943000  0.40760500  0.90482600  1
  O  O4  1  0.51801300  0.67713200  0.57371300  1
  O  O5  1  0.97657800  0.82294900  0.07206000  1
  O  O6  1  0.01801300  0.32286800  0.42628700  1
  O  O7  1  0.47657800  0.17705100  0.92794000  1
  O  O8  1  0.47657800  0.32294900  0.42794000  1
  O  O9  1  0.01801300  0.17713200  0.92628700  1
  O  O10  1  0.97657800  0.67705100  0.57206000  1
  O  O11  1  0.51801300  0.82286800  0.07371300  1
  O  O12  1  0.75560500  0.26648100  0.29025300  1
  O  O13  1  0.75560500  0.23351900  0.79025300  1
  O  O14  1  0.25560500  0.73351900  0.70974700  1
  O  O15  1  0.25560500  0.76648100  0.20974700  1
  O  O16  1  0.74600100  0.54123600  0.47421600  1
  O  O17  1  0.74600100  0.95876400  0.97421600  1
  O  O18  1  0.24600100  0.45876400  0.52578400  1
  O  O19  1  0.24600100  0.04123600  0.02578400  1
  O  O20  1  0.49801000  0.29754000  0.64704700  1
  O  O21  1  0.00348000  0.20040300  0.14609300  1
  O  O22  1  0.99801000  0.70246000  0.35295300  1
  O  O23  1  0.50348000  0.79959700  0.85390700  1
  O  O24  1  0.50348000  0.70040300  0.35390700  1
  O  O25  1  0.99801000  0.79754000  0.85295300  1
  O  O26  1  0.00348000  0.29959700  0.64609300  1
  O  O27  1  0.49801000  0.20246000  0.14704700  1
  O  O28  1  0.50002500  0.11272000  0.54106700  1
  O  O29  1  0.99824500  0.39266900  0.04415000  1
  O  O30  1  0.00002500  0.88728000  0.45893300  1
  O  O31  1  0.49824500  0.60733100  0.95585000  1
  O  O32  1  0.49824500  0.89266900  0.45585000  1
  O  O33  1  0.00002500  0.61272000  0.95893300  1
  O  O34  1  0.99824500  0.10733100  0.54415000  1
  O  O35  1  0.50002500  0.38728000  0.04106700  1
  O  O36  1  0.23906400  0.23562300  0.78466500  1
  O  O37  1  0.23906400  0.26437700  0.28466500  1
  O  O38  1  0.73906400  0.76437700  0.21533500  1
  O  O39  1  0.73906400  0.73562300  0.71533500  1
  O  O40  1  0.02408700  0.53585600  0.23568300  1
  O  O41  1  0.48059300  0.96328900  0.73579000  1
  O  O42  1  0.52408700  0.46414400  0.76431700  1
  O  O43  1  0.98059300  0.03671100  0.26421000  1
  O  O44  1  0.98059300  0.46328900  0.76421000  1
  O  O45  1  0.52408700  0.03585600  0.26431700  1
  O  O46  1  0.48059300  0.53671100  0.23579000  1
  O  O47  1  0.02408700  0.96414400  0.73568300  1
  O  O48  1  0.74390900  0.48476100  0.61300600  1
  O  O49  1  0.74390900  0.01523900  0.11300600  1
  O  O50  1  0.24390900  0.51523900  0.38699400  1
  O  O51  1  0.24390900  0.98476100  0.88699400  1
  O  O52  1  0.23392800  0.08906600  0.40090200  1
  O  O53  1  0.23392800  0.41093400  0.90090200  1
  O  O54  1  0.73392800  0.91093400  0.59909800  1
  O  O55  1  0.73392800  0.58906600  0.09909800  1
loop_
_geom_bond_atom_site_label_1
_geom_bond_atom_site_label_2
_geom_bond_distance
_geom_bond_site_symmetry_2
La0 O7 2.505645 1_554
La0 O35 2.519166 1_555
La0 O9 2.532298 1_654
La0 O49 2.556544 1_555
La0 O29 2.588518 1_555
La0 O27 2.630191 1_555
La0 O21 2.644773 1_655
La0 O17 2.856100 1_544
La1 O8 2.505645 1_555
La1 O28 2.519166 1_555
La1 O6 2.532298 1_655
La1 O48 2.556544 1_555
La1 O34 2.588518 1_555
La1 O20 2.630191 1_555
La1 O26 2.644773 1_655
La1 O16 2.856100 1_555
La2 O5 2.505645 1_456
La2 O33 2.519166 1_555
La2 O11 2.532298 1_556
La2 O51 2.556544 1_555
La2 O31 2.588518 1_555
La2 O25 2.630191 1_455
La2 O23 2.644773 1_555
La2 O19 2.856100 1_566
La3 O10 2.505645 1_455
La3 O30 2.519166 1_555
La3 O4 2.532298 1_555
La3 O50 2.556544 1_555
La3 O32 2.588518 1_555
La3 O22 2.630191 1_455
La3 O24 2.644773 1_555
La3 O18 2.856100 1_555
La4 O17 2.431334 1_555
La4 O25 2.499673 1_555
La4 O23 2.502202 1_555
La4 O47 2.558155 1_655
La4 O41 2.564858 1_555
La4 O13 2.922441 1_565
La4 O9 3.103220 1_665
La4 O51 3.113236 1_655
La4 O7 3.156468 1_565
La4 O51 3.224029 1_555
La5 O16 2.431334 1_555
La5 O22 2.499673 1_555
La5 O24 2.502202 1_555
La5 O40 2.558155 1_655
La5 O46 2.564858 1_555
La5 O12 2.922441 1_555
La5 O6 3.103220 1_655
La5 O50 3.113236 1_655
La5 O8 3.156468 1_555
La5 O50 3.224029 1_555
La6 O19 2.431334 1_555
La6 O27 2.499673 1_555
La6 O21 2.502202 1_555
La6 O45 2.558155 1_555
La6 O43 2.564858 1_455
La6 O15 2.922441 1_545
La6 O11 3.103220 1_545
La6 O49 3.113236 1_555
La6 O5 3.156468 1_445
La6 O49 3.224029 1_455
La7 O18 2.431334 1_555
La7 O20 2.499673 1_555
La7 O26 2.502202 1_555
La7 O42 2.558155 1_555
La7 O44 2.564858 1_455
La7 O14 2.922441 1_555
La7 O4 3.103220 1_555
La7 O48 3.113236 1_555
La7 O10 3.156468 1_455
La7 O48 3.224029 1_455
La8 O25 2.413245 1_555
La8 O23 2.430565 1_555
La8 O39 2.445984 1_555
La8 O42 2.590641 1_555
La8 O44 2.610728 1_555
La8 O31 2.737099 1_555
La8 O3 2.748652 1_555
La8 O33 2.770669 1_655
La9 O22 2.413245 1_555
La9 O24 2.430565 1_555
La9 O38 2.445984 1_555
La9 O45 2.590641 1_565
La9 O43 2.610728 1_565
La9 O32 2.737099 1_555
La9 O2 2.748652 1_565
La9 O30 2.770669 1_655
La10 O27 2.413245 1_555
La10 O21 2.430565 1_555
La10 O37 2.445984 1_555
La10 O40 2.590641 1_555
La10 O46 2.610728 1_555
La10 O29 2.737099 1_455
La10 O1 2.748652 1_555
La10 O35 2.770669 1_555
La11 O20 2.413245 1_555
La11 O26 2.430565 1_555
La11 O36 2.445984 1_555
La11 O47 2.590641 1_545
La11 O41 2.610728 1_545
La11 O34 2.737099 1_455
La11 O0 2.748652 1_545
La11 O28 2.770669 1_555
Mo0 O26 2.003313 1_655
Mo0 O20 2.009825 1_555
Mo0 O42 2.072790 1_555
Mo0 O44 2.074051 1_555
Mo0 O48 2.081121 1_555
Mo0 O13 2.168063 1_555
Mo1 O21 2.003313 1_655
Mo1 O27 2.009825 1_555
Mo1 O45 2.072790 1_555
Mo1 O43 2.074051 1_555
Mo1 O49 2.081121 1_555
Mo1 O12 2.168063 1_555
Mo2 O24 2.003313 1_555
Mo2 O22 2.009825 1_455
Mo2 O40 2.072790 1_555
Mo2 O46 2.074051 1_555
Mo2 O50 2.081121 1_555
Mo2 O15 2.168063 1_555
Mo3 O23 2.003313 1_555
Mo3 O25 2.009825 1_455
Mo3 O47 2.072790 1_555
Mo3 O41 2.074051 1_555
Mo3 O51 2.081121 1_555
Mo3 O14 2.168063 1_555
Mo4 O53 2.088687 1_555
Mo4 O36 2.137026 1_555
Mo4 O13 2.157358 1_555
Mo4 O7 2.161563 1_555
Mo4 O3 2.164543 1_555
Mo4 O42 2.181888 1_555
Mo5 O37 1.988152 1_555
Mo5 O52 2.006994 1_555
Mo5 O12 2.048274 1_455
Mo5 O2 2.130120 1_455
Mo5 O6 2.155740 1_555
Mo5 O43 2.157426 1_455
Mo6 O55 2.088687 1_555
Mo6 O38 2.137026 1_555
Mo6 O15 2.157358 1_655
Mo6 O5 2.161563 1_555
Mo6 O1 2.164543 1_655
Mo6 O40 2.181888 1_655
Mo7 O39 1.988152 1_555
Mo7 O54 2.006994 1_555
Mo7 O14 2.048274 1_555
Mo7 O0 2.130120 1_555
Mo7 O4 2.155740 1_555
Mo7 O41 2.157426 1_555
Mo8 O38 1.988152 1_555
Mo8 O55 2.006994 1_555
Mo8 O15 2.048274 1_555
Mo8 O1 2.130120 1_555
Mo8 O11 2.155740 1_555
Mo8 O46 2.157426 1_555
Mo9 O54 2.088687 1_555
Mo9 O39 2.137026 1_555
Mo9 O14 2.157358 1_655
Mo9 O10 2.161563 1_555
Mo9 O0 2.164543 1_655
Mo9 O47 2.181888 1_655
Mo10 O36 1.988152 1_555
Mo10 O53 2.006994 1_555
Mo10 O13 2.048274 1_455
Mo10 O3 2.130120 1_455
Mo10 O9 2.155740 1_555
Mo10 O44 2.157426 1_455
Mo11 O52 2.088687 1_555
Mo11 O37 2.137026 1_555
Mo11 O12 2.157358 1_555
Mo11 O8 2.161563 1_555
Mo11 O2 2.164543 1_555
Mo11 O45 2.181888 1_555
Mo12 O55 1.969446 1_555
Mo12 O31 2.087684 1_554
Mo12 O29 2.093494 1_555
Mo12 O3 2.101451 1_554
Mo12 O33 2.101963 1_654
Mo12 O35 2.104703 1_555
Mo13 O53 1.969446 1_555
Mo13 O29 2.087684 1_456
Mo13 O31 2.093494 1_555
Mo13 O1 2.101451 1_556
Mo13 O35 2.101963 1_556
Mo13 O33 2.104703 1_555
Mo14 O52 1.969446 1_555
Mo14 O34 2.087684 1_455
Mo14 O32 2.093494 1_545
Mo14 O0 2.101451 1_545
Mo14 O28 2.101963 1_555
Mo14 O30 2.104703 1_545
Mo15 O54 1.969446 1_555
Mo15 O32 2.087684 1_555
Mo15 O34 2.093494 1_565
Mo15 O2 2.101451 1_565
Mo15 O30 2.101963 1_655
Mo15 O28 2.104703 1_565
O4 Si0 1.666958 1_555
O5 Si1 1.657729 1_555
O6 Si2 1.666958 1_555
O7 Si3 1.657729 1_555
O8 Si2 1.657729 1_555
O9 Si3 1.666958 1_555
O10 Si0 1.657729 1_555
O11 Si1 1.666958 1_555
O16 Si0 1.630717 1_555
O17 Si1 1.630717 1_556
O18 Si2 1.630717 1_555
O19 Si3 1.630717 1_554
O48 Si0 1.634459 1_555
O49 Si1 1.634459 1_545
O50 Si2 1.634459 1_555
O51 Si3 1.634459 1_565
