# generated using pymatgen
data_Rb2Ba(Ge4O9)2
_symmetry_space_group_name_H-M   'P 1'
_cell_length_a   12.00705965
_cell_length_b   12.00705965
_cell_length_c   19.59786879
_cell_angle_alpha   90.00000000
_cell_angle_beta   90.00000000
_cell_angle_gamma   120.00000345
_symmetry_Int_Tables_number   1
_chemical_formula_structural   Rb2Ba(Ge4O9)2
_chemical_formula_sum   'Rb12 Ba6 Ge48 O108'
_cell_volume   2446.88071674
_cell_formula_units_Z   6
loop_
 _symmetry_equiv_pos_site_id
 _symmetry_equiv_pos_as_xyz
  1  'x, y, z'
loop_
 _atom_site_type_symbol
 _atom_site_label
 _atom_site_symmetry_multiplicity
 _atom_site_fract_x
 _atom_site_fract_y
 _atom_site_fract_z
 _atom_site_occupancy
  Rb  Rb0  1  0.99870834  0.33606092  0.96026833  1
  Rb  Rb1  1  0.00129166  0.66393908  0.03973167  1
  Rb  Rb2  1  0.33735258  0.00129166  0.96026833  1
  Rb  Rb3  1  0.66264742  0.66393908  0.53973167  1
  Rb  Rb4  1  0.66264742  0.99870834  0.03973167  1
  Rb  Rb5  1  0.33735258  0.33606092  0.46026833  1
  Rb  Rb6  1  0.66393908  0.66264742  0.96026833  1
  Rb  Rb7  1  0.33606092  0.99870834  0.53973167  1
  Rb  Rb8  1  0.33606092  0.33735258  0.03973167  1
  Rb  Rb9  1  0.66393908  0.00129166  0.46026833  1
  Rb  Rb10  1  0.00129166  0.33735258  0.53973167  1
  Rb  Rb11  1  0.99870834  0.66264742  0.46026833  1
  Ba  Ba0  1  0.66478201  0.66478201  0.75000000  1
  Ba  Ba1  1  0.33521799  0.33521799  0.25000000  1
  Ba  Ba2  1  0.00000000  0.33521799  0.75000000  1
  Ba  Ba3  1  1.00000000  0.66478201  0.25000000  1
  Ba  Ba4  1  0.33521799  0.00000000  0.75000000  1
  Ba  Ba5  1  0.66478201  1.00000000  0.25000000  1
  Ge  Ge0  1  0.66666700  0.33333300  0.97787086  1
  Ge  Ge1  1  0.33333300  0.66666700  0.02212914  1
  Ge  Ge2  1  0.33333300  0.66666700  0.52212914  1
  Ge  Ge3  1  0.66666700  0.33333300  0.47787086  1
  Ge  Ge4  1  0.66666700  0.33333300  0.72809128  1
  Ge  Ge5  1  0.33333300  0.66666700  0.27190872  1
  Ge  Ge6  1  0.33333300  0.66666700  0.77190872  1
  Ge  Ge7  1  0.66666700  0.33333300  0.22809128  1
  Ge  Ge8  1  -0.00000000  0.00000000  0.00000000  1
  Ge  Ge9  1  -0.00000000  0.00000000  0.50000000  1
  Ge  Ge10  1  0.82497381  0.00347282  0.87237005  1
  Ge  Ge11  1  0.17502619  0.99652718  0.12762995  1
  Ge  Ge12  1  0.17849901  0.17502619  0.87237005  1
  Ge  Ge13  1  0.82150099  0.99652718  0.62762995  1
  Ge  Ge14  1  0.82150099  0.82497381  0.12762995  1
  Ge  Ge15  1  0.17849901  0.00347282  0.37237005  1
  Ge  Ge16  1  0.99652718  0.82150099  0.87237005  1
  Ge  Ge17  1  0.00347282  0.82497381  0.62762995  1
  Ge  Ge18  1  0.00347282  0.17849901  0.12762995  1
  Ge  Ge19  1  0.99652718  0.17502619  0.37237005  1
  Ge  Ge20  1  0.17502619  0.17849901  0.62762995  1
  Ge  Ge21  1  0.82497381  0.82150099  0.37237005  1
  Ge  Ge22  1  0.66152615  0.14419545  0.85072395  1
  Ge  Ge23  1  0.33847385  0.85580455  0.14927605  1
  Ge  Ge24  1  0.48266930  0.33847385  0.85072395  1
  Ge  Ge25  1  0.51733070  0.85580455  0.64927605  1
  Ge  Ge26  1  0.51733070  0.66152615  0.14927605  1
  Ge  Ge27  1  0.48266930  0.14419545  0.35072395  1
  Ge  Ge28  1  0.85580455  0.51733070  0.85072395  1
  Ge  Ge29  1  0.14419545  0.66152615  0.64927605  1
  Ge  Ge30  1  0.14419545  0.48266930  0.14927605  1
  Ge  Ge31  1  0.85580455  0.33847385  0.35072395  1
  Ge  Ge32  1  0.33847385  0.48266930  0.64927605  1
  Ge  Ge33  1  0.66152615  0.51733070  0.35072395  1
  Ge  Ge34  1  0.51212021  0.84551453  0.89092518  1
  Ge  Ge35  1  0.48787979  0.15448547  0.10907482  1
  Ge  Ge36  1  0.33339432  0.48787979  0.89092518  1
  Ge  Ge37  1  0.66660568  0.15448547  0.60907482  1
  Ge  Ge38  1  0.66660568  0.51212021  0.10907482  1
  Ge  Ge39  1  0.33339432  0.84551453  0.39092518  1
  Ge  Ge40  1  0.15448547  0.66660568  0.89092518  1
  Ge  Ge41  1  0.84551453  0.51212021  0.60907482  1
  Ge  Ge42  1  0.84551453  0.33339432  0.10907482  1
  Ge  Ge43  1  0.15448547  0.48787979  0.39092518  1
  Ge  Ge44  1  0.48787979  0.33339432  0.60907482  1
  Ge  Ge45  1  0.51212021  0.66660568  0.39092518  1
  Ge  Ge46  1  -0.00000000  0.00000000  0.75000000  1
  Ge  Ge47  1  -0.00000000  0.00000000  0.25000000  1
  O  O0  1  0.72572898  0.24036973  0.92348216  1
  O  O1  1  0.27427102  0.75963027  0.07651784  1
  O  O2  1  0.51464075  0.27427102  0.92348216  1
  O  O3  1  0.48535925  0.75963027  0.57651784  1
  O  O4  1  0.48535925  0.72572898  0.07651784  1
  O  O5  1  0.51464075  0.24036973  0.42348216  1
  O  O6  1  0.75963027  0.48535925  0.92348216  1
  O  O7  1  0.24036973  0.72572898  0.57651784  1
  O  O8  1  0.24036973  0.51464075  0.07651784  1
  O  O9  1  0.75963027  0.27427102  0.42348216  1
  O  O10  1  0.27427102  0.51464075  0.57651784  1
  O  O11  1  0.72572898  0.48535925  0.42348216  1
  O  O12  1  0.67551341  0.89365136  0.91415615  1
  O  O13  1  0.32448659  0.10634864  0.08584385  1
  O  O14  1  0.21813796  0.32448659  0.91415615  1
  O  O15  1  0.78186204  0.10634864  0.58584385  1
  O  O16  1  0.78186204  0.67551341  0.08584385  1
  O  O17  1  0.21813796  0.89365136  0.41415615  1
  O  O18  1  0.10634864  0.78186204  0.91415615  1
  O  O19  1  0.89365136  0.67551341  0.58584385  1
  O  O20  1  0.89365136  0.21813796  0.08584385  1
  O  O21  1  0.10634864  0.32448659  0.41415615  1
  O  O22  1  0.32448659  0.21813796  0.58584385  1
  O  O23  1  0.67551341  0.78186204  0.41415615  1
  O  O24  1  0.81667798  0.40705796  0.78269088  1
  O  O25  1  0.18332202  0.59294204  0.21730912  1
  O  O26  1  0.59037999  0.18332202  0.78269088  1
  O  O27  1  0.40962001  0.59294204  0.71730912  1
  O  O28  1  0.40962001  0.81667798  0.21730912  1
  O  O29  1  0.59037999  0.40705796  0.28269088  1
  O  O30  1  0.59294204  0.40962001  0.78269088  1
  O  O31  1  0.40705796  0.81667798  0.71730912  1
  O  O32  1  0.40705796  0.59037999  0.21730912  1
  O  O33  1  0.59294204  0.18332202  0.28269088  1
  O  O34  1  0.18332202  0.59037999  0.71730912  1
  O  O35  1  0.81667798  0.40962001  0.28269088  1
  O  O36  1  0.93090871  0.08115917  0.94127546  1
  O  O37  1  0.06909129  0.91884083  0.05872454  1
  O  O38  1  0.15025045  0.06909129  0.94127546  1
  O  O39  1  0.84974955  0.91884083  0.55872454  1
  O  O40  1  0.84974955  0.93090871  0.05872454  1
  O  O41  1  0.15025045  0.08115917  0.44127546  1
  O  O42  1  0.91884083  0.84974955  0.94127546  1
  O  O43  1  0.08115917  0.93090871  0.55872454  1
  O  O44  1  0.08115917  0.15025045  0.05872454  1
  O  O45  1  0.91884083  0.06909129  0.44127546  1
  O  O46  1  0.06909129  0.15025045  0.55872454  1
  O  O47  1  0.93090871  0.84974955  0.44127546  1
  O  O48  1  0.79454275  0.12032729  0.82805566  1
  O  O49  1  0.20545725  0.87967271  0.17194434  1
  O  O50  1  0.32578455  0.20545725  0.82805566  1
  O  O51  1  0.67421545  0.87967271  0.67194434  1
  O  O52  1  0.67421545  0.79454275  0.17194434  1
  O  O53  1  0.32578455  0.12032729  0.32805566  1
  O  O54  1  0.87967271  0.67421545  0.82805566  1
  O  O55  1  0.12032729  0.79454275  0.67194434  1
  O  O56  1  0.12032729  0.32578455  0.17194434  1
  O  O57  1  0.87967271  0.20545725  0.32805566  1
  O  O58  1  0.20545725  0.32578455  0.67194434  1
  O  O59  1  0.79454275  0.67421545  0.32805566  1
  O  O60  1  0.47362654  0.48260992  0.86386554  1
  O  O61  1  0.52637346  0.51739008  0.13613446  1
  O  O62  1  0.00898338  0.52637346  0.86386554  1
  O  O63  1  0.99101662  0.51739008  0.63613446  1
  O  O64  1  0.99101662  0.47362654  0.13613446  1
  O  O65  1  0.00898338  0.48260992  0.36386554  1
  O  O66  1  0.51739008  0.99101662  0.86386554  1
  O  O67  1  0.48260992  0.47362654  0.63613446  1
  O  O68  1  0.48260992  0.00898338  0.13613446  1
  O  O69  1  0.51739008  0.52637346  0.36386554  1
  O  O70  1  0.52637346  0.00898338  0.63613446  1
  O  O71  1  0.47362654  0.99101662  0.36386554  1
  O  O72  1  0.84952475  0.91334214  0.80800237  1
  O  O73  1  0.15047525  0.08665786  0.19199763  1
  O  O74  1  0.06381740  0.15047525  0.80800237  1
  O  O75  1  0.93618260  0.08665786  0.69199763  1
  O  O76  1  0.93618260  0.84952475  0.19199763  1
  O  O77  1  0.06381740  0.91334214  0.30800237  1
  O  O78  1  0.08665786  0.93618260  0.80800237  1
  O  O79  1  0.91334214  0.84952475  0.69199763  1
  O  O80  1  0.91334214  0.06381740  0.19199763  1
  O  O81  1  0.08665786  0.15047525  0.30800237  1
  O  O82  1  0.15047525  0.06381740  0.69199763  1
  O  O83  1  0.84952475  0.93618260  0.30800237  1
  O  O84  1  0.39294396  0.57569155  0.96680029  1
  O  O85  1  0.60705604  0.42430845  0.03319971  1
  O  O86  1  0.18274760  0.60705604  0.96680029  1
  O  O87  1  0.81725240  0.42430845  0.53319971  1
  O  O88  1  0.81725240  0.39294396  0.03319971  1
  O  O89  1  0.18274760  0.57569155  0.46680029  1
  O  O90  1  0.42430845  0.81725240  0.96680029  1
  O  O91  1  0.57569155  0.39294396  0.53319971  1
  O  O92  1  0.57569155  0.18274760  0.03319971  1
  O  O93  1  0.42430845  0.60705604  0.46680029  1
  O  O94  1  0.60705604  0.18274760  0.53319971  1
  O  O95  1  0.39294396  0.81725240  0.46680029  1
  O  O96  1  0.48279812  0.72700849  0.82895108  1
  O  O97  1  0.51720188  0.27299151  0.17104892  1
  O  O98  1  0.24421036  0.51720188  0.82895108  1
  O  O99  1  0.75578964  0.27299151  0.67104892  1
  O  O100  1  0.75578964  0.48279812  0.17104892  1
  O  O101  1  0.24421036  0.72700849  0.32895108  1
  O  O102  1  0.27299151  0.75578964  0.82895108  1
  O  O103  1  0.72700849  0.48279812  0.67104892  1
  O  O104  1  0.72700849  0.24421036  0.17104892  1
  O  O105  1  0.27299151  0.51720188  0.32895108  1
  O  O106  1  0.51720188  0.24421036  0.67104892  1
  O  O107  1  0.48279812  0.75578964  0.32895108  1
loop_
_geom_bond_atom_site_label_1
_geom_bond_atom_site_label_2
_geom_bond_distance
_geom_bond_site_symmetry_2
Ba0 O27 2.810392 1_555
Ba0 O30 2.810392 1_555
Ba0 O72 2.915392 1_555
Ba0 O79 2.915392 1_555
Ba0 O51 2.952642 1_555
Ba0 O54 2.952642 1_555
Ba0 O96 3.059335 1_555
Ba0 O103 3.059335 1_555
Ba0 O60 3.164137 1_555
Ba0 O67 3.164137 1_555
Ba1 O29 2.810392 1_555
Ba1 O32 2.810392 1_555
Ba1 O73 2.915392 1_555
Ba1 O81 2.915392 1_555
Ba1 O56 2.952642 1_555
Ba1 O53 2.952642 1_555
Ba1 O97 3.059335 1_555
Ba1 O105 3.059335 1_555
Ba1 O61 3.164137 1_555
Ba1 O69 3.164137 1_555
Ba2 O34 2.810392 1_555
Ba2 O24 2.810392 1_455
Ba2 O75 2.915392 1_455
Ba2 O74 2.915392 1_555
Ba2 O48 2.952641 1_455
Ba2 O58 2.952642 1_555
Ba2 O98 3.059334 1_555
Ba2 O99 3.059334 1_455
Ba2 O62 3.164137 1_555
Ba2 O63 3.164138 1_455
Ba3 O35 2.810392 1_555
Ba3 O25 2.810392 1_655
Ba3 O77 2.915392 1_655
Ba3 O76 2.915392 1_555
Ba3 O49 2.952641 1_655
Ba3 O59 2.952642 1_555
Ba3 O100 3.059334 1_555
Ba3 O101 3.059334 1_655
Ba3 O64 3.164137 1_555
Ba3 O65 3.164138 1_655
Ba4 O26 2.810392 1_555
Ba4 O31 2.810392 1_545
Ba4 O78 2.915392 1_545
Ba4 O82 2.915392 1_555
Ba4 O55 2.952641 1_545
Ba4 O50 2.952642 1_555
Ba4 O106 3.059334 1_555
Ba4 O102 3.059334 1_545
Ba4 O70 3.164137 1_555
Ba4 O66 3.164138 1_545
Ba5 O28 2.810392 1_555
Ba5 O33 2.810392 1_565
Ba5 O80 2.915392 1_565
Ba5 O83 2.915392 1_555
Ba5 O57 2.952641 1_565
Ba5 O52 2.952642 1_555
Ba5 O107 3.059334 1_555
Ba5 O104 3.059334 1_565
Ba5 O71 3.164137 1_555
Ba5 O68 3.164138 1_565
Ge0 O88 1.913924 1_556
Ge0 O92 1.913925 1_556
Ge0 O85 1.913934 1_556
Ge0 O0 1.917439 1_555
Ge0 O6 1.917446 1_555
Ge0 O2 1.917448 1_555
Ge1 O86 1.913924 1_554
Ge1 O90 1.913925 1_554
Ge1 O84 1.913934 1_554
Ge1 O1 1.917439 1_555
Ge1 O8 1.917446 1_555
Ge1 O4 1.917448 1_555
Ge2 O95 1.913924 1_555
Ge2 O89 1.913925 1_555
Ge2 O93 1.913934 1_555
Ge2 O7 1.917439 1_555
Ge2 O3 1.917446 1_555
Ge2 O10 1.917448 1_555
Ge3 O94 1.913924 1_555
Ge3 O87 1.913925 1_555
Ge3 O91 1.913934 1_555
Ge3 O9 1.917439 1_555
Ge3 O5 1.917446 1_555
Ge3 O11 1.917448 1_555
Ge4 O24 1.891674 1_555
Ge4 O26 1.891674 1_555
Ge4 O30 1.891682 1_555
Ge4 O99 1.922260 1_555
Ge4 O106 1.922268 1_555
Ge4 O103 1.922269 1_555
Ge5 O25 1.891674 1_555
Ge5 O28 1.891674 1_555
Ge5 O32 1.891682 1_555
Ge5 O101 1.922260 1_555
Ge5 O107 1.922268 1_555
Ge5 O105 1.922269 1_555
Ge6 O31 1.891674 1_555
Ge6 O34 1.891674 1_555
Ge6 O27 1.891682 1_555
Ge6 O102 1.922260 1_555
Ge6 O98 1.922268 1_555
Ge6 O96 1.922269 1_555
Ge7 O33 1.891674 1_555
Ge7 O35 1.891674 1_555
Ge7 O29 1.891682 1_555
Ge7 O104 1.922260 1_555
Ge7 O100 1.922268 1_555
Ge7 O97 1.922269 1_555
Ge8 O44 1.941843 1_555
Ge8 O42 1.941843 1_444
Ge8 O40 1.941843 1_445
Ge8 O38 1.941843 1_554
Ge8 O37 1.941843 1_545
Ge8 O36 1.941843 1_454
Ge9 O41 1.941843 1_555
Ge9 O39 1.941843 1_445
Ge9 O47 1.941843 1_445
Ge9 O46 1.941843 1_555
Ge9 O45 1.941843 1_455
Ge9 O43 1.941843 1_545
Ge10 O36 1.767793 1_555
Ge10 O72 1.779996 1_545
Ge10 O12 1.806528 1_545
Ge10 O48 1.835495 1_555
Ge11 O37 1.767793 1_555
Ge11 O73 1.779996 1_565
Ge11 O13 1.806528 1_565
Ge11 O49 1.835495 1_555
Ge12 O38 1.767793 1_555
Ge12 O74 1.779996 1_555
Ge12 O14 1.806528 1_555
Ge12 O50 1.835495 1_555
Ge13 O39 1.767793 1_555
Ge13 O75 1.779996 1_565
Ge13 O15 1.806529 1_565
Ge13 O51 1.835495 1_555
Ge14 O40 1.767793 1_555
Ge14 O76 1.779996 1_555
Ge14 O16 1.806528 1_555
Ge14 O52 1.835495 1_555
Ge15 O41 1.767793 1_555
Ge15 O77 1.779996 1_545
Ge15 O17 1.806529 1_545
Ge15 O53 1.835495 1_555
Ge16 O42 1.767793 1_555
Ge16 O78 1.779996 1_655
Ge16 O18 1.806529 1_655
Ge16 O54 1.835495 1_555
Ge17 O43 1.767793 1_555
Ge17 O79 1.779996 1_455
Ge17 O19 1.806528 1_455
Ge17 O55 1.835495 1_555
Ge18 O44 1.767793 1_555
Ge18 O80 1.779996 1_455
Ge18 O20 1.806529 1_455
Ge18 O56 1.835495 1_555
Ge19 O45 1.767793 1_555
Ge19 O81 1.779996 1_655
Ge19 O21 1.806528 1_655
Ge19 O57 1.835495 1_555
Ge20 O46 1.767793 1_555
Ge20 O82 1.779996 1_555
Ge20 O22 1.806528 1_555
Ge20 O58 1.835495 1_555
Ge21 O47 1.767793 1_555
Ge21 O83 1.779996 1_555
Ge21 O23 1.806528 1_555
Ge21 O59 1.835495 1_555
Ge22 O0 1.752362 1_555
Ge22 O26 1.769035 1_555
Ge22 O66 1.805873 1_545
Ge22 O48 1.813301 1_555
Ge23 O1 1.752362 1_555
Ge23 O28 1.769035 1_555
Ge23 O68 1.805873 1_565
Ge23 O49 1.813301 1_555
Ge24 O2 1.752362 1_555
Ge24 O30 1.769035 1_555
Ge24 O60 1.805873 1_555
Ge24 O50 1.813300 1_555
Ge25 O3 1.752362 1_555
Ge25 O31 1.769035 1_555
Ge25 O70 1.805873 1_565
Ge25 O51 1.813300 1_555
Ge26 O4 1.752362 1_555
Ge26 O32 1.769035 1_555
Ge26 O61 1.805873 1_555
Ge26 O52 1.813300 1_555
Ge27 O5 1.752362 1_555
Ge27 O33 1.769035 1_555
Ge27 O71 1.805873 1_545
Ge27 O53 1.813300 1_555
Ge28 O6 1.752362 1_555
Ge28 O24 1.769035 1_555
Ge28 O62 1.805873 1_655
Ge28 O54 1.813300 1_555
Ge29 O7 1.752362 1_555
Ge29 O34 1.769035 1_555
Ge29 O63 1.805873 1_455
Ge29 O55 1.813301 1_555
Ge30 O8 1.752362 1_555
Ge30 O25 1.769035 1_555
Ge30 O64 1.805873 1_455
Ge30 O56 1.813300 1_555
Ge31 O9 1.752362 1_555
Ge31 O35 1.769035 1_555
Ge31 O65 1.805873 1_655
Ge31 O57 1.813301 1_555
Ge32 O10 1.752362 1_555
Ge32 O27 1.769035 1_555
Ge32 O67 1.805873 1_555
Ge32 O58 1.813300 1_555
Ge33 O11 1.752362 1_555
Ge33 O29 1.769035 1_555
Ge33 O69 1.805873 1_555
Ge33 O59 1.813300 1_555
Ge34 O90 1.755044 1_555
Ge34 O96 1.767149 1_555
Ge34 O66 1.796352 1_555
Ge34 O12 1.804537 1_555
Ge35 O92 1.755044 1_555
Ge35 O97 1.767149 1_555
Ge35 O68 1.796352 1_555
Ge35 O13 1.804537 1_555
Ge36 O84 1.755044 1_555
Ge36 O98 1.767149 1_555
Ge36 O60 1.796352 1_555
Ge36 O14 1.804537 1_555
Ge37 O94 1.755044 1_555
Ge37 O99 1.767149 1_555
Ge37 O70 1.796352 1_555
Ge37 O15 1.804537 1_555
Ge38 O85 1.755044 1_555
Ge38 O100 1.767149 1_555
Ge38 O61 1.796352 1_555
Ge38 O16 1.804537 1_555
Ge39 O95 1.755044 1_555
Ge39 O101 1.767149 1_555
Ge39 O71 1.796352 1_555
Ge39 O17 1.804537 1_555
Ge40 O86 1.755044 1_555
Ge40 O102 1.767149 1_555
Ge40 O62 1.796352 1_555
Ge40 O18 1.804537 1_555
Ge41 O87 1.755044 1_555
Ge41 O103 1.767149 1_555
Ge41 O63 1.796352 1_555
Ge41 O19 1.804537 1_555
Ge42 O88 1.755044 1_555
Ge42 O104 1.767149 1_555
Ge42 O64 1.796352 1_555
Ge42 O20 1.804537 1_555
Ge43 O89 1.755044 1_555
Ge43 O105 1.767149 1_555
Ge43 O65 1.796352 1_555
Ge43 O21 1.804537 1_555
Ge44 O91 1.755044 1_555
Ge44 O106 1.767149 1_555
Ge44 O67 1.796352 1_555
Ge44 O22 1.804537 1_555
Ge45 O93 1.755044 1_555
Ge45 O107 1.767149 1_555
Ge45 O69 1.796352 1_555
Ge45 O23 1.804537 1_555
Ge46 O79 1.938877 1_445
Ge46 O72 1.938877 1_445
Ge46 O74 1.938877 1_555
Ge46 O82 1.938877 1_555
Ge46 O75 1.938877 1_455
Ge46 O78 1.938877 1_545
Ge47 O73 1.938877 1_555
Ge47 O81 1.938877 1_555
Ge47 O76 1.938877 1_445
Ge47 O83 1.938877 1_445
Ge47 O80 1.938877 1_455
Ge47 O77 1.938877 1_545
O0 Rb0 2.969360 1_555
O1 Rb1 2.969360 1_555
O2 Rb2 2.969360 1_555
O3 Rb3 2.969360 1_555
O4 Rb4 2.969360 1_555
O5 Rb5 2.969360 1_555
O6 Rb6 2.969360 1_555
O7 Rb7 2.969360 1_555
O8 Rb8 2.969360 1_555
O9 Rb9 2.969360 1_555
O10 Rb10 2.969360 1_555
O11 Rb11 2.969360 1_555
O12 Rb4 2.804730 1_556
O12 Rb6 2.853736 1_555
O13 Rb2 2.804730 1_554
O13 Rb8 2.853736 1_555
O14 Rb8 2.804730 1_556
O14 Rb0 2.853736 1_455
O15 Rb9 2.804730 1_555
O15 Rb10 2.853736 1_655
O16 Rb6 2.804730 1_554
O16 Rb1 2.853736 1_655
O17 Rb7 2.804730 1_555
O17 Rb11 2.853736 1_455
O18 Rb1 2.804730 1_556
O18 Rb2 2.853736 1_565
O19 Rb11 2.804730 1_555
O19 Rb3 2.853736 1_555
O20 Rb0 2.804730 1_554
O20 Rb4 2.853736 1_545
O21 Rb10 2.804730 1_555
O21 Rb5 2.853736 1_555
O22 Rb5 2.804730 1_555
O22 Rb7 2.853736 1_545
O23 Rb3 2.804730 1_555
O23 Rb9 2.853736 1_565
O36 Rb0 2.770756 1_555
O37 Rb1 2.770756 1_555
O38 Rb2 2.770756 1_555
O39 Rb3 2.770756 1_555
O40 Rb4 2.770756 1_555
O41 Rb5 2.770756 1_555
O42 Rb6 2.770756 1_555
O43 Rb7 2.770756 1_555
O44 Rb8 2.770756 1_555
O45 Rb9 2.770756 1_555
O46 Rb10 2.770756 1_555
O47 Rb11 2.770756 1_555
O60 Rb6 2.919652 1_555
O61 Rb8 2.919652 1_555
O62 Rb0 2.919652 1_455
O63 Rb10 2.919652 1_655
O64 Rb1 2.919652 1_655
O65 Rb11 2.919652 1_455
O66 Rb2 2.919652 1_565
O67 Rb3 2.919652 1_555
O68 Rb4 2.919652 1_545
O69 Rb5 2.919652 1_555
O70 Rb7 2.919652 1_545
O71 Rb9 2.919652 1_565
O84 Rb6 2.880411 1_555
O84 Rb8 2.957098 1_556
O85 Rb8 2.880411 1_555
O85 Rb6 2.957098 1_554
O86 Rb0 2.880411 1_455
O86 Rb1 2.957098 1_556
O87 Rb10 2.880412 1_655
O87 Rb11 2.957098 1_555
O88 Rb1 2.880411 1_655
O88 Rb0 2.957098 1_554
O89 Rb11 2.880412 1_455
O89 Rb10 2.957098 1_555
O90 Rb2 2.880412 1_565
O90 Rb4 2.957098 1_556
O91 Rb3 2.880411 1_555
O91 Rb5 2.957098 1_555
O92 Rb4 2.880412 1_545
O92 Rb2 2.957098 1_554
O93 Rb5 2.880411 1_555
O93 Rb3 2.957098 1_555
O94 Rb7 2.880411 1_545
O94 Rb9 2.957098 1_555
O95 Rb9 2.880411 1_565
O95 Rb7 2.957098 1_555
