# generated using pymatgen
data_DyBi2C
_symmetry_space_group_name_H-M   'P 1'
_cell_length_a   11.55103200
_cell_length_b   11.55103200
_cell_length_c   5.65949400
_cell_angle_alpha   90.00000000
_cell_angle_beta   90.00000000
_cell_angle_gamma   90.00000000
_symmetry_Int_Tables_number   1
_chemical_formula_structural   DyBi2C
_chemical_formula_sum   'Dy8 Bi16 C8'
_cell_volume   755.12557217
_cell_formula_units_Z   8
loop_
 _symmetry_equiv_pos_site_id
 _symmetry_equiv_pos_as_xyz
  1  'x, y, z'
loop_
 _atom_site_type_symbol
 _atom_site_label
 _atom_site_symmetry_multiplicity
 _atom_site_fract_x
 _atom_site_fract_y
 _atom_site_fract_z
 _atom_site_occupancy
  Dy  Dy0  1  0.16267400  0.66267400  0.25000000  1
  Dy  Dy1  1  0.83732600  0.33732600  0.75000000  1
  Dy  Dy2  1  0.83732600  0.33732600  0.25000000  1
  Dy  Dy3  1  0.33732600  0.16267400  0.75000000  1
  Dy  Dy4  1  0.16267400  0.66267400  0.75000000  1
  Dy  Dy5  1  0.66267400  0.83732600  0.25000000  1
  Dy  Dy6  1  0.66267400  0.83732600  0.75000000  1
  Dy  Dy7  1  0.33732600  0.16267400  0.25000000  1
  Bi  Bi0  1  0.10944700  0.39052700  0.00000000  1
  Bi  Bi1  1  0.89055300  0.60947300  0.00000000  1
  Bi  Bi2  1  0.60947300  0.10944700  0.50000000  1
  Bi  Bi3  1  0.39055300  0.89052700  0.00000000  1
  Bi  Bi4  1  0.39052700  0.89055300  0.50000000  1
  Bi  Bi5  1  0.60944700  0.10947300  0.00000000  1
  Bi  Bi6  1  0.89052700  0.60944700  0.50000000  1
  Bi  Bi7  1  0.10947300  0.39055300  0.50000000  1
  Bi  Bi8  1  0.93768900  0.12327600  0.00000000  1
  Bi  Bi9  1  0.06231100  0.87672400  0.00000000  1
  Bi  Bi10  1  0.87672400  0.93768900  0.50000000  1
  Bi  Bi11  1  0.56231100  0.62327600  0.00000000  1
  Bi  Bi12  1  0.12327600  0.06231100  0.50000000  1
  Bi  Bi13  1  0.43768900  0.37672400  0.00000000  1
  Bi  Bi14  1  0.62327600  0.43768900  0.50000000  1
  Bi  Bi15  1  0.37672400  0.56231100  0.50000000  1
  C  C0  1  0.35407300  0.57331800  0.00000000  1
  C  C1  1  0.64592700  0.42668200  0.00000000  1
  C  C2  1  0.42668200  0.35407300  0.50000000  1
  C  C3  1  0.14592700  0.07331800  0.00000000  1
  C  C4  1  0.57331800  0.64592700  0.50000000  1
  C  C5  1  0.85407300  0.92668200  0.00000000  1
  C  C6  1  0.07331800  0.85407300  0.50000000  1
  C  C7  1  0.92668200  0.14592700  0.50000000  1
loop_
_geom_bond_atom_site_label_1
_geom_bond_atom_site_label_2
_geom_bond_distance
_geom_bond_site_symmetry_2
Bi0 Bi7 2.829747 1_554
Bi0 Bi7 2.829747 1_555
Bi0 Dy1 3.501387 1_454
Bi0 Dy2 3.501387 1_455
Bi0 Dy0 3.501709 1_555
Bi0 Dy4 3.501709 1_554
Bi1 Bi6 2.829747 1_555
Bi1 Bi6 2.829747 1_554
Bi1 Dy4 3.501387 1_654
Bi1 Dy0 3.501387 1_655
Bi1 Dy2 3.501709 1_555
Bi1 Dy1 3.501709 1_554
Bi2 Bi5 2.829747 1_556
Bi2 Bi5 2.829747 1_555
Bi2 Dy5 3.501387 1_545
Bi2 Dy6 3.501387 1_545
Bi2 Dy3 3.501709 1_555
Bi2 Dy7 3.501709 1_555
Bi3 Bi4 2.829747 1_554
Bi3 Bi4 2.829747 1_555
Bi3 Dy5 3.501387 1_555
Bi3 Dy6 3.501387 1_554
Bi3 Dy7 3.501709 1_565
Bi3 Dy3 3.501709 1_564
Bi4 Dy7 3.501387 1_565
Bi4 Dy3 3.501387 1_565
Bi4 Dy5 3.501709 1_555
Bi4 Dy6 3.501709 1_555
Bi5 Dy3 3.501387 1_554
Bi5 Dy7 3.501387 1_555
Bi5 Dy5 3.501709 1_545
Bi5 Dy6 3.501709 1_544
Bi6 Dy1 3.501387 1_555
Bi6 Dy2 3.501387 1_555
Bi6 Dy0 3.501709 1_655
Bi6 Dy4 3.501709 1_655
Bi7 Dy4 3.501387 1_555
Bi7 Dy0 3.501387 1_555
Bi7 Dy2 3.501709 1_455
Bi7 Dy1 3.501709 1_455
Bi8 C5 2.467730 1_545
Bi8 C3 2.473617 1_655
Bi8 C7 2.844660 1_554
Bi8 C7 2.844660 1_555
Bi8 Dy2 3.075562 1_555
Bi8 Dy1 3.075562 1_554
Bi9 C3 2.467730 1_565
Bi9 C5 2.473617 1_455
Bi9 C6 2.844660 1_555
Bi9 C6 2.844660 1_554
Bi9 Dy4 3.075562 1_554
Bi9 Dy0 3.075562 1_555
Bi10 C6 2.467730 1_655
Bi10 C7 2.473617 1_565
Bi10 C5 2.844660 1_556
Bi10 C5 2.844660 1_555
Bi10 Dy5 3.075562 1_555
Bi10 Dy6 3.075562 1_555
Bi11 C1 2.467730 1_555
Bi11 C0 2.473617 1_555
Bi11 C4 2.844660 1_555
Bi11 C4 2.844660 1_554
Bi11 Dy5 3.075562 1_555
Bi11 Dy6 3.075562 1_554
Bi12 C7 2.467730 1_455
Bi12 C6 2.473617 1_545
Bi12 C3 2.844660 1_555
Bi12 C3 2.844660 1_556
Bi12 Dy3 3.075562 1_555
Bi12 Dy7 3.075562 1_555
Bi13 C0 2.467730 1_555
Bi13 C1 2.473617 1_555
Bi13 C2 2.844660 1_555
Bi13 C2 2.844660 1_554
Bi13 Dy7 3.075562 1_555
Bi13 Dy3 3.075562 1_554
Bi14 C2 2.467730 1_555
Bi14 C4 2.473617 1_555
Bi14 C1 2.844660 1_556
Bi14 C1 2.844660 1_555
Bi14 Dy1 3.075562 1_555
Bi14 Dy2 3.075562 1_555
Bi15 C4 2.467730 1_555
Bi15 C2 2.473617 1_555
Bi15 C0 2.844660 1_555
Bi15 C0 2.844660 1_556
Bi15 Dy0 3.075562 1_555
Bi15 Dy4 3.075562 1_555
C0 Dy0 2.820477 1_555
C0 Dy4 2.820477 1_554
C1 Dy1 2.820477 1_554
C1 Dy2 2.820477 1_555
C2 Dy3 2.820477 1_555
C2 Dy7 2.820477 1_555
C3 Dy7 2.820477 1_555
C3 Dy3 2.820477 1_554
C4 Dy5 2.820477 1_555
C4 Dy6 2.820477 1_555
C5 Dy6 2.820477 1_554
C5 Dy5 2.820477 1_555
C6 Dy4 2.820477 1_555
C6 Dy0 2.820477 1_555
C7 Dy1 2.820477 1_555
C7 Dy2 2.820477 1_555
