# generated using pymatgen
data_Th2ZrUO8
_symmetry_space_group_name_H-M   'P 1'
_cell_length_a   3.85883200
_cell_length_b   3.85883200
_cell_length_c   10.93682700
_cell_angle_alpha   90.00000000
_cell_angle_beta   90.00000000
_cell_angle_gamma   90.00000000
_symmetry_Int_Tables_number   1
_chemical_formula_structural   Th2ZrUO8
_chemical_formula_sum   'Th2 Zr1 U1 O8'
_cell_volume   162.85574556
_cell_formula_units_Z   1
loop_
 _symmetry_equiv_pos_site_id
 _symmetry_equiv_pos_as_xyz
  1  'x, y, z'
loop_
 _atom_site_type_symbol
 _atom_site_label
 _atom_site_symmetry_multiplicity
 _atom_site_fract_x
 _atom_site_fract_y
 _atom_site_fract_z
 _atom_site_occupancy
  Th  Th0  1  0.00000000  0.00000000  0.49649900  1
  Th  Th1  1  0.50000000  0.50000000  0.75861000  1
  Zr  Zr0  1  0.00000000  0.00000000  0.00337100  1
  U  U0  1  0.50000000  0.50000000  0.23998000  1
  O  O0  1  0.00000000  0.50000000  0.62737300  1
  O  O1  1  0.50000000  0.00000000  0.88871200  1
  O  O2  1  0.00000000  0.50000000  0.11933900  1
  O  O3  1  0.50000000  0.00000000  0.36534500  1
  O  O4  1  0.00000000  0.50000000  0.88871200  1
  O  O5  1  0.50000000  0.00000000  0.11933900  1
  O  O6  1  0.00000000  0.50000000  0.36534500  1
  O  O7  1  0.50000000  0.00000000  0.62737300  1
loop_
_geom_bond_atom_site_label_1
_geom_bond_atom_site_label_2
_geom_bond_distance
_geom_bond_site_symmetry_2
O0 Th0 2.402373 1_565
O0 Th0 2.402373 1_555
O0 Th1 2.404741 1_455
O0 Th1 2.404741 1_555
O1 Zr0 2.301125 1_656
O1 Zr0 2.301125 1_556
O1 Th1 2.397353 1_555
O1 Th1 2.397353 1_545
O2 Zr0 2.308958 1_555
O2 Zr0 2.308958 1_565
O2 U0 2.337422 1_455
O2 U0 2.337422 1_555
O3 U0 2.366970 1_555
O3 U0 2.366970 1_545
O3 Th0 2.404199 1_655
O3 Th0 2.404199 1_555
O4 Zr0 2.301125 1_566
O4 Zr0 2.301125 1_556
O4 Th1 2.397353 1_555
O4 Th1 2.397353 1_455
O5 Zr0 2.308958 1_555
O5 Zr0 2.308958 1_655
O5 U0 2.337422 1_545
O5 U0 2.337422 1_555
O6 U0 2.366970 1_455
O6 U0 2.366970 1_555
O6 Th0 2.404199 1_555
O6 Th0 2.404199 1_565
O7 Th0 2.402373 1_655
O7 Th0 2.402373 1_555
O7 Th1 2.404741 1_555
O7 Th1 2.404741 1_545
