# generated using pymatgen
data_Y3Sc2Al3O12
_symmetry_space_group_name_H-M   'P 1'
_cell_length_a   10.77945457
_cell_length_b   10.77945457
_cell_length_c   10.77945457
_cell_angle_alpha   109.47122063
_cell_angle_beta   109.47122063
_cell_angle_gamma   109.47122063
_symmetry_Int_Tables_number   1
_chemical_formula_structural   Y3Sc2Al3O12
_chemical_formula_sum   'Y12 Sc8 Al12 O48'
_cell_volume   964.20297980
_cell_formula_units_Z   4
loop_
 _symmetry_equiv_pos_site_id
 _symmetry_equiv_pos_as_xyz
  1  'x, y, z'
loop_
 _atom_site_type_symbol
 _atom_site_label
 _atom_site_symmetry_multiplicity
 _atom_site_fract_x
 _atom_site_fract_y
 _atom_site_fract_z
 _atom_site_occupancy
  Y  Y0  1  0.37500000  0.12500000  0.25000000  1
  Y  Y1  1  0.12500000  0.37500000  0.75000000  1
  Y  Y2  1  0.37500000  0.75000000  0.12500000  1
  Y  Y3  1  0.12500000  0.25000000  0.37500000  1
  Y  Y4  1  0.25000000  0.37500000  0.12500000  1
  Y  Y5  1  0.75000000  0.12500000  0.37500000  1
  Y  Y6  1  0.87500000  0.75000000  0.62500000  1
  Y  Y7  1  0.87500000  0.62500000  0.25000000  1
  Y  Y8  1  0.62500000  0.87500000  0.75000000  1
  Y  Y9  1  0.75000000  0.62500000  0.87500000  1
  Y  Y10  1  0.25000000  0.87500000  0.62500000  1
  Y  Y11  1  0.62500000  0.25000000  0.87500000  1
  Sc  Sc0  1  0.50000000  0.00000000  0.00000000  1
  Sc  Sc1  1  0.00000000  0.50000000  0.00000000  1
  Sc  Sc2  1  0.00000000  0.00000000  0.50000000  1
  Sc  Sc3  1  0.50000000  0.50000000  0.00000000  1
  Sc  Sc4  1  0.50000000  0.50000000  0.50000000  1
  Sc  Sc5  1  0.00000000  0.50000000  0.50000000  1
  Sc  Sc6  1  0.50000000  0.00000000  0.50000000  1
  Sc  Sc7  1  0.00000000  0.00000000  0.00000000  1
  Al  Al0  1  0.12500000  0.75000000  0.87500000  1
  Al  Al1  1  0.87500000  0.25000000  0.12500000  1
  Al  Al2  1  0.62500000  0.37500000  0.25000000  1
  Al  Al3  1  0.75000000  0.87500000  0.12500000  1
  Al  Al4  1  0.87500000  0.12500000  0.75000000  1
  Al  Al5  1  0.25000000  0.62500000  0.37500000  1
  Al  Al6  1  0.75000000  0.37500000  0.62500000  1
  Al  Al7  1  0.25000000  0.12500000  0.87500000  1
  Al  Al8  1  0.12500000  0.87500000  0.25000000  1
  Al  Al9  1  0.37500000  0.25000000  0.62500000  1
  Al  Al10  1  0.62500000  0.75000000  0.37500000  1
  Al  Al11  1  0.37500000  0.62500000  0.75000000  1
  O  O0  1  0.47481200  0.37455900  0.28671600  1
  O  O1  1  0.31190500  0.89974700  0.02518800  1
  O  O2  1  0.60025300  0.91215800  0.12544100  1
  O  O3  1  0.58784200  0.18809500  0.21328400  1
  O  O4  1  0.12544100  0.02518800  0.21328400  1
  O  O5  1  0.18809500  0.21328400  0.58784200  1
  O  O6  1  0.18809500  0.47481200  0.60025300  1
  O  O7  1  0.21328400  0.58784200  0.18809500  1
  O  O8  1  0.37455900  0.58784200  0.89974700  1
  O  O9  1  0.91215800  0.28671600  0.31190500  1
  O  O10  1  0.28671600  0.31190500  0.91215800  1
  O  O11  1  0.21328400  0.12544100  0.02518800  1
  O  O12  1  0.47481200  0.60025300  0.18809500  1
  O  O13  1  0.89974700  0.37455900  0.58784200  1
  O  O14  1  0.02518800  0.21328400  0.12544100  1
  O  O15  1  0.60025300  0.18809500  0.47481200  1
  O  O16  1  0.58784200  0.89974700  0.37455900  1
  O  O17  1  0.02518800  0.31190500  0.89974700  1
  O  O18  1  0.91215800  0.12544100  0.60025300  1
  O  O19  1  0.62544100  0.41215800  0.10025300  1
  O  O20  1  0.12544100  0.60025300  0.91215800  1
  O  O21  1  0.28671600  0.47481200  0.37455900  1
  O  O22  1  0.89974700  0.02518800  0.31190500  1
  O  O23  1  0.31190500  0.91215800  0.28671600  1
  O  O24  1  0.52518800  0.62544100  0.71328400  1
  O  O25  1  0.68809500  0.10025300  0.97481200  1
  O  O26  1  0.39974700  0.08784200  0.87455900  1
  O  O27  1  0.41215800  0.81190500  0.78671600  1
  O  O28  1  0.87455900  0.97481200  0.78671600  1
  O  O29  1  0.81190500  0.78671600  0.41215800  1
  O  O30  1  0.81190500  0.52518800  0.39974700  1
  O  O31  1  0.78671600  0.41215800  0.81190500  1
  O  O32  1  0.68809500  0.08784200  0.71328400  1
  O  O33  1  0.10025300  0.97481200  0.68809500  1
  O  O34  1  0.71328400  0.52518800  0.62544100  1
  O  O35  1  0.62544100  0.71328400  0.52518800  1
  O  O36  1  0.87455900  0.39974700  0.08784200  1
  O  O37  1  0.08784200  0.87455900  0.39974700  1
  O  O38  1  0.97481200  0.68809500  0.10025300  1
  O  O39  1  0.41215800  0.10025300  0.62544100  1
  O  O40  1  0.39974700  0.81190500  0.52518800  1
  O  O41  1  0.97481200  0.78671600  0.87455900  1
  O  O42  1  0.10025300  0.62544100  0.41215800  1
  O  O43  1  0.52518800  0.39974700  0.81190500  1
  O  O44  1  0.78671600  0.87455900  0.97481200  1
  O  O45  1  0.71328400  0.68809500  0.08784200  1
  O  O46  1  0.08784200  0.71328400  0.68809500  1
  O  O47  1  0.37455900  0.28671600  0.47481200  1
loop_
_geom_bond_atom_site_label_1
_geom_bond_atom_site_label_2
_geom_bond_distance
_geom_bond_site_symmetry_2
Al0 O41 1.789115 1_455
Al0 O1 1.789120 1_556
Al0 O20 1.789120 1_555
Al0 O46 1.789123 1_555
Al1 O14 1.789115 1_655
Al1 O25 1.789120 1_554
Al1 O36 1.789120 1_555
Al1 O9 1.789123 1_555
Al2 O0 1.789115 1_555
Al2 O30 1.789120 1_555
Al2 O19 1.789120 1_555
Al2 O3 1.789123 1_555
Al3 O44 1.789115 1_554
Al3 O2 1.789120 1_555
Al3 O22 1.789120 1_565
Al3 O45 1.789123 1_555
Al4 O28 1.789115 1_545
Al4 O17 1.789120 1_655
Al4 O18 1.789120 1_555
Al4 O32 1.789123 1_555
Al5 O21 1.789115 1_555
Al5 O40 1.789120 1_555
Al5 O42 1.789120 1_555
Al5 O7 1.789123 1_555
Al6 O34 1.789115 1_555
Al6 O13 1.789120 1_555
Al6 O15 1.789120 1_555
Al6 O31 1.789123 1_555
Al7 O11 1.789115 1_556
Al7 O33 1.789120 1_545
Al7 O26 1.789120 1_555
Al7 O10 1.789123 1_555
Al8 O4 1.789115 1_565
Al8 O38 1.789120 1_455
Al8 O37 1.789120 1_555
Al8 O23 1.789123 1_555
Al9 O47 1.789115 1_555
Al9 O43 1.789120 1_555
Al9 O39 1.789120 1_555
Al9 O5 1.789123 1_555
Al10 O35 1.789115 1_555
Al10 O16 1.789120 1_555
Al10 O12 1.789120 1_555
Al10 O29 1.789123 1_555
Al11 O24 1.789115 1_555
Al11 O6 1.789120 1_555
Al11 O8 1.789120 1_555
Al11 O27 1.789123 1_555
O0 Sc4 2.110564 1_555
O0 Y0 2.372277 1_555
O0 Y4 2.471511 1_555
O1 Sc0 2.110555 1_565
O1 Y2 2.372273 1_555
O1 Y0 2.471515 1_565
O2 Sc0 2.110555 1_565
O2 Y5 2.372273 1_565
O2 Y2 2.471515 1_555
O3 Sc0 2.110562 1_555
O3 Y0 2.372267 1_555
O3 Y5 2.471509 1_555
O4 Sc7 2.110564 1_555
O4 Y0 2.372277 1_555
O4 Y3 2.471511 1_555
O5 Sc2 2.110562 1_555
O5 Y3 2.372267 1_555
O5 Y1 2.471509 1_555
O6 Sc5 2.110555 1_555
O6 Y1 2.372273 1_555
O6 Y3 2.471515 1_555
O7 Sc1 2.110562 1_555
O7 Y4 2.372267 1_555
O7 Y2 2.471509 1_555
O8 Sc3 2.110555 1_556
O8 Y1 2.372273 1_555
O8 Y2 2.471515 1_556
O9 Sc5 2.110562 1_655
O9 Y3 2.372267 1_655
O9 Y5 2.471509 1_555
O10 Sc3 2.110562 1_556
O10 Y4 2.372267 1_556
O10 Y1 2.471509 1_555
O11 Sc7 2.110564 1_555
O11 Y4 2.372277 1_555
O11 Y0 2.471511 1_555
O12 Sc3 2.110555 1_555
O12 Y2 2.372273 1_555
O12 Y4 2.471515 1_555
O13 Sc5 2.110555 1_655
O13 Y5 2.372273 1_555
O13 Y1 2.471515 1_655
O14 Sc7 2.110564 1_555
O14 Y3 2.372277 1_555
O14 Y4 2.471511 1_555
O15 Sc6 2.110555 1_555
O15 Y5 2.372273 1_555
O15 Y0 2.471515 1_555
O16 Sc6 2.110555 1_565
O16 Y2 2.372273 1_555
O16 Y5 2.471515 1_565
O17 Sc1 2.110555 1_556
O17 Y1 2.372273 1_555
O17 Y4 2.471515 1_556
O18 Sc2 2.110555 1_655
O18 Y1 2.372273 1_655
O18 Y5 2.471515 1_555
O19 Sc3 2.110555 1_555
O19 Y7 2.372273 1_555
O19 Y11 2.471515 1_554
O20 Sc1 2.110555 1_556
O20 Y2 2.372273 1_556
O20 Y1 2.471515 1_555
O21 Sc4 2.110564 1_555
O21 Y4 2.372277 1_555
O21 Y3 2.471511 1_555
O22 Sc2 2.110555 1_655
O22 Y5 2.372273 1_555
O22 Y3 2.471515 1_655
O23 Sc6 2.110562 1_565
O23 Y0 2.372267 1_565
O23 Y2 2.471509 1_555
O24 Sc4 2.110564 1_555
O24 Y8 2.372277 1_555
O24 Y9 2.471511 1_555
O25 Sc0 2.110555 1_556
O25 Y11 2.372273 1_555
O25 Y8 2.471515 1_545
O26 Sc0 2.110555 1_556
O26 Y10 2.372273 1_545
O26 Y11 2.471515 1_555
O27 Sc0 2.110562 1_566
O27 Y8 2.372267 1_555
O27 Y10 2.471509 1_555
O28 Sc7 2.110564 1_666
O28 Y8 2.372277 1_555
O28 Y6 2.471511 1_555
O29 Sc2 2.110562 1_665
O29 Y6 2.372267 1_555
O29 Y7 2.471509 1_555
O30 Sc5 2.110555 1_655
O30 Y7 2.372273 1_555
O30 Y6 2.471515 1_555
O31 Sc1 2.110562 1_656
O31 Y9 2.372267 1_555
O31 Y11 2.471509 1_555
O32 Sc6 2.110562 1_555
O32 Y8 2.372267 1_545
O32 Y11 2.471509 1_555
O33 Sc2 2.110555 1_565
O33 Y10 2.372273 1_555
O33 Y6 2.471515 1_455
O34 Sc4 2.110564 1_555
O34 Y9 2.372277 1_555
O34 Y6 2.471511 1_555
O35 Sc4 2.110564 1_555
O35 Y6 2.372277 1_555
O35 Y8 2.471511 1_555
O36 Sc1 2.110555 1_655
O36 Y11 2.372273 1_554
O36 Y7 2.471515 1_555
O37 Sc2 2.110555 1_565
O37 Y7 2.372273 1_455
O37 Y10 2.471515 1_555
O38 Sc1 2.110555 1_655
O38 Y7 2.372273 1_555
O38 Y9 2.471515 1_554
O39 Sc6 2.110555 1_555
O39 Y11 2.372273 1_555
O39 Y10 2.471515 1_545
O40 Sc6 2.110555 1_565
O40 Y10 2.372273 1_555
O40 Y8 2.471515 1_555
O41 Sc7 2.110564 1_666
O41 Y6 2.372277 1_555
O41 Y9 2.471511 1_555
O42 Sc5 2.110555 1_555
O42 Y10 2.372273 1_555
O42 Y7 2.471515 1_455
O43 Sc3 2.110555 1_556
O43 Y11 2.372273 1_555
O43 Y9 2.471515 1_555
O44 Sc7 2.110564 1_666
O44 Y9 2.372277 1_555
O44 Y8 2.471511 1_555
O45 Sc3 2.110562 1_555
O45 Y9 2.372267 1_554
O45 Y7 2.471509 1_555
O46 Sc5 2.110562 1_555
O46 Y6 2.372267 1_455
O46 Y10 2.471509 1_555
O47 Sc4 2.110564 1_555
O47 Y3 2.372277 1_555
O47 Y0 2.471511 1_555
