# generated using pymatgen
data_K3In(PO4)2
_symmetry_space_group_name_H-M   'P 1'
_cell_length_a   9.79446165
_cell_length_b   9.79446165
_cell_length_c   9.95631444
_cell_angle_alpha   89.81397134
_cell_angle_beta   89.81397134
_cell_angle_gamma   71.26543820
_symmetry_Int_Tables_number   1
_chemical_formula_structural   K3In(PO4)2
_chemical_formula_sum   'K12 In4 P8 O32'
_cell_volume   904.51113851
_cell_formula_units_Z   4
loop_
 _symmetry_equiv_pos_site_id
 _symmetry_equiv_pos_as_xyz
  1  'x, y, z'
loop_
 _atom_site_type_symbol
 _atom_site_label
 _atom_site_symmetry_multiplicity
 _atom_site_fract_x
 _atom_site_fract_y
 _atom_site_fract_z
 _atom_site_occupancy
  K  K0  1  0.35999600  0.64000400  0.25000000  1
  K  K1  1  0.64000400  0.35999600  0.75000000  1
  K  K2  1  0.13200400  0.35937200  0.29336600  1
  K  K3  1  0.64062800  0.86799600  0.20663400  1
  K  K4  1  0.86799600  0.64062800  0.70663400  1
  K  K5  1  0.35937200  0.13200400  0.79336600  1
  K  K6  1  0.89479600  0.10520400  0.25000000  1
  K  K7  1  0.10520400  0.89479600  0.75000000  1
  K  K8  1  0.51481100  0.30372000  0.09099800  1
  K  K9  1  0.69628000  0.48518900  0.40900200  1
  K  K10  1  0.48518900  0.69628000  0.90900200  1
  K  K11  1  0.30372000  0.51481100  0.59099800  1
  In  In0  1  0.01336400  0.73580500  0.07475400  1
  In  In1  1  0.26419500  0.98663600  0.42524600  1
  In  In2  1  0.98663600  0.26419500  0.92524600  1
  In  In3  1  0.73580500  0.01336400  0.57475400  1
  P  P0  1  0.49798900  0.20300200  0.42764600  1
  P  P1  1  0.79699800  0.50201100  0.07235400  1
  P  P2  1  0.50201100  0.79699800  0.57235400  1
  P  P3  1  0.20300200  0.49798900  0.92764600  1
  P  P4  1  0.96263300  0.23592600  0.58389000  1
  P  P5  1  0.76407400  0.03736700  0.91611000  1
  P  P6  1  0.03736700  0.76407400  0.41611000  1
  P  P7  1  0.23592600  0.96263300  0.08389000  1
  O  O0  1  0.64208500  0.09349800  0.37007400  1
  O  O1  1  0.90650200  0.35791500  0.12992600  1
  O  O2  1  0.35791500  0.90650200  0.62992600  1
  O  O3  1  0.09349800  0.64208500  0.87007400  1
  O  O4  1  0.02716100  0.18090100  0.72460000  1
  O  O5  1  0.81909900  0.97283900  0.77540000  1
  O  O6  1  0.97283900  0.81909900  0.27540000  1
  O  O7  1  0.18090100  0.02716100  0.22460000  1
  O  O8  1  0.46732400  0.35614200  0.36976600  1
  O  O9  1  0.64385800  0.53267600  0.13023400  1
  O  O10  1  0.53267600  0.64385800  0.63023400  1
  O  O11  1  0.35614200  0.46732400  0.86976600  1
  O  O12  1  0.36875600  0.14970300  0.39411400  1
  O  O13  1  0.85029700  0.63124400  0.10588600  1
  O  O14  1  0.63124400  0.85029700  0.60588600  1
  O  O15  1  0.14970300  0.36875600  0.89411400  1
  O  O16  1  0.91281200  0.39981900  0.57417300  1
  O  O17  1  0.60018100  0.08718800  0.92582700  1
  O  O18  1  0.08718800  0.60018100  0.42582700  1
  O  O19  1  0.39981900  0.91281200  0.07417300  1
  O  O20  1  0.52377800  0.20070600  0.58450700  1
  O  O21  1  0.79929400  0.47622200  0.91549300  1
  O  O22  1  0.47622200  0.79929400  0.41549300  1
  O  O23  1  0.20070600  0.52377800  0.08450700  1
  O  O24  1  0.82832900  0.18647000  0.55296200  1
  O  O25  1  0.81353000  0.17167100  0.94703800  1
  O  O26  1  0.17167100  0.81353000  0.44703800  1
  O  O27  1  0.18647000  0.82832900  0.05296200  1
  O  O28  1  0.08001300  0.16561700  0.47624000  1
  O  O29  1  0.83438300  0.91998700  0.02376000  1
  O  O30  1  0.91998700  0.83438300  0.52376000  1
  O  O31  1  0.16561700  0.08001300  0.97624000  1
loop_
_geom_bond_atom_site_label_1
_geom_bond_atom_site_label_2
_geom_bond_distance
_geom_bond_site_symmetry_2
K0 O22 2.759465 1_555
K0 O23 2.759465 1_555
K0 O27 2.850237 1_555
K0 O26 2.850237 1_555
K0 O8 2.892413 1_555
K0 O9 2.892413 1_555
K1 O21 2.759465 1_555
K1 O20 2.759465 1_555
K1 O25 2.850237 1_555
K1 O24 2.850237 1_555
K1 O11 2.892413 1_555
K1 O10 2.892413 1_555
K2 O18 2.616550 1_555
K2 O12 2.746506 1_555
K2 O1 2.751389 1_455
K2 O28 2.787133 1_555
K2 O23 2.834633 1_555
K3 O19 2.616550 1_555
K3 O13 2.746506 1_555
K3 O0 2.751389 1_565
K3 O29 2.787133 1_555
K3 O22 2.834633 1_555
K4 O16 2.616550 1_555
K4 O14 2.746506 1_555
K4 O3 2.751389 1_655
K4 O30 2.787133 1_555
K4 O21 2.834633 1_555
K5 O17 2.616550 1_555
K5 O15 2.746506 1_555
K5 O2 2.751389 1_545
K5 O31 2.787133 1_555
K5 O20 2.834633 1_555
K6 O6 2.668617 1_545
K6 O7 2.668617 1_655
K6 O0 2.780468 1_555
K6 O1 2.780468 1_555
K6 O28 3.072400 1_655
K6 O29 3.072400 1_545
K6 O24 3.134632 1_555
K6 O25 3.134632 1_554
K7 O4 2.668617 1_565
K7 O5 2.668617 1_455
K7 O2 2.780468 1_555
K7 O3 2.780468 1_555
K7 O30 3.072400 1_455
K7 O31 3.072400 1_565
K7 O27 3.134632 1_556
K7 O26 3.134632 1_555
K8 O17 2.603067 1_554
K8 O8 2.833872 1_555
K8 O11 2.869531 1_554
K8 O9 2.934041 1_555
K8 O25 3.137105 1_554
K8 O23 3.139330 1_555
K9 O16 2.603067 1_555
K9 O9 2.833872 1_555
K9 O10 2.869531 1_555
K9 O8 2.934041 1_555
K9 O24 3.137105 1_555
K9 O22 3.139330 1_555
K10 O19 2.603067 1_556
K10 O10 2.833872 1_555
K10 O9 2.869531 1_556
K10 O11 2.934041 1_555
K10 O27 3.137105 1_556
K10 O21 3.139330 1_555
K11 O18 2.603067 1_555
K11 O11 2.833872 1_555
K11 O8 2.869531 1_555
K11 O10 2.934041 1_555
K11 O26 3.137105 1_555
K11 O20 3.139330 1_555
In0 O29 2.133907 1_455
In0 O6 2.147398 1_455
In0 O27 2.174003 1_555
In0 O13 2.177435 1_455
In0 O3 2.269461 1_554
In0 O23 2.289334 1_555
In1 O28 2.133907 1_565
In1 O7 2.147398 1_565
In1 O26 2.174003 1_555
In1 O12 2.177435 1_565
In1 O2 2.269461 1_555
In1 O22 2.289334 1_555
In2 O31 2.133907 1_655
In2 O4 2.147398 1_655
In2 O25 2.174003 1_555
In2 O15 2.177435 1_655
In2 O1 2.269461 1_556
In2 O21 2.289334 1_555
In3 O30 2.133907 1_545
In3 O5 2.147398 1_545
In3 O24 2.174003 1_555
In3 O14 2.177435 1_545
In3 O0 2.269461 1_555
In3 O20 2.289334 1_555
O0 P0 1.580240 1_555
O1 P1 1.580240 1_555
O2 P2 1.580240 1_555
O3 P3 1.580240 1_555
O4 P4 1.560325 1_455
O5 P5 1.560325 1_565
O6 P6 1.560325 1_655
O7 P7 1.560325 1_545
O8 P0 1.542139 1_555
O9 P1 1.542139 1_555
O10 P2 1.542139 1_555
O11 P3 1.542139 1_555
O12 P0 1.553861 1_555
O13 P1 1.553861 1_555
O14 P2 1.553861 1_555
O15 P3 1.553861 1_555
O16 P4 1.523288 1_555
O17 P5 1.523288 1_555
O18 P6 1.523288 1_555
O19 P7 1.523288 1_555
O20 P0 1.581796 1_555
O21 P1 1.581796 1_556
O22 P2 1.581796 1_555
O23 P3 1.581796 1_554
O24 P4 1.572494 1_555
O25 P5 1.572494 1_555
O26 P6 1.572494 1_555
O27 P7 1.572494 1_555
O28 P4 1.559790 1_455
O29 P5 1.559790 1_564
O30 P6 1.559790 1_655
O31 P7 1.559790 1_546
