# generated using pymatgen
data_Sr3NiN3
_symmetry_space_group_name_H-M   'P 1'
_cell_length_a   7.54211463
_cell_length_b   7.54072142
_cell_length_c   5.38398795
_cell_angle_alpha   90.00000000
_cell_angle_beta   90.00000000
_cell_angle_gamma   119.98842758
_symmetry_Int_Tables_number   1
_chemical_formula_structural   Sr3NiN3
_chemical_formula_sum   'Sr6 Ni2 N6'
_cell_volume   265.21089947
_cell_formula_units_Z   2
loop_
 _symmetry_equiv_pos_site_id
 _symmetry_equiv_pos_as_xyz
  1  'x, y, z'
loop_
 _atom_site_type_symbol
 _atom_site_label
 _atom_site_symmetry_multiplicity
 _atom_site_fract_x
 _atom_site_fract_y
 _atom_site_fract_z
 _atom_site_occupancy
  Sr  Sr0  1  0.91622161  0.63610465  0.25000000  1
  Sr  Sr1  1  0.71982861  0.08375868  0.25000000  1
  Sr  Sr2  1  0.36385924  0.28005429  0.25000000  1
  Sr  Sr3  1  0.08377839  0.36389535  0.75000000  1
  Sr  Sr4  1  0.28017139  0.91624132  0.75000000  1
  Sr  Sr5  1  0.63614076  0.71994571  0.75000000  1
  Ni  Ni0  1  0.66670263  0.33335953  0.75000000  1
  Ni  Ni1  1  0.33329737  0.66664047  0.25000000  1
  N  N0  1  0.89093119  0.58462498  0.75000000  1
  N  N1  1  0.69373295  0.10914763  0.75000000  1
  N  N2  1  0.41536500  0.30621834  0.75000000  1
  N  N3  1  0.10906881  0.41537502  0.25000000  1
  N  N4  1  0.30626705  0.89085237  0.25000000  1
  N  N5  1  0.58463500  0.69378166  0.25000000  1
loop_
_geom_bond_atom_site_label_1
_geom_bond_atom_site_label_2
_geom_bond_distance
_geom_bond_site_symmetry_2
N0 Ni0 1.801897 1_555
N0 Sr5 2.587320 1_555
N0 Sr3 2.702961 1_655
N0 Sr0 2.712912 1_556
N0 Sr0 2.712912 1_555
N0 Sr4 2.744618 1_655
N1 Ni0 1.801292 1_555
N1 Sr3 2.587482 1_655
N1 Sr4 2.703575 1_545
N1 Sr1 2.712912 1_555
N1 Sr1 2.712912 1_556
N1 Sr5 2.743672 1_545
N2 Ni0 1.802061 1_555
N2 Sr4 2.586505 1_545
N2 Sr5 2.704212 1_555
N2 Sr2 2.712940 1_556
N2 Sr2 2.712940 1_555
N2 Sr3 2.744229 1_555
N3 Ni1 1.801897 1_555
N3 Sr2 2.587320 1_555
N3 Sr0 2.702961 1_455
N3 Sr3 2.712912 1_554
N3 Sr3 2.712912 1_555
N3 Sr1 2.744618 1_455
N4 Ni1 1.801292 1_555
N4 Sr0 2.587482 1_455
N4 Sr1 2.703575 1_565
N4 Sr4 2.712912 1_554
N4 Sr4 2.712912 1_555
N4 Sr2 2.743672 1_565
N5 Ni1 1.802061 1_555
N5 Sr1 2.586505 1_565
N5 Sr2 2.704212 1_555
N5 Sr5 2.712940 1_555
N5 Sr5 2.712940 1_554
N5 Sr0 2.744229 1_555
