# generated using pymatgen
data_LiCo3(OF3)2
_symmetry_space_group_name_H-M   'P 1'
_cell_length_a   4.60274404
_cell_length_b   5.53547419
_cell_length_c   10.22587597
_cell_angle_alpha   97.20808163
_cell_angle_beta   89.98563340
_cell_angle_gamma   90.00703903
_symmetry_Int_Tables_number   1
_chemical_formula_structural   LiCo3(OF3)2
_chemical_formula_sum   'Li2 Co6 O4 F12'
_cell_volume   258.47961761
_cell_formula_units_Z   2
loop_
 _symmetry_equiv_pos_site_id
 _symmetry_equiv_pos_as_xyz
  1  'x, y, z'
loop_
 _atom_site_type_symbol
 _atom_site_label
 _atom_site_symmetry_multiplicity
 _atom_site_fract_x
 _atom_site_fract_y
 _atom_site_fract_z
 _atom_site_occupancy
  Li  Li0  1  0.99912700  0.99903600  0.99980700  1
  Li  Li1  1  0.50053600  0.99893200  0.49947500  1
  Co  Co0  1  0.00869900  0.49690900  0.49526200  1
  Co  Co1  1  0.52960300  0.73446700  0.74429900  1
  Co  Co2  1  0.02541100  0.26850800  0.75468900  1
  Co  Co3  1  0.49135900  0.49686800  0.99535200  1
  Co  Co4  1  0.97036500  0.73448100  0.24431300  1
  Co  Co5  1  0.47468700  0.26854700  0.25458700  1
  O  O0  1  0.68784500  0.52750600  0.17062500  1
  O  O1  1  0.19014400  0.46907100  0.33358600  1
  O  O2  1  0.81213300  0.52765900  0.67066000  1
  O  O3  1  0.30974100  0.46915200  0.83351700  1
  F  F0  1  0.19079800  0.72706400  0.07742500  1
  F  F1  1  0.68874700  0.27644600  0.42347700  1
  F  F2  1  0.30925000  0.72709600  0.57743600  1
  F  F3  1  0.81140100  0.27654100  0.92366500  1
  F  F4  1  0.29992600  0.22704700  0.07587600  1
  F  F5  1  0.80234200  0.77296500  0.42532100  1
  F  F6  1  0.20021000  0.22697100  0.57585100  1
  F  F7  1  0.69788700  0.77274000  0.92519800  1
  F  F8  1  0.77562100  0.03284700  0.18299100  1
  F  F9  1  0.27555000  0.96814200  0.31678200  1
  F  F10  1  0.72423800  0.03290000  0.68303900  1
  F  F11  1  0.22438100  0.96810400  0.81676900  1
loop_
_geom_bond_atom_site_label_1
_geom_bond_atom_site_label_2
_geom_bond_distance
_geom_bond_site_symmetry_2
Co0 O1 1.841182 1_555
Co0 F1 1.993028 1_455
Co0 F2 1.993695 1_555
Co0 O2 1.996782 1_455
Co0 F6 1.999642 1_555
Co0 F5 2.005919 1_455
Co1 O2 1.830898 1_555
Co1 F2 1.981222 1_555
Co1 F11 1.988675 1_555
Co1 F7 1.992265 1_555
Co1 F10 2.045245 1_565
Co1 O3 2.085368 1_555
Co2 O3 1.836173 1_555
Co2 F10 1.979811 1_455
Co2 F3 1.984409 1_455
Co2 F6 1.984536 1_555
Co2 O2 2.017415 1_455
Co2 F11 2.066989 1_545
Co3 O3 1.843364 1_555
Co3 F3 1.992566 1_555
Co3 F0 1.993329 1_556
Co3 O0 1.995886 1_556
Co3 F4 1.998286 1_556
Co3 F7 2.006108 1_555
Co4 O0 1.831631 1_555
Co4 F0 1.981175 1_655
Co4 F9 1.988670 1_655
Co4 F5 1.992466 1_555
Co4 F8 2.045725 1_565
Co4 O1 2.086275 1_655
Co5 O1 1.837049 1_555
Co5 F8 1.979161 1_555
Co5 F4 1.983636 1_555
Co5 F1 1.984249 1_555
Co5 O0 2.015600 1_555
Co5 F9 2.067492 1_545
F0 Li0 1.993823 1_454
F1 Li1 2.003286 1_545
F2 Li1 1.993826 1_555
F3 Li0 2.003326 1_545
F4 Li0 1.966896 1_444
F5 Li1 1.957336 1_555
F6 Li1 1.966391 1_545
F7 Li0 1.958052 1_555
F8 Li0 2.124472 1_544
F9 Li1 2.124288 1_555
F10 Li1 2.128705 1_545
F11 Li0 2.127496 1_455
