# generated using pymatgen
data_SrPb2I6O7
_symmetry_space_group_name_H-M   'P 1'
_cell_length_a   10.47471191
_cell_length_b   10.47471191
_cell_length_c   10.47471191
_cell_angle_alpha   114.15626600
_cell_angle_beta   114.15626600
_cell_angle_gamma   100.45985888
_symmetry_Int_Tables_number   1
_chemical_formula_structural   SrPb2I6O7
_chemical_formula_sum   'Sr2 Pb4 I12 O14'
_cell_volume   868.67855181
_cell_formula_units_Z   2
loop_
 _symmetry_equiv_pos_site_id
 _symmetry_equiv_pos_as_xyz
  1  'x, y, z'
loop_
 _atom_site_type_symbol
 _atom_site_label
 _atom_site_symmetry_multiplicity
 _atom_site_fract_x
 _atom_site_fract_y
 _atom_site_fract_z
 _atom_site_occupancy
  Sr  Sr0  1  0.75000000  0.25000000  0.50000000  1
  Sr  Sr1  1  0.00000000  0.00000000  0.00000000  1
  Pb  Pb0  1  0.37500000  0.12500000  0.75000000  1
  Pb  Pb1  1  0.37500000  0.62500000  0.25000000  1
  Pb  Pb2  1  0.87500000  0.62500000  0.25000000  1
  Pb  Pb3  1  0.37500000  0.62500000  0.75000000  1
  I  I0  1  0.07153800  0.57153800  0.50000000  1
  I  I1  1  0.67846200  0.67846200  0.00000000  1
  I  I2  1  0.42846200  0.92846200  0.50000000  1
  I  I3  1  0.32153800  0.32153800  0.00000000  1
  I  I4  1  0.54759100  0.45240900  0.50000000  1
  I  I5  1  0.95240900  0.04759100  0.50000000  1
  I  I6  1  0.79759100  0.20240900  0.00000000  1
  I  I7  1  0.20240900  0.79759100  0.00000000  1
  I  I8  1  0.54759100  0.04759100  0.09518200  1
  I  I9  1  0.95240900  0.45240900  0.90481800  1
  I  I10  1  0.79759100  0.79759100  0.59518200  1
  I  I11  1  0.20240900  0.20240900  0.40481800  1
  O  O0  1  0.93079000  0.43079000  0.50000000  1
  O  O1  1  0.81921000  0.81921000  0.00000000  1
  O  O2  1  0.56921000  0.06921000  0.50000000  1
  O  O3  1  0.18079000  0.18079000  0.00000000  1
  O  O4  1  0.53893600  0.25537600  0.28356000  1
  O  O5  1  0.97181600  0.25537600  0.71644000  1
  O  O6  1  0.77818400  0.99462400  0.78356000  1
  O  O7  1  0.21106400  0.99462400  0.21644000  1
  O  O8  1  0.74462400  0.46106400  0.71644000  1
  O  O9  1  0.74462400  0.02818400  0.28356000  1
  O  O10  1  0.00537600  0.22181600  0.21644000  1
  O  O11  1  0.00537600  0.78893600  0.78356000  1
  O  O12  1  0.25000000  0.75000000  0.50000000  1
  O  O13  1  0.50000000  0.50000000  0.00000000  1
loop_
_geom_bond_atom_site_label_1
_geom_bond_atom_site_label_2
_geom_bond_distance
_geom_bond_site_symmetry_2
I0 O0 1.886237 1_455
I0 O12 2.391662 1_555
I0 Pb2 2.935261 1_455
I0 Pb3 2.935261 1_555
I1 O1 1.886237 1_555
I1 O13 2.391662 1_555
I1 Pb2 2.935261 1_555
I1 Pb3 2.935261 1_554
I2 O2 1.886237 1_565
I2 O12 2.391662 1_555
I2 Pb0 2.935261 1_565
I2 Pb1 2.935261 1_555
I3 O3 1.886237 1_555
I3 O13 2.391662 1_555
I3 Pb1 2.935261 1_555
I3 Pb0 2.935261 1_554
I4 O4 2.311263 1_555
I4 O8 2.311263 1_555
I5 O9 2.311263 1_555
I5 O5 2.311263 1_555
I6 O6 2.311263 1_544
I6 O10 2.311263 1_655
I7 O7 2.311263 1_555
I7 O11 2.311263 1_554
I8 O4 2.311263 1_555
I8 O9 2.311263 1_555
I9 O5 2.311263 1_555
I9 O8 2.311263 1_555
I10 O6 2.311263 1_555
I10 O11 2.311263 1_655
I11 O10 2.311263 1_555
I11 O7 2.311263 1_545
O0 Sr0 2.422861 1_555
O1 Sr1 2.422861 1_665
O2 Sr0 2.422861 1_555
O3 Sr1 2.422861 1_555
O4 Sr0 2.465418 1_555
O5 Sr0 2.465418 1_555
O6 Sr1 2.465418 1_666
O7 Sr1 2.465418 1_565
O8 Sr0 2.465418 1_555
O9 Sr0 2.465418 1_555
O10 Sr1 2.465418 1_555
O11 Sr1 2.465418 1_566
