# generated using pymatgen
data_TbSn3
_symmetry_space_group_name_H-M   'P 1'
_cell_length_a   11.32186566
_cell_length_b   11.32186566
_cell_length_c   4.46598200
_cell_angle_alpha   90.00000000
_cell_angle_beta   90.00000000
_cell_angle_gamma   157.40064943
_symmetry_Int_Tables_number   1
_chemical_formula_structural   TbSn3
_chemical_formula_sum   'Tb2 Sn6'
_cell_volume   219.99166957
_cell_formula_units_Z   2
loop_
 _symmetry_equiv_pos_site_id
 _symmetry_equiv_pos_as_xyz
  1  'x, y, z'
loop_
 _atom_site_type_symbol
 _atom_site_label
 _atom_site_symmetry_multiplicity
 _atom_site_fract_x
 _atom_site_fract_y
 _atom_site_fract_z
 _atom_site_occupancy
  Tb  Tb0  1  0.48267000  0.51733000  0.50000000  1
  Tb  Tb1  1  0.21372600  0.78627400  0.00000000  1
  Sn  Sn0  1  0.10005100  0.89994900  0.50000000  1
  Sn  Sn1  1  0.72787200  0.27212800  0.50000000  1
  Sn  Sn2  1  0.86328300  0.13671700  0.50000000  1
  Sn  Sn3  1  0.97500700  0.02499300  0.00000000  1
  Sn  Sn4  1  0.36393800  0.63606100  0.00000000  1
  Sn  Sn5  1  0.59945300  0.40054700  0.00000000  1
loop_
_geom_bond_atom_site_label_1
_geom_bond_atom_site_label_2
_geom_bond_distance
_geom_bond_site_symmetry_2
Sn0 Sn5 3.147663 1_456
Sn0 Sn5 3.147663 1_566
Sn0 Sn5 3.147663 1_455
Sn0 Sn5 3.147663 1_565
Sn0 Tb1 3.370087 1_555
Sn0 Tb1 3.370087 1_556
Sn0 Tb0 3.422688 1_455
Sn0 Tb0 3.422688 1_565
Sn1 Sn2 3.006774 1_555
Sn1 Tb1 3.163269 1_656
Sn1 Tb1 3.163269 1_655
Sn1 Tb1 3.163269 1_546
Sn1 Tb1 3.163269 1_545
Sn2 Sn4 3.147667 1_656
Sn2 Sn4 3.147667 1_655
Sn2 Sn4 3.147670 1_546
Sn2 Sn4 3.147670 1_545
Sn2 Sn3 3.337763 1_555
Sn2 Sn3 3.337763 1_556
Sn2 Tb0 3.456728 1_545
Sn2 Tb0 3.456728 1_655
Sn3 Tb0 3.152231 1_545
Sn3 Tb0 3.152231 1_544
Sn3 Tb0 3.152231 1_655
Sn3 Tb0 3.152231 1_654
Sn3 Sn4 3.317191 1_655
Sn3 Sn4 3.317194 1_545
Sn4 Tb1 3.335439 1_555
Sn4 Tb0 3.454982 1_555
Sn4 Tb0 3.454982 1_554
Sn5 Tb1 3.370430 1_655
Sn5 Tb1 3.370430 1_545
Sn5 Tb0 3.422081 1_555
Sn5 Tb0 3.422081 1_554
