# generated using pymatgen
data_PrHgPd
_symmetry_space_group_name_H-M   'P 1'
_cell_length_a   7.81219539
_cell_length_b   7.81219539
_cell_length_c   3.95917364
_cell_angle_alpha   90.00000000
_cell_angle_beta   90.00000000
_cell_angle_gamma   119.99999654
_symmetry_Int_Tables_number   1
_chemical_formula_structural   PrHgPd
_chemical_formula_sum   'Pr3 Hg3 Pd3'
_cell_volume   209.25767224
_cell_formula_units_Z   3
loop_
 _symmetry_equiv_pos_site_id
 _symmetry_equiv_pos_as_xyz
  1  'x, y, z'
loop_
 _atom_site_type_symbol
 _atom_site_label
 _atom_site_symmetry_multiplicity
 _atom_site_fract_x
 _atom_site_fract_y
 _atom_site_fract_z
 _atom_site_occupancy
  Pr  Pr0  1  0.39866881  0.39866881  0.50000000  1
  Pr  Pr1  1  0.60133119  -0.00000000  0.50000000  1
  Pr  Pr2  1  -0.00000000  0.60133119  0.50000000  1
  Hg  Hg0  1  0.73644892  0.73644892  -0.00000000  1
  Hg  Hg1  1  0.26355108  -0.00000000  0.00000000  1
  Hg  Hg2  1  -0.00000000  0.26355108  0.00000000  1
  Pd  Pd0  1  0.66666700  0.33333300  -0.00000000  1
  Pd  Pd1  1  0.33333300  0.66666700  -0.00000000  1
  Pd  Pd2  1  0.00000000  0.00000000  0.50000000  1
loop_
_geom_bond_atom_site_label_1
_geom_bond_atom_site_label_2
_geom_bond_distance
_geom_bond_site_symmetry_2
Hg0 Pd2 2.856201 1_665
Hg0 Pd2 2.856201 1_664
Hg0 Pd1 2.915129 1_555
Hg0 Pd0 2.915129 1_555
Hg0 Pr0 3.298796 1_554
Hg0 Pr0 3.298796 1_555
Hg0 Pr2 3.383108 1_654
Hg0 Pr1 3.383108 1_565
Hg0 Pr2 3.383108 1_655
Hg0 Pr1 3.383108 1_564
Hg1 Pd2 2.856201 1_555
Hg1 Pd2 2.856201 1_554
Hg1 Pd1 2.915122 1_545
Hg1 Pd0 2.915127 1_555
Hg1 Pr1 3.298795 1_555
Hg1 Pr1 3.298795 1_554
Hg1 Pr0 3.383109 1_555
Hg1 Pr0 3.383109 1_554
Hg1 Pr2 3.383109 1_544
Hg1 Pr2 3.383109 1_545
Hg2 Pd2 2.856201 1_555
Hg2 Pd2 2.856201 1_554
Hg2 Pd0 2.915122 1_455
Hg2 Pd1 2.915127 1_555
Hg2 Pr2 3.298795 1_554
Hg2 Pr2 3.298795 1_555
Hg2 Pr0 3.383109 1_555
Hg2 Pr0 3.383109 1_554
Hg2 Pr1 3.383109 1_455
Hg2 Pr1 3.383109 1_454
Pd0 Pr1 3.103430 1_555
Pd0 Pr1 3.103430 1_554
Pd0 Pr2 3.103432 1_655
Pd0 Pr2 3.103432 1_654
Pd0 Pr0 3.103435 1_554
Pd0 Pr0 3.103435 1_555
Pd1 Pr2 3.103430 1_554
Pd1 Pr2 3.103430 1_555
Pd1 Pr1 3.103432 1_565
Pd1 Pr1 3.103432 1_564
Pd1 Pr0 3.103435 1_554
Pd1 Pr0 3.103435 1_555
Pd2 Pr2 3.114479 1_545
Pd2 Pr1 3.114479 1_455
Pd2 Pr0 3.114479 1_555
