# generated using pymatgen
data_Mg14TiNb
_symmetry_space_group_name_H-M   'P 1'
_cell_length_a   6.34470272
_cell_length_b   6.34470221
_cell_length_c   9.99252924
_cell_angle_alpha   90.00000000
_cell_angle_beta   90.00000000
_cell_angle_gamma   120.00000264
_symmetry_Int_Tables_number   1
_chemical_formula_structural   Mg14TiNb
_chemical_formula_sum   'Mg14 Ti1 Nb1'
_cell_volume   348.36023066
_cell_formula_units_Z   1
loop_
 _symmetry_equiv_pos_site_id
 _symmetry_equiv_pos_as_xyz
  1  'x, y, z'
loop_
 _atom_site_type_symbol
 _atom_site_label
 _atom_site_symmetry_multiplicity
 _atom_site_fract_x
 _atom_site_fract_y
 _atom_site_fract_z
 _atom_site_occupancy
  Mg  Mg0  1  0.16868879  0.83434389  0.12500000  1
  Mg  Mg1  1  0.16917276  0.83458588  0.62500000  1
  Mg  Mg2  1  0.66565611  0.33131121  0.12500000  1
  Mg  Mg3  1  0.66541412  0.33082724  0.62500000  1
  Mg  Mg4  1  0.66565611  0.83434389  0.12500000  1
  Mg  Mg5  1  0.66541412  0.83458588  0.62500000  1
  Mg  Mg6  1  0.32842231  0.17157769  0.37679062  1
  Mg  Mg7  1  0.32842231  0.17157769  0.87320938  1
  Mg  Mg8  1  0.32842231  0.65684561  0.37679062  1
  Mg  Mg9  1  0.32842231  0.65684561  0.87320938  1
  Mg  Mg10  1  0.84315439  0.17157769  0.37679062  1
  Mg  Mg11  1  0.84315439  0.17157769  0.87320938  1
  Mg  Mg12  1  0.83333300  0.66666700  0.37499752  1
  Mg  Mg13  1  0.83333300  0.66666700  0.87500248  1
  Ti  Ti0  1  0.16666700  0.33333300  0.12500000  1
  Nb  Nb0  1  0.16666700  0.33333300  0.62500000  1
loop_
_geom_bond_atom_site_label_1
_geom_bond_atom_site_label_2
_geom_bond_distance
_geom_bond_site_symmetry_2
Mg0 Mg13 3.104187 1_454
Mg0 Mg12 3.104187 1_455
Mg0 Mg9 3.125234 1_554
Mg0 Mg8 3.125234 1_555
Mg0 Mg7 3.125241 1_564
Mg0 Mg6 3.125241 1_565
Mg0 Mg2 3.153110 1_565
Mg0 Mg4 3.153110 1_555
Mg0 Ti0 3.172371 1_555
Mg0 Ti0 3.172371 1_565
Mg0 Mg2 3.191593 1_455
Mg0 Mg4 3.191593 1_455
Mg1 Mg8 3.095744 1_555
Mg1 Mg9 3.095744 1_555
Mg1 Mg6 3.095751 1_565
Mg1 Mg7 3.095751 1_565
Mg1 Mg12 3.105806 1_455
Mg1 Mg13 3.105806 1_455
Mg1 Mg3 3.148504 1_565
Mg1 Mg5 3.148504 1_555
Mg1 Nb0 3.172381 1_555
Mg1 Nb0 3.172381 1_565
Mg1 Mg3 3.196199 1_455
Mg1 Mg5 3.196199 1_455
Mg2 Mg7 3.125241 1_554
Mg2 Mg6 3.125241 1_555
Mg2 Mg4 3.153110 1_545
Mg2 Ti0 3.172371 1_655
Mg2 Ti0 3.172371 1_555
Mg2 Mg4 3.191593 1_555
Mg3 Mg6 3.095751 1_555
Mg3 Mg7 3.095751 1_555
Mg3 Mg5 3.148504 1_545
Mg3 Nb0 3.172381 1_655
Mg3 Nb0 3.172381 1_555
Mg3 Mg5 3.196199 1_555
Mg4 Mg9 3.125241 1_554
Mg4 Mg8 3.125241 1_555
Mg4 Ti0 3.172371 1_555
Mg4 Ti0 3.172371 1_665
Mg5 Mg8 3.095751 1_555
Mg5 Mg9 3.095751 1_555
Mg5 Nb0 3.172381 1_555
Mg5 Nb0 3.172381 1_665
Mg6 Nb0 3.051458 1_555
Mg6 Mg8 3.078880 1_555
Mg6 Ti0 3.080615 1_555
Mg6 Mg8 3.265822 1_545
Mg7 Nb0 3.051458 1_555
Mg7 Mg9 3.078880 1_555
Mg7 Ti0 3.080615 1_556
Mg7 Mg9 3.265822 1_545
Mg8 Nb0 3.051465 1_555
Mg8 Ti0 3.080622 1_555
Mg9 Nb0 3.051465 1_555
Mg9 Ti0 3.080622 1_556
Mg10 Nb0 3.051465 1_655
Mg10 Mg8 3.078880 1_655
Mg10 Mg6 3.078881 1_655
Mg10 Ti0 3.080622 1_655
Mg10 Mg3 3.095744 1_555
Mg10 Mg5 3.095751 1_545
Mg10 Mg2 3.125234 1_555
Mg10 Mg4 3.125240 1_545
Mg10 Mg12 3.172861 1_545
Mg10 Mg12 3.172861 1_555
Mg10 Mg8 3.265822 1_545
Mg10 Mg6 3.265822 1_555
Mg11 Nb0 3.051465 1_655
Mg11 Mg9 3.078880 1_655
Mg11 Mg7 3.078881 1_655
Mg11 Ti0 3.080622 1_656
Mg11 Mg3 3.095744 1_555
Mg11 Mg5 3.095751 1_545
Mg11 Mg2 3.125234 1_556
Mg11 Mg4 3.125240 1_546
Mg11 Mg13 3.172861 1_545
Mg11 Mg13 3.172861 1_555
Mg11 Mg9 3.265822 1_545
Mg11 Mg7 3.265822 1_555
Mg12 Mg4 3.104180 1_555
Mg12 Mg2 3.104187 1_555
Mg12 Mg5 3.105800 1_555
Mg12 Mg3 3.105806 1_555
Mg12 Mg6 3.172861 1_665
Mg12 Mg6 3.172861 1_555
Mg12 Mg8 3.172861 1_555
Mg12 Mg8 3.172861 1_655
Mg13 Mg4 3.104180 1_556
Mg13 Mg2 3.104187 1_556
Mg13 Mg5 3.105800 1_555
Mg13 Mg3 3.105806 1_555
Mg13 Mg7 3.172861 1_665
Mg13 Mg7 3.172861 1_555
Mg13 Mg9 3.172861 1_555
Mg13 Mg9 3.172861 1_655
