# generated using pymatgen
data_Mn2ZnTe4
_symmetry_space_group_name_H-M   'P 1'
_cell_length_a   8.15325019
_cell_length_b   8.15322080
_cell_length_c   8.15235719
_cell_angle_alpha   60.00354287
_cell_angle_beta   60.00268685
_cell_angle_gamma   59.98910828
_symmetry_Int_Tables_number   1
_chemical_formula_structural   Mn2ZnTe4
_chemical_formula_sum   'Mn4 Zn2 Te8'
_cell_volume   383.18884329
_cell_formula_units_Z   2
loop_
 _symmetry_equiv_pos_site_id
 _symmetry_equiv_pos_as_xyz
  1  'x, y, z'
loop_
 _atom_site_type_symbol
 _atom_site_label
 _atom_site_symmetry_multiplicity
 _atom_site_fract_x
 _atom_site_fract_y
 _atom_site_fract_z
 _atom_site_occupancy
  Mn  Mn0  1  -0.00000000  0.00000000  0.50000000  1
  Mn  Mn1  1  -0.00000000  0.50000000  0.00000000  1
  Mn  Mn2  1  0.50000000  0.00000000  0.00000000  1
  Mn  Mn3  1  -0.00000000  0.00000000  0.00000000  1
  Zn  Zn0  1  0.37500272  0.37498683  0.37500042  1
  Zn  Zn1  1  0.62499728  0.62501317  0.62499958  1
  Te  Te0  1  0.24265721  0.24269602  0.77191890  1
  Te  Te1  1  0.24269645  0.77192924  0.24268878  1
  Te  Te2  1  0.77196261  0.24269526  0.24267241  1
  Te  Te3  1  0.24265850  0.24269257  0.24272842  1
  Te  Te4  1  0.75734279  0.75730398  0.22808110  1
  Te  Te5  1  0.75730355  0.22807076  0.75731122  1
  Te  Te6  1  0.22803739  0.75730474  0.75732759  1
  Te  Te7  1  0.75734150  0.75730743  0.75727158  1
loop_
_geom_bond_atom_site_label_1
_geom_bond_atom_site_label_2
_geom_bond_distance
_geom_bond_site_symmetry_2
Mn0 Te2 2.800421 1_455
Mn0 Te6 2.800421 1_545
Mn0 Te5 2.800468 1_455
Mn0 Te1 2.800468 1_545
Mn0 Te3 2.801039 1_555
Mn0 Te7 2.801039 1_445
Mn1 Te4 2.800475 1_455
Mn1 Te0 2.800475 1_554
Mn1 Te7 2.800527 1_454
Mn1 Te3 2.800527 1_555
Mn1 Te2 2.801002 1_455
Mn1 Te6 2.801002 1_554
Mn2 Te7 2.800687 1_544
Mn2 Te3 2.800687 1_555
Mn2 Te0 2.800746 1_554
Mn2 Te4 2.800746 1_545
Mn2 Te1 2.801181 1_545
Mn2 Te5 2.801181 1_554
Mn3 Te2 2.800397 1_455
Mn3 Te6 2.800397 1_544
Mn3 Te1 2.800530 1_545
Mn3 Te5 2.800530 1_454
Mn3 Te0 2.801054 1_554
Mn3 Te4 2.801054 1_445
Te0 Zn0 2.642234 1_555
Te1 Zn0 2.642312 1_555
Te2 Zn0 2.642415 1_555
Te3 Zn0 2.642205 1_555
Te4 Zn1 2.642234 1_555
Te5 Zn1 2.642312 1_555
Te6 Zn1 2.642415 1_555
Te7 Zn1 2.642205 1_555
