# generated using pymatgen
data_ReAgO2
_symmetry_space_group_name_H-M   'P 1'
_cell_length_a   7.30314517
_cell_length_b   7.30314517
_cell_length_c   7.30314517
_cell_angle_alpha   130.95804279
_cell_angle_beta   130.95804279
_cell_angle_gamma   71.87974872
_symmetry_Int_Tables_number   1
_chemical_formula_structural   ReAgO2
_chemical_formula_sum   'Re4 Ag4 O8'
_cell_volume   217.28493760
_cell_formula_units_Z   4
loop_
 _symmetry_equiv_pos_site_id
 _symmetry_equiv_pos_as_xyz
  1  'x, y, z'
loop_
 _atom_site_type_symbol
 _atom_site_label
 _atom_site_symmetry_multiplicity
 _atom_site_fract_x
 _atom_site_fract_y
 _atom_site_fract_z
 _atom_site_occupancy
  Re  Re0  1  0.37500000  0.12500000  0.25000000  1
  Re  Re1  1  0.87500000  0.12500000  0.75000000  1
  Re  Re2  1  0.87500000  0.12500000  0.25000000  1
  Re  Re3  1  0.87500000  0.62500000  0.75000000  1
  Ag  Ag0  1  0.87500000  0.62500000  0.25000000  1
  Ag  Ag1  1  0.37500000  0.62500000  0.75000000  1
  Ag  Ag2  1  0.37500000  0.62500000  0.25000000  1
  Ag  Ag3  1  0.37500000  0.12500000  0.75000000  1
  O  O0  1  0.17673000  0.37115800  0.19442800  1
  O  O1  1  0.17673000  0.98230300  0.80557200  1
  O  O2  1  0.12115800  0.42673000  0.69442800  1
  O  O3  1  0.57327000  0.87884200  0.30557200  1
  O  O4  1  0.73230300  0.42673000  0.30557200  1
  O  O5  1  0.57327000  0.26769700  0.69442800  1
  O  O6  1  0.62884200  0.82327000  0.80557200  1
  O  O7  1  0.01769700  0.82327000  0.19442800  1
loop_
_geom_bond_atom_site_label_1
_geom_bond_atom_site_label_2
_geom_bond_distance
_geom_bond_site_symmetry_2
Ag0 O4 2.368761 1_555
Ag0 O7 2.368761 1_655
Ag0 O3 2.470277 1_555
Ag0 O0 2.470277 1_655
Ag0 O1 2.470279 1_655
Ag0 O5 2.470279 1_554
Ag1 O2 2.368767 1_555
Ag1 O6 2.368767 1_555
Ag1 O3 2.470277 1_556
Ag1 O0 2.470277 1_555
Ag1 O5 2.470282 1_555
Ag1 O1 2.470282 1_555
Ag2 O3 2.368767 1_555
Ag2 O0 2.368767 1_555
Ag2 O2 2.470277 1_554
Ag2 O6 2.470277 1_555
Ag2 O7 2.470282 1_555
Ag2 O4 2.470282 1_555
Ag3 O5 2.368761 1_555
Ag3 O1 2.368761 1_545
Ag3 O2 2.470277 1_555
Ag3 O6 2.470277 1_545
Ag3 O7 2.470279 1_545
Ag3 O4 2.470279 1_556
O0 Re1 2.014974 1_454
O0 Re0 2.014974 1_555
O1 Re1 2.014971 1_465
O1 Re0 2.014976 1_566
O2 Re3 2.014974 1_455
O2 Re2 2.014974 1_455
O3 Re0 2.014974 1_565
O3 Re1 2.014974 1_565
O4 Re2 2.014971 1_555
O4 Re3 2.014976 1_555
O5 Re1 2.014971 1_555
O5 Re0 2.014976 1_555
O6 Re3 2.014974 1_555
O6 Re2 2.014974 1_566
O7 Re2 2.014971 1_465
O7 Re3 2.014976 1_454
