# generated using pymatgen
data_Er3Mg
_symmetry_space_group_name_H-M   'P 1'
_cell_length_a   7.07076204
_cell_length_b   7.07076204
_cell_length_c   18.43458084
_cell_angle_alpha   90.00000000
_cell_angle_beta   90.00000000
_cell_angle_gamma   90.00000000
_symmetry_Int_Tables_number   1
_chemical_formula_structural   Er3Mg
_chemical_formula_sum   'Er24 Mg8'
_cell_volume   921.64932767
_cell_formula_units_Z   8
loop_
 _symmetry_equiv_pos_site_id
 _symmetry_equiv_pos_as_xyz
  1  'x, y, z'
loop_
 _atom_site_type_symbol
 _atom_site_label
 _atom_site_symmetry_multiplicity
 _atom_site_fract_x
 _atom_site_fract_y
 _atom_site_fract_z
 _atom_site_occupancy
  Er  Er0_0  1  0.25000000  0.25000000  0.38210993  1
  Er  Er0_1  1  0.25000000  0.25000000  0.88210992  1
  Er  Er0_2  1  0.25000000  0.75000000  0.38210993  1
  Er  Er0_3  1  0.25000000  0.75000000  0.88210992  1
  Er  Er0_4  1  0.75000000  0.25000000  0.38210993  1
  Er  Er0_5  1  0.75000000  0.25000000  0.88210992  1
  Er  Er0_6  1  0.75000000  0.75000000  0.38210993  1
  Er  Er0_7  1  0.75000000  0.75000000  0.88210992  1
  Er  Er1_0  1  0.00000000  0.00000000  0.25000000  1
  Er  Er1_1  1  0.00000000  0.00000000  0.75000000  1
  Er  Er1_2  1  0.00000000  0.50000000  0.25000000  1
  Er  Er1_3  1  0.00000000  0.50000000  0.75000000  1
  Er  Er1_4  1  0.50000000  0.00000000  0.25000000  1
  Er  Er1_5  1  0.50000000  0.00000000  0.75000000  1
  Er  Er1_6  1  0.50000000  0.50000000  0.25000000  1
  Er  Er1_7  1  0.50000000  0.50000000  0.75000000  1
  Er  Er2_0  1  0.25000000  0.25000000  0.11789007  1
  Er  Er2_1  1  0.25000000  0.25000000  0.61789007  1
  Er  Er2_2  1  0.25000000  0.75000000  0.11789007  1
  Er  Er2_3  1  0.25000000  0.75000000  0.61789007  1
  Er  Er2_4  1  0.75000000  0.25000000  0.11789007  1
  Er  Er2_5  1  0.75000000  0.25000000  0.61789007  1
  Er  Er2_6  1  0.75000000  0.75000000  0.11789007  1
  Er  Er2_7  1  0.75000000  0.75000000  0.61789007  1
  Mg  Mg0_0  1  0.00000000  0.00000000  0.00000000  1
  Mg  Mg0_1  1  0.00000000  0.00000000  0.50000000  1
  Mg  Mg0_2  1  0.00000000  0.50000000  0.00000000  1
  Mg  Mg0_3  1  0.00000000  0.50000000  0.50000000  1
  Mg  Mg0_4  1  0.50000000  0.00000000  0.00000000  1
  Mg  Mg0_5  1  0.50000000  0.00000000  0.50000000  1
  Mg  Mg0_6  1  0.50000000  0.50000000  0.00000000  1
  Mg  Mg0_7  1  0.50000000  0.50000000  0.50000000  1
loop_
_geom_bond_atom_site_label_1
_geom_bond_atom_site_label_2
_geom_bond_distance
_geom_bond_site_symmetry_2
Er0_0 Mg0_1 3.312475 1_555
Er0_0 Mg0_5 3.312475 1_555
Er0_0 Mg0_3 3.312475 1_555
Er0_0 Mg0_7 3.312475 1_555
Er0_0 Er1_2 3.490070 1_555
Er0_0 Er1_6 3.490070 1_555
Er0_0 Er1_0 3.490070 1_555
Er0_0 Er1_4 3.490070 1_555
Er0_0 Er0_2 3.535381 1_555
Er0_0 Er0_4 3.535381 1_455
Er0_0 Er0_2 3.535381 1_545
Er0_0 Er0_4 3.535381 1_555
Er0_1 Mg0_6 3.312475 1_556
Er0_1 Mg0_4 3.312475 1_556
Er0_1 Mg0_2 3.312475 1_556
Er0_1 Mg0_0 3.312475 1_556
Er0_1 Er1_5 3.490070 1_555
Er0_1 Er1_3 3.490070 1_555
Er0_1 Er1_7 3.490070 1_555
Er0_1 Er1_1 3.490070 1_555
Er0_1 Er0_3 3.535381 1_555
Er0_1 Er0_3 3.535381 1_545
Er0_1 Er0_5 3.535381 1_455
Er0_1 Er0_5 3.535381 1_555
Er0_2 Mg0_5 3.312475 1_565
Er0_2 Mg0_1 3.312475 1_565
Er0_2 Mg0_3 3.312475 1_555
Er0_2 Mg0_7 3.312475 1_555
Er0_2 Er1_0 3.490070 1_565
Er0_2 Er1_4 3.490070 1_565
Er0_2 Er1_6 3.490070 1_555
Er0_2 Er1_2 3.490070 1_555
Er0_2 Er0_6 3.535381 1_555
Er0_2 Er0_6 3.535381 1_455
Er0_3 Mg0_0 3.312475 1_566
Er0_3 Mg0_4 3.312475 1_566
Er0_3 Mg0_2 3.312475 1_556
Er0_3 Mg0_6 3.312475 1_556
Er0_3 Er1_1 3.490070 1_565
Er0_3 Er1_5 3.490070 1_565
Er0_3 Er1_7 3.490070 1_555
Er0_3 Er1_3 3.490070 1_555
Er0_3 Er0_7 3.535381 1_555
Er0_3 Er0_7 3.535381 1_455
Er0_4 Mg0_1 3.312475 1_655
Er0_4 Mg0_3 3.312475 1_655
Er0_4 Mg0_7 3.312475 1_555
Er0_4 Mg0_5 3.312475 1_555
Er0_4 Er1_0 3.490070 1_655
Er0_4 Er1_2 3.490070 1_655
Er0_4 Er1_6 3.490070 1_555
Er0_4 Er1_4 3.490070 1_555
Er0_4 Er0_6 3.535381 1_555
Er0_4 Er0_6 3.535381 1_545
Er0_5 Mg0_0 3.312475 1_656
Er0_5 Mg0_2 3.312475 1_656
Er0_5 Mg0_4 3.312475 1_556
Er0_5 Mg0_6 3.312475 1_556
Er0_5 Er1_3 3.490070 1_655
Er0_5 Er1_1 3.490070 1_655
Er0_5 Er1_7 3.490070 1_555
Er0_5 Er1_5 3.490070 1_555
Er0_5 Er0_7 3.535381 1_555
Er0_5 Er0_7 3.535381 1_545
Er0_6 Mg0_1 3.312475 1_665
Er0_6 Mg0_5 3.312475 1_565
Er0_6 Mg0_3 3.312475 1_655
Er0_6 Mg0_7 3.312475 1_555
Er0_6 Er1_2 3.490070 1_655
Er0_6 Er1_0 3.490070 1_665
Er0_6 Er1_4 3.490070 1_565
Er0_6 Er1_6 3.490070 1_555
Er0_7 Mg0_0 3.312475 1_666
Er0_7 Mg0_4 3.312475 1_566
Er0_7 Mg0_2 3.312475 1_656
Er0_7 Mg0_6 3.312475 1_556
Er0_7 Er1_5 3.490070 1_565
Er0_7 Er1_3 3.490070 1_655
Er0_7 Er1_1 3.490070 1_665
Er0_7 Er1_7 3.490070 1_555
Er1_0 Er2_2 3.490070 1_545
Er1_0 Er2_0 3.490070 1_555
Er1_0 Er2_4 3.490070 1_455
Er1_0 Er2_6 3.490070 1_445
Er1_0 Er1_2 3.535381 1_555
Er1_0 Er1_4 3.535381 1_555
Er1_0 Er1_4 3.535381 1_455
Er1_0 Er1_2 3.535381 1_545
Er1_1 Er2_1 3.490070 1_555
Er1_1 Er2_5 3.490070 1_455
Er1_1 Er2_7 3.490070 1_445
Er1_1 Er2_3 3.490070 1_545
Er1_1 Er1_5 3.535381 1_555
Er1_1 Er1_3 3.535381 1_555
Er1_1 Er1_5 3.535381 1_455
Er1_1 Er1_3 3.535381 1_545
Er1_2 Er2_0 3.490070 1_555
Er1_2 Er2_4 3.490070 1_455
Er1_2 Er2_2 3.490070 1_555
Er1_2 Er2_6 3.490070 1_455
Er1_2 Er1_6 3.535381 1_555
Er1_2 Er1_6 3.535381 1_455
Er1_3 Er2_1 3.490070 1_555
Er1_3 Er2_3 3.490070 1_555
Er1_3 Er2_5 3.490070 1_455
Er1_3 Er2_7 3.490070 1_455
Er1_3 Er1_7 3.535381 1_555
Er1_3 Er1_7 3.535381 1_455
Er1_4 Er2_2 3.490070 1_545
Er1_4 Er2_0 3.490070 1_555
Er1_4 Er2_4 3.490070 1_555
Er1_4 Er2_6 3.490070 1_545
Er1_4 Er1_6 3.535381 1_555
Er1_4 Er1_6 3.535381 1_545
Er1_5 Er2_1 3.490070 1_555
Er1_5 Er2_7 3.490070 1_545
Er1_5 Er2_5 3.490070 1_555
Er1_5 Er2_3 3.490070 1_545
Er1_5 Er1_7 3.535381 1_555
Er1_5 Er1_7 3.535381 1_545
Er1_6 Er2_0 3.490070 1_555
Er1_6 Er2_4 3.490070 1_555
Er1_6 Er2_2 3.490070 1_555
Er1_6 Er2_6 3.490070 1_555
Er1_7 Er2_1 3.490070 1_555
Er1_7 Er2_3 3.490070 1_555
Er1_7 Er2_5 3.490070 1_555
Er1_7 Er2_7 3.490070 1_555
Er2_0 Mg0_6 3.312475 1_555
Er2_0 Mg0_0 3.312475 1_555
Er2_0 Mg0_4 3.312475 1_555
Er2_0 Mg0_2 3.312475 1_555
Er2_0 Er2_2 3.535381 1_555
Er2_0 Er2_2 3.535381 1_545
Er2_0 Er2_4 3.535381 1_555
Er2_0 Er2_4 3.535381 1_455
Er2_1 Mg0_3 3.312475 1_555
Er2_1 Mg0_7 3.312475 1_555
Er2_1 Mg0_1 3.312475 1_555
Er2_1 Mg0_5 3.312475 1_555
Er2_1 Er2_5 3.535381 1_555
Er2_1 Er2_3 3.535381 1_545
Er2_1 Er2_3 3.535381 1_555
Er2_1 Er2_5 3.535381 1_455
Er2_2 Mg0_0 3.312475 1_565
Er2_2 Mg0_4 3.312475 1_565
Er2_2 Mg0_2 3.312475 1_555
Er2_2 Mg0_6 3.312475 1_555
Er2_2 Er2_6 3.535381 1_555
Er2_2 Er2_6 3.535381 1_455
Er2_3 Mg0_1 3.312475 1_565
Er2_3 Mg0_5 3.312475 1_565
Er2_3 Mg0_3 3.312475 1_555
Er2_3 Mg0_7 3.312475 1_555
Er2_3 Er2_7 3.535381 1_455
Er2_3 Er2_7 3.535381 1_555
Er2_4 Mg0_2 3.312475 1_655
Er2_4 Mg0_0 3.312475 1_655
Er2_4 Mg0_4 3.312475 1_555
Er2_4 Mg0_6 3.312475 1_555
Er2_4 Er2_6 3.535381 1_555
Er2_4 Er2_6 3.535381 1_545
Er2_5 Mg0_3 3.312475 1_655
Er2_5 Mg0_1 3.312475 1_655
Er2_5 Mg0_5 3.312475 1_555
Er2_5 Mg0_7 3.312475 1_555
Er2_5 Er2_7 3.535381 1_555
Er2_5 Er2_7 3.535381 1_545
Er2_6 Mg0_0 3.312475 1_665
Er2_6 Mg0_6 3.312475 1_555
Er2_6 Mg0_4 3.312475 1_565
Er2_6 Mg0_2 3.312475 1_655
Er2_7 Mg0_5 3.312475 1_565
Er2_7 Mg0_1 3.312475 1_665
Er2_7 Mg0_3 3.312475 1_655
Er2_7 Mg0_7 3.312475 1_555
