# generated using pymatgen
data_NdHf2F11
_symmetry_space_group_name_H-M   'P 1'
_cell_length_a   8.32191326
_cell_length_b   8.32191215
_cell_length_c   8.32194692
_cell_angle_alpha   124.92338795
_cell_angle_beta   106.39773469
_cell_angle_gamma   98.35016231
_symmetry_Int_Tables_number   1
_chemical_formula_structural   NdHf2F11
_chemical_formula_sum   'Nd2 Hf4 F22'
_cell_volume   417.40833165
_cell_formula_units_Z   2
loop_
 _symmetry_equiv_pos_site_id
 _symmetry_equiv_pos_as_xyz
  1  'x, y, z'
loop_
 _atom_site_type_symbol
 _atom_site_label
 _atom_site_symmetry_multiplicity
 _atom_site_fract_x
 _atom_site_fract_y
 _atom_site_fract_z
 _atom_site_occupancy
  Nd  Nd0  1  0.74999388  0.24999166  0.49998489  1
  Nd  Nd1  1  0.25000657  0.75000844  0.50001539  1
  Hf  Hf0  1  0.68061912  0.63275688  0.31337668  1
  Hf  Hf1  1  0.31937976  0.36724337  0.68662345  1
  Hf  Hf2  1  0.18061584  0.86723752  0.04786430  1
  Hf  Hf3  1  0.81938414  0.13276226  0.95213552  1
  F  F0  1  0.70564566  0.89269211  0.33990488  1
  F  F1  1  0.29435447  0.10730785  0.66009553  1
  F  F2  1  0.55279472  0.36574701  0.66011887  1
  F  F3  1  0.94721309  0.60730267  0.81295030  1
  F  F4  1  0.44720384  0.63424973  0.33987852  1
  F  F5  1  0.05278703  0.39269769  0.18705007  1
  F  F6  1  0.79435678  0.13425425  0.18703864  1
  F  F7  1  0.20564342  0.86574599  0.81296168  1
  F  F8  1  0.50000044  0.50000028  0.00000043  1
  F  F9  1  0.00000014  0.00000015  0.00000016  1
  F  F10  1  0.78058105  0.86927005  0.64985291  1
  F  F11  1  0.21941895  0.13072984  0.35014717  1
  F  F12  1  0.28058459  0.63072994  0.91131027  1
  F  F13  1  0.71941559  0.36927056  0.08869019  1
  F  F14  1  0.95102345  0.73904196  0.41691580  1
  F  F15  1  0.04897659  0.26095809  0.58308437  1
  F  F16  1  0.32210926  0.53409909  0.58306779  1
  F  F17  1  0.17789522  0.76096008  0.21199533  1
  F  F18  1  0.67789106  0.46590107  0.41693260  1
  F  F19  1  0.82210476  0.23904016  0.78800483  1
  F  F20  1  0.54897812  0.96590330  0.78801279  1
  F  F21  1  0.45102244  0.03409698  0.21198763  1
loop_
_geom_bond_atom_site_label_1
_geom_bond_atom_site_label_2
_geom_bond_distance
_geom_bond_site_symmetry_2
F0 Hf0 2.016873 1_555
F0 Nd0 2.370751 1_565
F1 Hf1 2.016878 1_555
F1 Nd1 2.370750 1_545
F2 Hf1 2.016864 1_555
F2 Nd0 2.370880 1_555
F3 Hf2 2.016846 1_656
F3 Nd0 2.370814 1_555
F4 Hf0 2.016855 1_555
F4 Nd1 2.370883 1_555
F5 Hf3 2.016848 1_454
F5 Nd1 2.370814 1_555
F6 Hf3 2.016883 1_554
F6 Nd0 2.370782 1_555
F7 Hf2 2.016881 1_556
F7 Nd1 2.370783 1_555
F8 Hf0 2.070417 1_555
F8 Hf1 2.070426 1_554
F9 Hf3 2.070438 1_454
F9 Hf2 2.070438 1_545
F10 Hf3 2.064130 1_565
F10 Hf0 2.075031 1_555
F11 Hf2 2.064132 1_545
F11 Hf1 2.075032 1_555
F12 Hf1 2.064121 1_555
F12 Hf2 2.075037 1_556
F13 Hf0 2.064125 1_555
F13 Hf3 2.075041 1_554
F14 Hf0 2.010746 1_555
F14 Nd1 2.359569 1_655
F15 Hf1 2.010737 1_555
F15 Nd0 2.359565 1_455
F16 Hf1 2.010791 1_555
F16 Nd1 2.359452 1_555
F17 Hf2 2.010767 1_555
F17 Nd1 2.359530 1_555
F18 Hf0 2.010793 1_555
F18 Nd0 2.359452 1_555
F19 Hf3 2.010768 1_555
F19 Nd0 2.359528 1_555
F20 Hf3 2.010746 1_565
F20 Nd1 2.359454 1_555
F21 Hf2 2.010750 1_545
F21 Nd0 2.359453 1_555
