# generated using pymatgen
data_Yb5P12Ru19
_symmetry_space_group_name_H-M   'P 1'
_cell_length_a   12.47771374
_cell_length_b   12.47771374
_cell_length_c   3.98008100
_cell_angle_alpha   90.00000000
_cell_angle_beta   90.00000000
_cell_angle_gamma   119.99999860
_symmetry_Int_Tables_number   1
_chemical_formula_structural   Yb5P12Ru19
_chemical_formula_sum   'Yb5 P12 Ru19'
_cell_volume   536.65179221
_cell_formula_units_Z   1
loop_
 _symmetry_equiv_pos_site_id
 _symmetry_equiv_pos_as_xyz
  1  'x, y, z'
loop_
 _atom_site_type_symbol
 _atom_site_label
 _atom_site_symmetry_multiplicity
 _atom_site_fract_x
 _atom_site_fract_y
 _atom_site_fract_z
 _atom_site_occupancy
  Yb  Yb0  1  0.00000000  0.18407700  0.50000000  1
  Yb  Yb1  1  0.81592300  0.81592300  0.50000000  1
  Yb  Yb2  1  0.18407700  0.00000000  0.50000000  1
  Yb  Yb3  1  0.66666700  0.33333300  0.00000000  1
  Yb  Yb4  1  0.33333300  0.66666700  0.00000000  1
  P  P0  1  0.00000000  0.81548200  0.00000000  1
  P  P1  1  0.18451800  0.18451800  0.00000000  1
  P  P2  1  0.81548200  0.00000000  0.00000000  1
  P  P3  1  0.69324200  0.17009000  0.50000000  1
  P  P4  1  0.82991000  0.52315200  0.50000000  1
  P  P5  1  0.47684800  0.30675800  0.50000000  1
  P  P6  1  0.17009000  0.69324200  0.50000000  1
  P  P7  1  0.52315200  0.82991000  0.50000000  1
  P  P8  1  0.30675800  0.47684800  0.50000000  1
  P  P9  1  0.00000000  0.37404000  0.00000000  1
  P  P10  1  0.62596000  0.62596000  0.00000000  1
  P  P11  1  0.37404000  0.00000000  0.00000000  1
  Ru  Ru0  1  0.00000000  0.55490700  0.00000000  1
  Ru  Ru1  1  0.44509300  0.44509300  0.00000000  1
  Ru  Ru2  1  0.55490700  0.00000000  0.00000000  1
  Ru  Ru3  1  0.00000000  0.71746400  0.50000000  1
  Ru  Ru4  1  0.28253600  0.28253600  0.50000000  1
  Ru  Ru5  1  0.71746400  0.00000000  0.50000000  1
  Ru  Ru6  1  0.80682300  0.18546200  0.00000000  1
  Ru  Ru7  1  0.81453800  0.62136000  0.00000000  1
  Ru  Ru8  1  0.37864000  0.19317700  0.00000000  1
  Ru  Ru9  1  0.18546200  0.80682300  0.00000000  1
  Ru  Ru10  1  0.62136000  0.81453800  0.00000000  1
  Ru  Ru11  1  0.19317700  0.37864000  0.00000000  1
  Ru  Ru12  1  0.87420000  0.36535400  0.50000000  1
  Ru  Ru13  1  0.63464600  0.50884500  0.50000000  1
  Ru  Ru14  1  0.49115500  0.12580000  0.50000000  1
  Ru  Ru15  1  0.36535400  0.87420000  0.50000000  1
  Ru  Ru16  1  0.50884500  0.63464600  0.50000000  1
  Ru  Ru17  1  0.12580000  0.49115500  0.50000000  1
  Ru  Ru18  1  0.00000000  0.00000000  0.00000000  1
loop_
_geom_bond_atom_site_label_1
_geom_bond_atom_site_label_2
_geom_bond_distance
_geom_bond_site_symmetry_2
P0 Ru18 2.302363 1_565
P0 Ru3 2.335827 1_555
P0 Ru3 2.335827 1_554
P0 Ru9 2.370012 1_555
P0 Ru7 2.370019 1_455
P0 Yb1 3.041134 1_455
P0 Yb1 3.041134 1_454
P0 Yb2 3.041134 1_565
P0 Yb2 3.041134 1_564
P1 Ru18 2.302363 1_555
P1 Ru4 2.335827 1_555
P1 Ru4 2.335827 1_554
P1 Ru8 2.370024 1_555
P1 Ru11 2.370024 1_555
P1 Yb2 3.041134 1_555
P1 Yb0 3.041134 1_555
P1 Yb2 3.041134 1_554
P1 Yb0 3.041134 1_554
P2 Ru18 2.302363 1_655
P2 Ru5 2.335827 1_554
P2 Ru5 2.335827 1_555
P2 Ru6 2.370012 1_555
P2 Ru10 2.370019 1_545
P2 Yb1 3.041134 1_545
P2 Yb1 3.041134 1_544
P2 Yb0 3.041134 1_655
P2 Yb0 3.041134 1_654
P3 Ru5 2.288470 1_555
P3 Ru14 2.295707 1_555
P3 Ru12 2.352281 1_555
P3 Ru6 2.394527 1_556
P3 Ru6 2.394527 1_555
P3 Ru2 2.789378 1_555
P3 Ru2 2.789378 1_556
P3 Yb3 2.982382 1_555
P3 Yb3 2.982382 1_556
P4 Ru3 2.288470 1_655
P4 Ru12 2.295719 1_555
P4 Ru13 2.352275 1_555
P4 Ru7 2.394520 1_555
P4 Ru7 2.394520 1_556
P4 Ru0 2.789378 1_655
P4 Ru0 2.789378 1_656
P4 Yb3 2.982388 1_555
P4 Yb3 2.982388 1_556
P5 Ru4 2.288470 1_555
P5 Ru13 2.295711 1_555
P5 Ru14 2.352287 1_555
P5 Ru8 2.394524 1_555
P5 Ru8 2.394524 1_556
P5 Ru1 2.789378 1_555
P5 Ru1 2.789378 1_556
P5 Yb3 2.982391 1_555
P5 Yb3 2.982391 1_556
P6 Ru3 2.288470 1_555
P6 Ru17 2.295707 1_555
P6 Ru15 2.352281 1_555
P6 Ru9 2.394527 1_555
P6 Ru9 2.394527 1_556
P6 Ru0 2.789378 1_555
P6 Ru0 2.789378 1_556
P6 Yb4 2.982382 1_555
P6 Yb4 2.982382 1_556
P7 Ru5 2.288470 1_565
P7 Ru15 2.295719 1_555
P7 Ru16 2.352275 1_555
P7 Ru10 2.394520 1_556
P7 Ru10 2.394520 1_555
P7 Ru2 2.789378 1_566
P7 Ru2 2.789378 1_565
P7 Yb4 2.982388 1_555
P7 Yb4 2.982388 1_556
P8 Ru4 2.288470 1_555
P8 Ru16 2.295711 1_555
P8 Ru17 2.352287 1_555
P8 Ru11 2.394524 1_555
P8 Ru11 2.394524 1_556
P8 Ru1 2.789378 1_556
P8 Ru1 2.789378 1_555
P8 Yb4 2.982391 1_555
P8 Yb4 2.982391 1_556
P9 Ru0 2.256807 1_555
P9 Ru11 2.382227 1_555
P9 Ru6 2.382233 1_455
P9 Ru12 2.503164 1_454
P9 Ru12 2.503164 1_455
P9 Ru17 2.503167 1_555
P9 Ru17 2.503167 1_554
P9 Yb0 3.094932 1_555
P9 Yb0 3.094932 1_554
P10 Ru1 2.256807 1_555
P10 Ru10 2.382240 1_555
P10 Ru7 2.382240 1_555
P10 Ru13 2.503171 1_555
P10 Ru16 2.503171 1_555
P10 Ru16 2.503171 1_554
P10 Ru13 2.503171 1_554
P10 Yb1 3.094932 1_555
P10 Yb1 3.094932 1_554
P11 Ru2 2.256807 1_555
P11 Ru8 2.382227 1_555
P11 Ru9 2.382233 1_545
P11 Ru15 2.503164 1_545
P11 Ru15 2.503164 1_544
P11 Ru14 2.503167 1_555
P11 Ru14 2.503167 1_554
P11 Yb2 3.094932 1_555
P11 Yb2 3.094932 1_554
Ru0 Ru7 2.821637 1_455
Ru0 Ru9 2.821646 1_555
Ru0 Ru17 2.881953 1_554
Ru0 Ru17 2.881953 1_555
Ru0 Ru12 2.881960 1_455
Ru0 Ru12 2.881960 1_454
Ru1 Ru8 2.821649 1_555
Ru1 Ru11 2.821649 1_555
Ru1 Ru16 2.881962 1_554
Ru1 Ru13 2.881962 1_554
Ru1 Ru13 2.881962 1_555
Ru1 Ru16 2.881962 1_555
Ru2 Ru6 2.821646 1_555
Ru3 Ru9 2.824619 1_555
Ru3 Ru9 2.824619 1_556
Ru3 Ru7 2.824619 1_455
Ru3 Ru7 2.824619 1_456
Ru3 Yb1 3.099464 1_455
Ru3 Yb2 3.099464 1_565
Ru4 Ru8 2.824626 1_556
Ru4 Ru8 2.824626 1_555
Ru4 Yb0 3.099464 1_555
Ru4 Yb2 3.099464 1_555
Ru5 Ru6 2.824619 1_556
Ru5 Ru6 2.824619 1_555
Ru5 Yb1 3.099464 1_545
Ru5 Yb0 3.099464 1_655
Ru6 Yb3 3.112797 1_555
Ru6 Yb0 3.132456 1_655
Ru6 Yb0 3.132456 1_654
Ru7 Yb3 3.112797 1_555
Ru7 Yb1 3.132465 1_554
Ru7 Yb1 3.132465 1_555
Ru8 Yb3 3.112797 1_555
Ru8 Yb2 3.132461 1_555
Ru8 Yb2 3.132461 1_554
Ru9 Yb4 3.112797 1_555
Ru9 Yb2 3.132456 1_564
Ru9 Yb2 3.132456 1_565
Ru10 Ru16 2.796136 1_554
Ru10 Ru16 2.796136 1_555
Ru10 Ru2 2.821637 1_565
Ru10 Ru5 2.824619 1_565
Ru10 Ru5 2.824619 1_564
Ru10 Yb4 3.112797 1_555
Ru10 Yb1 3.132465 1_554
Ru10 Yb1 3.132465 1_555
Ru11 Ru17 2.796136 1_555
Ru11 Ru17 2.796136 1_554
Ru11 Ru4 2.824626 1_554
Ru11 Ru4 2.824626 1_555
Ru11 Yb4 3.112797 1_555
Ru11 Yb0 3.132461 1_555
Ru11 Yb0 3.132461 1_554
Ru12 Ru17 2.718794 1_655
Ru12 Ru6 2.796136 1_556
Ru12 Ru6 2.796136 1_555
Ru12 Yb3 3.129051 1_555
Ru12 Yb3 3.129051 1_556
Ru12 Yb0 3.336281 1_655
Ru13 Ru16 2.718815 1_555
Ru13 Ru7 2.796136 1_555
Ru13 Ru7 2.796136 1_556
Ru13 Yb3 3.129051 1_555
Ru13 Yb3 3.129051 1_556
Ru13 Yb1 3.336291 1_555
Ru14 Ru15 2.718794 1_545
Ru14 Ru8 2.796136 1_555
Ru14 Ru8 2.796136 1_556
Ru14 Ru2 2.881953 1_555
Ru14 Ru2 2.881953 1_556
Ru14 Yb3 3.129051 1_555
Ru14 Yb3 3.129051 1_556
Ru14 Yb2 3.336293 1_555
Ru15 Ru9 2.796136 1_555
Ru15 Ru9 2.796136 1_556
Ru15 Ru2 2.881960 1_565
Ru15 Ru2 2.881960 1_566
Ru15 Yb4 3.129051 1_555
Ru15 Yb4 3.129051 1_556
Ru15 Yb2 3.336281 1_565
Ru16 Yb4 3.129051 1_555
Ru16 Yb4 3.129051 1_556
Ru16 Yb1 3.336291 1_555
Ru17 Yb4 3.129051 1_555
Ru17 Yb4 3.129051 1_556
Ru17 Yb0 3.336293 1_555
Ru18 Yb2 3.039050 1_555
Ru18 Yb0 3.039050 1_555
Ru18 Yb2 3.039050 1_554
Ru18 Yb0 3.039050 1_554
Ru18 Yb1 3.039050 1_444
Ru18 Yb1 3.039050 1_445
