# generated using pymatgen
data_ErH3
_symmetry_space_group_name_H-M   'P 1'
_cell_length_a   3.55210734
_cell_length_b   3.55210734
_cell_length_c   6.02026000
_cell_angle_alpha   90.00000000
_cell_angle_beta   90.00000000
_cell_angle_gamma   119.99998766
_symmetry_Int_Tables_number   1
_chemical_formula_structural   ErH3
_chemical_formula_sum   'Er2 H6'
_cell_volume   65.78366946
_cell_formula_units_Z   2
loop_
 _symmetry_equiv_pos_site_id
 _symmetry_equiv_pos_as_xyz
  1  'x, y, z'
loop_
 _atom_site_type_symbol
 _atom_site_label
 _atom_site_symmetry_multiplicity
 _atom_site_fract_x
 _atom_site_fract_y
 _atom_site_fract_z
 _atom_site_occupancy
  Er  Er0  1  0.33333300  0.66666700  0.25000000  1
  Er  Er1  1  0.66666700  0.33333300  0.75000000  1
  H  H0  1  0.00000000  0.00000000  0.50000000  1
  H  H1  1  0.00000000  0.00000000  0.00000000  1
  H  H2  1  0.33333300  0.66666700  0.90271600  1
  H  H3  1  0.66666700  0.33333300  0.09728400  1
  H  H4  1  0.66666700  0.33333300  0.40271600  1
  H  H5  1  0.33333300  0.66666700  0.59728400  1
loop_
_geom_bond_atom_site_label_1
_geom_bond_atom_site_label_2
_geom_bond_distance
_geom_bond_site_symmetry_2
Er0 H5 2.090740 1_555
Er0 H2 2.090740 1_554
Er0 H3 2.247464 1_455
Er0 H4 2.247464 1_455
Er0 H3 2.247464 1_565
Er0 H4 2.247464 1_565
Er0 H3 2.247469 1_555
Er0 H4 2.247469 1_555
Er0 H1 2.543823 1_565
Er0 H0 2.543823 1_565
Er0 H1 2.543825 1_555
Er0 H0 2.543825 1_555
Er0 H0 2.543825 1_665
Er0 H1 2.543825 1_665
Er1 H4 2.090740 1_555
Er1 H3 2.090740 1_556
Er1 H2 2.247464 1_545
Er1 H5 2.247464 1_545
Er1 H5 2.247464 1_655
Er1 H2 2.247464 1_655
Er1 H2 2.247469 1_555
Er1 H5 2.247469 1_555
Er1 H0 2.543823 1_655
Er1 H1 2.543823 1_656
Er1 H1 2.543825 1_556
Er1 H0 2.543825 1_665
Er1 H0 2.543825 1_555
Er1 H1 2.543825 1_666
