# generated using pymatgen
data_Fe3OF7
_symmetry_space_group_name_H-M   'P 1'
_cell_length_a   6.10788186
_cell_length_b   6.10788186
_cell_length_c   10.51377050
_cell_angle_alpha   73.32106646
_cell_angle_beta   73.32106646
_cell_angle_gamma   56.99988606
_symmetry_Int_Tables_number   1
_chemical_formula_structural   Fe3OF7
_chemical_formula_sum   'Fe6 O2 F14'
_cell_volume   310.91350126
_cell_formula_units_Z   2
loop_
 _symmetry_equiv_pos_site_id
 _symmetry_equiv_pos_as_xyz
  1  'x, y, z'
loop_
 _atom_site_type_symbol
 _atom_site_label
 _atom_site_symmetry_multiplicity
 _atom_site_fract_x
 _atom_site_fract_y
 _atom_site_fract_z
 _atom_site_occupancy
  Fe  Fe0  1  0.05831000  0.57399100  0.30920800  1
  Fe  Fe1  1  0.33526200  0.77682600  0.06917300  1
  Fe  Fe2  1  0.05839700  0.05742700  0.30589300  1
  Fe  Fe3  1  0.05742700  0.05839700  0.80589300  1
  Fe  Fe4  1  0.57399100  0.05831000  0.80920800  1
  Fe  Fe5  1  0.77682600  0.33526200  0.56917300  1
  O  O0  1  0.99003600  0.90662800  0.19237700  1
  O  O1  1  0.90662800  0.99003600  0.69237700  1
  F  F0  1  0.17106200  0.70168700  0.41801100  1
  F  F1  1  0.41714800  0.44231300  0.18899300  1
  F  F2  1  0.15253000  0.20359600  0.42864100  1
  F  F3  1  0.72752200  0.20122600  0.43680200  1
  F  F4  1  0.40578400  0.92849900  0.18473800  1
  F  F5  1  0.44231300  0.41714800  0.68899300  1
  F  F6  1  0.20122600  0.72752200  0.93680200  1
  F  F7  1  0.70168700  0.17106200  0.91801100  1
  F  F8  1  0.95863300  0.42002900  0.20949700  1
  F  F9  1  0.72686400  0.65808700  0.44084200  1
  F  F10  1  0.42002900  0.95863300  0.70949700  1
  F  F11  1  0.20359600  0.15253000  0.92864100  1
  F  F12  1  0.65808700  0.72686400  0.94084200  1
  F  F13  1  0.92849900  0.40578400  0.68473800  1
loop_
_geom_bond_atom_site_label_1
_geom_bond_atom_site_label_2
_geom_bond_distance
_geom_bond_site_symmetry_2
Fe0 O0 1.936273 1_455
Fe1 O0 1.988296 1_455
Fe2 O0 1.945009 1_445
Fe3 O1 1.945009 1_445
Fe4 O1 1.936273 1_545
Fe5 O1 1.988296 1_545
F0 Fe0 1.985099 1_555
F0 Fe2 1.987690 1_565
F1 Fe1 1.944931 1_555
F1 Fe0 2.030098 1_555
F2 Fe0 2.095720 1_555
F2 Fe2 2.107027 1_555
F2 Fe5 2.195753 1_455
F3 Fe5 1.964927 1_555
F3 Fe2 1.978321 1_655
F4 Fe1 1.975154 1_555
F4 Fe2 1.987217 1_565
F5 Fe5 1.944931 1_555
F5 Fe4 2.030098 1_555
F6 Fe1 1.964927 1_556
F6 Fe3 1.978321 1_565
F7 Fe4 1.985099 1_555
F7 Fe3 1.987690 1_655
F8 Fe2 1.974719 1_655
F8 Fe0 1.977340 1_655
F9 Fe5 1.963486 1_555
F9 Fe0 1.986114 1_655
F10 Fe3 1.974719 1_565
F10 Fe4 1.977340 1_565
F11 Fe4 2.095720 1_555
F11 Fe3 2.107027 1_555
F11 Fe1 2.195753 1_546
F12 Fe1 1.963486 1_556
F12 Fe4 1.986114 1_565
F13 Fe5 1.975154 1_555
F13 Fe3 1.987217 1_655
