# generated using pymatgen
data_Li9Mn2Co5O16
_symmetry_space_group_name_H-M   'P 1'
_cell_length_a   5.90922700
_cell_length_b   6.48695677
_cell_length_c   7.73876671
_cell_angle_alpha   88.98117236
_cell_angle_beta   98.11006026
_cell_angle_gamma   102.99613150
_symmetry_Int_Tables_number   1
_chemical_formula_structural   Li9Mn2Co5O16
_chemical_formula_sum   'Li9 Mn2 Co5 O16'
_cell_volume   286.13004564
_cell_formula_units_Z   1
loop_
 _symmetry_equiv_pos_site_id
 _symmetry_equiv_pos_as_xyz
  1  'x, y, z'
loop_
 _atom_site_type_symbol
 _atom_site_label
 _atom_site_symmetry_multiplicity
 _atom_site_fract_x
 _atom_site_fract_y
 _atom_site_fract_z
 _atom_site_occupancy
  Li  Li0  1  0.13068400  0.13303900  0.38648400  1
  Li  Li1  1  0.61069500  0.61545400  0.86085000  1
  Li  Li2  1  0.36891400  0.86714800  0.62009500  1
  Li  Li3  1  0.87524300  0.37870800  0.12863300  1
  Li  Li4  1  0.62711100  0.13649200  0.38241000  1
  Li  Li5  1  0.12386600  0.61729600  0.86899700  1
  Li  Li6  1  0.87760500  0.87168400  0.62217400  1
  Li  Li7  1  0.38466800  0.38072100  0.13186200  1
  Li  Li8  1  0.49706400  0.49753900  0.50054600  1
  Mn  Mn0  1  0.00197800  0.00085800  0.99950300  1
  Mn  Mn1  1  0.25377600  0.74924100  0.25303300  1
  Co  Co0  1  0.74247900  0.25110200  0.74164800  1
  Co  Co1  1  0.50247600  0.00076400  0.99951900  1
  Co  Co2  1  0.99589500  0.50118100  0.50548100  1
  Co  Co3  1  0.75126400  0.74873200  0.25510000  1
  Co  Co4  1  0.25052800  0.24943100  0.74524300  1
  O  O0  1  0.82035800  0.04142200  0.18096200  1
  O  O1  1  0.29774900  0.53612000  0.68650700  1
  O  O2  1  0.07912200  0.80799300  0.42982600  1
  O  O3  1  0.57542200  0.29137700  0.93887100  1
  O  O4  1  0.29702100  0.04881600  0.16777900  1
  O  O5  1  0.82226700  0.55693900  0.68597600  1
  O  O6  1  0.54260800  0.81057100  0.40796300  1
  O  O7  1  0.06319100  0.28980000  0.92799600  1
  O  O8  1  0.43269700  0.18740400  0.58122800  1
  O  O9  1  0.95863800  0.70964400  0.08048200  1
  O  O10  1  0.70854900  0.94325400  0.83790300  1
  O  O11  1  0.18110500  0.45978000  0.31161200  1
  O  O12  1  0.91835700  0.18899900  0.56412400  1
  O  O13  1  0.42597100  0.70851700  0.06386000  1
  O  O14  1  0.18282700  0.95510500  0.82065800  1
  O  O15  1  0.69987200  0.46487100  0.31267600  1
loop_
_geom_bond_atom_site_label_1
_geom_bond_atom_site_label_2
_geom_bond_distance
_geom_bond_site_symmetry_2
Li0 O12 2.074879 1_455
Li0 O2 2.089518 1_545
Li0 O8 2.134859 1_555
Li0 O11 2.153603 1_555
Li0 O4 2.207493 1_555
Li0 O0 2.228485 1_455
Li1 O5 2.060993 1_555
Li1 O10 2.085687 1_555
Li1 O1 2.097059 1_555
Li1 O3 2.149614 1_555
Li1 O13 2.199581 1_556
Li1 O9 2.444496 1_556
Li2 O8 2.050870 1_565
Li2 O2 2.064201 1_555
Li2 O6 2.132942 1_555
Li2 O1 2.160495 1_555
Li2 O14 2.176932 1_555
Li2 O10 2.396309 1_555
Li3 O15 2.029816 1_555
Li3 O11 2.103638 1_655
Li3 O3 2.111992 1_554
Li3 O9 2.130224 1_555
Li3 O0 2.177782 1_555
Li3 O7 2.187109 1_654
Li4 O12 2.031262 1_555
Li4 O6 2.072823 1_545
Li4 O8 2.117466 1_555
Li4 O15 2.150908 1_555
Li4 O0 2.228891 1_555
Li4 O4 2.346822 1_555
Li5 O1 2.001688 1_555
Li5 O5 2.080701 1_455
Li5 O7 2.125892 1_555
Li5 O13 2.146676 1_556
Li5 O14 2.174300 1_555
Li5 O9 2.177048 1_456
Li6 O5 2.056410 1_555
Li6 O12 2.066771 1_565
Li6 O2 2.132547 1_655
Li6 O10 2.169658 1_555
Li6 O14 2.171214 1_655
Li6 O6 2.359754 1_555
Li7 O11 2.102366 1_555
Li7 O4 2.121068 1_555
Li7 O15 2.135361 1_555
Li7 O13 2.149675 1_555
Li7 O3 2.153299 1_554
Li7 O7 2.264780 1_554
Li8 O1 2.035806 1_555
Li8 O15 2.052251 1_555
Li8 O8 2.064014 1_555
Li8 O6 2.113309 1_555
Li8 O11 2.172683 1_555
Li8 O5 2.192983 1_555
Mn0 O7 1.914398 1_555
Mn0 O14 1.928813 1_545
Mn0 O0 1.938668 1_456
Mn0 O9 1.952580 1_446
Mn0 O10 1.955380 1_445
Mn0 O4 1.990526 1_556
Mn1 O11 1.891491 1_555
Mn1 O6 1.908678 1_555
Mn1 O2 1.917328 1_555
Mn1 O13 1.950212 1_555
Mn1 O9 2.011063 1_455
Mn1 O4 2.013885 1_565
Co0 O12 1.934082 1_555
Co0 O3 1.981805 1_555
Co0 O5 1.987505 1_555
Co0 O8 2.024788 1_555
Co0 O10 2.095762 1_545
Co0 O7 2.182221 1_655
Co1 O3 1.902674 1_555
Co1 O13 1.921146 1_546
Co1 O10 1.958817 1_545
Co1 O4 1.974178 1_556
Co1 O14 2.144006 1_545
Co1 O0 2.148453 1_556
Co2 O5 1.929723 1_555
Co2 O12 2.031162 1_555
Co2 O11 2.032410 1_655
Co2 O2 2.036028 1_655
Co2 O1 2.078466 1_655
Co2 O15 2.105340 1_555
Co3 O15 1.854447 1_555
Co3 O6 1.931709 1_555
Co3 O0 1.944094 1_565
Co3 O9 2.002798 1_555
Co3 O2 2.161936 1_655
Co3 O13 2.222348 1_555
Co4 O1 1.874946 1_555
Co4 O8 1.878896 1_555
Co4 O14 1.956710 1_545
Co4 O7 1.969660 1_555
Co4 O12 2.206429 1_455
Co4 O3 2.230050 1_555
