# generated using pymatgen
data_Ca4Rh
_symmetry_space_group_name_H-M   'P 1'
_cell_length_a   8.14517433
_cell_length_b   8.14517433
_cell_length_c   8.14517433
_cell_angle_alpha   60.00000000
_cell_angle_beta   60.00000000
_cell_angle_gamma   60.00000000
_symmetry_Int_Tables_number   1
_chemical_formula_structural   Ca4Rh
_chemical_formula_sum   'Ca8 Rh2'
_cell_volume   382.10802009
_cell_formula_units_Z   2
loop_
 _symmetry_equiv_pos_site_id
 _symmetry_equiv_pos_as_xyz
  1  'x, y, z'
loop_
 _atom_site_type_symbol
 _atom_site_label
 _atom_site_symmetry_multiplicity
 _atom_site_fract_x
 _atom_site_fract_y
 _atom_site_fract_z
 _atom_site_occupancy
  Ca  Ca0  1  0.38060800  0.38060800  0.38060800  1
  Ca  Ca1  1  0.38060800  0.38060800  0.85817500  1
  Ca  Ca2  1  0.38060800  0.85817500  0.38060800  1
  Ca  Ca3  1  0.86939200  0.86939200  0.39182500  1
  Ca  Ca4  1  0.86939200  0.86939200  0.86939200  1
  Ca  Ca5  1  0.85817500  0.38060800  0.38060800  1
  Ca  Ca6  1  0.86939200  0.39182500  0.86939200  1
  Ca  Ca7  1  0.39182500  0.86939200  0.86939200  1
  Rh  Rh0  1  0.00000000  0.00000000  0.00000000  1
  Rh  Rh1  1  0.25000000  0.25000000  0.25000000  1
loop_
_geom_bond_atom_site_label_1
_geom_bond_atom_site_label_2
_geom_bond_distance
_geom_bond_site_symmetry_2
Ca0 Rh1 2.605828 1_555
Ca1 Rh1 2.605835 1_556
Ca2 Rh1 2.605835 1_565
Ca3 Rh0 2.605835 1_665
Ca4 Rh0 2.605828 1_666
Ca5 Rh1 2.605835 1_655
Ca6 Rh0 2.605835 1_656
Ca7 Rh0 2.605835 1_566
