# generated using pymatgen
data_CsPb2I5
_symmetry_space_group_name_H-M   'P 1'
_cell_length_a   10.63720587
_cell_length_b   10.63720587
_cell_length_c   10.63720587
_cell_angle_alpha   128.76149779
_cell_angle_beta   128.76149779
_cell_angle_gamma   75.39463771
_symmetry_Int_Tables_number   1
_chemical_formula_structural   CsPb2I5
_chemical_formula_sum   'Cs2 Pb4 I10'
_cell_volume   712.20715236
_cell_formula_units_Z   2
loop_
 _symmetry_equiv_pos_site_id
 _symmetry_equiv_pos_as_xyz
  1  'x, y, z'
loop_
 _atom_site_type_symbol
 _atom_site_label
 _atom_site_symmetry_multiplicity
 _atom_site_fract_x
 _atom_site_fract_y
 _atom_site_fract_z
 _atom_site_occupancy
  Cs  Cs0  1  0.25000000  0.25000000  0.00000000  1
  Cs  Cs1  1  0.75000000  0.75000000  0.00000000  1
  Pb  Pb0  1  0.83336000  0.33336000  0.16672000  1
  Pb  Pb1  1  0.66664000  0.83336000  0.50000000  1
  Pb  Pb2  1  0.33336000  0.16664000  0.50000000  1
  Pb  Pb3  1  0.16664000  0.66664000  0.83328000  1
  I  I0  1  0.00000000  0.00000000  0.00000000  1
  I  I1  1  0.50000000  0.50000000  0.00000000  1
  I  I2  1  0.97292500  0.78114800  0.50000000  1
  I  I3  1  0.78114800  0.28114800  0.80822300  1
  I  I4  1  0.47292500  0.97292500  0.19177700  1
  I  I5  1  0.28114800  0.47292500  0.50000000  1
  I  I6  1  0.71885200  0.52707500  0.50000000  1
  I  I7  1  0.52707500  0.02707500  0.80822300  1
  I  I8  1  0.21885200  0.71885200  0.19177700  1
  I  I9  1  0.02707500  0.21885200  0.50000000  1
loop_
_geom_bond_atom_site_label_1
_geom_bond_atom_site_label_2
_geom_bond_distance
_geom_bond_site_symmetry_2
Cs0 I8 4.051890 1_555
Cs0 I6 4.051890 1_555
Cs0 I3 4.051890 1_454
Cs0 I9 4.051890 1_554
Cs0 I5 4.051890 1_555
Cs0 I2 4.051890 1_444
Cs0 I7 4.051890 1_554
Cs0 I4 4.051890 1_545
Cs0 I0 4.208356 1_555
Cs0 I1 4.208356 1_555
Cs1 I6 4.051890 1_554
Cs1 I3 4.051890 1_554
Cs1 I4 4.051890 1_555
Cs1 I5 4.051890 1_554
Cs1 I8 4.051890 1_655
Cs1 I9 4.051890 1_665
Cs1 I2 4.051890 1_555
Cs1 I7 4.051890 1_564
Cs1 I0 4.208356 1_665
Cs1 I1 4.208356 1_555
I0 Pb0 3.428306 1_455
I0 Pb2 3.428306 1_555
I0 Pb1 3.428306 1_444
I0 Pb3 3.428306 1_544
I1 Pb2 3.428306 1_554
I1 Pb1 3.428306 1_555
I1 Pb3 3.428306 1_554
I1 Pb0 3.428306 1_555
I2 Pb1 3.163950 1_555
I3 Pb0 3.163950 1_556
I4 Pb3 3.163950 1_554
I5 Pb2 3.163950 1_555
I6 Pb1 3.163950 1_555
I7 Pb0 3.163950 1_556
I8 Pb3 3.163950 1_554
I9 Pb2 3.163950 1_555
