# generated using pymatgen
data_Ti(CoGe)6
_symmetry_space_group_name_H-M   'P 1'
_cell_length_a   5.01632300
_cell_length_b   5.01632262
_cell_length_c   7.74246200
_cell_angle_alpha   90.00000000
_cell_angle_beta   90.00000000
_cell_angle_gamma   119.99999592
_symmetry_Int_Tables_number   1
_chemical_formula_structural   Ti(CoGe)6
_chemical_formula_sum   'Ti1 Co6 Ge6'
_cell_volume   168.72548484
_cell_formula_units_Z   1
loop_
 _symmetry_equiv_pos_site_id
 _symmetry_equiv_pos_as_xyz
  1  'x, y, z'
loop_
 _atom_site_type_symbol
 _atom_site_label
 _atom_site_symmetry_multiplicity
 _atom_site_fract_x
 _atom_site_fract_y
 _atom_site_fract_z
 _atom_site_occupancy
  Ti  Ti0  1  0.00000000  0.00000000  0.00000000  1
  Co  Co0  1  0.50000000  0.50000000  0.75126100  1
  Co  Co1  1  0.50000000  0.00000000  0.75126100  1
  Co  Co2  1  0.00000000  0.50000000  0.75126100  1
  Co  Co3  1  0.50000000  0.50000000  0.24873900  1
  Co  Co4  1  0.50000000  0.00000000  0.24873900  1
  Co  Co5  1  0.00000000  0.50000000  0.24873900  1
  Ge  Ge0  1  0.66666700  0.33333300  0.00000000  1
  Ge  Ge1  1  0.33333300  0.66666700  0.00000000  1
  Ge  Ge2  1  0.66666700  0.33333300  0.50000000  1
  Ge  Ge3  1  0.33333300  0.66666700  0.50000000  1
  Ge  Ge4  1  0.00000000  0.00000000  0.66629400  1
  Ge  Ge5  1  0.00000000  0.00000000  0.33370600  1
loop_
_geom_bond_atom_site_label_1
_geom_bond_atom_site_label_2
_geom_bond_distance
_geom_bond_site_symmetry_2
Co0 Ge0 2.409538 1_556
Co0 Ge1 2.409538 1_556
Co0 Ge3 2.425173 1_555
Co0 Ge2 2.425173 1_555
Co0 Co1 2.508161 1_555
Co0 Co1 2.508161 1_565
Co0 Co2 2.508161 1_555
Co0 Co2 2.508161 1_655
Co0 Ge4 2.592999 1_665
Co0 Ge4 2.592999 1_555
Co0 Ti0 3.162243 1_666
Co0 Ti0 3.162243 1_556
Co1 Ge0 2.409535 1_556
Co1 Ge1 2.409535 1_546
Co1 Ge2 2.425171 1_555
Co1 Ge3 2.425171 1_545
Co1 Co2 2.508162 1_545
Co1 Co2 2.508162 1_655
Co1 Ge4 2.592999 1_555
Co1 Ge4 2.592999 1_655
Co1 Ti0 3.162243 1_556
Co1 Ti0 3.162243 1_656
Co2 Ge1 2.409535 1_556
Co2 Ge0 2.409535 1_456
Co2 Ge2 2.425171 1_455
Co2 Ge3 2.425171 1_555
Co2 Ge4 2.592999 1_565
Co2 Ge4 2.592999 1_555
Co2 Ti0 3.162243 1_566
Co2 Ti0 3.162243 1_556
Co3 Ge1 2.409538 1_555
Co3 Ge0 2.409538 1_555
Co3 Ge2 2.425173 1_555
Co3 Ge3 2.425173 1_555
Co3 Co4 2.508161 1_555
Co3 Co4 2.508161 1_565
Co3 Co5 2.508161 1_655
Co3 Co5 2.508161 1_555
Co3 Ge5 2.592999 1_665
Co3 Ge5 2.592999 1_555
Co3 Ti0 3.162243 1_555
Co3 Ti0 3.162243 1_665
Co4 Ge1 2.409535 1_545
Co4 Ge0 2.409535 1_555
Co4 Ge2 2.425171 1_555
Co4 Ge3 2.425171 1_545
Co4 Co5 2.508162 1_655
Co4 Co5 2.508162 1_545
Co4 Ge5 2.592999 1_555
Co4 Ge5 2.592999 1_655
Co4 Ti0 3.162243 1_555
Co4 Ti0 3.162243 1_655
Co5 Ge1 2.409535 1_555
Co5 Ge0 2.409535 1_455
Co5 Ge2 2.425171 1_455
Co5 Ge3 2.425171 1_555
Co5 Ge5 2.592999 1_555
Co5 Ge5 2.592999 1_565
Co5 Ti0 3.162243 1_555
Co5 Ti0 3.162243 1_565
Ge0 Ti0 2.896172 1_655
Ge0 Ti0 2.896177 1_665
Ge0 Ti0 2.896177 1_555
Ge1 Ti0 2.896172 1_565
Ge1 Ti0 2.896177 1_555
Ge1 Ti0 2.896177 1_665
Ge4 Ge5 2.575050 1_555
Ge4 Ti0 2.583706 1_556
Ge5 Ti0 2.583706 1_555
