# generated using pymatgen
data_Sr6Ti3FeO14
_symmetry_space_group_name_H-M   'P 1'
_cell_length_a   3.93741300
_cell_length_b   3.93741200
_cell_length_c   40.87456300
_cell_angle_alpha   90.00000561
_cell_angle_beta   90.00003277
_cell_angle_gamma   90.00049476
_symmetry_Int_Tables_number   1
_chemical_formula_structural   Sr6Ti3FeO14
_chemical_formula_sum   'Sr12 Ti6 Fe2 O28'
_cell_volume   633.68722793
_cell_formula_units_Z   2
loop_
 _symmetry_equiv_pos_site_id
 _symmetry_equiv_pos_as_xyz
  1  'x, y, z'
loop_
 _atom_site_type_symbol
 _atom_site_label
 _atom_site_symmetry_multiplicity
 _atom_site_fract_x
 _atom_site_fract_y
 _atom_site_fract_z
 _atom_site_occupancy
  Sr  Sr0  1  0.50000000  0.50000000  0.09255900  1
  Sr  Sr1  1  0.50000000  0.49999900  0.59266800  1
  Sr  Sr2  1  0.00000100  0.00000500  0.34178800  1
  Sr  Sr3  1  0.00000100  0.00000100  0.84187200  1
  Sr  Sr4  1  0.00000000  0.99999900  0.15894900  1
  Sr  Sr5  1  0.00000100  0.99999900  0.65903600  1
  Sr  Sr6  1  0.50000100  0.49999900  0.40779200  1
  Sr  Sr7  1  0.49999900  0.50000200  0.90790900  1
  Sr  Sr8  1  0.50000000  0.50000400  0.00015600  1
  Sr  Sr9  1  0.50000100  0.50000300  0.50016400  1
  Sr  Sr10  1  0.00000000  0.00000100  0.24868200  1
  Sr  Sr11  1  0.99999900  0.00000100  0.74853700  1
  Ti  Ti0  1  0.00000200  0.00000100  0.45108300  1
  Ti  Ti1  1  0.00000100  0.00000100  0.95118900  1
  Ti  Ti2  1  0.00000000  0.00000100  0.04918400  1
  Ti  Ti3  1  0.00000000  0.00000100  0.54920400  1
  Ti  Ti4  1  0.50000000  0.50000100  0.29861000  1
  Ti  Ti5  1  0.49999900  0.50000100  0.79862800  1
  Fe  Fe0  1  0.49999900  0.49998300  0.70129400  1
  Fe  Fe1  1  0.50000200  0.50000000  0.20126700  1
  O  O0  1  0.50000100  0.50000000  0.15332100  1
  O  O1  1  0.50000100  0.50000100  0.65334900  1
  O  O2  1  0.99999900  0.00000000  0.40279900  1
  O  O3  1  0.99999700  0.99999600  0.90289400  1
  O  O4  1  0.00000100  0.99999900  0.09716700  1
  O  O5  1  0.00000100  0.99999900  0.59717700  1
  O  O6  1  0.50000100  0.49999800  0.34658400  1
  O  O7  1  0.50000000  0.49999900  0.84664100  1
  O  O8  1  0.99999900  0.00000000  0.50003300  1
  O  O9  1  0.99999800  0.99999800  0.00000900  1
  O  O10  1  0.49999900  0.50000000  0.24948200  1
  O  O11  1  0.50000000  0.49999800  0.74949300  1
  O  O12  1  0.00000000  0.50000100  0.20197600  1
  O  O13  1  0.00000100  0.50000000  0.70195400  1
  O  O14  1  0.50000000  0.00000000  0.20197700  1
  O  O15  1  0.49999900  0.00000000  0.70195400  1
  O  O16  1  0.49999900  0.00000200  0.45173200  1
  O  O17  1  0.49999900  0.00000100  0.95178500  1
  O  O18  1  0.99999900  0.50000200  0.45173200  1
  O  O19  1  0.00000000  0.49999900  0.95178500  1
  O  O20  1  0.49999900  0.00000100  0.04832300  1
  O  O21  1  0.50000000  0.00000100  0.54835200  1
  O  O22  1  0.00000000  0.50000100  0.04832300  1
  O  O23  1  0.99999900  0.50000000  0.54835200  1
  O  O24  1  0.00000000  0.50000200  0.29805600  1
  O  O25  1  0.00000100  0.50000100  0.79806000  1
  O  O26  1  0.50000100  0.00000100  0.29805700  1
  O  O27  1  0.50000000  0.00000000  0.79806000  1
loop_
_geom_bond_atom_site_label_1
_geom_bond_atom_site_label_2
_geom_bond_distance
_geom_bond_site_symmetry_2
Fe0 O1 1.959731 1_555
Fe0 O15 1.968824 1_555
Fe0 O13 1.968883 1_555
Fe0 O13 1.968899 1_655
Fe0 O15 1.968958 1_565
Fe0 O11 1.970113 1_555
Fe1 O0 1.959772 1_555
Fe1 O12 1.968912 1_655
Fe1 O14 1.968920 1_565
Fe1 O14 1.968920 1_555
Fe1 O12 1.968928 1_555
Fe1 O10 1.970767 1_555
O0 Sr0 2.483620 1_555
O0 Sr4 2.793641 1_655
O0 Sr4 2.793652 1_545
O0 Sr4 2.793670 1_645
O0 Sr4 2.793671 1_555
O1 Sr1 2.480309 1_555
O1 Sr5 2.793840 1_655
O1 Sr5 2.793852 1_545
O1 Sr5 2.793865 1_555
O1 Sr5 2.793876 1_645
O2 Ti0 1.973587 1_655
O2 Sr2 2.493798 1_655
O2 Sr6 2.791626 1_545
O2 Sr6 2.791632 1_655
O2 Sr6 2.791645 1_555
O2 Sr6 2.791661 1_645
O3 Ti1 1.974037 1_665
O3 Sr3 2.494248 1_665
O3 Sr7 2.791673 1_555
O3 Sr7 2.791708 1_655
O3 Sr7 2.791717 1_665
O3 Sr7 2.791730 1_565
O4 Ti2 1.961284 1_565
O4 Sr4 2.525312 1_555
O4 Sr0 2.790523 1_455
O4 Sr0 2.790523 1_565
O4 Sr0 2.790541 1_555
O4 Sr0 2.790552 1_465
O5 Ti3 1.960875 1_565
O5 Sr5 2.528460 1_555
O5 Sr1 2.790250 1_565
O5 Sr1 2.790255 1_455
O5 Sr1 2.790274 1_555
O5 Sr1 2.790279 1_465
O6 Ti4 1.960916 1_555
O6 Sr6 2.501850 1_555
O6 Sr2 2.791032 1_555
O6 Sr2 2.791057 1_655
O6 Sr2 2.791072 1_665
O6 Sr2 2.791095 1_565
O7 Ti5 1.962510 1_555
O7 Sr7 2.504303 1_555
O7 Sr3 2.790966 1_555
O7 Sr3 2.790983 1_665
O7 Sr3 2.790996 1_655
O7 Sr3 2.791001 1_565
O8 Ti0 2.000810 1_655
O8 Ti3 2.009843 1_655
O8 Sr9 2.784150 1_545
O8 Sr9 2.784178 1_655
O8 Sr9 2.784185 1_645
O8 Sr9 2.784191 1_555
O9 Ti1 1.995496 1_664
O9 Ti2 2.010007 1_665
O9 Sr8 2.784143 1_555
O9 Sr8 2.784178 1_655
O9 Sr8 2.784188 1_665
O9 Sr8 2.784201 1_565
O10 Ti4 2.008086 1_555
O10 Sr10 2.784345 1_555
O10 Sr10 2.784357 1_665
O10 Sr10 2.784375 1_565
O10 Sr10 2.784375 1_655
O11 Ti5 2.008372 1_555
O11 Sr11 2.784428 1_455
O11 Sr11 2.784439 1_565
O11 Sr11 2.784446 1_555
O11 Sr11 2.784468 1_465
O12 Sr4 2.639855 1_555
O12 Sr4 2.639866 1_545
O12 Sr10 2.742338 1_565
O12 Sr10 2.742338 1_555
O13 Sr5 2.636892 1_555
O13 Sr5 2.636897 1_545
O13 Sr11 2.738838 1_455
O13 Sr11 2.738843 1_465
O14 Sr4 2.639887 1_545
O14 Sr4 2.639889 1_645
O14 Sr10 2.742309 1_655
O14 Sr10 2.742311 1_555
O15 Sr5 2.636888 1_545
O15 Sr5 2.636901 1_645
O15 Sr11 2.738840 1_555
O15 Sr11 2.738842 1_455
O16 Ti0 1.968873 1_555
O16 Ti0 1.968897 1_655
O16 Sr6 2.664859 1_555
O16 Sr6 2.664877 1_545
O16 Sr9 2.791908 1_545
O16 Sr9 2.791913 1_555
O17 Ti1 1.968849 1_555
O17 Ti1 1.968865 1_655
O17 Sr7 2.663102 1_545
O17 Sr7 2.663109 1_555
O17 Sr8 2.790135 1_546
O17 Sr8 2.790152 1_556
O18 Ti0 1.968881 1_665
O18 Ti0 1.968889 1_655
O18 Sr6 2.664862 1_555
O18 Sr6 2.664875 1_655
O18 Sr9 2.791906 1_555
O18 Sr9 2.791916 1_655
O19 Ti1 1.968849 1_555
O19 Ti1 1.968865 1_565
O19 Sr7 2.663104 1_555
O19 Sr7 2.663108 1_455
O19 Sr8 2.790143 1_556
O19 Sr8 2.790144 1_456
O20 Ti2 1.969017 1_555
O20 Ti2 1.969025 1_655
O20 Sr0 2.673034 1_555
O20 Sr0 2.673040 1_545
O20 Sr8 2.784232 1_545
O20 Sr8 2.784249 1_555
O21 Ti3 1.969014 1_655
O21 Ti3 1.969015 1_555
O21 Sr1 2.675244 1_555
O21 Sr1 2.675256 1_545
O21 Sr9 2.784842 1_545
O21 Sr9 2.784854 1_555
O22 Ti2 1.969021 1_565
O22 Ti2 1.969021 1_555
O22 Sr0 2.673037 1_555
O22 Sr0 2.673038 1_455
O22 Sr8 2.784240 1_455
O22 Sr8 2.784242 1_555
O23 Ti3 1.969010 1_655
O23 Ti3 1.969018 1_665
O23 Sr1 2.675248 1_555
O23 Sr1 2.675253 1_655
O23 Sr9 2.784842 1_555
O23 Sr9 2.784855 1_655
O24 Ti4 1.968837 1_555
O24 Ti4 1.968837 1_455
O24 Sr2 2.659137 1_555
O24 Sr2 2.659154 1_565
O24 Sr10 2.819340 1_565
O24 Sr10 2.819346 1_555
O25 Ti5 1.968836 1_555
O25 Ti5 1.968851 1_455
O25 Sr3 2.661344 1_565
O25 Sr3 2.661345 1_555
O25 Sr11 2.823706 1_455
O25 Sr11 2.823706 1_465
O26 Ti4 1.968836 1_555
O26 Ti4 1.968836 1_545
O26 Sr2 2.659117 1_655
O26 Sr2 2.659119 1_555
O26 Sr10 2.819371 1_655
O26 Sr10 2.819375 1_555
O27 Ti5 1.968839 1_545
O27 Ti5 1.968847 1_555
O27 Sr3 2.661343 1_555
O27 Sr3 2.661347 1_655
O27 Sr11 2.823704 1_555
O27 Sr11 2.823708 1_455
