# generated using pymatgen
data_Cu2H6Pb5C(SO7)3
_symmetry_space_group_name_H-M   'P 1'
_cell_length_a   6.68258900
_cell_length_b   7.28716300
_cell_length_c   20.26729200
_cell_angle_alpha   90.00000000
_cell_angle_beta   90.00000000
_cell_angle_gamma   90.00000000
_symmetry_Int_Tables_number   1
_chemical_formula_structural   Cu2H6Pb5C(SO7)3
_chemical_formula_sum   'Cu4 H12 Pb10 C2 S6 O42'
_cell_volume   986.95865544
_cell_formula_units_Z   2
loop_
 _symmetry_equiv_pos_site_id
 _symmetry_equiv_pos_as_xyz
  1  'x, y, z'
loop_
 _atom_site_type_symbol
 _atom_site_label
 _atom_site_symmetry_multiplicity
 _atom_site_fract_x
 _atom_site_fract_y
 _atom_site_fract_z
 _atom_site_occupancy
  Cu  Cu0  1  0.19939900  0.49187800  0.75061300  1
  Cu  Cu1  1  0.19939900  0.49187800  0.24938700  1
  Cu  Cu2  1  0.69939900  0.50812200  0.74938700  1
  Cu  Cu3  1  0.69939900  0.50812200  0.25061300  1
  H  H0  1  0.27875400  0.34203000  0.63684600  1
  H  H1  1  0.27875400  0.34203000  0.36315400  1
  H  H2  1  0.77875400  0.65797000  0.86315400  1
  H  H3  1  0.77875400  0.65797000  0.13684600  1
  H  H4  1  0.11698400  0.62853500  0.86631700  1
  H  H5  1  0.11698400  0.62853500  0.13368300  1
  H  H6  1  0.61698400  0.37146500  0.63368300  1
  H  H7  1  0.61698400  0.37146500  0.36631700  1
  H  H8  1  0.46133000  0.24653300  0.75068600  1
  H  H9  1  0.46133000  0.24653300  0.24931400  1
  H  H10  1  0.96133000  0.75346700  0.74931400  1
  H  H11  1  0.96133000  0.75346700  0.25068600  1
  Pb  Pb0  1  0.00501700  0.09868500  0.00000000  1
  Pb  Pb1  1  0.50501700  0.90131500  0.50000000  1
  Pb  Pb2  1  0.45943000  0.41651800  0.89918800  1
  Pb  Pb3  1  0.45943000  0.41651800  0.10081200  1
  Pb  Pb4  1  0.95943000  0.58348200  0.60081200  1
  Pb  Pb5  1  0.95943000  0.58348200  0.39918800  1
  Pb  Pb6  1  0.42911300  0.88552400  0.83806600  1
  Pb  Pb7  1  0.42911300  0.88552400  0.16193400  1
  Pb  Pb8  1  0.92911300  0.11447600  0.66193400  1
  Pb  Pb9  1  0.92911300  0.11447600  0.33806600  1
  C  C0  1  0.41507200  0.84283500  0.00000000  1
  C  C1  1  0.91507200  0.15716500  0.50000000  1
  S  S0  1  0.95060900  0.12259400  0.83668800  1
  S  S1  1  0.95060900  0.12259400  0.16331200  1
  S  S2  1  0.45060900  0.87740600  0.66331200  1
  S  S3  1  0.45060900  0.87740600  0.33668800  1
  S  S4  1  0.95794400  0.55827600  0.00000000  1
  S  S5  1  0.45794400  0.44172400  0.50000000  1
  O  O0  1  0.16052200  0.37213300  0.66393700  1
  O  O1  1  0.16052200  0.37213300  0.33606300  1
  O  O2  1  0.66052200  0.62786700  0.83606300  1
  O  O3  1  0.66052200  0.62786700  0.16393700  1
  O  O4  1  0.23536000  0.60558100  0.83811500  1
  O  O5  1  0.23536000  0.60558100  0.16188500  1
  O  O6  1  0.73536000  0.39441900  0.66188500  1
  O  O7  1  0.73536000  0.39441900  0.33811500  1
  O  O8  1  0.45412200  0.36817300  0.77227500  1
  O  O9  1  0.45412200  0.36817300  0.22772500  1
  O  O10  1  0.95412200  0.63182700  0.72772500  1
  O  O11  1  0.95412200  0.63182700  0.27227500  1
  O  O12  1  0.96184100  0.67716200  0.94006200  1
  O  O13  1  0.96184100  0.67716200  0.05993800  1
  O  O14  1  0.46184100  0.32283800  0.55993800  1
  O  O15  1  0.46184100  0.32283800  0.44006200  1
  O  O16  1  0.77790600  0.43489200  0.00000000  1
  O  O17  1  0.27790600  0.56510800  0.50000000  1
  O  O18  1  0.13962700  0.43087800  0.00000000  1
  O  O19  1  0.63962700  0.56912200  0.50000000  1
  O  O20  1  0.93447900  0.27105200  0.78632800  1
  O  O21  1  0.93447900  0.27105200  0.21367200  1
  O  O22  1  0.43447900  0.72894800  0.71367200  1
  O  O23  1  0.43447900  0.72894800  0.28632800  1
  O  O24  1  0.99923500  0.94618800  0.80308600  1
  O  O25  1  0.99923500  0.94618800  0.19691400  1
  O  O26  1  0.49923500  0.05381200  0.69691400  1
  O  O27  1  0.49923500  0.05381200  0.30308600  1
  O  O28  1  0.76197300  0.10841000  0.87589200  1
  O  O29  1  0.76197300  0.10841000  0.12410800  1
  O  O30  1  0.26197300  0.89159000  0.62410800  1
  O  O31  1  0.26197300  0.89159000  0.37589200  1
  O  O32  1  0.11976600  0.16688800  0.88377800  1
  O  O33  1  0.11976600  0.16688800  0.11622200  1
  O  O34  1  0.61976600  0.83311200  0.61622200  1
  O  O35  1  0.61976600  0.83311200  0.38377800  1
  O  O36  1  0.44775500  0.75516100  0.94508500  1
  O  O37  1  0.44775500  0.75516100  0.05491500  1
  O  O38  1  0.94775500  0.24483900  0.55491500  1
  O  O39  1  0.94775500  0.24483900  0.44508500  1
  O  O40  1  0.35488700  0.01193400  0.00000000  1
  O  O41  1  0.85488700  0.98806600  0.50000000  1
loop_
_geom_bond_atom_site_label_1
_geom_bond_atom_site_label_2
_geom_bond_distance
_geom_bond_site_symmetry_2
Cu0 O4 1.972139 1_555
Cu0 O8 1.975574 1_555
Cu0 O0 1.978606 1_555
Cu0 O10 1.985407 1_455
Cu0 O22 2.452121 1_555
Cu0 O20 2.499521 1_455
Cu1 O5 1.972139 1_555
Cu1 O9 1.975574 1_555
Cu1 O1 1.978606 1_555
Cu1 O11 1.985407 1_455
Cu1 O23 2.452121 1_555
Cu1 O21 2.499521 1_455
Cu2 O6 1.972139 1_555
Cu2 O10 1.975574 1_555
Cu2 O2 1.978606 1_555
Cu2 O8 1.985407 1_555
Cu2 O20 2.452121 1_555
Cu2 O22 2.499521 1_555
Cu3 O7 1.972139 1_555
Cu3 O11 1.975574 1_555
Cu3 O3 1.978606 1_555
Cu3 O9 1.985407 1_555
Cu3 O21 2.452121 1_555
Cu3 O23 2.499521 1_555
H0 O0 0.986834 1_555
H1 O1 0.986834 1_555
H2 O2 0.986834 1_555
H3 O3 0.986834 1_555
H4 O4 0.990179 1_555
H5 O5 0.990179 1_555
H6 O6 0.990179 1_555
H7 O7 0.990179 1_555
H8 O8 0.989694 1_555
H9 O9 0.989694 1_555
H10 O10 0.989694 1_555
H11 O11 0.989694 1_555
C0 O40 1.296226 1_565
C0 O37 1.301771 1_555
C0 O36 1.301771 1_554
C1 O41 1.296226 1_545
C1 O38 1.301771 1_555
C1 O39 1.301771 1_555
O0 Pb4 2.411358 1_455
O0 Pb8 2.432771 1_455
O1 Pb5 2.411358 1_455
O1 Pb9 2.432771 1_455
O2 Pb2 2.411358 1_555
O2 Pb6 2.432771 1_555
O3 Pb3 2.411358 1_555
O3 Pb7 2.432771 1_555
O4 Pb2 2.381673 1_555
O4 Pb6 2.416194 1_555
O5 Pb3 2.381673 1_555
O5 Pb7 2.416194 1_555
O6 Pb4 2.381673 1_555
O6 Pb8 2.416194 1_555
O7 Pb5 2.381673 1_555
O7 Pb9 2.416194 1_555
O8 Pb2 2.596439 1_555
O9 Pb3 2.596439 1_555
O10 Pb4 2.596439 1_555
O11 Pb5 2.596439 1_555
O12 S4 1.492286 1_556
O13 S4 1.492286 1_555
O14 S5 1.492286 1_555
O15 S5 1.492286 1_555
O16 S4 1.501970 1_555
O17 S5 1.501970 1_555
O18 S4 1.528378 1_455
O18 Pb0 2.582476 1_555
O19 S5 1.528378 1_555
O19 Pb1 2.582476 1_555
O20 S0 1.491221 1_555
O21 S1 1.491221 1_555
O22 S2 1.491221 1_555
O23 S3 1.491221 1_555
O24 S0 1.490600 1_565
O25 S1 1.490600 1_565
O26 S2 1.490600 1_545
O27 S3 1.490600 1_545
O28 S0 1.493674 1_555
O29 S1 1.493674 1_555
O30 S2 1.493674 1_555
O31 S3 1.493674 1_555
O32 S0 1.514219 1_455
O32 Pb0 2.526546 1_556
O33 S1 1.514219 1_455
O33 Pb0 2.526546 1_555
O34 S2 1.514219 1_555
O34 Pb1 2.526546 1_555
O35 S3 1.514219 1_555
O35 Pb1 2.526546 1_555
O36 Pb6 2.371175 1_555
O36 Pb2 2.638399 1_555
O37 Pb7 2.371175 1_555
O37 Pb3 2.638399 1_555
O38 Pb8 2.371175 1_555
O38 Pb4 2.638399 1_555
O39 Pb9 2.371175 1_555
O39 Pb5 2.638399 1_555
O40 Pb0 2.421994 1_555
O41 Pb1 2.421994 1_555
