# generated using pymatgen
data_Pr4CuS7
_symmetry_space_group_name_H-M   'P 1'
_cell_length_a   9.80779557
_cell_length_b   9.80779557
_cell_length_c   7.11307000
_cell_angle_alpha   90.00000000
_cell_angle_beta   90.00000000
_cell_angle_gamma   119.99999713
_symmetry_Int_Tables_number   1
_chemical_formula_structural   Pr4CuS7
_chemical_formula_sum   'Pr8 Cu2 S14'
_cell_volume   592.55755175
_cell_formula_units_Z   2
loop_
 _symmetry_equiv_pos_site_id
 _symmetry_equiv_pos_as_xyz
  1  'x, y, z'
loop_
 _atom_site_type_symbol
 _atom_site_label
 _atom_site_symmetry_multiplicity
 _atom_site_fract_x
 _atom_site_fract_y
 _atom_site_fract_z
 _atom_site_occupancy
  Pr  Pr0  1  0.77934800  0.15227600  0.22274200  1
  Pr  Pr1  1  0.37292800  0.22065200  0.22274200  1
  Pr  Pr2  1  0.84772400  0.62707200  0.22274200  1
  Pr  Pr3  1  0.22065200  0.84772400  0.72274200  1
  Pr  Pr4  1  0.62707200  0.77934800  0.72274200  1
  Pr  Pr5  1  0.15227600  0.37292800  0.72274200  1
  Pr  Pr6  1  0.66666700  0.33333300  0.68472800  1
  Pr  Pr7  1  0.33333300  0.66666700  0.18472800  1
  Cu  Cu0  1  0.00000000  0.00000000  0.33203000  1
  Cu  Cu1  1  0.00000000  0.00000000  0.83203000  1
  S  S0  1  0.85125000  0.11070800  0.81837000  1
  S  S1  1  0.25945800  0.14875000  0.81837000  1
  S  S2  1  0.88929200  0.74054200  0.81837000  1
  S  S3  1  0.14875000  0.88929200  0.31837000  1
  S  S4  1  0.74054200  0.85125000  0.31837000  1
  S  S5  1  0.11070800  0.25945800  0.31837000  1
  S  S6  1  0.92688400  0.43948600  0.46317800  1
  S  S7  1  0.51260200  0.07311600  0.46317800  1
  S  S8  1  0.56051400  0.48739800  0.46317800  1
  S  S9  1  0.07311600  0.56051400  0.96317800  1
  S  S10  1  0.48739800  0.92688400  0.96317800  1
  S  S11  1  0.43948600  0.51260200  0.96317800  1
  S  S12  1  0.66666700  0.33333300  0.06597200  1
  S  S13  1  0.33333300  0.66666700  0.56597200  1
loop_
_geom_bond_atom_site_label_1
_geom_bond_atom_site_label_2
_geom_bond_distance
_geom_bond_site_symmetry_2
Pr0 S12 2.753307 1_555
Pr0 S4 2.863656 1_545
Pr0 S7 2.888074 1_555
Pr0 S5 2.951830 1_655
Pr0 S6 2.979527 1_555
Pr0 S0 3.037149 1_554
Pr0 S10 3.188219 1_544
Pr1 S12 2.753316 1_555
Pr1 S5 2.863656 1_555
Pr1 S8 2.888074 1_555
Pr1 S3 2.951830 1_545
Pr1 S7 2.979527 1_555
Pr1 S1 3.037149 1_554
Pr1 S11 3.188219 1_554
Pr2 S12 2.753314 1_555
Pr2 S3 2.863656 1_655
Pr2 S6 2.888073 1_555
Pr2 S4 2.951830 1_555
Pr2 S8 2.979527 1_555
Pr2 S2 3.037149 1_554
Pr2 S9 3.188219 1_654
Pr3 S13 2.753307 1_555
Pr3 S1 2.863656 1_565
Pr3 S10 2.888074 1_555
Pr3 S2 2.951830 1_455
Pr3 S9 2.979527 1_555
Pr3 S3 3.037149 1_555
Pr3 S7 3.188219 1_565
Pr4 S13 2.753316 1_555
Pr4 S2 2.863656 1_555
Pr4 S11 2.888074 1_555
Pr4 S0 2.951830 1_565
Pr4 S10 2.979527 1_555
Pr4 S4 3.037149 1_555
Pr4 S8 3.188219 1_555
Pr5 S13 2.753314 1_555
Pr5 S0 2.863656 1_455
Pr5 S9 2.888073 1_555
Pr5 S1 2.951830 1_555
Pr5 S11 2.979527 1_555
Pr5 S5 3.037149 1_555
Pr5 S6 3.188219 1_455
Pr6 S12 2.711815 1_556
Pr6 S6 2.724663 1_555
Pr6 S7 2.724664 1_555
Pr6 S8 2.724670 1_555
Pr6 S0 3.591846 1_555
Pr6 S2 3.591854 1_555
Pr6 S1 3.591855 1_555
Pr7 S13 2.711815 1_555
Pr7 S9 2.724663 1_554
Pr7 S10 2.724664 1_554
Pr7 S11 2.724670 1_554
Pr7 S3 3.591846 1_555
Pr7 S5 3.591854 1_555
Pr7 S4 3.591855 1_555
Cu0 S3 2.213800 1_545
Cu0 S5 2.213800 1_555
Cu0 S4 2.213800 1_445
Cu1 S0 2.213800 1_455
Cu1 S2 2.213800 1_445
Cu1 S1 2.213800 1_555
