# generated using pymatgen
data_KICl2O
_symmetry_space_group_name_H-M   'P 1'
_cell_length_a   7.61113600
_cell_length_b   4.89888700
_cell_length_c   8.36048052
_cell_angle_alpha   78.27025607
_cell_angle_beta   90.00000000
_cell_angle_gamma   90.00000000
_symmetry_Int_Tables_number   1
_chemical_formula_structural   KICl2O
_chemical_formula_sum   'K2 I2 Cl4 O2'
_cell_volume   305.21994846
_cell_formula_units_Z   2
loop_
 _symmetry_equiv_pos_site_id
 _symmetry_equiv_pos_as_xyz
  1  'x, y, z'
loop_
 _atom_site_type_symbol
 _atom_site_label
 _atom_site_symmetry_multiplicity
 _atom_site_fract_x
 _atom_site_fract_y
 _atom_site_fract_z
 _atom_site_occupancy
  K  K0  1  0.25000000  0.20949500  0.39968500  1
  K  K1  1  0.75000000  0.79050500  0.60031500  1
  I  I0  1  0.50000000  0.00000000  0.00000000  1
  I  I1  1  0.00000000  0.00000000  0.00000000  1
  Cl  Cl0  1  0.50324500  0.26238800  0.69283000  1
  Cl  Cl1  1  0.00324500  0.73761200  0.30717000  1
  Cl  Cl2  1  0.49675500  0.73761200  0.30717000  1
  Cl  Cl3  1  0.99675500  0.26238800  0.69283000  1
  O  O0  1  0.25000000  0.84005700  0.96750800  1
  O  O1  1  0.75000000  0.15994300  0.03249200  1
loop_
_geom_bond_atom_site_label_1
_geom_bond_atom_site_label_2
_geom_bond_distance
_geom_bond_site_symmetry_2
I0 O1 2.096392 1_555
I0 O0 2.096392 1_544
I1 O1 2.096392 1_455
I1 O0 2.096392 1_544
Cl0 I0 2.627887 1_556
Cl0 K1 3.163125 1_555
Cl0 K0 3.169719 1_555
Cl0 K1 3.193184 1_545
Cl1 I1 2.627887 1_565
Cl1 K0 3.163125 1_555
Cl1 K1 3.169719 1_455
Cl1 K0 3.193184 1_565
Cl2 I0 2.627887 1_565
Cl2 K0 3.163125 1_555
Cl2 K1 3.169719 1_555
Cl2 K0 3.193184 1_565
Cl3 I1 2.627887 1_656
Cl3 K1 3.163125 1_555
Cl3 K0 3.169719 1_655
Cl3 K1 3.193184 1_545
