# generated using pymatgen
data_LaGe3Rh
_symmetry_space_group_name_H-M   'P 1'
_cell_length_a   4.43218999
_cell_length_b   4.43218999
_cell_length_c   5.94218112
_cell_angle_alpha   111.87258945
_cell_angle_beta   111.87259065
_cell_angle_gamma   89.99589559
_symmetry_Int_Tables_number   1
_chemical_formula_structural   LaGe3Rh
_chemical_formula_sum   'La1 Ge3 Rh1'
_cell_volume   99.21654932
_cell_formula_units_Z   1
loop_
 _symmetry_equiv_pos_site_id
 _symmetry_equiv_pos_as_xyz
  1  'x, y, z'
loop_
 _atom_site_type_symbol
 _atom_site_label
 _atom_site_symmetry_multiplicity
 _atom_site_fract_x
 _atom_site_fract_y
 _atom_site_fract_z
 _atom_site_occupancy
  La  La0  1  0.57868442  0.57868448  0.15745162  1
  Ge  Ge0  1  0.84192675  0.34196958  0.68393307  1
  Ge  Ge1  1  0.34196960  0.84192670  0.68393306  1
  Ge  Ge2  1  0.00042907  0.00042908  0.00084002  1
  Rh  Rh0  1  0.23899217  0.23899215  0.47784124  1
loop_
_geom_bond_atom_site_label_1
_geom_bond_atom_site_label_2
_geom_bond_distance
_geom_bond_site_symmetry_2
La0 Rh0 3.432475 1_554
La0 Rh0 3.525583 1_555
La0 Rh0 3.527031 1_565
La0 Rh0 3.527031 1_655
La0 Rh0 3.528878 1_665
Ge0 Rh0 2.448351 1_655
Ge0 Rh0 2.448402 1_555
Ge0 Ge2 2.732999 1_656
Ge0 Ge2 2.734342 1_666
Ge0 La0 3.259669 1_556
Ge0 La0 3.261288 1_656
Ge0 La0 3.460488 1_555
Ge0 La0 3.462446 1_545
Ge1 Rh0 2.448351 1_565
Ge1 Rh0 2.448401 1_555
Ge1 Ge2 2.732999 1_566
Ge1 Ge2 2.734342 1_666
Ge1 La0 3.259669 1_556
Ge1 La0 3.261288 1_566
Ge1 La0 3.460488 1_555
Ge1 La0 3.462446 1_455
Ge2 Rh0 2.409168 1_555
Ge2 La0 3.232181 1_445
Ge2 La0 3.232200 1_545
Ge2 La0 3.232200 1_455
Ge2 La0 3.232655 1_555
