# generated using pymatgen
data_MnB2P3H10N2ClO13
_symmetry_space_group_name_H-M   'P 1'
_cell_length_a   8.60898400
_cell_length_b   9.16356400
_cell_length_c   18.76149353
_cell_angle_alpha   63.11578168
_cell_angle_beta   90.00000000
_cell_angle_gamma   90.00000000
_symmetry_Int_Tables_number   1
_chemical_formula_structural   MnB2P3H10N2ClO13
_chemical_formula_sum   'Mn4 B8 P12 H40 N8 Cl4 O52'
_cell_volume   1320.11163423
_cell_formula_units_Z   4
loop_
 _symmetry_equiv_pos_site_id
 _symmetry_equiv_pos_as_xyz
  1  'x, y, z'
loop_
 _atom_site_type_symbol
 _atom_site_label
 _atom_site_symmetry_multiplicity
 _atom_site_fract_x
 _atom_site_fract_y
 _atom_site_fract_z
 _atom_site_occupancy
  Mn  Mn0  1  0.82430400  0.52761500  0.37218000  1
  Mn  Mn1  1  0.67569600  0.52761500  0.87218000  1
  Mn  Mn2  1  0.17569600  0.47238500  0.62782000  1
  Mn  Mn3  1  0.32430400  0.47238500  0.12782000  1
  B  B0  1  0.03927600  0.83871200  0.32733800  1
  B  B1  1  0.46072400  0.83871200  0.82733800  1
  B  B2  1  0.96072400  0.16128800  0.67266200  1
  B  B3  1  0.53927600  0.16128800  0.17266200  1
  B  B4  1  0.67522300  0.94441400  0.43773200  1
  B  B5  1  0.82477700  0.94441400  0.93773200  1
  B  B6  1  0.32477700  0.05558600  0.56226800  1
  B  B7  1  0.17522300  0.05558600  0.06226800  1
  P  P0  1  0.92450200  0.72021900  0.48074200  1
  P  P1  1  0.57549800  0.72021900  0.98074200  1
  P  P2  1  0.07549800  0.27978100  0.51925800  1
  P  P3  1  0.42450200  0.27978100  0.01925800  1
  P  P4  1  0.54225600  0.22448300  0.43907100  1
  P  P5  1  0.95774400  0.22448300  0.93907100  1
  P  P6  1  0.45774400  0.77551700  0.56092900  1
  P  P7  1  0.04225600  0.77551700  0.06092900  1
  P  P8  1  0.73092000  0.93715100  0.29177900  1
  P  P9  1  0.76908000  0.93715100  0.79177900  1
  P  P10  1  0.26908000  0.06284900  0.70822100  1
  P  P11  1  0.23092000  0.06284900  0.20822100  1
  H  H0  1  0.08702500  0.68158300  0.27738600  1
  H  H1  1  0.41297500  0.68158300  0.77738600  1
  H  H2  1  0.91297500  0.31841700  0.72261400  1
  H  H3  1  0.58702500  0.31841700  0.22261400  1
  H  H4  1  0.39633800  0.34159300  0.32962300  1
  H  H5  1  0.10366200  0.34159300  0.82962300  1
  H  H6  1  0.60366200  0.65840700  0.67037700  1
  H  H7  1  0.89633800  0.65840700  0.17037700  1
  H  H8  1  0.00374700  0.92229300  0.62634500  1
  H  H9  1  0.49625300  0.92229300  0.12634500  1
  H  H10  1  0.99625300  0.07770700  0.37365500  1
  H  H11  1  0.50374700  0.07770700  0.87365500  1
  H  H12  1  0.81637700  0.89446700  0.61310600  1
  H  H13  1  0.68362300  0.89446700  0.11310600  1
  H  H14  1  0.18362300  0.10553300  0.38689400  1
  H  H15  1  0.31637700  0.10553300  0.88689400  1
  H  H16  1  0.94835600  0.75486500  0.61666200  1
  H  H17  1  0.55164400  0.75486500  0.11666200  1
  H  H18  1  0.05164400  0.24513500  0.38333800  1
  H  H19  1  0.44835600  0.24513500  0.88333800  1
  H  H20  1  0.90092100  0.77890400  0.70131200  1
  H  H21  1  0.59907900  0.77890400  0.20131200  1
  H  H22  1  0.09907900  0.22109600  0.29868800  1
  H  H23  1  0.40092100  0.22109600  0.79868800  1
  H  H24  1  0.42827000  0.71395800  0.42448300  1
  H  H25  1  0.07173000  0.71395800  0.92448300  1
  H  H26  1  0.57173000  0.28604200  0.57551700  1
  H  H27  1  0.92827000  0.28604200  0.07551700  1
  H  H28  1  0.47427600  0.56524500  0.39863900  1
  H  H29  1  0.02572400  0.56524500  0.89863900  1
  H  H30  1  0.52572400  0.43475500  0.60136100  1
  H  H31  1  0.97427600  0.43475500  0.10136100  1
  H  H32  1  0.30280000  0.55664100  0.44603200  1
  H  H33  1  0.19720000  0.55664100  0.94603200  1
  H  H34  1  0.69720000  0.44335900  0.55396800  1
  H  H35  1  0.80280000  0.44335900  0.05396800  1
  H  H36  1  0.33173000  0.70158500  0.35011700  1
  H  H37  1  0.16827000  0.70158500  0.85011700  1
  H  H38  1  0.66827000  0.29841500  0.64988300  1
  H  H39  1  0.83173000  0.29841500  0.14988300  1
  N  N0  1  0.91752800  0.83634700  0.63988400  1
  N  N1  1  0.58247200  0.83634700  0.13988400  1
  N  N2  1  0.08247200  0.16365300  0.36011600  1
  N  N3  1  0.41752800  0.16365300  0.86011600  1
  N  N4  1  0.38386800  0.63416800  0.40464900  1
  N  N5  1  0.11613200  0.63416800  0.90464900  1
  N  N6  1  0.61613200  0.36583200  0.59535100  1
  N  N7  1  0.88386800  0.36583200  0.09535100  1
  Cl  Cl0  1  0.81087000  0.45387000  0.25510400  1
  Cl  Cl1  1  0.68913000  0.45387000  0.75510400  1
  Cl  Cl2  1  0.18913000  0.54613000  0.74489600  1
  Cl  Cl3  1  0.31087000  0.54613000  0.24489600  1
  O  O0  1  0.68737900  0.07808000  0.20772400  1
  O  O1  1  0.81262100  0.07808000  0.70772400  1
  O  O2  1  0.31262100  0.92192000  0.79227600  1
  O  O3  1  0.18737900  0.92192000  0.29227600  1
  O  O4  1  0.05473000  0.78826000  0.41429100  1
  O  O5  1  0.44527000  0.78826000  0.91429100  1
  O  O6  1  0.94527000  0.21174000  0.58570900  1
  O  O7  1  0.55473000  0.21174000  0.08570900  1
  O  O8  1  0.82782500  0.87715100  0.46958800  1
  O  O9  1  0.67217500  0.87715100  0.96958800  1
  O  O10  1  0.17217500  0.12284900  0.53041200  1
  O  O11  1  0.32782500  0.12284900  0.03041200  1
  O  O12  1  0.45526000  0.17008000  0.52066700  1
  O  O13  1  0.04474000  0.17008000  0.02066700  1
  O  O14  1  0.54474000  0.82992000  0.47933300  1
  O  O15  1  0.95526000  0.82992000  0.97933300  1
  O  O16  1  0.66606000  0.09337000  0.44987500  1
  O  O17  1  0.83394000  0.09337000  0.94987500  1
  O  O18  1  0.33394000  0.90663000  0.55012500  1
  O  O19  1  0.16606000  0.90663000  0.05012500  1
  O  O20  1  0.65502300  0.98866600  0.35260900  1
  O  O21  1  0.84497700  0.98866600  0.85260900  1
  O  O22  1  0.34497700  0.01133400  0.64739100  1
  O  O23  1  0.15502300  0.01133400  0.14739100  1
  O  O24  1  0.91063300  0.96025600  0.29380500  1
  O  O25  1  0.58936700  0.96025600  0.79380500  1
  O  O26  1  0.08936700  0.03974400  0.70619500  1
  O  O27  1  0.41063300  0.03974400  0.20619500  1
  O  O28  1  0.81900100  0.59849400  0.46955100  1
  O  O29  1  0.68099900  0.59849400  0.96955100  1
  O  O30  1  0.18099900  0.40150600  0.53044900  1
  O  O31  1  0.31900100  0.40150600  0.03044900  1
  O  O32  1  0.00392600  0.65903700  0.56175100  1
  O  O33  1  0.49607400  0.65903700  0.06175100  1
  O  O34  1  0.99607400  0.34096300  0.43824900  1
  O  O35  1  0.50392600  0.34096300  0.93824900  1
  O  O36  1  0.61444400  0.38814100  0.41923200  1
  O  O37  1  0.88555600  0.38814100  0.91923200  1
  O  O38  1  0.38555600  0.61185900  0.58076800  1
  O  O39  1  0.11444400  0.61185900  0.08076800  1
  O  O40  1  0.68340800  0.76925300  0.30298900  1
  O  O41  1  0.81659200  0.76925300  0.80298900  1
  O  O42  1  0.31659200  0.23074700  0.69701100  1
  O  O43  1  0.18340800  0.23074700  0.19701100  1
  O  O44  1  0.01558000  0.69614900  0.31410500  1
  O  O45  1  0.48442000  0.69614900  0.81410500  1
  O  O46  1  0.98442000  0.30385100  0.68589500  1
  O  O47  1  0.51558000  0.30385100  0.18589500  1
  O  O48  1  0.42127900  0.22906100  0.37484500  1
  O  O49  1  0.07872100  0.22906100  0.87484500  1
  O  O50  1  0.57872100  0.77093900  0.62515500  1
  O  O51  1  0.92127900  0.77093900  0.12515500  1
loop_
_geom_bond_atom_site_label_1
_geom_bond_atom_site_label_2
_geom_bond_distance
_geom_bond_site_symmetry_2
Mn0 O36 2.157892 1_555
Mn0 O34 2.175155 1_555
Mn0 O44 2.182212 1_655
Mn0 O28 2.198705 1_555
Mn0 O40 2.336635 1_555
Mn1 O37 2.157892 1_555
Mn1 O35 2.175155 1_555
Mn1 O45 2.182212 1_555
Mn1 O29 2.198705 1_555
Mn1 O41 2.336635 1_555
Mn2 O38 2.157892 1_555
Mn2 O32 2.175155 1_555
Mn2 O46 2.182212 1_455
Mn2 O30 2.198705 1_555
Mn2 O42 2.336635 1_555
Mn3 O39 2.157892 1_555
Mn3 O33 2.175155 1_555
Mn3 O47 2.182212 1_555
Mn3 O31 2.198705 1_555
Mn3 O43 2.336635 1_555
B0 O44 1.450248 1_555
B0 O3 1.478565 1_555
B0 O4 1.486845 1_555
B0 O24 1.493024 1_455
B1 O45 1.450248 1_555
B1 O2 1.478565 1_555
B1 O5 1.486845 1_555
B1 O25 1.493024 1_555
B2 O46 1.450248 1_555
B2 O1 1.478565 1_555
B2 O6 1.486845 1_555
B2 O26 1.493024 1_655
B3 O47 1.450248 1_555
B3 O0 1.478565 1_555
B3 O7 1.486845 1_555
B3 O27 1.493024 1_555
B4 O8 1.459415 1_555
B4 O20 1.469529 1_555
B4 O16 1.484081 1_565
B4 O14 1.493729 1_555
B5 O9 1.459415 1_555
B5 O21 1.469529 1_555
B5 O17 1.484081 1_565
B5 O15 1.493729 1_555
B6 O10 1.459415 1_555
B6 O22 1.469529 1_555
B6 O18 1.484081 1_545
B6 O12 1.493729 1_555
B7 O11 1.459415 1_555
B7 O23 1.469529 1_555
B7 O19 1.484081 1_545
B7 O13 1.493729 1_555
H0 O44 0.976664 1_555
H1 O45 0.976664 1_555
H2 O46 0.976664 1_555
H3 O47 0.976664 1_555
H4 O48 1.018854 1_555
H5 O49 1.018854 1_555
H6 O50 1.018854 1_555
H7 O51 1.018854 1_555
H8 N0 1.027042 1_455
H9 N1 1.027042 1_555
H10 N2 1.027042 1_655
H11 N3 1.027042 1_555
H12 N0 1.025851 1_555
H13 N1 1.025851 1_555
H14 N2 1.025851 1_555
H15 N3 1.025851 1_555
H16 N0 1.054496 1_555
H16 O32 1.696898 1_655
H17 N1 1.054496 1_555
H17 O33 1.696898 1_555
H18 N2 1.054496 1_555
H18 O34 1.696898 1_455
H19 N3 1.054496 1_555
H19 O35 1.696898 1_555
H20 N0 1.037831 1_555
H21 N1 1.037831 1_555
H22 N2 1.037831 1_555
H23 N3 1.037831 1_555
H24 N4 1.032107 1_555
H25 N5 1.032107 1_555
H26 N6 1.032107 1_555
H27 N7 1.032107 1_555
H28 N4 1.040094 1_555
H29 N5 1.040094 1_555
H30 N6 1.040094 1_555
H31 N7 1.040094 1_555
H32 N4 1.046784 1_555
H33 N5 1.046784 1_555
H34 N6 1.046784 1_555
H35 N7 1.046784 1_555
H36 N4 1.028711 1_555
H37 N5 1.028711 1_555
H38 N6 1.028711 1_555
H39 N7 1.028711 1_555
Cl0 H7 1.971473 1_555
Cl0 Mn0 2.576265 1_555
Cl1 H6 1.971473 1_555
Cl1 Mn1 2.576265 1_555
Cl2 H5 1.971473 1_555
Cl2 Mn2 2.576265 1_555
Cl3 H4 1.971473 1_555
Cl3 Mn3 2.576265 1_555
O0 P8 1.566320 1_545
O1 P9 1.566320 1_545
O2 P10 1.566320 1_565
O3 P11 1.566320 1_565
O4 P0 1.580189 1_455
O5 P1 1.580189 1_555
O6 P2 1.580189 1_655
O7 P3 1.580189 1_555
O8 P0 1.591335 1_555
O9 P1 1.591335 1_555
O10 P2 1.591335 1_555
O11 P3 1.591335 1_555
O12 P4 1.569329 1_555
O13 P5 1.569329 1_454
O14 P6 1.569329 1_555
O15 P7 1.569329 1_656
O16 P4 1.549302 1_555
O17 P5 1.549302 1_555
O18 P6 1.549302 1_555
O19 P7 1.549302 1_555
O20 P8 1.561882 1_555
O21 P9 1.561882 1_555
O22 P10 1.561882 1_555
O23 P11 1.561882 1_555
O24 P8 1.564357 1_555
O25 P9 1.564357 1_555
O26 P10 1.564357 1_555
O27 P11 1.564357 1_555
O28 P0 1.524798 1_555
O29 P1 1.524798 1_555
O30 P2 1.524798 1_555
O31 P3 1.524798 1_555
O32 P0 1.523541 1_455
O33 P1 1.523541 1_554
O34 P2 1.523541 1_655
O35 P3 1.523541 1_556
O36 P4 1.506323 1_555
O37 P5 1.506323 1_555
O38 P6 1.506323 1_555
O39 P7 1.506323 1_555
O40 P8 1.511958 1_555
O41 P9 1.511958 1_555
O42 P10 1.511958 1_555
O43 P11 1.511958 1_555
O48 P4 1.578832 1_555
O49 P5 1.578832 1_455
O50 P6 1.578832 1_555
O51 P7 1.578832 1_655
