# generated using pymatgen
data_KBaLaSeO6
_symmetry_space_group_name_H-M   'P 1'
_cell_length_a   5.95040871
_cell_length_b   5.95040871
_cell_length_c   5.95040871
_cell_angle_alpha   60.00000000
_cell_angle_beta   60.00000000
_cell_angle_gamma   60.00000000
_symmetry_Int_Tables_number   1
_chemical_formula_structural   KBaLaSeO6
_chemical_formula_sum   'K1 Ba1 La1 Se1 O6'
_cell_volume   148.97911582
_cell_formula_units_Z   1
loop_
 _symmetry_equiv_pos_site_id
 _symmetry_equiv_pos_as_xyz
  1  'x, y, z'
loop_
 _atom_site_type_symbol
 _atom_site_label
 _atom_site_symmetry_multiplicity
 _atom_site_fract_x
 _atom_site_fract_y
 _atom_site_fract_z
 _atom_site_occupancy
  K  K0  1  0.75000000  0.75000000  0.75000000  1
  Ba  Ba0  1  0.25000000  0.25000000  0.25000000  1
  La  La0  1  0.00000000  0.00000000  0.00000000  1
  Se  Se0  1  0.50000000  0.50000000  0.50000000  1
  O  O0  1  0.71971325  0.28028675  0.28028675  1
  O  O1  1  0.28028675  0.71971325  0.71971325  1
  O  O2  1  0.71971325  0.28028675  0.71971325  1
  O  O3  1  0.28028675  0.71971325  0.28028675  1
  O  O4  1  0.71971325  0.71971325  0.28028675  1
  O  O5  1  0.28028675  0.28028675  0.71971325  1
loop_
_geom_bond_atom_site_label_1
_geom_bond_atom_site_label_2
_geom_bond_distance
_geom_bond_site_symmetry_2
K0 O2 2.986101 1_555
K0 O4 2.986101 1_555
K0 O1 2.986101 1_555
K0 O0 2.986101 1_556
K0 O4 2.986101 1_556
K0 O0 2.986101 1_565
K0 O3 2.986101 1_655
K0 O1 2.986101 1_655
K0 O5 2.986101 1_655
K0 O5 2.986101 1_565
K0 O3 2.986101 1_556
K0 O2 2.986101 1_565
Ba0 O5 2.986101 1_555
Ba0 O5 2.986101 1_554
Ba0 O1 2.986101 1_545
Ba0 O0 2.986101 1_455
Ba0 O2 2.986101 1_554
Ba0 O4 2.986101 1_545
Ba0 O3 2.986101 1_555
Ba0 O0 2.986101 1_555
Ba0 O4 2.986101 1_455
Ba0 O1 2.986101 1_554
Ba0 O3 2.986101 1_545
Ba0 O2 2.986101 1_455
La0 O3 2.358655 1_545
La0 O2 2.358655 1_454
La0 O4 2.358655 1_445
La0 O1 2.358655 1_544
La0 O5 2.358655 1_554
La0 O0 2.358655 1_455
O0 Se0 1.848920 1_555
O1 Se0 1.848920 1_555
O2 Se0 1.848920 1_555
O3 Se0 1.848920 1_555
O4 Se0 1.848920 1_555
O5 Se0 1.848920 1_555
