# generated using pymatgen
data_Ga3Pb
_symmetry_space_group_name_H-M   'P 1'
_cell_length_a   4.99973922
_cell_length_b   4.99973922
_cell_length_c   4.99973922
_cell_angle_alpha   117.56658252
_cell_angle_beta   117.56658252
_cell_angle_gamma   94.26915215
_symmetry_Int_Tables_number   1
_chemical_formula_structural   Ga3Pb
_chemical_formula_sum   'Ga3 Pb1'
_cell_volume   91.35068943
_cell_formula_units_Z   1
loop_
 _symmetry_equiv_pos_site_id
 _symmetry_equiv_pos_as_xyz
  1  'x, y, z'
loop_
 _atom_site_type_symbol
 _atom_site_label
 _atom_site_symmetry_multiplicity
 _atom_site_fract_x
 _atom_site_fract_y
 _atom_site_fract_z
 _atom_site_occupancy
  Ga  Ga0  1  0.75000000  0.25000000  0.50000000  1
  Ga  Ga1  1  0.25000000  0.75000000  0.50000000  1
  Ga  Ga2  1  0.50000000  0.50000000  0.00000000  1
  Pb  Pb0  1  0.00000000  0.00000000  0.00000000  1
loop_
_geom_bond_atom_site_label_1
_geom_bond_atom_site_label_2
_geom_bond_distance
_geom_bond_site_symmetry_2
Ga0 Pb0 3.099456 1_655
Ga0 Pb0 3.099456 1_656
Ga0 Pb0 3.099456 1_555
Ga0 Ga2 3.099456 1_656
Ga0 Ga2 3.099456 1_545
Ga0 Ga2 3.099456 1_555
Ga0 Pb0 3.099456 1_666
Ga0 Ga2 3.099456 1_556
Ga1 Ga2 3.099456 1_455
Ga1 Pb0 3.099456 1_555
Ga1 Pb0 3.099456 1_566
Ga1 Ga2 3.099456 1_555
Ga1 Ga2 3.099456 1_556
Ga1 Ga2 3.099456 1_566
Ga1 Pb0 3.099456 1_666
Ga1 Pb0 3.099456 1_565
