# generated using pymatgen
data_Mg8SiW9O49
_symmetry_space_group_name_H-M   'P 1'
_cell_length_a   13.62104928
_cell_length_b   13.61973149
_cell_length_c   14.33487337
_cell_angle_alpha   89.99454309
_cell_angle_beta   90.01091271
_cell_angle_gamma   120.00319926
_symmetry_Int_Tables_number   1
_chemical_formula_structural   Mg8SiW9O49
_chemical_formula_sum   'Mg16 Si2 W18 O98'
_cell_volume   2302.97695882
_cell_formula_units_Z   2
loop_
 _symmetry_equiv_pos_site_id
 _symmetry_equiv_pos_as_xyz
  1  'x, y, z'
loop_
 _atom_site_type_symbol
 _atom_site_label
 _atom_site_symmetry_multiplicity
 _atom_site_fract_x
 _atom_site_fract_y
 _atom_site_fract_z
 _atom_site_occupancy
  Mg  Mg0  1  0.59096863  0.40846181  0.29640469  1
  Mg  Mg1  1  0.81739375  0.40900538  0.29639336  1
  Mg  Mg2  1  0.59146064  0.18256351  0.29641883  1
  Mg  Mg3  1  0.18250682  0.59153819  0.79640469  1
  Mg  Mg4  1  0.40838837  0.59099462  0.79639336  1
  Mg  Mg5  1  0.40889713  0.81743649  0.79641883  1
  Mg  Mg6  1  0.53474616  0.76737359  0.44201814  1
  Mg  Mg7  1  0.23259338  0.46518519  0.44200066  1
  Mg  Mg8  1  0.23256318  0.76734108  0.44203873  1
  Mg  Mg9  1  0.76737257  0.23262641  0.94201814  1
  Mg  Mg10  1  0.76740819  0.53481481  0.94200066  1
  Mg  Mg11  1  0.46522210  0.23265892  0.94203873  1
  Mg  Mg12  1  0.99945095  0.99954020  0.06974888  1
  Mg  Mg13  1  0.99991075  0.00045980  0.56974888  1
  Mg  Mg14  1  0.33331433  0.66666601  0.59181260  1
  Mg  Mg15  1  0.66664832  0.33333399  0.09181260  1
  Si  Si0  1  0.33332403  0.66668972  0.98852990  1
  Si  Si1  1  0.66663431  0.33331028  0.48852990  1
  W  W0  1  0.67131032  0.60063391  0.49525467  1
  W  W1  1  0.92930145  0.32868869  0.49520948  1
  W  W2  1  0.39938755  0.07069603  0.49524275  1
  W  W3  1  0.07067641  0.39936609  0.99525467  1
  W  W4  1  0.60061275  0.67131131  0.99520948  1
  W  W5  1  0.32869152  0.92930397  0.99524275  1
  W  W6  1  0.92924137  0.60131170  0.49495874  1
  W  W7  1  0.67195279  0.07074005  0.49494963  1
  W  W8  1  0.39874122  0.32801379  0.49495317  1
  W  W9  1  0.32792967  0.39868830  0.99495874  1
  W  W10  1  0.60121275  0.92925995  0.99494963  1
  W  W11  1  0.07072743  0.67198621  0.99495317  1
  W  W12  1  0.24123741  0.48220534  0.18888246  1
  W  W13  1  0.24096412  0.75875787  0.18889598  1
  W  W14  1  0.51773859  0.75905520  0.18889869  1
  W  W15  1  0.75903207  0.51779466  0.68888246  1
  W  W16  1  0.48220625  0.24124213  0.68889598  1
  W  W17  1  0.75868340  0.24094480  0.68889869  1
  O  O0  1  0.71107130  0.63741385  0.98731252  1
  O  O1  1  0.92628277  0.28890684  0.98732645  1
  O  O2  1  0.36267850  0.07368624  0.98737453  1
  O  O3  1  0.07365745  0.36258615  0.48731252  1
  O  O4  1  0.63737593  0.71109316  0.48732645  1
  O  O5  1  0.28899226  0.92631376  0.48737453  1
  O  O6  1  0.07330993  0.71150855  0.48654965  1
  O  O7  1  0.63813621  0.92664311  0.48654482  1
  O  O8  1  0.28850269  0.36183126  0.48656638  1
  O  O9  1  0.36180138  0.28849145  0.98654965  1
  O  O10  1  0.71149310  0.07335689  0.98654482  1
  O  O11  1  0.92667143  0.63816874  0.98656638  1
  O  O12  1  0.84199823  0.68496025  0.47804674  1
  O  O13  1  0.84295759  0.15798228  0.47812705  1
  O  O14  1  0.31497917  0.15704405  0.47806305  1
  O  O15  1  0.15703798  0.31503975  0.97804674  1
  O  O16  1  0.68497531  0.84201772  0.97812705  1
  O  O17  1  0.15793512  0.84295595  0.97806305  1
  O  O18  1  0.95348903  0.47711235  0.52638061  1
  O  O19  1  0.52361187  0.04646782  0.52645618  1
  O  O20  1  0.52289815  0.47641605  0.52644576  1
  O  O21  1  0.47637667  0.52288765  0.02638061  1
  O  O22  1  0.47714405  0.95353218  0.02645618  1
  O  O23  1  0.04648210  0.52358395  0.02644576  1
  O  O24  1  0.09541060  0.38945598  0.13205112  1
  O  O25  1  0.29421019  0.90460822  0.13210974  1
  O  O26  1  0.61043414  0.70583552  0.13205756  1
  O  O27  1  0.70595462  0.61054402  0.63205112  1
  O  O28  1  0.38960196  0.09539178  0.63210974  1
  O  O29  1  0.90459861  0.29416448  0.63205756  1
  O  O30  1  0.89155087  0.55153163  0.37518867  1
  O  O31  1  0.65995777  0.10840668  0.37517413  1
  O  O32  1  0.44848840  0.34009656  0.37519110  1
  O  O33  1  0.34001924  0.44846837  0.87518867  1
  O  O34  1  0.55155108  0.89159332  0.87517413  1
  O  O35  1  0.10839184  0.65990344  0.87519110  1
  O  O36  1  0.07700468  0.90676641  0.07027483  1
  O  O37  1  0.82921399  0.92368707  0.07161252  1
  O  O38  1  0.09374605  0.16960205  0.07070615  1
  O  O39  1  0.17023826  0.09323359  0.57027483  1
  O  O40  1  0.90552692  0.07631293  0.57161252  1
  O  O41  1  0.92414400  0.83039795  0.57070615  1
  O  O42  1  0.65902594  0.55119731  0.37551680  1
  O  O43  1  0.89213969  0.34100282  0.37549530  1
  O  O44  1  0.44883016  0.10787030  0.37554761  1
  O  O45  1  0.10782863  0.44880269  0.87551680  1
  O  O46  1  0.55113687  0.65899718  0.87549530  1
  O  O47  1  0.34095986  0.89212970  0.87554761  1
  O  O48  1  0.27811608  0.72266984  0.69910051  1
  O  O49  1  0.44451838  0.72190063  0.69914774  1
  O  O50  1  0.27722414  0.55537625  0.69911033  1
  O  O51  1  0.55544625  0.27733016  0.19910051  1
  O  O52  1  0.72261775  0.27809937  0.19914774  1
  O  O53  1  0.72184789  0.44462375  0.19911033  1
  O  O54  1  0.39667863  0.60322612  0.20023814  1
  O  O55  1  0.20664884  0.60333515  0.20019613  1
  O  O56  1  0.39677194  0.79340358  0.20017642  1
  O  O57  1  0.79345251  0.39677388  0.70023814  1
  O  O58  1  0.60331369  0.39666485  0.70019613  1
  O  O59  1  0.60336835  0.20659642  0.70017642  1
  O  O60  1  0.21631119  0.43275757  0.30643518  1
  O  O61  1  0.21656763  0.78366568  0.30646288  1
  O  O62  1  0.56714961  0.78354390  0.30644690  1
  O  O63  1  0.78355362  0.56724243  0.80643518  1
  O  O64  1  0.43290195  0.21633432  0.80646288  1
  O  O65  1  0.78360570  0.21645610  0.80644690  1
  O  O66  1  0.29307996  0.38878401  0.13178248  1
  O  O67  1  0.09569760  0.70690682  0.13184482  1
  O  O68  1  0.61130352  0.90431725  0.13185681  1
  O  O69  1  0.90429596  0.61121599  0.63178248  1
  O  O70  1  0.38879078  0.29309318  0.63184482  1
  O  O71  1  0.70698627  0.09568275  0.63185681  1
  O  O72  1  0.38786334  0.77630150  0.48042102  1
  O  O73  1  0.38841221  0.61216254  0.48048212  1
  O  O74  1  0.22372025  0.61153073  0.48042907  1
  O  O75  1  0.61156185  0.22369850  0.98042102  1
  O  O76  1  0.77624967  0.38783746  0.98048212  1
  O  O77  1  0.61218952  0.38846927  0.98042907  1
  O  O78  1  0.51004065  0.48136336  0.21844090  1
  O  O79  1  0.97130814  0.48988694  0.21855274  1
  O  O80  1  0.51859947  0.02875239  0.21853945  1
  O  O81  1  0.02867728  0.51863664  0.71844090  1
  O  O82  1  0.48142120  0.51011306  0.71855274  1
  O  O83  1  0.48984707  0.97124761  0.71853945  1
  O  O84  1  0.95262117  0.88262044  0.96126132  1
  O  O85  1  0.93022024  0.04733637  0.96158393  1
  O  O86  1  0.11793902  0.07011174  0.96199918  1
  O  O87  1  0.07000073  0.11737956  0.46126132  1
  O  O88  1  0.88288387  0.95266363  0.46158393  1
  O  O89  1  0.04782728  0.92988826  0.46199918  1
  O  O90  1  0.26680328  0.53414423  0.02917400  1
  O  O91  1  0.26731666  0.73323068  0.02914603  1
  O  O92  1  0.46586643  0.73272721  0.02914634  1
  O  O93  1  0.73265905  0.46585577  0.52917400  1
  O  O94  1  0.53408599  0.26676932  0.52914603  1
  O  O95  1  0.73313922  0.26727279  0.52914634  1
  O  O96  1  0.33328263  0.66664037  0.87509495  1
  O  O97  1  0.66664226  0.33335963  0.37509495  1
loop_
_geom_bond_atom_site_label_1
_geom_bond_atom_site_label_2
_geom_bond_distance
_geom_bond_site_symmetry_2
Mg0 O32 2.025427 1_555
Mg0 O42 2.030363 1_555
Mg0 O97 2.105922 1_555
Mg0 O53 2.118619 1_555
Mg0 O51 2.122593 1_555
Mg0 O78 2.131648 1_555
Mg1 O30 2.025654 1_555
Mg1 O43 2.030404 1_555
Mg1 O97 2.106080 1_555
Mg1 O52 2.118129 1_555
Mg1 O53 2.122355 1_555
Mg1 O79 2.131848 1_555
Mg2 O31 2.026551 1_555
Mg2 O44 2.029769 1_555
Mg2 O97 2.106026 1_555
Mg2 O51 2.117854 1_555
Mg2 O52 2.122434 1_555
Mg2 O80 2.130850 1_555
Mg3 O35 2.025427 1_555
Mg3 O45 2.030363 1_555
Mg3 O96 2.105922 1_555
Mg3 O50 2.118619 1_555
Mg3 O48 2.122593 1_555
Mg3 O81 2.131648 1_555
Mg4 O33 2.025654 1_555
Mg4 O46 2.030405 1_555
Mg4 O96 2.106080 1_555
Mg4 O49 2.118129 1_555
Mg4 O50 2.122355 1_555
Mg4 O82 2.131848 1_555
Mg5 O34 2.026551 1_555
Mg5 O47 2.029769 1_555
Mg5 O96 2.106026 1_555
Mg5 O48 2.117854 1_555
Mg5 O49 2.122434 1_555
Mg5 O83 2.130850 1_555
Mg6 O62 1.980690 1_555
Mg6 O4 2.008680 1_555
Mg6 O7 2.010198 1_555
Mg6 O73 2.128829 1_555
Mg6 O72 2.136437 1_555
Mg7 O60 1.980595 1_555
Mg7 O3 2.009021 1_555
Mg7 O8 2.010297 1_555
Mg7 O74 2.128852 1_555
Mg7 O73 2.137015 1_555
Mg8 O61 1.980443 1_555
Mg8 O5 2.009177 1_555
Mg8 O6 2.010359 1_555
Mg8 O72 2.129253 1_555
Mg8 O74 2.136544 1_555
Mg9 O65 1.980690 1_555
Mg9 O1 2.008680 1_555
Mg9 O10 2.010198 1_555
Mg9 O76 2.128829 1_555
Mg9 O75 2.136436 1_555
Mg10 O63 1.980595 1_555
Mg10 O0 2.009021 1_555
Mg10 O11 2.010297 1_555
Mg10 O77 2.128852 1_555
Mg10 O76 2.137014 1_555
Mg11 O64 1.980443 1_555
Mg11 O2 2.009177 1_555
Mg11 O9 2.010359 1_555
Mg11 O75 2.129253 1_555
Mg11 O77 2.136544 1_555
Mg12 O38 2.009833 1_665
Mg12 O36 2.011821 1_655
Mg12 O37 2.012237 1_555
Mg12 O85 2.080942 1_564
Mg12 O84 2.084566 1_554
Mg12 O86 2.088923 1_664
Mg13 O41 2.009833 1_545
Mg13 O39 2.011821 1_655
Mg13 O40 2.012237 1_555
Mg13 O88 2.080942 1_545
Mg13 O87 2.084566 1_655
Mg13 O89 2.088923 1_645
Mg14 O48 2.021537 1_555
Mg14 O49 2.021737 1_555
Mg14 O50 2.022071 1_555
Mg14 O73 2.054031 1_555
Mg14 O74 2.054238 1_555
Mg14 O72 2.054719 1_555
Mg15 O51 2.021537 1_555
Mg15 O52 2.021737 1_555
Mg15 O53 2.022071 1_555
Mg15 O76 2.054031 1_554
Mg15 O77 2.054238 1_554
Mg15 O75 2.054719 1_554
O0 W4 1.784495 1_555
O1 W3 1.784728 1_655
O2 W5 1.784235 1_545
O3 W1 1.784495 1_455
O4 W0 1.784728 1_555
O5 W2 1.784235 1_565
O6 W6 1.781155 1_455
O7 W7 1.781651 1_565
O8 W8 1.781256 1_555
O9 W9 1.781155 1_555
O10 W10 1.781651 1_545
O11 W11 1.781256 1_655
O12 W0 2.028543 1_555
O12 W6 2.030439 1_555
O13 W1 2.028304 1_555
O13 W7 2.031676 1_555
O14 W2 2.029208 1_555
O14 W8 2.031148 1_555
O15 W3 2.028543 1_555
O15 W9 2.030439 1_555
O16 W4 2.028304 1_555
O16 W10 2.031676 1_555
O17 W5 2.029208 1_555
O17 W11 2.031148 1_555
O18 W1 1.930979 1_555
O18 W6 1.931810 1_555
O19 W7 1.930860 1_555
O19 W2 1.931389 1_555
O20 W0 1.930945 1_555
O20 W8 1.931433 1_555
O21 W4 1.930979 1_554
O21 W9 1.931810 1_554
O22 W10 1.930860 1_554
O22 W5 1.931389 1_554
O23 W3 1.930945 1_554
O23 W11 1.931433 1_554
O24 W12 1.922249 1_555
O24 W3 2.005558 1_554
O25 W13 1.921894 1_555
O25 W5 2.006312 1_554
O26 W14 1.923349 1_555
O26 W4 2.006097 1_554
O27 W15 1.922249 1_555
O27 W0 2.005558 1_555
O28 W16 1.921894 1_555
O28 W2 2.006312 1_555
O29 W17 1.923349 1_555
O29 W1 2.006097 1_555
O30 W6 1.822834 1_555
O31 W7 1.822471 1_555
O32 W8 1.822750 1_555
O33 W9 1.822834 1_555
O34 W10 1.822471 1_555
O35 W11 1.822750 1_555
O42 W0 1.820689 1_555
O43 W1 1.820391 1_555
O44 W2 1.820214 1_555
O45 W3 1.820689 1_555
O46 W4 1.820391 1_555
O47 W5 1.820214 1_555
O54 W12 1.932843 1_555
O54 W14 1.936464 1_555
O55 W13 1.932891 1_555
O55 W12 1.935813 1_555
O56 W14 1.931550 1_555
O56 W13 1.936797 1_555
O57 W15 1.932843 1_555
O57 W17 1.936464 1_555
O58 W16 1.932891 1_555
O58 W15 1.935813 1_555
O59 W17 1.931550 1_555
O59 W16 1.936796 1_555
O60 W12 1.783179 1_555
O61 W13 1.782928 1_555
O62 W14 1.782903 1_555
O63 W15 1.783179 1_555
O64 W16 1.782928 1_555
O65 W17 1.782903 1_555
O66 W12 1.920039 1_555
O66 W9 2.006661 1_554
O67 W13 1.919570 1_555
O67 W11 2.007672 1_554
O68 W14 1.919755 1_555
O68 W10 2.008072 1_554
O69 W15 1.920039 1_555
O69 W6 2.006661 1_555
O70 W16 1.919570 1_555
O70 W8 2.007672 1_555
O71 W17 1.919755 1_555
O71 W7 2.008072 1_555
O90 Si0 1.668371 1_554
O90 W12 2.369949 1_555
O90 W3 2.416202 1_554
O90 W9 2.423609 1_554
O91 Si0 1.668494 1_554
O91 W13 2.370459 1_555
O91 W5 2.415299 1_554
O91 W11 2.423250 1_554
O92 Si0 1.668250 1_554
O92 W14 2.370273 1_555
O92 W4 2.416773 1_554
O92 W10 2.422556 1_554
O93 Si1 1.668371 1_555
O93 W15 2.369949 1_555
O93 W0 2.416202 1_555
O93 W6 2.423609 1_555
O94 Si1 1.668494 1_555
O94 W16 2.370459 1_555
O94 W2 2.415299 1_555
O94 W8 2.423250 1_555
O95 Si1 1.668250 1_555
O95 W17 2.370273 1_555
O95 W1 2.416773 1_555
O95 W7 2.422556 1_555
O96 Si0 1.626076 1_555
O97 Si1 1.626076 1_555
