# generated using pymatgen
data_AgH3CN2
_symmetry_space_group_name_H-M   'P 1'
_cell_length_a   4.33042500
_cell_length_b   5.85351100
_cell_length_c   15.63191400
_cell_angle_alpha   90.00000000
_cell_angle_beta   90.00000000
_cell_angle_gamma   90.00000000
_symmetry_Int_Tables_number   1
_chemical_formula_structural   AgH3CN2
_chemical_formula_sum   'Ag4 H12 C4 N8'
_cell_volume   396.24073195
_cell_formula_units_Z   4
loop_
 _symmetry_equiv_pos_site_id
 _symmetry_equiv_pos_as_xyz
  1  'x, y, z'
loop_
 _atom_site_type_symbol
 _atom_site_label
 _atom_site_symmetry_multiplicity
 _atom_site_fract_x
 _atom_site_fract_y
 _atom_site_fract_z
 _atom_site_occupancy
  Ag  Ag0  1  0.75080700  0.25000000  0.52403000  1
  Ag  Ag1  1  0.24919300  0.75000000  0.47597000  1
  Ag  Ag2  1  0.75080700  0.75000000  0.97597000  1
  Ag  Ag3  1  0.24919300  0.25000000  0.02403000  1
  H  H0  1  0.52481200  0.39030600  0.67331400  1
  H  H1  1  0.47518800  0.89030600  0.32668600  1
  H  H2  1  0.52481200  0.60969400  0.82668600  1
  H  H3  1  0.47518800  0.10969400  0.17331400  1
  H  H4  1  0.47518800  0.60969400  0.32668600  1
  H  H5  1  0.52481200  0.10969400  0.67331400  1
  H  H6  1  0.47518800  0.39030600  0.17331400  1
  H  H7  1  0.52481200  0.89030600  0.82668600  1
  H  H8  1  0.84184400  0.25000000  0.69904000  1
  H  H9  1  0.15815600  0.75000000  0.30096000  1
  H  H10  1  0.84184400  0.75000000  0.80096000  1
  H  H11  1  0.15815600  0.25000000  0.19904000  1
  C  C0  1  0.82665100  0.25000000  0.39615500  1
  C  C1  1  0.17334900  0.75000000  0.60384500  1
  C  C2  1  0.82665100  0.75000000  0.10384500  1
  C  C3  1  0.17334900  0.25000000  0.89615500  1
  N  N0  1  0.87238900  0.25000000  0.32211700  1
  N  N1  1  0.12761100  0.75000000  0.67788300  1
  N  N2  1  0.87238900  0.75000000  0.17788300  1
  N  N3  1  0.12761100  0.25000000  0.82211700  1
  N  N4  1  0.65531200  0.25000000  0.65850400  1
  N  N5  1  0.34468800  0.75000000  0.34149600  1
  N  N6  1  0.65531200  0.75000000  0.84149600  1
  N  N7  1  0.34468800  0.25000000  0.15850400  1
loop_
_geom_bond_atom_site_label_1
_geom_bond_atom_site_label_2
_geom_bond_distance
_geom_bond_site_symmetry_2
Ag0 C0 2.025733 1_555
Ag0 N4 2.142376 1_555
Ag1 C1 2.025733 1_555
Ag1 N5 2.142376 1_555
Ag2 C2 2.025733 1_556
Ag2 N6 2.142376 1_555
Ag3 C3 2.025733 1_554
Ag3 N7 2.142376 1_555
H0 N4 1.023456 1_555
H1 N5 1.023456 1_555
H2 N6 1.023456 1_555
H3 N7 1.023456 1_555
H4 N5 1.023456 1_555
H5 N4 1.023456 1_555
H6 N7 1.023456 1_555
H7 N6 1.023456 1_555
H8 N4 1.026645 1_555
H9 N5 1.026645 1_555
H10 N6 1.026645 1_555
H11 N7 1.026645 1_555
C0 N0 1.174181 1_555
C1 N1 1.174181 1_555
C2 N2 1.174181 1_555
C3 N3 1.174181 1_555
