# generated using pymatgen
data_Sm3SOF5
_symmetry_space_group_name_H-M   'P 1'
_cell_length_a   3.78271000
_cell_length_b   9.60917400
_cell_length_c   9.65705747
_cell_angle_alpha   60.39839641
_cell_angle_beta   90.00000000
_cell_angle_gamma   90.00000000
_symmetry_Int_Tables_number   1
_chemical_formula_structural   Sm3SOF5
_chemical_formula_sum   'Sm6 S2 O2 F10'
_cell_volume   305.20670455
_cell_formula_units_Z   2
loop_
 _symmetry_equiv_pos_site_id
 _symmetry_equiv_pos_as_xyz
  1  'x, y, z'
loop_
 _atom_site_type_symbol
 _atom_site_label
 _atom_site_symmetry_multiplicity
 _atom_site_fract_x
 _atom_site_fract_y
 _atom_site_fract_z
 _atom_site_occupancy
  Sm  Sm0  1  0.00000000  0.58283700  0.13319300  1
  Sm  Sm1  1  0.00000000  0.13199300  0.27225400  1
  Sm  Sm2  1  0.00000000  0.29879300  0.58532500  1
  Sm  Sm3  1  0.50000000  0.40509000  0.89583100  1
  Sm  Sm4  1  0.50000000  0.87704200  0.71424300  1
  Sm  Sm5  1  0.50000000  0.70413400  0.40314300  1
  S  S0  1  0.00000000  0.67138600  0.66716500  1
  S  S1  1  0.50000000  0.32648700  0.33864400  1
  O  O0  1  0.00000000  0.56370600  0.38740300  1
  O  O1  1  0.00000000  0.38369500  0.05202600  1
  F  F0  1  0.00000000  0.84075200  0.87936300  1
  F  F1  1  0.00000000  0.88720700  0.27355200  1
  F  F2  1  0.00000000  0.27586800  0.83763200  1
  F  F3  1  0.50000000  0.14566400  0.11871500  1
  F  F4  1  0.50000000  0.12177200  0.71484600  1
  F  F5  1  0.50000000  0.72711300  0.14921200  1
  F  F6  1  0.00000000  0.04786700  0.56615600  1
  F  F7  1  0.50000000  0.43116800  0.62559600  1
  F  F8  1  0.50000000  0.62241400  0.95241900  1
  F  F9  1  0.50000000  0.95501000  0.43328400  1
loop_
_geom_bond_atom_site_label_1
_geom_bond_atom_site_label_2
_geom_bond_distance
_geom_bond_site_symmetry_2
S0 Sm4 2.928621 1_555
S0 Sm4 2.928621 1_455
S0 Sm5 3.063404 1_555
S0 Sm5 3.063404 1_455
S0 Sm3 3.069039 1_455
S0 Sm3 3.069039 1_555
S1 Sm1 2.943625 1_655
S1 Sm1 2.943625 1_555
S1 Sm2 2.949014 1_555
S1 Sm2 2.949014 1_655
S1 Sm0 2.958586 1_555
S1 Sm0 2.958586 1_655
O0 Sm2 2.307921 1_555
O0 Sm0 2.369511 1_555
O0 Sm5 2.371463 1_555
O0 Sm5 2.371463 1_455
O1 Sm1 2.300249 1_555
O1 Sm3 2.363969 1_454
O1 Sm3 2.363969 1_554
O1 Sm0 2.399596 1_555
F0 Sm4 2.385822 1_555
F0 Sm4 2.385822 1_455
F0 Sm0 2.479739 1_556
F1 Sm1 2.346025 1_565
F1 Sm5 2.462340 1_555
F1 Sm5 2.462340 1_455
F2 Sm2 2.335594 1_555
F2 Sm3 2.474757 1_455
F2 Sm3 2.474757 1_555
F3 Sm3 2.355065 1_554
F3 Sm1 2.366549 1_555
F3 Sm1 2.366549 1_655
F4 Sm4 2.354535 1_545
F4 Sm2 2.435824 1_655
F4 Sm2 2.435824 1_555
F5 Sm5 2.351006 1_555
F5 Sm0 2.394799 1_555
F5 Sm0 2.394799 1_655
F6 Sm4 2.449022 1_445
F6 Sm4 2.449022 1_545
F6 Sm2 2.507803 1_555
F6 Sm1 2.538176 1_555
F7 Sm2 2.415616 1_555
F7 Sm2 2.415616 1_655
F7 Sm5 2.434782 1_555
F7 Sm3 2.495423 1_555
F8 Sm4 2.391063 1_555
F8 Sm3 2.405635 1_555
F8 Sm0 2.472565 1_656
F8 Sm0 2.472565 1_556
F9 Sm4 2.432020 1_555
F9 Sm1 2.504993 1_665
F9 Sm1 2.504993 1_565
F9 Sm5 2.566998 1_555
