# generated using pymatgen
data_ZrScVNi3
_symmetry_space_group_name_H-M   'P 1'
_cell_length_a   4.89814019
_cell_length_b   4.89814019
_cell_length_c   4.89814008
_cell_angle_alpha   62.47235648
_cell_angle_beta   62.47235648
_cell_angle_gamma   62.47235907
_symmetry_Int_Tables_number   1
_chemical_formula_structural   ZrScVNi3
_chemical_formula_sum   'Zr1 Sc1 V1 Ni3'
_cell_volume   87.67499845
_cell_formula_units_Z   1
loop_
 _symmetry_equiv_pos_site_id
 _symmetry_equiv_pos_as_xyz
  1  'x, y, z'
loop_
 _atom_site_type_symbol
 _atom_site_label
 _atom_site_symmetry_multiplicity
 _atom_site_fract_x
 _atom_site_fract_y
 _atom_site_fract_z
 _atom_site_occupancy
  Zr  Zr0  1  0.99438800  0.99438800  0.99438800  1
  Sc  Sc0  1  0.25357800  0.25357800  0.25357800  1
  V  V0  1  0.62611000  0.62611000  0.62611000  1
  Ni  Ni0  1  0.62485900  0.12620700  0.62485900  1
  Ni  Ni1  1  0.62485900  0.62485900  0.12620700  1
  Ni  Ni2  1  0.12620700  0.62485900  0.62485900  1
loop_
_geom_bond_atom_site_label_1
_geom_bond_atom_site_label_2
_geom_bond_distance
_geom_bond_site_symmetry_2
Sc0 V0 2.969014 1_554
Sc0 V0 2.969015 1_545
Sc0 V0 2.969015 1_455
Sc0 Zr0 3.050369 1_444
Sc0 Zr0 3.060004 1_445
Sc0 Zr0 3.060004 1_544
Sc0 Zr0 3.060004 1_454
V0 Zr0 2.961648 1_554
V0 Zr0 2.961648 1_545
V0 Zr0 2.961648 1_455
Ni0 V0 2.443897 1_545
Ni0 V0 2.454275 1_555
Ni0 Ni1 2.533166 1_555
Ni0 Ni2 2.533166 1_555
Ni0 Ni1 2.546862 1_546
Ni0 Ni2 2.546862 1_645
Ni0 Zr0 2.799446 1_545
Ni0 Sc0 2.821933 1_555
Ni0 Sc0 2.954749 1_556
Ni0 Sc0 2.954749 1_655
Ni0 Zr0 2.970807 1_544
Ni0 Zr0 2.970807 1_445
Ni1 V0 2.443897 1_554
Ni1 V0 2.454275 1_555
Ni1 Ni2 2.533166 1_555
Ni1 Ni2 2.546862 1_654
Ni1 Zr0 2.799446 1_554
Ni1 Sc0 2.821933 1_555
Ni1 Sc0 2.954749 1_655
Ni1 Sc0 2.954749 1_565
Ni1 Zr0 2.970807 1_454
Ni1 Zr0 2.970807 1_544
Ni2 V0 2.443897 1_455
Ni2 V0 2.454275 1_555
Ni2 Zr0 2.799446 1_455
Ni2 Sc0 2.821933 1_555
Ni2 Sc0 2.954749 1_556
Ni2 Sc0 2.954749 1_565
Ni2 Zr0 2.970807 1_454
Ni2 Zr0 2.970807 1_445
