# generated using pymatgen
data_YMg14Ga
_symmetry_space_group_name_H-M   'P 1'
_cell_length_a   6.42880874
_cell_length_b   6.42880821
_cell_length_c   10.36606761
_cell_angle_alpha   90.00000000
_cell_angle_beta   90.00000000
_cell_angle_gamma   120.00000274
_symmetry_Int_Tables_number   1
_chemical_formula_structural   YMg14Ga
_chemical_formula_sum   'Y1 Mg14 Ga1'
_cell_volume   371.02709996
_cell_formula_units_Z   1
loop_
 _symmetry_equiv_pos_site_id
 _symmetry_equiv_pos_as_xyz
  1  'x, y, z'
loop_
 _atom_site_type_symbol
 _atom_site_label
 _atom_site_symmetry_multiplicity
 _atom_site_fract_x
 _atom_site_fract_y
 _atom_site_fract_z
 _atom_site_occupancy
  Y  Y0  1  0.16666700  0.33333300  0.12500000  1
  Mg  Mg0  1  0.17948280  0.83974090  0.12500000  1
  Mg  Mg1  1  0.16190430  0.83095165  0.62500000  1
  Mg  Mg2  1  0.66025910  0.32051720  0.12500000  1
  Mg  Mg3  1  0.66904835  0.33809570  0.62500000  1
  Mg  Mg4  1  0.66025910  0.83974090  0.12500000  1
  Mg  Mg5  1  0.66904835  0.83095165  0.62500000  1
  Mg  Mg6  1  0.33178925  0.16821075  0.38391520  1
  Mg  Mg7  1  0.33178925  0.16821075  0.86608480  1
  Mg  Mg8  1  0.33178925  0.66357951  0.38391520  1
  Mg  Mg9  1  0.33178925  0.66357951  0.86608480  1
  Mg  Mg10  1  0.83642049  0.16821075  0.38391520  1
  Mg  Mg11  1  0.83642049  0.16821075  0.86608480  1
  Mg  Mg12  1  0.83333300  0.66666700  0.36575089  1
  Mg  Mg13  1  0.83333300  0.66666700  0.88424911  1
  Ga  Ga0  1  0.16666700  0.33333300  0.62500000  1
loop_
_geom_bond_atom_site_label_1
_geom_bond_atom_site_label_2
_geom_bond_distance
_geom_bond_site_symmetry_2
Mg0 Mg2 3.090819 1_565
Mg0 Mg4 3.090819 1_555
Mg0 Mg12 3.153140 1_455
Mg0 Mg13 3.153140 1_454
Mg0 Y0 3.215196 1_555
Mg0 Y0 3.215196 1_565
Mg0 Mg9 3.248645 1_554
Mg0 Mg8 3.248645 1_555
Mg0 Mg6 3.248651 1_565
Mg0 Mg7 3.248651 1_564
Mg0 Mg2 3.337990 1_455
Mg0 Mg4 3.337990 1_455
Mg1 Mg8 3.125902 1_555
Mg1 Mg9 3.125902 1_555
Mg1 Mg7 3.125909 1_565
Mg1 Mg6 3.125909 1_565
Mg1 Mg3 3.168476 1_455
Mg1 Mg5 3.168477 1_455
Mg1 Mg13 3.250925 1_455
Mg1 Mg12 3.250925 1_455
Mg1 Mg3 3.260332 1_565
Mg1 Mg5 3.260332 1_555
Mg2 Mg4 3.090819 1_545
Mg2 Y0 3.215196 1_655
Mg2 Y0 3.215196 1_555
Mg2 Mg7 3.248651 1_554
Mg2 Mg6 3.248651 1_555
Mg2 Mg4 3.337990 1_555
Mg3 Mg6 3.125909 1_555
Mg3 Mg7 3.125909 1_555
Mg3 Mg5 3.168476 1_555
Mg3 Mg5 3.260332 1_545
Mg4 Y0 3.215196 1_555
Mg4 Y0 3.215196 1_665
Mg4 Mg9 3.248651 1_554
Mg4 Mg8 3.248651 1_555
Mg5 Mg8 3.125909 1_555
Mg5 Mg9 3.125909 1_555
Mg6 Mg8 3.184631 1_555
Mg6 Mg8 3.244177 1_545
Mg6 Y0 3.253320 1_555
Mg7 Mg9 3.184631 1_555
Mg7 Mg9 3.244177 1_545
Mg7 Y0 3.253320 1_556
Mg8 Y0 3.253326 1_555
Mg9 Y0 3.253326 1_556
Mg10 Mg3 3.125902 1_555
Mg10 Mg5 3.125909 1_545
Mg10 Mg8 3.184631 1_655
Mg10 Mg6 3.184631 1_655
Mg10 Mg12 3.219960 1_555
Mg10 Mg12 3.219960 1_545
Mg10 Mg8 3.244177 1_545
Mg10 Mg6 3.244178 1_555
Mg10 Mg2 3.248645 1_555
Mg10 Mg4 3.248651 1_545
Mg10 Y0 3.253326 1_655
Mg11 Mg3 3.125902 1_555
Mg11 Mg5 3.125909 1_545
Mg11 Mg9 3.184631 1_655
Mg11 Mg7 3.184631 1_655
Mg11 Mg13 3.219960 1_555
Mg11 Mg13 3.219960 1_545
Mg11 Mg9 3.244177 1_545
Mg11 Mg7 3.244178 1_555
Mg11 Mg2 3.248645 1_556
Mg11 Mg4 3.248651 1_546
Mg11 Y0 3.253326 1_656
Mg12 Mg4 3.153133 1_555
Mg12 Mg2 3.153140 1_555
Mg12 Mg6 3.219960 1_665
Mg12 Mg6 3.219960 1_555
Mg12 Mg8 3.219960 1_655
Mg12 Mg8 3.219960 1_555
Mg12 Mg5 3.250919 1_555
Mg12 Mg3 3.250925 1_555
Mg13 Mg4 3.153133 1_556
Mg13 Mg2 3.153140 1_556
Mg13 Mg7 3.219960 1_665
Mg13 Mg7 3.219960 1_555
Mg13 Mg9 3.219960 1_655
Mg13 Mg9 3.219960 1_555
Mg13 Mg5 3.250919 1_555
Mg13 Mg3 3.250925 1_555
Ga0 Mg7 3.102596 1_555
Ga0 Mg6 3.102596 1_555
Ga0 Mg9 3.102603 1_555
Ga0 Mg8 3.102603 1_555
Ga0 Mg11 3.102603 1_455
Ga0 Mg10 3.102603 1_455
Ga0 Mg1 3.214513 1_545
Ga0 Mg5 3.214513 1_445
Ga0 Mg5 3.214513 1_555
Ga0 Mg1 3.214513 1_555
Ga0 Mg3 3.214514 1_555
Ga0 Mg3 3.214514 1_455
