# generated using pymatgen
data_GdMg3Ni8
_symmetry_space_group_name_H-M   'P 1'
_cell_length_a   8.43955629
_cell_length_b   8.43955629
_cell_length_c   8.43955594
_cell_angle_alpha   33.65885519
_cell_angle_beta   33.65885519
_cell_angle_gamma   33.65884923
_symmetry_Int_Tables_number   1
_chemical_formula_structural   GdMg3Ni8
_chemical_formula_sum   'Gd1 Mg3 Ni8'
_cell_volume   164.50564147
_cell_formula_units_Z   1
loop_
 _symmetry_equiv_pos_site_id
 _symmetry_equiv_pos_as_xyz
  1  'x, y, z'
loop_
 _atom_site_type_symbol
 _atom_site_label
 _atom_site_symmetry_multiplicity
 _atom_site_fract_x
 _atom_site_fract_y
 _atom_site_fract_z
 _atom_site_occupancy
  Gd  Gd0  1  0.00042800  0.00042800  0.00042800  1
  Mg  Mg0  1  0.49965100  0.49965100  0.49965100  1
  Mg  Mg1  1  0.12850700  0.12850700  0.12850700  1
  Mg  Mg2  1  0.62065300  0.62065300  0.62065300  1
  Ni  Ni0  1  0.56375300  0.06520300  0.56375300  1
  Ni  Ni1  1  0.06282800  0.55778400  0.06282800  1
  Ni  Ni2  1  0.06520300  0.56375300  0.56375300  1
  Ni  Ni3  1  0.55778400  0.06282800  0.06282800  1
  Ni  Ni4  1  0.81262600  0.81262600  0.81262600  1
  Ni  Ni5  1  0.31198400  0.31198400  0.31198400  1
  Ni  Ni6  1  0.56375300  0.56375300  0.06520300  1
  Ni  Ni7  1  0.06282800  0.06282800  0.55778400  1
loop_
_geom_bond_atom_site_label_1
_geom_bond_atom_site_label_2
_geom_bond_distance
_geom_bond_site_symmetry_2
Gd0 Ni5 2.868907 1_545
Gd0 Ni5 2.868907 1_455
Gd0 Ni5 2.868907 1_554
Gd0 Ni6 2.879016 1_545
Gd0 Ni6 2.879016 1_455
Gd0 Ni2 2.879016 1_545
Gd0 Ni0 2.879016 1_455
Gd0 Ni0 2.879016 1_554
Gd0 Ni2 2.879016 1_554
Gd0 Ni7 2.902049 1_554
Gd0 Ni1 2.902049 1_545
Gd0 Ni3 2.902049 1_455
Gd0 Mg2 3.031281 1_454
Gd0 Mg2 3.031281 1_544
Gd0 Mg2 3.031282 1_445
Gd0 Mg1 3.056207 1_555
Mg0 Ni6 2.812828 1_555
Mg0 Ni0 2.812828 1_555
Mg0 Ni2 2.812828 1_555
Mg0 Ni7 2.850248 1_655
Mg0 Ni7 2.850248 1_565
Mg0 Ni3 2.850249 1_556
Mg0 Ni1 2.850249 1_556
Mg0 Ni3 2.850249 1_565
Mg0 Ni1 2.850249 1_655
Mg0 Ni4 2.862967 1_455
Mg0 Ni4 2.862967 1_545
Mg0 Ni4 2.862968 1_554
Mg0 Mg2 2.887336 1_555
Mg0 Mg1 2.962198 1_565
Mg0 Mg1 2.962198 1_655
Mg0 Mg1 2.962199 1_556
Mg1 Ni7 2.750523 1_555
Mg1 Ni3 2.750523 1_555
Mg1 Ni1 2.750523 1_555
Mg1 Ni4 2.852020 1_454
Mg1 Ni4 2.852020 1_544
Mg1 Ni4 2.852020 1_445
Mg1 Ni6 2.884865 1_455
Mg1 Ni6 2.884865 1_545
Mg1 Ni0 2.884866 1_554
Mg1 Ni2 2.884866 1_554
Mg1 Ni2 2.884866 1_545
Mg1 Ni0 2.884866 1_455
Mg2 Ni7 2.826103 1_655
Mg2 Ni7 2.826103 1_565
Mg2 Ni1 2.826103 1_655
Mg2 Ni3 2.826103 1_565
Mg2 Ni3 2.826103 1_556
Mg2 Ni1 2.826103 1_556
Mg2 Ni5 2.882181 1_655
Mg2 Ni5 2.882181 1_565
Mg2 Ni5 2.882181 1_556
Mg2 Ni6 2.987085 1_556
Mg2 Ni0 2.987085 1_565
Mg2 Ni2 2.987085 1_655
Ni0 Ni4 2.409245 1_545
Ni0 Ni2 2.436363 1_555
Ni0 Ni6 2.436363 1_555
Ni0 Ni2 2.450535 1_645
Ni0 Ni6 2.450535 1_546
Ni0 Ni5 2.479788 1_555
Ni1 Ni4 2.417738 1_454
Ni1 Ni3 2.418799 1_555
Ni1 Ni7 2.418800 1_555
Ni1 Ni5 2.446253 1_555
Ni1 Ni3 2.468099 1_465
Ni1 Ni7 2.468099 1_564
Ni2 Ni4 2.409245 1_455
Ni2 Ni6 2.436363 1_555
Ni2 Ni6 2.450535 1_456
Ni2 Ni5 2.479788 1_555
Ni3 Ni4 2.417738 1_544
Ni3 Ni7 2.418800 1_555
Ni3 Ni5 2.446253 1_555
Ni3 Ni7 2.468099 1_654
Ni4 Ni6 2.409245 1_556
Ni4 Ni7 2.417739 1_665
Ni5 Ni7 2.446253 1_555
Ni5 Ni6 2.479788 1_555
