# generated using pymatgen
data_DyMg2Ti3S8
_symmetry_space_group_name_H-M   'P 1'
_cell_length_a   7.58511036
_cell_length_b   7.58003666
_cell_length_c   7.57882921
_cell_angle_alpha   58.17460807
_cell_angle_beta   58.18489075
_cell_angle_gamma   58.19297939
_symmetry_Int_Tables_number   1
_chemical_formula_structural   DyMg2Ti3S8
_chemical_formula_sum   'Dy1 Mg2 Ti3 S8'
_cell_volume   295.29889495
_cell_formula_units_Z   1
loop_
 _symmetry_equiv_pos_site_id
 _symmetry_equiv_pos_as_xyz
  1  'x, y, z'
loop_
 _atom_site_type_symbol
 _atom_site_label
 _atom_site_symmetry_multiplicity
 _atom_site_fract_x
 _atom_site_fract_y
 _atom_site_fract_z
 _atom_site_occupancy
  Dy  Dy0  1  0.49999500  0.50000900  0.49998700  1
  Mg  Mg0  1  0.87290600  0.87282700  0.87271800  1
  Mg  Mg1  1  0.12709500  0.12717100  0.12728900  1
  Ti  Ti0  1  0.50002700  0.50000400  0.99997600  1
  Ti  Ti1  1  0.99998900  0.50000400  0.50000600  1
  Ti  Ti2  1  0.50000300  0.99998600  0.50001600  1
  S  S0  1  0.74063000  0.74082600  0.74091600  1
  S  S1  1  0.24626800  0.24619700  0.72643600  1
  S  S2  1  0.24625900  0.72650000  0.24609800  1
  S  S3  1  0.72639700  0.24626300  0.24615400  1
  S  S4  1  0.75372700  0.27349900  0.75389600  1
  S  S5  1  0.27360000  0.75372900  0.75384500  1
  S  S6  1  0.25937100  0.25916800  0.25909700  1
  S  S7  1  0.75373700  0.75381200  0.27356700  1
loop_
_geom_bond_atom_site_label_1
_geom_bond_atom_site_label_2
_geom_bond_distance
_geom_bond_site_symmetry_2
Dy0 S3 2.699408 1_555
Dy0 S5 2.699409 1_555
Dy0 S1 2.699797 1_555
Dy0 S7 2.699856 1_555
Dy0 S2 2.700300 1_555
Dy0 S4 2.700374 1_555
Mg0 S4 2.435546 1_565
Mg0 S7 2.435964 1_556
Mg0 S5 2.437729 1_655
Mg0 S0 2.484890 1_555
Mg1 S2 2.435559 1_545
Mg1 S1 2.435980 1_554
Mg1 S3 2.437764 1_455
Mg1 S6 2.484903 1_555
S0 Ti0 2.543922 1_555
S0 Ti2 2.544597 1_555
S0 Ti1 2.545286 1_555
S1 Ti2 2.498198 1_545
S1 Ti1 2.499083 1_455
S2 Ti0 2.498078 1_554
S2 Ti1 2.499237 1_455
S3 Ti0 2.498071 1_554
S3 Ti2 2.498627 1_545
S4 Ti0 2.497893 1_555
S4 Ti1 2.499239 1_555
S5 Ti0 2.498111 1_555
S5 Ti2 2.498563 1_555
S6 Ti0 2.544279 1_554
S6 Ti2 2.544725 1_545
S6 Ti1 2.545357 1_455
S7 Ti2 2.498149 1_555
S7 Ti1 2.498985 1_555
