# generated using pymatgen
data_BaCrN2
_symmetry_space_group_name_H-M   'P 1'
_cell_length_a   6.46819848
_cell_length_b   6.46819848
_cell_length_c   7.82344300
_cell_angle_alpha   90.00000000
_cell_angle_beta   90.00000000
_cell_angle_gamma   125.91374281
_symmetry_Int_Tables_number   1
_chemical_formula_structural   BaCrN2
_chemical_formula_sum   'Ba4 Cr4 N8'
_cell_volume   265.09193680
_cell_formula_units_Z   4
loop_
 _symmetry_equiv_pos_site_id
 _symmetry_equiv_pos_as_xyz
  1  'x, y, z'
loop_
 _atom_site_type_symbol
 _atom_site_label
 _atom_site_symmetry_multiplicity
 _atom_site_fract_x
 _atom_site_fract_y
 _atom_site_fract_z
 _atom_site_occupancy
  Ba  Ba0  1  0.84116900  0.15883100  0.55974100  1
  Ba  Ba1  1  0.15883100  0.84116900  0.44025900  1
  Ba  Ba2  1  0.65883100  0.34116900  0.05974100  1
  Ba  Ba3  1  0.34116900  0.65883100  0.94025900  1
  Cr  Cr0  1  0.55094500  0.44905500  0.63550100  1
  Cr  Cr1  1  0.44905500  0.55094500  0.36449900  1
  Cr  Cr2  1  0.94905500  0.05094500  0.13550100  1
  Cr  Cr3  1  0.05094500  0.94905500  0.86449900  1
  N  N0  1  0.89351800  0.10648200  0.91078700  1
  N  N1  1  0.10648200  0.89351800  0.08921300  1
  N  N2  1  0.60648200  0.39351800  0.41078700  1
  N  N3  1  0.39351800  0.60648200  0.58921300  1
  N  N4  1  0.34265100  0.15734900  0.75000000  1
  N  N5  1  0.15734900  0.34265100  0.25000000  1
  N  N6  1  0.65734900  0.84265100  0.25000000  1
  N  N7  1  0.84265100  0.65734900  0.75000000  1
loop_
_geom_bond_atom_site_label_1
_geom_bond_atom_site_label_2
_geom_bond_distance
_geom_bond_site_symmetry_2
Ba0 N0 2.811842 1_555
Ba0 N6 2.935247 1_545
Ba0 N5 2.935247 1_655
Ba0 N2 2.944478 1_555
Ba0 N3 3.010897 1_545
Ba0 N3 3.010897 1_655
Ba1 N1 2.811842 1_555
Ba1 N4 2.935247 1_565
Ba1 N7 2.935247 1_455
Ba1 N3 2.944478 1_555
Ba1 N2 3.010897 1_455
Ba1 N2 3.010897 1_565
Ba2 N2 2.811842 1_555
Ba2 N4 2.935247 1_554
Ba2 N7 2.935247 1_554
Ba2 N0 2.944478 1_554
Ba2 N1 3.010897 1_655
Ba2 N1 3.010897 1_545
Ba3 N3 2.811842 1_555
Ba3 N6 2.935247 1_556
Ba3 N5 2.935247 1_556
Ba3 N1 2.944478 1_556
Ba3 N0 3.010897 1_565
Ba3 N0 3.010897 1_455
Cr0 N7 1.787586 1_555
Cr0 N4 1.787586 1_555
Cr0 N3 1.849668 1_555
Cr0 N2 1.870872 1_555
Cr1 N6 1.787586 1_555
Cr1 N5 1.787586 1_555
Cr1 N2 1.849668 1_555
Cr1 N3 1.870872 1_555
Cr2 N5 1.787586 1_655
Cr2 N6 1.787586 1_545
Cr2 N1 1.849668 1_645
Cr2 N0 1.870872 1_554
Cr3 N4 1.787586 1_565
Cr3 N7 1.787586 1_455
Cr3 N0 1.849668 1_465
Cr3 N1 1.870872 1_556
