# generated using pymatgen
data_DyBO3
_symmetry_space_group_name_H-M   'P 1'
_cell_length_a   6.10615680
_cell_length_b   6.35627703
_cell_length_c   6.35244183
_cell_angle_alpha   92.32161557
_cell_angle_beta   108.47518280
_cell_angle_gamma   107.81187499
_symmetry_Int_Tables_number   1
_chemical_formula_structural   DyBO3
_chemical_formula_sum   'Dy4 B4 O12'
_cell_volume   220.04324873
_cell_formula_units_Z   4
loop_
 _symmetry_equiv_pos_site_id
 _symmetry_equiv_pos_as_xyz
  1  'x, y, z'
loop_
 _atom_site_type_symbol
 _atom_site_label
 _atom_site_symmetry_multiplicity
 _atom_site_fract_x
 _atom_site_fract_y
 _atom_site_fract_z
 _atom_site_occupancy
  Dy  Dy0  1  0.55565029  0.27216270  0.84559902  1
  Dy  Dy1  1  0.44434971  0.72783730  0.15440098  1
  Dy  Dy2  1  0.93944044  0.81870614  0.71995795  1
  Dy  Dy3  1  0.06055956  0.18129386  0.28004205  1
  B  B0  1  0.98802846  0.28075122  0.76830790  1
  B  B1  1  0.01197154  0.71924878  0.23169210  1
  B  B2  1  0.47599307  0.76115718  0.71177266  1
  B  B3  1  0.52400693  0.23884282  0.28822734  1
  O  O0  1  0.41018666  0.35544849  0.13238126  1
  O  O1  1  0.58981334  0.64455151  0.86761874  1
  O  O2  1  0.46775226  0.22801013  0.47837271  1
  O  O3  1  0.53224774  0.77198987  0.52162729  1
  O  O4  1  0.88041360  0.79585407  0.33912454  1
  O  O5  1  0.11958640  0.20414593  0.66087546  1
  O  O6  1  0.65274893  0.12332046  0.21894455  1
  O  O7  1  0.34725107  0.87667954  0.78105545  1
  O  O8  1  0.12998210  0.87194260  0.11641676  1
  O  O9  1  0.87001790  0.12805740  0.88358324  1
  O  O10  1  0.04657230  0.51983135  0.23546678  1
  O  O11  1  0.95342770  0.48016865  0.76453322  1
loop_
_geom_bond_atom_site_label_1
_geom_bond_atom_site_label_2
_geom_bond_distance
_geom_bond_site_symmetry_2
Dy0 O2 2.206804 1_555
Dy0 O1 2.306166 1_555
Dy0 O9 2.319924 1_555
Dy0 O0 2.371312 1_556
Dy0 O7 2.394872 1_545
Dy0 O5 2.434766 1_555
Dy0 O6 2.550511 1_556
Dy0 O11 2.606917 1_555
Dy1 O3 2.206804 1_555
Dy1 O0 2.306166 1_555
Dy1 O8 2.319924 1_555
Dy1 O1 2.371312 1_554
Dy1 O6 2.394872 1_565
Dy1 O4 2.434766 1_555
Dy1 O7 2.550511 1_554
Dy1 O10 2.606917 1_555
Dy2 O11 2.205529 1_555
Dy2 O7 2.302562 1_655
Dy2 O3 2.321682 1_555
Dy2 O4 2.321747 1_555
Dy2 O8 2.375690 1_656
Dy2 O9 2.397942 1_565
Dy2 O5 2.457763 1_665
Dy2 O1 2.563289 1_555
Dy3 O10 2.205529 1_555
Dy3 O6 2.302562 1_455
Dy3 O2 2.321682 1_555
Dy3 O5 2.321747 1_555
Dy3 O9 2.375690 1_454
Dy3 O8 2.397942 1_545
Dy3 O4 2.457763 1_445
Dy3 O0 2.563289 1_555
B0 O11 1.347217 1_555
B0 O5 1.381302 1_655
B0 O9 1.400580 1_555
B1 O10 1.347217 1_555
B1 O4 1.381302 1_455
B1 O8 1.400580 1_555
B2 O3 1.355344 1_555
B2 O7 1.377357 1_555
B2 O1 1.396779 1_555
B3 O2 1.355344 1_555
B3 O6 1.377357 1_555
B3 O0 1.396779 1_555
