# generated using pymatgen
data_BaCaGdSbO6
_symmetry_space_group_name_H-M   'P 1'
_cell_length_a   5.91762756
_cell_length_b   5.96570683
_cell_length_c   8.41445173
_cell_angle_alpha   90.48322435
_cell_angle_beta   90.43192806
_cell_angle_gamma   90.23169892
_symmetry_Int_Tables_number   1
_chemical_formula_structural   BaCaGdSbO6
_chemical_formula_sum   'Ba2 Ca2 Gd2 Sb2 O12'
_cell_volume   297.03245759
_cell_formula_units_Z   2
loop_
 _symmetry_equiv_pos_site_id
 _symmetry_equiv_pos_as_xyz
  1  'x, y, z'
loop_
 _atom_site_type_symbol
 _atom_site_label
 _atom_site_symmetry_multiplicity
 _atom_site_fract_x
 _atom_site_fract_y
 _atom_site_fract_z
 _atom_site_occupancy
  Ba  Ba0  1  0.50475552  0.52534173  0.25034851  1
  Ba  Ba1  1  0.49524448  0.47465827  0.74965149  1
  Ca  Ca0  1  0.99451954  0.04029729  0.25333036  1
  Ca  Ca1  1  0.00548046  0.95970271  0.74666964  1
  Gd  Gd0  1  0.00000000  0.50000000  -0.00000000  1
  Gd  Gd1  1  0.50000000  0.00000000  0.50000000  1
  Sb  Sb0  1  0.50000000  0.00000000  -0.00000000  1
  Sb  Sb1  1  0.00000000  0.50000000  0.50000000  1
  O  O0  1  0.22818132  0.19353940  0.94496909  1
  O  O1  1  0.26800306  0.70333147  0.52735979  1
  O  O2  1  0.77181868  0.80646060  0.05503091  1
  O  O3  1  0.73199694  0.29666853  0.47264021  1
  O  O4  1  0.29823043  0.73355310  0.96381573  1
  O  O5  1  0.18795000  0.22233978  0.54781477  1
  O  O6  1  0.70176957  0.26644690  0.03618427  1
  O  O7  1  0.81205000  0.77766022  0.45218523  1
  O  O8  1  0.40044444  0.00252661  0.23218418  1
  O  O9  1  0.05735168  0.44875744  0.26619762  1
  O  O10  1  0.59955556  0.99747339  0.76781582  1
  O  O11  1  0.94264832  0.55124256  0.73380238  1
loop_
_geom_bond_atom_site_label_1
_geom_bond_atom_site_label_2
_geom_bond_distance
_geom_bond_site_symmetry_2
Ba0 O6 2.644132 1_555
Ba0 O3 2.681029 1_555
Ba0 O9 2.689371 1_555
Ba0 O2 2.841734 1_555
Ba0 O7 2.888794 1_555
Ba0 O8 2.920355 1_565
Ba0 O1 2.922830 1_555
Ba0 O4 2.977897 1_554
Ba0 O8 3.179194 1_555
Ba0 O9 3.305502 1_655
Ba1 O4 2.644132 1_555
Ba1 O1 2.681029 1_555
Ba1 O11 2.689371 1_555
Ba1 O0 2.841734 1_555
Ba1 O5 2.888794 1_555
Ba1 O10 2.920355 1_545
Ba1 O3 2.922830 1_555
Ba1 O6 2.977897 1_556
Ba1 O10 3.179194 1_555
Ba1 O11 3.305502 1_455
Ca0 O8 2.421306 1_655
Ca0 O9 2.464823 1_655
Ca0 O2 2.525800 1_545
Ca0 O7 2.545272 1_545
Ca0 O6 2.858782 1_555
Ca0 O3 2.858811 1_555
Ca0 O5 2.920881 1_655
Ca1 O10 2.421306 1_455
Ca1 O11 2.464823 1_455
Ca1 O0 2.525800 1_565
Ca1 O5 2.545272 1_565
Ca1 O4 2.858782 1_555
Ca1 O1 2.858811 1_555
Ca1 O7 2.920881 1_455
Gd0 O4 2.268030 1_554
Gd0 O6 2.268030 1_455
Gd0 O11 2.286208 1_454
Gd0 O9 2.286208 1_555
Gd0 O0 2.322786 1_554
Gd0 O2 2.322786 1_455
Gd1 O3 2.249908 1_555
Gd1 O1 2.249908 1_545
Gd1 O5 2.313692 1_555
Gd1 O7 2.313692 1_545
Gd1 O8 2.325145 1_555
Gd1 O10 2.325145 1_545
O0 Sb0 2.036583 1_556
O1 Sb1 2.003459 1_555
O2 Sb0 2.036583 1_565
O3 Sb1 2.003459 1_655
O4 Sb0 2.003993 1_566
O5 Sb1 2.040120 1_555
O6 Sb0 2.003993 1_555
O7 Sb1 2.040120 1_655
O8 Sb0 2.044795 1_555
O9 Sb1 2.019836 1_555
O10 Sb0 2.044795 1_566
O11 Sb1 2.019836 1_655
