# generated using pymatgen
data_Ac3Cd
_symmetry_space_group_name_H-M   'P 1'
_cell_length_a   7.72701227
_cell_length_b   7.72701227
_cell_length_c   6.01933200
_cell_angle_alpha   90.00000000
_cell_angle_beta   90.00000000
_cell_angle_gamma   120.00000232
_symmetry_Int_Tables_number   1
_chemical_formula_structural   Ac3Cd
_chemical_formula_sum   'Ac6 Cd2'
_cell_volume   311.24481347
_cell_formula_units_Z   2
loop_
 _symmetry_equiv_pos_site_id
 _symmetry_equiv_pos_as_xyz
  1  'x, y, z'
loop_
 _atom_site_type_symbol
 _atom_site_label
 _atom_site_symmetry_multiplicity
 _atom_site_fract_x
 _atom_site_fract_y
 _atom_site_fract_z
 _atom_site_occupancy
  Ac  Ac0  1  0.17386000  0.34772000  0.25000000  1
  Ac  Ac1  1  0.65228000  0.82614000  0.25000000  1
  Ac  Ac2  1  0.17386000  0.82614000  0.25000000  1
  Ac  Ac3  1  0.82614000  0.65228000  0.75000000  1
  Ac  Ac4  1  0.34772000  0.17386000  0.75000000  1
  Ac  Ac5  1  0.82614000  0.17386000  0.75000000  1
  Cd  Cd0  1  0.33333300  0.66666700  0.75000000  1
  Cd  Cd1  1  0.66666700  0.33333300  0.25000000  1
loop_
_geom_bond_atom_site_label_1
_geom_bond_atom_site_label_2
_geom_bond_distance
_geom_bond_site_symmetry_2
Ac0 Cd0 3.689639 1_554
Ac0 Cd0 3.689639 1_555
Ac0 Ac1 3.696757 1_555
Ac0 Ac2 3.696757 1_555
Ac0 Ac5 3.804262 1_454
Ac0 Ac5 3.804262 1_455
Ac0 Ac4 3.804262 1_554
Ac0 Ac4 3.804262 1_555
Ac0 Cd1 3.864702 1_455
Ac0 Cd1 3.864709 1_555
Ac0 Ac1 4.030255 1_445
Ac0 Ac2 4.030255 1_545
Ac1 Cd0 3.689639 1_555
Ac1 Cd0 3.689639 1_554
Ac1 Ac2 3.696757 1_555
Ac1 Ac5 3.804262 1_565
Ac1 Ac5 3.804262 1_564
Ac1 Ac3 3.804262 1_554
Ac1 Ac3 3.804262 1_555
Ac1 Cd1 3.864702 1_565
Ac1 Cd1 3.864709 1_555
Ac1 Ac2 4.030255 1_655
Ac2 Cd0 3.689635 1_554
Ac2 Cd0 3.689635 1_555
Ac2 Ac4 3.804262 1_565
Ac2 Ac4 3.804262 1_564
Ac2 Ac3 3.804262 1_455
Ac2 Ac3 3.804262 1_454
Ac2 Cd1 3.864705 1_455
Ac2 Cd1 3.864705 1_565
Ac3 Cd1 3.689639 1_556
Ac3 Cd1 3.689639 1_555
Ac3 Ac4 3.696757 1_555
Ac3 Ac5 3.696757 1_555
Ac3 Cd0 3.864702 1_655
Ac3 Cd0 3.864709 1_555
Ac3 Ac4 4.030255 1_665
Ac3 Ac5 4.030255 1_565
Ac4 Cd1 3.689639 1_556
Ac4 Cd1 3.689639 1_555
Ac4 Ac5 3.696757 1_555
Ac4 Cd0 3.864702 1_545
Ac4 Cd0 3.864709 1_555
Ac4 Ac5 4.030255 1_455
Ac5 Cd1 3.689635 1_556
Ac5 Cd1 3.689635 1_555
Ac5 Cd0 3.864705 1_545
Ac5 Cd0 3.864705 1_655
