# generated using pymatgen
data_Li4Mn3V3(FeO8)2
_symmetry_space_group_name_H-M   'P 1'
_cell_length_a   5.91454000
_cell_length_b   5.91502833
_cell_length_c   9.61285066
_cell_angle_alpha   89.11781684
_cell_angle_beta   88.27540368
_cell_angle_gamma   60.24362554
_symmetry_Int_Tables_number   1
_chemical_formula_structural   Li4Mn3V3(FeO8)2
_chemical_formula_sum   'Li4 Mn3 V3 Fe2 O16'
_cell_volume   291.82650887
_cell_formula_units_Z   1
loop_
 _symmetry_equiv_pos_site_id
 _symmetry_equiv_pos_as_xyz
  1  'x, y, z'
loop_
 _atom_site_type_symbol
 _atom_site_label
 _atom_site_symmetry_multiplicity
 _atom_site_fract_x
 _atom_site_fract_y
 _atom_site_fract_z
 _atom_site_occupancy
  Li  Li0  1  0.66447400  0.67133600  0.10588500  1
  Li  Li1  1  0.99914700  0.00905900  0.00549500  1
  Li  Li2  1  0.00458100  0.98723700  0.50464000  1
  Li  Li3  1  0.33419300  0.33314600  0.60522400  1
  Mn  Mn0  1  0.83066300  0.83338000  0.78841100  1
  Mn  Mn1  1  0.66462800  0.16444300  0.28704400  1
  Mn  Mn2  1  0.16994400  0.65679000  0.28481500  1
  V  V0  1  0.82953100  0.34187100  0.78533800  1
  V  V1  1  0.33673000  0.83900900  0.78411100  1
  V  V2  1  0.17482700  0.15904400  0.28486600  1
  Fe  Fe0  1  0.66971900  0.65513800  0.50889300  1
  Fe  Fe1  1  0.32666100  0.34578700  0.01028300  1
  O  O0  1  0.86854900  0.31798700  0.40198800  1
  O  O1  1  0.51686300  0.51772800  0.66455200  1
  O  O2  1  0.66375700  0.67488700  0.89372500  1
  O  O3  1  0.99673100  0.99732300  0.69152700  1
  O  O4  1  0.99804100  0.99070800  0.19232900  1
  O  O5  1  0.32864100  0.82519200  0.39369800  1
  O  O6  1  0.96081000  0.50311300  0.66356300  1
  O  O7  1  0.50159100  0.96036800  0.65786100  1
  O  O8  1  0.16080400  0.17457400  0.89540300  1
  O  O9  1  0.84593900  0.82528700  0.40313300  1
  O  O10  1  0.45251400  0.04012800  0.15778200  1
  O  O11  1  0.03460300  0.48963800  0.16715200  1
  O  O12  1  0.33656400  0.33442000  0.38993100  1
  O  O13  1  0.67506200  0.18272300  0.90208700  1
  O  O14  1  0.47412000  0.48621300  0.16070700  1
  O  O15  1  0.18061200  0.68317400  0.90172200  1
loop_
_geom_bond_atom_site_label_1
_geom_bond_atom_site_label_2
_geom_bond_distance
_geom_bond_site_symmetry_2
Li0 O10 1.964787 1_565
Li0 O14 1.978527 1_555
Li0 O11 2.004240 1_655
Li0 O2 2.039358 1_554
Li1 O4 1.797627 1_545
Li1 O15 1.950361 1_644
Li1 O8 1.956790 1_654
Li1 O13 1.961188 1_554
Li2 O3 1.796863 1_455
Li2 O9 1.930354 1_455
Li2 O5 1.953088 1_555
Li2 O0 1.968360 1_465
Li3 O1 1.977813 1_555
Li3 O7 1.981680 1_545
Li3 O6 1.985244 1_455
Li3 O12 2.069128 1_555
Mn0 O3 1.906590 1_555
Mn0 O2 1.925499 1_555
Mn0 O6 2.091199 1_555
Mn0 O13 2.105301 1_565
Mn0 O15 2.130812 1_655
Mn0 O7 2.143379 1_555
Mn1 O4 1.919098 1_545
Mn1 O12 1.932005 1_555
Mn1 O14 2.061416 1_555
Mn1 O9 2.070623 1_545
Mn1 O10 2.167092 1_555
Mn1 O0 2.167686 1_555
Mn2 O4 1.931910 1_455
Mn2 O12 1.939980 1_555
Mn2 O11 1.942212 1_555
Mn2 O14 1.945258 1_555
Mn2 O9 1.991775 1_455
Mn2 O5 1.997014 1_555
Fe0 O0 2.019539 1_555
Fe0 O9 2.019593 1_555
Fe0 O1 2.080260 1_555
Fe0 O5 2.096078 1_555
Fe0 O7 2.123890 1_555
Fe0 O6 2.135308 1_555
Fe1 O15 2.024064 1_554
Fe1 O13 2.046283 1_554
Fe1 O8 2.072010 1_554
Fe1 O14 2.091290 1_555
Fe1 O11 2.098944 1_555
Fe1 O10 2.117072 1_555
O0 V2 1.911100 1_655
O1 V0 2.008142 1_555
O1 V1 2.012773 1_555
O2 V0 2.002904 1_555
O2 V1 2.005296 1_555
O3 V1 1.981340 1_655
O3 V0 1.986713 1_565
O4 V2 1.998183 1_665
O5 V2 2.008024 1_565
O6 V0 1.878519 1_555
O7 V1 1.880342 1_555
O8 V0 2.026228 1_455
O8 V1 2.028613 1_545
O10 V2 1.855688 1_555
O11 V2 2.042223 1_555
O12 V2 2.021550 1_555
O13 V0 1.933868 1_555
O15 V1 1.931423 1_555
