# generated using pymatgen
data_Sr2Ca14Mn14Al2O41
_symmetry_space_group_name_H-M   'P 1'
_cell_length_a   11.01051081
_cell_length_b   15.49925903
_cell_length_c   11.00684021
_cell_angle_alpha   90.09208088
_cell_angle_beta   91.88270151
_cell_angle_gamma   90.00534977
_symmetry_Int_Tables_number   1
_chemical_formula_structural   Sr2Ca14Mn14Al2O41
_chemical_formula_sum   'Sr4 Ca28 Mn28 Al4 O82'
_cell_volume   1877.35323934
_cell_formula_units_Z   2
loop_
 _symmetry_equiv_pos_site_id
 _symmetry_equiv_pos_as_xyz
  1  'x, y, z'
loop_
 _atom_site_type_symbol
 _atom_site_label
 _atom_site_symmetry_multiplicity
 _atom_site_fract_x
 _atom_site_fract_y
 _atom_site_fract_z
 _atom_site_occupancy
  Sr  Sr0  1  0.99503408  0.11949884  0.51247933  1
  Sr  Sr1  1  0.50755593  0.36142569  0.99806731  1
  Sr  Sr2  1  0.24630823  0.37515774  0.25551672  1
  Sr  Sr3  1  0.26938636  0.12908647  0.23452312  1
  Ca  Ca0  1  0.01052447  0.11783495  0.98001521  1
  Ca  Ca1  1  0.00787483  0.61236399  0.50925958  1
  Ca  Ca2  1  0.99456080  0.61104167  0.01476563  1
  Ca  Ca3  1  0.53269616  0.12963083  0.49852845  1
  Ca  Ca4  1  0.53048869  0.12256770  0.99305469  1
  Ca  Ca5  1  0.53782633  0.63201649  0.47749868  1
  Ca  Ca6  1  0.54823103  0.63044990  0.98235847  1
  Ca  Ca7  1  0.51037256  0.35890906  0.48804145  1
  Ca  Ca8  1  0.50125677  0.89013215  0.98709487  1
  Ca  Ca9  1  0.48762819  0.88585734  0.50737879  1
  Ca  Ca10  1  0.96836731  0.38104774  0.00131620  1
  Ca  Ca11  1  0.95636147  0.39143435  0.51792105  1
  Ca  Ca12  1  0.97383840  0.88157194  0.98981511  1
  Ca  Ca13  1  0.95912808  0.86851493  0.52775803  1
  Ca  Ca14  1  0.22763040  0.38920927  0.76297613  1
  Ca  Ca15  1  0.25574915  0.89014302  0.25975374  1
  Ca  Ca16  1  0.24081528  0.89096793  0.76495676  1
  Ca  Ca17  1  0.73477105  0.37135294  0.24785395  1
  Ca  Ca18  1  0.75446542  0.35836087  0.75386563  1
  Ca  Ca19  1  0.74967813  0.88247737  0.24966143  1
  Ca  Ca20  1  0.73033724  0.88603663  0.75514203  1
  Ca  Ca21  1  0.26611316  0.11815899  0.75889008  1
  Ca  Ca22  1  0.22781322  0.61785153  0.24240165  1
  Ca  Ca23  1  0.22526837  0.61715367  0.74073953  1
  Ca  Ca24  1  0.73140945  0.12907607  0.24552856  1
  Ca  Ca25  1  0.76922386  0.11933984  0.75866179  1
  Ca  Ca26  1  0.78358010  0.62117521  0.25610013  1
  Ca  Ca27  1  0.77701846  0.62138427  0.75597749  1
  Mn  Mn0  1  0.02129861  0.98404970  0.25340101  1
  Mn  Mn1  1  0.99899647  0.99649888  0.75133494  1
  Mn  Mn2  1  0.99509605  0.49549285  0.26282460  1
  Mn  Mn3  1  0.99067865  0.49778319  0.75627602  1
  Mn  Mn4  1  0.49133401  0.00354185  0.74685863  1
  Mn  Mn5  1  0.50853507  0.49587904  0.23445883  1
  Mn  Mn6  1  0.50648457  0.48760103  0.72704982  1
  Mn  Mn7  1  0.25327358  0.00093942  0.00320025  1
  Mn  Mn8  1  0.23541406  0.49902917  0.01417914  1
  Mn  Mn9  1  0.24317484  0.49921636  0.51813098  1
  Mn  Mn10  1  0.75385202  -0.00005759  0.00309355  1
  Mn  Mn11  1  0.73342975  0.99749797  0.50627261  1
  Mn  Mn12  1  0.74783719  0.50014185  0.99850807  1
  Mn  Mn13  1  0.73917046  0.50327614  0.49729437  1
  Mn  Mn14  1  0.24519037  0.24281061  0.47912248  1
  Mn  Mn15  1  0.26645767  0.73562698  0.95498285  1
  Mn  Mn16  1  0.26386010  0.74747169  0.45458255  1
  Mn  Mn17  1  0.76437683  0.24535790  0.00445821  1
  Mn  Mn18  1  0.75234441  0.24770309  0.49911554  1
  Mn  Mn19  1  0.76008683  0.75081990  0.00615097  1
  Mn  Mn20  1  0.75009131  0.74884105  0.50590880  1
  Mn  Mn21  1  0.00652626  0.24947015  0.76004239  1
  Mn  Mn22  1  0.99405062  0.75363597  0.26774902  1
  Mn  Mn23  1  0.99035726  0.75095518  0.76309326  1
  Mn  Mn24  1  0.50144657  0.24548242  0.24823780  1
  Mn  Mn25  1  0.51116390  0.24298062  0.75422224  1
  Mn  Mn26  1  0.52032187  0.76158320  0.25424561  1
  Mn  Mn27  1  0.51367315  0.75069349  0.75020865  1
  Al  Al0  1  0.51380438  0.99837028  0.23034595  1
  Al  Al1  1  0.22533213  0.99696272  0.52128261  1
  Al  Al2  1  0.27429048  0.25107602  0.97459838  1
  Al  Al3  1  0.97835950  0.26770606  0.27855763  1
  O  O0  1  0.63283352  0.26067770  0.12593406  1
  O  O1  1  0.61656644  0.26450308  0.61401919  1
  O  O2  1  0.58601595  0.76490475  0.09607499  1
  O  O3  1  0.57984578  0.76038927  0.58411688  1
  O  O4  1  0.39694109  0.22679649  0.38781531  1
  O  O5  1  0.40597299  0.22433612  0.88899955  1
  O  O6  1  0.40349282  0.69922243  0.34227348  1
  O  O7  1  0.39815427  0.68556641  0.85380570  1
  O  O8  1  0.87500961  0.22063494  0.37929721  1
  O  O9  1  0.89732426  0.23322152  0.89777701  1
  O  O10  1  0.90703058  0.73130821  0.42777403  1
  O  O11  1  0.91440261  0.73671899  0.92481739  1
  O  O12  1  0.12242805  0.22914679  0.32328350  1
  O  O13  1  0.17407504  0.24838164  0.81769521  1
  O  O14  1  0.16552877  0.75461930  0.29020325  1
  O  O15  1  0.16277172  0.74960334  0.80521053  1
  O  O16  1  0.63372522  0.22900443  0.36912245  1
  O  O17  1  0.65661285  0.22951754  0.86632350  1
  O  O18  1  0.66031245  0.72448287  0.34679361  1
  O  O19  1  0.65995156  0.72827706  0.85821440  1
  O  O20  1  0.36709088  0.26274863  0.13235137  1
  O  O21  1  0.90090310  0.26369932  0.13550969  1
  O  O22  1  0.88032384  0.26827330  0.62390831  1
  O  O23  1  0.85747813  0.77610864  0.15553085  1
  O  O24  1  0.84240741  0.77390933  0.65700997  1
  O  O25  1  0.35045703  0.50681921  0.15442046  1
  O  O26  1  0.34493920  0.50417527  0.66957413  1
  O  O27  1  0.36189306  0.99108747  0.14779156  1
  O  O28  1  0.34845763  0.98844510  0.63679389  1
  O  O29  1  0.85429876  0.48030305  0.15424477  1
  O  O30  1  0.83826457  0.47995535  0.64960388  1
  O  O31  1  0.86843237  0.00209006  0.18276549  1
  O  O32  1  0.85673991  0.98162660  0.63884935  1
  O  O33  1  0.15686647  0.01418608  0.36336234  1
  O  O34  1  0.14604351  0.01009110  0.85592241  1
  O  O35  1  0.15383839  0.51195535  0.36619264  1
  O  O36  1  0.14541617  0.51139648  0.86363104  1
  O  O37  1  0.62226355  0.01837596  0.36570478  1
  O  O38  1  0.63233149  0.01768303  0.85274372  1
  O  O39  1  0.63745877  0.53041128  0.34752770  1
  O  O40  1  0.62594321  0.52510143  0.84123185  1
  O  O41  1  0.39041708  0.02105013  0.89665937  1
  O  O42  1  0.89309417  0.01131133  0.89224973  1
  O  O43  1  0.88932415  0.51974606  0.40189045  1
  O  O44  1  0.89018523  0.51431604  0.89665032  1
  O  O45  1  0.09433182  0.47507895  0.12387405  1
  O  O46  1  0.09316802  0.48343467  0.61976073  1
  O  O47  1  0.11220642  0.97808813  0.10398262  1
  O  O48  1  0.09492409  0.97278933  0.60884007  1
  O  O49  1  0.59990101  0.49729146  0.08739970  1
  O  O50  1  0.57756982  0.49523027  0.57194726  1
  O  O51  1  0.61912768  0.97841836  0.11335989  1
  O  O52  1  0.59642093  0.98386629  0.61610650  1
  O  O53  1  0.99700383  0.37835205  0.31174679  1
  O  O54  1  0.00161145  0.37232053  0.78550497  1
  O  O55  1  0.98803018  0.87585289  0.31977798  1
  O  O56  1  0.00523557  0.87415621  0.78314026  1
  O  O57  1  0.50471359  0.37130709  0.27853543  1
  O  O58  1  0.48337274  0.36700622  0.76761529  1
  O  O59  1  0.47963086  0.88479688  0.28874402  1
  O  O60  1  0.48515148  0.87671823  0.77515276  1
  O  O61  1  0.50361500  0.11957505  0.21425271  1
  O  O62  1  0.47932217  0.12869746  0.70113563  1
  O  O63  1  0.99719941  0.12375829  0.73409002  1
  O  O64  1  0.00103139  0.62680834  0.22686688  1
  O  O65  1  0.99411668  0.62901196  0.72131299  1
  O  O66  1  0.20516697  0.15243505  0.02429334  1
  O  O67  1  0.22272933  0.12406488  0.54483957  1
  O  O68  1  0.21688903  0.63005488  0.02887447  1
  O  O69  1  0.22954989  0.63253092  0.53183948  1
  O  O70  1  0.75205042  0.12226187  0.03626164  1
  O  O71  1  0.75168966  0.12024010  0.53660767  1
  O  O72  1  0.75685798  0.62796011  0.04090193  1
  O  O73  1  0.74105223  0.62727268  0.54539236  1
  O  O74  1  0.28108616  0.37392260  0.49770279  1
  O  O75  1  0.26278638  0.37316435  0.97781206  1
  O  O76  1  0.27349659  0.87785262  0.47568354  1
  O  O77  1  0.28937806  0.85312604  0.97986298  1
  O  O78  1  0.74342192  0.37540546  0.46245512  1
  O  O79  1  0.75364027  0.37230510  0.96965730  1
  O  O80  1  0.75311593  0.87715775  0.46171415  1
  O  O81  1  0.75962646  0.87634791  0.96920937  1
loop_
_geom_bond_atom_site_label_1
_geom_bond_atom_site_label_2
_geom_bond_distance
_geom_bond_site_symmetry_2
Ca0 O66 2.246857 1_556
Ca0 O42 2.289823 1_455
Ca0 O9 2.345791 1_455
Ca0 O34 2.647233 1_555
Ca0 O63 2.707720 1_455
Ca0 O47 2.777819 1_546
Ca1 O43 2.248106 1_455
Ca1 O10 2.318669 1_455
Ca1 O65 2.357661 1_455
Ca1 O69 2.465057 1_555
Ca1 O46 2.507510 1_555
Ca1 O35 2.764675 1_555
Ca2 O44 2.270175 1_554
Ca2 O64 2.345681 1_655
Ca2 O11 2.345759 1_554
Ca2 O68 2.465389 1_655
Ca2 O45 2.647963 1_655
Ca2 O72 2.655328 1_555
Ca2 O36 2.843451 1_654
Ca2 O29 3.002208 1_555
Ca3 O62 2.324860 1_555
Ca3 O16 2.397765 1_555
Ca3 O4 2.423608 1_555
Ca3 O71 2.438185 1_555
Ca3 O37 2.484010 1_555
Ca3 O1 2.598559 1_555
Ca3 O52 2.687260 1_545
Ca4 O5 2.362703 1_555
Ca4 O41 2.422127 1_555
Ca4 O61 2.462747 1_556
Ca4 O70 2.470054 1_556
Ca4 O38 2.528095 1_555
Ca4 O17 2.599289 1_555
Ca4 O51 2.760912 1_546
Ca4 O0 2.805771 1_556
Ca5 O6 2.312717 1_555
Ca5 O73 2.336908 1_555
Ca5 O3 2.346638 1_555
Ca5 O50 2.396736 1_555
Ca5 O39 2.413744 1_555
Ca5 O18 2.465001 1_555
Ca6 O7 2.304972 1_555
Ca6 O72 2.365622 1_556
Ca6 O19 2.407499 1_555
Ca6 O49 2.425814 1_556
Ca6 O40 2.427059 1_555
Ca6 O2 2.457605 1_556
Ca7 O1 2.308935 1_555
Ca7 O57 2.313099 1_555
Ca7 O50 2.411043 1_555
Ca7 O74 2.540971 1_555
Ca7 O78 2.603189 1_555
Ca7 O4 2.621341 1_555
Ca7 O16 2.778606 1_555
Ca8 O51 2.315880 1_556
Ca8 O60 2.342635 1_555
Ca8 O77 2.401064 1_555
Ca8 O2 2.451793 1_556
Ca8 O41 2.554355 1_565
Ca8 O27 2.846293 1_556
Ca8 O81 2.866001 1_555
Ca8 O38 2.885658 1_565
Ca9 O52 2.252614 1_555
Ca9 O3 2.339956 1_555
Ca9 O76 2.375206 1_555
Ca9 O59 2.405225 1_555
Ca9 O28 2.653663 1_555
Ca9 O60 2.951995 1_555
Ca10 O79 2.382256 1_554
Ca10 O45 2.395359 1_655
Ca10 O54 2.418865 1_654
Ca10 O21 2.474267 1_555
Ca10 O44 2.505509 1_554
Ca10 O29 2.628375 1_555
Ca10 O9 2.663255 1_554
Ca11 O46 2.332868 1_655
Ca11 O53 2.335910 1_555
Ca11 O22 2.403497 1_555
Ca11 O30 2.406612 1_555
Ca11 O78 2.415950 1_555
Ca11 O43 2.465248 1_555
Ca11 O54 2.986122 1_655
Ca12 O56 2.314831 1_655
Ca12 O81 2.363401 1_555
Ca12 O42 2.435515 1_565
Ca12 O11 2.438119 1_555
Ca12 O47 2.450654 1_656
Ca12 O23 2.793404 1_556
Ca13 O55 2.324511 1_555
Ca13 O48 2.356122 1_655
Ca13 O80 2.362961 1_555
Ca13 O32 2.433853 1_555
Ca13 O24 2.439701 1_555
Ca13 O10 2.452217 1_555
Ca14 O13 2.345648 1_555
Ca14 O36 2.385968 1_555
Ca14 O75 2.396890 1_555
Ca14 O26 2.448071 1_555
Ca14 O54 2.522637 1_555
Ca14 O46 2.581482 1_555
Ca14 O58 2.835640 1_555
Ca14 O74 3.006432 1_555
Ca15 O27 2.330857 1_555
Ca15 O14 2.352666 1_555
Ca15 O76 2.386240 1_555
Ca15 O59 2.476612 1_555
Ca15 O33 2.501423 1_565
Ca15 O47 2.669353 1_555
Ca16 O34 2.358669 1_565
Ca16 O15 2.400661 1_555
Ca16 O28 2.406998 1_555
Ca16 O77 2.479238 1_555
Ca16 O56 2.621103 1_555
Ca16 O48 2.639569 1_555
Ca16 O60 2.698010 1_555
Ca17 O78 2.361606 1_555
Ca17 O29 2.395709 1_555
Ca17 O0 2.428251 1_555
Ca17 O57 2.566437 1_555
Ca17 O16 2.827327 1_555
Ca17 O39 2.915186 1_555
Ca18 O79 2.384966 1_555
Ca18 O30 2.407551 1_555
Ca18 O22 2.457694 1_555
Ca18 O1 2.574830 1_555
Ca18 O17 2.603085 1_555
Ca18 O54 2.740515 1_655
Ca18 O9 2.931195 1_555
Ca18 O58 2.996664 1_555
Ca18 O40 3.112590 1_555
Ca19 O23 2.296944 1_555
Ca19 O80 2.334683 1_555
Ca19 O31 2.399167 1_565
Ca19 O51 2.528642 1_555
Ca19 O18 2.860925 1_555
Ca20 O81 2.372651 1_555
Ca20 O24 2.406554 1_555
Ca20 O32 2.427603 1_555
Ca20 O38 2.559568 1_565
Ca20 O52 2.583563 1_555
Ca20 O60 2.719636 1_555
Ca20 O19 2.816525 1_555
Ca21 O13 2.357739 1_555
Ca21 O67 2.390426 1_555
Ca21 O34 2.406671 1_555
Ca21 O62 2.457651 1_555
Ca21 O41 2.511853 1_555
Ca21 O28 2.596493 1_545
Ca21 O5 2.641503 1_555
Ca21 O63 2.965781 1_455
Ca22 O14 2.293702 1_555
Ca22 O35 2.300807 1_555
Ca22 O68 2.357291 1_555
Ca22 O25 2.409119 1_555
Ca22 O64 2.501105 1_555
Ca22 O6 2.529026 1_555
Ca23 O15 2.284518 1_555
Ca23 O69 2.314049 1_555
Ca23 O36 2.318299 1_555
Ca23 O26 2.340910 1_555
Ca23 O7 2.477174 1_555
Ca23 O65 2.553719 1_455
Ca23 O46 2.836801 1_555
Ca24 O70 2.324204 1_555
Ca24 O16 2.344345 1_555
Ca24 O37 2.499826 1_555
Ca24 O61 2.524670 1_555
Ca24 O8 2.553726 1_555
Ca24 O31 2.586856 1_555
Ca24 O0 2.643196 1_555
Ca24 O51 2.994611 1_545
Ca25 O38 2.435993 1_555
Ca25 O17 2.438894 1_555
Ca25 O71 2.445458 1_555
Ca25 O63 2.534405 1_555
Ca25 O42 2.588867 1_555
Ca25 O32 2.701548 1_545
Ca25 O9 2.701566 1_555
Ca26 O18 2.342372 1_555
Ca26 O72 2.379738 1_555
Ca26 O39 2.385516 1_555
Ca26 O64 2.427810 1_655
Ca26 O43 2.507535 1_555
Ca26 O29 2.584623 1_555
Ca26 O23 2.778710 1_555
Ca26 O10 2.855228 1_555
Ca27 O73 2.340530 1_555
Ca27 O19 2.400481 1_555
Ca27 O65 2.435858 1_555
Ca27 O40 2.445630 1_555
Ca27 O44 2.566272 1_555
Ca27 O30 2.583519 1_555
Ca27 O24 2.711656 1_555
Ca27 O11 2.956590 1_555
Mn0 O31 1.852133 1_465
Mn0 O55 1.871254 1_455
Mn0 O33 1.946915 1_565
Mn0 O47 1.955225 1_555
Mn1 O56 1.929638 1_655
Mn1 O48 1.953876 1_655
Mn1 O34 1.966633 1_665
Mn1 O32 1.977624 1_555
Mn1 O63 1.981881 1_565
Mn1 O42 1.983879 1_565
Mn2 O53 1.894517 1_555
Mn2 O45 1.934259 1_655
Mn2 O29 1.940182 1_555
Mn2 O43 1.988954 1_555
Mn2 O35 2.069501 1_655
Mn2 O64 2.075474 1_655
Mn3 O46 1.921218 1_655
Mn3 O44 1.946368 1_555
Mn3 O54 1.974560 1_655
Mn3 O30 2.034830 1_555
Mn3 O36 2.051918 1_655
Mn3 O65 2.071216 1_555
Mn4 O52 1.900280 1_545
Mn4 O38 1.922676 1_555
Mn4 O28 1.967478 1_545
Mn4 O60 1.992191 1_545
Mn4 O62 2.008103 1_555
Mn4 O41 2.036157 1_555
Mn5 O39 1.931835 1_555
Mn5 O25 1.932370 1_555
Mn5 O49 1.933814 1_555
Mn5 O57 1.992324 1_555
Mn6 O40 1.880489 1_555
Mn6 O26 1.885906 1_555
Mn6 O50 1.905125 1_555
Mn6 O58 1.941088 1_555
Mn7 O27 1.965256 1_545
Mn7 O41 1.967214 1_554
Mn7 O47 1.970494 1_545
Mn7 O34 1.979124 1_554
Mn7 O77 2.340442 1_544
Mn7 O66 2.419598 1_555
Mn8 O36 1.912506 1_554
Mn8 O25 1.967918 1_555
Mn8 O75 2.015503 1_554
Mn8 O45 2.033023 1_555
Mn8 O68 2.047709 1_555
Mn9 O35 1.922585 1_555
Mn9 O26 1.979095 1_555
Mn9 O74 2.000231 1_555
Mn9 O46 2.039927 1_555
Mn9 O69 2.077334 1_555
Mn10 O70 1.930342 1_555
Mn10 O81 1.952444 1_544
Mn10 O51 1.975919 1_545
Mn10 O42 1.998392 1_554
Mn10 O38 2.111993 1_554
Mn10 O31 2.310745 1_555
Mn11 O71 1.940246 1_565
Mn11 O80 1.941792 1_555
Mn11 O37 1.968243 1_565
Mn11 O52 1.975453 1_555
Mn11 O32 1.975938 1_555
Mn12 O49 1.928018 1_556
Mn12 O44 1.969237 1_555
Mn12 O79 2.007512 1_555
Mn12 O72 2.036237 1_556
Mn12 O29 2.068019 1_556
Mn12 O40 2.190268 1_555
Mn13 O50 1.988218 1_555
Mn13 O73 1.992543 1_555
Mn13 O30 2.003349 1_555
Mn13 O43 2.004001 1_555
Mn13 O39 2.007357 1_555
Mn13 O78 2.018892 1_555
Mn14 O4 1.993238 1_555
Mn14 O67 1.996912 1_555
Mn14 O74 2.078659 1_555
Mn14 O12 2.158831 1_555
Mn15 O77 1.857158 1_555
Mn15 O68 1.915743 1_556
Mn15 O15 1.986305 1_555
Mn15 O7 2.012062 1_555
Mn16 O69 2.016283 1_555
Mn16 O76 2.036098 1_555
Mn16 O14 2.080859 1_555
Mn16 O6 2.138495 1_555
Mn17 O17 1.913126 1_554
Mn17 O9 1.915524 1_554
Mn17 O70 1.945829 1_555
Mn17 O79 2.007882 1_554
Mn17 O0 2.016967 1_555
Mn17 O21 2.068169 1_555
Mn18 O16 1.926867 1_555
Mn18 O22 1.960944 1_555
Mn18 O8 1.963365 1_555
Mn18 O1 2.006380 1_555
Mn18 O71 2.018932 1_555
Mn18 O78 2.022393 1_555
Mn19 O72 1.943426 1_555
Mn19 O11 1.958445 1_554
Mn19 O19 1.967033 1_554
Mn19 O23 1.972033 1_555
Mn19 O81 1.988238 1_554
Mn19 O2 2.196530 1_555
Mn20 O73 1.937652 1_555
Mn20 O24 1.958815 1_555
Mn20 O10 1.973925 1_555
Mn20 O18 2.017668 1_555
Mn20 O80 2.048726 1_555
Mn20 O3 2.095796 1_555
Mn21 O54 1.925184 1_555
Mn21 O13 1.931157 1_555
Mn21 O63 1.970992 1_455
Mn21 O9 1.982015 1_455
Mn21 O22 2.031178 1_455
Mn22 O14 1.896158 1_655
Mn22 O23 1.946178 1_555
Mn22 O55 1.979810 1_555
Mn22 O64 2.017910 1_655
Mn22 O10 2.062278 1_555
Mn23 O56 1.928217 1_655
Mn23 O15 1.939425 1_655
Mn23 O65 1.945219 1_555
Mn23 O11 2.003942 1_555
Mn23 O24 2.005013 1_555
Mn24 O20 1.940159 1_555
Mn24 O16 1.957218 1_555
Mn24 O4 1.971207 1_555
Mn24 O57 1.978092 1_555
Mn24 O61 1.986702 1_555
Mn24 O0 2.022211 1_555
Mn25 O62 1.893398 1_555
Mn25 O5 1.933869 1_555
Mn25 O58 1.952635 1_555
Mn25 O1 1.989679 1_555
Mn25 O17 2.000438 1_555
Mn26 O6 1.900620 1_555
Mn26 O2 1.907829 1_555
Mn26 O18 1.908670 1_555
Mn26 O59 2.000239 1_555
Mn27 O3 1.995979 1_555
Mn27 O60 1.998349 1_555
Mn27 O19 2.000905 1_555
Mn27 O7 2.008906 1_555
Al0 O51 1.787564 1_555
Al0 O27 1.880384 1_555
Al0 O61 1.890197 1_565
Al0 O37 1.903549 1_565
Al0 O59 1.916459 1_555
Al1 O48 1.795224 1_555
Al1 O28 1.832783 1_555
Al1 O33 1.891116 1_565
Al1 O67 1.986899 1_565
Al1 O76 1.988966 1_555
Al2 O66 1.801579 1_556
Al2 O5 1.802847 1_555
Al2 O75 1.896876 1_555
Al2 O20 1.993514 1_556
Al2 O13 2.019007 1_555
Al3 O12 1.750881 1_655
Al3 O53 1.763398 1_555
Al3 O21 1.766832 1_555
Al3 O8 1.772571 1_555
O0 Sr1 2.490324 1_554
O4 Sr3 2.636002 1_555
O4 Sr2 3.164126 1_555
O5 Sr1 2.666463 1_555
O8 Sr0 2.496597 1_555
O12 Sr3 2.465221 1_555
O12 Sr2 2.758616 1_555
O12 Sr0 3.065145 1_455
O20 Sr2 2.598684 1_555
O20 Sr3 2.607748 1_555
O20 Sr1 2.659457 1_554
O22 Sr0 2.917166 1_555
O25 Sr2 2.609250 1_555
O27 Sr3 2.565409 1_565
O32 Sr0 2.994630 1_565
O33 Sr3 2.615448 1_555
O33 Sr0 2.952508 1_455
O35 Sr2 2.662650 1_555
O45 Sr2 2.673283 1_555
O48 Sr0 2.727035 1_465
O49 Sr1 2.522371 1_554
O53 Sr2 2.834064 1_655
O57 Sr2 2.848770 1_555
O57 Sr1 3.091804 1_554
O58 Sr1 2.543382 1_555
O61 Sr3 2.600078 1_555
O63 Sr0 2.439354 1_555
O66 Sr3 2.424995 1_555
O67 Sr0 2.521575 1_455
O71 Sr0 2.701168 1_555
O74 Sr2 2.680684 1_555
O75 Sr1 2.703105 1_555
O75 Sr2 3.068081 1_556
O79 Sr1 2.742889 1_555
