# generated using pymatgen
data_AlCr2
_symmetry_space_group_name_H-M   'P 1'
_cell_length_a   5.17447476
_cell_length_b   5.17447476
_cell_length_c   12.54755616
_cell_angle_alpha   82.55409359
_cell_angle_beta   82.55409359
_cell_angle_gamma   111.80910138
_symmetry_Int_Tables_number   1
_chemical_formula_structural   AlCr2
_chemical_formula_sum   'Al8 Cr16'
_cell_volume   303.46813397
_cell_formula_units_Z   8
loop_
 _symmetry_equiv_pos_site_id
 _symmetry_equiv_pos_as_xyz
  1  'x, y, z'
loop_
 _atom_site_type_symbol
 _atom_site_label
 _atom_site_symmetry_multiplicity
 _atom_site_fract_x
 _atom_site_fract_y
 _atom_site_fract_z
 _atom_site_occupancy
  Al  Al0_0  1  0.00000000  0.00000000  0.00000000  1
  Al  Al0_1  1  0.00000000  0.00000000  0.50000000  1
  Al  Al0_2  1  0.00000000  0.50000000  0.00000000  1
  Al  Al0_3  1  0.00000000  0.50000000  0.50000000  1
  Al  Al0_4  1  0.50000000  0.00000000  0.00000000  1
  Al  Al0_5  1  0.50000000  1.00000000  0.50000000  1
  Al  Al0_6  1  0.50000000  0.50000000  0.00000000  1
  Al  Al0_7  1  0.50000000  0.50000000  0.50000000  1
  Cr  Cr0_0  1  0.16306750  0.16306750  0.17386500  1
  Cr  Cr0_1  1  0.16306750  0.16306750  0.67386500  1
  Cr  Cr0_2  1  0.16306750  0.66306750  0.17386500  1
  Cr  Cr0_3  1  0.16306750  0.66306750  0.67386500  1
  Cr  Cr0_4  1  0.66306750  0.16306750  0.17386500  1
  Cr  Cr0_5  1  0.66306750  0.16306750  0.67386500  1
  Cr  Cr0_6  1  0.66306750  0.66306750  0.17386500  1
  Cr  Cr0_7  1  0.66306750  0.66306750  0.67386500  1
  Cr  Cr1_0  1  0.33693250  0.33693250  0.32613500  1
  Cr  Cr1_1  1  0.33693250  0.33693250  0.82613500  1
  Cr  Cr1_2  1  0.33693250  0.83693250  0.32613500  1
  Cr  Cr1_3  1  0.33693250  0.83693250  0.82613500  1
  Cr  Cr1_4  1  0.83693250  0.33693250  0.32613500  1
  Cr  Cr1_5  1  0.83693250  0.33693250  0.82613500  1
  Cr  Cr1_6  1  0.83693250  0.83693250  0.32613500  1
  Cr  Cr1_7  1  0.83693250  0.83693250  0.82613500  1
loop_
_geom_bond_atom_site_label_1
_geom_bond_atom_site_label_2
_geom_bond_distance
_geom_bond_site_symmetry_2
Al0_0 Cr1_7 2.570686 1_444
Al0_0 Cr1_1 2.570686 1_554
Al0_0 Cr0_6 2.570686 1_445
Al0_0 Cr0_0 2.570686 1_555
Al0_0 Al0_2 2.587237 1_545
Al0_0 Al0_2 2.587237 1_555
Al0_0 Al0_4 2.587237 1_555
Al0_0 Al0_4 2.587237 1_455
Al0_1 Cr0_7 2.570686 1_445
Al0_1 Cr1_0 2.570686 1_555
Al0_1 Cr1_6 2.570686 1_445
Al0_1 Cr0_1 2.570686 1_555
Al0_1 Al0_5 2.587237 1_445
Al0_1 Al0_3 2.587237 1_555
Al0_1 Al0_3 2.587237 1_545
Al0_1 Al0_5 2.587237 1_545
Al0_2 Cr1_5 2.570686 1_454
Al0_2 Cr1_3 2.570686 1_554
Al0_2 Cr0_2 2.570686 1_555
Al0_2 Cr0_4 2.570686 1_455
Al0_2 Al0_6 2.587237 1_455
Al0_2 Al0_6 2.587237 1_555
Al0_3 Cr1_2 2.570686 1_555
Al0_3 Cr1_4 2.570686 1_455
Al0_3 Cr0_5 2.570686 1_455
Al0_3 Cr0_3 2.570686 1_555
Al0_3 Al0_7 2.587237 1_455
Al0_3 Al0_7 2.587237 1_555
Al0_4 Cr1_3 2.570686 1_544
Al0_4 Cr1_5 2.570686 1_554
Al0_4 Cr0_2 2.570686 1_545
Al0_4 Cr0_4 2.570686 1_555
Al0_4 Al0_6 2.587237 1_555
Al0_4 Al0_6 2.587237 1_545
Al0_5 Cr0_5 2.570686 1_565
Al0_5 Cr0_3 2.570686 1_555
Al0_5 Cr1_2 2.570686 1_555
Al0_5 Cr1_4 2.570686 1_565
Al0_5 Al0_7 2.587237 1_555
Al0_5 Al0_7 2.587237 1_565
Al0_6 Cr1_1 2.570686 1_554
Al0_6 Cr0_6 2.570686 1_555
Al0_6 Cr1_7 2.570686 1_554
Al0_6 Cr0_0 2.570686 1_555
Al0_7 Cr0_7 2.570686 1_555
Al0_7 Cr1_6 2.570686 1_555
Al0_7 Cr1_0 2.570686 1_555
Al0_7 Cr0_1 2.570686 1_555
Cr0_0 Cr1_0 2.357720 1_555
Cr0_0 Cr1_6 2.357720 1_445
Cr0_0 Cr0_2 2.587237 1_555
Cr0_0 Cr0_4 2.587237 1_455
Cr0_0 Cr0_2 2.587237 1_545
Cr0_0 Cr0_4 2.587237 1_555
Cr0_1 Cr1_7 2.357720 1_445
Cr0_1 Cr1_1 2.357720 1_555
Cr0_1 Cr0_5 2.587237 1_555
Cr0_1 Cr0_3 2.587237 1_555
Cr0_1 Cr0_5 2.587237 1_455
Cr0_1 Cr0_3 2.587237 1_545
Cr0_2 Cr1_2 2.357720 1_555
Cr0_2 Cr1_4 2.357720 1_455
Cr0_2 Cr0_6 2.587237 1_455
Cr0_2 Cr0_6 2.587237 1_555
Cr0_3 Cr1_3 2.357720 1_555
Cr0_3 Cr1_5 2.357720 1_455
Cr0_3 Cr0_7 2.587237 1_455
Cr0_3 Cr0_7 2.587237 1_555
Cr0_4 Cr1_2 2.357720 1_545
Cr0_4 Cr1_4 2.357720 1_555
Cr0_4 Cr0_6 2.587237 1_555
Cr0_4 Cr0_6 2.587237 1_545
Cr0_5 Cr1_3 2.357720 1_545
Cr0_5 Cr1_5 2.357720 1_555
Cr0_5 Cr0_7 2.587237 1_555
Cr0_5 Cr0_7 2.587237 1_545
Cr0_6 Cr1_0 2.357720 1_555
Cr0_6 Cr1_6 2.357720 1_555
Cr0_7 Cr1_1 2.357720 1_555
Cr0_7 Cr1_7 2.357720 1_555
Cr1_0 Cr1_2 2.587237 1_545
Cr1_0 Cr1_4 2.587237 1_555
Cr1_0 Cr1_2 2.587237 1_555
Cr1_0 Cr1_4 2.587237 1_455
Cr1_1 Cr1_5 2.587237 1_455
Cr1_1 Cr1_3 2.587237 1_545
Cr1_1 Cr1_5 2.587237 1_555
Cr1_1 Cr1_3 2.587237 1_555
Cr1_2 Cr1_6 2.587237 1_555
Cr1_2 Cr1_6 2.587237 1_455
Cr1_3 Cr1_7 2.587237 1_455
Cr1_3 Cr1_7 2.587237 1_555
Cr1_4 Cr1_6 2.587237 1_545
Cr1_4 Cr1_6 2.587237 1_555
Cr1_5 Cr1_7 2.587237 1_545
Cr1_5 Cr1_7 2.587237 1_555
