# generated using pymatgen
data_Pr2Fe20Si2C
_symmetry_space_group_name_H-M   'P 1'
_cell_length_a   6.40427092
_cell_length_b   7.84950880
_cell_length_c   7.82353283
_cell_angle_alpha   100.50573759
_cell_angle_beta   114.30048538
_cell_angle_gamma   65.60666027
_symmetry_Int_Tables_number   1
_chemical_formula_structural   Pr2Fe20Si2C
_chemical_formula_sum   'Pr2 Fe20 Si2 C1'
_cell_volume   326.41204224
_cell_formula_units_Z   1
loop_
 _symmetry_equiv_pos_site_id
 _symmetry_equiv_pos_as_xyz
  1  'x, y, z'
loop_
 _atom_site_type_symbol
 _atom_site_label
 _atom_site_symmetry_multiplicity
 _atom_site_fract_x
 _atom_site_fract_y
 _atom_site_fract_z
 _atom_site_occupancy
  Pr  Pr0  1  0.37418500  0.75106200  0.25410500  1
  Pr  Pr1  1  0.62581500  0.24893800  0.74589500  1
  Fe  Fe0  1  0.17737800  0.58291200  0.82530800  1
  Fe  Fe1  1  0.43442700  0.32351600  0.08065300  1
  Fe  Fe2  1  0.26977300  0.41963700  0.33153900  1
  Fe  Fe3  1  0.85620300  0.83265700  0.91774000  1
  Fe  Fe4  1  0.19093300  0.16762900  0.42137300  1
  Fe  Fe5  1  0.43751800  0.91949200  0.67113200  1
  Fe  Fe6  1  0.25787300  0.67598800  0.57736100  1
  Fe  Fe7  1  0.85724900  0.07862500  0.17470000  1
  Fe  Fe8  1  0.82262200  0.41708800  0.17469200  1
  Fe  Fe9  1  0.56557300  0.67648400  0.91934700  1
  Fe  Fe10  1  0.73022700  0.58036300  0.66846100  1
  Fe  Fe11  1  0.14379700  0.16734300  0.08226000  1
  Fe  Fe12  1  0.80906700  0.83237100  0.57862700  1
  Fe  Fe13  1  0.56248200  0.08050800  0.32886800  1
  Fe  Fe14  1  0.74212700  0.32401200  0.42263900  1
  Fe  Fe15  1  0.14275100  0.92137500  0.82530000  1
  Fe  Fe16  1  0.12308200  0.24807700  0.74877900  1
  Fe  Fe17  1  0.87691800  0.75192300  0.25122100  1
  Fe  Fe18  1  0.00000000  0.50000000  0.00000000  1
  Fe  Fe19  1  0.00000000  0.50000000  0.50000000  1
  Si  Si0  1  0.50000000  0.00000000  0.00000000  1
  Si  Si1  1  0.00000000  0.00000000  0.50000000  1
  C  C0  1  0.50000000  0.50000000  0.00000000  1
loop_
_geom_bond_atom_site_label_1
_geom_bond_atom_site_label_2
_geom_bond_distance
_geom_bond_site_symmetry_2
Fe0 Fe18 2.407229 1_556
Fe0 Fe19 2.412146 1_555
Fe0 Fe3 2.444058 1_455
Fe0 Fe6 2.492669 1_555
Fe0 Fe15 2.573129 1_555
Fe0 Fe10 2.617823 1_455
Fe0 Fe12 2.634188 1_455
Fe0 Fe16 2.719741 1_555
Fe1 Fe18 2.397527 1_555
Fe1 Si0 2.403365 1_555
Fe1 Fe2 2.457670 1_555
Fe1 Fe7 2.479005 1_555
Fe1 Fe14 2.589379 1_555
Fe1 Fe13 2.613437 1_555
Fe1 Fe11 2.622373 1_555
Fe1 Fe16 2.687282 1_554
Fe2 Fe4 2.507185 1_555
Fe2 Fe6 2.517199 1_555
Fe2 Fe8 2.617823 1_455
Fe2 Pr0 3.150730 1_555
Fe2 Pr1 3.237286 1_555
Fe3 Si0 2.401772 1_566
Fe3 Fe5 2.467550 1_555
Fe3 Fe7 2.520590 1_566
Fe3 Fe9 2.622373 1_555
Fe3 Pr0 3.164579 1_656
Fe3 Pr1 3.263245 1_565
Fe4 Si1 2.418302 1_555
Fe4 Fe7 2.475162 1_455
Fe4 Fe5 2.532435 1_545
Fe4 Fe8 2.634188 1_455
Fe4 Pr1 3.109291 1_555
Fe4 Pr0 3.211790 1_545
Fe5 Si1 2.408597 1_565
Fe5 Si0 2.438836 1_566
Fe5 Fe6 2.474999 1_555
Fe5 Fe9 2.613437 1_555
Fe5 Pr1 3.150776 1_565
Fe5 Pr0 3.215268 1_555
Fe6 Si1 2.414855 1_565
Fe6 Fe9 2.589379 1_555
Fe6 Pr0 3.123225 1_555
Fe6 Pr1 3.325360 1_555
Fe7 Si0 2.401780 1_555
Fe7 Si1 2.425997 1_655
Fe7 Fe8 2.573129 1_555
Fe7 Pr0 3.133017 1_645
Fe7 Pr1 3.338397 1_554
Fe9 Si0 2.403365 1_566
Fe10 Fe19 2.406366 1_655
Fe10 Fe9 2.457670 1_555
Fe10 Fe18 2.473627 1_656
Fe10 Fe12 2.507185 1_555
Fe10 Fe14 2.517199 1_555
Fe10 Fe5 2.547714 1_555
Fe10 Fe6 2.601447 1_555
Fe10 Fe3 2.644347 1_555
Fe10 Fe16 2.721035 1_655
Fe10 Pr1 3.150730 1_555
Fe10 Pr0 3.237286 1_555
Fe11 Si0 2.401772 1_555
Fe11 Fe8 2.444058 1_455
Fe11 Fe13 2.467550 1_555
Fe11 Fe18 2.493862 1_555
Fe11 Fe15 2.520590 1_544
Fe11 Fe4 2.543441 1_555
Fe11 Fe7 2.589843 1_455
Fe11 Fe2 2.644347 1_555
Fe11 Fe16 2.733990 1_554
Fe11 Pr1 3.164579 1_454
Fe11 Pr0 3.263245 1_545
Fe12 Si1 2.418302 1_665
Fe12 Fe19 2.465557 1_655
Fe12 Fe15 2.475162 1_655
Fe12 Fe13 2.532435 1_565
Fe12 Fe3 2.543441 1_555
Fe12 Fe5 2.558559 1_555
Fe12 Fe6 2.621650 1_655
Fe12 Fe17 2.692268 1_555
Fe12 Pr0 3.109291 1_555
Fe12 Pr1 3.211790 1_565
Fe13 Si1 2.408597 1_655
Fe13 Si0 2.438836 1_555
Fe13 Fe14 2.474999 1_555
Fe13 Fe2 2.547714 1_555
Fe13 Fe4 2.558559 1_555
Fe13 Fe7 2.619753 1_555
Fe13 Fe17 2.687359 1_545
Fe13 Pr0 3.150776 1_545
Fe13 Pr1 3.215268 1_555
Fe14 Fe19 2.399774 1_655
Fe14 Si1 2.414855 1_655
Fe14 Fe8 2.492669 1_555
Fe14 Fe7 2.580291 1_555
Fe14 Fe2 2.601447 1_555
Fe14 Fe4 2.621650 1_655
Fe14 Fe16 2.654799 1_655
Fe14 Pr1 3.123225 1_555
Fe14 Pr0 3.325360 1_555
Fe15 Si0 2.401780 1_566
Fe15 Si1 2.425997 1_565
Fe15 Fe9 2.479005 1_555
Fe15 Fe6 2.580291 1_555
Fe15 Fe3 2.589843 1_455
Fe15 Fe5 2.619753 1_555
Fe15 Fe16 2.679857 1_565
Fe15 Pr1 3.133017 1_465
Fe15 Pr0 3.338397 1_556
Fe16 Si1 2.612372 1_555
Fe16 Fe18 2.639118 1_556
Fe16 Si0 2.662697 1_556
Fe16 Fe19 2.678292 1_555
Fe16 Fe5 2.687359 1_545
Fe16 Fe4 2.692268 1_555
Fe16 Pr1 3.172629 1_455
Fe16 Pr1 3.231787 1_555
Fe17 Si1 2.612372 1_665
Fe17 Fe18 2.639118 1_655
Fe17 Fe6 2.654799 1_655
Fe17 Si0 2.662697 1_565
Fe17 Fe19 2.678292 1_655
Fe17 Fe7 2.679857 1_565
Fe17 Fe9 2.687282 1_554
Fe17 Fe8 2.719741 1_555
Fe17 Fe2 2.721035 1_655
Fe17 Fe3 2.733990 1_554
Fe17 Pr0 3.172629 1_655
Fe17 Pr0 3.231787 1_555
Fe18 Fe9 2.397527 1_454
Fe18 Fe8 2.407229 1_455
Fe18 Fe2 2.473627 1_555
Fe18 Fe3 2.493862 1_454
Fe18 Pr1 3.482767 1_454
Fe18 Pr0 3.482767 1_555
Fe19 Fe6 2.399774 1_555
Fe19 Fe2 2.406366 1_555
Fe19 Fe8 2.412146 1_455
Fe19 Fe4 2.465557 1_555
Fe19 Pr1 3.487171 1_555
Fe19 Pr0 3.487171 1_455
C0 Fe0 1.857411 1_554
C0 Fe8 1.857411 1_555
C0 Fe9 1.873762 1_554
C0 Fe1 1.873762 1_555
C0 Pr0 2.657664 1_555
C0 Pr1 2.657664 1_554
