# generated using pymatgen
data_CaCuGe
_symmetry_space_group_name_H-M   'P 1'
_cell_length_a   4.36014100
_cell_length_b   7.50676200
_cell_length_c   21.47119100
_cell_angle_alpha   90.00000000
_cell_angle_beta   90.00000000
_cell_angle_gamma   90.00000000
_symmetry_Int_Tables_number   1
_chemical_formula_structural   CaCuGe
_chemical_formula_sum   'Ca12 Cu12 Ge12'
_cell_volume   702.76369248
_cell_formula_units_Z   12
loop_
 _symmetry_equiv_pos_site_id
 _symmetry_equiv_pos_as_xyz
  1  'x, y, z'
loop_
 _atom_site_type_symbol
 _atom_site_label
 _atom_site_symmetry_multiplicity
 _atom_site_fract_x
 _atom_site_fract_y
 _atom_site_fract_z
 _atom_site_occupancy
  Ca  Ca0  1  0.26425800  0.71546600  0.49852900  1
  Ca  Ca1  1  0.76425800  0.28453400  0.50147100  1
  Ca  Ca2  1  0.76425800  0.21546600  0.00147100  1
  Ca  Ca3  1  0.26425800  0.78453400  0.99852900  1
  Ca  Ca4  1  0.76174100  0.20669500  0.66622800  1
  Ca  Ca5  1  0.26174100  0.79330500  0.33377200  1
  Ca  Ca6  1  0.26174100  0.70669500  0.83377200  1
  Ca  Ca7  1  0.76174100  0.29330500  0.16622800  1
  Ca  Ca8  1  0.25985800  0.79442300  0.66710700  1
  Ca  Ca9  1  0.75985800  0.20557700  0.33289300  1
  Ca  Ca10  1  0.75985800  0.29442300  0.83289300  1
  Ca  Ca11  1  0.25985800  0.70557700  0.16710700  1
  Cu  Cu0  1  0.75050500  0.58405800  0.59694100  1
  Cu  Cu1  1  0.25050500  0.41594200  0.40305900  1
  Cu  Cu2  1  0.25050500  0.08405800  0.90305900  1
  Cu  Cu3  1  0.75050500  0.91594200  0.09694100  1
  Cu  Cu4  1  0.75447600  0.58733900  0.73539700  1
  Cu  Cu5  1  0.25447600  0.41266100  0.26460300  1
  Cu  Cu6  1  0.25447600  0.08733900  0.76460300  1
  Cu  Cu7  1  0.75447600  0.91266100  0.23539700  1
  Cu  Cu8  1  0.25466500  0.07844100  0.56307700  1
  Cu  Cu9  1  0.75466500  0.92155900  0.43692300  1
  Cu  Cu10  1  0.75466500  0.57844100  0.93692300  1
  Cu  Cu11  1  0.25466500  0.42155900  0.06307700  1
  Ge  Ge0  1  0.25419600  0.41970400  0.72962800  1
  Ge  Ge1  1  0.75419600  0.58029600  0.27037200  1
  Ge  Ge2  1  0.75419600  0.91970400  0.77037200  1
  Ge  Ge3  1  0.25419600  0.08029600  0.22962800  1
  Ge  Ge4  1  0.75549700  0.90858500  0.56978000  1
  Ge  Ge5  1  0.25549700  0.09141500  0.43022000  1
  Ge  Ge6  1  0.25549700  0.40858500  0.93022000  1
  Ge  Ge7  1  0.75549700  0.59141500  0.06978000  1
  Ge  Ge8  1  0.25480300  0.41525700  0.60185100  1
  Ge  Ge9  1  0.75480300  0.58474300  0.39814900  1
  Ge  Ge10  1  0.75480300  0.91525700  0.89814900  1
  Ge  Ge11  1  0.25480300  0.08474300  0.10185100  1
loop_
_geom_bond_atom_site_label_1
_geom_bond_atom_site_label_2
_geom_bond_distance
_geom_bond_site_symmetry_2
Ca0 Cu9 2.952161 1_555
Ca0 Ge4 3.004939 1_555
Ca0 Cu9 3.013303 1_455
Ca0 Cu1 3.043198 1_555
Ca0 Cu8 3.057268 1_565
Ca0 Ge4 3.059864 1_455
Ca0 Cu0 3.151633 1_555
Ca0 Ge8 3.162579 1_555
Ca0 Ge5 3.180752 1_565
Ca0 Ge9 3.191057 1_555
Ca0 Cu0 3.233528 1_455
Ca0 Ge9 3.246897 1_455
Ca1 Cu8 2.952161 1_655
Ca1 Ge5 3.004939 1_655
Ca1 Cu8 3.013303 1_555
Ca1 Cu0 3.043198 1_555
Ca1 Cu9 3.057268 1_545
Ca1 Ge5 3.059864 1_555
Ca1 Cu1 3.151633 1_655
Ca1 Ge9 3.162579 1_555
Ca1 Ge4 3.180752 1_545
Ca1 Ge8 3.191057 1_655
Ca1 Cu1 3.233528 1_555
Ca1 Ge8 3.246897 1_555
Ca2 Cu11 2.952161 1_655
Ca2 Ge6 3.004939 1_654
Ca2 Cu11 3.013303 1_555
Ca2 Cu3 3.043198 1_545
Ca2 Cu10 3.057268 1_554
Ca2 Ge6 3.059864 1_554
Ca2 Cu2 3.151633 1_654
Ca2 Ge10 3.162579 1_544
Ca2 Ge7 3.180752 1_555
Ca2 Ge11 3.191057 1_655
Ca2 Cu2 3.233528 1_554
Ca2 Ge11 3.246897 1_555
Ca3 Cu10 2.952161 1_555
Ca3 Ge7 3.004939 1_556
Ca3 Cu10 3.013303 1_455
Ca3 Cu2 3.043198 1_565
Ca3 Cu11 3.057268 1_556
Ca3 Ge7 3.059864 1_456
Ca3 Cu3 3.151633 1_556
Ca3 Ge11 3.162579 1_566
Ca3 Ge6 3.180752 1_555
Ca3 Ge10 3.191057 1_555
Ca3 Cu3 3.233528 1_456
Ca3 Ge10 3.246897 1_455
Ca4 Ge8 2.997253 1_655
Ca4 Ge0 3.003372 1_655
Ca4 Ge8 3.040941 1_555
Ca4 Ge4 3.049116 1_545
Ca4 Ge0 3.050757 1_555
Ca4 Ge2 3.105242 1_545
Ca4 Cu6 3.143228 1_655
Ca4 Cu6 3.186865 1_555
Ca4 Cu0 3.200029 1_555
Ca4 Cu4 3.220466 1_555
Ca4 Cu8 3.232847 1_655
Ca4 Cu8 3.274193 1_555
Ca5 Ge9 2.997253 1_555
Ca5 Ge1 3.003372 1_555
Ca5 Ge9 3.040941 1_455
Ca5 Ge5 3.049116 1_565
Ca5 Ge1 3.050757 1_455
Ca5 Ge3 3.105242 1_565
Ca5 Cu7 3.143228 1_555
Ca5 Cu7 3.186865 1_455
Ca5 Cu1 3.200029 1_555
Ca5 Cu5 3.220466 1_555
Ca5 Cu9 3.232847 1_555
Ca5 Cu9 3.274193 1_455
Ca6 Ge10 2.997253 1_555
Ca6 Ge2 3.003372 1_555
Ca6 Ge10 3.040941 1_455
Ca6 Ge6 3.049116 1_555
Ca6 Ge2 3.050757 1_455
Ca6 Ge0 3.105242 1_555
Ca6 Cu4 3.143228 1_555
Ca6 Cu4 3.186865 1_455
Ca6 Cu2 3.200029 1_565
Ca6 Cu6 3.220466 1_565
Ca6 Cu10 3.232847 1_555
Ca6 Cu10 3.274193 1_455
Ca7 Ge11 2.997253 1_655
Ca7 Ge3 3.003372 1_655
Ca7 Ge11 3.040941 1_555
Ca7 Ge7 3.049116 1_555
Ca7 Ge3 3.050757 1_555
Ca7 Ge1 3.105242 1_555
Ca7 Cu5 3.143228 1_655
Ca7 Cu5 3.186865 1_555
Ca7 Cu3 3.200029 1_545
Ca7 Cu7 3.220466 1_545
Ca7 Cu11 3.232847 1_655
Ca7 Cu11 3.274193 1_555
Ca8 Cu4 3.036025 1_555
Ca8 Cu6 3.036055 1_565
Ca8 Cu0 3.056140 1_555
Ca8 Cu4 3.069541 1_455
Ca8 Cu8 3.087937 1_565
Ca8 Cu0 3.113778 1_455
Ca8 Ge0 3.116922 1_555
Ca8 Ge4 3.125947 1_555
Ca8 Ge4 3.152358 1_455
Ca8 Ge8 3.172556 1_555
Ca8 Ge2 3.232059 1_555
Ca8 Ge2 3.265193 1_455
Ca9 Cu5 3.036025 1_655
Ca9 Cu7 3.036055 1_545
Ca9 Cu1 3.056140 1_655
Ca9 Cu5 3.069541 1_555
Ca9 Cu9 3.087937 1_545
Ca9 Cu1 3.113778 1_555
Ca9 Ge1 3.116922 1_555
Ca9 Ge5 3.125947 1_655
Ca9 Ge5 3.152358 1_555
Ca9 Ge9 3.172556 1_555
Ca9 Ge3 3.232059 1_655
Ca9 Ge3 3.265193 1_555
Ca10 Cu6 3.036025 1_655
Ca10 Cu4 3.036055 1_555
Ca10 Cu2 3.056140 1_655
Ca10 Cu6 3.069541 1_555
Ca10 Cu10 3.087937 1_555
Ca10 Cu2 3.113778 1_555
Ca10 Ge2 3.116922 1_545
Ca10 Ge6 3.125947 1_655
Ca10 Ge6 3.152358 1_555
Ca10 Ge10 3.172556 1_545
Ca10 Ge0 3.232059 1_655
Ca10 Ge0 3.265193 1_555
Ca11 Cu7 3.036025 1_555
Ca11 Cu5 3.036055 1_555
Ca11 Cu3 3.056140 1_555
Ca11 Cu7 3.069541 1_455
Ca11 Cu11 3.087937 1_555
Ca11 Cu3 3.113778 1_455
Ca11 Ge3 3.116922 1_565
Ca11 Ge7 3.125947 1_555
Ca11 Ge7 3.152358 1_455
Ca11 Ge11 3.172556 1_565
Ca11 Ge1 3.232059 1_555
Ca11 Ge1 3.265193 1_455
Cu0 Ge4 2.505072 1_555
Cu0 Ge8 2.507615 1_555
Cu0 Ge8 2.539990 1_655
Cu0 Cu4 2.972968 1_555
Cu1 Ge5 2.505072 1_555
Cu1 Ge9 2.507615 1_455
Cu1 Ge9 2.539990 1_555
Cu1 Cu5 2.972968 1_555
Cu2 Ge6 2.505072 1_555
Cu2 Ge10 2.507615 1_445
Cu2 Ge10 2.539990 1_545
Cu2 Cu6 2.972968 1_555
Cu3 Ge7 2.505072 1_555
Cu3 Ge11 2.507615 1_565
Cu3 Ge11 2.539990 1_665
Cu3 Cu7 2.972968 1_555
Cu4 Ge0 2.519184 1_655
Cu4 Ge0 2.521296 1_555
Cu4 Ge2 2.605549 1_555
Cu5 Ge1 2.519184 1_555
Cu5 Ge1 2.521296 1_455
Cu5 Ge3 2.605549 1_555
Cu6 Ge2 2.519184 1_545
Cu6 Ge2 2.521296 1_445
Cu6 Ge0 2.605549 1_555
Cu7 Ge3 2.519184 1_665
Cu7 Ge3 2.521296 1_565
Cu7 Ge1 2.605549 1_555
Cu8 Ge4 2.526542 1_445
Cu8 Ge4 2.532795 1_545
Cu8 Ge8 2.661934 1_555
Cu8 Ge5 2.854262 1_555
Cu9 Ge5 2.526542 1_565
Cu9 Ge5 2.532795 1_665
Cu9 Ge9 2.661934 1_555
Cu9 Ge4 2.854262 1_555
Cu10 Ge6 2.526542 1_555
Cu10 Ge6 2.532795 1_655
Cu10 Ge10 2.661934 1_555
Cu10 Ge7 2.854262 1_556
Cu11 Ge7 2.526542 1_455
Cu11 Ge7 2.532795 1_555
Cu11 Ge11 2.661934 1_555
Cu11 Ge6 2.854262 1_554
Ge0 Ge8 2.743729 1_555
Ge1 Ge9 2.743729 1_555
Ge10 Ge2 2.743729 1_555
Ge11 Ge3 2.743729 1_555
