# generated using pymatgen
data_Sc2CoB2Ir5
_symmetry_space_group_name_H-M   'P 1'
_cell_length_a   9.36915300
_cell_length_b   9.36915300
_cell_length_c   3.05305900
_cell_angle_alpha   90.00000000
_cell_angle_beta   90.00000000
_cell_angle_gamma   90.00000000
_symmetry_Int_Tables_number   1
_chemical_formula_structural   Sc2CoB2Ir5
_chemical_formula_sum   'Sc4 Co2 B4 Ir10'
_cell_volume   268.00065737
_cell_formula_units_Z   2
loop_
 _symmetry_equiv_pos_site_id
 _symmetry_equiv_pos_as_xyz
  1  'x, y, z'
loop_
 _atom_site_type_symbol
 _atom_site_label
 _atom_site_symmetry_multiplicity
 _atom_site_fract_x
 _atom_site_fract_y
 _atom_site_fract_z
 _atom_site_occupancy
  Sc  Sc0  1  0.67585300  0.17585300  0.00000000  1
  Sc  Sc1  1  0.32414700  0.82414700  0.00000000  1
  Sc  Sc2  1  0.17585300  0.32414700  0.00000000  1
  Sc  Sc3  1  0.82414700  0.67585300  0.00000000  1
  Co  Co0  1  0.00000000  0.00000000  0.00000000  1
  Co  Co1  1  0.50000000  0.50000000  0.00000000  1
  B  B0  1  0.12592200  0.62592200  0.00000000  1
  B  B1  1  0.87407800  0.37407800  0.00000000  1
  B  B2  1  0.62592200  0.87407800  0.00000000  1
  B  B3  1  0.37407800  0.12592200  0.00000000  1
  Ir  Ir0  1  0.21502200  0.07104000  0.50000000  1
  Ir  Ir1  1  0.78497800  0.92896000  0.50000000  1
  Ir  Ir2  1  0.07104000  0.78497800  0.50000000  1
  Ir  Ir3  1  0.71502200  0.42896000  0.50000000  1
  Ir  Ir4  1  0.92896000  0.21502200  0.50000000  1
  Ir  Ir5  1  0.28497800  0.57104000  0.50000000  1
  Ir  Ir6  1  0.57104000  0.71502200  0.50000000  1
  Ir  Ir7  1  0.42896000  0.28497800  0.50000000  1
  Ir  Ir8  1  0.50000000  0.00000000  0.50000000  1
  Ir  Ir9  1  0.00000000  0.50000000  0.50000000  1
loop_
_geom_bond_atom_site_label_1
_geom_bond_atom_site_label_2
_geom_bond_distance
_geom_bond_site_symmetry_2
Co0 Ir4 2.613772 1_454
Co0 Ir4 2.613772 1_455
Co0 Ir0 2.613772 1_554
Co0 Ir2 2.613772 1_544
Co0 Ir2 2.613772 1_545
Co0 Ir1 2.613772 1_444
Co0 Ir1 2.613772 1_445
Co0 Ir0 2.613772 1_555
Co1 Ir3 2.613772 1_555
Co1 Ir6 2.613772 1_555
Co1 Ir6 2.613772 1_554
Co1 Ir3 2.613772 1_554
Co1 Ir7 2.613772 1_554
Co1 Ir5 2.613772 1_555
Co1 Ir5 2.613772 1_554
Co1 Ir7 2.613772 1_555
B0 Ir2 2.194413 1_555
B0 Ir2 2.194413 1_554
B0 Ir5 2.194413 1_555
B0 Ir5 2.194413 1_554
B0 Ir9 2.261430 1_555
B0 Ir9 2.261430 1_554
B0 Sc1 2.626478 1_555
B0 Sc3 2.865816 1_455
B0 Sc2 2.865816 1_555
B1 Ir4 2.194413 1_555
B1 Ir4 2.194413 1_554
B1 Ir3 2.194413 1_555
B1 Ir3 2.194413 1_554
B1 Ir9 2.261430 1_655
B1 Ir9 2.261430 1_654
B1 Sc0 2.626478 1_555
B1 Sc3 2.865816 1_555
B1 Sc2 2.865816 1_655
B2 Ir6 2.194413 1_555
B2 Ir6 2.194413 1_554
B2 Ir1 2.194413 1_554
B2 Ir1 2.194413 1_555
B2 Ir8 2.261430 1_565
B2 Ir8 2.261430 1_564
B2 Sc3 2.626478 1_555
B2 Sc0 2.865816 1_565
B2 Sc1 2.865816 1_555
B3 Ir0 2.194413 1_555
B3 Ir0 2.194413 1_554
B3 Ir7 2.194413 1_554
B3 Ir7 2.194413 1_555
B3 Ir8 2.261430 1_555
B3 Ir8 2.261430 1_554
B3 Sc2 2.626478 1_555
B3 Sc0 2.865816 1_555
B3 Sc1 2.865816 1_545
Ir0 Sc2 2.844028 1_555
Ir0 Sc2 2.844028 1_556
Ir0 Sc1 2.954049 1_545
Ir0 Sc1 2.954049 1_546
Ir1 Sc3 2.844028 1_555
Ir1 Sc3 2.844028 1_556
Ir1 Sc0 2.954049 1_565
Ir1 Sc0 2.954049 1_566
Ir2 Sc1 2.844028 1_555
Ir2 Sc1 2.844028 1_556
Ir2 Sc3 2.954049 1_455
Ir2 Sc3 2.954049 1_456
Ir3 Sc0 2.844028 1_555
Ir3 Sc0 2.844028 1_556
Ir3 Sc3 2.954049 1_555
Ir3 Sc3 2.954049 1_556
Ir4 Sc0 2.844028 1_555
Ir4 Sc0 2.844028 1_556
Ir4 Sc2 2.954049 1_655
Ir4 Sc2 2.954049 1_656
Ir5 Sc1 2.844028 1_555
Ir5 Sc1 2.844028 1_556
Ir5 Sc2 2.954049 1_555
Ir5 Sc2 2.954049 1_556
Ir6 Sc3 2.844028 1_556
Ir6 Sc3 2.844028 1_555
Ir6 Sc1 2.954049 1_555
Ir6 Sc1 2.954049 1_556
Ir7 Sc2 2.844028 1_555
Ir7 Sc2 2.844028 1_556
Ir7 Sc0 2.954049 1_555
Ir7 Sc0 2.954049 1_556
Ir8 Sc0 2.785574 1_555
Ir8 Sc0 2.785574 1_556
Ir8 Sc1 2.785574 1_546
Ir8 Sc1 2.785574 1_545
Ir9 Sc3 2.785574 1_455
Ir9 Sc3 2.785574 1_456
Ir9 Sc2 2.785574 1_556
Ir9 Sc2 2.785574 1_555
