# generated using pymatgen
data_CaAl2(SiO5)2
_symmetry_space_group_name_H-M   'P 1'
_cell_length_a   5.30107502
_cell_length_b   5.36207831
_cell_length_c   13.01515200
_cell_angle_alpha   90.00000000
_cell_angle_beta   90.00000000
_cell_angle_gamma   113.30830018
_symmetry_Int_Tables_number   1
_chemical_formula_structural   CaAl2(SiO5)2
_chemical_formula_sum   'Ca2 Al4 Si4 O20'
_cell_volume   339.76063044
_cell_formula_units_Z   2
loop_
 _symmetry_equiv_pos_site_id
 _symmetry_equiv_pos_as_xyz
  1  'x, y, z'
loop_
 _atom_site_type_symbol
 _atom_site_label
 _atom_site_symmetry_multiplicity
 _atom_site_fract_x
 _atom_site_fract_y
 _atom_site_fract_z
 _atom_site_occupancy
  Ca  Ca0  1  0.34349000  0.65877700  0.25000000  1
  Ca  Ca1  1  0.65651000  0.34122300  0.75000000  1
  Al  Al0  1  0.00000000  0.50000000  0.50000000  1
  Al  Al1  1  0.00000000  0.50000000  0.00000000  1
  Al  Al2  1  0.50000000  0.00000000  0.50000000  1
  Al  Al3  1  0.50000000  0.00000000  0.00000000  1
  Si  Si0  1  0.00654400  0.96916400  0.63020200  1
  Si  Si1  1  0.99345600  0.03083600  0.13020200  1
  Si  Si2  1  0.99345600  0.03083600  0.36979800  1
  Si  Si3  1  0.00654400  0.96916400  0.86979800  1
  O  O0  1  0.06810700  0.97728800  0.25000000  1
  O  O1  1  0.93189300  0.02271200  0.75000000  1
  O  O2  1  0.34180200  0.09615200  0.61672600  1
  O  O3  1  0.65819800  0.90384800  0.11672600  1
  O  O4  1  0.65819800  0.90384800  0.38327400  1
  O  O5  1  0.34180200  0.09615200  0.88327400  1
  O  O6  1  0.87147400  0.64096200  0.88907400  1
  O  O7  1  0.12852600  0.35903800  0.38907400  1
  O  O8  1  0.12852600  0.35903800  0.11092600  1
  O  O9  1  0.87147400  0.64096200  0.61092600  1
  O  O10  1  0.85849600  0.13720000  0.56577200  1
  O  O11  1  0.14150400  0.86280000  0.06577200  1
  O  O12  1  0.14150400  0.86280000  0.43422800  1
  O  O13  1  0.85849600  0.13720000  0.93422800  1
  O  O14  1  0.34977000  0.65223300  0.56292700  1
  O  O15  1  0.65023000  0.34776700  0.06292700  1
  O  O16  1  0.65023000  0.34776700  0.43707300  1
  O  O17  1  0.34977000  0.65223300  0.93707300  1
  O  O18  1  0.70338500  0.47014500  0.25000000  1
  O  O19  1  0.29661500  0.52985500  0.75000000  1
loop_
_geom_bond_atom_site_label_1
_geom_bond_atom_site_label_2
_geom_bond_distance
_geom_bond_site_symmetry_2
Ca0 O7 2.389289 1_555
Ca0 O8 2.389289 1_555
Ca0 O3 2.404978 1_555
Ca0 O4 2.404978 1_555
Ca0 O18 2.487960 1_555
Ca0 O0 2.649711 1_555
Ca1 O6 2.389289 1_555
Ca1 O9 2.389289 1_555
Ca1 O2 2.404978 1_555
Ca1 O5 2.404978 1_555
Ca1 O19 2.487960 1_555
Ca1 O1 2.649711 1_555
Al0 O9 1.878129 1_455
Al0 O7 1.878129 1_555
Al0 O16 1.891363 1_455
Al0 O14 1.891363 1_555
Al0 O10 1.981190 1_455
Al0 O12 1.981190 1_555
Al1 O8 1.878129 1_555
Al1 O6 1.878129 1_454
Al1 O15 1.891363 1_455
Al1 O17 1.891363 1_554
Al1 O11 1.981190 1_555
Al1 O13 1.981190 1_454
Al2 O14 1.899234 1_545
Al2 O16 1.899234 1_555
Al2 O2 1.902432 1_555
Al2 O4 1.902432 1_545
Al2 O10 1.944016 1_555
Al2 O12 1.944016 1_545
Al3 O15 1.899234 1_555
Al3 O17 1.899234 1_544
Al3 O3 1.902432 1_545
Al3 O5 1.902432 1_554
Al3 O13 1.944016 1_554
Al3 O11 1.944016 1_545
O0 Si2 1.661335 1_465
O0 Si1 1.661335 1_465
O1 Si3 1.661335 1_645
O1 Si0 1.661335 1_645
O2 Si0 1.641735 1_545
O3 Si1 1.641735 1_565
O4 Si2 1.641735 1_565
O5 Si3 1.641735 1_545
O6 Si3 1.635696 1_655
O7 Si2 1.635696 1_455
O8 Si1 1.635696 1_455
O9 Si0 1.635696 1_655
O10 Si0 1.640293 1_645
O11 Si1 1.640293 1_465
O12 Si2 1.640293 1_465
O13 Si3 1.640293 1_645
