# generated using pymatgen
data_BaMg6Cr
_symmetry_space_group_name_H-M   'P 1'
_cell_length_a   5.18103600
_cell_length_b   6.86931600
_cell_length_c   12.09453900
_cell_angle_alpha   90.00000000
_cell_angle_beta   90.00000000
_cell_angle_gamma   90.00000000
_symmetry_Int_Tables_number   1
_chemical_formula_structural   BaMg6Cr
_chemical_formula_sum   'Ba2 Mg12 Cr2'
_cell_volume   430.44674131
_cell_formula_units_Z   2
loop_
 _symmetry_equiv_pos_site_id
 _symmetry_equiv_pos_as_xyz
  1  'x, y, z'
loop_
 _atom_site_type_symbol
 _atom_site_label
 _atom_site_symmetry_multiplicity
 _atom_site_fract_x
 _atom_site_fract_y
 _atom_site_fract_z
 _atom_site_occupancy
  Ba  Ba0  1  0.00000000  0.50000000  0.32868500  1
  Ba  Ba1  1  0.00000000  0.00000000  0.82868500  1
  Mg  Mg0  1  0.00000000  0.26809500  0.08073500  1
  Mg  Mg1  1  0.00000000  0.73190500  0.08073500  1
  Mg  Mg2  1  0.00000000  0.00000000  0.33484000  1
  Mg  Mg3  1  0.50000000  0.77688300  0.43280700  1
  Mg  Mg4  1  0.50000000  0.22311700  0.43280700  1
  Mg  Mg5  1  0.50000000  0.00000000  0.16645600  1
  Mg  Mg6  1  0.00000000  0.76809500  0.58073500  1
  Mg  Mg7  1  0.00000000  0.23190500  0.58073500  1
  Mg  Mg8  1  0.00000000  0.50000000  0.83484000  1
  Mg  Mg9  1  0.50000000  0.27688300  0.93280700  1
  Mg  Mg10  1  0.50000000  0.72311700  0.93280700  1
  Mg  Mg11  1  0.50000000  0.50000000  0.66645600  1
  Cr  Cr0  1  0.50000000  0.50000000  0.14293600  1
  Cr  Cr1  1  0.50000000  0.00000000  0.64293600  1
loop_
_geom_bond_atom_site_label_1
_geom_bond_atom_site_label_2
_geom_bond_distance
_geom_bond_site_symmetry_2
Ba0 Mg1 3.395701 1_555
Ba0 Mg0 3.395701 1_555
Ba0 Cr0 3.428960 1_455
Ba0 Cr0 3.428960 1_555
Ba0 Mg2 3.435465 1_555
Ba0 Mg2 3.435465 1_565
Ba0 Mg3 3.451700 1_455
Ba0 Mg3 3.451700 1_555
Ba0 Mg4 3.451700 1_455
Ba0 Mg4 3.451700 1_555
Ba0 Mg6 3.561533 1_555
Ba0 Mg7 3.561533 1_555
Ba1 Mg6 3.395701 1_545
Ba1 Mg7 3.395701 1_555
Ba1 Cr1 3.428960 1_555
Ba1 Cr1 3.428960 1_455
Ba1 Mg8 3.435465 1_545
Ba1 Mg8 3.435465 1_555
Ba1 Mg9 3.451700 1_455
Ba1 Mg9 3.451700 1_555
Ba1 Mg10 3.451700 1_445
Ba1 Mg10 3.451700 1_545
Ba1 Mg0 3.561533 1_556
Ba1 Mg1 3.561533 1_546
Mg0 Mg9 3.148870 1_554
Mg0 Mg9 3.148870 1_454
Mg0 Mg1 3.186057 1_555
Mg0 Mg5 3.343239 1_455
Mg0 Mg5 3.343239 1_555
Mg0 Mg8 3.373772 1_554
Mg1 Mg10 3.148870 1_454
Mg1 Mg10 3.148870 1_554
Mg1 Mg5 3.343239 1_565
Mg1 Mg5 3.343239 1_465
Mg1 Mg8 3.373772 1_554
Mg2 Mg4 3.234771 1_455
Mg2 Mg4 3.234771 1_555
Mg2 Mg3 3.234771 1_545
Mg2 Mg3 3.234771 1_445
Mg2 Mg5 3.295182 1_455
Mg2 Mg5 3.295182 1_555
Mg2 Mg6 3.373772 1_545
Mg2 Mg7 3.373772 1_555
Mg3 Mg4 3.065322 1_565
Mg3 Mg6 3.148870 1_655
Mg3 Mg6 3.148870 1_555
Mg3 Mg5 3.567411 1_565
Mg4 Mg7 3.148870 1_655
Mg4 Mg7 3.148870 1_555
Mg4 Mg5 3.567411 1_555
Mg5 Mg9 3.406343 1_554
Mg6 Mg7 3.186057 1_565
Mg8 Mg9 3.234771 1_455
Mg8 Mg9 3.234771 1_555
Mg10 Mg9 3.065322 1_555
Mg10 Mg8 3.234771 1_555
Mg10 Mg8 3.234771 1_655
Mg10 Mg5 3.406343 1_566
Mg10 Mg11 3.567411 1_555
Mg11 Mg8 3.295182 1_555
Mg11 Mg8 3.295182 1_655
Mg11 Mg6 3.343239 1_555
Mg11 Mg7 3.343239 1_555
Mg11 Mg6 3.343239 1_655
Mg11 Mg7 3.343239 1_655
Mg11 Mg3 3.406343 1_555
Mg11 Mg4 3.406343 1_555
Mg11 Mg9 3.567411 1_555
Cr0 Mg9 2.967799 1_554
Cr0 Mg10 2.967799 1_554
Cr0 Mg1 3.132805 1_555
Cr0 Mg1 3.132805 1_655
Cr0 Mg0 3.132805 1_555
Cr0 Mg0 3.132805 1_655
Cr0 Mg5 3.446418 1_565
Cr0 Mg5 3.446418 1_555
Cr1 Mg4 2.967799 1_555
Cr1 Mg3 2.967799 1_545
Cr1 Mg7 3.132805 1_655
Cr1 Mg6 3.132805 1_645
Cr1 Mg6 3.132805 1_545
Cr1 Mg7 3.132805 1_555
Cr1 Mg11 3.446418 1_555
Cr1 Mg11 3.446418 1_545
