# generated using pymatgen
data_MgV12Zn6O24
_symmetry_space_group_name_H-M   'P 1'
_cell_length_a   6.06026470
_cell_length_b   6.11680874
_cell_length_c   18.16246534
_cell_angle_alpha   62.68192124
_cell_angle_beta   60.04744952
_cell_angle_gamma   59.96160286
_symmetry_Int_Tables_number   1
_chemical_formula_structural   MgV12Zn6O24
_chemical_formula_sum   'Mg1 V12 Zn6 O24'
_cell_volume   485.00031149
_cell_formula_units_Z   1
loop_
 _symmetry_equiv_pos_site_id
 _symmetry_equiv_pos_as_xyz
  1  'x, y, z'
loop_
 _atom_site_type_symbol
 _atom_site_label
 _atom_site_symmetry_multiplicity
 _atom_site_fract_x
 _atom_site_fract_y
 _atom_site_fract_z
 _atom_site_occupancy
  Mg  Mg0  1  0.02689288  0.45312011  0.00139715  1
  V  V0  1  0.03103127  0.42649880  0.17281728  1
  V  V1  1  0.52856378  0.42488055  0.17269886  1
  V  V2  1  0.00260778  0.50019365  0.49920416  1
  V  V3  1  0.52983566  0.94749456  0.16685111  1
  V  V4  1  0.51803148  0.46911308  0.33365448  1
  V  V5  1  0.49912532  0.50094537  0.49925480  1
  V  V6  1  0.97898435  0.57013162  0.82297646  1
  V  V7  1  0.49879307  0.00204688  0.49956725  1
  V  V8  1  0.47721474  0.05746826  0.83086787  1
  V  V9  1  0.49057754  0.52818775  0.66230344  1
  V  V10  1  0.47520335  0.57363120  0.82221161  1
  V  V11  1  0.79103073  0.99328863  0.97226536  1
  Zn  Zn0  1  0.09838014  0.97405454  0.11360185  1
  Zn  Zn1  1  0.13589383  0.10166551  0.37670182  1
  Zn  Zn2  1  0.48103451  0.58304124  0.98415457  1
  Zn  Zn3  1  0.10852067  0.16600202  0.70523467  1
  Zn  Zn4  1  0.89211285  0.82198037  0.29978330  1
  Zn  Zn5  1  0.86611839  0.90127442  0.62082478  1
  O  O0  1  0.28578131  0.20832225  0.07819043  1
  O  O1  1  0.27843927  0.21622010  0.24373275  1
  O  O2  1  0.28199318  0.63572467  0.09972207  1
  O  O3  1  0.77691096  0.20884903  0.07980142  1
  O  O4  1  0.30471710  0.68434088  0.24752545  1
  O  O5  1  0.27628046  0.24636280  0.41804048  1
  O  O6  1  0.77048873  0.21804552  0.24968440  1
  O  O7  1  0.78312441  0.65494155  0.09339715  1
  O  O8  1  0.26290721  0.70441686  0.42076072  1
  O  O9  1  0.25495345  0.26991336  0.57072293  1
  O  O10  1  0.77036732  0.68204958  0.24965627  1
  O  O11  1  0.72542628  0.25305654  0.42090356  1
  O  O12  1  0.27499322  0.75050248  0.57608290  1
  O  O13  1  0.25728755  0.30088458  0.74641560  1
  O  O14  1  0.74083245  0.29698041  0.57571237  1
  O  O15  1  0.74478750  0.72997637  0.42931371  1
  O  O16  1  0.23203656  0.34096147  0.89385255  1
  O  O17  1  0.24057564  0.77059171  0.74435440  1
  O  O18  1  0.72691108  0.75610574  0.57941452  1
  O  O19  1  0.70102104  0.31188567  0.74948109  1
  O  O20  1  0.22554382  0.79382088  0.91199761  1
  O  O21  1  0.71610568  0.80233530  0.75466856  1
  O  O22  1  0.72368219  0.37166472  0.89594890  1
  O  O23  1  0.71487328  0.81786398  0.91067533  1
loop_
_geom_bond_atom_site_label_1
_geom_bond_atom_site_label_2
_geom_bond_distance
_geom_bond_site_symmetry_2
Mg0 O16 1.944930 1_554
Mg0 O7 2.025100 1_455
Mg0 O0 2.136640 1_555
Mg0 O3 2.171285 1_455
Mg0 O20 2.425449 1_554
Mg0 O23 2.604155 1_454
O0 Zn0 1.952147 1_545
O0 V0 2.123963 1_555
O0 V3 2.232429 1_545
O0 Zn2 2.583592 1_554
O0 V11 2.686082 1_544
O1 V0 2.009593 1_555
O1 Zn1 2.009776 1_555
O1 V1 2.015921 1_555
O1 V3 2.109037 1_545
O2 Zn0 1.864891 1_555
O2 Zn2 1.915216 1_554
O2 V0 2.021503 1_555
O2 V1 2.032810 1_555
O3 Zn0 1.954164 1_645
O3 V1 2.092296 1_555
O3 V3 2.238313 1_545
O3 V11 2.764859 1_544
O4 Zn4 2.029296 1_455
O4 V1 2.046781 1_555
O4 V4 2.068009 1_555
O4 V3 2.153330 1_555
O5 Zn1 2.018073 1_555
O5 V7 2.046833 1_555
O5 V4 2.047310 1_555
O5 V2 2.101377 1_555
O6 Zn4 2.024625 1_545
O6 V0 2.061187 1_655
O6 V1 2.066782 1_555
O6 V4 2.119581 1_555
O7 V0 2.121936 1_655
O7 V1 2.128161 1_555
O7 V3 2.175923 1_555
O7 V11 2.222739 1_554
O8 Zn1 2.023617 1_565
O8 V2 2.042995 1_555
O8 V5 2.063100 1_555
O8 V4 2.093940 1_555
O9 Zn3 2.033369 1_555
O9 V7 2.037410 1_555
O9 V2 2.039044 1_555
O9 V5 2.088900 1_555
O10 Zn4 2.030795 1_555
O10 V4 2.050141 1_555
O10 V0 2.053111 1_655
O10 V3 2.145055 1_555
O11 Zn1 2.017893 1_655
O11 V5 2.038340 1_555
O11 V4 2.059386 1_555
O11 V7 2.103170 1_555
O12 Zn5 2.010008 1_455
O12 V5 2.027036 1_555
O12 V9 2.078015 1_555
O12 V7 2.093499 1_565
O13 Zn3 2.009333 1_555
O13 V9 2.031611 1_555
O13 V8 2.074723 1_555
O13 V6 2.114177 1_455
O14 Zn5 2.016790 1_545
O14 V2 2.044584 1_655
O14 V5 2.059597 1_555
O14 V9 2.070268 1_555
O15 Zn4 1.959315 1_555
O15 V2 2.042646 1_655
O15 V7 2.045939 1_565
O15 V5 2.087808 1_555
O16 V8 2.016752 1_555
O16 V6 2.033894 1_455
O16 V10 2.091767 1_555
O17 Zn3 2.011906 1_565
O17 V6 2.033298 1_455
O17 V10 2.049866 1_555
O17 V9 2.058953 1_555
O18 Zn5 2.015555 1_555
O18 V9 2.044721 1_555
O18 V7 2.048132 1_565
O18 V2 2.099616 1_655
O19 Zn3 2.002749 1_655
O19 V10 2.030659 1_555
O19 V9 2.070828 1_555
O19 V8 2.108606 1_555
O20 Zn2 2.062514 1_555
O20 V10 2.067493 1_555
O20 V11 2.179885 1_455
O20 V8 2.266145 1_565
O21 Zn5 2.023820 1_555
O21 V8 2.041197 1_565
O21 V6 2.045833 1_555
O21 V10 2.067484 1_555
O22 V6 1.995033 1_555
O22 Zn2 2.011444 1_555
O22 V11 2.029577 1_545
O22 V10 2.054290 1_555
O23 Zn2 2.059691 1_555
O23 V8 2.084443 1_565
O23 V6 2.153271 1_555
O23 V11 2.174592 1_555
