# generated using pymatgen
data_Ba2MgMn2CuF14
_symmetry_space_group_name_H-M   'P 1'
_cell_length_a   5.33150940
_cell_length_b   7.47547545
_cell_length_c   14.83557620
_cell_angle_alpha   93.59853222
_cell_angle_beta   89.92608664
_cell_angle_gamma   110.86271281
_symmetry_Int_Tables_number   1
_chemical_formula_structural   Ba2MgMn2CuF14
_chemical_formula_sum   'Ba4 Mg2 Mn4 Cu2 F28'
_cell_volume   551.28384382
_cell_formula_units_Z   2
loop_
 _symmetry_equiv_pos_site_id
 _symmetry_equiv_pos_as_xyz
  1  'x, y, z'
loop_
 _atom_site_type_symbol
 _atom_site_label
 _atom_site_symmetry_multiplicity
 _atom_site_fract_x
 _atom_site_fract_y
 _atom_site_fract_z
 _atom_site_occupancy
  Ba  Ba0  1  0.11084500  0.37025700  0.62677600  1
  Ba  Ba1  1  0.26031400  0.36884100  0.12661700  1
  Ba  Ba2  1  0.89118500  0.63178300  0.37355700  1
  Ba  Ba3  1  0.74141300  0.63180600  0.87317100  1
  Mg  Mg0  1  0.43639700  0.00491600  0.74982700  1
  Mg  Mg1  1  0.56561700  0.00052500  0.24993400  1
  Mn  Mn0  1  0.09916600  0.23825200  0.87364000  1
  Mn  Mn1  1  0.90302900  0.76161600  0.12649500  1
  Mn  Mn2  1  0.14178000  0.23948000  0.37350900  1
  Mn  Mn3  1  0.85992500  0.76280900  0.62648700  1
  Cu  Cu0  1  0.50070300  0.99998400  0.99991100  1
  Cu  Cu1  1  0.50142100  0.00152700  0.49975600  1
  F  F0  1  0.90065700  0.99418500  0.33800200  1
  F  F1  1  0.88016200  0.28452500  0.45413000  1
  F  F2  1  0.12123700  0.71836700  0.54584500  1
  F  F3  1  0.64829300  0.50721800  0.59727000  1
  F  F4  1  0.60364000  0.09659500  0.62464900  1
  F  F5  1  0.51065200  0.90786900  0.87450200  1
  F  F6  1  0.40351900  0.28361900  0.95407800  1
  F  F7  1  0.90540400  0.00670900  0.16261200  1
  F  F8  1  0.38367700  0.32101900  0.77066400  1
  F  F9  1  0.35231000  0.49524800  0.40243300  1
  F  F10  1  0.81354300  0.21794600  0.78894000  1
  F  F11  1  0.14500500  0.49490300  0.90072000  1
  F  F12  1  0.41115800  0.21889300  0.28984300  1
  F  F13  1  0.19135400  0.78252700  0.21050900  1
  F  F14  1  0.49094300  0.09332200  0.12518100  1
  F  F15  1  0.62098200  0.67420900  0.22921400  1
  F  F16  1  0.12901400  0.83922400  0.01020000  1
  F  F17  1  0.10208100  0.00800800  0.66216000  1
  F  F18  1  0.87229600  0.16063900  0.98994900  1
  F  F19  1  0.71316700  0.84261900  0.51066900  1
  F  F20  1  0.59782300  0.71656500  0.04608200  1
  F  F21  1  0.59136400  0.78427100  0.70994000  1
  F  F22  1  0.94833100  0.32613200  0.27124500  1
  F  F23  1  0.28890100  0.16056400  0.48881600  1
  F  F24  1  0.39889500  0.90652300  0.37450600  1
  F  F25  1  0.09454100  0.99227300  0.83809200  1
  F  F26  1  0.05243200  0.67412600  0.72854100  1
  F  F27  1  0.85825800  0.50563800  0.09818400  1
loop_
_geom_bond_atom_site_label_1
_geom_bond_atom_site_label_2
_geom_bond_distance
_geom_bond_site_symmetry_2
Ba0 F8 2.701135 1_555
Ba0 F3 2.722845 1_555
Ba0 F4 2.747814 1_455
Ba0 F26 2.758347 1_555
Ba0 F17 2.774740 1_555
Ba0 F1 2.779260 1_455
Ba0 F23 2.863496 1_555
Ba0 F2 2.916487 1_555
Ba0 F10 2.940283 1_455
Ba0 F3 3.029682 1_455
Ba1 F22 2.677861 1_455
Ba1 F27 2.726969 1_455
Ba1 F14 2.748220 1_555
Ba1 F15 2.769519 1_555
Ba1 F6 2.770855 1_554
Ba1 F7 2.779284 1_455
Ba1 F18 2.852077 1_454
Ba1 F20 2.911204 1_555
Ba1 F12 2.958891 1_555
Ba1 F27 3.019163 1_555
Ba2 F15 2.679583 1_555
Ba2 F9 2.728112 1_555
Ba2 F24 2.753576 1_655
Ba2 F22 2.770688 1_555
Ba2 F2 2.773331 1_655
Ba2 F0 2.775252 1_555
Ba2 F19 2.860179 1_555
Ba2 F1 2.907195 1_555
Ba2 F13 2.954626 1_655
Ba2 F9 3.018995 1_655
Ba3 F26 2.675070 1_655
Ba3 F11 2.732716 1_655
Ba3 F5 2.752479 1_555
Ba3 F25 2.763449 1_655
Ba3 F20 2.775672 1_556
Ba3 F8 2.784934 1_555
Ba3 F16 2.853111 1_656
Ba3 F6 2.916809 1_555
Ba3 F21 2.967183 1_555
Ba3 F11 3.009414 1_555
Cu0 F18 1.927687 1_565
Cu0 F16 1.928866 1_556
Cu0 F5 1.950241 1_555
Cu0 F14 1.950958 1_566
Cu0 F20 2.488098 1_556
Cu0 F6 2.488151 1_565
Cu1 F19 1.921360 1_545
Cu1 F23 1.925547 1_555
Cu1 F4 1.948488 1_555
Cu1 F24 1.953555 1_545
Cu1 F1 2.478849 1_555
Cu1 F2 2.485726 1_545
F0 Mn2 1.869236 1_665
F0 Mg1 2.230279 1_565
F1 Mn2 1.941427 1_655
F2 Mn3 1.938588 1_455
F3 Mn3 1.863707 1_555
F4 Mg0 2.105650 1_555
F5 Mg0 2.116377 1_565
F6 Mn0 1.932445 1_555
F7 Mn1 1.872011 1_545
F7 Mg1 2.214500 1_555
F8 Mn0 2.112301 1_555
F8 Mg0 2.477819 1_555
F9 Mn2 1.862627 1_555
F10 Mn0 1.933208 1_655
F10 Mg0 2.126540 1_555
F11 Mn0 1.863233 1_555
F12 Mn2 1.937999 1_555
F12 Mg1 2.127991 1_555
F13 Mn1 1.936564 1_455
F13 Mg1 2.132288 1_565
F14 Mg1 2.103545 1_555
F15 Mn1 2.104678 1_555
F15 Mg1 2.559421 1_565
F16 Mn1 2.094592 1_455
F17 Mn3 1.871140 1_445
F17 Mg0 2.215435 1_555
F18 Mn0 2.097018 1_655
F19 Mn3 2.094068 1_555
F20 Mn1 1.936146 1_555
F21 Mn3 1.934640 1_555
F21 Mg0 2.144820 1_565
F22 Mn2 2.094831 1_655
F22 Mg1 2.560394 1_555
F23 Mn2 2.085499 1_555
F24 Mg1 2.100776 1_565
F25 Mn0 1.872421 1_565
F25 Mg0 2.220858 1_565
F26 Mn3 2.097577 1_455
F26 Mg0 2.589071 1_565
F27 Mn1 1.862558 1_555
