# generated using pymatgen
data_K2Zr3OF12
_symmetry_space_group_name_H-M   'P 1'
_cell_length_a   10.77701538
_cell_length_b   10.77701538
_cell_length_c   10.77701512
_cell_angle_alpha   42.53240863
_cell_angle_beta   42.53240863
_cell_angle_gamma   42.53241019
_symmetry_Int_Tables_number   1
_chemical_formula_structural   K2Zr3OF12
_chemical_formula_sum   'K4 Zr6 O2 F24'
_cell_volume   517.97154869
_cell_formula_units_Z   2
loop_
 _symmetry_equiv_pos_site_id
 _symmetry_equiv_pos_as_xyz
  1  'x, y, z'
loop_
 _atom_site_type_symbol
 _atom_site_label
 _atom_site_symmetry_multiplicity
 _atom_site_fract_x
 _atom_site_fract_y
 _atom_site_fract_z
 _atom_site_occupancy
  K  K0  1  0.00000000  0.00000000  0.00000000  1
  K  K1  1  0.50000000  0.50000000  0.50000000  1
  K  K2  1  0.13833000  0.13833000  0.13833000  1
  K  K3  1  0.86167000  0.86167000  0.86167000  1
  Zr  Zr0  1  0.57761400  0.57761400  0.03162000  1
  Zr  Zr1  1  0.03162000  0.57761400  0.57761400  1
  Zr  Zr2  1  0.57761400  0.03162000  0.57761400  1
  Zr  Zr3  1  0.42238600  0.96838000  0.42238600  1
  Zr  Zr4  1  0.96838000  0.42238600  0.42238600  1
  Zr  Zr5  1  0.42238600  0.42238600  0.96838000  1
  O  O0  1  0.71484400  0.71484400  0.71484400  1
  O  O1  1  0.28515600  0.28515600  0.28515600  1
  F  F0  1  0.70409100  0.70409100  0.36836300  1
  F  F1  1  0.36836300  0.70409100  0.70409100  1
  F  F2  1  0.70409100  0.36836300  0.70409100  1
  F  F3  1  0.29590900  0.63163700  0.29590900  1
  F  F4  1  0.29590900  0.29590900  0.63163700  1
  F  F5  1  0.63163700  0.29590900  0.29590900  1
  F  F6  1  0.91453200  0.91453200  0.40168400  1
  F  F7  1  0.40168400  0.91453200  0.91453200  1
  F  F8  1  0.64996200  0.35003800  0.00000000  1
  F  F9  1  0.35003800  0.00000000  0.64996200  1
  F  F10  1  0.00000000  0.64996200  0.35003800  1
  F  F11  1  0.35003800  0.64996200  0.00000000  1
  F  F12  1  0.64996200  0.00000000  0.35003800  1
  F  F13  1  0.00000000  0.35003800  0.64996200  1
  F  F14  1  0.91170200  0.34779500  0.34779500  1
  F  F15  1  0.34779500  0.34779500  0.91170200  1
  F  F16  1  0.34779500  0.91170200  0.34779500  1
  F  F17  1  0.65220500  0.08829800  0.65220500  1
  F  F18  1  0.08829800  0.65220500  0.65220500  1
  F  F19  1  0.65220500  0.65220500  0.08829800  1
  F  F20  1  0.59831600  0.08546800  0.08546800  1
  F  F21  1  0.08546800  0.08546800  0.59831600  1
  F  F22  1  0.08546800  0.59831600  0.08546800  1
  F  F23  1  0.91453200  0.40168400  0.91453200  1
loop_
_geom_bond_atom_site_label_1
_geom_bond_atom_site_label_2
_geom_bond_distance
_geom_bond_site_symmetry_2
O0 Zr0 2.090600 1_556
O0 Zr2 2.090600 1_565
O0 Zr1 2.090600 1_655
O1 Zr5 2.090600 1_554
O1 Zr3 2.090600 1_545
O1 Zr4 2.090600 1_455
F0 Zr3 2.182507 1_555
F0 Zr4 2.182507 1_555
F0 K1 3.101704 1_555
F1 Zr3 2.182506 1_555
F1 Zr5 2.182506 1_555
F1 K1 3.101704 1_555
F2 Zr4 2.182506 1_555
F2 Zr5 2.182506 1_555
F2 K1 3.101704 1_555
F3 Zr1 2.182506 1_555
F3 Zr0 2.182506 1_555
F3 K1 3.101704 1_555
F4 Zr2 2.182507 1_555
F4 Zr1 2.182507 1_555
F4 K1 3.101704 1_555
F5 Zr2 2.182506 1_555
F5 Zr0 2.182506 1_555
F5 K1 3.101704 1_555
F6 Zr2 2.235723 1_565
F6 Zr1 2.235723 1_655
F6 K2 2.843524 1_665
F6 K0 3.151822 1_665
F7 Zr2 2.235723 1_565
F7 Zr0 2.235723 1_556
F7 K2 2.843524 1_566
F7 K0 3.151822 1_566
F8 Zr5 2.182000 1_554
F8 Zr0 2.182000 1_555
F8 K0 2.736486 1_655
F9 Zr3 2.181999 1_545
F9 Zr2 2.182000 1_555
F9 K0 2.736486 1_556
F10 Zr1 2.181999 1_555
F10 Zr4 2.182000 1_455
F10 K0 2.736486 1_565
F11 Zr5 2.182000 1_554
F11 Zr0 2.182000 1_555
F11 K0 2.736486 1_565
F12 Zr2 2.181999 1_555
F12 Zr3 2.182000 1_545
F12 K0 2.736486 1_655
F13 Zr4 2.181999 1_455
F13 Zr1 2.182000 1_555
F13 K0 2.736486 1_556
F14 Zr4 2.016233 1_555
F14 K2 2.723225 1_655
F14 K1 2.753292 1_555
F15 Zr5 2.016233 1_555
F15 K2 2.723225 1_556
F15 K1 2.753292 1_555
F16 Zr3 2.016233 1_555
F16 K2 2.723225 1_565
F16 K1 2.753292 1_555
F17 Zr2 2.016233 1_555
F17 K3 2.723225 1_545
F17 K1 2.753292 1_555
F18 Zr1 2.016233 1_555
F18 K3 2.723225 1_455
F18 K1 2.753292 1_555
F19 Zr0 2.016233 1_555
F19 K3 2.723225 1_554
F19 K1 2.753292 1_555
F20 Zr3 2.235723 1_545
F20 Zr5 2.235723 1_554
F20 K3 2.843524 1_544
F20 K0 3.151822 1_655
F21 Zr4 2.235723 1_455
F21 Zr3 2.235723 1_545
F21 K3 2.843524 1_445
F21 K0 3.151822 1_556
F22 Zr4 2.235723 1_455
F22 Zr5 2.235723 1_554
F22 K3 2.843524 1_454
F22 K0 3.151822 1_565
F23 Zr1 2.235723 1_655
F23 Zr0 2.235723 1_556
F23 K2 2.843524 1_656
F23 K0 3.151822 1_656
