# generated using pymatgen
data_EuInPd
_symmetry_space_group_name_H-M   'P 1'
_cell_length_a   4.13371634
_cell_length_b   7.72120564
_cell_length_c   7.72083826
_cell_angle_alpha   120.00115403
_cell_angle_beta   90.00000000
_cell_angle_gamma   90.00000000
_symmetry_Int_Tables_number   1
_chemical_formula_structural   EuInPd
_chemical_formula_sum   'Eu3 In3 Pd3'
_cell_volume   213.41052115
_cell_formula_units_Z   3
loop_
 _symmetry_equiv_pos_site_id
 _symmetry_equiv_pos_as_xyz
  1  'x, y, z'
loop_
 _atom_site_type_symbol
 _atom_site_label
 _atom_site_symmetry_multiplicity
 _atom_site_fract_x
 _atom_site_fract_y
 _atom_site_fract_z
 _atom_site_occupancy
  Eu  Eu0  1  0.50000000  0.58937060  0.00000069  1
  Eu  Eu1  1  0.50000000  0.41063332  0.41065567  1
  Eu  Eu2  1  0.50000000  0.99997690  0.58936008  1
  In  In0  1  -0.00000000  0.25000914  0.00001928  1
  In  In1  1  -0.00000000  0.74992843  0.74994527  1
  In  In2  1  -0.00000000  0.00000390  0.25002063  1
  Pd  Pd0  1  -0.00000000  0.33332689  0.66674516  1
  Pd  Pd1  1  -0.00000000  0.66669709  0.33327414  1
  Pd  Pd2  1  0.50000000  0.99995374  0.99997910  1
loop_
_geom_bond_atom_site_label_1
_geom_bond_atom_site_label_2
_geom_bond_distance
_geom_bond_site_symmetry_2
Eu0 Pd1 3.116587 1_555
Eu0 Pd1 3.116587 1_655
Eu0 Pd0 3.116690 1_654
Eu0 Pd0 3.116690 1_554
Eu0 Pd2 3.170280 1_554
Eu0 In0 3.337386 1_655
Eu0 In0 3.337386 1_555
Eu0 In1 3.453927 1_654
Eu0 In1 3.453927 1_554
Eu0 In2 3.454015 1_565
Eu0 In2 3.454015 1_665
Eu1 Pd0 3.117348 1_655
Eu1 Pd0 3.117348 1_555
Eu1 Pd1 3.117552 1_555
Eu1 Pd1 3.117552 1_655
Eu1 Pd2 3.170799 1_544
Eu1 In1 3.336826 1_555
Eu1 In1 3.336826 1_655
Eu1 In0 3.453933 1_555
Eu1 In0 3.453933 1_655
Eu1 In2 3.454002 1_555
Eu1 In2 3.454002 1_655
Eu2 Pd1 3.116898 1_655
Eu2 Pd1 3.116898 1_555
Eu2 Pd0 3.117014 1_565
Eu2 Pd0 3.117014 1_665
Eu2 Pd2 3.170412 1_555
Eu2 In2 3.337180 1_665
Eu2 In2 3.337180 1_565
Eu2 In1 3.454053 1_555
Eu2 In1 3.454053 1_655
Eu2 In0 3.454065 1_666
Eu2 In0 3.454065 1_566
In0 Pd2 2.828254 1_544
In0 Pd2 2.828254 1_444
In0 Pd0 2.947946 1_554
In0 Pd1 2.948404 1_555
In0 In2 3.343364 1_555
In0 In1 3.343881 1_544
In1 Pd2 2.828169 1_455
In1 Pd2 2.828169 1_555
In1 Pd0 2.948425 1_555
In1 Pd1 2.948713 1_555
In1 In2 3.343686 1_566
In2 Pd2 2.828092 1_444
In2 Pd2 2.828092 1_544
In2 Pd1 2.947969 1_545
In2 Pd0 2.948701 1_555
