# generated using pymatgen
data_ZrCrNi
_symmetry_space_group_name_H-M   'P 1'
_cell_length_a   5.08845991
_cell_length_b   5.08845991
_cell_length_c   7.97156300
_cell_angle_alpha   90.00000000
_cell_angle_beta   90.00000000
_cell_angle_gamma   121.14847846
_symmetry_Int_Tables_number   1
_chemical_formula_structural   ZrCrNi
_chemical_formula_sum   'Zr4 Cr4 Ni4'
_cell_volume   176.64590264
_cell_formula_units_Z   4
loop_
 _symmetry_equiv_pos_site_id
 _symmetry_equiv_pos_as_xyz
  1  'x, y, z'
loop_
 _atom_site_type_symbol
 _atom_site_label
 _atom_site_symmetry_multiplicity
 _atom_site_fract_x
 _atom_site_fract_y
 _atom_site_fract_z
 _atom_site_occupancy
  Zr  Zr0  1  0.33428400  0.66571600  0.19151700  1
  Zr  Zr1  1  0.66524000  0.33476000  0.31118200  1
  Zr  Zr2  1  0.66524000  0.33476000  0.68881800  1
  Zr  Zr3  1  0.33428400  0.66571600  0.80848300  1
  Cr  Cr0  1  0.00697900  0.99302100  0.24133500  1
  Cr  Cr1  1  0.00697900  0.99302100  0.75866500  1
  Cr  Cr2  1  0.82808800  0.67099200  0.00000000  1
  Cr  Cr3  1  0.32900800  0.17191200  0.00000000  1
  Ni  Ni0  1  0.82404100  0.17595900  0.00000000  1
  Ni  Ni1  1  0.16834900  0.32966200  0.50000000  1
  Ni  Ni2  1  0.67033800  0.83165100  0.50000000  1
  Ni  Ni3  1  0.16712000  0.83288000  0.50000000  1
loop_
_geom_bond_atom_site_label_1
_geom_bond_atom_site_label_2
_geom_bond_distance
_geom_bond_site_symmetry_2
Zr0 Zr3 3.053380 1_554
Zr0 Zr1 3.066737 1_455
Zr0 Zr1 3.066737 1_565
Zr0 Zr1 3.084799 1_555
Zr1 Zr2 3.010349 1_555
Zr2 Zr3 3.066737 1_655
Zr2 Zr3 3.066737 1_545
Zr2 Zr3 3.084799 1_555
Cr0 Cr3 2.381533 1_565
Cr0 Cr2 2.381533 1_455
Cr0 Ni3 2.503330 1_555
Cr0 Ni0 2.516059 1_465
Cr0 Ni2 2.530837 1_455
Cr0 Ni1 2.530837 1_565
Cr0 Zr1 2.920211 1_455
Cr0 Zr1 2.920211 1_565
Cr0 Zr0 2.928294 1_555
Cr0 Zr0 2.958152 1_565
Cr0 Zr0 2.958152 1_455
Cr0 Zr1 3.079930 1_465
Cr1 Cr3 2.381533 1_566
Cr1 Cr2 2.381533 1_456
Cr1 Ni3 2.503330 1_555
Cr1 Ni0 2.516059 1_466
Cr1 Ni2 2.530837 1_455
Cr1 Ni1 2.530837 1_565
Cr1 Zr2 2.920211 1_455
Cr1 Zr2 2.920211 1_565
Cr1 Zr3 2.928294 1_555
Cr1 Zr3 2.958152 1_565
Cr1 Zr3 2.958152 1_455
Cr1 Zr2 3.079930 1_465
Cr2 Cr3 2.495337 1_555
Cr2 Cr3 2.504537 1_665
Cr2 Ni0 2.508366 1_555
Cr2 Ni0 2.580216 1_565
Cr2 Zr1 2.881074 1_555
Cr2 Zr2 2.881074 1_554
Cr2 Zr3 2.928376 1_554
Cr2 Zr0 2.928376 1_555
Cr2 Zr0 3.006255 1_655
Cr2 Zr3 3.006255 1_654
Cr3 Ni0 2.508366 1_555
Cr3 Ni0 2.580216 1_455
Cr3 Zr1 2.881074 1_555
Cr3 Zr2 2.881074 1_554
Cr3 Zr3 2.928376 1_554
Cr3 Zr0 2.928376 1_555
Cr3 Zr0 3.006255 1_545
Cr3 Zr3 3.006255 1_544
Ni0 Zr1 2.852156 1_555
Ni0 Zr2 2.852156 1_554
Ni0 Zr3 2.930650 1_654
Ni0 Zr0 2.930650 1_655
Ni0 Zr3 2.930650 1_544
Ni0 Zr0 2.930650 1_545
Ni1 Ni2 2.489992 1_445
Ni1 Ni2 2.509882 1_555
Ni1 Ni3 2.524626 1_545
Ni1 Ni3 2.563845 1_555
Ni1 Zr3 2.861901 1_555
Ni1 Zr0 2.861901 1_555
Ni1 Zr2 2.931079 1_555
Ni1 Zr1 2.931079 1_555
Ni1 Zr2 2.981406 1_455
Ni1 Zr1 2.981406 1_455
Ni2 Ni3 2.524626 1_655
Ni2 Ni3 2.563845 1_555
Ni2 Zr3 2.861901 1_555
Ni2 Zr0 2.861901 1_555
Ni2 Zr2 2.931079 1_555
Ni2 Zr1 2.931079 1_555
Ni2 Zr2 2.981406 1_565
Ni2 Zr1 2.981406 1_565
Ni3 Zr3 2.871011 1_555
Ni3 Zr0 2.871011 1_555
Ni3 Zr2 2.918135 1_565
Ni3 Zr2 2.918135 1_455
Ni3 Zr1 2.918135 1_565
Ni3 Zr1 2.918135 1_455
