# generated using pymatgen
data_BaEu(WO3)4
_symmetry_space_group_name_H-M   'P 1'
_cell_length_a   5.73493553
_cell_length_b   5.73493553
_cell_length_c   8.19198476
_cell_angle_alpha   90.00000000
_cell_angle_beta   90.00000000
_cell_angle_gamma   90.00000000
_symmetry_Int_Tables_number   1
_chemical_formula_structural   BaEu(WO3)4
_chemical_formula_sum   'Ba1 Eu1 W4 O12'
_cell_volume   269.43016425
_cell_formula_units_Z   1
loop_
 _symmetry_equiv_pos_site_id
 _symmetry_equiv_pos_as_xyz
  1  'x, y, z'
loop_
 _atom_site_type_symbol
 _atom_site_label
 _atom_site_symmetry_multiplicity
 _atom_site_fract_x
 _atom_site_fract_y
 _atom_site_fract_z
 _atom_site_occupancy
  Ba  Ba0  1  0.50000000  0.50000000  -0.00000000  1
  Eu  Eu0  1  -0.00000000  -0.00000000  0.50000000  1
  W  W0  1  -0.00000000  0.50000000  0.74855340  1
  W  W1  1  -0.00000000  0.50000000  0.25144660  1
  W  W2  1  0.50000000  -0.00000000  0.25144660  1
  W  W3  1  0.50000000  0.00000000  0.74855340  1
  O  O0  1  0.24285572  0.24285572  0.74419555  1
  O  O1  1  0.24285572  0.24285572  0.25580445  1
  O  O2  1  0.75714428  0.75714428  0.25580445  1
  O  O3  1  0.75714428  0.75714428  0.74419555  1
  O  O4  1  0.75714428  0.24285572  0.74419555  1
  O  O5  1  0.75714428  0.24285572  0.25580445  1
  O  O6  1  0.24285572  0.75714428  0.74419555  1
  O  O7  1  0.24285572  0.75714428  0.25580445  1
  O  O8  1  -0.00000000  0.50000000  0.50000000  1
  O  O9  1  -0.00000000  0.50000000  -0.00000000  1
  O  O10  1  0.50000000  0.00000000  0.50000000  1
  O  O11  1  0.50000000  -0.00000000  -0.00000000  1
loop_
_geom_bond_atom_site_label_1
_geom_bond_atom_site_label_2
_geom_bond_distance
_geom_bond_site_symmetry_2
Ba0 O11 2.867468 1_555
Ba0 O11 2.867468 1_565
Ba0 O9 2.867468 1_555
Ba0 O9 2.867468 1_655
Ba0 O7 2.956489 1_555
Ba0 O5 2.956489 1_555
Ba0 O2 2.956489 1_555
Ba0 O6 2.956489 1_554
Ba0 O3 2.956489 1_554
Ba0 O0 2.956489 1_554
Ba0 O4 2.956489 1_554
Ba0 O1 2.956489 1_555
Eu0 O5 2.807375 1_455
Eu0 O7 2.807375 1_545
Eu0 O2 2.807375 1_445
Eu0 O1 2.807375 1_555
Eu0 O4 2.807375 1_455
Eu0 O3 2.807375 1_445
Eu0 O6 2.807375 1_545
Eu0 O0 2.807375 1_555
Eu0 O10 2.867468 1_555
Eu0 O10 2.867468 1_455
Eu0 O8 2.867468 1_555
Eu0 O8 2.867468 1_545
O0 W3 2.028748 1_555
O0 W0 2.028748 1_555
O1 W1 2.028748 1_555
O1 W2 2.028748 1_555
O2 W2 2.028748 1_565
O2 W1 2.028748 1_655
O3 W0 2.028748 1_655
O3 W3 2.028748 1_565
O4 W0 2.028748 1_655
O4 W3 2.028748 1_555
O5 W1 2.028748 1_655
O5 W2 2.028748 1_555
O6 W0 2.028748 1_555
O6 W3 2.028748 1_565
O7 W2 2.028748 1_565
O7 W1 2.028748 1_555
O8 W1 2.036146 1_555
O8 W0 2.036146 1_555
O9 W0 2.059847 1_554
O9 W1 2.059847 1_555
O10 W2 2.036146 1_555
O10 W3 2.036146 1_555
O11 W3 2.059847 1_554
O11 W2 2.059847 1_555
