# generated using pymatgen
data_Mg3Si4
_symmetry_space_group_name_H-M   'P 1'
_cell_length_a   5.28012302
_cell_length_b   7.15529423
_cell_length_c   8.15985834
_cell_angle_alpha   116.64999083
_cell_angle_beta   109.27958356
_cell_angle_gamma   73.98236360
_symmetry_Int_Tables_number   1
_chemical_formula_structural   Mg3Si4
_chemical_formula_sum   'Mg6 Si8'
_cell_volume   257.07934642
_cell_formula_units_Z   2
loop_
 _symmetry_equiv_pos_site_id
 _symmetry_equiv_pos_as_xyz
  1  'x, y, z'
loop_
 _atom_site_type_symbol
 _atom_site_label
 _atom_site_symmetry_multiplicity
 _atom_site_fract_x
 _atom_site_fract_y
 _atom_site_fract_z
 _atom_site_occupancy
  Mg  Mg0  1  0.27830600  0.20025100  0.74465200  1
  Mg  Mg1  1  0.91655000  0.12028300  0.96550500  1
  Mg  Mg2  1  0.69209800  0.65691100  0.59937600  1
  Mg  Mg3  1  0.44810100  0.35921600  0.19631300  1
  Mg  Mg4  1  0.57810500  0.96426400  0.34788900  1
  Mg  Mg5  1  0.01567200  0.68158500  0.00854100  1
  Si  Si0  1  0.18383100  0.83069400  0.41729600  1
  Si  Si1  1  0.91123500  0.53663400  0.25504500  1
  Si  Si2  1  0.72541800  0.33136900  0.72141400  1
  Si  Si3  1  0.29637500  0.39888200  0.50406700  1
  Si  Si4  1  0.17074100  0.77590100  0.69030200  1
  Si  Si5  1  0.99198000  0.13671900  0.33899100  1
  Si  Si6  1  0.53669200  0.57465700  0.99117400  1
  Si  Si7  1  0.50816400  0.93249500  0.96600300  1
loop_
_geom_bond_atom_site_label_1
_geom_bond_atom_site_label_2
_geom_bond_distance
_geom_bond_site_symmetry_2
Mg0 Si2 2.778690 1_455
Mg0 Si0 2.808548 1_545
Mg0 Si2 2.857810 1_555
Mg0 Si6 2.907778 1_555
Mg0 Si3 2.929931 1_555
Mg0 Si7 2.963001 1_545
Mg0 Si5 3.028865 1_455
Mg0 Si4 3.052220 1_545
Mg1 Si2 2.792296 1_555
Mg1 Si7 2.839878 1_545
Mg1 Si4 2.849094 1_645
Mg1 Si1 2.853314 1_556
Mg1 Si5 2.891897 1_556
Mg1 Si7 3.040346 1_645
Mg2 Si4 2.654271 1_655
Mg2 Si0 2.852826 1_555
Mg2 Si3 2.854333 1_555
Mg2 Si2 2.861375 1_555
Mg2 Si4 2.888260 1_555
Mg2 Si7 3.057963 1_555
Mg2 Si1 3.066256 1_555
Mg3 Si3 2.755411 1_555
Mg3 Si7 2.768887 1_544
Mg3 Si1 2.866144 1_555
Mg3 Si1 2.870934 1_455
Mg3 Si6 2.937167 1_554
Mg3 Si5 3.011438 1_555
Mg3 Si0 3.191569 1_555
Mg4 Si0 2.816082 1_555
Mg4 Si5 2.824330 1_565
Mg4 Si7 2.923921 1_554
Mg4 Si3 2.941355 1_565
Mg4 Si1 2.976685 1_555
Mg4 Si6 2.988082 1_554
Mg4 Si5 2.988357 1_465
Mg4 Si0 3.010958 1_655
Mg4 Si2 3.028943 1_565
Mg5 Si6 2.678121 1_554
Mg5 Si6 2.781294 1_454
Mg5 Si7 2.795411 1_454
Mg5 Si1 2.888816 1_455
Mg5 Si0 2.902807 1_555
Mg5 Si2 2.932409 1_454
Mg5 Si5 3.164236 1_465
Si0 Si5 2.415116 1_465
Si0 Si4 2.453817 1_555
Si0 Si1 2.483076 1_455
Si1 Si6 2.457193 1_554
Si1 Si3 2.682862 1_655
Si2 Si6 2.433593 1_555
Si2 Si3 2.454030 1_555
Si3 Si5 2.425688 1_455
Si3 Si4 2.455072 1_555
Si4 Si7 2.384193 1_555
Si6 Si7 2.619008 1_555
