# generated using pymatgen
data_Ba8In6O17
_symmetry_space_group_name_H-M   'P 1'
_cell_length_a   15.18509517
_cell_length_b   15.18509517
_cell_length_c   6.20231560
_cell_angle_alpha   89.97192552
_cell_angle_beta   89.97192552
_cell_angle_gamma   156.26009043
_symmetry_Int_Tables_number   1
_chemical_formula_structural   Ba8In6O17
_chemical_formula_sum   'Ba8 In6 O17'
_cell_volume   575.76568774
_cell_formula_units_Z   1
loop_
 _symmetry_equiv_pos_site_id
 _symmetry_equiv_pos_as_xyz
  1  'x, y, z'
loop_
 _atom_site_type_symbol
 _atom_site_label
 _atom_site_symmetry_multiplicity
 _atom_site_fract_x
 _atom_site_fract_y
 _atom_site_fract_z
 _atom_site_occupancy
  Ba  Ba0  1  0.67336400  0.81027000  0.74251100  1
  Ba  Ba1  1  0.55095500  0.96217100  0.76674400  1
  Ba  Ba2  1  0.44904500  0.03782900  0.23325600  1
  Ba  Ba3  1  0.32663600  0.18973000  0.25748900  1
  Ba  Ba4  1  0.96217100  0.55095500  0.76674400  1
  Ba  Ba5  1  0.81027000  0.67336400  0.74251100  1
  Ba  Ba6  1  0.18973000  0.32663600  0.25748900  1
  Ba  Ba7  1  0.03782900  0.44904500  0.23325600  1
  In  In0  1  0.41211000  0.13022100  0.72407200  1
  In  In1  1  0.23612300  0.23612300  0.76480800  1
  In  In2  1  0.76387700  0.76387700  0.23519200  1
  In  In3  1  0.58789000  0.86977900  0.27592800  1
  In  In4  1  0.13022100  0.41211000  0.72407200  1
  In  In5  1  0.86977900  0.58789000  0.27592800  1
  O  O0  1  0.50000000  0.50000000  0.00000000  1
  O  O1  1  0.38672000  0.97124500  0.80205400  1
  O  O2  1  0.36040300  0.63959700  0.00000000  1
  O  O3  1  0.38273900  0.24600700  0.69646300  1
  O  O4  1  0.61726100  0.75399300  0.30353700  1
  O  O5  1  0.34021800  0.65978200  0.50000000  1
  O  O6  1  0.61328000  0.02875500  0.19794600  1
  O  O7  1  0.24600700  0.38273900  0.69646300  1
  O  O8  1  0.63959700  0.36040300  0.00000000  1
  O  O9  1  0.00000000  0.00000000  0.00000000  1
  O  O10  1  0.97124500  0.38672000  0.80205400  1
  O  O11  1  0.86757700  0.13242300  0.50000000  1
  O  O12  1  0.00000000  0.00000000  0.50000000  1
  O  O13  1  0.65978200  0.34021800  0.50000000  1
  O  O14  1  0.02875500  0.61328000  0.19794600  1
  O  O15  1  0.75399300  0.61726100  0.30353700  1
  O  O16  1  0.13242300  0.86757700  0.50000000  1
loop_
_geom_bond_atom_site_label_1
_geom_bond_atom_site_label_2
_geom_bond_distance
_geom_bond_site_symmetry_2
Ba0 O7 2.686098 1_555
Ba0 O4 2.746019 1_555
Ba0 O11 2.909777 1_565
Ba0 O0 2.993328 1_556
Ba0 O12 2.998531 1_665
Ba0 O2 3.048252 1_556
Ba0 O9 3.050100 1_666
Ba1 O1 2.629680 1_555
Ba1 O10 2.649151 1_565
Ba1 O5 2.678335 1_555
Ba1 O6 2.706278 1_566
Ba1 O2 2.915428 1_556
Ba1 O11 3.125520 1_565
Ba2 O6 2.629680 1_555
Ba2 O14 2.649151 1_545
Ba2 O13 2.678335 1_555
Ba2 O1 2.706278 1_544
Ba2 O8 2.915428 1_555
Ba2 O16 3.125520 1_545
Ba3 O15 2.686098 1_555
Ba3 O3 2.746019 1_555
Ba3 O16 2.909777 1_545
Ba3 O0 2.993328 1_555
Ba3 O12 2.998531 1_555
Ba3 O8 3.048252 1_555
Ba3 O9 3.050100 1_555
Ba4 O10 2.629680 1_555
Ba4 O1 2.649151 1_655
Ba4 O13 2.678335 1_555
Ba4 O14 2.706278 1_656
Ba4 O8 2.915428 1_556
Ba4 O16 3.125520 1_655
Ba5 O3 2.686098 1_555
Ba5 O15 2.746019 1_555
Ba5 O16 2.909777 1_655
Ba5 O0 2.993328 1_556
Ba5 O12 2.998531 1_665
Ba5 O8 3.048252 1_556
Ba5 O9 3.050100 1_666
Ba6 O4 2.686098 1_555
Ba6 O7 2.746019 1_555
Ba6 O11 2.909777 1_455
Ba6 O0 2.993328 1_555
Ba6 O12 2.998531 1_555
Ba6 O2 3.048252 1_555
Ba6 O9 3.050100 1_555
Ba7 O14 2.629680 1_555
Ba7 O6 2.649151 1_455
Ba7 O5 2.678335 1_555
Ba7 O10 2.706278 1_454
Ba7 O2 2.915428 1_555
Ba7 O11 3.125520 1_455
In0 O13 2.068551 1_555
In0 O1 2.122499 1_545
In0 O3 2.180594 1_555
In0 O16 2.208219 1_545
In0 O8 2.232845 1_556
In1 O9 2.072046 1_556
In1 O3 2.132188 1_555
In1 O7 2.132188 1_555
In1 O0 2.203772 1_556
In1 O12 2.210161 1_555
In2 O9 2.072046 1_665
In2 O15 2.132188 1_555
In2 O4 2.132188 1_555
In2 O0 2.203772 1_555
In2 O12 2.210161 1_665
In3 O5 2.068551 1_555
In3 O6 2.122499 1_565
In3 O4 2.180594 1_555
In3 O11 2.208219 1_565
In3 O2 2.232845 1_555
In4 O5 2.068551 1_555
In4 O10 2.122499 1_455
In4 O7 2.180594 1_555
In4 O11 2.208219 1_455
In4 O2 2.232845 1_556
In5 O13 2.068551 1_555
In5 O14 2.122499 1_655
In5 O15 2.180594 1_555
In5 O16 2.208219 1_655
In5 O8 2.232845 1_555
