# generated using pymatgen
data_Hg2ClO
_symmetry_space_group_name_H-M   'P 1'
_cell_length_a   7.27329377
_cell_length_b   7.27329377
_cell_length_c   9.74592433
_cell_angle_alpha   75.39985494
_cell_angle_beta   75.39985494
_cell_angle_gamma   61.21400755
_symmetry_Int_Tables_number   1
_chemical_formula_structural   Hg2ClO
_chemical_formula_sum   'Hg8 Cl4 O4'
_cell_volume   432.04213117
_cell_formula_units_Z   4
loop_
 _symmetry_equiv_pos_site_id
 _symmetry_equiv_pos_as_xyz
  1  'x, y, z'
loop_
 _atom_site_type_symbol
 _atom_site_label
 _atom_site_symmetry_multiplicity
 _atom_site_fract_x
 _atom_site_fract_y
 _atom_site_fract_z
 _atom_site_occupancy
  Hg  Hg0  1  0.50000000  0.00000000  0.50000000  1
  Hg  Hg1  1  0.00000000  0.50000000  0.00000000  1
  Hg  Hg2  1  0.69659300  0.30340700  0.25000000  1
  Hg  Hg3  1  0.30340700  0.69659300  0.75000000  1
  Hg  Hg4  1  0.28504500  0.80606600  0.11030700  1
  Hg  Hg5  1  0.19393400  0.71495500  0.38969300  1
  Hg  Hg6  1  0.71495500  0.19393400  0.88969300  1
  Hg  Hg7  1  0.80606600  0.28504500  0.61030700  1
  Cl  Cl0  1  0.34943300  0.00958400  0.87392600  1
  Cl  Cl1  1  0.99041600  0.65056700  0.62607400  1
  Cl  Cl2  1  0.65056700  0.99041600  0.12607400  1
  Cl  Cl3  1  0.00958400  0.34943300  0.37392600  1
  O  O0  1  0.77244700  0.39928700  0.03540400  1
  O  O1  1  0.60071300  0.22755300  0.46459500  1
  O  O2  1  0.22755300  0.60071300  0.96459600  1
  O  O3  1  0.39928700  0.77244700  0.53540400  1
loop_
_geom_bond_atom_site_label_1
_geom_bond_atom_site_label_2
_geom_bond_distance
_geom_bond_site_symmetry_2
Hg0 O1 2.036449 1_555
Hg0 O3 2.036450 1_545
Hg1 O0 2.036450 1_455
Hg1 O2 2.036450 1_554
Hg2 O1 2.053851 1_555
Hg2 O0 2.053859 1_555
Hg3 O2 2.053859 1_555
Hg3 O3 2.053859 1_555
Hg4 O2 2.528339 1_554
Hg5 O3 2.528339 1_555
Hg6 O0 2.528339 1_556
Hg7 O1 2.528346 1_555
Cl0 Hg4 2.474316 1_546
Cl0 Hg3 3.012809 1_545
Cl1 Hg5 2.474316 1_655
Cl1 Hg3 3.012809 1_655
Cl2 Hg6 2.474316 1_564
Cl2 Hg2 3.012809 1_565
Cl3 Hg7 2.474316 1_455
Cl3 Hg2 3.012809 1_455
