# generated using pymatgen
data_Tm5Pb3
_symmetry_space_group_name_H-M   'P 1'
_cell_length_a   6.51773771
_cell_length_b   8.86640245
_cell_length_c   8.86653362
_cell_angle_alpha   119.99951192
_cell_angle_beta   90.00000000
_cell_angle_gamma   90.00000000
_symmetry_Int_Tables_number   1
_chemical_formula_structural   Tm5Pb3
_chemical_formula_sum   'Tm10 Pb6'
_cell_volume   443.74242534
_cell_formula_units_Z   2
loop_
 _symmetry_equiv_pos_site_id
 _symmetry_equiv_pos_as_xyz
  1  'x, y, z'
loop_
 _atom_site_type_symbol
 _atom_site_label
 _atom_site_symmetry_multiplicity
 _atom_site_fract_x
 _atom_site_fract_y
 _atom_site_fract_z
 _atom_site_occupancy
  Tm  Tm0  1  0.50000180  0.33333034  0.66667460  1
  Tm  Tm1  1  0.50000180  0.66665574  0.33332540  1
  Tm  Tm2  1  0.00000180  0.66666966  0.33332540  1
  Tm  Tm3  1  0.00000180  0.33334426  0.66667460  1
  Tm  Tm4  1  0.75000272  0.23643145  1.00000000  1
  Tm  Tm5  1  0.75000158  0.76351993  0.76353074  1
  Tm  Tm6  1  0.75000158  0.99998920  0.23646926  1
  Tm  Tm7  1  0.25000272  0.76356855  0.00000000  1
  Tm  Tm8  1  0.25000158  0.23648007  0.23646926  1
  Tm  Tm9  1  0.25000158  0.00001080  0.76353074  1
  Pb  Pb0  1  0.74998299  0.60614541  -0.00000000  1
  Pb  Pb1  1  0.75000376  0.39382840  0.39384283  1
  Pb  Pb2  1  0.75000376  0.99998556  0.60615717  1
  Pb  Pb3  1  0.24998299  0.39385459  0.00000000  1
  Pb  Pb4  1  0.25000376  0.60617160  0.60615717  1
  Pb  Pb5  1  0.25000376  0.00001444  0.39384283  1
loop_
_geom_bond_atom_site_label_1
_geom_bond_atom_site_label_2
_geom_bond_distance
_geom_bond_site_symmetry_2
Pb0 Tm5 3.044423 1_554
Pb0 Tm6 3.044423 1_555
Pb0 Tm0 3.176717 1_554
Pb0 Tm1 3.176717 1_555
Pb0 Tm3 3.176806 1_654
Pb0 Tm2 3.176806 1_655
Pb0 Tm4 3.278033 1_554
Pb0 Tm7 3.545078 1_555
Pb0 Tm7 3.545315 1_655
Pb1 Tm6 3.044375 1_545
Pb1 Tm4 3.044430 1_554
Pb1 Tm3 3.176758 1_655
Pb1 Tm0 3.176839 1_555
Pb1 Tm1 3.176874 1_555
Pb1 Tm2 3.176965 1_655
Pb1 Tm5 3.277866 1_555
Pb1 Tm8 3.544975 1_655
Pb1 Tm8 3.545001 1_555
Pb2 Tm5 3.044375 1_555
Pb2 Tm4 3.044430 1_565
Pb2 Tm2 3.176758 1_655
Pb2 Tm1 3.176839 1_555
Pb2 Tm0 3.176874 1_565
Pb2 Tm3 3.176965 1_665
Pb2 Tm6 3.277866 1_555
Pb2 Tm9 3.544975 1_665
Pb2 Tm9 3.545001 1_565
Pb3 Tm8 3.044423 1_555
Pb3 Tm9 3.044423 1_554
Pb3 Tm2 3.176717 1_555
Pb3 Tm3 3.176717 1_554
Pb3 Tm1 3.176806 1_555
Pb3 Tm0 3.176806 1_554
Pb3 Tm7 3.278033 1_555
Pb3 Tm4 3.545078 1_454
Pb3 Tm4 3.545315 1_554
Pb4 Tm9 3.044375 1_565
Pb4 Tm7 3.044430 1_556
Pb4 Tm1 3.176758 1_555
Pb4 Tm2 3.176839 1_555
Pb4 Tm3 3.176874 1_555
Pb4 Tm0 3.176965 1_555
Pb4 Tm8 3.277866 1_555
Pb4 Tm5 3.544975 1_555
Pb4 Tm5 3.545001 1_455
Pb5 Tm8 3.044375 1_555
Pb5 Tm7 3.044430 1_545
Pb5 Tm0 3.176758 1_555
Pb5 Tm3 3.176839 1_555
Pb5 Tm2 3.176874 1_545
Pb5 Tm1 3.176965 1_545
Pb5 Tm9 3.277866 1_555
Pb5 Tm6 3.544975 1_545
Pb5 Tm6 3.545001 1_445
