# generated using pymatgen
data_Sm3Si2BO10
_symmetry_space_group_name_H-M   'P 1'
_cell_length_a   7.07935600
_cell_length_b   9.78857800
_cell_length_c   23.10967200
_cell_angle_alpha   90.00000000
_cell_angle_beta   90.00000000
_cell_angle_gamma   90.00000000
_symmetry_Int_Tables_number   1
_chemical_formula_structural   Sm3Si2BO10
_chemical_formula_sum   'Sm24 Si16 B8 O80'
_cell_volume   1601.42697487
_cell_formula_units_Z   8
loop_
 _symmetry_equiv_pos_site_id
 _symmetry_equiv_pos_as_xyz
  1  'x, y, z'
loop_
 _atom_site_type_symbol
 _atom_site_label
 _atom_site_symmetry_multiplicity
 _atom_site_fract_x
 _atom_site_fract_y
 _atom_site_fract_z
 _atom_site_occupancy
  Sm  Sm0  1  0.13602900  0.98973700  0.07176700  1
  Sm  Sm1  1  0.36397100  0.98973700  0.57176700  1
  Sm  Sm2  1  0.63602900  0.51026300  0.07176700  1
  Sm  Sm3  1  0.13602900  0.48973700  0.42823300  1
  Sm  Sm4  1  0.86397100  0.01026300  0.92823300  1
  Sm  Sm5  1  0.63602900  0.01026300  0.42823300  1
  Sm  Sm6  1  0.36397100  0.48973700  0.92823300  1
  Sm  Sm7  1  0.86397100  0.51026300  0.57176700  1
  Sm  Sm8  1  0.09251800  0.76781900  0.81752300  1
  Sm  Sm9  1  0.59251800  0.23218100  0.68247700  1
  Sm  Sm10  1  0.40748200  0.26781900  0.18247700  1
  Sm  Sm11  1  0.90748200  0.73218100  0.31752300  1
  Sm  Sm12  1  0.90748200  0.23218100  0.18247700  1
  Sm  Sm13  1  0.40748200  0.76781900  0.31752300  1
  Sm  Sm14  1  0.59251800  0.73218100  0.81752300  1
  Sm  Sm15  1  0.09251800  0.26781900  0.68247700  1
  Sm  Sm16  1  0.81830400  0.36618500  0.83582400  1
  Sm  Sm17  1  0.31830400  0.63381500  0.66417600  1
  Sm  Sm18  1  0.68169600  0.86618500  0.16417600  1
  Sm  Sm19  1  0.18169600  0.13381500  0.33582400  1
  Sm  Sm20  1  0.18169600  0.63381500  0.16417600  1
  Sm  Sm21  1  0.68169600  0.36618500  0.33582400  1
  Sm  Sm22  1  0.31830400  0.13381500  0.83582400  1
  Sm  Sm23  1  0.81830400  0.86618500  0.66417600  1
  Si  Si0  1  0.81226600  0.06160000  0.77932600  1
  Si  Si1  1  0.31226600  0.93840000  0.72067400  1
  Si  Si2  1  0.68773400  0.56160000  0.22067400  1
  Si  Si3  1  0.18773400  0.43840000  0.27932600  1
  Si  Si4  1  0.18773400  0.93840000  0.22067400  1
  Si  Si5  1  0.68773400  0.06160000  0.27932600  1
  Si  Si6  1  0.31226600  0.43840000  0.77932600  1
  Si  Si7  1  0.81226600  0.56160000  0.72067400  1
  Si  Si8  1  0.85645700  0.62299000  0.92124700  1
  Si  Si9  1  0.35645700  0.37701000  0.57875300  1
  Si  Si10  1  0.64354300  0.12299000  0.07875300  1
  Si  Si11  1  0.14354300  0.87701000  0.42124700  1
  Si  Si12  1  0.14354300  0.37701000  0.07875300  1
  Si  Si13  1  0.64354300  0.62299000  0.42124700  1
  Si  Si14  1  0.35645700  0.87701000  0.92124700  1
  Si  Si15  1  0.85645700  0.12299000  0.57875300  1
  B  B0  1  0.66479800  0.75823300  0.52815700  1
  B  B1  1  0.66479800  0.25823300  0.97184300  1
  B  B2  1  0.16479800  0.74176700  0.52815700  1
  B  B3  1  0.83520200  0.75823300  0.02815700  1
  B  B4  1  0.33520200  0.24176700  0.47184300  1
  B  B5  1  0.33520200  0.74176700  0.02815700  1
  B  B6  1  0.83520200  0.25823300  0.47184300  1
  B  B7  1  0.16479800  0.24176700  0.97184300  1
  O  O0  1  0.79389000  0.89387500  0.77825600  1
  O  O1  1  0.24856500  0.75930500  0.58107500  1
  O  O2  1  0.75143500  0.74069500  0.08107500  1
  O  O3  1  0.25143500  0.25930500  0.41892500  1
  O  O4  1  0.25143500  0.75930500  0.08107500  1
  O  O5  1  0.75143500  0.24069500  0.41892500  1
  O  O6  1  0.24856500  0.25930500  0.91892500  1
  O  O7  1  0.74856500  0.74069500  0.58107500  1
  O  O8  1  0.96354800  0.10917300  0.82854100  1
  O  O9  1  0.46354800  0.89082700  0.67145900  1
  O  O10  1  0.53645200  0.60917300  0.17145900  1
  O  O11  1  0.03645200  0.39082700  0.32854100  1
  O  O12  1  0.03645200  0.89082700  0.17145900  1
  O  O13  1  0.53645200  0.10917300  0.32854100  1
  O  O14  1  0.46354800  0.39082700  0.82854100  1
  O  O15  1  0.96354800  0.60917300  0.67145900  1
  O  O16  1  0.62298700  0.15640900  0.78915100  1
  O  O17  1  0.12298700  0.84359100  0.71084900  1
  O  O18  1  0.87701300  0.65640900  0.21084900  1
  O  O19  1  0.37701300  0.34359100  0.28915100  1
  O  O20  1  0.37701300  0.84359100  0.21084900  1
  O  O21  1  0.87701300  0.15640900  0.28915100  1
  O  O22  1  0.12298700  0.34359100  0.78915100  1
  O  O23  1  0.58432400  0.37496100  0.99102100  1
  O  O24  1  0.67120600  0.54808800  0.89261100  1
  O  O25  1  0.17120600  0.45191200  0.60738900  1
  O  O26  1  0.82879400  0.04808800  0.10738900  1
  O  O27  1  0.32879400  0.95191200  0.39261100  1
  O  O28  1  0.32879400  0.45191200  0.10738900  1
  O  O29  1  0.82879400  0.54808800  0.39261100  1
  O  O30  1  0.17120600  0.95191200  0.89261100  1
  O  O31  1  0.67120600  0.04808800  0.60738900  1
  O  O32  1  0.03911000  0.53501700  0.90016000  1
  O  O33  1  0.03911000  0.03501700  0.59984000  1
  O  O34  1  0.53911000  0.96498300  0.90016000  1
  O  O35  1  0.46089000  0.53501700  0.40016000  1
  O  O36  1  0.96089000  0.46498300  0.09984000  1
  O  O37  1  0.96089000  0.96498300  0.40016000  1
  O  O38  1  0.46089000  0.03501700  0.09984000  1
  O  O39  1  0.53911000  0.46498300  0.59984000  1
  O  O40  1  0.86713600  0.59832500  0.78858000  1
  O  O41  1  0.36713600  0.40167500  0.71142000  1
  O  O42  1  0.63286400  0.09832500  0.21142000  1
  O  O43  1  0.13286400  0.90167500  0.28858000  1
  O  O44  1  0.13286400  0.40167500  0.21142000  1
  O  O45  1  0.63286400  0.59832500  0.28858000  1
  O  O46  1  0.36713600  0.90167500  0.78858000  1
  O  O47  1  0.86713600  0.09832500  0.71142000  1
  O  O48  1  0.85338200  0.77493400  0.88962100  1
  O  O49  1  0.35338200  0.22506600  0.61037900  1
  O  O50  1  0.64661800  0.27493400  0.11037900  1
  O  O51  1  0.14661800  0.72506600  0.38962100  1
  O  O52  1  0.14661800  0.22506600  0.11037900  1
  O  O53  1  0.64661800  0.77493400  0.38962100  1
  O  O54  1  0.35338200  0.72506600  0.88962100  1
  O  O55  1  0.85338200  0.27493400  0.61037900  1
  O  O56  1  0.74856500  0.24069500  0.91892500  1
  O  O57  1  0.29389000  0.10612500  0.72174400  1
  O  O58  1  0.70611000  0.39387500  0.22174400  1
  O  O59  1  0.20611000  0.60612500  0.27825600  1
  O  O60  1  0.20611000  0.10612500  0.22174400  1
  O  O61  1  0.70611000  0.89387500  0.27825600  1
  O  O62  1  0.29389000  0.60612500  0.77825600  1
  O  O63  1  0.79389000  0.39387500  0.72174400  1
  O  O64  1  0.16716700  0.86146300  0.49255900  1
  O  O65  1  0.66716700  0.13853700  0.00744100  1
  O  O66  1  0.33283300  0.36146300  0.50744100  1
  O  O67  1  0.83283300  0.63853700  0.99255900  1
  O  O68  1  0.83283300  0.13853700  0.50744100  1
  O  O69  1  0.33283300  0.86146300  0.99255900  1
  O  O70  1  0.66716700  0.63853700  0.49255900  1
  O  O71  1  0.16716700  0.36146300  0.00744100  1
  O  O72  1  0.58432400  0.87496100  0.50897900  1
  O  O73  1  0.08432400  0.12503900  0.99102100  1
  O  O74  1  0.91567600  0.37496100  0.49102100  1
  O  O75  1  0.41567600  0.62503900  0.00897900  1
  O  O76  1  0.41567600  0.12503900  0.49102100  1
  O  O77  1  0.91567600  0.87496100  0.00897900  1
  O  O78  1  0.08432400  0.62503900  0.50897900  1
  O  O79  1  0.62298700  0.65640900  0.71084900  1
loop_
_geom_bond_atom_site_label_1
_geom_bond_atom_site_label_2
_geom_bond_distance
_geom_bond_site_symmetry_2
B0 O72 1.351490 1_555
B0 O7 1.369915 1_555
B0 O70 1.431719 1_555
B1 O23 1.351490 1_555
B1 O56 1.369915 1_555
B1 O65 1.431719 1_556
B2 O78 1.351490 1_555
B2 O1 1.369915 1_555
B2 O64 1.431719 1_555
B3 O77 1.351490 1_555
B3 O2 1.369915 1_555
B3 O67 1.431719 1_554
B4 O76 1.351490 1_555
B4 O3 1.369915 1_555
B4 O66 1.431719 1_555
B5 O75 1.351490 1_555
B5 O4 1.369915 1_555
B5 O69 1.431719 1_554
B6 O74 1.351490 1_555
B6 O5 1.369915 1_555
B6 O68 1.431719 1_555
B7 O73 1.351490 1_555
B7 O6 1.369915 1_555
B7 O71 1.431719 1_556
O0 Si0 1.647121 1_565
O0 Sm14 2.315354 1_555
O0 Sm8 2.610629 1_655
O0 Sm23 2.655878 1_555
O1 Sm17 2.332534 1_555
O1 Sm1 2.408630 1_555
O2 Sm18 2.332534 1_555
O2 Sm2 2.408630 1_555
O3 Sm19 2.332534 1_555
O3 Sm3 2.408630 1_555
O4 Sm20 2.332534 1_555
O4 Sm0 2.408630 1_555
O5 Sm21 2.332534 1_555
O5 Sm5 2.408630 1_555
O6 Sm22 2.332534 1_555
O6 Sm6 2.408630 1_555
O7 Sm23 2.332534 1_555
O7 Sm7 2.408630 1_555
O8 Si0 1.630152 1_555
O8 Sm22 2.528608 1_655
O8 Sm4 2.596546 1_555
O8 Sm16 2.723004 1_555
O9 Si1 1.630152 1_555
O9 Sm23 2.528608 1_555
O9 Sm1 2.596546 1_555
O9 Sm17 2.723004 1_555
O10 Si2 1.630152 1_555
O10 Sm20 2.528608 1_555
O10 Sm2 2.596546 1_555
O10 Sm18 2.723004 1_555
O11 Si3 1.630152 1_555
O11 Sm21 2.528608 1_455
O11 Sm3 2.596546 1_555
O11 Sm19 2.723004 1_555
O12 Si4 1.630152 1_555
O12 Sm18 2.528608 1_455
O12 Sm0 2.596546 1_555
O12 Sm20 2.723004 1_555
O13 Si5 1.630152 1_555
O13 Sm19 2.528608 1_555
O13 Sm5 2.596546 1_555
O13 Sm21 2.723004 1_555
O14 Si6 1.630152 1_555
O14 Sm16 2.528608 1_555
O14 Sm6 2.596546 1_555
O14 Sm22 2.723004 1_555
O15 Si7 1.630152 1_555
O15 Sm17 2.528608 1_655
O15 Sm7 2.596546 1_555
O15 Sm23 2.723004 1_555
O16 Si0 1.645706 1_555
O16 Sm22 2.421727 1_555
O16 Sm9 2.583382 1_555
O16 Sm16 2.700328 1_555
O17 Si1 1.645706 1_555
O17 Sm23 2.421727 1_455
O17 Sm8 2.583382 1_555
O17 Sm17 2.700328 1_555
O18 Si2 1.645706 1_555
O18 Sm20 2.421727 1_655
O18 Sm11 2.583382 1_555
O18 Sm18 2.700328 1_555
O19 Si3 1.645706 1_555
O19 Sm21 2.421727 1_555
O19 Sm10 2.583382 1_555
O19 Sm19 2.700328 1_555
O20 Si4 1.645706 1_555
O20 Sm18 2.421727 1_555
O20 Sm13 2.583382 1_555
O20 Sm20 2.700328 1_555
O21 Si5 1.645706 1_555
O21 Sm19 2.421727 1_655
O21 Sm12 2.583382 1_555
O21 Sm21 2.700328 1_555
O22 Si6 1.645706 1_555
O22 Sm16 2.421727 1_455
O22 Sm15 2.583382 1_555
O22 Sm22 2.700328 1_555
O23 Sm2 2.317340 1_556
O23 Sm6 2.408555 1_555
O24 Si8 1.641773 1_555
O24 Sm6 2.394714 1_555
O24 Sm16 2.444805 1_555
O24 Sm14 2.562943 1_555
O25 Si9 1.641773 1_555
O25 Sm7 2.394714 1_455
O25 Sm17 2.444805 1_555
O25 Sm15 2.562943 1_555
O26 Si10 1.641773 1_555
O26 Sm0 2.394714 1_645
O26 Sm18 2.444805 1_545
O26 Sm12 2.562943 1_555
O27 Si11 1.641773 1_555
O27 Sm5 2.394714 1_565
O27 Sm19 2.444805 1_565
O27 Sm13 2.562943 1_555
O28 Si12 1.641773 1_555
O28 Sm2 2.394714 1_555
O28 Sm20 2.444805 1_555
O28 Sm10 2.562943 1_555
O29 Si13 1.641773 1_555
O29 Sm3 2.394714 1_655
O29 Sm21 2.444805 1_555
O29 Sm11 2.562943 1_555
O30 Si14 1.641773 1_555
O30 Sm4 2.394714 1_465
O30 Sm22 2.444805 1_565
O30 Sm8 2.562943 1_555
O31 Si15 1.641773 1_555
O31 Sm1 2.394714 1_545
O31 Sm23 2.444805 1_545
O31 Sm9 2.562943 1_555
O32 Si8 1.628201 1_455
O32 Sm6 2.430318 1_555
O32 Sm16 2.717569 1_455
O33 Si15 1.628201 1_455
O33 Sm1 2.430318 1_545
O33 Sm23 2.717569 1_445
O34 Si14 1.628201 1_555
O34 Sm4 2.430318 1_565
O34 Sm22 2.717569 1_565
O35 Si13 1.628201 1_555
O35 Sm3 2.430318 1_555
O35 Sm21 2.717569 1_555
O36 Si12 1.628201 1_655
O36 Sm2 2.430318 1_555
O36 Sm20 2.717569 1_655
O37 Si11 1.628201 1_655
O37 Sm5 2.430318 1_565
O37 Sm19 2.717569 1_665
O38 Si10 1.628201 1_555
O38 Sm0 2.430318 1_545
O38 Sm18 2.717569 1_545
O39 Si9 1.628201 1_555
O39 Sm7 2.430318 1_555
O39 Sm17 2.717569 1_555
O40 Si7 1.656133 1_555
O40 Sm8 2.397044 1_655
O40 Sm14 2.437982 1_555
O40 Sm16 2.544594 1_555
O41 Si6 1.656133 1_555
O41 Sm9 2.397044 1_555
O41 Sm15 2.437982 1_555
O41 Sm17 2.544594 1_555
O42 Si5 1.656133 1_555
O42 Sm10 2.397044 1_555
O42 Sm12 2.437982 1_555
O42 Sm18 2.544594 1_545
O43 Si4 1.656133 1_555
O43 Sm11 2.397044 1_455
O43 Sm13 2.437982 1_555
O43 Sm19 2.544594 1_565
O44 Si3 1.656133 1_555
O44 Sm12 2.397044 1_455
O44 Sm10 2.437982 1_555
O44 Sm20 2.544594 1_555
O45 Si2 1.656133 1_555
O45 Sm13 2.397044 1_555
O45 Sm11 2.437982 1_555
O45 Sm21 2.544594 1_555
O46 Si1 1.656133 1_555
O46 Sm14 2.397044 1_555
O46 Sm8 2.437982 1_555
O46 Sm22 2.544594 1_565
O47 Si0 1.656133 1_555
O47 Sm15 2.397044 1_655
O47 Sm9 2.437982 1_555
O47 Sm23 2.544594 1_545
O48 Si8 1.657331 1_555
O48 Sm8 2.376332 1_655
O48 Sm4 2.471461 1_565
O48 Sm14 2.522243 1_555
O49 Si9 1.657331 1_555
O49 Sm9 2.376332 1_555
O49 Sm1 2.471461 1_545
O49 Sm15 2.522243 1_555
O50 Si10 1.657331 1_555
O50 Sm10 2.376332 1_555
O50 Sm2 2.471461 1_555
O50 Sm12 2.522243 1_555
O51 Si11 1.657331 1_555
O51 Sm11 2.376332 1_455
O51 Sm3 2.471461 1_555
O51 Sm13 2.522243 1_555
O52 Si12 1.657331 1_555
O52 Sm12 2.376332 1_455
O52 Sm0 2.471461 1_545
O52 Sm10 2.522243 1_555
O53 Si13 1.657331 1_555
O53 Sm13 2.376332 1_555
O53 Sm5 2.471461 1_565
O53 Sm11 2.522243 1_555
O54 Si14 1.657331 1_555
O54 Sm14 2.376332 1_555
O54 Sm6 2.471461 1_555
O54 Sm8 2.522243 1_555
O55 Si15 1.657331 1_555
O55 Sm15 2.376332 1_655
O55 Sm7 2.471461 1_555
O55 Sm9 2.522243 1_555
O56 Sm16 2.332534 1_555
O56 Sm4 2.408630 1_555
O57 Si1 1.647121 1_545
O57 Sm15 2.315354 1_555
O57 Sm9 2.610629 1_555
O57 Sm22 2.655878 1_555
O58 Si2 1.647121 1_555
O58 Sm12 2.315354 1_555
O58 Sm10 2.610629 1_555
O58 Sm21 2.655878 1_555
O59 Si3 1.647121 1_555
O59 Sm13 2.315354 1_555
O59 Sm11 2.610629 1_455
O59 Sm20 2.655878 1_555
O60 Si4 1.647121 1_545
O60 Sm10 2.315354 1_555
O60 Sm12 2.610629 1_455
O60 Sm19 2.655878 1_555
O61 Si5 1.647121 1_565
O61 Sm11 2.315354 1_555
O61 Sm13 2.610629 1_555
O61 Sm18 2.655878 1_555
O62 Si6 1.647121 1_555
O62 Sm8 2.315354 1_555
O62 Sm14 2.610629 1_555
O62 Sm17 2.655878 1_555
O63 Si7 1.647121 1_555
O63 Sm9 2.315354 1_555
O63 Sm15 2.610629 1_655
O63 Sm16 2.655878 1_555
O64 Si11 1.663437 1_555
O64 Sm1 2.620752 1_555
O65 Si10 1.663437 1_555
O65 Sm4 2.620752 1_554
O66 Si9 1.663437 1_555
O66 Sm3 2.620752 1_555
O67 Si8 1.663437 1_555
O67 Sm2 2.620752 1_556
O68 Si15 1.663437 1_555
O68 Sm5 2.620752 1_555
O69 Si14 1.663437 1_555
O69 Sm0 2.620752 1_556
O70 Si13 1.663437 1_555
O70 Sm7 2.620752 1_555
O71 Si12 1.663437 1_555
O71 Sm6 2.620752 1_554
O72 Sm5 2.317340 1_565
O72 Sm1 2.408555 1_555
O73 Sm0 2.317340 1_546
O73 Sm4 2.408555 1_455
O74 Sm7 2.317340 1_555
O74 Sm3 2.408555 1_655
O75 Sm6 2.317340 1_554
O75 Sm2 2.408555 1_555
O76 Sm1 2.317340 1_545
O76 Sm5 2.408555 1_555
O77 Sm4 2.317340 1_564
O77 Sm0 2.408555 1_655
O78 Sm3 2.317340 1_555
O78 Sm7 2.408555 1_455
O79 Si7 1.645706 1_555
O79 Sm17 2.421727 1_555
O79 Sm14 2.583382 1_555
O79 Sm23 2.700328 1_555
