# generated using pymatgen
data_MgAg2P2O9
_symmetry_space_group_name_H-M   'P 1'
_cell_length_a   6.53379600
_cell_length_b   6.92441500
_cell_length_c   15.89403800
_cell_angle_alpha   90.00000000
_cell_angle_beta   90.00000000
_cell_angle_gamma   90.00000000
_symmetry_Int_Tables_number   1
_chemical_formula_structural   MgAg2P2O9
_chemical_formula_sum   'Mg4 Ag8 P8 O36'
_cell_volume   719.08943190
_cell_formula_units_Z   4
loop_
 _symmetry_equiv_pos_site_id
 _symmetry_equiv_pos_as_xyz
  1  'x, y, z'
loop_
 _atom_site_type_symbol
 _atom_site_label
 _atom_site_symmetry_multiplicity
 _atom_site_fract_x
 _atom_site_fract_y
 _atom_site_fract_z
 _atom_site_occupancy
  Mg  Mg0  1  0.75000000  0.88798300  0.22515400  1
  Mg  Mg1  1  0.75000000  0.61201700  0.72515400  1
  Mg  Mg2  1  0.25000000  0.38798300  0.27484600  1
  Mg  Mg3  1  0.25000000  0.11201700  0.77484600  1
  Ag  Ag0  1  0.75000000  0.37038500  0.11863200  1
  Ag  Ag1  1  0.25000000  0.62961500  0.88136800  1
  Ag  Ag2  1  0.25000000  0.87038500  0.38136800  1
  Ag  Ag3  1  0.75000000  0.12961500  0.61863200  1
  Ag  Ag4  1  0.00000000  0.00000000  0.00000000  1
  Ag  Ag5  1  0.00000000  0.50000000  0.50000000  1
  Ag  Ag6  1  0.50000000  0.50000000  0.50000000  1
  Ag  Ag7  1  0.50000000  0.00000000  0.00000000  1
  P  P0  1  0.25000000  0.38387600  0.07868300  1
  P  P1  1  0.75000000  0.61612400  0.92131700  1
  P  P2  1  0.75000000  0.88387600  0.42131700  1
  P  P3  1  0.25000000  0.11612400  0.57868300  1
  P  P4  1  0.75000000  0.38602100  0.29270500  1
  P  P5  1  0.75000000  0.11397900  0.79270500  1
  P  P6  1  0.25000000  0.88602100  0.20729500  1
  P  P7  1  0.25000000  0.61397900  0.70729500  1
  O  O0  1  0.45380200  0.60674700  0.65857700  1
  O  O1  1  0.95380200  0.39325300  0.34142300  1
  O  O2  1  0.54619800  0.10674700  0.84142300  1
  O  O3  1  0.04619800  0.89325300  0.15857700  1
  O  O4  1  0.54619800  0.39325300  0.34142300  1
  O  O5  1  0.04619800  0.60674700  0.65857700  1
  O  O6  1  0.45380200  0.89325300  0.15857700  1
  O  O7  1  0.95380200  0.10674700  0.84142300  1
  O  O8  1  0.25000000  0.30166800  0.52231300  1
  O  O9  1  0.75000000  0.69833200  0.47768700  1
  O  O10  1  0.75000000  0.80166800  0.97768700  1
  O  O11  1  0.25000000  0.19833200  0.02231300  1
  O  O12  1  0.75000000  0.10900800  0.06018200  1
  O  O13  1  0.25000000  0.89099200  0.93981800  1
  O  O14  1  0.25000000  0.60900800  0.43981800  1
  O  O15  1  0.75000000  0.39099200  0.56018200  1
  O  O16  1  0.75000000  0.19545400  0.23792900  1
  O  O17  1  0.25000000  0.80454600  0.76207100  1
  O  O18  1  0.25000000  0.69545400  0.26207100  1
  O  O19  1  0.75000000  0.30454600  0.73792900  1
  O  O20  1  0.07398300  0.12290400  0.64446400  1
  O  O21  1  0.57398300  0.87709600  0.35553600  1
  O  O22  1  0.92601700  0.62290400  0.85553600  1
  O  O23  1  0.42601700  0.37709600  0.14446400  1
  O  O24  1  0.92601700  0.87709600  0.35553600  1
  O  O25  1  0.42601700  0.12290400  0.64446400  1
  O  O26  1  0.07398300  0.37709600  0.14446400  1
  O  O27  1  0.57398300  0.62290400  0.85553600  1
  O  O28  1  0.75000000  0.44251200  0.97924800  1
  O  O29  1  0.25000000  0.06303800  0.27277800  1
  O  O30  1  0.25000000  0.43696200  0.77277800  1
  O  O31  1  0.75000000  0.56303800  0.22722200  1
  O  O32  1  0.75000000  0.05748800  0.47924800  1
  O  O33  1  0.25000000  0.94251200  0.52075200  1
  O  O34  1  0.25000000  0.55748800  0.02075200  1
  O  O35  1  0.75000000  0.93696200  0.72722200  1
loop_
_geom_bond_atom_site_label_1
_geom_bond_atom_site_label_2
_geom_bond_distance
_geom_bond_site_symmetry_2
Mg0 O16 2.138717 1_565
Mg0 O3 2.206002 1_655
Mg0 O6 2.206002 1_555
Mg0 O31 2.250294 1_555
Mg0 O21 2.371230 1_555
Mg0 O24 2.371230 1_555
Mg1 O19 2.138717 1_555
Mg1 O5 2.206002 1_655
Mg1 O0 2.206002 1_555
Mg1 O35 2.250294 1_555
Mg1 O27 2.371230 1_555
Mg1 O22 2.371230 1_555
Mg2 O18 2.138717 1_555
Mg2 O4 2.206002 1_555
Mg2 O1 2.206002 1_455
Mg2 O29 2.250294 1_555
Mg2 O26 2.371230 1_555
Mg2 O23 2.371230 1_555
Mg3 O17 2.138717 1_545
Mg3 O2 2.206002 1_555
Mg3 O7 2.206002 1_455
Mg3 O30 2.250294 1_555
Mg3 O25 2.371230 1_555
Mg3 O20 2.371230 1_555
Ag0 O12 2.034387 1_555
Ag0 O26 2.156789 1_655
Ag0 O23 2.156789 1_555
Ag0 O31 2.181382 1_555
Ag0 O16 2.249994 1_555
Ag0 O28 2.270974 1_554
Ag1 O13 2.034387 1_555
Ag1 O27 2.156789 1_555
Ag1 O22 2.156789 1_455
Ag1 O30 2.181382 1_555
Ag1 O17 2.249994 1_555
Ag1 O34 2.270974 1_556
Ag2 O14 2.034387 1_555
Ag2 O21 2.156789 1_555
Ag2 O24 2.156789 1_455
Ag2 O29 2.181382 1_565
Ag2 O18 2.249994 1_555
Ag2 O33 2.270974 1_555
Ag3 O15 2.034387 1_555
Ag3 O20 2.156789 1_655
Ag3 O25 2.156789 1_555
Ag3 O35 2.181382 1_545
Ag3 O19 2.249994 1_555
Ag3 O32 2.270974 1_555
Ag4 O12 2.037857 1_455
Ag4 O13 2.037857 1_544
Ag4 O11 2.163324 1_555
Ag4 O10 2.163324 1_444
Ag4 O3 2.643867 1_545
Ag4 O7 2.643867 1_454
Ag5 O15 2.037857 1_455
Ag5 O14 2.037857 1_555
Ag5 O9 2.163324 1_455
Ag5 O8 2.163324 1_555
Ag5 O5 2.643867 1_555
Ag5 O1 2.643867 1_455
Ag6 O15 2.037857 1_555
Ag6 O14 2.037857 1_555
Ag6 O9 2.163324 1_555
Ag6 O8 2.163324 1_555
Ag6 O0 2.643867 1_555
Ag6 O4 2.643867 1_555
Ag7 O12 2.037857 1_555
Ag7 O13 2.037857 1_544
Ag7 O11 2.163324 1_555
Ag7 O10 2.163324 1_544
Ag7 O6 2.643867 1_545
Ag7 O2 2.643867 1_554
O0 P7 1.541184 1_555
O1 P4 1.541184 1_555
O2 P5 1.541184 1_555
O3 P6 1.541184 1_555
O4 P4 1.541184 1_555
O5 P7 1.541184 1_555
O6 P6 1.541184 1_555
O7 P5 1.541184 1_555
O8 P3 1.566330 1_555
O9 P2 1.566330 1_555
O10 P1 1.566330 1_555
O11 P0 1.566330 1_555
O16 P4 1.580891 1_555
O17 P7 1.580891 1_555
O18 P6 1.580891 1_555
O19 P5 1.580891 1_555
O20 P3 1.554980 1_555
O21 P2 1.554980 1_555
O22 P1 1.554980 1_555
O23 P0 1.554980 1_555
O24 P2 1.554980 1_555
O25 P3 1.554980 1_555
O26 P0 1.554980 1_555
O27 P1 1.554980 1_555
O28 P1 1.514261 1_555
O29 P6 1.608005 1_545
O30 P7 1.608005 1_555
O31 P4 1.608005 1_555
O32 P2 1.514261 1_545
O33 P3 1.514261 1_565
O34 P0 1.514261 1_555
O35 P5 1.608005 1_565
