# generated using pymatgen
data_La2Ga5Au3
_symmetry_space_group_name_H-M   'P 1'
_cell_length_a   4.47964600
_cell_length_b   4.47964600
_cell_length_c   10.96500700
_cell_angle_alpha   90.00000000
_cell_angle_beta   90.00000000
_cell_angle_gamma   90.00000000
_symmetry_Int_Tables_number   1
_chemical_formula_structural   La2Ga5Au3
_chemical_formula_sum   'La2 Ga5 Au3'
_cell_volume   220.03729862
_cell_formula_units_Z   1
loop_
 _symmetry_equiv_pos_site_id
 _symmetry_equiv_pos_as_xyz
  1  'x, y, z'
loop_
 _atom_site_type_symbol
 _atom_site_label
 _atom_site_symmetry_multiplicity
 _atom_site_fract_x
 _atom_site_fract_y
 _atom_site_fract_z
 _atom_site_occupancy
  La  La0  1  0.50000000  0.00000000  0.25704400  1
  La  La1  1  0.00000000  0.50000000  0.74295600  1
  Ga  Ga0  1  0.50000000  0.50000000  0.00000000  1
  Ga  Ga1  1  0.00000000  0.00000000  0.00000000  1
  Ga  Ga2  1  0.50000000  0.00000000  0.87229700  1
  Ga  Ga3  1  0.00000000  0.50000000  0.12770300  1
  Ga  Ga4  1  0.00000000  0.00000000  0.50000000  1
  Au  Au0  1  0.50000000  0.00000000  0.64412100  1
  Au  Au1  1  0.00000000  0.50000000  0.35587900  1
  Au  Au2  1  0.50000000  0.50000000  0.50000000  1
loop_
_geom_bond_atom_site_label_1
_geom_bond_atom_site_label_2
_geom_bond_distance
_geom_bond_site_symmetry_2
Ga0 Ga3 2.641505 1_655
Ga0 Ga3 2.641505 1_555
Ga0 Ga2 2.641505 1_554
Ga0 Ga2 2.641505 1_564
Ga0 La0 3.600096 1_565
Ga0 La0 3.600096 1_555
Ga0 La1 3.600096 1_654
Ga0 La1 3.600096 1_554
Ga1 Ga3 2.641505 1_545
Ga1 Ga3 2.641505 1_555
Ga1 Ga2 2.641505 1_554
Ga1 Ga2 2.641505 1_454
Ga1 La0 3.600096 1_455
Ga1 La0 3.600096 1_555
Ga1 La1 3.600096 1_544
Ga1 La1 3.600096 1_554
Ga2 La1 3.470587 1_655
Ga2 La1 3.470587 1_645
Ga2 La1 3.470587 1_555
Ga2 La1 3.470587 1_545
Ga3 La0 3.470587 1_565
Ga3 La0 3.470587 1_455
Ga3 La0 3.470587 1_555
Ga3 La0 3.470587 1_465
Ga4 La0 3.480485 1_455
Ga4 La0 3.480485 1_555
Ga4 La1 3.480485 1_555
Ga4 La1 3.480485 1_545
Au0 Ga2 2.501951 1_555
Au0 Au2 2.741189 1_545
Au0 Ga4 2.741189 1_555
Au0 Ga4 2.741189 1_655
Au0 Au2 2.741189 1_555
Au0 La1 3.347847 1_555
Au0 La1 3.347847 1_545
Au0 La1 3.347847 1_655
Au0 La1 3.347847 1_645
Au1 Ga3 2.501951 1_555
Au1 Ga4 2.741189 1_565
Au1 Au2 2.741189 1_455
Au1 Au2 2.741189 1_555
Au1 Ga4 2.741189 1_555
Au1 La0 3.347847 1_465
Au1 La0 3.347847 1_565
Au1 La0 3.347847 1_455
Au1 La0 3.347847 1_555
Au2 La1 3.480485 1_655
Au2 La0 3.480485 1_555
Au2 La1 3.480485 1_555
Au2 La0 3.480485 1_565
