# generated using pymatgen
data_K2Cu5TeS3O19
_symmetry_space_group_name_H-M   'P 1'
_cell_length_a   12.01981000
_cell_length_b   7.85307600
_cell_length_c   9.46538723
_cell_angle_alpha   67.15134904
_cell_angle_beta   90.00000000
_cell_angle_gamma   90.00000000
_symmetry_Int_Tables_number   1
_chemical_formula_structural   K2Cu5TeS3O19
_chemical_formula_sum   'K4 Cu10 Te2 S6 O38'
_cell_volume   823.35484361
_cell_formula_units_Z   2
loop_
 _symmetry_equiv_pos_site_id
 _symmetry_equiv_pos_as_xyz
  1  'x, y, z'
loop_
 _atom_site_type_symbol
 _atom_site_label
 _atom_site_symmetry_multiplicity
 _atom_site_fract_x
 _atom_site_fract_y
 _atom_site_fract_z
 _atom_site_occupancy
  K  K0  1  0.25000000  0.97873500  0.48204600  1
  K  K1  1  0.75000000  0.02126500  0.51795400  1
  K  K2  1  0.50000000  0.00000000  0.00000000  1
  K  K3  1  0.00000000  0.00000000  0.00000000  1
  Cu  Cu0  1  0.37499800  0.46801600  0.27024500  1
  Cu  Cu1  1  0.87499800  0.53198400  0.72975500  1
  Cu  Cu2  1  0.62500200  0.53198400  0.72975500  1
  Cu  Cu3  1  0.12500200  0.46801600  0.27024500  1
  Cu  Cu4  1  0.36773100  0.50361800  0.72615500  1
  Cu  Cu5  1  0.86773100  0.49638200  0.27384500  1
  Cu  Cu6  1  0.63226900  0.49638200  0.27384500  1
  Cu  Cu7  1  0.13226900  0.50361800  0.72615500  1
  Cu  Cu8  1  0.50000000  0.50000000  0.00000000  1
  Cu  Cu9  1  0.00000000  0.50000000  0.00000000  1
  Te  Te0  1  0.25000000  0.77126100  0.92339300  1
  Te  Te1  1  0.75000000  0.22873900  0.07660700  1
  S  S0  1  0.46883300  0.21304400  0.59722000  1
  S  S1  1  0.96883300  0.78695600  0.40278000  1
  S  S2  1  0.53116700  0.78695600  0.40278000  1
  S  S3  1  0.03116700  0.21304400  0.59722000  1
  S  S4  1  0.25000000  0.20215700  0.06811700  1
  S  S5  1  0.75000000  0.79784300  0.93188300  1
  O  O0  1  0.25000000  0.57131400  0.30593100  1
  O  O1  1  0.75000000  0.42868600  0.69406900  1
  O  O2  1  0.48918500  0.60341700  0.78861100  1
  O  O3  1  0.98918500  0.39658300  0.21138900  1
  O  O4  1  0.51081500  0.39658300  0.21138900  1
  O  O5  1  0.01081500  0.60341700  0.78861100  1
  O  O6  1  0.25000000  0.43236800  0.64703800  1
  O  O7  1  0.75000000  0.56763200  0.35296200  1
  O  O8  1  0.25000000  0.66054200  0.77038000  1
  O  O9  1  0.75000000  0.33945800  0.22962000  1
  O  O10  1  0.37540500  0.64251200  0.04746400  1
  O  O11  1  0.87540500  0.35748800  0.95253600  1
  O  O12  1  0.62459500  0.35748800  0.95253600  1
  O  O13  1  0.12459500  0.64251200  0.04746400  1
  O  O14  1  0.47516700  0.34658100  0.68064200  1
  O  O15  1  0.97516700  0.65341900  0.31935800  1
  O  O16  1  0.52483300  0.65341900  0.31935800  1
  O  O17  1  0.02483300  0.34658100  0.68064200  1
  O  O18  1  0.35276800  0.28324400  0.97542400  1
  O  O19  1  0.85276800  0.71675600  0.02457600  1
  O  O20  1  0.64723200  0.71675600  0.02457600  1
  O  O21  1  0.14723200  0.28324400  0.97542400  1
  O  O22  1  0.37776000  0.27490900  0.47729800  1
  O  O23  1  0.87776000  0.72509100  0.52270200  1
  O  O24  1  0.62224000  0.72509100  0.52270200  1
  O  O25  1  0.12224000  0.27490900  0.47729800  1
  O  O26  1  0.25000000  0.24811000  0.20726800  1
  O  O27  1  0.75000000  0.75189000  0.79273200  1
  O  O28  1  0.43687500  0.02853800  0.70796700  1
  O  O29  1  0.93687500  0.97146200  0.29203300  1
  O  O30  1  0.56312500  0.97146200  0.29203300  1
  O  O31  1  0.06312500  0.02853800  0.70796700  1
  O  O32  1  0.42108700  0.77880200  0.47071500  1
  O  O33  1  0.92108700  0.22119800  0.52928500  1
  O  O34  1  0.57891300  0.22119800  0.52928500  1
  O  O35  1  0.07891300  0.77880200  0.47071500  1
  O  O36  1  0.25000000  0.99806100  0.11210300  1
  O  O37  1  0.75000000  0.00193900  0.88789700  1
loop_
_geom_bond_atom_site_label_1
_geom_bond_atom_site_label_2
_geom_bond_distance
_geom_bond_site_symmetry_2
K0 O32 2.614646 1_555
K0 O35 2.614646 1_555
K0 O26 2.639467 1_565
K0 O25 2.772863 1_565
K0 O22 2.772863 1_565
K0 O8 2.897640 1_555
K1 O34 2.614646 1_555
K1 O33 2.614646 1_555
K1 O27 2.639467 1_545
K1 O24 2.772863 1_545
K1 O23 2.772863 1_545
K1 O9 2.897640 1_555
K2 O20 2.780610 1_545
K2 O18 2.780610 1_554
K2 O30 2.790281 1_545
K2 O28 2.790281 1_554
K2 O12 3.057215 1_554
K2 O10 3.057215 1_545
K2 O36 3.184863 1_545
K2 O37 3.184863 1_554
K2 O14 3.200805 1_554
K2 O16 3.200805 1_545
K3 O21 2.780610 1_554
K3 O19 2.780610 1_445
K3 O29 2.790281 1_445
K3 O31 2.790281 1_554
K3 O11 3.057215 1_454
K3 O13 3.057215 1_545
K3 O36 3.184863 1_545
K3 O37 3.184863 1_454
K3 O17 3.200805 1_554
K3 O15 3.200805 1_445
Cu0 O0 1.800642 1_555
Cu0 O4 1.879568 1_555
Cu0 O22 1.957982 1_555
Cu0 O10 2.020002 1_555
Cu0 O16 2.470869 1_555
Cu0 O26 2.528729 1_555
Cu1 O1 1.800642 1_555
Cu1 O5 1.879568 1_655
Cu1 O23 1.957982 1_555
Cu1 O11 2.020002 1_555
Cu1 O17 2.470869 1_655
Cu1 O27 2.528729 1_555
Cu2 O1 1.800642 1_555
Cu2 O2 1.879568 1_555
Cu2 O24 1.957982 1_555
Cu2 O12 2.020002 1_555
Cu2 O14 2.470869 1_555
Cu2 O27 2.528729 1_555
Cu3 O0 1.800642 1_555
Cu3 O3 1.879568 1_455
Cu3 O25 1.957982 1_555
Cu3 O13 2.020002 1_555
Cu3 O15 2.470869 1_455
Cu3 O26 2.528729 1_555
Cu4 O6 1.789362 1_555
Cu4 O2 1.858682 1_555
Cu4 O14 1.945924 1_555
Cu4 O8 2.024110 1_555
Cu4 O18 2.328782 1_555
Cu4 O32 2.620990 1_555
Cu5 O7 1.789362 1_555
Cu5 O3 1.858682 1_555
Cu5 O15 1.945924 1_555
Cu5 O9 2.024110 1_555
Cu5 O19 2.328782 1_555
Cu5 O33 2.620990 1_555
Cu6 O7 1.789362 1_555
Cu6 O4 1.858682 1_555
Cu6 O16 1.945924 1_555
Cu6 O9 2.024110 1_555
Cu6 O20 2.328782 1_555
Cu6 O34 2.620990 1_555
Cu7 O6 1.789362 1_555
Cu7 O5 1.858682 1_555
Cu7 O17 1.945924 1_555
Cu7 O8 2.024110 1_555
Cu7 O21 2.328782 1_555
Cu7 O35 2.620990 1_555
Cu8 O4 1.848789 1_555
Cu8 O2 1.848789 1_554
Cu8 O10 2.021795 1_555
Cu8 O12 2.021795 1_554
Cu8 O20 2.528033 1_555
Cu8 O18 2.528033 1_554
Cu9 O3 1.848789 1_455
Cu9 O5 1.848789 1_554
Cu9 O13 2.021795 1_555
Cu9 O11 2.021795 1_454
Cu9 O21 2.528033 1_554
Cu9 O19 2.528033 1_455
O8 Te0 1.957453 1_555
O9 Te1 1.957453 1_555
O10 Te0 1.936855 1_554
O11 Te1 1.936855 1_556
O12 Te1 1.936855 1_556
O13 Te0 1.936855 1_554
O14 S0 1.540158 1_555
O15 S1 1.540158 1_555
O16 S2 1.540158 1_555
O17 S3 1.540158 1_555
O18 S4 1.505737 1_556
O19 S5 1.505737 1_554
O20 S5 1.505737 1_554
O21 S4 1.505737 1_556
O22 S0 1.514779 1_555
O23 S1 1.514779 1_555
O24 S2 1.514779 1_555
O25 S3 1.514779 1_555
O26 S4 1.494709 1_555
O27 S5 1.494709 1_555
O28 S0 1.471831 1_555
O29 S1 1.471831 1_555
O30 S2 1.471831 1_555
O31 S3 1.471831 1_555
O32 S2 1.461613 1_555
O33 S3 1.461613 1_655
O34 S0 1.461613 1_555
O35 S1 1.461613 1_455
O36 S4 1.491315 1_565
O37 S5 1.491315 1_545
