# generated using pymatgen
data_H12C5N2
_symmetry_space_group_name_H-M   'P 1'
_cell_length_a   6.35459800
_cell_length_b   9.10239600
_cell_length_c   9.19534200
_cell_angle_alpha   90.00000000
_cell_angle_beta   90.00000000
_cell_angle_gamma   90.00000000
_symmetry_Int_Tables_number   1
_chemical_formula_structural   H12C5N2
_chemical_formula_sum   'H24 C10 N4'
_cell_volume   531.87759188
_cell_formula_units_Z   2
loop_
 _symmetry_equiv_pos_site_id
 _symmetry_equiv_pos_as_xyz
  1  'x, y, z'
loop_
 _atom_site_type_symbol
 _atom_site_label
 _atom_site_symmetry_multiplicity
 _atom_site_fract_x
 _atom_site_fract_y
 _atom_site_fract_z
 _atom_site_occupancy
  H  H0  1  0.26552400  0.61601800  0.15258000  1
  H  H1  1  0.26552400  0.88398200  0.15258000  1
  H  H2  1  0.26552400  0.61601800  0.34742000  1
  H  H3  1  0.26552400  0.88398200  0.34742000  1
  H  H4  1  0.26662600  0.15190600  0.61859200  1
  H  H5  1  0.26662600  0.34809400  0.61859200  1
  H  H6  1  0.26662600  0.15190600  0.88140800  1
  H  H7  1  0.26662600  0.34809400  0.88140800  1
  H  H8  1  0.73583800  0.38177200  0.84868300  1
  H  H9  1  0.73583800  0.11822800  0.84868300  1
  H  H10  1  0.73583800  0.38177200  0.65131700  1
  H  H11  1  0.73583800  0.11822800  0.65131700  1
  H  H12  1  0.73620400  0.84916100  0.37953400  1
  H  H13  1  0.73620400  0.65083900  0.37953400  1
  H  H14  1  0.73620400  0.84916100  0.12046700  1
  H  H15  1  0.73620400  0.65083900  0.12046700  1
  H  H16  1  0.46809200  0.51885200  0.25000000  1
  H  H17  1  0.46809200  0.98114800  0.25000000  1
  H  H18  1  0.46985500  0.25000000  0.52104900  1
  H  H19  1  0.46985500  0.25000000  0.97895100  1
  H  H20  1  0.53572600  0.48066300  0.75000000  1
  H  H21  1  0.53572600  0.01933700  0.75000000  1
  H  H22  1  0.53625400  0.75000000  0.47867900  1
  H  H23  1  0.53625400  0.75000000  0.02132100  1
  C  C0  1  0.36482700  0.61503000  0.25000000  1
  C  C1  1  0.36482700  0.88497000  0.25000000  1
  C  C2  1  0.36652900  0.25000000  0.61648000  1
  C  C3  1  0.36652900  0.25000000  0.88352000  1
  C  C4  1  0.63903300  0.38412200  0.75000000  1
  C  C5  1  0.63903300  0.11587800  0.75000000  1
  C  C6  1  0.63815300  0.75000000  0.38233800  1
  C  C7  1  0.63815300  0.75000000  0.11766200  1
  C  C8  1  0.87495600  0.15854900  0.25000000  1
  C  C9  1  0.87495600  0.34145100  0.25000000  1
  N  N0  1  0.50065200  0.75000000  0.25000000  1
  N  N1  1  0.50199300  0.25000000  0.75000000  1
  N  N2  1  0.83566900  0.25000000  0.12933500  1
  N  N3  1  0.83566900  0.25000000  0.37066500  1
loop_
_geom_bond_atom_site_label_1
_geom_bond_atom_site_label_2
_geom_bond_distance
_geom_bond_site_symmetry_2
C0 H16 1.094085 1_555
C0 H0 1.095790 1_555
C0 H2 1.095790 1_555
C0 N0 1.501433 1_555
C1 H17 1.094085 1_555
C1 H1 1.095790 1_555
C1 H3 1.095790 1_555
C1 N0 1.501433 1_555
C2 H4 1.095745 1_555
C2 H5 1.095745 1_555
C2 H18 1.095974 1_555
C2 N1 1.499470 1_555
C3 H6 1.095745 1_555
C3 H7 1.095745 1_555
C3 H19 1.095974 1_555
C3 N1 1.499470 1_555
C4 H10 1.096492 1_555
C4 H8 1.096492 1_555
C4 H20 1.096890 1_555
C4 N1 1.499594 1_555
C5 H9 1.096492 1_555
C5 H11 1.096492 1_555
C5 H21 1.096890 1_555
C5 N1 1.499594 1_555
C6 H12 1.097077 1_555
C6 H13 1.097077 1_555
C6 H22 1.097310 1_555
C6 N0 1.498096 1_555
C7 H14 1.097077 1_555
C7 H15 1.097077 1_555
C7 H23 1.097310 1_555
C7 N0 1.498096 1_555
C8 N2 1.409386 1_555
C8 N3 1.409386 1_555
C9 N2 1.409386 1_555
C9 N3 1.409386 1_555
