# generated using pymatgen
data_CsC10
_symmetry_space_group_name_H-M   'P 1'
_cell_length_a   10.40757114
_cell_length_b   10.40757114
_cell_length_c   10.40757114
_cell_angle_alpha   109.47122063
_cell_angle_beta   109.47122063
_cell_angle_gamma   109.47122063
_symmetry_Int_Tables_number   1
_chemical_formula_structural   CsC10
_chemical_formula_sum   'Cs6 C60'
_cell_volume   867.81324417
_cell_formula_units_Z   6
loop_
 _symmetry_equiv_pos_site_id
 _symmetry_equiv_pos_as_xyz
  1  'x, y, z'
loop_
 _atom_site_type_symbol
 _atom_site_label
 _atom_site_symmetry_multiplicity
 _atom_site_fract_x
 _atom_site_fract_y
 _atom_site_fract_z
 _atom_site_occupancy
  Cs  Cs0  1  0.77730700  0.27730700  0.50000000  1
  Cs  Cs1  1  0.72269300  0.50000000  0.22269300  1
  Cs  Cs2  1  0.50000000  0.22269300  0.72269300  1
  Cs  Cs3  1  0.27730700  0.50000000  0.77730700  1
  Cs  Cs4  1  0.50000000  0.77730700  0.27730700  1
  Cs  Cs5  1  0.22269300  0.72269300  0.50000000  1
  C  C0  1  0.05954000  0.29133900  0.35087800  1
  C  C1  1  0.70866100  0.76820100  0.05954000  1
  C  C2  1  0.23179900  0.94046000  0.29133900  1
  C  C3  1  0.70866100  0.64912200  0.94046000  1
  C  C4  1  0.76820100  0.05954000  0.70866100  1
  C  C5  1  0.29133900  0.23179900  0.94046000  1
  C  C6  1  0.64912200  0.94046000  0.70866100  1
  C  C7  1  0.35087800  0.05954000  0.29133900  1
  C  C8  1  0.29133900  0.35087800  0.05954000  1
  C  C9  1  0.05954000  0.70866100  0.76820100  1
  C  C10  1  0.94046000  0.29133900  0.23179900  1
  C  C11  1  0.94046000  0.70866100  0.64912200  1
  C  C12  1  0.37352200  0.21727400  0.35139400  1
  C  C13  1  0.78272600  0.15624800  0.13412000  1
  C  C14  1  0.84375200  0.62647800  0.97787200  1
  C  C15  1  0.02212800  0.64860600  0.86588000  1
  C  C16  1  0.15624800  0.13412000  0.78272600  1
  C  C17  1  0.97787200  0.84375200  0.62647800  1
  C  C18  1  0.64860600  0.86588000  0.02212800  1
  C  C19  1  0.35139400  0.37352200  0.21727400  1
  C  C20  1  0.21727400  0.35139400  0.37352200  1
  C  C21  1  0.13412000  0.78272600  0.15624800  1
  C  C22  1  0.62647800  0.97787200  0.84375200  1
  C  C23  1  0.86588000  0.02212800  0.64860600  1
  C  C24  1  0.62647800  0.78272600  0.64860600  1
  C  C25  1  0.21727400  0.84375200  0.86588000  1
  C  C26  1  0.15624800  0.37352200  0.02212800  1
  C  C27  1  0.97787200  0.35139400  0.13412000  1
  C  C28  1  0.84375200  0.86588000  0.21727400  1
  C  C29  1  0.02212800  0.15624800  0.37352200  1
  C  C30  1  0.35139400  0.13412000  0.97787200  1
  C  C31  1  0.64860600  0.62647800  0.78272600  1
  C  C32  1  0.78272600  0.64860600  0.62647800  1
  C  C33  1  0.86588000  0.21727400  0.84375200  1
  C  C34  1  0.37352200  0.02212800  0.15624800  1
  C  C35  1  0.13412000  0.97787200  0.35139400  1
  C  C36  1  0.27696400  0.25357300  0.41011400  1
  C  C37  1  0.74642700  0.02339100  0.15654100  1
  C  C38  1  0.97660900  0.72303600  0.13315000  1
  C  C39  1  0.86685000  0.58988600  0.84345900  1
  C  C40  1  0.02339100  0.15654100  0.74642700  1
  C  C41  1  0.13315000  0.97660900  0.72303600  1
  C  C42  1  0.58988600  0.84345900  0.86685000  1
  C  C43  1  0.41011400  0.27696400  0.25357300  1
  C  C44  1  0.25357300  0.41011400  0.27696400  1
  C  C45  1  0.15654100  0.74642700  0.02339100  1
  C  C46  1  0.72303600  0.13315000  0.97660900  1
  C  C47  1  0.84345900  0.86685000  0.58988600  1
  C  C48  1  0.72303600  0.74642700  0.58988600  1
  C  C49  1  0.25357300  0.97660900  0.84345900  1
  C  C50  1  0.02339100  0.27696400  0.86685000  1
  C  C51  1  0.13315000  0.41011400  0.15654100  1
  C  C52  1  0.97660900  0.84345900  0.25357300  1
  C  C53  1  0.86685000  0.02339100  0.27696400  1
  C  C54  1  0.41011400  0.15654100  0.13315000  1
  C  C55  1  0.58988600  0.72303600  0.74642700  1
  C  C56  1  0.74642700  0.58988600  0.72303600  1
  C  C57  1  0.84345900  0.25357300  0.97660900  1
  C  C58  1  0.27696400  0.86685000  0.02339100  1
  C  C59  1  0.15654100  0.13315000  0.41011400  1
loop_
_geom_bond_atom_site_label_1
_geom_bond_atom_site_label_2
_geom_bond_distance
_geom_bond_site_symmetry_2
C0 C10 1.431053 1_455
C0 C20 1.449475 1_555
C0 C29 1.449485 1_555
C0 Cs3 3.624512 1_555
C0 Cs5 3.736623 1_555
C0 Cs0 3.736631 1_455
C1 C3 1.431053 1_554
C1 C18 1.449479 1_555
C1 C28 1.449479 1_555
C1 Cs4 3.624503 1_555
C1 Cs3 3.736624 1_554
C1 Cs1 3.736624 1_555
C2 C7 1.431053 1_565
C2 C21 1.449479 1_555
C2 C35 1.449479 1_555
C2 Cs5 3.624503 1_555
C2 Cs2 3.736624 1_565
C2 Cs4 3.736624 1_555
C3 C31 1.449475 1_555
C3 Cs2 3.624512 1_555
C3 Cs3 3.736623 1_555
C3 Cs1 3.736631 1_556
C4 C6 1.431053 1_545
C4 Cs0 3.624503 1_555
C4 Cs4 3.736624 1_545
C4 Cs2 3.736624 1_555
C5 C8 1.431053 1_556
C5 Cs2 3.624503 1_555
C5 Cs3 3.736624 1_555
C5 Cs1 3.736624 1_556
C6 Cs5 3.624512 1_555
C6 Cs4 3.736623 1_555
C6 Cs2 3.736631 1_565
C7 Cs0 3.624512 1_555
C7 Cs2 3.736623 1_555
C7 Cs4 3.736631 1_545
C8 Cs4 3.624512 1_555
C8 Cs1 3.736623 1_555
C8 Cs3 3.736631 1_554
C9 Cs3 3.624503 1_555
C9 Cs0 3.736624 1_455
C9 Cs5 3.736624 1_555
C10 C13 1.449479 1_555
C10 C27 1.449479 1_555
C10 Cs1 3.624503 1_555
C10 Cs0 3.736624 1_555
C10 Cs5 3.736624 1_655
C11 C9 1.431053 1_655
C11 C32 1.449475 1_555
C11 C17 1.449485 1_555
C11 Cs1 3.624512 1_555
C11 Cs0 3.736623 1_555
C11 Cs5 3.736631 1_655
C12 C36 1.426433 1_555
C12 C43 1.445628 1_555
C12 C7 1.449475 1_555
C12 Cs2 3.617035 1_555
C12 Cs0 3.703385 1_555
C13 C37 1.426433 1_555
C13 C46 1.445628 1_554
C13 Cs0 3.617035 1_555
C13 Cs1 3.703385 1_555
C14 C38 1.426433 1_556
C14 C39 1.445628 1_555
C14 C3 1.449485 1_555
C14 Cs1 3.617035 1_556
C14 Cs2 3.703385 1_555
C15 C39 1.426433 1_455
C15 C45 1.445628 1_556
C15 C9 1.449479 1_555
C15 Cs0 3.617035 1_455
C15 Cs3 3.703385 1_555
C16 C40 1.426433 1_555
C16 C41 1.445628 1_545
C16 C5 1.449479 1_555
C16 Cs3 3.617035 1_555
C16 Cs2 3.703385 1_555
C17 C41 1.426433 1_655
C17 C47 1.445628 1_555
C17 Cs5 3.617035 1_655
C17 Cs1 3.703385 1_555
C18 C42 1.426433 1_554
C18 C37 1.445628 1_565
C18 Cs3 3.617035 1_554
C18 Cs4 3.703385 1_555
C19 C43 1.426433 1_555
C19 C44 1.445628 1_555
C19 C8 1.449475 1_555
C19 Cs1 3.617035 1_555
C19 Cs4 3.703385 1_555
C20 C44 1.426433 1_555
C20 C36 1.445628 1_555
C20 Cs5 3.617035 1_555
C20 Cs3 3.703385 1_555
C21 C45 1.426433 1_555
C21 C38 1.445628 1_455
C21 Cs4 3.617035 1_555
C21 Cs5 3.703385 1_555
C22 C46 1.426433 1_565
C22 C42 1.445628 1_555
C22 C6 1.449485 1_555
C22 Cs2 3.617035 1_565
C22 Cs5 3.703385 1_555
C23 C47 1.426433 1_545
C23 C40 1.445628 1_655
C23 C4 1.449479 1_555
C23 Cs4 3.617035 1_545
C23 Cs0 3.703385 1_555
C24 C48 1.426433 1_555
C24 C55 1.445628 1_555
C24 C6 1.449475 1_555
C24 Cs4 3.617035 1_555
C24 Cs5 3.703385 1_555
C25 C49 1.426433 1_555
C25 C58 1.445628 1_556
C25 C9 1.449479 1_555
C25 Cs5 3.617035 1_555
C25 Cs3 3.703385 1_555
C26 C50 1.426433 1_554
C26 C51 1.445628 1_555
C26 C8 1.449485 1_555
C26 Cs3 3.617035 1_554
C26 Cs4 3.703385 1_555
C27 C51 1.426433 1_655
C27 C57 1.445628 1_554
C27 Cs5 3.617035 1_655
C27 Cs1 3.703385 1_555
C28 C52 1.426433 1_555
C28 C53 1.445628 1_565
C28 Cs1 3.617035 1_555
C28 Cs4 3.703385 1_555
C29 C53 1.426433 1_455
C29 C59 1.445628 1_555
C29 Cs0 3.617035 1_455
C29 Cs3 3.703385 1_555
C30 C54 1.426433 1_556
C30 C49 1.445628 1_545
C30 C5 1.449479 1_555
C30 Cs1 3.617035 1_556
C30 Cs2 3.703385 1_555
C31 C55 1.426433 1_555
C31 C56 1.445628 1_555
C31 Cs3 3.617035 1_555
C31 Cs2 3.703385 1_555
C32 C56 1.426433 1_555
C32 C48 1.445628 1_555
C32 Cs0 3.617035 1_555
C32 Cs1 3.703385 1_555
C33 C57 1.426433 1_555
C33 C50 1.445628 1_655
C33 C4 1.449479 1_555
C33 Cs2 3.617035 1_555
C33 Cs0 3.703385 1_555
C34 C58 1.426433 1_545
C34 C54 1.445628 1_555
C34 C7 1.449485 1_555
C34 Cs4 3.617035 1_545
C34 Cs0 3.703385 1_555
C35 C59 1.426433 1_565
C35 C52 1.445628 1_455
C35 Cs2 3.617035 1_565
C35 Cs5 3.703385 1_555
C36 C59 1.447199 1_555
C36 Cs2 3.497830 1_555
C36 Cs3 3.825297 1_555
C37 C53 1.447199 1_555
C37 Cs0 3.497830 1_555
C37 Cs4 3.825297 1_545
C38 C52 1.447199 1_555
C38 Cs1 3.497830 1_555
C38 Cs5 3.825297 1_655
C39 C56 1.447199 1_555
C39 Cs0 3.497830 1_555
C39 Cs2 3.825297 1_555
C40 C50 1.447199 1_555
C40 Cs3 3.497830 1_555
C40 Cs0 3.825297 1_455
C41 C49 1.447199 1_555
C41 Cs5 3.497830 1_555
C41 Cs2 3.825297 1_565
C42 C55 1.447199 1_555
C42 Cs3 3.497830 1_555
C42 Cs5 3.825297 1_555
C43 C54 1.447199 1_555
C43 Cs1 3.497830 1_555
C43 Cs0 3.825297 1_555
C44 C51 1.447199 1_555
C44 Cs5 3.497830 1_555
C44 Cs4 3.825297 1_555
C45 C58 1.447199 1_555
C45 Cs4 3.497830 1_555
C45 Cs3 3.825297 1_554
C46 C57 1.447199 1_555
C46 Cs2 3.497830 1_555
C46 Cs1 3.825297 1_556
C47 C48 1.447199 1_555
C47 Cs4 3.497830 1_555
C47 Cs1 3.825297 1_555
C48 Cs4 3.497830 1_555
C48 Cs1 3.825297 1_555
C49 Cs5 3.497830 1_555
C49 Cs2 3.825297 1_565
C50 Cs3 3.497830 1_555
C50 Cs0 3.825297 1_455
C51 Cs5 3.497830 1_555
C51 Cs4 3.825297 1_555
C52 Cs1 3.497830 1_555
C52 Cs5 3.825297 1_655
C53 Cs0 3.497830 1_555
C53 Cs4 3.825297 1_545
C54 Cs1 3.497830 1_555
C54 Cs0 3.825297 1_555
C55 Cs3 3.497830 1_555
C55 Cs5 3.825297 1_555
C56 Cs0 3.497830 1_555
C56 Cs2 3.825297 1_555
C57 Cs2 3.497830 1_555
C57 Cs1 3.825297 1_556
C58 Cs4 3.497830 1_555
C58 Cs3 3.825297 1_554
C59 Cs2 3.497830 1_555
C59 Cs3 3.825297 1_555
