# generated using pymatgen
data_ZnSe2O5
_symmetry_space_group_name_H-M   'P 1'
_cell_length_a   6.05592413
_cell_length_b   6.79997491
_cell_length_c   10.43032051
_cell_angle_alpha   90.00000000
_cell_angle_beta   90.00000000
_cell_angle_gamma   90.00000000
_symmetry_Int_Tables_number   1
_chemical_formula_structural   ZnSe2O5
_chemical_formula_sum   'Zn4 Se8 O20'
_cell_volume   429.52197687
_cell_formula_units_Z   4
loop_
 _symmetry_equiv_pos_site_id
 _symmetry_equiv_pos_as_xyz
  1  'x, y, z'
loop_
 _atom_site_type_symbol
 _atom_site_label
 _atom_site_symmetry_multiplicity
 _atom_site_fract_x
 _atom_site_fract_y
 _atom_site_fract_z
 _atom_site_occupancy
  Zn  Zn0  1  0.75000000  0.00000000  0.94074518  1
  Zn  Zn1  1  0.25000000  0.50000000  0.55925482  1
  Zn  Zn2  1  0.25000000  0.00000000  0.05925482  1
  Zn  Zn3  1  0.75000000  0.50000000  0.44074518  1
  Se  Se0  1  0.03018686  0.36796009  0.84520162  1
  Se  Se1  1  0.53018686  0.13203991  0.65479838  1
  Se  Se2  1  0.96981314  0.86796009  0.65479838  1
  Se  Se3  1  0.46981314  0.63203991  0.84520162  1
  Se  Se4  1  0.96981314  0.63203991  0.15479838  1
  Se  Se5  1  0.46981314  0.86796009  0.34520162  1
  Se  Se6  1  0.03018686  0.13203991  0.34520162  1
  Se  Se7  1  0.53018686  0.36796009  0.15479838  1
  O  O0  1  0.75000000  0.00000000  0.56840156  1
  O  O1  1  0.25000000  0.50000000  0.93159844  1
  O  O2  1  0.25000000  0.00000000  0.43159844  1
  O  O3  1  0.75000000  0.50000000  0.06840156  1
  O  O4  1  0.16062221  0.30362671  0.70986993  1
  O  O5  1  0.66062221  0.19637329  0.79013007  1
  O  O6  1  0.83937779  0.80362671  0.79013007  1
  O  O7  1  0.33937779  0.69637329  0.70986993  1
  O  O8  1  0.83937779  0.69637329  0.29013007  1
  O  O9  1  0.33937779  0.80362671  0.20986993  1
  O  O10  1  0.16062221  0.19637329  0.20986993  1
  O  O11  1  0.66062221  0.30362671  0.29013007  1
  O  O12  1  0.04540568  0.34252094  0.43358017  1
  O  O13  1  0.54540568  0.15747906  0.06641983  1
  O  O14  1  0.95459432  0.84252094  0.06641983  1
  O  O15  1  0.45459432  0.65747906  0.43358017  1
  O  O16  1  0.95459432  0.65747906  0.56641983  1
  O  O17  1  0.45459432  0.84252094  0.93358017  1
  O  O18  1  0.04540568  0.15747906  0.93358017  1
  O  O19  1  0.54540568  0.34252094  0.56641983  1
loop_
_geom_bond_atom_site_label_1
_geom_bond_atom_site_label_2
_geom_bond_distance
_geom_bond_site_symmetry_2
O0 Se2 1.841263 1_545
O0 Se1 1.841263 1_555
O1 Se0 1.841263 1_555
O1 Se3 1.841263 1_555
O2 Se6 1.841263 1_555
O2 Se5 1.841263 1_545
O3 Se7 1.841263 1_555
O3 Se4 1.841263 1_555
O4 Se0 1.675652 1_555
O4 Zn1 2.131669 1_555
O5 Se1 1.675652 1_555
O5 Zn0 2.131669 1_555
O6 Se2 1.675652 1_555
O6 Zn0 2.131669 1_565
O7 Se3 1.675652 1_555
O7 Zn1 2.131669 1_555
O8 Se4 1.675652 1_555
O8 Zn3 2.131669 1_555
O9 Se5 1.675652 1_555
O9 Zn2 2.131669 1_565
O10 Se6 1.675652 1_555
O10 Zn2 2.131669 1_555
O11 Se7 1.675652 1_555
O11 Zn3 2.131669 1_555
O12 Se6 1.704923 1_555
O12 Zn3 2.086305 1_455
O12 Zn1 2.097650 1_555
O13 Se7 1.704923 1_555
O13 Zn2 2.086305 1_555
O13 Zn0 2.097650 1_554
O14 Se4 1.704923 1_555
O14 Zn2 2.086305 1_665
O14 Zn0 2.097650 1_564
O15 Se5 1.704923 1_555
O15 Zn3 2.086305 1_555
O15 Zn1 2.097650 1_555
O16 Se2 1.704923 1_555
O16 Zn1 2.086305 1_655
O16 Zn3 2.097650 1_555
O17 Se3 1.704923 1_555
O17 Zn0 2.086305 1_565
O17 Zn2 2.097650 1_566
O18 Se0 1.704923 1_555
O18 Zn0 2.086305 1_455
O18 Zn2 2.097650 1_556
O19 Se1 1.704923 1_555
O19 Zn1 2.086305 1_555
O19 Zn3 2.097650 1_555
