# generated using pymatgen
data_SnO
_symmetry_space_group_name_H-M   'P 1'
_cell_length_a   11.74637383
_cell_length_b   12.83885385
_cell_length_c   11.71742890
_cell_angle_alpha   89.04503959
_cell_angle_beta   92.05166865
_cell_angle_gamma   88.32496440
_symmetry_Int_Tables_number   1
_chemical_formula_structural   SnO
_chemical_formula_sum   'Sn40 O40'
_cell_volume   1764.94022930
_cell_formula_units_Z   40
loop_
 _symmetry_equiv_pos_site_id
 _symmetry_equiv_pos_as_xyz
  1  'x, y, z'
loop_
 _atom_site_type_symbol
 _atom_site_label
 _atom_site_symmetry_multiplicity
 _atom_site_fract_x
 _atom_site_fract_y
 _atom_site_fract_z
 _atom_site_occupancy
  Sn  Sn0  1  0.78933889  0.06964823  0.74896669  1
  Sn  Sn1  1  0.77873532  0.53994189  0.22713028  1
  Sn  Sn2  1  0.61558735  0.56162942  0.53404933  1
  Sn  Sn3  1  0.68515411  0.85717399  0.25555174  1
  Sn  Sn4  1  0.92921686  0.00046746  0.49176459  1
  Sn  Sn5  1  0.32013607  0.20190304  0.47270880  1
  Sn  Sn6  1  0.91460213  0.52436320  0.59940769  1
  Sn  Sn7  1  0.24282724  0.87051208  0.13075164  1
  Sn  Sn8  1  0.17119673  0.94648249  0.39695821  1
  Sn  Sn9  1  0.65678647  0.30342497  0.87212874  1
  Sn  Sn10  1  0.65688965  0.03450311  0.98998310  1
  Sn  Sn11  1  0.43639158  0.82652159  0.40792432  1
  Sn  Sn12  1  0.93493220  0.97935702  0.18487170  1
  Sn  Sn13  1  0.05187209  0.23640330  0.69140501  1
  Sn  Sn14  1  0.72650850  0.27102143  0.19146061  1
  Sn  Sn15  1  0.37610775  0.10603398  0.19029745  1
  Sn  Sn16  1  0.52630544  0.06016923  0.67837028  1
  Sn  Sn17  1  0.91874680  0.20933620  0.00496453  1
  Sn  Sn18  1  0.37068621  0.04756141  0.91831179  1
  Sn  Sn19  1  0.04805749  0.96540590  0.88148540  1
  Sn  Sn20  1  0.39888546  0.44358415  0.01170529  1
  Sn  Sn21  1  0.05694212  0.44533279  0.18841089  1
  Sn  Sn22  1  0.33211609  0.43497227  0.26368965  1
  Sn  Sn23  1  0.51035164  0.67362360  0.13429044  1
  Sn  Sn24  1  0.52336691  0.63577534  0.83078293  1
  Sn  Sn25  1  0.94252651  0.76867828  0.69532699  1
  Sn  Sn26  1  0.71968311  0.33243990  0.60510795  1
  Sn  Sn27  1  0.38112660  0.29056541  0.76392375  1
  Sn  Sn28  1  0.21347521  0.66075615  0.58674420  1
  Sn  Sn29  1  0.18118952  0.56727701  0.93261573  1
  Sn  Sn30  1  0.55908818  0.07938010  0.39390937  1
  Sn  Sn31  1  0.95095061  0.66316858  0.00113177  1
  Sn  Sn32  1  0.17542781  0.41888361  0.52166568  1
  Sn  Sn33  1  0.86944440  0.46282260  0.88883445  1
  Sn  Sn34  1  0.02981661  0.21203662  0.38802526  1
  Sn  Sn35  1  0.26440688  0.96644378  0.67389839  1
  Sn  Sn36  1  0.19507187  0.27780122  0.00657757  1
  Sn  Sn37  1  0.94084791  0.73372600  0.41109608  1
  Sn  Sn38  1  0.67295670  0.83162620  0.61943797  1
  Sn  Sn39  1  0.27574349  0.79075809  0.84428876  1
  O  O0  1  0.01071075  0.38337430  0.58717804  1
  O  O1  1  0.97427579  0.15658595  0.55060801  1
  O  O2  1  0.59433263  0.66305374  0.98719727  1
  O  O3  1  0.49262496  0.06712573  0.05520431  1
  O  O4  1  0.80289393  0.46990191  0.72308826  1
  O  O5  1  0.82680833  0.76019930  0.54858403  1
  O  O6  1  0.47341301  0.50387704  0.15406138  1
  O  O7  1  0.35766117  0.59146608  0.94685478  1
  O  O8  1  0.06276661  0.76502970  0.56233195  1
  O  O9  1  0.26289182  0.02909108  0.06541101  1
  O  O10  1  0.29955698  0.19967911  0.89422453  1
  O  O11  1  0.10201331  0.90075834  0.23156411  1
  O  O12  1  0.74151517  0.96117810  0.12716649  1
  O  O13  1  0.51404655  0.17632094  0.79959425  1
  O  O14  1  0.66455652  0.16633978  0.29661280  1
  O  O15  1  0.19895475  0.65155887  0.76632408  1
  O  O16  1  0.31641203  0.90743460  0.50901401  1
  O  O17  1  0.86146990  0.86661083  0.31228639  1
  O  O18  1  0.14676541  0.45281162  0.34369299  1
  O  O19  1  0.73818893  0.41344244  0.98115703  1
  O  O20  1  0.24270867  0.41320036  0.90892572  1
  O  O21  1  0.68546890  0.67651627  0.22299302  1
  O  O22  1  0.59508069  0.14586833  0.54813776  1
  O  O23  1  0.60193059  0.91011479  0.46661973  1
  O  O24  1  0.43785559  0.77500921  0.80051088  1
  O  O25  1  0.94406157  0.58879513  0.16212950  1
  O  O26  1  0.49185781  0.36991532  0.89656764  1
  O  O27  1  0.82081653  0.91412996  0.70684386  1
  O  O28  1  0.32715404  0.92323215  0.28484734  1
  O  O29  1  0.91851583  0.08415167  0.88341931  1
  O  O30  1  0.56941872  0.41902627  0.58486499  1
  O  O31  1  0.34421924  0.31926090  0.11285754  1
  O  O32  1  0.18522016  0.11268305  0.40020994  1
  O  O33  1  0.34477428  0.10638900  0.62788515  1
  O  O34  1  0.77398506  0.49083589  0.49025877  1
  O  O35  1  0.21420702  0.50340720  0.12877108  1
  O  O36  1  0.93554309  0.08074314  0.33009445  1
  O  O37  1  0.70962855  0.19397668  0.01809264  1
  O  O38  1  0.93662054  0.31234230  0.86604672  1
  O  O39  1  0.10812507  0.03347732  0.73655125  1
loop_
_geom_bond_atom_site_label_1
_geom_bond_atom_site_label_2
_geom_bond_distance
_geom_bond_site_symmetry_2
O0 Sn6 2.114797 1_455
O0 Sn32 2.164929 1_555
O0 Sn13 2.261279 1_555
O1 Sn13 2.146156 1_655
O1 Sn34 2.152353 1_655
O1 Sn4 2.203416 1_555
O2 Sn23 2.020864 1_556
O2 Sn24 2.026243 1_555
O3 Sn10 2.133424 1_554
O3 Sn18 2.134842 1_554
O3 Sn15 2.184028 1_555
O4 Sn33 2.066988 1_555
O4 Sn6 2.113514 1_555
O4 Sn26 2.463046 1_555
O5 Sn37 2.156713 1_555
O5 Sn25 2.159517 1_555
O5 Sn38 2.198210 1_555
O6 Sn20 2.031274 1_555
O6 Sn23 2.244361 1_555
O6 Sn22 2.321212 1_555
O7 Sn20 2.070877 1_556
O7 Sn29 2.106135 1_555
O7 Sn24 2.488077 1_555
O8 Sn25 2.140484 1_455
O8 Sn28 2.195541 1_555
O8 Sn37 2.286579 1_455
O9 Sn7 2.185389 1_545
O9 Sn18 2.188734 1_554
O9 Sn15 2.207141 1_555
O10 Sn36 2.081635 1_556
O10 Sn18 2.112193 1_555
O10 Sn27 2.172891 1_555
O11 Sn7 2.097549 1_555
O11 Sn8 2.171151 1_555
O11 Sn12 2.226740 1_455
O12 Sn10 2.058802 1_564
O12 Sn3 2.130819 1_555
O12 Sn12 2.366364 1_555
O13 Sn16 2.082043 1_555
O13 Sn27 2.136072 1_555
O13 Sn9 2.510131 1_555
O14 Sn14 1.979940 1_555
O14 Sn30 2.054410 1_555
O15 Sn28 2.118808 1_555
O15 Sn39 2.220753 1_555
O15 Sn29 2.232303 1_555
O16 Sn11 2.131522 1_555
O16 Sn8 2.156992 1_555
O16 Sn35 2.187712 1_555
O17 Sn3 2.159798 1_555
O17 Sn37 2.210084 1_555
O17 Sn12 2.272041 1_555
O18 Sn21 2.075415 1_555
O18 Sn32 2.136069 1_555
O18 Sn22 2.407400 1_555
O19 Sn33 2.025579 1_555
O19 Sn9 2.143168 1_555
O20 Sn29 2.112223 1_555
O20 Sn36 2.163493 1_556
O20 Sn20 2.206191 1_556
O21 Sn1 2.039176 1_555
O21 Sn23 2.272785 1_555
O21 Sn3 2.356788 1_555
O22 Sn30 2.047211 1_555
O22 Sn16 2.067889 1_555
O23 Sn38 2.168326 1_555
O23 Sn11 2.335963 1_555
O23 Sn30 2.354878 1_565
O24 Sn39 1.995243 1_555
O24 Sn24 2.044173 1_555
O25 Sn31 2.105358 1_555
O25 Sn1 2.214948 1_555
O25 Sn21 2.248241 1_655
O26 Sn20 1.998749 1_556
O26 Sn9 2.124879 1_555
O26 Sn27 2.265137 1_555
O27 Sn0 2.090406 1_565
O27 Sn38 2.281191 1_555
O27 Sn25 2.327134 1_555
O28 Sn7 2.156708 1_555
O28 Sn11 2.232178 1_555
O28 Sn8 2.307418 1_555
O28 Sn15 2.665361 1_565
O29 Sn19 2.123252 1_645
O29 Sn0 2.161989 1_555
O29 Sn17 2.165132 1_556
O30 Sn2 2.011348 1_555
O30 Sn26 2.062532 1_555
O31 Sn20 2.101485 1_555
O31 Sn36 2.196332 1_555
O31 Sn22 2.333230 1_555
O32 Sn5 2.141834 1_555
O32 Sn8 2.145834 1_545
O32 Sn34 2.195184 1_555
O33 Sn35 2.124488 1_545
O33 Sn5 2.181948 1_555
O33 Sn16 2.252315 1_555
O34 Sn6 2.111373 1_555
O34 Sn2 2.129851 1_555
O34 Sn26 2.529734 1_555
O35 Sn21 2.147642 1_555
O35 Sn22 2.217035 1_555
O35 Sn29 2.441395 1_554
O36 Sn4 2.146119 1_555
O36 Sn34 2.149868 1_655
O36 Sn12 2.159514 1_545
O37 Sn10 2.183199 1_554
O37 Sn9 2.253424 1_554
O37 Sn14 2.279049 1_555
O37 Sn17 2.480065 1_555
O38 Sn33 2.090382 1_555
O38 Sn17 2.100377 1_556
O38 Sn13 2.675549 1_655
O39 Sn19 2.053798 1_545
O39 Sn35 2.162126 1_545
O39 Sn13 2.707882 1_555
