# generated using pymatgen
data_Mg3Ni2O7
_symmetry_space_group_name_H-M   'P 1'
_cell_length_a   9.10295843
_cell_length_b   9.10295843
_cell_length_c   5.19731100
_cell_angle_alpha   90.00000000
_cell_angle_beta   90.00000000
_cell_angle_gamma   148.33324366
_symmetry_Int_Tables_number   1
_chemical_formula_structural   Mg3Ni2O7
_chemical_formula_sum   'Mg6 Ni4 O14'
_cell_volume   226.09182283
_cell_formula_units_Z   2
loop_
 _symmetry_equiv_pos_site_id
 _symmetry_equiv_pos_as_xyz
  1  'x, y, z'
loop_
 _atom_site_type_symbol
 _atom_site_label
 _atom_site_symmetry_multiplicity
 _atom_site_fract_x
 _atom_site_fract_y
 _atom_site_fract_z
 _atom_site_occupancy
  Mg  Mg0  1  0.22336600  0.22336600  0.32470300  1
  Mg  Mg1  1  0.77663400  0.77663400  0.82470300  1
  Mg  Mg2  1  0.05013000  0.43441800  0.17169300  1
  Mg  Mg3  1  0.94987000  0.56558200  0.67169300  1
  Mg  Mg4  1  0.43441800  0.05013000  0.17169300  1
  Mg  Mg5  1  0.56558200  0.94987000  0.67169300  1
  Ni  Ni0  1  0.84905200  0.64450500  0.25066700  1
  Ni  Ni1  1  0.15094800  0.35549500  0.75066700  1
  Ni  Ni2  1  0.35549500  0.15094800  0.75066700  1
  Ni  Ni3  1  0.64450500  0.84905200  0.25066700  1
  O  O0  1  0.65977700  0.06543300  0.29298400  1
  O  O1  1  0.34022300  0.93456700  0.79298400  1
  O  O2  1  0.93456700  0.34022300  0.79298400  1
  O  O3  1  0.06543300  0.65977700  0.29298400  1
  O  O4  1  0.41453800  0.68677700  0.95994700  1
  O  O5  1  0.58546200  0.31322300  0.45994700  1
  O  O6  1  0.31322300  0.58546200  0.45994700  1
  O  O7  1  0.68677700  0.41453800  0.95994700  1
  O  O8  1  0.98602600  0.13626600  0.05777300  1
  O  O9  1  0.01397400  0.86373400  0.55777300  1
  O  O10  1  0.61212600  0.61212600  0.18916800  1
  O  O11  1  0.38787400  0.38787400  0.68916800  1
  O  O12  1  0.13626600  0.98602600  0.05777300  1
  O  O13  1  0.86373400  0.01397400  0.55777300  1
loop_
_geom_bond_atom_site_label_1
_geom_bond_atom_site_label_2
_geom_bond_distance
_geom_bond_site_symmetry_2
Mg0 O10 2.055560 1_555
Mg0 O11 2.062982 1_555
Mg0 O12 2.074881 1_545
Mg0 O8 2.074881 1_455
Mg0 O13 2.279433 1_455
Mg0 O9 2.279433 1_545
Mg1 O11 2.055560 1_555
Mg1 O10 2.062982 1_556
Mg1 O9 2.074881 1_655
Mg1 O13 2.074881 1_565
Mg1 O8 2.279433 1_566
Mg1 O12 2.279433 1_656
Mg2 O0 1.997288 1_455
Mg2 O3 2.034386 1_555
Mg2 O2 2.044629 1_454
Mg2 O6 2.065264 1_555
Mg2 O4 2.126160 1_554
Mg2 O8 2.315449 1_455
Mg3 O1 1.997288 1_655
Mg3 O2 2.034386 1_555
Mg3 O3 2.044629 1_655
Mg3 O7 2.065264 1_555
Mg3 O5 2.126160 1_555
Mg3 O9 2.315449 1_655
Mg4 O3 1.997288 1_545
Mg4 O0 2.034386 1_555
Mg4 O1 2.044629 1_544
Mg4 O5 2.065264 1_555
Mg4 O7 2.126160 1_554
Mg4 O12 2.315449 1_545
Mg5 O2 1.997288 1_565
Mg5 O1 2.034386 1_555
Mg5 O0 2.044629 1_565
Mg5 O4 2.065264 1_555
Mg5 O6 2.126160 1_555
Mg5 O13 2.315449 1_565
Ni0 O3 1.865830 1_655
Ni0 O7 1.893013 1_554
Ni0 O12 1.915656 1_655
Ni0 O9 1.919405 1_655
Ni0 O5 1.928055 1_555
Ni0 O10 1.938667 1_555
Ni1 O2 1.865830 1_455
Ni1 O6 1.893013 1_555
Ni1 O13 1.915656 1_455
Ni1 O8 1.919405 1_456
Ni1 O4 1.928055 1_555
Ni1 O11 1.938667 1_555
Ni2 O1 1.865830 1_545
Ni2 O5 1.893013 1_555
Ni2 O9 1.915656 1_545
Ni2 O12 1.919405 1_546
Ni2 O7 1.928055 1_555
Ni2 O11 1.938667 1_555
Ni3 O0 1.865830 1_565
Ni3 O4 1.893013 1_554
Ni3 O8 1.915656 1_565
Ni3 O13 1.919405 1_565
Ni3 O6 1.928055 1_555
Ni3 O10 1.938667 1_555
