# generated using pymatgen
data_Ti3Sn5S12
_symmetry_space_group_name_H-M   'P 1'
_cell_length_a   3.61936051
_cell_length_b   9.17208410
_cell_length_c   13.81562008
_cell_angle_alpha   89.56937859
_cell_angle_beta   90.00000000
_cell_angle_gamma   90.00000000
_symmetry_Int_Tables_number   1
_chemical_formula_structural   Ti3Sn5S12
_chemical_formula_sum   'Ti3 Sn5 S12'
_cell_volume   458.62527774
_cell_formula_units_Z   1
loop_
 _symmetry_equiv_pos_site_id
 _symmetry_equiv_pos_as_xyz
  1  'x, y, z'
loop_
 _atom_site_type_symbol
 _atom_site_label
 _atom_site_symmetry_multiplicity
 _atom_site_fract_x
 _atom_site_fract_y
 _atom_site_fract_z
 _atom_site_occupancy
  Ti  Ti0  1  -0.00000000  0.15622790  0.95330712  1
  Ti  Ti1  1  0.50000000  0.33387229  0.44010609  1
  Ti  Ti2  1  0.50000000  0.84853948  0.04653239  1
  Sn  Sn0  1  0.50000000  0.95706660  0.67547772  1
  Sn  Sn1  1  0.50000000  0.44968917  0.83960441  1
  Sn  Sn2  1  0.00000000  0.04554460  0.32791922  1
  Sn  Sn3  1  -0.00000000  0.55845031  0.17085966  1
  Sn  Sn4  1  -0.00000000  0.65007083  0.55058639  1
  S  S0  1  0.50000000  0.82790225  0.49584571  1
  S  S1  1  0.50000000  0.31398634  0.01012087  1
  S  S2  1  -0.00000000  0.17974377  0.49954057  1
  S  S3  1  -0.00000000  0.68798449  0.99448648  1
  S  S4  1  -0.00000000  0.76494845  0.71859152  1
  S  S5  1  -0.00000000  0.26196445  0.79351002  1
  S  S6  1  0.50000000  0.23682187  0.28214762  1
  S  S7  1  0.50000000  0.74775297  0.21054803  1
  S  S8  1  0.50000000  0.46841056  0.60017300  1
  S  S9  1  0.50000000  0.98993344  0.89797864  1
  S  S10  1  -0.00000000  0.50784449  0.39005296  1
  S  S11  1  -0.00000000  0.01324574  0.10261159  1
loop_
_geom_bond_atom_site_label_1
_geom_bond_atom_site_label_2
_geom_bond_distance
_geom_bond_site_symmetry_2
S0 Sn4 2.547311 1_655
S0 Sn4 2.547311 1_555
S0 Sn0 2.758024 1_555
S1 Ti0 2.449866 1_654
S1 Ti0 2.449866 1_554
S1 Sn1 2.656106 1_554
S2 Ti1 2.435206 1_555
S2 Ti1 2.435206 1_455
S2 Sn2 2.679711 1_555
S3 Ti2 2.444690 1_456
S3 Ti2 2.444690 1_556
S3 Sn3 2.702886 1_556
S4 Sn4 2.556259 1_555
S4 Sn0 2.592111 1_555
S4 Sn0 2.592111 1_455
S5 Ti0 2.404641 1_555
S5 Sn1 2.581018 1_555
S5 Sn1 2.581018 1_455
S6 Ti1 2.363045 1_555
S6 Sn2 2.595401 1_555
S6 Sn2 2.595401 1_655
S7 Ti2 2.440845 1_555
S7 Sn3 2.569950 1_555
S7 Sn3 2.569950 1_655
S8 Ti1 2.540504 1_555
S8 Sn4 2.550164 1_655
S8 Sn4 2.550164 1_555
S9 Ti2 2.419519 1_556
S9 Ti0 2.490624 1_665
S9 Ti0 2.490624 1_565
S9 Sn0 3.090988 1_555
S10 Ti1 2.506545 1_555
S10 Ti1 2.506545 1_455
S10 Sn4 2.581508 1_555
S10 Sn3 3.060207 1_555
S11 Ti0 2.436000 1_554
S11 Ti2 2.484958 1_445
S11 Ti2 2.484958 1_545
