# generated using pymatgen
data_Mg16Al12V
_symmetry_space_group_name_H-M   'P 1'
_cell_length_a   9.00457005
_cell_length_b   9.00457005
_cell_length_c   9.00456959
_cell_angle_alpha   108.85703769
_cell_angle_beta   108.85703769
_cell_angle_gamma   108.85703915
_symmetry_Int_Tables_number   1
_chemical_formula_structural   Mg16Al12V
_chemical_formula_sum   'Mg16 Al12 V1'
_cell_volume   574.46477748
_cell_formula_units_Z   1
loop_
 _symmetry_equiv_pos_site_id
 _symmetry_equiv_pos_as_xyz
  1  'x, y, z'
loop_
 _atom_site_type_symbol
 _atom_site_label
 _atom_site_symmetry_multiplicity
 _atom_site_fract_x
 _atom_site_fract_y
 _atom_site_fract_z
 _atom_site_occupancy
  Mg  Mg0  1  0.00581200  0.00581200  0.00581200  1
  Mg  Mg1  1  0.99505600  0.34635300  0.99505600  1
  Mg  Mg2  1  0.68092100  0.28398700  0.68092100  1
  Mg  Mg3  1  0.40851000  0.70796800  0.40851000  1
  Mg  Mg4  1  0.31597800  0.99821800  0.59883100  1
  Mg  Mg5  1  0.40851000  0.40851000  0.70796800  1
  Mg  Mg6  1  0.99821800  0.59883100  0.31597800  1
  Mg  Mg7  1  0.99505600  0.99505600  0.34635300  1
  Mg  Mg8  1  0.28398700  0.68092100  0.68092100  1
  Mg  Mg9  1  0.59883100  0.31597800  0.99821800  1
  Mg  Mg10  1  0.99821800  0.31597800  0.59883100  1
  Mg  Mg11  1  0.68092100  0.68092100  0.28398700  1
  Mg  Mg12  1  0.34635300  0.99505600  0.99505600  1
  Mg  Mg13  1  0.31597800  0.59883100  0.99821800  1
  Mg  Mg14  1  0.70796800  0.40851000  0.40851000  1
  Mg  Mg15  1  0.59883100  0.99821800  0.31597800  1
  Al  Al0  1  0.36068400  0.17246400  0.36068400  1
  Al  Al1  1  0.18642200  0.81251000  0.18642200  1
  Al  Al2  1  0.63261700  0.99622400  0.81341300  1
  Al  Al3  1  0.81341300  0.63261700  0.99622400  1
  Al  Al4  1  0.17246400  0.36068400  0.36068400  1
  Al  Al5  1  0.63261700  0.81341300  0.99622400  1
  Al  Al6  1  0.81251000  0.18642200  0.18642200  1
  Al  Al7  1  0.18642200  0.18642200  0.81251000  1
  Al  Al8  1  0.99622400  0.81341300  0.63261700  1
  Al  Al9  1  0.36068400  0.36068400  0.17246400  1
  Al  Al10  1  0.99622400  0.63261700  0.81341300  1
  Al  Al11  1  0.81341300  0.99622400  0.63261700  1
  V  V0  1  0.69717400  0.69717400  0.69717400  1
loop_
_geom_bond_atom_site_label_1
_geom_bond_atom_site_label_2
_geom_bond_distance
_geom_bond_site_symmetry_2
Mg0 V0 2.862328 1_444
Mg0 Mg7 3.130435 1_445
Mg0 Mg12 3.130435 1_544
Mg0 Mg1 3.130435 1_454
Mg1 Mg2 3.015307 1_555
Mg1 Mg6 3.029576 1_556
Mg1 Mg13 3.029576 1_655
Mg2 Mg5 3.053044 1_555
Mg2 Mg4 3.114621 1_545
Mg2 Mg9 3.124634 1_555
Mg3 Mg8 3.053044 1_555
Mg3 V0 3.079178 1_555
Mg3 Mg4 3.146009 1_555
Mg3 Mg6 3.231601 1_455
Mg4 Mg7 3.029576 1_455
Mg4 Mg8 3.124634 1_555
Mg4 Mg9 3.213098 1_565
Mg4 Mg6 3.213098 1_455
Mg4 Mg5 3.231601 1_565
Mg5 Mg8 3.053044 1_555
Mg5 V0 3.079178 1_555
Mg5 Mg9 3.146009 1_555
Mg6 Mg8 3.114621 1_655
Mg6 Mg9 3.213098 1_554
Mg10 Mg7 3.029576 1_545
Mg10 Mg8 3.114621 1_655
Mg10 Mg2 3.124634 1_555
Mg10 Mg14 3.146009 1_555
Mg10 Mg13 3.213098 1_655
Mg10 Mg15 3.213098 1_545
Mg10 Mg5 3.231601 1_655
Mg11 Mg7 3.015307 1_555
Mg11 Mg3 3.053044 1_555
Mg11 Mg14 3.053044 1_555
Mg11 Mg9 3.114621 1_554
Mg11 Mg13 3.114621 1_554
Mg11 Mg15 3.124635 1_555
Mg11 Mg6 3.124635 1_555
Mg12 Mg8 3.015307 1_555
Mg12 Mg15 3.029576 1_556
Mg12 Mg9 3.029576 1_565
Mg13 Mg8 3.124634 1_555
Mg13 Mg5 3.146009 1_555
Mg13 Mg15 3.213098 1_556
Mg13 Mg3 3.231601 1_556
Mg14 Mg2 3.053044 1_555
Mg14 V0 3.079178 1_555
Mg14 Mg6 3.146009 1_555
Mg14 Mg9 3.231601 1_554
Mg14 Mg15 3.231601 1_545
Mg15 Mg2 3.114621 1_565
Mg15 Mg3 3.146009 1_555
Al0 Al1 2.695015 1_545
Al0 Al9 2.757133 1_555
Al0 Al4 2.757134 1_555
Al0 Mg2 2.918896 1_555
Al0 Mg5 2.953545 1_555
Al0 Mg14 2.953545 1_555
Al0 Mg4 3.089824 1_545
Al0 Mg15 3.089824 1_545
Al0 Mg12 3.098439 1_544
Al0 Mg7 3.098439 1_445
Al0 Mg0 3.142287 1_555
Al1 Al10 2.794599 1_454
Al1 Al3 2.794599 1_454
Al1 Mg6 2.925099 1_455
Al1 Mg13 2.925099 1_554
Al1 Mg3 2.955205 1_555
Al1 Mg12 3.106447 1_554
Al1 Mg7 3.106447 1_455
Al1 Mg4 3.142006 1_555
Al1 Mg15 3.142007 1_555
Al1 Mg0 3.204605 1_565
Al2 Al5 2.677900 1_555
Al2 Al6 2.794599 1_566
Al2 V0 2.875407 1_555
Al2 Mg4 2.890925 1_555
Al2 Mg9 2.991339 1_565
Al2 Mg8 2.994528 1_555
Al2 Mg1 3.135460 1_565
Al2 Mg3 3.137413 1_555
Al2 Mg2 3.151498 1_565
Al2 Mg0 3.202187 1_666
Al3 Al5 2.648383 1_555
Al3 V0 2.875407 1_555
Al3 Mg9 2.890925 1_555
Al3 Mg6 2.991339 1_556
Al3 Mg2 2.994528 1_555
Al3 Mg7 3.135460 1_556
Al3 Mg5 3.137413 1_555
Al3 Mg11 3.151498 1_556
Al3 Mg0 3.202187 1_666
Al4 Al6 2.695015 1_455
Al4 Al9 2.757133 1_555
Al4 Mg8 2.918896 1_555
Al4 Mg5 2.953545 1_555
Al4 Mg3 2.953545 1_555
Al4 Mg10 3.089824 1_455
Al4 Mg6 3.089824 1_455
Al4 Mg1 3.098439 1_454
Al4 Mg7 3.098439 1_445
Al4 Mg0 3.142287 1_555
Al5 Al6 2.794599 1_566
Al5 V0 2.875407 1_555
Al5 Mg13 2.890925 1_555
Al5 Mg15 2.991339 1_556
Al5 Mg8 2.994528 1_555
Al5 Mg7 3.135460 1_556
Al5 Mg5 3.137413 1_555
Al5 Mg11 3.151498 1_556
Al5 Mg0 3.202187 1_666
Al6 Mg15 2.925099 1_545
Al6 Mg9 2.925099 1_554
Al6 Mg14 2.955205 1_555
Al6 Mg1 3.106447 1_554
Al6 Mg7 3.106447 1_545
Al6 Mg10 3.142006 1_555
Al6 Mg6 3.142007 1_555
Al6 Mg0 3.204605 1_655
Al7 Al9 2.695014 1_556
Al7 Al8 2.794599 1_445
Al7 Mg4 2.925099 1_545
Al7 Mg10 2.925099 1_455
Al7 Mg5 2.955205 1_555
Al7 Mg12 3.106447 1_545
Al7 Mg1 3.106447 1_455
Al7 Mg9 3.142007 1_555
Al7 Mg13 3.142007 1_555
Al7 Mg0 3.204605 1_556
Al8 V0 2.875407 1_555
Al8 Mg6 2.890925 1_555
Al8 Mg4 2.991339 1_655
Al8 Mg11 2.994528 1_555
Al8 Mg12 3.135460 1_655
Al8 Mg14 3.137413 1_555
Al8 Mg8 3.151498 1_655
Al8 Mg0 3.202187 1_666
Al9 Mg11 2.918896 1_555
Al9 Mg3 2.953545 1_555
Al9 Mg14 2.953545 1_555
Al9 Mg13 3.089824 1_554
Al9 Mg9 3.089824 1_554
Al9 Mg12 3.098439 1_544
Al9 Mg1 3.098439 1_454
Al9 Mg0 3.142287 1_555
Al10 Al8 2.648383 1_555
Al10 Al3 2.677900 1_555
Al10 V0 2.875407 1_555
Al10 Mg10 2.890925 1_555
Al10 Mg13 2.991339 1_655
Al10 Mg2 2.994528 1_555
Al10 Mg12 3.135460 1_655
Al10 Mg14 3.137413 1_555
Al10 Mg8 3.151498 1_655
Al10 Mg0 3.202187 1_666
Al11 Al2 2.648383 1_555
Al11 Al8 2.677900 1_555
Al11 Al7 2.794599 1_665
Al11 V0 2.875407 1_555
Al11 Mg15 2.890925 1_555
Al11 Mg10 2.991339 1_565
Al11 Mg11 2.994528 1_555
Al11 Mg1 3.135460 1_565
Al11 Mg3 3.137413 1_555
Al11 Mg2 3.151498 1_565
Al11 Mg0 3.202187 1_666
