# generated using pymatgen
data_Li9Mn7O16
_symmetry_space_group_name_H-M   'P 1'
_cell_length_a   5.04743300
_cell_length_b   6.05686860
_cell_length_c   10.19922041
_cell_angle_alpha   103.59750737
_cell_angle_beta   100.16557028
_cell_angle_gamma   93.02857917
_symmetry_Int_Tables_number   1
_chemical_formula_structural   Li9Mn7O16
_chemical_formula_sum   'Li9 Mn7 O16'
_cell_volume   296.85623033
_cell_formula_units_Z   1
loop_
 _symmetry_equiv_pos_site_id
 _symmetry_equiv_pos_as_xyz
  1  'x, y, z'
loop_
 _atom_site_type_symbol
 _atom_site_label
 _atom_site_symmetry_multiplicity
 _atom_site_fract_x
 _atom_site_fract_y
 _atom_site_fract_z
 _atom_site_occupancy
  Li  Li0  1  0.25478700  0.63077400  0.75334100  1
  Li  Li1  1  0.25306600  0.12810600  0.24800000  1
  Li  Li2  1  0.74689300  0.37916100  0.75329700  1
  Li  Li3  1  0.74348000  0.87873400  0.24446000  1
  Li  Li4  1  0.25652000  0.12126600  0.75554000  1
  Li  Li5  1  0.25310700  0.62083900  0.24670300  1
  Li  Li6  1  0.74693400  0.87189400  0.75200000  1
  Li  Li7  1  0.74521300  0.36922600  0.24665900  1
  Li  Li8  1  0.50000000  0.00000000  0.00000000  1
  Mn  Mn0  1  0.99968900  0.75883400  0.00057300  1
  Mn  Mn1  1  0.00031100  0.24116600  0.99942700  1
  Mn  Mn2  1  0.99982900  0.24991200  0.49980600  1
  Mn  Mn3  1  0.50000000  0.50000000  0.00000000  1
  Mn  Mn4  1  0.50000000  0.00000000  0.50000000  1
  Mn  Mn5  1  0.00017100  0.75008800  0.50019400  1
  Mn  Mn6  1  0.50000000  0.50000000  0.50000000  1
  O  O0  1  0.10367300  0.94218700  0.88445300  1
  O  O1  1  0.13812700  0.42594100  0.38325000  1
  O  O2  1  0.63599100  0.67921600  0.88678700  1
  O  O3  1  0.63750100  0.17396200  0.38083900  1
  O  O4  1  0.13726900  0.43784700  0.88882200  1
  O  O5  1  0.13968900  0.92456200  0.38328300  1
  O  O6  1  0.63119300  0.22416100  0.89486100  1
  O  O7  1  0.63876700  0.67542100  0.38340100  1
  O  O8  1  0.36123300  0.32457900  0.61659900  1
  O  O9  1  0.36880700  0.77583900  0.10513900  1
  O  O10  1  0.86031100  0.07543800  0.61671700  1
  O  O11  1  0.86273100  0.56215300  0.11117800  1
  O  O12  1  0.36249900  0.82603800  0.61916100  1
  O  O13  1  0.36400900  0.32078400  0.11321300  1
  O  O14  1  0.86187300  0.57405900  0.61675000  1
  O  O15  1  0.89632700  0.05781300  0.11554700  1
loop_
_geom_bond_atom_site_label_1
_geom_bond_atom_site_label_2
_geom_bond_distance
_geom_bond_site_symmetry_2
Li0 O2 2.113972 1_555
Li0 O12 2.126719 1_555
Li0 O4 2.145224 1_555
Li0 O14 2.172475 1_455
Li0 O8 2.197007 1_555
Li0 O0 2.292108 1_555
Li1 O15 2.009573 1_455
Li1 O3 2.125108 1_555
Li1 O13 2.126599 1_555
Li1 O1 2.171790 1_555
Li1 O5 2.180636 1_545
Li1 O9 2.446862 1_545
Li2 O6 2.045520 1_555
Li2 O8 2.144674 1_555
Li2 O4 2.157083 1_655
Li2 O14 2.157726 1_555
Li2 O2 2.164024 1_555
Li2 O10 2.200047 1_555
Li3 O15 2.107272 1_565
Li3 O9 2.120012 1_555
Li3 O3 2.147702 1_565
Li3 O7 2.195465 1_555
Li3 O5 2.199588 1_655
Li3 O11 2.252137 1_555
Li4 O0 2.107272 1_545
Li4 O6 2.120012 1_555
Li4 O12 2.147702 1_545
Li4 O8 2.195465 1_555
Li4 O10 2.199588 1_455
Li4 O4 2.252137 1_555
Li5 O9 2.045520 1_555
Li5 O7 2.144674 1_555
Li5 O11 2.157083 1_455
Li5 O1 2.157726 1_555
Li5 O13 2.164024 1_555
Li5 O5 2.200047 1_555
Li6 O0 2.009573 1_655
Li6 O12 2.125108 1_555
Li6 O2 2.126599 1_555
Li6 O14 2.171790 1_555
Li6 O10 2.180636 1_565
Li6 O6 2.446862 1_565
Li7 O13 2.113972 1_555
Li7 O3 2.126719 1_555
Li7 O11 2.145224 1_555
Li7 O1 2.172475 1_655
Li7 O7 2.197007 1_555
Li7 O15 2.292108 1_555
Li8 O6 2.066884 1_554
Li8 O9 2.066884 1_545
Li8 O0 2.100708 1_544
Li8 O15 2.100708 1_555
Li8 O2 2.223802 1_544
Li8 O13 2.223802 1_555
Mn0 O0 1.920334 1_654
Mn0 O2 1.959750 1_554
Mn0 O9 1.961083 1_655
Mn0 O11 1.997426 1_555
Mn0 O15 2.060063 1_565
Mn0 O4 2.222893 1_654
Mn1 O15 1.920334 1_456
Mn1 O13 1.959750 1_556
Mn1 O6 1.961083 1_455
Mn1 O4 1.997426 1_555
Mn1 O0 2.060063 1_545
Mn1 O11 2.222893 1_456
Mn2 O8 1.960498 1_655
Mn2 O10 1.960802 1_555
Mn2 O1 1.961493 1_655
Mn2 O3 1.973283 1_555
Mn2 O14 2.258019 1_555
Mn2 O5 2.266268 1_645
Mn3 O13 1.942451 1_555
Mn3 O2 1.942451 1_554
Mn3 O4 1.942471 1_554
Mn3 O11 1.942471 1_555
Mn3 O9 1.976072 1_555
Mn3 O6 1.976072 1_554
Mn4 O10 1.955912 1_555
Mn4 O5 1.955912 1_545
Mn4 O12 1.972701 1_545
Mn4 O3 1.972701 1_555
Mn4 O7 2.260519 1_545
Mn4 O8 2.260519 1_555
Mn5 O7 1.960498 1_455
Mn5 O5 1.960802 1_555
Mn5 O14 1.961493 1_455
Mn5 O12 1.973283 1_555
Mn5 O1 2.258019 1_555
Mn5 O10 2.266268 1_465
Mn6 O8 1.960418 1_555
Mn6 O7 1.960418 1_555
Mn6 O1 1.962109 1_555
Mn6 O14 1.962109 1_555
Mn6 O3 2.274319 1_555
Mn6 O12 2.274319 1_555
