# generated using pymatgen
data_Pr(FeB)4
_symmetry_space_group_name_H-M   'P 1'
_cell_length_a   7.09354000
_cell_length_b   7.09354000
_cell_length_c   3.80708300
_cell_angle_alpha   90.00000000
_cell_angle_beta   90.00000000
_cell_angle_gamma   90.00000000
_symmetry_Int_Tables_number   1
_chemical_formula_structural   Pr(FeB)4
_chemical_formula_sum   'Pr2 Fe8 B8'
_cell_volume   191.56598157
_cell_formula_units_Z   2
loop_
 _symmetry_equiv_pos_site_id
 _symmetry_equiv_pos_as_xyz
  1  'x, y, z'
loop_
 _atom_site_type_symbol
 _atom_site_label
 _atom_site_symmetry_multiplicity
 _atom_site_fract_x
 _atom_site_fract_y
 _atom_site_fract_z
 _atom_site_occupancy
  Pr  Pr0  1  0.00000000  0.00000000  0.00000000  1
  Pr  Pr1  1  0.50000000  0.50000000  0.50000000  1
  Fe  Fe0  1  0.13288100  0.38858200  0.89383700  1
  Fe  Fe1  1  0.86711900  0.61141800  0.89383700  1
  Fe  Fe2  1  0.88858200  0.36711900  0.39383700  1
  Fe  Fe3  1  0.11141800  0.63288100  0.39383700  1
  Fe  Fe4  1  0.36711900  0.11141800  0.60616300  1
  Fe  Fe5  1  0.63288100  0.88858200  0.60616300  1
  Fe  Fe6  1  0.61141800  0.13288100  0.10616300  1
  Fe  Fe7  1  0.38858200  0.86711900  0.10616300  1
  B  B0  1  0.66500600  0.79658900  0.10518300  1
  B  B1  1  0.33499400  0.20341100  0.10518300  1
  B  B2  1  0.29658900  0.83499400  0.60518300  1
  B  B3  1  0.70341100  0.16500600  0.60518300  1
  B  B4  1  0.83499400  0.70341100  0.39481700  1
  B  B5  1  0.16500600  0.29658900  0.39481700  1
  B  B6  1  0.20341100  0.66500600  0.89481700  1
  B  B7  1  0.79658900  0.33499400  0.89481700  1
loop_
_geom_bond_atom_site_label_1
_geom_bond_atom_site_label_2
_geom_bond_distance
_geom_bond_site_symmetry_2
Fe0 Pr0 2.941038 1_556
Fe0 Pr1 3.107166 1_555
Fe1 Pr0 2.941038 1_666
Fe1 Pr1 3.107166 1_555
Fe2 Pr1 2.941038 1_555
Fe2 Pr0 3.107166 1_655
Fe3 Pr1 2.941038 1_555
Fe3 Pr0 3.107166 1_565
Fe4 Pr1 2.941038 1_555
Fe4 Pr0 3.107166 1_556
Fe5 Pr1 2.941038 1_555
Fe5 Pr0 3.107166 1_666
Fe6 Pr0 2.941038 1_655
Fe6 Pr1 3.107166 1_555
Fe7 Pr0 2.941038 1_565
Fe7 Pr1 3.107166 1_555
B0 B4 1.762590 1_555
B0 Fe5 2.021643 1_554
B0 Fe7 2.023649 1_555
B0 Fe5 2.028656 1_555
B0 Fe1 2.104333 1_554
B0 Fe6 2.415600 1_565
B0 Pr0 2.808753 1_665
B0 Pr1 2.838235 1_555
B0 Pr1 3.332357 1_554
B1 B5 1.762590 1_555
B1 Fe4 2.021643 1_554
B1 Fe6 2.023649 1_555
B1 Fe4 2.028656 1_555
B1 Fe0 2.104333 1_554
B1 Fe7 2.415600 1_545
B1 Pr0 2.808753 1_555
B1 Pr1 2.838235 1_555
B1 Pr1 3.332357 1_554
B2 B6 1.762590 1_555
B2 Fe7 2.021643 1_555
B2 Fe4 2.023649 1_565
B2 Fe7 2.028656 1_556
B2 Fe3 2.104333 1_555
B2 Fe5 2.415600 1_555
B2 Pr1 2.808753 1_555
B2 Pr0 2.838235 1_566
B2 Pr0 3.332357 1_565
B3 B7 1.762590 1_555
B3 Fe6 2.021643 1_555
B3 Fe5 2.023649 1_545
B3 Fe6 2.028656 1_556
B3 Fe2 2.104333 1_555
B3 Fe4 2.415600 1_555
B3 Pr1 2.808753 1_555
B3 Pr0 2.838235 1_656
B3 Pr0 3.332357 1_655
B4 Fe1 2.021643 1_555
B4 Fe3 2.023649 1_655
B4 Fe1 2.028656 1_554
B4 Fe5 2.104333 1_555
B4 Fe2 2.415600 1_555
B4 Pr1 2.808753 1_555
B4 Pr0 2.838235 1_665
B4 Pr0 3.332357 1_666
B5 Fe0 2.021643 1_555
B5 Fe2 2.023649 1_455
B5 Fe0 2.028656 1_554
B5 Fe4 2.104333 1_555
B5 Fe3 2.415600 1_555
B5 Pr1 2.808753 1_555
B5 Pr0 2.838235 1_555
B5 Pr0 3.332357 1_556
B6 Fe3 2.021643 1_556
B6 Fe0 2.023649 1_555
B6 Fe3 2.028656 1_555
B6 Fe7 2.104333 1_556
B6 Fe1 2.415600 1_455
B6 Pr0 2.808753 1_566
B6 Pr1 2.838235 1_555
B6 Pr1 3.332357 1_556
B7 Fe2 2.021643 1_556
B7 Fe1 2.023649 1_555
B7 Fe2 2.028656 1_555
B7 Fe6 2.104333 1_556
B7 Fe0 2.415600 1_655
B7 Pr0 2.808753 1_656
B7 Pr1 2.838235 1_555
B7 Pr1 3.332357 1_556
