# generated using pymatgen
data_LaZnNi4
_symmetry_space_group_name_H-M   'P 1'
_cell_length_a   3.90914670
_cell_length_b   5.07522614
_cell_length_c   5.07518032
_cell_angle_alpha   119.99453048
_cell_angle_beta   90.00000000
_cell_angle_gamma   90.00000000
_symmetry_Int_Tables_number   1
_chemical_formula_structural   LaZnNi4
_chemical_formula_sum   'La1 Zn1 Ni4'
_cell_volume   87.20540612
_cell_formula_units_Z   1
loop_
 _symmetry_equiv_pos_site_id
 _symmetry_equiv_pos_as_xyz
  1  'x, y, z'
loop_
 _atom_site_type_symbol
 _atom_site_label
 _atom_site_symmetry_multiplicity
 _atom_site_fract_x
 _atom_site_fract_y
 _atom_site_fract_z
 _atom_site_occupancy
  La  La0  1  0.00000000  0.99998244  0.00000535  1
  Zn  Zn0  1  0.00000000  0.33332871  0.66666628  1
  Ni  Ni0  1  0.00000000  0.66659864  0.33334278  1
  Ni  Ni1  1  0.50000000  0.50310453  0.00621069  1
  Ni  Ni2  1  0.50000000  0.50310872  0.49688815  1
  Ni  Ni3  1  0.50000000  0.99377797  0.49688675  1
loop_
_geom_bond_atom_site_label_1
_geom_bond_atom_site_label_2
_geom_bond_distance
_geom_bond_site_symmetry_2
La0 Ni0 2.930123 1_565
La0 Zn0 2.930171 1_564
La0 Zn0 2.930288 1_554
La0 Zn0 2.930293 1_565
La0 Ni0 2.930300 1_554
La0 Ni0 2.930329 1_555
La0 Ni3 3.203128 1_555
La0 Ni3 3.203128 1_455
La0 Ni1 3.203134 1_555
La0 Ni1 3.203134 1_455
La0 Ni3 3.203264 1_454
La0 Ni3 3.203264 1_554
La0 Ni1 3.203294 1_465
La0 Ni1 3.203294 1_565
La0 Ni2 3.203354 1_554
La0 Ni2 3.203354 1_454
La0 Ni2 3.203391 1_565
La0 Ni2 3.203391 1_465
Ni0 Ni2 2.426185 1_455
Ni0 Ni2 2.426185 1_555
Ni0 Ni1 2.426503 1_455
Ni0 Ni1 2.426503 1_555
Ni0 Ni3 2.426634 1_555
Ni0 Ni3 2.426634 1_455
Ni0 Zn0 2.929767 1_555
Ni0 Zn0 2.930361 1_554
Ni0 Zn0 2.930623 1_565
Ni1 Zn0 2.459226 1_654
Ni1 Zn0 2.459226 1_554
Ni1 Ni2 2.490266 1_555
Ni1 Ni3 2.490480 1_555
Ni1 Ni2 2.584914 1_554
Ni1 Ni3 2.585143 1_544
Ni2 Zn0 2.459192 1_555
Ni2 Zn0 2.459192 1_655
Ni2 Ni3 2.490261 1_555
Ni2 Ni3 2.584965 1_545
Ni3 Zn0 2.459251 1_565
Ni3 Zn0 2.459251 1_665
