# generated using pymatgen
data_Mg2Cd
_symmetry_space_group_name_H-M   'P 1'
_cell_length_a   5.95982540
_cell_length_b   5.95982540
_cell_length_c   5.95982481
_cell_angle_alpha   53.98859608
_cell_angle_beta   53.98859608
_cell_angle_gamma   53.98861348
_symmetry_Int_Tables_number   1
_chemical_formula_structural   Mg2Cd
_chemical_formula_sum   'Mg4 Cd2'
_cell_volume   128.66878907
_cell_formula_units_Z   2
loop_
 _symmetry_equiv_pos_site_id
 _symmetry_equiv_pos_as_xyz
  1  'x, y, z'
loop_
 _atom_site_type_symbol
 _atom_site_label
 _atom_site_symmetry_multiplicity
 _atom_site_fract_x
 _atom_site_fract_y
 _atom_site_fract_z
 _atom_site_occupancy
  Mg  Mg0  1  0.00000000  0.66830229  0.33169771  1
  Mg  Mg1  1  0.66830229  0.33169771  0.00000000  1
  Mg  Mg2  1  0.50000000  0.50000000  0.50000000  1
  Mg  Mg3  1  0.33169771  1.00000000  0.66830229  1
  Cd  Cd0  1  0.83446932  0.83446932  0.83446932  1
  Cd  Cd1  1  0.16553068  0.16553068  0.16553068  1
loop_
_geom_bond_atom_site_label_1
_geom_bond_atom_site_label_2
_geom_bond_distance
_geom_bond_site_symmetry_2
Mg0 Mg3 3.108340 1_554
Mg0 Mg1 3.108341 1_465
Mg0 Mg2 3.115931 1_455
Mg0 Mg2 3.115931 1_555
Mg0 Mg1 3.131359 1_456
Mg0 Mg3 3.131360 1_545
Mg0 Mg3 3.131360 1_455
Mg0 Mg1 3.131360 1_555
Mg1 Mg3 3.108341 1_644
Mg1 Mg2 3.115931 1_555
Mg1 Mg2 3.115931 1_554
Mg1 Mg3 3.131359 1_545
Mg1 Mg3 3.131360 1_554
Mg2 Mg3 3.115931 1_545
Mg2 Mg3 3.115931 1_555
Cd0 Mg0 3.094131 1_656
Cd0 Mg3 3.094131 1_655
Cd0 Mg1 3.094132 1_566
Cd0 Mg2 3.123715 1_556
Cd0 Mg2 3.123716 1_565
Cd0 Mg2 3.123716 1_655
Cd0 Cd1 3.123859 1_665
Cd0 Cd1 3.123860 1_656
Cd0 Cd1 3.123860 1_566
Cd0 Mg0 3.130035 1_655
Cd0 Mg1 3.130035 1_556
Cd0 Mg3 3.130036 1_555
Cd1 Mg3 3.094131 1_544
Cd1 Mg0 3.094131 1_545
Cd1 Mg1 3.094132 1_455
Cd1 Mg2 3.123715 1_554
Cd1 Mg2 3.123716 1_545
Cd1 Mg2 3.123716 1_455
Cd1 Mg3 3.130035 1_545
Cd1 Mg1 3.130035 1_555
Cd1 Mg0 3.130036 1_555
