# generated using pymatgen
data_Li3CrCo3O8
_symmetry_space_group_name_H-M   'P 1'
_cell_length_a   5.88139084
_cell_length_b   5.89046378
_cell_length_c   10.40007773
_cell_angle_alpha   73.20469579
_cell_angle_beta   106.77783568
_cell_angle_gamma   121.28246719
_symmetry_Int_Tables_number   1
_chemical_formula_structural   Li3CrCo3O8
_chemical_formula_sum   'Li6 Cr2 Co6 O16'
_cell_volume   290.52333001
_cell_formula_units_Z   2
loop_
 _symmetry_equiv_pos_site_id
 _symmetry_equiv_pos_as_xyz
  1  'x, y, z'
loop_
 _atom_site_type_symbol
 _atom_site_label
 _atom_site_symmetry_multiplicity
 _atom_site_fract_x
 _atom_site_fract_y
 _atom_site_fract_z
 _atom_site_occupancy
  Li  Li0  1  0.25353200  0.24773800  0.25112000  1
  Li  Li1  1  0.74636200  0.75218500  0.74890400  1
  Li  Li2  1  0.75237900  0.74489300  0.25066600  1
  Li  Li3  1  0.24750300  0.25499600  0.74932400  1
  Li  Li4  1  0.25063100  0.75146500  0.25410600  1
  Li  Li5  1  0.74921000  0.24842400  0.74589500  1
  Cr  Cr0  1  0.49999800  0.49994700  0.49997700  1
  Cr  Cr1  1  0.00013900  0.99983000  0.00002500  1
  Co  Co0  1  0.49992600  0.49994000  0.99998100  1
  Co  Co1  1  0.00006300  0.00003100  0.50001600  1
  Co  Co2  1  0.49994800  0.99994900  0.00000200  1
  Co  Co3  1  0.99996900  0.50000300  0.49999700  1
  Co  Co4  1  0.99999900  0.49996700  0.99999500  1
  Co  Co5  1  0.49998700  0.00006100  0.50000300  1
  O  O0  1  0.37936800  0.62063000  0.11176800  1
  O  O1  1  0.87213400  0.12970000  0.62034900  1
  O  O2  1  0.12782100  0.87030600  0.37965000  1
  O  O3  1  0.62060200  0.37928600  0.88824300  1
  O  O4  1  0.37250600  0.14785500  0.10607300  1
  O  O5  1  0.87260900  0.64221400  0.60842300  1
  O  O6  1  0.85256400  0.62795800  0.10603600  1
  O  O7  1  0.35529900  0.13110000  0.60911700  1
  O  O8  1  0.86790400  0.13211200  0.10472900  1
  O  O9  1  0.37160700  0.63186900  0.60657800  1
  O  O10  1  0.62842000  0.36825900  0.39347400  1
  O  O11  1  0.13208700  0.86779900  0.89529100  1
  O  O12  1  0.64481200  0.86922200  0.39081800  1
  O  O13  1  0.14750900  0.37216600  0.89389600  1
  O  O14  1  0.12764200  0.35799600  0.39165200  1
  O  O15  1  0.62747000  0.85209900  0.89389300  1
loop_
_geom_bond_atom_site_label_1
_geom_bond_atom_site_label_2
_geom_bond_distance
_geom_bond_site_symmetry_2
Li0 O2 2.102937 1_545
Li0 O0 2.136376 1_555
Li0 O10 2.157442 1_555
Li0 O4 2.158985 1_555
Li0 O14 2.186054 1_555
Li0 O8 2.219752 1_455
Li1 O1 2.103382 1_565
Li1 O3 2.136334 1_555
Li1 O9 2.156793 1_555
Li1 O15 2.158255 1_555
Li1 O5 2.185917 1_555
Li1 O11 2.220113 1_655
Li2 O2 2.095131 1_655
Li2 O0 2.132880 1_555
Li2 O6 2.148503 1_555
Li2 O12 2.166008 1_555
Li2 O10 2.168067 1_555
Li2 O8 2.225539 1_565
Li3 O1 2.094802 1_455
Li3 O3 2.133325 1_555
Li3 O13 2.148176 1_555
Li3 O7 2.165645 1_555
Li3 O9 2.168672 1_555
Li3 O11 2.225620 1_545
Li4 O2 2.077085 1_555
Li4 O12 2.207779 1_555
Li4 O14 2.209434 1_555
Li4 O4 2.270999 1_565
Li4 O6 2.275749 1_455
Li4 O0 2.295861 1_555
Li5 O1 2.077093 1_555
Li5 O7 2.207078 1_555
Li5 O5 2.210332 1_555
Li5 O15 2.270589 1_545
Li5 O13 2.276295 1_655
Li5 O3 2.295535 1_555
Cr0 O7 1.986307 1_555
Cr0 O12 1.988180 1_555
Cr0 O14 1.995662 1_555
Cr0 O10 1.996757 1_555
Cr0 O5 1.997225 1_555
Cr0 O9 1.998441 1_555
Cr1 O6 1.987330 1_455
Cr1 O4 1.987737 1_565
Cr1 O15 1.989277 1_454
Cr1 O13 1.989701 1_564
Cr1 O11 1.999473 1_554
Cr1 O8 2.001601 1_465
Co0 O13 1.902471 1_555
Co0 O4 1.902923 1_556
Co0 O15 1.903217 1_555
Co0 O6 1.903281 1_556
Co0 O3 1.958721 1_555
Co0 O0 1.958782 1_556
Co1 O7 1.926420 1_555
Co1 O12 1.926866 1_445
Co1 O5 1.936309 1_445
Co1 O14 1.936759 1_555
Co1 O2 2.099445 1_545
Co1 O1 2.099654 1_455
Co2 O11 1.963010 1_554
Co2 O8 1.963478 1_565
Co2 O0 2.043484 1_555
Co2 O3 2.043513 1_564
Co2 O4 2.061248 1_565
Co2 O15 2.061644 1_554
Co3 O10 1.985659 1_555
Co3 O9 1.986244 1_655
Co3 O2 2.037669 1_655
Co3 O1 2.037691 1_555
Co3 O14 2.053950 1_655
Co3 O5 2.054155 1_555
Co4 O11 1.964866 1_655
Co4 O8 1.965075 1_556
Co4 O0 2.041555 1_656
Co4 O3 2.041595 1_555
Co4 O13 2.061056 1_655
Co4 O6 2.061085 1_556
Co5 O10 1.973601 1_555
Co5 O9 1.973753 1_545
Co5 O1 2.043350 1_555
Co5 O2 2.043454 1_545
Co5 O7 2.086517 1_555
Co5 O12 2.086824 1_545
