# generated using pymatgen
data_LiFeF6
_symmetry_space_group_name_H-M   'P 1'
_cell_length_a   4.62468295
_cell_length_b   4.62468295
_cell_length_c   8.34729244
_cell_angle_alpha   90.00000000
_cell_angle_beta   90.00000000
_cell_angle_gamma   89.99997597
_symmetry_Int_Tables_number   1
_chemical_formula_structural   LiFeF6
_chemical_formula_sum   'Li2 Fe2 F12'
_cell_volume   178.52932298
_cell_formula_units_Z   2
loop_
 _symmetry_equiv_pos_site_id
 _symmetry_equiv_pos_as_xyz
  1  'x, y, z'
loop_
 _atom_site_type_symbol
 _atom_site_label
 _atom_site_symmetry_multiplicity
 _atom_site_fract_x
 _atom_site_fract_y
 _atom_site_fract_z
 _atom_site_occupancy
  Li  Li0  1  0.50000000  0.50000000  0.51591622  1
  Li  Li1  1  0.00000000  -0.00000000  0.01591622  1
  Fe  Fe0  1  0.50000000  0.50000000  0.16247853  1
  Fe  Fe1  1  0.00000000  -0.00000000  0.66247853  1
  F  F0  1  0.23164439  0.76835561  0.16237740  1
  F  F1  1  0.76835561  0.23164439  0.16237740  1
  F  F2  1  0.26835461  0.26835461  0.66237740  1
  F  F3  1  0.73164539  0.73164539  0.66237740  1
  F  F4  1  0.81649779  0.18350221  0.81607850  1
  F  F5  1  0.18350221  0.81649779  0.81607850  1
  F  F6  1  0.68350221  0.68350221  0.31607850  1
  F  F7  1  0.31649779  0.31649779  0.31607850  1
  F  F8  1  0.19198232  0.80801768  0.51569723  1
  F  F9  1  0.80801768  0.19198232  0.51569723  1
  F  F10  1  0.30801668  0.30801668  0.01569723  1
  F  F11  1  0.69198332  0.69198332  0.01569723  1
loop_
_geom_bond_atom_site_label_1
_geom_bond_atom_site_label_2
_geom_bond_distance
_geom_bond_site_symmetry_2
F0 Fe0 1.755123 1_555
F0 Li1 1.946774 1_565
F1 Fe0 1.755123 1_555
F1 Li1 1.946774 1_655
F2 Fe1 1.755117 1_555
F2 Li0 1.946779 1_555
F3 Fe1 1.755117 1_665
F3 Li0 1.946779 1_555
F4 Fe1 1.756209 1_655
F4 Li1 2.054981 1_656
F5 Fe1 1.756209 1_565
F5 Li1 2.054981 1_566
F6 Fe0 1.756209 1_555
F6 Li0 2.054982 1_555
F7 Fe0 1.756209 1_555
F7 Li0 2.054982 1_555
F8 Fe1 1.754355 1_565
F8 Li0 2.014525 1_555
F9 Fe1 1.754355 1_655
F9 Li0 2.014525 1_555
F10 Fe0 1.754360 1_555
F10 Li1 2.014519 1_555
F11 Fe0 1.754360 1_555
F11 Li1 2.014519 1_665
