# generated using pymatgen
data_Li9Mn2Co5O16
_symmetry_space_group_name_H-M   'P 1'
_cell_length_a   5.66431861
_cell_length_b   10.04904372
_cell_length_c   5.94422673
_cell_angle_alpha   91.69596701
_cell_angle_beta   118.45732730
_cell_angle_gamma   73.52279516
_symmetry_Int_Tables_number   1
_chemical_formula_structural   Li9Mn2Co5O16
_chemical_formula_sum   'Li9 Mn2 Co5 O16'
_cell_volume   283.00804820
_cell_formula_units_Z   1
loop_
 _symmetry_equiv_pos_site_id
 _symmetry_equiv_pos_as_xyz
  1  'x, y, z'
loop_
 _atom_site_type_symbol
 _atom_site_label
 _atom_site_symmetry_multiplicity
 _atom_site_fract_x
 _atom_site_fract_y
 _atom_site_fract_z
 _atom_site_occupancy
  Li  Li0  1  0.00002400  0.25551400  0.75291800  1
  Li  Li1  1  0.50188900  0.74831300  0.24887300  1
  Li  Li2  1  0.99390600  0.25771500  0.24301500  1
  Li  Li3  1  0.50634000  0.74243200  0.75314200  1
  Li  Li4  1  0.49366000  0.25756800  0.24685800  1
  Li  Li5  1  0.00609400  0.74228500  0.75698500  1
  Li  Li6  1  0.49811100  0.25168700  0.75112700  1
  Li  Li7  1  0.99997600  0.74448600  0.24708200  1
  Li  Li8  1  0.50000000  0.50000000  0.50000000  1
  Mn  Mn0  1  0.00000000  0.00000000  0.00000000  1
  Mn  Mn1  1  0.00000000  0.00000000  0.50000000  1
  Co  Co0  1  0.50000000  0.50000000  0.00000000  1
  Co  Co1  1  0.50000000  0.00000000  0.50000000  1
  Co  Co2  1  0.00000000  0.50000000  0.00000000  1
  Co  Co3  1  0.50000000  0.00000000  0.00000000  1
  Co  Co4  1  0.00000000  0.50000000  0.50000000  1
  O  O0  1  0.25264900  0.11505900  0.11241000  1
  O  O1  1  0.79592200  0.59956500  0.66161800  1
  O  O2  1  0.24825600  0.11828100  0.60586800  1
  O  O3  1  0.74223100  0.61761000  0.10214500  1
  O  O4  1  0.73819200  0.12175800  0.60106600  1
  O  O5  1  0.24860600  0.60954600  0.10692900  1
  O  O6  1  0.74020200  0.11713500  0.10390100  1
  O  O7  1  0.26561800  0.60006900  0.66157100  1
  O  O8  1  0.73438200  0.39993100  0.33842900  1
  O  O9  1  0.25979800  0.88286500  0.89609900  1
  O  O10  1  0.75139400  0.39045400  0.89307100  1
  O  O11  1  0.26180800  0.87824200  0.39893400  1
  O  O12  1  0.25776900  0.38239000  0.89785500  1
  O  O13  1  0.75174400  0.88171900  0.39413200  1
  O  O14  1  0.20407800  0.40043500  0.33838200  1
  O  O15  1  0.74735100  0.88494100  0.88759000  1
loop_
_geom_bond_atom_site_label_1
_geom_bond_atom_site_label_2
_geom_bond_distance
_geom_bond_site_symmetry_2
Li0 O12 2.071590 1_555
Li0 O10 2.117584 1_455
Li0 O4 2.145744 1_455
Li0 O2 2.154727 1_555
Li0 O0 2.173669 1_556
Li0 O8 2.424967 1_455
Li1 O3 2.094901 1_555
Li1 O13 2.094970 1_555
Li1 O11 2.104659 1_555
Li1 O9 2.116966 1_554
Li1 O5 2.150904 1_555
Li1 O1 2.436861 1_555
Li2 O14 2.018118 1_655
Li2 O8 2.019879 1_555
Li2 O10 2.096407 1_554
Li2 O0 2.152305 1_655
Li2 O6 2.166710 1_555
Li2 O2 2.182525 1_655
Li3 O3 2.055256 1_556
Li3 O1 2.125094 1_555
Li3 O11 2.129005 1_555
Li3 O15 2.134185 1_555
Li3 O7 2.134311 1_555
Li3 O9 2.146121 1_555
Li4 O12 2.055256 1_554
Li4 O14 2.125094 1_555
Li4 O4 2.129005 1_555
Li4 O0 2.134185 1_555
Li4 O8 2.134311 1_555
Li4 O6 2.146121 1_555
Li5 O1 2.018118 1_455
Li5 O7 2.019879 1_555
Li5 O5 2.096407 1_556
Li5 O15 2.152305 1_455
Li5 O9 2.166710 1_555
Li5 O13 2.182525 1_455
Li6 O12 2.094901 1_555
Li6 O2 2.094970 1_555
Li6 O4 2.104659 1_555
Li6 O6 2.116966 1_556
Li6 O10 2.150904 1_555
Li6 O14 2.436861 1_555
Li7 O3 2.071590 1_555
Li7 O5 2.117584 1_655
Li7 O11 2.145744 1_655
Li7 O13 2.154727 1_555
Li7 O15 2.173669 1_554
Li7 O7 2.424967 1_655
Li8 O1 2.023229 1_555
Li8 O14 2.023229 1_555
Li8 O8 2.024063 1_555
Li8 O7 2.024063 1_555
Li8 O10 2.188842 1_555
Li8 O5 2.188842 1_555
Mn0 O6 1.942433 1_455
Mn0 O9 1.942433 1_544
Mn0 O0 1.952681 1_555
Mn0 O15 1.952681 1_444
Mn0 O4 2.260674 1_454
Mn0 O11 2.260674 1_545
Mn1 O4 1.957908 1_455
Mn1 O11 1.957908 1_545
Mn1 O13 1.961313 1_445
Mn1 O2 1.961313 1_555
Mn1 O6 2.230290 1_455
Mn1 O9 2.230290 1_545
Co0 O5 1.890888 1_555
Co0 O10 1.890888 1_554
Co0 O7 1.907322 1_554
Co0 O8 1.907322 1_555
Co0 O3 1.931717 1_555
Co0 O12 1.931717 1_554
Co1 O2 1.921360 1_555
Co1 O13 1.921360 1_545
Co1 O4 1.949053 1_555
Co1 O11 1.949053 1_545
Co1 O0 2.184122 1_555
Co1 O15 2.184122 1_545
Co2 O10 1.893084 1_454
Co2 O5 1.893084 1_555
Co2 O1 1.905333 1_454
Co2 O14 1.905333 1_555
Co2 O3 1.928942 1_455
Co2 O12 1.928942 1_554
Co3 O15 1.916734 1_544
Co3 O0 1.916734 1_555
Co3 O9 1.919067 1_544
Co3 O6 1.919067 1_555
Co3 O13 2.225874 1_545
Co3 O2 2.225874 1_554
Co4 O14 1.898843 1_555
Co4 O1 1.898843 1_455
Co4 O7 1.902967 1_555
Co4 O8 1.902967 1_455
Co4 O3 2.239956 1_455
Co4 O12 2.239956 1_555
