# generated using pymatgen
data_ZnS
_symmetry_space_group_name_H-M   'P 1'
_cell_length_a   12.95682061
_cell_length_b   13.58353760
_cell_length_c   13.53005066
_cell_angle_alpha   88.39182336
_cell_angle_beta   86.95992094
_cell_angle_gamma   95.61167590
_symmetry_Int_Tables_number   1
_chemical_formula_structural   ZnS
_chemical_formula_sum   'Zn50 S50'
_cell_volume   2365.20921388
_cell_formula_units_Z   50
loop_
 _symmetry_equiv_pos_site_id
 _symmetry_equiv_pos_as_xyz
  1  'x, y, z'
loop_
 _atom_site_type_symbol
 _atom_site_label
 _atom_site_symmetry_multiplicity
 _atom_site_fract_x
 _atom_site_fract_y
 _atom_site_fract_z
 _atom_site_occupancy
  Zn  Zn0  1  0.04209631  0.15666733  0.68589438  1
  Zn  Zn1  1  0.34058800  0.57141437  0.54771927  1
  Zn  Zn2  1  0.73334010  0.08260422  0.94542141  1
  Zn  Zn3  1  0.70923686  0.45217029  0.44683243  1
  Zn  Zn4  1  0.07765764  0.83107084  0.65090068  1
  Zn  Zn5  1  0.43501483  0.03087352  0.46247870  1
  Zn  Zn6  1  0.93599142  0.55311589  0.29001007  1
  Zn  Zn7  1  0.36004576  0.96044578  0.19850181  1
  Zn  Zn8  1  0.57330991  0.52419553  0.98652397  1
  Zn  Zn9  1  0.64947403  0.88813775  0.13714100  1
  Zn  Zn10  1  0.91421975  0.31400780  0.54754337  1
  Zn  Zn11  1  0.48058323  0.95680566  0.93528176  1
  Zn  Zn12  1  0.10186231  0.92347196  0.23021459  1
  Zn  Zn13  1  0.93104080  0.29533886  0.73993344  1
  Zn  Zn14  1  0.52749960  0.88588671  0.52453059  1
  Zn  Zn15  1  0.43362305  0.72012087  0.05336827  1
  Zn  Zn16  1  0.00126403  0.80668194  0.81749877  1
  Zn  Zn17  1  0.04506226  0.06294636  0.47803039  1
  Zn  Zn18  1  0.29632131  0.17741942  0.08287683  1
  Zn  Zn19  1  0.40006087  0.57149517  0.21951242  1
  Zn  Zn20  1  0.11238903  0.26481109  0.81995332  1
  Zn  Zn21  1  0.17454548  0.03202885  0.94605400  1
  Zn  Zn22  1  0.59498137  0.21651633  0.55161491  1
  Zn  Zn23  1  0.46385815  0.82181966  0.69953358  1
  Zn  Zn24  1  0.54930290  0.56980278  0.64043510  1
  Zn  Zn25  1  0.94918436  0.56708518  0.89169016  1
  Zn  Zn26  1  0.47547789  0.11192736  0.75769521  1
  Zn  Zn27  1  0.63494757  0.51596553  0.21425798  1
  Zn  Zn28  1  0.74389625  0.18440554  0.40820236  1
  Zn  Zn29  1  0.43453252  0.26801130  0.97670007  1
  Zn  Zn30  1  0.00020339  0.80033391  0.43849740  1
  Zn  Zn31  1  0.63432270  0.93231272  0.67462831  1
  Zn  Zn32  1  0.98334360  0.13946551  0.10726405  1
  Zn  Zn33  1  0.48260067  0.20422958  0.15714358  1
  Zn  Zn34  1  0.65597686  0.29218810  0.86701534  1
  Zn  Zn35  1  0.30633622  0.70029361  0.87420875  1
  Zn  Zn36  1  0.81116890  0.93148392  0.30342617  1
  Zn  Zn37  1  0.22822877  0.33255867  0.55420561  1
  Zn  Zn38  1  0.25469309  0.56288879  0.76556888  1
  Zn  Zn39  1  0.84593605  0.34425787  0.24563228  1
  Zn  Zn40  1  0.74906196  0.62153513  0.82581689  1
  Zn  Zn41  1  0.58386071  0.98019263  0.34776977  1
  Zn  Zn42  1  0.47543533  0.42650011  0.42343594  1
  Zn  Zn43  1  0.13089505  0.71054607  0.50840438  1
  Zn  Zn44  1  0.22592130  0.50184790  0.28721665  1
  Zn  Zn45  1  0.04840070  0.43381157  0.11513359  1
  Zn  Zn46  1  0.94322869  0.97424760  0.04945555  1
  Zn  Zn47  1  0.83099096  0.40180883  0.02359674  1
  Zn  Zn48  1  0.04186151  0.44106121  0.62687548  1
  Zn  Zn49  1  0.81199578  0.99450045  0.63038553  1
  S  S0  1  0.47739095  0.88994695  0.08847858  1
  S  S1  1  0.48870527  0.27237214  0.81575992  1
  S  S2  1  0.25149773  0.94869383  0.44103166  1
  S  S3  1  0.63782661  0.20024355  0.04393413  1
  S  S4  1  0.32700812  0.31352899  0.41080656  1
  S  S5  1  0.22054166  0.01765439  0.11916616  1
  S  S6  1  0.00519664  0.81479260  0.13285767  1
  S  S7  1  0.71438244  0.45482318  0.91194200  1
  S  S8  1  0.79690651  0.20930114  0.82898512  1
  S  S9  1  0.95713896  0.56360231  0.70836617  1
  S  S10  1  0.02724382  0.95550212  0.89441543  1
  S  S11  1  0.50493700  0.74065234  0.85085815  1
  S  S12  1  0.16891320  0.20409727  0.96412938  1
  S  S13  1  0.57579828  0.64300147  0.10644577  1
  S  S14  1  0.87928534  0.70290448  0.34672119  1
  S  S15  1  0.78620168  0.24510349  0.10073442  1
  S  S16  1  0.60411532  0.02127876  0.82317499  1
  S  S17  1  0.00342188  0.42746786  0.95075304  1
  S  S18  1  0.43278464  0.44066620  0.59594542  1
  S  S19  1  0.42887466  0.42211177  0.05209998  1
  S  S20  1  0.59833677  0.55517248  0.37489988  1
  S  S21  1  0.82047440  0.60331478  0.65269204  1
  S  S22  1  0.25455773  0.85748149  0.56607656  1
  S  S23  1  0.86606456  0.78378498  0.21340505  1
  S  S24  1  0.45371077  0.08034393  0.28425780  1
  S  S25  1  -0.00512651  0.99585550  0.63420950  1
  S  S26  1  0.17571167  0.55130737  0.49384063  1
  S  S27  1  0.77255870  0.18382717  0.57265796  1
  S  S28  1  0.80822954  0.49747120  0.17123314  1
  S  S29  1  0.87243727  0.70586178  0.91367801  1
  S  S30  1  0.56717624  0.60953866  0.81912822  1
  S  S31  1  0.18875580  0.40011703  0.71195497  1
  S  S32  1  0.33242417  -0.00419974  0.85332907  1
  S  S33  1  0.00199851  0.28381235  0.19730674  1
  S  S34  1  0.07227151  0.22651833  0.51570646  1
  S  S35  1  0.22452669  0.33066010  0.30071747  1
  S  S36  1  0.46781244  0.70176029  0.57134039  1
  S  S37  1  0.64617648  0.83416631  0.29850419  1
  S  S38  1  0.70429610  0.48711920  0.62508018  1
  S  S39  1  0.30199268  0.85810741  0.78398664  1
  S  S40  1  0.49711806  0.38066536  0.18330038  1
  S  S41  1  0.24581355  0.85824402  0.31713209  1
  S  S42  1  0.09331668  0.56713045  0.20593559  1
  S  S43  1  0.26874567  0.67136978  0.03557239  1
  S  S44  1  0.73888792  0.07905823  0.28859421  1
  S  S45  1  -0.01510724  0.95723806  0.36145829  1
  S  S46  1  0.61472350  0.29977654  0.40141845  1
  S  S47  1  0.87740013  0.41508923  0.40581739  1
  S  S48  1  0.43610131  0.13978621  0.59394013  1
  S  S49  1  0.76707235  0.93388456  0.01245271  1
loop_
_geom_bond_atom_site_label_1
_geom_bond_atom_site_label_2
_geom_bond_distance
_geom_bond_site_symmetry_2
Zn14 Zn5 2.548516 1_565
Zn14 Zn23 2.565282 1_555
Zn14 Zn31 2.576235 1_555
Zn14 Zn41 2.711784 1_555
Zn32 Zn46 2.414966 1_545
S0 Zn11 2.236233 1_554
S0 Zn7 2.359959 1_555
S0 Zn9 2.360287 1_555
S0 Zn15 2.388097 1_555
S1 Zn29 2.249516 1_555
S1 Zn34 2.303565 1_555
S1 Zn26 2.331034 1_555
S2 S22 2.073193 1_555
S2 S41 2.106220 1_555
S2 Zn5 2.560565 1_565
S3 Zn33 2.468477 1_555
S3 Zn2 2.488557 1_554
S3 Zn34 2.657081 1_554
S4 Zn37 2.301890 1_555
S4 Zn42 2.356890 1_555
S5 Zn18 2.321017 1_555
S5 Zn7 2.336010 1_545
S5 Zn12 2.349686 1_545
S5 Zn21 2.454470 1_554
S6 Zn12 2.325013 1_555
S6 Zn46 2.628393 1_455
S7 Zn8 2.332783 1_555
S7 Zn47 2.340372 1_556
S7 Zn34 2.370604 1_555
S7 Zn40 2.507041 1_555
S8 Zn13 2.267086 1_555
S8 Zn34 2.280705 1_555
S8 Zn2 2.356904 1_555
S9 Zn48 2.350186 1_655
S9 Zn25 2.479029 1_555
S10 Zn21 2.237301 1_565
S10 Zn16 2.303253 1_555
S10 Zn46 2.343533 1_456
S11 S30 2.072105 1_555
S11 Zn23 2.407177 1_555
S11 Zn35 2.578769 1_555
S11 Zn15 2.842038 1_556
S12 Zn20 2.280602 1_555
S12 Zn21 2.364666 1_555
S12 Zn18 2.409038 1_556
S13 Zn8 2.319572 1_554
S13 Zn15 2.341382 1_555
S13 Zn27 2.434910 1_555
S13 Zn19 2.753729 1_555
S14 S23 2.109102 1_555
S14 Zn6 2.364026 1_555
S14 Zn30 2.375094 1_655
S15 S3 2.147487 1_555
S15 Zn47 2.350853 1_555
S15 Zn39 2.522265 1_555
S16 Zn11 2.241282 1_545
S16 Zn26 2.361319 1_555
S16 Zn31 2.407999 1_545
S16 Zn2 2.516219 1_555
S17 Zn25 2.228071 1_455
S17 Zn45 2.330665 1_556
S17 Zn47 2.383102 1_456
S18 Zn24 2.314362 1_555
S18 Zn1 2.332291 1_555
S18 Zn42 2.387353 1_555
S19 S40 2.111326 1_555
S19 Zn8 2.336570 1_554
S19 Zn29 2.360012 1_554
S20 Zn27 2.288610 1_555
S20 Zn42 2.302662 1_555
S20 Zn3 2.331223 1_555
S21 S9 2.073502 1_555
S21 S38 2.127151 1_555
S21 Zn40 2.500322 1_555
S22 Zn4 2.497292 1_555
S22 Zn43 2.598921 1_555
S23 S6 2.057233 1_655
S23 Zn36 2.517716 1_555
S24 Zn7 2.310936 1_545
S24 Zn33 2.361345 1_555
S24 Zn41 2.443276 1_545
S24 Zn5 2.477912 1_555
S25 Zn17 2.312768 1_565
S25 Zn0 2.346209 1_565
S25 Zn49 2.371105 1_455
S25 Zn4 2.584305 1_555
S26 Zn1 2.287339 1_555
S26 Zn43 2.304805 1_555
S26 Zn48 2.738588 1_555
S26 Zn44 2.947565 1_555
S27 Zn28 2.275139 1_555
S27 Zn22 2.415425 1_555
S27 Zn10 2.424196 1_555
S27 Zn49 2.769750 1_545
S28 Zn27 2.328673 1_555
S28 Zn39 2.390965 1_555
S28 Zn47 2.433880 1_555
S28 Zn6 2.449471 1_555
S29 Zn25 2.235520 1_555
S29 Zn40 2.280457 1_555
S29 Zn16 2.361697 1_655
S30 Zn40 2.353070 1_555
S30 Zn24 2.509693 1_555
S30 Zn8 2.523805 1_555
S31 Zn48 2.379156 1_555
S31 Zn37 2.396901 1_555
S31 Zn20 2.415049 1_555
S31 Zn38 2.435369 1_555
S32 S39 2.127777 1_545
S32 Zn11 2.363654 1_545
S32 Zn21 2.441301 1_555
S32 Zn26 2.580172 1_555
S33 Zn45 2.304658 1_555
S33 Zn39 2.324873 1_455
S33 Zn32 2.336613 1_455
S34 Zn17 2.291367 1_555
S34 Zn37 2.452322 1_555
S34 Zn0 2.462653 1_555
S34 Zn10 2.490521 1_455
S35 S4 2.070433 1_555
S35 Zn44 2.325612 1_555
S36 Zn1 2.339051 1_555
S36 Zn24 2.362719 1_555
S36 Zn23 2.415837 1_555
S36 Zn14 2.595284 1_555
S37 Zn9 2.280356 1_555
S37 Zn41 2.315396 1_555
S37 Zn36 2.406108 1_555
S38 Zn24 2.397393 1_555
S38 Zn3 2.469736 1_555
S39 Zn23 2.434488 1_555
S39 Zn35 2.443895 1_555
S40 Zn33 2.423000 1_555
S40 Zn27 2.494597 1_555
S41 Zn7 2.432136 1_555
S41 Zn12 2.478743 1_555
S42 Zn45 2.263216 1_555
S42 Zn6 2.269678 1_455
S42 Zn44 2.321942 1_555
S43 Zn15 2.201604 1_555
S43 Zn35 2.227070 1_554
S44 Zn28 2.189477 1_555
S44 Zn36 2.302221 1_545
S44 Zn41 2.391811 1_545
S45 Zn17 2.279436 1_565
S45 Zn12 2.357268 1_555
S45 Zn30 2.376606 1_555
S45 Zn36 2.419578 1_455
S46 Zn22 2.287685 1_555
S46 Zn28 2.405560 1_555
S46 Zn3 2.411993 1_555
S46 Zn42 2.624534 1_555
S47 Zn3 2.326192 1_555
S47 Zn10 2.422237 1_555
S47 Zn39 2.433764 1_555
S47 Zn6 2.444835 1_555
S48 Zn22 2.252522 1_555
S48 Zn26 2.328744 1_555
S48 Zn5 2.344965 1_555
S49 Zn9 2.244379 1_555
S49 Zn2 2.281755 1_564
S49 Zn46 2.377519 1_555
