# generated using pymatgen
data_Ag3SbS3
_symmetry_space_group_name_H-M   'P 1'
_cell_length_a   7.60327417
_cell_length_b   7.60327417
_cell_length_c   7.60327403
_cell_angle_alpha   106.89475806
_cell_angle_beta   106.89475806
_cell_angle_gamma   106.89475975
_symmetry_Int_Tables_number   1
_chemical_formula_structural   Ag3SbS3
_chemical_formula_sum   'Ag6 Sb2 S6'
_cell_volume   367.10193292
_cell_formula_units_Z   2
loop_
 _symmetry_equiv_pos_site_id
 _symmetry_equiv_pos_as_xyz
  1  'x, y, z'
loop_
 _atom_site_type_symbol
 _atom_site_label
 _atom_site_symmetry_multiplicity
 _atom_site_fract_x
 _atom_site_fract_y
 _atom_site_fract_z
 _atom_site_occupancy
  Ag  Ag0  1  0.95320600  0.46008400  0.88052100  1
  Ag  Ag1  1  0.38052100  0.96008400  0.45320600  1
  Ag  Ag2  1  0.88052100  0.95320600  0.46008400  1
  Ag  Ag3  1  0.45320600  0.38052100  0.96008400  1
  Ag  Ag4  1  0.46008400  0.88052100  0.95320600  1
  Ag  Ag5  1  0.96008400  0.45320600  0.38052100  1
  Sb  Sb0  1  0.40170000  0.40170000  0.40170000  1
  Sb  Sb1  1  0.90170000  0.90170000  0.90170000  1
  S  S0  1  0.68254700  0.57450900  0.32273300  1
  S  S1  1  0.82273300  0.07450900  0.18254700  1
  S  S2  1  0.32273300  0.68254700  0.57450900  1
  S  S3  1  0.18254700  0.82273300  0.07450900  1
  S  S4  1  0.57450900  0.32273300  0.68254700  1
  S  S5  1  0.07450900  0.18254700  0.82273300  1
loop_
_geom_bond_atom_site_label_1
_geom_bond_atom_site_label_2
_geom_bond_distance
_geom_bond_site_symmetry_2
Ag0 S3 2.483073 1_656
Ag0 S5 2.514843 1_655
Ag0 S4 2.542921 1_555
Ag1 S4 2.483073 1_565
Ag1 S2 2.514843 1_555
Ag1 S3 2.542921 1_555
Ag2 S5 2.483073 1_665
Ag2 S1 2.514843 1_565
Ag2 S0 2.542921 1_555
Ag3 S0 2.483073 1_556
Ag3 S4 2.514843 1_555
Ag3 S5 2.542921 1_555
Ag4 S1 2.483073 1_566
Ag4 S3 2.514843 1_556
Ag4 S2 2.542921 1_555
Ag5 S2 2.483073 1_655
Ag5 S0 2.514843 1_555
Ag5 S1 2.542921 1_555
S0 Sb0 2.493908 1_555
S1 Sb1 2.493908 1_544
S2 Sb0 2.493908 1_555
S3 Sb1 2.493908 1_454
S4 Sb0 2.493908 1_555
S5 Sb1 2.493908 1_445
