# generated using pymatgen
data_CaCo(GeO3)4
_symmetry_space_group_name_H-M   'P 1'
_cell_length_a   5.23510577
_cell_length_b   5.23510577
_cell_length_c   7.41947662
_cell_angle_alpha   90.00000000
_cell_angle_beta   90.00000000
_cell_angle_gamma   82.39143375
_symmetry_Int_Tables_number   1
_chemical_formula_structural   CaCo(GeO3)4
_chemical_formula_sum   'Ca1 Co1 Ge4 O12'
_cell_volume   201.55038225
_cell_formula_units_Z   1
loop_
 _symmetry_equiv_pos_site_id
 _symmetry_equiv_pos_as_xyz
  1  'x, y, z'
loop_
 _atom_site_type_symbol
 _atom_site_label
 _atom_site_symmetry_multiplicity
 _atom_site_fract_x
 _atom_site_fract_y
 _atom_site_fract_z
 _atom_site_occupancy
  Ca  Ca0  1  0.43923114  0.56076886  0.00000000  1
  Co  Co0  1  0.07415277  0.92584723  0.50000000  1
  Ge  Ge0  1  0.53185519  0.02391304  0.25501973  1
  Ge  Ge1  1  0.53185519  0.02391304  0.74498027  1
  Ge  Ge2  1  0.97608696  0.46814481  0.74498027  1
  Ge  Ge3  1  0.97608696  0.46814481  0.25501973  1
  O  O0  1  0.31522911  0.32798793  0.24363636  1
  O  O1  1  0.67201207  0.68477089  0.24363636  1
  O  O2  1  0.67201207  0.68477089  0.75636364  1
  O  O3  1  0.31522911  0.32798793  0.75636364  1
  O  O4  1  0.18339484  0.81660516  0.24353503  1
  O  O5  1  0.84153743  0.15846257  0.31513669  1
  O  O6  1  0.84153743  0.15846257  0.68486331  1
  O  O7  1  0.18339484  0.81660516  0.75646497  1
  O  O8  1  0.54651944  0.04108405  0.00000000  1
  O  O9  1  0.42480509  0.99295556  0.50000000  1
  O  O10  1  0.95891595  0.45348056  0.00000000  1
  O  O11  1  0.00704444  0.57519491  0.50000000  1
loop_
_geom_bond_atom_site_label_1
_geom_bond_atom_site_label_2
_geom_bond_distance
_geom_bond_site_symmetry_2
Ca0 O1 2.320255 1_555
Ca0 O2 2.320255 1_554
Ca0 O0 2.320255 1_555
Ca0 O3 2.320255 1_554
Ca0 O7 2.525369 1_554
Ca0 O4 2.525369 1_555
Ca0 O8 2.648051 1_565
Ca0 O10 2.648051 1_455
Ca0 O8 2.704166 1_555
Ca0 O10 2.704166 1_555
Co0 O11 1.914160 1_555
Co0 O9 1.914160 1_555
Co0 O7 2.046534 1_555
Co0 O4 2.046534 1_555
Co0 O6 2.110560 1_465
Co0 O5 2.110560 1_465
Ge0 O0 1.830084 1_555
Ge0 O1 1.831048 1_545
Ge0 O8 1.896284 1_555
Ge0 O5 1.904167 1_555
Ge0 O9 1.915241 1_545
Ge0 O4 2.244362 1_545
Ge1 O3 1.830084 1_555
Ge1 O2 1.831048 1_545
Ge1 O8 1.896284 1_556
Ge1 O6 1.904167 1_555
Ge1 O9 1.915241 1_545
Ge1 O7 2.244362 1_545
Ge2 O2 1.830084 1_555
Ge2 O3 1.831048 1_655
Ge2 O10 1.896284 1_556
Ge2 O6 1.904167 1_555
Ge2 O11 1.915241 1_655
Ge2 O7 2.244362 1_655
Ge3 O1 1.830084 1_555
Ge3 O0 1.831048 1_655
Ge3 O10 1.896284 1_555
Ge3 O5 1.904167 1_555
Ge3 O11 1.915241 1_655
Ge3 O4 2.244362 1_655
