# generated using pymatgen
data_Ag3Pd13Pb6
_symmetry_space_group_name_H-M   'P 1'
_cell_length_a   9.11823152
_cell_length_b   9.11823152
_cell_length_c   17.15035400
_cell_angle_alpha   90.00000000
_cell_angle_beta   90.00000000
_cell_angle_gamma   119.99999655
_symmetry_Int_Tables_number   1
_chemical_formula_structural   Ag3Pd13Pb6
_chemical_formula_sum   'Ag9 Pd39 Pb18'
_cell_volume   1234.88059510
_cell_formula_units_Z   3
loop_
 _symmetry_equiv_pos_site_id
 _symmetry_equiv_pos_as_xyz
  1  'x, y, z'
loop_
 _atom_site_type_symbol
 _atom_site_label
 _atom_site_symmetry_multiplicity
 _atom_site_fract_x
 _atom_site_fract_y
 _atom_site_fract_z
 _atom_site_occupancy
  Ag  Ag0  1  0.49023300  0.00000000  0.33333300  1
  Ag  Ag1  1  0.00000000  0.49023300  0.66666700  1
  Ag  Ag2  1  0.50976700  0.50976700  0.00000000  1
  Ag  Ag3  1  0.18932500  0.30959000  0.57306300  1
  Ag  Ag4  1  0.69041000  0.87973500  0.90639700  1
  Ag  Ag5  1  0.30959000  0.18932500  0.42693700  1
  Ag  Ag6  1  0.12026500  0.81067500  0.23973000  1
  Ag  Ag7  1  0.87973500  0.69041000  0.09360300  1
  Ag  Ag8  1  0.81067500  0.12026500  0.76027000  1
  Pd  Pd0  1  0.16255300  0.34300300  0.73927400  1
  Pd  Pd1  1  0.65699700  0.81954900  0.07260800  1
  Pd  Pd2  1  0.34300300  0.16255300  0.26072600  1
  Pd  Pd3  1  0.18045100  0.83744700  0.40594100  1
  Pd  Pd4  1  0.81954900  0.65699700  0.92739200  1
  Pd  Pd5  1  0.83744700  0.18045100  0.59405900  1
  Pd  Pd6  1  0.48617900  0.00000000  0.83333300  1
  Pd  Pd7  1  0.00000000  0.48617900  0.16666700  1
  Pd  Pd8  1  0.51382100  0.51382100  0.50000000  1
  Pd  Pd9  1  0.34350200  0.18932000  0.92928000  1
  Pd  Pd10  1  0.81068000  0.15418100  0.26261400  1
  Pd  Pd11  1  0.18932000  0.34350200  0.07072000  1
  Pd  Pd12  1  0.84581900  0.65649800  0.59594700  1
  Pd  Pd13  1  0.15418100  0.81068000  0.73738600  1
  Pd  Pd14  1  0.65649800  0.84581900  0.40405300  1
  Pd  Pd15  1  0.01578000  0.00000000  0.83333300  1
  Pd  Pd16  1  0.00000000  0.01578000  0.16666700  1
  Pd  Pd17  1  0.98422000  0.98422000  0.50000000  1
  Pd  Pd18  1  0.49958900  0.00274100  0.66877800  1
  Pd  Pd19  1  0.99725900  0.49684800  0.00211200  1
  Pd  Pd20  1  0.00274100  0.49958900  0.33122200  1
  Pd  Pd21  1  0.50315200  0.50041100  0.33544500  1
  Pd  Pd22  1  0.49684800  0.99725900  0.99788800  1
  Pd  Pd23  1  0.50041100  0.50315200  0.66455500  1
  Pd  Pd24  1  0.31690000  0.66295300  0.58922400  1
  Pd  Pd25  1  0.33704700  0.65394700  0.92255800  1
  Pd  Pd26  1  0.66295300  0.31690000  0.41077600  1
  Pd  Pd27  1  0.34605300  0.68310000  0.25589100  1
  Pd  Pd28  1  0.65394700  0.33704700  0.07744200  1
  Pd  Pd29  1  0.68310000  0.34605300  0.74410900  1
  Pd  Pd30  1  0.00574500  0.50953100  0.83209000  1
  Pd  Pd31  1  0.49046900  0.49621400  0.16542300  1
  Pd  Pd32  1  0.50953100  0.00574500  0.16791000  1
  Pd  Pd33  1  0.50378600  0.99425500  0.49875700  1
  Pd  Pd34  1  0.49621400  0.49046900  0.83457700  1
  Pd  Pd35  1  0.99425500  0.50378600  0.50124300  1
  Pd  Pd36  1  0.00407700  0.00000000  0.33333300  1
  Pd  Pd37  1  0.00000000  0.00407700  0.66666700  1
  Pd  Pd38  1  0.99592300  0.99592300  0.00000000  1
  Pb  Pb0  1  0.61427600  0.30684000  0.57669800  1
  Pb  Pb1  1  0.69316000  0.30743600  0.91003200  1
  Pb  Pb2  1  0.30684000  0.61427600  0.42330200  1
  Pb  Pb3  1  0.69256400  0.38572400  0.24336500  1
  Pb  Pb4  1  0.30743600  0.69316000  0.08996800  1
  Pb  Pb5  1  0.38572400  0.69256400  0.75663500  1
  Pb  Pb6  1  0.11092600  0.30387400  0.90545200  1
  Pb  Pb7  1  0.69612600  0.80705200  0.23878500  1
  Pb  Pb8  1  0.30387400  0.11092600  0.09454800  1
  Pb  Pb9  1  0.19294800  0.88907400  0.57211800  1
  Pb  Pb10  1  0.80705200  0.69612600  0.76121500  1
  Pb  Pb11  1  0.88907400  0.19294800  0.42788200  1
  Pb  Pb12  1  0.33175200  0.16727700  0.75139100  1
  Pb  Pb13  1  0.83272300  0.16447500  0.08472500  1
  Pb  Pb14  1  0.16727700  0.33175200  0.24860900  1
  Pb  Pb15  1  0.83552500  0.66824800  0.41805800  1
  Pb  Pb16  1  0.16447500  0.83272300  0.91527500  1
  Pb  Pb17  1  0.66824800  0.83552500  0.58194200  1
loop_
_geom_bond_atom_site_label_1
_geom_bond_atom_site_label_2
_geom_bond_distance
_geom_bond_site_symmetry_2
Ag0 Pd2 2.745829 1_555
Ag0 Pd3 2.745830 1_545
Ag0 Pd10 2.806639 1_555
Ag0 Pd14 2.806639 1_545
Ag0 Pd27 2.836042 1_545
Ag0 Pd26 2.836050 1_555
Ag0 Pd32 2.841376 1_555
Ag0 Pd33 2.841393 1_545
Ag1 Pd0 2.745829 1_555
Ag1 Pd5 2.745830 1_455
Ag1 Pd13 2.806639 1_555
Ag1 Pd12 2.806639 1_455
Ag1 Pd29 2.836042 1_455
Ag1 Pd24 2.836050 1_555
Ag1 Pd30 2.841376 1_555
Ag1 Pd35 2.841393 1_455
Ag2 Pd1 2.745830 1_555
Ag2 Pd4 2.745830 1_554
Ag2 Pd11 2.806646 1_555
Ag2 Pd9 2.806646 1_554
Ag2 Pd28 2.836042 1_555
Ag2 Pd25 2.836042 1_554
Ag2 Pd31 2.841376 1_555
Ag2 Pd34 2.841376 1_554
Ag3 Pd5 2.834192 1_455
Ag3 Pd24 2.839630 1_555
Ag3 Pd8 2.877968 1_555
Ag3 Pd17 2.884646 1_445
Ag3 Pd0 2.890083 1_555
Ag3 Pd37 2.916943 1_555
Ag3 Pd23 2.935446 1_555
Ag3 Pd35 3.311490 1_455
Ag4 Pd4 2.834181 1_555
Ag4 Pd25 2.839630 1_555
Ag4 Pd6 2.877975 1_565
Ag4 Pd15 2.884654 1_665
Ag4 Pd1 2.890084 1_556
Ag4 Pd38 2.916934 1_556
Ag4 Pd22 2.935437 1_555
Ag4 Pd34 3.311491 1_555
Ag5 Pd3 2.834192 1_545
Ag5 Pd26 2.839630 1_555
Ag5 Pd8 2.877968 1_555
Ag5 Pd17 2.884646 1_445
Ag5 Pd2 2.890083 1_555
Ag5 Pd36 2.916943 1_555
Ag5 Pd21 2.935446 1_555
Ag5 Pd33 3.311490 1_545
Ag6 Pd2 2.834191 1_565
Ag6 Pd27 2.839630 1_555
Ag6 Pd7 2.877968 1_555
Ag6 Pd16 2.884646 1_565
Ag6 Pd3 2.890084 1_555
Ag6 Pd36 2.916934 1_565
Ag6 Pd20 2.935446 1_555
Ag6 Pd32 3.311491 1_565
Ag7 Pd1 2.834181 1_555
Ag7 Pd28 2.839630 1_555
Ag7 Pd7 2.877975 1_655
Ag7 Pd16 2.884654 1_665
Ag7 Pd4 2.890084 1_554
Ag7 Pd38 2.916934 1_555
Ag7 Pd19 2.935437 1_555
Ag7 Pd31 3.311491 1_555
Ag8 Pd0 2.834191 1_655
Ag8 Pd29 2.839630 1_555
Ag8 Pd6 2.877968 1_555
Ag8 Pd15 2.884646 1_655
Ag8 Pd5 2.890084 1_555
Ag8 Pd37 2.916934 1_655
Ag8 Pd18 2.935446 1_555
Ag8 Pd30 3.311491 1_655
Pd0 Pd37 2.952548 1_555
Pd0 Pd23 2.960815 1_555
Pd0 Pd30 3.009156 1_555
Pd0 Pd34 3.105615 1_555
Pd0 Pd15 3.160601 1_555
Pd1 Pd38 2.952555 1_555
Pd1 Pd22 2.960830 1_554
Pd1 Pd31 3.009141 1_555
Pd1 Pd32 3.105613 1_565
Pd1 Pd16 3.160602 1_665
Pd2 Pd36 2.952548 1_555
Pd2 Pd21 2.960815 1_555
Pd2 Pd32 3.009156 1_555
Pd2 Pd31 3.105615 1_555
Pd3 Pd36 2.952562 1_565
Pd3 Pd33 3.009150 1_555
Pd3 Pd35 3.105606 1_455
Pd6 Pd9 3.102587 1_555
Pd10 Pd32 2.879860 1_555
Pd10 Pd20 2.975773 1_655
Pd10 Pd36 3.006047 1_655
Pd10 Pd16 3.075518 1_655
Pd10 Pd7 3.102593 1_655
Pd11 Pd31 2.879851 1_555
Pd11 Pd19 2.975765 1_455
Pd11 Pd38 3.006061 1_445
Pd11 Pd16 3.075524 1_555
Pd11 Pd7 3.102587 1_555
Pd12 Pd35 2.879854 1_555
Pd12 Pd23 2.975773 1_555
Pd12 Pd37 3.006061 1_665
Pd12 Pd17 3.075525 1_555
Pd12 Pd8 3.102594 1_555
Pd13 Pd30 2.879860 1_555
Pd13 Pd18 2.975773 1_565
Pd13 Pd37 3.006047 1_565
Pd13 Pd15 3.075518 1_565
Pd13 Pd6 3.102593 1_565
Pd14 Pd33 2.879854 1_555
Pd14 Pd21 2.975773 1_555
Pd14 Pd36 3.006061 1_665
Pd14 Pd17 3.075525 1_555
Pd14 Pd8 3.102594 1_555
Pd15 Pd37 2.863176 1_555
Pd15 Pd38 2.863193 1_446
Pd15 Pd9 3.075524 1_555
Pd15 Pd4 3.160602 1_445
Pd16 Pd36 2.863176 1_555
Pd16 Pd38 2.863193 1_445
Pd16 Pd2 3.160601 1_555
Pd17 Pd36 2.863193 1_665
Pd17 Pd37 2.863193 1_665
Pd17 Pd5 3.160608 1_565
Pd17 Pd3 3.160608 1_655
Pd18 Pd6 2.824394 1_555
Pd18 Pd33 2.917705 1_545
Pd18 Pd5 2.960815 1_555
Pd18 Pd29 3.005058 1_555
Pd18 Pd24 3.012404 1_545
Pd19 Pd7 2.824394 1_655
Pd19 Pd30 2.917722 1_654
Pd19 Pd4 2.960830 1_554
Pd19 Pd28 3.005051 1_555
Pd19 Pd25 3.012404 1_654
Pd20 Pd7 2.824394 1_555
Pd20 Pd35 2.917705 1_455
Pd20 Pd3 2.960815 1_555
Pd20 Pd27 3.005058 1_555
Pd20 Pd26 3.012404 1_455
Pd21 Pd8 2.824394 1_555
Pd21 Pd31 2.917722 1_555
Pd21 Pd26 3.005058 1_555
Pd21 Pd27 3.012404 1_555
Pd22 Pd6 2.824394 1_565
Pd22 Pd32 2.917722 1_566
Pd22 Pd9 2.975765 1_565
Pd22 Pd25 3.005051 1_555
Pd22 Pd28 3.012404 1_566
Pd23 Pd8 2.824394 1_555
Pd23 Pd34 2.917722 1_555
Pd23 Pd24 3.005058 1_555
Pd23 Pd29 3.012404 1_555
Pd24 Pd35 2.961164 1_455
Pd24 Pd33 3.047802 1_555
Pd24 Pd8 3.139494 1_555
Pd25 Pd34 2.961164 1_555
Pd25 Pd30 3.047811 1_555
Pd25 Pd6 3.139503 1_565
Pd26 Pd33 2.961164 1_545
Pd26 Pd35 3.047802 1_555
Pd26 Pd8 3.139494 1_555
Pd27 Pd32 2.961164 1_565
Pd27 Pd31 3.047810 1_555
Pd27 Pd7 3.139494 1_555
Pd28 Pd31 2.961164 1_555
Pd28 Pd32 3.047811 1_555
Pd28 Pd7 3.139503 1_655
Pd29 Pd30 2.961164 1_655
Pd29 Pd34 3.047810 1_555
Pd29 Pd6 3.139494 1_555
Pd30 Pd4 3.105613 1_455
Pd33 Pd5 3.105606 1_565
Pd34 Pd9 2.879851 1_555
Pd34 Pd4 3.009141 1_555
Pd35 Pd5 3.009150 1_555
Pd37 Pd5 2.952562 1_455
Pd38 Pd4 2.952555 1_554
Pd38 Pd9 3.006061 1_664
Pb0 Pd8 2.803550 1_555
Pb0 Pd5 2.811199 1_555
Pb0 Pd12 2.828458 1_555
Pb0 Pd33 2.837967 1_545
Pb0 Pd26 2.874415 1_555
Pb0 Pd18 2.894210 1_555
Pb0 Pd23 2.900170 1_555
Pb0 Pd29 2.922470 1_555
Pb0 Pd35 3.268328 1_555
Pb1 Pd6 2.803558 1_555
Pb1 Pd4 2.811205 1_555
Pb1 Pd9 2.828454 1_555
Pb1 Pd30 2.837975 1_655
Pb1 Pd29 2.874432 1_555
Pb1 Pd19 2.894210 1_556
Pb1 Pd22 2.900161 1_545
Pb1 Pd28 2.922453 1_556
Pb1 Pd34 3.268328 1_555
Pb2 Pd8 2.803550 1_555
Pb2 Pd3 2.811199 1_555
Pb2 Pd14 2.828458 1_555
Pb2 Pd35 2.837967 1_455
Pb2 Pd24 2.874415 1_555
Pb2 Pd20 2.894210 1_555
Pb2 Pd21 2.900170 1_555
Pb2 Pd27 2.922470 1_555
Pb2 Pd33 3.268328 1_555
Pb3 Pd7 2.803550 1_655
Pb3 Pd2 2.811206 1_555
Pb3 Pd10 2.828464 1_555
Pb3 Pd31 2.837975 1_555
Pb3 Pd28 2.874432 1_555
Pb3 Pd21 2.894210 1_555
Pb3 Pd20 2.900170 1_655
Pb3 Pd26 2.922470 1_555
Pb3 Pd32 3.268328 1_555
Pb4 Pd7 2.803558 1_555
Pb4 Pd1 2.811205 1_555
Pb4 Pd11 2.828454 1_555
Pb4 Pd32 2.837975 1_565
Pb4 Pd27 2.874432 1_555
Pb4 Pd22 2.894210 1_554
Pb4 Pd19 2.900161 1_455
Pb4 Pd25 2.922453 1_554
Pb4 Pd31 3.268328 1_555
Pb5 Pd6 2.803550 1_565
Pb5 Pd0 2.811206 1_555
Pb5 Pd13 2.828464 1_555
Pb5 Pd34 2.837975 1_555
Pb5 Pd25 2.874432 1_555
Pb5 Pd23 2.894210 1_555
Pb5 Pd18 2.900170 1_565
Pb5 Pd24 2.922470 1_555
Pb5 Pd30 3.268328 1_555
Pb6 Pd15 2.748811 1_555
Pb6 Pd30 2.796029 1_555
Pb6 Pd25 2.818672 1_555
Pb6 Pd9 2.823199 1_555
Pb6 Pd0 2.881581 1_555
Pb6 Pd11 2.901221 1_556
Pb6 Pd38 2.944344 1_446
Pb6 Pd19 2.956719 1_456
Pb6 Pd34 3.276767 1_555
Pb7 Pd16 2.748803 1_665
Pb7 Pd31 2.796029 1_555
Pb7 Pd27 2.818672 1_555
Pb7 Pd10 2.823193 1_565
Pb7 Pd1 2.881563 1_555
Pb7 Pd14 2.901223 1_555
Pb7 Pd36 2.944344 1_665
Pb7 Pd21 2.956719 1_555
Pb7 Pd32 3.276767 1_565
Pb8 Pd16 2.748811 1_555
Pb8 Pd32 2.796029 1_555
Pb8 Pd28 2.818672 1_555
Pb8 Pd11 2.823199 1_555
Pb8 Pd2 2.881581 1_555
Pb8 Pd9 2.901221 1_554
Pb8 Pd38 2.944344 1_445
Pb8 Pd22 2.956719 1_544
Pb8 Pd31 3.276767 1_555
Pb9 Pd17 2.748803 1_455
Pb9 Pd33 2.796021 1_555
Pb9 Pd24 2.818672 1_555
Pb9 Pd12 2.823195 1_455
Pb9 Pd3 2.881564 1_555
Pb9 Pd13 2.901221 1_555
Pb9 Pd37 2.944353 1_565
Pb9 Pd18 2.956719 1_565
Pb9 Pd35 3.276767 1_455
Pb10 Pd15 2.748803 1_665
Pb10 Pd34 2.796029 1_555
Pb10 Pd29 2.818672 1_555
Pb10 Pd13 2.823193 1_655
Pb10 Pd4 2.881563 1_555
Pb10 Pd12 2.901223 1_555
Pb10 Pd37 2.944344 1_665
Pb10 Pd23 2.956719 1_555
Pb10 Pd30 3.276767 1_655
Pb11 Pd17 2.748803 1_545
Pb11 Pd35 2.796021 1_555
Pb11 Pd26 2.818672 1_555
Pb11 Pd14 2.823195 1_545
Pb11 Pd5 2.881564 1_555
Pb11 Pd10 2.901221 1_555
Pb11 Pd36 2.944353 1_655
Pb11 Pd20 2.956719 1_655
Pb11 Pd33 3.276767 1_545
Pb12 Pd0 2.731820 1_555
Pb12 Pd29 2.777415 1_555
Pb12 Pd13 2.826144 1_545
Pb12 Pd15 2.864912 1_555
Pb12 Pd6 2.903773 1_555
Pb12 Pd34 2.923937 1_555
Pb12 Pd18 2.982669 1_555
Pb12 Pd37 2.995809 1_555
Pb12 Pd23 3.041799 1_555
Pb12 Pd9 3.055828 1_555
Pb13 Pd1 2.731828 1_545
Pb13 Pd28 2.777416 1_555
Pb13 Pd11 2.826144 1_655
Pb13 Pd16 2.864912 1_655
Pb13 Pd7 2.903773 1_655
Pb13 Pd32 2.923929 1_555
Pb13 Pd19 2.982669 1_555
Pb13 Pd38 2.995817 1_545
Pb13 Pd22 3.041807 1_544
Pb13 Pd10 3.055828 1_555
Pb14 Pd2 2.731820 1_555
Pb14 Pd27 2.777415 1_555
Pb14 Pd10 2.826144 1_455
Pb14 Pd16 2.864912 1_555
Pb14 Pd7 2.903773 1_555
Pb14 Pd31 2.923937 1_555
Pb14 Pd20 2.982669 1_555
Pb14 Pd36 2.995809 1_555
Pb14 Pd21 3.041799 1_555
Pb14 Pd11 3.055828 1_555
Pb15 Pd3 2.731828 1_655
Pb15 Pd26 2.777415 1_555
Pb15 Pd14 2.826152 1_555
Pb15 Pd17 2.864912 1_555
Pb15 Pd8 2.903773 1_555
Pb15 Pd35 2.923929 1_555
Pb15 Pd21 2.982669 1_555
Pb15 Pd36 2.995817 1_665
Pb15 Pd20 3.041798 1_655
Pb15 Pd12 3.055829 1_555
Pb16 Pd4 2.731828 1_455
Pb16 Pd25 2.777416 1_555
Pb16 Pd9 2.826144 1_565
Pb16 Pd15 2.864912 1_565
Pb16 Pd6 2.903773 1_565
Pb16 Pd30 2.923929 1_555
Pb16 Pd22 2.982669 1_555
Pb16 Pd38 2.995817 1_456
Pb16 Pd19 3.041807 1_456
Pb16 Pd13 3.055828 1_555
Pb17 Pd5 2.731828 1_565
Pb17 Pd24 2.777415 1_555
Pb17 Pd12 2.826152 1_555
Pb17 Pd17 2.864912 1_555
Pb17 Pd8 2.903773 1_555
Pb17 Pd33 2.923929 1_555
Pb17 Pd23 2.982669 1_555
Pb17 Pd37 2.995817 1_665
Pb17 Pd18 3.041798 1_565
Pb17 Pd14 3.055829 1_555
