# generated using pymatgen
data_Te2MoW2(SeS)2
_symmetry_space_group_name_H-M   'P 1'
_cell_length_a   3.34510756
_cell_length_b   3.34510756
_cell_length_c   30.97612100
_cell_angle_alpha   90.00000000
_cell_angle_beta   90.00000000
_cell_angle_gamma   119.99999133
_symmetry_Int_Tables_number   1
_chemical_formula_structural   Te2MoW2(SeS)2
_chemical_formula_sum   'Te2 Mo1 W2 Se2 S2'
_cell_volume   300.17731991
_cell_formula_units_Z   1
loop_
 _symmetry_equiv_pos_site_id
 _symmetry_equiv_pos_as_xyz
  1  'x, y, z'
loop_
 _atom_site_type_symbol
 _atom_site_label
 _atom_site_symmetry_multiplicity
 _atom_site_fract_x
 _atom_site_fract_y
 _atom_site_fract_z
 _atom_site_occupancy
  Te  Te0  1  0.33333300  0.66666700  0.05450500  1
  Te  Te1  1  0.33333300  0.66666700  0.17679200  1
  Mo  Mo0  1  0.00000000  0.00000000  0.11563400  1
  W  W0  1  0.00000000  0.00000000  0.57830400  1
  W  W1  1  0.33333300  0.66666700  0.34699500  1
  Se  Se0  1  0.33333300  0.66666700  0.52430200  1
  Se  Se1  1  0.33333300  0.66666700  0.63232800  1
  S  S0  1  0.00000000  0.00000000  0.39610600  1
  S  S1  1  0.00000000  0.00000000  0.29787600  1
loop_
_geom_bond_atom_site_label_1
_geom_bond_atom_site_label_2
_geom_bond_distance
_geom_bond_site_symmetry_2
Mo0 Te0 2.704699 1_545
Mo0 Te0 2.704702 1_445
Mo0 Te0 2.704702 1_555
Mo0 Te1 2.705328 1_545
Mo0 Te1 2.705330 1_445
Mo0 Te1 2.705330 1_555
Se0 W0 2.555010 1_565
Se0 W0 2.555012 1_555
Se0 W0 2.555012 1_665
Se1 W0 2.555456 1_565
Se1 W0 2.555458 1_665
Se1 W0 2.555458 1_555
S0 W1 2.458488 1_545
S0 W1 2.458491 1_445
S0 W1 2.458491 1_555
S1 W1 2.458642 1_545
S1 W1 2.458644 1_445
S1 W1 2.458644 1_555
