# generated using pymatgen
data_TaAgN2
_symmetry_space_group_name_H-M   'P 1'
_cell_length_a   5.92368400
_cell_length_b   11.86738200
_cell_length_c   14.48330000
_cell_angle_alpha   90.00000000
_cell_angle_beta   90.00000000
_cell_angle_gamma   90.00000000
_symmetry_Int_Tables_number   1
_chemical_formula_structural   TaAgN2
_chemical_formula_sum   'Ta16 Ag16 N32'
_cell_volume   1018.15601572
_cell_formula_units_Z   16
loop_
 _symmetry_equiv_pos_site_id
 _symmetry_equiv_pos_as_xyz
  1  'x, y, z'
loop_
 _atom_site_type_symbol
 _atom_site_label
 _atom_site_symmetry_multiplicity
 _atom_site_fract_x
 _atom_site_fract_y
 _atom_site_fract_z
 _atom_site_occupancy
  Ta  Ta0  1  0.66641000  0.03144600  0.31497700  1
  Ta  Ta1  1  0.16641000  0.46855400  0.68502300  1
  Ta  Ta2  1  0.33359000  0.53144600  0.18502300  1
  Ta  Ta3  1  0.83359000  0.96855400  0.81497700  1
  Ta  Ta4  1  0.33359000  0.96855400  0.68502300  1
  Ta  Ta5  1  0.83359000  0.53144600  0.31497700  1
  Ta  Ta6  1  0.66641000  0.46855400  0.81497700  1
  Ta  Ta7  1  0.16641000  0.03144600  0.18502300  1
  Ta  Ta8  1  0.77463800  0.28476200  0.44002500  1
  Ta  Ta9  1  0.27463800  0.21523800  0.55997500  1
  Ta  Ta10  1  0.22536200  0.78476200  0.05997500  1
  Ta  Ta11  1  0.72536200  0.71523800  0.94002500  1
  Ta  Ta12  1  0.22536200  0.71523800  0.55997500  1
  Ta  Ta13  1  0.72536200  0.78476200  0.44002500  1
  Ta  Ta14  1  0.77463800  0.21523800  0.94002500  1
  Ta  Ta15  1  0.27463800  0.28476200  0.05997500  1
  Ag  Ag0  1  0.21246700  0.99784500  0.43360800  1
  Ag  Ag1  1  0.71246700  0.50215500  0.56639200  1
  Ag  Ag2  1  0.78753300  0.49784500  0.06639200  1
  Ag  Ag3  1  0.28753300  0.00215500  0.93360800  1
  Ag  Ag4  1  0.78753300  0.00215500  0.56639200  1
  Ag  Ag5  1  0.28753300  0.49784500  0.43360800  1
  Ag  Ag6  1  0.21246700  0.50215500  0.93360800  1
  Ag  Ag7  1  0.71246700  0.99784500  0.06639200  1
  Ag  Ag8  1  0.19134900  0.27108700  0.30370600  1
  Ag  Ag9  1  0.69134900  0.22891300  0.69629400  1
  Ag  Ag10  1  0.80865100  0.77108700  0.19629400  1
  Ag  Ag11  1  0.30865100  0.72891300  0.80370600  1
  Ag  Ag12  1  0.80865100  0.72891300  0.69629400  1
  Ag  Ag13  1  0.30865100  0.77108700  0.30370600  1
  Ag  Ag14  1  0.19134900  0.22891300  0.80370600  1
  Ag  Ag15  1  0.69134900  0.27108700  0.19629400  1
  N  N0  1  0.10104600  0.26744300  0.45459100  1
  N  N1  1  0.60104600  0.23255700  0.54540900  1
  N  N2  1  0.89895400  0.76744300  0.04540900  1
  N  N3  1  0.39895400  0.73255700  0.95459100  1
  N  N4  1  0.89895400  0.73255700  0.54540900  1
  N  N5  1  0.39895400  0.76744300  0.45459100  1
  N  N6  1  0.10104600  0.23255700  0.95459100  1
  N  N7  1  0.60104600  0.26744300  0.04540900  1
  N  N8  1  0.71297100  0.44610800  0.41918700  1
  N  N9  1  0.21297100  0.05389200  0.58081300  1
  N  N10  1  0.28702900  0.94610800  0.08081300  1
  N  N11  1  0.78702900  0.55389200  0.91918700  1
  N  N12  1  0.28702900  0.55389200  0.58081300  1
  N  N13  1  0.78702900  0.94610800  0.41918700  1
  N  N14  1  0.71297100  0.05389200  0.91918700  1
  N  N15  1  0.21297100  0.44610800  0.08081300  1
  N  N16  1  0.68171300  0.19379700  0.33464300  1
  N  N17  1  0.18171300  0.30620300  0.66535700  1
  N  N18  1  0.31828700  0.69379700  0.16535700  1
  N  N19  1  0.81828700  0.80620300  0.83464300  1
  N  N20  1  0.31828700  0.80620300  0.66535700  1
  N  N21  1  0.81828700  0.69379700  0.33464300  1
  N  N22  1  0.68171300  0.30620300  0.83464300  1
  N  N23  1  0.18171300  0.19379700  0.16535700  1
  N  N24  1  0.64957100  0.48990500  0.20811800  1
  N  N25  1  0.14957100  0.01009500  0.79188200  1
  N  N26  1  0.35042900  0.98990500  0.29188200  1
  N  N27  1  0.85042900  0.51009500  0.70811800  1
  N  N28  1  0.35042900  0.51009500  0.79188200  1
  N  N29  1  0.85042900  0.98990500  0.20811800  1
  N  N30  1  0.64957100  0.01009500  0.70811800  1
  N  N31  1  0.14957100  0.48990500  0.29188200  1
loop_
_geom_bond_atom_site_label_1
_geom_bond_atom_site_label_2
_geom_bond_distance
_geom_bond_site_symmetry_2
Ag0 N26 2.211375 1_555
Ag0 N9 2.233359 1_565
Ag0 N13 2.602270 1_455
Ag1 N27 2.211375 1_555
Ag1 N8 2.233359 1_555
Ag1 N12 2.602270 1_555
Ag2 N24 2.211375 1_555
Ag2 N11 2.233359 1_554
Ag2 N15 2.602270 1_655
Ag3 N25 2.211375 1_555
Ag3 N10 2.233359 1_546
Ag3 N14 2.602270 1_555
Ag4 N30 2.211375 1_555
Ag4 N13 2.233359 1_545
Ag4 N9 2.602270 1_655
Ag5 N31 2.211375 1_555
Ag5 N12 2.233359 1_555
Ag5 N8 2.602270 1_555
Ag6 N28 2.211375 1_555
Ag6 N15 2.233359 1_556
Ag6 N11 2.602270 1_455
Ag7 N29 2.211375 1_555
Ag7 N14 2.233359 1_564
Ag7 N10 2.602270 1_555
Ag8 N23 2.204446 1_555
Ag8 N0 2.250246 1_555
Ag8 N31 2.614178 1_555
Ag9 N22 2.204446 1_555
Ag9 N1 2.250246 1_555
Ag9 N30 2.614178 1_555
Ag10 N21 2.204446 1_555
Ag10 N2 2.250246 1_555
Ag10 N29 2.614178 1_555
Ag11 N20 2.204446 1_555
Ag11 N3 2.250246 1_555
Ag11 N28 2.614178 1_555
Ag12 N19 2.204446 1_555
Ag12 N4 2.250246 1_555
Ag12 N27 2.614178 1_555
Ag13 N18 2.204446 1_555
Ag13 N5 2.250246 1_555
Ag13 N26 2.614178 1_555
Ag14 N17 2.204446 1_555
Ag14 N6 2.250246 1_555
Ag14 N25 2.614178 1_555
Ag15 N16 2.204446 1_555
Ag15 N7 2.250246 1_555
Ag15 N24 2.614178 1_555
N0 Ta9 1.941868 1_555
N0 Ta8 1.955842 1_455
N1 Ta8 1.941868 1_555
N1 Ta9 1.955842 1_555
N2 Ta11 1.941868 1_554
N2 Ta10 1.955842 1_655
N3 Ta10 1.941868 1_556
N3 Ta11 1.955842 1_555
N4 Ta13 1.941868 1_555
N4 Ta12 1.955842 1_655
N5 Ta12 1.941868 1_555
N5 Ta13 1.955842 1_555
N6 Ta15 1.941868 1_556
N6 Ta14 1.955842 1_455
N7 Ta14 1.941868 1_554
N7 Ta15 1.955842 1_555
N8 Ta5 1.952988 1_555
N8 Ta8 1.972514 1_555
N9 Ta4 1.952988 1_545
N9 Ta9 1.972514 1_555
N10 Ta7 1.952988 1_565
N10 Ta10 1.972514 1_555
N11 Ta6 1.952988 1_555
N11 Ta11 1.972514 1_555
N12 Ta1 1.952988 1_555
N12 Ta12 1.972514 1_555
N13 Ta0 1.952988 1_565
N13 Ta13 1.972514 1_555
N14 Ta3 1.952988 1_545
N14 Ta14 1.972514 1_555
N15 Ta2 1.952988 1_555
N15 Ta15 1.972514 1_555
N16 Ta8 1.948817 1_555
N16 Ta0 1.949730 1_555
N17 Ta9 1.948817 1_555
N17 Ta1 1.949730 1_555
N18 Ta10 1.948817 1_555
N18 Ta2 1.949730 1_555
N19 Ta11 1.948817 1_555
N19 Ta3 1.949730 1_555
N20 Ta12 1.948817 1_555
N20 Ta4 1.949730 1_555
N21 Ta13 1.948817 1_555
N21 Ta5 1.949730 1_555
N22 Ta14 1.948817 1_555
N22 Ta6 1.949730 1_555
N23 Ta15 1.948817 1_555
N23 Ta7 1.949730 1_555
N24 Ta5 1.956162 1_555
N24 Ta2 1.964293 1_555
N25 Ta4 1.956162 1_545
N25 Ta3 1.964293 1_445
N26 Ta7 1.956162 1_565
N26 Ta0 1.964293 1_565
N27 Ta6 1.956162 1_555
N27 Ta1 1.964293 1_655
N28 Ta1 1.956162 1_555
N28 Ta6 1.964293 1_555
N29 Ta0 1.956162 1_565
N29 Ta7 1.964293 1_665
N30 Ta3 1.956162 1_545
N30 Ta4 1.964293 1_545
N31 Ta2 1.956162 1_555
N31 Ta5 1.964293 1_455
