# generated using pymatgen
data_DyZnSn
_symmetry_space_group_name_H-M   'P 1'
_cell_length_a   4.45166957
_cell_length_b   4.45166957
_cell_length_c   16.04068356
_cell_angle_alpha   90.00000000
_cell_angle_beta   90.00000000
_cell_angle_gamma   120.00001168
_symmetry_Int_Tables_number   1
_chemical_formula_structural   DyZnSn
_chemical_formula_sum   'Dy4 Zn4 Sn4'
_cell_volume   275.29561442
_cell_formula_units_Z   4
loop_
 _symmetry_equiv_pos_site_id
 _symmetry_equiv_pos_as_xyz
  1  'x, y, z'
loop_
 _atom_site_type_symbol
 _atom_site_label
 _atom_site_symmetry_multiplicity
 _atom_site_fract_x
 _atom_site_fract_y
 _atom_site_fract_z
 _atom_site_occupancy
  Dy  Dy0  1  0.00000000  -0.00000000  0.25000000  1
  Dy  Dy1  1  -0.00000000  -0.00000000  0.75000000  1
  Dy  Dy2  1  0.00000000  -0.00000000  -0.00000000  1
  Dy  Dy3  1  0.00000000  -0.00000000  0.50000000  1
  Zn  Zn0  1  0.33333300  0.66666700  0.16180336  1
  Zn  Zn1  1  0.66666700  0.33333300  0.83819664  1
  Zn  Zn2  1  0.66666700  0.33333300  0.66180336  1
  Zn  Zn3  1  0.33333300  0.66666700  0.33819664  1
  Sn  Sn0  1  0.33333300  0.66666700  0.61415845  1
  Sn  Sn1  1  0.66666700  0.33333300  0.38584155  1
  Sn  Sn2  1  0.66666700  0.33333300  0.11415845  1
  Sn  Sn3  1  0.33333300  0.66666700  0.88584155  1
loop_
_geom_bond_atom_site_label_1
_geom_bond_atom_site_label_2
_geom_bond_distance
_geom_bond_site_symmetry_2
Dy0 Zn0 2.933811 1_545
Dy0 Zn3 2.933811 1_545
Dy0 Zn3 2.933814 1_445
Dy0 Zn0 2.933814 1_445
Dy0 Zn3 2.933814 1_555
Dy0 Zn0 2.933814 1_555
Dy0 Sn2 3.369537 1_455
Dy0 Sn1 3.369537 1_455
Dy0 Sn2 3.369539 1_555
Dy0 Sn2 3.369539 1_445
Dy0 Sn1 3.369539 1_555
Dy0 Sn1 3.369539 1_445
Dy1 Zn2 2.933811 1_455
Dy1 Zn1 2.933811 1_455
Dy1 Zn2 2.933814 1_555
Dy1 Zn2 2.933814 1_445
Dy1 Zn1 2.933814 1_555
Dy1 Zn1 2.933814 1_445
Dy1 Sn3 3.369537 1_545
Dy1 Sn0 3.369537 1_545
Dy1 Sn3 3.369539 1_445
Dy1 Sn0 3.369539 1_445
Dy1 Sn3 3.369539 1_555
Dy1 Sn0 3.369539 1_555
Dy2 Sn2 3.155787 1_455
Dy2 Sn3 3.155787 1_544
Dy2 Sn3 3.155790 1_554
Dy2 Sn2 3.155790 1_445
Dy2 Sn2 3.155790 1_555
Dy2 Sn3 3.155790 1_444
Dy3 Sn1 3.155787 1_455
Dy3 Sn0 3.155787 1_545
Dy3 Sn1 3.155790 1_555
Dy3 Sn0 3.155790 1_445
Dy3 Sn1 3.155790 1_445
Dy3 Sn0 3.155790 1_555
Sn0 Zn2 2.681392 1_455
Sn0 Zn2 2.681392 1_565
Sn0 Zn2 2.681399 1_555
Sn1 Zn3 2.681392 1_545
Sn1 Zn3 2.681392 1_655
Sn1 Zn3 2.681399 1_555
Sn2 Zn0 2.681392 1_545
Sn2 Zn0 2.681392 1_655
Sn2 Zn0 2.681399 1_555
Sn3 Zn1 2.681392 1_455
Sn3 Zn1 2.681392 1_565
Sn3 Zn1 2.681399 1_555
