# generated using pymatgen
data_Hf
_symmetry_space_group_name_H-M   'P 1'
_cell_length_a   6.38477028
_cell_length_b   6.38476825
_cell_length_c   10.09008328
_cell_angle_alpha   90.00000000
_cell_angle_beta   90.00000000
_cell_angle_gamma   119.99999979
_symmetry_Int_Tables_number   1
_chemical_formula_structural   Hf
_chemical_formula_sum   Hf16
_cell_volume   356.21794796
_cell_formula_units_Z   16
loop_
 _symmetry_equiv_pos_site_id
 _symmetry_equiv_pos_as_xyz
  1  'x, y, z'
loop_
 _atom_site_type_symbol
 _atom_site_label
 _atom_site_symmetry_multiplicity
 _atom_site_fract_x
 _atom_site_fract_y
 _atom_site_fract_z
 _atom_site_occupancy
  Hf  Hf0_0  1  0.16666650  0.33333350  0.12500000  1
  Hf  Hf0_1  1  0.16666650  0.33333350  0.62500000  1
  Hf  Hf0_2  1  0.16666650  0.83333350  0.12500000  1
  Hf  Hf0_3  1  0.16666650  0.83333350  0.62500000  1
  Hf  Hf0_4  1  0.66666650  0.33333350  0.12500000  1
  Hf  Hf0_5  1  0.66666650  0.33333350  0.62500000  1
  Hf  Hf0_6  1  0.66666650  0.83333350  0.12500000  1
  Hf  Hf0_7  1  0.66666650  0.83333350  0.62500000  1
  Hf  Hf1_0  1  0.33333350  0.16666650  0.37500000  1
  Hf  Hf1_1  1  0.33333350  0.16666650  0.87500000  1
  Hf  Hf1_2  1  0.33333350  0.66666650  0.37500000  1
  Hf  Hf1_3  1  0.33333350  0.66666650  0.87500000  1
  Hf  Hf1_4  1  0.83333350  0.16666650  0.37500000  1
  Hf  Hf1_5  1  0.83333350  0.16666650  0.87500000  1
  Hf  Hf1_6  1  0.83333350  0.66666650  0.37500000  1
  Hf  Hf1_7  1  0.83333350  0.66666650  0.87500000  1
loop_
_geom_bond_atom_site_label_1
_geom_bond_atom_site_label_2
_geom_bond_distance
_geom_bond_site_symmetry_2
Hf0_0 Hf1_2 3.124133 1_555
Hf0_0 Hf1_3 3.124133 1_554
Hf0_0 Hf1_5 3.124134 1_454
Hf0_0 Hf1_4 3.124134 1_455
Hf0_0 Hf1_0 3.124137 1_555
Hf0_0 Hf1_1 3.124137 1_554
Hf0_0 Hf0_2 3.192384 1_555
Hf0_0 Hf0_2 3.192384 1_545
Hf0_0 Hf0_6 3.192385 1_555
Hf0_0 Hf0_6 3.192385 1_445
Hf0_0 Hf0_4 3.192385 1_555
Hf0_0 Hf0_4 3.192385 1_455
Hf0_1 Hf1_2 3.124133 1_555
Hf0_1 Hf1_3 3.124133 1_555
Hf0_1 Hf1_5 3.124134 1_455
Hf0_1 Hf1_4 3.124134 1_455
Hf0_1 Hf1_0 3.124137 1_555
Hf0_1 Hf1_1 3.124137 1_555
Hf0_1 Hf0_3 3.192384 1_545
Hf0_1 Hf0_3 3.192384 1_555
Hf0_1 Hf0_7 3.192385 1_555
Hf0_1 Hf0_7 3.192385 1_445
Hf0_1 Hf0_5 3.192385 1_455
Hf0_1 Hf0_5 3.192385 1_555
Hf0_2 Hf1_0 3.124133 1_565
Hf0_2 Hf1_1 3.124133 1_564
Hf0_2 Hf1_7 3.124134 1_454
Hf0_2 Hf1_6 3.124134 1_455
Hf0_2 Hf1_2 3.124137 1_555
Hf0_2 Hf1_3 3.124137 1_554
Hf0_2 Hf0_4 3.192385 1_455
Hf0_2 Hf0_4 3.192385 1_565
Hf0_2 Hf0_6 3.192385 1_455
Hf0_2 Hf0_6 3.192385 1_555
Hf0_3 Hf1_0 3.124133 1_565
Hf0_3 Hf1_1 3.124133 1_565
Hf0_3 Hf1_7 3.124134 1_455
Hf0_3 Hf1_6 3.124134 1_455
Hf0_3 Hf1_2 3.124137 1_555
Hf0_3 Hf1_3 3.124137 1_555
Hf0_3 Hf0_5 3.192385 1_565
Hf0_3 Hf0_5 3.192385 1_455
Hf0_3 Hf0_7 3.192385 1_455
Hf0_3 Hf0_7 3.192385 1_555
Hf0_4 Hf1_6 3.124133 1_555
Hf0_4 Hf1_7 3.124133 1_554
Hf0_4 Hf1_1 3.124134 1_554
Hf0_4 Hf1_0 3.124134 1_555
Hf0_4 Hf1_5 3.124137 1_554
Hf0_4 Hf1_4 3.124137 1_555
Hf0_4 Hf0_6 3.192384 1_555
Hf0_4 Hf0_6 3.192384 1_545
Hf0_5 Hf1_6 3.124133 1_555
Hf0_5 Hf1_7 3.124133 1_555
Hf0_5 Hf1_1 3.124134 1_555
Hf0_5 Hf1_0 3.124134 1_555
Hf0_5 Hf1_5 3.124137 1_555
Hf0_5 Hf1_4 3.124137 1_555
Hf0_5 Hf0_7 3.192384 1_555
Hf0_5 Hf0_7 3.192384 1_545
Hf0_6 Hf1_5 3.124133 1_564
Hf0_6 Hf1_4 3.124133 1_565
Hf0_6 Hf1_2 3.124134 1_555
Hf0_6 Hf1_3 3.124134 1_554
Hf0_6 Hf1_6 3.124137 1_555
Hf0_6 Hf1_7 3.124137 1_554
Hf0_7 Hf1_5 3.124133 1_565
Hf0_7 Hf1_4 3.124133 1_565
Hf0_7 Hf1_2 3.124134 1_555
Hf0_7 Hf1_3 3.124134 1_555
Hf0_7 Hf1_6 3.124137 1_555
Hf0_7 Hf1_7 3.124137 1_555
Hf1_0 Hf1_2 3.192384 1_555
Hf1_0 Hf1_2 3.192384 1_545
Hf1_0 Hf1_6 3.192385 1_445
Hf1_0 Hf1_6 3.192385 1_555
Hf1_0 Hf1_4 3.192385 1_455
Hf1_0 Hf1_4 3.192385 1_555
Hf1_1 Hf1_3 3.192384 1_545
Hf1_1 Hf1_3 3.192384 1_555
Hf1_1 Hf1_7 3.192385 1_445
Hf1_1 Hf1_7 3.192385 1_555
Hf1_1 Hf1_5 3.192385 1_455
Hf1_1 Hf1_5 3.192385 1_555
Hf1_2 Hf1_4 3.192385 1_565
Hf1_2 Hf1_4 3.192385 1_455
Hf1_2 Hf1_6 3.192385 1_455
Hf1_2 Hf1_6 3.192385 1_555
Hf1_3 Hf1_5 3.192385 1_455
Hf1_3 Hf1_5 3.192385 1_565
Hf1_3 Hf1_7 3.192385 1_455
Hf1_3 Hf1_7 3.192385 1_555
Hf1_4 Hf1_6 3.192384 1_545
Hf1_4 Hf1_6 3.192384 1_555
Hf1_5 Hf1_7 3.192384 1_545
Hf1_5 Hf1_7 3.192384 1_555
