# generated using pymatgen
data_V6SiGe
_symmetry_space_group_name_H-M   'P 1'
_cell_length_a   4.71041898
_cell_length_b   4.71044649
_cell_length_c   4.71042587
_cell_angle_alpha   90.00000000
_cell_angle_beta   90.00000000
_cell_angle_gamma   90.00000000
_symmetry_Int_Tables_number   1
_chemical_formula_structural   V6SiGe
_chemical_formula_sum   'V6 Si1 Ge1'
_cell_volume   104.51576083
_cell_formula_units_Z   1
loop_
 _symmetry_equiv_pos_site_id
 _symmetry_equiv_pos_as_xyz
  1  'x, y, z'
loop_
 _atom_site_type_symbol
 _atom_site_label
 _atom_site_symmetry_multiplicity
 _atom_site_fract_x
 _atom_site_fract_y
 _atom_site_fract_z
 _atom_site_occupancy
  V  V0  1  0.00000000  0.50000000  0.75590810  1
  V  V1  1  0.50000000  0.24410556  -0.00000000  1
  V  V2  1  0.75591173  -0.00000000  0.50000000  1
  V  V3  1  0.00000000  0.50000000  0.24409190  1
  V  V4  1  0.50000000  0.75589444  -0.00000000  1
  V  V5  1  0.24408827  -0.00000000  0.50000000  1
  Si  Si0  1  0.00000000  -0.00000000  -0.00000000  1
  Ge  Ge0  1  0.50000000  0.50000000  0.50000000  1
loop_
_geom_bond_atom_site_label_1
_geom_bond_atom_site_label_2
_geom_bond_distance
_geom_bond_site_symmetry_2
V0 V3 2.299554 1_556
V0 V3 2.410872 1_555
V1 V4 2.299692 1_545
V1 V4 2.410754 1_555
V2 V5 2.299516 1_655
V2 V5 2.410903 1_555
Si0 V5 2.620872 1_555
Si0 V2 2.620872 1_454
Si0 V5 2.620872 1_554
Si0 V2 2.620872 1_455
Si0 V0 2.620890 1_544
Si0 V0 2.620890 1_554
Si0 V3 2.620890 1_545
Si0 V3 2.620890 1_555
Si0 V4 2.620908 1_545
Si0 V4 2.620908 1_445
Si0 V1 2.620908 1_555
Si0 V1 2.620908 1_455
Ge0 V1 2.645744 1_555
Ge0 V1 2.645744 1_556
Ge0 V4 2.645744 1_555
Ge0 V4 2.645744 1_556
Ge0 V0 2.645768 1_555
Ge0 V3 2.645768 1_555
Ge0 V0 2.645768 1_655
Ge0 V3 2.645768 1_655
Ge0 V5 2.645787 1_555
Ge0 V5 2.645787 1_565
Ge0 V2 2.645787 1_565
Ge0 V2 2.645787 1_555
