# generated using pymatgen
data_Ho2Ga3Cu
_symmetry_space_group_name_H-M   'P 1'
_cell_length_a   4.32204541
_cell_length_b   4.32204541
_cell_length_c   7.15950832
_cell_angle_alpha   90.00000000
_cell_angle_beta   90.00000000
_cell_angle_gamma   119.99999214
_symmetry_Int_Tables_number   1
_chemical_formula_structural   Ho2Ga3Cu
_chemical_formula_sum   'Ho2 Ga3 Cu1'
_cell_volume   115.82238791
_cell_formula_units_Z   1
loop_
 _symmetry_equiv_pos_site_id
 _symmetry_equiv_pos_as_xyz
  1  'x, y, z'
loop_
 _atom_site_type_symbol
 _atom_site_label
 _atom_site_symmetry_multiplicity
 _atom_site_fract_x
 _atom_site_fract_y
 _atom_site_fract_z
 _atom_site_occupancy
  Ho  Ho0  1  0.33333300  0.66666700  0.73048692  1
  Ho  Ho1  1  0.33333300  0.66666700  0.26185634  1
  Ga  Ga0  1  0.66666700  0.33333300  0.47781441  1
  Ga  Ga1  1  0.66666700  0.33333300  0.04454629  1
  Ga  Ga2  1  0.00000000  -0.00000000  0.94967699  1
  Cu  Cu0  1  0.00000000  -0.00000000  0.53561805  1
loop_
_geom_bond_atom_site_label_1
_geom_bond_atom_site_label_2
_geom_bond_distance
_geom_bond_site_symmetry_2
Ga0 Ho1 2.935519 1_655
Ga0 Ho1 2.935519 1_545
Ga0 Ho1 2.935525 1_555
Ga0 Ho0 3.082077 1_655
Ga0 Ho0 3.082077 1_545
Ga0 Ho0 3.082083 1_555
Ga0 Ga1 3.101987 1_555
Ga1 Ga2 2.586120 1_654
Ga1 Ga2 2.586124 1_664
Ga1 Ga2 2.586124 1_554
Ga1 Ho1 2.940629 1_545
Ga1 Ho1 2.940629 1_655
Ga1 Ho1 2.940635 1_555
Ga1 Ho0 3.358940 1_544
Ga1 Ho0 3.358940 1_654
Ga1 Ho0 3.358946 1_554
Ga2 Ho0 2.947772 1_545
Ga2 Ho0 2.947775 1_445
Ga2 Ho0 2.947775 1_555
Ga2 Ho1 3.349945 1_546
Ga2 Ho1 3.349948 1_556
Ga2 Ho1 3.349948 1_446
Cu0 Ga0 2.529416 1_455
Cu0 Ga0 2.529420 1_555
Cu0 Ga0 2.529420 1_445
Cu0 Ho0 2.858875 1_545
Cu0 Ho0 2.858878 1_445
Cu0 Ho0 2.858878 1_555
Cu0 Ga2 2.964458 1_555
Cu0 Ho1 3.173055 1_545
Cu0 Ho1 3.173058 1_445
Cu0 Ho1 3.173058 1_555
