# generated using pymatgen
data_Li3Mn2SnO6
_symmetry_space_group_name_H-M   'P 1'
_cell_length_a   6.08576707
_cell_length_b   6.98226258
_cell_length_c   6.16054371
_cell_angle_alpha   102.49360106
_cell_angle_beta   89.96411590
_cell_angle_gamma   101.78366473
_symmetry_Int_Tables_number   1
_chemical_formula_structural   Li3Mn2SnO6
_chemical_formula_sum   'Li6 Mn4 Sn2 O12'
_cell_volume   249.93158387
_cell_formula_units_Z   2
loop_
 _symmetry_equiv_pos_site_id
 _symmetry_equiv_pos_as_xyz
  1  'x, y, z'
loop_
 _atom_site_type_symbol
 _atom_site_label
 _atom_site_symmetry_multiplicity
 _atom_site_fract_x
 _atom_site_fract_y
 _atom_site_fract_z
 _atom_site_occupancy
  Li  Li0  1  0.83324100  0.33299200  0.83321000  1
  Li  Li1  1  0.83304400  0.33286500  0.33306800  1
  Li  Li2  1  0.52115400  0.99780000  0.99955200  1
  Li  Li3  1  0.50847100  0.00136800  0.49742300  1
  Li  Li4  1  0.15839900  0.66553400  0.16942800  1
  Li  Li5  1  0.14631900  0.66931800  0.66823300  1
  Mn  Mn0  1  0.98845600  0.98895200  0.00257400  1
  Mn  Mn1  1  0.67828100  0.67736600  0.66352900  1
  Mn  Mn2  1  0.98549000  0.99618000  0.50040500  1
  Mn  Mn3  1  0.68130100  0.67039300  0.16607500  1
  Sn  Sn0  1  0.33319800  0.33337000  0.83335200  1
  Sn  Sn1  1  0.33311700  0.33343400  0.33341100  1
  O  O0  1  0.23132200  0.01651100  0.73431200  1
  O  O1  1  0.23292100  0.02261100  0.28065300  1
  O  O2  1  0.43528100  0.65025400  0.93225900  1
  O  O3  1  0.43368100  0.64426600  0.38599100  1
  O  O4  1  0.90357500  0.66361800  0.93473700  1
  O  O5  1  0.90587200  0.66301500  0.39313700  1
  O  O6  1  0.76094800  0.00381900  0.27343000  1
  O  O7  1  0.76313500  0.00293700  0.73169300  1
  O  O8  1  0.56330400  0.30904600  0.07626400  1
  O  O9  1  0.56909900  0.33463000  0.58458500  1
  O  O10  1  0.09724400  0.33195100  0.08210300  1
  O  O11  1  0.10314600  0.35777300  0.59057900  1
loop_
_geom_bond_atom_site_label_1
_geom_bond_atom_site_label_2
_geom_bond_distance
_geom_bond_site_symmetry_2
Li0 O7 2.204358 1_555
Li0 O4 2.208100 1_555
Li0 O10 2.223769 1_656
Li0 O9 2.224495 1_555
Li0 O11 2.225981 1_655
Li0 O8 2.227500 1_556
Li1 O6 2.197546 1_555
Li1 O5 2.204797 1_555
Li1 O10 2.229894 1_655
Li1 O9 2.231138 1_555
Li1 O8 2.236789 1_555
Li1 O11 2.239660 1_655
Li2 O8 2.083280 1_566
Li2 O7 2.212231 1_565
Li2 O6 2.219355 1_566
Li2 O2 2.319631 1_555
Li2 O0 2.447112 1_565
Li2 O1 2.469081 1_566
Li3 O6 2.064503 1_555
Li3 O7 2.115188 1_555
Li3 O1 2.192612 1_555
Li3 O9 2.224415 1_555
Li3 O0 2.233552 1_555
Li3 O3 2.385722 1_545
Li4 O5 2.063558 1_455
Li4 O4 2.116963 1_454
Li4 O3 2.190608 1_555
Li4 O10 2.226431 1_555
Li4 O2 2.233478 1_554
Li4 O1 2.385516 1_565
Li5 O11 2.084766 1_555
Li5 O4 2.209233 1_455
Li5 O5 2.227078 1_455
Li5 O0 2.317570 1_565
Li5 O2 2.439005 1_555
Li5 O3 2.470183 1_555
Mn0 O6 2.166320 1_565
Mn0 O4 2.170665 1_554
Mn0 O7 2.191513 1_564
Mn0 O1 2.211248 1_665
Mn0 O0 2.229613 1_664
Mn0 O10 2.293271 1_665
Mn1 O5 2.164437 1_555
Mn1 O7 2.172176 1_565
Mn1 O4 2.192406 1_555
Mn1 O3 2.210057 1_555
Mn1 O2 2.231983 1_555
Mn1 O9 2.291775 1_555
Mn2 O7 1.964225 1_565
Mn2 O6 1.972268 1_565
Mn2 O1 2.031331 1_665
Mn2 O0 2.040175 1_665
Mn2 O5 2.226615 1_555
Mn2 O11 2.418865 1_665
Mn3 O4 1.964106 1_554
Mn3 O5 1.972188 1_555
Mn3 O3 2.032679 1_555
Mn3 O2 2.040924 1_554
Mn3 O6 2.228360 1_565
Mn3 O8 2.417427 1_555
O0 Sn0 2.123098 1_555
O1 Sn1 2.083745 1_555
O2 Sn0 2.123309 1_555
O3 Sn1 2.084061 1_555
O8 Sn0 2.106902 1_554
O8 Sn1 2.116349 1_555
O9 Sn0 2.099460 1_555
O9 Sn1 2.109310 1_555
O10 Sn0 2.099634 1_554
O10 Sn1 2.108876 1_555
O11 Sn0 2.106258 1_555
O11 Sn1 2.115535 1_555
