# generated using pymatgen
data_Sr2Fe(PO4)3
_symmetry_space_group_name_H-M   'P 1'
_cell_length_a   8.15590960
_cell_length_b   8.15590960
_cell_length_c   9.07976454
_cell_angle_alpha   113.87824500
_cell_angle_beta   113.87824500
_cell_angle_gamma   92.72378325
_symmetry_Int_Tables_number   1
_chemical_formula_structural   Sr2Fe(PO4)3
_chemical_formula_sum   'Sr4 Fe2 P6 O24'
_cell_volume   488.60514922
_cell_formula_units_Z   2
loop_
 _symmetry_equiv_pos_site_id
 _symmetry_equiv_pos_as_xyz
  1  'x, y, z'
loop_
 _atom_site_type_symbol
 _atom_site_label
 _atom_site_symmetry_multiplicity
 _atom_site_fract_x
 _atom_site_fract_y
 _atom_site_fract_z
 _atom_site_occupancy
  Sr  Sr0  1  0.66460000  0.74577000  0.30080700  1
  Sr  Sr1  1  0.25423000  0.33540000  0.19919300  1
  Sr  Sr2  1  0.33540000  0.25423000  0.69919300  1
  Sr  Sr3  1  0.74577000  0.66460000  0.80080700  1
  Fe  Fe0  1  0.00000000  0.50000000  0.50000000  1
  Fe  Fe1  1  0.50000000  0.00000000  0.00000000  1
  P  P0  1  0.96912800  0.03087200  0.25000000  1
  P  P1  1  0.03087200  0.96912800  0.75000000  1
  P  P2  1  0.63253400  0.24902400  0.45076300  1
  P  P3  1  0.75097600  0.36746600  0.04923700  1
  P  P4  1  0.36746600  0.75097600  0.54923700  1
  P  P5  1  0.24902400  0.63253400  0.95076300  1
  O  O0  1  0.02946700  0.23465300  0.40013300  1
  O  O1  1  0.76534700  0.97053300  0.09986700  1
  O  O2  1  0.97053300  0.76534700  0.59986700  1
  O  O3  1  0.23465300  0.02946700  0.90013300  1
  O  O4  1  0.80104600  0.42011500  0.55051100  1
  O  O5  1  0.57988500  0.19895400  0.94948900  1
  O  O6  1  0.19895400  0.57988500  0.44948900  1
  O  O7  1  0.42011500  0.80104600  0.05051100  1
  O  O8  1  0.80574100  0.46672500  0.25617300  1
  O  O9  1  0.53327500  0.19425900  0.24382700  1
  O  O10  1  0.19425900  0.53327500  0.74382700  1
  O  O11  1  0.46672500  0.80574100  0.75617300  1
  O  O12  1  0.97161700  0.88743400  0.32028700  1
  O  O13  1  0.11256600  0.02838300  0.17971300  1
  O  O14  1  0.02838300  0.11256600  0.67971300  1
  O  O15  1  0.88743400  0.97161700  0.82028700  1
  O  O16  1  0.49940600  0.31923700  0.53020200  1
  O  O17  1  0.68076300  0.50059400  0.96979800  1
  O  O18  1  0.50059400  0.68076300  0.46979800  1
  O  O19  1  0.31923700  0.49940600  0.03020200  1
  O  O20  1  0.69564800  0.08329400  0.47602500  1
  O  O21  1  0.91670600  0.30435200  0.02397400  1
  O  O22  1  0.30435200  0.91670600  0.52397500  1
  O  O23  1  0.08329400  0.69564800  0.97602500  1
loop_
_geom_bond_atom_site_label_1
_geom_bond_atom_site_label_2
_geom_bond_distance
_geom_bond_site_symmetry_2
Fe0 O6 2.002937 1_555
Fe0 O4 2.002937 1_455
Fe0 O10 2.029326 1_555
Fe0 O8 2.029326 1_455
Fe0 O2 2.049550 1_455
Fe0 O0 2.049550 1_555
Fe1 O5 2.002937 1_554
Fe1 O7 2.002937 1_545
Fe1 O9 2.029326 1_555
Fe1 O11 2.029326 1_544
Fe1 O1 2.049550 1_545
Fe1 O3 2.049550 1_554
O0 P0 1.551665 1_455
O0 Sr2 2.783985 1_555
O1 P0 1.551665 1_565
O1 Sr3 2.783985 1_554
O2 P1 1.551665 1_655
O2 Sr0 2.783985 1_555
O3 P1 1.551665 1_545
O3 Sr1 2.783985 1_556
O4 P2 1.563056 1_555
O4 Sr3 2.567153 1_555
O5 P3 1.563056 1_556
O5 Sr2 2.567153 1_555
O6 P4 1.563056 1_555
O6 Sr1 2.567153 1_555
O7 P5 1.563056 1_554
O7 Sr0 2.567153 1_555
O8 P3 1.562047 1_555
O8 Sr0 2.559079 1_555
O9 P2 1.562047 1_555
O9 Sr1 2.559079 1_555
O10 P5 1.562047 1_555
O10 Sr2 2.559079 1_555
O11 P4 1.562047 1_555
O11 Sr3 2.559079 1_555
O12 P0 1.540290 1_565
O12 Sr0 2.614820 1_555
O13 P0 1.540290 1_455
O13 Sr1 2.614820 1_555
O14 P1 1.540290 1_545
O14 Sr2 2.614820 1_555
O15 P1 1.540290 1_655
O15 Sr3 2.614820 1_555
O16 P2 1.544616 1_555
O16 Sr2 2.584096 1_555
O16 Sr3 2.805457 1_555
O16 Sr1 2.920468 1_555
O17 P3 1.544616 1_556
O17 Sr3 2.584096 1_555
O17 Sr2 2.805457 1_555
O17 Sr0 2.920468 1_556
O18 P4 1.544616 1_555
O18 Sr0 2.584096 1_555
O18 Sr1 2.805457 1_555
O18 Sr3 2.920468 1_555
O19 P5 1.544616 1_554
O19 Sr1 2.584096 1_555
O19 Sr0 2.805457 1_555
O19 Sr2 2.920468 1_554
O20 P2 1.538233 1_555
O20 Sr0 2.497028 1_545
O21 P3 1.538237 1_555
O21 Sr1 2.497030 1_655
O22 P4 1.538233 1_555
O22 Sr2 2.497028 1_565
O23 P5 1.538233 1_555
O23 Sr3 2.497028 1_455
