# generated using pymatgen
data_NaV6O11
_symmetry_space_group_name_H-M   'P 1'
_cell_length_a   5.87526187
_cell_length_b   5.87526187
_cell_length_c   13.49737100
_cell_angle_alpha   90.00000000
_cell_angle_beta   90.00000000
_cell_angle_gamma   119.99999858
_symmetry_Int_Tables_number   1
_chemical_formula_structural   NaV6O11
_chemical_formula_sum   'Na2 V12 O22'
_cell_volume   403.49139856
_cell_formula_units_Z   2
loop_
 _symmetry_equiv_pos_site_id
 _symmetry_equiv_pos_as_xyz
  1  'x, y, z'
loop_
 _atom_site_type_symbol
 _atom_site_label
 _atom_site_symmetry_multiplicity
 _atom_site_fract_x
 _atom_site_fract_y
 _atom_site_fract_z
 _atom_site_occupancy
  Na  Na0  1  0.33333300  0.66666700  0.23379300  1
  Na  Na1  1  0.66666700  0.33333300  0.73379300  1
  V  V0  1  0.00000000  0.00000000  0.14426700  1
  V  V1  1  0.00000000  0.00000000  0.64426700  1
  V  V2  1  0.00000000  0.00000000  0.34719800  1
  V  V3  1  0.00000000  0.00000000  0.84719800  1
  V  V4  1  0.49996400  0.99992700  0.49608400  1
  V  V5  1  0.49996400  0.50003600  0.49608400  1
  V  V6  1  0.00007300  0.50003600  0.49608400  1
  V  V7  1  0.50003600  0.00007300  0.99608400  1
  V  V8  1  0.50003600  0.49996400  0.99608400  1
  V  V9  1  0.99992700  0.49996400  0.99608400  1
  V  V10  1  0.33333300  0.66666700  0.74679600  1
  V  V11  1  0.66666700  0.33333300  0.24679600  1
  O  O0  1  0.33333300  0.66666700  0.91256000  1
  O  O1  1  0.66666700  0.33333300  0.41256000  1
  O  O2  1  0.17371300  0.34742700  0.42196200  1
  O  O3  1  0.17371300  0.82628700  0.42196200  1
  O  O4  1  0.65257300  0.82628700  0.42196200  1
  O  O5  1  0.82628700  0.65257300  0.92196200  1
  O  O6  1  0.82628700  0.17371300  0.92196200  1
  O  O7  1  0.34742700  0.17371300  0.92196200  1
  O  O8  1  0.33333300  0.66666700  0.57885700  1
  O  O9  1  0.66666700  0.33333300  0.07885700  1
  O  O10  1  0.14735900  0.29471700  0.74599200  1
  O  O11  1  0.14735900  0.85264100  0.74599200  1
  O  O12  1  0.70528300  0.85264100  0.74599200  1
  O  O13  1  0.85264100  0.70528300  0.24599200  1
  O  O14  1  0.85264100  0.14735900  0.24599200  1
  O  O15  1  0.29471700  0.14735900  0.24599200  1
  O  O16  1  0.17565100  0.35130200  0.07173800  1
  O  O17  1  0.17565100  0.82434900  0.07173800  1
  O  O18  1  0.64869800  0.82434900  0.07173800  1
  O  O19  1  0.82434900  0.64869800  0.57173800  1
  O  O20  1  0.82434900  0.17565100  0.57173800  1
  O  O21  1  0.35130200  0.17565100  0.57173800  1
loop_
_geom_bond_atom_site_label_1
_geom_bond_atom_site_label_2
_geom_bond_distance
_geom_bond_site_symmetry_2
Na0 O17 2.712772 1_555
Na0 O16 2.712775 1_555
Na0 O18 2.712775 1_555
Na0 O13 2.948795 1_455
Na0 O15 2.948795 1_565
Na0 O15 2.948795 1_555
Na0 O13 2.948795 1_555
Na0 O14 2.948795 1_565
Na0 O14 2.948795 1_455
Na0 O3 3.014793 1_555
Na0 O2 3.014793 1_555
Na0 O4 3.014793 1_555
Na1 O20 2.712772 1_555
Na1 O21 2.712775 1_555
Na1 O19 2.712775 1_555
Na1 O10 2.948795 1_655
Na1 O12 2.948795 1_545
Na1 O12 2.948795 1_555
Na1 O10 2.948795 1_555
Na1 O11 2.948795 1_545
Na1 O11 2.948795 1_655
Na1 O6 3.014793 1_555
Na1 O7 3.014793 1_555
Na1 O5 3.014793 1_555
O0 V8 2.036846 1_555
O0 V9 2.036846 1_455
O0 V7 2.036846 1_565
O0 V10 2.237378 1_555
O1 V5 2.036846 1_555
O1 V6 2.036846 1_655
O1 V4 2.036846 1_545
O1 V11 2.237378 1_555
O2 V6 1.939151 1_555
O2 V5 1.939160 1_555
O2 V2 2.035502 1_555
O3 V4 1.939160 1_555
O3 V6 1.939160 1_555
O3 V2 2.035497 1_565
O4 V4 1.939151 1_555
O4 V5 1.939160 1_555
O4 V2 2.035502 1_665
O5 V9 1.939151 1_555
O5 V8 1.939160 1_555
O5 V3 2.035502 1_665
O6 V9 1.939160 1_555
O6 V7 1.939160 1_555
O6 V3 2.035497 1_655
O7 V7 1.939151 1_555
O7 V8 1.939160 1_555
O7 V3 2.035502 1_555
O8 V6 2.030633 1_555
O8 V4 2.030633 1_555
O8 V5 2.030641 1_555
O8 V10 2.266735 1_555
O9 V7 2.030633 1_554
O9 V9 2.030633 1_554
O9 V8 2.030641 1_554
O9 V11 2.266735 1_555
O10 V10 1.892560 1_555
O10 V3 2.028465 1_555
O10 V1 2.033189 1_555
O11 V10 1.892549 1_555
O11 V3 2.028468 1_565
O11 V1 2.033192 1_565
O12 V10 1.892560 1_555
O12 V3 2.028465 1_665
O12 V1 2.033189 1_665
O13 V11 1.892560 1_555
O13 V2 2.028465 1_665
O13 V0 2.033189 1_665
O14 V11 1.892549 1_555
O14 V2 2.028468 1_655
O14 V0 2.033192 1_655
O15 V11 1.892560 1_555
O15 V2 2.028465 1_555
O15 V0 2.033189 1_555
O16 V8 1.942477 1_554
O16 V9 1.942481 1_454
O16 V0 2.037987 1_555
O17 V7 1.942477 1_564
O17 V9 1.942477 1_454
O17 V0 2.037987 1_565
O18 V8 1.942477 1_554
O18 V7 1.942481 1_564
O18 V0 2.037987 1_665
O19 V5 1.942477 1_555
O19 V6 1.942481 1_655
O19 V1 2.037987 1_665
O20 V6 1.942477 1_655
O20 V4 1.942477 1_545
O20 V1 2.037987 1_655
O21 V5 1.942477 1_555
O21 V4 1.942481 1_545
O21 V1 2.037987 1_555
