# generated using pymatgen
data_ThAlRh
_symmetry_space_group_name_H-M   'P 1'
_cell_length_a   7.17314651
_cell_length_b   7.17314651
_cell_length_c   4.14790412
_cell_angle_alpha   90.00000000
_cell_angle_beta   90.00000000
_cell_angle_gamma   119.99999418
_symmetry_Int_Tables_number   1
_chemical_formula_structural   ThAlRh
_chemical_formula_sum   'Th3 Al3 Rh3'
_cell_volume   184.83268340
_cell_formula_units_Z   3
loop_
 _symmetry_equiv_pos_site_id
 _symmetry_equiv_pos_as_xyz
  1  'x, y, z'
loop_
 _atom_site_type_symbol
 _atom_site_label
 _atom_site_symmetry_multiplicity
 _atom_site_fract_x
 _atom_site_fract_y
 _atom_site_fract_z
 _atom_site_occupancy
  Th  Th0  1  0.00000000  0.42000776  0.50000000  1
  Th  Th1  1  0.57999224  0.57999224  0.50000000  1
  Th  Th2  1  0.42000776  0.00000000  0.50000000  1
  Al  Al0  1  0.00000000  0.77328275  0.00000000  1
  Al  Al1  1  0.22671725  0.22671725  -0.00000000  1
  Al  Al2  1  0.77328275  0.00000000  -0.00000000  1
  Rh  Rh0  1  0.33333300  0.66666700  0.00000000  1
  Rh  Rh1  1  0.66666700  0.33333300  0.00000000  1
  Rh  Rh2  1  -0.00000000  0.00000000  0.50000000  1
loop_
_geom_bond_atom_site_label_1
_geom_bond_atom_site_label_2
_geom_bond_distance
_geom_bond_site_symmetry_2
Al0 Rh2 2.635536 1_564
Al0 Rh2 2.635536 1_565
Al0 Rh0 2.851417 1_555
Al0 Rh1 2.851422 1_455
Al1 Rh2 2.635536 1_554
Al1 Rh2 2.635536 1_555
Al1 Rh0 2.851424 1_555
Al1 Rh1 2.851424 1_555
Al2 Rh2 2.635536 1_654
Al2 Rh2 2.635536 1_655
Al2 Rh1 2.851417 1_555
Al2 Rh0 2.851422 1_545
Rh0 Th2 2.986359 1_564
Rh0 Th2 2.986359 1_565
Rh0 Th0 2.986361 1_555
Rh0 Th0 2.986361 1_554
Rh0 Th1 2.986364 1_555
Rh0 Th1 2.986364 1_554
Rh1 Th0 2.986359 1_655
Rh1 Th0 2.986359 1_654
Rh1 Th2 2.986361 1_555
Rh1 Th2 2.986361 1_554
Rh1 Th1 2.986364 1_555
Rh1 Th1 2.986364 1_554
Rh2 Th0 3.012777 1_555
Rh2 Th2 3.012777 1_555
Rh2 Th1 3.012777 1_445
