# generated using pymatgen
data_CaZnGe
_symmetry_space_group_name_H-M   'P 1'
_cell_length_a   4.25621333
_cell_length_b   4.25621302
_cell_length_c   8.28709490
_cell_angle_alpha   90.00000000
_cell_angle_beta   90.00000000
_cell_angle_gamma   119.99998679
_symmetry_Int_Tables_number   1
_chemical_formula_structural   CaZnGe
_chemical_formula_sum   'Ca2 Zn2 Ge2'
_cell_volume   130.01089416
_cell_formula_units_Z   2
loop_
 _symmetry_equiv_pos_site_id
 _symmetry_equiv_pos_as_xyz
  1  'x, y, z'
loop_
 _atom_site_type_symbol
 _atom_site_label
 _atom_site_symmetry_multiplicity
 _atom_site_fract_x
 _atom_site_fract_y
 _atom_site_fract_z
 _atom_site_occupancy
  Ca  Ca0  1  -0.00000000  0.00000000  -0.00000000  1
  Ca  Ca1  1  -0.00000000  0.00000000  0.50000000  1
  Zn  Zn0  1  0.33333300  0.66666700  0.25000000  1
  Zn  Zn1  1  0.66666700  0.33333300  0.75000000  1
  Ge  Ge0  1  0.33333300  0.66666700  0.75000000  1
  Ge  Ge1  1  0.66666700  0.33333300  0.25000000  1
loop_
_geom_bond_atom_site_label_1
_geom_bond_atom_site_label_2
_geom_bond_distance
_geom_bond_site_symmetry_2
Ca0 Ge1 3.214138 1_455
Ca0 Zn0 3.214138 1_545
Ca0 Zn1 3.214138 1_454
Ca0 Ge0 3.214138 1_544
Ca0 Ge1 3.214141 1_445
Ca0 Ge0 3.214141 1_554
Ca0 Zn0 3.214141 1_555
Ca0 Zn1 3.214141 1_444
Ca0 Zn1 3.214141 1_554
Ca0 Ge0 3.214141 1_444
Ca0 Ge1 3.214141 1_555
Ca0 Zn0 3.214141 1_445
Ca1 Ge1 3.214138 1_455
Ca1 Zn0 3.214138 1_545
Ca1 Zn1 3.214138 1_455
Ca1 Ge0 3.214138 1_545
Ca1 Ge1 3.214141 1_445
Ca1 Zn0 3.214141 1_555
Ca1 Ge0 3.214141 1_555
Ca1 Zn1 3.214141 1_445
Ca1 Ge0 3.214141 1_445
Ca1 Ge1 3.214141 1_555
Ca1 Zn1 3.214141 1_555
Ca1 Zn0 3.214141 1_445
Ge0 Zn1 2.457324 1_565
Ge0 Zn1 2.457324 1_455
Ge0 Zn1 2.457331 1_555
Ge1 Zn0 2.457324 1_545
Ge1 Zn0 2.457324 1_655
Ge1 Zn0 2.457331 1_555
