# generated using pymatgen
data_V5Ge3B
_symmetry_space_group_name_H-M   'P 1'
_cell_length_a   7.30636397
_cell_length_b   7.30634314
_cell_length_c   4.90998178
_cell_angle_alpha   90.00000000
_cell_angle_beta   90.00000000
_cell_angle_gamma   119.99990424
_symmetry_Int_Tables_number   1
_chemical_formula_structural   V5Ge3B
_chemical_formula_sum   'V10 Ge6 B2'
_cell_volume   226.99291350
_cell_formula_units_Z   2
loop_
 _symmetry_equiv_pos_site_id
 _symmetry_equiv_pos_as_xyz
  1  'x, y, z'
loop_
 _atom_site_type_symbol
 _atom_site_label
 _atom_site_symmetry_multiplicity
 _atom_site_fract_x
 _atom_site_fract_y
 _atom_site_fract_z
 _atom_site_occupancy
  V  V0  1  0.66666671  0.33332798  0.99999958  1
  V  V1  1  0.33333329  0.66666227  0.99999958  1
  V  V2  1  0.33333329  0.66666227  0.50000042  1
  V  V3  1  0.66666671  0.33332798  0.50000042  1
  V  V4  1  0.75628689  0.75628864  0.75000000  1
  V  V5  1  0.24371311  1.00000175  0.75000000  1
  V  V6  1  0.00000000  0.24371759  0.75000000  1
  V  V7  1  0.24371388  0.24371705  0.25000000  1
  V  V8  1  0.75628612  1.00000317  0.25000000  1
  V  V9  1  1.00000000  0.75628804  0.25000000  1
  Ge  Ge0  1  0.39954116  0.39953594  0.75000000  1
  Ge  Ge1  1  0.60045884  0.99999478  0.75000000  1
  Ge  Ge2  1  1.00000000  0.60046924  0.75000000  1
  Ge  Ge3  1  0.60047055  0.60046412  0.25000000  1
  Ge  Ge4  1  0.39952945  0.99999457  0.25000000  1
  Ge  Ge5  1  0.00000000  0.39954274  0.25000000  1
  B  B0  1  0.00000000  1.00000144  0.99999964  1
  B  B1  1  0.00000000  1.00000144  0.50000036  1
loop_
_geom_bond_atom_site_label_1
_geom_bond_atom_site_label_2
_geom_bond_distance
_geom_bond_site_symmetry_2
V0 V3 2.454987 1_555
V0 V3 2.454995 1_556
V1 V2 2.454987 1_555
V1 V2 2.454995 1_556
Ge0 V0 2.548344 1_555
Ge0 V3 2.548344 1_555
Ge0 V2 2.548344 1_555
Ge0 V1 2.548344 1_555
Ge0 V5 2.548348 1_545
Ge0 V6 2.548412 1_555
Ge0 V4 2.606540 1_555
Ge0 V7 2.706134 1_555
Ge0 V7 2.706134 1_556
Ge1 V3 2.548338 1_565
Ge1 V0 2.548338 1_565
Ge1 V1 2.548340 1_555
Ge1 V2 2.548340 1_555
Ge1 V4 2.548348 1_555
Ge1 V6 2.548412 1_665
Ge1 V5 2.606540 1_555
Ge1 V8 2.706134 1_555
Ge1 V8 2.706134 1_556
Ge2 V4 2.548347 1_555
Ge2 V5 2.548347 1_655
Ge2 V2 2.548376 1_655
Ge2 V1 2.548376 1_655
Ge2 V0 2.548378 1_555
Ge2 V3 2.548378 1_555
Ge2 V6 2.606550 1_655
Ge2 V9 2.706120 1_556
Ge2 V9 2.706120 1_555
Ge3 V9 2.548328 1_555
Ge3 V3 2.548359 1_555
Ge3 V0 2.548359 1_554
Ge3 V1 2.548378 1_554
Ge3 V2 2.548378 1_555
Ge3 V8 2.548392 1_555
Ge3 V7 2.606559 1_555
Ge3 V4 2.706126 1_555
Ge3 V4 2.706126 1_554
Ge4 V9 2.548329 1_455
Ge4 V2 2.548359 1_555
Ge4 V1 2.548359 1_554
Ge4 V0 2.548370 1_564
Ge4 V3 2.548370 1_565
Ge4 V7 2.548385 1_565
Ge4 V8 2.606563 1_555
Ge4 V5 2.706125 1_554
Ge4 V5 2.706125 1_555
Ge5 V0 2.548333 1_454
Ge5 V3 2.548333 1_455
Ge5 V2 2.548335 1_555
Ge5 V1 2.548335 1_554
Ge5 V7 2.548388 1_555
Ge5 V8 2.548388 1_445
Ge5 V9 2.606504 1_455
Ge5 V6 2.706139 1_555
Ge5 V6 2.706139 1_554
B0 V5 2.162747 1_555
B0 V4 2.162747 1_455
B0 V9 2.162748 1_456
B0 V8 2.162760 1_456
B0 V7 2.162760 1_566
B0 V6 2.162762 1_565
B1 V5 2.162747 1_555
B1 V4 2.162747 1_455
B1 V9 2.162748 1_455
B1 V8 2.162760 1_455
B1 V7 2.162760 1_565
B1 V6 2.162762 1_565
