# generated using pymatgen
data_K2B4O7
_symmetry_space_group_name_H-M   'P 1'
_cell_length_a   6.49257375
_cell_length_b   9.58921859
_cell_length_c   10.39870213
_cell_angle_alpha   89.42084256
_cell_angle_beta   102.61885819
_cell_angle_gamma   101.06938802
_symmetry_Int_Tables_number   1
_chemical_formula_structural   K2B4O7
_chemical_formula_sum   'K8 B16 O28'
_cell_volume   619.67497347
_cell_formula_units_Z   4
loop_
 _symmetry_equiv_pos_site_id
 _symmetry_equiv_pos_as_xyz
  1  'x, y, z'
loop_
 _atom_site_type_symbol
 _atom_site_label
 _atom_site_symmetry_multiplicity
 _atom_site_fract_x
 _atom_site_fract_y
 _atom_site_fract_z
 _atom_site_occupancy
  K  K0  1  0.74700757  -0.00270551  0.59315859  1
  K  K1  1  0.25299243  0.00270551  0.40684141  1
  K  K2  1  0.20889021  0.62687114  0.50333184  1
  K  K3  1  0.79110979  0.37312886  0.49666816  1
  K  K4  1  0.66352098  0.47752478  0.87308609  1
  K  K5  1  0.33647902  0.52247522  0.12691391  1
  K  K6  1  0.62724651  0.87335861  0.95837851  1
  K  K7  1  0.37275349  0.12664139  0.04162149  1
  B  B0  1  0.66599730  0.69944383  0.45482668  1
  B  B1  1  0.33400270  0.30055617  0.54517332  1
  B  B2  1  0.13133039  0.80962421  0.15904112  1
  B  B3  1  0.86866961  0.19037579  0.84095888  1
  B  B4  1  0.12474075  0.55554317  0.81301092  1
  B  B5  1  0.87525925  0.44445683  0.18698908  1
  B  B6  1  0.18912642  0.91017695  0.72988608  1
  B  B7  1  0.81087358  0.08982305  0.27011392  1
  B  B8  1  0.54777437  0.84787856  0.26949383  1
  B  B9  1  0.45222563  0.15212144  0.73050617  1
  B  B10  1  0.88152219  0.70080284  0.68601506  1
  B  B11  1  0.11847781  0.29919716  0.31398494  1
  B  B12  1  0.05518069  0.77788491  0.90687652  1
  B  B13  1  0.94481931  0.22211509  0.09312348  1
  B  B14  1  0.81184940  0.68718207  0.25200384  1
  B  B15  1  0.18815060  0.31281793  0.74799616  1
  O  O0  1  0.84969563  0.74416761  0.81118735  1
  O  O1  1  0.04194851  0.81437799  0.64017777  1
  O  O2  1  0.32203404  0.32175744  0.41260275  1
  O  O3  1  0.67796596  0.67824256  0.58739725  1
  O  O4  1  0.02851358  0.43328016  0.29971604  1
  O  O5  1  0.95805149  0.18562201  0.35982223  1
  O  O6  1  0.32395972  0.00996324  0.67703222  1
  O  O7  1  0.67604028  0.99003676  0.32296778  1
  O  O8  1  0.65405498  0.12823763  0.81592021  1
  O  O9  1  0.34594502  0.87176237  0.18407979  1
  O  O10  1  0.34781940  0.23120958  0.80386778  1
  O  O11  1  0.65218060  0.76879042  0.19613222  1
  O  O12  1  0.23208709  0.44527248  0.83122736  1
  O  O13  1  0.76791291  0.55472752  0.16877264  1
  O  O14  1  0.48829607  0.22683924  0.60763847  1
  O  O15  1  0.51170393  0.77316076  0.39236153  1
  O  O16  1  0.20287855  0.35247213  0.61016201  1
  O  O17  1  0.79712145  0.64752787  0.38983799  1
  O  O18  1  0.96238885  0.23632096  0.73782263  1
  O  O19  1  0.03761115  0.76367904  0.26217737  1
  O  O20  1  0.17194956  0.65581236  0.91407128  1
  O  O21  1  0.82805044  0.34418764  0.08592872  1
  O  O22  1  0.19717325  0.90275455  0.86242532  1
  O  O23  1  0.80282675  0.09724545  0.13757468  1
  O  O24  1  0.01059989  0.80269715  0.03370417  1
  O  O25  1  0.98940011  0.19730285  0.96629583  1
  O  O26  1  0.97148642  0.56671984  0.70028396  1
  O  O27  1  0.15030437  0.25583239  0.18881265  1
loop_
_geom_bond_atom_site_label_1
_geom_bond_atom_site_label_2
_geom_bond_distance
_geom_bond_site_symmetry_2
K0 O18 2.718796 1_555
K0 O7 2.745394 1_545
K0 O1 2.801064 1_645
K0 O8 2.875292 1_555
K0 O15 2.957916 1_545
K0 O3 3.005023 1_545
K0 O14 3.037451 1_555
K0 O6 3.081658 1_555
K1 O19 2.718796 1_545
K1 O6 2.745394 1_555
K1 O5 2.801064 1_455
K1 O9 2.875292 1_545
K1 O14 2.957916 1_555
K1 O2 3.005023 1_555
K1 O15 3.037451 1_545
K1 O7 3.081658 1_545
K2 O15 2.657867 1_555
K2 O17 2.720184 1_455
K2 O4 2.731669 1_555
K2 O1 2.811893 1_555
K2 O26 2.813717 1_455
K2 O16 2.842467 1_555
K2 O19 2.919151 1_555
K2 O3 2.924269 1_555
K3 O14 2.657867 1_555
K3 O16 2.720184 1_655
K3 O26 2.731669 1_555
K3 O5 2.811893 1_555
K3 O4 2.813717 1_655
K3 O17 2.842467 1_555
K3 O18 2.919151 1_555
K3 O2 2.924269 1_555
K4 O21 2.666231 1_556
K4 O12 2.696053 1_555
K4 O0 2.744628 1_555
K4 O10 2.798037 1_555
K4 O26 2.973298 1_555
K4 O13 3.066652 1_556
K5 O20 2.666231 1_554
K5 O13 2.696053 1_555
K5 O27 2.744628 1_555
K5 O11 2.798037 1_555
K5 O4 2.973298 1_555
K5 O12 3.066652 1_554
K6 O11 2.642239 1_556
K6 O24 2.655671 1_656
K6 O23 2.755711 1_566
K6 O0 2.766698 1_555
K6 O22 2.819771 1_555
K6 O8 2.841562 1_565
K7 O10 2.642239 1_554
K7 O25 2.655671 1_454
K7 O22 2.755711 1_544
K7 O27 2.766698 1_555
K7 O23 2.819771 1_555
K7 O9 2.841562 1_545
B0 O17 1.360233 1_555
B0 O3 1.378912 1_555
B0 O15 1.379662 1_555
B1 O16 1.360233 1_555
B1 O2 1.378912 1_555
B1 O14 1.379662 1_555
B2 O24 1.361218 1_555
B2 O19 1.373759 1_555
B2 O9 1.374847 1_555
B3 O25 1.361218 1_555
B3 O18 1.373759 1_555
B3 O8 1.374847 1_555
B4 O12 1.364185 1_555
B4 O20 1.374533 1_555
B4 O26 1.380006 1_455
B5 O13 1.364185 1_555
B5 O21 1.374533 1_555
B5 O4 1.380006 1_655
B6 O6 1.364538 1_565
B6 O22 1.369421 1_555
B6 O1 1.384910 1_555
B7 O7 1.364538 1_545
B7 O23 1.369421 1_555
B7 O5 1.384910 1_555
B8 O11 1.432367 1_555
B8 O9 1.470057 1_555
B8 O7 1.496017 1_555
B8 O15 1.499474 1_555
B9 O10 1.432367 1_555
B9 O8 1.470057 1_555
B9 O6 1.496017 1_555
B9 O14 1.499474 1_555
B10 O0 1.439205 1_555
B10 O3 1.465472 1_555
B10 O26 1.504328 1_555
B10 O1 1.506334 1_655
B11 O27 1.439205 1_555
B11 O2 1.465472 1_555
B11 O4 1.504328 1_555
B11 O5 1.506334 1_455
B12 O24 1.441982 1_556
B12 O0 1.461294 1_455
B12 O22 1.499481 1_555
B12 O20 1.504939 1_555
B13 O25 1.441982 1_554
B13 O27 1.461294 1_655
B13 O23 1.499481 1_555
B13 O21 1.504939 1_555
B14 O11 1.436588 1_555
B14 O19 1.489536 1_655
B14 O13 1.489605 1_555
B14 O17 1.497657 1_555
B15 O10 1.436588 1_555
B15 O18 1.489536 1_455
B15 O12 1.489605 1_555
B15 O16 1.497657 1_555
