# generated using pymatgen
data_SrNdEuSbO6
_symmetry_space_group_name_H-M   'P 1'
_cell_length_a   5.92027598
_cell_length_b   6.04123180
_cell_length_c   8.44687013
_cell_angle_alpha   90.12420489
_cell_angle_beta   90.38269358
_cell_angle_gamma   90.13207137
_symmetry_Int_Tables_number   1
_chemical_formula_structural   SrNdEuSbO6
_chemical_formula_sum   'Sr2 Nd2 Eu2 Sb2 O12'
_cell_volume   302.10046423
_cell_formula_units_Z   2
loop_
 _symmetry_equiv_pos_site_id
 _symmetry_equiv_pos_as_xyz
  1  'x, y, z'
loop_
 _atom_site_type_symbol
 _atom_site_label
 _atom_site_symmetry_multiplicity
 _atom_site_fract_x
 _atom_site_fract_y
 _atom_site_fract_z
 _atom_site_occupancy
  Sr  Sr0  1  0.98804654  0.04605376  0.25072975  1
  Sr  Sr1  1  0.01195346  0.95394624  0.74927025  1
  Nd  Nd0  1  -0.00000000  0.50000000  0.00000000  1
  Nd  Nd1  1  0.50000000  -0.00000000  0.50000000  1
  Eu  Eu0  1  0.51337707  0.54704069  0.24860174  1
  Eu  Eu1  1  0.48662293  0.45295931  0.75139826  1
  Sb  Sb0  1  0.50000000  -0.00000000  0.00000000  1
  Sb  Sb1  1  -0.00000000  0.50000000  0.50000000  1
  O  O0  1  0.22284103  0.18858456  0.95137691  1
  O  O1  1  0.27687325  0.68748231  0.55264142  1
  O  O2  1  0.77715897  0.81141544  0.04862309  1
  O  O3  1  0.72312675  0.31251769  0.44735858  1
  O  O4  1  0.32010269  0.72140302  0.94580637  1
  O  O5  1  0.18278666  0.22334317  0.55317100  1
  O  O6  1  0.67989731  0.27859698  0.05419363  1
  O  O7  1  0.81721334  0.77665683  0.44682900  1
  O  O8  1  0.40636639  0.96333340  0.22998311  1
  O  O9  1  0.10196933  0.46947113  0.27037541  1
  O  O10  1  0.59363361  0.03666660  0.77001689  1
  O  O11  1  0.89803067  0.53052887  0.72962459  1
loop_
_geom_bond_atom_site_label_1
_geom_bond_atom_site_label_2
_geom_bond_distance
_geom_bond_site_symmetry_2
Nd0 O2 2.337505 1_455
Nd0 O0 2.337505 1_554
Nd0 O6 2.364853 1_455
Nd0 O4 2.364853 1_554
Nd0 O11 2.366059 1_454
Nd0 O9 2.366059 1_555
Nd1 O1 2.346740 1_545
Nd1 O3 2.346740 1_555
Nd1 O10 2.353455 1_555
Nd1 O8 2.353455 1_545
Nd1 O5 2.359960 1_555
Nd1 O7 2.359960 1_545
Eu0 O9 2.487348 1_555
Eu0 O6 2.513161 1_555
Eu0 O3 2.521615 1_555
Eu0 O8 2.599741 1_555
Eu0 O2 2.806864 1_555
Eu0 O7 2.810995 1_555
Eu0 O4 2.989764 1_554
Eu0 O1 3.052860 1_555
Eu1 O11 2.487348 1_555
Eu1 O4 2.513161 1_555
Eu1 O1 2.521615 1_555
Eu1 O10 2.599741 1_555
Eu1 O0 2.806864 1_555
Eu1 O5 2.810995 1_555
Eu1 O6 2.989764 1_556
Eu1 O3 3.052860 1_555
O0 Sb0 2.039782 1_556
O0 Sr1 2.536810 1_545
O0 Sr0 3.019657 1_456
O1 Sb1 2.036404 1_555
O1 Sr1 2.800832 1_555
O2 Sb0 2.039782 1_565
O2 Sr0 2.536810 1_565
O2 Sr1 3.019657 1_654
O3 Sb1 2.036404 1_655
O3 Sr0 2.800832 1_555
O4 Sb0 2.039232 1_566
O4 Sr1 2.835352 1_555
O5 Sb1 2.042367 1_555
O5 Sr1 2.538076 1_545
O5 Sr0 2.990962 1_455
O6 Sb0 2.039232 1_555
O6 Sr0 2.835352 1_555
O7 Sb1 2.042367 1_655
O7 Sr0 2.538076 1_565
O7 Sr1 2.990962 1_655
O8 Sb0 2.036144 1_565
O8 Sr0 2.534751 1_465
O9 Sb1 2.043316 1_555
O9 Sr0 2.648454 1_455
O10 Sb0 2.036144 1_556
O10 Sr1 2.534751 1_645
O11 Sb1 2.043316 1_655
O11 Sr1 2.648454 1_655
