# generated using pymatgen
data_Li4MnCo2O7
_symmetry_space_group_name_H-M   'P 1'
_cell_length_a   7.78279422
_cell_length_b   7.78279422
_cell_length_c   13.08082513
_cell_angle_alpha   61.44938737
_cell_angle_beta   61.44938737
_cell_angle_gamma   21.44588256
_symmetry_Int_Tables_number   1
_chemical_formula_structural   Li4MnCo2O7
_chemical_formula_sum   'Li8 Mn2 Co4 O14'
_cell_volume   253.11114649
_cell_formula_units_Z   2
loop_
 _symmetry_equiv_pos_site_id
 _symmetry_equiv_pos_as_xyz
  1  'x, y, z'
loop_
 _atom_site_type_symbol
 _atom_site_label
 _atom_site_symmetry_multiplicity
 _atom_site_fract_x
 _atom_site_fract_y
 _atom_site_fract_z
 _atom_site_occupancy
  Li  Li0  1  0.64809100  0.64809100  0.77178000  1
  Li  Li1  1  0.92626300  0.92626300  0.36480600  1
  Li  Li2  1  0.21362000  0.21362000  0.92711200  1
  Li  Li3  1  0.07453200  0.07453200  0.63958100  1
  Li  Li4  1  0.35268300  0.35268300  0.22183100  1
  Li  Li5  1  0.49537200  0.49537200  0.50076600  1
  Li  Li6  1  0.78359200  0.78359200  0.07590200  1
  Li  Li7  1  0.28902300  0.28902300  0.57048500  1
  Mn  Mn0  1  0.99890800  0.99890800  0.00103000  1
  Mn  Mn1  1  0.85758500  0.85758500  0.70488800  1
  Co  Co0  1  0.56976900  0.56976900  0.15024100  1
  Co  Co1  1  0.14698100  0.14698100  0.28679600  1
  Co  Co2  1  0.42899700  0.42899700  0.85169000  1
  Co  Co3  1  0.71449800  0.71449800  0.44622900  1
  O  O0  1  0.59679700  0.59679700  0.96895700  1
  O  O1  1  0.89055100  0.89055100  0.55073600  1
  O  O2  1  0.17202800  0.17202800  0.11073800  1
  O  O3  1  0.02329000  0.02329000  0.82337000  1
  O  O4  1  0.31120300  0.31120300  0.39627300  1
  O  O5  1  0.45250100  0.45250100  0.68003500  1
  O  O6  1  0.74342800  0.74342800  0.25081800  1
  O  O7  1  0.67709000  0.67709000  0.60049800  1
  O  O8  1  0.97112000  0.97112000  0.17786400  1
  O  O9  1  0.26051000  0.26051000  0.74880100  1
  O  O10  1  0.12191200  0.12191200  0.45432000  1
  O  O11  1  0.40234500  0.40234500  0.03055200  1
  O  O12  1  0.54222900  0.54222900  0.31721600  1
  O  O13  1  0.83508300  0.83508300  0.87668500  1
loop_
_geom_bond_atom_site_label_1
_geom_bond_atom_site_label_2
_geom_bond_distance
_geom_bond_site_symmetry_2
Li0 O7 2.061523 1_555
Li0 O9 2.154185 1_655
Li0 O9 2.154185 1_565
Li0 O3 2.223123 1_655
Li0 O3 2.223123 1_565
Li0 O0 2.302050 1_555
Li1 O12 2.134440 1_655
Li1 O12 2.134440 1_565
Li1 O4 2.158291 1_565
Li1 O4 2.158291 1_655
Li1 O8 2.195073 1_555
Li1 O1 2.218378 1_555
Li2 O9 2.080229 1_555
Li2 O0 2.153431 1_545
Li2 O0 2.153431 1_455
Li2 O2 2.165110 1_556
Li2 O13 2.188769 1_455
Li2 O13 2.188769 1_545
Li3 O7 2.009563 1_455
Li3 O7 2.009563 1_545
Li3 O3 2.135647 1_555
Li3 O10 2.165508 1_555
Li3 O5 2.213428 1_545
Li3 O5 2.213428 1_455
Li4 O4 2.049630 1_555
Li4 O6 2.101495 1_455
Li4 O6 2.101495 1_545
Li4 O8 2.166836 1_455
Li4 O8 2.166836 1_545
Li4 O11 2.233497 1_555
Li5 O1 2.018586 1_545
Li5 O1 2.018586 1_455
Li5 O5 2.105486 1_555
Li5 O12 2.145782 1_555
Li5 O10 2.251098 1_655
Li5 O10 2.251098 1_565
Li6 O6 2.060379 1_555
Li6 O2 2.111726 1_565
Li6 O2 2.111726 1_655
Li6 O11 2.167759 1_565
Li6 O11 2.167759 1_655
Li6 O13 2.326915 1_554
Li7 O1 2.045586 1_455
Li7 O1 2.045586 1_545
Li7 O7 2.127846 1_455
Li7 O7 2.127846 1_545
Li7 O4 2.134509 1_555
Li7 O9 2.154361 1_555
Mn0 O11 1.967786 1_655
Mn0 O11 1.967786 1_565
Mn0 O0 1.975641 1_564
Mn0 O0 1.975641 1_654
Mn0 O8 2.138888 1_555
Mn0 O3 2.167183 1_664
Mn1 O1 1.825147 1_555
Mn1 O9 1.949709 1_655
Mn1 O9 1.949709 1_565
Mn1 O5 1.962318 1_565
Mn1 O5 1.962318 1_655
Mn1 O13 2.101469 1_555
Co0 O8 1.993323 1_545
Co0 O8 1.993323 1_455
Co0 O2 2.005887 1_565
Co0 O2 2.005887 1_655
Co0 O12 2.013212 1_555
Co0 O0 2.200120 1_554
Co1 O6 1.954170 1_455
Co1 O6 1.954170 1_545
Co1 O10 2.032648 1_555
Co1 O12 2.049788 1_455
Co1 O12 2.049788 1_545
Co1 O2 2.142949 1_555
Co2 O3 1.947833 1_565
Co2 O3 1.947833 1_655
Co2 O13 1.951896 1_545
Co2 O13 1.951896 1_455
Co2 O5 2.094220 1_555
Co2 O11 2.170802 1_556
Co3 O7 1.810064 1_555
Co3 O4 1.941927 1_565
Co3 O4 1.941927 1_655
Co3 O10 1.991816 1_655
Co3 O10 1.991816 1_565
Co3 O6 2.372622 1_555
