# generated using pymatgen
data_La2Ni7
_symmetry_space_group_name_H-M   'P 1'
_cell_length_a   4.98296162
_cell_length_b   4.98295956
_cell_length_c   24.46984857
_cell_angle_alpha   90.00000000
_cell_angle_beta   90.00000000
_cell_angle_gamma   119.99999337
_symmetry_Int_Tables_number   1
_chemical_formula_structural   La2Ni7
_chemical_formula_sum   'La8 Ni28'
_cell_volume   526.18304199
_cell_formula_units_Z   4
loop_
 _symmetry_equiv_pos_site_id
 _symmetry_equiv_pos_as_xyz
  1  'x, y, z'
loop_
 _atom_site_type_symbol
 _atom_site_label
 _atom_site_symmetry_multiplicity
 _atom_site_fract_x
 _atom_site_fract_y
 _atom_site_fract_z
 _atom_site_occupancy
  La  La0  1  0.33333300  0.66666700  0.32619359  1
  La  La1  1  0.66666700  0.33333300  0.82619359  1
  La  La2  1  0.66666700  0.33333300  0.67380641  1
  La  La3  1  0.33333300  0.66666700  0.17380641  1
  La  La4  1  0.33333300  0.66666700  0.46916913  1
  La  La5  1  0.66666700  0.33333300  0.96916913  1
  La  La6  1  0.66666700  0.33333300  0.53083087  1
  La  La7  1  0.33333300  0.66666700  0.03083087  1
  Ni  Ni0  1  0.83418846  0.16581154  0.41198472  1
  Ni  Ni1  1  0.83418846  0.66837792  0.41198472  1
  Ni  Ni2  1  0.33162208  0.16581154  0.41198472  1
  Ni  Ni3  1  0.66837792  0.83418846  0.91198472  1
  Ni  Ni4  1  0.16581154  0.33162208  0.58801528  1
  Ni  Ni5  1  0.16581154  0.83418846  0.91198472  1
  Ni  Ni6  1  0.16581154  0.33162208  0.91198472  1
  Ni  Ni7  1  0.83418846  0.16581154  0.08801528  1
  Ni  Ni8  1  -0.00000000  -0.00000000  0.00000000  1
  Ni  Ni9  1  -0.00000000  -0.00000000  0.50000000  1
  Ni  Ni10  1  -0.00000000  -0.00000000  0.16917447  1
  Ni  Ni11  1  -0.00000000  -0.00000000  0.66917447  1
  Ni  Ni12  1  -0.00000000  -0.00000000  0.83082553  1
  Ni  Ni13  1  -0.00000000  -0.00000000  0.33082553  1
  Ni  Ni14  1  0.33333300  0.66666700  0.83170328  1
  Ni  Ni15  1  0.66666700  0.33333300  0.33170328  1
  Ni  Ni16  1  0.66666700  0.33333300  0.16829672  1
  Ni  Ni17  1  0.33333300  0.66666700  0.66829672  1
  Ni  Ni18  1  0.83298381  0.66596862  0.25000000  1
  Ni  Ni19  1  0.16701619  0.83298381  0.75000000  1
  Ni  Ni20  1  0.66596862  0.83298381  0.75000000  1
  Ni  Ni21  1  0.33403138  0.16701619  0.25000000  1
  Ni  Ni22  1  0.83298381  0.16701619  0.25000000  1
  Ni  Ni23  1  0.16701619  0.33403138  0.75000000  1
  Ni  Ni24  1  0.83418846  0.66837792  0.08801528  1
  Ni  Ni25  1  0.16581154  0.83418846  0.58801528  1
  Ni  Ni26  1  0.66837792  0.83418846  0.58801528  1
  Ni  Ni27  1  0.33162208  0.16581154  0.08801528  1
loop_
_geom_bond_atom_site_label_1
_geom_bond_atom_site_label_2
_geom_bond_distance
_geom_bond_site_symmetry_2
La0 Ni13 2.879143 1_565
La0 Ni13 2.879147 1_555
La0 Ni13 2.879148 1_665
La0 Ni15 2.880068 1_565
La0 Ni15 2.880069 1_455
La0 Ni15 2.880077 1_555
La0 La4 3.498590 1_555
La1 Ni12 2.879143 1_655
La1 Ni12 2.879147 1_665
La1 Ni12 2.879148 1_555
La1 Ni14 2.880068 1_545
La1 Ni14 2.880069 1_655
La1 Ni14 2.880077 1_555
La1 La5 3.498590 1_555
La2 Ni11 2.879143 1_655
La2 Ni11 2.879147 1_665
La2 Ni11 2.879148 1_555
La2 Ni17 2.880068 1_545
La2 Ni17 2.880069 1_655
La2 Ni17 2.880077 1_555
La2 La6 3.498590 1_555
La3 Ni10 2.879143 1_565
La3 Ni10 2.879147 1_555
La3 Ni10 2.879148 1_665
La3 Ni16 2.880068 1_565
La3 Ni16 2.880069 1_455
La3 Ni16 2.880077 1_555
La3 La7 3.498590 1_555
La4 Ni2 2.857543 1_555
La4 Ni2 2.857543 1_565
La4 Ni0 2.857543 1_455
La4 Ni0 2.857543 1_565
La4 Ni1 2.857543 1_455
La4 Ni1 2.857543 1_555
La4 Ni9 2.974185 1_565
La4 Ni9 2.974189 1_555
La4 Ni9 2.974190 1_665
La4 Ni25 3.247731 1_555
La4 Ni4 3.247735 1_555
La4 Ni26 3.247735 1_555
La4 La6 3.248577 1_565
La4 La6 3.248578 1_455
La4 La6 3.248585 1_555
La5 Ni3 2.857543 1_555
La5 Ni3 2.857543 1_545
La5 Ni5 2.857543 1_655
La5 Ni5 2.857543 1_545
La5 Ni6 2.857543 1_655
La5 Ni6 2.857543 1_555
La5 Ni8 2.974185 1_656
La5 Ni8 2.974189 1_666
La5 Ni8 2.974190 1_556
La5 Ni7 3.247731 1_556
La5 Ni24 3.247735 1_556
La5 Ni27 3.247735 1_556
La5 La7 3.248577 1_546
La5 La7 3.248578 1_656
La5 La7 3.248585 1_556
La6 Ni26 2.857543 1_555
La6 Ni26 2.857543 1_545
La6 Ni25 2.857543 1_655
La6 Ni25 2.857543 1_545
La6 Ni4 2.857543 1_655
La6 Ni4 2.857543 1_555
La6 Ni9 2.974185 1_655
La6 Ni9 2.974189 1_665
La6 Ni9 2.974190 1_555
La6 Ni0 3.247731 1_555
La6 Ni1 3.247735 1_555
La6 Ni2 3.247735 1_555
La7 Ni27 2.857543 1_555
La7 Ni27 2.857543 1_565
La7 Ni7 2.857543 1_455
La7 Ni7 2.857543 1_565
La7 Ni24 2.857543 1_455
La7 Ni24 2.857543 1_555
La7 Ni8 2.974185 1_565
La7 Ni8 2.974189 1_555
La7 Ni8 2.974190 1_665
La7 Ni5 3.247731 1_554
La7 Ni6 3.247735 1_554
La7 Ni3 3.247735 1_554
Ni0 Ni15 2.439180 1_555
Ni0 Ni13 2.447854 1_655
Ni0 Ni1 2.478692 1_545
Ni0 Ni2 2.478693 1_655
Ni0 Ni1 2.504268 1_555
Ni0 Ni2 2.504269 1_555
Ni0 Ni9 2.585825 1_655
Ni1 Ni15 2.439185 1_555
Ni1 Ni13 2.447851 1_665
Ni1 Ni2 2.478692 1_665
Ni1 Ni2 2.504269 1_555
Ni1 Ni9 2.585823 1_665
Ni2 Ni9 2.585823 1_555
Ni3 Ni6 2.478692 1_665
Ni3 Ni5 2.478693 1_655
Ni3 Ni6 2.504269 1_555
Ni3 Ni5 2.504269 1_555
Ni3 Ni8 2.585823 1_666
Ni4 Ni9 2.585823 1_555
Ni5 Ni6 2.478692 1_565
Ni5 Ni6 2.504268 1_555
Ni5 Ni8 2.585825 1_566
Ni6 Ni8 2.585823 1_556
Ni7 Ni8 2.585825 1_655
Ni10 Ni18 2.447341 1_445
Ni10 Ni21 2.447342 1_555
Ni10 Ni22 2.447344 1_455
Ni10 Ni24 2.447851 1_445
Ni10 Ni27 2.447852 1_555
Ni10 Ni7 2.447854 1_455
Ni10 Ni16 2.876991 1_455
Ni10 Ni16 2.876995 1_445
Ni10 Ni16 2.876996 1_555
Ni11 Ni23 2.447341 1_555
Ni11 Ni20 2.447342 1_445
Ni11 Ni19 2.447344 1_545
Ni11 Ni4 2.447851 1_555
Ni11 Ni26 2.447852 1_445
Ni11 Ni25 2.447854 1_545
Ni11 Ni17 2.876991 1_545
Ni11 Ni17 2.876995 1_555
Ni11 Ni17 2.876996 1_445
Ni12 Ni23 2.447341 1_555
Ni12 Ni20 2.447342 1_445
Ni12 Ni19 2.447344 1_545
Ni12 Ni6 2.447851 1_555
Ni12 Ni3 2.447852 1_445
Ni12 Ni5 2.447854 1_545
Ni12 Ni14 2.876991 1_545
Ni12 Ni14 2.876995 1_555
Ni12 Ni14 2.876996 1_445
Ni13 Ni18 2.447341 1_445
Ni13 Ni21 2.447342 1_555
Ni13 Ni22 2.447344 1_455
Ni13 Ni2 2.447852 1_555
Ni13 Ni15 2.876991 1_455
Ni13 Ni15 2.876995 1_445
Ni13 Ni15 2.876996 1_555
Ni14 Ni5 2.439180 1_555
Ni14 Ni6 2.439185 1_555
Ni14 Ni3 2.439185 1_555
Ni14 Ni19 2.461209 1_555
Ni14 Ni23 2.461214 1_555
Ni14 Ni20 2.461214 1_555
Ni15 Ni2 2.439185 1_555
Ni15 Ni22 2.461209 1_555
Ni15 Ni18 2.461214 1_555
Ni15 Ni21 2.461214 1_555
Ni16 Ni7 2.439180 1_555
Ni16 Ni24 2.439185 1_555
Ni16 Ni27 2.439185 1_555
Ni16 Ni22 2.461209 1_555
Ni16 Ni18 2.461214 1_555
Ni16 Ni21 2.461214 1_555
Ni17 Ni25 2.439180 1_555
Ni17 Ni4 2.439185 1_555
Ni17 Ni26 2.439185 1_555
Ni17 Ni19 2.461209 1_555
Ni17 Ni23 2.461214 1_555
Ni17 Ni20 2.461214 1_555
Ni18 Ni22 2.486260 1_555
Ni18 Ni21 2.486261 1_555
Ni18 Ni22 2.496700 1_565
Ni18 Ni21 2.496701 1_665
Ni19 Ni23 2.486260 1_555
Ni19 Ni20 2.486261 1_555
Ni19 Ni23 2.496700 1_565
Ni19 Ni20 2.496701 1_455
Ni20 Ni23 2.486261 1_555
Ni20 Ni23 2.496701 1_665
Ni21 Ni22 2.486261 1_555
Ni21 Ni22 2.496701 1_455
Ni24 Ni7 2.478692 1_565
Ni24 Ni27 2.478692 1_665
Ni24 Ni7 2.504268 1_555
Ni24 Ni27 2.504269 1_555
Ni24 Ni8 2.585823 1_665
Ni25 Ni4 2.478692 1_565
Ni25 Ni26 2.478693 1_455
Ni25 Ni4 2.504268 1_555
Ni25 Ni26 2.504269 1_555
Ni25 Ni9 2.585825 1_565
Ni26 Ni4 2.478692 1_665
Ni26 Ni4 2.504269 1_555
Ni26 Ni9 2.585823 1_665
Ni27 Ni7 2.478693 1_455
Ni27 Ni7 2.504269 1_555
Ni27 Ni8 2.585823 1_555
