# generated using pymatgen
data_Ni(PtO2)3
_symmetry_space_group_name_H-M   'P 1'
_cell_length_a   6.32668287
_cell_length_b   6.87672328
_cell_length_c   11.81151070
_cell_angle_alpha   99.82251962
_cell_angle_beta   89.99984107
_cell_angle_gamma   62.60348190
_symmetry_Int_Tables_number   1
_chemical_formula_structural   Ni(PtO2)3
_chemical_formula_sum   'Ni4 Pt12 O24'
_cell_volume   447.74456725
_cell_formula_units_Z   4
loop_
 _symmetry_equiv_pos_site_id
 _symmetry_equiv_pos_as_xyz
  1  'x, y, z'
loop_
 _atom_site_type_symbol
 _atom_site_label
 _atom_site_symmetry_multiplicity
 _atom_site_fract_x
 _atom_site_fract_y
 _atom_site_fract_z
 _atom_site_occupancy
  Ni  Ni0  1  0.49999888  0.99996220  -0.00001113  1
  Ni  Ni1  1  0.24999972  0.50003320  0.50000429  1
  Ni  Ni2  1  0.75000169  0.50002948  0.50000369  1
  Ni  Ni3  1  -0.00000564  0.99997057  -0.00000997  1
  Pt  Pt0  1  0.87508444  0.25000608  0.74996129  1
  Pt  Pt1  1  0.62491244  0.74999784  0.25004067  1
  Pt  Pt2  1  0.37508446  0.25000523  0.74996268  1
  Pt  Pt3  1  0.12491107  0.74999834  0.25003916  1
  Pt  Pt4  1  0.49999937  0.50001722  -0.00000351  1
  Pt  Pt5  1  0.25000286  -0.00001420  0.50000669  1
  Pt  Pt6  1  -0.00000043  0.50001743  -0.00000363  1
  Pt  Pt7  1  0.75000263  -0.00001372  0.50000696  1
  Pt  Pt8  1  0.37503132  0.74996949  0.74996523  1
  Pt  Pt9  1  0.12497088  0.25002639  0.25003334  1
  Pt  Pt10  1  0.87503097  0.74996955  0.74996533  1
  Pt  Pt11  1  0.62497150  0.25002593  0.25003327  1
  O  O0  1  0.89091941  0.71810018  0.57268615  1
  O  O1  1  0.64097012  0.21807709  0.07268127  1
  O  O2  1  0.39091625  0.71810067  0.57268610  1
  O  O3  1  0.14097085  0.21807713  0.07268124  1
  O  O4  1  0.35903309  0.78189649  0.92728596  1
  O  O5  1  0.10908353  0.28191975  0.42734537  1
  O  O6  1  0.85902950  0.78189843  0.92728682  1
  O  O7  1  0.60908152  0.28191970  0.42734528  1
  O  O8  1  0.91743647  0.16515159  0.58102700  1
  O  O9  1  0.66733817  0.66522398  0.08108557  1
  O  O10  1  0.41743810  0.16514723  0.58102818  1
  O  O11  1  0.16733580  0.66522761  0.08108432  1
  O  O12  1  0.83264060  0.33483630  0.91894673  1
  O  O13  1  0.58258153  0.83479808  0.41894603  1
  O  O14  1  0.33263889  0.33483986  0.91894676  1
  O  O15  1  0.08257913  0.83480104  0.41894473  1
  O  O16  1  0.02292302  0.95415982  0.79208355  1
  O  O17  1  0.77283772  0.45424909  0.29214206  1
  O  O18  1  0.52292309  0.95416075  0.79208462  1
  O  O19  1  0.27283893  0.45424845  0.29214114  1
  O  O20  1  0.72714154  0.54579443  0.70784407  1
  O  O21  1  0.47709984  0.04579244  0.20792920  1
  O  O22  1  0.22714209  0.54579343  0.70784397  1
  O  O23  1  0.97710065  0.04579244  0.20792854  1
loop_
_geom_bond_atom_site_label_1
_geom_bond_atom_site_label_2
_geom_bond_distance
_geom_bond_site_symmetry_2
Ni0 O6 2.138130 1_554
Ni0 O3 2.138136 1_565
Ni0 O4 2.138450 1_554
Ni0 O1 2.138720 1_565
Ni0 O18 2.417557 1_554
Ni0 O21 2.417967 1_565
Ni0 O9 2.417988 1_555
Ni0 O14 2.418412 1_564
Ni1 O2 2.138159 1_555
Ni1 O7 2.138276 1_555
Ni1 O0 2.138299 1_455
Ni1 O5 2.138342 1_555
Ni1 O22 2.416820 1_555
Ni1 O19 2.417083 1_555
Ni1 O15 2.417909 1_555
Ni1 O10 2.418339 1_555
Ni2 O0 2.138185 1_555
Ni2 O5 2.138270 1_655
Ni2 O2 2.138329 1_555
Ni2 O7 2.138339 1_555
Ni2 O20 2.416826 1_555
Ni2 O17 2.417067 1_555
Ni2 O13 2.417901 1_555
Ni2 O8 2.418289 1_555
Ni3 O1 2.138107 1_465
Ni3 O4 2.138185 1_554
Ni3 O6 2.138483 1_454
Ni3 O3 2.138693 1_565
Ni3 O16 2.417579 1_554
Ni3 O23 2.417949 1_465
Ni3 O11 2.417999 1_555
Ni3 O12 2.418353 1_464
O0 Pt10 2.065393 1_555
O0 Pt7 2.065599 1_565
O1 Pt4 2.065938 1_555
O1 Pt11 2.066201 1_555
O2 Pt8 2.065393 1_555
O2 Pt5 2.065595 1_565
O3 Pt6 2.065939 1_555
O3 Pt9 2.066202 1_555
O4 Pt4 2.065774 1_556
O4 Pt8 2.065846 1_555
O5 Pt5 2.065744 1_555
O5 Pt9 2.065765 1_555
O6 Pt6 2.065777 1_656
O6 Pt10 2.065854 1_555
O7 Pt7 2.065744 1_555
O7 Pt11 2.065764 1_555
O8 Pt0 1.962812 1_555
O8 Pt5 2.015609 1_655
O8 Pt7 2.016022 1_555
O9 Pt1 1.963016 1_555
O9 Pt4 2.016065 1_555
O9 Pt6 2.016389 1_655
O10 Pt2 1.962816 1_555
O10 Pt7 2.015604 1_555
O10 Pt5 2.016016 1_555
O11 Pt3 1.963012 1_555
O11 Pt6 2.016065 1_555
O11 Pt4 2.016394 1_555
O12 Pt0 1.963386 1_555
O12 Pt6 2.015861 1_656
O12 Pt4 2.016113 1_556
O13 Pt1 1.962460 1_555
O13 Pt5 2.015851 1_565
O13 Pt7 2.016256 1_565
O14 Pt2 1.963372 1_555
O14 Pt4 2.015851 1_556
O14 Pt6 2.016102 1_556
O15 Pt3 1.962463 1_555
O15 Pt7 2.015847 1_465
O15 Pt5 2.016256 1_565
O16 Pt0 1.963549 1_465
O16 Pt8 2.016102 1_555
O16 Pt10 2.016281 1_455
O17 Pt1 1.962866 1_555
O17 Pt9 2.016244 1_655
O17 Pt11 2.016335 1_555
O18 Pt2 1.963536 1_565
O18 Pt10 2.016103 1_555
O18 Pt8 2.016287 1_555
O19 Pt3 1.962875 1_555
O19 Pt11 2.016239 1_555
O19 Pt9 2.016336 1_555
O20 Pt0 1.963180 1_555
O20 Pt8 2.016101 1_555
O20 Pt10 2.016182 1_555
O21 Pt1 1.963188 1_545
O21 Pt9 2.016227 1_555
O21 Pt11 2.016416 1_555
O22 Pt2 1.963187 1_555
O22 Pt10 2.016107 1_455
O22 Pt8 2.016187 1_555
O23 Pt3 1.963181 1_645
O23 Pt11 2.016229 1_555
O23 Pt9 2.016413 1_655
