# generated using pymatgen
data_Dy8Ni18P11
_symmetry_space_group_name_H-M   'P 1'
_cell_length_a   17.95281401
_cell_length_b   17.95281401
_cell_length_c   3.82203300
_cell_angle_alpha   90.00000000
_cell_angle_beta   90.00000000
_cell_angle_gamma   120.00000002
_symmetry_Int_Tables_number   1
_chemical_formula_structural   Dy8Ni18P11
_chemical_formula_sum   'Dy16 Ni36 P22'
_cell_volume   1066.81749011
_cell_formula_units_Z   2
loop_
 _symmetry_equiv_pos_site_id
 _symmetry_equiv_pos_as_xyz
  1  'x, y, z'
loop_
 _atom_site_type_symbol
 _atom_site_label
 _atom_site_symmetry_multiplicity
 _atom_site_fract_x
 _atom_site_fract_y
 _atom_site_fract_z
 _atom_site_occupancy
  Dy  Dy0  1  0.47620600  0.52379400  0.50000000  1
  Dy  Dy1  1  0.47620600  0.95241200  0.50000000  1
  Dy  Dy2  1  0.04758800  0.52379400  0.50000000  1
  Dy  Dy3  1  0.26065500  0.73934500  0.50000000  1
  Dy  Dy4  1  0.26065500  0.52131000  0.50000000  1
  Dy  Dy5  1  0.47869000  0.73934500  0.50000000  1
  Dy  Dy6  1  0.77999800  0.22000200  0.00000000  1
  Dy  Dy7  1  0.77999800  0.55999700  0.00000000  1
  Dy  Dy8  1  0.44000300  0.22000200  0.00000000  1
  Dy  Dy9  1  0.00146100  0.21698700  0.00000000  1
  Dy  Dy10  1  0.78301300  0.78447400  0.00000000  1
  Dy  Dy11  1  0.78301300  0.99853900  0.00000000  1
  Dy  Dy12  1  0.21552600  0.99853900  0.00000000  1
  Dy  Dy13  1  0.21552600  0.21698700  0.00000000  1
  Dy  Dy14  1  0.00146100  0.78447400  0.00000000  1
  Dy  Dy15  1  0.00000000  0.00000000  0.00000000  1
  Ni  Ni0  1  0.71107400  0.28892600  0.50000000  1
  Ni  Ni1  1  0.71107400  0.42214800  0.50000000  1
  Ni  Ni2  1  0.57785200  0.28892600  0.50000000  1
  Ni  Ni3  1  0.07605100  0.36917400  0.50000000  1
  Ni  Ni4  1  0.63082600  0.70687700  0.50000000  1
  Ni  Ni5  1  0.63082600  0.92394900  0.50000000  1
  Ni  Ni6  1  0.29312300  0.92394900  0.50000000  1
  Ni  Ni7  1  0.29312300  0.36917400  0.50000000  1
  Ni  Ni8  1  0.07605100  0.70687700  0.50000000  1
  Ni  Ni9  1  0.39847100  0.02791400  0.00000000  1
  Ni  Ni10  1  0.97208600  0.37055700  0.00000000  1
  Ni  Ni11  1  0.97208600  0.60152900  0.00000000  1
  Ni  Ni12  1  0.62944300  0.60152900  0.00000000  1
  Ni  Ni13  1  0.62944300  0.02791400  0.00000000  1
  Ni  Ni14  1  0.39847100  0.37055700  0.00000000  1
  Ni  Ni15  1  0.18450200  0.81549800  0.00000000  1
  Ni  Ni16  1  0.18450200  0.36900300  0.00000000  1
  Ni  Ni17  1  0.63099700  0.81549800  0.00000000  1
  Ni  Ni18  1  0.40511100  0.59488900  0.00000000  1
  Ni  Ni19  1  0.40511100  0.81022100  0.00000000  1
  Ni  Ni20  1  0.18977900  0.59488900  0.00000000  1
  Ni  Ni21  1  0.07255800  0.92744200  0.50000000  1
  Ni  Ni22  1  0.07255800  0.14511700  0.50000000  1
  Ni  Ni23  1  0.85488300  0.92744200  0.50000000  1
  Ni  Ni24  1  0.49690100  0.12904300  0.50000000  1
  Ni  Ni25  1  0.87095700  0.36785800  0.50000000  1
  Ni  Ni26  1  0.87095700  0.50309900  0.50000000  1
  Ni  Ni27  1  0.63214200  0.50309900  0.50000000  1
  Ni  Ni28  1  0.63214200  0.12904300  0.50000000  1
  Ni  Ni29  1  0.49690100  0.36785800  0.50000000  1
  Ni  Ni30  1  0.61464200  0.38535800  0.00000000  1
  Ni  Ni31  1  0.61464200  0.22928500  0.00000000  1
  Ni  Ni32  1  0.77071500  0.38535800  0.00000000  1
  Ni  Ni33  1  0.85643400  0.14356600  0.50000000  1
  Ni  Ni34  1  0.85643400  0.71286800  0.50000000  1
  Ni  Ni35  1  0.28713200  0.14356600  0.50000000  1
  P  P0  1  0.33333300  0.66666700  0.00000000  1
  P  P1  1  0.14388800  0.85611200  0.50000000  1
  P  P2  1  0.14388800  0.28777600  0.50000000  1
  P  P3  1  0.71222400  0.85611200  0.50000000  1
  P  P4  1  0.12001800  0.45250100  0.00000000  1
  P  P5  1  0.54749900  0.66751600  0.00000000  1
  P  P6  1  0.54749900  0.87998200  0.00000000  1
  P  P7  1  0.33248400  0.87998200  0.00000000  1
  P  P8  1  0.33248400  0.45250100  0.00000000  1
  P  P9  1  0.12001800  0.66751600  0.00000000  1
  P  P10  1  0.54557300  0.45442700  0.00000000  1
  P  P11  1  0.54557300  0.09114600  0.00000000  1
  P  P12  1  0.90885400  0.45442700  0.00000000  1
  P  P13  1  0.35616100  0.07167300  0.50000000  1
  P  P14  1  0.92832700  0.28448900  0.50000000  1
  P  P15  1  0.92832700  0.64383900  0.50000000  1
  P  P16  1  0.71551100  0.64383900  0.50000000  1
  P  P17  1  0.71551100  0.07167300  0.50000000  1
  P  P18  1  0.35616100  0.28448900  0.50000000  1
  P  P19  1  0.92843000  0.07157000  0.50000000  1
  P  P20  1  0.92843000  0.85686000  0.50000000  1
  P  P21  1  0.14314000  0.07157000  0.50000000  1
loop_
_geom_bond_atom_site_label_1
_geom_bond_atom_site_label_2
_geom_bond_distance
_geom_bond_site_symmetry_2
Dy0 P10 2.881761 1_555
Dy0 P10 2.881761 1_556
Dy0 Ni18 2.922197 1_556
Dy0 Ni18 2.922197 1_555
Dy0 P5 2.940275 1_555
Dy0 P5 2.940275 1_556
Dy0 P8 2.940275 1_555
Dy0 P8 2.940275 1_556
Dy0 Ni29 3.002547 1_555
Dy0 Ni27 3.002547 1_555
Dy0 Ni14 3.054265 1_556
Dy0 Ni12 3.054265 1_556
Dy0 Ni14 3.054265 1_555
Dy0 Ni12 3.054265 1_555
Dy0 Ni7 3.063491 1_555
Dy0 Ni4 3.063491 1_555
Dy1 P11 2.881761 1_565
Dy1 P11 2.881761 1_566
Dy1 Ni19 2.922208 1_555
Dy1 Ni19 2.922208 1_556
Dy1 P7 2.940275 1_555
Dy1 P7 2.940275 1_556
Dy1 P6 2.940287 1_556
Dy1 P6 2.940287 1_555
Dy1 Ni28 3.002547 1_565
Dy1 Ni24 3.002547 1_565
Dy1 Ni13 3.054265 1_566
Dy1 Ni13 3.054265 1_565
Dy1 Ni9 3.054265 1_565
Dy1 Ni9 3.054265 1_566
Dy1 Ni6 3.063491 1_555
Dy1 Ni5 3.063491 1_555
Dy2 P12 2.881761 1_455
Dy2 P12 2.881761 1_456
Dy2 Ni20 2.922208 1_555
Dy2 Ni20 2.922208 1_556
Dy2 P9 2.940275 1_555
Dy2 P9 2.940275 1_556
Dy2 P4 2.940287 1_555
Dy2 P4 2.940287 1_556
Dy2 Ni25 3.002547 1_455
Dy2 Ni26 3.002547 1_455
Dy2 Ni10 3.054265 1_455
Dy2 Ni10 3.054265 1_456
Dy2 Ni11 3.054265 1_455
Dy2 Ni11 3.054265 1_456
Dy2 Ni8 3.063491 1_555
Dy2 Ni3 3.063491 1_555
Dy3 P9 2.904100 1_556
Dy3 P7 2.904100 1_556
Dy3 P9 2.904100 1_555
Dy3 P7 2.904100 1_555
Dy3 Ni19 2.949039 1_556
Dy3 Ni19 2.949039 1_555
Dy3 Ni20 2.949039 1_555
Dy3 Ni20 2.949039 1_556
Dy3 P0 2.959611 1_555
Dy3 P0 2.959611 1_556
Dy3 Ni15 3.042921 1_556
Dy3 Ni15 3.042921 1_555
Dy3 Ni6 3.064577 1_555
Dy3 Ni8 3.064577 1_555
Dy4 P4 2.904099 1_555
Dy4 P4 2.904099 1_556
Dy4 P8 2.904111 1_555
Dy4 P8 2.904111 1_556
Dy4 Ni20 2.949028 1_555
Dy4 Ni20 2.949028 1_556
Dy4 Ni18 2.949039 1_556
Dy4 Ni18 2.949039 1_555
Dy4 P0 2.959622 1_555
Dy4 P0 2.959622 1_556
Dy4 Ni16 3.042933 1_555
Dy4 Ni16 3.042933 1_556
Dy4 Ni3 3.064577 1_555
Dy4 Ni7 3.064577 1_555
Dy5 P6 2.904099 1_555
Dy5 P6 2.904099 1_556
Dy5 P5 2.904111 1_555
Dy5 P5 2.904111 1_556
Dy5 Ni19 2.949028 1_555
Dy5 Ni19 2.949028 1_556
Dy5 Ni18 2.949039 1_555
Dy5 Ni18 2.949039 1_556
Dy5 P0 2.959622 1_555
Dy5 P0 2.959622 1_556
Dy5 Ni17 3.042933 1_556
Dy5 Ni17 3.042933 1_555
Dy5 Ni5 3.064577 1_555
Dy5 Ni4 3.064577 1_555
Dy6 Ni0 2.871465 1_555
Dy6 Ni0 2.871465 1_554
Dy6 P17 3.000090 1_554
Dy6 P17 3.000090 1_555
Dy6 P14 3.000090 1_555
Dy6 P14 3.000090 1_554
Dy6 Ni28 3.004991 1_554
Dy6 Ni28 3.004991 1_555
Dy6 Ni25 3.004991 1_555
Dy6 Ni25 3.004991 1_554
Dy6 Ni33 3.049774 1_554
Dy6 Ni33 3.049774 1_555
Dy6 Ni32 3.055344 1_555
Dy6 Ni31 3.055344 1_555
Dy6 Ni13 3.142758 1_555
Dy6 Ni10 3.142758 1_555
Dy7 Ni1 2.871476 1_555
Dy7 Ni1 2.871476 1_554
Dy7 P15 3.000090 1_554
Dy7 P15 3.000090 1_555
Dy7 P16 3.000090 1_555
Dy7 P16 3.000090 1_554
Dy7 Ni27 3.004990 1_555
Dy7 Ni27 3.004990 1_554
Dy7 Ni26 3.005002 1_555
Dy7 Ni26 3.005002 1_554
Dy7 Ni34 3.049762 1_555
Dy7 Ni34 3.049762 1_554
Dy7 Ni30 3.055344 1_555
Dy7 Ni32 3.055344 1_555
Dy7 Ni12 3.142746 1_555
Dy7 Ni11 3.142763 1_555
Dy8 Ni2 2.871476 1_554
Dy8 Ni2 2.871476 1_555
Dy8 P13 3.000090 1_554
Dy8 P13 3.000090 1_555
Dy8 P18 3.000090 1_555
Dy8 P18 3.000090 1_554
Dy8 Ni29 3.004990 1_555
Dy8 Ni29 3.004990 1_554
Dy8 Ni24 3.005002 1_554
Dy8 Ni24 3.005002 1_555
Dy8 Ni35 3.049762 1_554
Dy8 Ni35 3.049762 1_555
Dy8 Ni30 3.055344 1_555
Dy8 Ni31 3.055344 1_555
Dy8 Ni14 3.142746 1_555
Dy8 Ni9 3.142763 1_555
Dy9 P14 2.904401 1_455
Dy9 P14 2.904401 1_454
Dy9 P2 2.924995 1_555
Dy9 P2 2.924995 1_554
Dy9 Ni22 2.931355 1_554
Dy9 Ni22 2.931355 1_555
Dy9 Ni33 2.955751 1_455
Dy9 Ni33 2.955751 1_454
Dy9 P19 2.960340 1_454
Dy9 P19 2.960340 1_455
Dy9 Ni3 3.041601 1_554
Dy9 Ni3 3.041601 1_555
Dy9 Ni16 3.046043 1_555
Dy9 Ni10 3.055026 1_455
Dy10 P16 2.904389 1_555
Dy10 P16 2.904389 1_554
Dy10 P3 2.924995 1_554
Dy10 P3 2.924995 1_555
Dy10 Ni23 2.931366 1_555
Dy10 Ni23 2.931366 1_554
Dy10 Ni34 2.955751 1_555
Dy10 Ni34 2.955751 1_554
Dy10 P20 2.960340 1_554
Dy10 P20 2.960340 1_555
Dy10 Ni4 3.041601 1_554
Dy10 Ni4 3.041601 1_555
Dy10 Ni17 3.046032 1_555
Dy10 Ni12 3.055026 1_555
Dy11 P17 2.904401 1_565
Dy11 P17 2.904401 1_564
Dy11 P3 2.924995 1_554
Dy11 P3 2.924995 1_555
Dy11 Ni23 2.931355 1_554
Dy11 Ni23 2.931355 1_555
Dy11 Ni33 2.955751 1_565
Dy11 Ni33 2.955751 1_564
Dy11 P19 2.960340 1_565
Dy11 P19 2.960340 1_564
Dy11 Ni5 3.041601 1_555
Dy11 Ni5 3.041601 1_554
Dy11 Ni17 3.046043 1_555
Dy11 Ni13 3.055026 1_565
Dy12 P13 2.904390 1_565
Dy12 P13 2.904390 1_564
Dy12 P1 2.924995 1_554
Dy12 P1 2.924995 1_555
Dy12 Ni21 2.931366 1_554
Dy12 Ni21 2.931366 1_555
Dy12 Ni35 2.955751 1_564
Dy12 Ni35 2.955751 1_565
Dy12 P21 2.960340 1_564
Dy12 P21 2.960340 1_565
Dy12 Ni6 3.041601 1_555
Dy12 Ni6 3.041601 1_554
Dy12 Ni15 3.046050 1_555
Dy12 Ni9 3.055026 1_565
Dy13 P18 2.904389 1_554
Dy13 P18 2.904389 1_555
Dy13 P2 2.924995 1_555
Dy13 P2 2.924995 1_554
Dy13 Ni22 2.931366 1_554
Dy13 Ni22 2.931366 1_555
Dy13 Ni35 2.955751 1_554
Dy13 Ni35 2.955751 1_555
Dy13 P21 2.960340 1_555
Dy13 P21 2.960340 1_554
Dy13 Ni7 3.041601 1_555
Dy13 Ni7 3.041601 1_554
Dy13 Ni16 3.046032 1_555
Dy13 Ni14 3.055026 1_555
Dy14 P15 2.904390 1_454
Dy14 P15 2.904390 1_455
Dy14 P1 2.924995 1_555
Dy14 P1 2.924995 1_554
Dy14 Ni21 2.931366 1_554
Dy14 Ni21 2.931366 1_555
Dy14 Ni34 2.955751 1_454
Dy14 Ni34 2.955751 1_455
Dy14 P20 2.960340 1_454
Dy14 P20 2.960340 1_455
Dy14 Ni8 3.041601 1_555
Dy14 Ni8 3.041601 1_554
Dy14 Ni15 3.046050 1_555
Dy14 Ni11 3.055026 1_455
Dy15 P21 2.933386 1_555
Dy15 P21 2.933386 1_554
Dy15 P20 2.933386 1_444
Dy15 P20 2.933386 1_445
Dy15 P19 2.933386 1_454
Dy15 P19 2.933386 1_455
Dy15 Ni21 2.956762 1_545
Dy15 Ni21 2.956762 1_544
Dy15 Ni22 2.956774 1_554
Dy15 Ni22 2.956774 1_555
Dy15 Ni23 2.956774 1_444
Dy15 Ni23 2.956774 1_445
Ni0 Ni2 2.391710 1_555
Ni0 Ni1 2.391710 1_555
Ni0 Ni31 2.437604 1_555
Ni0 Ni31 2.437604 1_556
Ni0 Ni32 2.437604 1_556
Ni0 Ni32 2.437604 1_555
Ni0 Ni25 2.485862 1_555
Ni0 Ni28 2.485862 1_555
Ni1 Ni2 2.391710 1_555
Ni1 Ni32 2.437595 1_555
Ni1 Ni32 2.437595 1_556
Ni1 Ni30 2.437605 1_556
Ni1 Ni30 2.437605 1_555
Ni1 Ni26 2.485862 1_555
Ni1 Ni27 2.485862 1_555
Ni2 Ni31 2.437595 1_555
Ni2 Ni31 2.437595 1_556
Ni2 Ni30 2.437605 1_556
Ni2 Ni30 2.437605 1_555
Ni2 Ni24 2.485862 1_555
Ni2 Ni29 2.485862 1_555
Ni3 P14 2.304957 1_455
Ni3 P4 2.309135 1_555
Ni3 P4 2.309135 1_556
Ni3 P2 2.323436 1_555
Ni4 P16 2.304942 1_555
Ni4 P5 2.309134 1_555
Ni4 P5 2.309134 1_556
Ni4 P3 2.323436 1_555
Ni5 P17 2.304957 1_565
Ni5 P6 2.309135 1_555
Ni5 P6 2.309135 1_556
Ni5 P3 2.323436 1_555
Ni6 P13 2.304958 1_565
Ni6 P7 2.309143 1_555
Ni6 P7 2.309143 1_556
Ni6 P1 2.323436 1_555
Ni7 P18 2.304942 1_555
Ni7 P8 2.309134 1_555
Ni7 P8 2.309134 1_556
Ni7 P2 2.323436 1_555
Ni8 P15 2.304958 1_455
Ni8 P9 2.309143 1_555
Ni8 P9 2.309143 1_556
Ni8 P1 2.323436 1_555
Ni9 P11 2.294573 1_555
Ni9 P7 2.304443 1_545
Ni9 P13 2.332990 1_555
Ni9 P13 2.332990 1_554
Ni10 P12 2.294573 1_555
Ni10 P4 2.304442 1_655
Ni10 P14 2.332981 1_555
Ni10 P14 2.332981 1_554
Ni11 P12 2.294573 1_555
Ni11 P9 2.304443 1_655
Ni11 P15 2.332990 1_554
Ni11 P15 2.332990 1_555
Ni12 P10 2.294573 1_555
Ni12 P5 2.304427 1_555
Ni12 P16 2.332981 1_555
Ni12 P16 2.332981 1_554
Ni13 P11 2.294573 1_555
Ni13 P6 2.304442 1_545
Ni13 P17 2.332981 1_554
Ni13 P17 2.332981 1_555
Ni14 P10 2.294573 1_555
Ni14 P8 2.304427 1_555
Ni14 P18 2.332981 1_554
Ni14 P18 2.332981 1_555
Ni15 P1 2.290611 1_554
Ni15 P1 2.290611 1_555
Ni15 P9 2.307086 1_555
Ni15 P7 2.307086 1_555
Ni16 P2 2.290603 1_555
Ni16 P2 2.290603 1_554
Ni16 P8 2.307086 1_555
Ni16 P4 2.307086 1_555
Ni17 P3 2.290603 1_554
Ni17 P3 2.290603 1_555
Ni17 P5 2.307086 1_555
Ni17 P6 2.307086 1_555
Ni18 P5 2.213940 1_555
Ni18 P8 2.213940 1_555
Ni18 P0 2.231950 1_555
Ni19 P6 2.213940 1_555
Ni19 P7 2.213940 1_555
Ni19 P0 2.231919 1_555
Ni20 P4 2.213940 1_555
Ni20 P9 2.213940 1_555
Ni20 P0 2.231919 1_555
Ni21 P1 2.218020 1_555
Ni21 P21 2.241001 1_565
Ni21 P20 2.241001 1_455
Ni22 P2 2.218004 1_555
Ni22 P19 2.241002 1_455
Ni22 P21 2.241017 1_555
Ni23 P3 2.218004 1_555
Ni23 P19 2.241002 1_565
Ni23 P20 2.241017 1_555
Ni24 P13 2.200579 1_555
Ni24 P11 2.339421 1_555
Ni24 P11 2.339421 1_556
Ni25 P14 2.200563 1_555
Ni25 P12 2.339421 1_555
Ni25 P12 2.339421 1_556
Ni26 P15 2.200579 1_555
Ni26 P12 2.339421 1_555
Ni26 P12 2.339421 1_556
Ni27 P16 2.200577 1_555
Ni27 P10 2.339421 1_555
Ni27 P10 2.339421 1_556
Ni28 P17 2.200563 1_555
Ni28 P11 2.339421 1_555
Ni28 P11 2.339421 1_556
Ni29 P18 2.200577 1_555
Ni29 P10 2.339421 1_555
Ni29 P10 2.339421 1_556
Ni30 P10 2.147713 1_555
Ni31 P11 2.147729 1_555
Ni32 P12 2.147729 1_555
Ni33 P14 2.191164 1_555
Ni33 P17 2.191164 1_555
Ni33 P19 2.238729 1_555
Ni34 P15 2.191149 1_555
Ni34 P16 2.191164 1_555
Ni34 P20 2.238729 1_555
Ni35 P13 2.191149 1_555
Ni35 P18 2.191164 1_555
Ni35 P21 2.238729 1_555
