# generated using pymatgen
data_Rb3Hg20
_symmetry_space_group_name_H-M   'P 1'
_cell_length_a   11.56955000
_cell_length_b   11.56955000
_cell_length_c   11.56955000
_cell_angle_alpha   90.00000000
_cell_angle_beta   90.00000000
_cell_angle_gamma   90.00000000
_symmetry_Int_Tables_number   1
_chemical_formula_structural   Rb3Hg20
_chemical_formula_sum   'Rb6 Hg40'
_cell_volume   1548.63618241
_cell_formula_units_Z   2
loop_
 _symmetry_equiv_pos_site_id
 _symmetry_equiv_pos_as_xyz
  1  'x, y, z'
loop_
 _atom_site_type_symbol
 _atom_site_label
 _atom_site_symmetry_multiplicity
 _atom_site_fract_x
 _atom_site_fract_y
 _atom_site_fract_z
 _atom_site_occupancy
  Rb  Rb0  1  0.00000000  0.25000000  0.50000000  1
  Rb  Rb1  1  0.50000000  0.00000000  0.25000000  1
  Rb  Rb2  1  0.50000000  0.00000000  0.75000000  1
  Rb  Rb3  1  0.75000000  0.50000000  0.00000000  1
  Rb  Rb4  1  0.25000000  0.50000000  0.00000000  1
  Rb  Rb5  1  0.00000000  0.75000000  0.50000000  1
  Hg  Hg0  1  0.86718400  0.00000000  0.74145500  1
  Hg  Hg1  1  0.63281600  0.24145500  0.50000000  1
  Hg  Hg2  1  0.36718400  0.24145500  0.50000000  1
  Hg  Hg3  1  0.36718400  0.75854500  0.50000000  1
  Hg  Hg4  1  0.75000000  0.00000000  0.50000000  1
  Hg  Hg5  1  0.50000000  0.63281600  0.24145500  1
  Hg  Hg6  1  0.74145500  0.86718400  0.00000000  1
  Hg  Hg7  1  0.25000000  0.25000000  0.25000000  1
  Hg  Hg8  1  0.25854500  0.13281600  0.00000000  1
  Hg  Hg9  1  0.50000000  0.25000000  0.00000000  1
  Hg  Hg10  1  0.50000000  0.36718400  0.24145500  1
  Hg  Hg11  1  0.25000000  0.75000000  0.75000000  1
  Hg  Hg12  1  0.00000000  0.25854500  0.86718400  1
  Hg  Hg13  1  0.74145500  0.13281600  0.00000000  1
  Hg  Hg14  1  0.13281600  0.00000000  0.25854500  1
  Hg  Hg15  1  0.50000000  0.63281600  0.75854500  1
  Hg  Hg16  1  0.25000000  0.75000000  0.25000000  1
  Hg  Hg17  1  0.75854500  0.50000000  0.63281600  1
  Hg  Hg18  1  0.25000000  0.00000000  0.50000000  1
  Hg  Hg19  1  0.24145500  0.50000000  0.36718400  1
  Hg  Hg20  1  0.24145500  0.50000000  0.63281600  1
  Hg  Hg21  1  0.75000000  0.75000000  0.25000000  1
  Hg  Hg22  1  0.00000000  0.25854500  0.13281600  1
  Hg  Hg23  1  0.63281600  0.75854500  0.50000000  1
  Hg  Hg24  1  0.25000000  0.25000000  0.75000000  1
  Hg  Hg25  1  0.00000000  0.00000000  0.00000000  1
  Hg  Hg26  1  0.50000000  0.36718400  0.75854500  1
  Hg  Hg27  1  0.25854500  0.86718400  0.00000000  1
  Hg  Hg28  1  0.75000000  0.25000000  0.75000000  1
  Hg  Hg29  1  0.00000000  0.50000000  0.75000000  1
  Hg  Hg30  1  0.00000000  0.50000000  0.25000000  1
  Hg  Hg31  1  0.00000000  0.74145500  0.13281600  1
  Hg  Hg32  1  0.75000000  0.25000000  0.25000000  1
  Hg  Hg33  1  0.75854500  0.50000000  0.36718400  1
  Hg  Hg34  1  0.50000000  0.75000000  0.00000000  1
  Hg  Hg35  1  0.50000000  0.50000000  0.50000000  1
  Hg  Hg36  1  0.00000000  0.74145500  0.86718400  1
  Hg  Hg37  1  0.86718400  0.00000000  0.25854500  1
  Hg  Hg38  1  0.75000000  0.75000000  0.75000000  1
  Hg  Hg39  1  0.13281600  0.00000000  0.74145500  1
loop_
_geom_bond_atom_site_label_1
_geom_bond_atom_site_label_2
_geom_bond_distance
_geom_bond_site_symmetry_2
Hg0 Hg39 3.073243 1_655
Hg0 Hg4 3.105139 1_555
Hg0 Hg28 3.195901 1_555
Hg0 Hg38 3.195901 1_545
Hg0 Hg25 3.362853 1_656
Hg1 Hg2 3.073243 1_555
Hg1 Hg4 3.105139 1_555
Hg1 Hg28 3.195901 1_555
Hg1 Hg32 3.195901 1_555
Hg1 Hg35 3.362853 1_555
Hg2 Hg7 3.195901 1_555
Hg2 Hg24 3.195901 1_555
Hg2 Hg35 3.362853 1_555
Hg3 Hg35 3.362853 1_555
Hg4 Rb1 4.090454 1_555
Hg4 Rb2 4.090454 1_555
Hg4 Rb5 4.090454 1_645
Hg4 Rb0 4.090454 1_655
Hg7 Hg8 3.195901 1_555
Hg7 Rb0 4.090454 1_555
Hg7 Rb1 4.090454 1_555
Hg7 Rb4 4.090454 1_555
Hg8 Hg9 3.105139 1_555
Hg9 Rb1 4.090454 1_555
Hg9 Rb4 4.090454 1_555
Hg9 Rb3 4.090454 1_555
Hg9 Rb2 4.090454 1_554
Hg10 Hg5 3.073243 1_555
Hg10 Hg9 3.105139 1_555
Hg10 Hg32 3.195901 1_555
Hg10 Hg7 3.195901 1_555
Hg10 Hg35 3.362853 1_555
Hg11 Hg27 3.195901 1_556
Hg11 Hg20 3.195901 1_555
Hg11 Hg39 3.195901 1_565
Hg11 Hg15 3.195901 1_555
Hg11 Hg36 3.195901 1_555
Hg11 Hg3 3.195901 1_555
Hg11 Rb2 4.090454 1_565
Hg11 Rb4 4.090454 1_556
Hg11 Rb5 4.090454 1_555
Hg12 Hg22 3.073243 1_556
Hg12 Hg29 3.105139 1_555
Hg12 Hg24 3.195901 1_555
Hg12 Hg28 3.195901 1_455
Hg12 Hg25 3.362853 1_556
Hg13 Hg6 3.073243 1_545
Hg13 Hg9 3.105139 1_555
Hg13 Hg32 3.195901 1_555
Hg13 Hg28 3.195901 1_554
Hg13 Hg25 3.362853 1_655
Hg14 Hg37 3.073243 1_455
Hg14 Hg18 3.105139 1_555
Hg14 Hg16 3.195901 1_545
Hg14 Hg7 3.195901 1_555
Hg14 Hg25 3.362853 1_555
Hg15 Hg26 3.073243 1_555
Hg15 Hg34 3.105139 1_556
Hg15 Hg38 3.195901 1_555
Hg15 Hg35 3.362853 1_555
Hg16 Hg27 3.195901 1_555
Hg16 Hg31 3.195901 1_555
Hg16 Hg5 3.195901 1_555
Hg16 Hg19 3.195901 1_555
Hg16 Hg3 3.195901 1_555
Hg16 Rb4 4.090454 1_555
Hg16 Rb5 4.090454 1_555
Hg16 Rb1 4.090454 1_565
Hg17 Hg33 3.073243 1_555
Hg17 Hg29 3.105139 1_655
Hg17 Hg28 3.195901 1_555
Hg17 Hg38 3.195901 1_555
Hg17 Hg35 3.362853 1_555
Hg18 Hg39 3.105139 1_555
Hg18 Hg3 3.105139 1_545
Hg18 Hg2 3.105139 1_555
Hg18 Rb0 4.090454 1_555
Hg18 Rb5 4.090454 1_545
Hg18 Rb1 4.090454 1_555
Hg18 Rb2 4.090454 1_555
Hg19 Hg20 3.073243 1_555
Hg19 Hg30 3.105139 1_555
Hg19 Hg7 3.195901 1_555
Hg19 Hg35 3.362853 1_555
Hg20 Hg29 3.105139 1_555
Hg20 Hg24 3.195901 1_555
Hg20 Hg35 3.362853 1_555
Hg21 Hg5 3.195901 1_555
Hg21 Hg6 3.195901 1_555
Hg21 Hg37 3.195901 1_565
Hg21 Hg31 3.195901 1_655
Hg21 Hg23 3.195901 1_555
Hg21 Hg33 3.195901 1_555
Hg21 Rb5 4.090454 1_655
Hg21 Rb3 4.090454 1_555
Hg21 Rb1 4.090454 1_565
Hg22 Hg30 3.105139 1_555
Hg22 Hg32 3.195901 1_455
Hg22 Hg7 3.195901 1_555
Hg22 Hg25 3.362853 1_555
Hg23 Hg3 3.073243 1_555
Hg23 Hg4 3.105139 1_565
Hg23 Hg38 3.195901 1_555
Hg23 Hg35 3.362853 1_555
Hg24 Hg39 3.195901 1_555
Hg24 Hg26 3.195901 1_555
Hg24 Hg8 3.195901 1_556
Hg24 Rb0 4.090454 1_555
Hg24 Rb2 4.090454 1_555
Hg24 Rb4 4.090454 1_556
Hg25 Hg39 3.362853 1_554
Hg25 Hg27 3.362853 1_545
Hg25 Hg6 3.362853 1_445
Hg25 Hg8 3.362853 1_555
Hg25 Hg37 3.362853 1_455
Hg25 Hg36 3.362853 1_544
Hg25 Hg31 3.362853 1_545
Hg26 Hg9 3.105139 1_556
Hg26 Hg28 3.195901 1_555
Hg26 Hg35 3.362853 1_555
Hg27 Hg8 3.073243 1_565
Hg27 Hg34 3.105139 1_555
Hg28 Rb3 4.090454 1_556
Hg28 Rb2 4.090454 1_555
Hg28 Rb0 4.090454 1_655
Hg29 Hg36 3.105139 1_555
Hg29 Rb0 4.090454 1_555
Hg29 Rb3 4.090454 1_456
Hg29 Rb4 4.090454 1_556
Hg29 Rb5 4.090454 1_555
Hg30 Hg33 3.105139 1_455
Hg30 Hg31 3.105139 1_555
Hg30 Rb3 4.090454 1_455
Hg30 Rb0 4.090454 1_555
Hg30 Rb4 4.090454 1_555
Hg30 Rb5 4.090454 1_555
Hg31 Hg36 3.073243 1_554
Hg32 Hg37 3.195901 1_555
Hg32 Hg33 3.195901 1_555
Hg32 Rb1 4.090454 1_555
Hg32 Rb3 4.090454 1_555
Hg32 Rb0 4.090454 1_655
Hg33 Hg35 3.362853 1_555
Hg34 Hg6 3.105139 1_555
Hg34 Hg5 3.105139 1_555
Hg34 Rb2 4.090454 1_564
Hg34 Rb4 4.090454 1_555
Hg34 Rb3 4.090454 1_555
Hg34 Rb1 4.090454 1_565
Hg35 Hg5 3.362853 1_555
Hg36 Hg38 3.195901 1_455
Hg37 Hg4 3.105139 1_555
Hg38 Hg6 3.195901 1_556
Hg38 Rb5 4.090454 1_655
Hg38 Rb3 4.090454 1_556
Hg38 Rb2 4.090454 1_565
