# generated using pymatgen
data_HoSbRh
_symmetry_space_group_name_H-M   'P 1'
_cell_length_a   4.53750476
_cell_length_b   7.11661763
_cell_length_c   7.77190310
_cell_angle_alpha   90.00000000
_cell_angle_beta   90.00000000
_cell_angle_gamma   90.00000000
_symmetry_Int_Tables_number   1
_chemical_formula_structural   HoSbRh
_chemical_formula_sum   'Ho4 Sb4 Rh4'
_cell_volume   250.96785741
_cell_formula_units_Z   4
loop_
 _symmetry_equiv_pos_site_id
 _symmetry_equiv_pos_as_xyz
  1  'x, y, z'
loop_
 _atom_site_type_symbol
 _atom_site_label
 _atom_site_symmetry_multiplicity
 _atom_site_fract_x
 _atom_site_fract_y
 _atom_site_fract_z
 _atom_site_occupancy
  Ho  Ho0  1  0.25000000  0.50965915  0.20254961  1
  Ho  Ho1  1  0.75000000  0.49034085  0.79745039  1
  Ho  Ho2  1  0.75000000  0.99034085  0.70254961  1
  Ho  Ho3  1  0.25000000  0.00965915  0.29745039  1
  Sb  Sb0  1  0.25000000  0.69565114  0.59162826  1
  Sb  Sb1  1  0.75000000  0.30434886  0.40837174  1
  Sb  Sb2  1  0.75000000  0.80434886  0.09162826  1
  Sb  Sb3  1  0.25000000  0.19565114  0.90837174  1
  Rh  Rh0  1  0.25000000  0.80489558  0.91899419  1
  Rh  Rh1  1  0.75000000  0.19510442  0.08100481  1
  Rh  Rh2  1  0.75000000  0.69510442  0.41899419  1
  Rh  Rh3  1  0.25000000  0.30489558  0.58100581  1
loop_
_geom_bond_atom_site_label_1
_geom_bond_atom_site_label_2
_geom_bond_distance
_geom_bond_site_symmetry_2
Ho0 Rh0 3.044854 1_554
Ho0 Rh2 3.117485 1_555
Ho0 Rh2 3.117485 1_455
Ho0 Sb1 3.137022 1_455
Ho0 Sb1 3.137022 1_555
Ho0 Sb3 3.197036 1_554
Ho0 Sb2 3.207589 1_555
Ho0 Sb2 3.207589 1_455
Ho0 Rh3 3.282513 1_555
Ho0 Sb0 3.300889 1_555
Ho0 Rh1 3.324267 1_555
Ho0 Rh1 3.324267 1_455
Ho1 Rh1 3.044849 1_556
Ho1 Rh3 3.117485 1_655
Ho1 Rh3 3.117485 1_555
Ho1 Sb0 3.137022 1_655
Ho1 Sb0 3.137022 1_555
Ho1 Sb2 3.197036 1_556
Ho1 Sb3 3.207589 1_555
Ho1 Sb3 3.207589 1_655
Ho1 Rh2 3.282513 1_555
Ho1 Sb1 3.300889 1_555
Ho1 Rh0 3.324264 1_555
Ho1 Rh0 3.324264 1_655
Ho2 Rh2 3.044854 1_555
Ho2 Rh0 3.117485 1_655
Ho2 Rh0 3.117485 1_555
Ho2 Sb3 3.137022 1_665
Ho2 Sb3 3.137022 1_565
Ho2 Sb1 3.197036 1_565
Ho2 Sb0 3.207589 1_655
Ho2 Sb0 3.207589 1_555
Ho2 Rh1 3.282506 1_566
Ho2 Sb2 3.300889 1_556
Ho2 Rh3 3.324264 1_665
Ho2 Rh3 3.324264 1_565
Ho3 Rh3 3.044854 1_555
Ho3 Rh1 3.117489 1_555
Ho3 Rh1 3.117489 1_455
Ho3 Sb2 3.137022 1_445
Ho3 Sb2 3.137022 1_545
Ho3 Sb0 3.197036 1_545
Ho3 Sb1 3.207589 1_455
Ho3 Sb1 3.207589 1_555
Ho3 Rh0 3.282513 1_544
Ho3 Sb3 3.300889 1_554
Ho3 Rh2 3.324264 1_445
Ho3 Rh2 3.324264 1_545
Rh0 Sb2 2.635792 1_556
Rh0 Sb2 2.635792 1_456
Rh0 Sb0 2.660389 1_555
Rh0 Sb3 2.782083 1_565
Rh1 Sb3 2.635788 1_654
Rh1 Sb3 2.635788 1_554
Rh1 Sb1 2.660396 1_555
Rh1 Sb2 2.782083 1_545
Rh2 Sb0 2.635792 1_555
Rh2 Sb0 2.635792 1_655
Rh2 Sb2 2.660389 1_555
Rh2 Sb1 2.782083 1_555
Rh3 Sb1 2.635792 1_455
Rh3 Sb1 2.635792 1_555
Rh3 Sb3 2.660389 1_555
Rh3 Sb0 2.782083 1_555
