# generated using pymatgen
data_In3Sn3Au4
_symmetry_space_group_name_H-M   'P 1'
_cell_length_a   4.78521217
_cell_length_b   4.78521217
_cell_length_c   12.72071836
_cell_angle_alpha   89.62169541
_cell_angle_beta   90.37830459
_cell_angle_gamma   119.77365515
_symmetry_Int_Tables_number   1
_chemical_formula_structural   In3Sn3Au4
_chemical_formula_sum   'In3 Sn3 Au4'
_cell_volume   252.82385152
_cell_formula_units_Z   1
loop_
 _symmetry_equiv_pos_site_id
 _symmetry_equiv_pos_as_xyz
  1  'x, y, z'
loop_
 _atom_site_type_symbol
 _atom_site_label
 _atom_site_symmetry_multiplicity
 _atom_site_fract_x
 _atom_site_fract_y
 _atom_site_fract_z
 _atom_site_occupancy
  In  In0  1  0.66793400  0.33206600  0.41636500  1
  In  In1  1  0.33247300  0.66752700  0.58660100  1
  In  In2  1  0.33288100  0.66711900  0.90885400  1
  Sn  Sn0  1  0.66695000  0.33305000  0.08736400  1
  Sn  Sn1  1  0.00037400  0.99962600  0.74837400  1
  Sn  Sn2  1  0.99944800  0.00055200  0.25258800  1
  Au  Au0  1  0.66712100  0.33287900  0.64010300  1
  Au  Au1  1  0.33312800  0.66687200  0.36050800  1
  Au  Au2  1  0.33294600  0.66705400  0.13541100  1
  Au  Au3  1  0.66674600  0.33325400  0.86383100  1
loop_
_geom_bond_atom_site_label_1
_geom_bond_atom_site_label_2
_geom_bond_distance
_geom_bond_site_symmetry_2
In0 Sn2 3.458338 1_555
In0 Sn2 3.464886 1_455
In0 Sn2 3.464886 1_565
In1 Sn1 3.446770 1_555
In1 Sn1 3.447763 1_545
In1 Sn1 3.447763 1_655
In2 Sn1 3.414561 1_555
In2 Sn1 3.449224 1_655
In2 Sn1 3.449224 1_545
Sn0 Sn2 3.450553 1_555
Sn0 Sn2 3.485493 1_455
Sn0 Sn2 3.485493 1_565
Au0 Au3 2.846006 1_555
Au0 In0 2.846167 1_555
Au0 In1 2.847792 1_555
Au0 In1 2.848703 1_655
Au0 In1 2.848703 1_545
Au0 Sn1 3.074176 1_645
Au0 Sn1 3.097641 1_655
Au0 Sn1 3.097641 1_545
Au1 In0 2.855489 1_565
Au1 In0 2.855489 1_455
Au1 In0 2.856145 1_555
Au1 Au2 2.863384 1_555
Au1 In1 2.876112 1_555
Au1 Sn2 3.075372 1_465
Au1 Sn2 3.094057 1_565
Au1 Sn2 3.094057 1_455
Au2 Sn0 2.830733 1_455
Au2 Sn0 2.830733 1_565
Au2 Sn0 2.836433 1_555
Au2 In2 2.881964 1_554
Au2 Sn2 3.139156 1_455
Au2 Sn2 3.139156 1_565
Au2 Sn2 3.147616 1_465
Au3 In2 2.823379 1_545
Au3 In2 2.823379 1_655
Au3 In2 2.826980 1_555
Au3 Sn0 2.843488 1_556
Au3 Sn1 3.128429 1_655
Au3 Sn1 3.128429 1_545
Au3 Sn1 3.138118 1_645
