# generated using pymatgen
data_SrMg14B
_symmetry_space_group_name_H-M   'P 1'
_cell_length_a   6.41214920
_cell_length_b   6.41214868
_cell_length_c   10.42924868
_cell_angle_alpha   90.00000000
_cell_angle_beta   90.00000000
_cell_angle_gamma   120.00000268
_symmetry_Int_Tables_number   1
_chemical_formula_structural   SrMg14B
_chemical_formula_sum   'Sr1 Mg14 B1'
_cell_volume   371.35634279
_cell_formula_units_Z   1
loop_
 _symmetry_equiv_pos_site_id
 _symmetry_equiv_pos_as_xyz
  1  'x, y, z'
loop_
 _atom_site_type_symbol
 _atom_site_label
 _atom_site_symmetry_multiplicity
 _atom_site_fract_x
 _atom_site_fract_y
 _atom_site_fract_z
 _atom_site_occupancy
  Sr  Sr0  1  0.16666700  0.33333300  0.12500000  1
  Mg  Mg0  1  0.17947662  0.83973781  0.12500000  1
  Mg  Mg1  1  0.15673206  0.82836553  0.62500000  1
  Mg  Mg2  1  0.66026219  0.32052338  0.12500000  1
  Mg  Mg3  1  0.67163447  0.34326794  0.62500000  1
  Mg  Mg4  1  0.66026219  0.83973781  0.12500000  1
  Mg  Mg5  1  0.67163447  0.82836553  0.62500000  1
  Mg  Mg6  1  0.32919826  0.17080174  0.39844587  1
  Mg  Mg7  1  0.32919826  0.17080174  0.85155413  1
  Mg  Mg8  1  0.32919826  0.65839753  0.39844587  1
  Mg  Mg9  1  0.32919826  0.65839753  0.85155413  1
  Mg  Mg10  1  0.84160247  0.17080174  0.39844587  1
  Mg  Mg11  1  0.84160247  0.17080174  0.85155413  1
  Mg  Mg12  1  0.83333300  0.66666700  0.36582965  1
  Mg  Mg13  1  0.83333300  0.66666700  0.88417035  1
  B  B0  1  0.16666700  0.33333300  0.62500000  1
loop_
_geom_bond_atom_site_label_1
_geom_bond_atom_site_label_2
_geom_bond_distance
_geom_bond_site_symmetry_2
Mg0 Mg2 3.082869 1_565
Mg0 Mg4 3.082869 1_555
Mg0 Mg13 3.162786 1_454
Mg0 Mg12 3.162786 1_455
Mg0 Sr0 3.206863 1_555
Mg0 Sr0 3.206863 1_565
Mg0 Mg2 3.329280 1_455
Mg0 Mg4 3.329280 1_455
Mg0 Mg8 3.394556 1_555
Mg0 Mg9 3.394556 1_554
Mg0 Mg7 3.394562 1_564
Mg0 Mg6 3.394562 1_565
Mg1 Mg8 3.032951 1_555
Mg1 Mg9 3.032951 1_555
Mg1 Mg6 3.032958 1_565
Mg1 Mg7 3.032958 1_565
Mg1 Mg3 3.110518 1_455
Mg1 Mg5 3.110518 1_455
Mg1 Mg12 3.245161 1_455
Mg1 Mg13 3.245161 1_455
Mg1 Mg3 3.301631 1_565
Mg1 Mg5 3.301631 1_555
Mg2 Mg4 3.082869 1_545
Mg2 Sr0 3.206864 1_655
Mg2 Sr0 3.206864 1_555
Mg2 Mg4 3.329280 1_555
Mg2 Mg7 3.394562 1_554
Mg2 Mg6 3.394562 1_555
Mg3 Mg6 3.032958 1_555
Mg3 Mg7 3.032958 1_555
Mg3 Mg5 3.110518 1_555
Mg3 Mg5 3.301631 1_545
Mg4 Sr0 3.206863 1_555
Mg4 Sr0 3.206863 1_665
Mg4 Mg9 3.394561 1_554
Mg4 Mg8 3.394561 1_555
Mg5 Mg8 3.032958 1_555
Mg5 Mg9 3.032958 1_555
Mg6 Mg8 3.126537 1_555
Mg6 Mg8 3.285612 1_545
Mg6 Sr0 3.375107 1_555
Mg7 Mg9 3.126537 1_555
Mg7 Mg9 3.285612 1_545
Mg7 Sr0 3.375107 1_556
Mg8 Sr0 3.375113 1_555
Mg9 Sr0 3.375113 1_556
Mg10 Mg3 3.032951 1_555
Mg10 Mg5 3.032958 1_545
Mg10 Mg8 3.126537 1_655
Mg10 Mg6 3.126537 1_655
Mg10 Mg12 3.224396 1_555
Mg10 Mg12 3.224396 1_545
Mg10 Mg8 3.285612 1_545
Mg10 Mg6 3.285612 1_555
Mg10 Sr0 3.375113 1_655
Mg10 Mg2 3.394556 1_555
Mg10 Mg4 3.394561 1_545
Mg11 Mg3 3.032951 1_555
Mg11 Mg5 3.032958 1_545
Mg11 Mg9 3.126537 1_655
Mg11 Mg7 3.126537 1_655
Mg11 Mg13 3.224396 1_555
Mg11 Mg13 3.224396 1_545
Mg11 Mg9 3.285612 1_545
Mg11 Mg7 3.285612 1_555
Mg11 Sr0 3.375113 1_656
Mg11 Mg2 3.394556 1_556
Mg11 Mg4 3.394561 1_546
Mg12 Mg4 3.162779 1_555
Mg12 Mg2 3.162786 1_555
Mg12 Mg6 3.224396 1_665
Mg12 Mg6 3.224396 1_555
Mg12 Mg8 3.224397 1_655
Mg12 Mg8 3.224397 1_555
Mg12 Mg5 3.245155 1_555
Mg12 Mg3 3.245161 1_555
Mg13 Mg4 3.162779 1_556
Mg13 Mg2 3.162786 1_556
Mg13 Mg7 3.224396 1_665
Mg13 Mg7 3.224396 1_555
Mg13 Mg9 3.224397 1_655
Mg13 Mg9 3.224397 1_555
Mg13 Mg5 3.245155 1_555
Mg13 Mg3 3.245161 1_555
B0 Mg6 2.973408 1_555
B0 Mg7 2.973408 1_555
B0 Mg8 2.973415 1_555
B0 Mg9 2.973415 1_555
B0 Mg11 2.973415 1_455
B0 Mg10 2.973415 1_455
