# generated using pymatgen
data_Mn5Cu(Te2O5)6
_symmetry_space_group_name_H-M   'P 1'
_cell_length_a   8.94230884
_cell_length_b   15.83750307
_cell_length_c   22.14869505
_cell_angle_alpha   88.23025706
_cell_angle_beta   89.13773956
_cell_angle_gamma   90.60318437
_symmetry_Int_Tables_number   1
_chemical_formula_structural   Mn5Cu(Te2O5)6
_chemical_formula_sum   'Mn20 Cu4 Te48 O120'
_cell_volume   3134.74244960
_cell_formula_units_Z   4
loop_
 _symmetry_equiv_pos_site_id
 _symmetry_equiv_pos_as_xyz
  1  'x, y, z'
loop_
 _atom_site_type_symbol
 _atom_site_label
 _atom_site_symmetry_multiplicity
 _atom_site_fract_x
 _atom_site_fract_y
 _atom_site_fract_z
 _atom_site_occupancy
  Mn  Mn0  1  0.24977998  0.74947363  0.74970493  1
  Mn  Mn1  1  0.25018155  0.41609304  0.08307669  1
  Mn  Mn2  1  0.25003880  0.08282606  0.41638076  1
  Mn  Mn3  1  0.74989541  0.91655724  0.58327578  1
  Mn  Mn4  1  0.75000928  0.58213680  0.91611610  1
  Mn  Mn5  1  0.75006993  0.24984996  0.24992793  1
  Mn  Mn6  1  0.75008363  0.58357842  0.41679147  1
  Mn  Mn7  1  0.75001424  0.25110419  0.75055724  1
  Mn  Mn8  1  0.74996499  0.91682018  0.08342814  1
  Mn  Mn9  1  0.24989553  0.41728118  0.58362900  1
  Mn  Mn10  1  0.24997606  0.08382488  0.91703623  1
  Mn  Mn11  1  0.25007060  0.75055783  0.25026179  1
  Mn  Mn12  1  0.75002799  0.08332606  0.16667842  1
  Mn  Mn13  1  0.75007134  0.75002994  0.50001395  1
  Mn  Mn14  1  0.75005615  0.74968995  0.99988750  1
  Mn  Mn15  1  0.75003552  0.41669377  0.33328424  1
  Mn  Mn16  1  0.74994734  0.08362210  0.66684447  1
  Mn  Mn17  1  0.24998289  0.58330846  0.16641266  1
  Mn  Mn18  1  0.25014063  0.25001918  0.50021540  1
  Mn  Mn19  1  0.24971226  0.91660776  0.83341607  1
  Cu  Cu0  1  0.24966046  0.24985142  0.00009136  1
  Cu  Cu1  1  0.25008702  0.91667446  0.33337425  1
  Cu  Cu2  1  0.25048830  0.58346763  0.66657880  1
  Cu  Cu3  1  0.74998389  0.41667293  0.83330480  1
  Te  Te0  1  0.57067574  0.42330017  0.69517384  1
  Te  Te1  1  0.56619987  0.08905249  0.02756255  1
  Te  Te2  1  0.56624749  0.75571349  0.36092047  1
  Te  Te3  1  0.43222181  0.59057035  0.52763364  1
  Te  Te4  1  0.43096763  0.25720637  0.86136351  1
  Te  Te5  1  0.43222753  0.92395271  0.19424680  1
  Te  Te6  1  0.06783577  0.73373371  0.38456727  1
  Te  Te7  1  0.06895883  0.40096059  0.71769761  1
  Te  Te8  1  0.06778799  0.06699411  0.05118887  1
  Te  Te9  1  0.93381514  0.56641301  0.55027979  1
  Te  Te10  1  0.92930713  0.23469756  0.88378166  1
  Te  Te11  1  0.93368357  0.89974251  0.21690702  1
  Te  Te12  1  0.53653067  0.76449695  0.85032575  1
  Te  Te13  1  0.53529990  0.43215740  0.18395607  1
  Te  Te14  1  0.53538691  0.09900927  0.51751041  1
  Te  Te15  1  0.46214488  0.93108019  0.68426743  1
  Te  Te16  1  0.46231946  0.59775091  0.01728886  1
  Te  Te17  1  0.46216092  0.26463869  0.35078219  1
  Te  Te18  1  0.03785295  0.05592031  0.55957214  1
  Te  Te19  1  0.03760548  0.72244190  0.89277996  1
  Te  Te20  1  0.03788337  0.38927227  0.22594382  1
  Te  Te21  1  0.96471280  0.88959267  0.72692005  1
  Te  Te22  1  0.96346069  0.55529195  0.05957137  1
  Te  Te23  1  0.96465311  0.22275760  0.39347887  1
  Te  Te24  1  0.43612726  0.24469490  0.64044148  1
  Te  Te25  1  0.43591682  0.91047662  0.97289719  1
  Te  Te26  1  0.43581281  0.57735944  0.30627204  1
  Te  Te27  1  0.56249035  0.07738656  0.80751244  1
  Te  Te28  1  0.56304881  0.74369835  0.14064142  1
  Te  Te29  1  0.56332440  0.41053645  0.47407515  1
  Te  Te30  1  0.93684053  0.93559544  0.94890483  1
  Te  Te31  1  0.93681929  0.60230395  0.28224005  1
  Te  Te32  1  0.93745738  0.26912982  0.61570931  1
  Te  Te33  1  0.06384463  0.10216132  0.78288630  1
  Te  Te34  1  0.06406760  0.76741554  0.11600413  1
  Te  Te35  1  0.06425511  0.43429748  0.44942029  1
  Te  Te36  1  0.46587943  0.90017163  0.48325656  1
  Te  Te37  1  0.46709909  0.56415038  0.81734421  1
  Te  Te38  1  0.46593871  0.23342399  0.14998445  1
  Te  Te39  1  0.53581553  0.73178897  0.64982410  1
  Te  Te40  1  0.53399624  0.39799184  0.98353755  1
  Te  Te41  1  0.53550478  0.06518957  0.31651419  1
  Te  Te42  1  0.96594478  0.61075047  0.77084841  1
  Te  Te43  1  0.96421653  0.27701805  0.10451366  1
  Te  Te44  1  0.96452467  0.94381285  0.43796401  1
  Te  Te45  1  0.03407402  0.77773641  0.60564470  1
  Te  Te46  1  0.03292883  0.44451860  0.93695738  1
  Te  Te47  1  0.03407924  0.11101848  0.27230357  1
  O  O0  1  0.11750536  0.48339078  0.65485191  1
  O  O1  1  0.11439552  0.15053736  0.98890462  1
  O  O2  1  0.11471573  0.81722874  0.32227333  1
  O  O3  1  0.89530169  0.64602027  0.48609787  1
  O  O4  1  0.88391384  0.31704299  0.82118046  1
  O  O5  1  0.89513611  0.97930119  0.15269234  1
  O  O6  1  0.60473504  0.69662854  0.43539769  1
  O  O7  1  0.61595257  0.36729667  0.77096221  1
  O  O8  1  0.60471525  0.03000552  0.10202728  1
  O  O9  1  0.38565060  0.53537512  0.60410180  1
  O  O10  1  0.38257490  0.20086931  0.93727728  1
  O  O11  1  0.38525340  0.86877851  0.27071413  1
  O  O12  1  0.67078800  0.95599392  0.67643281  1
  O  O13  1  0.67113304  0.62219320  0.00963125  1
  O  O14  1  0.67092054  0.28927571  0.34305271  1
  O  O15  1  0.32866350  0.78859415  0.84345194  1
  O  O16  1  0.32747258  0.45616618  0.17713881  1
  O  O17  1  0.32766938  0.12300701  0.51042168  1
  O  O18  1  0.17251412  0.88825929  0.74522754  1
  O  O19  1  0.17134976  0.55409571  0.07787975  1
  O  O20  1  0.17234901  0.22148148  0.41183432  1
  O  O21  1  0.82911310  0.05380903  0.57861014  1
  O  O22  1  0.82882710  0.72023787  0.91163954  1
  O  O23  1  0.82921623  0.38711650  0.24510270  1
  O  O24  1  0.89705280  0.18842826  0.67972395  1
  O  O25  1  0.89674015  0.85475050  0.01285171  1
  O  O26  1  0.89681756  0.52150675  0.34623096  1
  O  O27  1  0.10145521  0.02149410  0.84654451  1
  O  O28  1  0.10225862  0.68695265  0.17964037  1
  O  O29  1  0.10225761  0.35368199  0.51297663  1
  O  O30  1  0.39765725  0.96848436  0.89804142  1
  O  O31  1  0.39797343  0.63528953  0.23136418  1
  O  O32  1  0.39868525  0.30263014  0.56541648  1
  O  O33  1  0.60281884  0.13582883  0.73236881  1
  O  O34  1  0.60317919  0.80211795  0.06546343  1
  O  O35  1  0.60318798  0.46886583  0.39886235  1
  O  O36  1  0.32772046  0.70209692  0.65854156  1
  O  O37  1  0.32575714  0.36889201  0.99287841  1
  O  O38  1  0.32737053  0.03546883  0.32509373  1
  O  O39  1  0.67390860  0.87707978  0.49094259  1
  O  O40  1  0.67460775  0.53580208  0.82590776  1
  O  O41  1  0.67397500  0.21041139  0.15757209  1
  O  O42  1  0.82606271  0.78021037  0.58776824  1
  O  O43  1  0.82540823  0.44650829  0.91519902  1
  O  O44  1  0.82602565  0.11364250  0.25439561  1
  O  O45  1  0.17418651  0.61350170  0.74829073  1
  O  O46  1  0.17227398  0.27878236  0.08185003  1
  O  O47  1  0.17267032  0.94530335  0.41528461  1
  O  O48  1  0.38050153  0.37126107  0.67884118  1
  O  O49  1  0.37663507  0.03801997  0.00994597  1
  O  O50  1  0.37652975  0.70487509  0.34322969  1
  O  O51  1  0.62156150  0.53869849  0.51100894  1
  O  O52  1  0.62005438  0.20489580  0.84474248  1
  O  O53  1  0.62157539  0.87216139  0.17769582  1
  O  O54  1  0.87852753  0.69430264  0.35549500  1
  O  O55  1  0.87991860  0.36126331  0.68835715  1
  O  O56  1  0.87842438  0.02765615  0.02218440  1
  O  O57  1  0.12348283  0.52595018  0.52214316  1
  O  O58  1  0.11948766  0.19560998  0.85452681  1
  O  O59  1  0.12332224  0.85923538  0.18876971  1
  O  O60  1  0.52013334  0.99050116  0.55842690  1
  O  O61  1  0.52454889  0.65535853  0.89122400  1
  O  O62  1  0.52023963  0.32363968  0.22497034  1
  O  O63  1  0.47394670  0.82142816  0.72434293  1
  O  O64  1  0.47319013  0.48889737  0.05800067  1
  O  O65  1  0.47380589  0.15526549  0.39089452  1
  O  O66  1  0.02667051  0.74029951  0.80663377  1
  O  O67  1  0.02621974  0.40630795  0.13950786  1
  O  O68  1  0.02617261  0.07279883  0.47322594  1
  O  O69  1  0.97977490  0.90795632  0.64090490  1
  O  O70  1  0.97543726  0.57340633  0.97318586  1
  O  O71  1  0.97982387  0.24117072  0.30746035  1
  O  O72  1  0.62706507  0.29410636  0.65932956  1
  O  O73  1  0.62620716  0.96071180  0.99039614  1
  O  O74  1  0.62618862  0.62750437  0.32383173  1
  O  O75  1  0.37216155  0.12670047  0.82668871  1
  O  O76  1  0.37359740  0.79395517  0.16000901  1
  O  O77  1  0.37361449  0.46054490  0.49334401  1
  O  O78  1  0.12641838  0.97805625  0.97594082  1
  O  O79  1  0.12644044  0.64465365  0.30919610  1
  O  O80  1  0.12778575  0.31111883  0.64224721  1
  O  O81  1  0.87291492  0.14380811  0.80959009  1
  O  O82  1  0.87374803  0.80744629  0.14362825  1
  O  O83  1  0.87386498  0.47427393  0.47710681  1
  O  O84  1  0.48664280  0.67309810  0.77676170  1
  O  O85  1  0.48151916  0.34236754  0.10957496  1
  O  O86  1  0.48152724  0.00911378  0.44290019  1
  O  O87  1  0.51697293  0.84056084  0.60965959  1
  O  O88  1  0.51538545  0.50697354  0.94337764  1
  O  O89  1  0.51670809  0.17396045  0.27626593  1
  O  O90  1  0.98312340  0.92628136  0.52388912  1
  O  O91  1  0.98450790  0.59355301  0.85689637  1
  O  O92  1  0.98326862  0.25983730  0.19045568  1
  O  O93  1  0.01852411  0.76034237  0.69176338  1
  O  O94  1  0.01329216  0.42674264  0.02313319  1
  O  O95  1  0.01855528  0.09348635  0.35840520  1
  O  O96  1  0.55291574  0.68426673  0.56568967  1
  O  O97  1  0.54628365  0.34871254  0.90128842  1
  O  O98  1  0.55276536  0.01765749  0.23242337  1
  O  O99  1  0.45581331  0.51465512  0.73528658  1
  O  O100  1  0.45461729  0.18173840  0.06827211  1
  O  O101  1  0.45461911  0.84842075  0.40163564  1
  O  O102  1  0.04541866  0.65159270  0.59852107  1
  O  O103  1  0.04412321  0.31863569  0.93133531  1
  O  O104  1  0.04526789  0.98491605  0.26508347  1
  O  O105  1  0.94725178  0.81573228  0.43427560  1
  O  O106  1  0.95361418  0.48462585  0.76544296  1
  O  O107  1  0.94720030  0.14906488  0.10099466  1
  O  O108  1  0.05430019  0.85154449  0.89867225  1
  O  O109  1  0.05401398  0.51800665  0.23190442  1
  O  O110  1  0.05415510  0.18457679  0.56525075  1
  O  O111  1  0.94728375  0.01786177  0.73294725  1
  O  O112  1  0.94794177  0.68366989  0.06544798  1
  O  O113  1  0.94748569  0.35086354  0.39914959  1
  O  O114  1  0.55275657  0.14992009  0.60095218  1
  O  O115  1  0.55205534  0.81516195  0.93395228  1
  O  O116  1  0.55256668  0.48246755  0.26746085  1
  O  O117  1  0.44588067  0.98176929  0.76800503  1
  O  O118  1  0.44568882  0.64876488  0.10133434  1
  O  O119  1  0.44592528  0.31534086  0.43474589  1
loop_
_geom_bond_atom_site_label_1
_geom_bond_atom_site_label_2
_geom_bond_distance
_geom_bond_site_symmetry_2
Mn0 O45 2.251545 1_555
Mn0 O36 2.277708 1_555
Mn0 O15 2.303721 1_555
Mn0 O18 2.310646 1_555
Mn0 O66 2.344851 1_555
Mn0 O63 2.347543 1_555
Mn0 O93 2.454945 1_555
Mn0 O84 2.521106 1_555
Mn1 O37 2.251423 1_554
Mn1 O46 2.277620 1_555
Mn1 O19 2.303574 1_555
Mn1 O16 2.310114 1_555
Mn1 O64 2.343831 1_555
Mn1 O67 2.345916 1_555
Mn1 O85 2.456088 1_555
Mn1 O94 2.521280 1_555
Mn2 O38 2.278437 1_555
Mn2 O47 2.279265 1_545
Mn2 O20 2.309886 1_555
Mn2 O17 2.311139 1_555
Mn2 O65 2.348723 1_555
Mn2 O68 2.350115 1_555
Mn2 O95 2.456874 1_555
Mn2 O86 2.457247 1_555
Mn3 O39 2.268644 1_555
Mn3 O42 2.270800 1_555
Mn3 O21 2.277955 1_565
Mn3 O12 2.278754 1_555
Mn3 O60 2.437341 1_555
Mn3 O69 2.438773 1_555
Mn3 O87 2.448589 1_555
Mn3 O90 2.449837 1_555
Mn4 O43 2.258709 1_555
Mn4 O40 2.259605 1_555
Mn4 O13 2.288360 1_556
Mn4 O22 2.289624 1_555
Mn4 O70 2.398389 1_555
Mn4 O61 2.399322 1_555
Mn4 O91 2.458641 1_555
Mn4 O88 2.459361 1_555
Mn5 O44 2.268098 1_555
Mn5 O41 2.269218 1_555
Mn5 O23 2.278028 1_555
Mn5 O14 2.278165 1_555
Mn5 O71 2.436734 1_555
Mn5 O62 2.437224 1_555
Mn5 O92 2.450766 1_555
Mn5 O89 2.450881 1_555
Mn6 O6 2.267880 1_555
Mn6 O3 2.268784 1_555
Mn6 O26 2.278348 1_555
Mn6 O35 2.278999 1_555
Mn6 O74 2.438659 1_555
Mn6 O83 2.438976 1_555
Mn6 O51 2.449445 1_555
Mn6 O54 2.449721 1_555
Mn7 O4 2.258755 1_555
Mn7 O7 2.260368 1_555
Mn7 O24 2.288471 1_555
Mn7 O33 2.288825 1_555
Mn7 O81 2.397990 1_555
Mn7 O72 2.398534 1_555
Mn7 O55 2.460048 1_555
Mn7 O52 2.460224 1_555
Mn8 O5 2.268168 1_555
Mn8 O8 2.269054 1_565
Mn8 O34 2.278472 1_555
Mn8 O25 2.278787 1_555
Mn8 O82 2.438392 1_555
Mn8 O73 2.439288 1_554
Mn8 O53 2.448934 1_555
Mn8 O56 2.450399 1_565
Mn9 O0 2.249041 1_555
Mn9 O9 2.280030 1_555
Mn9 O32 2.304354 1_555
Mn9 O29 2.310382 1_555
Mn9 O80 2.342806 1_555
Mn9 O77 2.350545 1_555
Mn9 O57 2.457024 1_555
Mn9 O48 2.517838 1_555
Mn10 O10 2.250375 1_555
Mn10 O1 2.278772 1_555
Mn10 O27 2.303487 1_555
Mn10 O30 2.310715 1_545
Mn10 O75 2.343903 1_555
Mn10 O78 2.347675 1_545
Mn10 O49 2.457438 1_556
Mn10 O58 2.520606 1_555
Mn11 O11 2.278883 1_555
Mn11 O2 2.279624 1_555
Mn11 O31 2.310517 1_555
Mn11 O28 2.310844 1_555
Mn11 O76 2.349720 1_555
Mn11 O79 2.349801 1_555
Mn11 O50 2.457133 1_555
Mn11 O59 2.458621 1_555
Mn12 O44 2.134811 1_555
Mn12 O5 2.135041 1_545
Mn12 O8 2.135340 1_555
Mn12 O41 2.135906 1_555
Mn12 O107 2.469782 1_555
Mn12 O98 2.470674 1_555
Mn13 O42 2.135014 1_555
Mn13 O3 2.135277 1_555
Mn13 O6 2.135460 1_555
Mn13 O39 2.135646 1_555
Mn13 O96 2.469729 1_555
Mn13 O105 2.470288 1_555
Mn14 O22 2.134457 1_555
Mn14 O13 2.135521 1_556
Mn14 O34 2.136370 1_556
Mn14 O25 2.136922 1_556
Mn14 O112 2.521038 1_556
Mn14 O115 2.523056 1_555
Mn15 O26 2.134348 1_555
Mn15 O35 2.134560 1_555
Mn15 O23 2.134776 1_555
Mn15 O14 2.134936 1_555
Mn15 O116 2.520150 1_555
Mn15 O113 2.520927 1_555
Mn16 O33 2.135505 1_555
Mn16 O24 2.135778 1_555
Mn16 O21 2.136745 1_555
Mn16 O12 2.137923 1_545
Mn16 O114 2.522613 1_555
Mn16 O111 2.522792 1_555
Mn17 O28 2.142191 1_555
Mn17 O16 2.143837 1_555
Mn17 O31 2.146188 1_555
Mn17 O19 2.155054 1_555
Mn17 O118 2.451248 1_555
Mn17 O109 2.457102 1_555
Mn18 O17 2.141050 1_555
Mn18 O29 2.141768 1_555
Mn18 O20 2.146882 1_555
Mn18 O32 2.157073 1_555
Mn18 O110 2.452376 1_555
Mn18 O119 2.455794 1_555
Mn19 O30 2.140287 1_555
Mn19 O18 2.140462 1_555
Mn19 O15 2.159929 1_555
Mn19 O27 2.160132 1_565
Mn19 O108 2.449168 1_555
Mn19 O117 2.456462 1_555
Cu0 O10 1.996586 1_554
Cu0 O46 1.997049 1_555
Cu0 O1 1.997870 1_554
Cu0 O37 1.998516 1_554
Cu0 O100 2.612957 1_555
Cu0 O103 2.628291 1_554
Cu1 O47 1.998950 1_555
Cu1 O11 1.999074 1_555
Cu1 O38 1.999608 1_565
Cu1 O2 1.999778 1_555
Cu1 O101 2.612173 1_555
Cu1 O104 2.614302 1_555
Cu2 O36 1.996709 1_555
Cu2 O0 1.997188 1_555
Cu2 O9 1.997499 1_555
Cu2 O45 1.997516 1_555
Cu2 O102 2.612188 1_555
Cu2 O99 2.626503 1_555
Cu3 O43 2.012779 1_555
Cu3 O7 2.012818 1_555
Cu3 O40 2.012919 1_555
Cu3 O4 2.013076 1_555
Cu3 O106 2.551392 1_555
Cu3 O97 2.553402 1_555
O0 Te7 1.920397 1_555
O1 Te8 1.919831 1_556
O2 Te6 1.919958 1_555
O3 Te9 1.908441 1_555
O4 Te10 1.924694 1_555
O5 Te11 1.908537 1_555
O6 Te2 1.908851 1_555
O7 Te0 1.924686 1_555
O8 Te1 1.908385 1_555
O9 Te3 1.919833 1_555
O10 Te4 1.920349 1_555
O11 Te5 1.920395 1_555
O12 Te15 1.907184 1_555
O13 Te16 1.906968 1_555
O14 Te17 1.907195 1_555
O15 Te12 1.908894 1_555
O16 Te13 1.908145 1_555
O17 Te14 1.907686 1_555
O18 Te21 1.908097 1_455
O19 Te22 1.908838 1_455
O20 Te23 1.907404 1_455
O21 Te18 1.907171 1_655
O22 Te19 1.906699 1_655
O23 Te20 1.907091 1_655
O24 Te32 1.907175 1_555
O25 Te30 1.907098 1_554
O26 Te31 1.907161 1_555
O27 Te33 1.909267 1_555
O28 Te34 1.907837 1_555
O29 Te35 1.907796 1_555
O30 Te25 1.907745 1_555
O31 Te26 1.907435 1_555
O32 Te24 1.909007 1_555
O33 Te27 1.906965 1_555
O34 Te28 1.907150 1_555
O35 Te29 1.906754 1_555
O36 Te39 1.919982 1_555
O37 Te40 1.920210 1_555
O38 Te41 1.920188 1_555
O39 Te36 1.908746 1_555
O40 Te37 1.924499 1_555
O41 Te38 1.908346 1_555
O42 Te45 1.908147 1_655
O43 Te46 1.924609 1_655
O44 Te47 1.908731 1_655
O45 Te42 1.920446 1_455
O46 Te43 1.919426 1_455
O47 Te44 1.920295 1_455
O48 Te0 1.926023 1_555
O48 Te24 2.258835 1_555
O49 Te1 1.920817 1_555
O49 Te25 2.268586 1_544
O50 Te2 1.921118 1_555
O50 Te26 2.267414 1_555
O51 Te3 1.925198 1_555
O51 Te29 2.270124 1_555
O52 Te4 1.926273 1_555
O52 Te27 2.262027 1_555
O53 Te5 1.924388 1_555
O53 Te28 2.276058 1_555
O54 Te6 1.925032 1_655
O54 Te31 2.272381 1_555
O55 Te7 1.926433 1_655
O55 Te32 2.262491 1_555
O56 Te8 1.924452 1_655
O56 Te30 2.273684 1_544
O57 Te9 1.921304 1_455
O57 Te35 2.266234 1_555
O58 Te10 1.925894 1_455
O58 Te33 2.260316 1_555
O59 Te11 1.921328 1_455
O59 Te34 2.268733 1_555
O60 Te14 1.920488 1_565
O60 Te36 2.282710 1_555
O61 Te12 1.927731 1_555
O61 Te37 2.276799 1_555
O62 Te13 1.921489 1_555
O62 Te38 2.278563 1_555
O63 Te15 1.930364 1_555
O63 Te39 2.275838 1_555
O64 Te16 1.924774 1_555
O64 Te40 2.285751 1_554
O65 Te17 1.926707 1_555
O65 Te41 2.277701 1_555
O66 Te19 1.924312 1_555
O66 Te42 2.285310 1_455
O67 Te20 1.929628 1_555
O67 Te43 2.277719 1_455
O68 Te18 1.927401 1_555
O68 Te44 2.274810 1_445
O69 Te21 1.920794 1_555
O69 Te45 2.282138 1_655
O70 Te22 1.927141 1_556
O70 Te46 2.277227 1_655
O71 Te23 1.921014 1_555
O71 Te47 2.280231 1_655
O72 Te24 1.927768 1_555
O72 Te0 2.276206 1_555
O73 Te25 1.920716 1_555
O73 Te1 2.282552 1_566
O74 Te26 1.921112 1_555
O74 Te2 2.279865 1_555
O75 Te27 1.927128 1_555
O75 Te4 2.285979 1_555
O76 Te28 1.927493 1_555
O76 Te5 2.274733 1_555
O77 Te29 1.927361 1_555
O77 Te3 2.275510 1_555
O78 Te30 1.927729 1_455
O78 Te8 2.273953 1_566
O79 Te31 1.926864 1_455
O79 Te6 2.277394 1_555
O80 Te32 1.927395 1_455
O80 Te7 2.286945 1_555
O81 Te33 1.928038 1_655
O81 Te10 2.276480 1_555
O82 Te34 1.920436 1_655
O82 Te11 2.283504 1_555
O83 Te35 1.921130 1_655
O83 Te9 2.280174 1_555
O84 Te37 1.925828 1_555
O84 Te12 2.259002 1_555
O85 Te38 1.921784 1_555
O85 Te13 2.263123 1_555
O86 Te36 1.921285 1_545
O86 Te14 2.268171 1_555
O87 Te39 1.924407 1_555
O87 Te15 2.272218 1_555
O88 Te40 1.927079 1_555
O88 Te16 2.260170 1_556
O89 Te41 1.925160 1_555
O89 Te17 2.271832 1_555
O90 Te44 1.924711 1_555
O90 Te18 2.273832 1_665
O91 Te42 1.926763 1_555
O91 Te19 2.261656 1_655
O92 Te43 1.924873 1_555
O92 Te20 2.269038 1_655
O93 Te45 1.921514 1_555
O93 Te21 2.266278 1_455
O94 Te46 1.925835 1_554
O94 Te22 2.259328 1_455
O95 Te47 1.921375 1_555
O95 Te23 2.266082 1_455
O96 Te39 2.035394 1_555
O96 Te3 2.036723 1_555
O97 Te4 2.005172 1_555
O97 Te40 2.005847 1_555
O98 Te41 2.034656 1_555
O98 Te5 2.037272 1_545
O99 Te37 2.004919 1_555
O99 Te0 2.005216 1_555
O100 Te1 2.012187 1_555
O100 Te38 2.012719 1_555
O101 Te36 2.011288 1_555
O101 Te2 2.012701 1_555
O102 Te45 2.012374 1_555
O102 Te9 2.012539 1_455
O103 Te46 2.004847 1_555
O103 Te10 2.005246 1_455
O104 Te11 2.011585 1_455
O104 Te47 2.011873 1_565
O105 Te6 2.035544 1_655
O105 Te44 2.036975 1_555
O106 Te7 2.005102 1_655
O106 Te42 2.006745 1_555
O107 Te43 2.034548 1_555
O107 Te8 2.037509 1_655
O108 Te30 2.049104 1_455
O108 Te19 2.056844 1_555
O109 Te20 2.050872 1_555
O109 Te31 2.051786 1_455
O110 Te18 2.049146 1_555
O110 Te32 2.053770 1_455
O111 Te33 2.046692 1_655
O111 Te21 2.047374 1_545
O112 Te34 2.046717 1_655
O112 Te22 2.047386 1_555
O113 Te35 2.042775 1_655
O113 Te23 2.043870 1_555
O114 Te14 2.046426 1_555
O114 Te24 2.047507 1_555
O115 Te25 2.046417 1_555
O115 Te12 2.047202 1_555
O116 Te26 2.042880 1_555
O116 Te13 2.043641 1_555
O117 Te15 2.047379 1_555
O117 Te27 2.054829 1_565
O118 Te28 2.048169 1_555
O118 Te16 2.056001 1_555
O119 Te29 2.051653 1_555
O119 Te17 2.052043 1_555
