# generated using pymatgen
data_SrZr4(AsO4)6
_symmetry_space_group_name_H-M   'P 1'
_cell_length_a   9.17462001
_cell_length_b   9.17462001
_cell_length_c   9.69238935
_cell_angle_alpha   61.75193212
_cell_angle_beta   61.75193212
_cell_angle_gamma   59.99999994
_symmetry_Int_Tables_number   1
_chemical_formula_structural   SrZr4(AsO4)6
_chemical_formula_sum   'Sr1 Zr4 As6 O24'
_cell_volume   591.69581385
_cell_formula_units_Z   1
loop_
 _symmetry_equiv_pos_site_id
 _symmetry_equiv_pos_as_xyz
  1  'x, y, z'
loop_
 _atom_site_type_symbol
 _atom_site_label
 _atom_site_symmetry_multiplicity
 _atom_site_fract_x
 _atom_site_fract_y
 _atom_site_fract_z
 _atom_site_occupancy
  Sr  Sr0  1  0.50000000  0.50000000  0.50000000  1
  Zr  Zr0  1  0.14458500  0.14458500  0.56624400  1
  Zr  Zr1  1  0.85541500  0.85541500  0.43375600  1
  Zr  Zr2  1  0.64646600  0.64646600  0.06060300  1
  Zr  Zr3  1  0.35353400  0.35353400  0.93939700  1
  As  As0  1  0.96248000  0.25245800  0.25378300  1
  As  As1  1  0.25245800  0.53127900  0.25378300  1
  As  As2  1  0.53127900  0.96248000  0.25378300  1
  As  As3  1  0.03752000  0.74754200  0.74621700  1
  As  As4  1  0.74754200  0.46872100  0.74621700  1
  As  As5  1  0.46872100  0.03752000  0.74621700  1
  O  O0  1  0.98358000  0.26810500  0.41178600  1
  O  O1  1  0.26810500  0.33652900  0.41178600  1
  O  O2  1  0.33652900  0.98358000  0.41178600  1
  O  O3  1  0.01642000  0.73189500  0.58821400  1
  O  O4  1  0.73189500  0.66347100  0.58821400  1
  O  O5  1  0.66347100  0.01642000  0.58821400  1
  O  O6  1  0.49637600  0.87636600  0.92761400  1
  O  O7  1  0.87636600  0.69964500  0.92761400  1
  O  O8  1  0.69964500  0.49637600  0.92761400  1
  O  O9  1  0.50362400  0.12363400  0.07238600  1
  O  O10  1  0.12363400  0.30035500  0.07238600  1
  O  O11  1  0.30035500  0.50362400  0.07238600  1
  O  O12  1  0.02842300  0.95188900  0.70927900  1
  O  O13  1  0.95188900  0.31040900  0.70927900  1
  O  O14  1  0.31040900  0.02842300  0.70927900  1
  O  O15  1  0.97157700  0.04811100  0.29072100  1
  O  O16  1  0.04811100  0.68959100  0.29072100  1
  O  O17  1  0.68959100  0.97157700  0.29072100  1
  O  O18  1  0.59419100  0.75597900  0.24208200  1
  O  O19  1  0.75597900  0.40774800  0.24208200  1
  O  O20  1  0.40774800  0.59419100  0.24208200  1
  O  O21  1  0.40580900  0.24402100  0.75791800  1
  O  O22  1  0.24402100  0.59225200  0.75791800  1
  O  O23  1  0.59225200  0.40580900  0.75791800  1
loop_
_geom_bond_atom_site_label_1
_geom_bond_atom_site_label_2
_geom_bond_distance
_geom_bond_site_symmetry_2
As0 O15 1.698968 1_555
As0 O0 1.708761 1_555
As0 O10 1.711157 1_655
As0 O19 1.727221 1_555
As1 O16 1.698968 1_555
As1 O1 1.708761 1_555
As1 O11 1.711162 1_555
As1 O20 1.727221 1_555
As2 O17 1.698968 1_555
As2 O2 1.708761 1_555
As2 O9 1.711159 1_565
As2 O18 1.727221 1_555
As3 O12 1.698968 1_555
As3 O3 1.708761 1_555
As3 O7 1.711157 1_455
As3 O22 1.727221 1_555
As4 O13 1.698968 1_555
As4 O4 1.708761 1_555
As4 O8 1.711162 1_555
As4 O23 1.727221 1_555
As5 O14 1.698968 1_555
As5 O5 1.708761 1_555
As5 O6 1.711159 1_545
As5 O21 1.727221 1_555
O0 Zr0 2.126224 1_655
O1 Zr0 2.126231 1_555
O2 Zr0 2.126225 1_565
O3 Zr1 2.126224 1_455
O4 Zr1 2.126231 1_555
O5 Zr1 2.126225 1_545
O6 Zr2 2.051509 1_556
O7 Zr2 2.051509 1_556
O8 Zr2 2.051510 1_556
O9 Zr3 2.051509 1_554
O10 Zr3 2.051509 1_554
O11 Zr3 2.051510 1_554
O12 Zr0 2.085389 1_565
O13 Zr0 2.085395 1_655
O14 Zr0 2.085396 1_555
O15 Zr1 2.085389 1_545
O16 Zr1 2.085395 1_455
O17 Zr1 2.085396 1_555
O18 Zr2 2.173927 1_555
O18 Sr0 2.634168 1_555
O19 Zr2 2.173930 1_555
O19 Sr0 2.634168 1_555
O20 Zr2 2.173933 1_555
O20 Sr0 2.634168 1_555
O21 Zr3 2.173927 1_555
O21 Sr0 2.634168 1_555
O22 Zr3 2.173930 1_555
O22 Sr0 2.634168 1_555
O23 Zr3 2.173933 1_555
O23 Sr0 2.634168 1_555
