# generated using pymatgen
data_Zn6P4H14O23
_symmetry_space_group_name_H-M   'P 1'
_cell_length_a   8.38644600
_cell_length_b   9.70143482
_cell_length_c   12.37589054
_cell_angle_alpha   71.54995809
_cell_angle_beta   82.36191661
_cell_angle_gamma   80.78777631
_symmetry_Int_Tables_number   1
_chemical_formula_structural   Zn6P4H14O23
_chemical_formula_sum   'Zn12 P8 H28 O46'
_cell_volume   939.19035854
_cell_formula_units_Z   2
loop_
 _symmetry_equiv_pos_site_id
 _symmetry_equiv_pos_as_xyz
  1  'x, y, z'
loop_
 _atom_site_type_symbol
 _atom_site_label
 _atom_site_symmetry_multiplicity
 _atom_site_fract_x
 _atom_site_fract_y
 _atom_site_fract_z
 _atom_site_occupancy
  Zn  Zn0  1  0.96996700  0.59789300  0.87580600  1
  Zn  Zn1  1  0.03003300  0.40210700  0.12419400  1
  Zn  Zn2  1  0.57440500  0.60516500  0.88089100  1
  Zn  Zn3  1  0.42559500  0.39483500  0.11910900  1
  Zn  Zn4  1  0.07678000  0.87903400  0.61129800  1
  Zn  Zn5  1  0.92322000  0.12096600  0.38870200  1
  Zn  Zn6  1  0.47607300  0.85804800  0.60537300  1
  Zn  Zn7  1  0.52392700  0.14195200  0.39462700  1
  Zn  Zn8  1  0.18584200  0.59749100  0.50517700  1
  Zn  Zn9  1  0.81415800  0.40250900  0.49482300  1
  Zn  Zn10  1  0.34443400  0.65765800  0.25353200  1
  Zn  Zn11  1  0.65556600  0.34234200  0.74646800  1
  P  P0  1  0.79091900  0.29989100  0.97939200  1
  P  P1  1  0.20908100  0.70010900  0.02060800  1
  P  P2  1  0.32107500  0.55946400  0.71764100  1
  P  P3  1  0.67892500  0.44053600  0.28235900  1
  P  P4  1  0.82406300  0.63929000  0.63436700  1
  P  P5  1  0.17593700  0.36071000  0.36563300  1
  P  P6  1  0.71192400  0.08171700  0.62757400  1
  P  P7  1  0.28807600  0.91828300  0.37242600  1
  H  H0  1  0.07150200  0.84955100  0.83688100  1
  H  H1  1  0.92849800  0.15044900  0.16311900  1
  H  H2  1  0.88572300  0.89135700  0.78526700  1
  H  H3  1  0.11427700  0.10864300  0.21473300  1
  H  H4  1  0.72768100  0.77474900  0.98254600  1
  H  H5  1  0.27231900  0.22525100  0.01745400  1
  H  H6  1  0.74537500  0.60481900  0.05448600  1
  H  H7  1  0.25462500  0.39518100  0.94551400  1
  H  H8  1  0.18118900  0.09293500  0.68098100  1
  H  H9  1  0.81881100  0.90706500  0.31901900  1
  H  H10  1  0.24177700  0.11145000  0.55195300  1
  H  H11  1  0.75822300  0.88855000  0.44804700  1
  H  H12  1  0.56739900  0.89120500  0.78697200  1
  H  H13  1  0.43260100  0.10879500  0.21302800  1
  H  H14  1  0.37790300  0.84392500  0.83391800  1
  H  H15  1  0.62209700  0.15607500  0.16608200  1
  H  H16  1  0.50832000  0.87972400  0.10739000  1
  H  H17  1  0.49168000  0.12027600  0.89261000  1
  H  H18  1  0.61572500  0.80588000  0.21074500  1
  H  H19  1  0.38427500  0.19412000  0.78925500  1
  H  H20  1  0.17037600  0.31563700  0.71032900  1
  H  H21  1  0.82962400  0.68436300  0.28967100  1
  H  H22  1  0.02954800  0.23583000  0.79347600  1
  H  H23  1  0.97045200  0.76417000  0.20652400  1
  H  H24  1  0.76340300  0.00477000  0.02846500  1
  H  H25  1  0.23659700  0.99522900  0.97153500  1
  H  H26  1  0.74300700  0.01310600  0.90276900  1
  H  H27  1  0.25699300  0.98689400  0.09723100  1
  O  O0  1  0.93203900  0.38601900  0.97979500  1
  O  O1  1  0.06796100  0.61398100  0.02020500  1
  O  O2  1  0.79459700  0.15805400  0.08363400  1
  O  O3  1  0.20540300  0.84194600  0.91636600  1
  O  O4  1  0.62419800  0.39665100  0.98869200  1
  O  O5  1  0.37580200  0.60334900  0.01130800  1
  O  O6  1  0.81044900  0.26049800  0.86519200  1
  O  O7  1  0.18955100  0.73950200  0.13480800  1
  O  O8  1  0.19790000  0.52386900  0.82292500  1
  O  O9  1  0.80210000  0.47613100  0.17707500  1
  O  O10  1  0.30191300  0.47072800  0.63585300  1
  O  O11  1  0.69808700  0.52927200  0.36414700  1
  O  O12  1  0.29745200  0.72760700  0.64984400  1
  O  O13  1  0.70254800  0.27239300  0.35015600  1
  O  O14  1  0.49652700  0.51976200  0.75752500  1
  O  O15  1  0.50347300  0.48023800  0.24247500  1
  O  O16  1  0.69428300  0.75428200  0.56902000  1
  O  O17  1  0.30571700  0.24571800  0.43098000  1
  O  O18  1  0.82206500  0.48522500  0.61969100  1
  O  O19  1  0.17793500  0.51477500  0.38030900  1
  O  O20  1  0.79909700  0.62111100  0.76475800  1
  O  O21  1  0.20090300  0.37888900  0.23524200  1
  O  O22  1  0.99443900  0.68986600  0.58522300  1
  O  O23  1  0.00556100  0.31013400  0.41477700  1
  O  O24  1  0.70857000  0.98782500  0.75435900  1
  O  O25  1  0.29143000  0.01217500  0.24564100  1
  O  O26  1  0.87518600  0.03989600  0.56373600  1
  O  O27  1  0.12481400  0.96010400  0.43626400  1
  O  O28  1  0.56869600  0.05774900  0.57025200  1
  O  O29  1  0.43130400  0.94225100  0.42974800  1
  O  O30  1  0.69963900  0.24874600  0.61723800  1
  O  O31  1  0.30036100  0.75125400  0.38276200  1
  O  O32  1  0.99499000  0.82911500  0.78662200  1
  O  O33  1  0.00501000  0.17088500  0.21337800  1
  O  O34  1  0.73319700  0.67423900  0.97524900  1
  O  O35  1  0.26680300  0.32576100  0.02475100  1
  O  O36  1  0.21956900  0.03446800  0.62620500  1
  O  O37  1  0.78043100  0.96553200  0.37379500  1
  O  O38  1  0.48576000  0.82109800  0.79068000  1
  O  O39  1  0.51424000  0.17890200  0.20932000  1
  O  O40  1  0.52861700  0.79132900  0.17188500  1
  O  O41  1  0.47138300  0.20867100  0.82811500  1
  O  O42  1  0.13650000  0.21844300  0.75199000  1
  O  O43  1  0.86350000  0.78155700  0.24801000  1
  O  O44  1  0.71647500  0.95671500  0.98256300  1
  O  O45  1  0.28352500  0.04328500  0.01743700  1
loop_
_geom_bond_atom_site_label_1
_geom_bond_atom_site_label_2
_geom_bond_distance
_geom_bond_site_symmetry_2
H0 O32 1.030925 1_455
H0 O3 1.566944 1_555
H1 O33 1.030925 1_655
H1 O2 1.566944 1_555
H2 O32 1.012485 1_555
H2 O24 1.645823 1_555
H3 O33 1.012485 1_555
H3 O25 1.645823 1_555
H4 O34 1.000641 1_555
H5 O35 1.000641 1_555
H6 O34 1.006086 1_554
H6 O9 1.699858 1_555
H7 O35 1.006086 1_556
H7 O8 1.699858 1_555
H8 O36 1.005885 1_555
H9 O37 1.005885 1_555
H10 O36 1.000769 1_555
H10 O17 1.732513 1_555
H11 O37 1.000769 1_555
H11 O16 1.732513 1_555
H12 O38 1.026862 1_555
H12 O24 1.559500 1_555
H13 O39 1.026862 1_555
H13 O25 1.559500 1_555
H14 O38 1.017728 1_555
H14 O3 1.654824 1_555
H15 O39 1.017728 1_555
H15 O2 1.654824 1_555
H16 O40 0.978573 1_555
H17 O41 0.978573 1_555
H18 O40 0.976869 1_555
H19 O41 0.976869 1_555
H20 O42 0.987300 1_555
H21 O43 0.987300 1_555
H22 O42 0.990216 1_555
H23 O43 0.990216 1_555
H24 O44 0.990332 1_544
H25 O45 0.990339 1_566
H26 O44 0.981127 1_545
H27 O45 0.981127 1_565
O0 P0 1.555534 1_555
O0 Zn0 2.099665 1_555
O0 Zn1 2.121646 1_656
O1 P1 1.555534 1_555
O1 Zn1 2.099665 1_555
O1 Zn0 2.121646 1_454
O2 P0 1.559515 1_554
O3 P1 1.559515 1_556
O4 P0 1.566762 1_555
O4 Zn2 2.053233 1_555
O4 Zn3 2.157845 1_556
O5 P1 1.566762 1_555
O5 Zn3 2.053233 1_555
O5 Zn2 2.157845 1_554
O6 P0 1.559061 1_555
O6 Zn11 1.978688 1_555
O7 P1 1.559061 1_555
O7 Zn10 1.978688 1_555
O8 P2 1.534835 1_555
O8 Zn0 2.030623 1_455
O9 P3 1.534835 1_555
O9 Zn1 2.030623 1_655
O10 P2 1.559018 1_555
O10 Zn8 1.962575 1_555
O11 P3 1.559018 1_555
O11 Zn9 1.962575 1_555
O12 P2 1.574344 1_555
O12 Zn6 2.023674 1_555
O12 Zn4 2.175142 1_555
O13 P3 1.574344 1_555
O13 Zn7 2.023674 1_555
O13 Zn5 2.175142 1_555
O14 P2 1.564717 1_555
O14 Zn11 2.031209 1_555
O14 Zn2 2.164035 1_555
O15 P3 1.564717 1_555
O15 Zn10 2.031209 1_555
O15 Zn3 2.164035 1_555
O16 P4 1.535363 1_555
O16 Zn6 2.010644 1_555
O17 P5 1.535363 1_555
O17 Zn7 2.010644 1_555
O18 P4 1.564580 1_555
O18 Zn9 1.966128 1_555
O18 Zn11 2.234651 1_555
O19 P5 1.564580 1_555
O19 Zn8 1.966128 1_555
O19 Zn10 2.234651 1_555
O20 P4 1.555910 1_555
O20 Zn0 2.053579 1_555
O20 Zn2 2.207513 1_555
O21 P5 1.555910 1_555
O21 Zn1 2.053579 1_555
O21 Zn3 2.207513 1_555
O22 P4 1.567431 1_555
O22 Zn8 2.009912 1_655
O22 Zn4 2.188335 1_655
O23 P5 1.567431 1_555
O23 Zn9 2.009912 1_455
O23 Zn5 2.188335 1_455
O24 P6 1.544127 1_565
O25 P7 1.544127 1_545
O26 P6 1.549496 1_555
O26 Zn5 2.065038 1_555
O26 Zn4 2.116265 1_645
O27 P7 1.549496 1_555
O27 Zn4 2.065038 1_555
O27 Zn5 2.116265 1_465
O28 P6 1.555798 1_555
O28 Zn6 2.098777 1_545
O28 Zn7 2.127757 1_555
O29 P7 1.555798 1_555
O29 Zn7 2.098777 1_565
O29 Zn6 2.127757 1_555
O30 P6 1.572130 1_555
O30 Zn9 2.020966 1_555
O30 Zn11 2.042933 1_555
O31 P7 1.572130 1_555
O31 Zn8 2.020966 1_555
O31 Zn10 2.042933 1_555
O32 Zn4 2.111547 1_655
O32 Zn0 2.194579 1_555
O33 Zn5 2.111547 1_455
O33 Zn1 2.194579 1_555
O34 Zn2 2.186457 1_555
O34 Zn0 2.337195 1_555
O35 Zn3 2.186457 1_555
O35 Zn1 2.337195 1_555
O36 Zn4 2.134213 1_545
O37 Zn5 2.134213 1_565
O38 Zn2 2.104565 1_555
O38 Zn6 2.216836 1_555
O39 Zn3 2.104565 1_555
O39 Zn7 2.216836 1_555
O40 Zn10 2.117942 1_555
O41 Zn11 2.117942 1_555
