# generated using pymatgen
data_LaVSb3
_symmetry_space_group_name_H-M   'P 1'
_cell_length_a   6.15193600
_cell_length_b   6.31559100
_cell_length_c   13.42559300
_cell_angle_alpha   90.00000000
_cell_angle_beta   90.00000000
_cell_angle_gamma   90.00000000
_symmetry_Int_Tables_number   1
_chemical_formula_structural   LaVSb3
_chemical_formula_sum   'La4 V4 Sb12'
_cell_volume   521.62606358
_cell_formula_units_Z   4
loop_
 _symmetry_equiv_pos_site_id
 _symmetry_equiv_pos_as_xyz
  1  'x, y, z'
loop_
 _atom_site_type_symbol
 _atom_site_label
 _atom_site_symmetry_multiplicity
 _atom_site_fract_x
 _atom_site_fract_y
 _atom_site_fract_z
 _atom_site_occupancy
  La  La0  1  0.25000000  0.50207200  0.30851600  1
  La  La1  1  0.75000000  0.49792800  0.69148400  1
  La  La2  1  0.25000000  0.00207200  0.69148400  1
  La  La3  1  0.75000000  0.99792800  0.30851600  1
  V  V0  1  0.00000000  0.75000000  0.90783300  1
  V  V1  1  0.00000000  0.25000000  0.09216700  1
  V  V2  1  0.50000000  0.25000000  0.09216700  1
  V  V3  1  0.50000000  0.75000000  0.90783300  1
  Sb  Sb0  1  0.00000000  0.75000000  0.50090900  1
  Sb  Sb1  1  0.00000000  0.25000000  0.49909100  1
  Sb  Sb2  1  0.50000000  0.25000000  0.49909100  1
  Sb  Sb3  1  0.50000000  0.75000000  0.50090900  1
  Sb  Sb4  1  0.25000000  0.60203300  0.06323600  1
  Sb  Sb5  1  0.75000000  0.39796700  0.93676400  1
  Sb  Sb6  1  0.25000000  0.10203300  0.93676400  1
  Sb  Sb7  1  0.75000000  0.89796700  0.06323600  1
  Sb  Sb8  1  0.25000000  0.00037100  0.21476500  1
  Sb  Sb9  1  0.75000000  0.99962900  0.78523500  1
  Sb  Sb10  1  0.25000000  0.50037100  0.78523500  1
  Sb  Sb11  1  0.75000000  0.49962900  0.21476500  1
loop_
_geom_bond_atom_site_label_1
_geom_bond_atom_site_label_2
_geom_bond_distance
_geom_bond_site_symmetry_2
La0 Sb11 3.323560 1_455
La0 Sb11 3.323560 1_555
La0 Sb4 3.352998 1_555
La0 Sb2 3.383216 1_555
La0 Sb1 3.383216 1_555
La0 Sb8 3.389421 1_565
La0 Sb0 3.389543 1_555
La0 Sb3 3.389543 1_555
La0 Sb8 3.409379 1_555
La1 Sb10 3.323560 1_555
La1 Sb10 3.323560 1_655
La1 Sb5 3.352998 1_555
La1 Sb0 3.383216 1_655
La1 Sb3 3.383216 1_555
La1 Sb9 3.389421 1_545
La1 Sb2 3.389543 1_555
La1 Sb1 3.389543 1_655
La1 Sb9 3.409379 1_555
La2 Sb9 3.323560 1_445
La2 Sb9 3.323560 1_545
La2 Sb6 3.352998 1_555
La2 Sb0 3.383216 1_545
La2 Sb3 3.383216 1_545
La2 Sb10 3.389421 1_555
La2 Sb2 3.389543 1_555
La2 Sb1 3.389543 1_555
La2 Sb10 3.409379 1_545
La3 Sb8 3.323560 1_565
La3 Sb8 3.323560 1_665
La3 Sb7 3.352998 1_555
La3 Sb1 3.383216 1_665
La3 Sb2 3.383216 1_565
La3 Sb11 3.389421 1_555
La3 Sb0 3.389543 1_655
La3 Sb3 3.389543 1_555
La3 Sb11 3.409379 1_565
Sb0 Sb3 3.075968 1_555
Sb0 Sb3 3.075968 1_455
Sb0 Sb1 3.157890 1_565
Sb0 Sb1 3.157890 1_555
Sb1 Sb2 3.075968 1_455
Sb1 Sb2 3.075968 1_555
Sb2 Sb3 3.157890 1_555
Sb2 Sb3 3.157890 1_545
Sb4 V2 2.731174 1_555
Sb4 V1 2.731174 1_555
Sb4 V3 2.755296 1_554
Sb4 V0 2.755296 1_554
Sb4 Sb8 3.235366 1_565
Sb5 V0 2.731174 1_655
Sb5 V3 2.731174 1_555
Sb5 V1 2.755296 1_656
Sb5 V2 2.755296 1_556
Sb5 Sb9 3.235366 1_545
Sb6 V0 2.731174 1_545
Sb6 V3 2.731174 1_545
Sb6 V2 2.755296 1_556
Sb6 V1 2.755296 1_556
Sb7 V1 2.731174 1_665
Sb7 V2 2.731174 1_565
Sb7 V0 2.755296 1_654
Sb7 V3 2.755296 1_554
Sb8 V1 2.749559 1_555
Sb8 V2 2.749559 1_555
Sb9 V3 2.749559 1_555
Sb9 V0 2.749559 1_655
Sb10 V3 2.749559 1_555
Sb10 V0 2.749559 1_555
Sb10 Sb6 3.235366 1_555
Sb11 V2 2.749559 1_555
Sb11 V1 2.749559 1_655
Sb11 Sb7 3.235366 1_555
