# generated using pymatgen
data_LaMgCrS4
_symmetry_space_group_name_H-M   'P 1'
_cell_length_a   7.91152437
_cell_length_b   7.73260659
_cell_length_c   7.73324556
_cell_angle_alpha   58.95252383
_cell_angle_beta   59.23385377
_cell_angle_gamma   59.23207363
_symmetry_Int_Tables_number   1
_chemical_formula_structural   LaMgCrS4
_chemical_formula_sum   'La2 Mg2 Cr2 S8'
_cell_volume   327.96194316
_cell_formula_units_Z   2
loop_
 _symmetry_equiv_pos_site_id
 _symmetry_equiv_pos_as_xyz
  1  'x, y, z'
loop_
 _atom_site_type_symbol
 _atom_site_label
 _atom_site_symmetry_multiplicity
 _atom_site_fract_x
 _atom_site_fract_y
 _atom_site_fract_z
 _atom_site_occupancy
  La  La0  1  0.50001342  0.50002124  0.49997017  1
  La  La1  1  0.99999683  0.49998166  0.50002806  1
  Mg  Mg0  1  0.87175000  0.87820098  0.87831704  1
  Mg  Mg1  1  0.12829625  0.12176851  0.12167651  1
  Cr  Cr0  1  0.49997281  0.50002525  0.99994332  1
  Cr  Cr1  1  0.49996106  0.00000535  0.50002003  1
  S  S0  1  0.70026696  0.76100042  0.76100106  1
  S  S1  1  0.27526929  0.21605259  0.73344765  1
  S  S2  1  0.27524258  0.73345829  0.21604397  1
  S  S3  1  0.72226712  0.23900009  0.23901105  1
  S  S4  1  0.72473974  0.26653191  0.78395709  1
  S  S5  1  0.27773183  0.76099806  0.76099778  1
  S  S6  1  0.29972850  0.23899123  0.23902517  1
  S  S7  1  0.72476762  0.78395941  0.26656209  1
loop_
_geom_bond_atom_site_label_1
_geom_bond_atom_site_label_2
_geom_bond_distance
_geom_bond_site_symmetry_2
La0 S7 2.804160 1_555
La0 S1 2.804241 1_555
La0 S2 2.804248 1_555
La0 S4 2.804329 1_555
La0 S3 2.859770 1_555
La0 S5 2.859887 1_555
La1 S1 2.804191 1_655
La1 S7 2.804198 1_555
La1 S4 2.804251 1_555
La1 S2 2.804343 1_655
La1 S0 2.859829 1_555
La1 S6 2.859839 1_655
Mg0 S7 2.436372 1_556
Mg0 S4 2.436582 1_565
Mg0 S5 2.617175 1_655
Mg0 S0 2.617304 1_555
Mg1 S1 2.436237 1_554
Mg1 S2 2.436443 1_545
Mg1 S6 2.617289 1_555
Mg1 S3 2.617467 1_455
Cr0 S4 2.449278 1_555
Cr0 S2 2.449555 1_556
Cr0 S5 2.534879 1_555
Cr0 S0 2.535273 1_555
Cr0 S6 2.535348 1_556
Cr0 S3 2.535820 1_556
Cr1 S1 2.449254 1_555
Cr1 S7 2.449415 1_545
Cr1 S5 2.535121 1_545
Cr1 S6 2.535123 1_555
Cr1 S0 2.535426 1_545
Cr1 S3 2.535473 1_555
