# generated using pymatgen
data_Sr2CaMoO6
_symmetry_space_group_name_H-M   'P 1'
_cell_length_a   5.95549100
_cell_length_b   5.80884900
_cell_length_c   10.09765912
_cell_angle_alpha   55.05620848
_cell_angle_beta   90.00000000
_cell_angle_gamma   90.00000000
_symmetry_Int_Tables_number   1
_chemical_formula_structural   Sr2CaMoO6
_chemical_formula_sum   'Sr4 Ca2 Mo2 O12'
_cell_volume   286.34585383
_cell_formula_units_Z   2
loop_
 _symmetry_equiv_pos_site_id
 _symmetry_equiv_pos_as_xyz
  1  'x, y, z'
loop_
 _atom_site_type_symbol
 _atom_site_label
 _atom_site_symmetry_multiplicity
 _atom_site_fract_x
 _atom_site_fract_y
 _atom_site_fract_z
 _atom_site_occupancy
  Sr  Sr0  1  0.54565600  0.74133900  0.74818700  1
  Sr  Sr1  1  0.04565600  0.25866100  0.75181300  1
  Sr  Sr2  1  0.95434400  0.74133900  0.24818700  1
  Sr  Sr3  1  0.45434400  0.25866100  0.25181300  1
  Ca  Ca0  1  0.00000000  0.00000000  0.50000000  1
  Ca  Ca1  1  0.50000000  0.00000000  0.00000000  1
  Mo  Mo0  1  0.00000000  0.50000000  0.00000000  1
  Mo  Mo1  1  0.50000000  0.50000000  0.50000000  1
  O  O0  1  0.53014100  0.81304000  0.27278800  1
  O  O1  1  0.03014100  0.18696000  0.22721200  1
  O  O2  1  0.46985900  0.18696000  0.72721200  1
  O  O3  1  0.96985900  0.81304000  0.77278800  1
  O  O4  1  0.76906500  0.63223300  0.55022600  1
  O  O5  1  0.26906500  0.36776700  0.94977400  1
  O  O6  1  0.23093500  0.36776700  0.44977400  1
  O  O7  1  0.73093500  0.63223300  0.05022600  1
  O  O8  1  0.18660900  0.72960800  0.04111500  1
  O  O9  1  0.68660900  0.27039200  0.45888500  1
  O  O10  1  0.81339100  0.27039200  0.95888500  1
  O  O11  1  0.31339100  0.72960800  0.54111500  1
loop_
_geom_bond_atom_site_label_1
_geom_bond_atom_site_label_2
_geom_bond_distance
_geom_bond_site_symmetry_2
Ca0 O3 2.317797 1_445
Ca0 O1 2.317797 1_555
Ca0 O9 2.318577 1_455
Ca0 O11 2.318577 1_545
Ca0 O6 2.339101 1_555
Ca0 O4 2.339101 1_445
Ca1 O0 2.317797 1_545
Ca1 O2 2.317797 1_554
Ca1 O10 2.318577 1_554
Ca1 O8 2.318577 1_545
Ca1 O5 2.339101 1_554
Ca1 O7 2.339101 1_545
Mo0 O8 1.954659 1_555
Mo0 O10 1.954659 1_454
Mo0 O1 1.955371 1_555
Mo0 O3 1.955371 1_454
Mo0 O7 1.964999 1_455
Mo0 O5 1.964999 1_554
Mo1 O11 1.954659 1_555
Mo1 O9 1.954659 1_555
Mo1 O0 1.955371 1_555
Mo1 O2 1.955371 1_555
Mo1 O4 1.964999 1_555
Mo1 O6 1.964999 1_555
O0 Sr3 2.514190 1_565
O0 Sr2 2.595397 1_555
O1 Sr2 2.514190 1_445
O1 Sr3 2.595397 1_555
O2 Sr0 2.514190 1_545
O2 Sr1 2.595397 1_555
O3 Sr1 2.514190 1_665
O3 Sr0 2.595397 1_555
O4 Sr1 2.550641 1_655
O4 Sr0 2.760251 1_555
O4 Sr2 2.950720 1_555
O5 Sr0 2.550641 1_555
O5 Sr1 2.760251 1_555
O5 Sr3 2.950720 1_556
O6 Sr2 2.550641 1_455
O6 Sr3 2.760251 1_555
O6 Sr1 2.950720 1_555
O7 Sr3 2.550641 1_555
O7 Sr2 2.760251 1_555
O7 Sr0 2.950720 1_554
O8 Sr2 2.540333 1_455
O8 Sr3 2.808088 1_555
O8 Sr1 2.898055 1_564
O9 Sr3 2.540333 1_555
O9 Sr2 2.808088 1_555
O9 Sr0 2.898055 1_545
O10 Sr1 2.540333 1_655
O10 Sr0 2.808088 1_555
O10 Sr2 2.898055 1_546
O11 Sr0 2.540333 1_555
O11 Sr1 2.808088 1_555
O11 Sr3 2.898055 1_565
