# generated using pymatgen
data_Te3Mo2Se
_symmetry_space_group_name_H-M   'P 1'
_cell_length_a   3.49950145
_cell_length_b   3.49950145
_cell_length_c   15.09505800
_cell_angle_alpha   90.00000000
_cell_angle_beta   90.00000000
_cell_angle_gamma   119.99998964
_symmetry_Int_Tables_number   1
_chemical_formula_structural   Te3Mo2Se
_chemical_formula_sum   'Te3 Mo2 Se1'
_cell_volume   160.09501870
_cell_formula_units_Z   1
loop_
 _symmetry_equiv_pos_site_id
 _symmetry_equiv_pos_as_xyz
  1  'x, y, z'
loop_
 _atom_site_type_symbol
 _atom_site_label
 _atom_site_symmetry_multiplicity
 _atom_site_fract_x
 _atom_site_fract_y
 _atom_site_fract_z
 _atom_site_occupancy
  Te  Te0  1  0.33333300  0.66666700  0.87274900  1
  Te  Te1  1  0.33333300  0.66666700  0.62977100  1
  Te  Te2  1  0.66666700  0.33333300  0.36606500  1
  Mo  Mo0  1  0.66666700  0.33333300  0.75116200  1
  Mo  Mo1  1  0.33333300  0.66666700  0.24331100  1
  Se  Se0  1  0.66666700  0.33333300  0.13694300  1
loop_
_geom_bond_atom_site_label_1
_geom_bond_atom_site_label_2
_geom_bond_distance
_geom_bond_site_symmetry_2
Mo0 Te1 2.727612 1_545
Mo0 Te1 2.727612 1_655
Mo0 Te1 2.727616 1_555
Mo0 Te0 2.729601 1_545
Mo0 Te0 2.729601 1_655
Mo0 Te0 2.729605 1_555
Mo1 Se0 2.580739 1_455
Mo1 Se0 2.580739 1_565
Mo1 Se0 2.580744 1_555
Mo1 Te2 2.741476 1_455
Mo1 Te2 2.741476 1_565
Mo1 Te2 2.741481 1_555
