# generated using pymatgen
data_MgMnP2O7
_symmetry_space_group_name_H-M   'P 1'
_cell_length_a   8.56708900
_cell_length_b   7.11771400
_cell_length_c   9.24901206
_cell_angle_alpha   67.16320598
_cell_angle_beta   90.00000000
_cell_angle_gamma   90.00000000
_symmetry_Int_Tables_number   1
_chemical_formula_structural   MgMnP2O7
_chemical_formula_sum   'Mg4 Mn4 P8 O28'
_cell_volume   519.77845288
_cell_formula_units_Z   4
loop_
 _symmetry_equiv_pos_site_id
 _symmetry_equiv_pos_as_xyz
  1  'x, y, z'
loop_
 _atom_site_type_symbol
 _atom_site_label
 _atom_site_symmetry_multiplicity
 _atom_site_fract_x
 _atom_site_fract_y
 _atom_site_fract_z
 _atom_site_occupancy
  Mg  Mg0  1  0.94004000  0.69801400  0.18107800  1
  Mg  Mg1  1  0.44004000  0.30198600  0.31892200  1
  Mg  Mg2  1  0.55996000  0.69801400  0.68107800  1
  Mg  Mg3  1  0.05996000  0.30198600  0.81892200  1
  Mn  Mn0  1  0.06963500  0.23620100  0.39079800  1
  Mn  Mn1  1  0.93036500  0.76379900  0.60920200  1
  Mn  Mn2  1  0.56963500  0.76379900  0.10920200  1
  Mn  Mn3  1  0.43036500  0.23620100  0.89079800  1
  P  P0  1  0.73541500  0.06188500  0.75722000  1
  P  P1  1  0.22370200  0.53225200  0.03134600  1
  P  P2  1  0.76458500  0.06188500  0.25722000  1
  P  P3  1  0.27629800  0.53225200  0.53134600  1
  P  P4  1  0.23541500  0.93811500  0.74278000  1
  P  P5  1  0.72370200  0.46774800  0.46865400  1
  P  P6  1  0.77629800  0.46774800  0.96865400  1
  P  P7  1  0.26458500  0.93811500  0.24278000  1
  O  O0  1  0.17824100  0.74957800  0.89987600  1
  O  O1  1  0.60962600  0.11488300  0.30878400  1
  O  O2  1  0.89037400  0.11488300  0.80878400  1
  O  O3  1  0.38401900  0.54167800  0.10454900  1
  O  O4  1  0.82175900  0.25042200  0.10012400  1
  O  O5  1  0.10298900  0.97049900  0.62267200  1
  O  O6  1  0.61598100  0.45832200  0.89545100  1
  O  O7  1  0.09063200  0.49397900  0.15042200  1
  O  O8  1  0.27291600  0.37835600  0.45135100  1
  O  O9  1  0.89701100  0.02950100  0.37732800  1
  O  O10  1  0.39701100  0.97049900  0.12267200  1
  O  O11  1  0.76197000  0.88153200  0.20386900  1
  O  O12  1  0.26197000  0.11846800  0.29613100  1
  O  O13  1  0.32175900  0.74957800  0.39987600  1
  O  O14  1  0.60298900  0.02950100  0.87732800  1
  O  O15  1  0.10962600  0.88511700  0.19121600  1
  O  O16  1  0.23803000  0.11846800  0.79613100  1
  O  O17  1  0.90936800  0.50602100  0.84957800  1
  O  O18  1  0.22708400  0.37835600  0.95135100  1
  O  O19  1  0.77291600  0.62164400  0.04864900  1
  O  O20  1  0.88401900  0.45832200  0.39545100  1
  O  O21  1  0.40936800  0.49397900  0.65042200  1
  O  O22  1  0.59063200  0.50602100  0.34957800  1
  O  O23  1  0.39037400  0.88511700  0.69121600  1
  O  O24  1  0.73803000  0.88153200  0.70386900  1
  O  O25  1  0.11598100  0.54167800  0.60454900  1
  O  O26  1  0.72708400  0.62164400  0.54864900  1
  O  O27  1  0.67824100  0.25042200  0.60012400  1
loop_
_geom_bond_atom_site_label_1
_geom_bond_atom_site_label_2
_geom_bond_distance
_geom_bond_site_symmetry_2
Mg0 O15 1.997515 1_655
Mg0 O7 2.042922 1_655
Mg0 O11 2.071635 1_555
Mg0 O19 2.088651 1_555
Mg0 O20 2.108685 1_555
Mg1 O1 1.997515 1_555
Mg1 O22 2.042922 1_555
Mg1 O12 2.071635 1_555
Mg1 O8 2.088651 1_555
Mg1 O3 2.108685 1_555
Mg2 O23 1.997515 1_555
Mg2 O21 2.042922 1_555
Mg2 O24 2.071635 1_555
Mg2 O26 2.088651 1_555
Mg2 O6 2.108685 1_555
Mg3 O2 1.997515 1_455
Mg3 O17 2.042922 1_455
Mg3 O16 2.071635 1_555
Mg3 O18 2.088651 1_555
Mg3 O25 2.108685 1_555
Mn0 O9 2.123539 1_455
Mn0 O12 2.180246 1_555
Mn0 O8 2.193220 1_555
Mn0 O20 2.254530 1_455
Mn0 O5 2.260391 1_545
Mn0 O7 2.274926 1_555
Mn1 O5 2.123539 1_655
Mn1 O24 2.180246 1_555
Mn1 O26 2.193220 1_555
Mn1 O25 2.254530 1_655
Mn1 O9 2.260391 1_565
Mn1 O17 2.274926 1_555
Mn2 O10 2.123539 1_555
Mn2 O11 2.180246 1_555
Mn2 O19 2.193220 1_555
Mn2 O3 2.254530 1_555
Mn2 O14 2.260391 1_564
Mn2 O22 2.274926 1_555
Mn3 O14 2.123539 1_555
Mn3 O16 2.180246 1_555
Mn3 O18 2.193220 1_555
Mn3 O6 2.254530 1_555
Mn3 O10 2.260391 1_546
Mn3 O21 2.274926 1_555
O0 P1 1.600950 1_556
O0 P4 1.624322 1_555
O1 P2 1.507241 1_555
O2 P0 1.507241 1_555
O3 P1 1.544192 1_555
O4 P6 1.600950 1_554
O4 P2 1.624322 1_555
O5 P4 1.541276 1_555
O6 P6 1.544192 1_555
O7 P1 1.534249 1_555
O8 P3 1.541821 1_555
O9 P2 1.541276 1_555
O10 P7 1.541276 1_555
O11 P2 1.543878 1_565
O12 P7 1.543878 1_545
O13 P3 1.600950 1_555
O13 P7 1.624322 1_555
O14 P0 1.541276 1_555
O15 P7 1.507241 1_555
O16 P4 1.543878 1_545
O17 P6 1.534249 1_555
O18 P1 1.541821 1_556
O19 P6 1.541821 1_554
O20 P5 1.544192 1_555
O21 P3 1.534249 1_555
O22 P5 1.534249 1_555
O23 P4 1.507241 1_555
O24 P0 1.543878 1_565
O25 P3 1.544192 1_555
O26 P5 1.541821 1_555
O27 P5 1.600950 1_555
O27 P0 1.624322 1_555
