# generated using pymatgen
data_La2GaFeO6
_symmetry_space_group_name_H-M   'P 1'
_cell_length_a   7.90528047
_cell_length_b   7.90592916
_cell_length_c   7.91099531
_cell_angle_alpha   90.14529003
_cell_angle_beta   90.04513411
_cell_angle_gamma   90.05382790
_symmetry_Int_Tables_number   1
_chemical_formula_structural   La2GaFeO6
_chemical_formula_sum   'La8 Ga4 Fe4 O24'
_cell_volume   494.42406997
_cell_formula_units_Z   4
loop_
 _symmetry_equiv_pos_site_id
 _symmetry_equiv_pos_as_xyz
  1  'x, y, z'
loop_
 _atom_site_type_symbol
 _atom_site_label
 _atom_site_symmetry_multiplicity
 _atom_site_fract_x
 _atom_site_fract_y
 _atom_site_fract_z
 _atom_site_occupancy
  La  La0  1  0.75034400  0.48088100  0.01128500  1
  La  La1  1  0.75033600  0.98089800  0.51127200  1
  La  La2  1  0.74964500  0.48875800  0.51907300  1
  La  La3  1  0.74966200  0.98877000  0.01906000  1
  La  La4  1  0.24965300  0.51911200  0.98872100  1
  La  La5  1  0.24964600  0.01909900  0.48871000  1
  La  La6  1  0.25033200  0.51125300  0.48094000  1
  La  La7  1  0.25035300  0.01122200  0.98091400  1
  Ga  Ga0  1  0.00000100  0.24999700  0.24999900  1
  Ga  Ga1  1  0.00000000  0.74999800  0.75000200  1
  Ga  Ga2  1  0.50000600  0.25000200  0.75000000  1
  Ga  Ga3  1  0.49999700  0.74999800  0.25000200  1
  Fe  Fe0  1  0.50000100  0.74999700  0.75000000  1
  Fe  Fe1  1  0.00000200  0.75000100  0.24999900  1
  Fe  Fe2  1  0.49999800  0.24999800  0.25000100  1
  Fe  Fe3  1  0.99999700  0.25000000  0.75000100  1
  O  O0  1  0.74859300  0.71796500  0.20163100  1
  O  O1  1  0.74858000  0.21796200  0.70163100  1
  O  O2  1  0.75142100  0.29836700  0.28201400  1
  O  O3  1  0.75142800  0.79837300  0.78201100  1
  O  O4  1  0.25141400  0.28204000  0.79837700  1
  O  O5  1  0.25140800  0.78204100  0.29837700  1
  O  O6  1  0.24857300  0.70163400  0.71798300  1
  O  O7  1  0.24858000  0.20162600  0.21799200  1
  O  O8  1  0.54325500  0.49806100  0.78190500  1
  O  O9  1  0.54326300  0.99805400  0.28190000  1
  O  O10  1  0.95667400  0.21805800  0.00188700  1
  O  O11  1  0.95667200  0.71806000  0.50189700  1
  O  O12  1  0.45673900  0.50194500  0.21810100  1
  O  O13  1  0.45674400  0.00193900  0.71809500  1
  O  O14  1  0.04333600  0.78194600  0.99810200  1
  O  O15  1  0.04333000  0.28194100  0.49811200  1
  O  O16  1  0.04309000  0.49903800  0.21766200  1
  O  O17  1  0.04308100  0.99903900  0.71766600  1
  O  O18  1  0.45683500  0.78237400  0.00092200  1
  O  O19  1  0.45683900  0.28237900  0.50092900  1
  O  O20  1  0.95691800  0.50095800  0.78233400  1
  O  O21  1  0.95692100  0.00096300  0.28233600  1
  O  O22  1  0.54316500  0.21762700  0.99907600  1
  O  O23  1  0.54316600  0.71762700  0.49907900  1
loop_
_geom_bond_atom_site_label_1
_geom_bond_atom_site_label_2
_geom_bond_distance
_geom_bond_site_symmetry_2
La0 O0 2.401402 1_555
La0 O20 2.445026 1_554
La0 O8 2.447117 1_554
La0 O2 2.585509 1_555
La0 O10 2.643725 1_555
La0 O22 2.648725 1_554
La0 O16 2.834446 1_655
La0 O12 2.845546 1_555
La1 O1 2.401343 1_565
La1 O21 2.444990 1_565
La1 O9 2.446975 1_555
La1 O3 2.585624 1_555
La1 O11 2.643843 1_555
La1 O23 2.648782 1_555
La1 O17 2.834510 1_655
La1 O13 2.845483 1_565
La2 O2 2.401805 1_555
La2 O23 2.443346 1_555
La2 O11 2.445277 1_555
La2 O1 2.585522 1_555
La2 O8 2.644912 1_555
La2 O20 2.650456 1_555
La2 O19 2.834056 1_555
La2 O15 2.845605 1_655
La3 O3 2.401772 1_554
La3 O22 2.443366 1_564
La3 O10 2.445114 1_565
La3 O0 2.585638 1_555
La3 O9 2.645002 1_555
La3 O21 2.650479 1_565
La3 O18 2.834266 1_555
La3 O14 2.845564 1_654
La4 O4 2.401319 1_555
La4 O16 2.444908 1_556
La4 O12 2.447095 1_556
La4 O6 2.585603 1_555
La4 O14 2.643726 1_555
La4 O18 2.648787 1_556
La4 O20 2.834419 1_455
La4 O8 2.845520 1_555
La5 O5 2.401178 1_545
La5 O17 2.444999 1_545
La5 O13 2.447185 1_555
La5 O7 2.585494 1_555
La5 O15 2.643776 1_555
La5 O19 2.648958 1_555
La5 O21 2.834288 1_455
La5 O9 2.845587 1_545
La6 O6 2.401656 1_555
La6 O19 2.443521 1_555
La6 O15 2.445201 1_555
La6 O5 2.585492 1_555
La6 O12 2.645040 1_555
La6 O16 2.650415 1_555
La6 O23 2.834212 1_555
La6 O11 2.845396 1_455
La7 O7 2.401986 1_556
La7 O18 2.443246 1_546
La7 O14 2.445077 1_545
La7 O4 2.585573 1_555
La7 O13 2.644832 1_555
La7 O17 2.650366 1_545
La7 O22 2.834219 1_555
La7 O10 2.845658 1_456
Ga0 O10 2.007479 1_455
Ga0 O15 2.007495 1_555
Ga0 O21 2.014747 1_455
Ga0 O16 2.014813 1_555
Ga0 O7 2.018323 1_555
Ga0 O2 2.018337 1_455
Ga1 O14 2.007407 1_555
Ga1 O11 2.007426 1_455
Ga1 O20 2.014791 1_455
Ga1 O17 2.014802 1_555
Ga1 O3 2.018277 1_455
Ga1 O6 2.018278 1_555
Ga2 O8 2.005679 1_555
Ga2 O13 2.005728 1_555
Ga2 O19 2.016459 1_555
Ga2 O22 2.016485 1_555
Ga2 O1 2.018321 1_555
Ga2 O4 2.018470 1_555
Ga3 O12 2.005641 1_555
Ga3 O9 2.005672 1_555
Ga3 O23 2.016502 1_555
Ga3 O18 2.016521 1_555
Ga3 O5 2.018449 1_555
Ga3 O0 2.018487 1_555
Fe0 O23 2.030012 1_555
Fe0 O18 2.030028 1_556
Fe0 O8 2.037533 1_555
Fe0 O13 2.037583 1_565
Fe0 O6 2.039173 1_555
Fe0 O3 2.039178 1_555
Fe1 O21 2.029006 1_465
Fe1 O16 2.029023 1_555
Fe1 O11 2.038546 1_455
Fe1 O14 2.038548 1_554
Fe1 O5 2.039093 1_555
Fe1 O0 2.039097 1_455
Fe2 O22 2.030047 1_554
Fe2 O19 2.030069 1_555
Fe2 O9 2.037603 1_545
Fe2 O12 2.037619 1_555
Fe2 O7 2.039101 1_555
Fe2 O2 2.039139 1_555
Fe3 O20 2.028969 1_555
Fe3 O17 2.029000 1_645
Fe3 O10 2.038445 1_556
Fe3 O15 2.038481 1_655
Fe3 O1 2.039164 1_555
Fe3 O4 2.039174 1_655
