# generated using pymatgen
data_Sr3Ce
_symmetry_space_group_name_H-M   'P 1'
_cell_length_a   8.19323642
_cell_length_b   8.19323642
_cell_length_c   6.48914800
_cell_angle_alpha   90.00000000
_cell_angle_beta   90.00000000
_cell_angle_gamma   120.00000339
_symmetry_Int_Tables_number   1
_chemical_formula_structural   Sr3Ce
_chemical_formula_sum   'Sr6 Ce2'
_cell_volume   377.25001860
_cell_formula_units_Z   2
loop_
 _symmetry_equiv_pos_site_id
 _symmetry_equiv_pos_as_xyz
  1  'x, y, z'
loop_
 _atom_site_type_symbol
 _atom_site_label
 _atom_site_symmetry_multiplicity
 _atom_site_fract_x
 _atom_site_fract_y
 _atom_site_fract_z
 _atom_site_occupancy
  Sr  Sr0  1  0.17055800  0.34111500  0.25000000  1
  Sr  Sr1  1  0.65888500  0.82944200  0.25000000  1
  Sr  Sr2  1  0.17055800  0.82944200  0.25000000  1
  Sr  Sr3  1  0.82944200  0.65888500  0.75000000  1
  Sr  Sr4  1  0.34111500  0.17055800  0.75000000  1
  Sr  Sr5  1  0.82944200  0.17055800  0.75000000  1
  Ce  Ce0  1  0.33333300  0.66666700  0.75000000  1
  Ce  Ce1  1  0.66666700  0.33333300  0.25000000  1
loop_
_geom_bond_atom_site_label_1
_geom_bond_atom_site_label_2
_geom_bond_distance
_geom_bond_site_symmetry_2
Sr0 Sr1 4.000978 1_555
Sr0 Sr2 4.000979 1_555
Sr0 Sr4 4.047908 1_554
Sr0 Sr4 4.047908 1_555
Sr0 Sr5 4.047916 1_455
Sr0 Sr5 4.047916 1_454
Sr0 Sr1 4.192258 1_445
Sr0 Sr2 4.192258 1_545
Sr1 Sr2 4.000979 1_555
Sr1 Sr3 4.047908 1_555
Sr1 Sr3 4.047908 1_554
Sr1 Sr5 4.047916 1_564
Sr1 Sr5 4.047916 1_565
Sr1 Sr2 4.192258 1_655
Sr2 Sr3 4.047916 1_455
Sr2 Sr3 4.047916 1_454
Sr2 Sr4 4.047916 1_564
Sr2 Sr4 4.047916 1_565
Sr3 Sr4 4.000978 1_555
Sr3 Sr5 4.000979 1_555
Sr3 Sr4 4.192258 1_665
Sr3 Sr5 4.192258 1_565
Sr4 Sr5 4.000979 1_555
Sr4 Sr5 4.192258 1_455
Ce0 Sr2 3.982858 1_556
Ce0 Sr2 3.982858 1_555
Ce0 Sr0 3.982866 1_555
Ce0 Sr0 3.982866 1_556
Ce0 Sr1 3.982866 1_555
Ce0 Sr1 3.982866 1_556
Ce0 Sr5 4.096990 1_455
Ce0 Sr5 4.096990 1_565
Ce0 Sr3 4.096990 1_455
Ce0 Sr4 4.096990 1_565
Ce0 Sr3 4.096990 1_555
Ce0 Sr4 4.096990 1_555
Ce1 Sr5 3.982858 1_554
Ce1 Sr5 3.982858 1_555
Ce1 Sr4 3.982866 1_555
Ce1 Sr4 3.982866 1_554
Ce1 Sr3 3.982866 1_555
Ce1 Sr3 3.982866 1_554
Ce1 Sr2 4.096990 1_545
Ce1 Sr2 4.096990 1_655
Ce1 Sr1 4.096990 1_545
Ce1 Sr0 4.096990 1_655
Ce1 Sr0 4.096990 1_555
Ce1 Sr1 4.096990 1_555
