# generated using pymatgen
data_Li3CeGa8
_symmetry_space_group_name_H-M   'P 1'
_cell_length_a   4.34558165
_cell_length_b   4.34335919
_cell_length_c   13.83968300
_cell_angle_alpha   90.00000000
_cell_angle_beta   90.00000000
_cell_angle_gamma   59.98307252
_symmetry_Int_Tables_number   1
_chemical_formula_structural   Li3CeGa8
_chemical_formula_sum   'Li3 Ce1 Ga8'
_cell_volume   226.18110994
_cell_formula_units_Z   1
loop_
 _symmetry_equiv_pos_site_id
 _symmetry_equiv_pos_as_xyz
  1  'x, y, z'
loop_
 _atom_site_type_symbol
 _atom_site_label
 _atom_site_symmetry_multiplicity
 _atom_site_fract_x
 _atom_site_fract_y
 _atom_site_fract_z
 _atom_site_occupancy
  Li  Li0  1  0.99995900  0.00000000  0.25763600  1
  Li  Li1  1  0.99996100  0.00000000  0.50000000  1
  Li  Li2  1  0.99995900  0.00000000  0.74236400  1
  Ce  Ce0  1  0.99996800  0.00000000  0.00000000  1
  Ga  Ga0  1  0.66753500  0.66486600  0.14334800  1
  Ga  Ga1  1  0.66643700  0.66706700  0.37376300  1
  Ga  Ga2  1  0.66643700  0.66706700  0.62623700  1
  Ga  Ga3  1  0.66753500  0.66486600  0.85665200  1
  Ga  Ga4  1  0.33240100  0.33513400  0.14334800  1
  Ga  Ga5  1  0.33350400  0.33293300  0.37376300  1
  Ga  Ga6  1  0.33350400  0.33293300  0.62623700  1
  Ga  Ga7  1  0.33240100  0.33513400  0.85665200  1
loop_
_geom_bond_atom_site_label_1
_geom_bond_atom_site_label_2
_geom_bond_distance
_geom_bond_site_symmetry_2
Ce0 Ga0 3.191868 1_555
Ce0 Ga4 3.191868 1_645
Ce0 Ga7 3.191868 1_644
Ce0 Ga3 3.191868 1_554
Ce0 Ga4 3.200843 1_655
Ce0 Ga7 3.200843 1_654
Ce0 Ga0 3.200843 1_545
Ce0 Ga3 3.200843 1_544
Ce0 Ga0 3.200843 1_645
Ce0 Ga4 3.200843 1_555
Ce0 Ga3 3.200843 1_644
Ce0 Ga7 3.200843 1_554
Ga0 Ga4 2.501754 1_555
Ga0 Ga4 2.501754 1_655
Ga0 Ga4 2.520756 1_565
Ga0 Li0 2.958717 1_555
Ga0 Li0 2.968368 1_565
Ga0 Li0 2.968425 1_465
Ga1 Ga5 2.504201 1_565
Ga1 Ga5 2.510001 1_555
Ga1 Ga5 2.510001 1_655
Ga1 Li0 2.978510 1_565
Ga1 Li0 2.978583 1_465
Ga1 Li0 2.979367 1_555
Ga1 Li1 3.056286 1_565
Ga1 Li1 3.056345 1_465
Ga1 Li1 3.057115 1_555
Ga2 Ga6 2.504201 1_565
Ga2 Ga6 2.510001 1_555
Ga2 Ga6 2.510001 1_655
Ga2 Li2 2.978510 1_565
Ga2 Li2 2.978583 1_465
Ga2 Li2 2.979367 1_555
Ga2 Li1 3.056286 1_565
Ga2 Li1 3.056345 1_465
Ga2 Li1 3.057115 1_555
Ga3 Ga7 2.501754 1_555
Ga3 Ga7 2.501754 1_655
Ga3 Ga7 2.520756 1_565
Ga3 Li2 2.958717 1_555
Ga3 Li2 2.968368 1_565
Ga3 Li2 2.968425 1_465
Ga4 Li0 2.958717 1_465
Ga4 Li0 2.968368 1_555
Ga4 Li0 2.968425 1_455
Ga5 Li0 2.978510 1_555
Ga5 Li0 2.978583 1_455
Ga5 Li0 2.979367 1_465
Ga5 Li1 3.056286 1_555
Ga5 Li1 3.056345 1_455
Ga5 Li1 3.057115 1_465
Ga6 Li2 2.978510 1_555
Ga6 Li2 2.978583 1_455
Ga6 Li2 2.979367 1_465
Ga6 Li1 3.056286 1_555
Ga6 Li1 3.056345 1_455
Ga6 Li1 3.057115 1_465
Ga7 Li2 2.958717 1_465
Ga7 Li2 2.968368 1_555
Ga7 Li2 2.968425 1_455
