# generated using pymatgen
data_BaGeS3
_symmetry_space_group_name_H-M   'P 1'
_cell_length_a   5.80415490
_cell_length_b   13.48955987
_cell_length_c   15.55618473
_cell_angle_alpha   64.57360247
_cell_angle_beta   90.00000000
_cell_angle_gamma   90.00000000
_symmetry_Int_Tables_number   1
_chemical_formula_structural   BaGeS3
_chemical_formula_sum   'Ba8 Ge8 S24'
_cell_volume   1100.00276877
_cell_formula_units_Z   8
loop_
 _symmetry_equiv_pos_site_id
 _symmetry_equiv_pos_as_xyz
  1  'x, y, z'
loop_
 _atom_site_type_symbol
 _atom_site_label
 _atom_site_symmetry_multiplicity
 _atom_site_fract_x
 _atom_site_fract_y
 _atom_site_fract_z
 _atom_site_occupancy
  Ba  Ba0  1  0.74123354  0.39442041  0.13592123  1
  Ba  Ba1  1  0.24123354  0.10557959  0.86407877  1
  Ba  Ba2  1  0.25876646  0.60557959  0.86407877  1
  Ba  Ba3  1  0.75876646  0.89442041  0.13592123  1
  Ba  Ba4  1  0.24688047  0.03029437  0.36364030  1
  Ba  Ba5  1  0.74688047  0.46970563  0.63635970  1
  Ba  Ba6  1  0.75311953  0.96970563  0.63635970  1
  Ba  Ba7  1  0.25311953  0.53029437  0.36364030  1
  Ge  Ge0  1  0.84059974  0.26625802  0.42569461  1
  Ge  Ge1  1  0.34059974  0.23374198  0.57430539  1
  Ge  Ge2  1  0.15940026  0.73374198  0.57430539  1
  Ge  Ge3  1  0.65940026  0.76625802  0.42569461  1
  Ge  Ge4  1  0.15628830  0.19305174  0.07464645  1
  Ge  Ge5  1  0.65628830  0.30694826  0.92535355  1
  Ge  Ge6  1  0.84371170  0.80694826  0.92535355  1
  Ge  Ge7  1  0.34371170  0.69305174  0.07464645  1
  S  S0  1  0.75736773  0.43142341  0.32254401  1
  S  S1  1  0.25736773  0.06857659  0.67745599  1
  S  S2  1  0.24263227  0.56857659  0.67745599  1
  S  S3  1  0.74263227  0.93142341  0.32254401  1
  S  S4  1  0.23469005  0.26089685  0.42552517  1
  S  S5  1  0.73469005  0.23910315  0.57447483  1
  S  S6  1  0.76530995  0.73910315  0.57447483  1
  S  S7  1  0.26530995  0.76089685  0.42552517  1
  S  S8  1  0.75020509  0.12430228  0.40069122  1
  S  S9  1  0.25020509  0.37569772  0.59930878  1
  S  S10  1  0.24979491  0.87569772  0.59930878  1
  S  S11  1  0.74979491  0.62430228  0.40069122  1
  S  S12  1  0.23772413  0.25532188  0.17844313  1
  S  S13  1  0.73772413  0.24467812  0.82155687  1
  S  S14  1  0.76227587  0.74467812  0.82155687  1
  S  S15  1  0.26227587  0.75532188  0.17844313  1
  S  S16  1  0.76235690  0.18662085  0.07402618  1
  S  S17  1  0.26235690  0.31337915  0.92597382  1
  S  S18  1  0.23764310  0.81337915  0.92597382  1
  S  S19  1  0.73764310  0.68662085  0.07402618  1
  S  S20  1  0.24863233  0.02638577  0.10019092  1
  S  S21  1  0.74863233  0.47361423  0.89980908  1
  S  S22  1  0.75136767  0.97361423  0.89980908  1
  S  S23  1  0.25136767  0.52638577  0.10019092  1
loop_
_geom_bond_atom_site_label_1
_geom_bond_atom_site_label_2
_geom_bond_distance
_geom_bond_site_symmetry_2
Ba0 S0 3.151269 1_555
Ba0 S23 3.272974 1_555
Ba0 S16 3.334254 1_555
Ba0 S12 3.346159 1_655
Ba0 S21 3.356284 1_554
Ba0 S23 3.375671 1_655
Ba0 S12 3.381307 1_555
Ba0 S19 3.633895 1_555
Ba1 S1 3.151269 1_555
Ba1 S22 3.272974 1_445
Ba1 S17 3.334254 1_555
Ba1 S13 3.346159 1_555
Ba1 S20 3.356284 1_556
Ba1 S22 3.375671 1_545
Ba1 S13 3.381307 1_455
Ba1 S18 3.633895 1_545
Ba2 S2 3.151269 1_555
Ba2 S21 3.272974 1_555
Ba2 S18 3.334254 1_555
Ba2 S14 3.346159 1_455
Ba2 S23 3.356284 1_556
Ba2 S21 3.375671 1_455
Ba2 S14 3.381307 1_555
Ba2 S17 3.633895 1_555
Ba3 S3 3.151269 1_555
Ba3 S20 3.272974 1_665
Ba3 S19 3.334254 1_555
Ba3 S15 3.346159 1_555
Ba3 S22 3.356284 1_554
Ba3 S20 3.375671 1_565
Ba3 S15 3.381307 1_655
Ba3 S16 3.633895 1_565
Ba4 S12 3.163481 1_555
Ba4 S8 3.298243 1_455
Ba4 S8 3.332027 1_555
Ba4 S7 3.337726 1_545
Ba4 S3 3.346529 1_545
Ba4 S10 3.350298 1_545
Ba4 S3 3.389024 1_445
Ba4 S4 3.630418 1_555
Ba5 S13 3.163481 1_555
Ba5 S9 3.298243 1_555
Ba5 S9 3.332027 1_655
Ba5 S6 3.337726 1_555
Ba5 S2 3.346529 1_655
Ba5 S11 3.350298 1_555
Ba5 S2 3.389024 1_555
Ba5 S5 3.630418 1_555
Ba6 S14 3.163481 1_555
Ba6 S10 3.298243 1_655
Ba6 S10 3.332027 1_555
Ba6 S5 3.337726 1_565
Ba6 S1 3.346529 1_565
Ba6 S8 3.350298 1_565
Ba6 S1 3.389024 1_665
Ba6 S6 3.630418 1_555
Ba7 S15 3.163481 1_555
Ba7 S11 3.298243 1_555
Ba7 S11 3.332027 1_455
Ba7 S4 3.337726 1_555
Ba7 S0 3.346529 1_455
Ba7 S9 3.350298 1_555
Ba7 S0 3.389024 1_555
Ba7 S7 3.630418 1_555
Ge0 S0 2.168470 1_555
Ge0 S8 2.175560 1_555
Ge0 S5 2.267320 1_555
Ge0 S4 2.288541 1_655
Ge1 S1 2.168470 1_555
Ge1 S9 2.175560 1_555
Ge1 S4 2.267320 1_555
Ge1 S5 2.288541 1_555
Ge2 S2 2.168470 1_555
Ge2 S10 2.175560 1_555
Ge2 S7 2.267320 1_555
Ge2 S6 2.288541 1_455
Ge3 S3 2.168470 1_555
Ge3 S11 2.175560 1_555
Ge3 S6 2.267320 1_555
Ge3 S7 2.288541 1_555
Ge4 S12 2.168152 1_555
Ge4 S20 2.175465 1_555
Ge4 S17 2.266943 1_554
Ge4 S16 2.288261 1_455
Ge5 S13 2.168152 1_555
Ge5 S21 2.175465 1_555
Ge5 S16 2.266943 1_556
Ge5 S17 2.288261 1_555
Ge6 S14 2.168152 1_555
Ge6 S22 2.175465 1_555
Ge6 S19 2.266943 1_556
Ge6 S18 2.288261 1_655
Ge7 S15 2.168152 1_555
Ge7 S23 2.175465 1_555
Ge7 S18 2.266943 1_554
Ge7 S19 2.288261 1_555
