# generated using pymatgen
data_P2Pb4SO12
_symmetry_space_group_name_H-M   'P 1'
_cell_length_a   9.24493930
_cell_length_b   9.24493930
_cell_length_c   9.24493930
_cell_angle_alpha   109.66213099
_cell_angle_beta   109.66213099
_cell_angle_gamma   109.09007093
_symmetry_Int_Tables_number   1
_chemical_formula_structural   P2Pb4SO12
_chemical_formula_sum   'P4 Pb8 S2 O24'
_cell_volume   608.24128921
_cell_formula_units_Z   2
loop_
 _symmetry_equiv_pos_site_id
 _symmetry_equiv_pos_as_xyz
  1  'x, y, z'
loop_
 _atom_site_type_symbol
 _atom_site_label
 _atom_site_symmetry_multiplicity
 _atom_site_fract_x
 _atom_site_fract_y
 _atom_site_fract_z
 _atom_site_occupancy
  P  P0  1  0.37500000  0.50059100  0.62559100  1
  P  P1  1  0.87500000  0.74940900  0.37440900  1
  P  P2  1  0.49940900  0.12500000  0.87440900  1
  P  P3  1  0.25059100  0.62500000  0.12559100  1
  Pb  Pb0  1  0.98158200  0.38864200  0.25039100  1
  Pb  Pb1  1  0.13825100  0.73119100  0.74960900  1
  Pb  Pb2  1  0.61174900  0.86135800  0.09294000  1
  Pb  Pb3  1  0.76841800  0.51880900  0.90706000  1
  Pb  Pb4  1  0.13864200  0.23158200  0.75039100  1
  Pb  Pb5  1  0.48119100  0.38825100  0.24960900  1
  Pb  Pb6  1  0.61135800  0.86174900  0.59294000  1
  Pb  Pb7  1  0.26880900  0.01841800  0.40706000  1
  S  S0  1  0.75000000  0.25000000  0.50000000  1
  S  S1  1  0.00000000  0.00000000  0.00000000  1
  O  O0  1  0.69017700  0.28649100  0.00921100  1
  O  O1  1  0.27728000  0.68096500  0.99078900  1
  O  O2  1  0.47272000  0.96350900  0.90368500  1
  O  O3  1  0.05982300  0.56903500  0.09631500  1
  O  O4  1  0.03649100  0.94017700  0.50921100  1
  O  O5  1  0.43096500  0.52728000  0.49078900  1
  O  O6  1  0.71350900  0.72272000  0.40368500  1
  O  O7  1  0.31903500  0.30982300  0.59631500  1
  O  O8  1  0.88044700  0.43290100  0.65475000  1
  O  O9  1  0.86955300  0.02430300  0.05245400  1
  O  O10  1  0.77815000  0.22569700  0.34525000  1
  O  O11  1  0.97185000  0.81709900  0.94754600  1
  O  O12  1  0.38494600  0.78638000  0.31727500  1
  O  O13  1  0.36505400  0.18232800  0.90143400  1
  O  O14  1  0.28089400  0.46362000  0.09856600  1
  O  O15  1  0.46910600  0.06767200  0.68272500  1
  O  O16  1  0.53638000  0.63494600  0.81727500  1
  O  O17  1  0.93232800  0.61505400  0.40143400  1
  O  O18  1  0.21362000  0.53089400  0.59856600  1
  O  O19  1  0.81767200  0.71910600  0.18272500  1
  O  O20  1  0.18290100  0.13044700  0.15475000  1
  O  O21  1  0.77430300  0.11955300  0.55245400  1
  O  O22  1  0.97569700  0.02815000  0.84525000  1
  O  O23  1  0.56709900  0.22185000  0.44754600  1
loop_
_geom_bond_atom_site_label_1
_geom_bond_atom_site_label_2
_geom_bond_distance
_geom_bond_site_symmetry_2
O0 P2 1.561740 1_554
O0 Pb0 2.449017 1_555
O0 Pb3 2.614652 1_554
O1 P3 1.561735 1_556
O1 Pb1 2.449023 1_555
O1 Pb2 2.614653 1_556
O2 P2 1.561735 1_565
O2 Pb2 2.449023 1_556
O2 Pb1 2.614653 1_555
O3 P3 1.561743 1_555
O3 Pb3 2.449016 1_454
O3 Pb0 2.614650 1_455
O4 P1 1.561740 1_455
O4 Pb4 2.449017 1_565
O4 Pb7 2.614652 1_565
O5 P0 1.561735 1_555
O5 Pb5 2.449023 1_555
O5 Pb6 2.614653 1_555
O6 P1 1.561735 1_555
O6 Pb6 2.449023 1_555
O6 Pb5 2.614653 1_555
O7 P0 1.561743 1_555
O7 Pb7 2.449016 1_555
O7 Pb4 2.614650 1_555
O8 S0 1.495822 1_555
O8 Pb1 2.592520 1_655
O8 Pb3 2.839286 1_555
O9 S1 1.495822 1_655
O9 Pb2 2.592520 1_545
O9 Pb0 2.839286 1_555
O10 S0 1.495817 1_555
O10 Pb0 2.592526 1_555
O10 Pb2 2.839287 1_545
O11 S1 1.495825 1_666
O11 Pb3 2.592523 1_555
O11 Pb1 2.839278 1_655
O12 P3 1.560925 1_555
O12 Pb6 2.371276 1_555
O12 Pb7 2.711385 1_565
O13 P2 1.560920 1_555
O13 Pb4 2.371282 1_555
O13 Pb5 2.711387 1_556
O14 P3 1.560920 1_555
O14 Pb5 2.371282 1_555
O14 Pb4 2.711387 1_554
O15 P2 1.560929 1_555
O15 Pb7 2.371275 1_555
O15 Pb6 2.711385 1_545
O16 P0 1.560925 1_555
O16 Pb2 2.371276 1_556
O16 Pb3 2.711385 1_555
O17 P1 1.560920 1_555
O17 Pb0 2.371282 1_555
O17 Pb1 2.711387 1_655
O18 P0 1.560920 1_555
O18 Pb1 2.371282 1_555
O18 Pb0 2.711387 1_455
O19 P1 1.560929 1_555
O19 Pb3 2.371275 1_554
O19 Pb2 2.711385 1_555
O20 S1 1.495822 1_555
O20 Pb5 2.592520 1_555
O20 Pb7 2.839286 1_555
O21 S0 1.495822 1_555
O21 Pb6 2.592520 1_545
O21 Pb4 2.839286 1_655
O22 S1 1.495817 1_656
O22 Pb4 2.592526 1_655
O22 Pb6 2.839287 1_545
O23 S0 1.495825 1_555
O23 Pb7 2.592523 1_555
O23 Pb5 2.839278 1_555
