# generated using pymatgen
data_Ca(BO2)3
_symmetry_space_group_name_H-M   'P 1'
_cell_length_a   10.41212500
_cell_length_b   6.51402900
_cell_length_c   6.81749129
_cell_angle_alpha   64.20700298
_cell_angle_beta   90.00000000
_cell_angle_gamma   90.00000000
_symmetry_Int_Tables_number   1
_chemical_formula_structural   Ca(BO2)3
_chemical_formula_sum   'Ca4 B12 O24'
_cell_volume   416.32799455
_cell_formula_units_Z   4
loop_
 _symmetry_equiv_pos_site_id
 _symmetry_equiv_pos_as_xyz
  1  'x, y, z'
loop_
 _atom_site_type_symbol
 _atom_site_label
 _atom_site_symmetry_multiplicity
 _atom_site_fract_x
 _atom_site_fract_y
 _atom_site_fract_z
 _atom_site_occupancy
  Ca  Ca0  1  0.06740900  0.37841500  0.79867600  1
  Ca  Ca1  1  0.56740900  0.62158500  0.70132400  1
  Ca  Ca2  1  0.93259100  0.62158500  0.20132400  1
  Ca  Ca3  1  0.43259100  0.37841500  0.29867600  1
  B  B0  1  0.38774100  0.24208400  0.90589400  1
  B  B1  1  0.88774100  0.75791600  0.59410600  1
  B  B2  1  0.61225900  0.75791600  0.09410600  1
  B  B3  1  0.11225900  0.24208400  0.40589400  1
  B  B4  1  0.42009000  0.86948300  0.26190800  1
  B  B5  1  0.92009000  0.13051700  0.23809200  1
  B  B6  1  0.57991000  0.13051700  0.73809200  1
  B  B7  1  0.07991000  0.86948300  0.76190800  1
  B  B8  1  0.23112900  0.91979900  0.02030300  1
  B  B9  1  0.73112900  0.08020100  0.47969700  1
  B  B10  1  0.76887100  0.08020100  0.97969700  1
  B  B11  1  0.26887100  0.91979900  0.52030300  1
  O  O0  1  0.37904800  0.45296300  0.92881100  1
  O  O1  1  0.87904800  0.54703700  0.57118900  1
  O  O2  1  0.62095200  0.54703700  0.07118900  1
  O  O3  1  0.12095200  0.45296300  0.42881100  1
  O  O4  1  0.25990300  0.14662500  0.89535900  1
  O  O5  1  0.75990300  0.85337500  0.60464100  1
  O  O6  1  0.74009700  0.85337500  0.10464100  1
  O  O7  1  0.24009700  0.14662500  0.39535900  1
  O  O8  1  0.46533800  0.27202900  0.71095300  1
  O  O9  1  0.96533800  0.72797100  0.78904700  1
  O  O10  1  0.53466200  0.72797100  0.28904700  1
  O  O11  1  0.03466200  0.27202900  0.21095300  1
  O  O12  1  0.45470500  0.10807800  0.11442700  1
  O  O13  1  0.95470500  0.89192200  0.38557300  1
  O  O14  1  0.54529500  0.89192200  0.88557300  1
  O  O15  1  0.04529500  0.10807800  0.61442700  1
  O  O16  1  0.31236200  0.77920600  0.17973300  1
  O  O17  1  0.81236200  0.22079400  0.32026700  1
  O  O18  1  0.68763800  0.22079400  0.82026700  1
  O  O19  1  0.18763800  0.77920600  0.67973300  1
  O  O20  1  0.38600600  0.84031500  0.48384900  1
  O  O21  1  0.88600600  0.15968500  0.01615100  1
  O  O22  1  0.61399400  0.15968500  0.51615100  1
  O  O23  1  0.11399400  0.84031500  0.98384900  1
loop_
_geom_bond_atom_site_label_1
_geom_bond_atom_site_label_2
_geom_bond_distance
_geom_bond_site_symmetry_2
Ca0 O3 2.416452 1_555
Ca0 O4 2.421826 1_555
Ca0 O21 2.440791 1_456
Ca0 O1 2.444535 1_455
Ca0 O9 2.487676 1_455
Ca0 O15 2.580093 1_555
Ca0 O11 2.607958 1_556
Ca0 O19 2.682982 1_555
Ca1 O2 2.416452 1_556
Ca1 O5 2.421826 1_555
Ca1 O20 2.440791 1_555
Ca1 O0 2.444535 1_555
Ca1 O8 2.487676 1_555
Ca1 O14 2.580093 1_555
Ca1 O10 2.607958 1_555
Ca1 O18 2.682982 1_555
Ca2 O1 2.416452 1_555
Ca2 O6 2.421826 1_555
Ca2 O23 2.440791 1_654
Ca2 O3 2.444535 1_655
Ca2 O11 2.487676 1_655
Ca2 O13 2.580093 1_555
Ca2 O9 2.607958 1_554
Ca2 O17 2.682982 1_555
Ca3 O0 2.416452 1_554
Ca3 O7 2.421826 1_555
Ca3 O22 2.440791 1_555
Ca3 O2 2.444535 1_555
Ca3 O10 2.487676 1_555
Ca3 O12 2.580093 1_555
Ca3 O8 2.607958 1_555
Ca3 O16 2.682982 1_555
B0 O0 1.451326 1_555
B0 O12 1.479630 1_556
B0 O4 1.484056 1_555
B0 O8 1.493819 1_555
B1 O1 1.451326 1_555
B1 O13 1.479630 1_555
B1 O5 1.484056 1_555
B1 O9 1.493819 1_555
B2 O2 1.451326 1_555
B2 O14 1.479630 1_554
B2 O6 1.484056 1_555
B2 O10 1.493819 1_555
B3 O3 1.451326 1_555
B3 O15 1.479630 1_555
B3 O7 1.484056 1_555
B3 O11 1.493819 1_555
B4 O10 1.469234 1_555
B4 O12 1.482059 1_565
B4 O20 1.483670 1_555
B4 O16 1.484769 1_555
B5 O11 1.469234 1_655
B5 O13 1.482059 1_545
B5 O21 1.483670 1_555
B5 O17 1.484769 1_555
B6 O8 1.469234 1_555
B6 O14 1.482059 1_545
B6 O22 1.483670 1_555
B6 O18 1.484769 1_555
B7 O9 1.469234 1_455
B7 O15 1.482059 1_565
B7 O23 1.483670 1_555
B7 O19 1.484769 1_555
B8 O16 1.367205 1_555
B8 O4 1.379570 1_564
B8 O23 1.388994 1_554
B9 O17 1.367205 1_555
B9 O5 1.379570 1_545
B9 O22 1.388994 1_555
B10 O18 1.367205 1_555
B10 O6 1.379570 1_546
B10 O21 1.388994 1_556
B11 O19 1.367205 1_555
B11 O7 1.379570 1_565
B11 O20 1.388994 1_555
