# generated using pymatgen
data_Mn3Ga
_symmetry_space_group_name_H-M   'P 1'
_cell_length_a   5.19848469
_cell_length_b   5.19848469
_cell_length_c   16.31542000
_cell_angle_alpha   90.00000000
_cell_angle_beta   90.00000000
_cell_angle_gamma   120.00000876
_symmetry_Int_Tables_number   1
_chemical_formula_structural   Mn3Ga
_chemical_formula_sum   'Mn24 Ga8'
_cell_volume   381.84085141
_cell_formula_units_Z   8
loop_
 _symmetry_equiv_pos_site_id
 _symmetry_equiv_pos_as_xyz
  1  'x, y, z'
loop_
 _atom_site_type_symbol
 _atom_site_label
 _atom_site_symmetry_multiplicity
 _atom_site_fract_x
 _atom_site_fract_y
 _atom_site_fract_z
 _atom_site_occupancy
  Mn  Mn0_0  1  0.16666650  0.33333350  0.25000000  1
  Mn  Mn0_1  1  0.16666650  0.33333350  0.75000000  1
  Mn  Mn0_2  1  0.16666650  0.83333350  0.25000000  1
  Mn  Mn0_3  1  0.16666650  0.83333350  0.75000000  1
  Mn  Mn0_4  1  0.66666650  0.33333350  0.25000000  1
  Mn  Mn0_5  1  0.66666650  0.33333350  0.75000000  1
  Mn  Mn0_6  1  0.66666650  0.83333350  0.25000000  1
  Mn  Mn0_7  1  0.66666650  0.83333350  0.75000000  1
  Mn  Mn1_0  1  0.00000000  0.00000000  0.13038950  1
  Mn  Mn1_1  1  0.00000000  0.00000000  0.63038950  1
  Mn  Mn1_2  1  0.00000000  0.50000000  0.13038950  1
  Mn  Mn1_3  1  0.00000000  0.50000000  0.63038950  1
  Mn  Mn1_4  1  0.50000000  0.00000000  0.13038950  1
  Mn  Mn1_5  1  0.50000000  0.00000000  0.63038950  1
  Mn  Mn1_6  1  0.50000000  0.50000000  0.13038950  1
  Mn  Mn1_7  1  0.50000000  0.50000000  0.63038950  1
  Mn  Mn2_0  1  0.00000000  0.00000000  0.36961050  1
  Mn  Mn2_1  1  0.00000000  0.00000000  0.86961050  1
  Mn  Mn2_2  1  0.00000000  0.50000000  0.36961050  1
  Mn  Mn2_3  1  0.00000000  0.50000000  0.86961050  1
  Mn  Mn2_4  1  0.50000000  0.00000000  0.36961050  1
  Mn  Mn2_5  1  0.50000000  0.00000000  0.86961050  1
  Mn  Mn2_6  1  0.50000000  0.50000000  0.36961050  1
  Mn  Mn2_7  1  0.50000000  0.50000000  0.86961050  1
  Ga  Ga0_0  1  0.16666650  0.33333350  0.00000000  1
  Ga  Ga0_1  1  0.16666650  0.33333350  0.50000000  1
  Ga  Ga0_2  1  0.16666650  0.83333350  0.00000000  1
  Ga  Ga0_3  1  0.16666650  0.83333350  0.50000000  1
  Ga  Ga0_4  1  0.66666650  0.33333350  0.00000000  1
  Ga  Ga0_5  1  0.66666650  0.33333350  0.50000000  1
  Ga  Ga0_6  1  0.66666650  0.83333350  0.00000000  1
  Ga  Ga0_7  1  0.66666650  0.83333350  0.50000000  1
loop_
_geom_bond_atom_site_label_1
_geom_bond_atom_site_label_2
_geom_bond_distance
_geom_bond_site_symmetry_2
Mn0_0 Mn2_2 2.461778 1_555
Mn0_0 Mn1_2 2.461778 1_555
Mn0_0 Mn2_0 2.461779 1_555
Mn0_0 Mn1_0 2.461779 1_555
Mn0_0 Mn1_6 2.461779 1_555
Mn0_0 Mn2_6 2.461779 1_555
Mn0_0 Mn0_6 2.599242 1_555
Mn0_0 Mn0_6 2.599242 1_445
Mn0_0 Mn0_2 2.599242 1_555
Mn0_0 Mn0_4 2.599242 1_455
Mn0_0 Mn0_4 2.599242 1_555
Mn0_0 Mn0_2 2.599242 1_545
Mn0_1 Mn1_3 2.461778 1_555
Mn0_1 Mn2_3 2.461778 1_555
Mn0_1 Mn1_7 2.461779 1_555
Mn0_1 Mn1_1 2.461779 1_555
Mn0_1 Mn2_1 2.461779 1_555
Mn0_1 Mn2_7 2.461779 1_555
Mn0_1 Mn0_7 2.599242 1_555
Mn0_1 Mn0_7 2.599242 1_445
Mn0_1 Mn0_5 2.599242 1_455
Mn0_1 Mn0_3 2.599242 1_555
Mn0_1 Mn0_3 2.599242 1_545
Mn0_1 Mn0_5 2.599242 1_555
Mn0_2 Mn2_0 2.461778 1_565
Mn0_2 Mn1_0 2.461778 1_565
Mn0_2 Mn2_4 2.461779 1_565
Mn0_2 Mn1_2 2.461779 1_555
Mn0_2 Mn1_4 2.461779 1_565
Mn0_2 Mn2_2 2.461779 1_555
Mn0_2 Mn0_4 2.599242 1_565
Mn0_2 Mn0_4 2.599242 1_455
Mn0_2 Mn0_6 2.599242 1_555
Mn0_2 Mn0_6 2.599242 1_455
Mn0_3 Mn1_1 2.461778 1_565
Mn0_3 Mn2_1 2.461778 1_565
Mn0_3 Mn1_3 2.461779 1_555
Mn0_3 Mn1_5 2.461779 1_565
Mn0_3 Mn2_5 2.461779 1_565
Mn0_3 Mn2_3 2.461779 1_555
Mn0_3 Mn0_5 2.599242 1_565
Mn0_3 Mn0_5 2.599242 1_455
Mn0_3 Mn0_7 2.599242 1_555
Mn0_3 Mn0_7 2.599242 1_455
Mn0_4 Mn2_6 2.461778 1_555
Mn0_4 Mn1_6 2.461778 1_555
Mn0_4 Mn1_2 2.461779 1_655
Mn0_4 Mn2_4 2.461779 1_555
Mn0_4 Mn2_2 2.461779 1_655
Mn0_4 Mn1_4 2.461779 1_555
Mn0_4 Mn0_6 2.599242 1_545
Mn0_4 Mn0_6 2.599242 1_555
Mn0_5 Mn1_7 2.461778 1_555
Mn0_5 Mn2_7 2.461778 1_555
Mn0_5 Mn1_5 2.461779 1_555
Mn0_5 Mn1_3 2.461779 1_655
Mn0_5 Mn2_3 2.461779 1_655
Mn0_5 Mn2_5 2.461779 1_555
Mn0_5 Mn0_7 2.599242 1_545
Mn0_5 Mn0_7 2.599242 1_555
Mn0_6 Mn2_4 2.461778 1_565
Mn0_6 Mn1_4 2.461778 1_565
Mn0_6 Mn1_6 2.461779 1_555
Mn0_6 Mn2_6 2.461779 1_555
Mn0_6 Mn2_0 2.461779 1_665
Mn0_6 Mn1_0 2.461779 1_665
Mn0_7 Mn1_5 2.461778 1_565
Mn0_7 Mn2_5 2.461778 1_565
Mn0_7 Mn1_7 2.461779 1_555
Mn0_7 Mn1_1 2.461779 1_665
Mn0_7 Mn2_7 2.461779 1_555
Mn0_7 Mn2_1 2.461779 1_665
Mn1_0 Mn1_6 2.599242 1_445
Mn1_0 Mn1_6 2.599242 1_555
Mn1_0 Mn1_2 2.599242 1_545
Mn1_0 Mn1_2 2.599242 1_555
Mn1_0 Mn1_4 2.599242 1_455
Mn1_0 Mn1_4 2.599242 1_555
Mn1_1 Mn1_7 2.599242 1_555
Mn1_1 Mn1_7 2.599242 1_445
Mn1_1 Mn1_5 2.599242 1_555
Mn1_1 Mn1_3 2.599242 1_555
Mn1_1 Mn1_5 2.599242 1_455
Mn1_1 Mn1_3 2.599242 1_545
Mn1_2 Mn1_4 2.599242 1_455
Mn1_2 Mn1_4 2.599242 1_565
Mn1_2 Mn1_6 2.599242 1_455
Mn1_2 Mn1_6 2.599242 1_555
Mn1_3 Mn1_5 2.599242 1_565
Mn1_3 Mn1_5 2.599242 1_455
Mn1_3 Mn1_7 2.599242 1_455
Mn1_3 Mn1_7 2.599242 1_555
Mn1_4 Mn1_6 2.599242 1_545
Mn1_4 Mn1_6 2.599242 1_555
Mn1_5 Mn1_7 2.599242 1_545
Mn1_5 Mn1_7 2.599242 1_555
Mn2_0 Mn2_6 2.599242 1_555
Mn2_0 Mn2_6 2.599242 1_445
Mn2_0 Mn2_2 2.599242 1_545
Mn2_0 Mn2_4 2.599242 1_455
Mn2_0 Mn2_4 2.599242 1_555
Mn2_0 Mn2_2 2.599242 1_555
Mn2_1 Mn2_7 2.599242 1_445
Mn2_1 Mn2_7 2.599242 1_555
Mn2_1 Mn2_5 2.599242 1_455
Mn2_1 Mn2_3 2.599242 1_555
Mn2_1 Mn2_3 2.599242 1_545
Mn2_1 Mn2_5 2.599242 1_555
Mn2_2 Mn2_4 2.599242 1_565
Mn2_2 Mn2_4 2.599242 1_455
Mn2_2 Mn2_6 2.599242 1_555
Mn2_2 Mn2_6 2.599242 1_455
Mn2_3 Mn2_5 2.599242 1_565
Mn2_3 Mn2_5 2.599242 1_455
Mn2_3 Mn2_7 2.599242 1_555
Mn2_3 Mn2_7 2.599242 1_455
Mn2_4 Mn2_6 2.599242 1_555
Mn2_4 Mn2_6 2.599242 1_545
Mn2_5 Mn2_7 2.599242 1_555
Mn2_5 Mn2_7 2.599242 1_545
Ga0_0 Ga0_6 2.599242 1_555
Ga0_0 Ga0_6 2.599242 1_445
Ga0_0 Ga0_2 2.599242 1_555
Ga0_0 Ga0_4 2.599242 1_455
Ga0_0 Ga0_2 2.599242 1_545
Ga0_0 Ga0_4 2.599242 1_555
Ga0_0 Mn1_2 2.603397 1_555
Ga0_0 Mn2_3 2.603397 1_554
Ga0_0 Mn1_0 2.603398 1_555
Ga0_0 Mn1_6 2.603398 1_555
Ga0_0 Mn2_7 2.603398 1_554
Ga0_0 Mn2_1 2.603398 1_554
Ga0_1 Ga0_7 2.599242 1_555
Ga0_1 Ga0_7 2.599242 1_445
Ga0_1 Ga0_5 2.599242 1_455
Ga0_1 Ga0_3 2.599242 1_555
Ga0_1 Ga0_5 2.599242 1_555
Ga0_1 Ga0_3 2.599242 1_545
Ga0_1 Mn1_3 2.603397 1_555
Ga0_1 Mn2_2 2.603397 1_555
Ga0_1 Mn1_1 2.603398 1_555
Ga0_1 Mn1_7 2.603398 1_555
Ga0_1 Mn2_6 2.603398 1_555
Ga0_1 Mn2_0 2.603398 1_555
Ga0_2 Ga0_4 2.599242 1_565
Ga0_2 Ga0_4 2.599242 1_455
Ga0_2 Ga0_6 2.599242 1_555
Ga0_2 Ga0_6 2.599242 1_455
Ga0_2 Mn1_0 2.603397 1_565
Ga0_2 Mn2_1 2.603397 1_564
Ga0_2 Mn1_2 2.603398 1_555
Ga0_2 Mn1_4 2.603398 1_565
Ga0_2 Mn2_3 2.603398 1_554
Ga0_2 Mn2_5 2.603398 1_564
Ga0_3 Ga0_5 2.599242 1_565
Ga0_3 Ga0_5 2.599242 1_455
Ga0_3 Ga0_7 2.599242 1_555
Ga0_3 Ga0_7 2.599242 1_455
Ga0_3 Mn1_1 2.603397 1_565
Ga0_3 Mn2_0 2.603397 1_565
Ga0_3 Mn1_5 2.603398 1_565
Ga0_3 Mn1_3 2.603398 1_555
Ga0_3 Mn2_2 2.603398 1_555
Ga0_3 Mn2_4 2.603398 1_565
Ga0_4 Ga0_6 2.599242 1_545
Ga0_4 Ga0_6 2.599242 1_555
Ga0_4 Mn1_6 2.603397 1_555
Ga0_4 Mn2_7 2.603397 1_554
Ga0_4 Mn1_4 2.603398 1_555
Ga0_4 Mn1_2 2.603398 1_655
Ga0_4 Mn2_5 2.603398 1_554
Ga0_4 Mn2_3 2.603398 1_654
Ga0_5 Ga0_7 2.599242 1_545
Ga0_5 Ga0_7 2.599242 1_555
Ga0_5 Mn1_7 2.603397 1_555
Ga0_5 Mn2_6 2.603397 1_555
Ga0_5 Mn1_3 2.603398 1_655
Ga0_5 Mn1_5 2.603398 1_555
Ga0_5 Mn2_4 2.603398 1_555
Ga0_5 Mn2_2 2.603398 1_655
Ga0_6 Mn1_4 2.603397 1_565
Ga0_6 Mn2_5 2.603397 1_564
Ga0_6 Mn1_6 2.603398 1_555
Ga0_6 Mn1_0 2.603398 1_665
Ga0_6 Mn2_7 2.603398 1_554
Ga0_6 Mn2_1 2.603398 1_664
Ga0_7 Mn1_5 2.603397 1_565
Ga0_7 Mn2_4 2.603397 1_565
Ga0_7 Mn1_7 2.603398 1_555
Ga0_7 Mn1_1 2.603398 1_665
Ga0_7 Mn2_6 2.603398 1_555
Ga0_7 Mn2_0 2.603398 1_665
