# generated using pymatgen
data_Mn4SiO7
_symmetry_space_group_name_H-M   'P 1'
_cell_length_a   4.94015400
_cell_length_b   8.12806200
_cell_length_c   8.12806512
_cell_angle_alpha   59.99983965
_cell_angle_beta   90.00013345
_cell_angle_gamma   89.99992996
_symmetry_Int_Tables_number   1
_chemical_formula_structural   Mn4SiO7
_chemical_formula_sum   'Mn8 Si2 O14'
_cell_volume   282.64714256
_cell_formula_units_Z   2
loop_
 _symmetry_equiv_pos_site_id
 _symmetry_equiv_pos_as_xyz
  1  'x, y, z'
loop_
 _atom_site_type_symbol
 _atom_site_label
 _atom_site_symmetry_multiplicity
 _atom_site_fract_x
 _atom_site_fract_y
 _atom_site_fract_z
 _atom_site_occupancy
  Mn  Mn0  1  0.51054600  0.00000400  0.00000600  1
  Mn  Mn1  1  0.00338400  0.88704500  0.70431900  1
  Mn  Mn2  1  0.00336900  0.70432100  0.40863700  1
  Mn  Mn3  1  0.00337900  0.40863800  0.88704400  1
  Mn  Mn4  1  0.01053300  0.99998000  0.99998200  1
  Mn  Mn5  1  0.50346000  0.59135700  0.11298800  1
  Mn  Mn6  1  0.50346300  0.29565700  0.59135800  1
  Mn  Mn7  1  0.50346100  0.11298800  0.29565600  1
  Si  Si0  1  0.93771400  0.33333400  0.33333400  1
  Si  Si1  1  0.43767400  0.66666800  0.66666800  1
  O  O0  1  0.77060300  0.66666800  0.66666900  1
  O  O1  1  0.27059800  0.33333500  0.33333500  1
  O  O2  1  0.26086500  0.79453500  0.15316100  1
  O  O3  1  0.76087600  0.84683700  0.94770100  1
  O  O4  1  0.76087800  0.94770300  0.20545700  1
  O  O5  1  0.26086600  0.05230500  0.79453400  1
  O  O6  1  0.26086300  0.15315800  0.05230400  1
  O  O7  1  0.76087800  0.20545800  0.84684000  1
  O  O8  1  0.79876200  0.49372700  0.37669100  1
  O  O9  1  0.29876500  0.62330800  0.87042900  1
  O  O10  1  0.29876600  0.87042900  0.50626700  1
  O  O11  1  0.79876200  0.12958700  0.49372800  1
  O  O12  1  0.29876600  0.50626700  0.62330700  1
  O  O13  1  0.79876100  0.37669100  0.12958700  1
loop_
_geom_bond_atom_site_label_1
_geom_bond_atom_site_label_2
_geom_bond_distance
_geom_bond_site_symmetry_2
Mn0 O6 1.944467 1_555
Mn0 O2 1.944537 1_545
Mn0 O5 1.944570 1_554
Mn0 O4 1.946487 1_545
Mn0 O7 1.946532 1_554
Mn0 O3 1.946605 1_544
Mn1 O11 2.112746 1_465
Mn1 O3 2.192931 1_455
Mn1 O5 2.223724 1_565
Mn1 O10 2.226300 1_555
Mn1 O0 2.274376 1_455
Mn1 O9 2.377660 1_555
Mn2 O8 2.112718 1_455
Mn2 O4 2.192891 1_455
Mn2 O2 2.223772 1_555
Mn2 O12 2.226351 1_555
Mn2 O0 2.274367 1_455
Mn2 O10 2.377719 1_555
Mn3 O13 2.112764 1_456
Mn3 O7 2.192934 1_455
Mn3 O6 2.223748 1_556
Mn3 O9 2.226326 1_555
Mn3 O0 2.274363 1_455
Mn3 O12 2.377685 1_555
Mn4 O3 1.944244 1_455
Mn4 O7 1.944466 1_465
Mn4 O4 1.944557 1_456
Mn4 O5 1.946437 1_565
Mn4 O2 1.946508 1_556
Mn4 O6 1.946747 1_566
Mn5 O9 2.113043 1_554
Mn5 O2 2.193041 1_555
Mn5 O3 2.223592 1_554
Mn5 O13 2.226066 1_555
Mn5 O1 2.274476 1_555
Mn5 O8 2.377216 1_555
Mn6 O12 2.113056 1_555
Mn6 O5 2.193046 1_555
Mn6 O7 2.223591 1_555
Mn6 O8 2.226074 1_555
Mn6 O1 2.274480 1_555
Mn6 O11 2.377196 1_555
Mn7 O10 2.113053 1_545
Mn7 O6 2.193060 1_555
Mn7 O4 2.223614 1_545
Mn7 O11 2.226097 1_555
Mn7 O1 2.274496 1_555
Mn7 O13 2.377212 1_555
O0 Si1 1.644721 1_555
O1 Si0 1.644498 1_455
O8 Si0 1.659645 1_555
O9 Si1 1.659631 1_555
O10 Si1 1.659622 1_555
O11 Si0 1.659631 1_555
O12 Si1 1.659633 1_555
O13 Si0 1.659623 1_555
