# generated using pymatgen
data_InIO5
_symmetry_space_group_name_H-M   'P 1'
_cell_length_a   7.23314400
_cell_length_b   8.74837300
_cell_length_c   14.13331200
_cell_angle_alpha   90.00000000
_cell_angle_beta   90.00000000
_cell_angle_gamma   90.00000000
_symmetry_Int_Tables_number   1
_chemical_formula_structural   InIO5
_chemical_formula_sum   'In8 I8 O40'
_cell_volume   894.33113240
_cell_formula_units_Z   8
loop_
 _symmetry_equiv_pos_site_id
 _symmetry_equiv_pos_as_xyz
  1  'x, y, z'
loop_
 _atom_site_type_symbol
 _atom_site_label
 _atom_site_symmetry_multiplicity
 _atom_site_fract_x
 _atom_site_fract_y
 _atom_site_fract_z
 _atom_site_occupancy
  In  In0  1  0.00000000  0.00000000  0.50000000  1
  In  In1  1  0.50000000  0.50000000  0.00000000  1
  In  In2  1  0.50000000  0.00000000  0.50000000  1
  In  In3  1  0.00000000  0.50000000  0.00000000  1
  In  In4  1  0.50000000  0.00000000  0.00000000  1
  In  In5  1  0.00000000  0.50000000  0.50000000  1
  In  In6  1  0.00000000  0.00000000  0.00000000  1
  In  In7  1  0.50000000  0.50000000  0.50000000  1
  I  I0  1  0.25000000  0.96257400  0.26659300  1
  I  I1  1  0.25000000  0.46257400  0.23340700  1
  I  I2  1  0.75000000  0.03742600  0.73340700  1
  I  I3  1  0.75000000  0.53742600  0.76659300  1
  I  I4  1  0.75000000  0.00360700  0.23103700  1
  I  I5  1  0.75000000  0.50360700  0.26896300  1
  I  I6  1  0.25000000  0.99639300  0.76896300  1
  I  I7  1  0.25000000  0.49639300  0.73103700  1
  O  O0  1  0.25000000  0.08642000  0.04208600  1
  O  O1  1  0.25000000  0.58642000  0.45791400  1
  O  O2  1  0.75000000  0.91358000  0.95791400  1
  O  O3  1  0.75000000  0.41358000  0.54208600  1
  O  O4  1  0.25000000  0.90585600  0.53756300  1
  O  O5  1  0.25000000  0.40585600  0.96243700  1
  O  O6  1  0.75000000  0.09414400  0.46243700  1
  O  O7  1  0.75000000  0.59414400  0.03756300  1
  O  O8  1  0.55347200  0.94837800  0.15144500  1
  O  O9  1  0.94652800  0.44837800  0.34855500  1
  O  O10  1  0.05347200  0.05162200  0.84855500  1
  O  O11  1  0.44652800  0.55162200  0.65144500  1
  O  O12  1  0.44652800  0.05162200  0.84855500  1
  O  O13  1  0.05347200  0.55162200  0.65144500  1
  O  O14  1  0.94652800  0.94837800  0.15144500  1
  O  O15  1  0.55347200  0.44837800  0.34855500  1
  O  O16  1  0.05274100  0.01397400  0.34633500  1
  O  O17  1  0.44725900  0.51397400  0.15366500  1
  O  O18  1  0.55274100  0.98602600  0.65366500  1
  O  O19  1  0.94725900  0.48602600  0.84633500  1
  O  O20  1  0.94725900  0.98602600  0.65366500  1
  O  O21  1  0.55274100  0.48602600  0.84633500  1
  O  O22  1  0.44725900  0.01397400  0.34633500  1
  O  O23  1  0.05274100  0.51397400  0.15366500  1
  O  O24  1  0.25000000  0.75885100  0.28216300  1
  O  O25  1  0.25000000  0.25885100  0.21783700  1
  O  O26  1  0.75000000  0.24114900  0.71783700  1
  O  O27  1  0.75000000  0.74114900  0.78216300  1
  O  O28  1  0.34151300  0.74847200  0.99606600  1
  O  O29  1  0.15848700  0.24847200  0.50393400  1
  O  O30  1  0.84151300  0.25152800  0.00393400  1
  O  O31  1  0.65848700  0.75152800  0.49606600  1
  O  O32  1  0.65848700  0.25152800  0.00393400  1
  O  O33  1  0.84151300  0.75152800  0.49606600  1
  O  O34  1  0.15848700  0.74847200  0.99606600  1
  O  O35  1  0.34151300  0.24847200  0.50393400  1
  O  O36  1  0.75000000  0.20621000  0.20973200  1
  O  O37  1  0.75000000  0.70621000  0.29026800  1
  O  O38  1  0.25000000  0.79379000  0.79026800  1
  O  O39  1  0.25000000  0.29379000  0.70973200  1
loop_
_geom_bond_atom_site_label_1
_geom_bond_atom_site_label_2
_geom_bond_distance
_geom_bond_site_symmetry_2
In0 O6 2.056713 1_455
In0 O4 2.056713 1_545
In0 O16 2.208431 1_555
In0 O20 2.208431 1_445
In0 O29 2.458112 1_555
In0 O33 2.458112 1_445
In1 O7 2.056713 1_555
In1 O5 2.056713 1_554
In1 O17 2.208431 1_555
In1 O21 2.208431 1_554
In1 O32 2.458112 1_555
In1 O28 2.458112 1_554
In2 O6 2.056713 1_555
In2 O4 2.056713 1_545
In2 O22 2.208431 1_555
In2 O18 2.208431 1_545
In2 O35 2.458112 1_555
In2 O31 2.458112 1_545
In3 O7 2.056713 1_455
In3 O5 2.056713 1_554
In3 O23 2.208431 1_555
In3 O19 2.208431 1_454
In3 O30 2.458112 1_455
In3 O34 2.458112 1_554
In4 O0 2.048241 1_555
In4 O2 2.048241 1_544
In4 O8 2.221472 1_545
In4 O12 2.221472 1_554
In4 O28 2.481785 1_544
In4 O32 2.481785 1_555
In5 O3 2.048241 1_455
In5 O1 2.048241 1_555
In5 O9 2.221472 1_455
In5 O13 2.221472 1_555
In5 O29 2.481785 1_555
In5 O33 2.481785 1_455
In6 O2 2.048241 1_444
In6 O0 2.048241 1_555
In6 O14 2.221472 1_445
In6 O10 2.221472 1_554
In6 O34 2.481785 1_544
In6 O30 2.481785 1_455
In7 O3 2.048241 1_555
In7 O1 2.048241 1_555
In7 O15 2.221472 1_555
In7 O11 2.221472 1_555
In7 O35 2.481785 1_555
In7 O31 2.481785 1_555
I0 O24 1.795779 1_555
I0 O16 1.873002 1_565
I0 O22 1.873002 1_565
I1 O25 1.795779 1_555
I1 O23 1.873002 1_555
I1 O17 1.873002 1_555
I2 O26 1.795779 1_555
I2 O18 1.873002 1_545
I2 O20 1.873002 1_545
I3 O27 1.795779 1_555
I3 O19 1.873002 1_555
I3 O21 1.873002 1_555
I4 O36 1.797842 1_555
I4 O8 1.876046 1_545
I4 O14 1.876046 1_545
I5 O37 1.797842 1_555
I5 O15 1.876046 1_555
I5 O9 1.876046 1_555
I6 O38 1.797842 1_555
I6 O12 1.876046 1_565
I6 O10 1.876046 1_565
I7 O39 1.797842 1_555
I7 O11 1.876046 1_555
I7 O13 1.876046 1_555
O28 O34 1.323853 1_555
O29 O35 1.323853 1_555
O30 O32 1.323853 1_555
O31 O33 1.323853 1_555
