# generated using pymatgen
data_Na15Cr7N19
_symmetry_space_group_name_H-M   'P 1'
_cell_length_a   5.96587500
_cell_length_b   11.25701852
_cell_length_c   17.87258055
_cell_angle_alpha   91.00283385
_cell_angle_beta   93.56942868
_cell_angle_gamma   101.31324945
_symmetry_Int_Tables_number   1
_chemical_formula_structural   Na15Cr7N19
_chemical_formula_sum   'Na30 Cr14 N38'
_cell_volume   1174.13896762
_cell_formula_units_Z   2
loop_
 _symmetry_equiv_pos_site_id
 _symmetry_equiv_pos_as_xyz
  1  'x, y, z'
loop_
 _atom_site_type_symbol
 _atom_site_label
 _atom_site_symmetry_multiplicity
 _atom_site_fract_x
 _atom_site_fract_y
 _atom_site_fract_z
 _atom_site_occupancy
  Na  Na0  1  0.52531800  0.62199600  0.44585300  1
  Na  Na1  1  0.47468200  0.37800400  0.55414700  1
  Na  Na2  1  0.60034000  0.14144100  0.64132600  1
  Na  Na3  1  0.39966000  0.85855900  0.35867400  1
  Na  Na4  1  0.71689200  0.01725200  0.19712500  1
  Na  Na5  1  0.28310800  0.98274800  0.80287500  1
  Na  Na6  1  0.91733600  0.02773800  0.39180700  1
  Na  Na7  1  0.08266400  0.97226200  0.60819300  1
  Na  Na8  1  0.83885200  0.77663100  0.29315000  1
  Na  Na9  1  0.16114800  0.22336900  0.70685000  1
  Na  Na10  1  0.86769100  0.17037500  0.84021400  1
  Na  Na11  1  0.13230900  0.82962500  0.15978600  1
  Na  Na12  1  0.86221600  0.90370100  0.90029600  1
  Na  Na13  1  0.13778400  0.09629900  0.09970400  1
  Na  Na14  1  0.72017000  0.08405900  0.00917100  1
  Na  Na15  1  0.27983000  0.91594100  0.99082900  1
  Na  Na16  1  0.60574900  0.89674600  0.53405500  1
  Na  Na17  1  0.39425100  0.10325400  0.46594500  1
  Na  Na18  1  0.65878800  0.48857100  0.29231200  1
  Na  Na19  1  0.34121200  0.51142900  0.70768800  1
  Na  Na20  1  0.95960400  0.34444300  0.01180300  1
  Na  Na21  1  0.04039600  0.65555700  0.98819700  1
  Na  Na22  1  0.86588400  0.66617200  0.79732800  1
  Na  Na23  1  0.13411600  0.33382800  0.20267200  1
  Na  Na24  1  0.76171100  0.25810800  0.37262200  1
  Na  Na25  1  0.23828900  0.74189200  0.62737800  1
  Na  Na26  1  0.57782700  0.36695300  0.83899600  1
  Na  Na27  1  0.42217300  0.63304700  0.16100400  1
  Na  Na28  1  0.00000000  0.50000000  0.50000000  1
  Na  Na29  1  0.50000000  0.50000000  0.00000000  1
  Cr  Cr0  1  0.59818100  0.26158300  0.13117100  1
  Cr  Cr1  1  0.40181900  0.73841700  0.86882900  1
  Cr  Cr2  1  0.82116700  0.40039000  0.69031400  1
  Cr  Cr3  1  0.17883300  0.59961000  0.30968600  1
  Cr  Cr4  1  0.73539100  0.65967100  0.61256800  1
  Cr  Cr5  1  0.26460900  0.34032900  0.38743200  1
  Cr  Cr6  1  0.00097600  0.77396700  0.45656800  1
  Cr  Cr7  1  0.99902400  0.22603300  0.54343200  1
  Cr  Cr8  1  0.88853400  0.55270000  0.13951400  1
  Cr  Cr9  1  0.11146600  0.44730000  0.86048600  1
  Cr  Cr10  1  0.67280800  0.90378000  0.72194000  1
  Cr  Cr11  1  0.32719200  0.09622000  0.27806000  1
  Cr  Cr12  1  0.67980600  0.79563400  0.05180600  1
  Cr  Cr13  1  0.32019400  0.20436600  0.94819400  1
  N  N0  1  0.83061000  0.20245500  0.12423200  1
  N  N1  1  0.16939000  0.79754500  0.87576800  1
  N  N2  1  0.91341900  0.32620600  0.61457300  1
  N  N3  1  0.08658100  0.67379400  0.38542700  1
  N  N4  1  0.55741200  0.05812500  0.32240500  1
  N  N5  1  0.44258800  0.94187500  0.67759500  1
  N  N6  1  0.58228700  0.81817700  0.80327200  1
  N  N7  1  0.41771300  0.18182300  0.19672800  1
  N  N8  1  0.67199600  0.41912200  0.15557700  1
  N  N9  1  0.32800400  0.58087800  0.84442300  1
  N  N10  1  0.53820000  0.39881000  0.41434600  1
  N  N11  1  0.46180000  0.60119000  0.58565400  1
  N  N12  1  0.78195100  0.11028600  0.51703900  1
  N  N13  1  0.21804900  0.88971400  0.48296100  1
  N  N14  1  0.90448700  0.68303000  0.53494700  1
  N  N15  1  0.09551300  0.31697000  0.46505300  1
  N  N16  1  0.92377000  0.89907500  0.05084400  1
  N  N17  1  0.07623000  0.10092500  0.94915600  1
  N  N18  1  0.77338700  0.82408300  0.42022100  1
  N  N19  1  0.22661300  0.17591700  0.57977900  1
  N  N20  1  0.78031100  0.79918800  0.65928800  1
  N  N21  1  0.21968900  0.20081200  0.34071200  1
  N  N22  1  0.90164700  0.48461900  0.90639600  1
  N  N23  1  0.09835300  0.51538100  0.09360400  1
  N  N24  1  0.55668200  0.75753000  0.95778700  1
  N  N25  1  0.44331800  0.24247000  0.04221300  1
  N  N26  1  0.75646800  0.65604900  0.08919100  1
  N  N27  1  0.24353200  0.34395100  0.91080900  1
  N  N28  1  0.88762800  0.02471900  0.74242700  1
  N  N29  1  0.11237200  0.97528100  0.25757300  1
  N  N30  1  0.99462900  0.62037000  0.22800300  1
  N  N31  1  0.00537100  0.37963000  0.77199700  1
  N  N32  1  0.85159700  0.55623900  0.67367000  1
  N  N33  1  0.14840300  0.44376100  0.32633000  1
  N  N34  1  0.55150300  0.34047300  0.70564600  1
  N  N35  1  0.44849700  0.65952700  0.29435400  1
  N  N36  1  0.48995700  0.84627800  0.10428500  1
  N  N37  1  0.51004300  0.15372200  0.89571500  1
loop_
_geom_bond_atom_site_label_1
_geom_bond_atom_site_label_2
_geom_bond_distance
_geom_bond_site_symmetry_2
Cr0 N0 1.661875 1_555
Cr0 N7 1.775604 1_555
Cr0 N25 1.776180 1_555
Cr0 N8 1.780957 1_555
Cr1 N1 1.661875 1_555
Cr1 N6 1.775604 1_555
Cr1 N24 1.776180 1_555
Cr1 N9 1.780957 1_555
Cr2 N34 1.659465 1_555
Cr2 N2 1.751076 1_555
Cr2 N32 1.760506 1_555
Cr2 N31 1.818374 1_655
Cr3 N35 1.659465 1_555
Cr3 N3 1.751076 1_555
Cr3 N33 1.760506 1_555
Cr3 N30 1.818374 1_455
Cr4 N11 1.672857 1_555
Cr4 N20 1.731117 1_555
Cr4 N14 1.759077 1_555
Cr4 N32 1.815438 1_555
Cr5 N10 1.672857 1_555
Cr5 N21 1.731117 1_555
Cr5 N15 1.759077 1_555
Cr5 N33 1.815438 1_555
Cr6 N18 1.669533 1_455
Cr6 N13 1.684554 1_555
Cr6 N14 1.805831 1_455
Cr6 N3 1.845448 1_555
Cr7 N19 1.669533 1_655
Cr7 N12 1.684554 1_555
Cr7 N15 1.805831 1_655
Cr7 N2 1.845448 1_555
Cr8 N23 1.654928 1_655
Cr8 N26 1.758188 1_555
Cr8 N30 1.768091 1_555
Cr8 N8 1.819752 1_555
Cr9 N22 1.654928 1_455
Cr9 N27 1.758188 1_555
Cr9 N31 1.768091 1_555
Cr9 N9 1.819752 1_555
Cr10 N5 1.675081 1_555
Cr10 N28 1.693975 1_565
Cr10 N6 1.809923 1_555
Cr10 N20 1.841460 1_555
Cr11 N4 1.675081 1_555
Cr11 N29 1.693975 1_545
Cr11 N7 1.809923 1_555
Cr11 N21 1.841460 1_555
Cr12 N16 1.677332 1_555
Cr12 N36 1.689513 1_555
Cr12 N24 1.801283 1_554
Cr12 N26 1.845345 1_555
Cr13 N17 1.677332 1_555
Cr13 N37 1.689513 1_555
Cr13 N25 1.801283 1_556
Cr13 N27 1.845345 1_555
N0 Na14 2.414577 1_555
N0 Na13 2.432977 1_655
N0 Na23 2.447805 1_655
N0 Na4 2.480773 1_555
N0 Na20 2.647079 1_555
N1 Na15 2.414577 1_555
N1 Na12 2.432977 1_455
N1 Na22 2.447805 1_455
N1 Na5 2.480773 1_555
N1 Na21 2.647079 1_555
N2 Na2 2.581681 1_555
N2 Na9 2.584361 1_655
N2 Na1 2.937046 1_555
N3 Na3 2.581681 1_555
N3 Na8 2.584361 1_455
N3 Na0 2.937046 1_555
N4 Na3 2.377009 1_545
N4 Na24 2.464862 1_555
N4 Na6 2.497540 1_555
N4 Na4 2.555651 1_555
N4 Na17 2.871647 1_555
N5 Na2 2.377009 1_565
N5 Na25 2.464862 1_555
N5 Na7 2.497540 1_555
N5 Na5 2.555651 1_555
N5 Na16 2.871647 1_555
N6 Na12 2.381807 1_555
N6 Na22 2.636977 1_555
N6 Na5 2.813193 1_555
N7 Na13 2.381807 1_555
N7 Na23 2.636977 1_555
N7 Na4 2.813193 1_555
N8 Na18 2.563370 1_555
N9 Na19 2.563370 1_555
N10 Na24 2.398740 1_555
N10 Na18 2.506570 1_555
N10 Na1 2.558326 1_555
N10 Na0 2.582019 1_555
N11 Na25 2.398740 1_555
N11 Na19 2.506570 1_555
N11 Na0 2.558326 1_555
N11 Na1 2.582019 1_555
N12 Na17 2.419221 1_555
N12 Na16 2.459645 1_545
N12 Na2 2.579283 1_555
N12 Na6 2.640502 1_555
N13 Na16 2.419221 1_555
N13 Na17 2.459645 1_565
N13 Na3 2.579283 1_555
N13 Na7 2.640502 1_555
N14 Na28 2.328055 1_655
N14 Na25 2.483584 1_655
N14 Na0 2.651038 1_555
N15 Na28 2.328055 1_555
N15 Na24 2.483584 1_455
N15 Na1 2.651038 1_555
N16 Na15 2.414836 1_654
N16 Na13 2.450096 1_665
N16 Na11 2.466457 1_655
N16 Na12 2.695683 1_554
N16 Na14 2.701924 1_565
N17 Na14 2.414836 1_456
N17 Na12 2.450096 1_445
N17 Na10 2.466457 1_455
N17 Na13 2.695683 1_556
N17 Na15 2.701924 1_545
N18 Na6 2.360886 1_565
N18 Na8 2.396985 1_555
N18 Na16 2.514870 1_555
N18 Na0 2.524925 1_555
N18 Na3 2.526032 1_555
N19 Na7 2.360886 1_545
N19 Na9 2.396985 1_555
N19 Na17 2.514870 1_555
N19 Na1 2.524925 1_555
N19 Na2 2.526032 1_555
N20 Na7 2.602314 1_655
N20 Na16 2.746788 1_555
N20 Na22 2.976888 1_555
N21 Na6 2.602314 1_455
N21 Na17 2.746788 1_555
N21 Na23 2.976888 1_555
N22 Na26 2.363916 1_555
N22 Na21 2.377239 1_655
N22 Na20 2.528952 1_556
N22 Na22 2.877679 1_555
N23 Na27 2.363916 1_555
N23 Na20 2.377239 1_455
N23 Na21 2.528952 1_554
N23 Na23 2.877679 1_555
N24 Na12 2.490269 1_555
N24 Na15 2.738035 1_555
N25 Na13 2.490269 1_555
N25 Na14 2.738035 1_555
N26 Na27 2.412386 1_555
N26 Na21 2.551745 1_654
N26 Na29 2.551803 1_555
N26 Na11 2.877481 1_655
N27 Na26 2.412386 1_555
N27 Na20 2.551745 1_456
N27 Na29 2.551803 1_556
N27 Na10 2.877481 1_455
N28 Na10 2.399828 1_555
N28 Na9 2.610545 1_655
N28 Na5 2.663633 1_645
N28 Na7 2.832996 1_645
N28 Na2 2.917198 1_555
N29 Na11 2.399828 1_555
N29 Na8 2.610545 1_455
N29 Na4 2.663633 1_465
N29 Na6 2.832996 1_465
N29 Na3 2.917198 1_555
N30 Na8 2.453164 1_555
N30 Na18 2.591676 1_555
N30 Na11 2.678814 1_655
N30 Na27 2.864202 1_655
N31 Na9 2.453164 1_555
N31 Na19 2.591676 1_555
N31 Na10 2.678814 1_455
N31 Na26 2.864202 1_455
N32 Na22 2.502524 1_555
N33 Na23 2.502524 1_555
N34 Na26 2.388271 1_555
N34 Na9 2.442199 1_555
N34 Na19 2.495859 1_555
N34 Na2 2.575640 1_555
N34 Na1 2.771562 1_555
N35 Na27 2.388271 1_555
N35 Na8 2.442199 1_555
N35 Na18 2.495859 1_555
N35 Na3 2.575640 1_555
N35 Na0 2.771562 1_555
N36 Na11 2.384286 1_555
N36 Na15 2.534380 1_554
N36 Na27 2.590016 1_555
N36 Na4 2.622337 1_565
N37 Na10 2.384286 1_555
N37 Na14 2.534380 1_556
N37 Na26 2.590016 1_555
N37 Na5 2.622337 1_545
