# generated using pymatgen
data_TmB2Rh3
_symmetry_space_group_name_H-M   'P 1'
_cell_length_a   10.68411658
_cell_length_b   10.68411658
_cell_length_c   6.28023470
_cell_angle_alpha   90.00000000
_cell_angle_beta   90.00000000
_cell_angle_gamma   119.99999714
_symmetry_Int_Tables_number   1
_chemical_formula_structural   TmB2Rh3
_chemical_formula_sum   'Tm8 B16 Rh24'
_cell_volume   620.84581015
_cell_formula_units_Z   8
loop_
 _symmetry_equiv_pos_site_id
 _symmetry_equiv_pos_as_xyz
  1  'x, y, z'
loop_
 _atom_site_type_symbol
 _atom_site_label
 _atom_site_symmetry_multiplicity
 _atom_site_fract_x
 _atom_site_fract_y
 _atom_site_fract_z
 _atom_site_occupancy
  Tm  Tm0_0  1  0.00000000  0.00000000  0.25000000  1
  Tm  Tm0_1  1  0.00000000  0.00000000  0.75000000  1
  Tm  Tm0_2  1  0.00000000  0.50000000  0.25000000  1
  Tm  Tm0_3  1  0.00000000  0.50000000  0.75000000  1
  Tm  Tm0_4  1  0.50000000  0.00000000  0.25000000  1
  Tm  Tm0_5  1  0.50000000  0.00000000  0.75000000  1
  Tm  Tm0_6  1  0.50000000  0.50000000  0.25000000  1
  Tm  Tm0_7  1  0.50000000  0.50000000  0.75000000  1
  B  B0_0  1  0.33333350  0.16666650  0.25000000  1
  B  B0_1  1  0.33333350  0.16666650  0.75000000  1
  B  B0_2  1  0.33333350  0.66666650  0.25000000  1
  B  B0_3  1  0.33333350  0.66666650  0.75000000  1
  B  B0_4  1  0.83333350  0.16666650  0.25000000  1
  B  B0_5  1  0.83333350  0.16666650  0.75000000  1
  B  B0_6  1  0.83333350  0.66666650  0.25000000  1
  B  B0_7  1  0.83333350  0.66666650  0.75000000  1
  B  B1_0  1  0.16666650  0.33333350  0.25000000  1
  B  B1_1  1  0.16666650  0.33333350  0.75000000  1
  B  B1_2  1  0.16666650  0.83333350  0.25000000  1
  B  B1_3  1  0.16666650  0.83333350  0.75000000  1
  B  B1_4  1  0.66666650  0.33333350  0.25000000  1
  B  B1_5  1  0.66666650  0.33333350  0.75000000  1
  B  B1_6  1  0.66666650  0.83333350  0.25000000  1
  B  B1_7  1  0.66666650  0.83333350  0.75000000  1
  Rh  Rh0_0  1  0.25000000  0.00000000  0.00000000  1
  Rh  Rh0_1  1  0.25000000  0.00000000  0.50000000  1
  Rh  Rh0_2  1  0.25000000  0.50000000  0.00000000  1
  Rh  Rh0_3  1  0.25000000  0.50000000  0.50000000  1
  Rh  Rh0_4  1  0.75000000  1.00000000  0.00000000  1
  Rh  Rh0_5  1  0.75000000  1.00000000  0.50000000  1
  Rh  Rh0_6  1  0.75000000  0.50000000  0.00000000  1
  Rh  Rh0_7  1  0.75000000  0.50000000  0.50000000  1
  Rh  Rh1_0  1  0.25000000  0.25000000  0.00000000  1
  Rh  Rh1_1  1  0.25000000  0.25000000  0.50000000  1
  Rh  Rh1_2  1  0.25000000  0.75000000  0.00000000  1
  Rh  Rh1_3  1  0.25000000  0.75000000  0.50000000  1
  Rh  Rh1_4  1  0.75000000  0.25000000  0.00000000  1
  Rh  Rh1_5  1  0.75000000  0.25000000  0.50000000  1
  Rh  Rh1_6  1  0.75000000  0.75000000  0.00000000  1
  Rh  Rh1_7  1  0.75000000  0.75000000  0.50000000  1
  Rh  Rh2_0  1  0.00000000  0.25000000  0.00000000  1
  Rh  Rh2_1  1  0.00000000  0.25000000  0.50000000  1
  Rh  Rh2_2  1  1.00000000  0.75000000  0.00000000  1
  Rh  Rh2_3  1  1.00000000  0.75000000  0.50000000  1
  Rh  Rh2_4  1  0.50000000  0.25000000  0.00000000  1
  Rh  Rh2_5  1  0.50000000  0.25000000  0.50000000  1
  Rh  Rh2_6  1  0.50000000  0.75000000  0.00000000  1
  Rh  Rh2_7  1  0.50000000  0.75000000  0.50000000  1
loop_
_geom_bond_atom_site_label_1
_geom_bond_atom_site_label_2
_geom_bond_distance
_geom_bond_site_symmetry_2
Tm0_0 Tm0_1 3.140117 1_554
Tm0_0 Tm0_1 3.140117 1_555
Tm0_2 Tm0_3 3.140117 1_555
Tm0_2 Tm0_3 3.140117 1_554
Tm0_4 Tm0_5 3.140117 1_554
Tm0_4 Tm0_5 3.140117 1_555
Tm0_6 Tm0_7 3.140117 1_555
Tm0_6 Tm0_7 3.140117 1_554
B0_0 Rh2_4 2.200730 1_555
B0_0 Rh2_5 2.200730 1_555
B0_0 Rh0_0 2.200730 1_555
B0_0 Rh0_1 2.200730 1_555
B0_0 Rh1_0 2.200733 1_555
B0_0 Rh1_1 2.200733 1_555
B0_0 Tm0_4 3.084236 1_555
B0_0 Tm0_6 3.084240 1_555
B0_0 Tm0_0 3.084240 1_555
B0_1 Rh2_4 2.200730 1_556
B0_1 Rh2_5 2.200730 1_555
B0_1 Rh0_0 2.200730 1_556
B0_1 Rh0_1 2.200730 1_555
B0_1 Rh1_0 2.200733 1_556
B0_1 Rh1_1 2.200733 1_555
B0_1 Tm0_5 3.084236 1_555
B0_1 Tm0_1 3.084240 1_555
B0_1 Tm0_7 3.084240 1_555
B0_2 Rh2_6 2.200730 1_555
B0_2 Rh2_7 2.200730 1_555
B0_2 Rh0_2 2.200730 1_555
B0_2 Rh0_3 2.200730 1_555
B0_2 Rh1_3 2.200733 1_555
B0_2 Rh1_2 2.200733 1_555
B0_2 Tm0_6 3.084236 1_555
B0_2 Tm0_4 3.084240 1_565
B0_2 Tm0_2 3.084240 1_555
B0_3 Rh2_6 2.200730 1_556
B0_3 Rh2_7 2.200730 1_555
B0_3 Rh0_3 2.200730 1_555
B0_3 Rh0_2 2.200730 1_556
B0_3 Rh1_3 2.200733 1_555
B0_3 Rh1_2 2.200733 1_556
B0_3 Tm0_7 3.084236 1_555
B0_3 Tm0_5 3.084240 1_565
B0_3 Tm0_3 3.084240 1_555
B0_4 Rh2_0 2.200730 1_655
B0_4 Rh2_1 2.200730 1_655
B0_4 Rh0_4 2.200730 1_545
B0_4 Rh0_5 2.200730 1_545
B0_4 Rh1_4 2.200733 1_555
B0_4 Rh1_5 2.200733 1_555
B0_4 Tm0_0 3.084236 1_655
B0_4 Tm0_4 3.084240 1_555
B0_4 Tm0_2 3.084240 1_655
B0_5 Rh2_0 2.200730 1_656
B0_5 Rh2_1 2.200730 1_655
B0_5 Rh0_4 2.200730 1_546
B0_5 Rh0_5 2.200730 1_545
B0_5 Rh1_4 2.200733 1_556
B0_5 Rh1_5 2.200733 1_555
B0_5 Tm0_1 3.084236 1_655
B0_5 Tm0_5 3.084240 1_555
B0_5 Tm0_3 3.084240 1_655
B0_6 Rh0_7 2.200730 1_555
B0_6 Rh0_6 2.200730 1_555
B0_6 Rh2_2 2.200730 1_555
B0_6 Rh2_3 2.200730 1_555
B0_6 Rh1_7 2.200733 1_555
B0_6 Rh1_6 2.200733 1_555
B0_6 Tm0_2 3.084236 1_655
B0_6 Tm0_6 3.084240 1_555
B0_6 Tm0_0 3.084240 1_665
B0_7 Rh0_6 2.200730 1_556
B0_7 Rh0_7 2.200730 1_555
B0_7 Rh2_2 2.200730 1_556
B0_7 Rh2_3 2.200730 1_555
B0_7 Rh1_7 2.200733 1_555
B0_7 Rh1_6 2.200733 1_556
B0_7 Tm0_3 3.084236 1_655
B0_7 Tm0_7 3.084240 1_555
B0_7 Tm0_1 3.084240 1_665
B1_0 Rh0_2 2.200730 1_555
B1_0 Rh0_3 2.200730 1_555
B1_0 Rh2_1 2.200730 1_555
B1_0 Rh2_0 2.200730 1_555
B1_0 Rh1_0 2.200733 1_555
B1_0 Rh1_1 2.200733 1_555
B1_0 Tm0_2 3.084236 1_555
B1_0 Tm0_6 3.084240 1_555
B1_0 Tm0_0 3.084240 1_555
B1_1 Rh0_3 2.200730 1_555
B1_1 Rh0_2 2.200730 1_556
B1_1 Rh2_1 2.200730 1_555
B1_1 Rh2_0 2.200730 1_556
B1_1 Rh1_0 2.200733 1_556
B1_1 Rh1_1 2.200733 1_555
B1_1 Tm0_3 3.084236 1_555
B1_1 Tm0_1 3.084240 1_555
B1_1 Tm0_7 3.084240 1_555
B1_2 Rh0_1 2.200730 1_565
B1_2 Rh0_0 2.200730 1_565
B1_2 Rh2_3 2.200730 1_455
B1_2 Rh2_2 2.200730 1_455
B1_2 Rh1_3 2.200733 1_555
B1_2 Rh1_2 2.200733 1_555
B1_2 Tm0_0 3.084236 1_565
B1_2 Tm0_4 3.084240 1_565
B1_2 Tm0_2 3.084240 1_555
B1_3 Rh0_0 2.200730 1_566
B1_3 Rh0_1 2.200730 1_565
B1_3 Rh2_3 2.200730 1_455
B1_3 Rh2_2 2.200730 1_456
B1_3 Rh1_3 2.200733 1_555
B1_3 Rh1_2 2.200733 1_556
B1_3 Tm0_1 3.084236 1_565
B1_3 Tm0_5 3.084240 1_565
B1_3 Tm0_3 3.084240 1_555
B1_4 Rh2_5 2.200730 1_555
B1_4 Rh0_7 2.200730 1_555
B1_4 Rh0_6 2.200730 1_555
B1_4 Rh2_4 2.200730 1_555
B1_4 Rh1_5 2.200733 1_555
B1_4 Rh1_4 2.200733 1_555
B1_4 Tm0_6 3.084236 1_555
B1_4 Tm0_4 3.084240 1_555
B1_4 Tm0_2 3.084240 1_655
B1_5 Rh2_5 2.200730 1_555
B1_5 Rh0_6 2.200730 1_556
B1_5 Rh0_7 2.200730 1_555
B1_5 Rh2_4 2.200730 1_556
B1_5 Rh1_4 2.200733 1_556
B1_5 Rh1_5 2.200733 1_555
B1_5 Tm0_7 3.084236 1_555
B1_5 Tm0_5 3.084240 1_555
B1_5 Tm0_3 3.084240 1_655
B1_6 Rh2_6 2.200730 1_555
B1_6 Rh2_7 2.200730 1_555
B1_6 Rh0_5 2.200730 1_555
B1_6 Rh0_4 2.200730 1_555
B1_6 Rh1_7 2.200733 1_555
B1_6 Rh1_6 2.200733 1_555
B1_6 Tm0_4 3.084236 1_565
B1_6 Tm0_6 3.084240 1_555
B1_6 Tm0_0 3.084240 1_665
B1_7 Rh2_6 2.200730 1_556
B1_7 Rh2_7 2.200730 1_555
B1_7 Rh0_5 2.200730 1_555
B1_7 Rh0_4 2.200730 1_556
B1_7 Rh1_7 2.200733 1_555
B1_7 Rh1_6 2.200733 1_556
B1_7 Tm0_5 3.084236 1_565
B1_7 Tm0_7 3.084240 1_555
B1_7 Tm0_1 3.084240 1_665
Rh0_0 Tm0_4 3.098303 1_555
Rh0_0 Tm0_0 3.098303 1_555
Rh0_0 Tm0_1 3.098303 1_554
Rh0_0 Tm0_5 3.098303 1_554
Rh0_1 Tm0_4 3.098303 1_555
Rh0_1 Tm0_0 3.098303 1_555
Rh0_1 Tm0_1 3.098303 1_555
Rh0_1 Tm0_5 3.098303 1_555
Rh0_2 Tm0_3 3.098303 1_554
Rh0_2 Tm0_2 3.098303 1_555
Rh0_2 Tm0_7 3.098303 1_554
Rh0_2 Tm0_6 3.098303 1_555
Rh0_3 Tm0_2 3.098303 1_555
Rh0_3 Tm0_3 3.098303 1_555
Rh0_3 Tm0_7 3.098303 1_555
Rh0_3 Tm0_6 3.098303 1_555
Rh0_4 Tm0_1 3.098303 1_664
Rh0_4 Tm0_0 3.098303 1_665
Rh0_4 Tm0_4 3.098303 1_565
Rh0_4 Tm0_5 3.098303 1_564
Rh0_5 Tm0_1 3.098303 1_665
Rh0_5 Tm0_0 3.098303 1_665
Rh0_5 Tm0_5 3.098303 1_565
Rh0_5 Tm0_4 3.098303 1_565
Rh0_6 Tm0_2 3.098303 1_655
Rh0_6 Tm0_7 3.098303 1_554
Rh0_6 Tm0_6 3.098303 1_555
Rh0_6 Tm0_3 3.098303 1_654
Rh0_7 Tm0_2 3.098303 1_655
Rh0_7 Tm0_3 3.098303 1_655
Rh0_7 Tm0_6 3.098303 1_555
Rh0_7 Tm0_7 3.098303 1_555
Rh1_0 Tm0_1 3.098303 1_554
Rh1_0 Tm0_7 3.098303 1_554
Rh1_0 Tm0_6 3.098303 1_555
Rh1_0 Tm0_0 3.098303 1_555
Rh1_1 Tm0_6 3.098303 1_555
Rh1_1 Tm0_1 3.098303 1_555
Rh1_1 Tm0_7 3.098303 1_555
Rh1_1 Tm0_0 3.098303 1_555
Rh1_2 Tm0_2 3.098303 1_555
Rh1_2 Tm0_4 3.098303 1_565
Rh1_2 Tm0_5 3.098303 1_564
Rh1_2 Tm0_3 3.098303 1_554
Rh1_3 Tm0_2 3.098303 1_555
Rh1_3 Tm0_3 3.098303 1_555
Rh1_3 Tm0_4 3.098303 1_565
Rh1_3 Tm0_5 3.098303 1_565
Rh1_4 Tm0_2 3.098303 1_655
Rh1_4 Tm0_5 3.098303 1_554
Rh1_4 Tm0_3 3.098303 1_654
Rh1_4 Tm0_4 3.098303 1_555
Rh1_5 Tm0_2 3.098303 1_655
Rh1_5 Tm0_3 3.098303 1_655
Rh1_5 Tm0_5 3.098303 1_555
Rh1_5 Tm0_4 3.098303 1_555
Rh1_6 Tm0_6 3.098303 1_555
Rh1_6 Tm0_7 3.098303 1_554
Rh1_6 Tm0_0 3.098303 1_665
Rh1_6 Tm0_1 3.098303 1_664
Rh1_7 Tm0_6 3.098303 1_555
Rh1_7 Tm0_7 3.098303 1_555
Rh1_7 Tm0_0 3.098303 1_665
Rh1_7 Tm0_1 3.098303 1_665
Rh2_0 Tm0_0 3.098303 1_555
Rh2_0 Tm0_3 3.098303 1_554
Rh2_0 Tm0_2 3.098303 1_555
Rh2_0 Tm0_1 3.098303 1_554
Rh2_1 Tm0_0 3.098303 1_555
Rh2_1 Tm0_2 3.098303 1_555
Rh2_1 Tm0_3 3.098303 1_555
Rh2_1 Tm0_1 3.098303 1_555
Rh2_2 Tm0_1 3.098303 1_664
Rh2_2 Tm0_0 3.098303 1_665
Rh2_2 Tm0_3 3.098303 1_654
Rh2_2 Tm0_2 3.098303 1_655
Rh2_3 Tm0_1 3.098303 1_665
Rh2_3 Tm0_0 3.098303 1_665
Rh2_3 Tm0_3 3.098303 1_655
Rh2_3 Tm0_2 3.098303 1_655
Rh2_4 Tm0_4 3.098303 1_555
Rh2_4 Tm0_5 3.098303 1_554
Rh2_4 Tm0_7 3.098303 1_554
Rh2_4 Tm0_6 3.098303 1_555
Rh2_5 Tm0_4 3.098303 1_555
Rh2_5 Tm0_5 3.098303 1_555
Rh2_5 Tm0_7 3.098303 1_555
Rh2_5 Tm0_6 3.098303 1_555
Rh2_6 Tm0_7 3.098303 1_554
Rh2_6 Tm0_6 3.098303 1_555
Rh2_6 Tm0_4 3.098303 1_565
Rh2_6 Tm0_5 3.098303 1_564
Rh2_7 Tm0_6 3.098303 1_555
Rh2_7 Tm0_4 3.098303 1_565
Rh2_7 Tm0_5 3.098303 1_565
Rh2_7 Tm0_7 3.098303 1_555
