# generated using pymatgen
data_SrCa7Mn7CrO20
_symmetry_space_group_name_H-M   'P 1'
_cell_length_a   7.86227849
_cell_length_b   7.86227849
_cell_length_c   7.67985896
_cell_angle_alpha   88.27277162
_cell_angle_beta   88.27277162
_cell_angle_gamma   90.62531633
_symmetry_Int_Tables_number   1
_chemical_formula_structural   SrCa7Mn7CrO20
_chemical_formula_sum   'Sr1 Ca7 Mn7 Cr1 O20'
_cell_volume   474.26923106
_cell_formula_units_Z   1
loop_
 _symmetry_equiv_pos_site_id
 _symmetry_equiv_pos_as_xyz
  1  'x, y, z'
loop_
 _atom_site_type_symbol
 _atom_site_label
 _atom_site_symmetry_multiplicity
 _atom_site_fract_x
 _atom_site_fract_y
 _atom_site_fract_z
 _atom_site_occupancy
  Sr  Sr0  1  0.24937600  0.24937600  0.25274500  1
  Ca  Ca0  1  0.27272300  0.27272300  0.70186400  1
  Ca  Ca1  1  0.25568100  0.73346700  0.26163400  1
  Ca  Ca2  1  0.25457500  0.72246700  0.71225800  1
  Ca  Ca3  1  0.73346700  0.25568100  0.26163400  1
  Ca  Ca4  1  0.72246700  0.25457500  0.71225800  1
  Ca  Ca5  1  0.74445300  0.74445300  0.27025000  1
  Ca  Ca6  1  0.73161400  0.73161400  0.72744400  1
  Mn  Mn0  1  0.00085500  0.00085500  0.52433800  1
  Mn  Mn1  1  0.99759600  0.48908400  0.00156400  1
  Mn  Mn2  1  0.99946000  0.50802000  0.49350200  1
  Mn  Mn3  1  0.48908400  0.99759600  0.00156400  1
  Mn  Mn4  1  0.50802000  0.99946000  0.49350200  1
  Mn  Mn5  1  0.50544500  0.50544500  0.99376100  1
  Mn  Mn6  1  0.50488500  0.50488500  0.49207900  1
  Cr  Cr0  1  0.01476300  0.01476300  0.98558000  1
  O  O0  1  0.93269400  0.93269400  0.79166900  1
  O  O1  1  0.01944600  0.53235400  0.24251200  1
  O  O2  1  0.99535500  0.52923600  0.74984200  1
  O  O3  1  0.53235400  0.01944600  0.24251200  1
  O  O4  1  0.52923600  0.99535500  0.74984200  1
  O  O5  1  0.51088600  0.51088600  0.74220600  1
  O  O6  1  0.22079500  0.95679300  0.06012700  1
  O  O7  1  0.25050900  0.00543200  0.52597400  1
  O  O8  1  0.25439100  0.50668000  0.99920600  1
  O  O9  1  0.26224200  0.50208400  0.48893800  1
  O  O10  1  0.76391700  0.00907100  0.46844200  1
  O  O11  1  0.74911300  0.51866900  0.03606400  1
  O  O12  1  0.74450400  0.50136800  0.46896700  1
  O  O13  1  0.95679300  0.22079500  0.06012700  1
  O  O14  1  0.00543200  0.25050900  0.52597400  1
  O  O15  1  0.00907100  0.76391700  0.46844200  1
  O  O16  1  0.50668000  0.25439100  0.99920600  1
  O  O17  1  0.50208400  0.26224200  0.48893800  1
  O  O18  1  0.51866900  0.74911300  0.03606400  1
  O  O19  1  0.50136800  0.74450400  0.46896700  1
loop_
_geom_bond_atom_site_label_1
_geom_bond_atom_site_label_2
_geom_bond_distance
_geom_bond_site_symmetry_2
Ca0 O9 2.401312 1_555
Ca0 O17 2.401312 1_555
Ca0 O14 2.539469 1_555
Ca0 O7 2.539469 1_555
Ca0 O5 2.664947 1_555
Ca0 O16 2.976244 1_555
Ca0 O8 2.976244 1_555
Ca0 O4 3.008514 1_545
Ca0 O2 3.008514 1_455
Ca1 O6 2.329257 1_555
Ca1 O1 2.436770 1_555
Ca1 O9 2.485059 1_555
Ca1 O15 2.487305 1_555
Ca1 O19 2.542500 1_555
Ca1 O18 2.656529 1_555
Ca1 O8 2.731073 1_554
Ca1 O7 2.992275 1_565
Ca2 O9 2.474382 1_555
Ca2 O2 2.532903 1_455
Ca2 O7 2.609538 1_565
Ca2 O5 2.638028 1_555
Ca2 O19 2.653425 1_555
Ca2 O8 2.740279 1_555
Ca2 O15 2.744619 1_555
Ca2 O4 3.053461 1_555
Ca2 O0 3.093130 1_455
Ca3 O13 2.329257 1_555
Ca3 O3 2.436770 1_555
Ca3 O17 2.485059 1_555
Ca3 O10 2.487305 1_555
Ca3 O12 2.542500 1_555
Ca3 O11 2.656529 1_555
Ca3 O16 2.731073 1_554
Ca3 O14 2.992275 1_655
Ca4 O17 2.474382 1_555
Ca4 O4 2.532903 1_545
Ca4 O14 2.609538 1_655
Ca4 O5 2.638028 1_555
Ca4 O12 2.653425 1_555
Ca4 O16 2.740279 1_555
Ca4 O10 2.744619 1_555
Ca4 O2 3.053461 1_555
Ca4 O0 3.093130 1_545
Ca5 O12 2.409555 1_555
Ca5 O19 2.409555 1_555
Ca5 O11 2.564598 1_555
Ca5 O18 2.564598 1_555
Ca5 O15 2.620427 1_655
Ca5 O10 2.620427 1_565
Ca5 O1 2.751928 1_655
Ca5 O3 2.751928 1_565
Ca6 O0 2.298158 1_555
Ca6 O5 2.438605 1_555
Ca6 O2 2.634049 1_555
Ca6 O4 2.634049 1_555
Ca6 O19 2.726958 1_555
Ca6 O12 2.726958 1_555
Ca6 O11 2.867945 1_556
Ca6 O18 2.867945 1_556
Ca6 O15 2.911288 1_655
Ca6 O10 2.911288 1_565
Mn0 O10 1.925592 1_455
Mn0 O15 1.925592 1_545
Mn0 O14 1.963212 1_555
Mn0 O7 1.963212 1_555
Mn0 O0 2.156510 1_445
Mn1 O1 1.904006 1_655
Mn1 O2 1.950019 1_554
Mn1 O11 1.980772 1_555
Mn1 O8 2.021720 1_654
Mn1 O13 2.161932 1_555
Mn2 O1 1.932787 1_655
Mn2 O2 1.980038 1_555
Mn2 O15 2.015711 1_655
Mn2 O12 2.019276 1_555
Mn2 O14 2.033676 1_655
Mn2 O9 2.066366 1_655
Mn3 O3 1.904006 1_565
Mn3 O4 1.950019 1_554
Mn3 O18 1.980772 1_555
Mn3 O16 2.021720 1_564
Mn3 O6 2.161932 1_555
Mn4 O3 1.932787 1_565
Mn4 O4 1.980038 1_555
Mn4 O10 2.015711 1_565
Mn4 O19 2.019276 1_555
Mn4 O7 2.033676 1_565
Mn4 O17 2.066366 1_565
Mn5 O5 1.930264 1_555
Mn5 O11 1.954943 1_556
Mn5 O18 1.954943 1_556
Mn5 O8 1.973175 1_555
Mn5 O16 1.973175 1_555
Mn6 O12 1.887543 1_555
Mn6 O19 1.887543 1_555
Mn6 O17 1.908501 1_555
Mn6 O9 1.908501 1_555
Mn6 O5 1.924926 1_555
Cr0 O0 1.776852 1_445
Cr0 O13 1.793267 1_456
Cr0 O6 1.793267 1_546
O1 Sr0 2.882707 1_555
O3 Sr0 2.882707 1_555
O6 Sr0 2.782867 1_565
O7 Sr0 2.800114 1_555
O8 Sr0 2.764346 1_556
O9 Sr0 2.733518 1_555
O13 Sr0 2.782867 1_655
O14 Sr0 2.800114 1_555
O16 Sr0 2.764346 1_556
O17 Sr0 2.733518 1_555
