# generated using pymatgen
data_KNa2AlH6
_symmetry_space_group_name_H-M   'P 1'
_cell_length_a   6.91819696
_cell_length_b   4.63580200
_cell_length_c   11.30410211
_cell_angle_alpha   90.00000000
_cell_angle_beta   85.80427309
_cell_angle_gamma   90.00000000
_symmetry_Int_Tables_number   1
_chemical_formula_structural   KNa2AlH6
_chemical_formula_sum   'K2 Na4 Al2 H12'
_cell_volume   361.56665668
_cell_formula_units_Z   2
loop_
 _symmetry_equiv_pos_site_id
 _symmetry_equiv_pos_as_xyz
  1  'x, y, z'
loop_
 _atom_site_type_symbol
 _atom_site_label
 _atom_site_symmetry_multiplicity
 _atom_site_fract_x
 _atom_site_fract_y
 _atom_site_fract_z
 _atom_site_occupancy
  K  K0  1  0.63319600  0.47540500  0.21113400  1
  K  K1  1  0.36680400  0.97540500  0.78886600  1
  Na  Na0  1  0.83357400  0.55221900  0.78676100  1
  Na  Na1  1  0.15609800  0.62915200  0.44467400  1
  Na  Na2  1  0.16642600  0.05221900  0.21323900  1
  Na  Na3  1  0.84390200  0.12915200  0.55532600  1
  Al  Al0  1  0.09572600  0.47520100  0.99635900  1
  Al  Al1  1  0.90427400  0.97520100  0.00364100  1
  H  H0  1  0.48435200  0.12522000  0.41572000  1
  H  H1  1  0.23530200  0.47080600  0.86922800  1
  H  H2  1  0.47520800  0.74176000  0.54505500  1
  H  H3  1  0.73931600  0.95928600  0.90259600  1
  H  H4  1  0.51564800  0.62522000  0.58428100  1
  H  H5  1  0.52479200  0.24176000  0.45494500  1
  H  H6  1  0.76469800  0.97080600  0.13077200  1
  H  H7  1  0.01601300  0.75029300  0.62207000  1
  H  H8  1  0.63397100  0.31065600  0.68525000  1
  H  H9  1  0.98398700  0.25029300  0.37793000  1
  H  H10  1  0.36602900  0.81065600  0.31475000  1
  H  H11  1  0.26068400  0.45928600  0.09740400  1
loop_
_geom_bond_atom_site_label_1
_geom_bond_atom_site_label_2
_geom_bond_distance
_geom_bond_site_symmetry_2
Al0 H1 1.671835 1_555
Al0 H11 1.674283 1_556
Al1 H6 1.671835 1_555
Al1 H3 1.674283 1_554
H0 H5 0.764793 1_555
H1 K1 2.608877 1_545
H1 K1 2.646490 1_555
H2 H4 0.764800 1_555
H2 Na1 2.607767 1_555
H3 Na0 2.361339 1_555
H3 K1 2.963900 1_555
H5 Na3 2.607767 1_555
H6 K0 2.608877 1_555
H6 K0 2.646490 1_565
H7 Na1 2.234159 1_555
H7 Na3 2.281031 1_465
H7 Na0 2.357585 1_455
H8 Na3 2.159206 1_555
H8 Na0 2.170139 1_555
H8 K1 2.624270 1_545
H9 Na3 2.234159 1_555
H9 Na1 2.281031 1_655
H9 Na2 2.357585 1_655
H10 Na1 2.159206 1_555
H10 Na2 2.170139 1_565
H10 K0 2.624270 1_555
H11 Na2 2.361339 1_555
H11 K0 2.963900 1_555
