# generated using pymatgen
data_Pr3DyFe34
_symmetry_space_group_name_H-M   'P 1'
_cell_length_a   6.46181256
_cell_length_b   6.46181256
_cell_length_c   12.89306694
_cell_angle_alpha   82.89839720
_cell_angle_beta   82.89839720
_cell_angle_gamma   82.73402616
_symmetry_Int_Tables_number   1
_chemical_formula_structural   Pr3DyFe34
_chemical_formula_sum   'Pr3 Dy1 Fe34'
_cell_volume   526.73159364
_cell_formula_units_Z   1
loop_
 _symmetry_equiv_pos_site_id
 _symmetry_equiv_pos_as_xyz
  1  'x, y, z'
loop_
 _atom_site_type_symbol
 _atom_site_label
 _atom_site_symmetry_multiplicity
 _atom_site_fract_x
 _atom_site_fract_y
 _atom_site_fract_z
 _atom_site_occupancy
  Pr  Pr0  1  0.65956000  0.65956000  0.82941000  1
  Pr  Pr1  1  0.34167900  0.34167900  0.17093800  1
  Pr  Pr2  1  0.34021500  0.34021500  0.67045400  1
  Dy  Dy0  1  0.66085200  0.66085200  0.33032900  1
  Fe  Fe0  1  0.28854600  0.71127400  0.00079500  1
  Fe  Fe1  1  0.29312500  0.70832100  0.49850000  1
  Fe  Fe2  1  0.70888300  0.99888500  0.14695200  1
  Fe  Fe3  1  0.71069100  0.00099600  0.64388500  1
  Fe  Fe4  1  0.99797200  0.29228200  0.35423600  1
  Fe  Fe5  1  0.99912200  0.28921500  0.85545600  1
  Fe  Fe6  1  0.29228200  0.99797200  0.35423600  1
  Fe  Fe7  1  0.28921500  0.99912200  0.85545600  1
  Fe  Fe8  1  0.99888500  0.70888300  0.14695200  1
  Fe  Fe9  1  0.00099600  0.71069100  0.64388500  1
  Fe  Fe10  1  0.71127400  0.28854600  0.00079500  1
  Fe  Fe11  1  0.70832100  0.29312500  0.49850000  1
  Fe  Fe12  1  0.90308700  0.90308700  0.45086800  1
  Fe  Fe13  1  0.90406000  0.90406000  0.95211900  1
  Fe  Fe14  1  0.09541700  0.09541700  0.04887300  1
  Fe  Fe15  1  0.09571500  0.09571500  0.54721500  1
  Fe  Fe16  1  0.99892400  0.99892400  0.25068300  1
  Fe  Fe17  1  0.99995000  0.99995000  0.74972500  1
  Fe  Fe18  1  0.99924100  0.50084200  0.49883500  1
  Fe  Fe19  1  0.99980800  0.50002000  0.00070500  1
  Fe  Fe20  1  0.50002000  0.99980800  0.00070500  1
  Fe  Fe21  1  0.50084200  0.99924100  0.49883500  1
  Fe  Fe22  1  0.34362800  0.34362800  0.42180900  1
  Fe  Fe23  1  0.34103000  0.34103000  0.92276400  1
  Fe  Fe24  1  0.34358700  0.84396300  0.17205300  1
  Fe  Fe25  1  0.34128500  0.84537600  0.66973600  1
  Fe  Fe26  1  0.84396300  0.34358700  0.17205300  1
  Fe  Fe27  1  0.84537600  0.34128500  0.66973600  1
  Fe  Fe28  1  0.65865500  0.65865500  0.07922500  1
  Fe  Fe29  1  0.65806200  0.65806200  0.57543800  1
  Fe  Fe30  1  0.65811900  0.15447100  0.32916300  1
  Fe  Fe31  1  0.65844700  0.15469500  0.82975900  1
  Fe  Fe32  1  0.15447100  0.65811900  0.32916300  1
  Fe  Fe33  1  0.15469500  0.65844700  0.82975900  1
loop_
_geom_bond_atom_site_label_1
_geom_bond_atom_site_label_2
_geom_bond_distance
_geom_bond_site_symmetry_2
Dy0 Fe12 3.022945 1_555
Dy0 Fe11 3.024528 1_555
Dy0 Fe1 3.024528 1_555
Dy0 Fe2 3.028286 1_555
Dy0 Fe8 3.028286 1_555
Dy0 Fe4 3.030641 1_555
Dy0 Fe6 3.030641 1_555
Dy0 Fe24 3.096947 1_555
Dy0 Fe26 3.096947 1_555
Dy0 Fe22 3.108391 1_555
Dy0 Fe29 3.155862 1_555
Dy0 Fe30 3.185673 1_565
Dy0 Fe32 3.185673 1_655
Dy0 Fe28 3.241079 1_555
Dy0 Fe21 3.258469 1_555
Dy0 Fe18 3.258469 1_555
Dy0 Fe16 3.270610 1_555
Dy0 Fe32 3.276321 1_555
Dy0 Fe30 3.276321 1_555
Fe0 Fe20 2.446847 1_555
Fe0 Fe19 2.447393 1_455
Fe0 Fe7 2.471699 1_554
Fe0 Fe8 2.486493 1_455
Fe0 Fe33 2.541620 1_554
Fe0 Fe24 2.544901 1_555
Fe0 Fe23 2.675165 1_554
Fe0 Fe28 2.676757 1_555
Fe0 Fe14 2.740231 1_565
Fe0 Fe13 2.743665 1_454
Fe0 Pr1 3.052412 1_555
Fe0 Pr0 3.067906 1_554
Fe1 Fe21 2.444831 1_555
Fe1 Fe18 2.458518 1_455
Fe1 Fe6 2.470211 1_555
Fe1 Fe9 2.490395 1_555
Fe1 Fe32 2.531197 1_555
Fe1 Fe25 2.545273 1_555
Fe1 Fe22 2.634289 1_555
Fe1 Fe29 2.637305 1_555
Fe1 Fe15 2.769654 1_565
Fe1 Fe12 2.775338 1_455
Fe1 Pr2 3.057032 1_555
Fe2 Fe20 2.449764 1_555
Fe2 Fe8 2.476897 1_555
Fe2 Fe28 2.535053 1_555
Fe2 Fe26 2.562773 1_565
Fe2 Fe30 2.635794 1_565
Fe2 Fe24 2.647162 1_555
Fe2 Pr1 3.048084 1_565
Fe3 Fe9 2.479485 1_645
Fe3 Fe31 2.673418 1_555
Fe3 Pr2 3.050999 1_555
Fe3 Pr0 3.063102 1_545
Fe4 Fe6 2.513691 1_645
Fe4 Pr1 3.051993 1_655
Fe5 Fe7 2.477674 1_645
Fe5 Pr0 3.051133 1_555
Fe5 Pr2 3.057029 1_655
Fe6 Pr1 3.051993 1_565
Fe7 Pr0 3.051133 1_555
Fe7 Pr2 3.057029 1_565
Fe8 Pr1 3.048084 1_655
Fe9 Pr2 3.050999 1_555
Fe9 Pr0 3.063102 1_455
Fe10 Fe19 2.446847 1_555
Fe10 Fe20 2.447393 1_545
Fe10 Fe5 2.471699 1_554
Fe10 Fe2 2.486493 1_545
Fe10 Fe31 2.541620 1_554
Fe10 Fe26 2.544901 1_555
Fe10 Fe23 2.675165 1_554
Fe10 Fe28 2.676757 1_555
Fe10 Fe14 2.740231 1_655
Fe10 Fe13 2.743665 1_544
Fe10 Pr1 3.052412 1_555
Fe10 Pr0 3.067906 1_554
Fe11 Fe18 2.444831 1_555
Fe11 Fe21 2.458518 1_545
Fe11 Fe4 2.470211 1_555
Fe11 Fe3 2.490395 1_555
Fe11 Fe30 2.531197 1_555
Fe11 Fe27 2.545273 1_555
Fe11 Fe22 2.634289 1_555
Fe11 Fe29 2.637305 1_555
Fe11 Fe15 2.769654 1_655
Fe11 Fe12 2.775338 1_545
Fe11 Pr2 3.057032 1_555
Fe12 Fe15 2.407966 1_665
Fe12 Fe16 2.595219 1_555
Fe12 Fe21 2.610281 1_555
Fe12 Fe18 2.610281 1_555
Fe12 Fe32 2.634404 1_655
Fe12 Fe30 2.634404 1_565
Fe12 Fe29 2.640043 1_555
Fe12 Fe9 2.750322 1_655
Fe12 Fe3 2.750322 1_565
Fe12 Fe6 2.771161 1_655
Fe12 Fe4 2.771161 1_565
Fe13 Fe14 2.400754 1_666
Fe13 Fe19 2.621923 1_556
Fe13 Fe20 2.621923 1_556
Fe13 Fe17 2.621981 1_555
Fe13 Fe33 2.639664 1_655
Fe13 Fe31 2.639664 1_565
Fe13 Fe28 2.658169 1_556
Fe13 Fe7 2.748665 1_655
Fe13 Fe5 2.748665 1_565
Fe13 Fe8 2.770911 1_556
Fe13 Fe2 2.770911 1_556
Fe13 Pr0 3.059862 1_555
Fe14 Fe16 2.616056 1_445
Fe14 Fe20 2.624431 1_545
Fe14 Fe19 2.624431 1_455
Fe14 Fe23 2.653772 1_554
Fe14 Fe24 2.658307 1_545
Fe14 Fe26 2.658307 1_455
Fe14 Fe5 2.754731 1_454
Fe14 Fe7 2.754731 1_544
Fe14 Fe2 2.764926 1_445
Fe14 Fe8 2.764926 1_445
Fe14 Pr1 3.069246 1_555
Fe15 Fe17 2.623151 1_445
Fe15 Fe18 2.628775 1_455
Fe15 Fe21 2.628775 1_545
Fe15 Fe25 2.639851 1_545
Fe15 Fe27 2.639851 1_455
Fe15 Fe22 2.667419 1_555
Fe15 Fe9 2.747327 1_545
Fe15 Fe3 2.747327 1_455
Fe15 Fe4 2.758094 1_455
Fe15 Fe6 2.758094 1_545
Fe15 Pr2 3.064272 1_555
Fe16 Fe2 2.433358 1_555
Fe16 Fe8 2.433358 1_555
Fe16 Fe6 2.448829 1_655
Fe16 Fe4 2.448829 1_565
Fe16 Fe32 2.454476 1_655
Fe16 Fe30 2.454476 1_565
Fe16 Fe26 2.473706 1_565
Fe16 Fe24 2.473706 1_655
Fe16 Pr1 3.314012 1_665
Fe17 Fe7 2.444964 1_655
Fe17 Fe5 2.444964 1_565
Fe17 Fe9 2.445618 1_655
Fe17 Fe3 2.445618 1_565
Fe17 Fe27 2.461931 1_565
Fe17 Fe25 2.461931 1_655
Fe17 Fe31 2.463380 1_565
Fe17 Fe33 2.463380 1_655
Fe17 Pr2 3.290134 1_665
Fe17 Pr0 3.292068 1_555
Fe18 Fe4 2.433067 1_555
Fe18 Fe9 2.443862 1_655
Fe18 Fe32 2.447477 1_655
Fe18 Fe29 2.451761 1_555
Fe18 Fe27 2.462230 1_555
Fe18 Fe22 2.470158 1_655
Fe18 Pr2 3.299549 1_655
Fe19 Fe5 2.448859 1_554
Fe19 Fe8 2.449764 1_555
Fe19 Fe23 2.461982 1_654
Fe19 Fe33 2.462370 1_654
Fe19 Fe28 2.463432 1_555
Fe19 Fe26 2.464090 1_555
Fe19 Pr1 3.288790 1_655
Fe19 Pr0 3.292200 1_554
Fe20 Fe7 2.448859 1_554
Fe20 Fe23 2.461982 1_564
Fe20 Fe31 2.462370 1_564
Fe20 Fe28 2.463432 1_555
Fe20 Fe24 2.464090 1_555
Fe20 Pr1 3.288790 1_565
Fe20 Pr0 3.292200 1_554
Fe21 Fe6 2.433067 1_555
Fe21 Fe3 2.443862 1_565
Fe21 Fe30 2.447477 1_565
Fe21 Fe29 2.451761 1_555
Fe21 Fe25 2.462230 1_555
Fe21 Fe22 2.470158 1_565
Fe21 Pr2 3.299549 1_565
Fe22 Fe32 2.486578 1_555
Fe22 Fe30 2.486578 1_555
Fe22 Fe6 2.568657 1_545
Fe22 Fe4 2.568657 1_455
Fe22 Pr2 3.200510 1_555
Fe22 Pr1 3.237664 1_555
Fe23 Fe33 2.493749 1_555
Fe23 Fe31 2.493749 1_555
Fe23 Fe7 2.545471 1_545
Fe23 Fe5 2.545471 1_455
Fe23 Pr0 3.125422 1_555
Fe23 Pr1 3.200767 1_556
Fe23 Pr2 3.254361 1_555
Fe24 Fe28 2.479192 1_555
Fe24 Fe32 2.489248 1_555
Fe24 Fe8 2.562773 1_455
Fe24 Fe6 2.630512 1_555
Fe24 Pr1 3.212872 1_565
Fe24 Pr1 3.249062 1_555
Fe25 Fe29 2.501001 1_555
Fe25 Fe33 2.511297 1_555
Fe25 Fe9 2.537839 1_555
Fe25 Fe7 2.671755 1_555
Fe25 Fe3 2.673538 1_565
Fe25 Pr0 3.117801 1_555
Fe25 Pr2 3.197845 1_565
Fe25 Pr2 3.264004 1_555
Fe26 Fe28 2.479192 1_555
Fe26 Fe30 2.489248 1_555
Fe26 Fe4 2.630512 1_555
Fe26 Fe8 2.647162 1_555
Fe26 Pr1 3.212872 1_655
Fe26 Pr1 3.249062 1_555
Fe27 Fe29 2.501001 1_555
Fe27 Fe31 2.511297 1_555
Fe27 Fe3 2.537839 1_555
Fe27 Fe5 2.671755 1_555
Fe27 Fe9 2.673538 1_655
Fe27 Pr0 3.117801 1_555
Fe27 Pr2 3.197845 1_655
Fe27 Pr2 3.264004 1_555
Fe28 Fe8 2.535053 1_555
Fe28 Pr1 3.106813 1_555
Fe28 Pr0 3.219447 1_554
Fe29 Fe3 2.559953 1_565
Fe29 Fe9 2.559953 1_655
Fe29 Pr2 3.124145 1_555
Fe29 Pr0 3.276903 1_555
Fe30 Fe4 2.541968 1_555
Fe30 Fe6 2.655266 1_545
Fe30 Pr1 3.098651 1_555
Fe31 Fe5 2.539093 1_555
Fe31 Fe7 2.672419 1_545
Fe31 Pr2 3.113886 1_555
Fe31 Pr0 3.199126 1_545
Fe31 Pr0 3.262706 1_555
Fe32 Fe6 2.541968 1_555
Fe32 Fe8 2.635794 1_455
Fe32 Fe4 2.655266 1_455
Fe32 Pr1 3.098651 1_555
Fe33 Fe7 2.539093 1_555
Fe33 Fe5 2.672419 1_455
Fe33 Fe9 2.673418 1_555
Fe33 Pr2 3.113886 1_555
Fe33 Pr0 3.199126 1_455
Fe33 Pr0 3.262706 1_555
