# generated using pymatgen
data_KSrVO4
_symmetry_space_group_name_H-M   'P 1'
_cell_length_a   5.96336600
_cell_length_b   7.54848400
_cell_length_c   10.11853900
_cell_angle_alpha   90.00000000
_cell_angle_beta   90.00000000
_cell_angle_gamma   90.00000000
_symmetry_Int_Tables_number   1
_chemical_formula_structural   KSrVO4
_chemical_formula_sum   'K4 Sr4 V4 O16'
_cell_volume   455.47968711
_cell_formula_units_Z   4
loop_
 _symmetry_equiv_pos_site_id
 _symmetry_equiv_pos_as_xyz
  1  'x, y, z'
loop_
 _atom_site_type_symbol
 _atom_site_label
 _atom_site_symmetry_multiplicity
 _atom_site_fract_x
 _atom_site_fract_y
 _atom_site_fract_z
 _atom_site_occupancy
  K  K0  1  0.25000000  0.15752900  0.92401100  1
  K  K1  1  0.75000000  0.84247100  0.07598900  1
  K  K2  1  0.25000000  0.65752900  0.57598900  1
  K  K3  1  0.75000000  0.34247100  0.42401100  1
  Sr  Sr0  1  0.25000000  0.00341800  0.29826400  1
  Sr  Sr1  1  0.75000000  0.99658200  0.70173600  1
  Sr  Sr2  1  0.25000000  0.50341800  0.20173600  1
  Sr  Sr3  1  0.75000000  0.49658200  0.79826400  1
  V  V0  1  0.25000000  0.72214100  0.91583800  1
  V  V1  1  0.75000000  0.27785900  0.08416200  1
  V  V2  1  0.25000000  0.22214100  0.58416200  1
  V  V3  1  0.75000000  0.77785900  0.41583800  1
  O  O0  1  0.50831900  0.21982800  0.17278000  1
  O  O1  1  0.00831900  0.78017200  0.82722000  1
  O  O2  1  0.99168100  0.71982800  0.32722000  1
  O  O3  1  0.49168100  0.28017200  0.67278000  1
  O  O4  1  0.49168100  0.78017200  0.82722000  1
  O  O5  1  0.99168100  0.21982800  0.17278000  1
  O  O6  1  0.00831900  0.28017200  0.67278000  1
  O  O7  1  0.50831900  0.71982800  0.32722000  1
  O  O8  1  0.25000000  0.82420300  0.07127600  1
  O  O9  1  0.75000000  0.17579700  0.92872400  1
  O  O10  1  0.25000000  0.32420300  0.42872400  1
  O  O11  1  0.75000000  0.67579700  0.57127600  1
  O  O12  1  0.75000000  0.50258400  0.05618800  1
  O  O13  1  0.25000000  0.49741600  0.94381200  1
  O  O14  1  0.75000000  0.00258400  0.44381200  1
  O  O15  1  0.25000000  0.99741600  0.55618800  1
loop_
_geom_bond_atom_site_label_1
_geom_bond_atom_site_label_2
_geom_bond_distance
_geom_bond_site_symmetry_2
K0 O13 2.573443 1_555
K0 O8 2.924245 1_546
K0 O9 2.985251 1_455
K0 O9 2.985251 1_555
K0 O0 2.988365 1_556
K0 O5 2.988365 1_456
K0 O6 3.065359 1_555
K0 O3 3.065359 1_555
K1 O12 2.573443 1_555
K1 O9 2.924245 1_564
K1 O8 2.985251 1_655
K1 O8 2.985251 1_555
K1 O1 2.988365 1_654
K1 O4 2.988365 1_554
K1 O2 3.065359 1_555
K1 O7 3.065359 1_555
K2 O15 2.573443 1_555
K2 O10 2.924245 1_555
K2 O11 2.985251 1_455
K2 O11 2.985251 1_555
K2 O7 2.988365 1_555
K2 O2 2.988365 1_455
K2 O4 3.065359 1_555
K2 O1 3.065359 1_555
K3 O14 2.573443 1_555
K3 O11 2.924245 1_555
K3 O10 2.985251 1_655
K3 O10 2.985251 1_555
K3 O6 2.988365 1_655
K3 O3 2.988365 1_555
K3 O5 3.065359 1_555
K3 O0 3.065359 1_555
O0 V1 1.753020 1_555
O0 Sr0 2.579478 1_555
O0 Sr2 2.653549 1_555
O1 V0 1.753020 1_555
O1 Sr1 2.579478 1_455
O1 Sr3 2.653549 1_455
O2 V3 1.753020 1_555
O2 Sr2 2.579478 1_655
O2 Sr0 2.653549 1_665
O3 V2 1.753020 1_555
O3 Sr3 2.579478 1_555
O3 Sr1 2.653549 1_545
O4 V0 1.753020 1_555
O4 Sr1 2.579478 1_555
O4 Sr3 2.653549 1_555
O5 V1 1.753020 1_555
O5 Sr0 2.579478 1_655
O5 Sr2 2.653549 1_655
O6 V2 1.753020 1_555
O6 Sr3 2.579478 1_455
O6 Sr1 2.653549 1_445
O7 V3 1.753020 1_555
O7 Sr2 2.579478 1_555
O7 Sr0 2.653549 1_565
O8 V0 1.751358 1_554
O8 Sr0 2.665577 1_565
O8 Sr2 2.757888 1_555
O9 V1 1.751358 1_556
O9 Sr1 2.665577 1_545
O9 Sr3 2.757888 1_555
O10 V2 1.751358 1_555
O10 Sr2 2.665577 1_555
O10 Sr0 2.757888 1_555
O11 V3 1.751358 1_555
O11 Sr3 2.665577 1_555
O11 Sr1 2.757888 1_555
O12 V1 1.719787 1_555
O12 Sr3 2.610207 1_554
O13 V0 1.719787 1_555
O13 Sr2 2.610207 1_556
O14 V3 1.719787 1_545
O14 Sr1 2.610207 1_545
O15 V2 1.719787 1_565
O15 Sr0 2.610207 1_565
