# generated using pymatgen
data_Zr3S4
_symmetry_space_group_name_H-M   'P 1'
_cell_length_a   7.31687000
_cell_length_b   7.35249135
_cell_length_c   24.32540970
_cell_angle_alpha   98.38021482
_cell_angle_beta   90.22714009
_cell_angle_gamma   119.70229150
_symmetry_Int_Tables_number   1
_chemical_formula_structural   Zr3S4
_chemical_formula_sum   'Zr24 S32'
_cell_volume   1120.13536652
_cell_formula_units_Z   8
loop_
 _symmetry_equiv_pos_site_id
 _symmetry_equiv_pos_as_xyz
  1  'x, y, z'
loop_
 _atom_site_type_symbol
 _atom_site_label
 _atom_site_symmetry_multiplicity
 _atom_site_fract_x
 _atom_site_fract_y
 _atom_site_fract_z
 _atom_site_occupancy
  Zr  Zr0  1  0.24615700  0.10666500  0.62735600  1
  Zr  Zr1  1  0.25957900  0.62284600  0.62159300  1
  Zr  Zr2  1  0.00000000  0.00000000  0.50000000  1
  Zr  Zr3  1  0.00564900  0.23471300  0.25526800  1
  Zr  Zr4  1  0.50000000  0.50000000  0.50000000  1
  Zr  Zr5  1  0.00000000  0.50000000  0.50000000  1
  Zr  Zr6  1  0.75384300  0.89333500  0.37264400  1
  Zr  Zr7  1  0.78287500  0.64299500  0.62588000  1
  Zr  Zr8  1  0.00834300  0.78149200  0.24872700  1
  Zr  Zr9  1  0.46437800  0.23714700  0.24813900  1
  Zr  Zr10  1  0.74042100  0.37715400  0.37840700  1
  Zr  Zr11  1  0.74052000  0.34896400  0.87739800  1
  Zr  Zr12  1  0.25948000  0.65103600  0.12260200  1
  Zr  Zr13  1  0.21712500  0.35700500  0.37412000  1
  Zr  Zr14  1  0.50000000  0.00000000  0.00000000  1
  Zr  Zr15  1  0.00000000  0.00000000  0.00000000  1
  Zr  Zr16  1  0.74410900  0.88395000  0.87301700  1
  Zr  Zr17  1  0.25589100  0.11605000  0.12698300  1
  Zr  Zr18  1  0.72419000  0.11539700  0.12261600  1
  Zr  Zr19  1  0.50000000  0.50000000  0.00000000  1
  Zr  Zr20  1  0.99435100  0.76528700  0.74473200  1
  Zr  Zr21  1  0.53562200  0.76285300  0.75186100  1
  Zr  Zr22  1  0.27581000  0.88460300  0.87738400  1
  Zr  Zr23  1  0.99165700  0.21850800  0.75127300  1
  S  S0  1  0.63089600  0.81562500  0.56253500  1
  S  S1  1  0.84468500  0.17556300  0.44276600  1
  S  S2  1  0.11521100  0.30295200  0.56458000  1
  S  S3  1  0.36940500  0.68308600  0.43506200  1
  S  S4  1  0.11290100  0.56199400  0.31188700  1
  S  S5  1  0.63059500  0.31691400  0.56493800  1
  S  S6  1  0.15531500  0.82443700  0.55723400  1
  S  S7  1  0.61975700  0.07138900  0.31202800  1
  S  S8  1  0.88478900  0.69704800  0.43542000  1
  S  S9  1  0.37858100  0.92469300  0.19208300  1
  S  S10  1  0.87108300  0.43568200  0.18921000  1
  S  S11  1  0.12886400  0.04385000  0.31948700  1
  S  S12  1  0.63040300  0.32193800  0.06123300  1
  S  S13  1  0.36910400  0.18437500  0.43746500  1
  S  S14  1  0.37024000  0.44249600  0.18540900  1
  S  S15  1  0.61396800  0.56504300  0.31101200  1
  S  S16  1  0.88135900  0.68302900  0.93692600  1
  S  S17  1  0.11519200  0.80816000  0.06164500  1
  S  S18  1  0.36896300  0.19625800  0.93604100  1
  S  S19  1  0.63103700  0.80374200  0.06395900  1
  S  S20  1  0.13133600  0.05832400  0.81430600  1
  S  S21  1  0.86866400  0.94167600  0.18569400  1
  S  S22  1  0.88480800  0.19184000  0.93835500  1
  S  S23  1  0.11864100  0.31697100  0.06307400  1
  S  S24  1  0.62976000  0.55750400  0.81459100  1
  S  S25  1  0.38603200  0.43495700  0.68898800  1
  S  S26  1  0.87113600  0.95615000  0.68051300  1
  S  S27  1  0.12891700  0.56431800  0.81079000  1
  S  S28  1  0.36959700  0.67806200  0.93876700  1
  S  S29  1  0.38024300  0.92861100  0.68797200  1
  S  S30  1  0.62141900  0.07530700  0.80791700  1
  S  S31  1  0.88709900  0.43800600  0.68811300  1
loop_
_geom_bond_atom_site_label_1
_geom_bond_atom_site_label_2
_geom_bond_distance
_geom_bond_site_symmetry_2
S0 Zr4 2.318093 1_555
S0 Zr7 2.679020 1_555
S0 Zr1 2.874471 1_555
S0 Zr2 2.907056 1_665
S1 Zr6 2.291240 1_545
S1 Zr5 2.291948 1_655
S1 Zr2 2.619351 1_655
S1 Zr10 2.649026 1_555
S1 Zr13 3.012799 1_655
S2 Zr1 2.268632 1_555
S2 Zr2 2.291019 1_555
S2 Zr5 2.672203 1_555
S2 Zr0 2.708092 1_555
S2 Zr4 3.024869 1_555
S3 Zr13 2.343248 1_555
S3 Zr4 2.665142 1_555
S3 Zr5 2.942952 1_555
S3 Zr6 3.002705 1_555
S4 Zr3 2.336068 1_555
S4 Zr13 2.634345 1_555
S4 Zr8 2.736288 1_555
S4 Zr10 2.983035 1_455
S5 Zr7 2.343248 1_555
S5 Zr4 2.665142 1_555
S5 Zr5 2.942952 1_655
S5 Zr0 3.002705 1_555
S6 Zr0 2.291240 1_565
S6 Zr5 2.291948 1_555
S6 Zr2 2.619351 1_565
S6 Zr1 2.649026 1_555
S6 Zr7 3.012799 1_455
S7 Zr10 2.324755 1_555
S7 Zr6 2.583517 1_545
S7 Zr9 2.665387 1_555
S7 Zr3 2.911152 1_655
S8 Zr10 2.268632 1_555
S8 Zr2 2.291019 1_665
S8 Zr5 2.672203 1_655
S8 Zr6 2.708092 1_555
S8 Zr4 3.024869 1_555
S9 Zr12 2.218988 1_555
S9 Zr9 2.276412 1_565
S9 Zr17 2.680099 1_565
S9 Zr8 2.823413 1_555
S9 Zr18 2.902921 1_565
S10 Zr18 2.385563 1_555
S10 Zr8 2.440148 1_655
S10 Zr3 2.802892 1_655
S10 Zr9 3.062696 1_555
S10 Zr12 3.087655 1_655
S11 Zr8 2.189935 1_545
S11 Zr13 2.261049 1_555
S11 Zr3 2.665332 1_555
S11 Zr6 2.803943 1_445
S11 Zr9 2.890310 1_555
S12 Zr14 2.335562 1_555
S12 Zr19 2.576451 1_555
S12 Zr18 2.586908 1_555
S12 Zr17 2.998052 1_555
S13 Zr4 2.318093 1_555
S13 Zr13 2.679020 1_555
S13 Zr10 2.874471 1_555
S13 Zr2 2.907056 1_555
S14 Zr17 2.342441 1_555
S14 Zr9 2.603130 1_555
S14 Zr12 2.691903 1_555
S14 Zr3 3.015313 1_555
S15 Zr6 2.367763 1_555
S15 Zr9 2.376197 1_555
S15 Zr10 2.714207 1_555
S15 Zr8 3.056387 1_655
S15 Zr13 3.073412 1_555
S16 Zr15 2.341223 1_666
S16 Zr11 2.373788 1_555
S16 Zr16 2.781159 1_555
S16 Zr19 2.977534 1_556
S16 Zr22 3.007343 1_655
S17 Zr17 2.310700 1_565
S17 Zr12 2.518620 1_555
S17 Zr15 2.594829 1_565
S17 Zr14 2.979945 1_565
S18 Zr19 2.276138 1_556
S18 Zr22 2.289696 1_545
S18 Zr14 2.726842 1_556
S18 Zr11 2.856439 1_555
S18 Zr15 2.935675 1_556
S19 Zr19 2.276138 1_555
S19 Zr18 2.289696 1_565
S19 Zr14 2.726842 1_565
S19 Zr12 2.856439 1_555
S19 Zr15 2.935675 1_665
S20 Zr20 2.301003 1_445
S20 Zr23 2.547431 1_455
S20 Zr22 2.645700 1_545
S20 Zr16 2.945668 1_445
S21 Zr3 2.301003 1_665
S21 Zr8 2.547431 1_655
S21 Zr18 2.645700 1_565
S21 Zr17 2.945668 1_665
S22 Zr16 2.310700 1_545
S22 Zr11 2.518620 1_555
S22 Zr15 2.594829 1_656
S22 Zr14 2.979945 1_556
S23 Zr15 2.341223 1_555
S23 Zr12 2.373788 1_555
S23 Zr17 2.781159 1_555
S23 Zr19 2.977534 1_555
S23 Zr18 3.007343 1_455
S24 Zr16 2.342441 1_555
S24 Zr21 2.603130 1_555
S24 Zr11 2.691903 1_555
S24 Zr20 3.015313 1_555
S25 Zr0 2.367763 1_555
S25 Zr21 2.376197 1_555
S25 Zr1 2.714207 1_555
S25 Zr23 3.056387 1_455
S25 Zr7 3.073412 1_555
S26 Zr23 2.189935 1_565
S26 Zr7 2.261049 1_555
S26 Zr20 2.665332 1_555
S26 Zr0 2.803943 1_665
S26 Zr21 2.890310 1_555
S27 Zr22 2.385563 1_555
S27 Zr23 2.440148 1_455
S27 Zr20 2.802892 1_455
S27 Zr21 3.062696 1_555
S27 Zr11 3.087655 1_455
S28 Zr14 2.335562 1_566
S28 Zr19 2.576451 1_556
S28 Zr22 2.586908 1_555
S28 Zr16 2.998052 1_555
S29 Zr1 2.324755 1_555
S29 Zr0 2.583517 1_565
S29 Zr21 2.665387 1_555
S29 Zr20 2.911152 1_455
S30 Zr11 2.218988 1_555
S30 Zr21 2.276412 1_545
S30 Zr16 2.680099 1_545
S30 Zr23 2.823413 1_555
S30 Zr22 2.902921 1_545
S31 Zr20 2.336068 1_555
S31 Zr7 2.634345 1_555
S31 Zr23 2.736288 1_555
S31 Zr1 2.983035 1_655
