# generated using pymatgen
data_CaAl4(SiO6)2
_symmetry_space_group_name_H-M   'P 1'
_cell_length_a   5.19735114
_cell_length_b   5.22446083
_cell_length_c   19.37239058
_cell_angle_alpha   87.89514136
_cell_angle_beta   85.76540033
_cell_angle_gamma   60.17150990
_symmetry_Int_Tables_number   1
_chemical_formula_structural   CaAl4(SiO6)2
_chemical_formula_sum   'Ca2 Al8 Si4 O24'
_cell_volume   455.09089536
_cell_formula_units_Z   2
loop_
 _symmetry_equiv_pos_site_id
 _symmetry_equiv_pos_as_xyz
  1  'x, y, z'
loop_
 _atom_site_type_symbol
 _atom_site_label
 _atom_site_symmetry_multiplicity
 _atom_site_fract_x
 _atom_site_fract_y
 _atom_site_fract_z
 _atom_site_occupancy
  Ca  Ca0  1  0.90749200  0.18501600  0.25000000  1
  Ca  Ca1  1  0.09250800  0.81498400  0.75000000  1
  Al  Al0  1  0.17846100  0.19499400  0.50060800  1
  Al  Al1  1  0.62654500  0.19499400  0.99939200  1
  Al  Al2  1  0.82153900  0.80500600  0.49939200  1
  Al  Al3  1  0.37345500  0.80500600  0.00060800  1
  Al  Al4  1  0.20145400  0.51416400  0.35723700  1
  Al  Al5  1  0.28438200  0.51416400  0.14276300  1
  Al  Al6  1  0.79854600  0.48583600  0.64276400  1
  Al  Al7  1  0.71561800  0.48583600  0.85723600  1
  Si  Si0  1  0.54082500  0.85785000  0.35550700  1
  Si  Si1  1  0.60132400  0.85785000  0.14449200  1
  Si  Si2  1  0.45917500  0.14215000  0.64449300  1
  Si  Si3  1  0.39867600  0.14215000  0.85550700  1
  O  O0  1  0.50112100  0.57889200  0.33147700  1
  O  O1  1  0.91998800  0.57889200  0.16852300  1
  O  O2  1  0.49887900  0.42110800  0.66852300  1
  O  O3  1  0.08001200  0.42110800  0.83147700  1
  O  O4  1  0.92509500  0.08133700  0.46561900  1
  O  O5  1  0.99356900  0.08133700  0.03438100  1
  O  O6  1  0.07490500  0.91866300  0.53438100  1
  O  O7  1  0.00643100  0.91866300  0.96561900  1
  O  O8  1  0.12137500  0.49959400  0.44419900  1
  O  O9  1  0.37903200  0.49959400  0.05580100  1
  O  O10  1  0.87862500  0.50040600  0.55580100  1
  O  O11  1  0.62096800  0.50040600  0.94419900  1
  O  O12  1  0.28176600  0.16714500  0.32133800  1
  O  O13  1  0.55108900  0.16714500  0.17866200  1
  O  O14  1  0.71823400  0.83285500  0.67866200  1
  O  O15  1  0.44891100  0.83285500  0.82133800  1
  O  O16  1  0.86939600  0.79727800  0.32099800  1
  O  O17  1  0.33332700  0.79727800  0.17900200  1
  O  O18  1  0.13060400  0.20272200  0.67900200  1
  O  O19  1  0.66667300  0.20272200  0.82099800  1
  O  O20  1  0.51850200  0.90430900  0.43951600  1
  O  O21  1  0.57718900  0.90430900  0.06048400  1
  O  O22  1  0.48149800  0.09569100  0.56048400  1
  O  O23  1  0.42281100  0.09569100  0.93951600  1
loop_
_geom_bond_atom_site_label_1
_geom_bond_atom_site_label_2
_geom_bond_distance
_geom_bond_site_symmetry_2
Ca0 O13 2.430924 1_555
Ca0 O12 2.430924 1_655
Ca0 O16 2.487691 1_545
Ca0 O17 2.487693 1_645
Ca0 O0 2.570854 1_555
Ca0 O1 2.570856 1_555
Ca1 O15 2.430924 1_555
Ca1 O14 2.430924 1_455
Ca1 O18 2.487691 1_565
Ca1 O19 2.487693 1_465
Ca1 O2 2.570854 1_555
Ca1 O3 2.570856 1_555
Al0 O8 1.806955 1_555
Al0 O6 1.858372 1_545
Al0 O4 1.866906 1_455
Al0 O22 1.872948 1_555
Al0 O10 1.877047 1_455
Al0 O20 1.995876 1_545
Al1 O9 1.806954 1_556
Al1 O7 1.858368 1_645
Al1 O5 1.866910 1_556
Al1 O23 1.872948 1_555
Al1 O11 1.877045 1_555
Al1 O21 1.995877 1_546
Al2 O10 1.806955 1_555
Al2 O4 1.858372 1_565
Al2 O6 1.866906 1_655
Al2 O20 1.872948 1_555
Al2 O8 1.877047 1_655
Al2 O22 1.995876 1_565
Al3 O11 1.806954 1_554
Al3 O5 1.858368 1_465
Al3 O7 1.866910 1_554
Al3 O21 1.872948 1_555
Al3 O9 1.877045 1_555
Al3 O23 1.995877 1_564
Al4 O8 1.713374 1_555
Al4 O0 1.784908 1_555
Al4 O16 1.795079 1_455
Al4 O12 1.800478 1_555
Al5 O9 1.713375 1_555
Al5 O1 1.784903 1_455
Al5 O17 1.795082 1_555
Al5 O13 1.800478 1_555
Al6 O10 1.713393 1_555
Al6 O2 1.784904 1_555
Al6 O18 1.795071 1_655
Al6 O14 1.800470 1_555
Al7 O11 1.713394 1_555
Al7 O3 1.784899 1_655
Al7 O19 1.795074 1_555
Al7 O15 1.800470 1_555
O0 Si0 1.657265 1_555
O1 Si1 1.657277 1_555
O2 Si2 1.657265 1_555
O3 Si3 1.657271 1_555
O4 O6 1.585782 1_645
O5 O7 1.585785 1_644
O12 Si0 1.658552 1_545
O13 Si1 1.658562 1_545
O14 Si2 1.658552 1_565
O15 Si3 1.658554 1_565
O16 Si0 1.665124 1_555
O17 Si1 1.665121 1_555
O18 Si2 1.665124 1_555
O19 Si3 1.665114 1_555
O20 Si0 1.641372 1_555
O21 Si1 1.641353 1_555
O22 Si2 1.641372 1_555
O23 Si3 1.641372 1_555
