# generated using pymatgen
data_AlNi3Sb
_symmetry_space_group_name_H-M   'P 1'
_cell_length_a   4.11901279
_cell_length_b   4.11901279
_cell_length_c   4.93845600
_cell_angle_alpha   90.00000000
_cell_angle_beta   90.00000000
_cell_angle_gamma   119.99111412
_symmetry_Int_Tables_number   1
_chemical_formula_structural   AlNi3Sb
_chemical_formula_sum   'Al1 Ni3 Sb1'
_cell_volume   72.56830524
_cell_formula_units_Z   1
loop_
 _symmetry_equiv_pos_site_id
 _symmetry_equiv_pos_as_xyz
  1  'x, y, z'
loop_
 _atom_site_type_symbol
 _atom_site_label
 _atom_site_symmetry_multiplicity
 _atom_site_fract_x
 _atom_site_fract_y
 _atom_site_fract_z
 _atom_site_occupancy
  Al  Al0  1  0.66668300  0.33331700  0.25000000  1
  Ni  Ni0  1  0.00000500  0.99999500  0.49426200  1
  Ni  Ni1  1  0.00000500  0.99999500  0.00573800  1
  Ni  Ni2  1  0.66667400  0.33332600  0.75000000  1
  Sb  Sb0  1  0.33333300  0.66666700  0.75000000  1
loop_
_geom_bond_atom_site_label_1
_geom_bond_atom_site_label_2
_geom_bond_distance
_geom_bond_site_symmetry_2
Al0 Ni2 2.469228 1_554
Al0 Ni2 2.469228 1_555
Al0 Ni0 2.666390 1_645
Al0 Ni1 2.666390 1_645
Al0 Ni0 2.666783 1_655
Al0 Ni1 2.666783 1_545
Al0 Ni1 2.666783 1_655
Al0 Ni0 2.666783 1_545
Ni0 Ni1 2.412554 1_555
Ni0 Ni1 2.525902 1_556
Ni0 Sb0 2.692541 1_555
Ni0 Ni2 2.692560 1_465
Ni0 Ni2 2.692865 1_455
Ni0 Ni2 2.692865 1_565
Ni0 Sb0 2.692874 1_455
Ni0 Sb0 2.692874 1_565
Ni1 Sb0 2.692541 1_554
Ni1 Ni2 2.692560 1_464
Ni1 Ni2 2.692865 1_564
Ni1 Ni2 2.692865 1_454
Ni1 Sb0 2.692874 1_454
Ni1 Sb0 2.692874 1_564
Ni2 Sb0 2.378061 1_555
Ni2 Sb0 2.378299 1_545
Ni2 Sb0 2.378299 1_655
