# generated using pymatgen
data_Li7Mn2(CoO4)3
_symmetry_space_group_name_H-M   'P 1'
_cell_length_a   2.91632400
_cell_length_b   5.90332900
_cell_length_c   12.79323478
_cell_angle_alpha   77.02666532
_cell_angle_beta   90.00000000
_cell_angle_gamma   90.00000000
_symmetry_Int_Tables_number   1
_chemical_formula_structural   Li7Mn2(CoO4)3
_chemical_formula_sum   'Li7 Mn2 Co3 O12'
_cell_volume   214.62666439
_cell_formula_units_Z   1
loop_
 _symmetry_equiv_pos_site_id
 _symmetry_equiv_pos_as_xyz
  1  'x, y, z'
loop_
 _atom_site_type_symbol
 _atom_site_label
 _atom_site_symmetry_multiplicity
 _atom_site_fract_x
 _atom_site_fract_y
 _atom_site_fract_z
 _atom_site_occupancy
  Li  Li0  1  0.00000000  0.32016600  0.34793300  1
  Li  Li1  1  0.50000000  0.16686300  0.16584000  1
  Li  Li2  1  0.00000000  0.00000000  0.00000000  1
  Li  Li3  1  0.50000000  0.83313700  0.83416000  1
  Li  Li4  1  0.00000000  0.67983400  0.65206700  1
  Li  Li5  1  0.50000000  0.50000000  0.50000000  1
  Li  Li6  1  0.50000000  0.00000000  0.50000000  1
  Mn  Mn0  1  0.00000000  0.16545700  0.65916200  1
  Mn  Mn1  1  0.00000000  0.83454300  0.34083800  1
  Co  Co0  1  0.50000000  0.66906700  0.16551900  1
  Co  Co1  1  0.00000000  0.50000000  0.00000000  1
  Co  Co2  1  0.50000000  0.33093300  0.83448100  1
  O  O0  1  0.00000000  0.89390700  0.17478400  1
  O  O1  1  0.50000000  0.73853300  0.00253600  1
  O  O2  1  0.00000000  0.56352300  0.83794400  1
  O  O3  1  0.50000000  0.38933700  0.66947900  1
  O  O4  1  0.00000000  0.24361000  0.51375400  1
  O  O5  1  0.50000000  0.05610100  0.33176200  1
  O  O6  1  0.00000000  0.75639000  0.48624600  1
  O  O7  1  0.50000000  0.61066300  0.33052100  1
  O  O8  1  0.00000000  0.43647700  0.16205600  1
  O  O9  1  0.50000000  0.26146700  0.99746400  1
  O  O10  1  0.00000000  0.10609300  0.82521600  1
  O  O11  1  0.50000000  0.94389900  0.66823800  1
loop_
_geom_bond_atom_site_label_1
_geom_bond_atom_site_label_2
_geom_bond_distance
_geom_bond_site_symmetry_2
Li0 O4 2.067381 1_555
Li0 O5 2.178047 1_455
Li0 O5 2.178047 1_555
Li0 O7 2.223785 1_455
Li0 O7 2.223785 1_555
Li0 O8 2.322300 1_555
Li1 O5 2.076084 1_555
Li1 O9 2.100426 1_554
Li1 O8 2.151102 1_555
Li1 O8 2.151102 1_655
Li1 O0 2.157079 1_545
Li1 O0 2.157079 1_645
Li2 O9 2.118319 1_554
Li2 O9 2.118319 1_454
Li2 O1 2.118319 1_445
Li2 O1 2.118319 1_545
Li2 O0 2.182520 1_545
Li2 O10 2.182520 1_554
Li3 O11 2.076084 1_555
Li3 O1 2.100426 1_556
Li3 O2 2.151102 1_655
Li3 O2 2.151102 1_555
Li3 O10 2.157079 1_565
Li3 O10 2.157079 1_665
Li4 O6 2.067381 1_555
Li4 O11 2.178047 1_555
Li4 O11 2.178047 1_455
Li4 O3 2.223785 1_455
Li4 O3 2.223785 1_555
Li4 O2 2.322300 1_555
Li5 O6 2.080497 1_655
Li5 O6 2.080497 1_555
Li5 O4 2.080497 1_555
Li5 O4 2.080497 1_655
Li5 O3 2.119393 1_555
Li5 O7 2.119393 1_555
Li6 O4 2.083021 1_555
Li6 O4 2.083021 1_655
Li6 O6 2.083021 1_645
Li6 O6 2.083021 1_545
Li6 O11 2.102871 1_545
Li6 O5 2.102871 1_555
Mn0 O4 1.813283 1_555
Mn0 O11 1.944791 1_445
Mn0 O11 1.944791 1_545
Mn0 O3 1.992161 1_455
Mn0 O3 1.992161 1_555
Mn0 O10 2.074002 1_555
Mn1 O6 1.813283 1_555
Mn1 O5 1.944791 1_565
Mn1 O5 1.944791 1_465
Mn1 O7 1.992161 1_455
Mn1 O7 1.992161 1_555
Mn1 O0 2.074002 1_555
Co0 O0 1.993153 1_655
Co0 O0 1.993153 1_555
Co0 O8 2.010172 1_555
Co0 O8 2.010172 1_655
Co0 O1 2.032685 1_555
Co0 O7 2.061076 1_555
Co1 O8 2.022324 1_555
Co1 O2 2.022324 1_554
Co1 O1 2.032402 1_555
Co1 O1 2.032402 1_455
Co1 O9 2.032402 1_554
Co1 O9 2.032402 1_454
Co2 O10 1.993153 1_555
Co2 O10 1.993153 1_655
Co2 O2 2.010172 1_555
Co2 O2 2.010172 1_655
Co2 O9 2.032685 1_555
Co2 O3 2.061076 1_555
