# generated using pymatgen
data_TbNd(NiGe2)2
_symmetry_space_group_name_H-M   'P 1'
_cell_length_a   4.22033700
_cell_length_b   4.17356200
_cell_length_c   8.60040766
_cell_angle_alpha   75.95774264
_cell_angle_beta   90.00000000
_cell_angle_gamma   90.00000000
_symmetry_Int_Tables_number   1
_chemical_formula_structural   TbNd(NiGe2)2
_chemical_formula_sum   'Tb1 Nd1 Ni2 Ge4'
_cell_volume   146.95933228
_cell_formula_units_Z   1
loop_
 _symmetry_equiv_pos_site_id
 _symmetry_equiv_pos_as_xyz
  1  'x, y, z'
loop_
 _atom_site_type_symbol
 _atom_site_label
 _atom_site_symmetry_multiplicity
 _atom_site_fract_x
 _atom_site_fract_y
 _atom_site_fract_z
 _atom_site_occupancy
  Tb  Tb0  1  0.75000000  0.10846400  0.78307200  1
  Nd  Nd0  1  0.25000000  0.89239500  0.21520900  1
  Ni  Ni0  1  0.25000000  0.67999700  0.64000700  1
  Ni  Ni1  1  0.75000000  0.31927300  0.36145500  1
  Ge  Ge0  1  0.25000000  0.25056400  0.49887200  1
  Ge  Ge1  1  0.75000000  0.74723700  0.50552600  1
  Ge  Ge2  1  0.25000000  0.54280500  0.91438900  1
  Ge  Ge3  1  0.75000000  0.45926500  0.08147000  1
loop_
_geom_bond_atom_site_label_1
_geom_bond_atom_site_label_2
_geom_bond_distance
_geom_bond_site_symmetry_2
Nd0 Ni1 3.208786 1_455
Nd0 Ni1 3.208786 1_555
Nd0 Ni1 3.208792 1_465
Nd0 Ni1 3.208792 1_565
Ni0 Tb0 3.198790 1_565
Ni0 Tb0 3.198790 1_465
Ni0 Tb0 3.198792 1_555
Ni0 Tb0 3.198792 1_455
Ge0 Ni0 2.396093 1_545
Ge0 Ni0 2.396096 1_555
Ge0 Ni1 2.401527 1_555
Ge0 Ni1 2.401527 1_455
Ge0 Nd0 3.155310 1_555
Ge0 Nd0 3.155313 1_545
Ge0 Tb0 3.174173 1_555
Ge0 Tb0 3.174173 1_455
Ge1 Ni0 2.389929 1_655
Ge1 Ni0 2.389929 1_555
Ge1 Ni1 2.408226 1_555
Ge1 Ni1 2.408229 1_565
Ge1 Tb0 3.117213 1_565
Ge1 Tb0 3.117213 1_555
Ge1 Nd0 3.212478 1_555
Ge1 Nd0 3.212478 1_655
Ge2 Ni0 2.289279 1_555
Ge2 Ge3 2.529054 1_456
Ge2 Ge3 2.529054 1_556
Ge2 Tb0 3.163521 1_555
Ge2 Tb0 3.163521 1_455
Ge2 Tb0 3.163524 1_565
Ge2 Tb0 3.163524 1_465
Ge2 Nd0 3.264056 1_556
Ge2 Nd0 3.264056 1_546
Ge3 Ni1 2.336027 1_555
Ge3 Nd0 3.170576 1_655
Ge3 Nd0 3.170576 1_555
Ge3 Nd0 3.170579 1_545
Ge3 Nd0 3.170579 1_645
Ge3 Tb0 3.248543 1_564
Ge3 Tb0 3.248543 1_554
