# generated using pymatgen
data_Na2TlPb
_symmetry_space_group_name_H-M   'P 1'
_cell_length_a   12.71695476
_cell_length_b   12.81656423
_cell_length_c   12.81656373
_cell_angle_alpha   60.32663777
_cell_angle_beta   60.25663365
_cell_angle_gamma   60.25663041
_symmetry_Int_Tables_number   1
_chemical_formula_structural   Na2TlPb
_chemical_formula_sum   'Na2 Tl1 Pb1'
_cell_volume   1486.46278249
_cell_formula_units_Z   1
loop_
 _symmetry_equiv_pos_site_id
 _symmetry_equiv_pos_as_xyz
  1  'x, y, z'
loop_
 _atom_site_type_symbol
 _atom_site_label
 _atom_site_symmetry_multiplicity
 _atom_site_fract_x
 _atom_site_fract_y
 _atom_site_fract_z
 _atom_site_occupancy
  Na  Na0  1  0.74629341  0.00000047  0.00000047  1
  Na  Na1  1  0.25370659  -0.00000047  0.99999953  1
  Tl  Tl0  1  0.00000000  -0.00000000  -0.00000000  1
  Pb  Pb0  1  0.50000000  -0.00000000  -0.00000000  1
loop_
_geom_bond_atom_site_label_1
_geom_bond_atom_site_label_2
_geom_bond_distance
_geom_bond_site_symmetry_2
Na0 Pb0 3.132108 1_555
Na0 Tl0 3.226369 1_655
Na1 Pb0 3.132108 1_556
Na1 Tl0 3.226369 1_556
