# generated using pymatgen
data_FeP2O9
_symmetry_space_group_name_H-M   'P 1'
_cell_length_a   9.26045587
_cell_length_b   9.26045587
_cell_length_c   17.12525800
_cell_angle_alpha   90.00000000
_cell_angle_beta   90.00000000
_cell_angle_gamma   119.99999909
_symmetry_Int_Tables_number   1
_chemical_formula_structural   FeP2O9
_chemical_formula_sum   'Fe6 P12 O54'
_cell_volume   1271.84003613
_cell_formula_units_Z   6
loop_
 _symmetry_equiv_pos_site_id
 _symmetry_equiv_pos_as_xyz
  1  'x, y, z'
loop_
 _atom_site_type_symbol
 _atom_site_label
 _atom_site_symmetry_multiplicity
 _atom_site_fract_x
 _atom_site_fract_y
 _atom_site_fract_z
 _atom_site_occupancy
  Fe  Fe0  1  0.00000000  0.00000000  0.49716700  1
  Fe  Fe1  1  0.00000000  0.00000000  0.99716700  1
  Fe  Fe2  1  0.66666700  0.33333300  0.29405700  1
  Fe  Fe3  1  0.33333300  0.66666700  0.79405700  1
  Fe  Fe4  1  0.66666700  0.33333300  0.57576600  1
  Fe  Fe5  1  0.33333300  0.66666700  0.07576600  1
  P  P0  1  0.89021300  0.26844000  0.43802600  1
  P  P1  1  0.37822700  0.10978700  0.43802600  1
  P  P2  1  0.73156000  0.62177300  0.43802600  1
  P  P3  1  0.62177300  0.73156000  0.93802600  1
  P  P4  1  0.26844000  0.89021300  0.93802600  1
  P  P5  1  0.10978700  0.37822700  0.93802600  1
  P  P6  1  0.56273500  0.53324300  0.16353600  1
  P  P7  1  0.97050800  0.43726500  0.16353600  1
  P  P8  1  0.46675700  0.02949200  0.16353600  1
  P  P9  1  0.02949200  0.46675700  0.66353600  1
  P  P10  1  0.53324300  0.56273500  0.66353600  1
  P  P11  1  0.43726500  0.97050800  0.66353600  1
  O  O0  1  0.78587500  0.24185800  0.51152500  1
  O  O1  1  0.45598300  0.21412500  0.51152500  1
  O  O2  1  0.75814200  0.54401700  0.51152500  1
  O  O3  1  0.54401700  0.75814200  0.01152500  1
  O  O4  1  0.24185800  0.78587500  0.01152500  1
  O  O5  1  0.21412500  0.45598300  0.01152500  1
  O  O6  1  0.95174600  0.14110300  0.43174500  1
  O  O7  1  0.18935700  0.04825400  0.43174500  1
  O  O8  1  0.85889700  0.81064300  0.43174500  1
  O  O9  1  0.81064300  0.85889700  0.93174500  1
  O  O10  1  0.14110300  0.95174600  0.93174500  1
  O  O11  1  0.04825400  0.18935700  0.93174500  1
  O  O12  1  0.04008200  0.44982800  0.43719400  1
  O  O13  1  0.40974600  0.95991800  0.43719400  1
  O  O14  1  0.55017200  0.59025400  0.43719400  1
  O  O15  1  0.59025400  0.55017200  0.93719400  1
  O  O16  1  0.44982800  0.04008200  0.93719400  1
  O  O17  1  0.95991800  0.40974600  0.93719400  1
  O  O18  1  0.79755700  0.26003400  0.36217200  1
  O  O19  1  0.46247700  0.20244300  0.36217200  1
  O  O20  1  0.73996600  0.53752300  0.36217200  1
  O  O21  1  0.53752300  0.73996600  0.86217200  1
  O  O22  1  0.26003400  0.79755700  0.86217200  1
  O  O23  1  0.20244300  0.46247700  0.86217200  1
  O  O24  1  0.53916500  0.40945600  0.22834300  1
  O  O25  1  0.87029200  0.46083500  0.22834300  1
  O  O26  1  0.59054400  0.12970800  0.22834300  1
  O  O27  1  0.12970800  0.59054400  0.72834300  1
  O  O28  1  0.40945600  0.53916500  0.72834300  1
  O  O29  1  0.46083500  0.87029200  0.72834300  1
  O  O30  1  0.70650800  0.71165200  0.18382900  1
  O  O31  1  0.00514400  0.29349200  0.18382900  1
  O  O32  1  0.28834800  0.99485600  0.18382900  1
  O  O33  1  0.99485600  0.28834800  0.68382900  1
  O  O34  1  0.71165200  0.70650800  0.68382900  1
  O  O35  1  0.29349200  0.00514400  0.68382900  1
  O  O36  1  0.40177600  0.53649700  0.14859200  1
  O  O37  1  0.13472100  0.59822400  0.14859200  1
  O  O38  1  0.46350300  0.86527900  0.14859200  1
  O  O39  1  0.86527900  0.46350300  0.64859200  1
  O  O40  1  0.53649700  0.40177600  0.64859200  1
  O  O41  1  0.59822400  0.13472100  0.64859200  1
  O  O42  1  0.63331900  0.49911300  0.08802900  1
  O  O43  1  0.86579400  0.36668100  0.08802900  1
  O  O44  1  0.50088700  0.13420600  0.08802900  1
  O  O45  1  0.13420600  0.50088700  0.58802900  1
  O  O46  1  0.49911300  0.63331900  0.58802900  1
  O  O47  1  0.36668100  0.86579400  0.58802900  1
  O  O48  1  0.11924900  0.14868100  0.56862800  1
  O  O49  1  0.02943200  0.88075100  0.56862800  1
  O  O50  1  0.85131900  0.97056800  0.56862800  1
  O  O51  1  0.97056800  0.85131900  0.06862800  1
  O  O52  1  0.14868100  0.11924900  0.06862800  1
  O  O53  1  0.88075100  0.02943200  0.06862800  1
loop_
_geom_bond_atom_site_label_1
_geom_bond_atom_site_label_2
_geom_bond_distance
_geom_bond_site_symmetry_2
Fe0 O49 1.758523 1_545
Fe0 O50 1.758523 1_445
Fe0 O48 1.758523 1_555
Fe0 O6 1.935512 1_455
Fe0 O7 1.935512 1_555
Fe0 O8 1.935512 1_445
Fe1 O53 1.758523 1_456
Fe1 O51 1.758523 1_446
Fe1 O52 1.758523 1_556
Fe1 O10 1.935512 1_545
Fe1 O11 1.935512 1_555
Fe1 O9 1.935512 1_445
Fe2 O24 1.997458 1_555
Fe2 O26 1.997458 1_555
Fe2 O25 1.997458 1_555
Fe2 O18 2.028147 1_555
Fe2 O19 2.028152 1_555
Fe2 O20 2.028154 1_555
Fe3 O28 1.997458 1_555
Fe3 O27 1.997458 1_555
Fe3 O29 1.997458 1_555
Fe3 O22 2.028147 1_555
Fe3 O23 2.028152 1_555
Fe3 O21 2.028154 1_555
Fe4 O0 2.020313 1_555
Fe4 O1 2.020320 1_555
Fe4 O2 2.020320 1_555
Fe4 O41 2.043086 1_555
Fe4 O39 2.043087 1_555
Fe4 O40 2.043093 1_555
Fe5 O4 2.020313 1_555
Fe5 O5 2.020320 1_555
Fe5 O3 2.020320 1_555
Fe5 O37 2.043086 1_555
Fe5 O38 2.043087 1_555
Fe5 O36 2.043093 1_555
O0 P0 1.529910 1_555
O1 P1 1.529910 1_555
O2 P2 1.529910 1_555
O3 P3 1.529910 1_554
O4 P4 1.529910 1_554
O5 P5 1.529910 1_554
O6 P0 1.548778 1_555
O7 P1 1.548778 1_555
O8 P2 1.548778 1_555
O9 P3 1.548778 1_555
O10 P4 1.548778 1_555
O11 P5 1.548778 1_555
O12 P0 1.554550 1_455
O13 P1 1.554550 1_565
O14 P2 1.554550 1_555
O15 P3 1.554550 1_555
O16 P4 1.554550 1_545
O17 P5 1.554550 1_655
O18 P0 1.537188 1_555
O19 P1 1.537188 1_555
O20 P2 1.537188 1_555
O21 P3 1.537188 1_555
O22 P4 1.537188 1_555
O23 P5 1.537188 1_555
O24 P6 1.530761 1_555
O25 P7 1.530755 1_555
O26 P8 1.530759 1_555
O27 P9 1.530759 1_555
O28 P10 1.530761 1_555
O29 P11 1.530755 1_555
O30 P6 1.556704 1_555
O31 P7 1.556704 1_455
O32 P8 1.556704 1_565
O33 P9 1.556704 1_655
O34 P10 1.556704 1_555
O35 P11 1.556704 1_545
O36 P6 1.527439 1_555
O37 P7 1.527439 1_455
O38 P8 1.527439 1_565
O39 P9 1.527439 1_655
O40 P10 1.527439 1_555
O41 P11 1.527439 1_545
O42 P6 1.551056 1_555
O43 P7 1.551056 1_555
O44 P8 1.551056 1_555
O45 P9 1.551056 1_555
O46 P10 1.551056 1_555
O47 P11 1.551056 1_555
