# generated using pymatgen
data_Ca2YAs(WO6)2
_symmetry_space_group_name_H-M   'P 1'
_cell_length_a   17.67691197
_cell_length_b   17.67691197
_cell_length_c   17.67691197
_cell_angle_alpha   163.05470856
_cell_angle_beta   163.05470856
_cell_angle_gamma   24.05325957
_symmetry_Int_Tables_number   1
_chemical_formula_structural   Ca2YAs(WO6)2
_chemical_formula_sum   'Ca4 Y2 As2 W4 O24'
_cell_volume   469.10012540
_cell_formula_units_Z   2
loop_
 _symmetry_equiv_pos_site_id
 _symmetry_equiv_pos_as_xyz
  1  'x, y, z'
loop_
 _atom_site_type_symbol
 _atom_site_label
 _atom_site_symmetry_multiplicity
 _atom_site_fract_x
 _atom_site_fract_y
 _atom_site_fract_z
 _atom_site_occupancy
  Ca  Ca0  1  0.91366500  0.41366500  0.50000000  1
  Ca  Ca1  1  0.16366500  0.16366500  0.00000000  1
  Ca  Ca2  1  0.83633500  0.83633500  0.00000000  1
  Ca  Ca3  1  0.58633500  0.08633500  0.50000000  1
  Y  Y0  1  0.50000000  0.50000000  0.00000000  1
  Y  Y1  1  0.25000000  0.75000000  0.50000000  1
  As  As0  1  0.75000000  0.25000000  0.50000000  1
  As  As1  1  0.00000000  0.00000000  0.00000000  1
  W  W0  1  0.07470200  0.57470200  0.50000000  1
  W  W1  1  0.67529800  0.67529800  0.00000000  1
  W  W2  1  0.42529800  0.92529800  0.50000000  1
  W  W3  1  0.32470200  0.32470200  0.00000000  1
  O  O0  1  0.52980400  0.01889800  0.10296300  1
  O  O1  1  0.17684100  0.77980400  0.01090600  1
  O  O2  1  0.76889800  0.16593500  0.98909400  1
  O  O3  1  0.91593500  0.42684100  0.89703700  1
  O  O4  1  0.22019600  0.23110200  0.39703700  1
  O  O5  1  0.57315900  0.47019600  0.48909400  1
  O  O6  1  0.98110200  0.08406500  0.51090600  1
  O  O7  1  0.83406500  0.82315900  0.60296300  1
  O  O8  1  0.98237800  0.86372300  0.45354300  1
  O  O9  1  0.27883600  0.23237800  0.61865500  1
  O  O10  1  0.61372300  0.66018100  0.38134500  1
  O  O11  1  0.41018100  0.52883600  0.54645700  1
  O  O12  1  0.97412500  0.84791400  0.60807000  1
  O  O13  1  0.11605500  0.22412500  0.62621100  1
  O  O14  1  0.59791400  0.48984400  0.37378900  1
  O  O15  1  0.23984400  0.36605500  0.39193000  1
  O  O16  1  0.77587500  0.40208600  0.89193000  1
  O  O17  1  0.63394500  0.02587500  0.87378900  1
  O  O18  1  0.15208600  0.76015600  0.12621100  1
  O  O19  1  0.51015600  0.88394500  0.10807000  1
  O  O20  1  0.33981900  0.72116400  0.95354300  1
  O  O21  1  0.13627700  0.58981900  0.11865500  1
  O  O22  1  0.47116400  0.01762200  0.88134500  1
  O  O23  1  0.76762200  0.38627700  0.04645700  1
loop_
_geom_bond_atom_site_label_1
_geom_bond_atom_site_label_2
_geom_bond_distance
_geom_bond_site_symmetry_2
Ca0 O10 2.348186 1_555
Ca0 O9 2.348186 1_655
Ca0 O17 2.447086 1_554
Ca0 O18 2.447086 1_656
Ca0 O13 2.478146 1_655
Ca0 O14 2.478146 1_555
Ca0 O2 2.806403 1_554
Ca0 O1 2.806403 1_656
Ca1 O8 2.348174 1_444
Ca1 O11 2.348191 1_555
Ca1 O16 2.447086 1_454
Ca1 O19 2.447086 1_545
Ca1 O15 2.478146 1_555
Ca1 O12 2.478146 1_444
Ca1 O0 2.806403 1_555
Ca1 O3 2.806403 1_454
Ca2 O22 2.348186 1_564
Ca2 O21 2.348186 1_655
Ca2 O13 2.447086 1_665
Ca2 O14 2.447086 1_554
Ca2 O18 2.478146 1_655
Ca2 O17 2.478146 1_564
Ca2 O6 2.806403 1_565
Ca2 O5 2.806403 1_554
Ca3 O23 2.348174 1_556
Ca3 O20 2.348191 1_544
Ca3 O12 2.447086 1_545
Ca3 O15 2.447086 1_555
Ca3 O16 2.478146 1_555
Ca3 O19 2.478146 1_545
Ca3 O4 2.806403 1_555
Ca3 O7 2.806403 1_545
As0 O3 1.737893 1_555
As0 O0 1.737893 1_555
As0 O5 1.737893 1_555
As0 O6 1.737893 1_555
As1 O7 1.737893 1_444
As1 O1 1.737893 1_545
As1 O4 1.737893 1_555
As1 O2 1.737893 1_454
O0 Y1 2.411217 1_544
O0 W1 2.468778 1_545
O1 Y0 2.411217 1_555
O1 W2 2.468778 1_555
O2 Y0 2.411217 1_556
O2 W2 2.468778 1_545
O3 Y1 2.411217 1_656
O3 W1 2.468778 1_556
O4 Y0 2.411217 1_556
O4 W0 2.468778 1_555
O5 Y1 2.411217 1_555
O5 W3 2.468778 1_555
O6 Y1 2.411217 1_645
O6 W3 2.468778 1_656
O7 Y0 2.411217 1_555
O7 W0 2.468778 1_655
O8 W1 1.872956 1_555
O8 Y1 2.335099 1_655
O9 W2 1.872960 1_545
O9 Y0 2.335086 1_556
O10 W2 1.872960 1_555
O10 Y0 2.335086 1_555
O11 W1 1.872970 1_556
O11 Y1 2.335072 1_555
O12 W0 1.816581 1_655
O13 W3 1.816581 1_556
O14 W3 1.816581 1_555
O15 W0 1.816581 1_555
O16 W1 1.816581 1_556
O17 W2 1.816581 1_545
O18 W2 1.816581 1_555
O19 W1 1.816581 1_555
O20 W0 1.872970 1_555
O20 Y0 2.335072 1_556
O21 W3 1.872960 1_555
O21 Y1 2.335086 1_555
O22 W3 1.872960 1_556
O22 Y1 2.335086 1_545
O23 W0 1.872956 1_655
O23 Y0 2.335099 1_555
