# generated using pymatgen
data_Sr4Be3Ge5
_symmetry_space_group_name_H-M   'P 1'
_cell_length_a   4.17851153
_cell_length_b   4.17851153
_cell_length_c   18.45155000
_cell_angle_alpha   90.00000000
_cell_angle_beta   90.00000000
_cell_angle_gamma   119.99999257
_symmetry_Int_Tables_number   1
_chemical_formula_structural   Sr4Be3Ge5
_chemical_formula_sum   'Sr4 Be3 Ge5'
_cell_volume   279.00162227
_cell_formula_units_Z   1
loop_
 _symmetry_equiv_pos_site_id
 _symmetry_equiv_pos_as_xyz
  1  'x, y, z'
loop_
 _atom_site_type_symbol
 _atom_site_label
 _atom_site_symmetry_multiplicity
 _atom_site_fract_x
 _atom_site_fract_y
 _atom_site_fract_z
 _atom_site_occupancy
  Sr  Sr0  1  0.33333300  0.66666700  0.63078400  1
  Sr  Sr1  1  0.33333300  0.66666700  0.36921600  1
  Sr  Sr2  1  0.33333300  0.66666700  0.12486800  1
  Sr  Sr3  1  0.33333300  0.66666700  0.87513200  1
  Be  Be0  1  0.00000000  0.00000000  0.25075100  1
  Be  Be1  1  0.00000000  0.00000000  0.00000000  1
  Be  Be2  1  0.00000000  0.00000000  0.74924900  1
  Ge  Ge0  1  0.66666700  0.33333300  0.50000000  1
  Ge  Ge1  1  0.66666700  0.33333300  0.25004400  1
  Ge  Ge2  1  0.66666700  0.33333300  0.00000000  1
  Ge  Ge3  1  0.66666700  0.33333300  0.74995600  1
  Ge  Ge4  1  0.00000000  0.00000000  0.50000000  1
loop_
_geom_bond_atom_site_label_1
_geom_bond_atom_site_label_2
_geom_bond_distance
_geom_bond_site_symmetry_2
Be0 Ge1 2.412498 1_455
Be0 Ge1 2.412501 1_445
Be0 Ge1 2.412501 1_555
Be0 Sr1 3.255452 1_545
Be0 Sr1 3.255455 1_555
Be0 Sr1 3.255455 1_445
Be0 Sr2 3.348892 1_545
Be0 Sr2 3.348895 1_555
Be0 Sr2 3.348895 1_445
Be1 Ge2 2.412462 1_455
Be1 Ge2 2.412466 1_555
Be1 Ge2 2.412466 1_445
Be1 Sr3 3.335930 1_544
Be1 Sr2 3.335930 1_545
Be1 Sr2 3.335933 1_555
Be1 Sr3 3.335933 1_554
Be1 Sr3 3.335933 1_444
Be1 Sr2 3.335933 1_445
Be2 Ge3 2.412498 1_455
Be2 Ge3 2.412501 1_555
Be2 Ge3 2.412501 1_445
Be2 Sr0 3.255452 1_545
Be2 Sr0 3.255455 1_555
Be2 Sr0 3.255455 1_445
Be2 Sr3 3.348892 1_545
Be2 Sr3 3.348895 1_555
Be2 Sr3 3.348895 1_445
Ge0 Ge4 2.412462 1_655
Ge0 Ge4 2.412466 1_555
Ge0 Ge4 2.412466 1_665
Ge0 Sr0 3.412236 1_545
Ge0 Sr1 3.412236 1_545
Ge0 Sr1 3.412236 1_655
Ge0 Sr0 3.412236 1_655
Ge0 Sr1 3.412241 1_555
Ge0 Sr0 3.412241 1_555
Ge1 Sr1 3.264226 1_545
Ge1 Sr1 3.264226 1_655
Ge1 Sr1 3.264231 1_555
Ge1 Sr2 3.339858 1_545
Ge1 Sr2 3.339858 1_655
Ge1 Sr2 3.339863 1_555
Ge2 Sr3 3.335930 1_544
Ge2 Sr3 3.335930 1_654
Ge2 Sr2 3.335930 1_545
Ge2 Sr2 3.335930 1_655
Ge2 Sr3 3.335935 1_554
Ge2 Sr2 3.335935 1_555
Ge3 Sr0 3.264226 1_655
Ge3 Sr0 3.264226 1_545
Ge3 Sr0 3.264231 1_555
Ge3 Sr3 3.339858 1_655
Ge3 Sr3 3.339858 1_545
Ge3 Sr3 3.339863 1_555
Ge4 Sr1 3.412236 1_545
Ge4 Sr0 3.412236 1_545
Ge4 Sr0 3.412238 1_445
Ge4 Sr1 3.412238 1_555
Ge4 Sr1 3.412238 1_445
Ge4 Sr0 3.412238 1_555
