# generated using pymatgen
data_CaMo3P3O13
_symmetry_space_group_name_H-M   'P 1'
_cell_length_a   6.68475400
_cell_length_b   7.83988200
_cell_length_c   10.72022981
_cell_angle_alpha   80.15397570
_cell_angle_beta   90.00000000
_cell_angle_gamma   90.00000000
_symmetry_Int_Tables_number   1
_chemical_formula_structural   CaMo3P3O13
_chemical_formula_sum   'Ca2 Mo6 P6 O26'
_cell_volume   553.54723772
_cell_formula_units_Z   2
loop_
 _symmetry_equiv_pos_site_id
 _symmetry_equiv_pos_as_xyz
  1  'x, y, z'
loop_
 _atom_site_type_symbol
 _atom_site_label
 _atom_site_symmetry_multiplicity
 _atom_site_fract_x
 _atom_site_fract_y
 _atom_site_fract_z
 _atom_site_occupancy
  Ca  Ca0  1  0.75000000  0.35213800  0.19428500  1
  Ca  Ca1  1  0.25000000  0.64786200  0.80571500  1
  Mo  Mo0  1  0.25000000  0.63901600  0.20488900  1
  Mo  Mo1  1  0.75000000  0.36098400  0.79511100  1
  Mo  Mo2  1  0.25000000  0.22880000  0.44195000  1
  Mo  Mo3  1  0.50000000  0.00000000  0.00000000  1
  Mo  Mo4  1  0.75000000  0.77120000  0.55805000  1
  Mo  Mo5  1  0.00000000  0.00000000  0.00000000  1
  P  P0  1  0.25000000  0.78685400  0.49304800  1
  P  P1  1  0.75000000  0.21314600  0.50695200  1
  P  P2  1  0.25000000  0.26251900  0.76653200  1
  P  P3  1  0.75000000  0.73748100  0.23346800  1
  P  P4  1  0.75000000  0.68306900  0.88875900  1
  P  P5  1  0.25000000  0.31693100  0.11124100  1
  O  O0  1  0.75000000  0.64661100  0.74831100  1
  O  O1  1  0.56863600  0.24825500  0.41394300  1
  O  O2  1  0.25000000  0.20029100  0.64043500  1
  O  O3  1  0.55331700  0.78056000  0.90457000  1
  O  O4  1  0.75000000  0.34387200  0.59948600  1
  O  O5  1  0.75000000  0.11945400  0.90275300  1
  O  O6  1  0.25000000  0.65612800  0.40051400  1
  O  O7  1  0.05331700  0.21944000  0.09543000  1
  O  O8  1  0.25000000  0.97218400  0.41596800  1
  O  O9  1  0.75000000  0.02781600  0.58403200  1
  O  O10  1  0.07069000  0.37983900  0.78729700  1
  O  O11  1  0.25000000  0.88054600  0.09724700  1
  O  O12  1  0.57069000  0.62016100  0.21270300  1
  O  O13  1  0.75000000  0.49668400  0.96646500  1
  O  O14  1  0.75000000  0.79970900  0.35956500  1
  O  O15  1  0.44668300  0.21944000  0.09543000  1
  O  O16  1  0.93136400  0.24825500  0.41394300  1
  O  O17  1  0.43136400  0.75174500  0.58605700  1
  O  O18  1  0.42931000  0.37983900  0.78729700  1
  O  O19  1  0.25000000  0.35338900  0.25168900  1
  O  O20  1  0.75000000  0.90523100  0.12770200  1
  O  O21  1  0.25000000  0.09476900  0.87229800  1
  O  O22  1  0.92931000  0.62016100  0.21270300  1
  O  O23  1  0.94668300  0.78056000  0.90457000  1
  O  O24  1  0.06863600  0.75174500  0.58605700  1
  O  O25  1  0.25000000  0.50331600  0.03353500  1
loop_
_geom_bond_atom_site_label_1
_geom_bond_atom_site_label_2
_geom_bond_distance
_geom_bond_site_symmetry_2
Ca0 O12 2.456207 1_555
Ca0 O22 2.456207 1_555
Ca0 O13 2.510458 1_554
Ca0 O7 2.587196 1_655
Ca0 O15 2.587196 1_555
Ca0 O16 2.649955 1_555
Ca0 O1 2.649955 1_555
Ca1 O18 2.456207 1_555
Ca1 O10 2.456207 1_555
Ca1 O25 2.510458 1_556
Ca1 O3 2.587196 1_555
Ca1 O23 2.587196 1_455
Ca1 O17 2.649955 1_555
Ca1 O24 2.649955 1_555
Mo0 O11 2.042030 1_555
Mo0 O6 2.124202 1_555
Mo0 O12 2.149471 1_555
Mo0 O22 2.149471 1_455
Mo0 O19 2.209495 1_555
Mo0 O25 2.274773 1_555
Mo1 O5 2.042030 1_555
Mo1 O4 2.124202 1_555
Mo1 O10 2.149471 1_655
Mo1 O18 2.149471 1_555
Mo1 O0 2.209495 1_555
Mo1 O13 2.274773 1_555
Mo2 O8 2.077672 1_545
Mo2 O2 2.101157 1_555
Mo2 O19 2.105434 1_555
Mo2 O1 2.152826 1_555
Mo2 O16 2.152826 1_455
Mo3 O5 2.103055 1_554
Mo3 O11 2.103055 1_545
Mo3 O3 2.176067 1_544
Mo3 O15 2.176067 1_555
Mo3 O20 2.207073 1_545
Mo3 O21 2.207073 1_554
Mo4 O9 2.077672 1_565
Mo4 O14 2.101157 1_555
Mo4 O0 2.105434 1_555
Mo4 O24 2.152826 1_655
Mo4 O17 2.152826 1_555
Mo5 O5 2.103055 1_454
Mo5 O11 2.103055 1_545
Mo5 O7 2.176067 1_555
Mo5 O23 2.176067 1_444
Mo5 O20 2.207073 1_445
Mo5 O21 2.207073 1_554
O0 P4 1.579814 1_555
O1 P1 1.563942 1_555
O2 P2 1.513567 1_555
O3 P4 1.544622 1_555
O4 P1 1.543408 1_555
O6 P0 1.543408 1_555
O7 P5 1.544622 1_555
O8 P0 1.543792 1_555
O9 P1 1.543792 1_555
O10 P2 1.549938 1_555
O12 P3 1.549938 1_555
O13 P4 1.553333 1_555
O14 P3 1.513567 1_555
O15 P5 1.544622 1_555
O16 P1 1.563942 1_555
O17 P0 1.563942 1_555
O18 P2 1.549938 1_555
O19 P5 1.579814 1_555
O20 P3 1.582782 1_555
O21 P2 1.582782 1_555
O22 P3 1.549938 1_555
O23 P4 1.544622 1_555
O24 P0 1.563942 1_555
O25 P5 1.553333 1_555
