# generated using pymatgen
data_Ca4ZrN4
_symmetry_space_group_name_H-M   'P 1'
_cell_length_a   6.13180236
_cell_length_b   6.13083772
_cell_length_c   9.30688634
_cell_angle_alpha   70.76539822
_cell_angle_beta   81.66936169
_cell_angle_gamma   68.54037938
_symmetry_Int_Tables_number   1
_chemical_formula_structural   Ca4ZrN4
_chemical_formula_sum   'Ca8 Zr2 N8'
_cell_volume   307.32467648
_cell_formula_units_Z   2
loop_
 _symmetry_equiv_pos_site_id
 _symmetry_equiv_pos_as_xyz
  1  'x, y, z'
loop_
 _atom_site_type_symbol
 _atom_site_label
 _atom_site_symmetry_multiplicity
 _atom_site_fract_x
 _atom_site_fract_y
 _atom_site_fract_z
 _atom_site_occupancy
  Ca  Ca0  1  0.72840985  0.61935345  0.19523058  1
  Ca  Ca1  1  0.27159015  0.38064655  0.80476942  1
  Ca  Ca2  1  0.75616033  0.24431930  0.99381995  1
  Ca  Ca3  1  0.24383967  0.75568070  0.00618005  1
  Ca  Ca4  1  0.73716771  0.47545102  0.57469406  1
  Ca  Ca5  1  0.26283229  0.52454898  0.42530594  1
  Ca  Ca6  1  0.24821634  0.94300419  0.59505779  1
  Ca  Ca7  1  0.75178366  0.05699581  0.40494221  1
  Zr  Zr0  1  0.72046009  0.84185985  0.76514640  1
  Zr  Zr1  1  0.27953991  0.15814015  0.23485360  1
  N  N0  1  0.98598958  0.69908966  0.61575601  1
  N  N1  1  0.01401042  0.30091034  0.38424399  1
  N  N2  1  0.84313014  0.85408368  0.95653328  1
  N  N3  1  0.15686986  0.14591632  0.04346672  1
  N  N4  1  0.51215983  0.62204757  0.80180458  1
  N  N5  1  0.48784017  0.37795243  0.19819542  1
  N  N6  1  0.48570946  0.81846463  0.37913348  1
  N  N7  1  0.51429054  0.18153537  0.62086652  1
loop_
_geom_bond_atom_site_label_1
_geom_bond_atom_site_label_2
_geom_bond_distance
_geom_bond_site_symmetry_2
Ca0 N2 2.383794 1_554
Ca0 N5 2.434304 1_555
Ca0 N6 2.437951 1_555
Ca0 N1 2.470054 1_655
Ca1 N3 2.383794 1_556
Ca1 N4 2.434304 1_555
Ca1 N7 2.437951 1_555
Ca1 N0 2.470054 1_455
Ca2 N3 2.382302 1_656
Ca2 N2 2.385078 1_545
Ca2 N5 2.475846 1_556
Ca2 N4 2.511548 1_555
Ca3 N2 2.382302 1_454
Ca3 N3 2.385078 1_565
Ca3 N4 2.475846 1_554
Ca3 N5 2.511548 1_555
Ca4 N6 2.455871 1_555
Ca4 N1 2.493423 1_655
Ca4 N0 2.529546 1_555
Ca4 N7 2.533947 1_555
Ca4 N4 2.584250 1_555
Ca5 N7 2.455871 1_555
Ca5 N0 2.493423 1_455
Ca5 N1 2.529546 1_555
Ca5 N6 2.533947 1_555
Ca5 N5 2.584250 1_555
Ca6 N6 2.468094 1_555
Ca6 N4 2.504259 1_555
Ca6 N0 2.517644 1_455
Ca6 N1 2.530003 1_565
Ca6 N7 2.636075 1_565
Ca7 N7 2.468094 1_555
Ca7 N5 2.504259 1_555
Ca7 N1 2.517644 1_655
Ca7 N0 2.530003 1_545
Ca7 N6 2.636075 1_545
N0 Zr0 2.110287 1_555
N1 Zr1 2.110287 1_555
N2 Zr0 2.064357 1_555
N3 Zr1 2.064357 1_555
N4 Zr0 2.096218 1_555
N5 Zr1 2.096218 1_555
N6 Zr1 2.112159 1_565
N7 Zr0 2.112159 1_545
