# generated using pymatgen
data_YbCuSn
_symmetry_space_group_name_H-M   'P 1'
_cell_length_a   4.49057500
_cell_length_b   7.14987700
_cell_length_c   7.88954500
_cell_angle_alpha   90.00000000
_cell_angle_beta   90.00000000
_cell_angle_gamma   90.00000000
_symmetry_Int_Tables_number   1
_chemical_formula_structural   YbCuSn
_chemical_formula_sum   'Yb4 Cu4 Sn4'
_cell_volume   253.31008608
_cell_formula_units_Z   4
loop_
 _symmetry_equiv_pos_site_id
 _symmetry_equiv_pos_as_xyz
  1  'x, y, z'
loop_
 _atom_site_type_symbol
 _atom_site_label
 _atom_site_symmetry_multiplicity
 _atom_site_fract_x
 _atom_site_fract_y
 _atom_site_fract_z
 _atom_site_occupancy
  Yb  Yb0  1  0.25000000  0.50954700  0.20345200  1
  Yb  Yb1  1  0.75000000  0.49045300  0.79654800  1
  Yb  Yb2  1  0.75000000  0.99045300  0.70345200  1
  Yb  Yb3  1  0.25000000  0.00954700  0.29654800  1
  Cu  Cu0  1  0.25000000  0.79343800  0.90192100  1
  Cu  Cu1  1  0.75000000  0.20656200  0.09807900  1
  Cu  Cu2  1  0.75000000  0.70656200  0.40192100  1
  Cu  Cu3  1  0.25000000  0.29343800  0.59807900  1
  Sn  Sn0  1  0.25000000  0.68743000  0.57794100  1
  Sn  Sn1  1  0.75000000  0.31257000  0.42205900  1
  Sn  Sn2  1  0.75000000  0.81257000  0.07794100  1
  Sn  Sn3  1  0.25000000  0.18743000  0.92205900  1
loop_
_geom_bond_atom_site_label_1
_geom_bond_atom_site_label_2
_geom_bond_distance
_geom_bond_site_symmetry_2
Cu0 Sn2 2.643589 1_456
Cu0 Sn2 2.643589 1_556
Cu0 Sn0 2.666064 1_555
Cu0 Sn3 2.821471 1_565
Cu0 Yb2 3.078536 1_555
Cu0 Yb2 3.078536 1_455
Cu0 Yb0 3.127203 1_556
Cu0 Yb1 3.228828 1_555
Cu0 Yb1 3.228828 1_455
Cu0 Yb3 3.475763 1_566
Cu1 Sn3 2.643589 1_654
Cu1 Sn3 2.643589 1_554
Cu1 Sn1 2.666064 1_555
Cu1 Sn2 2.821471 1_545
Cu1 Yb3 3.078536 1_555
Cu1 Yb3 3.078536 1_655
Cu1 Yb1 3.127203 1_554
Cu1 Yb0 3.228828 1_555
Cu1 Yb0 3.228828 1_655
Cu1 Yb2 3.475763 1_544
Cu2 Sn0 2.643589 1_555
Cu2 Sn0 2.643589 1_655
Cu2 Sn2 2.666064 1_555
Cu2 Sn1 2.821471 1_555
Cu2 Yb0 3.078536 1_555
Cu2 Yb0 3.078536 1_655
Cu2 Yb2 3.127203 1_555
Cu2 Yb3 3.228828 1_565
Cu2 Yb3 3.228828 1_665
Cu2 Yb1 3.475763 1_555
Cu3 Sn1 2.643589 1_455
Cu3 Sn1 2.643589 1_555
Cu3 Sn3 2.666064 1_555
Cu3 Sn0 2.821471 1_555
Cu3 Yb1 3.078536 1_455
Cu3 Yb1 3.078536 1_555
Cu3 Yb3 3.127203 1_555
Cu3 Yb2 3.228828 1_445
Cu3 Yb2 3.228828 1_545
Cu3 Yb0 3.475763 1_555
Sn0 Yb1 3.162186 1_455
Sn0 Yb1 3.162186 1_555
Sn0 Yb3 3.198896 1_565
Sn0 Yb0 3.216665 1_555
Sn0 Yb2 3.273518 1_455
Sn0 Yb2 3.273518 1_555
Sn1 Yb0 3.162186 1_555
Sn1 Yb0 3.162186 1_655
Sn1 Yb2 3.198896 1_545
Sn1 Yb1 3.216665 1_555
Sn1 Yb3 3.273518 1_555
Sn1 Yb3 3.273518 1_655
Sn2 Yb3 3.162186 1_565
Sn2 Yb3 3.162186 1_665
Sn2 Yb1 3.198896 1_554
Sn2 Yb2 3.216665 1_554
Sn2 Yb0 3.273518 1_555
Sn2 Yb0 3.273518 1_655
Sn3 Yb2 3.162186 1_445
Sn3 Yb2 3.162186 1_545
Sn3 Yb0 3.198896 1_556
Sn3 Yb3 3.216665 1_556
Sn3 Yb1 3.273518 1_555
Sn3 Yb1 3.273518 1_455
