# generated using pymatgen
data_AlH12(OF)5
_symmetry_space_group_name_H-M   'P 1'
_cell_length_a   8.01186000
_cell_length_b   3.73411700
_cell_length_c   13.77713940
_cell_angle_alpha   90.00000000
_cell_angle_beta   107.98823671
_cell_angle_gamma   90.00000000
_symmetry_Int_Tables_number   1
_chemical_formula_structural   AlH12(OF)5
_chemical_formula_sum   'Al2 H24 O10 F10'
_cell_volume   392.02666915
_cell_formula_units_Z   2
loop_
 _symmetry_equiv_pos_site_id
 _symmetry_equiv_pos_as_xyz
  1  'x, y, z'
loop_
 _atom_site_type_symbol
 _atom_site_label
 _atom_site_symmetry_multiplicity
 _atom_site_fract_x
 _atom_site_fract_y
 _atom_site_fract_z
 _atom_site_occupancy
  Al  Al0  1  0.00056600  0.02080300  0.74998700  1
  Al  Al1  1  0.00056600  0.97919700  0.24998700  1
  H  H0  1  0.84471300  0.76567200  0.40488800  1
  H  H1  1  0.16061900  0.78469100  0.09716800  1
  H  H2  1  0.16061900  0.21530900  0.59716800  1
  H  H3  1  0.84471300  0.23432800  0.90488800  1
  H  H4  1  0.33299500  0.22492500  0.89862600  1
  H  H5  1  0.66420200  0.24087000  0.59444400  1
  H  H6  1  0.66420200  0.75913000  0.09444400  1
  H  H7  1  0.33299500  0.77507500  0.39862600  1
  H  H8  1  0.47306400  0.45577600  0.85493800  1
  H  H9  1  0.52502200  0.45825000  0.63549900  1
  H  H10  1  0.52502200  0.54175000  0.13549900  1
  H  H11  1  0.47306400  0.54422400  0.35493800  1
  H  H12  1  0.60569700  0.79910100  0.77239200  1
  H  H13  1  0.39514700  0.80665100  0.73067800  1
  H  H14  1  0.39514700  0.19334900  0.23067800  1
  H  H15  1  0.60569700  0.20089900  0.27239200  1
  H  H16  1  0.84707800  0.79240800  0.52382800  1
  H  H17  1  0.15806800  0.81394400  0.97712800  1
  H  H18  1  0.15806800  0.18605600  0.47712800  1
  H  H19  1  0.84707800  0.20759200  0.02382800  1
  H  H20  1  0.49678800  0.47914500  0.99005000  1
  H  H21  1  0.49678800  0.52085500  0.49005000  1
  H  H22  1  0.00375900  0.51417000  0.00099700  1
  H  H23  1  0.00375900  0.48583000  0.50099700  1
  O  O0  1  0.45634400  0.32349100  0.91541100  1
  O  O1  1  0.54289300  0.34072000  0.57483700  1
  O  O2  1  0.54289300  0.65928000  0.07483700  1
  O  O3  1  0.45634400  0.67650900  0.41541100  1
  O  O4  1  0.49932700  0.64723500  0.75238100  1
  O  O5  1  0.49932700  0.35276500  0.25238100  1
  O  O6  1  0.85880300  0.62592600  0.46954300  1
  O  O7  1  0.14566000  0.64818200  0.03182700  1
  O  O8  1  0.14566000  0.35181800  0.53182700  1
  O  O9  1  0.85880300  0.37407400  0.96954300  1
  F  F0  1  0.00243300  0.52346900  0.75069300  1
  F  F1  1  0.00243300  0.47653100  0.25069300  1
  F  F2  1  0.81848800  0.02272800  0.80296500  1
  F  F3  1  0.18666600  0.02186400  0.69936000  1
  F  F4  1  0.18666600  0.97813600  0.19936000  1
  F  F5  1  0.81848800  0.97727200  0.30296500  1
  F  F6  1  0.15746500  0.03360900  0.87863300  1
  F  F7  1  0.84820500  0.02834700  0.62172800  1
  F  F8  1  0.84820500  0.97165300  0.12172800  1
  F  F9  1  0.15746500  0.96639100  0.37863300  1
loop_
_geom_bond_atom_site_label_1
_geom_bond_atom_site_label_2
_geom_bond_distance
_geom_bond_site_symmetry_2
Al0 F7 1.811369 1_455
Al0 F2 1.821666 1_455
Al0 F6 1.829669 1_555
Al0 F3 1.830833 1_555
Al0 F0 1.857165 1_545
Al0 F0 1.877075 1_555
Al1 F8 1.811369 1_455
Al1 F5 1.821666 1_455
Al1 F9 1.829669 1_555
Al1 F4 1.830833 1_555
Al1 F1 1.857165 1_565
Al1 F1 1.877075 1_555
H0 O6 1.008164 1_555
H1 O7 1.008932 1_555
H2 O8 1.008932 1_555
H3 O9 1.008164 1_555
H4 O0 1.012145 1_555
H5 O1 0.997217 1_555
H6 O2 0.997217 1_555
H7 O3 1.012145 1_555
H8 O0 1.012429 1_555
H9 O1 0.992720 1_555
H10 O2 0.992720 1_555
H11 O3 1.012429 1_555
H12 O4 0.989322 1_555
H13 O4 0.993125 1_555
H14 O5 0.993125 1_555
H15 O5 0.989322 1_555
H16 O6 0.999012 1_555
H17 O7 1.003589 1_556
H18 O8 1.003589 1_555
H19 O9 0.999012 1_554
H20 O0 1.137738 1_555
H20 O2 1.298808 1_556
H21 O3 1.137738 1_555
H21 O1 1.298808 1_555
H22 O7 1.193773 1_555
H22 O9 1.224495 1_454
H23 O8 1.193773 1_555
H23 O6 1.224495 1_455
F2 H3 1.567812 1_555
F3 H2 1.538208 1_555
F4 H1 1.538208 1_555
F5 H0 1.567812 1_555
F6 H4 1.524703 1_555
F6 H17 1.584356 1_545
F7 H16 1.608718 1_545
F7 H5 1.613101 1_555
F8 H19 1.608718 1_565
F8 H6 1.613101 1_555
F9 H7 1.524703 1_555
F9 H18 1.584356 1_565
