# generated using pymatgen
data_Er2AlGe4
_symmetry_space_group_name_H-M   'P 1'
_cell_length_a   4.13229300
_cell_length_b   4.22067200
_cell_length_c   8.60004677
_cell_angle_alpha   75.79531990
_cell_angle_beta   90.00000000
_cell_angle_gamma   90.00000000
_symmetry_Int_Tables_number   1
_chemical_formula_structural   Er2AlGe4
_chemical_formula_sum   'Er2 Al1 Ge4'
_cell_volume   145.40785830
_cell_formula_units_Z   1
loop_
 _symmetry_equiv_pos_site_id
 _symmetry_equiv_pos_as_xyz
  1  'x, y, z'
loop_
 _atom_site_type_symbol
 _atom_site_label
 _atom_site_symmetry_multiplicity
 _atom_site_fract_x
 _atom_site_fract_y
 _atom_site_fract_z
 _atom_site_occupancy
  Er  Er0  1  0.25000000  0.90096900  0.19806200  1
  Er  Er1  1  0.75000000  0.10280600  0.79438700  1
  Al  Al0  1  0.25000000  0.68047500  0.63905000  1
  Ge  Ge0  1  0.25000000  0.53594400  0.92811200  1
  Ge  Ge1  1  0.75000000  0.44504900  0.10990300  1
  Ge  Ge2  1  0.25000000  0.26527400  0.46945100  1
  Ge  Ge3  1  0.75000000  0.76648300  0.46703400  1
loop_
_geom_bond_atom_site_label_1
_geom_bond_atom_site_label_2
_geom_bond_distance
_geom_bond_site_symmetry_2
Er0 Ge1 3.043465 1_455
Er0 Ge1 3.043465 1_555
Er0 Ge1 3.043468 1_565
Er0 Ge1 3.043468 1_465
Er0 Ge3 3.049185 1_555
Er0 Ge3 3.049185 1_455
Er0 Ge0 3.085243 1_554
Er0 Ge0 3.085243 1_564
Er0 Ge2 3.094004 1_565
Er0 Ge2 3.094007 1_555
Er1 Ge0 3.156806 1_645
Er1 Ge0 3.156806 1_545
Er1 Ge0 3.156809 1_555
Er1 Ge0 3.156809 1_655
Er1 Ge1 3.372384 1_546
Er1 Ge1 3.372389 1_556
Er1 Ge2 3.407019 1_555
Er1 Ge2 3.407019 1_655
Er1 Ge3 3.449914 1_545
Er1 Ge3 3.449917 1_555
Al0 Ge0 2.409940 1_555
Al0 Ge3 2.515084 1_455
Al0 Ge3 2.515084 1_555
Al0 Ge2 2.540237 1_565
Al0 Ge2 2.540241 1_555
Al0 Er1 3.224849 1_565
Al0 Er1 3.224849 1_465
Al0 Er1 3.224852 1_455
Al0 Er1 3.224852 1_555
Ge0 Ge1 2.562428 1_456
Ge0 Ge1 2.562428 1_556
Ge2 Ge3 2.953452 1_545
Ge2 Ge3 2.953452 1_445
Ge2 Ge3 2.953455 1_455
Ge2 Ge3 2.953455 1_555
