# generated using pymatgen
data_Sc9Te2
_symmetry_space_group_name_H-M   'P 1'
_cell_length_a   7.77351562
_cell_length_b   8.70483551
_cell_length_c   17.34507398
_cell_angle_alpha   90.00000000
_cell_angle_beta   90.00000000
_cell_angle_gamma   116.54560327
_symmetry_Int_Tables_number   1
_chemical_formula_structural   Sc9Te2
_chemical_formula_sum   'Sc36 Te8'
_cell_volume   1049.96027857
_cell_formula_units_Z   4
loop_
 _symmetry_equiv_pos_site_id
 _symmetry_equiv_pos_as_xyz
  1  'x, y, z'
loop_
 _atom_site_type_symbol
 _atom_site_label
 _atom_site_symmetry_multiplicity
 _atom_site_fract_x
 _atom_site_fract_y
 _atom_site_fract_z
 _atom_site_occupancy
  Sc  Sc0  1  0.20707036  0.85371773  0.86840007  1
  Sc  Sc1  1  0.64695088  0.85369756  0.86851459  1
  Sc  Sc2  1  0.79292964  0.14628227  0.36840007  1
  Sc  Sc3  1  0.35304912  0.14630244  0.36851459  1
  Sc  Sc4  1  0.95698677  0.35090445  0.64072456  1
  Sc  Sc5  1  0.39380113  0.35116160  0.64063435  1
  Sc  Sc6  1  0.04301323  0.64909555  0.14072456  1
  Sc  Sc7  1  0.60619887  0.64883840  0.14063435  1
  Sc  Sc8  1  0.26513340  0.53136436  0.79388580  1
  Sc  Sc9  1  0.73486660  0.46863564  0.29388580  1
  Sc  Sc10  1  0.42296907  0.84540252  0.43173504  1
  Sc  Sc11  1  0.57703093  0.15459748  0.93173504  1
  Sc  Sc12  1  0.38670932  0.77445512  0.02361775  1
  Sc  Sc13  1  0.61329068  0.22554488  0.52361775  1
  Sc  Sc14  1  0.20580251  0.97928669  0.56030059  1
  Sc  Sc15  1  0.77251404  0.97862992  0.56044664  1
  Sc  Sc16  1  0.79419749  0.02071331  0.06030059  1
  Sc  Sc17  1  0.22748596  0.02137008  0.06044664  1
  Sc  Sc18  1  0.01515256  0.03137840  0.71649813  1
  Sc  Sc19  1  0.98484744  0.96862160  0.21649813  1
  Sc  Sc20  1  0.06908832  0.13672786  0.92436810  1
  Sc  Sc21  1  0.93091168  0.86327214  0.42436810  1
  Sc  Sc22  1  0.52569819  0.05202650  0.70224740  1
  Sc  Sc23  1  0.47430181  0.94797350  0.20224740  1
  Sc  Sc24  1  0.86324744  0.72510208  0.98375707  1
  Sc  Sc25  1  0.13675256  0.27489792  0.48375707  1
  Sc  Sc26  1  0.97819331  0.52201315  0.44914990  1
  Sc  Sc27  1  0.54380926  0.52149587  0.44924915  1
  Sc  Sc28  1  0.02180669  0.47798685  0.94914990  1
  Sc  Sc29  1  0.45619074  0.47850413  0.94924915  1
  Sc  Sc30  1  0.77614441  0.55200593  0.80708714  1
  Sc  Sc31  1  0.22385559  0.44799407  0.30708714  1
  Sc  Sc32  1  0.32592548  0.65279582  0.57948354  1
  Sc  Sc33  1  0.67407452  0.34720418  0.07948354  1
  Sc  Sc34  1  0.81851765  0.63616439  0.58576473  1
  Sc  Sc35  1  0.18148235  0.36383561  0.08576473  1
  Te  Te0  1  0.12206109  0.74152322  0.70335943  1
  Te  Te1  1  0.61876941  0.74090551  0.70336041  1
  Te  Te2  1  0.87793891  0.25847678  0.20335943  1
  Te  Te3  1  0.38123059  0.25909449  0.20336041  1
  Te  Te4  1  0.86714160  0.24106443  0.80656708  1
  Te  Te5  1  0.37408253  0.24171100  0.80641055  1
  Te  Te6  1  0.13285840  0.75893557  0.30656708  1
  Te  Te7  1  0.62591747  0.75828900  0.30641055  1
loop_
_geom_bond_atom_site_label_1
_geom_bond_atom_site_label_2
_geom_bond_distance
_geom_bond_site_symmetry_2
Sc0 Te0 3.001394 1_555
Sc0 Sc24 3.118616 1_455
Sc0 Te5 3.213925 1_565
Sc0 Sc12 3.245847 1_556
Sc1 Te1 3.004287 1_555
Sc1 Sc24 3.123776 1_555
Sc1 Te4 3.208679 1_565
Sc1 Sc12 3.249403 1_556
Sc2 Te2 3.001394 1_555
Sc2 Sc25 3.118616 1_655
Sc2 Te7 3.213925 1_545
Sc3 Te3 3.004287 1_555
Sc3 Te6 3.208679 1_545
Sc4 Te4 3.013246 1_555
Sc4 Te0 3.238640 1_655
Sc5 Te5 3.011415 1_555
Sc5 Te1 3.232496 1_555
Sc6 Te6 3.013246 1_555
Sc6 Te2 3.238640 1_455
Sc7 Te7 3.011415 1_555
Sc7 Te3 3.232496 1_555
Sc8 Te1 2.977859 1_555
Sc8 Te0 2.977867 1_555
Sc8 Te4 3.002966 1_455
Sc8 Te5 3.005081 1_555
Sc9 Te3 2.977859 1_555
Sc9 Te2 2.977867 1_555
Sc9 Te6 3.002966 1_655
Sc9 Te7 3.005081 1_555
Sc10 Te6 2.974662 1_555
Sc10 Te7 2.976318 1_555
Sc10 Sc13 3.361976 1_565
Sc11 Te4 2.974662 1_555
Sc11 Te5 2.976318 1_555
Sc11 Sc12 3.361976 1_546
Sc12 Sc17 2.989580 1_565
Sc12 Sc16 2.994089 1_565
Sc12 Sc28 3.135519 1_554
Sc12 Sc29 3.136268 1_554
Sc12 Sc6 3.138293 1_555
Sc12 Sc7 3.145463 1_555
Sc12 Sc35 3.374369 1_555
Sc12 Sc23 3.380171 1_555
Sc13 Sc15 2.989580 1_545
Sc13 Sc14 2.994089 1_545
Sc13 Sc26 3.135519 1_555
Sc13 Sc27 3.136268 1_555
Sc13 Sc4 3.138293 1_555
Sc13 Sc5 3.145463 1_555
Sc13 Sc2 3.245847 1_555
Sc13 Sc3 3.249403 1_555
Sc13 Sc34 3.374369 1_555
Sc13 Sc22 3.380171 1_555
Sc14 Te0 3.108105 1_555
Sc14 Sc25 3.147529 1_565
Sc15 Te1 3.105593 1_555
Sc15 Sc25 3.148107 1_665
Sc16 Te2 3.108105 1_555
Sc16 Sc24 3.147529 1_544
Sc17 Te3 3.105593 1_555
Sc17 Sc24 3.148107 1_444
Sc18 Te4 2.995531 1_455
Sc18 Te1 2.995971 1_445
Sc18 Te0 2.997175 1_545
Sc18 Te5 3.000538 1_555
Sc19 Te6 2.995531 1_655
Sc19 Te3 2.995971 1_665
Sc19 Te2 2.997175 1_565
Sc19 Te7 3.000538 1_555
Sc20 Te5 2.950534 1_555
Sc20 Te4 2.956112 1_455
Sc20 Sc24 3.366851 1_445
Sc21 Te7 2.950534 1_555
Sc21 Te6 2.956112 1_655
Sc21 Sc25 3.366851 1_665
Sc22 Te5 3.019782 1_555
Sc22 Te4 3.020405 1_555
Sc22 Te0 3.093652 1_545
Sc22 Te1 3.099970 1_545
Sc23 Te7 3.019782 1_555
Sc23 Te6 3.020405 1_555
Sc23 Te2 3.093652 1_565
Sc23 Te3 3.099970 1_565
Sc24 Sc28 2.979360 1_655
Sc24 Sc29 2.984544 1_555
Sc24 Sc6 3.260294 1_656
Sc24 Sc7 3.263716 1_556
Sc24 Sc30 3.347713 1_555
Sc24 Sc33 3.378855 1_556
Sc25 Sc26 2.979360 1_455
Sc25 Sc27 2.984544 1_555
Sc25 Sc3 3.123776 1_555
Sc25 Sc4 3.260294 1_455
Sc25 Sc5 3.263716 1_555
Sc25 Sc31 3.347713 1_555
Sc25 Sc32 3.378855 1_555
Sc26 Te6 3.098203 1_655
Sc27 Te7 3.101357 1_555
Sc28 Te4 3.098203 1_455
Sc29 Te5 3.101357 1_555
Sc30 Te0 3.037132 1_655
Sc30 Te1 3.038982 1_555
Sc30 Te5 3.085223 1_555
Sc30 Te4 3.088362 1_555
Sc31 Te2 3.037132 1_455
Sc31 Te3 3.038982 1_555
Sc31 Te7 3.085223 1_555
Sc31 Te6 3.088362 1_555
Sc32 Te0 2.969614 1_555
Sc32 Te1 2.970943 1_555
Sc33 Te2 2.969614 1_555
Sc33 Te3 2.970943 1_555
Sc34 Te0 2.938518 1_655
Sc34 Te1 2.944167 1_555
Sc35 Te2 2.938518 1_455
Sc35 Te3 2.944167 1_555
