# generated using pymatgen
data_LiFe8(O7F)2
_symmetry_space_group_name_H-M   'P 1'
_cell_length_a   7.29215984
_cell_length_b   7.39712294
_cell_length_c   5.54740887
_cell_angle_alpha   109.21223088
_cell_angle_beta   108.80440241
_cell_angle_gamma   81.36156442
_symmetry_Int_Tables_number   1
_chemical_formula_structural   LiFe8(O7F)2
_chemical_formula_sum   'Li1 Fe8 O14 F2'
_cell_volume   267.15908110
_cell_formula_units_Z   1
loop_
 _symmetry_equiv_pos_site_id
 _symmetry_equiv_pos_as_xyz
  1  'x, y, z'
loop_
 _atom_site_type_symbol
 _atom_site_label
 _atom_site_symmetry_multiplicity
 _atom_site_fract_x
 _atom_site_fract_y
 _atom_site_fract_z
 _atom_site_occupancy
  Li  Li0  1  0.14002900  0.64202700  0.78311700  1
  Fe  Fe0  1  0.75017900  0.23597200  0.49596100  1
  Fe  Fe1  1  0.50014100  0.99347800  0.97420900  1
  Fe  Fe2  1  0.24825500  0.25291000  0.51460900  1
  Fe  Fe3  1  0.73972900  0.76440100  0.47427100  1
  Fe  Fe4  1  0.50895200  0.47695900  0.00476700  1
  Fe  Fe5  1  0.97596200  0.00330300  0.99421600  1
  Fe  Fe6  1  0.25256500  0.75594000  0.47346200  1
  Fe  Fe7  1  0.00100500  0.48258800  0.03526100  1
  O  O0  1  0.98044200  0.17236200  0.35073500  1
  O  O1  1  0.91245400  0.22666000  0.84732200  1
  O  O2  1  0.58275900  0.25420800  0.14683900  1
  O  O3  1  0.32632900  0.01709800  0.63492900  1
  O  O4  1  0.52240100  0.32925800  0.65711600  1
  O  O5  1  0.76453400  0.57273900  0.14997100  1
  O  O6  1  0.71654800  0.90591000  0.81420300  1
  O  O7  1  0.24097300  0.41477700  0.87585000  1
  O  O8  1  0.48618600  0.66132000  0.33404300  1
  O  O9  1  0.65496700  0.97324100  0.31283200  1
  O  O10  1  0.17170500  0.49592200  0.38928200  1
  O  O11  1  0.39595300  0.74090800  0.82576700  1
  O  O12  1  0.08082200  0.76248600  0.13470700  1
  O  O13  1  0.00136600  0.83653100  0.63457300  1
  F  F0  1  0.84907000  0.51639200  0.65753100  1
  F  F1  1  0.26148800  0.08668300  0.13918800  1
loop_
_geom_bond_atom_site_label_1
_geom_bond_atom_site_label_2
_geom_bond_distance
_geom_bond_site_symmetry_2
Li0 O13 1.891460 1_555
Li0 O7 1.893548 1_555
Li0 O12 2.016931 1_556
Li0 O11 2.021219 1_555
Li0 O10 2.165857 1_555
Fe0 O1 1.944511 1_555
Fe0 O2 1.964111 1_555
Fe0 O9 1.985533 1_545
Fe0 O0 2.018694 1_555
Fe0 O4 2.059435 1_555
Fe1 O9 1.895473 1_556
Fe1 O11 1.938138 1_555
Fe1 O2 1.939405 1_566
Fe1 O3 1.947151 1_565
Fe1 O6 1.978717 1_555
Fe2 O0 1.960589 1_455
Fe2 O7 1.980565 1_555
Fe2 O4 1.991696 1_555
Fe2 O3 2.008801 1_555
Fe2 O10 2.072963 1_555
Fe3 O6 1.879772 1_555
Fe3 O13 1.901394 1_655
Fe3 O8 1.926343 1_555
Fe3 O5 1.932187 1_555
Fe3 O9 1.958921 1_555
Fe4 O4 1.904118 1_554
Fe4 O5 1.917704 1_555
Fe4 O7 1.922049 1_554
Fe4 O8 1.926644 1_555
Fe4 O2 1.985095 1_555
Fe4 O11 2.396312 1_554
Fe5 O6 1.952639 1_545
Fe5 O0 1.954309 1_556
Fe5 O1 2.005295 1_555
Fe5 O13 2.021471 1_645
Fe5 O12 2.117936 1_646
Fe6 O12 1.904381 1_555
Fe6 O3 1.919972 1_565
Fe6 O11 1.927680 1_555
Fe6 O10 1.958878 1_555
Fe6 O8 2.031078 1_555
Fe6 O13 2.210508 1_555
Fe7 O1 1.929274 1_454
Fe7 O10 1.936363 1_555
Fe7 O5 1.976316 1_455
Fe7 O12 2.081612 1_555
Fe7 O7 2.130193 1_554
F0 Fe0 2.105982 1_555
F0 Fe7 2.108503 1_656
F0 Li0 2.250334 1_655
F0 Fe3 2.302242 1_555
F1 Fe2 2.065691 1_555
F1 Fe5 2.083782 1_454
F1 Fe1 2.143049 1_544
