# generated using pymatgen
data_Ca10Ag(PO4)7
_symmetry_space_group_name_H-M   'P 1'
_cell_length_a   13.95611831
_cell_length_b   13.95611831
_cell_length_c   13.95611782
_cell_angle_alpha   44.40253051
_cell_angle_beta   44.40253051
_cell_angle_gamma   44.40252991
_symmetry_Int_Tables_number   1
_chemical_formula_structural   Ca10Ag(PO4)7
_chemical_formula_sum   'Ca20 Ag2 P14 O56'
_cell_volume   1209.73967888
_cell_formula_units_Z   2
loop_
 _symmetry_equiv_pos_site_id
 _symmetry_equiv_pos_as_xyz
  1  'x, y, z'
loop_
 _atom_site_type_symbol
 _atom_site_label
 _atom_site_symmetry_multiplicity
 _atom_site_fract_x
 _atom_site_fract_y
 _atom_site_fract_z
 _atom_site_occupancy
  Ca  Ca0  1  0.00147400  0.00147400  0.00147400  1
  Ca  Ca1  1  0.50147400  0.50147400  0.50147400  1
  Ca  Ca2  1  0.93928800  0.92832100  0.34464900  1
  Ca  Ca3  1  0.92832100  0.34464900  0.93928800  1
  Ca  Ca4  1  0.34464900  0.93928800  0.92832100  1
  Ca  Ca5  1  0.42832100  0.43928800  0.84464900  1
  Ca  Ca6  1  0.43928800  0.84464900  0.42832100  1
  Ca  Ca7  1  0.84464900  0.42832100  0.43928800  1
  Ca  Ca8  1  0.15158100  0.59127700  0.56856500  1
  Ca  Ca9  1  0.59127700  0.56856500  0.15158100  1
  Ca  Ca10  1  0.56856500  0.15158100  0.59127700  1
  Ca  Ca11  1  0.09127700  0.65158100  0.06856500  1
  Ca  Ca12  1  0.65158100  0.06856500  0.09127700  1
  Ca  Ca13  1  0.06856500  0.09127700  0.65158100  1
  Ca  Ca14  1  0.94267200  0.53326100  0.55478400  1
  Ca  Ca15  1  0.53326100  0.55478400  0.94267200  1
  Ca  Ca16  1  0.55478400  0.94267200  0.53326100  1
  Ca  Ca17  1  0.03326100  0.44267200  0.05478400  1
  Ca  Ca18  1  0.44267200  0.05478400  0.03326100  1
  Ca  Ca19  1  0.05478400  0.03326100  0.44267200  1
  Ag  Ag0  1  0.32226500  0.32226500  0.32226500  1
  Ag  Ag1  1  0.82226500  0.82226500  0.82226500  1
  P  P0  1  0.73522100  0.73522100  0.73522100  1
  P  P1  1  0.23522100  0.23522100  0.23522100  1
  P  P2  1  0.31439800  0.81890400  0.27809900  1
  P  P3  1  0.81890400  0.27809900  0.31439800  1
  P  P4  1  0.27809900  0.31439800  0.81890400  1
  P  P5  1  0.31890400  0.81439800  0.77809900  1
  P  P6  1  0.81439800  0.77809900  0.31890400  1
  P  P7  1  0.77809900  0.31890400  0.81439800  1
  P  P8  1  0.23369400  0.67872900  0.19568400  1
  P  P9  1  0.67872900  0.19568400  0.23369400  1
  P  P10  1  0.19568400  0.23369400  0.67872900  1
  P  P11  1  0.17872900  0.73369400  0.69568400  1
  P  P12  1  0.73369400  0.69568400  0.17872900  1
  P  P13  1  0.69568400  0.17872900  0.73369400  1
  O  O0  1  0.69376800  0.69376800  0.69376800  1
  O  O1  1  0.19376800  0.19376800  0.19376800  1
  O  O2  1  0.89220000  0.74117500  0.61130000  1
  O  O3  1  0.74117500  0.61130000  0.89220000  1
  O  O4  1  0.61130000  0.89220000  0.74117500  1
  O  O5  1  0.24117500  0.39220000  0.11130000  1
  O  O6  1  0.39220000  0.11130000  0.24117500  1
  O  O7  1  0.11130000  0.24117500  0.39220000  1
  O  O8  1  0.37326600  0.64363000  0.36254800  1
  O  O9  1  0.64363000  0.36254800  0.37326600  1
  O  O10  1  0.36254800  0.37326600  0.64363000  1
  O  O11  1  0.14363000  0.87326600  0.86254800  1
  O  O12  1  0.87326600  0.86254800  0.14363000  1
  O  O13  1  0.86254800  0.14363000  0.87326600  1
  O  O14  1  0.40917400  0.85939500  0.10617300  1
  O  O15  1  0.85939500  0.10617300  0.40917400  1
  O  O16  1  0.10617300  0.40917400  0.85939500  1
  O  O17  1  0.35939500  0.90917400  0.60617300  1
  O  O18  1  0.90917400  0.60617300  0.35939500  1
  O  O19  1  0.60617300  0.35939500  0.90917400  1
  O  O20  1  0.33750400  0.88009500  0.31629600  1
  O  O21  1  0.88009500  0.31629600  0.33750400  1
  O  O22  1  0.31629600  0.33750400  0.88009500  1
  O  O23  1  0.38009500  0.83750400  0.81629600  1
  O  O24  1  0.83750400  0.81629600  0.38009500  1
  O  O25  1  0.81629600  0.38009500  0.83750400  1
  O  O26  1  0.14356400  0.88731200  0.33024300  1
  O  O27  1  0.88731200  0.33024300  0.14356400  1
  O  O28  1  0.33024300  0.14356400  0.88731200  1
  O  O29  1  0.38731200  0.64356400  0.83024300  1
  O  O30  1  0.64356400  0.83024300  0.38731200  1
  O  O31  1  0.83024300  0.38731200  0.64356400  1
  O  O32  1  0.39781200  0.66134700  0.10979100  1
  O  O33  1  0.66134700  0.10979100  0.39781200  1
  O  O34  1  0.10979100  0.39781200  0.66134700  1
  O  O35  1  0.16134700  0.89781200  0.60979100  1
  O  O36  1  0.89781200  0.60979100  0.16134700  1
  O  O37  1  0.60979100  0.16134700  0.89781200  1
  O  O38  1  0.13955100  0.85367300  0.13031000  1
  O  O39  1  0.85367300  0.13031000  0.13955100  1
  O  O40  1  0.13031000  0.13955100  0.85367300  1
  O  O41  1  0.35367300  0.63955100  0.63031000  1
  O  O42  1  0.63955100  0.63031000  0.35367300  1
  O  O43  1  0.63031000  0.35367300  0.63955100  1
  O  O44  1  0.16056300  0.62181700  0.36821600  1
  O  O45  1  0.62181700  0.36821600  0.16056300  1
  O  O46  1  0.36821600  0.16056300  0.62181700  1
  O  O47  1  0.12181700  0.66056300  0.86821600  1
  O  O48  1  0.66056300  0.86821600  0.12181700  1
  O  O49  1  0.86821600  0.12181700  0.66056300  1
  O  O50  1  0.24015400  0.59441200  0.15484200  1
  O  O51  1  0.59441200  0.15484200  0.24015400  1
  O  O52  1  0.15484200  0.24015400  0.59441200  1
  O  O53  1  0.09441200  0.74015400  0.65484200  1
  O  O54  1  0.74015400  0.65484200  0.09441200  1
  O  O55  1  0.65484200  0.09441200  0.74015400  1
loop_
_geom_bond_atom_site_label_1
_geom_bond_atom_site_label_2
_geom_bond_distance
_geom_bond_site_symmetry_2
Ca0 O39 2.274396 1_455
Ca0 O38 2.274396 1_545
Ca0 O40 2.274396 1_554
Ca0 O11 2.298953 1_544
Ca0 O13 2.298953 1_454
Ca0 O12 2.298954 1_445
Ca1 O43 2.274396 1_555
Ca1 O41 2.274396 1_555
Ca1 O42 2.274396 1_555
Ca1 O8 2.298953 1_555
Ca1 O9 2.298953 1_555
Ca1 O10 2.298954 1_555
Ca2 O26 2.347252 1_655
Ca2 O24 2.402301 1_555
Ca2 O15 2.453508 1_565
Ca2 O39 2.472238 1_565
Ca2 O2 2.484393 1_555
Ca2 O38 2.488206 1_655
Ca2 O33 2.558602 1_565
Ca2 O44 2.916909 1_655
Ca3 O27 2.347252 1_556
Ca3 O25 2.402301 1_555
Ca3 O16 2.453508 1_655
Ca3 O40 2.472238 1_655
Ca3 O3 2.484393 1_555
Ca3 O39 2.488206 1_556
Ca3 O34 2.558602 1_655
Ca3 O45 2.916909 1_556
Ca4 O28 2.347252 1_565
Ca4 O23 2.402301 1_555
Ca4 O14 2.453508 1_556
Ca4 O38 2.472238 1_556
Ca4 O4 2.484393 1_555
Ca4 O40 2.488206 1_565
Ca4 O32 2.558602 1_556
Ca4 O46 2.916909 1_565
Ca5 O29 2.347252 1_555
Ca5 O22 2.402301 1_555
Ca5 O19 2.453508 1_555
Ca5 O43 2.472238 1_555
Ca5 O5 2.484393 1_556
Ca5 O41 2.488206 1_555
Ca5 O37 2.558602 1_555
Ca5 O47 2.916909 1_555
Ca6 O30 2.347252 1_555
Ca6 O20 2.402301 1_555
Ca6 O17 2.453508 1_555
Ca6 O41 2.472238 1_555
Ca6 O6 2.484393 1_565
Ca6 O42 2.488206 1_555
Ca6 O35 2.558602 1_555
Ca6 O48 2.916909 1_555
Ca7 O31 2.347252 1_555
Ca7 O21 2.402301 1_555
Ca7 O18 2.453508 1_555
Ca7 O42 2.472238 1_555
Ca7 O7 2.484393 1_655
Ca7 O43 2.488206 1_555
Ca7 O36 2.558602 1_555
Ca7 O49 2.916909 1_555
Ca8 O34 2.341433 1_555
Ca8 O2 2.390240 1_455
Ca8 O44 2.426554 1_555
Ca8 O8 2.426992 1_555
Ca8 O10 2.464995 1_555
Ca8 O53 2.497353 1_555
Ca8 O16 2.687263 1_555
Ca8 O26 2.894916 1_555
Ca9 O32 2.341433 1_555
Ca9 O3 2.390240 1_554
Ca9 O45 2.426554 1_555
Ca9 O9 2.426992 1_555
Ca9 O8 2.464995 1_555
Ca9 O54 2.497353 1_555
Ca9 O14 2.687263 1_555
Ca9 O27 2.894916 1_555
Ca10 O33 2.341433 1_555
Ca10 O4 2.390240 1_545
Ca10 O46 2.426554 1_555
Ca10 O10 2.426992 1_555
Ca10 O9 2.464995 1_555
Ca10 O55 2.497353 1_555
Ca10 O15 2.687263 1_555
Ca10 O28 2.894916 1_555
Ca11 O36 2.341433 1_455
Ca11 O5 2.390240 1_555
Ca11 O47 2.426554 1_554
Ca11 O11 2.426992 1_554
Ca11 O12 2.464995 1_455
Ca11 O50 2.497353 1_555
Ca11 O18 2.687263 1_455
Ca11 O29 2.894916 1_554
Ca12 O37 2.341433 1_554
Ca12 O6 2.390240 1_555
Ca12 O48 2.426554 1_545
Ca12 O12 2.426992 1_545
Ca12 O13 2.464995 1_554
Ca12 O51 2.497353 1_555
Ca12 O19 2.687263 1_554
Ca12 O30 2.894916 1_545
Ca13 O35 2.341433 1_545
Ca13 O7 2.390240 1_555
Ca13 O49 2.426554 1_455
Ca13 O13 2.426992 1_455
Ca13 O11 2.464995 1_545
Ca13 O52 2.497353 1_555
Ca13 O17 2.687263 1_545
Ca13 O31 2.894916 1_455
Ca14 O34 2.421649 1_655
Ca14 O18 2.422153 1_555
Ca14 O0 2.511800 1_555
Ca14 O31 2.515697 1_555
Ca14 O25 2.576854 1_555
Ca14 O24 2.601814 1_555
Ca14 O44 2.648117 1_655
Ca14 O52 2.758059 1_655
Ca14 O2 3.015602 1_555
Ca15 O32 2.421649 1_556
Ca15 O19 2.422153 1_555
Ca15 O0 2.511800 1_555
Ca15 O29 2.515697 1_555
Ca15 O23 2.576854 1_555
Ca15 O25 2.601814 1_555
Ca15 O45 2.648117 1_556
Ca15 O50 2.758059 1_556
Ca15 O3 3.015602 1_555
Ca16 O33 2.421649 1_565
Ca16 O17 2.422153 1_555
Ca16 O0 2.511800 1_555
Ca16 O30 2.515697 1_555
Ca16 O24 2.576854 1_555
Ca16 O23 2.601814 1_555
Ca16 O46 2.648117 1_565
Ca16 O51 2.758059 1_565
Ca16 O4 3.015602 1_555
Ca17 O36 2.421649 1_455
Ca17 O16 2.422153 1_554
Ca17 O1 2.511800 1_555
Ca17 O27 2.515697 1_455
Ca17 O21 2.576854 1_455
Ca17 O22 2.601814 1_554
Ca17 O47 2.648117 1_554
Ca17 O54 2.758059 1_455
Ca17 O5 3.015602 1_555
Ca18 O37 2.421649 1_554
Ca18 O14 2.422153 1_545
Ca18 O1 2.511800 1_555
Ca18 O28 2.515697 1_554
Ca18 O22 2.576854 1_554
Ca18 O20 2.601814 1_545
Ca18 O48 2.648117 1_545
Ca18 O55 2.758059 1_554
Ca18 O6 3.015602 1_555
Ca19 O35 2.421649 1_545
Ca19 O15 2.422153 1_455
Ca19 O1 2.511800 1_555
Ca19 O26 2.515697 1_545
Ca19 O20 2.576854 1_545
Ca19 O21 2.601814 1_455
Ca19 O49 2.648117 1_455
Ca19 O53 2.758059 1_545
Ca19 O7 3.015602 1_555
Ag0 O52 2.474783 1_555
Ag0 O51 2.474784 1_555
Ag0 O50 2.474784 1_555
Ag1 O54 2.474783 1_556
Ag1 O55 2.474784 1_565
Ag1 O53 2.474784 1_655
O0 P0 1.561653 1_555
O1 P1 1.561653 1_555
O2 P0 1.561555 1_555
O3 P0 1.561555 1_555
O4 P0 1.561555 1_555
O5 P1 1.561555 1_555
O6 P1 1.561555 1_555
O7 P1 1.561555 1_555
O8 P2 1.562109 1_555
O9 P3 1.562109 1_555
O10 P4 1.562109 1_555
O11 P5 1.562109 1_555
O12 P6 1.562109 1_555
O13 P7 1.562109 1_555
O14 P2 1.556218 1_555
O15 P3 1.556218 1_555
O16 P4 1.556218 1_555
O17 P5 1.556218 1_555
O18 P6 1.556218 1_555
O19 P7 1.556218 1_555
O20 P2 1.551476 1_555
O21 P3 1.551476 1_555
O22 P4 1.551476 1_555
O23 P5 1.551476 1_555
O24 P6 1.551476 1_555
O25 P7 1.551476 1_555
O26 P2 1.544839 1_555
O27 P3 1.544839 1_555
O28 P4 1.544839 1_555
O29 P5 1.544839 1_555
O30 P6 1.544839 1_555
O31 P7 1.544839 1_555
O32 P8 1.562164 1_555
O33 P9 1.562164 1_555
O34 P10 1.562164 1_555
O35 P11 1.562164 1_555
O36 P12 1.562164 1_555
O37 P13 1.562164 1_555
O38 P8 1.570354 1_555
O39 P9 1.570354 1_555
O40 P10 1.570354 1_555
O41 P11 1.570354 1_555
O42 P12 1.570354 1_555
O43 P13 1.570354 1_555
O44 P8 1.544168 1_555
O45 P9 1.544168 1_555
O46 P10 1.544168 1_555
O47 P11 1.544168 1_555
O48 P12 1.544168 1_555
O49 P13 1.544168 1_555
O50 P8 1.565605 1_555
O51 P9 1.565605 1_555
O52 P10 1.565605 1_555
O53 P11 1.565605 1_555
O54 P12 1.565605 1_555
O55 P13 1.565605 1_555
