# generated using pymatgen
data_Rb2Ca2(SiO3)3
_symmetry_space_group_name_H-M   'P 1'
_cell_length_a   7.48513600
_cell_length_b   6.66990400
_cell_length_c   12.24381318
_cell_angle_alpha   60.86665892
_cell_angle_beta   90.00000000
_cell_angle_gamma   90.00000000
_symmetry_Int_Tables_number   1
_chemical_formula_structural   Rb2Ca2(SiO3)3
_chemical_formula_sum   'Rb4 Ca4 Si6 O18'
_cell_volume   533.94121896
_cell_formula_units_Z   2
loop_
 _symmetry_equiv_pos_site_id
 _symmetry_equiv_pos_as_xyz
  1  'x, y, z'
loop_
 _atom_site_type_symbol
 _atom_site_label
 _atom_site_symmetry_multiplicity
 _atom_site_fract_x
 _atom_site_fract_y
 _atom_site_fract_z
 _atom_site_occupancy
  Rb  Rb0  1  0.40882000  0.43926600  0.77274800  1
  Rb  Rb1  1  0.59118000  0.43926600  0.27274800  1
  Rb  Rb2  1  0.65889700  0.82452900  0.90130800  1
  Rb  Rb3  1  0.34110300  0.82452900  0.40130800  1
  Ca  Ca0  1  0.83376500  0.87291400  0.58595700  1
  Ca  Ca1  1  0.16623500  0.87291400  0.08595700  1
  Ca  Ca2  1  0.93464000  0.34107400  0.85481100  1
  Ca  Ca3  1  0.06536000  0.34107400  0.35481100  1
  Si  Si0  1  0.58430500  0.11453800  0.09288300  1
  Si  Si1  1  0.41569500  0.11453800  0.59288300  1
  Si  Si2  1  0.25487100  0.42807400  0.04924300  1
  Si  Si3  1  0.74512900  0.42807400  0.54924300  1
  Si  Si4  1  0.13783000  0.87339400  0.81629000  1
  Si  Si5  1  0.86217000  0.87339400  0.31629000  1
  O  O0  1  0.82577900  0.47607800  0.65679400  1
  O  O1  1  0.17422100  0.47607800  0.15679400  1
  O  O2  1  0.46422600  0.33167400  0.08978800  1
  O  O3  1  0.53577400  0.33167400  0.58978800  1
  O  O4  1  0.45919600  0.89061800  0.13385200  1
  O  O5  1  0.54080400  0.89061800  0.63385200  1
  O  O6  1  0.03508800  0.98987500  0.88831800  1
  O  O7  1  0.96491200  0.98987500  0.38831800  1
  O  O8  1  0.85419200  0.26558400  0.50888900  1
  O  O9  1  0.14580800  0.26558400  0.00888900  1
  O  O10  1  0.67991100  0.21100000  0.95810200  1
  O  O11  1  0.32008900  0.21100000  0.45810200  1
  O  O12  1  0.00721600  0.74039600  0.76608100  1
  O  O13  1  0.99278400  0.74039600  0.26608100  1
  O  O14  1  0.28565100  0.68630200  0.92051600  1
  O  O15  1  0.71434900  0.68630200  0.42051600  1
  O  O16  1  0.73182000  0.06858300  0.20585900  1
  O  O17  1  0.26818000  0.06858300  0.70585900  1
loop_
_geom_bond_atom_site_label_1
_geom_bond_atom_site_label_2
_geom_bond_distance
_geom_bond_site_symmetry_2
Ca0 O5 2.287763 1_555
Ca0 O8 2.316670 1_565
Ca0 O12 2.330799 1_655
Ca0 O0 2.350832 1_555
Ca0 O7 2.364281 1_555
Ca1 O4 2.287763 1_555
Ca1 O9 2.316670 1_565
Ca1 O13 2.330799 1_455
Ca1 O1 2.350832 1_555
Ca1 O6 2.364281 1_554
Ca2 O10 2.217926 1_555
Ca2 O0 2.286307 1_555
Ca2 O6 2.298919 1_645
Ca2 O9 2.320753 1_656
Ca2 O12 2.398304 1_655
Ca3 O11 2.217926 1_555
Ca3 O1 2.286307 1_555
Ca3 O7 2.298919 1_445
Ca3 O8 2.320753 1_455
Ca3 O13 2.398304 1_455
O0 Si3 1.616022 1_555
O1 Si2 1.616022 1_555
O2 Si2 1.674728 1_555
O2 Si0 1.689188 1_555
O2 Rb1 2.828684 1_555
O2 Rb2 3.296753 1_554
O3 Si3 1.674728 1_555
O3 Si1 1.689188 1_555
O3 Rb0 2.828684 1_555
O3 Rb3 3.296753 1_555
O4 Si0 1.621643 1_565
O4 Rb1 2.818880 1_555
O4 Rb3 3.208377 1_555
O4 Rb2 3.428914 1_554
O5 Si1 1.621643 1_565
O5 Rb0 2.818880 1_555
O5 Rb2 3.208377 1_555
O5 Rb3 3.428914 1_555
O6 Si4 1.624775 1_555
O6 Rb2 2.999955 1_455
O7 Si5 1.624775 1_555
O7 Rb3 2.999955 1_655
O8 Si3 1.614483 1_555
O9 Si2 1.614483 1_555
O10 Si0 1.617260 1_556
O10 Rb0 2.867321 1_555
O10 Rb2 2.982997 1_545
O11 Si1 1.617260 1_555
O11 Rb1 2.867321 1_555
O11 Rb3 2.982997 1_545
O12 Si4 1.628388 1_555
O12 Rb2 3.280008 1_455
O13 Si5 1.628388 1_555
O13 Rb3 3.280008 1_655
O14 Si4 1.690979 1_555
O14 Si2 1.691307 1_556
O14 Rb2 2.915391 1_555
O15 Si5 1.690979 1_555
O15 Si3 1.691307 1_555
O15 Rb3 2.915391 1_555
O16 Si5 1.661652 1_545
O16 Si0 1.677412 1_555
O17 Si4 1.661652 1_545
O17 Si1 1.677412 1_555
