# generated using pymatgen
data_Tm
_symmetry_space_group_name_H-M   'P 1'
_cell_length_a   7.12864014
_cell_length_b   7.12863923
_cell_length_c   10.97914524
_cell_angle_alpha   90.00000000
_cell_angle_beta   90.00000000
_cell_angle_gamma   119.99999450
_symmetry_Int_Tables_number   1
_chemical_formula_structural   Tm
_chemical_formula_sum   Tm16
_cell_volume   483.18396580
_cell_formula_units_Z   16
loop_
 _symmetry_equiv_pos_site_id
 _symmetry_equiv_pos_as_xyz
  1  'x, y, z'
loop_
 _atom_site_type_symbol
 _atom_site_label
 _atom_site_symmetry_multiplicity
 _atom_site_fract_x
 _atom_site_fract_y
 _atom_site_fract_z
 _atom_site_occupancy
  Tm  Tm0_0  1  0.16666650  0.33333350  0.12500000  1
  Tm  Tm0_1  1  0.16666650  0.33333350  0.62500000  1
  Tm  Tm0_2  1  0.16666650  0.83333350  0.12500000  1
  Tm  Tm0_3  1  0.16666650  0.83333350  0.62500000  1
  Tm  Tm0_4  1  0.66666650  0.33333350  0.12500000  1
  Tm  Tm0_5  1  0.66666650  0.33333350  0.62500000  1
  Tm  Tm0_6  1  0.66666650  0.83333350  0.12500000  1
  Tm  Tm0_7  1  0.66666650  0.83333350  0.62500000  1
  Tm  Tm1_0  1  0.33333350  0.16666650  0.37500000  1
  Tm  Tm1_1  1  0.33333350  0.16666650  0.87500000  1
  Tm  Tm1_2  1  0.33333350  0.66666650  0.37500000  1
  Tm  Tm1_3  1  0.33333350  0.66666650  0.87500000  1
  Tm  Tm1_4  1  0.83333350  0.16666650  0.37500000  1
  Tm  Tm1_5  1  0.83333350  0.16666650  0.87500000  1
  Tm  Tm1_6  1  0.83333350  0.66666650  0.37500000  1
  Tm  Tm1_7  1  0.83333350  0.66666650  0.87500000  1
loop_
_geom_bond_atom_site_label_1
_geom_bond_atom_site_label_2
_geom_bond_distance
_geom_bond_site_symmetry_2
Tm0_0 Tm1_3 3.430544 1_554
Tm0_0 Tm1_2 3.430544 1_555
Tm0_0 Tm1_5 3.430545 1_454
Tm0_0 Tm1_4 3.430545 1_455
Tm0_0 Tm1_1 3.430548 1_554
Tm0_0 Tm1_0 3.430548 1_555
Tm0_0 Tm0_2 3.564320 1_555
Tm0_0 Tm0_2 3.564320 1_545
Tm0_0 Tm0_4 3.564320 1_455
Tm0_0 Tm0_4 3.564320 1_555
Tm0_0 Tm0_6 3.564320 1_555
Tm0_0 Tm0_6 3.564320 1_445
Tm0_1 Tm1_2 3.430544 1_555
Tm0_1 Tm1_3 3.430544 1_555
Tm0_1 Tm1_4 3.430545 1_455
Tm0_1 Tm1_5 3.430545 1_455
Tm0_1 Tm1_0 3.430548 1_555
Tm0_1 Tm1_1 3.430548 1_555
Tm0_1 Tm0_3 3.564320 1_555
Tm0_1 Tm0_3 3.564320 1_545
Tm0_1 Tm0_5 3.564320 1_455
Tm0_1 Tm0_5 3.564320 1_555
Tm0_1 Tm0_7 3.564320 1_445
Tm0_1 Tm0_7 3.564320 1_555
Tm0_2 Tm1_1 3.430544 1_564
Tm0_2 Tm1_0 3.430544 1_565
Tm0_2 Tm1_7 3.430545 1_454
Tm0_2 Tm1_6 3.430545 1_455
Tm0_2 Tm1_3 3.430548 1_554
Tm0_2 Tm1_2 3.430548 1_555
Tm0_2 Tm0_6 3.564320 1_455
Tm0_2 Tm0_6 3.564320 1_555
Tm0_2 Tm0_4 3.564320 1_455
Tm0_2 Tm0_4 3.564320 1_565
Tm0_3 Tm1_0 3.430544 1_565
Tm0_3 Tm1_1 3.430544 1_565
Tm0_3 Tm1_6 3.430545 1_455
Tm0_3 Tm1_7 3.430545 1_455
Tm0_3 Tm1_2 3.430548 1_555
Tm0_3 Tm1_3 3.430548 1_555
Tm0_3 Tm0_7 3.564320 1_455
Tm0_3 Tm0_7 3.564320 1_555
Tm0_3 Tm0_5 3.564320 1_455
Tm0_3 Tm0_5 3.564320 1_565
Tm0_4 Tm1_7 3.430544 1_554
Tm0_4 Tm1_6 3.430544 1_555
Tm0_4 Tm1_1 3.430545 1_554
Tm0_4 Tm1_0 3.430545 1_555
Tm0_4 Tm1_5 3.430548 1_554
Tm0_4 Tm1_4 3.430548 1_555
Tm0_4 Tm0_6 3.564320 1_555
Tm0_4 Tm0_6 3.564320 1_545
Tm0_5 Tm1_6 3.430544 1_555
Tm0_5 Tm1_7 3.430544 1_555
Tm0_5 Tm1_0 3.430545 1_555
Tm0_5 Tm1_1 3.430545 1_555
Tm0_5 Tm1_4 3.430548 1_555
Tm0_5 Tm1_5 3.430548 1_555
Tm0_5 Tm0_7 3.564320 1_545
Tm0_5 Tm0_7 3.564320 1_555
Tm0_6 Tm1_5 3.430544 1_564
Tm0_6 Tm1_4 3.430544 1_565
Tm0_6 Tm1_3 3.430545 1_554
Tm0_6 Tm1_2 3.430545 1_555
Tm0_6 Tm1_7 3.430548 1_554
Tm0_6 Tm1_6 3.430548 1_555
Tm0_7 Tm1_4 3.430544 1_565
Tm0_7 Tm1_5 3.430544 1_565
Tm0_7 Tm1_2 3.430545 1_555
Tm0_7 Tm1_3 3.430545 1_555
Tm0_7 Tm1_6 3.430548 1_555
Tm0_7 Tm1_7 3.430548 1_555
Tm1_0 Tm1_2 3.564320 1_545
Tm1_0 Tm1_2 3.564320 1_555
Tm1_0 Tm1_4 3.564320 1_455
Tm1_0 Tm1_4 3.564320 1_555
Tm1_0 Tm1_6 3.564320 1_445
Tm1_0 Tm1_6 3.564320 1_555
Tm1_1 Tm1_3 3.564320 1_545
Tm1_1 Tm1_3 3.564320 1_555
Tm1_1 Tm1_5 3.564320 1_455
Tm1_1 Tm1_5 3.564320 1_555
Tm1_1 Tm1_7 3.564320 1_555
Tm1_1 Tm1_7 3.564320 1_445
Tm1_2 Tm1_6 3.564320 1_455
Tm1_2 Tm1_6 3.564320 1_555
Tm1_2 Tm1_4 3.564320 1_455
Tm1_2 Tm1_4 3.564320 1_565
Tm1_3 Tm1_7 3.564320 1_455
Tm1_3 Tm1_7 3.564320 1_555
Tm1_3 Tm1_5 3.564320 1_455
Tm1_3 Tm1_5 3.564320 1_565
Tm1_4 Tm1_6 3.564320 1_545
Tm1_4 Tm1_6 3.564320 1_555
Tm1_5 Tm1_7 3.564320 1_545
Tm1_5 Tm1_7 3.564320 1_555
