# generated using pymatgen
data_LiMg14Ti
_symmetry_space_group_name_H-M   'P 1'
_cell_length_a   6.36911296
_cell_length_b   6.36911245
_cell_length_c   10.05682462
_cell_angle_alpha   90.00000000
_cell_angle_beta   90.00000000
_cell_angle_gamma   120.00000267
_symmetry_Int_Tables_number   1
_chemical_formula_structural   LiMg14Ti
_chemical_formula_sum   'Li1 Mg14 Ti1'
_cell_volume   353.30465896
_cell_formula_units_Z   1
loop_
 _symmetry_equiv_pos_site_id
 _symmetry_equiv_pos_as_xyz
  1  'x, y, z'
loop_
 _atom_site_type_symbol
 _atom_site_label
 _atom_site_symmetry_multiplicity
 _atom_site_fract_x
 _atom_site_fract_y
 _atom_site_fract_z
 _atom_site_occupancy
  Li  Li0  1  0.16666700  0.33333300  0.62500000  1
  Mg  Mg0  1  0.17021551  0.83510726  0.12500000  1
  Mg  Mg1  1  0.16819873  0.83409886  0.62500000  1
  Mg  Mg2  1  0.66489274  0.32978449  0.12500000  1
  Mg  Mg3  1  0.66590114  0.33180127  0.62500000  1
  Mg  Mg4  1  0.66489274  0.83510726  0.12500000  1
  Mg  Mg5  1  0.66590114  0.83409886  0.62500000  1
  Mg  Mg6  1  0.32979404  0.17020596  0.37342866  1
  Mg  Mg7  1  0.32979404  0.17020596  0.87657134  1
  Mg  Mg8  1  0.32979404  0.65958907  0.37342866  1
  Mg  Mg9  1  0.32979404  0.65958907  0.87657134  1
  Mg  Mg10  1  0.84041093  0.17020596  0.37342866  1
  Mg  Mg11  1  0.84041093  0.17020596  0.87657134  1
  Mg  Mg12  1  0.83333300  0.66666700  0.37407576  1
  Mg  Mg13  1  0.83333300  0.66666700  0.87592424  1
  Ti  Ti0  1  0.16666700  0.33333300  0.12500000  1
loop_
_geom_bond_atom_site_label_1
_geom_bond_atom_site_label_2
_geom_bond_distance
_geom_bond_site_symmetry_2
Li0 Mg6 3.104730 1_555
Li0 Mg7 3.104730 1_555
Li0 Mg8 3.104736 1_555
Li0 Mg9 3.104736 1_555
Li0 Mg10 3.104736 1_455
Li0 Mg11 3.104736 1_455
Li0 Mg1 3.184567 1_555
Li0 Mg5 3.184567 1_555
Li0 Mg5 3.184567 1_445
Li0 Mg1 3.184567 1_545
Li0 Mg3 3.184568 1_455
Li0 Mg3 3.184568 1_555
Mg0 Mg9 3.108203 1_554
Mg0 Mg8 3.108203 1_555
Mg0 Mg7 3.108209 1_564
Mg0 Mg6 3.108209 1_565
Mg0 Mg12 3.118881 1_455
Mg0 Mg13 3.118881 1_454
Mg0 Mg2 3.150655 1_565
Mg0 Mg4 3.150655 1_555
Mg0 Ti0 3.184616 1_565
Mg0 Ti0 3.184616 1_555
Mg0 Mg2 3.218458 1_455
Mg0 Mg4 3.218458 1_455
Mg1 Mg12 3.127247 1_455
Mg1 Mg13 3.127247 1_455
Mg1 Mg8 3.136807 1_555
Mg1 Mg9 3.136807 1_555
Mg1 Mg6 3.136813 1_565
Mg1 Mg7 3.136813 1_565
Mg1 Mg3 3.169923 1_565
Mg1 Mg5 3.169923 1_555
Mg1 Mg3 3.199190 1_455
Mg1 Mg5 3.199190 1_455
Mg2 Mg7 3.108209 1_554
Mg2 Mg6 3.108209 1_555
Mg2 Mg4 3.150655 1_545
Mg2 Ti0 3.184617 1_555
Mg2 Ti0 3.184617 1_655
Mg2 Mg4 3.218458 1_555
Mg3 Mg6 3.136813 1_555
Mg3 Mg7 3.136813 1_555
Mg3 Mg5 3.169923 1_545
Mg3 Mg5 3.199190 1_555
Mg4 Mg9 3.108209 1_554
Mg4 Mg8 3.108209 1_555
Mg4 Ti0 3.184616 1_555
Mg4 Ti0 3.184616 1_665
Mg5 Mg8 3.136813 1_555
Mg5 Mg9 3.136813 1_555
Mg6 Ti0 3.079030 1_555
Mg6 Mg8 3.116936 1_555
Mg6 Mg8 3.252176 1_545
Mg7 Ti0 3.079030 1_556
Mg7 Mg9 3.116936 1_555
Mg7 Mg9 3.252176 1_545
Mg8 Ti0 3.079036 1_555
Mg9 Ti0 3.079036 1_556
Mg10 Ti0 3.079036 1_655
Mg10 Mg2 3.108203 1_555
Mg10 Mg4 3.108209 1_545
Mg10 Mg8 3.116936 1_655
Mg10 Mg6 3.116936 1_655
Mg10 Mg3 3.136807 1_555
Mg10 Mg5 3.136813 1_545
Mg10 Mg12 3.184802 1_545
Mg10 Mg12 3.184802 1_555
Mg10 Mg8 3.252176 1_545
Mg10 Mg6 3.252177 1_555
Mg11 Ti0 3.079036 1_656
Mg11 Mg2 3.108203 1_556
Mg11 Mg4 3.108209 1_546
Mg11 Mg9 3.116936 1_655
Mg11 Mg7 3.116936 1_655
Mg11 Mg3 3.136807 1_555
Mg11 Mg5 3.136813 1_545
Mg11 Mg13 3.184802 1_545
Mg11 Mg13 3.184802 1_555
Mg11 Mg9 3.252176 1_545
Mg11 Mg7 3.252177 1_555
Mg12 Mg4 3.118874 1_555
Mg12 Mg2 3.118881 1_555
Mg12 Mg5 3.127241 1_555
Mg12 Mg3 3.127247 1_555
Mg12 Mg6 3.184802 1_665
Mg12 Mg6 3.184802 1_555
Mg12 Mg8 3.184802 1_555
Mg12 Mg8 3.184802 1_655
Mg13 Mg4 3.118874 1_556
Mg13 Mg2 3.118881 1_556
Mg13 Mg5 3.127241 1_555
Mg13 Mg3 3.127247 1_555
Mg13 Mg7 3.184802 1_665
Mg13 Mg7 3.184802 1_555
Mg13 Mg9 3.184802 1_555
Mg13 Mg9 3.184802 1_655
