# generated using pymatgen
data_Li2VPO5
_symmetry_space_group_name_H-M   'P 1'
_cell_length_a   7.19506200
_cell_length_b   7.32928484
_cell_length_c   7.86840692
_cell_angle_alpha   90.12572357
_cell_angle_beta   90.45850034
_cell_angle_gamma   116.16719197
_symmetry_Int_Tables_number   1
_chemical_formula_structural   Li2VPO5
_chemical_formula_sum   'Li8 V4 P4 O20'
_cell_volume   372.39171611
_cell_formula_units_Z   4
loop_
 _symmetry_equiv_pos_site_id
 _symmetry_equiv_pos_as_xyz
  1  'x, y, z'
loop_
 _atom_site_type_symbol
 _atom_site_label
 _atom_site_symmetry_multiplicity
 _atom_site_fract_x
 _atom_site_fract_y
 _atom_site_fract_z
 _atom_site_occupancy
  Li  Li0  1  0.50000000  0.50000000  0.50000000  1
  Li  Li1  1  0.50000000  0.00000000  0.00000000  1
  Li  Li2  1  0.25933000  0.12302500  0.55841200  1
  Li  Li3  1  0.74067000  0.87697500  0.44158800  1
  Li  Li4  1  0.82068600  0.36146900  0.94388900  1
  Li  Li5  1  0.17931400  0.63853100  0.05611100  1
  Li  Li6  1  0.14194700  0.40733300  0.56020100  1
  Li  Li7  1  0.85805300  0.59266700  0.43979900  1
  V  V0  1  0.00727100  0.76641100  0.75729800  1
  V  V1  1  0.99272900  0.23358900  0.24270200  1
  V  V2  1  0.50505100  0.74831600  0.75360100  1
  V  V3  1  0.49494900  0.25168400  0.24639900  1
  P  P0  1  0.74639300  0.23187100  0.61494900  1
  P  P1  1  0.25360700  0.76812900  0.38505100  1
  P  P2  1  0.24514200  0.26836500  0.88627800  1
  P  P3  1  0.75485800  0.73163500  0.11372200  1
  O  O0  1  0.09547700  0.56032400  0.30734800  1
  O  O1  1  0.90452300  0.43967600  0.69265200  1
  O  O2  1  0.64899200  0.07646800  0.75719300  1
  O  O3  1  0.35100800  0.92353200  0.24280700  1
  O  O4  1  0.41745600  0.72975200  0.49046000  1
  O  O5  1  0.58254400  0.27024800  0.50954000  1
  O  O6  1  0.87253900  0.16296400  0.49424500  1
  O  O7  1  0.12746100  0.83703600  0.50575500  1
  O  O8  1  0.73638000  0.23143500  0.15938100  1
  O  O9  1  0.26362000  0.76856500  0.84061900  1
  O  O10  1  0.11375100  0.07222000  0.78288300  1
  O  O11  1  0.88624900  0.92778000  0.21711700  1
  O  O12  1  0.41363000  0.24308500  0.99136700  1
  O  O13  1  0.58637000  0.75691500  0.00863300  1
  O  O14  1  0.74087200  0.72079600  0.64346100  1
  O  O15  1  0.25912800  0.27920400  0.35653900  1
  O  O16  1  0.65725200  0.56895200  0.25773400  1
  O  O17  1  0.34274800  0.43104800  0.74226600  1
  O  O18  1  0.11039900  0.33445600  0.00058900  1
  O  O19  1  0.88960100  0.66554400  0.99941100  1
loop_
_geom_bond_atom_site_label_1
_geom_bond_atom_site_label_2
_geom_bond_distance
_geom_bond_site_symmetry_2
Li0 O4 2.018874 1_555
Li0 O5 2.018874 1_555
Li0 O14 2.093722 1_555
Li0 O15 2.093722 1_555
Li0 O17 2.168816 1_555
Li0 O16 2.168816 1_555
Li1 O12 2.131057 1_554
Li1 O13 2.131057 1_545
Li1 O2 2.149629 1_554
Li1 O3 2.149629 1_545
Li1 O8 2.180517 1_555
Li1 O9 2.180517 1_544
Li2 O7 1.923884 1_545
Li2 O15 1.960301 1_555
Li2 O10 2.010936 1_555
Li2 O5 2.126801 1_555
Li2 O17 2.515231 1_555
Li3 O6 1.923884 1_565
Li3 O14 1.960301 1_555
Li3 O11 2.010936 1_555
Li3 O4 2.126801 1_555
Li3 O16 2.515231 1_555
Li4 O8 1.914398 1_556
Li4 O1 2.078317 1_555
Li4 O19 2.102669 1_555
Li4 O18 2.221011 1_656
Li4 O2 2.393516 1_555
Li5 O9 1.914398 1_554
Li5 O0 2.078317 1_555
Li5 O18 2.102669 1_555
Li5 O19 2.221011 1_454
Li5 O3 2.393516 1_555
Li6 O17 1.978413 1_555
Li6 O6 2.037737 1_455
Li6 O1 2.108345 1_455
Li6 O15 2.207736 1_555
Li6 O0 2.378500 1_555
Li6 O4 2.388818 1_555
Li7 O16 1.978413 1_555
Li7 O7 2.037737 1_655
Li7 O0 2.108345 1_655
Li7 O14 2.207736 1_555
Li7 O1 2.378500 1_555
Li7 O5 2.388818 1_555
O0 P1 1.563467 1_555
O0 V1 2.228724 1_455
O1 P0 1.563467 1_555
O1 V0 2.228724 1_655
O2 P0 1.534684 1_555
O2 V2 2.158773 1_545
O3 P1 1.534684 1_555
O3 V3 2.158773 1_565
O4 P1 1.560344 1_555
O4 V2 2.145914 1_555
O5 P0 1.560344 1_555
O5 V3 2.145914 1_555
O6 P0 1.548179 1_555
O6 V1 2.137817 1_555
O7 P1 1.548179 1_555
O7 V0 2.137817 1_555
O8 V3 1.937616 1_555
O8 V1 1.946014 1_555
O9 V2 1.937616 1_555
O9 V0 1.946014 1_555
O10 P2 1.551186 1_555
O10 V0 2.032785 1_545
O11 P3 1.551186 1_555
O11 V1 2.032785 1_565
O12 P2 1.539620 1_555
O12 V3 2.078766 1_556
O13 P3 1.539620 1_555
O13 V2 2.078766 1_554
O14 V0 1.998513 1_655
O14 V2 1.998822 1_555
O15 V1 1.998513 1_455
O15 V3 1.998822 1_555
O16 P3 1.574496 1_555
O16 V3 2.093157 1_555
O17 P2 1.574496 1_555
O17 V2 2.093157 1_555
O18 P2 1.552348 1_554
O18 V1 2.091049 1_455
O19 P3 1.552348 1_556
O19 V0 2.091049 1_655
