# generated using pymatgen
data_La(AlSi)2
_symmetry_space_group_name_H-M   'P 1'
_cell_length_a   4.22087204
_cell_length_b   4.22087204
_cell_length_c   7.05030696
_cell_angle_alpha   90.00000000
_cell_angle_beta   90.00000000
_cell_angle_gamma   119.99998865
_symmetry_Int_Tables_number   1
_chemical_formula_structural   La(AlSi)2
_chemical_formula_sum   'La1 Al2 Si2'
_cell_volume   108.77850330
_cell_formula_units_Z   1
loop_
 _symmetry_equiv_pos_site_id
 _symmetry_equiv_pos_as_xyz
  1  'x, y, z'
loop_
 _atom_site_type_symbol
 _atom_site_label
 _atom_site_symmetry_multiplicity
 _atom_site_fract_x
 _atom_site_fract_y
 _atom_site_fract_z
 _atom_site_occupancy
  La  La0  1  0.00000000  -0.00000000  0.00000000  1
  Al  Al0  1  0.33333300  0.66666700  0.63506062  1
  Al  Al1  1  0.66666700  0.33333300  0.36493938  1
  Si  Si0  1  0.33333300  0.66666700  0.27498080  1
  Si  Si1  1  0.66666700  0.33333300  0.72501920  1
loop_
_geom_bond_atom_site_label_1
_geom_bond_atom_site_label_2
_geom_bond_distance
_geom_bond_site_symmetry_2
La0 Si1 3.114021 1_454
La0 Si0 3.114021 1_545
La0 Si1 3.114024 1_554
La0 Si0 3.114024 1_445
La0 Si1 3.114024 1_444
La0 Si0 3.114024 1_555
Al0 Si1 2.518101 1_565
Al0 Si1 2.518101 1_455
Al0 Si1 2.518107 1_555
Al0 Si0 2.538673 1_555
Al1 Si0 2.518101 1_655
Al1 Si0 2.518101 1_545
Al1 Si0 2.518107 1_555
Al1 Si1 2.538673 1_555
