# generated using pymatgen
data_LaMg14B
_symmetry_space_group_name_H-M   'P 1'
_cell_length_a   6.43757061
_cell_length_b   6.43757008
_cell_length_c   10.24383402
_cell_angle_alpha   90.00000000
_cell_angle_beta   90.00000000
_cell_angle_gamma   120.00000278
_symmetry_Int_Tables_number   1
_chemical_formula_structural   LaMg14B
_chemical_formula_sum   'La1 Mg14 B1'
_cell_volume   367.65216509
_cell_formula_units_Z   1
loop_
 _symmetry_equiv_pos_site_id
 _symmetry_equiv_pos_as_xyz
  1  'x, y, z'
loop_
 _atom_site_type_symbol
 _atom_site_label
 _atom_site_symmetry_multiplicity
 _atom_site_fract_x
 _atom_site_fract_y
 _atom_site_fract_z
 _atom_site_occupancy
  La  La0  1  0.16666700  0.33333300  0.12500000  1
  Mg  Mg0  1  0.18158938  0.84079419  0.12500000  1
  Mg  Mg1  1  0.15865153  0.82932527  0.62500000  1
  Mg  Mg2  1  0.65920581  0.31841062  0.12500000  1
  Mg  Mg3  1  0.67067473  0.34134847  0.62500000  1
  Mg  Mg4  1  0.65920581  0.84079419  0.12500000  1
  Mg  Mg5  1  0.67067473  0.82932527  0.62500000  1
  Mg  Mg6  1  0.32898615  0.17101385  0.39473872  1
  Mg  Mg7  1  0.32898615  0.17101385  0.85526128  1
  Mg  Mg8  1  0.32898615  0.65797331  0.39473872  1
  Mg  Mg9  1  0.32898615  0.65797331  0.85526128  1
  Mg  Mg10  1  0.84202669  0.17101385  0.39473872  1
  Mg  Mg11  1  0.84202669  0.17101385  0.85526128  1
  Mg  Mg12  1  0.83333300  0.66666700  0.36434088  1
  Mg  Mg13  1  0.83333300  0.66666700  0.88565912  1
  B  B0  1  0.16666700  0.33333300  0.62500000  1
loop_
_geom_bond_atom_site_label_1
_geom_bond_atom_site_label_2
_geom_bond_distance
_geom_bond_site_symmetry_2
La0 Mg4 3.219860 1_555
La0 Mg0 3.219860 1_555
La0 Mg4 3.219860 1_445
La0 Mg0 3.219860 1_545
La0 Mg2 3.219860 1_455
La0 Mg2 3.219860 1_555
La0 Mg7 3.303143 1_554
La0 Mg6 3.303143 1_555
La0 Mg9 3.303149 1_554
La0 Mg8 3.303149 1_555
La0 Mg11 3.303149 1_454
La0 Mg10 3.303149 1_455
Mg0 Mg2 3.074689 1_565
Mg0 Mg4 3.074689 1_555
Mg0 Mg12 3.127433 1_455
Mg0 Mg13 3.127433 1_454
Mg0 Mg9 3.322245 1_554
Mg0 Mg8 3.322245 1_555
Mg0 Mg7 3.322252 1_564
Mg0 Mg6 3.322252 1_565
Mg0 Mg2 3.362881 1_455
Mg0 Mg4 3.362881 1_455
Mg1 Mg8 3.031919 1_555
Mg1 Mg9 3.031919 1_555
Mg1 Mg6 3.031926 1_565
Mg1 Mg7 3.031926 1_565
Mg1 Mg3 3.141385 1_455
Mg1 Mg5 3.141385 1_455
Mg1 Mg12 3.227869 1_455
Mg1 Mg13 3.227869 1_455
Mg1 Mg3 3.296185 1_565
Mg1 Mg5 3.296186 1_555
Mg2 Mg4 3.074689 1_545
Mg2 Mg7 3.322252 1_554
Mg2 Mg6 3.322252 1_555
Mg2 Mg4 3.362881 1_555
Mg3 Mg6 3.031926 1_555
Mg3 Mg7 3.031926 1_555
Mg3 Mg5 3.141385 1_555
Mg3 Mg5 3.296185 1_545
Mg4 Mg8 3.322251 1_555
Mg4 Mg9 3.322251 1_554
Mg5 Mg8 3.031926 1_555
Mg5 Mg9 3.031926 1_555
Mg6 Mg8 3.134836 1_555
Mg6 Mg8 3.302734 1_545
Mg7 Mg9 3.134836 1_555
Mg7 Mg9 3.302734 1_545
Mg10 Mg3 3.031919 1_555
Mg10 Mg5 3.031926 1_545
Mg10 Mg8 3.134836 1_655
Mg10 Mg6 3.134836 1_655
Mg10 Mg12 3.234175 1_555
Mg10 Mg12 3.234175 1_545
Mg10 Mg8 3.302734 1_545
Mg10 Mg6 3.302735 1_555
Mg10 Mg2 3.322245 1_555
Mg10 Mg4 3.322251 1_545
Mg11 Mg3 3.031919 1_555
Mg11 Mg5 3.031926 1_545
Mg11 Mg9 3.134836 1_655
Mg11 Mg7 3.134836 1_655
Mg11 Mg13 3.234175 1_555
Mg11 Mg13 3.234175 1_545
Mg11 Mg9 3.302734 1_545
Mg11 Mg7 3.302735 1_555
Mg11 Mg2 3.322245 1_556
Mg11 Mg4 3.322251 1_546
Mg12 Mg4 3.127426 1_555
Mg12 Mg2 3.127433 1_555
Mg12 Mg5 3.227863 1_555
Mg12 Mg3 3.227869 1_555
Mg12 Mg6 3.234175 1_665
Mg12 Mg6 3.234175 1_555
Mg12 Mg8 3.234176 1_655
Mg12 Mg8 3.234176 1_555
Mg13 Mg4 3.127426 1_556
Mg13 Mg2 3.127433 1_556
Mg13 Mg5 3.227863 1_555
Mg13 Mg3 3.227869 1_555
Mg13 Mg7 3.234175 1_665
Mg13 Mg7 3.234175 1_555
Mg13 Mg9 3.234176 1_655
Mg13 Mg9 3.234176 1_555
B0 Mg6 2.973121 1_555
B0 Mg7 2.973121 1_555
B0 Mg9 2.973127 1_555
B0 Mg8 2.973127 1_555
B0 Mg10 2.973127 1_455
B0 Mg11 2.973127 1_455
