# generated using pymatgen
data_KHo3F10
_symmetry_space_group_name_H-M   'P 1'
_cell_length_a   8.09482219
_cell_length_b   8.09484851
_cell_length_c   8.09484664
_cell_angle_alpha   59.99998024
_cell_angle_beta   59.99992227
_cell_angle_gamma   59.99996053
_symmetry_Int_Tables_number   1
_chemical_formula_structural   KHo3F10
_chemical_formula_sum   'K2 Ho6 F20'
_cell_volume   375.06731329
_cell_formula_units_Z   2
loop_
 _symmetry_equiv_pos_site_id
 _symmetry_equiv_pos_as_xyz
  1  'x, y, z'
loop_
 _atom_site_type_symbol
 _atom_site_label
 _atom_site_symmetry_multiplicity
 _atom_site_fract_x
 _atom_site_fract_y
 _atom_site_fract_z
 _atom_site_occupancy
  K  K0  1  0.24998718  0.25000544  0.25000577  1
  K  K1  1  0.75001363  0.74999233  0.74999409  1
  Ho  Ho0  1  0.75985720  0.24014285  0.24014301  1
  Ho  Ho1  1  0.24014249  0.75985685  0.75985792  1
  Ho  Ho2  1  0.24014284  0.75985516  0.24014404  1
  Ho  Ho3  1  0.75985607  0.24014485  0.75985664  1
  Ho  Ho4  1  0.24014180  0.24014286  0.75985674  1
  Ho  Ho5  1  0.75985808  0.75985684  0.24014330  1
  F  F0  1  0.83166610  0.50000001  0.49999906  1
  F  F1  1  0.16833375  0.50000040  0.50000114  1
  F  F2  1  0.50000090  0.83165884  0.16833991  1
  F  F3  1  0.49999902  0.16834042  0.83166006  1
  F  F4  1  0.50000221  0.83166109  0.50000174  1
  F  F5  1  0.16833503  0.50000254  0.83165936  1
  F  F6  1  0.49999781  0.16833888  0.49999802  1
  F  F7  1  0.83166399  0.49999797  0.16834021  1
  F  F8  1  0.50000110  0.50000253  0.83166119  1
  F  F9  1  0.49999840  0.49999861  0.16833795  1
  F  F10  1  0.16833593  0.83165916  0.50000275  1
  F  F11  1  0.83166532  0.16834121  0.49999725  1
  F  F12  1  0.11209636  0.11209833  0.11209739  1
  F  F13  1  0.88790374  0.88790179  0.88790224  1
  F  F14  1  0.11209461  0.11210036  0.66370602  1
  F  F15  1  0.11209585  0.66370452  0.11209993  1
  F  F16  1  0.88790498  0.88790010  0.33629438  1
  F  F17  1  0.88790376  0.33629525  0.88790007  1
  F  F18  1  0.66371057  0.11209783  0.11209678  1
  F  F19  1  0.33628925  0.88790197  0.88790303  1
loop_
_geom_bond_atom_site_label_1
_geom_bond_atom_site_label_2
_geom_bond_distance
_geom_bond_site_symmetry_2
F0 Ho5 2.182332 1_555
F0 Ho3 2.182335 1_555
F1 Ho2 2.182329 1_555
F1 Ho4 2.182333 1_555
F2 Ho5 2.182328 1_555
F2 Ho2 2.182330 1_555
F3 Ho4 2.182327 1_555
F3 Ho3 2.182328 1_555
F4 Ho5 2.182330 1_555
F4 Ho1 2.182336 1_555
F5 Ho1 2.182333 1_555
F5 Ho4 2.182337 1_555
F6 Ho0 2.182330 1_555
F6 Ho4 2.182331 1_555
F7 Ho0 2.182332 1_555
F7 Ho5 2.182336 1_555
F8 Ho1 2.182325 1_555
F8 Ho3 2.182326 1_555
F9 Ho2 2.182325 1_555
F9 Ho0 2.182334 1_555
F10 Ho1 2.182333 1_555
F10 Ho2 2.182336 1_555
F11 Ho3 2.182332 1_555
F11 Ho0 2.182335 1_555
F12 Ho0 2.332853 1_455
F12 Ho4 2.332870 1_554
F12 Ho2 2.332889 1_545
F12 K0 2.734355 1_555
F13 Ho1 2.332850 1_655
F13 Ho5 2.332873 1_556
F13 Ho3 2.332888 1_565
F13 K1 2.734364 1_555
F14 Ho3 2.332848 1_455
F14 Ho4 2.332868 1_555
F14 Ho1 2.332890 1_545
F14 K0 2.734315 1_555
F15 Ho5 2.332842 1_455
F15 Ho2 2.332877 1_555
F15 Ho1 2.332878 1_554
F15 K0 2.734309 1_555
F16 Ho2 2.332844 1_655
F16 Ho5 2.332874 1_555
F16 Ho0 2.332885 1_565
F16 K1 2.734311 1_555
F17 Ho4 2.332844 1_655
F17 Ho3 2.332876 1_555
F17 Ho0 2.332885 1_556
F17 K1 2.734295 1_555
F18 Ho0 2.332854 1_555
F18 Ho3 2.332869 1_554
F18 Ho5 2.332875 1_545
F18 K0 2.734459 1_555
F19 Ho1 2.332848 1_555
F19 Ho2 2.332875 1_556
F19 Ho4 2.332875 1_565
F19 K1 2.734465 1_555
