# generated using pymatgen
data_Sr9Nd3Cu12(PbO4)8
_symmetry_space_group_name_H-M   'P 1'
_cell_length_a   16.58052478
_cell_length_b   16.58052478
_cell_length_c   10.92708419
_cell_angle_alpha   80.51630013
_cell_angle_beta   80.51630013
_cell_angle_gamma   18.96994685
_symmetry_Int_Tables_number   1
_chemical_formula_structural   Sr9Nd3Cu12(PbO4)8
_chemical_formula_sum   'Sr9 Nd3 Cu12 Pb8 O32'
_cell_volume   962.79704776
_cell_formula_units_Z   1
loop_
 _symmetry_equiv_pos_site_id
 _symmetry_equiv_pos_as_xyz
  1  'x, y, z'
loop_
 _atom_site_type_symbol
 _atom_site_label
 _atom_site_symmetry_multiplicity
 _atom_site_fract_x
 _atom_site_fract_y
 _atom_site_fract_z
 _atom_site_occupancy
  Sr  Sr0  1  0.11066300  0.11066300  0.94478700  1
  Sr  Sr1  1  0.61152300  0.61152300  0.69513400  1
  Sr  Sr2  1  0.11176800  0.11176800  0.44395500  1
  Sr  Sr3  1  0.61150600  0.61150600  0.19337800  1
  Sr  Sr4  1  0.38849400  0.38849400  0.80662200  1
  Sr  Sr5  1  0.88823200  0.88823200  0.55604500  1
  Sr  Sr6  1  0.38847700  0.38847700  0.30486600  1
  Sr  Sr7  1  0.88933700  0.88933700  0.05521300  1
  Sr  Sr8  1  0.00000000  0.00000000  0.00000000  1
  Nd  Nd0  1  0.50003500  0.50003500  0.24704000  1
  Nd  Nd1  1  0.00000000  0.00000000  0.50000000  1
  Nd  Nd2  1  0.49996500  0.49996500  0.75296000  1
  Cu  Cu0  1  0.05524300  0.05524300  0.72313200  1
  Cu  Cu1  1  0.55515000  0.55515000  0.47252300  1
  Cu  Cu2  1  0.05529300  0.05529300  0.22158000  1
  Cu  Cu3  1  0.55538000  0.55538000  0.97220100  1
  Cu  Cu4  1  0.44485000  0.44485000  0.52747700  1
  Cu  Cu5  1  0.94475700  0.94475700  0.27686800  1
  Cu  Cu6  1  0.44462000  0.44462000  0.02779900  1
  Cu  Cu7  1  0.94470700  0.94470700  0.77842000  1
  Cu  Cu8  1  0.24999500  0.24999500  0.87506300  1
  Cu  Cu9  1  0.75005400  0.75005400  0.62500900  1
  Cu  Cu10  1  0.24994600  0.24994600  0.37499100  1
  Cu  Cu11  1  0.75000500  0.75000500  0.12493700  1
  Pb  Pb0  1  0.19417300  0.19417300  0.65302200  1
  Pb  Pb1  1  0.69416700  0.69416700  0.40275500  1
  Pb  Pb2  1  0.19421000  0.19421000  0.15255200  1
  Pb  Pb3  1  0.69425900  0.69425900  0.90271200  1
  Pb  Pb4  1  0.30583300  0.30583300  0.59724500  1
  Pb  Pb5  1  0.80582700  0.80582700  0.34697800  1
  Pb  Pb6  1  0.30574100  0.30574100  0.09728800  1
  Pb  Pb7  1  0.80579000  0.80579000  0.84744800  1
  O  O0  1  0.29742600  0.79979600  0.60051400  1
  O  O1  1  0.79964900  0.29759000  0.35096200  1
  O  O2  1  0.30802400  0.79345800  0.10284600  1
  O  O3  1  0.79366300  0.30782700  0.84630000  1
  O  O4  1  0.20020400  0.70257400  0.39948600  1
  O  O5  1  0.69217300  0.20633700  0.15370000  1
  O  O6  1  0.20654200  0.69197600  0.89715400  1
  O  O7  1  0.70241000  0.20035100  0.64903800  1
  O  O8  1  0.70257400  0.20020400  0.39948600  1
  O  O9  1  0.20633700  0.69217300  0.15370000  1
  O  O10  1  0.69197600  0.20654200  0.89715400  1
  O  O11  1  0.20035100  0.70241000  0.64903800  1
  O  O12  1  0.79979600  0.29742600  0.60051400  1
  O  O13  1  0.29759000  0.79964900  0.35096200  1
  O  O14  1  0.79345800  0.30802400  0.10284600  1
  O  O15  1  0.30782700  0.79366300  0.84630000  1
  O  O16  1  0.19239500  0.19239500  0.90381300  1
  O  O17  1  0.69250600  0.69250600  0.65360900  1
  O  O18  1  0.19237500  0.19237500  0.40376000  1
  O  O19  1  0.69244500  0.69244500  0.15397100  1
  O  O20  1  0.30755500  0.30755500  0.84602900  1
  O  O21  1  0.80762500  0.80762500  0.59624000  1
  O  O22  1  0.30749400  0.30749400  0.34639100  1
  O  O23  1  0.80760500  0.80760500  0.09618700  1
  O  O24  1  0.12669100  0.12669100  0.68577500  1
  O  O25  1  0.62644200  0.62644200  0.43671500  1
  O  O26  1  0.12666300  0.12666300  0.18737200  1
  O  O27  1  0.62695300  0.62695300  0.93645800  1
  O  O28  1  0.37355800  0.37355800  0.56328500  1
  O  O29  1  0.87330900  0.87330900  0.31422500  1
  O  O30  1  0.37304700  0.37304700  0.06354200  1
  O  O31  1  0.87333700  0.87333700  0.81262800  1
loop_
_geom_bond_atom_site_label_1
_geom_bond_atom_site_label_2
_geom_bond_distance
_geom_bond_site_symmetry_2
Nd0 O14 2.473715 1_555
Nd0 O2 2.473715 1_555
Nd0 O5 2.475262 1_555
Nd0 O9 2.475262 1_555
Nd0 O1 2.509850 1_555
Nd0 O13 2.509850 1_555
Nd0 O4 2.510980 1_555
Nd0 O8 2.510980 1_555
Nd1 O0 2.483225 1_545
Nd1 O12 2.483225 1_455
Nd1 O8 2.483225 1_455
Nd1 O4 2.483225 1_545
Nd1 O1 2.483300 1_455
Nd1 O13 2.483300 1_545
Nd1 O11 2.483300 1_545
Nd1 O7 2.483300 1_455
Nd2 O6 2.473715 1_555
Nd2 O10 2.473715 1_555
Nd2 O15 2.475262 1_555
Nd2 O3 2.475262 1_555
Nd2 O7 2.509850 1_555
Nd2 O11 2.509850 1_555
Nd2 O0 2.510980 1_555
Nd2 O12 2.510980 1_555
Cu0 O3 1.934020 1_455
Cu0 O15 1.934020 1_545
Cu0 O12 1.946297 1_455
Cu0 O0 1.946297 1_545
Cu0 O24 2.304131 1_555
Cu1 O12 1.945735 1_555
Cu1 O0 1.945735 1_555
Cu1 O13 1.945910 1_555
Cu1 O1 1.945910 1_555
Cu1 O25 2.299032 1_555
Cu2 O2 1.935631 1_545
Cu2 O14 1.935631 1_455
Cu2 O13 1.947894 1_545
Cu2 O1 1.947894 1_455
Cu2 O26 2.301604 1_555
Cu3 O3 1.935821 1_555
Cu3 O15 1.935821 1_555
Cu3 O2 1.935923 1_556
Cu3 O14 1.935923 1_556
Cu3 O27 2.308093 1_555
Cu4 O8 1.945735 1_555
Cu4 O4 1.945735 1_555
Cu4 O7 1.945910 1_555
Cu4 O11 1.945910 1_555
Cu4 O28 2.299032 1_555
Cu5 O5 1.934020 1_565
Cu5 O9 1.934020 1_655
Cu5 O8 1.946297 1_565
Cu5 O4 1.946297 1_655
Cu5 O29 2.304131 1_555
Cu6 O5 1.935821 1_555
Cu6 O9 1.935821 1_555
Cu6 O6 1.935923 1_554
Cu6 O10 1.935923 1_554
Cu6 O30 2.308093 1_555
Cu7 O6 1.935631 1_655
Cu7 O10 1.935631 1_565
Cu7 O7 1.947894 1_565
Cu7 O11 1.947894 1_655
Cu7 O31 2.301604 1_555
Cu8 O20 1.856203 1_555
Cu8 O16 1.857491 1_555
Cu9 O17 1.855815 1_555
Cu9 O21 1.856555 1_555
Cu10 O22 1.855815 1_555
Cu10 O18 1.856555 1_555
Cu11 O19 1.856203 1_555
Cu11 O23 1.857491 1_555
O0 Sr2 2.803895 1_565
O0 Sr1 2.810344 1_555
O1 Sr2 2.801930 1_655
O1 Sr3 2.809664 1_555
O2 Sr8 2.572370 1_565
O2 Sr3 2.710126 1_555
O2 Sr0 2.769466 1_564
O3 Sr8 2.572496 1_656
O3 Sr1 2.710217 1_555
O3 Sr0 2.770762 1_655
O4 Sr5 2.803895 1_455
O4 Sr6 2.810344 1_555
O5 Sr8 2.572496 1_655
O5 Sr6 2.710217 1_555
O5 Sr7 2.770762 1_545
O6 Sr8 2.572370 1_566
O6 Sr4 2.710126 1_555
O6 Sr7 2.769466 1_456
O7 Sr5 2.801930 1_545
O7 Sr4 2.809664 1_555
O8 Sr5 2.803895 1_545
O8 Sr6 2.810344 1_555
O9 Sr8 2.572496 1_565
O9 Sr6 2.710217 1_555
O9 Sr7 2.770762 1_455
O10 Sr8 2.572370 1_656
O10 Sr4 2.710126 1_555
O10 Sr7 2.769466 1_546
O11 Sr5 2.801930 1_455
O11 Sr4 2.809664 1_555
O12 Sr2 2.803895 1_655
O12 Sr1 2.810344 1_555
O13 Sr2 2.801930 1_565
O13 Sr3 2.809664 1_555
O14 Sr8 2.572370 1_655
O14 Sr3 2.710126 1_555
O14 Sr0 2.769466 1_654
O15 Sr8 2.572496 1_566
O15 Sr1 2.710217 1_555
O15 Sr0 2.770762 1_565
O16 Sr0 2.635702 1_555
O16 Pb2 2.728537 1_556
O16 Pb0 2.731302 1_555
O16 Pb3 2.732949 1_455
O16 Pb3 2.732949 1_545
O17 Sr1 2.611572 1_555
O17 Pb3 2.732132 1_555
O17 Pb1 2.732552 1_555
O17 Pb0 2.732817 1_565
O17 Pb0 2.732817 1_655
O18 Sr2 2.599423 1_555
O18 Pb1 2.732898 1_545
O18 Pb1 2.732898 1_455
O18 Pb0 2.734146 1_555
O18 Pb2 2.735585 1_555
O19 Sr3 2.610155 1_555
O19 Pb1 2.728458 1_555
O19 Pb2 2.732886 1_655
O19 Pb2 2.732886 1_565
O19 Pb3 2.736242 1_554
O20 Sr4 2.610155 1_555
O20 Pb4 2.728458 1_555
O20 Pb7 2.732886 1_455
O20 Pb7 2.732886 1_545
O20 Pb6 2.736242 1_556
O21 Sr5 2.599423 1_555
O21 Pb4 2.732898 1_565
O21 Pb4 2.732898 1_655
O21 Pb5 2.734146 1_555
O21 Pb7 2.735585 1_555
O22 Sr6 2.611572 1_555
O22 Pb6 2.732132 1_555
O22 Pb4 2.732552 1_555
O22 Pb5 2.732817 1_545
O22 Pb5 2.732817 1_455
O23 Sr7 2.635702 1_555
O23 Pb7 2.728537 1_554
O23 Pb5 2.731302 1_555
O23 Pb6 2.732949 1_655
O23 Pb6 2.732949 1_565
O24 Pb0 2.176193 1_555
O24 Sr2 2.766108 1_555
O24 Sr1 2.775793 1_455
O24 Sr1 2.775793 1_545
O24 Sr0 2.790950 1_555
O25 Pb1 2.184003 1_555
O25 Sr2 2.772962 1_565
O25 Sr2 2.772962 1_655
O25 Sr3 2.782576 1_555
O25 Sr1 2.784135 1_555
O26 Pb2 2.178292 1_555
O26 Sr2 2.764371 1_555
O26 Sr3 2.775716 1_545
O26 Sr3 2.775716 1_455
O26 Sr0 2.786358 1_554
O27 Pb3 2.170491 1_555
O27 Sr1 2.766393 1_555
O27 Sr3 2.768175 1_556
O27 Sr0 2.782330 1_565
O27 Sr0 2.782330 1_655
O28 Pb4 2.184003 1_555
O28 Sr5 2.772962 1_545
O28 Sr5 2.772962 1_455
O28 Sr4 2.782576 1_555
O28 Sr6 2.784135 1_555
O29 Pb5 2.176193 1_555
O29 Sr5 2.766108 1_555
O29 Sr6 2.775793 1_565
O29 Sr6 2.775793 1_655
O29 Sr7 2.790950 1_555
O30 Pb6 2.170491 1_555
O30 Sr6 2.766393 1_555
O30 Sr4 2.768175 1_554
O30 Sr7 2.782330 1_545
O30 Sr7 2.782330 1_455
O31 Pb7 2.178292 1_555
O31 Sr5 2.764371 1_555
O31 Sr4 2.775716 1_565
O31 Sr4 2.775716 1_655
O31 Sr7 2.786358 1_556
