# generated using pymatgen
data_Lu2Fe3O7
_symmetry_space_group_name_H-M   'P 1'
_cell_length_a   3.46316040
_cell_length_b   3.46316040
_cell_length_c   28.87116000
_cell_angle_alpha   90.00000000
_cell_angle_beta   90.00000000
_cell_angle_gamma   120.00000765
_symmetry_Int_Tables_number   1
_chemical_formula_structural   Lu2Fe3O7
_chemical_formula_sum   'Lu4 Fe6 O14'
_cell_volume   299.87485126
_cell_formula_units_Z   2
loop_
 _symmetry_equiv_pos_site_id
 _symmetry_equiv_pos_as_xyz
  1  'x, y, z'
loop_
 _atom_site_type_symbol
 _atom_site_label
 _atom_site_symmetry_multiplicity
 _atom_site_fract_x
 _atom_site_fract_y
 _atom_site_fract_z
 _atom_site_occupancy
  Lu  Lu0  1  0.33333300  0.66666700  0.14847300  1
  Lu  Lu1  1  0.66666700  0.33333300  0.85152700  1
  Lu  Lu2  1  0.66666700  0.33333300  0.64847300  1
  Lu  Lu3  1  0.33333300  0.66666700  0.35152700  1
  Fe  Fe0  1  0.33333300  0.66666700  0.54254700  1
  Fe  Fe1  1  0.66666700  0.33333300  0.45745300  1
  Fe  Fe2  1  0.66666700  0.33333300  0.04254700  1
  Fe  Fe3  1  0.33333300  0.66666700  0.95745300  1
  Fe  Fe4  1  0.00000000  0.00000000  0.25000000  1
  Fe  Fe5  1  0.00000000  0.00000000  0.75000000  1
  O  O0  1  0.00000000  0.00000000  0.18045500  1
  O  O1  1  0.00000000  0.00000000  0.81954500  1
  O  O2  1  0.00000000  0.00000000  0.68045500  1
  O  O3  1  0.00000000  0.00000000  0.31954500  1
  O  O4  1  0.33333300  0.66666700  0.03315300  1
  O  O5  1  0.66666700  0.33333300  0.96684700  1
  O  O6  1  0.66666700  0.33333300  0.53315300  1
  O  O7  1  0.33333300  0.66666700  0.46684700  1
  O  O8  1  0.33333300  0.66666700  0.61031100  1
  O  O9  1  0.66666700  0.33333300  0.38968900  1
  O  O10  1  0.66666700  0.33333300  0.11031100  1
  O  O11  1  0.33333300  0.66666700  0.88968900  1
  O  O12  1  0.33333300  0.66666700  0.25000000  1
  O  O13  1  0.66666700  0.33333300  0.75000000  1
loop_
_geom_bond_atom_site_label_1
_geom_bond_atom_site_label_2
_geom_bond_distance
_geom_bond_site_symmetry_2
Lu0 O0 2.202364 1_565
Lu0 O0 2.202367 1_555
Lu0 O0 2.202367 1_665
Lu0 O10 2.282924 1_455
Lu0 O10 2.282924 1_565
Lu0 O10 2.282929 1_555
Lu1 O1 2.202364 1_655
Lu1 O1 2.202367 1_555
Lu1 O1 2.202367 1_665
Lu1 O11 2.282924 1_545
Lu1 O11 2.282924 1_655
Lu1 O11 2.282929 1_555
Lu2 O2 2.202364 1_655
Lu2 O2 2.202367 1_665
Lu2 O2 2.202367 1_555
Lu2 O8 2.282924 1_545
Lu2 O8 2.282924 1_655
Lu2 O8 2.282929 1_555
Lu3 O3 2.202364 1_565
Lu3 O3 2.202367 1_555
Lu3 O3 2.202367 1_665
Lu3 O9 2.282924 1_455
Lu3 O9 2.282924 1_565
Lu3 O9 2.282929 1_555
Fe0 O8 1.956425 1_555
Fe0 O6 2.017765 1_455
Fe0 O6 2.017765 1_565
Fe0 O6 2.017771 1_555
Fe0 O7 2.185547 1_555
Fe1 O9 1.956425 1_555
Fe1 O7 2.017765 1_545
Fe1 O7 2.017765 1_655
Fe1 O7 2.017771 1_555
Fe1 O6 2.185547 1_555
Fe2 O10 1.956425 1_555
Fe2 O4 2.017765 1_545
Fe2 O4 2.017765 1_655
Fe2 O4 2.017771 1_555
Fe2 O5 2.185547 1_554
Fe3 O11 1.956425 1_555
Fe3 O5 2.017765 1_455
Fe3 O5 2.017765 1_565
Fe3 O5 2.017771 1_555
Fe3 O4 2.185547 1_556
Fe4 O12 1.999455 1_545
Fe4 O12 1.999457 1_555
Fe4 O12 1.999457 1_445
Fe4 O3 2.007845 1_555
Fe4 O0 2.007845 1_555
Fe5 O13 1.999455 1_455
Fe5 O13 1.999457 1_445
Fe5 O13 1.999457 1_555
Fe5 O1 2.007845 1_555
Fe5 O2 2.007845 1_555
