# generated using pymatgen
data_CsIn(Cu3O4)2
_symmetry_space_group_name_H-M   'P 1'
_cell_length_a   6.64039311
_cell_length_b   6.64039311
_cell_length_c   6.64039311
_cell_angle_alpha   60.00000000
_cell_angle_beta   60.00000000
_cell_angle_gamma   60.00000000
_symmetry_Int_Tables_number   1
_chemical_formula_structural   CsIn(Cu3O4)2
_chemical_formula_sum   'Cs1 In1 Cu6 O8'
_cell_volume   207.04577545
_cell_formula_units_Z   1
loop_
 _symmetry_equiv_pos_site_id
 _symmetry_equiv_pos_as_xyz
  1  'x, y, z'
loop_
 _atom_site_type_symbol
 _atom_site_label
 _atom_site_symmetry_multiplicity
 _atom_site_fract_x
 _atom_site_fract_y
 _atom_site_fract_z
 _atom_site_occupancy
  Cs  Cs0  1  0.50000000  0.50000000  0.50000000  1
  In  In0  1  0.00000000  0.00000000  0.00000000  1
  Cu  Cu0  1  0.00000000  0.00000000  0.50000000  1
  Cu  Cu1  1  0.50000000  0.00000000  0.00000000  1
  Cu  Cu2  1  0.00000000  0.50000000  0.00000000  1
  Cu  Cu3  1  0.50000000  0.50000000  0.00000000  1
  Cu  Cu4  1  0.00000000  0.50000000  0.50000000  1
  Cu  Cu5  1  0.50000000  0.00000000  0.50000000  1
  O  O0  1  0.14250300  0.14250300  0.57249200  1
  O  O1  1  0.14250300  0.57249200  0.14250300  1
  O  O2  1  0.57249200  0.14250300  0.14250300  1
  O  O3  1  0.85749700  0.42750800  0.85749700  1
  O  O4  1  0.14250300  0.14250300  0.14250300  1
  O  O5  1  0.85749700  0.85749700  0.85749700  1
  O  O6  1  0.85749700  0.85749700  0.42750800  1
  O  O7  1  0.42750800  0.85749700  0.85749700  1
loop_
_geom_bond_atom_site_label_1
_geom_bond_atom_site_label_2
_geom_bond_distance
_geom_bond_site_symmetry_2
Cs0 Cu2 3.320197 1_556
Cs0 Cu4 3.320197 1_655
Cs0 Cu5 3.320197 1_565
Cs0 Cu3 3.320197 1_556
Cs0 Cu2 3.320197 1_655
Cs0 Cu1 3.320197 1_556
Cs0 Cu0 3.320197 1_565
Cs0 Cu3 3.320197 1_555
Cs0 Cu0 3.320197 1_655
Cs0 Cu1 3.320197 1_565
Cs0 Cu5 3.320197 1_555
Cs0 Cu4 3.320197 1_555
In0 O6 2.317888 1_445
In0 O3 2.317888 1_454
In0 O2 2.317888 1_455
In0 O7 2.317888 1_544
In0 O0 2.317888 1_554
In0 O1 2.317888 1_545
In0 O4 2.317893 1_555
In0 O5 2.317893 1_444
Cu0 O5 1.956795 1_445
Cu0 O4 1.956795 1_555
Cu0 O0 1.956800 1_555
Cu0 O6 1.956800 1_445
Cu1 O5 1.956795 1_544
Cu1 O4 1.956795 1_555
Cu1 O2 1.956800 1_555
Cu1 O7 1.956800 1_544
Cu2 O5 1.956795 1_454
Cu2 O4 1.956795 1_555
Cu2 O1 1.956800 1_555
Cu2 O3 1.956800 1_454
Cu3 O7 1.956794 1_554
Cu3 O3 1.956794 1_554
Cu3 O2 1.956794 1_555
Cu3 O1 1.956794 1_555
Cu4 O6 1.956794 1_455
Cu4 O3 1.956794 1_455
Cu4 O0 1.956794 1_555
Cu4 O1 1.956794 1_555
Cu5 O6 1.956794 1_545
Cu5 O7 1.956794 1_545
Cu5 O2 1.956794 1_555
Cu5 O0 1.956794 1_555
