# generated using pymatgen
data_ZrTiZn4O8
_symmetry_space_group_name_H-M   'P 1'
_cell_length_a   6.16604449
_cell_length_b   6.16604449
_cell_length_c   6.21088190
_cell_angle_alpha   60.02509370
_cell_angle_beta   60.02509370
_cell_angle_gamma   58.72193349
_symmetry_Int_Tables_number   1
_chemical_formula_structural   ZrTiZn4O8
_chemical_formula_sum   'Zr1 Ti1 Zn4 O8'
_cell_volume   165.36437433
_cell_formula_units_Z   1
loop_
 _symmetry_equiv_pos_site_id
 _symmetry_equiv_pos_as_xyz
  1  'x, y, z'
loop_
 _atom_site_type_symbol
 _atom_site_label
 _atom_site_symmetry_multiplicity
 _atom_site_fract_x
 _atom_site_fract_y
 _atom_site_fract_z
 _atom_site_occupancy
  Zr  Zr0  1  0.00000000  0.00000000  0.50000000  1
  Ti  Ti0  1  0.00000000  0.00000000  0.00000000  1
  Zn  Zn0  1  0.63895400  0.63895400  0.10565300  1
  Zn  Zn1  1  0.36104600  0.36104600  0.89434700  1
  Zn  Zn2  1  0.50000000  0.00000000  0.50000000  1
  Zn  Zn3  1  0.00000000  0.50000000  0.50000000  1
  O  O0  1  0.23873600  0.23873600  0.28482800  1
  O  O1  1  0.76901200  0.22246900  0.76657400  1
  O  O2  1  0.23098800  0.77753100  0.23342600  1
  O  O3  1  0.76126400  0.76126400  0.71517200  1
  O  O4  1  0.22496500  0.22496500  0.76508600  1
  O  O5  1  0.22246900  0.76901200  0.76657400  1
  O  O6  1  0.77753100  0.23098800  0.23342600  1
  O  O7  1  0.77503500  0.77503500  0.23491400  1
loop_
_geom_bond_atom_site_label_1
_geom_bond_atom_site_label_2
_geom_bond_distance
_geom_bond_site_symmetry_2
O0 Zn1 1.988617 1_554
O0 Zn3 2.066685 1_555
O0 Zn2 2.066685 1_555
O0 Zr0 2.106766 1_555
O1 Ti0 2.014819 1_656
O1 Zn1 2.034372 1_555
O1 Zr0 2.129750 1_655
O1 Zn3 2.245361 1_655
O2 Ti0 2.014819 1_565
O2 Zn0 2.034372 1_555
O2 Zr0 2.129750 1_565
O2 Zn3 2.245361 1_555
O3 Zn0 1.988617 1_556
O3 Zn3 2.066685 1_655
O3 Zn2 2.066685 1_565
O3 Zr0 2.106766 1_665
O4 Ti0 1.982532 1_556
O4 Zn1 2.032234 1_555
O4 Zn3 2.135467 1_555
O4 Zn2 2.135467 1_555
O5 Ti0 2.014819 1_566
O5 Zn1 2.034372 1_555
O5 Zr0 2.129750 1_565
O5 Zn2 2.245361 1_565
O6 Ti0 2.014819 1_655
O6 Zn0 2.034372 1_555
O6 Zr0 2.129750 1_655
O6 Zn2 2.245361 1_555
O7 Ti0 1.982532 1_665
O7 Zn0 2.032234 1_555
O7 Zn3 2.135467 1_655
O7 Zn2 2.135467 1_565
