# generated using pymatgen
data_Sr3MgTa2O9
_symmetry_space_group_name_H-M   'P 1'
_cell_length_a   5.72025959
_cell_length_b   5.72025959
_cell_length_c   7.03265800
_cell_angle_alpha   90.00000000
_cell_angle_beta   90.00000000
_cell_angle_gamma   119.99999523
_symmetry_Int_Tables_number   1
_chemical_formula_structural   Sr3MgTa2O9
_chemical_formula_sum   'Sr3 Mg1 Ta2 O9'
_cell_volume   199.28821902
_cell_formula_units_Z   1
loop_
 _symmetry_equiv_pos_site_id
 _symmetry_equiv_pos_as_xyz
  1  'x, y, z'
loop_
 _atom_site_type_symbol
 _atom_site_label
 _atom_site_symmetry_multiplicity
 _atom_site_fract_x
 _atom_site_fract_y
 _atom_site_fract_z
 _atom_site_occupancy
  Sr  Sr0  1  0.00000000  0.00000000  0.00000000  1
  Sr  Sr1  1  0.66666700  0.33333300  0.32628400  1
  Sr  Sr2  1  0.33333300  0.66666700  0.67371600  1
  Mg  Mg0  1  0.00000000  0.00000000  0.50000000  1
  Ta  Ta0  1  0.66666700  0.33333300  0.81893800  1
  Ta  Ta1  1  0.33333300  0.66666700  0.18106200  1
  O  O0  1  0.50000000  0.00000000  0.00000000  1
  O  O1  1  0.50000000  0.50000000  0.00000000  1
  O  O2  1  0.00000000  0.50000000  0.00000000  1
  O  O3  1  0.83149600  0.66299100  0.67294600  1
  O  O4  1  0.83149600  0.16850400  0.67294600  1
  O  O5  1  0.33700900  0.16850400  0.67294600  1
  O  O6  1  0.16850400  0.33700900  0.32705400  1
  O  O7  1  0.16850400  0.83149600  0.32705400  1
  O  O8  1  0.66299100  0.83149600  0.32705400  1
loop_
_geom_bond_atom_site_label_1
_geom_bond_atom_site_label_2
_geom_bond_distance
_geom_bond_site_symmetry_2
Mg0 O7 2.065562 1_545
Mg0 O4 2.065562 1_455
Mg0 O6 2.065566 1_555
Mg0 O8 2.065566 1_445
Mg0 O3 2.065566 1_445
Mg0 O5 2.065566 1_555
O0 Ta0 2.085231 1_554
O0 Ta1 2.085231 1_545
O0 Sr2 2.827042 1_544
O0 Sr1 2.827042 1_555
O0 Sr0 2.860130 1_655
O0 Sr0 2.860130 1_555
O1 Ta0 2.085235 1_554
O1 Ta1 2.085235 1_555
O1 Sr2 2.827045 1_554
O1 Sr1 2.827045 1_555
O1 Sr0 2.860130 1_665
O1 Sr0 2.860130 1_555
O2 Ta0 2.085231 1_454
O2 Ta1 2.085231 1_555
O2 Sr1 2.827042 1_455
O2 Sr2 2.827042 1_554
O2 Sr0 2.860130 1_555
O2 Sr0 2.860130 1_565
O3 Ta0 1.929020 1_555
O3 Sr0 2.842098 1_666
O3 Sr2 2.860187 1_655
O3 Sr2 2.860199 1_555
O3 Sr1 2.934384 1_555
O4 Ta0 1.929020 1_555
O4 Sr0 2.842095 1_656
O4 Sr2 2.860193 1_545
O4 Sr2 2.860193 1_655
O4 Sr1 2.934384 1_555
O5 Ta0 1.929020 1_555
O5 Sr0 2.842098 1_556
O5 Sr2 2.860187 1_545
O5 Sr2 2.860199 1_555
O5 Sr1 2.934384 1_555
O6 Ta1 1.929020 1_555
O6 Sr0 2.842098 1_555
O6 Sr1 2.860187 1_455
O6 Sr1 2.860199 1_555
O6 Sr2 2.934384 1_555
O7 Ta1 1.929020 1_555
O7 Sr0 2.842095 1_565
O7 Sr1 2.860193 1_455
O7 Sr1 2.860193 1_565
O7 Sr2 2.934384 1_555
O8 Ta1 1.929020 1_555
O8 Sr0 2.842098 1_665
O8 Sr1 2.860187 1_565
O8 Sr1 2.860199 1_555
O8 Sr2 2.934384 1_555
