# generated using pymatgen
data_Zr2CoS4
_symmetry_space_group_name_H-M   'P 1'
_cell_length_a   6.86947145
_cell_length_b   6.86947145
_cell_length_c   6.32610013
_cell_angle_alpha   63.03665301
_cell_angle_beta   63.03665301
_cell_angle_gamma   30.90360989
_symmetry_Int_Tables_number   1
_chemical_formula_structural   Zr2CoS4
_chemical_formula_sum   'Zr2 Co1 S4'
_cell_volume   135.29732639
_cell_formula_units_Z   1
loop_
 _symmetry_equiv_pos_site_id
 _symmetry_equiv_pos_as_xyz
  1  'x, y, z'
loop_
 _atom_site_type_symbol
 _atom_site_label
 _atom_site_symmetry_multiplicity
 _atom_site_fract_x
 _atom_site_fract_y
 _atom_site_fract_z
 _atom_site_occupancy
  Zr  Zr0  1  0.50062522  0.50062522  0.49221495  1
  Zr  Zr1  1  0.00244310  0.00244310  0.00542169  1
  Co  Co0  1  0.67692046  0.67692046  0.99666660  1
  S  S0  1  0.37345758  0.37345758  0.29123601  1
  S  S1  1  0.87430356  0.87430356  0.78643961  1
  S  S2  1  0.62675041  0.62675041  0.70278134  1
  S  S3  1  0.13499067  0.13499067  0.20188779  1
loop_
_geom_bond_atom_site_label_1
_geom_bond_atom_site_label_2
_geom_bond_distance
_geom_bond_site_symmetry_2
Co0 S3 2.159916 1_656
Co0 S3 2.159916 1_566
Co0 S2 2.249425 1_555
Co0 S1 2.308717 1_555
S0 Zr0 2.542980 1_555
S0 Zr1 2.575020 1_655
S0 Zr1 2.575020 1_565
S1 Zr0 2.585144 1_655
S1 Zr0 2.585144 1_565
S1 Zr1 2.647651 1_666
S2 Zr0 2.580144 1_555
S2 Zr1 2.599945 1_656
S2 Zr1 2.599945 1_566
S3 Zr1 2.584196 1_555
S3 Zr0 2.610411 1_545
S3 Zr0 2.610411 1_455
