# generated using pymatgen
data_TbH(CO2)3
_symmetry_space_group_name_H-M   'P 1'
_cell_length_a   6.62152800
_cell_length_b   7.17383200
_cell_length_c   10.61975700
_cell_angle_alpha   90.00000000
_cell_angle_beta   90.00000000
_cell_angle_gamma   90.00000000
_symmetry_Int_Tables_number   1
_chemical_formula_structural   TbH(CO2)3
_chemical_formula_sum   'Tb4 H4 C12 O24'
_cell_volume   504.45682389
_cell_formula_units_Z   4
loop_
 _symmetry_equiv_pos_site_id
 _symmetry_equiv_pos_as_xyz
  1  'x, y, z'
loop_
 _atom_site_type_symbol
 _atom_site_label
 _atom_site_symmetry_multiplicity
 _atom_site_fract_x
 _atom_site_fract_y
 _atom_site_fract_z
 _atom_site_occupancy
  Tb  Tb0  1  0.86720100  0.69680900  0.75000000  1
  Tb  Tb1  1  0.63279900  0.19680900  0.75000000  1
  Tb  Tb2  1  0.13279900  0.30319100  0.25000000  1
  Tb  Tb3  1  0.36720100  0.80319100  0.25000000  1
  H  H0  1  0.11663800  0.27117500  0.75000000  1
  H  H1  1  0.38336200  0.77117500  0.75000000  1
  H  H2  1  0.88336200  0.72882500  0.25000000  1
  H  H3  1  0.61663800  0.22882500  0.25000000  1
  C  C0  1  0.12883300  0.11863300  0.75000000  1
  C  C1  1  0.37116700  0.61863300  0.75000000  1
  C  C2  1  0.87116700  0.88136700  0.25000000  1
  C  C3  1  0.62883300  0.38136700  0.25000000  1
  C  C4  1  0.04775800  0.59383200  0.47943300  1
  C  C5  1  0.45224200  0.09383200  0.02056700  1
  C  C6  1  0.95224200  0.40616800  0.97943300  1
  C  C7  1  0.54775800  0.90616800  0.52056700  1
  C  C8  1  0.95224200  0.40616800  0.52056700  1
  C  C9  1  0.54775800  0.90616800  0.97943300  1
  C  C10  1  0.04775800  0.59383200  0.02056700  1
  C  C11  1  0.45224200  0.09383200  0.47943300  1
  O  O0  1  0.96209500  0.02707700  0.75000000  1
  O  O1  1  0.53790500  0.52707700  0.75000000  1
  O  O2  1  0.03790500  0.97292300  0.25000000  1
  O  O3  1  0.46209500  0.47292300  0.25000000  1
  O  O4  1  0.30204300  0.04721900  0.75000000  1
  O  O5  1  0.19795700  0.54721900  0.75000000  1
  O  O6  1  0.69795700  0.95278100  0.25000000  1
  O  O7  1  0.80204300  0.45278100  0.25000000  1
  O  O8  1  0.02076000  0.73408700  0.54737900  1
  O  O9  1  0.47924000  0.23408700  0.95262100  1
  O  O10  1  0.97924000  0.26591300  0.04737900  1
  O  O11  1  0.52076000  0.76591300  0.45262100  1
  O  O12  1  0.97924000  0.26591300  0.45262100  1
  O  O13  1  0.52076000  0.76591300  0.04737900  1
  O  O14  1  0.02076000  0.73408700  0.95262100  1
  O  O15  1  0.47924000  0.23408700  0.54737900  1
  O  O16  1  0.14765100  0.58852700  0.37622200  1
  O  O17  1  0.35234900  0.08852700  0.12377800  1
  O  O18  1  0.85234900  0.41147300  0.87622200  1
  O  O19  1  0.64765100  0.91147300  0.62377800  1
  O  O20  1  0.85234900  0.41147300  0.62377800  1
  O  O21  1  0.64765100  0.91147300  0.87622200  1
  O  O22  1  0.14765100  0.58852700  0.12377800  1
  O  O23  1  0.35234900  0.08852700  0.37622200  1
loop_
_geom_bond_atom_site_label_1
_geom_bond_atom_site_label_2
_geom_bond_distance
_geom_bond_site_symmetry_2
C0 H0 1.097286 1_555
C0 O4 1.256136 1_555
C0 O0 1.284658 1_455
C1 H1 1.097286 1_555
C1 O5 1.256136 1_555
C1 O1 1.284658 1_555
C2 H2 1.097286 1_555
C2 O6 1.256136 1_555
C2 O2 1.284658 1_655
C3 H3 1.097286 1_555
C3 O7 1.256136 1_555
C3 O3 1.284658 1_555
C4 O8 1.250996 1_555
C4 O16 1.280757 1_555
C5 O9 1.250996 1_554
C5 O17 1.280757 1_555
C6 O10 1.250996 1_556
C6 O18 1.280757 1_555
C7 O11 1.250996 1_555
C7 O19 1.280757 1_555
C8 O12 1.250996 1_555
C8 O20 1.280757 1_555
C9 O13 1.250996 1_556
C9 O21 1.280757 1_555
C10 O14 1.250996 1_554
C10 O22 1.280757 1_555
C11 O15 1.250996 1_555
C11 O23 1.280757 1_555
O0 Tb0 2.451191 1_545
O0 Tb1 2.497389 1_555
O1 Tb1 2.451191 1_555
O1 Tb0 2.497389 1_555
O2 Tb2 2.451191 1_565
O2 Tb3 2.497389 1_555
O3 Tb3 2.451191 1_555
O3 Tb2 2.497389 1_555
O4 Tb1 2.438893 1_555
O5 Tb0 2.438893 1_455
O6 Tb3 2.438893 1_555
O7 Tb2 2.438893 1_655
O8 Tb0 2.394905 1_455
O9 Tb1 2.394905 1_555
O10 Tb2 2.394905 1_655
O11 Tb3 2.394905 1_555
O12 Tb2 2.394905 1_655
O13 Tb3 2.394905 1_555
O14 Tb0 2.394905 1_455
O15 Tb1 2.394905 1_555
O16 Tb2 2.448772 1_555
O16 Tb3 2.506331 1_555
O17 Tb3 2.448772 1_545
O17 Tb2 2.506331 1_555
O18 Tb0 2.448772 1_555
O18 Tb1 2.506331 1_555
O19 Tb1 2.448772 1_565
O19 Tb0 2.506331 1_555
O20 Tb0 2.448772 1_555
O20 Tb1 2.506331 1_555
O21 Tb1 2.448772 1_565
O21 Tb0 2.506331 1_555
O22 Tb2 2.448772 1_555
O22 Tb3 2.506331 1_555
O23 Tb3 2.448772 1_545
O23 Tb2 2.506331 1_555
