# generated using pymatgen
data_Ho3Si13Os4
_symmetry_space_group_name_H-M   'P 1'
_cell_length_a   8.79464700
_cell_length_b   8.79464700
_cell_length_c   8.79464700
_cell_angle_alpha   90.00000000
_cell_angle_beta   90.00000000
_cell_angle_gamma   90.00000000
_symmetry_Int_Tables_number   1
_chemical_formula_structural   Ho3Si13Os4
_chemical_formula_sum   'Ho6 Si26 Os8'
_cell_volume   680.22914737
_cell_formula_units_Z   2
loop_
 _symmetry_equiv_pos_site_id
 _symmetry_equiv_pos_as_xyz
  1  'x, y, z'
loop_
 _atom_site_type_symbol
 _atom_site_label
 _atom_site_symmetry_multiplicity
 _atom_site_fract_x
 _atom_site_fract_y
 _atom_site_fract_z
 _atom_site_occupancy
  Ho  Ho0  1  0.00000000  0.50000000  0.75000000  1
  Ho  Ho1  1  0.50000000  0.25000000  0.00000000  1
  Ho  Ho2  1  0.75000000  0.00000000  0.50000000  1
  Ho  Ho3  1  0.00000000  0.50000000  0.25000000  1
  Ho  Ho4  1  0.50000000  0.75000000  0.00000000  1
  Ho  Ho5  1  0.25000000  0.00000000  0.50000000  1
  Si  Si0  1  0.50000000  0.50000000  0.50000000  1
  Si  Si1  1  0.00000000  0.00000000  0.00000000  1
  Si  Si2  1  0.78125300  0.36243500  0.50000000  1
  Si  Si3  1  0.63756500  0.50000000  0.78125300  1
  Si  Si4  1  0.50000000  0.21874700  0.63756500  1
  Si  Si5  1  0.21874700  0.63756500  0.50000000  1
  Si  Si6  1  0.36243500  0.50000000  0.21874700  1
  Si  Si7  1  0.50000000  0.78125300  0.36243500  1
  Si  Si8  1  0.78125300  0.63756500  0.50000000  1
  Si  Si9  1  0.63756500  0.50000000  0.21874700  1
  Si  Si10  1  0.21874700  0.36243500  0.50000000  1
  Si  Si11  1  0.36243500  0.50000000  0.78125300  1
  Si  Si12  1  0.50000000  0.78125300  0.63756500  1
  Si  Si13  1  0.50000000  0.21874700  0.36243500  1
  Si  Si14  1  0.28125300  0.00000000  0.86243500  1
  Si  Si15  1  0.13756500  0.28125300  0.00000000  1
  Si  Si16  1  0.00000000  0.13756500  0.71874700  1
  Si  Si17  1  0.71874700  0.00000000  0.13756500  1
  Si  Si18  1  0.86243500  0.71874700  0.00000000  1
  Si  Si19  1  0.00000000  0.86243500  0.28125300  1
  Si  Si20  1  0.28125300  0.00000000  0.13756500  1
  Si  Si21  1  0.13756500  0.71874700  0.00000000  1
  Si  Si22  1  0.71874700  0.00000000  0.86243500  1
  Si  Si23  1  0.86243500  0.28125300  0.00000000  1
  Si  Si24  1  0.00000000  0.13756500  0.28125300  1
  Si  Si25  1  0.00000000  0.86243500  0.71874700  1
  Os  Os0  1  0.75000000  0.25000000  0.75000000  1
  Os  Os1  1  0.25000000  0.75000000  0.25000000  1
  Os  Os2  1  0.75000000  0.75000000  0.25000000  1
  Os  Os3  1  0.25000000  0.25000000  0.75000000  1
  Os  Os4  1  0.25000000  0.75000000  0.75000000  1
  Os  Os5  1  0.75000000  0.25000000  0.25000000  1
  Os  Os6  1  0.25000000  0.25000000  0.25000000  1
  Os  Os7  1  0.75000000  0.75000000  0.75000000  1
loop_
_geom_bond_atom_site_label_1
_geom_bond_atom_site_label_2
_geom_bond_distance
_geom_bond_site_symmetry_2
Ho0 Os0 3.109377 1_455
Ho0 Os7 3.109377 1_455
Ho0 Os3 3.109377 1_555
Ho0 Os4 3.109377 1_555
Ho0 Si18 3.162093 1_456
Ho0 Si21 3.162093 1_556
Ho0 Si5 3.162093 1_555
Ho0 Si8 3.162093 1_455
Ho0 Si10 3.162093 1_555
Ho0 Si15 3.162093 1_556
Ho0 Si2 3.162093 1_455
Ho0 Si23 3.162093 1_456
Ho0 Si11 3.199317 1_555
Ho0 Si25 3.199317 1_555
Ho0 Si16 3.199317 1_555
Ho0 Si3 3.199317 1_455
Ho1 Os3 3.109377 1_554
Ho1 Os0 3.109377 1_554
Ho1 Os5 3.109377 1_555
Ho1 Os6 3.109377 1_555
Ho1 Si17 3.162093 1_555
Ho1 Si22 3.162093 1_554
Ho1 Si9 3.162093 1_555
Ho1 Si3 3.162093 1_554
Ho1 Si6 3.162093 1_555
Ho1 Si14 3.162093 1_554
Ho1 Si11 3.162093 1_554
Ho1 Si20 3.162093 1_555
Ho1 Si23 3.199317 1_555
Ho1 Si13 3.199317 1_555
Ho1 Si15 3.199317 1_555
Ho1 Si4 3.199317 1_554
Ho2 Os2 3.109377 1_545
Ho2 Os5 3.109377 1_555
Ho2 Os0 3.109377 1_555
Ho2 Os7 3.109377 1_545
Ho2 Si16 3.162093 1_655
Ho2 Si25 3.162093 1_645
Ho2 Si4 3.162093 1_555
Ho2 Si12 3.162093 1_545
Ho2 Si13 3.162093 1_555
Ho2 Si24 3.162093 1_655
Ho2 Si7 3.162093 1_545
Ho2 Si19 3.162093 1_645
Ho2 Si2 3.199317 1_555
Ho2 Si22 3.199317 1_555
Ho2 Si17 3.199317 1_555
Ho2 Si8 3.199317 1_545
Ho3 Os1 3.109377 1_555
Ho3 Os6 3.109377 1_555
Ho3 Os5 3.109377 1_455
Ho3 Os2 3.109377 1_455
Ho3 Si18 3.162093 1_455
Ho3 Si21 3.162093 1_555
Ho3 Si5 3.162093 1_555
Ho3 Si8 3.162093 1_455
Ho3 Si10 3.162093 1_555
Ho3 Si23 3.162093 1_455
Ho3 Si2 3.162093 1_455
Ho3 Si15 3.162093 1_555
Ho3 Si19 3.199317 1_555
Ho3 Si6 3.199317 1_555
Ho3 Si24 3.199317 1_555
Ho3 Si9 3.199317 1_455
Ho4 Os1 3.109377 1_555
Ho4 Os2 3.109377 1_555
Ho4 Os7 3.109377 1_554
Ho4 Os4 3.109377 1_554
Ho4 Si17 3.162093 1_565
Ho4 Si22 3.162093 1_564
Ho4 Si9 3.162093 1_555
Ho4 Si3 3.162093 1_554
Ho4 Si6 3.162093 1_555
Ho4 Si20 3.162093 1_565
Ho4 Si11 3.162093 1_554
Ho4 Si14 3.162093 1_564
Ho4 Si7 3.199317 1_555
Ho4 Si18 3.199317 1_555
Ho4 Si21 3.199317 1_555
Ho4 Si12 3.199317 1_554
Ho5 Os6 3.109377 1_555
Ho5 Os3 3.109377 1_555
Ho5 Os4 3.109377 1_545
Ho5 Os1 3.109377 1_545
Ho5 Si25 3.162093 1_545
Ho5 Si16 3.162093 1_555
Ho5 Si4 3.162093 1_555
Ho5 Si12 3.162093 1_545
Ho5 Si13 3.162093 1_555
Ho5 Si24 3.162093 1_555
Ho5 Si19 3.162093 1_545
Ho5 Si7 3.162093 1_545
Ho5 Si14 3.199317 1_555
Ho5 Si10 3.199317 1_555
Ho5 Si20 3.199317 1_555
Ho5 Si5 3.199317 1_545
Si0 Si9 2.753545 1_555
Si0 Si12 2.753545 1_555
Si0 Si8 2.753545 1_555
Si0 Si3 2.753545 1_555
Si0 Si5 2.753545 1_555
Si0 Si4 2.753545 1_555
Si0 Si2 2.753545 1_555
Si0 Si7 2.753545 1_555
Si0 Si6 2.753545 1_555
Si0 Si10 2.753545 1_555
Si0 Si13 2.753545 1_555
Si0 Si11 2.753545 1_555
Si1 Si24 2.753545 1_555
Si1 Si15 2.753545 1_555
Si1 Si19 2.753545 1_545
Si1 Si23 2.753545 1_455
Si1 Si20 2.753545 1_555
Si1 Si14 2.753545 1_554
Si1 Si17 2.753545 1_455
Si1 Si18 2.753545 1_445
Si1 Si22 2.753545 1_454
Si1 Si16 2.753545 1_554
Si1 Si21 2.753545 1_545
Si1 Si25 2.753545 1_544
Os0 Si23 2.426404 1_556
Os0 Si2 2.426404 1_555
Os0 Si16 2.426404 1_655
Os0 Si22 2.426404 1_555
Os0 Si4 2.426404 1_555
Os0 Si3 2.426404 1_555
Os1 Si19 2.426404 1_555
Os1 Si7 2.426404 1_555
Os1 Si20 2.426404 1_565
Os1 Si6 2.426404 1_555
Os1 Si21 2.426404 1_555
Os1 Si5 2.426404 1_555
Os2 Si19 2.426404 1_655
Os2 Si7 2.426404 1_555
Os2 Si18 2.426404 1_555
Os2 Si17 2.426404 1_565
Os2 Si9 2.426404 1_555
Os2 Si8 2.426404 1_555
Os3 Si14 2.426404 1_555
Os3 Si10 2.426404 1_555
Os3 Si11 2.426404 1_555
Os3 Si15 2.426404 1_556
Os3 Si16 2.426404 1_555
Os3 Si4 2.426404 1_555
Os4 Si14 2.426404 1_565
Os4 Si11 2.426404 1_555
Os4 Si25 2.426404 1_555
Os4 Si21 2.426404 1_556
Os4 Si12 2.426404 1_555
Os4 Si5 2.426404 1_555
Os5 Si23 2.426404 1_555
Os5 Si13 2.426404 1_555
Os5 Si24 2.426404 1_655
Os5 Si2 2.426404 1_555
Os5 Si17 2.426404 1_555
Os5 Si9 2.426404 1_555
Os6 Si10 2.426404 1_555
Os6 Si13 2.426404 1_555
Os6 Si20 2.426404 1_555
Os6 Si15 2.426404 1_555
Os6 Si24 2.426404 1_555
Os6 Si6 2.426404 1_555
Os7 Si25 2.426404 1_655
Os7 Si22 2.426404 1_565
Os7 Si18 2.426404 1_556
Os7 Si12 2.426404 1_555
Os7 Si8 2.426404 1_555
Os7 Si3 2.426404 1_555
