# generated using pymatgen
data_Ta6Hg(Br8O9)2
_symmetry_space_group_name_H-M   'P 1'
_cell_length_a   15.10879443
_cell_length_b   15.10879443
_cell_length_c   15.10879443
_cell_angle_alpha   60.00000000
_cell_angle_beta   60.00000000
_cell_angle_gamma   60.00000000
_symmetry_Int_Tables_number   1
_chemical_formula_structural   Ta6Hg(Br8O9)2
_chemical_formula_sum   'Ta12 Hg2 Br32 O36'
_cell_volume   2438.79018904
_cell_formula_units_Z   2
loop_
 _symmetry_equiv_pos_site_id
 _symmetry_equiv_pos_as_xyz
  1  'x, y, z'
loop_
 _atom_site_type_symbol
 _atom_site_label
 _atom_site_symmetry_multiplicity
 _atom_site_fract_x
 _atom_site_fract_y
 _atom_site_fract_z
 _atom_site_occupancy
  Ta  Ta0  1  0.35868600  0.64131400  0.64131400  1
  Ta  Ta1  1  0.64131400  0.35868600  0.35868600  1
  Ta  Ta2  1  0.64131400  0.64131400  0.35868600  1
  Ta  Ta3  1  0.35868600  0.35868600  0.64131400  1
  Ta  Ta4  1  0.64131400  0.35868600  0.64131400  1
  Ta  Ta5  1  0.35868600  0.64131400  0.35868600  1
  Ta  Ta6  1  0.89131400  0.60868600  0.60868600  1
  Ta  Ta7  1  0.60868600  0.89131400  0.89131400  1
  Ta  Ta8  1  0.60868600  0.60868600  0.89131400  1
  Ta  Ta9  1  0.89131400  0.89131400  0.60868600  1
  Ta  Ta10  1  0.60868600  0.89131400  0.60868600  1
  Ta  Ta11  1  0.89131400  0.60868600  0.89131400  1
  Hg  Hg0  1  0.25000000  0.25000000  0.25000000  1
  Hg  Hg1  1  0.00000000  0.00000000  0.00000000  1
  Br  Br0  1  0.26038800  0.49759200  0.74442800  1
  Br  Br1  1  0.49759200  0.26038800  0.49759200  1
  Br  Br2  1  0.74442800  0.49759200  0.26038800  1
  Br  Br3  1  0.49759200  0.74442800  0.49759200  1
  Br  Br4  1  0.49759200  0.74442800  0.26038800  1
  Br  Br5  1  0.26038800  0.49759200  0.49759200  1
  Br  Br6  1  0.49759200  0.26038800  0.74442800  1
  Br  Br7  1  0.74442800  0.49759200  0.49759200  1
  Br  Br8  1  0.74442800  0.26038800  0.49759200  1
  Br  Br9  1  0.49759200  0.49759200  0.26038800  1
  Br  Br10  1  0.26038800  0.74442800  0.49759200  1
  Br  Br11  1  0.49759200  0.49759200  0.74442800  1
  Br  Br12  1  0.98961200  0.75240800  0.50557200  1
  Br  Br13  1  0.75240800  0.98961200  0.75240800  1
  Br  Br14  1  0.50557200  0.75240800  0.98961200  1
  Br  Br15  1  0.75240800  0.50557200  0.75240800  1
  Br  Br16  1  0.75240800  0.50557200  0.98961200  1
  Br  Br17  1  0.98961200  0.75240800  0.75240800  1
  Br  Br18  1  0.75240800  0.98961200  0.50557200  1
  Br  Br19  1  0.50557200  0.75240800  0.75240800  1
  Br  Br20  1  0.50557200  0.98961200  0.75240800  1
  Br  Br21  1  0.75240800  0.75240800  0.98961200  1
  Br  Br22  1  0.98961200  0.50557200  0.75240800  1
  Br  Br23  1  0.75240800  0.75240800  0.50557200  1
  Br  Br24  1  0.03396300  0.32201200  0.32201200  1
  Br  Br25  1  0.32201200  0.03396300  0.32201200  1
  Br  Br26  1  0.32201200  0.32201200  0.03396300  1
  Br  Br27  1  0.32201200  0.32201200  0.32201200  1
  Br  Br28  1  0.21603700  0.92798800  0.92798800  1
  Br  Br29  1  0.92798800  0.21603700  0.92798800  1
  Br  Br30  1  0.92798800  0.92798800  0.21603700  1
  Br  Br31  1  0.92798800  0.92798800  0.92798800  1
  O  O0  1  0.27822600  0.72177400  0.72177400  1
  O  O1  1  0.72177400  0.27822600  0.27822600  1
  O  O2  1  0.72177400  0.72177400  0.27822600  1
  O  O3  1  0.27822600  0.27822600  0.72177400  1
  O  O4  1  0.72177400  0.27822600  0.72177400  1
  O  O5  1  0.27822600  0.72177400  0.27822600  1
  O  O6  1  0.97177400  0.52822600  0.52822600  1
  O  O7  1  0.52822600  0.97177400  0.97177400  1
  O  O8  1  0.52822600  0.52822600  0.97177400  1
  O  O9  1  0.97177400  0.97177400  0.52822600  1
  O  O10  1  0.52822600  0.97177400  0.52822600  1
  O  O11  1  0.97177400  0.52822600  0.97177400  1
  O  O12  1  0.60039500  0.18366300  0.18366300  1
  O  O13  1  0.18366300  0.60039500  0.03227800  1
  O  O14  1  0.18366300  0.03227800  0.60039500  1
  O  O15  1  0.03227800  0.18366300  0.18366300  1
  O  O16  1  0.18366300  0.18366300  0.60039500  1
  O  O17  1  0.60039500  0.03227800  0.18366300  1
  O  O18  1  0.03227800  0.60039500  0.18366300  1
  O  O19  1  0.18366300  0.18366300  0.03227800  1
  O  O20  1  0.18366300  0.60039500  0.18366300  1
  O  O21  1  0.03227800  0.18366300  0.60039500  1
  O  O22  1  0.60039500  0.18366300  0.03227800  1
  O  O23  1  0.18366300  0.03227800  0.18366300  1
  O  O24  1  0.64960500  0.06633700  0.06633700  1
  O  O25  1  0.06633700  0.64960500  0.21772200  1
  O  O26  1  0.06633700  0.21772200  0.64960500  1
  O  O27  1  0.21772200  0.06633700  0.06633700  1
  O  O28  1  0.06633700  0.06633700  0.64960500  1
  O  O29  1  0.64960500  0.21772200  0.06633700  1
  O  O30  1  0.21772200  0.64960500  0.06633700  1
  O  O31  1  0.06633700  0.06633700  0.21772200  1
  O  O32  1  0.06633700  0.64960500  0.06633700  1
  O  O33  1  0.21772200  0.06633700  0.64960500  1
  O  O34  1  0.64960500  0.06633700  0.21772200  1
  O  O35  1  0.06633700  0.21772200  0.06633700  1
loop_
_geom_bond_atom_site_label_1
_geom_bond_atom_site_label_2
_geom_bond_distance
_geom_bond_site_symmetry_2
Br0 Ta3 2.622277 1_555
Br0 Ta0 2.622277 1_555
Br1 Ta3 2.622277 1_555
Br1 Ta1 2.622277 1_555
Br2 Ta1 2.622277 1_555
Br2 Ta2 2.622277 1_555
Br3 Ta2 2.622277 1_555
Br3 Ta0 2.622277 1_555
Br4 Ta5 2.622277 1_555
Br4 Ta2 2.622277 1_555
Br5 Ta5 2.622277 1_555
Br5 Ta3 2.622277 1_555
Br6 Ta3 2.622277 1_555
Br6 Ta4 2.622277 1_555
Br7 Ta2 2.622277 1_555
Br7 Ta4 2.622277 1_555
Br8 Ta1 2.622277 1_555
Br8 Ta4 2.622277 1_555
Br9 Ta5 2.622277 1_555
Br9 Ta1 2.622277 1_555
Br10 Ta5 2.622277 1_555
Br10 Ta0 2.622277 1_555
Br11 Ta0 2.622277 1_555
Br11 Ta4 2.622277 1_555
Br12 Ta6 2.622277 1_555
Br12 Ta9 2.622277 1_555
Br13 Ta7 2.622277 1_555
Br13 Ta9 2.622277 1_555
Br14 Ta7 2.622277 1_555
Br14 Ta8 2.622277 1_555
Br15 Ta6 2.622277 1_555
Br15 Ta8 2.622277 1_555
Br16 Ta11 2.622277 1_555
Br16 Ta8 2.622277 1_555
Br17 Ta11 2.622277 1_555
Br17 Ta9 2.622277 1_555
Br18 Ta10 2.622277 1_555
Br18 Ta9 2.622277 1_555
Br19 Ta10 2.622277 1_555
Br19 Ta8 2.622277 1_555
Br20 Ta10 2.622277 1_555
Br20 Ta7 2.622277 1_555
Br21 Ta11 2.622277 1_555
Br21 Ta7 2.622277 1_555
Br22 Ta11 2.622277 1_555
Br22 Ta6 2.622277 1_555
Br23 Ta10 2.622277 1_555
Br23 Ta6 2.622277 1_555
Br24 Hg0 2.665093 1_555
Br25 Hg0 2.665093 1_555
Br26 Hg0 2.665093 1_555
Br27 Hg0 2.665080 1_555
Br28 Hg1 2.665093 1_566
Br29 Hg1 2.665093 1_656
Br30 Hg1 2.665093 1_665
Br31 Hg1 2.665080 1_666
O0 Ta0 1.719194 1_555
O1 Ta1 1.719194 1_555
O2 Ta2 1.719194 1_555
O3 Ta3 1.719194 1_555
O4 Ta4 1.719194 1_555
O5 Ta5 1.719194 1_555
O6 Ta6 1.719194 1_555
O7 Ta7 1.719194 1_555
O8 Ta8 1.719194 1_555
O9 Ta9 1.719194 1_555
O10 Ta10 1.719194 1_555
O11 Ta11 1.719194 1_555
O12 O34 1.453389 1_555
O12 O29 1.453389 1_555
O13 O32 1.453389 1_555
O13 O30 1.453412 1_555
O14 O28 1.453389 1_555
O14 O33 1.453412 1_555
O15 O35 1.453386 1_555
O15 O31 1.453386 1_555
O16 O26 1.453389 1_555
O16 O33 1.453389 1_555
O17 O24 1.453389 1_555
O17 O34 1.453412 1_555
O18 O32 1.453389 1_555
O18 O25 1.453412 1_555
O19 O35 1.453386 1_555
O19 O27 1.453386 1_555
O20 O25 1.453389 1_555
O20 O30 1.453389 1_555
O21 O28 1.453389 1_555
O21 O26 1.453412 1_555
O22 O24 1.453389 1_555
O22 O29 1.453412 1_555
O23 O27 1.453386 1_555
O23 O31 1.453386 1_555
