# generated using pymatgen
data_Ca2MnWO6
_symmetry_space_group_name_H-M   'P 1'
_cell_length_a   5.52042864
_cell_length_b   5.73841100
_cell_length_c   7.92132275
_cell_angle_alpha   90.00024279
_cell_angle_beta   90.30572754
_cell_angle_gamma   89.99997913
_symmetry_Int_Tables_number   1
_chemical_formula_structural   Ca2MnWO6
_chemical_formula_sum   'Ca4 Mn2 W2 O12'
_cell_volume   250.93195879
_cell_formula_units_Z   2
loop_
 _symmetry_equiv_pos_site_id
 _symmetry_equiv_pos_as_xyz
  1  'x, y, z'
loop_
 _atom_site_type_symbol
 _atom_site_label
 _atom_site_symmetry_multiplicity
 _atom_site_fract_x
 _atom_site_fract_y
 _atom_site_fract_z
 _atom_site_occupancy
  Ca  Ca0  1  0.98557700  0.05597400  0.25351800  1
  Ca  Ca1  1  0.51442400  0.55597600  0.24648600  1
  Ca  Ca2  1  0.01442300  0.94402700  0.74648300  1
  Ca  Ca3  1  0.48557600  0.44402500  0.75351500  1
  Mn  Mn0  1  0.99999800  0.50000600  0.49999200  1
  Mn  Mn1  1  0.50000100  0.99999400  0.99999800  1
  W  W0  1  0.50000100  0.00000000  0.50000100  1
  W  W1  1  0.00000000  0.50000000  0.00000000  1
  O  O0  1  0.68095000  0.28236200  0.44056000  1
  O  O1  1  0.81905400  0.78235800  0.05944100  1
  O  O2  1  0.31905000  0.71763800  0.55944100  1
  O  O3  1  0.18094700  0.21764100  0.94056000  1
  O  O4  1  0.21258500  0.18662500  0.54859800  1
  O  O5  1  0.28741200  0.68662000  0.95140300  1
  O  O6  1  0.78741600  0.81337500  0.45140200  1
  O  O7  1  0.71258700  0.31337900  0.04859900  1
  O  O8  1  0.10330700  0.46041700  0.23512700  1
  O  O9  1  0.39669300  0.96041800  0.26487600  1
  O  O10  1  0.60330700  0.03958200  0.73512500  1
  O  O11  1  0.89669400  0.53958300  0.76487400  1
loop_
_geom_bond_atom_site_label_1
_geom_bond_atom_site_label_2
_geom_bond_distance
_geom_bond_site_symmetry_2
Ca0 O9 2.336105 1_645
Ca0 O6 2.368567 1_545
Ca0 O1 2.378799 1_545
Ca0 O8 2.414752 1_655
Ca0 O0 2.595664 1_555
Ca0 O7 2.657388 1_555
Ca0 O4 2.750424 1_655
Ca0 O3 2.863227 1_654
Ca1 O8 2.336115 1_555
Ca1 O7 2.368573 1_555
Ca1 O0 2.378791 1_555
Ca1 O9 2.414745 1_555
Ca1 O1 2.595678 1_555
Ca1 O6 2.657354 1_555
Ca1 O5 2.750449 1_554
Ca1 O2 2.863198 1_555
Ca2 O10 2.336104 1_465
Ca2 O4 2.368571 1_565
Ca2 O3 2.378794 1_565
Ca2 O11 2.414756 1_455
Ca2 O2 2.595666 1_555
Ca2 O5 2.657397 1_555
Ca2 O6 2.750430 1_455
Ca2 O1 2.863228 1_456
Ca3 O11 2.336119 1_555
Ca3 O5 2.368574 1_555
Ca3 O2 2.378787 1_555
Ca3 O10 2.414751 1_555
Ca3 O3 2.595680 1_555
Ca3 O4 2.657359 1_555
Ca3 O7 2.750456 1_556
Ca3 O0 2.863200 1_555
Mn0 O6 2.180413 1_555
Mn0 O4 2.180507 1_655
Mn0 O8 2.188966 1_655
Mn0 O11 2.189081 1_555
Mn0 O0 2.207877 1_555
Mn0 O2 2.207884 1_655
Mn1 O5 2.180463 1_555
Mn1 O7 2.180514 1_566
Mn1 O10 2.189024 1_565
Mn1 O9 2.189058 1_556
Mn1 O1 2.207893 1_556
Mn1 O3 2.207925 1_565
O0 W0 1.962132 1_555
O1 W1 1.962101 1_655
O2 W0 1.962136 1_565
O3 W1 1.962107 1_556
O4 W0 1.954248 1_555
O5 W1 1.954216 1_556
O6 W0 1.954246 1_565
O7 W1 1.954227 1_655
O8 W1 1.958181 1_555
O9 W0 1.958165 1_565
O10 W0 1.958154 1_555
O11 W1 1.958172 1_656
