# generated using pymatgen
data_MgCdTe2
_symmetry_space_group_name_H-M   'P 1'
_cell_length_a   7.98356610
_cell_length_b   7.98356610
_cell_length_c   7.98356610
_cell_angle_alpha   131.85661158
_cell_angle_beta   131.85661158
_cell_angle_gamma   70.45558780
_symmetry_Int_Tables_number   1
_chemical_formula_structural   MgCdTe2
_chemical_formula_sum   'Mg2 Cd2 Te4'
_cell_volume   276.60803212
_cell_formula_units_Z   2
loop_
 _symmetry_equiv_pos_site_id
 _symmetry_equiv_pos_as_xyz
  1  'x, y, z'
loop_
 _atom_site_type_symbol
 _atom_site_label
 _atom_site_symmetry_multiplicity
 _atom_site_fract_x
 _atom_site_fract_y
 _atom_site_fract_z
 _atom_site_occupancy
  Mg  Mg0  1  0.75000000  0.25000000  0.50000000  1
  Mg  Mg1  1  -0.00000000  0.00000000  0.00000000  1
  Cd  Cd0  1  0.25000000  0.75000000  0.50000000  1
  Cd  Cd1  1  0.50000000  0.50000000  0.00000000  1
  Te  Te0  1  0.63079052  0.62500000  0.50579052  1
  Te  Te1  1  0.11920948  0.12500000  0.49420948  1
  Te  Te2  1  0.87500000  0.36920948  0.99420948  1
  Te  Te3  1  0.37500000  0.88079052  0.00579052  1
loop_
_geom_bond_atom_site_label_1
_geom_bond_atom_site_label_2
_geom_bond_distance
_geom_bond_site_symmetry_2
Mg0 Te2 2.799748 1_555
Mg0 Te3 2.799748 1_545
Mg0 Te0 2.799748 1_555
Mg0 Te1 2.799748 1_655
Mg1 Te3 2.799748 1_545
Mg1 Te1 2.799748 1_555
Mg1 Te0 2.799748 1_444
Mg1 Te2 2.799748 1_454
Cd0 Te3 2.843272 1_556
Cd0 Te1 2.843272 1_565
Cd0 Te2 2.843272 1_454
Cd0 Te0 2.843272 1_555
Cd1 Te2 2.843272 1_554
Cd1 Te0 2.843272 1_555
Cd1 Te3 2.843272 1_555
Cd1 Te1 2.843272 1_554
