# generated using pymatgen
data_Th3Nb
_symmetry_space_group_name_H-M   'P 1'
_cell_length_a   6.73737620
_cell_length_b   6.73737620
_cell_length_c   5.82120600
_cell_angle_alpha   90.00000000
_cell_angle_beta   90.00000000
_cell_angle_gamma   120.00000195
_symmetry_Int_Tables_number   1
_chemical_formula_structural   Th3Nb
_chemical_formula_sum   'Th6 Nb2'
_cell_volume   228.83644240
_cell_formula_units_Z   2
loop_
 _symmetry_equiv_pos_site_id
 _symmetry_equiv_pos_as_xyz
  1  'x, y, z'
loop_
 _atom_site_type_symbol
 _atom_site_label
 _atom_site_symmetry_multiplicity
 _atom_site_fract_x
 _atom_site_fract_y
 _atom_site_fract_z
 _atom_site_occupancy
  Th  Th0  1  0.82462000  0.17538000  0.75000000  1
  Th  Th1  1  0.35076100  0.17538000  0.75000000  1
  Th  Th2  1  0.82462000  0.64923900  0.75000000  1
  Th  Th3  1  0.17538000  0.82462000  0.25000000  1
  Th  Th4  1  0.64923900  0.82462000  0.25000000  1
  Th  Th5  1  0.17538000  0.35076100  0.25000000  1
  Nb  Nb0  1  0.66666700  0.33333300  0.25000000  1
  Nb  Nb1  1  0.33333300  0.66666700  0.75000000  1
loop_
_geom_bond_atom_site_label_1
_geom_bond_atom_site_label_2
_geom_bond_distance
_geom_bond_site_symmetry_2
Th0 Th2 3.192566 1_555
Th0 Th1 3.192566 1_555
Th0 Th1 3.544810 1_655
Th0 Th2 3.544810 1_545
Th0 Th4 3.558111 1_546
Th0 Th4 3.558111 1_545
Th0 Th5 3.558111 1_655
Th0 Th5 3.558111 1_656
Th1 Th2 3.192566 1_555
Th1 Th2 3.544810 1_445
Th1 Th3 3.558111 1_545
Th1 Th3 3.558111 1_546
Th1 Th5 3.558118 1_555
Th1 Th5 3.558118 1_556
Th2 Th3 3.558111 1_656
Th2 Th3 3.558111 1_655
Th2 Th4 3.558118 1_555
Th2 Th4 3.558118 1_556
Th3 Th5 3.192566 1_555
Th3 Th4 3.192566 1_555
Th3 Th5 3.544810 1_565
Th3 Th4 3.544810 1_455
Th4 Th5 3.192566 1_555
Th4 Th5 3.544810 1_665
Nb0 Th4 3.370216 1_545
Nb0 Th5 3.370216 1_655
Nb0 Th3 3.370222 1_545
Nb0 Th3 3.370222 1_655
Nb0 Th4 3.370229 1_555
Nb0 Th5 3.370229 1_555
Nb0 Th1 3.445156 1_554
Nb0 Th2 3.445156 1_554
Nb0 Th1 3.445156 1_555
Nb0 Th2 3.445156 1_555
Nb0 Th0 3.445156 1_554
Nb0 Th0 3.445156 1_555
Nb1 Th2 3.370216 1_455
Nb1 Th1 3.370216 1_565
Nb1 Th0 3.370222 1_455
Nb1 Th0 3.370222 1_565
Nb1 Th2 3.370229 1_555
Nb1 Th1 3.370229 1_555
Nb1 Th4 3.445156 1_555
Nb1 Th4 3.445156 1_556
Nb1 Th5 3.445156 1_555
Nb1 Th5 3.445156 1_556
Nb1 Th3 3.445156 1_555
Nb1 Th3 3.445156 1_556
