# generated using pymatgen
data_Sr4La4Cr(NiO5)3
_symmetry_space_group_name_H-M   'P 1'
_cell_length_a   7.70437799
_cell_length_b   3.84458877
_cell_length_c   13.30731786
_cell_angle_alpha   106.76428795
_cell_angle_beta   89.55582424
_cell_angle_gamma   89.84003638
_symmetry_Int_Tables_number   1
_chemical_formula_structural   Sr4La4Cr(NiO5)3
_chemical_formula_sum   'Sr4 La4 Cr1 Ni3 O15'
_cell_volume   377.39618578
_cell_formula_units_Z   1
loop_
 _symmetry_equiv_pos_site_id
 _symmetry_equiv_pos_as_xyz
  1  'x, y, z'
loop_
 _atom_site_type_symbol
 _atom_site_label
 _atom_site_symmetry_multiplicity
 _atom_site_fract_x
 _atom_site_fract_y
 _atom_site_fract_z
 _atom_site_occupancy
  Sr  Sr0  1  0.24624000  0.65206900  0.15079000  1
  Sr  Sr1  1  0.25376000  0.34793100  0.84921000  1
  Sr  Sr2  1  0.49564400  0.63960700  0.63985500  1
  Sr  Sr3  1  0.00435600  0.36039300  0.36014500  1
  La  La0  1  0.00470400  0.63757200  0.63738700  1
  La  La1  1  0.49529600  0.36242800  0.36261300  1
  La  La2  1  0.75413200  0.64810100  0.14242800  1
  La  La3  1  0.74586800  0.35189900  0.85757200  1
  Cr  Cr0  1  0.75000000  0.00000000  0.50000000  1
  Ni  Ni0  1  0.00120800  0.99694300  0.99797700  1
  Ni  Ni1  1  0.25000000  0.00000000  0.50000000  1
  Ni  Ni2  1  0.49879200  0.00305700  0.00202300  1
  O  O0  1  0.03777700  0.49471200  0.99619500  1
  O  O1  1  0.99042100  0.82742100  0.82332400  1
  O  O2  1  0.26520000  0.83929900  0.33931500  1
  O  O3  1  0.25000000  0.50000000  0.50000000  1
  O  O4  1  0.23480000  0.16070100  0.66068500  1
  O  O5  1  0.46222300  0.50528800  0.00380500  1
  O  O6  1  0.50957900  0.17257900  0.17667600  1
  O  O7  1  0.50403300  0.99654300  0.49626400  1
  O  O8  1  0.50579500  0.83772600  0.83318900  1
  O  O9  1  0.75000000  0.00000000  0.00000000  1
  O  O10  1  0.74357400  0.83235800  0.33063800  1
  O  O11  1  0.75000000  0.50000000  0.50000000  1
  O  O12  1  0.75642600  0.16764200  0.66936200  1
  O  O13  1  0.99420500  0.16227400  0.16681100  1
  O  O14  1  0.99596700  0.00345700  0.50373600  1
loop_
_geom_bond_atom_site_label_1
_geom_bond_atom_site_label_2
_geom_bond_distance
_geom_bond_site_symmetry_2
La0 O1 2.370788 1_455
La0 O3 2.564532 1_555
La0 O14 2.567298 1_465
La0 O14 2.571507 1_455
La0 O4 2.630262 1_555
La0 O4 2.636753 1_565
La0 O11 2.641328 1_455
La0 O12 2.731006 1_465
La0 O12 2.748495 1_455
La1 O6 2.370788 1_555
La1 O3 2.564532 1_555
La1 O7 2.567298 1_545
La1 O7 2.571507 1_555
La1 O2 2.630262 1_555
La1 O2 2.636753 1_545
La1 O11 2.641328 1_555
La1 O10 2.731006 1_545
La1 O10 2.748495 1_555
La2 O10 2.398819 1_555
La2 O9 2.627466 1_565
La2 O9 2.660612 1_555
La2 O13 2.663407 1_565
La2 O6 2.694229 1_565
La2 O13 2.711950 1_555
La2 O6 2.754356 1_555
La2 O0 2.859197 1_654
La2 O5 2.872145 1_555
La3 O12 2.398819 1_555
La3 O9 2.627466 1_556
La3 O9 2.660612 1_566
La3 O8 2.663407 1_545
La3 O1 2.694229 1_545
La3 O8 2.711950 1_555
La3 O1 2.754356 1_555
La3 O5 2.859197 1_556
La3 O0 2.872145 1_655
Cr0 O14 1.896043 1_555
Cr0 O7 1.896043 1_545
Cr0 O11 1.922294 1_545
Cr0 O11 1.922294 1_555
Cr0 O12 2.158985 1_555
Cr0 O10 2.158985 1_545
Ni0 O9 1.935336 1_466
Ni0 O0 1.941994 1_565
Ni0 O0 1.943875 1_555
Ni0 O13 2.151472 1_466
Ni0 O1 2.227754 1_455
Ni1 O3 1.922294 1_545
Ni1 O3 1.922294 1_555
Ni1 O7 1.957323 1_545
Ni1 O14 1.957323 1_455
Ni1 O4 2.049709 1_555
Ni1 O2 2.049709 1_545
Ni2 O9 1.935336 1_555
Ni2 O5 1.941994 1_545
Ni2 O5 1.943875 1_555
Ni2 O8 2.151472 1_544
Ni2 O6 2.227754 1_555
O0 Sr1 2.494151 1_555
O0 Sr0 2.552730 1_556
O1 Sr1 2.806311 1_665
O1 Sr1 2.826570 1_655
O2 Sr0 2.407881 1_555
O2 Sr3 2.788836 1_565
O2 Sr3 2.794984 1_555
O3 Sr2 2.611031 1_555
O3 Sr3 2.611031 1_555
O4 Sr1 2.407881 1_555
O4 Sr2 2.788836 1_545
O4 Sr2 2.794984 1_555
O5 Sr0 2.494151 1_555
O5 Sr1 2.552730 1_554
O6 Sr0 2.806311 1_545
O6 Sr0 2.826570 1_555
O7 Sr2 2.653245 1_565
O7 Sr2 2.655133 1_555
O8 Sr2 2.465433 1_555
O8 Sr1 2.719301 1_565
O8 Sr1 2.758159 1_555
O10 Sr3 2.808248 1_655
O10 Sr3 2.808434 1_665
O11 Sr2 2.636919 1_555
O11 Sr3 2.636919 1_655
O12 Sr2 2.808248 1_555
O12 Sr2 2.808434 1_545
O13 Sr3 2.465433 1_655
O13 Sr0 2.719301 1_645
O13 Sr0 2.758159 1_655
O14 Sr3 2.653245 1_645
O14 Sr3 2.655133 1_655
