# generated using pymatgen
data_CeMg6Co
_symmetry_space_group_name_H-M   'P 1'
_cell_length_a   4.95480900
_cell_length_b   5.67127800
_cell_length_c   12.64744100
_cell_angle_alpha   90.00000000
_cell_angle_beta   90.00000000
_cell_angle_gamma   90.00000000
_symmetry_Int_Tables_number   1
_chemical_formula_structural   CeMg6Co
_chemical_formula_sum   'Ce2 Mg12 Co2'
_cell_volume   355.39434769
_cell_formula_units_Z   2
loop_
 _symmetry_equiv_pos_site_id
 _symmetry_equiv_pos_as_xyz
  1  'x, y, z'
loop_
 _atom_site_type_symbol
 _atom_site_label
 _atom_site_symmetry_multiplicity
 _atom_site_fract_x
 _atom_site_fract_y
 _atom_site_fract_z
 _atom_site_occupancy
  Ce  Ce0  1  0.00000000  0.50000000  0.19026500  1
  Ce  Ce1  1  0.00000000  0.00000000  0.69026500  1
  Mg  Mg0  1  0.00000000  0.25141400  0.43916000  1
  Mg  Mg1  1  0.00000000  0.74858600  0.43916000  1
  Mg  Mg2  1  0.50000000  0.75477800  0.07575700  1
  Mg  Mg3  1  0.50000000  0.24522200  0.07575700  1
  Mg  Mg4  1  0.50000000  0.00000000  0.28335600  1
  Mg  Mg5  1  0.50000000  0.50000000  0.35186500  1
  Mg  Mg6  1  0.00000000  0.75141400  0.93916000  1
  Mg  Mg7  1  0.00000000  0.24858600  0.93916000  1
  Mg  Mg8  1  0.50000000  0.25477800  0.57575700  1
  Mg  Mg9  1  0.50000000  0.74522200  0.57575700  1
  Mg  Mg10  1  0.50000000  0.50000000  0.78335600  1
  Mg  Mg11  1  0.50000000  0.00000000  0.85186500  1
  Co  Co0  1  0.00000000  0.00000000  0.14467600  1
  Co  Co1  1  0.00000000  0.50000000  0.64467600  1
loop_
_geom_bond_atom_site_label_1
_geom_bond_atom_site_label_2
_geom_bond_distance
_geom_bond_site_symmetry_2
Ce0 Co0 2.893665 1_555
Ce0 Co0 2.893665 1_565
Ce0 Mg5 3.211660 1_455
Ce0 Mg5 3.211660 1_555
Ce0 Mg3 3.212895 1_455
Ce0 Mg3 3.212895 1_555
Ce0 Mg2 3.212895 1_455
Ce0 Mg2 3.212895 1_555
Ce0 Mg1 3.449162 1_555
Ce0 Mg0 3.449162 1_555
Ce0 Mg7 3.481228 1_554
Ce0 Mg6 3.481228 1_554
Ce1 Co1 2.893665 1_555
Ce1 Co1 2.893665 1_545
Ce1 Mg11 3.211660 1_455
Ce1 Mg11 3.211660 1_555
Ce1 Mg8 3.212895 1_555
Ce1 Mg9 3.212895 1_545
Ce1 Mg9 3.212895 1_445
Ce1 Mg8 3.212895 1_455
Ce1 Mg7 3.449162 1_555
Ce1 Mg6 3.449162 1_545
Ce1 Mg0 3.481228 1_555
Ce1 Mg1 3.481228 1_545
Mg0 Mg1 2.819601 1_555
Mg0 Mg1 2.851677 1_545
Mg0 Mg8 3.020349 1_555
Mg0 Mg8 3.020349 1_455
Mg0 Mg5 3.056798 1_455
Mg0 Mg5 3.056798 1_555
Mg0 Mg4 3.471816 1_555
Mg0 Mg4 3.471816 1_455
Mg1 Mg9 3.020349 1_455
Mg1 Mg9 3.020349 1_555
Mg1 Mg5 3.056798 1_455
Mg1 Mg5 3.056798 1_555
Mg1 Mg4 3.471816 1_465
Mg1 Mg4 3.471816 1_565
Mg2 Mg3 2.781444 1_565
Mg2 Mg3 2.889834 1_555
Mg2 Mg4 2.971172 1_565
Mg2 Mg6 3.020349 1_654
Mg2 Mg6 3.020349 1_554
Mg3 Mg4 2.971172 1_555
Mg3 Mg7 3.020349 1_654
Mg3 Mg7 3.020349 1_554
Mg4 Mg5 2.965065 1_545
Mg4 Mg5 2.965065 1_555
Mg5 Mg9 3.154744 1_555
Mg5 Mg8 3.154744 1_555
Mg6 Mg7 2.819601 1_565
Mg6 Mg7 2.851677 1_555
Mg8 Mg9 2.781444 1_555
Mg8 Mg9 2.889834 1_545
Mg10 Mg11 2.965065 1_565
Mg10 Mg11 2.965065 1_555
Mg10 Mg8 2.971172 1_555
Mg10 Mg9 2.971172 1_555
Mg10 Mg7 3.471816 1_555
Mg10 Mg6 3.471816 1_655
Mg10 Mg7 3.471816 1_655
Mg10 Mg6 3.471816 1_555
Mg11 Mg6 3.056798 1_645
Mg11 Mg6 3.056798 1_545
Mg11 Mg7 3.056798 1_555
Mg11 Mg7 3.056798 1_655
Mg11 Mg3 3.154744 1_556
Mg11 Mg2 3.154744 1_546
Co0 Mg6 2.956966 1_544
Co0 Mg7 2.956966 1_554
Co0 Mg3 2.971769 1_555
Co0 Mg3 2.971769 1_455
Co0 Mg2 2.971769 1_445
Co0 Mg2 2.971769 1_545
Co0 Mg4 3.035435 1_455
Co0 Mg4 3.035435 1_555
Co1 Mg0 2.956966 1_555
Co1 Mg1 2.956966 1_555
Co1 Mg8 2.971769 1_555
Co1 Mg8 2.971769 1_455
Co1 Mg9 2.971769 1_455
Co1 Mg9 2.971769 1_555
Co1 Mg10 3.035435 1_455
Co1 Mg10 3.035435 1_555
