# generated using pymatgen
data_YbAsPt
_symmetry_space_group_name_H-M   'P 1'
_cell_length_a   4.30925226
_cell_length_b   4.30925226
_cell_length_c   15.56882200
_cell_angle_alpha   90.00000000
_cell_angle_beta   90.00000000
_cell_angle_gamma   120.00000394
_symmetry_Int_Tables_number   1
_chemical_formula_structural   YbAsPt
_chemical_formula_sum   'Yb4 As4 Pt4'
_cell_volume   250.37456242
_cell_formula_units_Z   4
loop_
 _symmetry_equiv_pos_site_id
 _symmetry_equiv_pos_as_xyz
  1  'x, y, z'
loop_
 _atom_site_type_symbol
 _atom_site_label
 _atom_site_symmetry_multiplicity
 _atom_site_fract_x
 _atom_site_fract_y
 _atom_site_fract_z
 _atom_site_occupancy
  Yb  Yb0  1  0.00000000  0.00000000  0.50000000  1
  Yb  Yb1  1  0.00000000  0.00000000  0.00000000  1
  Yb  Yb2  1  0.00000000  0.00000000  0.75000000  1
  Yb  Yb3  1  0.00000000  0.00000000  0.25000000  1
  As  As0  1  0.33333300  0.66666700  0.12918400  1
  As  As1  1  0.66666700  0.33333300  0.87081600  1
  As  As2  1  0.66666700  0.33333300  0.62918400  1
  As  As3  1  0.33333300  0.66666700  0.37081600  1
  Pt  Pt0  1  0.33333300  0.66666700  0.62183600  1
  Pt  Pt1  1  0.66666700  0.33333300  0.37816400  1
  Pt  Pt2  1  0.66666700  0.33333300  0.12183600  1
  Pt  Pt3  1  0.33333300  0.66666700  0.87816400  1
loop_
_geom_bond_atom_site_label_1
_geom_bond_atom_site_label_2
_geom_bond_distance
_geom_bond_site_symmetry_2
As0 Pt2 2.490574 1_455
As0 Pt2 2.490574 1_565
As0 Pt2 2.490582 1_555
As0 Yb3 3.118957 1_565
As0 Yb3 3.118960 1_665
As0 Yb3 3.118960 1_555
As0 Yb1 3.199214 1_565
As0 Yb1 3.199217 1_555
As0 Yb1 3.199217 1_665
As1 Pt3 2.490574 1_545
As1 Pt3 2.490574 1_655
As1 Pt3 2.490582 1_555
As1 Yb2 3.118957 1_655
As1 Yb2 3.118960 1_665
As1 Yb2 3.118960 1_555
As1 Yb1 3.199214 1_656
As1 Yb1 3.199217 1_556
As1 Yb1 3.199217 1_666
As2 Pt0 2.490574 1_545
As2 Pt0 2.490574 1_655
As2 Pt0 2.490582 1_555
As2 Yb2 3.118957 1_655
As2 Yb2 3.118960 1_665
As2 Yb2 3.118960 1_555
As2 Yb0 3.199214 1_655
As2 Yb0 3.199217 1_555
As2 Yb0 3.199217 1_665
As3 Pt1 2.490574 1_455
As3 Pt1 2.490574 1_565
As3 Pt1 2.490582 1_555
As3 Yb3 3.118957 1_565
As3 Yb3 3.118960 1_665
As3 Yb3 3.118960 1_555
As3 Yb0 3.199214 1_565
As3 Yb0 3.199217 1_555
As3 Yb0 3.199217 1_665
Pt0 Yb0 3.128560 1_565
Pt0 Yb0 3.128563 1_665
Pt0 Yb0 3.128563 1_555
Pt0 Yb2 3.189255 1_565
Pt0 Yb2 3.189257 1_665
Pt0 Yb2 3.189257 1_555
Pt1 Yb0 3.128560 1_655
Pt1 Yb0 3.128563 1_555
Pt1 Yb0 3.128563 1_665
Pt1 Yb3 3.189255 1_655
Pt1 Yb3 3.189257 1_555
Pt1 Yb3 3.189257 1_665
Pt2 Yb1 3.128560 1_655
Pt2 Yb1 3.128563 1_555
Pt2 Yb1 3.128563 1_665
Pt2 Yb3 3.189255 1_655
Pt2 Yb3 3.189257 1_555
Pt2 Yb3 3.189257 1_665
Pt3 Yb1 3.128560 1_566
Pt3 Yb1 3.128563 1_556
Pt3 Yb1 3.128563 1_666
Pt3 Yb2 3.189255 1_565
Pt3 Yb2 3.189257 1_665
Pt3 Yb2 3.189257 1_555
