# generated using pymatgen
data_K2NbCuSe2
_symmetry_space_group_name_H-M   'P 1'
_cell_length_a   5.89618800
_cell_length_b   6.91541947
_cell_length_c   18.15515252
_cell_angle_alpha   86.03051481
_cell_angle_beta   80.65474321
_cell_angle_gamma   64.76655885
_symmetry_Int_Tables_number   1
_chemical_formula_structural   K2NbCuSe2
_chemical_formula_sum   'K8 Nb4 Cu4 Se8'
_cell_volume   660.74412059
_cell_formula_units_Z   4
loop_
 _symmetry_equiv_pos_site_id
 _symmetry_equiv_pos_as_xyz
  1  'x, y, z'
loop_
 _atom_site_type_symbol
 _atom_site_label
 _atom_site_symmetry_multiplicity
 _atom_site_fract_x
 _atom_site_fract_y
 _atom_site_fract_z
 _atom_site_occupancy
  K  K0  1  0.55666800  0.25430000  0.57283900  1
  K  K1  1  0.87049300  0.74570000  0.57283900  1
  K  K2  1  0.18903200  0.25430000  0.42716100  1
  K  K3  1  0.19333200  0.24570000  0.92716100  1
  K  K4  1  0.38380800  0.74570000  0.42716100  1
  K  K5  1  0.87950700  0.75430000  0.92716100  1
  K  K6  1  0.56096800  0.24570000  0.07283900  1
  K  K7  1  0.36619200  0.75430000  0.07283900  1
  Nb  Nb0  1  0.87500000  0.25000000  0.25000000  1
  Nb  Nb1  1  0.87500000  0.75000000  0.25000000  1
  Nb  Nb2  1  0.87500000  0.25000000  0.75000000  1
  Nb  Nb3  1  0.37500000  0.75000000  0.75000000  1
  Cu  Cu0  1  0.37500000  0.25000000  0.25000000  1
  Cu  Cu1  1  0.37500000  0.75000000  0.25000000  1
  Cu  Cu2  1  0.37500000  0.25000000  0.75000000  1
  Cu  Cu3  1  0.87500000  0.75000000  0.75000000  1
  Se  Se0  1  0.04444500  0.22892900  0.11612600  1
  Se  Se1  1  0.83943000  0.77107100  0.11612600  1
  Se  Se2  1  0.72662600  0.22892900  0.88387400  1
  Se  Se3  1  0.70555500  0.27107100  0.38387400  1
  Se  Se4  1  0.38949900  0.77107100  0.88387400  1
  Se  Se5  1  0.91057000  0.72892900  0.38387400  1
  Se  Se6  1  0.02337400  0.27107100  0.61612600  1
  Se  Se7  1  0.36050100  0.72892900  0.61612600  1
loop_
_geom_bond_atom_site_label_1
_geom_bond_atom_site_label_2
_geom_bond_distance
_geom_bond_site_symmetry_2
K0 Se6 3.031576 1_655
K0 Se6 3.068789 1_555
K0 Se7 3.090908 1_555
K0 Se3 3.406956 1_555
K1 Se7 3.031570 1_555
K1 Se7 3.068795 1_655
K1 Se6 3.090907 1_655
K1 Se5 3.406956 1_555
K2 Se3 3.031576 1_455
K2 Se3 3.068789 1_555
K2 Se5 3.090908 1_455
K2 Se6 3.406956 1_555
K3 Se2 3.031576 1_455
K3 Se2 3.068789 1_555
K3 Se4 3.090908 1_545
K3 Se0 3.406956 1_556
K4 Se5 3.031565 1_555
K4 Se5 3.068801 1_455
K4 Se3 3.090907 1_555
K4 Se7 3.406956 1_555
K5 Se4 3.031570 1_655
K5 Se4 3.068795 1_555
K5 Se2 3.090907 1_565
K5 Se1 3.406956 1_556
K6 Se0 3.031576 1_655
K6 Se0 3.068789 1_555
K6 Se1 3.090908 1_545
K6 Se2 3.406956 1_554
K7 Se1 3.031565 1_455
K7 Se1 3.068801 1_555
K7 Se0 3.090907 1_565
K7 Se4 3.406956 1_554
Nb0 Se0 2.462321 1_655
Nb0 Se3 2.462321 1_555
Nb1 Se1 2.462320 1_555
Nb1 Se5 2.462320 1_555
Nb2 Se2 2.462321 1_555
Nb2 Se6 2.462321 1_655
Nb3 Se4 2.462320 1_555
Nb3 Se7 2.462320 1_555
Cu0 Nb0 2.948094 1_455
Cu0 Nb0 2.948094 1_555
Cu0 K2 3.223104 1_555
Cu0 K6 3.223104 1_555
Cu0 Nb1 3.457710 1_545
Cu0 Nb1 3.457710 1_455
Cu1 Nb1 2.948094 1_455
Cu1 Nb1 2.948094 1_555
Cu1 K4 3.223105 1_555
Cu1 K7 3.223105 1_555
Cu1 Nb0 3.457710 1_555
Cu1 Nb0 3.457710 1_465
Cu2 Nb2 2.948094 1_455
Cu2 Nb2 2.948094 1_555
Cu2 K0 3.223104 1_555
Cu2 K3 3.223104 1_555
Cu2 Nb3 3.457710 1_555
Cu2 Nb3 3.457710 1_545
Cu3 Nb3 2.948094 1_555
Cu3 Nb3 2.948094 1_655
Cu3 K5 3.223104 1_555
Cu3 K1 3.223104 1_555
Cu3 Nb2 3.457710 1_555
Cu3 Nb2 3.457710 1_565
