# generated using pymatgen
data_V2PO5
_symmetry_space_group_name_H-M   'P 1'
_cell_length_a   5.48005048
_cell_length_b   5.48055311
_cell_length_c   7.37117456
_cell_angle_alpha   68.21382291
_cell_angle_beta   111.77385428
_cell_angle_gamma   89.99388389
_symmetry_Int_Tables_number   1
_chemical_formula_structural   V2PO5
_chemical_formula_sum   'V4 P2 O10'
_cell_volume   188.45245631
_cell_formula_units_Z   2
loop_
 _symmetry_equiv_pos_site_id
 _symmetry_equiv_pos_as_xyz
  1  'x, y, z'
loop_
 _atom_site_type_symbol
 _atom_site_label
 _atom_site_symmetry_multiplicity
 _atom_site_fract_x
 _atom_site_fract_y
 _atom_site_fract_z
 _atom_site_occupancy
  V  V0  1  0.50000100  0.00000000  0.00000200  1
  V  V1  1  0.50000100  0.49999700  0.00000200  1
  V  V2  1  0.00000200  0.00000000  0.49999900  1
  V  V3  1  0.49999800  0.00000200  0.50000000  1
  P  P0  1  0.87306900  0.37310900  0.75003400  1
  P  P1  1  0.12693000  0.62689200  0.24996400  1
  O  O0  1  0.38469600  0.88482700  0.75000500  1
  O  O1  1  0.61530400  0.11517000  0.24999800  1
  O  O2  1  0.19482900  0.32244800  0.38159900  1
  O  O3  1  0.82258900  0.69478700  0.11828100  1
  O  O4  1  0.29415400  0.69730200  0.11343900  1
  O  O5  1  0.80516900  0.67755500  0.61839900  1
  O  O6  1  0.19736600  0.79394700  0.38658000  1
  O  O7  1  0.70584800  0.30269600  0.88656400  1
  O  O8  1  0.17741200  0.30521300  0.88171700  1
  O  O9  1  0.80263200  0.20605500  0.61341700  1
loop_
_geom_bond_atom_site_label_1
_geom_bond_atom_site_label_2
_geom_bond_distance
_geom_bond_site_symmetry_2
O0 V0 2.047717 1_566
O0 V3 2.047976 1_565
O0 V2 2.119624 1_565
O0 V1 2.119956 1_556
O1 V0 2.047700 1_555
O1 V3 2.047972 1_555
O1 V2 2.119625 1_655
O1 V1 2.119943 1_555
O2 P1 1.547313 1_555
O2 V3 2.110230 1_555
O2 V2 2.138087 1_555
O3 P1 1.546918 1_655
O3 V0 2.111083 1_565
O3 V1 2.138403 1_555
O4 P1 1.548363 1_555
O4 V0 2.096259 1_565
O4 V1 2.124063 1_555
O5 P0 1.547322 1_555
O5 V3 2.110243 1_565
O5 V2 2.138097 1_665
O6 P1 1.548353 1_555
O6 V3 2.096966 1_565
O6 V2 2.124945 1_565
O7 P0 1.548378 1_555
O7 V0 2.096254 1_556
O7 V1 2.124055 1_556
O8 P0 1.546927 1_455
O8 V0 2.111078 1_556
O8 V1 2.138398 1_556
O9 P0 1.548354 1_555
O9 V3 2.096958 1_555
O9 V2 2.124968 1_655
