# generated using pymatgen
data_Mn5P4(H3O10)2
_symmetry_space_group_name_H-M   'P 1'
_cell_length_a   9.18627200
_cell_length_b   9.32478205
_cell_length_c   9.93852090
_cell_angle_alpha   98.46039695
_cell_angle_beta   117.52624606
_cell_angle_gamma   90.00000000
_symmetry_Int_Tables_number   1
_chemical_formula_structural   Mn5P4(H3O10)2
_chemical_formula_sum   'Mn10 P8 H12 O40'
_cell_volume   744.49927350
_cell_formula_units_Z   2
loop_
 _symmetry_equiv_pos_site_id
 _symmetry_equiv_pos_as_xyz
  1  'x, y, z'
loop_
 _atom_site_type_symbol
 _atom_site_label
 _atom_site_symmetry_multiplicity
 _atom_site_fract_x
 _atom_site_fract_y
 _atom_site_fract_z
 _atom_site_occupancy
  Mn  Mn0  1  0.15485000  0.88374300  0.35919800  1
  Mn  Mn1  1  0.79565200  0.61625700  0.64080200  1
  Mn  Mn2  1  0.84515000  0.11625700  0.64080200  1
  Mn  Mn3  1  0.20434800  0.38374300  0.35919800  1
  Mn  Mn4  1  0.77204600  0.82389400  0.38714100  1
  Mn  Mn5  1  0.38490500  0.67610600  0.61285900  1
  Mn  Mn6  1  0.22795400  0.17610600  0.61285900  1
  Mn  Mn7  1  0.61509500  0.32389400  0.38714100  1
  Mn  Mn8  1  0.10007200  0.75000000  0.00000000  1
  Mn  Mn9  1  0.89992800  0.25000000  0.00000000  1
  P  P0  1  0.90177300  0.13794900  0.32134400  1
  P  P1  1  0.58042900  0.36205100  0.67865500  1
  P  P2  1  0.09822700  0.86205100  0.67865500  1
  P  P3  1  0.41957100  0.63794900  0.32134400  1
  P  P4  1  0.89987500  0.60591000  0.17533900  1
  P  P5  1  0.72453600  0.89409000  0.82466100  1
  P  P6  1  0.10012500  0.39409000  0.82466100  1
  P  P7  1  0.27546400  0.10591000  0.17533900  1
  H  H0  1  0.70237600  0.48872100  0.95457700  1
  H  H1  1  0.74779900  0.01127900  0.04542300  1
  H  H2  1  0.29762400  0.51127900  0.04542300  1
  H  H3  1  0.25220100  0.98872100  0.95457700  1
  H  H4  1  0.48664400  0.77851100  0.14150300  1
  H  H5  1  0.34514100  0.72148900  0.85849700  1
  H  H6  1  0.51335600  0.22148900  0.85849700  1
  H  H7  1  0.65485900  0.27851100  0.14150300  1
  H  H8  1  0.60629500  0.85215500  0.08399700  1
  H  H9  1  0.52229700  0.64784500  0.91600300  1
  H  H10  1  0.39370500  0.14784500  0.91600300  1
  H  H11  1  0.47770200  0.35215500  0.08399700  1
  O  O0  1  0.93747100  0.97351600  0.33108100  1
  O  O1  1  0.60639000  0.52648400  0.66891900  1
  O  O2  1  0.06252900  0.02648400  0.66891900  1
  O  O3  1  0.39361000  0.47351600  0.33108100  1
  O  O4  1  0.80879700  0.16110100  0.14979500  1
  O  O5  1  0.65900200  0.33889900  0.85020500  1
  O  O6  1  0.19120300  0.83889900  0.85020500  1
  O  O7  1  0.34099800  0.66110100  0.14979500  1
  O  O8  1  0.80201300  0.18141500  0.40561700  1
  O  O9  1  0.39639600  0.31858500  0.59438300  1
  O  O10  1  0.19798700  0.81858500  0.59438300  1
  O  O11  1  0.60360400  0.68141500  0.40561700  1
  O  O12  1  0.07099800  0.22919800  0.40359100  1
  O  O13  1  0.66740600  0.27080200  0.59640900  1
  O  O14  1  0.92900200  0.77080200  0.59640900  1
  O  O15  1  0.33259400  0.72919800  0.40359100  1
  O  O16  1  0.01726400  0.72305500  0.16804500  1
  O  O17  1  0.84921900  0.77694500  0.83195500  1
  O  O18  1  0.98273600  0.27694500  0.83195500  1
  O  O19  1  0.15078100  0.22305500  0.16804500  1
  O  O20  1  0.86652500  0.66201500  0.30851500  1
  O  O21  1  0.55801000  0.83798500  0.69148500  1
  O  O22  1  0.13347500  0.33798500  0.69148500  1
  O  O23  1  0.44199000  0.16201500  0.30851500  1
  O  O24  1  0.72912200  0.58926900  0.02097600  1
  O  O25  1  0.70814700  0.91073100  0.97902400  1
  O  O26  1  0.27087800  0.41073100  0.97902400  1
  O  O27  1  0.29185300  0.08926900  0.02097600  1
  O  O28  1  0.97180300  0.45514000  0.17751200  1
  O  O29  1  0.79429100  0.04486000  0.82248800  1
  O  O30  1  0.02819700  0.54486000  0.82248800  1
  O  O31  1  0.20570900  0.95514000  0.17751200  1
  O  O32  1  0.29161300  0.03452000  0.50385800  1
  O  O33  1  0.78775500  0.46548000  0.49614200  1
  O  O34  1  0.70838700  0.96548000  0.49614200  1
  O  O35  1  0.21224500  0.53452000  0.50385800  1
  O  O36  1  0.58110000  0.84988200  0.17018200  1
  O  O37  1  0.41091800  0.65011800  0.82981800  1
  O  O38  1  0.41890000  0.15011800  0.82981800  1
  O  O39  1  0.58908200  0.34988200  0.17018200  1
loop_
_geom_bond_atom_site_label_1
_geom_bond_atom_site_label_2
_geom_bond_distance
_geom_bond_site_symmetry_2
Mn0 O32 1.832431 1_565
Mn0 O0 2.078345 1_455
Mn0 O16 2.096365 1_555
Mn0 O15 2.111562 1_555
Mn0 O31 2.248454 1_555
Mn0 O10 2.356129 1_555
Mn1 O33 1.832431 1_555
Mn1 O1 2.078345 1_555
Mn1 O17 2.096365 1_555
Mn1 O14 2.111556 1_555
Mn1 O30 2.248454 1_655
Mn1 O11 2.356129 1_555
Mn2 O34 1.832431 1_545
Mn2 O2 2.078345 1_655
Mn2 O18 2.096365 1_555
Mn2 O13 2.111562 1_555
Mn2 O29 2.248454 1_555
Mn2 O8 2.356129 1_555
Mn3 O35 1.832431 1_555
Mn3 O3 2.078345 1_555
Mn3 O19 2.096365 1_555
Mn3 O12 2.111556 1_555
Mn3 O28 2.248454 1_455
Mn3 O9 2.356129 1_555
Mn4 O34 1.850222 1_555
Mn4 O20 1.980463 1_555
Mn4 O14 2.044706 1_555
Mn4 O36 2.107781 1_555
Mn4 O11 2.127810 1_555
Mn4 O0 2.361695 1_555
Mn5 O35 1.850222 1_555
Mn5 O21 1.980463 1_555
Mn5 O15 2.044708 1_555
Mn5 O37 2.107781 1_555
Mn5 O10 2.127810 1_555
Mn5 O1 2.361695 1_555
Mn6 O32 1.850222 1_555
Mn6 O22 1.980463 1_555
Mn6 O12 2.044706 1_555
Mn6 O38 2.107781 1_555
Mn6 O9 2.127810 1_555
Mn6 O2 2.361695 1_555
Mn7 O33 1.850222 1_555
Mn7 O23 1.980463 1_555
Mn7 O13 2.044708 1_555
Mn7 O39 2.107781 1_555
Mn7 O8 2.127810 1_555
Mn7 O3 2.361695 1_555
Mn8 O17 2.174593 1_454
Mn8 O16 2.174593 1_555
Mn8 O6 2.262624 1_554
Mn8 O7 2.262624 1_555
Mn8 O30 2.266674 1_554
Mn8 O31 2.266674 1_555
Mn9 O18 2.174593 1_554
Mn9 O19 2.174593 1_655
Mn9 O4 2.262624 1_555
Mn9 O5 2.262624 1_554
Mn9 O29 2.266674 1_554
Mn9 O28 2.266674 1_555
H0 O24 1.021270 1_556
H0 O5 1.542102 1_555
H1 O25 1.021269 1_544
H1 O4 1.542102 1_555
H2 O26 1.021270 1_554
H2 O7 1.542102 1_555
H3 O27 1.021269 1_566
H3 O6 1.542102 1_555
H4 O36 0.996314 1_555
H4 O7 1.767480 1_555
H5 O37 0.996314 1_555
H5 O6 1.767480 1_555
H6 O38 0.996314 1_555
H6 O5 1.767480 1_555
H7 O39 0.996314 1_555
H7 O4 1.767480 1_555
H8 O36 0.988070 1_555
H9 O37 0.988064 1_555
H10 O38 0.988070 1_555
H11 O39 0.988070 1_555
O0 P0 1.575515 1_565
O1 P1 1.575512 1_555
O2 P2 1.575514 1_545
O3 P3 1.575515 1_555
O4 P0 1.563733 1_555
O5 P1 1.563742 1_555
O6 P2 1.563741 1_555
O7 P3 1.563733 1_555
O8 P0 1.521565 1_555
O9 P1 1.521565 1_555
O10 P2 1.521557 1_555
O11 P3 1.521565 1_555
O12 P0 1.558713 1_455
O13 P1 1.558700 1_555
O14 P2 1.558714 1_655
O15 P3 1.558707 1_555
O16 P4 1.567456 1_455
O17 P5 1.567456 1_555
O18 P6 1.567456 1_655
O19 P7 1.567456 1_555
O20 P4 1.513424 1_555
O21 P5 1.513424 1_555
O22 P6 1.513424 1_555
O23 P7 1.513424 1_555
O24 P4 1.594925 1_555
O25 P5 1.594920 1_555
O26 P6 1.594925 1_555
O27 P7 1.594920 1_555
O28 P4 1.552208 1_555
O29 P5 1.552208 1_545
O30 P6 1.552208 1_555
O31 P7 1.552208 1_565
