# generated using pymatgen
data_MgSb2O5
_symmetry_space_group_name_H-M   'P 1'
_cell_length_a   3.58278300
_cell_length_b   5.29055176
_cell_length_c   13.36360496
_cell_angle_alpha   97.42742545
_cell_angle_beta   93.96164215
_cell_angle_gamma   99.61350261
_symmetry_Int_Tables_number   1
_chemical_formula_structural   MgSb2O5
_chemical_formula_sum   'Mg2 Sb4 O10'
_cell_volume   246.58554553
_cell_formula_units_Z   2
loop_
 _symmetry_equiv_pos_site_id
 _symmetry_equiv_pos_as_xyz
  1  'x, y, z'
loop_
 _atom_site_type_symbol
 _atom_site_label
 _atom_site_symmetry_multiplicity
 _atom_site_fract_x
 _atom_site_fract_y
 _atom_site_fract_z
 _atom_site_occupancy
  Mg  Mg0  1  0.88438100  0.88618800  0.21503400  1
  Mg  Mg1  1  0.14213900  0.11215300  0.78104600  1
  Sb  Sb0  1  0.25507500  0.35219900  0.10658400  1
  Sb  Sb1  1  0.75683400  0.64522300  0.89063000  1
  Sb  Sb2  1  0.79609000  0.57202000  0.61443600  1
  Sb  Sb3  1  0.19894600  0.42400500  0.38280100  1
  O  O0  1  0.74668900  0.41588900  0.73874100  1
  O  O1  1  0.24716100  0.57869500  0.25822100  1
  O  O2  1  0.73454700  0.59302900  0.10038300  1
  O  O3  1  0.27285600  0.40783500  0.89512000  1
  O  O4  1  0.74539100  0.55860800  0.44142400  1
  O  O5  1  0.24914400  0.43489300  0.55655300  1
  O  O6  1  0.00865500  0.06921600  0.35700400  1
  O  O7  1  0.99377600  0.92507600  0.64038500  1
  O  O8  1  0.60336400  0.93469300  0.82508800  1
  O  O9  1  0.41949600  0.06689500  0.17304000  1
loop_
_geom_bond_atom_site_label_1
_geom_bond_atom_site_label_2
_geom_bond_distance
_geom_bond_site_symmetry_2
Mg0 O6 1.999919 1_665
Mg0 O2 2.008747 1_555
Mg0 O9 2.131788 1_565
Mg0 O9 2.140044 1_665
Mg0 O1 2.348253 1_655
Mg0 O1 2.715894 1_555
Mg1 O7 2.000191 1_445
Mg1 O3 2.007600 1_555
Mg1 O8 2.117824 1_545
Mg1 O8 2.156041 1_445
Mg1 O0 2.407037 1_455
Mg1 O0 2.614353 1_555
O0 Sb2 1.954392 1_555
O0 Sb1 2.220768 1_555
O1 Sb3 1.953478 1_555
O1 Sb0 2.221386 1_555
O2 Sb0 1.974125 1_555
O2 Sb0 2.430605 1_655
O3 Sb1 1.973353 1_555
O3 Sb1 2.403881 1_455
O4 Sb3 2.032728 1_555
O4 Sb3 2.044413 1_655
O4 Sb2 2.297590 1_555
O5 Sb2 2.033540 1_555
O5 Sb2 2.044784 1_455
O5 Sb3 2.308979 1_555
O6 Sb3 1.865395 1_555
O7 Sb2 1.862131 1_555
O8 Sb1 1.994081 1_555
O9 Sb0 1.996330 1_555
