# generated using pymatgen
data_Eu2FeSbO7
_symmetry_space_group_name_H-M   'P 1'
_cell_length_a   7.40113247
_cell_length_b   7.40113247
_cell_length_c   7.40113247
_cell_angle_alpha   120.54680869
_cell_angle_beta   119.48763126
_cell_angle_gamma   89.97262548
_symmetry_Int_Tables_number   1
_chemical_formula_structural   Eu2FeSbO7
_chemical_formula_sum   'Eu4 Fe2 Sb2 O14'
_cell_volume   286.56293558
_cell_formula_units_Z   2
loop_
 _symmetry_equiv_pos_site_id
 _symmetry_equiv_pos_as_xyz
  1  'x, y, z'
loop_
 _atom_site_type_symbol
 _atom_site_label
 _atom_site_symmetry_multiplicity
 _atom_site_fract_x
 _atom_site_fract_y
 _atom_site_fract_z
 _atom_site_occupancy
  Eu  Eu0  1  0.00000000  0.00000000  0.50000000  1
  Eu  Eu1  1  0.00000000  0.50000000  0.00000000  1
  Eu  Eu2  1  0.00000000  0.00000000  0.00000000  1
  Eu  Eu3  1  0.50000000  0.00000000  0.50000000  1
  Fe  Fe0  1  0.50000000  0.50000000  0.50000000  1
  Fe  Fe1  1  0.50000000  0.00000000  0.00000000  1
  Sb  Sb0  1  0.50000000  0.50000000  0.00000000  1
  Sb  Sb1  1  0.00000000  0.50000000  0.50000000  1
  O  O0  1  0.12453100  0.87453100  0.25000000  1
  O  O1  1  0.87546900  0.12546900  0.75000000  1
  O  O2  1  0.42099100  0.17099100  0.25000000  1
  O  O3  1  0.82823900  0.57823900  0.25000000  1
  O  O4  1  0.42010900  0.57731700  0.24602200  1
  O  O5  1  0.83129500  0.17408700  0.25397800  1
  O  O6  1  0.42010900  0.17408700  0.84279200  1
  O  O7  1  0.83129500  0.57731700  0.65720800  1
  O  O8  1  0.57900900  0.82900900  0.75000000  1
  O  O9  1  0.17176100  0.42176100  0.75000000  1
  O  O10  1  0.57989100  0.42268300  0.75397800  1
  O  O11  1  0.16870500  0.82591300  0.74602200  1
  O  O12  1  0.57989100  0.82591300  0.15720800  1
  O  O13  1  0.16870500  0.42268300  0.34279200  1
loop_
_geom_bond_atom_site_label_1
_geom_bond_atom_site_label_2
_geom_bond_distance
_geom_bond_site_symmetry_2
Eu0 O1 2.250973 1_455
Eu0 O0 2.250973 1_545
Eu0 O9 2.569180 1_555
Eu0 O3 2.569180 1_445
Eu0 O12 2.584480 1_445
Eu0 O11 2.584480 1_545
Eu0 O6 2.584480 1_555
Eu0 O5 2.584480 1_455
Eu1 O0 2.250973 1_555
Eu1 O1 2.250973 1_454
Eu1 O9 2.569180 1_554
Eu1 O3 2.569180 1_455
Eu1 O10 2.584480 1_454
Eu1 O7 2.584480 1_454
Eu1 O4 2.584480 1_555
Eu1 O13 2.584480 1_555
Eu2 O1 2.280828 1_454
Eu2 O0 2.280828 1_545
Eu2 O5 2.568985 1_455
Eu2 O13 2.568985 1_555
Eu2 O7 2.568985 1_444
Eu2 O11 2.568985 1_544
Eu2 O8 2.584832 1_444
Eu2 O2 2.584832 1_555
Eu3 O0 2.280828 1_545
Eu3 O1 2.280828 1_555
Eu3 O10 2.568985 1_555
Eu3 O6 2.568985 1_555
Eu3 O12 2.568985 1_545
Eu3 O4 2.568985 1_545
Eu3 O2 2.584832 1_555
Eu3 O8 2.584832 1_545
Fe0 O8 2.012789 1_555
Fe0 O2 2.012789 1_555
Fe0 O7 2.051656 1_555
Fe0 O4 2.051656 1_555
Fe0 O13 2.051656 1_555
Fe0 O10 2.051656 1_555
Fe1 O2 2.012789 1_555
Fe1 O8 2.012789 1_544
Fe1 O12 2.051656 1_545
Fe1 O5 2.051656 1_555
Fe1 O11 2.051656 1_544
Fe1 O6 2.051656 1_554
O3 Sb1 2.036577 1_655
O3 Sb0 2.036577 1_555
O4 Sb0 1.998250 1_555
O5 Sb1 1.998250 1_655
O6 Sb0 1.998250 1_556
O7 Sb1 1.998250 1_655
O9 Sb0 2.036577 1_556
O9 Sb1 2.036577 1_555
O10 Sb0 1.998250 1_556
O11 Sb1 1.998250 1_555
O12 Sb0 1.998250 1_555
O13 Sb1 1.998250 1_555
