# generated using pymatgen
data_KV2PO8
_symmetry_space_group_name_H-M   'P 1'
_cell_length_a   4.82958000
_cell_length_b   14.00680842
_cell_length_c   21.57543878
_cell_angle_alpha   71.08611196
_cell_angle_beta   89.70431333
_cell_angle_gamma   89.10773369
_symmetry_Int_Tables_number   1
_chemical_formula_structural   KV2PO8
_chemical_formula_sum   'K8 V16 P8 O64'
_cell_volume   1380.54252179
_cell_formula_units_Z   8
loop_
 _symmetry_equiv_pos_site_id
 _symmetry_equiv_pos_as_xyz
  1  'x, y, z'
loop_
 _atom_site_type_symbol
 _atom_site_label
 _atom_site_symmetry_multiplicity
 _atom_site_fract_x
 _atom_site_fract_y
 _atom_site_fract_z
 _atom_site_occupancy
  K  K0  1  0.80919100  0.46974200  0.37427700  1
  K  K1  1  0.19080900  0.53025800  0.62572300  1
  K  K2  1  0.18960700  0.15805800  0.87282300  1
  K  K3  1  0.81039300  0.84194200  0.12717700  1
  K  K4  1  0.74503800  0.34609200  0.12849500  1
  K  K5  1  0.25496200  0.65390800  0.87150500  1
  K  K6  1  0.25114100  0.02646700  0.63054000  1
  K  K7  1  0.74885900  0.97353300  0.36946000  1
  V  V0  1  0.31802700  0.37278500  0.25529100  1
  V  V1  1  0.68197300  0.62721500  0.74470900  1
  V  V2  1  0.79701100  0.15666300  0.02272300  1
  V  V3  1  0.20298900  0.84333700  0.97727700  1
  V  V4  1  0.32033100  0.12889700  0.24199000  1
  V  V5  1  0.67966900  0.87110300  0.75801000  1
  V  V6  1  0.67165900  0.37277100  0.75546000  1
  V  V7  1  0.32834100  0.62722900  0.24454000  1
  V  V8  1  0.19867200  0.31911000  0.52130200  1
  V  V9  1  0.80132800  0.68089000  0.47869800  1
  V  V10  1  0.67117300  0.13012800  0.74194600  1
  V  V11  1  0.32882700  0.86987200  0.25805400  1
  V  V12  1  0.69445900  0.17307300  0.48041600  1
  V  V13  1  0.30554100  0.82692700  0.51958400  1
  V  V14  1  0.30172200  0.34356000  0.98167500  1
  V  V15  1  0.69827800  0.65644000  0.01832500  1
  P  P0  1  0.18118900  0.17167200  0.37906100  1
  P  P1  1  0.81881100  0.82832800  0.62093900  1
  P  P2  1  0.69091700  0.33244500  0.61758100  1
  P  P3  1  0.30908300  0.66755500  0.38241900  1
  P  P4  1  0.30299500  0.04741800  0.11936100  1
  P  P5  1  0.69700500  0.95258200  0.88063900  1
  P  P6  1  0.81287700  0.44665700  0.88088700  1
  P  P7  1  0.18712300  0.55334300  0.11911300  1
  O  O0  1  0.40553700  0.21077400  0.53300400  1
  O  O1  1  0.59446300  0.78922600  0.46699600  1
  O  O2  1  0.59043800  0.25381700  0.03403900  1
  O  O3  1  0.40956200  0.74618300  0.96596100  1
  O  O4  1  0.11055600  0.06828200  0.05936300  1
  O  O5  1  0.88944400  0.93171800  0.94063700  1
  O  O6  1  0.87794400  0.15117700  0.40260700  1
  O  O7  1  0.12205600  0.84882300  0.59739300  1
  O  O8  1  0.88295200  0.37069100  0.55741400  1
  O  O9  1  0.11704800  0.62930900  0.44258600  1
  O  O10  1  0.09141900  0.24554300  0.97636000  1
  O  O11  1  0.90858100  0.75445700  0.02364000  1
  O  O12  1  0.90510100  0.27628100  0.47476600  1
  O  O13  1  0.09489900  0.72371900  0.52523400  1
  O  O14  1  0.11795100  0.44207200  0.90359900  1
  O  O15  1  0.88204900  0.55792800  0.09640100  1
  O  O16  1  0.38401200  0.34820600  0.59552100  1
  O  O17  1  0.61598800  0.65179400  0.40447900  1
  O  O18  1  0.76156200  0.21959700  0.65484400  1
  O  O19  1  0.23843800  0.78040300  0.34515600  1
  O  O20  1  0.67216000  0.13233000  0.95973600  1
  O  O21  1  0.32784000  0.86767000  0.04026400  1
  O  O22  1  0.60973100  0.05449300  0.09729900  1
  O  O23  1  0.39026900  0.94550700  0.90270100  1
  O  O24  1  0.74489500  0.06261900  0.83599300  1
  O  O25  1  0.25510500  0.93738100  0.16400700  1
  O  O26  1  0.32345900  0.40624800  0.45821200  1
  O  O27  1  0.67654100  0.59375200  0.54178800  1
  O  O28  1  0.21608500  0.28563400  0.34084800  1
  O  O29  1  0.78391500  0.71436600  0.65915200  1
  O  O30  1  0.61958600  0.42107900  0.94108900  1
  O  O31  1  0.38041400  0.57892100  0.05891100  1
  O  O32  1  0.24697500  0.10526900  0.33552300  1
  O  O33  1  0.75302500  0.89473100  0.66447700  1
  O  O34  1  0.74095700  0.39892700  0.66159800  1
  O  O35  1  0.25904300  0.60107300  0.33840200  1
  O  O36  1  0.76863800  0.37160000  0.84261600  1
  O  O37  1  0.23136200  0.62840000  0.15738400  1
  O  O38  1  0.81707100  0.07736800  0.53911500  1
  O  O39  1  0.18292900  0.92263200  0.46088500  1
  O  O40  1  0.17821000  0.38121800  0.04006400  1
  O  O41  1  0.82179000  0.61878200  0.95993600  1
  O  O42  1  0.22881700  0.12355700  0.15617200  1
  O  O43  1  0.77118300  0.87644300  0.84382800  1
  O  O44  1  0.37640800  0.13890400  0.43883000  1
  O  O45  1  0.62359200  0.86109600  0.56117000  1
  O  O46  1  0.75080700  0.55739700  0.83798600  1
  O  O47  1  0.24919300  0.44260300  0.16201400  1
  O  O48  1  0.76830800  0.01767100  0.72677000  1
  O  O49  1  0.23169200  0.98232900  0.27323000  1
  O  O50  1  0.22470200  0.25694300  0.22517600  1
  O  O51  1  0.77529800  0.74305700  0.77482400  1
  O  O52  1  0.77024300  0.24534400  0.77065800  1
  O  O53  1  0.22975700  0.75465600  0.22934200  1
  O  O54  1  0.22300900  0.48421400  0.27198500  1
  O  O55  1  0.77699100  0.51578600  0.72801500  1
  O  O56  1  0.65599900  0.36954000  0.25739800  1
  O  O57  1  0.34400100  0.63046000  0.74260200  1
  O  O58  1  0.33331800  0.13205100  0.74042900  1
  O  O59  1  0.66668200  0.86794900  0.25957100  1
  O  O60  1  0.65831600  0.12826600  0.24018000  1
  O  O61  1  0.34168400  0.87173400  0.75982000  1
  O  O62  1  0.33380500  0.37328900  0.75705000  1
  O  O63  1  0.66619500  0.62671100  0.24295000  1
loop_
_geom_bond_atom_site_label_1
_geom_bond_atom_site_label_2
_geom_bond_distance
_geom_bond_site_symmetry_2
K0 O35 2.808416 1_655
K0 O12 2.901823 1_555
K0 O26 2.924142 1_555
K0 O54 2.929718 1_655
K0 O17 2.965541 1_555
K0 O26 3.028647 1_655
K0 O63 3.045249 1_555
K0 O35 3.160455 1_555
K0 O56 3.349977 1_555
K1 O34 2.808416 1_455
K1 O13 2.901823 1_555
K1 O27 2.924142 1_555
K1 O55 2.929718 1_455
K1 O16 2.965541 1_555
K1 O27 3.028647 1_455
K1 O62 3.045249 1_555
K1 O34 3.160455 1_555
K1 O57 3.349977 1_555
K2 O24 2.797688 1_455
K2 O10 2.908972 1_555
K2 O20 2.942518 1_555
K2 O52 2.945742 1_455
K2 O23 2.981715 1_545
K2 O58 3.069204 1_555
K2 O20 3.071325 1_455
K2 O24 3.188345 1_555
K2 O62 3.313349 1_555
K3 O25 2.797688 1_655
K3 O11 2.908972 1_555
K3 O21 2.942518 1_555
K3 O53 2.945742 1_655
K3 O22 2.981715 1_565
K3 O59 3.069204 1_555
K3 O21 3.071325 1_655
K3 O25 3.188345 1_555
K3 O63 3.313349 1_555
K4 O40 2.764275 1_655
K4 O2 2.852105 1_555
K4 O15 2.906155 1_555
K4 O47 2.932605 1_555
K4 O56 2.933076 1_555
K4 O47 3.005559 1_655
K4 O50 3.089993 1_655
K4 O60 3.248675 1_555
K4 O50 3.252779 1_555
K4 O40 3.283264 1_555
K5 O41 2.764275 1_455
K5 O3 2.852105 1_555
K5 O14 2.906155 1_555
K5 O46 2.932605 1_555
K5 O57 2.933076 1_555
K5 O46 3.005559 1_455
K5 O51 3.089993 1_455
K5 O61 3.248675 1_555
K5 O51 3.252779 1_555
K5 O41 3.283264 1_555
K6 O38 2.806850 1_455
K6 O0 2.858446 1_555
K6 O7 2.880611 1_545
K6 O61 2.955081 1_545
K6 O33 2.969724 1_545
K6 O33 2.995400 1_445
K6 O48 3.091378 1_455
K6 O58 3.204207 1_555
K6 O48 3.231473 1_555
K6 O38 3.311032 1_555
K7 O39 2.806850 1_655
K7 O1 2.858446 1_555
K7 O6 2.880611 1_565
K7 O60 2.955081 1_565
K7 O32 2.969724 1_565
K7 O32 2.995400 1_665
K7 O49 3.091378 1_655
K7 O59 3.204207 1_555
K7 O49 3.231473 1_555
K7 O39 3.311032 1_555
O0 V8 1.752578 1_555
O0 V12 1.965298 1_555
O1 V9 1.752578 1_555
O1 V13 1.965298 1_555
O2 V2 1.754238 1_555
O2 V14 1.960042 1_554
O3 V3 1.754238 1_555
O3 V15 1.960042 1_556
O4 P4 1.543886 1_555
O4 V2 1.941656 1_455
O5 P5 1.543886 1_555
O5 V3 1.941656 1_655
O6 P0 1.547984 1_655
O6 V12 2.001885 1_555
O7 P1 1.547984 1_455
O7 V13 2.001885 1_555
O8 P2 1.544181 1_555
O8 V8 1.942264 1_655
O9 P3 1.544181 1_555
O9 V9 1.942264 1_455
O10 V14 1.753942 1_555
O10 V2 1.950712 1_456
O11 V15 1.753942 1_555
O11 V3 1.950712 1_654
O12 V12 1.752103 1_555
O12 V8 1.951884 1_655
O13 V13 1.752103 1_555
O13 V9 1.951884 1_455
O14 P6 1.548934 1_455
O14 V14 1.999928 1_555
O15 P7 1.548934 1_655
O15 V15 1.999928 1_555
O16 P2 1.549588 1_555
O16 V8 1.995179 1_555
O17 P3 1.549588 1_555
O17 V9 1.995179 1_555
O18 P2 1.556724 1_555
O18 V10 1.942796 1_555
O19 P3 1.556724 1_555
O19 V11 1.942796 1_555
O20 V2 1.625325 1_556
O21 V3 1.625325 1_554
O22 P4 1.548442 1_555
O22 V2 1.996873 1_555
O23 P5 1.548442 1_555
O23 V3 1.996873 1_555
O24 P5 1.550221 1_545
O24 V10 1.972629 1_555
O25 P4 1.550221 1_565
O25 V11 1.972629 1_555
O26 V8 1.625770 1_555
O27 V9 1.625770 1_555
O28 P0 1.552385 1_555
O28 V0 1.920544 1_555
O29 P1 1.552385 1_555
O29 V1 1.920544 1_555
O30 P6 1.543737 1_555
O30 V14 1.929783 1_555
O31 P7 1.543737 1_555
O31 V15 1.929783 1_555
O32 P0 1.550007 1_555
O32 V4 1.967417 1_555
O33 P1 1.550007 1_555
O33 V5 1.967417 1_555
O34 P2 1.552462 1_555
O34 V6 1.965491 1_555
O35 P3 1.552462 1_555
O35 V7 1.965491 1_555
O36 P6 1.550577 1_555
O36 V6 1.935073 1_555
O37 P7 1.550577 1_555
O37 V7 1.935073 1_555
O38 V12 1.622951 1_555
O39 V13 1.622951 1_555
O40 V14 1.623050 1_554
O41 V15 1.623050 1_556
O42 P4 1.559081 1_555
O42 V4 1.930925 1_555
O43 P5 1.559081 1_555
O43 V5 1.930925 1_555
O44 P0 1.542033 1_555
O44 V12 1.925891 1_555
O45 P1 1.542033 1_555
O45 V13 1.925891 1_555
O46 P6 1.552475 1_555
O46 V1 1.959050 1_555
O47 P7 1.552475 1_555
O47 V0 1.959050 1_555
O48 V10 1.765838 1_555
O48 V5 1.994868 1_545
O49 V11 1.765838 1_555
O49 V4 1.994868 1_565
O50 V4 1.765144 1_555
O50 V0 1.991819 1_555
O51 V5 1.765144 1_555
O51 V1 1.991819 1_555
O52 V6 1.765109 1_555
O52 V10 1.972884 1_555
O53 V7 1.765109 1_555
O53 V11 1.972884 1_555
O54 V0 1.765427 1_555
O54 V7 1.970230 1_555
O55 V1 1.765427 1_555
O55 V6 1.970230 1_555
O56 V0 1.632645 1_555
O57 V1 1.632645 1_555
O58 V10 1.631823 1_555
O59 V11 1.631823 1_555
O60 V4 1.632546 1_555
O61 V5 1.632546 1_555
O62 V6 1.631829 1_555
O63 V7 1.631829 1_555
