# generated using pymatgen
data_UMo
_symmetry_space_group_name_H-M   'P 1'
_cell_length_a   5.83278200
_cell_length_b   10.47523200
_cell_length_c   20.74363048
_cell_angle_alpha   69.08057147
_cell_angle_beta   90.00000000
_cell_angle_gamma   90.00000000
_symmetry_Int_Tables_number   1
_chemical_formula_structural   UMo
_chemical_formula_sum   'U32 Mo32'
_cell_volume   1183.88588257
_cell_formula_units_Z   32
loop_
 _symmetry_equiv_pos_site_id
 _symmetry_equiv_pos_as_xyz
  1  'x, y, z'
loop_
 _atom_site_type_symbol
 _atom_site_label
 _atom_site_symmetry_multiplicity
 _atom_site_fract_x
 _atom_site_fract_y
 _atom_site_fract_z
 _atom_site_occupancy
  U  U0_0  1  0.14502100  0.24808400  0.18547300  1
  U  U0_1  1  0.14502100  0.24808400  0.68547300  1
  U  U0_2  1  0.14502100  0.74808400  0.18547300  1
  U  U0_3  1  0.14502100  0.74808400  0.68547300  1
  U  U0_4  1  0.64502100  0.24808400  0.18547300  1
  U  U0_5  1  0.64502100  0.24808400  0.68547300  1
  U  U0_6  1  0.64502100  0.74808400  0.18547300  1
  U  U0_7  1  0.64502100  0.74808400  0.68547300  1
  U  U1_0  1  0.39502100  0.25191600  0.06452700  1
  U  U1_1  1  0.39502100  0.25191600  0.56452700  1
  U  U1_2  1  0.39502100  0.75191600  0.06452700  1
  U  U1_3  1  0.39502100  0.75191600  0.56452700  1
  U  U1_4  1  0.89502100  0.25191600  0.06452700  1
  U  U1_5  1  0.89502100  0.25191600  0.56452700  1
  U  U1_6  1  0.89502100  0.75191600  0.06452700  1
  U  U1_7  1  0.89502100  0.75191600  0.56452700  1
  U  U2_0  1  0.35497900  0.25191600  0.31452700  1
  U  U2_1  1  0.35497900  0.25191600  0.81452700  1
  U  U2_2  1  0.35497900  0.75191600  0.31452700  1
  U  U2_3  1  0.35497900  0.75191600  0.81452700  1
  U  U2_4  1  0.85497900  0.25191600  0.31452700  1
  U  U2_5  1  0.85497900  0.25191600  0.81452700  1
  U  U2_6  1  0.85497900  0.75191600  0.31452700  1
  U  U2_7  1  0.85497900  0.75191600  0.81452700  1
  U  U3_0  1  0.10497900  0.24808400  0.43547300  1
  U  U3_1  1  0.10497900  0.24808400  0.93547300  1
  U  U3_2  1  0.10497900  0.74808400  0.43547300  1
  U  U3_3  1  0.10497900  0.74808400  0.93547300  1
  U  U3_4  1  0.60497900  0.24808400  0.43547300  1
  U  U3_5  1  0.60497900  0.24808400  0.93547300  1
  U  U3_6  1  0.60497900  0.74808400  0.43547300  1
  U  U3_7  1  0.60497900  0.74808400  0.93547300  1
  Mo  Mo0_0  1  0.17247850  0.49855900  0.43721050  1
  Mo  Mo0_1  1  0.17247850  0.49855900  0.93721050  1
  Mo  Mo0_2  1  0.17247850  0.99855900  0.43721050  1
  Mo  Mo0_3  1  0.17247850  0.99855900  0.93721050  1
  Mo  Mo0_4  1  0.67247850  0.49855900  0.43721050  1
  Mo  Mo0_5  1  0.67247850  0.49855900  0.93721050  1
  Mo  Mo0_6  1  0.67247850  0.99855900  0.43721050  1
  Mo  Mo0_7  1  0.67247850  0.99855900  0.93721050  1
  Mo  Mo1_0  1  0.42247850  0.00144100  0.31278950  1
  Mo  Mo1_1  1  0.42247850  0.00144100  0.81278950  1
  Mo  Mo1_2  1  0.42247850  0.50144100  0.31278950  1
  Mo  Mo1_3  1  0.42247850  0.50144100  0.81278950  1
  Mo  Mo1_4  1  0.92247850  0.00144100  0.31278950  1
  Mo  Mo1_5  1  0.92247850  0.00144100  0.81278950  1
  Mo  Mo1_6  1  0.92247850  0.50144100  0.31278950  1
  Mo  Mo1_7  1  0.92247850  0.50144100  0.81278950  1
  Mo  Mo2_0  1  0.32752150  0.00144100  0.06278950  1
  Mo  Mo2_1  1  0.32752150  0.00144100  0.56278950  1
  Mo  Mo2_2  1  0.32752150  0.50144100  0.06278950  1
  Mo  Mo2_3  1  0.32752150  0.50144100  0.56278950  1
  Mo  Mo2_4  1  0.82752150  0.00144100  0.06278950  1
  Mo  Mo2_5  1  0.82752150  0.00144100  0.56278950  1
  Mo  Mo2_6  1  0.82752150  0.50144100  0.06278950  1
  Mo  Mo2_7  1  0.82752150  0.50144100  0.56278950  1
  Mo  Mo3_0  1  0.07752150  0.49855900  0.18721050  1
  Mo  Mo3_1  1  0.07752150  0.49855900  0.68721050  1
  Mo  Mo3_2  1  0.07752150  0.99855900  0.18721050  1
  Mo  Mo3_3  1  0.07752150  0.99855900  0.68721050  1
  Mo  Mo3_4  1  0.57752150  0.49855900  0.18721050  1
  Mo  Mo3_5  1  0.57752150  0.49855900  0.68721050  1
  Mo  Mo3_6  1  0.57752150  0.99855900  0.18721050  1
  Mo  Mo3_7  1  0.57752150  0.99855900  0.68721050  1
loop_
_geom_bond_atom_site_label_1
_geom_bond_atom_site_label_2
_geom_bond_distance
_geom_bond_site_symmetry_2
U0_0 U1_4 2.889706 1_455
U0_0 U1_0 2.889706 1_555
U0_0 U0_4 2.916391 1_455
U0_0 U0_4 2.916391 1_555
U0_0 U2_0 2.957140 1_555
U0_1 U1_1 2.889706 1_555
U0_1 U1_5 2.889706 1_455
U0_1 U0_5 2.916391 1_455
U0_1 U0_5 2.916391 1_555
U0_1 U2_1 2.957140 1_555
U0_2 U1_6 2.889706 1_455
U0_2 U1_2 2.889706 1_555
U0_2 U0_6 2.916391 1_555
U0_2 U0_6 2.916391 1_455
U0_2 U2_2 2.957140 1_555
U0_3 U1_7 2.889706 1_455
U0_3 U1_3 2.889706 1_555
U0_3 U0_7 2.916391 1_455
U0_3 U0_7 2.916391 1_555
U0_3 U2_3 2.957140 1_555
U0_4 U1_4 2.889706 1_555
U0_4 U1_0 2.889706 1_555
U0_4 U2_4 2.957140 1_555
U0_5 U1_1 2.889706 1_555
U0_5 U1_5 2.889706 1_555
U0_5 U2_5 2.957140 1_555
U0_6 U1_2 2.889706 1_555
U0_6 U1_6 2.889706 1_555
U0_6 U2_6 2.957140 1_555
U0_7 U1_3 2.889706 1_555
U0_7 U1_7 2.889706 1_555
U0_7 U2_7 2.957140 1_555
U1_0 U1_4 2.916391 1_555
U1_0 U1_4 2.916391 1_455
U1_0 U3_5 2.957140 1_554
U1_1 U1_5 2.916391 1_555
U1_1 U1_5 2.916391 1_455
U1_1 U3_4 2.957140 1_555
U1_2 U1_6 2.916391 1_555
U1_2 U1_6 2.916391 1_455
U1_2 U3_7 2.957140 1_554
U1_3 U1_7 2.916391 1_555
U1_3 U1_7 2.916391 1_455
U1_3 U3_6 2.957140 1_555
U1_4 U3_1 2.957140 1_654
U1_5 U3_0 2.957140 1_655
U1_6 U3_3 2.957140 1_654
U1_7 U3_2 2.957140 1_655
U2_0 U3_4 2.889706 1_555
U2_0 U3_0 2.889706 1_555
U2_0 U2_4 2.916391 1_455
U2_0 U2_4 2.916391 1_555
U2_1 U3_5 2.889706 1_555
U2_1 U3_1 2.889706 1_555
U2_1 U2_5 2.916391 1_455
U2_1 U2_5 2.916391 1_555
U2_2 U3_6 2.889706 1_555
U2_2 U3_2 2.889706 1_555
U2_2 U2_6 2.916391 1_455
U2_2 U2_6 2.916391 1_555
U2_3 U3_7 2.889706 1_555
U2_3 U3_3 2.889706 1_555
U2_3 U2_7 2.916391 1_455
U2_3 U2_7 2.916391 1_555
U2_4 U3_0 2.889706 1_655
U2_4 U3_4 2.889706 1_555
U2_5 U3_1 2.889706 1_655
U2_5 U3_5 2.889706 1_555
U2_6 U3_2 2.889706 1_655
U2_6 U3_6 2.889706 1_555
U2_7 U3_3 2.889706 1_655
U2_7 U3_7 2.889706 1_555
U3_0 U3_4 2.916391 1_455
U3_0 U3_4 2.916391 1_555
U3_1 U3_5 2.916391 1_455
U3_1 U3_5 2.916391 1_555
U3_2 U3_6 2.916391 1_455
U3_2 U3_6 2.916391 1_555
U3_3 U3_7 2.916391 1_455
U3_3 U3_7 2.916391 1_555
Mo0_0 U3_2 2.630808 1_555
Mo0_0 U3_0 2.666098 1_555
Mo0_0 Mo2_3 2.767802 1_555
Mo0_0 Mo0_4 2.916391 1_555
Mo0_0 Mo0_4 2.916391 1_455
Mo0_0 Mo1_6 2.955143 1_455
Mo0_0 Mo1_2 2.955143 1_555
Mo0_1 U3_3 2.630808 1_555
Mo0_1 U3_1 2.666098 1_555
Mo0_1 Mo2_2 2.767802 1_556
Mo0_1 Mo0_5 2.916391 1_555
Mo0_1 Mo0_5 2.916391 1_455
Mo0_1 Mo1_7 2.955143 1_455
Mo0_1 Mo1_3 2.955143 1_555
Mo0_2 U3_0 2.630808 1_565
Mo0_2 U3_2 2.666098 1_555
Mo0_2 Mo2_1 2.767802 1_565
Mo0_2 Mo0_6 2.916391 1_555
Mo0_2 Mo0_6 2.916391 1_455
Mo0_2 Mo1_4 2.955143 1_465
Mo0_2 Mo1_0 2.955143 1_565
Mo0_3 U3_1 2.630808 1_565
Mo0_3 U3_3 2.666098 1_555
Mo0_3 Mo2_0 2.767802 1_566
Mo0_3 Mo0_7 2.916391 1_455
Mo0_3 Mo0_7 2.916391 1_555
Mo0_3 Mo1_5 2.955143 1_465
Mo0_3 Mo1_1 2.955143 1_565
Mo0_4 U3_6 2.630808 1_555
Mo0_4 U3_4 2.666098 1_555
Mo0_4 Mo2_7 2.767802 1_555
Mo0_4 Mo1_2 2.955143 1_555
Mo0_4 Mo1_6 2.955143 1_555
Mo0_5 U3_7 2.630808 1_555
Mo0_5 U3_5 2.666098 1_555
Mo0_5 Mo2_6 2.767802 1_556
Mo0_5 Mo1_3 2.955143 1_555
Mo0_5 Mo1_7 2.955143 1_555
Mo0_6 U3_4 2.630808 1_565
Mo0_6 U3_6 2.666098 1_555
Mo0_6 Mo2_5 2.767802 1_565
Mo0_6 Mo1_0 2.955143 1_565
Mo0_6 Mo1_4 2.955143 1_565
Mo0_7 U3_5 2.630808 1_565
Mo0_7 U3_7 2.666098 1_555
Mo0_7 Mo2_4 2.767802 1_566
Mo0_7 Mo1_1 2.955143 1_565
Mo0_7 Mo1_5 2.955143 1_565
Mo1_0 U2_2 2.630808 1_545
Mo1_0 U2_0 2.666098 1_555
Mo1_0 Mo3_6 2.767802 1_545
Mo1_0 Mo1_4 2.916391 1_555
Mo1_0 Mo1_4 2.916391 1_455
Mo1_1 U2_3 2.630808 1_545
Mo1_1 U2_1 2.666098 1_555
Mo1_1 Mo3_7 2.767802 1_545
Mo1_1 Mo1_5 2.916391 1_555
Mo1_1 Mo1_5 2.916391 1_455
Mo1_2 U2_0 2.630808 1_555
Mo1_2 U2_2 2.666098 1_555
Mo1_2 Mo3_4 2.767802 1_555
Mo1_2 Mo1_6 2.916391 1_555
Mo1_2 Mo1_6 2.916391 1_455
Mo1_3 U2_1 2.630808 1_555
Mo1_3 U2_3 2.666098 1_555
Mo1_3 Mo3_5 2.767802 1_555
Mo1_3 Mo1_7 2.916391 1_555
Mo1_3 Mo1_7 2.916391 1_455
Mo1_4 U2_6 2.630808 1_545
Mo1_4 U2_4 2.666098 1_555
Mo1_4 Mo3_2 2.767802 1_645
Mo1_5 U2_7 2.630808 1_545
Mo1_5 U2_5 2.666098 1_555
Mo1_5 Mo3_3 2.767802 1_645
Mo1_6 U2_4 2.630808 1_555
Mo1_6 U2_6 2.666098 1_555
Mo1_6 Mo3_0 2.767802 1_655
Mo1_7 U2_5 2.630808 1_555
Mo1_7 U2_7 2.666098 1_555
Mo1_7 Mo3_1 2.767802 1_655
Mo2_0 U1_2 2.630808 1_545
Mo2_0 U1_0 2.666098 1_555
Mo2_0 Mo2_4 2.916391 1_455
Mo2_0 Mo2_4 2.916391 1_555
Mo2_0 Mo3_2 2.955143 1_545
Mo2_0 Mo3_6 2.955143 1_545
Mo2_1 U1_3 2.630808 1_545
Mo2_1 U1_1 2.666098 1_555
Mo2_1 Mo2_5 2.916391 1_455
Mo2_1 Mo2_5 2.916391 1_555
Mo2_1 Mo3_3 2.955143 1_545
Mo2_1 Mo3_7 2.955143 1_545
Mo2_2 U1_0 2.630808 1_555
Mo2_2 U1_2 2.666098 1_555
Mo2_2 Mo2_6 2.916391 1_455
Mo2_2 Mo2_6 2.916391 1_555
Mo2_2 Mo3_0 2.955143 1_555
Mo2_2 Mo3_4 2.955143 1_555
Mo2_3 U1_1 2.630808 1_555
Mo2_3 U1_3 2.666098 1_555
Mo2_3 Mo2_7 2.916391 1_455
Mo2_3 Mo2_7 2.916391 1_555
Mo2_3 Mo3_1 2.955143 1_555
Mo2_3 Mo3_5 2.955143 1_555
Mo2_4 U1_6 2.630808 1_545
Mo2_4 U1_4 2.666098 1_555
Mo2_4 Mo3_6 2.955143 1_545
Mo2_4 Mo3_2 2.955143 1_645
Mo2_5 U1_7 2.630808 1_545
Mo2_5 U1_5 2.666098 1_555
Mo2_5 Mo3_7 2.955143 1_545
Mo2_5 Mo3_3 2.955143 1_645
Mo2_6 U1_4 2.630808 1_555
Mo2_6 U1_6 2.666098 1_555
Mo2_6 Mo3_4 2.955143 1_555
Mo2_6 Mo3_0 2.955143 1_655
Mo2_7 U1_5 2.630808 1_555
Mo2_7 U1_7 2.666098 1_555
Mo2_7 Mo3_5 2.955143 1_555
Mo2_7 Mo3_1 2.955143 1_655
Mo3_0 U0_2 2.630808 1_555
Mo3_0 U0_0 2.666098 1_555
Mo3_0 Mo3_4 2.916391 1_555
Mo3_0 Mo3_4 2.916391 1_455
Mo3_1 U0_3 2.630808 1_555
Mo3_1 U0_1 2.666098 1_555
Mo3_1 Mo3_5 2.916391 1_455
Mo3_1 Mo3_5 2.916391 1_555
Mo3_2 U0_0 2.630808 1_565
Mo3_2 U0_2 2.666098 1_555
Mo3_2 Mo3_6 2.916391 1_455
Mo3_2 Mo3_6 2.916391 1_555
Mo3_3 U0_1 2.630808 1_565
Mo3_3 U0_3 2.666098 1_555
Mo3_3 Mo3_7 2.916391 1_455
Mo3_3 Mo3_7 2.916391 1_555
Mo3_4 U0_6 2.630808 1_555
Mo3_4 U0_4 2.666098 1_555
Mo3_5 U0_7 2.630808 1_555
Mo3_5 U0_5 2.666098 1_555
Mo3_6 U0_4 2.630808 1_565
Mo3_6 U0_6 2.666098 1_555
Mo3_7 U0_5 2.630808 1_565
Mo3_7 U0_7 2.666098 1_555
