# generated using pymatgen
data_KCdSb
_symmetry_space_group_name_H-M   'P 1'
_cell_length_a   4.84469709
_cell_length_b   4.84469709
_cell_length_c   8.28153598
_cell_angle_alpha   90.00000000
_cell_angle_beta   90.00000000
_cell_angle_gamma   90.00000000
_symmetry_Int_Tables_number   1
_chemical_formula_structural   KCdSb
_chemical_formula_sum   'K2 Cd2 Sb2'
_cell_volume   194.37667545
_cell_formula_units_Z   2
loop_
 _symmetry_equiv_pos_site_id
 _symmetry_equiv_pos_as_xyz
  1  'x, y, z'
loop_
 _atom_site_type_symbol
 _atom_site_label
 _atom_site_symmetry_multiplicity
 _atom_site_fract_x
 _atom_site_fract_y
 _atom_site_fract_z
 _atom_site_occupancy
  K  K0  1  0.75000000  0.75000000  0.33964808  1
  K  K1  1  0.25000000  0.25000000  0.66035192  1
  Cd  Cd0  1  0.75000000  0.25000000  -0.00000000  1
  Cd  Cd1  1  0.25000000  0.75000000  -0.00000000  1
  Sb  Sb0  1  0.75000000  0.75000000  0.79036102  1
  Sb  Sb1  1  0.25000000  0.25000000  0.20963898  1
loop_
_geom_bond_atom_site_label_1
_geom_bond_atom_site_label_2
_geom_bond_distance
_geom_bond_site_symmetry_2
K0 Sb1 3.590929 1_665
K0 Sb1 3.590929 1_565
K0 Sb1 3.590929 1_655
K0 Sb1 3.590929 1_555
K0 Sb0 3.732595 1_555
K1 Sb0 3.590929 1_555
K1 Sb0 3.590929 1_545
K1 Sb0 3.590929 1_445
K1 Sb0 3.590929 1_455
K1 Sb1 3.732595 1_555
Cd0 Sb1 2.980257 1_555
Cd0 Sb0 2.980257 1_554
Cd0 Sb0 2.980257 1_544
Cd0 Sb1 2.980257 1_655
Cd0 K0 3.712096 1_555
Cd0 K1 3.712096 1_654
Cd0 K1 3.712096 1_554
Cd0 K0 3.712096 1_545
Cd1 Sb1 2.980257 1_565
Cd1 Sb1 2.980257 1_555
Cd1 Sb0 2.980257 1_554
Cd1 Sb0 2.980257 1_454
Cd1 K1 3.712096 1_564
Cd1 K0 3.712096 1_455
Cd1 K1 3.712096 1_554
Cd1 K0 3.712096 1_555
