# generated using pymatgen
data_Ce2In8Co
_symmetry_space_group_name_H-M   'P 1'
_cell_length_a   4.65648196
_cell_length_b   4.65648301
_cell_length_c   12.22140719
_cell_angle_alpha   90.00000000
_cell_angle_beta   90.00000000
_cell_angle_gamma   90.00000000
_symmetry_Int_Tables_number   1
_chemical_formula_structural   Ce2In8Co
_chemical_formula_sum   'Ce2 In8 Co1'
_cell_volume   264.99468387
_cell_formula_units_Z   1
loop_
 _symmetry_equiv_pos_site_id
 _symmetry_equiv_pos_as_xyz
  1  'x, y, z'
loop_
 _atom_site_type_symbol
 _atom_site_label
 _atom_site_symmetry_multiplicity
 _atom_site_fract_x
 _atom_site_fract_y
 _atom_site_fract_z
 _atom_site_occupancy
  Ce  Ce0  1  -0.00000000  0.00000000  0.69482469  1
  Ce  Ce1  1  0.00000000  -0.00000000  0.30517531  1
  In  In0  1  0.50000000  -0.00000000  0.50000000  1
  In  In1  1  0.50000000  -0.00000000  0.88334403  1
  In  In2  1  0.00000000  0.50000000  0.50000000  1
  In  In3  1  0.00000000  0.50000000  0.88334403  1
  In  In4  1  0.50000000  0.50000000  0.30618449  1
  In  In5  1  0.50000000  0.50000000  0.69381551  1
  In  In6  1  -0.00000000  0.50000000  0.11665597  1
  In  In7  1  0.50000000  0.00000000  0.11665597  1
  Co  Co0  1  0.00000000  -0.00000000  0.00000000  1
loop_
_geom_bond_atom_site_label_1
_geom_bond_atom_site_label_2
_geom_bond_distance
_geom_bond_site_symmetry_2
Ce0 In1 3.275514 1_555
Ce0 In1 3.275514 1_455
Ce0 In3 3.275514 1_555
Ce0 In3 3.275514 1_545
Ce0 In5 3.292653 1_545
Ce0 In5 3.292653 1_445
Ce0 In5 3.292653 1_455
Ce0 In5 3.292653 1_555
Ce0 In0 3.330168 1_455
Ce0 In0 3.330168 1_555
Ce0 In2 3.330168 1_545
Ce0 In2 3.330168 1_555
Ce1 In7 3.275514 1_555
Ce1 In7 3.275514 1_455
Ce1 In6 3.275514 1_555
Ce1 In6 3.275514 1_545
Ce1 In4 3.292653 1_455
Ce1 In4 3.292653 1_445
Ce1 In4 3.292653 1_555
Ce1 In4 3.292653 1_545
Ce1 In0 3.330168 1_455
Ce1 In0 3.330168 1_555
Ce1 In2 3.330168 1_555
Ce1 In2 3.330168 1_545
In0 In2 3.292630 1_555
In0 In2 3.292630 1_645
In0 In2 3.292630 1_545
In0 In2 3.292630 1_655
In0 In5 3.321361 1_555
In0 In5 3.321361 1_545
In0 In4 3.321361 1_545
In0 In4 3.321361 1_555
In1 In7 2.851400 1_556
In1 In5 3.284201 1_555
In1 In5 3.284201 1_545
In1 In3 3.292630 1_545
In1 In3 3.292630 1_645
In1 In3 3.292630 1_555
In1 In3 3.292630 1_655
In2 In5 3.321361 1_455
In2 In5 3.321361 1_555
In2 In4 3.321361 1_455
In2 In4 3.321361 1_555
In3 In6 2.851400 1_556
In3 In5 3.284201 1_455
In3 In5 3.284201 1_555
In4 In6 3.284201 1_555
In4 In6 3.284201 1_655
In4 In7 3.284201 1_555
In4 In7 3.284201 1_565
In6 In7 3.292630 1_455
In6 In7 3.292630 1_555
In6 In7 3.292630 1_565
In6 In7 3.292630 1_465
Co0 In7 2.730078 1_455
Co0 In1 2.730078 1_454
Co0 In7 2.730078 1_555
Co0 In1 2.730078 1_554
Co0 In6 2.730079 1_555
Co0 In6 2.730079 1_545
Co0 In3 2.730079 1_544
Co0 In3 2.730079 1_554
