# generated using pymatgen
data_MgV5(MoO5)5
_symmetry_space_group_name_H-M   'P 1'
_cell_length_a   19.18692206
_cell_length_b   5.48134565
_cell_length_c   6.62395775
_cell_angle_alpha   103.95290087
_cell_angle_beta   109.72267787
_cell_angle_gamma   45.80975923
_symmetry_Int_Tables_number   1
_chemical_formula_structural   MgV5(MoO5)5
_chemical_formula_sum   'Mg1 V5 Mo5 O25'
_cell_volume   470.19236657
_cell_formula_units_Z   1
loop_
 _symmetry_equiv_pos_site_id
 _symmetry_equiv_pos_as_xyz
  1  'x, y, z'
loop_
 _atom_site_type_symbol
 _atom_site_label
 _atom_site_symmetry_multiplicity
 _atom_site_fract_x
 _atom_site_fract_y
 _atom_site_fract_z
 _atom_site_occupancy
  Mg  Mg0  1  0.83727800  0.58911800  0.25300900  1
  V  V0  1  0.03263000  0.12391500  0.60228200  1
  V  V1  1  0.22161400  0.17159500  0.61147700  1
  V  V2  1  0.40647600  0.97243900  0.99284400  1
  V  V3  1  0.60268600  0.98643900  0.99272900  1
  V  V4  1  0.78397200  0.04514300  0.98392200  1
  Mo  Mo0  1  0.99719100  0.01818200  0.99334600  1
  Mo  Mo1  1  0.20427500  0.00317700  0.00967800  1
  Mo  Mo2  1  0.42332800  0.14038900  0.59360900  1
  Mo  Mo3  1  0.62205800  0.13553800  0.58433200  1
  Mo  Mo4  1  0.83148900  0.10950800  0.58914000  1
  O  O0  1  0.98992700  0.13042700  0.27461700  1
  O  O1  1  0.07528100  0.09949700  0.94505200  1
  O  O2  1  0.14405800  0.10196200  0.67569000  1
  O  O3  1  0.09332300  0.57830200  0.01650800  1
  O  O4  1  0.21577100  0.07186400  0.29535200  1
  O  O5  1  0.13802100  0.59754500  0.59361000  1
  O  O6  1  0.27617900  0.08327900  0.93807100  1
  O  O7  1  0.34800600  0.08119100  0.67071500  1
  O  O8  1  0.29099900  0.56020700  0.00053000  1
  O  O9  1  0.41227200  0.07489200  0.30812200  1
  O  O10  1  0.34076200  0.58375400  0.60650300  1
  O  O11  1  0.48890500  0.02653700  0.92668300  1
  O  O12  1  0.55565700  0.01966800  0.66468500  1
  O  O13  1  0.48623100  0.54984700  0.00063900  1
  O  O14  1  0.60795300  0.07070400  0.29906100  1
  O  O15  1  0.52200900  0.57658500  0.58193400  1
  O  O16  1  0.66564200  0.11375100  0.91795200  1
  O  O17  1  0.72783900  0.13567300  0.66082000  1
  O  O18  1  0.72015900  0.57242200  0.05276600  1
  O  O19  1  0.78516900  0.06822500  0.27646500  1
  O  O20  1  0.74540100  0.56915800  0.58781500  1
  O  O21  1  0.88410100  0.04962500  0.92292100  1
  O  O22  1  0.95366400  0.04415500  0.66020600  1
  O  O23  1  0.87174300  0.60177200  0.98427900  1
  O  O24  1  0.91242700  0.60494500  0.56431000  1
loop_
_geom_bond_atom_site_label_1
_geom_bond_atom_site_label_2
_geom_bond_distance
_geom_bond_site_symmetry_2
Mg0 O19 2.041597 1_565
Mg0 O24 2.102368 1_555
Mg0 O23 2.128064 1_554
Mg0 O0 2.131872 1_555
Mg0 O18 2.243622 1_555
Mo0 O3 1.739744 1_646
Mo0 O0 1.836334 1_556
Mo0 O21 1.946742 1_555
Mo0 O1 1.967022 1_655
Mo0 O22 2.080669 1_555
Mo0 O23 2.300226 1_555
Mo1 O8 1.741454 1_545
Mo1 O4 1.806007 1_555
Mo1 O6 1.925528 1_554
Mo1 O1 2.039571 1_554
Mo1 O2 2.121986 1_554
Mo1 O3 2.261063 1_555
Mo2 O10 1.745582 1_555
Mo2 O9 1.804990 1_555
Mo2 O7 1.920055 1_555
Mo2 O12 2.026632 1_555
Mo2 O11 2.129771 1_555
Mo2 O15 2.228858 1_545
Mo3 O15 1.748714 1_555
Mo3 O14 1.798690 1_555
Mo3 O17 1.919347 1_555
Mo3 O12 2.014592 1_555
Mo3 O16 2.082768 1_555
Mo3 O20 2.234837 1_545
Mo4 O20 1.809836 1_555
Mo4 O19 1.985622 1_555
Mo4 O22 2.002722 1_555
Mo4 O24 2.013252 1_545
Mo4 O21 2.096842 1_555
Mo4 O17 2.099496 1_555
O0 V0 2.044439 1_655
O1 V0 2.140687 1_555
O2 V0 1.946717 1_555
O2 V1 1.959133 1_555
O4 V1 2.017720 1_555
O5 V1 1.679979 1_555
O5 V0 2.069242 1_565
O6 V2 2.031602 1_545
O6 V1 2.068895 1_555
O7 V1 2.014134 1_555
O7 V2 2.057264 1_545
O8 V2 2.310211 1_544
O9 V2 2.013415 1_544
O10 V1 2.310888 1_565
O11 V3 1.933518 1_545
O11 V2 1.991380 1_545
O12 V3 2.051213 1_545
O13 V2 1.665156 1_554
O13 V3 2.216706 1_544
O14 V3 1.953360 1_544
O16 V4 1.925198 1_555
O16 V3 1.984206 1_545
O17 V4 2.048918 1_555
O18 V3 1.757243 1_554
O18 V4 2.206424 1_554
O19 V4 1.904562 1_554
O21 V4 2.109333 1_555
O22 V0 2.007639 1_655
O23 V4 1.742629 1_565
O24 V0 1.945587 1_655
