# generated using pymatgen
data_Eu3Sn13Rh4
_symmetry_space_group_name_H-M   'P 1'
_cell_length_a   9.86956200
_cell_length_b   9.86956200
_cell_length_c   9.86956200
_cell_angle_alpha   90.00000000
_cell_angle_beta   90.00000000
_cell_angle_gamma   90.00000000
_symmetry_Int_Tables_number   1
_chemical_formula_structural   Eu3Sn13Rh4
_chemical_formula_sum   'Eu6 Sn26 Rh8'
_cell_volume   961.37680287
_cell_formula_units_Z   2
loop_
 _symmetry_equiv_pos_site_id
 _symmetry_equiv_pos_as_xyz
  1  'x, y, z'
loop_
 _atom_site_type_symbol
 _atom_site_label
 _atom_site_symmetry_multiplicity
 _atom_site_fract_x
 _atom_site_fract_y
 _atom_site_fract_z
 _atom_site_occupancy
  Eu  Eu0  1  0.50000000  0.00000000  0.75000000  1
  Eu  Eu1  1  0.00000000  0.25000000  0.50000000  1
  Eu  Eu2  1  0.75000000  0.50000000  0.00000000  1
  Eu  Eu3  1  0.50000000  0.00000000  0.25000000  1
  Eu  Eu4  1  0.00000000  0.75000000  0.50000000  1
  Eu  Eu5  1  0.25000000  0.50000000  0.00000000  1
  Sn  Sn0  1  0.50000000  0.50000000  0.50000000  1
  Sn  Sn1  1  0.00000000  0.00000000  0.00000000  1
  Sn  Sn2  1  0.65357700  0.19730600  0.50000000  1
  Sn  Sn3  1  0.80269400  0.50000000  0.65357700  1
  Sn  Sn4  1  0.50000000  0.34642300  0.80269400  1
  Sn  Sn5  1  0.34642300  0.80269400  0.50000000  1
  Sn  Sn6  1  0.19730600  0.50000000  0.34642300  1
  Sn  Sn7  1  0.50000000  0.65357700  0.19730600  1
  Sn  Sn8  1  0.65357700  0.80269400  0.50000000  1
  Sn  Sn9  1  0.80269400  0.50000000  0.34642300  1
  Sn  Sn10  1  0.34642300  0.19730600  0.50000000  1
  Sn  Sn11  1  0.19730600  0.50000000  0.65357700  1
  Sn  Sn12  1  0.50000000  0.65357700  0.80269400  1
  Sn  Sn13  1  0.50000000  0.34642300  0.19730600  1
  Sn  Sn14  1  0.15357700  0.00000000  0.69730600  1
  Sn  Sn15  1  0.30269400  0.15357700  0.00000000  1
  Sn  Sn16  1  0.00000000  0.30269400  0.84642300  1
  Sn  Sn17  1  0.84642300  0.00000000  0.30269400  1
  Sn  Sn18  1  0.69730600  0.84642300  0.00000000  1
  Sn  Sn19  1  0.00000000  0.69730600  0.15357700  1
  Sn  Sn20  1  0.15357700  0.00000000  0.30269400  1
  Sn  Sn21  1  0.30269400  0.84642300  0.00000000  1
  Sn  Sn22  1  0.84642300  0.00000000  0.69730600  1
  Sn  Sn23  1  0.69730600  0.15357700  0.00000000  1
  Sn  Sn24  1  0.00000000  0.30269400  0.15357700  1
  Sn  Sn25  1  0.00000000  0.69730600  0.84642300  1
  Rh  Rh0  1  0.75000000  0.25000000  0.75000000  1
  Rh  Rh1  1  0.25000000  0.75000000  0.25000000  1
  Rh  Rh2  1  0.75000000  0.75000000  0.25000000  1
  Rh  Rh3  1  0.25000000  0.25000000  0.75000000  1
  Rh  Rh4  1  0.25000000  0.75000000  0.75000000  1
  Rh  Rh5  1  0.75000000  0.25000000  0.25000000  1
  Rh  Rh6  1  0.25000000  0.25000000  0.25000000  1
  Rh  Rh7  1  0.75000000  0.75000000  0.75000000  1
loop_
_geom_bond_atom_site_label_1
_geom_bond_atom_site_label_2
_geom_bond_distance
_geom_bond_site_symmetry_2
Eu0 Sn22 3.458370 1_555
Eu0 Sn4 3.458370 1_555
Eu0 Sn14 3.458370 1_555
Eu0 Sn12 3.458370 1_545
Eu0 Rh7 3.489417 1_545
Eu0 Rh0 3.489417 1_555
Eu0 Rh4 3.489417 1_545
Eu0 Rh3 3.489417 1_555
Eu0 Sn10 3.489634 1_555
Eu0 Sn2 3.489634 1_555
Eu0 Sn23 3.489634 1_556
Eu0 Sn5 3.489634 1_545
Eu0 Sn8 3.489634 1_545
Eu0 Sn18 3.489634 1_546
Eu0 Sn15 3.489634 1_556
Eu0 Sn21 3.489634 1_546
Eu1 Sn16 3.458370 1_555
Eu1 Sn24 3.458370 1_555
Eu1 Sn10 3.458370 1_555
Eu1 Sn2 3.458370 1_455
Eu1 Rh0 3.489417 1_455
Eu1 Rh6 3.489417 1_555
Eu1 Rh3 3.489417 1_555
Eu1 Rh5 3.489417 1_455
Eu1 Sn6 3.489634 1_555
Eu1 Sn11 3.489634 1_555
Eu1 Sn9 3.489634 1_455
Eu1 Sn3 3.489634 1_455
Eu1 Sn14 3.489634 1_555
Eu1 Sn22 3.489634 1_455
Eu1 Sn20 3.489634 1_555
Eu1 Sn17 3.489634 1_455
Eu2 Sn18 3.458370 1_555
Eu2 Sn9 3.458370 1_555
Eu2 Sn3 3.458370 1_554
Eu2 Sn23 3.458370 1_555
Eu2 Rh2 3.489417 1_555
Eu2 Rh0 3.489417 1_554
Eu2 Rh7 3.489417 1_554
Eu2 Rh5 3.489417 1_555
Eu2 Sn13 3.489634 1_555
Eu2 Sn7 3.489634 1_555
Eu2 Sn4 3.489634 1_554
Eu2 Sn12 3.489634 1_554
Eu2 Sn19 3.489634 1_655
Eu2 Sn25 3.489634 1_654
Eu2 Sn24 3.489634 1_655
Eu2 Sn16 3.489634 1_654
Eu3 Sn17 3.458370 1_555
Eu3 Sn20 3.458370 1_555
Eu3 Sn13 3.458370 1_555
Eu3 Sn7 3.458370 1_545
Eu3 Rh1 3.489417 1_545
Eu3 Rh6 3.489417 1_555
Eu3 Rh2 3.489417 1_545
Eu3 Rh5 3.489417 1_555
Eu3 Sn10 3.489634 1_555
Eu3 Sn2 3.489634 1_555
Eu3 Sn23 3.489634 1_555
Eu3 Sn5 3.489634 1_545
Eu3 Sn8 3.489634 1_545
Eu3 Sn18 3.489634 1_545
Eu3 Sn15 3.489634 1_555
Eu3 Sn21 3.489634 1_545
Eu4 Sn25 3.458370 1_555
Eu4 Sn5 3.458370 1_555
Eu4 Sn8 3.458370 1_455
Eu4 Sn19 3.458370 1_555
Eu4 Rh7 3.489417 1_455
Eu4 Rh4 3.489417 1_555
Eu4 Rh1 3.489417 1_555
Eu4 Rh2 3.489417 1_455
Eu4 Sn6 3.489634 1_555
Eu4 Sn11 3.489634 1_555
Eu4 Sn3 3.489634 1_455
Eu4 Sn9 3.489634 1_455
Eu4 Sn14 3.489634 1_565
Eu4 Sn22 3.489634 1_465
Eu4 Sn20 3.489634 1_565
Eu4 Sn17 3.489634 1_465
Eu5 Sn21 3.458370 1_555
Eu5 Sn15 3.458370 1_555
Eu5 Sn6 3.458370 1_555
Eu5 Sn11 3.458370 1_554
Eu5 Rh6 3.489417 1_555
Eu5 Rh3 3.489417 1_554
Eu5 Rh4 3.489417 1_554
Eu5 Rh1 3.489417 1_555
Eu5 Sn13 3.489634 1_555
Eu5 Sn7 3.489634 1_555
Eu5 Sn19 3.489634 1_555
Eu5 Sn4 3.489634 1_554
Eu5 Sn12 3.489634 1_554
Eu5 Sn25 3.489634 1_554
Eu5 Sn24 3.489634 1_555
Eu5 Sn16 3.489634 1_554
Sn0 Sn3 3.349979 1_555
Sn0 Sn8 3.349979 1_555
Sn0 Sn12 3.349979 1_555
Sn0 Sn4 3.349979 1_555
Sn0 Sn5 3.349979 1_555
Sn0 Sn9 3.349979 1_555
Sn0 Sn11 3.349979 1_555
Sn0 Sn2 3.349979 1_555
Sn0 Sn6 3.349979 1_555
Sn0 Sn13 3.349979 1_555
Sn0 Sn10 3.349979 1_555
Sn0 Sn7 3.349979 1_555
Sn1 Sn15 3.349979 1_555
Sn1 Sn24 3.349979 1_555
Sn1 Sn20 3.349979 1_555
Sn1 Sn16 3.349979 1_554
Sn1 Sn21 3.349979 1_545
Sn1 Sn17 3.349979 1_455
Sn1 Sn19 3.349979 1_545
Sn1 Sn23 3.349979 1_455
Sn1 Sn14 3.349979 1_554
Sn1 Sn25 3.349979 1_544
Sn1 Sn22 3.349979 1_454
Sn1 Sn18 3.349979 1_445
Sn2 Sn22 3.347643 1_555
Sn3 Sn9 3.031475 1_555
Sn5 Sn8 3.031475 1_555
Sn10 Sn2 3.031475 1_555
Sn10 Sn14 3.347643 1_555
Sn10 Sn20 3.347643 1_555
Sn11 Sn6 3.031475 1_555
Sn11 Sn25 3.347643 1_555
Sn11 Sn16 3.347643 1_555
Sn12 Sn4 3.031475 1_555
Sn12 Sn18 3.347643 1_556
Sn12 Sn21 3.347643 1_556
Sn13 Sn7 3.031475 1_555
Sn13 Sn23 3.347643 1_555
Sn13 Sn15 3.347643 1_555
Sn14 Sn22 3.031475 1_455
Sn14 Sn5 3.347643 1_545
Sn15 Sn21 3.031475 1_545
Sn15 Sn4 3.347643 1_554
Sn16 Sn24 3.031475 1_556
Sn16 Sn3 3.347643 1_455
Sn17 Sn20 3.031475 1_655
Sn17 Sn2 3.347643 1_555
Sn17 Sn8 3.347643 1_545
Sn18 Sn23 3.031475 1_565
Sn18 Sn7 3.347643 1_555
Sn19 Sn25 3.031475 1_554
Sn19 Sn6 3.347643 1_555
Sn19 Sn9 3.347643 1_455
Sn20 Sn5 3.347643 1_545
Sn21 Sn7 3.347643 1_555
Sn22 Sn8 3.347643 1_545
Sn23 Sn4 3.347643 1_554
Sn24 Sn6 3.347643 1_555
Sn24 Sn9 3.347643 1_455
Sn25 Sn3 3.347643 1_455
Rh0 Sn16 2.695205 1_655
Rh0 Sn22 2.695205 1_555
Rh0 Sn4 2.695205 1_555
Rh0 Sn3 2.695205 1_555
Rh0 Sn23 2.695205 1_556
Rh0 Sn2 2.695205 1_555
Rh1 Sn21 2.695205 1_555
Rh1 Sn20 2.695205 1_565
Rh1 Sn5 2.695205 1_555
Rh1 Sn19 2.695205 1_555
Rh1 Sn7 2.695205 1_555
Rh1 Sn6 2.695205 1_555
Rh2 Sn17 2.695205 1_565
Rh2 Sn18 2.695205 1_555
Rh2 Sn9 2.695205 1_555
Rh2 Sn19 2.695205 1_655
Rh2 Sn8 2.695205 1_555
Rh2 Sn7 2.695205 1_555
Rh3 Sn16 2.695205 1_555
Rh3 Sn15 2.695205 1_556
Rh3 Sn4 2.695205 1_555
Rh3 Sn14 2.695205 1_555
Rh3 Sn11 2.695205 1_555
Rh3 Sn10 2.695205 1_555
Rh4 Sn21 2.695205 1_556
Rh4 Sn25 2.695205 1_555
Rh4 Sn5 2.695205 1_555
Rh4 Sn14 2.695205 1_565
Rh4 Sn12 2.695205 1_555
Rh4 Sn11 2.695205 1_555
Rh5 Sn17 2.695205 1_555
Rh5 Sn24 2.695205 1_655
Rh5 Sn9 2.695205 1_555
Rh5 Sn23 2.695205 1_555
Rh5 Sn2 2.695205 1_555
Rh5 Sn13 2.695205 1_555
Rh6 Sn20 2.695205 1_555
Rh6 Sn15 2.695205 1_555
Rh6 Sn24 2.695205 1_555
Rh6 Sn6 2.695205 1_555
Rh6 Sn10 2.695205 1_555
Rh6 Sn13 2.695205 1_555
Rh7 Sn25 2.695205 1_655
Rh7 Sn22 2.695205 1_565
Rh7 Sn18 2.695205 1_556
Rh7 Sn3 2.695205 1_555
Rh7 Sn8 2.695205 1_555
Rh7 Sn12 2.695205 1_555
