# generated using pymatgen
data_CoPtBr4N5Cl
_symmetry_space_group_name_H-M   'P 1'
_cell_length_a   9.28628800
_cell_length_b   9.32296000
_cell_length_c   18.32274400
_cell_angle_alpha   90.00000000
_cell_angle_beta   90.00000000
_cell_angle_gamma   90.00000000
_symmetry_Int_Tables_number   1
_chemical_formula_structural   CoPtBr4N5Cl
_chemical_formula_sum   'Co4 Pt4 Br16 N20 Cl4'
_cell_volume   1586.30423331
_cell_formula_units_Z   4
loop_
 _symmetry_equiv_pos_site_id
 _symmetry_equiv_pos_as_xyz
  1  'x, y, z'
loop_
 _atom_site_type_symbol
 _atom_site_label
 _atom_site_symmetry_multiplicity
 _atom_site_fract_x
 _atom_site_fract_y
 _atom_site_fract_z
 _atom_site_occupancy
  Co  Co0  1  0.68225800  0.75000000  0.69951800  1
  Co  Co1  1  0.31774200  0.25000000  0.30048200  1
  Co  Co2  1  0.18225800  0.25000000  0.80048200  1
  Co  Co3  1  0.81774200  0.75000000  0.19951800  1
  Pt  Pt0  1  0.05256300  0.75000000  0.70636800  1
  Pt  Pt1  1  0.94743700  0.25000000  0.29363200  1
  Pt  Pt2  1  0.55256300  0.25000000  0.79363200  1
  Pt  Pt3  1  0.44743700  0.75000000  0.20636800  1
  Br  Br0  1  0.18491000  0.75000000  0.56628600  1
  Br  Br1  1  0.81509000  0.25000000  0.43371400  1
  Br  Br2  1  0.68491000  0.25000000  0.93371400  1
  Br  Br3  1  0.31509000  0.75000000  0.06628600  1
  Br  Br4  1  0.58306400  0.52036900  0.80295700  1
  Br  Br5  1  0.41693600  0.47963100  0.19704300  1
  Br  Br6  1  0.08306400  0.47963100  0.69704300  1
  Br  Br7  1  0.41693600  0.02036900  0.19704300  1
  Br  Br8  1  0.91693600  0.52036900  0.30295700  1
  Br  Br9  1  0.58306400  0.97963100  0.80295700  1
  Br  Br10  1  0.91693600  0.97963100  0.30295700  1
  Br  Br11  1  0.08306400  0.02036900  0.69704300  1
  Br  Br12  1  0.25791300  0.75000000  0.78816700  1
  Br  Br13  1  0.74208700  0.25000000  0.21183300  1
  Br  Br14  1  0.75791300  0.25000000  0.71183300  1
  Br  Br15  1  0.24208700  0.75000000  0.28816700  1
  N  N0  1  0.58737700  0.59166800  0.70594300  1
  N  N1  1  0.41262300  0.40833200  0.29405700  1
  N  N2  1  0.08737700  0.40833200  0.79405700  1
  N  N3  1  0.41262300  0.09166800  0.29405700  1
  N  N4  1  0.91262300  0.59166800  0.20594300  1
  N  N5  1  0.58737700  0.90833200  0.70594300  1
  N  N6  1  0.91262300  0.90833200  0.20594300  1
  N  N7  1  0.08737700  0.09166800  0.79405700  1
  N  N8  1  0.75532500  0.69024800  0.50284800  1
  N  N9  1  0.24467500  0.30975200  0.49715200  1
  N  N10  1  0.25532500  0.30975200  0.99715200  1
  N  N11  1  0.24467500  0.19024800  0.49715200  1
  N  N12  1  0.74467500  0.69024800  0.00284800  1
  N  N13  1  0.75532500  0.80975200  0.50284800  1
  N  N14  1  0.74467500  0.80975200  0.00284800  1
  N  N15  1  0.25532500  0.19024800  0.99715200  1
  N  N16  1  0.85628000  0.75000000  0.68653700  1
  N  N17  1  0.14372000  0.25000000  0.31346300  1
  N  N18  1  0.35628000  0.25000000  0.81346300  1
  N  N19  1  0.64372000  0.75000000  0.18653700  1
  Cl  Cl0  1  0.15459600  0.75000000  0.97444700  1
  Cl  Cl1  1  0.84540400  0.25000000  0.02555300  1
  Cl  Cl2  1  0.65459600  0.25000000  0.52555300  1
  Cl  Cl3  1  0.34540400  0.75000000  0.47444700  1
loop_
_geom_bond_atom_site_label_1
_geom_bond_atom_site_label_2
_geom_bond_distance
_geom_bond_site_symmetry_2
Co0 N16 1.633428 1_555
Co0 N5 1.723114 1_555
Co0 N0 1.723114 1_555
Co1 N17 1.633428 1_555
Co1 N1 1.723114 1_555
Co1 N3 1.723114 1_555
Co2 N18 1.633428 1_555
Co2 N2 1.723114 1_555
Co2 N7 1.723114 1_555
Co3 N19 1.633428 1_555
Co3 N6 1.723114 1_555
Co3 N4 1.723114 1_555
Br0 Cl3 2.247865 1_555
Br0 Pt0 2.845760 1_555
Br1 Cl2 2.247865 1_555
Br1 Pt1 2.845760 1_555
Br2 Cl1 2.247865 1_556
Br2 Pt2 2.845760 1_555
Br3 Cl0 2.247865 1_554
Br3 Pt3 2.845760 1_555
Br4 N0 1.898205 1_555
Br4 Pt2 2.542251 1_555
Br5 N1 1.898205 1_555
Br5 Pt3 2.542251 1_555
Br6 N2 1.898205 1_555
Br6 Pt0 2.542251 1_555
Br7 N3 1.898205 1_555
Br7 Pt3 2.542251 1_545
Br8 N4 1.898205 1_555
Br8 Pt1 2.542251 1_555
Br9 N5 1.898205 1_555
Br9 Pt2 2.542251 1_565
Br10 N6 1.898205 1_555
Br10 Pt1 2.542251 1_565
Br11 N7 1.898205 1_555
Br11 Pt0 2.542251 1_545
Br12 Pt0 2.425441 1_555
Br13 Pt1 2.425441 1_555
Br14 Pt2 2.425441 1_555
Br15 Pt3 2.425441 1_555
N10 N15 1.114131 1_555
N11 N9 1.114131 1_555
N12 N14 1.114131 1_555
N13 N8 1.114131 1_555
N16 Pt0 1.858605 1_655
N17 Pt1 1.858605 1_455
N18 Pt2 1.858605 1_555
N19 Pt3 1.858605 1_555
