# generated using pymatgen
data_Cd3P2
_symmetry_space_group_name_H-M   'P 1'
_cell_length_a   10.84019240
_cell_length_b   10.84019240
_cell_length_c   10.84019240
_cell_angle_alpha   109.47122063
_cell_angle_beta   109.47122063
_cell_angle_gamma   109.47122063
_symmetry_Int_Tables_number   1
_chemical_formula_structural   Cd3P2
_chemical_formula_sum   'Cd24 P16'
_cell_volume   980.59365906
_cell_formula_units_Z   8
loop_
 _symmetry_equiv_pos_site_id
 _symmetry_equiv_pos_as_xyz
  1  'x, y, z'
loop_
 _atom_site_type_symbol
 _atom_site_label
 _atom_site_symmetry_multiplicity
 _atom_site_fract_x
 _atom_site_fract_y
 _atom_site_fract_z
 _atom_site_occupancy
  Cd  Cd0  1  0.24976700  0.77630900  0.73226000  1
  Cd  Cd1  1  0.95595100  0.72369100  0.97345800  1
  Cd  Cd2  1  0.25023300  0.98249300  0.52654200  1
  Cd  Cd3  1  0.54404900  0.51750700  0.76774000  1
  Cd  Cd4  1  0.77630900  0.73226000  0.24976700  1
  Cd  Cd5  1  0.72369100  0.97345800  0.95595100  1
  Cd  Cd6  1  0.98249300  0.52654200  0.25023300  1
  Cd  Cd7  1  0.51750700  0.76774000  0.54404900  1
  Cd  Cd8  1  0.73226000  0.24976700  0.77630900  1
  Cd  Cd9  1  0.97345800  0.95595100  0.72369100  1
  Cd  Cd10  1  0.52654200  0.25023300  0.98249300  1
  Cd  Cd11  1  0.76774000  0.54404900  0.51750700  1
  Cd  Cd12  1  0.75023300  0.22369100  0.26774000  1
  Cd  Cd13  1  0.04404900  0.27630900  0.02654200  1
  Cd  Cd14  1  0.74976700  0.01750700  0.47345800  1
  Cd  Cd15  1  0.45595100  0.48249300  0.23226000  1
  Cd  Cd16  1  0.22369100  0.26774000  0.75023300  1
  Cd  Cd17  1  0.27630900  0.02654200  0.04404900  1
  Cd  Cd18  1  0.01750700  0.47345800  0.74976700  1
  Cd  Cd19  1  0.48249300  0.23226000  0.45595100  1
  Cd  Cd20  1  0.26774000  0.75023300  0.22369100  1
  Cd  Cd21  1  0.02654200  0.04404900  0.27630900  1
  Cd  Cd22  1  0.47345800  0.74976700  0.01750700  1
  Cd  Cd23  1  0.23226000  0.45595100  0.48249300  1
  P  P0  1  0.50000000  0.00000000  0.00000000  1
  P  P1  1  0.00000000  0.50000000  0.00000000  1
  P  P2  1  0.00000000  0.00000000  0.50000000  1
  P  P3  1  0.50000000  0.50000000  0.50000000  1
  P  P4  1  0.48415500  0.25000000  0.73415500  1
  P  P5  1  0.01584500  0.75000000  0.76584500  1
  P  P6  1  0.25000000  0.73415500  0.48415500  1
  P  P7  1  0.75000000  0.76584500  0.01584500  1
  P  P8  1  0.73415500  0.48415500  0.25000000  1
  P  P9  1  0.76584500  0.01584500  0.75000000  1
  P  P10  1  0.51584500  0.75000000  0.26584500  1
  P  P11  1  0.98415500  0.25000000  0.23415500  1
  P  P12  1  0.75000000  0.26584500  0.51584500  1
  P  P13  1  0.25000000  0.23415500  0.98415500  1
  P  P14  1  0.26584500  0.51584500  0.75000000  1
  P  P15  1  0.23415500  0.98415500  0.25000000  1
loop_
_geom_bond_atom_site_label_1
_geom_bond_atom_site_label_2
_geom_bond_distance
_geom_bond_site_symmetry_2
Cd0 P6 2.574535 1_555
Cd0 P5 2.616584 1_555
Cd0 P0 2.708532 1_566
Cd0 P14 2.950779 1_555
Cd1 P7 2.574535 1_556
Cd1 P5 2.616584 1_655
Cd1 P1 2.708532 1_656
Cd1 P15 2.950779 1_656
Cd2 P6 2.574535 1_555
Cd2 P4 2.616584 1_565
Cd2 P2 2.708532 1_565
Cd2 P15 2.950779 1_555
Cd3 P7 2.574535 1_556
Cd3 P4 2.616584 1_555
Cd3 P3 2.708532 1_555
Cd3 P14 2.950779 1_555
Cd4 P8 2.574535 1_555
Cd4 P7 2.616584 1_555
Cd4 P2 2.708532 1_665
Cd4 P10 2.950779 1_555
Cd5 P9 2.574535 1_565
Cd5 P7 2.616584 1_556
Cd5 P0 2.708532 1_566
Cd5 P11 2.950779 1_566
Cd6 P8 2.574535 1_555
Cd6 P6 2.616584 1_655
Cd6 P1 2.708532 1_655
Cd6 P11 2.950779 1_555
Cd7 P9 2.574535 1_565
Cd7 P6 2.616584 1_555
Cd7 P3 2.708532 1_555
Cd7 P10 2.950779 1_555
Cd8 P4 2.574535 1_555
Cd8 P9 2.616584 1_555
Cd8 P1 2.708532 1_656
Cd8 P12 2.950779 1_555
Cd9 P5 2.574535 1_655
Cd9 P9 2.616584 1_565
Cd9 P2 2.708532 1_665
Cd9 P13 2.950779 1_665
Cd10 P4 2.574535 1_555
Cd10 P8 2.616584 1_556
Cd10 P0 2.708532 1_556
Cd10 P13 2.950779 1_555
Cd11 P5 2.574535 1_655
Cd11 P8 2.616584 1_555
Cd11 P3 2.708532 1_555
Cd11 P12 2.950779 1_555
Cd12 P12 2.574535 1_555
Cd12 P11 2.616584 1_555
Cd12 P0 2.708532 1_555
Cd12 P8 2.950779 1_555
Cd13 P13 2.574535 1_554
Cd13 P11 2.616584 1_455
Cd13 P1 2.708532 1_555
Cd13 P9 2.950779 1_454
Cd14 P12 2.574535 1_555
Cd14 P10 2.616584 1_545
Cd14 P2 2.708532 1_655
Cd14 P9 2.950779 1_555
Cd15 P13 2.574535 1_554
Cd15 P10 2.616584 1_555
Cd15 P3 2.708532 1_555
Cd15 P8 2.950779 1_555
Cd16 P14 2.574535 1_555
Cd16 P13 2.616584 1_555
Cd16 P2 2.708532 1_555
Cd16 P4 2.950779 1_555
Cd17 P15 2.574535 1_545
Cd17 P13 2.616584 1_554
Cd17 P0 2.708532 1_555
Cd17 P5 2.950779 1_544
Cd18 P14 2.574535 1_555
Cd18 P12 2.616584 1_455
Cd18 P1 2.708532 1_556
Cd18 P5 2.950779 1_555
Cd19 P15 2.574535 1_545
Cd19 P12 2.616584 1_555
Cd19 P3 2.708532 1_555
Cd19 P4 2.950779 1_555
Cd20 P10 2.574535 1_555
Cd20 P15 2.616584 1_555
Cd20 P1 2.708532 1_555
Cd20 P6 2.950779 1_555
Cd21 P11 2.574535 1_455
Cd21 P15 2.616584 1_545
Cd21 P2 2.708532 1_555
Cd21 P7 2.950779 1_445
Cd22 P10 2.574535 1_555
Cd22 P14 2.616584 1_554
Cd22 P0 2.708532 1_565
Cd22 P7 2.950779 1_555
Cd23 P11 2.574535 1_455
Cd23 P14 2.616584 1_555
Cd23 P3 2.708532 1_555
Cd23 P6 2.950779 1_555
