# generated using pymatgen
data_K2NbO3F
_symmetry_space_group_name_H-M   'P 1'
_cell_length_a   7.52546623
_cell_length_b   7.52546623
_cell_length_c   7.52546623
_cell_angle_alpha   149.06540471
_cell_angle_beta   149.06540471
_cell_angle_gamma   44.31504265
_symmetry_Int_Tables_number   1
_chemical_formula_structural   K2NbO3F
_chemical_formula_sum   'K2 Nb1 O3 F1'
_cell_volume   112.29225043
_cell_formula_units_Z   1
loop_
 _symmetry_equiv_pos_site_id
 _symmetry_equiv_pos_as_xyz
  1  'x, y, z'
loop_
 _atom_site_type_symbol
 _atom_site_label
 _atom_site_symmetry_multiplicity
 _atom_site_fract_x
 _atom_site_fract_y
 _atom_site_fract_z
 _atom_site_occupancy
  K  K0  1  0.65051200  0.65051200  0.00000000  1
  K  K1  1  0.34448300  0.34448300  0.00000000  1
  Nb  Nb0  1  0.98740400  0.98740400  0.00000000  1
  O  O0  1  0.50393900  0.00393900  0.50000000  1
  O  O1  1  0.00393900  0.50393900  0.50000000  1
  O  O2  1  0.85518900  0.85518900  0.00000000  1
  F  F0  1  0.15453400  0.15453400  0.00000000  1
loop_
_geom_bond_atom_site_label_1
_geom_bond_atom_site_label_2
_geom_bond_distance
_geom_bond_site_symmetry_2
K0 O2 2.853080 1_555
K0 O0 2.863966 1_554
K0 O0 2.863966 1_565
K0 O1 2.863966 1_655
K0 O1 2.863966 1_554
K1 O2 2.842182 1_455
K1 O2 2.842182 1_556
K1 O2 2.842182 1_444
K1 O2 2.842182 1_545
K1 O0 2.994724 1_565
K1 O1 2.994724 1_655
K1 O0 2.994724 1_554
K1 O1 2.994724 1_554
Nb0 O2 1.843001 1_555
Nb0 O0 2.020146 1_564
Nb0 O1 2.020146 1_654
Nb0 O0 2.020146 1_665
Nb0 O1 2.020146 1_665
F0 Nb0 2.329697 1_445
F0 K1 2.647780 1_555
F0 K0 2.838815 1_545
F0 K0 2.838815 1_556
F0 K0 2.838815 1_444
F0 K0 2.838815 1_455
