# generated using pymatgen
data_InHg6Sb4Br7
_symmetry_space_group_name_H-M   'P 1'
_cell_length_a   13.37596300
_cell_length_b   13.37596300
_cell_length_c   13.37596300
_cell_angle_alpha   90.00000000
_cell_angle_beta   90.00000000
_cell_angle_gamma   90.00000000
_symmetry_Int_Tables_number   1
_chemical_formula_structural   InHg6Sb4Br7
_chemical_formula_sum   'In4 Hg24 Sb16 Br28'
_cell_volume   2393.17896160
_cell_formula_units_Z   4
loop_
 _symmetry_equiv_pos_site_id
 _symmetry_equiv_pos_as_xyz
  1  'x, y, z'
loop_
 _atom_site_type_symbol
 _atom_site_label
 _atom_site_symmetry_multiplicity
 _atom_site_fract_x
 _atom_site_fract_y
 _atom_site_fract_z
 _atom_site_occupancy
  In  In0  1  0.50000000  0.50000000  0.00000000  1
  In  In1  1  0.50000000  0.00000000  0.50000000  1
  In  In2  1  0.00000000  0.50000000  0.50000000  1
  In  In3  1  0.00000000  0.00000000  0.00000000  1
  Hg  Hg0  1  0.44849600  0.68706600  0.70376000  1
  Hg  Hg1  1  0.55150400  0.18706600  0.79624000  1
  Hg  Hg2  1  0.05150400  0.31293400  0.20376000  1
  Hg  Hg3  1  0.94849600  0.81293400  0.29624000  1
  Hg  Hg4  1  0.70376000  0.44849600  0.68706600  1
  Hg  Hg5  1  0.79624000  0.55150400  0.18706600  1
  Hg  Hg6  1  0.20376000  0.05150400  0.31293400  1
  Hg  Hg7  1  0.29624000  0.94849600  0.81293400  1
  Hg  Hg8  1  0.68706600  0.70376000  0.44849600  1
  Hg  Hg9  1  0.18706600  0.79624000  0.55150400  1
  Hg  Hg10  1  0.31293400  0.20376000  0.05150400  1
  Hg  Hg11  1  0.81293400  0.29624000  0.94849600  1
  Hg  Hg12  1  0.55150400  0.31293400  0.29624000  1
  Hg  Hg13  1  0.44849600  0.81293400  0.20376000  1
  Hg  Hg14  1  0.94849600  0.68706600  0.79624000  1
  Hg  Hg15  1  0.05150400  0.18706600  0.70376000  1
  Hg  Hg16  1  0.29624000  0.55150400  0.31293400  1
  Hg  Hg17  1  0.20376000  0.44849600  0.81293400  1
  Hg  Hg18  1  0.79624000  0.94849600  0.68706600  1
  Hg  Hg19  1  0.70376000  0.05150400  0.18706600  1
  Hg  Hg20  1  0.31293400  0.29624000  0.55150400  1
  Hg  Hg21  1  0.81293400  0.20376000  0.44849600  1
  Hg  Hg22  1  0.68706600  0.79624000  0.94849600  1
  Hg  Hg23  1  0.18706600  0.70376000  0.05150400  1
  Sb  Sb0  1  0.63328300  0.63328300  0.63328300  1
  Sb  Sb1  1  0.36671700  0.13328300  0.86671700  1
  Sb  Sb2  1  0.86671700  0.36671700  0.13328300  1
  Sb  Sb3  1  0.13328300  0.86671700  0.36671700  1
  Sb  Sb4  1  0.36671700  0.36671700  0.36671700  1
  Sb  Sb5  1  0.63328300  0.86671700  0.13328300  1
  Sb  Sb6  1  0.13328300  0.63328300  0.86671700  1
  Sb  Sb7  1  0.86671700  0.13328300  0.63328300  1
  Sb  Sb8  1  0.26178400  0.76178400  0.73821600  1
  Sb  Sb9  1  0.73821600  0.26178400  0.76178400  1
  Sb  Sb10  1  0.23821600  0.23821600  0.23821600  1
  Sb  Sb11  1  0.76178400  0.73821600  0.26178400  1
  Sb  Sb12  1  0.73821600  0.23821600  0.26178400  1
  Sb  Sb13  1  0.26178400  0.73821600  0.23821600  1
  Sb  Sb14  1  0.76178400  0.76178400  0.76178400  1
  Sb  Sb15  1  0.23821600  0.26178400  0.73821600  1
  Br  Br0  1  0.45230800  0.69524600  0.96099000  1
  Br  Br1  1  0.54769200  0.19524600  0.53901000  1
  Br  Br2  1  0.04769200  0.30475400  0.46099000  1
  Br  Br3  1  0.95230800  0.80475400  0.03901000  1
  Br  Br4  1  0.96099000  0.45230800  0.69524600  1
  Br  Br5  1  0.53901000  0.54769200  0.19524600  1
  Br  Br6  1  0.46099000  0.04769200  0.30475400  1
  Br  Br7  1  0.03901000  0.95230800  0.80475400  1
  Br  Br8  1  0.69524600  0.96099000  0.45230800  1
  Br  Br9  1  0.19524600  0.53901000  0.54769200  1
  Br  Br10  1  0.30475400  0.46099000  0.04769200  1
  Br  Br11  1  0.80475400  0.03901000  0.95230800  1
  Br  Br12  1  0.54769200  0.30475400  0.03901000  1
  Br  Br13  1  0.45230800  0.80475400  0.46099000  1
  Br  Br14  1  0.95230800  0.69524600  0.53901000  1
  Br  Br15  1  0.04769200  0.19524600  0.96099000  1
  Br  Br16  1  0.03901000  0.54769200  0.30475400  1
  Br  Br17  1  0.46099000  0.45230800  0.80475400  1
  Br  Br18  1  0.53901000  0.95230800  0.69524600  1
  Br  Br19  1  0.96099000  0.04769200  0.19524600  1
  Br  Br20  1  0.30475400  0.03901000  0.54769200  1
  Br  Br21  1  0.80475400  0.46099000  0.45230800  1
  Br  Br22  1  0.69524600  0.53901000  0.95230800  1
  Br  Br23  1  0.19524600  0.96099000  0.04769200  1
  Br  Br24  1  0.50000000  0.50000000  0.50000000  1
  Br  Br25  1  0.50000000  0.00000000  0.00000000  1
  Br  Br26  1  0.00000000  0.50000000  0.00000000  1
  Br  Br27  1  0.00000000  0.00000000  0.50000000  1
loop_
_geom_bond_atom_site_label_1
_geom_bond_atom_site_label_2
_geom_bond_distance
_geom_bond_site_symmetry_2
Hg0 Sb8 2.729200 1_555
Hg0 Sb0 2.741448 1_555
Hg1 Sb9 2.729200 1_555
Hg1 Sb1 2.741448 1_555
Hg2 Sb10 2.729200 1_555
Hg2 Sb2 2.741448 1_455
Hg3 Sb11 2.729200 1_555
Hg3 Sb3 2.741448 1_655
Hg4 Sb9 2.729200 1_555
Hg4 Sb0 2.741448 1_555
Hg5 Sb11 2.729200 1_555
Hg5 Sb2 2.741448 1_555
Hg6 Sb10 2.729200 1_555
Hg6 Sb3 2.741448 1_545
Hg7 Sb8 2.729200 1_555
Hg7 Sb1 2.741448 1_565
Hg8 Sb11 2.729200 1_555
Hg8 Sb0 2.741448 1_555
Hg9 Sb8 2.729200 1_555
Hg9 Sb3 2.741448 1_555
Hg10 Sb10 2.729200 1_555
Hg10 Sb1 2.741448 1_554
Hg11 Sb9 2.729200 1_555
Hg11 Sb2 2.741448 1_556
Hg12 Sb12 2.729200 1_555
Hg12 Sb4 2.741448 1_555
Hg13 Sb13 2.729200 1_555
Hg13 Sb5 2.741448 1_555
Hg14 Sb14 2.729200 1_555
Hg14 Sb6 2.741448 1_655
Hg15 Sb15 2.729200 1_555
Hg15 Sb7 2.741448 1_455
Hg16 Sb13 2.729200 1_555
Hg16 Sb4 2.741448 1_555
Hg17 Sb15 2.729200 1_555
Hg17 Sb6 2.741448 1_555
Hg18 Sb14 2.729200 1_555
Hg18 Sb7 2.741448 1_565
Hg19 Sb12 2.729200 1_555
Hg19 Sb5 2.741448 1_545
Hg20 Sb15 2.729200 1_555
Hg20 Sb4 2.741448 1_555
Hg21 Sb12 2.729200 1_555
Hg21 Sb7 2.741448 1_555
Hg22 Sb14 2.729200 1_555
Hg22 Sb5 2.741448 1_556
Hg23 Sb13 2.729200 1_555
Hg23 Sb6 2.741448 1_554
Sb0 Sb14 2.977092 1_555
Sb1 Sb15 2.977092 1_555
Sb6 Sb8 2.977092 1_555
Sb7 Sb9 2.977092 1_555
Sb10 Sb4 2.977092 1_555
Sb11 Sb5 2.977092 1_555
Sb12 Sb2 2.977092 1_555
Sb13 Sb3 2.977092 1_555
Br0 In0 2.738557 1_556
Br1 In1 2.738557 1_555
Br2 In2 2.738557 1_555
Br3 In3 2.738557 1_665
Br4 In2 2.738557 1_655
Br5 In0 2.738557 1_555
Br6 In1 2.738557 1_555
Br7 In3 2.738557 1_566
Br8 In1 2.738557 1_565
Br9 In2 2.738557 1_555
Br10 In0 2.738557 1_555
Br11 In3 2.738557 1_656
Br12 In0 2.738557 1_555
Br13 In1 2.738557 1_565
Br14 In2 2.738557 1_655
Br15 In3 2.738557 1_556
Br16 In2 2.738557 1_555
Br17 In0 2.738557 1_556
Br18 In1 2.738557 1_565
Br19 In3 2.738557 1_655
Br20 In1 2.738557 1_555
Br21 In2 2.738557 1_655
Br22 In0 2.738557 1_556
Br23 In3 2.738557 1_565
Br24 Sb0 3.087880 1_555
Br24 Sb4 3.087880 1_555
Br25 Sb5 3.087880 1_545
Br25 Sb1 3.087880 1_554
Br26 Sb6 3.087880 1_554
Br26 Sb2 3.087880 1_455
Br27 Sb7 3.087880 1_455
Br27 Sb3 3.087880 1_545
