# generated using pymatgen
data_Mg5Si9
_symmetry_space_group_name_H-M   'P 1'
_cell_length_a   7.60679900
_cell_length_b   7.66863244
_cell_length_c   10.03851002
_cell_angle_alpha   72.88439338
_cell_angle_beta   80.29411301
_cell_angle_gamma   60.48002470
_symmetry_Int_Tables_number   1
_chemical_formula_structural   Mg5Si9
_chemical_formula_sum   'Mg10 Si18'
_cell_volume   486.80271238
_cell_formula_units_Z   2
loop_
 _symmetry_equiv_pos_site_id
 _symmetry_equiv_pos_as_xyz
  1  'x, y, z'
loop_
 _atom_site_type_symbol
 _atom_site_label
 _atom_site_symmetry_multiplicity
 _atom_site_fract_x
 _atom_site_fract_y
 _atom_site_fract_z
 _atom_site_occupancy
  Mg  Mg0  1  0.51403000  0.96702800  0.71473600  1
  Mg  Mg1  1  0.16412800  0.88523200  0.35660300  1
  Mg  Mg2  1  0.37682100  0.41074100  0.53291600  1
  Mg  Mg3  1  0.72254800  0.49918500  0.39192400  1
  Mg  Mg4  1  0.12486900  0.18609900  0.53784900  1
  Mg  Mg5  1  0.88031000  0.68895900  0.55573900  1
  Mg  Mg6  1  0.36374900  0.97332500  0.05792600  1
  Mg  Mg7  1  0.78429000  0.95012800  0.91369600  1
  Mg  Mg8  1  0.87461800  0.21517900  0.06244900  1
  Mg  Mg9  1  0.46453300  0.60510400  0.91915700  1
  Si  Si0  1  0.77096600  0.84463900  0.21767200  1
  Si  Si1  1  0.11837900  0.53765600  0.97502700  1
  Si  Si2  1  0.72288100  0.11934500  0.36112600  1
  Si  Si3  1  0.12751000  0.79350600  0.69586700  1
  Si  Si4  1  0.44715900  0.51832200  0.22912300  1
  Si  Si5  1  0.71777000  0.36348800  0.72163500  1
  Si  Si6  1  0.48911700  0.23204300  0.12272300  1
  Si  Si7  1  0.83126700  0.59282800  0.85215700  1
  Si  Si8  1  0.12594800  0.29693800  0.19840800  1
  Si  Si9  1  0.80576400  0.09802700  0.59439300  1
  Si  Si10  1  0.12609000  0.99913200  0.84863200  1
  Si  Si11  1  0.11137200  0.77905600  0.09792800  1
  Si  Si12  1  0.49093600  0.97479100  0.39987900  1
  Si  Si13  1  0.13033600  0.32547400  0.76094200  1
  Si  Si14  1  0.42927200  0.29684100  0.85275100  1
  Si  Si15  1  0.72099300  0.61239800  0.10489000  1
  Si  Si16  1  0.46824100  0.70339400  0.59201100  1
  Si  Si17  1  0.09620800  0.53126700  0.33161400  1
loop_
_geom_bond_atom_site_label_1
_geom_bond_atom_site_label_2
_geom_bond_distance
_geom_bond_site_symmetry_2
Mg0 Si7 2.815903 1_555
Mg0 Si9 2.823458 1_565
Mg0 Si16 2.833912 1_555
Mg0 Si13 2.945768 1_565
Mg0 Si10 2.952451 1_555
Mg0 Si14 2.981026 1_565
Mg0 Mg7 3.033442 1_555
Mg0 Mg9 3.077809 1_555
Mg0 Si12 3.176564 1_555
Mg1 Si2 2.923948 1_465
Mg1 Si8 2.979103 1_565
Mg1 Si12 3.010432 1_555
Mg1 Si4 3.067658 1_555
Mg1 Si11 3.079735 1_555
Mg1 Si17 3.086176 1_555
Mg1 Si16 3.099226 1_555
Mg1 Si3 3.261036 1_555
Mg2 Si17 2.811587 1_555
Mg2 Si13 2.839505 1_555
Mg2 Si16 2.886672 1_555
Mg2 Si4 2.944667 1_555
Mg2 Si9 2.979109 1_555
Mg2 Si14 3.109396 1_555
Mg2 Si2 3.136516 1_555
Mg3 Si15 2.754134 1_555
Mg3 Si16 2.790137 1_555
Mg3 Si4 2.791226 1_555
Mg3 Si0 2.868834 1_555
Mg3 Si17 2.920149 1_655
Mg3 Si9 2.971537 1_555
Mg3 Si2 3.017091 1_555
Mg3 Si12 3.194444 1_555
Mg4 Si9 2.756050 1_455
Mg4 Si13 2.764716 1_555
Mg4 Si17 2.774534 1_555
Mg4 Si12 2.805717 1_545
Mg4 Si3 2.953105 1_545
Mg4 Si10 3.025347 1_545
Mg5 Si17 2.760418 1_655
Mg5 Si7 2.853483 1_555
Mg5 Si13 2.889173 1_655
Mg5 Si12 3.028443 1_555
Mg5 Si3 3.032946 1_655
Mg5 Si9 3.033503 1_565
Mg5 Si2 3.040153 1_565
Mg5 Si16 3.044182 1_555
Mg6 Si15 2.742194 1_555
Mg6 Si6 2.846429 1_565
Mg6 Si8 2.862790 1_565
Mg6 Si11 2.876219 1_555
Mg6 Si10 2.899134 1_554
Mg6 Si14 2.917248 1_564
Mg6 Si4 3.191762 1_555
Mg6 Mg9 3.213060 1_554
Mg6 Mg7 3.223422 1_554
Mg7 Si14 2.694509 1_565
Mg7 Si10 2.752022 1_655
Mg7 Si7 2.823814 1_555
Mg7 Si11 2.870303 1_656
Mg7 Si1 2.881386 1_655
Mg7 Si0 2.915421 1_556
Mg7 Si15 2.935082 1_556
Mg7 Si5 3.028622 1_565
Mg7 Si9 3.074635 1_565
Mg7 Si3 3.093737 1_655
Mg7 Mg8 3.215907 1_566
Mg7 Si6 3.227413 1_566
Mg8 Si15 2.813203 1_555
Mg8 Si6 2.838317 1_555
Mg8 Si11 2.852241 1_645
Mg8 Si8 2.911291 1_655
Mg8 Si10 2.932018 1_644
Mg8 Si7 2.940642 1_554
Mg8 Si2 3.038760 1_555
Mg8 Mg9 3.245069 1_554
Mg9 Si7 2.718330 1_555
Mg9 Si14 2.778001 1_555
Mg9 Si10 2.819381 1_555
Mg9 Si1 2.861619 1_555
Mg9 Si5 2.903913 1_555
Mg9 Si11 2.910147 1_556
Mg9 Si6 2.925063 1_556
Mg9 Si15 2.946277 1_556
Mg9 Si4 2.978515 1_556
Mg9 Si16 3.144311 1_555
Mg9 Si3 3.172611 1_555
Si0 Si11 2.534925 1_655
Si0 Si12 2.558298 1_555
Si0 Si15 2.568512 1_555
Si0 Si17 2.584870 1_655
Si0 Si6 2.660193 1_565
Si0 Si2 2.737535 1_565
Si1 Si8 2.437555 1_556
Si1 Si7 2.482091 1_455
Si1 Si11 2.485325 1_556
Si1 Si14 2.561539 1_555
Si1 Si3 2.922309 1_555
Si2 Si9 2.465455 1_555
Si2 Si4 2.782628 1_555
Si2 Si6 2.887805 1_555
Si3 Si9 2.507842 1_465
Si4 Si6 2.576256 1_555
Si5 Si9 2.474508 1_555
Si6 Si8 2.572284 1_555
Si10 Si13 2.410874 1_565
Si10 Si3 2.497866 1_555
Si10 Si11 2.594103 1_556
Si11 Si17 2.574517 1_555
Si11 Si4 2.609226 1_555
Si12 Si2 2.436242 1_565
Si12 Si16 2.441396 1_555
Si12 Si6 2.896249 1_565
Si13 Si7 2.454304 1_455
Si13 Si14 2.482725 1_555
Si14 Si5 2.558331 1_555
Si14 Si6 2.683150 1_556
Si15 Si4 2.547560 1_555
Si15 Si7 2.558383 1_554
Si16 Si3 2.455640 1_555
Si16 Si5 2.459914 1_555
Si17 Si8 2.445434 1_555
Si17 Si4 2.658586 1_555
