# generated using pymatgen
data_La2MgHg
_symmetry_space_group_name_H-M   'P 1'
_cell_length_a   12.76268417
_cell_length_b   12.36577697
_cell_length_c   12.36577660
_cell_angle_alpha   60.21824414
_cell_angle_beta   58.93243082
_cell_angle_gamma   58.93243058
_symmetry_Int_Tables_number   1
_chemical_formula_structural   La2MgHg
_chemical_formula_sum   'La2 Mg1 Hg1'
_cell_volume   1359.43065991
_cell_formula_units_Z   1
loop_
 _symmetry_equiv_pos_site_id
 _symmetry_equiv_pos_as_xyz
  1  'x, y, z'
loop_
 _atom_site_type_symbol
 _atom_site_label
 _atom_site_symmetry_multiplicity
 _atom_site_fract_x
 _atom_site_fract_y
 _atom_site_fract_z
 _atom_site_occupancy
  La  La0  1  0.74261614  0.00000000  0.00000000  1
  La  La1  1  0.25738386  1.00000000  1.00000000  1
  Mg  Mg0  1  0.00000000  -0.00000000  -0.00000000  1
  Hg  Hg0  1  0.50000000  -0.00000000  -0.00000000  1
loop_
_geom_bond_atom_site_label_1
_geom_bond_atom_site_label_2
_geom_bond_distance
_geom_bond_site_symmetry_2
La0 Mg0 3.284909 1_655
La1 Mg0 3.284909 1_566
Hg0 La0 3.096433 1_555
Hg0 La1 3.096433 1_544
