# generated using pymatgen
data_CaSmMn2O6
_symmetry_space_group_name_H-M   'P 1'
_cell_length_a   5.41456100
_cell_length_b   5.55247000
_cell_length_c   7.63019600
_cell_angle_alpha   90.00000000
_cell_angle_beta   90.00000000
_cell_angle_gamma   90.00000000
_symmetry_Int_Tables_number   1
_chemical_formula_structural   CaSmMn2O6
_chemical_formula_sum   'Ca2 Sm2 Mn4 O12'
_cell_volume   229.39564333
_cell_formula_units_Z   2
loop_
 _symmetry_equiv_pos_site_id
 _symmetry_equiv_pos_as_xyz
  1  'x, y, z'
loop_
 _atom_site_type_symbol
 _atom_site_label
 _atom_site_symmetry_multiplicity
 _atom_site_fract_x
 _atom_site_fract_y
 _atom_site_fract_z
 _atom_site_occupancy
  Ca  Ca0  1  0.50898100  0.29688700  0.50000000  1
  Ca  Ca1  1  0.00898100  0.70311300  0.00000000  1
  Sm  Sm0  1  0.98632100  0.80370900  0.50000000  1
  Sm  Sm1  1  0.48632100  0.19629100  0.00000000  1
  Mn  Mn0  1  0.99956100  0.25296900  0.74979700  1
  Mn  Mn1  1  0.49956100  0.74703100  0.24979700  1
  Mn  Mn2  1  0.99956100  0.25296900  0.25020300  1
  Mn  Mn3  1  0.49956100  0.74703100  0.75020300  1
  O  O0  1  0.08266300  0.22559200  0.50000000  1
  O  O1  1  0.41271100  0.72698200  0.50000000  1
  O  O2  1  0.91271100  0.27301800  0.00000000  1
  O  O3  1  0.58266300  0.77440800  0.00000000  1
  O  O4  1  0.21057800  0.96079200  0.79467400  1
  O  O5  1  0.29452200  0.45575100  0.20597100  1
  O  O6  1  0.79452200  0.54424900  0.29402900  1
  O  O7  1  0.71057800  0.03920800  0.70532600  1
  O  O8  1  0.79452200  0.54424900  0.70597100  1
  O  O9  1  0.71057800  0.03920800  0.29467400  1
  O  O10  1  0.21057800  0.96079200  0.20532600  1
  O  O11  1  0.29452200  0.45575100  0.79402900  1
loop_
_geom_bond_atom_site_label_1
_geom_bond_atom_site_label_2
_geom_bond_distance
_geom_bond_site_symmetry_2
Ca0 O0 2.342023 1_555
Ca0 O9 2.386009 1_555
Ca0 O7 2.386009 1_555
Ca0 O1 2.444317 1_555
Ca0 O8 2.597442 1_555
Ca0 O6 2.597442 1_555
Ca0 O11 2.675772 1_555
Ca0 O5 2.675772 1_555
Ca1 O3 2.342023 1_455
Ca1 O10 2.386009 1_555
Ca1 O4 2.386009 1_554
Ca1 O2 2.444317 1_455
Ca1 O5 2.597442 1_555
Ca1 O11 2.597442 1_554
Ca1 O8 2.675772 1_454
Ca1 O6 2.675772 1_455
Mn0 O0 1.964283 1_655
Mn0 O2 1.969311 1_556
Mn0 O11 1.983010 1_655
Mn0 O8 1.989999 1_555
Mn0 O7 1.993041 1_555
Mn0 O4 2.013598 1_645
Mn1 O3 1.964283 1_555
Mn1 O1 1.969311 1_555
Mn1 O6 1.983010 1_555
Mn1 O5 1.989999 1_555
Mn1 O10 1.993041 1_555
Mn1 O9 2.013598 1_565
Mn2 O0 1.964283 1_655
Mn2 O2 1.969311 1_555
Mn2 O5 1.983010 1_655
Mn2 O6 1.989999 1_555
Mn2 O9 1.993041 1_555
Mn2 O10 2.013598 1_645
Mn3 O3 1.964283 1_556
Mn3 O1 1.969311 1_555
Mn3 O8 1.983010 1_555
Mn3 O11 1.989999 1_555
Mn3 O4 1.993041 1_555
Mn3 O7 2.013598 1_565
O0 Sm0 2.399873 1_445
O1 Sm0 2.347693 1_455
O2 Sm1 2.347693 1_555
O3 Sm1 2.399873 1_565
O4 Sm1 2.528523 1_566
O4 Sm0 2.700099 1_455
O5 Sm1 2.371471 1_555
O6 Sm0 2.371471 1_555
O7 Sm0 2.528523 1_545
O7 Sm1 2.700099 1_556
O8 Sm0 2.371471 1_555
O9 Sm0 2.528523 1_545
O9 Sm1 2.700099 1_555
O10 Sm1 2.528523 1_565
O10 Sm0 2.700099 1_455
O11 Sm1 2.371471 1_556
