# generated using pymatgen
data_MgAg2
_symmetry_space_group_name_H-M   'P 1'
_cell_length_a   11.03492238
_cell_length_b   11.03492238
_cell_length_c   14.22198690
_cell_angle_alpha   72.12268366
_cell_angle_beta   72.12268366
_cell_angle_gamma   32.46070051
_symmetry_Int_Tables_number   1
_chemical_formula_structural   MgAg2
_chemical_formula_sum   'Mg16 Ag32'
_cell_volume   880.70780326
_cell_formula_units_Z   16
loop_
 _symmetry_equiv_pos_site_id
 _symmetry_equiv_pos_as_xyz
  1  'x, y, z'
loop_
 _atom_site_type_symbol
 _atom_site_label
 _atom_site_symmetry_multiplicity
 _atom_site_fract_x
 _atom_site_fract_y
 _atom_site_fract_z
 _atom_site_occupancy
  Mg  Mg0_0  1  0.23914700  0.23914700  0.39019050  1
  Mg  Mg0_1  1  0.23914700  0.23914700  0.89019050  1
  Mg  Mg0_2  1  0.23914700  0.73914700  0.39019050  1
  Mg  Mg0_3  1  0.23914700  0.73914700  0.89019050  1
  Mg  Mg0_4  1  0.73914700  0.23914700  0.39019050  1
  Mg  Mg0_5  1  0.73914700  0.23914700  0.89019050  1
  Mg  Mg0_6  1  0.73914700  0.73914700  0.39019050  1
  Mg  Mg0_7  1  0.73914700  0.73914700  0.89019050  1
  Mg  Mg1_0  1  0.26085300  0.26085300  0.10980950  1
  Mg  Mg1_1  1  0.26085300  0.26085300  0.60980950  1
  Mg  Mg1_2  1  0.26085300  0.76085300  0.10980950  1
  Mg  Mg1_3  1  0.26085300  0.76085300  0.60980950  1
  Mg  Mg1_4  1  0.76085300  0.26085300  0.10980950  1
  Mg  Mg1_5  1  0.76085300  0.26085300  0.60980950  1
  Mg  Mg1_6  1  0.76085300  0.76085300  0.10980950  1
  Mg  Mg1_7  1  0.76085300  0.76085300  0.60980950  1
  Ag  Ag0_0  1  0.42651350  0.42651350  0.27173750  1
  Ag  Ag0_1  1  0.42651350  0.42651350  0.77173750  1
  Ag  Ag0_2  1  0.42651350  0.92651350  0.27173750  1
  Ag  Ag0_3  1  0.42651350  0.92651350  0.77173750  1
  Ag  Ag0_4  1  0.92651350  0.42651350  0.27173750  1
  Ag  Ag0_5  1  0.92651350  0.42651350  0.77173750  1
  Ag  Ag0_6  1  0.92651350  0.92651350  0.27173750  1
  Ag  Ag0_7  1  0.92651350  0.92651350  0.77173750  1
  Ag  Ag1_0  1  0.07348650  0.07348650  0.22826250  1
  Ag  Ag1_1  1  0.07348650  0.07348650  0.72826250  1
  Ag  Ag1_2  1  0.07348650  0.57348650  0.22826250  1
  Ag  Ag1_3  1  0.07348650  0.57348650  0.72826250  1
  Ag  Ag1_4  1  0.57348650  0.07348650  0.22826250  1
  Ag  Ag1_5  1  0.57348650  0.07348650  0.72826250  1
  Ag  Ag1_6  1  0.57348650  0.57348650  0.22826250  1
  Ag  Ag1_7  1  0.57348650  0.57348650  0.72826250  1
  Ag  Ag2_0  1  0.41002600  0.41002600  0.05884700  1
  Ag  Ag2_1  1  0.41002600  0.41002600  0.55884700  1
  Ag  Ag2_2  1  0.41002600  0.91002600  0.05884700  1
  Ag  Ag2_3  1  0.41002600  0.91002600  0.55884700  1
  Ag  Ag2_4  1  0.91002600  0.41002600  0.05884700  1
  Ag  Ag2_5  1  0.91002600  0.41002600  0.55884700  1
  Ag  Ag2_6  1  0.91002600  0.91002600  0.05884700  1
  Ag  Ag2_7  1  0.91002600  0.91002600  0.55884700  1
  Ag  Ag3_0  1  0.08997400  0.08997400  0.44115300  1
  Ag  Ag3_1  1  0.08997400  0.08997400  0.94115300  1
  Ag  Ag3_2  1  0.08997400  0.58997400  0.44115300  1
  Ag  Ag3_3  1  0.08997400  0.58997400  0.94115300  1
  Ag  Ag3_4  1  0.58997400  0.08997400  0.44115300  1
  Ag  Ag3_5  1  0.58997400  0.08997400  0.94115300  1
  Ag  Ag3_6  1  0.58997400  0.58997400  0.44115300  1
  Ag  Ag3_7  1  0.58997400  0.58997400  0.94115300  1
loop_
_geom_bond_atom_site_label_1
_geom_bond_atom_site_label_2
_geom_bond_distance
_geom_bond_site_symmetry_2
Mg0_0 Mg0_6 3.084258 1_545
Mg0_0 Mg0_6 3.084258 1_455
Mg0_0 Mg1_1 3.299386 1_555
Mg0_1 Mg0_7 3.084258 1_455
Mg0_1 Mg0_7 3.084258 1_545
Mg0_1 Mg1_0 3.299386 1_556
Mg0_2 Mg0_4 3.084258 1_555
Mg0_2 Mg0_4 3.084258 1_465
Mg0_2 Mg1_3 3.299386 1_555
Mg0_3 Mg0_5 3.084258 1_555
Mg0_3 Mg0_5 3.084258 1_465
Mg0_3 Mg1_2 3.299386 1_556
Mg0_4 Mg1_5 3.299386 1_555
Mg0_5 Mg1_4 3.299386 1_556
Mg0_6 Mg1_7 3.299386 1_555
Mg0_7 Mg1_6 3.299386 1_556
Mg1_0 Mg1_6 3.084258 1_455
Mg1_0 Mg1_6 3.084258 1_545
Mg1_1 Mg1_7 3.084258 1_545
Mg1_1 Mg1_7 3.084258 1_455
Mg1_2 Mg1_4 3.084258 1_555
Mg1_2 Mg1_4 3.084258 1_465
Mg1_3 Mg1_5 3.084258 1_465
Mg1_3 Mg1_5 3.084258 1_555
Ag0_0 Mg1_4 2.871217 1_555
Ag0_0 Mg1_2 2.871217 1_555
Ag0_0 Ag1_2 2.896523 1_555
Ag0_0 Ag1_4 2.896523 1_555
Ag0_0 Mg0_4 2.899552 1_555
Ag0_0 Mg0_2 2.899552 1_555
Ag0_0 Ag3_2 2.953131 1_555
Ag0_0 Ag3_4 2.953131 1_555
Ag0_0 Ag1_6 2.974967 1_555
Ag0_0 Ag0_6 3.084258 1_545
Ag0_0 Ag0_6 3.084258 1_455
Ag0_0 Ag2_0 3.156833 1_555
Ag0_1 Mg1_5 2.871217 1_555
Ag0_1 Mg1_3 2.871217 1_555
Ag0_1 Ag1_5 2.896523 1_555
Ag0_1 Ag1_3 2.896523 1_555
Ag0_1 Mg0_5 2.899552 1_555
Ag0_1 Mg0_3 2.899552 1_555
Ag0_1 Ag3_5 2.953131 1_555
Ag0_1 Ag3_3 2.953131 1_555
Ag0_1 Ag1_7 2.974967 1_555
Ag0_1 Ag0_7 3.084258 1_545
Ag0_1 Ag0_7 3.084258 1_455
Ag0_1 Ag2_1 3.156833 1_555
Ag0_2 Mg1_6 2.871217 1_555
Ag0_2 Mg1_0 2.871217 1_565
Ag0_2 Ag1_6 2.896523 1_555
Ag0_2 Ag1_0 2.896523 1_565
Ag0_2 Mg0_6 2.899552 1_555
Ag0_2 Mg0_0 2.899552 1_565
Ag0_2 Ag3_0 2.953131 1_565
Ag0_2 Ag3_6 2.953131 1_555
Ag0_2 Ag1_4 2.974967 1_565
Ag0_2 Ag0_4 3.084258 1_555
Ag0_2 Ag0_4 3.084258 1_465
Ag0_2 Ag2_2 3.156833 1_555
Ag0_3 Mg1_1 2.871217 1_565
Ag0_3 Mg1_7 2.871217 1_555
Ag0_3 Ag1_7 2.896523 1_555
Ag0_3 Ag1_1 2.896523 1_565
Ag0_3 Mg0_1 2.899552 1_565
Ag0_3 Mg0_7 2.899552 1_555
Ag0_3 Ag3_7 2.953131 1_555
Ag0_3 Ag3_1 2.953131 1_565
Ag0_3 Ag1_5 2.974967 1_565
Ag0_3 Ag0_5 3.084258 1_555
Ag0_3 Ag0_5 3.084258 1_465
Ag0_3 Ag2_3 3.156833 1_555
Ag0_4 Mg1_6 2.871217 1_555
Ag0_4 Mg1_0 2.871217 1_655
Ag0_4 Ag1_6 2.896523 1_555
Ag0_4 Ag1_0 2.896523 1_655
Ag0_4 Mg0_0 2.899552 1_655
Ag0_4 Mg0_6 2.899552 1_555
Ag0_4 Ag3_6 2.953131 1_555
Ag0_4 Ag3_0 2.953131 1_655
Ag0_4 Ag1_2 2.974967 1_655
Ag0_4 Ag2_4 3.156833 1_555
Ag0_5 Mg1_1 2.871217 1_655
Ag0_5 Mg1_7 2.871217 1_555
Ag0_5 Ag1_7 2.896523 1_555
Ag0_5 Ag1_1 2.896523 1_655
Ag0_5 Mg0_1 2.899552 1_655
Ag0_5 Mg0_7 2.899552 1_555
Ag0_5 Ag3_7 2.953131 1_555
Ag0_5 Ag3_1 2.953131 1_655
Ag0_5 Ag1_3 2.974967 1_655
Ag0_5 Ag2_5 3.156833 1_555
Ag0_6 Mg1_2 2.871217 1_655
Ag0_6 Mg1_4 2.871217 1_565
Ag0_6 Ag1_4 2.896523 1_565
Ag0_6 Ag1_2 2.896523 1_655
Ag0_6 Mg0_2 2.899552 1_655
Ag0_6 Mg0_4 2.899552 1_565
Ag0_6 Ag3_4 2.953131 1_565
Ag0_6 Ag3_2 2.953131 1_655
Ag0_6 Ag1_0 2.974967 1_665
Ag0_6 Ag2_6 3.156833 1_555
Ag0_7 Mg1_3 2.871217 1_655
Ag0_7 Mg1_5 2.871217 1_565
Ag0_7 Ag1_3 2.896523 1_655
Ag0_7 Ag1_5 2.896523 1_565
Ag0_7 Mg0_3 2.899552 1_655
Ag0_7 Mg0_5 2.899552 1_565
Ag0_7 Ag3_5 2.953131 1_565
Ag0_7 Ag3_3 2.953131 1_655
Ag0_7 Ag1_1 2.974967 1_665
Ag0_7 Ag2_7 3.156833 1_555
Ag1_0 Mg0_2 2.871217 1_545
Ag1_0 Mg0_4 2.871217 1_455
Ag1_0 Mg1_2 2.899552 1_545
Ag1_0 Mg1_4 2.899552 1_455
Ag1_0 Ag2_2 2.953131 1_545
Ag1_0 Ag2_4 2.953131 1_455
Ag1_0 Ag1_6 3.084258 1_545
Ag1_0 Ag1_6 3.084258 1_455
Ag1_0 Ag3_0 3.156833 1_555
Ag1_1 Mg0_5 2.871217 1_455
Ag1_1 Mg0_3 2.871217 1_545
Ag1_1 Mg1_5 2.899552 1_455
Ag1_1 Mg1_3 2.899552 1_545
Ag1_1 Ag2_3 2.953131 1_545
Ag1_1 Ag2_5 2.953131 1_455
Ag1_1 Ag1_7 3.084258 1_455
Ag1_1 Ag1_7 3.084258 1_545
Ag1_1 Ag3_1 3.156833 1_555
Ag1_2 Mg0_0 2.871217 1_555
Ag1_2 Mg0_6 2.871217 1_455
Ag1_2 Mg1_0 2.899552 1_555
Ag1_2 Mg1_6 2.899552 1_455
Ag1_2 Ag2_6 2.953131 1_455
Ag1_2 Ag2_0 2.953131 1_555
Ag1_2 Ag1_4 3.084258 1_555
Ag1_2 Ag1_4 3.084258 1_465
Ag1_2 Ag3_2 3.156833 1_555
Ag1_3 Mg0_7 2.871217 1_455
Ag1_3 Mg0_1 2.871217 1_555
Ag1_3 Mg1_7 2.899552 1_455
Ag1_3 Mg1_1 2.899552 1_555
Ag1_3 Ag2_1 2.953131 1_555
Ag1_3 Ag2_7 2.953131 1_455
Ag1_3 Ag1_5 3.084258 1_555
Ag1_3 Ag1_5 3.084258 1_465
Ag1_3 Ag3_3 3.156833 1_555
Ag1_4 Mg0_0 2.871217 1_555
Ag1_4 Mg0_6 2.871217 1_545
Ag1_4 Mg1_0 2.899552 1_555
Ag1_4 Mg1_6 2.899552 1_545
Ag1_4 Ag2_6 2.953131 1_545
Ag1_4 Ag2_0 2.953131 1_555
Ag1_4 Ag3_4 3.156833 1_555
Ag1_5 Mg0_7 2.871217 1_545
Ag1_5 Mg0_1 2.871217 1_555
Ag1_5 Mg1_7 2.899552 1_545
Ag1_5 Mg1_1 2.899552 1_555
Ag1_5 Ag2_1 2.953131 1_555
Ag1_5 Ag2_7 2.953131 1_545
Ag1_5 Ag3_5 3.156833 1_555
Ag1_6 Mg0_4 2.871217 1_555
Ag1_6 Mg0_2 2.871217 1_555
Ag1_6 Mg1_2 2.899552 1_555
Ag1_6 Mg1_4 2.899552 1_555
Ag1_6 Ag2_2 2.953131 1_555
Ag1_6 Ag2_4 2.953131 1_555
Ag1_6 Ag3_6 3.156833 1_555
Ag1_7 Mg0_3 2.871217 1_555
Ag1_7 Mg0_5 2.871217 1_555
Ag1_7 Mg1_5 2.899552 1_555
Ag1_7 Mg1_3 2.899552 1_555
Ag1_7 Ag2_3 2.953131 1_555
Ag1_7 Ag2_5 2.953131 1_555
Ag1_7 Ag3_7 3.156833 1_555
Ag2_0 Mg0_5 2.893271 1_554
Ag2_0 Mg0_3 2.893271 1_554
Ag2_0 Mg1_2 2.908357 1_555
Ag2_0 Mg1_4 2.908357 1_555
Ag2_0 Ag3_5 2.995369 1_554
Ag2_0 Ag3_3 2.995369 1_554
Ag2_0 Mg1_0 3.008709 1_555
Ag2_0 Ag2_6 3.084258 1_545
Ag2_0 Ag2_6 3.084258 1_455
Ag2_1 Mg0_4 2.893271 1_555
Ag2_1 Mg0_2 2.893271 1_555
Ag2_1 Mg1_5 2.908357 1_555
Ag2_1 Mg1_3 2.908357 1_555
Ag2_1 Ag3_2 2.995369 1_555
Ag2_1 Ag3_4 2.995369 1_555
Ag2_1 Mg1_1 3.008709 1_555
Ag2_1 Ag2_7 3.084258 1_545
Ag2_1 Ag2_7 3.084258 1_455
Ag2_2 Mg0_1 2.893271 1_564
Ag2_2 Mg0_7 2.893271 1_554
Ag2_2 Mg1_6 2.908357 1_555
Ag2_2 Mg1_0 2.908357 1_565
Ag2_2 Ag3_7 2.995369 1_554
Ag2_2 Ag3_1 2.995369 1_564
Ag2_2 Mg1_2 3.008709 1_555
Ag2_2 Ag2_4 3.084258 1_555
Ag2_2 Ag2_4 3.084258 1_465
Ag2_3 Mg0_0 2.893271 1_565
Ag2_3 Mg0_6 2.893271 1_555
Ag2_3 Mg1_1 2.908357 1_565
Ag2_3 Mg1_7 2.908357 1_555
Ag2_3 Ag3_0 2.995369 1_565
Ag2_3 Ag3_6 2.995369 1_555
Ag2_3 Mg1_3 3.008709 1_555
Ag2_3 Ag2_5 3.084258 1_465
Ag2_3 Ag2_5 3.084258 1_555
Ag2_4 Mg0_1 2.893271 1_654
Ag2_4 Mg0_7 2.893271 1_554
Ag2_4 Mg1_6 2.908357 1_555
Ag2_4 Mg1_0 2.908357 1_655
Ag2_4 Ag3_7 2.995369 1_554
Ag2_4 Ag3_1 2.995369 1_654
Ag2_4 Mg1_4 3.008709 1_555
Ag2_5 Mg0_0 2.893271 1_655
Ag2_5 Mg0_6 2.893271 1_555
Ag2_5 Mg1_1 2.908357 1_655
Ag2_5 Mg1_7 2.908357 1_555
Ag2_5 Ag3_0 2.995369 1_655
Ag2_5 Ag3_6 2.995369 1_555
Ag2_5 Mg1_5 3.008709 1_555
Ag2_6 Mg0_3 2.893271 1_654
Ag2_6 Mg0_5 2.893271 1_564
Ag2_6 Mg1_4 2.908357 1_565
Ag2_6 Mg1_2 2.908357 1_655
Ag2_6 Ag3_3 2.995369 1_654
Ag2_6 Ag3_5 2.995369 1_564
Ag2_6 Mg1_6 3.008709 1_555
Ag2_7 Mg0_2 2.893271 1_655
Ag2_7 Mg0_4 2.893271 1_565
Ag2_7 Mg1_5 2.908357 1_565
Ag2_7 Mg1_3 2.908357 1_655
Ag2_7 Ag3_2 2.995369 1_655
Ag2_7 Ag3_4 2.995369 1_565
Ag2_7 Mg1_7 3.008709 1_555
Ag3_0 Mg1_5 2.893271 1_455
Ag3_0 Mg1_3 2.893271 1_545
Ag3_0 Mg0_2 2.908357 1_545
Ag3_0 Mg0_4 2.908357 1_455
Ag3_0 Mg0_0 3.008709 1_555
Ag3_0 Ag3_6 3.084258 1_545
Ag3_0 Ag3_6 3.084258 1_455
Ag3_1 Mg1_4 2.893271 1_456
Ag3_1 Mg1_2 2.893271 1_546
Ag3_1 Mg0_5 2.908357 1_455
Ag3_1 Mg0_3 2.908357 1_545
Ag3_1 Mg0_1 3.008709 1_555
Ag3_1 Ag3_7 3.084258 1_455
Ag3_1 Ag3_7 3.084258 1_545
Ag3_2 Mg1_7 2.893271 1_455
Ag3_2 Mg1_1 2.893271 1_555
Ag3_2 Mg0_6 2.908357 1_455
Ag3_2 Mg0_0 2.908357 1_555
Ag3_2 Mg0_2 3.008709 1_555
Ag3_2 Ag3_4 3.084258 1_555
Ag3_2 Ag3_4 3.084258 1_465
Ag3_3 Mg1_0 2.893271 1_556
Ag3_3 Mg1_6 2.893271 1_456
Ag3_3 Mg0_7 2.908357 1_455
Ag3_3 Mg0_1 2.908357 1_555
Ag3_3 Mg0_3 3.008709 1_555
Ag3_3 Ag3_5 3.084258 1_465
Ag3_3 Ag3_5 3.084258 1_555
Ag3_4 Mg1_7 2.893271 1_545
Ag3_4 Mg1_1 2.893271 1_555
Ag3_4 Mg0_6 2.908357 1_545
Ag3_4 Mg0_0 2.908357 1_555
Ag3_4 Mg0_4 3.008709 1_555
Ag3_5 Mg1_0 2.893271 1_556
Ag3_5 Mg1_6 2.893271 1_546
Ag3_5 Mg0_7 2.908357 1_545
Ag3_5 Mg0_1 2.908357 1_555
Ag3_5 Mg0_5 3.008709 1_555
Ag3_6 Mg1_3 2.893271 1_555
Ag3_6 Mg1_5 2.893271 1_555
Ag3_6 Mg0_2 2.908357 1_555
Ag3_6 Mg0_4 2.908357 1_555
Ag3_6 Mg0_6 3.008709 1_555
Ag3_7 Mg1_4 2.893271 1_556
Ag3_7 Mg1_2 2.893271 1_556
Ag3_7 Mg0_5 2.908357 1_555
Ag3_7 Mg0_3 2.908357 1_555
Ag3_7 Mg0_7 3.008709 1_555
