# generated using pymatgen
data_TbSe2
_symmetry_space_group_name_H-M   'P 1'
_cell_length_a   4.07256111
_cell_length_b   4.07256111
_cell_length_c   8.32269525
_cell_angle_alpha   90.00000000
_cell_angle_beta   90.00000000
_cell_angle_gamma   90.00000000
_symmetry_Int_Tables_number   1
_chemical_formula_structural   TbSe2
_chemical_formula_sum   'Tb2 Se4'
_cell_volume   138.03817599
_cell_formula_units_Z   2
loop_
 _symmetry_equiv_pos_site_id
 _symmetry_equiv_pos_as_xyz
  1  'x, y, z'
loop_
 _atom_site_type_symbol
 _atom_site_label
 _atom_site_symmetry_multiplicity
 _atom_site_fract_x
 _atom_site_fract_y
 _atom_site_fract_z
 _atom_site_occupancy
  Tb  Tb0  1  0.00000000  0.50000000  0.27314786  1
  Tb  Tb1  1  0.50000000  0.00000000  0.72685214  1
  Se  Se0  1  0.50000000  -0.00000000  0.36923813  1
  Se  Se1  1  -0.00000000  0.50000000  0.63076187  1
  Se  Se2  1  0.50000000  0.50000000  -0.00000000  1
  Se  Se3  1  -0.00000000  -0.00000000  -0.00000000  1
loop_
_geom_bond_atom_site_label_1
_geom_bond_atom_site_label_2
_geom_bond_distance
_geom_bond_site_symmetry_2
Se0 Tb1 2.976312 1_555
Se0 Tb0 2.988720 1_655
Se0 Tb0 2.988720 1_555
Se0 Tb0 2.988720 1_645
Se0 Tb0 2.988720 1_545
Se1 Tb0 2.976312 1_555
Se1 Tb1 2.988720 1_465
Se1 Tb1 2.988720 1_455
Se1 Tb1 2.988720 1_565
Se1 Tb1 2.988720 1_555
Se2 Se3 2.879736 1_565
Se2 Se3 2.879736 1_665
Se2 Se3 2.879736 1_555
Se2 Se3 2.879736 1_655
Se2 Tb0 3.051959 1_555
Se2 Tb1 3.051959 1_554
Se2 Tb0 3.051959 1_655
Se2 Tb1 3.051959 1_564
Se3 Tb0 3.051959 1_555
Se3 Tb0 3.051959 1_545
Se3 Tb1 3.051959 1_554
Se3 Tb1 3.051959 1_454
