# generated using pymatgen
data_CrCo4SbO8
_symmetry_space_group_name_H-M   'P 1'
_cell_length_a   6.06806867
_cell_length_b   6.06806867
_cell_length_c   6.13204066
_cell_angle_alpha   60.80059336
_cell_angle_beta   60.80059336
_cell_angle_gamma   59.57538596
_symmetry_Int_Tables_number   1
_chemical_formula_structural   CrCo4SbO8
_chemical_formula_sum   'Cr1 Co4 Sb1 O8'
_cell_volume   161.02609957
_cell_formula_units_Z   1
loop_
 _symmetry_equiv_pos_site_id
 _symmetry_equiv_pos_as_xyz
  1  'x, y, z'
loop_
 _atom_site_type_symbol
 _atom_site_label
 _atom_site_symmetry_multiplicity
 _atom_site_fract_x
 _atom_site_fract_y
 _atom_site_fract_z
 _atom_site_occupancy
  Cr  Cr0  1  0.00000000  0.00000000  0.50000000  1
  Co  Co0  1  0.36212100  0.36212100  0.90186400  1
  Co  Co1  1  0.63787900  0.63787900  0.09813600  1
  Co  Co2  1  0.00000000  0.50000000  0.50000000  1
  Co  Co3  1  0.50000000  0.00000000  0.50000000  1
  Sb  Sb0  1  0.00000000  0.00000000  0.00000000  1
  O  O0  1  0.23159100  0.23159100  0.28982600  1
  O  O1  1  0.23044700  0.23044700  0.75869800  1
  O  O2  1  0.22670200  0.77385100  0.75291900  1
  O  O3  1  0.77385100  0.22670200  0.75291900  1
  O  O4  1  0.76840900  0.76840900  0.71017400  1
  O  O5  1  0.76955300  0.76955300  0.24130200  1
  O  O6  1  0.77329800  0.22614900  0.24708100  1
  O  O7  1  0.22614900  0.77329800  0.24708100  1
loop_
_geom_bond_atom_site_label_1
_geom_bond_atom_site_label_2
_geom_bond_distance
_geom_bond_site_symmetry_2
Cr0 O0 2.019079 1_555
Cr0 O4 2.019079 1_445
Cr0 O2 2.067368 1_545
Cr0 O3 2.067368 1_455
Cr0 O7 2.067368 1_545
Cr0 O6 2.067368 1_455
Co0 O0 1.967918 1_556
Co0 O1 2.015671 1_555
Co0 O2 2.044012 1_555
Co0 O3 2.044012 1_555
Co1 O4 1.967918 1_554
Co1 O5 2.015671 1_555
Co1 O6 2.044012 1_555
Co1 O7 2.044012 1_555
Co2 O4 2.061890 1_455
Co2 O0 2.061890 1_555
Co2 O5 2.112696 1_455
Co2 O1 2.112696 1_555
Co2 O3 2.181192 1_455
Co2 O7 2.181192 1_555
Co3 O0 2.061890 1_555
Co3 O4 2.061890 1_545
Co3 O5 2.112696 1_545
Co3 O1 2.112696 1_555
Co3 O6 2.181192 1_555
Co3 O2 2.181192 1_545
O1 Sb0 2.010741 1_556
O2 Sb0 2.038188 1_566
O3 Sb0 2.038188 1_656
O5 Sb0 2.010741 1_665
O6 Sb0 2.038188 1_655
O7 Sb0 2.038188 1_565
