# generated using pymatgen
data_HfIr
_symmetry_space_group_name_H-M   'P 1'
_cell_length_a   8.96573400
_cell_length_b   6.33820600
_cell_length_c   10.70933649
_cell_angle_alpha   71.78588461
_cell_angle_beta   90.00000000
_cell_angle_gamma   90.00000000
_symmetry_Int_Tables_number   1
_chemical_formula_structural   HfIr
_chemical_formula_sum   'Hf16 Ir16'
_cell_volume   578.08327010
_cell_formula_units_Z   16
loop_
 _symmetry_equiv_pos_site_id
 _symmetry_equiv_pos_as_xyz
  1  'x, y, z'
loop_
 _atom_site_type_symbol
 _atom_site_label
 _atom_site_symmetry_multiplicity
 _atom_site_fract_x
 _atom_site_fract_y
 _atom_site_fract_z
 _atom_site_occupancy
  Hf  Hf0_0  1  0.37500000  0.32455650  0.10666400  1
  Hf  Hf0_1  1  0.37500000  0.32455650  0.60666400  1
  Hf  Hf0_2  1  0.37500000  0.82455650  0.10666400  1
  Hf  Hf0_3  1  0.37500000  0.82455650  0.60666400  1
  Hf  Hf0_4  1  0.87500000  0.32455650  0.10666400  1
  Hf  Hf0_5  1  0.87500000  0.32455650  0.60666400  1
  Hf  Hf0_6  1  0.87500000  0.82455650  0.10666400  1
  Hf  Hf0_7  1  0.87500000  0.82455650  0.60666400  1
  Hf  Hf1_0  1  0.12500000  0.17544350  0.39333600  1
  Hf  Hf1_1  1  0.12500000  0.17544350  0.89333600  1
  Hf  Hf1_2  1  0.12500000  0.67544350  0.39333600  1
  Hf  Hf1_3  1  0.12500000  0.67544350  0.89333600  1
  Hf  Hf1_4  1  0.62500000  0.17544350  0.39333600  1
  Hf  Hf1_5  1  0.62500000  0.17544350  0.89333600  1
  Hf  Hf1_6  1  0.62500000  0.67544350  0.39333600  1
  Hf  Hf1_7  1  0.62500000  0.67544350  0.89333600  1
  Ir  Ir0_0  1  0.37500000  0.45147850  0.34203100  1
  Ir  Ir0_1  1  0.37500000  0.45147850  0.84203100  1
  Ir  Ir0_2  1  0.37500000  0.95147850  0.34203100  1
  Ir  Ir0_3  1  0.37500000  0.95147850  0.84203100  1
  Ir  Ir0_4  1  0.87500000  0.45147850  0.34203100  1
  Ir  Ir0_5  1  0.87500000  0.45147850  0.84203100  1
  Ir  Ir0_6  1  0.87500000  0.95147850  0.34203100  1
  Ir  Ir0_7  1  0.87500000  0.95147850  0.84203100  1
  Ir  Ir1_0  1  0.12500000  0.04852150  0.15796900  1
  Ir  Ir1_1  1  0.12500000  0.04852150  0.65796900  1
  Ir  Ir1_2  1  0.12500000  0.54852150  0.15796900  1
  Ir  Ir1_3  1  0.12500000  0.54852150  0.65796900  1
  Ir  Ir1_4  1  0.62500000  0.04852150  0.15796900  1
  Ir  Ir1_5  1  0.62500000  0.04852150  0.65796900  1
  Ir  Ir1_6  1  0.62500000  0.54852150  0.15796900  1
  Ir  Ir1_7  1  0.62500000  0.54852150  0.65796900  1
loop_
_geom_bond_atom_site_label_1
_geom_bond_atom_site_label_2
_geom_bond_distance
_geom_bond_site_symmetry_2
Hf0_0 Ir0_1 2.693274 1_554
Hf0_0 Ir1_4 2.790333 1_555
Hf0_0 Ir1_0 2.790333 1_555
Hf0_0 Ir1_6 2.797959 1_555
Hf0_0 Ir1_2 2.797959 1_555
Hf0_0 Ir0_2 2.866886 1_545
Hf0_0 Ir0_0 2.875468 1_555
Hf0_1 Ir0_0 2.693274 1_555
Hf0_1 Ir1_5 2.790333 1_555
Hf0_1 Ir1_1 2.790333 1_555
Hf0_1 Ir1_7 2.797959 1_555
Hf0_1 Ir1_3 2.797959 1_555
Hf0_1 Ir0_3 2.866886 1_545
Hf0_1 Ir0_1 2.875468 1_555
Hf0_2 Ir0_3 2.693274 1_554
Hf0_2 Ir1_6 2.790333 1_555
Hf0_2 Ir1_2 2.790333 1_555
Hf0_2 Ir1_4 2.797959 1_565
Hf0_2 Ir1_0 2.797959 1_565
Hf0_2 Ir0_0 2.866886 1_555
Hf0_2 Ir0_2 2.875468 1_555
Hf0_3 Ir0_2 2.693274 1_555
Hf0_3 Ir1_7 2.790333 1_555
Hf0_3 Ir1_3 2.790333 1_555
Hf0_3 Ir1_5 2.797959 1_565
Hf0_3 Ir1_1 2.797959 1_565
Hf0_3 Ir0_1 2.866886 1_555
Hf0_3 Ir0_3 2.875468 1_555
Hf0_4 Ir0_5 2.693274 1_554
Hf0_4 Ir1_0 2.790333 1_655
Hf0_4 Ir1_4 2.790333 1_555
Hf0_4 Ir1_2 2.797959 1_655
Hf0_4 Ir1_6 2.797959 1_555
Hf0_4 Ir0_6 2.866886 1_545
Hf0_4 Ir0_4 2.875468 1_555
Hf0_5 Ir0_4 2.693274 1_555
Hf0_5 Ir1_1 2.790333 1_655
Hf0_5 Ir1_5 2.790333 1_555
Hf0_5 Ir1_3 2.797959 1_655
Hf0_5 Ir1_7 2.797959 1_555
Hf0_5 Ir0_7 2.866886 1_545
Hf0_5 Ir0_5 2.875468 1_555
Hf0_6 Ir0_7 2.693274 1_554
Hf0_6 Ir1_2 2.790333 1_655
Hf0_6 Ir1_6 2.790333 1_555
Hf0_6 Ir1_0 2.797959 1_665
Hf0_6 Ir1_4 2.797959 1_565
Hf0_6 Ir0_4 2.866886 1_555
Hf0_6 Ir0_6 2.875468 1_555
Hf0_7 Ir0_6 2.693274 1_555
Hf0_7 Ir1_3 2.790333 1_655
Hf0_7 Ir1_7 2.790333 1_555
Hf0_7 Ir1_1 2.797959 1_665
Hf0_7 Ir1_5 2.797959 1_565
Hf0_7 Ir0_5 2.866886 1_555
Hf0_7 Ir0_7 2.875468 1_555
Hf1_0 Ir1_1 2.693274 1_555
Hf1_0 Ir0_4 2.790333 1_455
Hf1_0 Ir0_0 2.790333 1_555
Hf1_0 Ir0_6 2.797959 1_445
Hf1_0 Ir0_2 2.797959 1_545
Hf1_0 Ir1_2 2.866886 1_555
Hf1_0 Ir1_0 2.875468 1_555
Hf1_1 Ir1_0 2.693274 1_556
Hf1_1 Ir0_5 2.790333 1_455
Hf1_1 Ir0_1 2.790333 1_555
Hf1_1 Ir0_7 2.797959 1_445
Hf1_1 Ir0_3 2.797959 1_545
Hf1_1 Ir1_3 2.866886 1_555
Hf1_1 Ir1_1 2.875468 1_555
Hf1_2 Ir1_3 2.693274 1_555
Hf1_2 Ir0_6 2.790333 1_455
Hf1_2 Ir0_2 2.790333 1_555
Hf1_2 Ir0_4 2.797959 1_455
Hf1_2 Ir0_0 2.797959 1_555
Hf1_2 Ir1_0 2.866886 1_565
Hf1_2 Ir1_2 2.875468 1_555
Hf1_3 Ir1_2 2.693274 1_556
Hf1_3 Ir0_7 2.790333 1_455
Hf1_3 Ir0_3 2.790333 1_555
Hf1_3 Ir0_5 2.797959 1_455
Hf1_3 Ir0_1 2.797959 1_555
Hf1_3 Ir1_1 2.866886 1_565
Hf1_3 Ir1_3 2.875468 1_555
Hf1_4 Ir1_5 2.693274 1_555
Hf1_4 Ir0_0 2.790333 1_555
Hf1_4 Ir0_4 2.790333 1_555
Hf1_4 Ir0_2 2.797959 1_545
Hf1_4 Ir0_6 2.797959 1_545
Hf1_4 Ir1_6 2.866886 1_555
Hf1_4 Ir1_4 2.875468 1_555
Hf1_5 Ir1_4 2.693274 1_556
Hf1_5 Ir0_1 2.790333 1_555
Hf1_5 Ir0_5 2.790333 1_555
Hf1_5 Ir0_3 2.797959 1_545
Hf1_5 Ir0_7 2.797959 1_545
Hf1_5 Ir1_7 2.866886 1_555
Hf1_5 Ir1_5 2.875468 1_555
Hf1_6 Ir1_7 2.693274 1_555
Hf1_6 Ir0_2 2.790333 1_555
Hf1_6 Ir0_6 2.790333 1_555
Hf1_6 Ir0_0 2.797959 1_555
Hf1_6 Ir0_4 2.797959 1_555
Hf1_6 Ir1_4 2.866886 1_565
Hf1_6 Ir1_6 2.875468 1_555
Hf1_7 Ir1_6 2.693274 1_556
Hf1_7 Ir0_3 2.790333 1_555
Hf1_7 Ir0_7 2.790333 1_555
Hf1_7 Ir0_1 2.797959 1_555
Hf1_7 Ir0_5 2.797959 1_555
Hf1_7 Ir1_5 2.866886 1_565
Hf1_7 Ir1_7 2.875468 1_555
Ir0_0 Ir1_6 2.920611 1_555
Ir0_0 Ir1_2 2.920611 1_555
Ir0_0 Ir0_2 3.169103 1_545
Ir0_0 Ir0_2 3.169103 1_555
Ir0_1 Ir1_7 2.920611 1_555
Ir0_1 Ir1_3 2.920611 1_555
Ir0_1 Ir0_3 3.169103 1_545
Ir0_1 Ir0_3 3.169103 1_555
Ir0_2 Ir1_4 2.920611 1_565
Ir0_2 Ir1_0 2.920611 1_565
Ir0_3 Ir1_5 2.920611 1_565
Ir0_3 Ir1_1 2.920611 1_565
Ir0_4 Ir1_2 2.920611 1_655
Ir0_4 Ir1_6 2.920611 1_555
Ir0_4 Ir0_6 3.169103 1_545
Ir0_4 Ir0_6 3.169103 1_555
Ir0_5 Ir1_3 2.920611 1_655
Ir0_5 Ir1_7 2.920611 1_555
Ir0_5 Ir0_7 3.169103 1_555
Ir0_5 Ir0_7 3.169103 1_545
Ir0_6 Ir1_0 2.920611 1_665
Ir0_6 Ir1_4 2.920611 1_565
Ir0_7 Ir1_1 2.920611 1_665
Ir0_7 Ir1_5 2.920611 1_565
Ir1_0 Ir1_2 3.169103 1_555
Ir1_0 Ir1_2 3.169103 1_545
Ir1_1 Ir1_3 3.169103 1_545
Ir1_1 Ir1_3 3.169103 1_555
Ir1_4 Ir1_6 3.169103 1_555
Ir1_4 Ir1_6 3.169103 1_545
Ir1_5 Ir1_7 3.169103 1_545
Ir1_5 Ir1_7 3.169103 1_555
