# generated using pymatgen
data_MgMn2O4
_symmetry_space_group_name_H-M   'P 1'
_cell_length_a   10.86336400
_cell_length_b   5.71970600
_cell_length_c   5.75921720
_cell_angle_alpha   61.16288159
_cell_angle_beta   90.00000000
_cell_angle_gamma   90.00000000
_symmetry_Int_Tables_number   1
_chemical_formula_structural   MgMn2O4
_chemical_formula_sum   'Mg4 Mn8 O16'
_cell_volume   313.47493711
_cell_formula_units_Z   4
loop_
 _symmetry_equiv_pos_site_id
 _symmetry_equiv_pos_as_xyz
  1  'x, y, z'
loop_
 _atom_site_type_symbol
 _atom_site_label
 _atom_site_symmetry_multiplicity
 _atom_site_fract_x
 _atom_site_fract_y
 _atom_site_fract_z
 _atom_site_occupancy
  Mg  Mg0  1  0.11354800  0.16124400  0.95720600  1
  Mg  Mg1  1  0.88645200  0.83875600  0.04279400  1
  Mg  Mg2  1  0.38645200  0.16124400  0.45720600  1
  Mg  Mg3  1  0.61354800  0.83875600  0.54279400  1
  Mn  Mn0  1  0.14289100  0.42983900  0.40510000  1
  Mn  Mn1  1  0.12121000  0.87801200  0.50604700  1
  Mn  Mn2  1  0.87879000  0.12198800  0.49395300  1
  Mn  Mn3  1  0.85710900  0.57016100  0.59490000  1
  Mn  Mn4  1  0.37879000  0.87801200  0.00604700  1
  Mn  Mn5  1  0.35710900  0.42983900  0.90510000  1
  Mn  Mn6  1  0.64289100  0.57016100  0.09490000  1
  Mn  Mn7  1  0.62121000  0.12198800  0.99395300  1
  O  O0  1  0.20860000  0.07079500  0.66097000  1
  O  O1  1  0.19128100  0.52463700  0.68179600  1
  O  O2  1  0.80871900  0.47536300  0.31820400  1
  O  O3  1  0.79140000  0.92920500  0.33903000  1
  O  O4  1  0.30871900  0.52463700  0.18179600  1
  O  O5  1  0.29140000  0.07079500  0.16097000  1
  O  O6  1  0.70860000  0.92920500  0.83903000  1
  O  O7  1  0.69128100  0.47536300  0.81820400  1
  O  O8  1  0.05474200  0.77207800  0.24386400  1
  O  O9  1  0.05278400  0.22858500  0.26610800  1
  O  O10  1  0.94721600  0.77141500  0.73389200  1
  O  O11  1  0.94525800  0.22792200  0.75613600  1
  O  O12  1  0.55278400  0.77141500  0.23389200  1
  O  O13  1  0.55474200  0.22792200  0.25613600  1
  O  O14  1  0.44525800  0.77207800  0.74386400  1
  O  O15  1  0.44721600  0.22858500  0.76610800  1
loop_
_geom_bond_atom_site_label_1
_geom_bond_atom_site_label_2
_geom_bond_distance
_geom_bond_site_symmetry_2
Mg0 O1 2.090184 1_555
Mg0 O11 2.098262 1_455
Mg0 O9 2.100013 1_556
Mg0 O8 2.131542 1_546
Mg0 O5 2.189075 1_556
Mg0 O0 2.257439 1_555
Mg1 O2 2.090184 1_555
Mg1 O8 2.098262 1_655
Mg1 O10 2.100013 1_554
Mg1 O11 2.131542 1_564
Mg1 O6 2.189075 1_554
Mg1 O3 2.257439 1_555
Mg2 O4 2.090184 1_555
Mg2 O13 2.098262 1_555
Mg2 O15 2.100013 1_555
Mg2 O14 2.131542 1_545
Mg2 O0 2.189075 1_555
Mg2 O5 2.257439 1_555
Mg3 O7 2.090184 1_555
Mg3 O14 2.098262 1_555
Mg3 O12 2.100013 1_555
Mg3 O13 2.131542 1_565
Mg3 O3 2.189075 1_555
Mg3 O6 2.257439 1_555
Mn0 O9 1.952661 1_555
Mn0 O8 1.964089 1_555
Mn0 O1 1.985761 1_555
Mn0 O0 1.994794 1_555
Mn0 O4 2.126146 1_555
Mn1 O1 1.927619 1_555
Mn1 O9 1.951900 1_565
Mn1 O0 1.965263 1_565
Mn1 O8 2.012728 1_555
Mn1 O10 2.212366 1_455
Mn1 O5 2.543579 1_565
Mn2 O2 1.927619 1_555
Mn2 O10 1.951900 1_545
Mn2 O3 1.965263 1_545
Mn2 O11 2.012728 1_555
Mn2 O9 2.212366 1_655
Mn2 O6 2.543579 1_545
Mn3 O10 1.952661 1_555
Mn3 O11 1.964089 1_555
Mn3 O2 1.985761 1_555
Mn3 O3 1.994794 1_555
Mn3 O7 2.126146 1_555
Mn4 O4 1.927619 1_555
Mn4 O15 1.951900 1_564
Mn4 O5 1.965263 1_565
Mn4 O14 2.012728 1_554
Mn4 O12 2.212366 1_555
Mn4 O0 2.543579 1_564
Mn5 O15 1.952661 1_555
Mn5 O14 1.964089 1_555
Mn5 O4 1.985761 1_556
Mn5 O5 1.994794 1_556
Mn5 O1 2.126146 1_555
Mn6 O12 1.952661 1_555
Mn6 O13 1.964089 1_555
Mn6 O7 1.985761 1_554
Mn6 O6 1.994794 1_554
Mn6 O2 2.126146 1_555
Mn7 O7 1.927619 1_555
Mn7 O12 1.951900 1_546
Mn7 O6 1.965263 1_545
Mn7 O13 2.012728 1_556
Mn7 O15 2.212366 1_555
Mn7 O3 2.543579 1_546
