# generated using pymatgen
data_SrLaVFeO6
_symmetry_space_group_name_H-M   'P 1'
_cell_length_a   5.53641069
_cell_length_b   5.56258828
_cell_length_c   9.66873168
_cell_angle_alpha   73.14118779
_cell_angle_beta   90.16250971
_cell_angle_gamma   60.18501555
_symmetry_Int_Tables_number   1
_chemical_formula_structural   SrLaVFeO6
_chemical_formula_sum   'Sr2 La2 V2 Fe2 O12'
_cell_volume   243.34165299
_cell_formula_units_Z   2
loop_
 _symmetry_equiv_pos_site_id
 _symmetry_equiv_pos_as_xyz
  1  'x, y, z'
loop_
 _atom_site_type_symbol
 _atom_site_label
 _atom_site_symmetry_multiplicity
 _atom_site_fract_x
 _atom_site_fract_y
 _atom_site_fract_z
 _atom_site_occupancy
  Sr  Sr0  1  0.37589000  0.24844400  0.12673300  1
  Sr  Sr1  1  0.87373100  0.25208100  0.62436500  1
  La  La0  1  0.11755400  0.76364600  0.37207900  1
  La  La1  1  0.62800800  0.74485600  0.87870200  1
  V  V0  1  0.24994400  0.49988500  0.74967200  1
  V  V1  1  0.74937000  0.50087200  0.25068100  1
  Fe  Fe0  1  0.99983600  0.00043000  0.99776100  1
  Fe  Fe1  1  0.49990000  0.00018500  0.50256700  1
  O  O0  1  0.63160700  0.24992700  0.37367800  1
  O  O1  1  0.12699500  0.25390000  0.87223900  1
  O  O2  1  0.62441400  0.75075200  0.37327000  1
  O  O3  1  0.12842100  0.74329200  0.87357400  1
  O  O4  1  0.11738300  0.25043900  0.37361100  1
  O  O5  1  0.61982200  0.25363800  0.87220400  1
  O  O6  1  0.87169900  0.74491100  0.12467100  1
  O  O7  1  0.37229000  0.74702700  0.62799300  1
  O  O8  1  0.87750100  0.24576000  0.12766000  1
  O  O9  1  0.37072300  0.25830800  0.62582200  1
  O  O10  1  0.38482900  0.74455800  0.12459200  1
  O  O11  1  0.88008400  0.74709100  0.62812600  1
loop_
_geom_bond_atom_site_label_1
_geom_bond_atom_site_label_2
_geom_bond_distance
_geom_bond_site_symmetry_2
La0 O8 2.702794 1_465
La0 O0 2.709829 1_465
La0 O4 2.711692 1_565
La0 O2 2.766556 1_455
La0 O2 2.771127 1_555
La0 O7 2.799628 1_555
La0 O6 2.802327 1_455
La0 O11 2.805791 1_455
La0 O10 2.817452 1_555
La0 O9 2.819172 1_555
La0 O4 2.850970 1_555
La0 O0 2.855311 1_555
La1 O6 2.731076 1_556
La1 O10 2.735501 1_556
La1 O3 2.766807 1_655
La1 O3 2.770603 1_555
La1 O1 2.773395 1_655
La1 O5 2.773978 1_555
La1 O8 2.775133 1_556
La1 O5 2.790165 1_565
La1 O1 2.793195 1_565
La1 O7 2.797684 1_555
La1 O11 2.799381 1_555
La1 O9 2.837033 1_565
Fe0 O5 1.982680 1_555
Fe0 O1 1.988937 1_655
Fe0 O8 1.994580 1_556
Fe0 O3 1.995727 1_645
Fe0 O6 2.006287 1_546
Fe0 O10 2.007196 1_646
Fe1 O11 1.983350 1_545
Fe1 O7 1.989102 1_545
Fe1 O9 1.992358 1_555
Fe1 O0 2.005724 1_555
Fe1 O2 2.005755 1_545
Fe1 O4 2.006020 1_555
O0 V1 1.932466 1_555
O0 Sr1 2.772434 1_555
O0 Sr0 2.776534 1_555
O1 V0 1.931383 1_555
O1 Sr1 2.778331 1_455
O1 Sr0 2.801847 1_556
O2 V1 1.954373 1_555
O2 Sr0 2.757783 1_565
O2 Sr1 2.785910 1_555
O3 V0 1.939223 1_555
O3 Sr0 2.787147 1_556
O3 Sr1 2.803738 1_465
O4 V1 1.925634 1_455
O4 Sr1 2.777946 1_455
O4 Sr0 2.786605 1_555
O5 V0 1.931057 1_555
O5 Sr1 2.781624 1_555
O5 Sr0 2.810250 1_556
O6 V1 1.935317 1_555
O6 Sr0 2.778679 1_655
O6 Sr0 2.787091 1_565
O7 V0 1.930089 1_555
O7 Sr1 2.782796 1_465
O7 Sr1 2.782886 1_555
O8 V1 1.978542 1_555
O8 Sr0 2.766766 1_655
O8 Sr0 2.769707 1_555
O9 V0 1.931635 1_555
O9 Sr1 2.767927 1_555
O9 Sr1 2.768984 1_455
O10 V1 1.924598 1_555
O10 Sr0 2.778738 1_555
O10 Sr0 2.784763 1_565
O11 V0 1.927184 1_655
O11 Sr1 2.781335 1_565
O11 Sr1 2.781888 1_555
