# generated using pymatgen
data_Na2SO9
_symmetry_space_group_name_H-M   'P 1'
_cell_length_a   8.08136000
_cell_length_b   8.08136000
_cell_length_c   11.65938000
_cell_angle_alpha   90.00000000
_cell_angle_beta   90.00000000
_cell_angle_gamma   90.00000000
_symmetry_Int_Tables_number   1
_chemical_formula_structural   Na2SO9
_chemical_formula_sum   'Na8 S4 O36'
_cell_volume   761.45521319
_cell_formula_units_Z   4
loop_
 _symmetry_equiv_pos_site_id
 _symmetry_equiv_pos_as_xyz
  1  'x, y, z'
loop_
 _atom_site_type_symbol
 _atom_site_label
 _atom_site_symmetry_multiplicity
 _atom_site_fract_x
 _atom_site_fract_y
 _atom_site_fract_z
 _atom_site_occupancy
  Na  Na0  1  0.79233900  0.50000000  0.75000000  1
  Na  Na1  1  0.20766100  0.50000000  0.25000000  1
  Na  Na2  1  0.50000000  0.79233900  0.50000000  1
  Na  Na3  1  0.50000000  0.20766100  0.00000000  1
  Na  Na4  1  0.00000000  0.84005900  0.00000000  1
  Na  Na5  1  0.00000000  0.15994100  0.50000000  1
  Na  Na6  1  0.15994100  0.00000000  0.75000000  1
  Na  Na7  1  0.84005900  0.00000000  0.25000000  1
  S  S0  1  0.61844200  0.50000000  0.25000000  1
  S  S1  1  0.38155800  0.50000000  0.75000000  1
  S  S2  1  0.50000000  0.61844200  0.00000000  1
  S  S3  1  0.50000000  0.38155800  0.50000000  1
  O  O0  1  0.50809500  0.50809500  0.62500000  1
  O  O1  1  0.49190500  0.49190500  0.12500000  1
  O  O2  1  0.49190500  0.50809500  0.37500000  1
  O  O3  1  0.50809500  0.49190500  0.87500000  1
  O  O4  1  0.03857300  0.75268100  0.23163400  1
  O  O5  1  0.96142700  0.24731900  0.73163400  1
  O  O6  1  0.24731900  0.03857300  0.98163400  1
  O  O7  1  0.75268100  0.96142700  0.48163400  1
  O  O8  1  0.96142700  0.75268100  0.76836600  1
  O  O9  1  0.03857300  0.24731900  0.26836600  1
  O  O10  1  0.75268100  0.03857300  0.01836600  1
  O  O11  1  0.24731900  0.96142700  0.51836600  1
  O  O12  1  0.94583500  0.51616800  0.53886300  1
  O  O13  1  0.05416500  0.48383200  0.03886300  1
  O  O14  1  0.48383200  0.94583500  0.28886300  1
  O  O15  1  0.51616800  0.05416500  0.78886300  1
  O  O16  1  0.05416500  0.51616800  0.46113700  1
  O  O17  1  0.94583500  0.48383200  0.96113700  1
  O  O18  1  0.51616800  0.94583500  0.71113700  1
  O  O19  1  0.48383200  0.05416500  0.21113700  1
  O  O20  1  0.65425600  0.70614400  0.00236600  1
  O  O21  1  0.34574400  0.29385600  0.50236600  1
  O  O22  1  0.29385600  0.65425600  0.75236600  1
  O  O23  1  0.70614400  0.34574400  0.25236600  1
  O  O24  1  0.34574400  0.70614400  0.99763400  1
  O  O25  1  0.65425600  0.29385600  0.49763400  1
  O  O26  1  0.70614400  0.65425600  0.24763400  1
  O  O27  1  0.29385600  0.34574400  0.74763400  1
  O  O28  1  0.83981600  0.83295500  0.44802900  1
  O  O29  1  0.16018400  0.16704500  0.94802900  1
  O  O30  1  0.16704500  0.83981600  0.19802900  1
  O  O31  1  0.83295500  0.16018400  0.69802900  1
  O  O32  1  0.16018400  0.83295500  0.55197100  1
  O  O33  1  0.83981600  0.16704500  0.05197100  1
  O  O34  1  0.83295500  0.83981600  0.80197100  1
  O  O35  1  0.16704500  0.16018400  0.30197100  1
loop_
_geom_bond_atom_site_label_1
_geom_bond_atom_site_label_2
_geom_bond_distance
_geom_bond_site_symmetry_2
Na0 O8 2.466345 1_555
Na0 O5 2.466345 1_555
Na0 O3 2.721200 1_555
Na0 O0 2.721200 1_555
Na0 O17 2.759692 1_555
Na0 O12 2.759692 1_555
Na0 O34 2.831323 1_555
Na0 O31 2.831323 1_555
Na1 O4 2.466345 1_555
Na1 O9 2.466345 1_555
Na1 O1 2.721200 1_555
Na1 O2 2.721200 1_555
Na1 O16 2.759692 1_555
Na1 O13 2.759692 1_555
Na1 O35 2.831323 1_555
Na1 O30 2.831323 1_555
Na2 O7 2.466345 1_555
Na2 O11 2.466345 1_555
Na2 O2 2.721200 1_555
Na2 O0 2.721200 1_555
Na2 O18 2.759692 1_555
Na2 O14 2.759692 1_555
Na2 O32 2.831323 1_555
Na2 O28 2.831323 1_555
Na3 O10 2.466345 1_555
Na3 O6 2.466345 1_554
Na3 O3 2.721200 1_554
Na3 O1 2.721200 1_555
Na3 O19 2.759692 1_555
Na3 O15 2.759692 1_554
Na3 O33 2.831323 1_555
Na3 O29 2.831323 1_554
Na4 O6 2.571811 1_564
Na4 O10 2.571811 1_465
Na4 O30 2.674578 1_555
Na4 O34 2.674578 1_454
Na4 O4 2.808847 1_555
Na4 O8 2.808847 1_454
Na4 O13 2.946931 1_555
Na4 O17 2.946931 1_454
Na4 O20 2.996472 1_455
Na4 O24 2.996472 1_554
Na5 O11 2.571811 1_545
Na5 O7 2.571811 1_445
Na5 O31 2.674578 1_455
Na5 O35 2.674578 1_555
Na5 O9 2.808847 1_555
Na5 O5 2.808847 1_455
Na5 O12 2.946931 1_455
Na5 O16 2.946931 1_555
Na5 O25 2.996472 1_455
Na5 O21 2.996472 1_555
Na6 O5 2.571811 1_455
Na6 O8 2.571811 1_445
Na6 O32 2.674578 1_545
Na6 O29 2.674578 1_555
Na6 O6 2.808847 1_555
Na6 O11 2.808847 1_545
Na6 O18 2.946931 1_545
Na6 O15 2.946931 1_555
Na6 O22 2.996472 1_545
Na6 O27 2.996472 1_555
Na7 O9 2.571811 1_655
Na7 O4 2.571811 1_645
Na7 O28 2.674578 1_545
Na7 O33 2.674578 1_555
Na7 O7 2.808847 1_545
Na7 O10 2.808847 1_555
Na7 O19 2.946931 1_555
Na7 O14 2.946931 1_545
Na7 O23 2.996472 1_555
Na7 O26 2.996472 1_545
O0 S1 1.781587 1_555
O0 S3 1.781587 1_555
O1 S0 1.781587 1_555
O1 S2 1.781587 1_555
O2 S0 1.781587 1_555
O2 S3 1.781587 1_555
O3 S2 1.781587 1_556
O3 S1 1.781587 1_555
O10 O33 1.314264 1_555
O11 O32 1.314264 1_555
O12 O16 1.260034 1_655
O13 O17 1.260034 1_454
O14 O19 1.260034 1_565
O15 O18 1.260034 1_545
O20 S2 1.434258 1_555
O21 S3 1.434258 1_555
O22 S1 1.434258 1_555
O23 S0 1.434258 1_555
O24 S2 1.434258 1_556
O25 S3 1.434258 1_555
O26 S0 1.434258 1_555
O27 S1 1.434258 1_555
O28 O7 1.314264 1_555
O29 O6 1.314264 1_555
O30 O4 1.314264 1_555
O31 O5 1.314264 1_555
O34 O8 1.314264 1_555
O35 O9 1.314264 1_555
