# generated using pymatgen
data_CsTiP2O7
_symmetry_space_group_name_H-M   'P 1'
_cell_length_a   10.40297400
_cell_length_b   7.87492000
_cell_length_c   8.44939582
_cell_angle_alpha   75.01815052
_cell_angle_beta   90.00000000
_cell_angle_gamma   90.00000000
_symmetry_Int_Tables_number   1
_chemical_formula_structural   CsTiP2O7
_chemical_formula_sum   'Cs4 Ti4 P8 O28'
_cell_volume   668.66707327
_cell_formula_units_Z   4
loop_
 _symmetry_equiv_pos_site_id
 _symmetry_equiv_pos_as_xyz
  1  'x, y, z'
loop_
 _atom_site_type_symbol
 _atom_site_label
 _atom_site_symmetry_multiplicity
 _atom_site_fract_x
 _atom_site_fract_y
 _atom_site_fract_z
 _atom_site_occupancy
  Cs  Cs0  1  0.30211900  0.19927400  0.45362900  1
  Cs  Cs1  1  0.80211900  0.80072600  0.04637100  1
  Cs  Cs2  1  0.69788100  0.80072600  0.54637100  1
  Cs  Cs3  1  0.19788100  0.19927400  0.95362900  1
  Ti  Ti0  1  0.89768300  0.24040900  0.24220600  1
  Ti  Ti1  1  0.39768300  0.75959100  0.25779400  1
  Ti  Ti2  1  0.10231700  0.75959100  0.75779400  1
  Ti  Ti3  1  0.60231700  0.24040900  0.74220600  1
  P  P0  1  0.62821600  0.42481000  0.31833400  1
  P  P1  1  0.12821600  0.57519000  0.18166600  1
  P  P2  1  0.37178400  0.57519000  0.68166600  1
  P  P3  1  0.87178400  0.42481000  0.81833400  1
  P  P4  1  0.59659000  0.13000000  0.16934800  1
  P  P5  1  0.09659000  0.87000000  0.33065200  1
  P  P6  1  0.40341000  0.87000000  0.83065200  1
  P  P7  1  0.90341000  0.13000000  0.66934800  1
  O  O0  1  0.56794400  0.60716500  0.27298800  1
  O  O1  1  0.06794400  0.39283500  0.22701200  1
  O  O2  1  0.43205600  0.39283500  0.72701200  1
  O  O3  1  0.93205600  0.60716500  0.77298800  1
  O  O4  1  0.77071900  0.43429500  0.27069700  1
  O  O5  1  0.27071900  0.56570500  0.22930300  1
  O  O6  1  0.22928100  0.56570500  0.72930300  1
  O  O7  1  0.72928100  0.43429500  0.77069700  1
  O  O8  1  0.60434500  0.32271400  0.49695200  1
  O  O9  1  0.10434500  0.67728600  0.00304800  1
  O  O10  1  0.39565500  0.67728600  0.50304800  1
  O  O11  1  0.89565500  0.32271400  0.99695200  1
  O  O12  1  0.55217200  0.31392200  0.20765600  1
  O  O13  1  0.05217200  0.68607800  0.29234400  1
  O  O14  1  0.44782800  0.68607800  0.79234400  1
  O  O15  1  0.94782800  0.31392200  0.70765600  1
  O  O16  1  0.49603000  0.01038200  0.73696300  1
  O  O17  1  0.99603000  0.98961800  0.76303700  1
  O  O18  1  0.50397000  0.98961800  0.26303700  1
  O  O19  1  0.00397000  0.01038200  0.23696300  1
  O  O20  1  0.76495500  0.09084400  0.73112800  1
  O  O21  1  0.26495500  0.90915600  0.76887200  1
  O  O22  1  0.23504500  0.90915600  0.26887200  1
  O  O23  1  0.73504500  0.09084400  0.23112700  1
  O  O24  1  0.58636600  0.16099700  0.98383600  1
  O  O25  1  0.08636600  0.83900300  0.51616400  1
  O  O26  1  0.41363400  0.83900300  0.01616400  1
  O  O27  1  0.91363400  0.16099700  0.48383600  1
loop_
_geom_bond_atom_site_label_1
_geom_bond_atom_site_label_2
_geom_bond_distance
_geom_bond_site_symmetry_2
Cs0 O5 3.032860 1_555
Cs0 O21 3.052479 1_545
Cs0 O22 3.160303 1_545
Cs0 O16 3.189365 1_555
Cs0 O1 3.227295 1_555
Cs0 O12 3.306228 1_555
Cs0 O18 3.332156 1_545
Cs0 O8 3.338855 1_555
Cs0 O2 3.362553 1_555
Cs0 O25 3.548373 1_545
Cs1 O4 3.032860 1_555
Cs1 O20 3.052479 1_564
Cs1 O23 3.160298 1_565
Cs1 O17 3.189365 1_554
Cs1 O0 3.227295 1_555
Cs1 O13 3.306228 1_655
Cs1 O19 3.332156 1_665
Cs1 O9 3.338855 1_655
Cs1 O3 3.362553 1_554
Cs1 O24 3.548373 1_564
Cs2 O7 3.032860 1_555
Cs2 O23 3.052485 1_565
Cs2 O20 3.160303 1_565
Cs2 O18 3.189365 1_555
Cs2 O3 3.227295 1_555
Cs2 O14 3.306228 1_555
Cs2 O16 3.332156 1_565
Cs2 O10 3.338855 1_555
Cs2 O0 3.362553 1_555
Cs2 O27 3.548373 1_565
Cs3 O6 3.032860 1_555
Cs3 O22 3.052479 1_546
Cs3 O21 3.160303 1_545
Cs3 O19 3.189365 1_556
Cs3 O2 3.227295 1_555
Cs3 O15 3.306228 1_455
Cs3 O17 3.332156 1_445
Cs3 O11 3.338855 1_455
Cs3 O1 3.362553 1_556
Cs3 O26 3.548373 1_546
O0 P0 1.522384 1_555
O0 Ti1 2.124818 1_555
O1 P1 1.522384 1_555
O1 Ti0 2.124818 1_455
O2 P2 1.522384 1_555
O2 Ti3 2.124818 1_555
O3 P3 1.522384 1_555
O3 Ti2 2.124818 1_655
O4 P0 1.532879 1_555
O4 Ti0 2.079361 1_555
O5 P1 1.532879 1_555
O5 Ti1 2.079361 1_555
O6 P2 1.532879 1_555
O6 Ti2 2.079361 1_555
O7 P3 1.532879 1_555
O7 Ti3 2.079361 1_555
O8 P0 1.535723 1_555
O8 Ti3 2.005074 1_555
O9 P1 1.535723 1_555
O9 Ti2 2.005074 1_554
O10 P2 1.535723 1_555
O10 Ti1 2.005074 1_555
O11 P3 1.535723 1_555
O11 Ti0 2.005074 1_556
O12 P4 1.630475 1_555
O12 P0 1.638625 1_555
O13 P5 1.630475 1_555
O13 P1 1.638625 1_555
O14 P6 1.630475 1_555
O14 P2 1.638625 1_555
O15 P7 1.630475 1_555
O15 P3 1.638625 1_555
O16 P6 1.524694 1_545
O16 Ti3 2.132453 1_555
O17 P7 1.524694 1_565
O17 Ti2 2.132453 1_655
O18 P4 1.524694 1_565
O18 Ti1 2.132453 1_555
O19 P5 1.524694 1_545
O19 Ti0 2.132453 1_455
O20 P7 1.535883 1_555
O20 Ti3 2.077401 1_555
O21 P6 1.535883 1_555
O21 Ti2 2.077401 1_555
O22 P5 1.535883 1_555
O22 Ti1 2.077401 1_555
O23 P4 1.535881 1_555
O23 Ti0 2.077402 1_555
O24 P4 1.526440 1_556
O24 Ti3 1.981600 1_555
O25 P5 1.526440 1_555
O25 Ti2 1.981600 1_555
O26 P6 1.526440 1_554
O26 Ti1 1.981600 1_555
O27 P7 1.526440 1_555
O27 Ti0 1.981600 1_555
