# generated using pymatgen
data_Er2B6Rh
_symmetry_space_group_name_H-M   'P 1'
_cell_length_a   3.62271046
_cell_length_b   9.11084846
_cell_length_c   11.43720084
_cell_angle_alpha   89.99956324
_cell_angle_beta   89.99999779
_cell_angle_gamma   90.00000618
_symmetry_Int_Tables_number   1
_chemical_formula_structural   Er2B6Rh
_chemical_formula_sum   'Er8 B24 Rh4'
_cell_volume   377.49586223
_cell_formula_units_Z   4
loop_
 _symmetry_equiv_pos_site_id
 _symmetry_equiv_pos_as_xyz
  1  'x, y, z'
loop_
 _atom_site_type_symbol
 _atom_site_label
 _atom_site_symmetry_multiplicity
 _atom_site_fract_x
 _atom_site_fract_y
 _atom_site_fract_z
 _atom_site_occupancy
  Er  Er0  1  0.50000006  0.32260019  0.41361824  1
  Er  Er1  1  0.49999957  0.67742072  0.58639557  1
  Er  Er2  1  0.49999972  0.17743391  0.91358532  1
  Er  Er3  1  0.49999987  0.82255342  0.08639315  1
  Er  Er4  1  0.50000050  0.44438546  0.12624220  1
  Er  Er5  1  0.49999976  0.55564236  0.87375941  1
  Er  Er6  1  0.50000016  0.05563170  0.62624088  1
  Er  Er7  1  0.50000009  0.94433890  0.37376659  1
  B  B0  1  0.00000004  0.11085975  0.46978512  1
  B  B1  1  -0.00000008  0.88912768  0.53022642  1
  B  B2  1  0.00000003  0.38914940  0.96977207  1
  B  B3  1  0.00000001  0.61086382  0.03021946  1
  B  B4  1  0.00000008  0.13349384  0.31586280  1
  B  B5  1  0.00000020  0.86649945  0.68414490  1
  B  B6  1  0.00000000  0.36650995  0.81584668  1
  B  B7  1  0.00000003  0.63349806  0.18415620  1
  B  B8  1  -0.00000012  0.05328350  0.06589166  1
  B  B9  1  0.00000016  0.94670116  0.93409144  1
  B  B10  1  -0.00000004  0.44671650  0.56589872  1
  B  B11  1  -0.00000002  0.55329841  0.43410473  1
  B  B12  1  0.00000009  0.48267597  0.28733008  1
  B  B13  1  -0.00000015  0.51735051  0.71267186  1
  B  B14  1  0.00000001  0.01733869  0.78731492  1
  B  B15  1  0.00000008  0.98264581  0.21268533  1
  B  B16  1  0.00000001  0.24913425  0.07963481  1
  B  B17  1  0.00000014  0.75087093  0.92034991  1
  B  B18  1  -0.00000017  0.25088121  0.57964752  1
  B  B19  1  -0.00000008  0.74910694  0.42036215  1
  B  B20  1  -0.00000010  0.29427793  0.23561742  1
  B  B21  1  0.00000009  0.70572653  0.76438158  1
  B  B22  1  0.00000008  0.20573515  0.73560995  1
  B  B23  1  -0.00000003  0.79424983  0.26439767  1
  Rh  Rh0  1  0.49999997  0.13950856  0.17903528  1
  Rh  Rh1  1  0.50000009  0.86047530  0.82096194  1
  Rh  Rh2  1  0.49999984  0.36052259  0.67898876  1
  Rh  Rh3  1  0.50000009  0.63948962  0.32101226  1
loop_
_geom_bond_atom_site_label_1
_geom_bond_atom_site_label_2
_geom_bond_distance
_geom_bond_site_symmetry_2
Er0 Rh2 3.054701 1_555
Er0 Rh3 3.075270 1_555
Er0 Rh0 3.159277 1_555
Er1 Rh3 3.054855 1_555
Er1 Rh2 3.075294 1_555
Er1 Rh1 3.158938 1_555
Er2 Rh0 3.055601 1_556
Er2 Rh1 3.075946 1_545
Er2 Rh2 3.159374 1_555
Er3 Rh1 3.055385 1_554
Er3 Rh0 3.075990 1_565
Er3 Rh3 3.159473 1_555
Er4 Rh0 2.842552 1_555
Er4 Rh3 2.849931 1_555
Er5 Rh1 2.842171 1_555
Er5 Rh2 2.850025 1_555
Er6 Rh2 2.842576 1_555
Er6 Rh1 2.849769 1_545
Er7 Rh3 2.842221 1_555
Er7 Rh0 2.849936 1_565
B0 B4 1.772476 1_555
B0 B18 1.790617 1_555
B0 B1 2.135163 1_545
B0 Er6 2.595416 1_455
B0 Er6 2.595417 1_555
B0 Er7 2.605527 1_445
B0 Er7 2.605527 1_545
B0 Er0 2.723090 1_555
B0 Er0 2.723090 1_455
B1 B5 1.772426 1_555
B1 B19 1.790627 1_555
B1 Er7 2.595419 1_455
B1 Er7 2.595419 1_555
B1 Er6 2.605418 1_465
B1 Er6 2.605419 1_565
B1 Er1 2.722879 1_555
B1 Er1 2.722881 1_455
B2 B6 1.772519 1_555
B2 B3 2.135044 1_556
B2 Er4 2.595548 1_456
B2 Er4 2.595551 1_556
B2 Er5 2.605340 1_555
B2 Er5 2.605342 1_455
B2 Er2 2.722989 1_555
B2 Er2 2.722990 1_455
B3 B7 1.772643 1_555
B3 Er5 2.595444 1_554
B3 Er5 2.595445 1_454
B3 Er4 2.605311 1_455
B3 Er4 2.605314 1_555
B3 Er3 2.722787 1_555
B3 Er3 2.722787 1_455
B4 Rh0 2.394367 1_555
B4 Rh0 2.394368 1_455
B4 Er7 2.586417 1_445
B4 Er7 2.586417 1_545
B4 Er0 2.738525 1_555
B4 Er0 2.738525 1_455
B5 Rh1 2.394291 1_555
B5 Rh1 2.394291 1_455
B5 Er6 2.586279 1_565
B5 Er6 2.586280 1_465
B5 Er1 2.738337 1_555
B5 Er1 2.738340 1_455
B6 Rh2 2.394589 1_555
B6 Rh2 2.394590 1_455
B6 Er5 2.586312 1_555
B6 Er5 2.586314 1_455
B6 Er2 2.738262 1_555
B6 Er2 2.738263 1_455
B7 Rh3 2.394576 1_455
B7 Rh3 2.394577 1_555
B7 Er4 2.586195 1_455
B7 Er4 2.586198 1_555
B7 Er3 2.738257 1_555
B7 Er3 2.738258 1_455
B8 B9 1.793127 1_544
B8 Rh0 2.360661 1_455
B8 Rh0 2.360661 1_555
B8 Er2 2.755869 1_554
B8 Er2 2.755870 1_454
B8 Er3 2.784780 1_445
B8 Er3 2.784781 1_545
B9 Rh1 2.360575 1_555
B9 Rh1 2.360575 1_455
B9 Er3 2.755826 1_556
B9 Er3 2.755827 1_456
B9 Er2 2.784802 1_565
B9 Er2 2.784804 1_465
B10 B18 1.791140 1_555
B10 B11 1.793052 1_555
B10 B13 1.797804 1_555
B10 Rh2 2.360224 1_555
B10 Rh2 2.360224 1_455
B10 Er0 2.755566 1_455
B10 Er0 2.755567 1_555
B10 Er1 2.784600 1_555
B10 Er1 2.784602 1_455
B11 B19 1.790891 1_555
B11 B12 1.797783 1_555
B11 Rh3 2.360231 1_455
B11 Rh3 2.360231 1_555
B11 Er1 2.755663 1_555
B11 Er1 2.755665 1_455
B11 Er0 2.784549 1_455
B11 Er0 2.784550 1_555
B12 B7 1.811249 1_555
B12 B20 1.815511 1_555
B12 Rh3 2.338935 1_555
B12 Rh3 2.338935 1_455
B12 Er4 2.607131 1_455
B12 Er4 2.607133 1_555
B12 Er0 2.737558 1_455
B12 Er0 2.737558 1_555
B13 B6 1.811383 1_555
B13 B21 1.815311 1_555
B13 Rh2 2.339016 1_455
B13 Rh2 2.339016 1_555
B13 Er5 2.607131 1_555
B13 Er5 2.607131 1_455
B13 Er1 2.737459 1_555
B13 Er1 2.737460 1_455
B14 B9 1.797843 1_545
B14 B5 1.811352 1_545
B14 B22 1.815461 1_555
B14 Rh1 2.339142 1_445
B14 Rh1 2.339143 1_545
B14 Er6 2.607019 1_455
B14 Er6 2.607020 1_555
B14 Er2 2.737556 1_555
B14 Er2 2.737558 1_455
B15 B8 1.798027 1_565
B15 B4 1.811468 1_565
B15 B23 1.815484 1_555
B15 Rh0 2.339144 1_565
B15 Rh0 2.339145 1_465
B15 Er7 2.607095 1_455
B15 Er7 2.607095 1_555
B15 Er3 2.737674 1_555
B15 Er3 2.737675 1_455
B16 B2 1.790565 1_554
B16 B8 1.791277 1_555
B16 B20 1.830805 1_555
B16 Rh0 2.360300 1_455
B16 Rh0 2.360300 1_555
B16 Er4 2.594160 1_455
B16 Er4 2.594162 1_555
B16 Er2 2.704533 1_554
B16 Er2 2.704534 1_454
B17 B3 1.790568 1_556
B17 B9 1.791090 1_555
B17 B21 1.830648 1_555
B17 Rh1 2.360149 1_555
B17 Rh1 2.360149 1_455
B17 Er5 2.593979 1_555
B17 Er5 2.593981 1_455
B17 Er3 2.704443 1_556
B17 Er3 2.704445 1_456
B18 B22 1.830579 1_555
B18 Rh2 2.360042 1_555
B18 Rh2 2.360042 1_455
B18 Er6 2.594111 1_455
B18 Er6 2.594113 1_555
B18 Er0 2.704405 1_455
B18 Er0 2.704406 1_555
B19 B23 1.830596 1_555
B19 Rh3 2.359996 1_455
B19 Rh3 2.359997 1_555
B19 Er7 2.594007 1_455
B19 Er7 2.594008 1_555
B19 Er1 2.704366 1_555
B19 Er1 2.704367 1_455
B20 B4 1.728634 1_555
B20 Rh0 2.384982 1_455
B20 Rh0 2.384982 1_555
B20 Er4 2.591561 1_455
B20 Er4 2.591564 1_555
B20 Er0 2.737190 1_455
B20 Er0 2.737190 1_555
B21 B5 1.728495 1_555
B21 Rh1 2.384866 1_555
B21 Rh1 2.384866 1_455
B21 Er5 2.591464 1_555
B21 Er5 2.591466 1_455
B21 Er1 2.737049 1_555
B21 Er1 2.737051 1_455
B22 B6 1.728522 1_555
B22 Rh2 2.385194 1_555
B22 Rh2 2.385196 1_455
B22 Er6 2.591519 1_455
B22 Er6 2.591519 1_555
B22 Er2 2.736952 1_555
B22 Er2 2.736953 1_455
B23 B7 1.728373 1_555
B23 Rh3 2.385027 1_455
B23 Rh3 2.385028 1_555
B23 Er7 2.591449 1_455
B23 Er7 2.591449 1_555
B23 Er3 2.737202 1_555
B23 Er3 2.737203 1_455
