# generated using pymatgen
data_Dy2Fe15Co2C
_symmetry_space_group_name_H-M   'P 1'
_cell_length_a   6.43637520
_cell_length_b   6.43637520
_cell_length_c   6.39349766
_cell_angle_alpha   83.55985834
_cell_angle_beta   83.55985834
_cell_angle_gamma   83.70988064
_symmetry_Int_Tables_number   1
_chemical_formula_structural   Dy2Fe15Co2C
_chemical_formula_sum   'Dy2 Fe15 Co2 C1'
_cell_volume   260.26619757
_cell_formula_units_Z   1
loop_
 _symmetry_equiv_pos_site_id
 _symmetry_equiv_pos_as_xyz
  1  'x, y, z'
loop_
 _atom_site_type_symbol
 _atom_site_label
 _atom_site_symmetry_multiplicity
 _atom_site_fract_x
 _atom_site_fract_y
 _atom_site_fract_z
 _atom_site_occupancy
  Dy  Dy0  1  0.65974000  0.65974000  0.65059500  1
  Dy  Dy1  1  0.34026000  0.34026000  0.34940500  1
  Fe  Fe0  1  0.34310200  0.34310200  0.84466200  1
  Fe  Fe1  1  0.34683600  0.85463000  0.34749800  1
  Fe  Fe2  1  0.85463000  0.34683600  0.34749800  1
  Fe  Fe3  1  0.65689800  0.65689800  0.15533800  1
  Fe  Fe4  1  0.65316400  0.14537000  0.65250200  1
  Fe  Fe5  1  0.14537000  0.65316400  0.65250200  1
  Fe  Fe6  1  0.00000000  0.00000000  0.50000000  1
  Fe  Fe7  1  0.00000000  0.50000000  0.00000000  1
  Fe  Fe8  1  0.50000000  0.00000000  0.00000000  1
  Fe  Fe9  1  0.28651400  0.71348600  0.00000000  1
  Fe  Fe10  1  0.71674600  0.00348600  0.28336700  1
  Fe  Fe11  1  0.99651400  0.28325400  0.71663300  1
  Fe  Fe12  1  0.28325400  0.99651400  0.71663300  1
  Fe  Fe13  1  0.00348600  0.71674600  0.28336700  1
  Fe  Fe14  1  0.71348600  0.28651400  0.00000000  1
  Co  Co0  1  0.90488800  0.90488800  0.90531900  1
  Co  Co1  1  0.09511200  0.09511200  0.09468100  1
  C  C0  1  0.50000000  0.50000000  0.00000000  1
loop_
_geom_bond_atom_site_label_1
_geom_bond_atom_site_label_2
_geom_bond_distance
_geom_bond_site_symmetry_2
Dy0 Fe1 3.026787 1_555
Dy0 Fe2 3.026787 1_555
Dy0 Fe10 3.059658 1_565
Dy0 Fe13 3.059658 1_655
Dy0 Fe11 3.094110 1_555
Dy0 Fe12 3.094110 1_555
Dy0 Fe5 3.122718 1_655
Dy0 Fe4 3.122718 1_565
Dy0 Fe6 3.259529 1_665
Dy0 Fe7 3.306453 1_656
Dy0 Fe8 3.306453 1_566
Dy0 Fe4 3.314222 1_555
Dy0 Fe5 3.314222 1_555
Dy1 Fe4 3.026787 1_555
Dy1 Fe5 3.026787 1_555
Dy1 Fe12 3.059658 1_545
Dy1 Fe11 3.059658 1_455
Dy1 Fe13 3.094110 1_555
Dy1 Fe10 3.094110 1_555
Dy1 Fe1 3.122718 1_545
Dy1 Fe2 3.122718 1_455
Dy1 Fe6 3.259529 1_555
Dy1 Fe7 3.306453 1_555
Dy1 Fe8 3.306453 1_555
Dy1 Fe2 3.314222 1_555
Dy1 Fe1 3.314222 1_555
Fe0 Fe8 2.475320 1_556
Fe0 Fe7 2.475320 1_556
Fe0 Fe4 2.521114 1_555
Fe0 Fe5 2.521114 1_555
Fe0 Fe12 2.542323 1_545
Fe0 Fe11 2.542323 1_455
Fe1 Fe8 2.455162 1_565
Fe1 Fe6 2.463384 1_565
Fe1 Fe3 2.521114 1_555
Fe1 Fe5 2.529730 1_555
Fe1 Fe13 2.560112 1_555
Fe1 Fe9 2.575981 1_555
Fe1 Fe12 2.599284 1_555
Fe1 Fe10 2.635788 1_565
Fe2 Fe7 2.455162 1_655
Fe2 Fe6 2.463384 1_655
Fe2 Fe3 2.521114 1_555
Fe2 Fe4 2.529730 1_555
Fe3 Fe8 2.475320 1_565
Fe3 Fe7 2.475320 1_655
Fe4 Fe8 2.455162 1_556
Fe4 Fe6 2.463384 1_655
Fe5 Fe7 2.455162 1_556
Fe5 Fe6 2.463384 1_565
Fe5 Fe9 2.575981 1_556
Fe7 Fe9 2.417454 1_555
Fe8 Fe9 2.417454 1_545
Fe10 Fe6 2.406900 1_655
Fe10 Fe8 2.410794 1_555
Fe10 Fe14 2.420951 1_555
Fe10 Fe13 2.462897 1_645
Fe10 Fe3 2.542323 1_545
Fe10 Fe2 2.560112 1_555
Fe10 Fe4 2.599284 1_555
Fe11 Fe6 2.406900 1_655
Fe11 Fe7 2.410794 1_656
Fe11 Fe14 2.420951 1_556
Fe11 Fe12 2.462897 1_645
Fe11 Fe4 2.560112 1_555
Fe11 Fe2 2.599284 1_555
Fe11 Fe5 2.635788 1_655
Fe12 Fe6 2.406900 1_565
Fe12 Fe8 2.410794 1_566
Fe12 Fe9 2.420951 1_556
Fe12 Fe5 2.560112 1_555
Fe12 Fe4 2.635788 1_565
Fe13 Fe6 2.406900 1_565
Fe13 Fe7 2.410794 1_555
Fe13 Fe9 2.420951 1_555
Fe13 Fe3 2.542323 1_455
Fe13 Fe5 2.599284 1_555
Fe13 Fe2 2.635788 1_455
Fe14 Fe8 2.417454 1_555
Fe14 Fe7 2.417454 1_655
Fe14 Fe2 2.575981 1_555
Fe14 Fe4 2.575981 1_554
Co0 Co1 2.336102 1_666
Co0 Fe6 2.614435 1_665
Co0 Fe7 2.629098 1_656
Co0 Fe8 2.629098 1_566
Co0 Fe3 2.657848 1_556
Co0 Fe4 2.666499 1_565
Co0 Fe5 2.666499 1_655
Co0 Fe11 2.688843 1_565
Co0 Fe12 2.688843 1_655
Co0 Fe10 2.688935 1_566
Co0 Fe13 2.688935 1_656
Co0 Fe9 2.724086 1_656
Co0 Fe14 2.724086 1_566
Co0 Dy0 3.054511 1_555
Co1 Fe6 2.614435 1_555
Co1 Fe7 2.629098 1_555
Co1 Fe8 2.629098 1_555
Co1 Fe0 2.657848 1_554
Co1 Fe2 2.666499 1_455
Co1 Fe1 2.666499 1_545
Co1 Fe13 2.688843 1_545
Co1 Fe10 2.688843 1_455
Co1 Fe12 2.688935 1_544
Co1 Fe11 2.688935 1_454
Co1 Fe9 2.724086 1_545
Co1 Fe14 2.724086 1_455
Co1 Dy1 3.054511 1_555
C0 Fe9 1.833696 1_555
C0 Fe14 1.833696 1_555
C0 Fe3 1.923385 1_555
C0 Fe0 1.923385 1_554
C0 Dy1 2.511120 1_555
C0 Dy0 2.511120 1_554
