# generated using pymatgen
data_LaMn2CdO6
_symmetry_space_group_name_H-M   'P 1'
_cell_length_a   5.54046652
_cell_length_b   7.56184475
_cell_length_c   5.56546302
_cell_angle_alpha   89.59502464
_cell_angle_beta   90.59089693
_cell_angle_gamma   90.45603506
_symmetry_Int_Tables_number   1
_chemical_formula_structural   LaMn2CdO6
_chemical_formula_sum   'La2 Mn4 Cd2 O12'
_cell_volume   233.14598465
_cell_formula_units_Z   2
loop_
 _symmetry_equiv_pos_site_id
 _symmetry_equiv_pos_as_xyz
  1  'x, y, z'
loop_
 _atom_site_type_symbol
 _atom_site_label
 _atom_site_symmetry_multiplicity
 _atom_site_fract_x
 _atom_site_fract_y
 _atom_site_fract_z
 _atom_site_occupancy
  La  La0  1  0.50064300  0.74916400  0.00124200  1
  La  La1  1  0.00047500  0.24916200  0.50142600  1
  Mn  Mn0  1  0.49923900  0.99953900  0.49954100  1
  Mn  Mn1  1  0.00098700  0.00007800  0.00045800  1
  Mn  Mn2  1  0.99915700  0.49947700  0.99952300  1
  Mn  Mn3  1  0.50099200  0.50014600  0.50052200  1
  Cd  Cd0  1  0.50013300  0.25089100  0.99788200  1
  Cd  Cd1  1  0.00004400  0.75089300  0.49805100  1
  O  O0  1  0.20171300  0.54252100  0.71523500  1
  O  O1  1  0.70167600  0.04251600  0.21516300  1
  O  O2  1  0.28839600  0.45858200  0.20241400  1
  O  O3  1  0.78832800  0.95861000  0.70230500  1
  O  O4  1  0.00058200  0.75086800  0.08291600  1
  O  O5  1  0.50051600  0.25091200  0.58277300  1
  O  O6  1  0.71811800  0.53000000  0.79111600  1
  O  O7  1  0.21802100  0.03004500  0.29100700  1
  O  O8  1  0.99942900  0.24895800  0.93162500  1
  O  O9  1  0.49934100  0.74899700  0.43147000  1
  O  O10  1  0.79109300  0.46932600  0.27771400  1
  O  O11  1  0.29111800  0.96931600  0.77762100  1
loop_
_geom_bond_atom_site_label_1
_geom_bond_atom_site_label_2
_geom_bond_distance
_geom_bond_site_symmetry_2
La0 O11 2.374787 1_554
La0 O6 2.377870 1_554
La0 O9 2.394495 1_555
La0 O2 2.723219 1_555
La0 O1 2.747630 1_565
La0 O0 2.767319 1_554
La0 O3 2.791809 1_554
La0 O4 2.802258 1_655
La0 O4 2.812379 1_555
La1 O10 2.374723 1_455
La1 O7 2.378642 1_555
La1 O8 2.394313 1_455
La1 O3 2.722131 1_445
La1 O0 2.747850 1_555
La1 O1 2.767722 1_455
La1 O2 2.792698 1_555
La1 O5 2.802539 1_555
La1 O5 2.811514 1_455
Mn0 O9 1.934696 1_555
Mn0 O7 1.947416 1_565
Mn0 O11 1.950553 1_555
Mn0 O5 1.959592 1_565
Mn0 O1 1.972830 1_565
Mn0 O3 1.974924 1_555
Mn1 O8 1.918000 1_454
Mn1 O4 1.936396 1_545
Mn1 O7 2.018127 1_555
Mn1 O3 2.049677 1_444
Mn1 O11 2.056031 1_544
Mn1 O1 2.082221 1_455
Mn2 O8 1.934340 1_555
Mn2 O6 1.946228 1_555
Mn2 O10 1.950799 1_556
Mn2 O4 1.959937 1_656
Mn2 O0 1.972883 1_655
Mn2 O2 1.975950 1_656
Mn3 O9 1.918025 1_555
Mn3 O5 1.936306 1_555
Mn3 O6 2.018529 1_555
Mn3 O2 2.049391 1_555
Mn3 O10 2.055856 1_555
Mn3 O0 2.082026 1_555
Cd0 O1 2.272723 1_556
Cd0 O2 2.284880 1_556
Cd0 O5 2.310296 1_555
Cd1 O0 2.272769 1_555
Cd1 O3 2.284169 1_455
Cd1 O4 2.310453 1_555
