# generated using pymatgen
data_AlCuPt2
_symmetry_space_group_name_H-M   'P 1'
_cell_length_a   3.48883356
_cell_length_b   3.97089364
_cell_length_c   3.97089364
_cell_angle_alpha   90.00000000
_cell_angle_beta   90.00000000
_cell_angle_gamma   90.00000000
_symmetry_Int_Tables_number   1
_chemical_formula_structural   AlCuPt2
_chemical_formula_sum   'Al1 Cu1 Pt2'
_cell_volume   55.01191467
_cell_formula_units_Z   1
loop_
 _symmetry_equiv_pos_site_id
 _symmetry_equiv_pos_as_xyz
  1  'x, y, z'
loop_
 _atom_site_type_symbol
 _atom_site_label
 _atom_site_symmetry_multiplicity
 _atom_site_fract_x
 _atom_site_fract_y
 _atom_site_fract_z
 _atom_site_occupancy
  Al  Al0  1  -0.00000000  0.00000000  0.00000000  1
  Cu  Cu0  1  0.00000000  0.50000000  0.50000000  1
  Pt  Pt0  1  0.50000000  -0.00000000  0.50000000  1
  Pt  Pt1  1  0.50000000  0.50000000  -0.00000000  1
loop_
_geom_bond_atom_site_label_1
_geom_bond_atom_site_label_2
_geom_bond_distance
_geom_bond_site_symmetry_2
Al0 Pt0 2.642913 1_454
Al0 Pt1 2.642913 1_555
Al0 Pt1 2.642913 1_445
Al0 Pt1 2.642913 1_545
Al0 Pt0 2.642913 1_555
Al0 Pt0 2.642913 1_554
Al0 Pt0 2.642913 1_455
Al0 Pt1 2.642913 1_455
Al0 Cu0 2.807846 1_554
Al0 Cu0 2.807846 1_545
Al0 Cu0 2.807846 1_555
Al0 Cu0 2.807846 1_544
Cu0 Pt1 2.642913 1_555
Cu0 Pt1 2.642913 1_556
Cu0 Pt0 2.642913 1_465
Cu0 Pt0 2.642913 1_455
Cu0 Pt0 2.642913 1_555
Cu0 Pt0 2.642913 1_565
Cu0 Pt1 2.642913 1_455
Cu0 Pt1 2.642913 1_456
Pt0 Pt1 2.807846 1_545
Pt0 Pt1 2.807846 1_555
Pt0 Pt1 2.807846 1_556
Pt0 Pt1 2.807846 1_546
