# generated using pymatgen
data_K2SmF5
_symmetry_space_group_name_H-M   'P 1'
_cell_length_a   6.59556948
_cell_length_b   7.40139309
_cell_length_c   10.74288747
_cell_angle_alpha   90.00000000
_cell_angle_beta   90.00000000
_cell_angle_gamma   90.00000000
_symmetry_Int_Tables_number   1
_chemical_formula_structural   K2SmF5
_chemical_formula_sum   'K8 Sm4 F20'
_cell_volume   524.42911739
_cell_formula_units_Z   4
loop_
 _symmetry_equiv_pos_site_id
 _symmetry_equiv_pos_as_xyz
  1  'x, y, z'
loop_
 _atom_site_type_symbol
 _atom_site_label
 _atom_site_symmetry_multiplicity
 _atom_site_fract_x
 _atom_site_fract_y
 _atom_site_fract_z
 _atom_site_occupancy
  K  K0  1  0.53086751  0.99773423  0.82844476  1
  K  K1  1  0.46913249  0.49773423  0.17155524  1
  K  K2  1  0.96913249  0.99773423  0.32844476  1
  K  K3  1  0.03086751  0.49773423  0.67155524  1
  K  K4  1  0.53086751  0.50226577  0.82844476  1
  K  K5  1  0.46913249  0.00226577  0.17155524  1
  K  K6  1  0.96913249  0.50226577  0.32844476  1
  K  K7  1  0.03086751  0.00226577  0.67155524  1
  Sm  Sm0  1  0.56725767  0.25000000  0.50368423  1
  Sm  Sm1  1  0.43274233  0.75000000  0.49631577  1
  Sm  Sm2  1  0.93274233  0.25000000  0.00368423  1
  Sm  Sm3  1  0.06725767  0.75000000  0.99631577  1
  F  F0  1  0.86061984  0.75000000  0.82933797  1
  F  F1  1  0.13938016  0.25000000  0.17066203  1
  F  F2  1  0.63938016  0.75000000  0.32933797  1
  F  F3  1  0.36061984  0.25000000  0.67066203  1
  F  F4  1  0.82975118  0.25000000  0.80106581  1
  F  F5  1  0.17024882  0.75000000  0.19893419  1
  F  F6  1  0.67024882  0.25000000  0.30106581  1
  F  F7  1  0.32975118  0.75000000  0.69893419  1
  F  F8  1  0.64813136  0.96581903  0.58104507  1
  F  F9  1  0.35186864  0.46581903  0.41895493  1
  F  F10  1  0.85186864  0.96581903  0.08104507  1
  F  F11  1  0.14813136  0.46581903  0.91895493  1
  F  F12  1  0.40741113  0.75000000  0.98904658  1
  F  F13  1  0.59258887  0.25000000  0.01095342  1
  F  F14  1  0.09258887  0.75000000  0.48904658  1
  F  F15  1  0.90741113  0.25000000  0.51095342  1
  F  F16  1  0.14813136  0.03418097  0.91895493  1
  F  F17  1  0.85186864  0.53418097  0.08104507  1
  F  F18  1  0.35186864  0.03418097  0.41895493  1
  F  F19  1  0.64813136  0.53418097  0.58104507  1
loop_
_geom_bond_atom_site_label_1
_geom_bond_atom_site_label_2
_geom_bond_distance
_geom_bond_site_symmetry_2
F0 Sm3 2.252839 1_655
F0 K7 2.760463 1_665
F0 K3 2.760463 1_655
F0 K0 2.844699 1_555
F0 K4 2.844699 1_555
F1 Sm2 2.252839 1_455
F1 K6 2.760463 1_455
F1 K2 2.760463 1_445
F1 K5 2.844699 1_555
F1 K1 2.844699 1_555
F2 Sm1 2.252839 1_555
F2 K5 2.760463 1_565
F2 K1 2.760463 1_555
F2 K2 2.844699 1_555
F2 K6 2.844699 1_555
F3 Sm0 2.252839 1_555
F3 K0 2.760463 1_545
F3 K4 2.760463 1_555
F3 K7 2.844699 1_555
F3 K3 2.844699 1_555
F4 Sm2 2.280237 1_556
F4 K3 2.656561 1_655
F4 K7 2.656561 1_655
F4 K4 2.731062 1_555
F4 K0 2.731062 1_545
F5 Sm3 2.280237 1_554
F5 K2 2.656561 1_455
F5 K6 2.656561 1_455
F5 K5 2.731062 1_565
F5 K1 2.731062 1_555
F6 Sm0 2.280237 1_555
F6 K5 2.656561 1_555
F6 K1 2.656561 1_555
F6 K2 2.731062 1_545
F6 K6 2.731062 1_555
F7 Sm1 2.280237 1_555
F7 K0 2.656561 1_555
F7 K4 2.656561 1_555
F7 K7 2.731062 1_565
F7 K3 2.731062 1_555
F8 Sm1 2.323411 1_555
F8 Sm0 2.323625 1_565
F8 K7 2.718570 1_665
F8 K0 2.778095 1_555
F9 Sm0 2.323411 1_555
F9 Sm1 2.323625 1_555
F9 K6 2.718570 1_455
F9 K1 2.778095 1_555
F10 Sm3 2.323411 1_654
F10 Sm2 2.323625 1_565
F10 K5 2.718570 1_565
F10 K2 2.778095 1_555
F11 Sm2 2.323411 1_456
F11 Sm3 2.323625 1_555
F11 K4 2.718570 1_555
F11 K3 2.778095 1_555
F12 Sm3 2.244864 1_555
F12 K4 2.646090 1_555
F12 K0 2.646090 1_555
F12 K5 2.737896 1_566
F12 K1 2.737896 1_556
F13 Sm2 2.244864 1_555
F13 K5 2.646090 1_555
F13 K1 2.646090 1_555
F13 K4 2.737896 1_554
F13 K0 2.737896 1_544
F14 Sm1 2.244864 1_555
F14 K2 2.646090 1_455
F14 K6 2.646090 1_455
F14 K7 2.737896 1_565
F14 K3 2.737896 1_555
F15 Sm0 2.244864 1_555
F15 K7 2.646090 1_655
F15 K3 2.646090 1_655
F15 K6 2.737896 1_555
F15 K2 2.737896 1_545
F16 Sm2 2.323411 1_456
F16 Sm3 2.323625 1_545
F16 K0 2.718570 1_545
F16 K7 2.778095 1_555
F17 Sm3 2.323411 1_654
F17 Sm2 2.323625 1_555
F17 K1 2.718570 1_555
F17 K6 2.778095 1_555
F18 Sm0 2.323411 1_555
F18 Sm1 2.323625 1_545
F18 K2 2.718570 1_445
F18 K5 2.778095 1_555
F19 Sm1 2.323411 1_555
F19 Sm0 2.323625 1_555
F19 K3 2.718570 1_655
F19 K4 2.778095 1_555
