# generated using pymatgen
data_Nb3IrSe8
_symmetry_space_group_name_H-M   'P 1'
_cell_length_a   6.84103605
_cell_length_b   6.84103605
_cell_length_c   9.02574089
_cell_angle_alpha   55.54828205
_cell_angle_beta   55.54828205
_cell_angle_gamma   60.04089260
_symmetry_Int_Tables_number   1
_chemical_formula_structural   Nb3IrSe8
_chemical_formula_sum   'Nb3 Ir1 Se8'
_cell_volume   277.04994751
_cell_formula_units_Z   1
loop_
 _symmetry_equiv_pos_site_id
 _symmetry_equiv_pos_as_xyz
  1  'x, y, z'
loop_
 _atom_site_type_symbol
 _atom_site_label
 _atom_site_symmetry_multiplicity
 _atom_site_fract_x
 _atom_site_fract_y
 _atom_site_fract_z
 _atom_site_occupancy
  Nb  Nb0  1  0.50000000  0.50000000  0.00000000  1
  Nb  Nb1  1  0.50000000  0.00000000  0.00000000  1
  Nb  Nb2  1  0.00000000  0.50000000  0.00000000  1
  Ir  Ir0  1  0.00000000  0.00000000  0.00000000  1
  Se  Se0  1  0.03724000  0.03724000  0.24827500  1
  Se  Se1  1  0.54274900  0.54274900  0.24937700  1
  Se  Se2  1  0.55525400  0.03759600  0.24772000  1
  Se  Se3  1  0.03759600  0.55525400  0.24772000  1
  Se  Se4  1  0.44474600  0.96240400  0.75228000  1
  Se  Se5  1  0.96240400  0.44474600  0.75228000  1
  Se  Se6  1  0.96276000  0.96276000  0.75172500  1
  Se  Se7  1  0.45725100  0.45725100  0.75062300  1
loop_
_geom_bond_atom_site_label_1
_geom_bond_atom_site_label_2
_geom_bond_distance
_geom_bond_site_symmetry_2
Nb0 Se7 2.610006 1_554
Nb0 Se1 2.610006 1_555
Nb0 Se5 2.628357 1_554
Nb0 Se3 2.628357 1_555
Nb0 Se4 2.628357 1_554
Nb0 Se2 2.628357 1_555
Nb1 Se1 2.607985 1_545
Nb1 Se7 2.607985 1_554
Nb1 Se2 2.629073 1_555
Nb1 Se4 2.629073 1_544
Nb1 Se6 2.631054 1_544
Nb1 Se0 2.631054 1_555
Nb2 Se7 2.607985 1_554
Nb2 Se1 2.607985 1_455
Nb2 Se3 2.629073 1_555
Nb2 Se5 2.629073 1_454
Nb2 Se6 2.631054 1_454
Nb2 Se0 2.631054 1_555
Ir0 Se3 2.548441 1_545
Ir0 Se4 2.548441 1_544
Ir0 Se5 2.548441 1_454
Ir0 Se2 2.548441 1_455
Ir0 Se0 2.551064 1_555
Ir0 Se6 2.551064 1_444
