# generated using pymatgen
data_Ca(NiO2)2
_symmetry_space_group_name_H-M   'P 1'
_cell_length_a   3.13932300
_cell_length_b   9.55757200
_cell_length_c   9.86089500
_cell_angle_alpha   90.00000000
_cell_angle_beta   90.00000000
_cell_angle_gamma   90.00000000
_symmetry_Int_Tables_number   1
_chemical_formula_structural   Ca(NiO2)2
_chemical_formula_sum   'Ca4 Ni8 O16'
_cell_volume   295.86930711
_cell_formula_units_Z   4
loop_
 _symmetry_equiv_pos_site_id
 _symmetry_equiv_pos_as_xyz
  1  'x, y, z'
loop_
 _atom_site_type_symbol
 _atom_site_label
 _atom_site_symmetry_multiplicity
 _atom_site_fract_x
 _atom_site_fract_y
 _atom_site_fract_z
 _atom_site_occupancy
  Ca  Ca0  1  0.80562200  0.25000000  0.35075900  1
  Ca  Ca1  1  0.80562200  0.75000000  0.14924100  1
  Ca  Ca2  1  0.19437800  0.25000000  0.85075900  1
  Ca  Ca3  1  0.19437800  0.75000000  0.64924100  1
  Ni  Ni0  1  0.27575000  0.06949200  0.10853000  1
  Ni  Ni1  1  0.27575000  0.56949200  0.39147000  1
  Ni  Ni2  1  0.72425000  0.56949200  0.89147000  1
  Ni  Ni3  1  0.27575000  0.93050800  0.39147000  1
  Ni  Ni4  1  0.72425000  0.93050800  0.89147000  1
  Ni  Ni5  1  0.27575000  0.43050800  0.10853000  1
  Ni  Ni6  1  0.72425000  0.43050800  0.60853000  1
  Ni  Ni7  1  0.72425000  0.06949200  0.60853000  1
  O  O0  1  0.71520800  0.39303100  0.97826800  1
  O  O1  1  0.28479200  0.60696900  0.02173200  1
  O  O2  1  0.89825200  0.50000000  0.25000000  1
  O  O3  1  0.28479200  0.39303100  0.47826800  1
  O  O4  1  0.28479200  0.10696900  0.47826800  1
  O  O5  1  0.30519500  0.75000000  0.31391900  1
  O  O6  1  0.71520800  0.60696900  0.52173200  1
  O  O7  1  0.69480500  0.75000000  0.81391900  1
  O  O8  1  0.89825200  0.00000000  0.25000000  1
  O  O9  1  0.10174800  0.50000000  0.75000000  1
  O  O10  1  0.71520800  0.10696900  0.97826800  1
  O  O11  1  0.69480500  0.25000000  0.68608100  1
  O  O12  1  0.30519500  0.25000000  0.18608100  1
  O  O13  1  0.10174800  0.00000000  0.75000000  1
  O  O14  1  0.71520800  0.89303100  0.52173200  1
  O  O15  1  0.28479200  0.89303100  0.02173200  1
loop_
_geom_bond_atom_site_label_1
_geom_bond_atom_site_label_2
_geom_bond_distance
_geom_bond_site_symmetry_2
Ca0 O12 2.257563 1_655
Ca0 O12 2.259427 1_555
Ca0 O4 2.390090 1_655
Ca0 O3 2.390090 1_655
Ca0 O3 2.474491 1_555
Ca0 O4 2.474491 1_555
Ca0 O2 2.604026 1_555
Ca0 O8 2.604026 1_555
Ca1 O5 2.257563 1_655
Ca1 O5 2.259427 1_555
Ca1 O1 2.390090 1_655
Ca1 O15 2.390090 1_655
Ca1 O1 2.474491 1_555
Ca1 O15 2.474491 1_555
Ca1 O2 2.604026 1_555
Ca1 O8 2.604026 1_565
Ca2 O11 2.257563 1_455
Ca2 O11 2.259427 1_555
Ca2 O0 2.390090 1_455
Ca2 O10 2.390090 1_455
Ca2 O10 2.474491 1_555
Ca2 O0 2.474491 1_555
Ca2 O9 2.604026 1_555
Ca2 O13 2.604026 1_555
Ca3 O7 2.257563 1_455
Ca3 O7 2.259427 1_555
Ca3 O6 2.390090 1_455
Ca3 O14 2.390090 1_455
Ca3 O14 2.474491 1_555
Ca3 O6 2.474491 1_555
Ca3 O13 2.604026 1_565
Ca3 O9 2.604026 1_555
Ni0 O12 1.889371 1_555
Ni0 O15 1.891506 1_545
Ni0 O10 1.918733 1_554
Ni0 O8 1.947215 1_455
Ni0 O10 2.207909 1_454
Ni0 O8 2.491234 1_555
Ni1 O5 1.889371 1_555
Ni1 O3 1.891506 1_555
Ni1 O6 1.918733 1_555
Ni1 O2 1.947215 1_455
Ni1 O6 2.207909 1_455
Ni1 O2 2.491234 1_555
Ni2 O7 1.889371 1_555
Ni2 O0 1.891506 1_555
Ni2 O1 1.918733 1_556
Ni2 O9 1.947215 1_655
Ni2 O1 2.207909 1_656
Ni2 O9 2.491234 1_555
Ni3 O5 1.889371 1_555
Ni3 O4 1.891506 1_565
Ni3 O14 1.918733 1_555
Ni3 O8 1.947215 1_465
Ni3 O14 2.207909 1_455
Ni3 O8 2.491234 1_565
Ni4 O7 1.889371 1_555
Ni4 O10 1.891506 1_565
Ni4 O15 1.918733 1_556
Ni4 O13 1.947215 1_665
Ni4 O15 2.207909 1_656
Ni4 O13 2.491234 1_565
Ni5 O12 1.889371 1_555
Ni5 O1 1.891506 1_555
Ni5 O0 1.918733 1_554
Ni5 O2 1.947215 1_455
Ni5 O0 2.207909 1_454
Ni5 O2 2.491234 1_555
Ni6 O11 1.889371 1_555
Ni6 O6 1.891506 1_555
Ni6 O3 1.918733 1_555
Ni6 O9 1.947215 1_655
Ni6 O3 2.207909 1_655
Ni6 O9 2.491234 1_555
Ni7 O11 1.889371 1_555
Ni7 O14 1.891506 1_545
Ni7 O4 1.918733 1_555
Ni7 O13 1.947215 1_655
Ni7 O4 2.207909 1_655
Ni7 O13 2.491234 1_555
