# generated using pymatgen
data_Lu2CoIr
_symmetry_space_group_name_H-M   'P 1'
_cell_length_a   4.67748405
_cell_length_b   4.67748405
_cell_length_c   4.67748405
_cell_angle_alpha   60.00000000
_cell_angle_beta   60.00000000
_cell_angle_gamma   60.00000000
_symmetry_Int_Tables_number   1
_chemical_formula_structural   Lu2CoIr
_chemical_formula_sum   'Lu2 Co1 Ir1'
_cell_volume   72.36389714
_cell_formula_units_Z   1
loop_
 _symmetry_equiv_pos_site_id
 _symmetry_equiv_pos_as_xyz
  1  'x, y, z'
loop_
 _atom_site_type_symbol
 _atom_site_label
 _atom_site_symmetry_multiplicity
 _atom_site_fract_x
 _atom_site_fract_y
 _atom_site_fract_z
 _atom_site_occupancy
  Lu  Lu0  1  0.25000000  0.25000000  0.25000000  1
  Lu  Lu1  1  0.75000000  0.75000000  0.75000000  1
  Co  Co0  1  0.50000000  0.50000000  0.50000000  1
  Ir  Ir0  1  -0.00000000  0.00000000  -0.00000000  1
loop_
_geom_bond_atom_site_label_1
_geom_bond_atom_site_label_2
_geom_bond_distance
_geom_bond_site_symmetry_2
Co0 Lu0 2.864362 1_555
Co0 Lu0 2.864362 1_655
Co0 Lu0 2.864362 1_565
Co0 Lu1 2.864362 1_455
Co0 Lu1 2.864362 1_555
Co0 Lu1 2.864362 1_545
Co0 Lu1 2.864362 1_554
Co0 Lu0 2.864362 1_556
Ir0 Lu0 2.864362 1_555
Ir0 Lu0 2.864362 1_545
Ir0 Lu1 2.864362 1_544
Ir0 Lu1 2.864362 1_445
Ir0 Lu1 2.864362 1_454
Ir0 Lu1 2.864362 1_444
Ir0 Lu0 2.864362 1_554
Ir0 Lu0 2.864362 1_455
