# generated using pymatgen
data_Ca3MnS2O17
_symmetry_space_group_name_H-M   'P 1'
_cell_length_a   8.93353286
_cell_length_b   8.93353286
_cell_length_c   10.09362500
_cell_angle_alpha   90.00000000
_cell_angle_beta   90.00000000
_cell_angle_gamma   118.96792532
_symmetry_Int_Tables_number   1
_chemical_formula_structural   Ca3MnS2O17
_chemical_formula_sum   'Ca6 Mn2 S4 O34'
_cell_volume   704.77027511
_cell_formula_units_Z   2
loop_
 _symmetry_equiv_pos_site_id
 _symmetry_equiv_pos_as_xyz
  1  'x, y, z'
loop_
 _atom_site_type_symbol
 _atom_site_label
 _atom_site_symmetry_multiplicity
 _atom_site_fract_x
 _atom_site_fract_y
 _atom_site_fract_z
 _atom_site_occupancy
  Ca  Ca0  1  0.84628300  0.70007000  0.75000000  1
  Ca  Ca1  1  0.85239300  0.15158000  0.75000000  1
  Ca  Ca2  1  0.31540100  0.13575000  0.75000000  1
  Ca  Ca3  1  0.70007000  0.84628300  0.25000000  1
  Ca  Ca4  1  0.15158000  0.85239300  0.25000000  1
  Ca  Ca5  1  0.13575000  0.31540100  0.25000000  1
  Mn  Mn0  1  0.95744600  0.95744600  0.00000000  1
  Mn  Mn1  1  0.95744600  0.95744600  0.50000000  1
  S  S0  1  0.67347800  0.33773800  0.97246200  1
  S  S1  1  0.67347800  0.33773800  0.52753800  1
  S  S2  1  0.33773800  0.67347800  0.47246200  1
  S  S3  1  0.33773800  0.67347800  0.02753800  1
  O  O0  1  0.67896400  0.34649900  0.11656500  1
  O  O1  1  0.67896400  0.34649900  0.38343500  1
  O  O2  1  0.34649900  0.67896400  0.61656500  1
  O  O3  1  0.34649900  0.67896400  0.88343500  1
  O  O4  1  0.50413500  0.48093500  0.75000000  1
  O  O5  1  0.97697100  0.49309300  0.75000000  1
  O  O6  1  0.53782300  0.03533700  0.75000000  1
  O  O7  1  0.48093500  0.50413500  0.25000000  1
  O  O8  1  0.49309300  0.97697100  0.25000000  1
  O  O9  1  0.03533700  0.53782300  0.25000000  1
  O  O10  1  0.09109000  0.90839900  0.88561100  1
  O  O11  1  0.79546400  0.90546700  0.88669000  1
  O  O12  1  0.10604900  0.16100000  0.89720200  1
  O  O13  1  0.09109000  0.90839900  0.61438900  1
  O  O14  1  0.79546400  0.90546700  0.61331000  1
  O  O15  1  0.10604900  0.16100000  0.60279800  1
  O  O16  1  0.90839900  0.09109000  0.38561100  1
  O  O17  1  0.90546700  0.79546400  0.38669000  1
  O  O18  1  0.16100000  0.10604900  0.39720200  1
  O  O19  1  0.90839900  0.09109000  0.11438900  1
  O  O20  1  0.90546700  0.79546400  0.11331000  1
  O  O21  1  0.16100000  0.10604900  0.10279800  1
  O  O22  1  0.80505800  0.50591200  0.91592000  1
  O  O23  1  0.71122600  0.20045200  0.92425600  1
  O  O24  1  0.50161000  0.29924300  0.92099200  1
  O  O25  1  0.80505800  0.50591200  0.58408000  1
  O  O26  1  0.71122600  0.20045200  0.57574400  1
  O  O27  1  0.50161000  0.29924300  0.57900800  1
  O  O28  1  0.50591200  0.80505800  0.41592000  1
  O  O29  1  0.20045200  0.71122600  0.42425600  1
  O  O30  1  0.29924300  0.50161000  0.42099200  1
  O  O31  1  0.50591200  0.80505800  0.08408000  1
  O  O32  1  0.20045200  0.71122600  0.07574400  1
  O  O33  1  0.29924300  0.50161000  0.07900800  1
loop_
_geom_bond_atom_site_label_1
_geom_bond_atom_site_label_2
_geom_bond_distance
_geom_bond_site_symmetry_2
Ca0 O25 2.308713 1_555
Ca0 O22 2.308713 1_555
Ca0 O10 2.485500 1_655
Ca0 O13 2.485500 1_655
Ca0 O14 2.506696 1_555
Ca0 O11 2.506696 1_555
Ca0 O5 2.621653 1_555
Ca0 O4 2.716442 1_555
Ca1 O26 2.325515 1_555
Ca1 O23 2.325515 1_555
Ca1 O14 2.431706 1_545
Ca1 O11 2.431706 1_545
Ca1 O6 2.479709 1_555
Ca1 O15 2.676739 1_655
Ca1 O12 2.676739 1_655
Ca1 O5 2.694020 1_555
Ca2 O24 2.350717 1_555
Ca2 O27 2.350717 1_555
Ca2 O10 2.464143 1_545
Ca2 O13 2.464143 1_545
Ca2 O15 2.482938 1_555
Ca2 O12 2.482938 1_555
Ca2 O6 2.545477 1_555
Ca2 O4 2.704783 1_555
Ca3 O31 2.308713 1_555
Ca3 O28 2.308713 1_555
Ca3 O19 2.485500 1_565
Ca3 O16 2.485500 1_565
Ca3 O17 2.506696 1_555
Ca3 O20 2.506696 1_555
Ca3 O8 2.621653 1_555
Ca3 O7 2.716442 1_555
Ca4 O29 2.325515 1_555
Ca4 O32 2.325515 1_555
Ca4 O20 2.431706 1_455
Ca4 O17 2.431706 1_455
Ca4 O9 2.479709 1_555
Ca4 O21 2.676739 1_565
Ca4 O18 2.676739 1_565
Ca4 O8 2.694020 1_555
Ca5 O30 2.350717 1_555
Ca5 O33 2.350717 1_555
Ca5 O19 2.464143 1_455
Ca5 O16 2.464143 1_455
Ca5 O21 2.482938 1_555
Ca5 O18 2.482938 1_555
Ca5 O9 2.545477 1_555
Ca5 O7 2.704783 1_555
Mn0 O11 1.722448 1_554
Mn0 O20 1.722448 1_555
Mn0 O10 1.859365 1_654
Mn0 O19 1.859365 1_565
Mn0 O12 1.951259 1_664
Mn0 O21 1.951259 1_665
Mn1 O14 1.722448 1_555
Mn1 O17 1.722448 1_555
Mn1 O13 1.859365 1_655
Mn1 O16 1.859365 1_565
Mn1 O15 1.951259 1_665
Mn1 O18 1.951259 1_665
O0 S0 1.456175 1_554
O1 S1 1.456175 1_555
O2 S2 1.456175 1_555
O3 S3 1.456175 1_556
O22 S0 1.501329 1_555
O23 S0 1.501755 1_555
O24 S0 1.494699 1_555
O25 S1 1.501329 1_555
O26 S1 1.501755 1_555
O27 S1 1.494699 1_555
O28 S2 1.501329 1_555
O29 S2 1.501755 1_555
O30 S2 1.494699 1_555
O31 S3 1.501329 1_555
O32 S3 1.501755 1_555
O33 S3 1.494699 1_555
