# generated using pymatgen
data_Ca3Mn2WO9
_symmetry_space_group_name_H-M   'P 1'
_cell_length_a   5.58971500
_cell_length_b   7.87681600
_cell_length_c   18.05653885
_cell_angle_alpha   64.47394073
_cell_angle_beta   90.00000000
_cell_angle_gamma   90.00000000
_symmetry_Int_Tables_number   1
_chemical_formula_structural   Ca3Mn2WO9
_chemical_formula_sum   'Ca12 Mn8 W4 O36'
_cell_volume   717.41235363
_cell_formula_units_Z   4
loop_
 _symmetry_equiv_pos_site_id
 _symmetry_equiv_pos_as_xyz
  1  'x, y, z'
loop_
 _atom_site_type_symbol
 _atom_site_label
 _atom_site_symmetry_multiplicity
 _atom_site_fract_x
 _atom_site_fract_y
 _atom_site_fract_z
 _atom_site_occupancy
  Ca  Ca0  1  0.45716300  0.92194300  0.83652100  1
  Ca  Ca1  1  0.44585000  0.23459400  0.49670700  1
  Ca  Ca2  1  0.44448400  0.61007600  0.15462900  1
  Ca  Ca3  1  0.05415000  0.23459400  0.99670700  1
  Ca  Ca4  1  0.05551600  0.61007600  0.65462900  1
  Ca  Ca5  1  0.04283700  0.92194300  0.33652100  1
  Ca  Ca6  1  0.55551600  0.38992400  0.84537100  1
  Ca  Ca7  1  0.55415000  0.76540600  0.50329300  1
  Ca  Ca8  1  0.54283700  0.07805700  0.16347900  1
  Ca  Ca9  1  0.95716300  0.07805700  0.66347900  1
  Ca  Ca10  1  0.94448400  0.38992400  0.34537100  1
  Ca  Ca11  1  0.94585000  0.76540600  0.00329300  1
  Mn  Mn0  1  0.50000000  0.50000000  0.00000000  1
  Mn  Mn1  1  0.50616400  0.83430100  0.66668800  1
  Mn  Mn2  1  0.49383600  0.16569900  0.33331200  1
  Mn  Mn3  1  0.00616400  0.16569900  0.83331200  1
  Mn  Mn4  1  0.00000000  0.50000000  0.50000000  1
  Mn  Mn5  1  0.99383600  0.83430100  0.16668800  1
  Mn  Mn6  1  0.50000000  0.00000000  0.00000000  1
  Mn  Mn7  1  0.00000000  0.00000000  0.50000000  1
  W  W0  1  0.50304800  0.33485300  0.66813800  1
  W  W1  1  0.49695200  0.66514700  0.33186200  1
  W  W2  1  0.00304800  0.66514700  0.83186200  1
  W  W3  1  0.99695200  0.33485300  0.16813800  1
  O  O0  1  0.29041800  0.55494800  0.89385400  1
  O  O1  1  0.30501100  0.88584600  0.57322800  1
  O  O2  1  0.28796100  0.21293100  0.23362800  1
  O  O3  1  0.21203900  0.21293100  0.73362800  1
  O  O4  1  0.20958200  0.55494800  0.39385400  1
  O  O5  1  0.19498900  0.88584600  0.07322800  1
  O  O6  1  0.71203900  0.78706900  0.76637200  1
  O  O7  1  0.69498900  0.11415400  0.42677200  1
  O  O8  1  0.70958200  0.44505200  0.10614600  1
  O  O9  1  0.80501100  0.11415400  0.92677200  1
  O  O10  1  0.79041800  0.44505200  0.60614600  1
  O  O11  1  0.78796100  0.78706900  0.26637200  1
  O  O12  1  0.02614400  0.86971500  0.86356100  1
  O  O13  1  0.02796200  0.23374400  0.52482500  1
  O  O14  1  0.02917200  0.53496500  0.20300300  1
  O  O15  1  0.47082800  0.53496500  0.70300300  1
  O  O16  1  0.47385600  0.86971500  0.36356100  1
  O  O17  1  0.47203800  0.23374400  0.02482500  1
  O  O18  1  0.97082800  0.46503500  0.79699700  1
  O  O19  1  0.97203800  0.76625600  0.47517500  1
  O  O20  1  0.97385600  0.13028500  0.13643900  1
  O  O21  1  0.52796200  0.76625600  0.97517500  1
  O  O22  1  0.52614400  0.13028500  0.63643900  1
  O  O23  1  0.52917200  0.46503500  0.29699700  1
  O  O24  1  0.20033300  0.81125500  0.73563800  1
  O  O25  1  0.19980600  0.13262200  0.40230000  1
  O  O26  1  0.19161900  0.48129100  0.07253200  1
  O  O27  1  0.30019400  0.13262200  0.90230000  1
  O  O28  1  0.30838100  0.48129100  0.57253200  1
  O  O29  1  0.29966700  0.81125500  0.23563800  1
  O  O30  1  0.80838100  0.51870900  0.92746800  1
  O  O31  1  0.80019400  0.86737800  0.59770000  1
  O  O32  1  0.79966700  0.18874500  0.26436200  1
  O  O33  1  0.70033300  0.18874500  0.76436200  1
  O  O34  1  0.69161900  0.51870900  0.42746800  1
  O  O35  1  0.69980600  0.86737800  0.09770000  1
loop_
_geom_bond_atom_site_label_1
_geom_bond_atom_site_label_2
_geom_bond_distance
_geom_bond_site_symmetry_2
Ca0 O21 2.298367 1_555
Ca0 O33 2.366820 1_565
Ca0 O6 2.433622 1_555
Ca0 O12 2.457461 1_555
Ca0 O27 2.575495 1_565
Ca0 O3 2.629182 1_565
Ca0 O24 2.740094 1_555
Ca0 O0 2.778080 1_555
Ca1 O22 2.335766 1_555
Ca1 O7 2.338050 1_555
Ca1 O13 2.389812 1_555
Ca1 O34 2.459118 1_555
Ca1 O25 2.573436 1_555
Ca1 O1 2.608413 1_545
Ca1 O4 2.742584 1_555
Ca1 O28 2.921283 1_555
Ca2 O35 2.324989 1_555
Ca2 O23 2.367811 1_555
Ca2 O8 2.373302 1_555
Ca2 O14 2.461067 1_555
Ca2 O5 2.464158 1_555
Ca2 O26 2.553495 1_555
Ca2 O29 2.702535 1_555
Ca2 O2 2.956406 1_555
Ca2 O21 2.965683 1_554
Ca3 O20 2.335766 1_456
Ca3 O9 2.338050 1_455
Ca3 O17 2.389812 1_556
Ca3 O30 2.459118 1_455
Ca3 O27 2.573436 1_555
Ca3 O5 2.608413 1_546
Ca3 O0 2.742584 1_555
Ca3 O26 2.921283 1_556
Ca4 O31 2.324989 1_455
Ca4 O18 2.367811 1_455
Ca4 O10 2.373302 1_455
Ca4 O15 2.461067 1_555
Ca4 O1 2.464158 1_555
Ca4 O28 2.553495 1_555
Ca4 O24 2.702535 1_555
Ca4 O3 2.956406 1_555
Ca4 O19 2.965683 1_455
Ca5 O19 2.298367 1_455
Ca5 O32 2.366820 1_465
Ca5 O11 2.433622 1_455
Ca5 O16 2.457461 1_555
Ca5 O25 2.575495 1_565
Ca5 O2 2.629182 1_565
Ca5 O29 2.740094 1_555
Ca5 O4 2.778080 1_555
Ca6 O27 2.324989 1_555
Ca6 O15 2.367811 1_555
Ca6 O0 2.373302 1_555
Ca6 O18 2.461067 1_555
Ca6 O9 2.464158 1_555
Ca6 O30 2.553495 1_555
Ca6 O33 2.702535 1_555
Ca6 O6 2.956406 1_555
Ca6 O17 2.965683 1_556
Ca7 O16 2.335766 1_555
Ca7 O1 2.338050 1_555
Ca7 O19 2.389812 1_555
Ca7 O28 2.459118 1_555
Ca7 O31 2.573436 1_555
Ca7 O7 2.608413 1_565
Ca7 O10 2.742584 1_555
Ca7 O34 2.921283 1_555
Ca8 O17 2.298367 1_555
Ca8 O29 2.366820 1_545
Ca8 O2 2.433622 1_555
Ca8 O20 2.457461 1_555
Ca8 O35 2.575495 1_545
Ca8 O11 2.629182 1_545
Ca8 O32 2.740094 1_555
Ca8 O8 2.778080 1_555
Ca9 O13 2.298367 1_655
Ca9 O24 2.366820 1_645
Ca9 O3 2.433622 1_655
Ca9 O22 2.457461 1_555
Ca9 O31 2.575495 1_545
Ca9 O6 2.629182 1_545
Ca9 O33 2.740094 1_555
Ca9 O10 2.778080 1_555
Ca10 O25 2.324989 1_655
Ca10 O14 2.367811 1_655
Ca10 O4 2.373302 1_655
Ca10 O23 2.461067 1_555
Ca10 O7 2.464158 1_555
Ca10 O34 2.553495 1_555
Ca10 O32 2.702535 1_555
Ca10 O11 2.956406 1_555
Ca10 O13 2.965683 1_655
Ca11 O12 2.335766 1_654
Ca11 O5 2.338050 1_655
Ca11 O21 2.389812 1_554
Ca11 O26 2.459118 1_655
Ca11 O35 2.573436 1_555
Ca11 O9 2.608413 1_564
Ca11 O8 2.742584 1_555
Ca11 O30 2.921283 1_554
Mn0 O17 1.952844 1_555
Mn0 O21 1.952844 1_554
Mn0 O0 2.125624 1_554
Mn0 O8 2.125624 1_555
Mn0 O26 2.131194 1_555
Mn0 O30 2.131194 1_554
Mn1 O1 1.920015 1_555
Mn1 O31 2.010257 1_555
Mn1 O6 2.031106 1_555
Mn1 O24 2.076201 1_555
Mn1 O22 2.156110 1_565
Mn1 O15 2.166980 1_555
Mn2 O7 1.920015 1_555
Mn2 O25 2.010257 1_555
Mn2 O2 2.031106 1_555
Mn2 O32 2.076201 1_555
Mn2 O16 2.156110 1_545
Mn2 O23 2.166980 1_555
Mn3 O9 1.920015 1_455
Mn3 O27 2.010257 1_555
Mn3 O3 2.031106 1_555
Mn3 O33 2.076201 1_455
Mn3 O12 2.156110 1_545
Mn3 O18 2.166980 1_455
Mn4 O13 1.952844 1_555
Mn4 O19 1.952844 1_455
Mn4 O10 2.125624 1_455
Mn4 O4 2.125624 1_555
Mn4 O34 2.131194 1_455
Mn4 O28 2.131194 1_555
Mn5 O5 1.920015 1_655
Mn5 O35 2.010257 1_555
Mn5 O11 2.031106 1_555
Mn5 O29 2.076201 1_655
Mn5 O20 2.156110 1_565
Mn5 O14 2.166980 1_655
Mn6 O35 1.965327 1_545
Mn6 O27 1.965327 1_554
Mn6 O21 2.080026 1_544
Mn6 O17 2.080026 1_555
Mn6 O9 2.106879 1_554
Mn6 O5 2.106879 1_545
Mn7 O25 1.965327 1_555
Mn7 O31 1.965327 1_445
Mn7 O19 2.080026 1_445
Mn7 O13 2.080026 1_555
Mn7 O1 2.106879 1_545
Mn7 O7 2.106879 1_455
O0 W2 1.936308 1_555
O2 W3 1.996976 1_455
O3 W0 1.996976 1_555
O4 W1 1.936308 1_555
O6 W2 1.996976 1_655
O8 W3 1.936308 1_555
O10 W0 1.936308 1_555
O11 W1 1.996976 1_555
O12 W2 1.932765 1_555
O14 W3 1.941269 1_455
O15 W0 1.941269 1_555
O16 W1 1.932765 1_555
O18 W2 1.941269 1_655
O20 W3 1.932765 1_555
O22 W0 1.932765 1_555
O23 W1 1.941269 1_555
O24 W2 1.958586 1_555
O26 W3 1.943845 1_455
O28 W0 1.943845 1_555
O29 W1 1.958586 1_555
O30 W2 1.943845 1_655
O32 W3 1.958586 1_555
O33 W0 1.958586 1_555
O34 W1 1.943845 1_555
