# generated using pymatgen
data_U8CoS17
_symmetry_space_group_name_H-M   'P 1'
_cell_length_a   7.89938932
_cell_length_b   7.89938932
_cell_length_c   10.31325536
_cell_angle_alpha   80.37678923
_cell_angle_beta   80.37678923
_cell_angle_gamma   64.79610728
_symmetry_Int_Tables_number   1
_chemical_formula_structural   U8CoS17
_chemical_formula_sum   'U8 Co1 S17'
_cell_volume   570.75720645
_cell_formula_units_Z   1
loop_
 _symmetry_equiv_pos_site_id
 _symmetry_equiv_pos_as_xyz
  1  'x, y, z'
loop_
 _atom_site_type_symbol
 _atom_site_label
 _atom_site_symmetry_multiplicity
 _atom_site_fract_x
 _atom_site_fract_y
 _atom_site_fract_z
 _atom_site_occupancy
  U  U0  1  0.18589096  0.69846016  0.70946019  1
  U  U1  1  0.69846016  0.18589096  0.70946019  1
  U  U2  1  0.81410904  0.30153984  0.29053981  1
  U  U3  1  0.30153984  0.81410904  0.29053981  1
  U  U4  1  0.20475600  0.20475600  0.54544769  1
  U  U5  1  0.79524400  0.79524400  0.45455231  1
  U  U6  1  0.68365503  0.68365503  0.98100204  1
  U  U7  1  0.31634497  0.31634497  0.01899796  1
  Co  Co0  1  -0.00000000  0.00000000  -0.00000000  1
  S  S0  1  0.82459372  0.43039151  0.53422567  1
  S  S1  1  0.43039151  0.82459372  0.53422567  1
  S  S2  1  0.17540628  0.56960849  0.46577433  1
  S  S3  1  0.56960849  0.17540628  0.46577433  1
  S  S4  1  0.05715942  0.67733400  0.97511936  1
  S  S5  1  0.67733400  0.05715942  0.97511936  1
  S  S6  1  0.94284058  0.32266600  0.02488064  1
  S  S7  1  0.32266600  0.94284058  0.02488064  1
  S  S8  1  0.05343271  0.05343271  0.77997918  1
  S  S9  1  0.94656729  0.94656729  0.22002082  1
  S  S10  1  0.20839410  0.20839410  0.27852372  1
  S  S11  1  0.79160590  0.79160590  0.72147628  1
  S  S12  1  0.30248585  0.30248585  0.75500201  1
  S  S13  1  0.69751415  0.69751415  0.24499799  1
  S  S14  1  0.51859653  0.51859653  0.83128581  1
  S  S15  1  0.48140347  0.48140347  0.16871419  1
  S  S16  1  -0.00000000  0.00000000  0.50000000  1
loop_
_geom_bond_atom_site_label_1
_geom_bond_atom_site_label_2
_geom_bond_distance
_geom_bond_site_symmetry_2
Co0 S9 2.239769 1_445
Co0 S8 2.239769 1_554
Co0 S7 2.442577 1_545
Co0 S6 2.442577 1_455
Co0 S5 2.442577 1_454
Co0 S4 2.442577 1_544
S0 U4 2.774370 1_655
S0 U5 2.781783 1_555
S0 U1 2.803417 1_555
S0 U2 2.890616 1_555
S1 U4 2.774370 1_565
S1 U5 2.781783 1_555
S1 U0 2.803417 1_555
S1 U3 2.890616 1_555
S2 U5 2.774370 1_455
S2 U4 2.781783 1_555
S2 U3 2.803417 1_555
S2 U0 2.890616 1_555
S3 U5 2.774370 1_545
S3 U4 2.781783 1_555
S3 U2 2.803417 1_555
S3 U1 2.890616 1_555
S4 U7 2.726562 1_556
S4 U0 2.762004 1_555
S4 U6 2.920113 1_455
S5 U7 2.726562 1_556
S5 U1 2.762004 1_555
S5 U6 2.920113 1_545
S6 U6 2.726562 1_554
S6 U2 2.762004 1_555
S6 U7 2.920113 1_655
S7 U6 2.726562 1_554
S7 U3 2.762004 1_555
S7 U7 2.920113 1_565
S8 U0 2.723071 1_545
S8 U1 2.723071 1_455
S8 U4 2.826995 1_555
S9 U2 2.723071 1_565
S9 U3 2.723071 1_655
S9 U5 2.826995 1_555
S10 U4 2.743659 1_555
S10 U7 2.776946 1_555
S10 U3 2.864818 1_545
S10 U2 2.864818 1_455
S11 U5 2.743659 1_555
S11 U6 2.776946 1_555
S11 U1 2.864818 1_565
S11 U0 2.864818 1_655
S12 U4 2.736048 1_555
S12 U7 2.765205 1_556
S12 U1 2.837746 1_555
S12 U0 2.837746 1_555
S13 U5 2.736048 1_555
S13 U6 2.765205 1_554
S13 U2 2.837746 1_555
S13 U3 2.837746 1_555
S14 U0 2.798473 1_555
S14 U1 2.798473 1_555
S14 U6 2.928880 1_555
S14 U7 2.993096 1_556
S15 U3 2.798473 1_555
S15 U2 2.798473 1_555
S15 U7 2.928880 1_555
S15 U6 2.993096 1_554
S16 U4 2.861296 1_555
S16 U5 2.861296 1_445
S16 U3 2.976215 1_545
S16 U2 2.976215 1_455
S16 U0 2.976215 1_545
S16 U1 2.976215 1_455
