# generated using pymatgen
data_K5Na3Ta8O24
_symmetry_space_group_name_H-M   'P 1'
_cell_length_a   8.03092300
_cell_length_b   8.03092300
_cell_length_c   8.02972500
_cell_angle_alpha   90.00000000
_cell_angle_beta   90.00000000
_cell_angle_gamma   90.00000000
_symmetry_Int_Tables_number   1
_chemical_formula_structural   K5Na3Ta8O24
_chemical_formula_sum   'K5 Na3 Ta8 O24'
_cell_volume   517.88292926
_cell_formula_units_Z   1
loop_
 _symmetry_equiv_pos_site_id
 _symmetry_equiv_pos_as_xyz
  1  'x, y, z'
loop_
 _atom_site_type_symbol
 _atom_site_label
 _atom_site_symmetry_multiplicity
 _atom_site_fract_x
 _atom_site_fract_y
 _atom_site_fract_z
 _atom_site_occupancy
  K  K0  1  0.00000000  0.00000000  0.00000000  1
  K  K1  1  0.50000000  0.00000000  0.00000000  1
  K  K2  1  0.00000000  0.50000000  0.00000000  1
  K  K3  1  0.50000000  0.50000000  0.00000000  1
  K  K4  1  0.50000000  0.50000000  0.50000000  1
  Na  Na0  1  0.00000000  0.00000000  0.50000000  1
  Na  Na1  1  0.50000000  0.00000000  0.50000000  1
  Na  Na2  1  0.00000000  0.50000000  0.50000000  1
  Ta  Ta0  1  0.75038000  0.75038000  0.74885900  1
  Ta  Ta1  1  0.75038000  0.75038000  0.25114100  1
  Ta  Ta2  1  0.24962000  0.75038000  0.74885900  1
  Ta  Ta3  1  0.24962000  0.75038000  0.25114100  1
  Ta  Ta4  1  0.75038000  0.24962000  0.74885900  1
  Ta  Ta5  1  0.75038000  0.24962000  0.25114100  1
  Ta  Ta6  1  0.24962000  0.24962000  0.74885900  1
  Ta  Ta7  1  0.24962000  0.24962000  0.25114100  1
  O  O0  1  0.75014100  0.00000000  0.74791600  1
  O  O1  1  0.75014100  0.00000000  0.25208400  1
  O  O2  1  0.24985900  0.00000000  0.74791600  1
  O  O3  1  0.24985900  0.00000000  0.25208400  1
  O  O4  1  0.75098700  0.50000000  0.74873500  1
  O  O5  1  0.75098700  0.50000000  0.25126500  1
  O  O6  1  0.24901300  0.50000000  0.74873500  1
  O  O7  1  0.24901300  0.50000000  0.25126500  1
  O  O8  1  0.00000000  0.75014100  0.74791600  1
  O  O9  1  0.00000000  0.75014100  0.25208400  1
  O  O10  1  0.50000000  0.75098700  0.74873500  1
  O  O11  1  0.50000000  0.75098700  0.25126500  1
  O  O12  1  0.00000000  0.24985900  0.74791600  1
  O  O13  1  0.00000000  0.24985900  0.25208400  1
  O  O14  1  0.50000000  0.24901300  0.74873500  1
  O  O15  1  0.50000000  0.24901300  0.25126500  1
  O  O16  1  0.75014200  0.75014200  0.00000000  1
  O  O17  1  0.75096200  0.75096200  0.50000000  1
  O  O18  1  0.24985800  0.75014200  0.00000000  1
  O  O19  1  0.24903800  0.75096200  0.50000000  1
  O  O20  1  0.75014200  0.24985800  0.00000000  1
  O  O21  1  0.75096200  0.24903800  0.50000000  1
  O  O22  1  0.24985800  0.24985800  0.00000000  1
  O  O23  1  0.24903800  0.24903800  0.50000000  1
loop_
_geom_bond_atom_site_label_1
_geom_bond_atom_site_label_2
_geom_bond_distance
_geom_bond_site_symmetry_2
K0 O20 2.837747 1_455
K0 O18 2.837747 1_545
K0 O16 2.837747 1_445
K0 O22 2.837747 1_555
K0 O12 2.850207 1_554
K0 O2 2.850207 1_554
K0 O3 2.850207 1_555
K0 O13 2.850207 1_555
K0 O1 2.850207 1_455
K0 O9 2.850207 1_545
K0 O0 2.850207 1_454
K0 O8 2.850207 1_544
K1 O20 2.839361 1_555
K1 O18 2.839361 1_545
K1 O16 2.839361 1_545
K1 O22 2.839361 1_555
K1 O14 2.840754 1_554
K1 O10 2.840754 1_544
K1 O15 2.840754 1_555
K1 O11 2.840754 1_545
K1 O1 2.851802 1_555
K1 O0 2.851802 1_554
K1 O2 2.851802 1_554
K1 O3 2.851802 1_555
K2 O20 2.839361 1_455
K2 O18 2.839361 1_555
K2 O16 2.839361 1_455
K2 O22 2.839361 1_555
K2 O6 2.840754 1_554
K2 O4 2.840754 1_454
K2 O5 2.840754 1_455
K2 O7 2.840754 1_555
K2 O9 2.851802 1_555
K2 O8 2.851802 1_554
K2 O12 2.851802 1_554
K2 O13 2.851802 1_555
K3 O18 2.840973 1_555
K3 O16 2.840973 1_555
K3 O22 2.840973 1_555
K3 O20 2.840973 1_555
K3 O15 2.851936 1_555
K3 O5 2.851936 1_555
K3 O7 2.851936 1_555
K3 O6 2.851936 1_554
K3 O10 2.851936 1_554
K3 O14 2.851936 1_554
K3 O4 2.851936 1_554
K3 O11 2.851936 1_555
K4 O11 2.837600 1_555
K4 O5 2.837600 1_555
K4 O15 2.837600 1_555
K4 O7 2.837600 1_555
K4 O4 2.837600 1_555
K4 O14 2.837600 1_555
K4 O6 2.837600 1_555
K4 O10 2.837600 1_555
K4 O23 2.850286 1_555
K4 O21 2.850286 1_555
K4 O19 2.850286 1_555
K4 O17 2.850286 1_555
Na0 O12 2.826537 1_555
Na0 O3 2.826537 1_555
Na0 O13 2.826537 1_555
Na0 O2 2.826537 1_555
Na0 O0 2.826537 1_455
Na0 O1 2.826537 1_455
Na0 O8 2.826537 1_545
Na0 O9 2.826537 1_545
Na0 O17 2.828434 1_445
Na0 O19 2.828434 1_545
Na0 O23 2.828434 1_555
Na0 O21 2.828434 1_455
Na1 O15 2.826361 1_555
Na1 O11 2.826361 1_545
Na1 O14 2.826361 1_555
Na1 O10 2.826361 1_545
Na1 O1 2.828145 1_555
Na1 O2 2.828145 1_555
Na1 O0 2.828145 1_555
Na1 O3 2.828145 1_555
Na1 O17 2.839381 1_545
Na1 O19 2.839381 1_545
Na1 O21 2.839381 1_555
Na1 O23 2.839381 1_555
Na2 O5 2.826361 1_455
Na2 O7 2.826361 1_555
Na2 O6 2.826361 1_555
Na2 O4 2.826361 1_455
Na2 O8 2.828145 1_555
Na2 O12 2.828145 1_555
Na2 O9 2.828145 1_555
Na2 O13 2.828145 1_555
Na2 O19 2.839381 1_555
Na2 O17 2.839381 1_455
Na2 O21 2.839381 1_455
Na2 O23 2.839381 1_555
O0 Ta0 2.004694 1_545
O0 Ta4 2.004694 1_555
O1 Ta1 2.004694 1_545
O1 Ta5 2.004694 1_555
O2 Ta2 2.004694 1_545
O2 Ta6 2.004694 1_555
O3 Ta3 2.004694 1_545
O3 Ta7 2.004694 1_555
O4 Ta4 2.010789 1_555
O4 Ta0 2.010789 1_555
O5 Ta5 2.010789 1_555
O5 Ta1 2.010789 1_555
O6 Ta6 2.010789 1_555
O6 Ta2 2.010789 1_555
O7 Ta7 2.010789 1_555
O7 Ta3 2.010789 1_555
O8 Ta0 2.004694 1_455
O8 Ta2 2.004694 1_555
O9 Ta1 2.004694 1_455
O9 Ta3 2.004694 1_555
O10 Ta2 2.010789 1_555
O10 Ta0 2.010789 1_555
O11 Ta3 2.010789 1_555
O11 Ta1 2.010789 1_555
O12 Ta4 2.004694 1_455
O12 Ta6 2.004694 1_555
O13 Ta5 2.004694 1_455
O13 Ta7 2.004694 1_555
O14 Ta6 2.010789 1_555
O14 Ta4 2.010789 1_555
O15 Ta7 2.010789 1_555
O15 Ta5 2.010789 1_555
O16 Ta0 2.016595 1_554
O16 Ta1 2.016595 1_555
O17 Ta1 1.998280 1_555
O17 Ta0 1.998280 1_555
O18 Ta2 2.016595 1_554
O18 Ta3 2.016595 1_555
O19 Ta3 1.998280 1_555
O19 Ta2 1.998280 1_555
O20 Ta4 2.016595 1_554
O20 Ta5 2.016595 1_555
O21 Ta5 1.998280 1_555
O21 Ta4 1.998280 1_555
O22 Ta6 2.016595 1_554
O22 Ta7 2.016595 1_555
O23 Ta7 1.998280 1_555
O23 Ta6 1.998280 1_555
