# generated using pymatgen
data_Nd2H6Se7O20
_symmetry_space_group_name_H-M   'P 1'
_cell_length_a   7.44773400
_cell_length_b   10.82726400
_cell_length_c   23.84240300
_cell_angle_alpha   90.00000000
_cell_angle_beta   90.00000000
_cell_angle_gamma   90.00000000
_symmetry_Int_Tables_number   1
_chemical_formula_structural   Nd2H6Se7O20
_chemical_formula_sum   'Nd8 H24 Se28 O80'
_cell_volume   1922.61757463
_cell_formula_units_Z   4
loop_
 _symmetry_equiv_pos_site_id
 _symmetry_equiv_pos_as_xyz
  1  'x, y, z'
loop_
 _atom_site_type_symbol
 _atom_site_label
 _atom_site_symmetry_multiplicity
 _atom_site_fract_x
 _atom_site_fract_y
 _atom_site_fract_z
 _atom_site_occupancy
  Nd  Nd0  1  0.04421400  0.93145800  0.51620400  1
  Nd  Nd1  1  0.95578600  0.06854200  0.01620400  1
  Nd  Nd2  1  0.54421400  0.56854200  0.01620400  1
  Nd  Nd3  1  0.45578600  0.43145800  0.51620400  1
  Nd  Nd4  1  0.95416400  0.83834000  0.69266200  1
  Nd  Nd5  1  0.04583600  0.16166000  0.19266200  1
  Nd  Nd6  1  0.45416400  0.66166000  0.19266200  1
  Nd  Nd7  1  0.54583600  0.33834000  0.69266200  1
  H  H0  1  0.48602400  0.84608500  0.33296100  1
  H  H1  1  0.51397600  0.15391500  0.83296100  1
  H  H2  1  0.98602400  0.65391500  0.83296100  1
  H  H3  1  0.01397600  0.34608500  0.33296100  1
  H  H4  1  0.28210800  0.15927800  0.32030400  1
  H  H5  1  0.71789200  0.84072200  0.82030400  1
  H  H6  1  0.78210800  0.34072200  0.82030400  1
  H  H7  1  0.21789200  0.65927800  0.32030400  1
  H  H8  1  0.81265300  0.03245700  0.41371700  1
  H  H9  1  0.18734700  0.96754300  0.91371700  1
  H  H10  1  0.31265300  0.46754300  0.91371700  1
  H  H11  1  0.68734700  0.53245700  0.41371700  1
  H  H12  1  0.82382300  0.88845300  0.40041300  1
  H  H13  1  0.17617700  0.11154700  0.90041300  1
  H  H14  1  0.32382300  0.61154700  0.90041300  1
  H  H15  1  0.67617700  0.38845300  0.40041300  1
  H  H16  1  0.13035100  0.68849200  0.44484000  1
  H  H17  1  0.86964900  0.31150800  0.94484000  1
  H  H18  1  0.63035100  0.81150800  0.94484000  1
  H  H19  1  0.36964900  0.18849200  0.44484000  1
  H  H20  1  0.92685200  0.71255000  0.43989500  1
  H  H21  1  0.07314800  0.28745000  0.93989500  1
  H  H22  1  0.42685200  0.78745000  0.93989500  1
  H  H23  1  0.57314800  0.21255000  0.43989500  1
  Se  Se0  1  0.93298800  0.28204400  0.49139200  1
  Se  Se1  1  0.06701200  0.71795600  0.99139200  1
  Se  Se2  1  0.43298800  0.21795600  0.99139200  1
  Se  Se3  1  0.56701200  0.78204400  0.49139200  1
  Se  Se4  1  0.20653500  0.20857900  0.59447800  1
  Se  Se5  1  0.79346500  0.79142100  0.09447800  1
  Se  Se6  1  0.70653500  0.29142100  0.09447800  1
  Se  Se7  1  0.29346500  0.70857900  0.59447800  1
  Se  Se8  1  0.70485100  0.06356300  0.60747000  1
  Se  Se9  1  0.29514900  0.93643700  0.10747000  1
  Se  Se10  1  0.20485100  0.43643700  0.10747000  1
  Se  Se11  1  0.79514900  0.56356300  0.60747000  1
  Se  Se12  1  0.43872600  0.00395700  0.71419600  1
  Se  Se13  1  0.56127400  0.99604300  0.21419600  1
  Se  Se14  1  0.93872600  0.49604300  0.21419600  1
  Se  Se15  1  0.06127400  0.50395700  0.71419600  1
  Se  Se16  1  0.96352000  0.17403700  0.73548000  1
  Se  Se17  1  0.03648000  0.82596300  0.23548000  1
  Se  Se18  1  0.46352000  0.32596300  0.23548000  1
  Se  Se19  1  0.53648000  0.67403700  0.73548000  1
  Se  Se20  1  0.23585800  0.31940500  0.81936900  1
  Se  Se21  1  0.76414200  0.68059500  0.31936900  1
  Se  Se22  1  0.73585800  0.18059500  0.31936900  1
  Se  Se23  1  0.26414200  0.81940500  0.81936900  1
  Se  Se24  1  0.25460400  0.97075700  0.37180400  1
  Se  Se25  1  0.74539600  0.02924300  0.87180400  1
  Se  Se26  1  0.75460400  0.52924300  0.87180400  1
  Se  Se27  1  0.24539600  0.47075700  0.37180400  1
  O  O0  1  0.89642600  0.13227800  0.51038400  1
  O  O1  1  0.10357400  0.86772200  0.01038400  1
  O  O2  1  0.39642600  0.36772200  0.01038400  1
  O  O3  1  0.60357400  0.63227800  0.51038400  1
  O  O4  1  0.77047500  0.35880300  0.52604300  1
  O  O5  1  0.22952500  0.64119700  0.02604300  1
  O  O6  1  0.27047500  0.14119700  0.02604300  1
  O  O7  1  0.72952500  0.85880300  0.52604300  1
  O  O8  1  0.13621800  0.31428500  0.53479900  1
  O  O9  1  0.86378200  0.68571500  0.03479900  1
  O  O10  1  0.63621800  0.18571500  0.03479900  1
  O  O11  1  0.36378200  0.81428500  0.53479900  1
  O  O12  1  0.25498700  0.07756500  0.56027500  1
  O  O13  1  0.74501300  0.92243500  0.06027500  1
  O  O14  1  0.75498700  0.42243500  0.06027500  1
  O  O15  1  0.24501300  0.57756500  0.56027500  1
  O  O16  1  0.40643900  0.28815200  0.59673200  1
  O  O17  1  0.59356100  0.71184800  0.09673200  1
  O  O18  1  0.90643900  0.21184800  0.09673200  1
  O  O19  1  0.09356100  0.78815200  0.59673200  1
  O  O20  1  0.74218000  0.18895400  0.64833400  1
  O  O21  1  0.25782000  0.81104600  0.14833400  1
  O  O22  1  0.24218000  0.31104600  0.14833400  1
  O  O23  1  0.75782000  0.68895400  0.64833400  1
  O  O24  1  0.90699900  0.98960600  0.61322200  1
  O  O25  1  0.09300100  0.01039400  0.11322200  1
  O  O26  1  0.40699900  0.51039400  0.11322200  1
  O  O27  1  0.59300100  0.48960600  0.61322200  1
  O  O28  1  0.59828000  0.95257300  0.65928600  1
  O  O29  1  0.40172000  0.04742700  0.15928600  1
  O  O30  1  0.09828000  0.54742700  0.15928600  1
  O  O31  1  0.90172000  0.45257300  0.65928600  1
  O  O32  1  0.37102700  0.14286800  0.68935800  1
  O  O33  1  0.62897300  0.85713200  0.18935800  1
  O  O34  1  0.87102700  0.35713200  0.18935800  1
  O  O35  1  0.12897300  0.64286800  0.68935800  1
  O  O36  1  0.26524800  0.90784600  0.70038000  1
  O  O37  1  0.73475200  0.09215400  0.20038000  1
  O  O38  1  0.76524800  0.59215400  0.20038000  1
  O  O39  1  0.23475200  0.40784600  0.70038000  1
  O  O40  1  0.88761300  0.02874300  0.74668800  1
  O  O41  1  0.11238700  0.97125700  0.24668800  1
  O  O42  1  0.38761300  0.47125700  0.24668800  1
  O  O43  1  0.61238700  0.52874300  0.74668800  1
  O  O44  1  0.79355400  0.27096600  0.75736300  1
  O  O45  1  0.20644600  0.72903400  0.25736300  1
  O  O46  1  0.29355400  0.22903400  0.25736300  1
  O  O47  1  0.70644600  0.77096600  0.75736300  1
  O  O48  1  0.10136400  0.17897100  0.80110900  1
  O  O49  1  0.89863600  0.82102900  0.30110900  1
  O  O50  1  0.60136400  0.32102900  0.30110900  1
  O  O51  1  0.39863600  0.67897100  0.80110900  1
  O  O52  1  0.44112500  0.27696900  0.79453500  1
  O  O53  1  0.55887500  0.72303100  0.29453500  1
  O  O54  1  0.94112500  0.22303100  0.29453500  1
  O  O55  1  0.05887500  0.77696900  0.79453500  1
  O  O56  1  0.24707800  0.29196400  0.88922700  1
  O  O57  1  0.75292200  0.70803600  0.38922700  1
  O  O58  1  0.74707800  0.20803600  0.38922700  1
  O  O59  1  0.25292200  0.79196400  0.88922700  1
  O  O60  1  0.26827500  0.97815000  0.44178700  1
  O  O61  1  0.73172500  0.02185000  0.94178700  1
  O  O62  1  0.76827500  0.52185000  0.94178700  1
  O  O63  1  0.23172500  0.47815000  0.44178700  1
  O  O64  1  0.48038700  0.92621300  0.35518600  1
  O  O65  1  0.51961300  0.07378700  0.85518600  1
  O  O66  1  0.98038700  0.57378700  0.85518600  1
  O  O67  1  0.01961300  0.42621300  0.35518600  1
  O  O68  1  0.28808200  0.13249500  0.36109600  1
  O  O69  1  0.71191800  0.86750500  0.86109600  1
  O  O70  1  0.78808200  0.36750500  0.86109600  1
  O  O71  1  0.21191800  0.63249500  0.36109600  1
  O  O72  1  0.88644700  0.95812100  0.41849600  1
  O  O73  1  0.11355300  0.04187900  0.91849600  1
  O  O74  1  0.38644700  0.54187900  0.91849600  1
  O  O75  1  0.61355300  0.45812100  0.41849600  1
  O  O76  1  0.03305400  0.73260600  0.46341600  1
  O  O77  1  0.96694600  0.26739400  0.96341600  1
  O  O78  1  0.53305400  0.76739400  0.96341600  1
  O  O79  1  0.46694600  0.23260600  0.46341600  1
loop_
_geom_bond_atom_site_label_1
_geom_bond_atom_site_label_2
_geom_bond_distance
_geom_bond_site_symmetry_2
Nd0 O0 2.441000 1_465
Nd0 O12 2.463907 1_565
Nd0 O7 2.483320 1_455
Nd0 O60 2.487642 1_555
Nd0 O76 2.495290 1_555
Nd0 O19 2.495776 1_555
Nd0 O24 2.606025 1_455
Nd0 O72 2.625069 1_455
Nd0 O11 2.733265 1_555
Nd1 O1 2.441000 1_645
Nd1 O13 2.463907 1_545
Nd1 O6 2.483320 1_655
Nd1 O61 2.487642 1_554
Nd1 O77 2.495290 1_554
Nd1 O18 2.495776 1_555
Nd1 O25 2.606025 1_655
Nd1 O73 2.625069 1_654
Nd1 O10 2.733265 1_555
Nd2 O2 2.441000 1_555
Nd2 O14 2.463907 1_555
Nd2 O5 2.483320 1_555
Nd2 O62 2.487642 1_554
Nd2 O78 2.495290 1_554
Nd2 O17 2.495776 1_555
Nd2 O26 2.606025 1_555
Nd2 O74 2.625069 1_554
Nd2 O9 2.733265 1_555
Nd3 O3 2.441000 1_555
Nd3 O15 2.463907 1_555
Nd3 O4 2.483320 1_555
Nd3 O63 2.487642 1_555
Nd3 O79 2.495290 1_555
Nd3 O16 2.495776 1_555
Nd3 O27 2.606025 1_555
Nd3 O75 2.625069 1_555
Nd3 O8 2.733265 1_555
Nd4 O23 2.423118 1_555
Nd4 O36 2.442969 1_655
Nd4 O40 2.480899 1_565
Nd4 O35 2.486060 1_655
Nd4 O47 2.513092 1_555
Nd4 O24 2.528470 1_555
Nd4 O19 2.569906 1_655
Nd4 O55 2.636144 1_655
Nd5 O22 2.423118 1_555
Nd5 O37 2.442969 1_455
Nd5 O41 2.480899 1_545
Nd5 O34 2.486060 1_455
Nd5 O46 2.513092 1_555
Nd5 O25 2.528470 1_555
Nd5 O18 2.569906 1_455
Nd5 O54 2.636144 1_455
Nd6 O21 2.423118 1_555
Nd6 O38 2.442969 1_555
Nd6 O42 2.480899 1_555
Nd6 O33 2.486060 1_555
Nd6 O45 2.513092 1_555
Nd6 O26 2.528470 1_555
Nd6 O17 2.569906 1_555
Nd6 O53 2.636144 1_555
Nd7 O20 2.423118 1_555
Nd7 O39 2.442969 1_555
Nd7 O43 2.480899 1_555
Nd7 O32 2.486060 1_555
Nd7 O44 2.513092 1_555
Nd7 O27 2.528470 1_555
Nd7 O16 2.569906 1_555
Nd7 O52 2.636144 1_555
H0 O64 1.017461 1_555
H0 O53 1.705543 1_555
H1 O65 1.017461 1_555
H1 O52 1.705543 1_555
H2 O66 1.017461 1_555
H2 O55 1.705543 1_655
H3 O67 1.017461 1_555
H3 O54 1.705543 1_455
H4 O68 1.015865 1_555
H4 O46 1.682168 1_555
H5 O69 1.015865 1_555
H5 O47 1.682168 1_555
H6 O70 1.015865 1_555
H6 O44 1.682168 1_555
H7 O71 1.015865 1_555
H7 O45 1.682168 1_555
H8 O72 0.981241 1_545
H9 O73 0.981241 1_565
H10 O74 0.981241 1_555
H11 O75 0.981241 1_555
H12 O72 0.986108 1_555
H13 O73 0.986108 1_555
H14 O74 0.986108 1_555
H15 O75 0.986108 1_555
H16 O76 0.974370 1_555
H17 O77 0.974370 1_555
H18 O78 0.974370 1_555
H19 O79 0.974370 1_555
H20 O76 0.993616 1_655
H21 O77 0.993616 1_455
H22 O78 0.993616 1_555
H23 O79 0.993616 1_555
O0 Se0 1.705472 1_555
O1 Se1 1.705472 1_554
O2 Se2 1.705472 1_554
O3 Se3 1.705472 1_555
O4 Se0 1.684699 1_555
O5 Se1 1.684699 1_554
O6 Se2 1.684699 1_554
O7 Se3 1.684699 1_555
O8 Se0 1.866528 1_455
O8 Se4 1.899678 1_555
O9 Se1 1.866528 1_654
O9 Se5 1.899678 1_555
O10 Se2 1.866528 1_554
O10 Se6 1.899678 1_555
O11 Se3 1.866528 1_555
O11 Se7 1.899678 1_555
O12 Se4 1.675541 1_555
O13 Se5 1.675541 1_555
O14 Se6 1.675541 1_555
O15 Se7 1.675541 1_555
O16 Se4 1.720985 1_555
O17 Se5 1.720985 1_555
O18 Se6 1.720985 1_555
O19 Se7 1.720985 1_555
O20 Se8 1.694030 1_555
O21 Se9 1.694030 1_555
O22 Se10 1.694030 1_555
O23 Se11 1.694030 1_555
O24 Se8 1.710753 1_565
O25 Se9 1.710753 1_545
O26 Se10 1.710753 1_555
O27 Se11 1.710753 1_555
O28 Se12 1.853534 1_565
O28 Se8 1.897462 1_565
O29 Se13 1.853534 1_545
O29 Se9 1.897462 1_545
O30 Se14 1.853534 1_455
O30 Se10 1.897462 1_555
O31 Se15 1.853534 1_655
O31 Se11 1.897462 1_555
O32 Se12 1.693226 1_555
O33 Se13 1.693226 1_555
O34 Se14 1.693226 1_555
O35 Se15 1.693226 1_555
O36 Se12 1.691363 1_565
O37 Se13 1.691363 1_545
O38 Se14 1.691363 1_555
O39 Se15 1.691363 1_555
O40 Se16 1.692859 1_555
O41 Se17 1.692859 1_555
O42 Se18 1.692859 1_555
O43 Se19 1.692859 1_555
O44 Se16 1.725115 1_555
O45 Se17 1.725115 1_555
O46 Se18 1.725115 1_555
O47 Se19 1.725115 1_555
O48 Se20 1.872128 1_555
O48 Se16 1.872236 1_455
O49 Se21 1.872128 1_555
O49 Se17 1.872236 1_655
O50 Se22 1.872128 1_555
O50 Se18 1.872236 1_555
O51 Se23 1.872128 1_555
O51 Se19 1.872236 1_555
O52 Se20 1.702599 1_555
O53 Se21 1.702599 1_555
O54 Se22 1.702599 1_555
O55 Se23 1.702599 1_555
O56 Se20 1.693937 1_555
O57 Se21 1.693937 1_555
O58 Se22 1.693937 1_555
O59 Se23 1.693937 1_555
O60 Se24 1.673582 1_555
O61 Se25 1.673582 1_555
O62 Se26 1.673582 1_555
O63 Se27 1.673582 1_555
O64 Se24 1.793675 1_555
O65 Se25 1.793675 1_555
O66 Se26 1.793675 1_555
O67 Se27 1.793675 1_555
O68 Se24 1.787171 1_545
O69 Se25 1.787171 1_565
O70 Se26 1.787171 1_555
O71 Se27 1.787171 1_555
