# generated using pymatgen
data_Al2Zn(SeS)2
_symmetry_space_group_name_H-M   'P 1'
_cell_length_a   5.52439053
_cell_length_b   5.49223388
_cell_length_c   6.63993932
_cell_angle_alpha   64.88698759
_cell_angle_beta   64.73766194
_cell_angle_gamma   88.50828640
_symmetry_Int_Tables_number   1
_chemical_formula_structural   Al2Zn(SeS)2
_chemical_formula_sum   'Al2 Zn1 Se2 S2'
_cell_volume   161.98829698
_cell_formula_units_Z   1
loop_
 _symmetry_equiv_pos_site_id
 _symmetry_equiv_pos_as_xyz
  1  'x, y, z'
loop_
 _atom_site_type_symbol
 _atom_site_label
 _atom_site_symmetry_multiplicity
 _atom_site_fract_x
 _atom_site_fract_y
 _atom_site_fract_z
 _atom_site_occupancy
  Al  Al0  1  0.50490900  0.50490900  0.99018300  1
  Al  Al1  1  0.74458400  0.24458400  0.51083200  1
  Zn  Zn0  1  0.00417600  0.00417600  0.99164800  1
  Se  Se0  1  0.60024600  0.62470100  0.26322400  1
  Se  Se1  1  0.13653000  0.11207500  0.26322400  1
  S  S0  1  0.86606500  0.38131800  0.74044400  1
  S  S1  1  0.39349100  0.87823800  0.74044400  1
loop_
_geom_bond_atom_site_label_1
_geom_bond_atom_site_label_2
_geom_bond_distance
_geom_bond_site_symmetry_2
Al0 S1 2.291784 1_555
Al0 S0 2.291784 1_555
Al0 Se0 2.417155 1_556
Al0 Se1 2.417161 1_556
Al1 S1 2.282581 1_545
Al1 S0 2.282581 1_555
Al1 Se1 2.411677 1_655
Al1 Se0 2.411677 1_555
Se0 Zn0 2.488470 1_664
Se1 Zn0 2.488470 1_554
S0 Zn0 2.392931 1_655
S1 Zn0 2.392931 1_565
