# generated using pymatgen
data_MgTi
_symmetry_space_group_name_H-M   'P 1'
_cell_length_a   4.90237600
_cell_length_b   5.24795200
_cell_length_c   6.05732000
_cell_angle_alpha   90.00000000
_cell_angle_beta   90.00000000
_cell_angle_gamma   90.00000000
_symmetry_Int_Tables_number   1
_chemical_formula_structural   MgTi
_chemical_formula_sum   'Mg4 Ti4'
_cell_volume   155.83930012
_cell_formula_units_Z   4
loop_
 _symmetry_equiv_pos_site_id
 _symmetry_equiv_pos_as_xyz
  1  'x, y, z'
loop_
 _atom_site_type_symbol
 _atom_site_label
 _atom_site_symmetry_multiplicity
 _atom_site_fract_x
 _atom_site_fract_y
 _atom_site_fract_z
 _atom_site_occupancy
  Mg  Mg0  1  0.25000000  0.08374500  0.87480800  1
  Mg  Mg1  1  0.25000000  0.58374500  0.62519200  1
  Mg  Mg2  1  0.75000000  0.41625500  0.37480800  1
  Mg  Mg3  1  0.75000000  0.91625500  0.12519200  1
  Ti  Ti0  1  0.25000000  0.08463800  0.37430100  1
  Ti  Ti1  1  0.25000000  0.58463800  0.12569900  1
  Ti  Ti2  1  0.75000000  0.41536200  0.87430100  1
  Ti  Ti3  1  0.75000000  0.91536200  0.62569900  1
loop_
_geom_bond_atom_site_label_1
_geom_bond_atom_site_label_2
_geom_bond_distance
_geom_bond_site_symmetry_2
Mg0 Ti2 3.006162 1_455
Mg0 Ti2 3.006162 1_555
Mg0 Ti3 3.010991 1_545
Mg0 Ti3 3.010991 1_445
Mg0 Mg3 3.013498 1_546
Mg0 Mg3 3.013498 1_446
Mg0 Ti0 3.025593 1_556
Mg0 Ti1 3.028242 1_546
Mg0 Mg1 3.028433 1_555
Mg0 Mg1 3.028433 1_545
Mg0 Ti0 3.031735 1_555
Mg0 Ti1 3.036352 1_556
Mg1 Ti3 3.006162 1_555
Mg1 Ti3 3.006162 1_455
Mg1 Ti2 3.010991 1_455
Mg1 Ti2 3.010991 1_555
Mg1 Mg2 3.013498 1_455
Mg1 Mg2 3.013498 1_555
Mg1 Ti1 3.025593 1_555
Mg1 Ti0 3.028242 1_555
Mg1 Ti1 3.031735 1_556
Mg1 Ti0 3.036352 1_565
Mg2 Ti0 3.006162 1_655
Mg2 Ti0 3.006162 1_555
Mg2 Ti1 3.010991 1_555
Mg2 Ti1 3.010991 1_655
Mg2 Ti2 3.025593 1_555
Mg2 Ti3 3.028242 1_555
Mg2 Mg3 3.028433 1_545
Mg2 Mg3 3.028433 1_555
Mg2 Ti2 3.031735 1_554
Mg2 Ti3 3.036352 1_545
Mg3 Ti1 3.006162 1_655
Mg3 Ti1 3.006162 1_555
Mg3 Ti0 3.010991 1_565
Mg3 Ti0 3.010991 1_665
Mg3 Ti3 3.025593 1_554
Mg3 Ti2 3.028242 1_564
Mg3 Ti3 3.031735 1_555
Mg3 Ti2 3.036352 1_554
Ti0 Ti3 3.019339 1_545
Ti0 Ti3 3.019339 1_445
Ti0 Ti1 3.025371 1_555
Ti0 Ti1 3.025371 1_545
Ti1 Ti2 3.019339 1_554
Ti1 Ti2 3.019339 1_454
Ti2 Ti3 3.025371 1_555
Ti2 Ti3 3.025371 1_545
