# generated using pymatgen
data_Ce2NiGe3
_symmetry_space_group_name_H-M   'P 1'
_cell_length_a   4.29404018
_cell_length_b   8.29127294
_cell_length_c   8.29126582
_cell_angle_alpha   119.99856013
_cell_angle_beta   90.00000000
_cell_angle_gamma   90.00000000
_symmetry_Int_Tables_number   1
_chemical_formula_structural   Ce2NiGe3
_chemical_formula_sum   'Ce4 Ni2 Ge6'
_cell_volume   255.64958228
_cell_formula_units_Z   2
loop_
 _symmetry_equiv_pos_site_id
 _symmetry_equiv_pos_as_xyz
  1  'x, y, z'
loop_
 _atom_site_type_symbol
 _atom_site_label
 _atom_site_symmetry_multiplicity
 _atom_site_fract_x
 _atom_site_fract_y
 _atom_site_fract_z
 _atom_site_occupancy
  Ce  Ce0  1  0.50000000  0.00001192  0.00001178  1
  Ce  Ce1  1  0.50000000  0.00001533  0.50039692  1
  Ce  Ce2  1  0.50000000  0.49961547  0.49961223  1
  Ce  Ce3  1  0.50000000  0.50040109  0.00002235  1
  Ni  Ni0  1  -0.00000000  0.66670202  0.33333244  1
  Ni  Ni1  1  0.00000000  0.33331135  0.66668196  1
  Ge  Ge0  1  -0.00000000  0.82739674  0.17282213  1
  Ge  Ge1  1  0.00000000  0.82720666  0.65456009  1
  Ge  Ge2  1  0.00000000  0.34545096  0.17261694  1
  Ge  Ge3  1  -0.00000000  0.17281211  0.82738542  1
  Ge  Ge4  1  -0.00000000  0.65456128  0.82720153  1
  Ge  Ge5  1  0.00000000  0.17261407  0.34545621  1
loop_
_geom_bond_atom_site_label_1
_geom_bond_atom_site_label_2
_geom_bond_distance
_geom_bond_site_symmetry_2
Ce0 Ge0 3.280480 1_645
Ce0 Ge0 3.280480 1_545
Ce0 Ge3 3.280485 1_554
Ce0 Ge3 3.280485 1_654
Ce0 Ge2 3.280595 1_655
Ce0 Ge2 3.280595 1_555
Ce0 Ge5 3.280622 1_555
Ce0 Ge5 3.280622 1_655
Ce0 Ge4 3.280658 1_644
Ce0 Ge4 3.280658 1_544
Ce0 Ge1 3.280662 1_644
Ce0 Ge1 3.280662 1_544
Ce1 Ge1 3.182417 1_545
Ce1 Ge1 3.182417 1_645
Ce1 Ge3 3.182540 1_655
Ce1 Ge3 3.182540 1_555
Ce1 Ge5 3.185328 1_555
Ce1 Ge5 3.185328 1_655
Ce1 Ge0 3.185554 1_645
Ce1 Ge0 3.185554 1_545
Ce1 Ni1 3.215176 1_555
Ce1 Ni1 3.215176 1_655
Ce1 Ni0 3.215269 1_545
Ce1 Ni0 3.215269 1_645
Ce2 Ge2 3.182579 1_655
Ce2 Ge2 3.182579 1_555
Ce2 Ge5 3.182615 1_555
Ce2 Ge5 3.182615 1_655
Ce2 Ge4 3.185632 1_555
Ce2 Ge4 3.185632 1_655
Ce2 Ge1 3.185643 1_555
Ce2 Ge1 3.185643 1_655
Ce2 Ni0 3.215512 1_555
Ce2 Ni0 3.215512 1_655
Ce2 Ni1 3.215552 1_555
Ce2 Ni1 3.215552 1_655
Ce3 Ge4 3.182467 1_654
Ce3 Ge4 3.182467 1_554
Ce3 Ge0 3.182579 1_655
Ce3 Ge0 3.182579 1_555
Ce3 Ge2 3.185355 1_655
Ce3 Ge2 3.185355 1_555
Ce3 Ge3 3.185633 1_654
Ce3 Ge3 3.185633 1_554
Ce3 Ni0 3.215249 1_655
Ce3 Ni0 3.215249 1_555
Ce3 Ni1 3.215412 1_654
Ce3 Ni1 3.215412 1_554
Ge0 Ni0 2.306380 1_555
Ge0 Ge5 2.478853 1_565
Ge0 Ge4 2.481746 1_554
Ge1 Ni0 2.306592 1_555
Ge1 Ge4 2.479297 1_555
Ge1 Ge3 2.481640 1_565
Ge2 Ni0 2.306762 1_555
Ge2 Ge3 2.478953 1_554
Ge2 Ge5 2.482092 1_555
Ge3 Ni1 2.306363 1_555
Ge4 Ni1 2.306754 1_555
Ge5 Ni1 2.306578 1_555
