# generated using pymatgen
data_Li2Mn3NbO8
_symmetry_space_group_name_H-M   'P 1'
_cell_length_a   6.20989276
_cell_length_b   6.12165850
_cell_length_c   10.22297540
_cell_angle_alpha   103.95516713
_cell_angle_beta   89.98890359
_cell_angle_gamma   59.51424167
_symmetry_Int_Tables_number   1
_chemical_formula_structural   Li2Mn3NbO8
_chemical_formula_sum   'Li4 Mn6 Nb2 O16'
_cell_volume   321.50696657
_cell_formula_units_Z   2
loop_
 _symmetry_equiv_pos_site_id
 _symmetry_equiv_pos_as_xyz
  1  'x, y, z'
loop_
 _atom_site_type_symbol
 _atom_site_label
 _atom_site_symmetry_multiplicity
 _atom_site_fract_x
 _atom_site_fract_y
 _atom_site_fract_z
 _atom_site_occupancy
  Li  Li0  1  0.30689400  0.38624400  0.57011000  1
  Li  Li1  1  0.80686900  0.38624800  0.07011400  1
  Li  Li2  1  0.19213000  0.61574700  0.93010000  1
  Li  Li3  1  0.69207800  0.61580800  0.43010700  1
  Mn  Mn0  1  0.75002700  0.99919200  0.75083300  1
  Mn  Mn1  1  0.25076100  0.99924400  0.75084600  1
  Mn  Mn2  1  0.00244300  0.99513700  0.49804500  1
  Mn  Mn3  1  0.25005300  0.99921400  0.25085700  1
  Mn  Mn4  1  0.75066600  0.99929500  0.25083000  1
  Mn  Mn5  1  0.50243100  0.99516600  0.99796500  1
  Nb  Nb0  1  0.75259700  0.49484800  0.74669700  1
  Nb  Nb1  1  0.25251300  0.49486500  0.24667700  1
  O  O0  1  0.09487300  0.81028400  0.63738900  1
  O  O1  1  0.59488600  0.81023100  0.13738800  1
  O  O2  1  0.40504700  0.18992500  0.86362300  1
  O  O3  1  0.90500100  0.18999900  0.36361300  1
  O  O4  1  0.86339200  0.27317600  0.87158100  1
  O  O5  1  0.36341000  0.27317900  0.37157300  1
  O  O6  1  0.64888100  0.24560400  0.63807800  1
  O  O7  1  0.14885300  0.24561400  0.13808100  1
  O  O8  1  0.10559000  0.24570700  0.63815400  1
  O  O9  1  0.60556000  0.24565400  0.13811100  1
  O  O10  1  0.39495000  0.75579100  0.86230600  1
  O  O11  1  0.89493100  0.75579800  0.36228000  1
  O  O12  1  0.84920700  0.75580300  0.86233000  1
  O  O13  1  0.34911500  0.75587200  0.36235300  1
  O  O14  1  0.63341300  0.73317300  0.62998100  1
  O  O15  1  0.13343000  0.73318200  0.12997900  1
loop_
_geom_bond_atom_site_label_1
_geom_bond_atom_site_label_2
_geom_bond_distance
_geom_bond_site_symmetry_2
Li0 O5 1.948679 1_555
Li0 O8 2.041138 1_555
Li0 O6 2.041584 1_555
Li0 O0 2.148394 1_555
Li1 O4 1.948640 1_554
Li1 O9 2.041236 1_555
Li1 O7 2.041565 1_655
Li1 O1 2.148106 1_555
Li2 O15 1.962219 1_556
Li2 O10 2.045343 1_555
Li2 O12 2.045592 1_455
Li2 O2 2.157133 1_555
Li3 O14 1.962161 1_555
Li3 O11 2.045392 1_555
Li3 O13 2.045725 1_555
Li3 O3 2.157072 1_555
Mn0 O12 1.945965 1_555
Mn0 O6 1.968814 1_565
Mn0 O2 2.023345 1_565
Mn0 O0 2.026721 1_655
Mn0 O14 2.220185 1_555
Mn0 O4 2.243268 1_565
Mn1 O10 1.945936 1_555
Mn1 O8 1.968494 1_565
Mn1 O2 2.023809 1_565
Mn1 O0 2.027308 1_555
Mn1 O14 2.219734 1_555
Mn1 O4 2.242678 1_465
Mn2 O3 1.932987 1_465
Mn2 O0 1.938556 1_555
Mn2 O13 2.126876 1_555
Mn2 O11 2.128568 1_455
Mn2 O6 2.178350 1_465
Mn2 O8 2.179972 1_565
Mn3 O13 1.945795 1_555
Mn3 O7 1.968901 1_565
Mn3 O3 2.023507 1_465
Mn3 O1 2.026723 1_555
Mn3 O15 2.220386 1_555
Mn3 O5 2.243022 1_565
Mn4 O11 1.946072 1_555
Mn4 O9 1.968249 1_565
Mn4 O3 2.024164 1_565
Mn4 O1 2.027157 1_555
Mn4 O15 2.220180 1_655
Mn4 O5 2.242201 1_565
Mn5 O2 1.931799 1_565
Mn5 O1 1.939570 1_556
Mn5 O12 2.127032 1_555
Mn5 O10 2.128066 1_555
Mn5 O7 2.178825 1_566
Mn5 O9 2.179736 1_566
Nb0 O4 1.957902 1_555
Nb0 O14 1.960700 1_555
Nb0 O8 2.037906 1_655
Nb0 O6 2.038640 1_555
Nb0 O10 2.090406 1_555
Nb0 O12 2.090725 1_555
Nb1 O5 1.958060 1_555
Nb1 O15 1.960521 1_555
Nb1 O9 2.038256 1_555
Nb1 O7 2.038346 1_555
Nb1 O11 2.090105 1_455
Nb1 O13 2.091105 1_555
