# generated using pymatgen
data_YbPO2
_symmetry_space_group_name_H-M   'P 1'
_cell_length_a   6.04188200
_cell_length_b   6.04188200
_cell_length_c   7.20077523
_cell_angle_alpha   114.80491594
_cell_angle_beta   114.80491594
_cell_angle_gamma   90.00000000
_symmetry_Int_Tables_number   1
_chemical_formula_structural   YbPO2
_chemical_formula_sum   'Yb4 P4 O8'
_cell_volume   211.59608165
_cell_formula_units_Z   4
loop_
 _symmetry_equiv_pos_site_id
 _symmetry_equiv_pos_as_xyz
  1  'x, y, z'
loop_
 _atom_site_type_symbol
 _atom_site_label
 _atom_site_symmetry_multiplicity
 _atom_site_fract_x
 _atom_site_fract_y
 _atom_site_fract_z
 _atom_site_occupancy
  Yb  Yb0  1  0.62500000  0.87500000  0.25000000  1
  Yb  Yb1  1  0.62500000  0.37500000  0.25000000  1
  Yb  Yb2  1  0.62500000  0.37500000  0.75000000  1
  Yb  Yb3  1  0.12500000  0.37500000  0.75000000  1
  P  P0  1  0.12500000  0.37500000  0.25000000  1
  P  P1  1  0.12500000  0.87500000  0.25000000  1
  P  P2  1  0.12500000  0.87500000  0.75000000  1
  P  P3  1  0.62500000  0.87500000  0.75000000  1
  O  O0  1  0.39529700  0.17347100  0.34696500  1
  O  O1  1  0.95166800  0.17349400  0.34696500  1
  O  O2  1  0.42349400  0.14529700  0.84696500  1
  O  O3  1  0.85470300  0.57652900  0.15303500  1
  O  O4  1  0.42347100  0.70166800  0.84696500  1
  O  O5  1  0.29833200  0.57650600  0.15303500  1
  O  O6  1  0.82650600  0.60470300  0.65303500  1
  O  O7  1  0.82652900  0.04833200  0.65303500  1
loop_
_geom_bond_atom_site_label_1
_geom_bond_atom_site_label_2
_geom_bond_distance
_geom_bond_site_symmetry_2
O0 P1 2.096018 1_545
O0 P0 2.096118 1_555
O0 Yb0 2.328558 1_545
O0 Yb1 2.328648 1_555
O0 Yb2 2.342376 1_555
O1 P0 2.096018 1_655
O1 P1 2.096118 1_645
O1 Yb1 2.328558 1_555
O1 Yb0 2.328648 1_545
O1 Yb3 2.342376 1_655
O2 P3 2.096018 1_545
O2 P2 2.096118 1_545
O2 Yb2 2.328558 1_555
O2 Yb3 2.328648 1_555
O2 Yb1 2.342376 1_556
O3 P1 2.096018 1_655
O3 P0 2.096118 1_655
O3 Yb0 2.328558 1_555
O3 Yb1 2.328648 1_555
O3 Yb2 2.342376 1_554
O4 P2 2.096018 1_555
O4 P3 2.096118 1_555
O4 Yb3 2.328558 1_555
O4 Yb2 2.328648 1_555
O4 Yb0 2.342376 1_556
O5 P0 2.096018 1_555
O5 P1 2.096118 1_555
O5 Yb1 2.328558 1_555
O5 Yb0 2.328648 1_555
O5 Yb3 2.342376 1_554
O6 P3 2.096018 1_555
O6 P2 2.096118 1_655
O6 Yb2 2.328558 1_555
O6 Yb3 2.328648 1_655
O6 Yb1 2.342376 1_555
O7 P2 2.096018 1_645
O7 P3 2.096118 1_545
O7 Yb3 2.328558 1_655
O7 Yb2 2.328648 1_555
O7 Yb0 2.342376 1_545
