# generated using pymatgen
data_TiPd2
_symmetry_space_group_name_H-M   'P 1'
_cell_length_a   9.92345369
_cell_length_b   9.92345369
_cell_length_c   9.92345369
_cell_angle_alpha   141.46176052
_cell_angle_beta   141.46176052
_cell_angle_gamma   55.64040264
_symmetry_Int_Tables_number   1
_chemical_formula_structural   TiPd2
_chemical_formula_sum   'Ti8 Pd16'
_cell_volume   376.48542557
_cell_formula_units_Z   8
loop_
 _symmetry_equiv_pos_site_id
 _symmetry_equiv_pos_as_xyz
  1  'x, y, z'
loop_
 _atom_site_type_symbol
 _atom_site_label
 _atom_site_symmetry_multiplicity
 _atom_site_fract_x
 _atom_site_fract_y
 _atom_site_fract_z
 _atom_site_occupancy
  Ti  Ti0_0  1  0.00000000  0.00000000  0.00000000  1
  Ti  Ti0_1  1  0.00000000  0.00000000  0.50000000  1
  Ti  Ti0_2  1  0.00000000  0.50000000  0.00000000  1
  Ti  Ti0_3  1  0.00000000  0.50000000  0.50000000  1
  Ti  Ti0_4  1  0.50000000  0.00000000  0.00000000  1
  Ti  Ti0_5  1  0.50000000  0.00000000  0.50000000  1
  Ti  Ti0_6  1  0.50000000  0.50000000  0.00000000  1
  Ti  Ti0_7  1  0.50000000  0.50000000  0.50000000  1
  Pd  Pd0_0  1  0.32843250  0.32843250  0.00000000  1
  Pd  Pd0_1  1  0.32843250  0.32843250  0.50000000  1
  Pd  Pd0_2  1  0.32843250  0.82843250  0.00000000  1
  Pd  Pd0_3  1  0.32843250  0.82843250  0.50000000  1
  Pd  Pd0_4  1  0.82843250  0.32843250  0.00000000  1
  Pd  Pd0_5  1  0.82843250  0.32843250  0.50000000  1
  Pd  Pd0_6  1  0.82843250  0.82843250  0.00000000  1
  Pd  Pd0_7  1  0.82843250  0.82843250  0.50000000  1
  Pd  Pd1_0  1  0.17156750  0.17156750  0.00000000  1
  Pd  Pd1_1  1  0.17156750  0.17156750  0.50000000  1
  Pd  Pd1_2  1  0.17156750  0.67156750  0.00000000  1
  Pd  Pd1_3  1  0.17156750  0.67156750  0.50000000  1
  Pd  Pd1_4  1  0.67156750  0.17156750  0.00000000  1
  Pd  Pd1_5  1  0.67156750  0.17156750  0.50000000  1
  Pd  Pd1_6  1  0.67156750  0.67156750  0.00000000  1
  Pd  Pd1_7  1  0.67156750  0.67156750  0.50000000  1
loop_
_geom_bond_atom_site_label_1
_geom_bond_atom_site_label_2
_geom_bond_distance
_geom_bond_site_symmetry_2
Pd0_0 Ti0_7 2.693975 1_555
Pd0_0 Ti0_4 2.693975 1_555
Pd0_0 Ti0_2 2.693975 1_555
Pd0_0 Ti0_1 2.693975 1_554
Pd0_0 Pd1_0 2.753441 1_555
Pd0_0 Pd1_2 2.834553 1_555
Pd0_0 Pd1_1 2.834553 1_554
Pd0_0 Pd1_7 2.834553 1_555
Pd0_0 Pd1_4 2.834553 1_555
Pd0_0 Ti0_6 3.011513 1_555
Pd0_0 Pd0_3 3.274796 1_544
Pd0_0 Pd0_3 3.274796 1_555
Pd0_0 Pd0_5 3.274796 1_454
Pd0_0 Pd0_5 3.274796 1_555
Pd0_1 Ti0_6 2.693975 1_556
Pd0_1 Ti0_0 2.693975 1_555
Pd0_1 Ti0_3 2.693975 1_555
Pd0_1 Ti0_5 2.693975 1_555
Pd0_1 Pd1_1 2.753441 1_555
Pd0_1 Pd1_5 2.834553 1_555
Pd0_1 Pd1_3 2.834553 1_555
Pd0_1 Pd1_6 2.834553 1_556
Pd0_1 Pd1_0 2.834553 1_555
Pd0_1 Ti0_7 3.011513 1_555
Pd0_1 Pd0_4 3.274796 1_455
Pd0_1 Pd0_2 3.274796 1_545
Pd0_1 Pd0_4 3.274796 1_556
Pd0_1 Pd0_2 3.274796 1_556
Pd0_2 Ti0_3 2.693975 1_554
Pd0_2 Ti0_5 2.693975 1_565
Pd0_2 Ti0_6 2.693975 1_555
Pd0_2 Ti0_0 2.693975 1_565
Pd0_2 Pd1_2 2.753441 1_555
Pd0_2 Pd1_0 2.834553 1_565
Pd0_2 Pd1_5 2.834553 1_565
Pd0_2 Pd1_6 2.834553 1_555
Pd0_2 Pd1_3 2.834553 1_554
Pd0_2 Ti0_4 3.011513 1_565
Pd0_2 Pd0_7 3.274796 1_454
Pd0_2 Pd0_7 3.274796 1_555
Pd0_3 Ti0_7 2.693975 1_555
Pd0_3 Ti0_2 2.693975 1_555
Pd0_3 Ti0_4 2.693975 1_566
Pd0_3 Ti0_1 2.693975 1_565
Pd0_3 Pd1_3 2.753441 1_555
Pd0_3 Pd1_1 2.834553 1_565
Pd0_3 Pd1_2 2.834553 1_555
Pd0_3 Pd1_7 2.834553 1_555
Pd0_3 Pd1_4 2.834553 1_566
Pd0_3 Ti0_5 3.011513 1_565
Pd0_3 Pd0_6 3.274796 1_556
Pd0_3 Pd0_6 3.274796 1_455
Pd0_4 Ti0_0 2.693975 1_655
Pd0_4 Ti0_5 2.693975 1_554
Pd0_4 Ti0_6 2.693975 1_555
Pd0_4 Ti0_3 2.693975 1_655
Pd0_4 Pd1_4 2.753441 1_555
Pd0_4 Pd1_3 2.834553 1_655
Pd0_4 Pd1_6 2.834553 1_555
Pd0_4 Pd1_5 2.834553 1_554
Pd0_4 Pd1_0 2.834553 1_655
Pd0_4 Ti0_2 3.011513 1_655
Pd0_4 Pd0_7 3.274796 1_555
Pd0_4 Pd0_7 3.274796 1_544
Pd0_5 Ti0_7 2.693975 1_555
Pd0_5 Ti0_4 2.693975 1_555
Pd0_5 Ti0_2 2.693975 1_656
Pd0_5 Ti0_1 2.693975 1_655
Pd0_5 Pd1_5 2.753441 1_555
Pd0_5 Pd1_1 2.834553 1_655
Pd0_5 Pd1_2 2.834553 1_656
Pd0_5 Pd1_7 2.834553 1_555
Pd0_5 Pd1_4 2.834553 1_555
Pd0_5 Ti0_3 3.011513 1_655
Pd0_5 Pd0_6 3.274796 1_556
Pd0_5 Pd0_6 3.274796 1_545
Pd0_6 Ti0_4 2.693975 1_565
Pd0_6 Ti0_7 2.693975 1_554
Pd0_6 Ti0_1 2.693975 1_665
Pd0_6 Ti0_2 2.693975 1_655
Pd0_6 Pd1_6 2.753441 1_555
Pd0_6 Pd1_1 2.834553 1_665
Pd0_6 Pd1_2 2.834553 1_655
Pd0_6 Pd1_4 2.834553 1_565
Pd0_6 Pd1_7 2.834553 1_554
Pd0_6 Ti0_0 3.011513 1_665
Pd0_7 Ti0_6 2.693975 1_555
Pd0_7 Ti0_0 2.693975 1_666
Pd0_7 Ti0_3 2.693975 1_655
Pd0_7 Ti0_5 2.693975 1_565
Pd0_7 Pd1_7 2.753441 1_555
Pd0_7 Pd1_3 2.834553 1_655
Pd0_7 Pd1_5 2.834553 1_565
Pd0_7 Pd1_6 2.834553 1_555
Pd0_7 Pd1_0 2.834553 1_666
Pd0_7 Ti0_1 3.011513 1_665
Pd1_0 Ti0_1 2.693975 1_554
Pd1_0 Ti0_7 2.693975 1_555
Pd1_0 Ti0_4 2.693975 1_555
Pd1_0 Ti0_2 2.693975 1_555
Pd1_0 Ti0_0 3.011513 1_555
Pd1_0 Pd1_5 3.274796 1_555
Pd1_0 Pd1_3 3.274796 1_555
Pd1_0 Pd1_3 3.274796 1_544
Pd1_0 Pd1_5 3.274796 1_454
Pd1_1 Ti0_5 2.693975 1_555
Pd1_1 Ti0_6 2.693975 1_556
Pd1_1 Ti0_0 2.693975 1_555
Pd1_1 Ti0_3 2.693975 1_555
Pd1_1 Ti0_1 3.011513 1_555
Pd1_1 Pd1_2 3.274796 1_556
Pd1_1 Pd1_2 3.274796 1_545
Pd1_1 Pd1_4 3.274796 1_455
Pd1_1 Pd1_4 3.274796 1_556
Pd1_2 Ti0_5 2.693975 1_565
Pd1_2 Ti0_6 2.693975 1_555
Pd1_2 Ti0_0 2.693975 1_565
Pd1_2 Ti0_3 2.693975 1_554
Pd1_2 Ti0_2 3.011513 1_555
Pd1_2 Pd1_7 3.274796 1_454
Pd1_2 Pd1_7 3.274796 1_555
Pd1_3 Ti0_1 2.693975 1_565
Pd1_3 Ti0_7 2.693975 1_555
Pd1_3 Ti0_2 2.693975 1_555
Pd1_3 Ti0_4 2.693975 1_566
Pd1_3 Ti0_3 3.011513 1_555
Pd1_3 Pd1_6 3.274796 1_455
Pd1_3 Pd1_6 3.274796 1_556
Pd1_4 Ti0_0 2.693975 1_655
Pd1_4 Ti0_6 2.693975 1_555
Pd1_4 Ti0_3 2.693975 1_655
Pd1_4 Ti0_5 2.693975 1_554
Pd1_4 Ti0_4 3.011513 1_555
Pd1_4 Pd1_7 3.274796 1_544
Pd1_4 Pd1_7 3.274796 1_555
Pd1_5 Ti0_1 2.693975 1_655
Pd1_5 Ti0_2 2.693975 1_656
Pd1_5 Ti0_7 2.693975 1_555
Pd1_5 Ti0_4 2.693975 1_555
Pd1_5 Ti0_5 3.011513 1_555
Pd1_5 Pd1_6 3.274796 1_556
Pd1_5 Pd1_6 3.274796 1_545
Pd1_6 Ti0_4 2.693975 1_565
Pd1_6 Ti0_7 2.693975 1_554
Pd1_6 Ti0_1 2.693975 1_665
Pd1_6 Ti0_2 2.693975 1_655
Pd1_6 Ti0_6 3.011513 1_555
Pd1_7 Ti0_0 2.693975 1_666
Pd1_7 Ti0_5 2.693975 1_565
Pd1_7 Ti0_6 2.693975 1_555
Pd1_7 Ti0_3 2.693975 1_655
Pd1_7 Ti0_7 3.011513 1_555
