# generated using pymatgen
data_CeMg14Nb
_symmetry_space_group_name_H-M   'P 1'
_cell_length_a   6.47670990
_cell_length_b   6.03066976
_cell_length_c   10.45046442
_cell_angle_alpha   90.00000000
_cell_angle_beta   90.00000000
_cell_angle_gamma   117.74685365
_symmetry_Int_Tables_number   1
_chemical_formula_structural   CeMg14Nb
_chemical_formula_sum   'Ce1 Mg14 Nb1'
_cell_volume   361.24790249
_cell_formula_units_Z   1
loop_
 _symmetry_equiv_pos_site_id
 _symmetry_equiv_pos_as_xyz
  1  'x, y, z'
loop_
 _atom_site_type_symbol
 _atom_site_label
 _atom_site_symmetry_multiplicity
 _atom_site_fract_x
 _atom_site_fract_y
 _atom_site_fract_z
 _atom_site_occupancy
  Ce  Ce0  1  0.15274077  0.32636989  0.12500000  1
  Mg  Mg0  1  0.16308077  0.33153988  0.62500000  1
  Mg  Mg1  1  0.15943874  0.82971887  0.62500000  1
  Mg  Mg2  1  0.65427608  0.32428775  0.12500000  1
  Mg  Mg3  1  0.66062071  0.33282374  0.62500000  1
  Mg  Mg4  1  0.65427608  0.82998733  0.12500000  1
  Mg  Mg5  1  0.66062071  0.82779597  0.62500000  1
  Mg  Mg6  1  0.33924210  0.16558779  0.37681135  1
  Mg  Mg7  1  0.33924210  0.16558779  0.87318865  1
  Mg  Mg8  1  0.33924210  0.67365531  0.37681135  1
  Mg  Mg9  1  0.33924210  0.67365531  0.87318865  1
  Mg  Mg10  1  0.83570466  0.16785283  0.38501444  1
  Mg  Mg11  1  0.83570466  0.16785283  0.86498556  1
  Mg  Mg12  1  0.85060142  0.67530121  0.36256840  1
  Mg  Mg13  1  0.85060142  0.67530121  0.88743160  1
  Nb  Nb0  1  0.16536558  0.83268229  0.12500000  1
loop_
_geom_bond_atom_site_label_1
_geom_bond_atom_site_label_2
_geom_bond_distance
_geom_bond_site_symmetry_2
Ce0 Nb0 3.016203 1_555
Ce0 Nb0 3.016203 1_545
Ce0 Mg4 3.222584 1_445
Ce0 Mg2 3.222584 1_455
Ce0 Mg6 3.227201 1_555
Ce0 Mg7 3.227201 1_554
Ce0 Mg8 3.227206 1_555
Ce0 Mg9 3.227206 1_554
Ce0 Mg4 3.254163 1_555
Ce0 Mg2 3.254164 1_555
Ce0 Mg11 3.268935 1_454
Ce0 Mg10 3.268935 1_455
Mg0 Mg1 3.015407 1_545
Mg0 Mg1 3.015407 1_555
Mg0 Mg10 3.132277 1_455
Mg0 Mg11 3.132277 1_455
Mg0 Mg6 3.177074 1_555
Mg0 Mg7 3.177074 1_555
Mg0 Mg9 3.177079 1_555
Mg0 Mg8 3.177079 1_555
Mg0 Mg5 3.218824 1_555
Mg0 Mg3 3.218824 1_555
Mg0 Mg5 3.257900 1_445
Mg0 Mg3 3.257900 1_455
Mg1 Mg8 3.160647 1_555
Mg1 Mg9 3.160647 1_555
Mg1 Mg7 3.160652 1_565
Mg1 Mg6 3.160652 1_565
Mg1 Mg3 3.225317 1_455
Mg1 Mg5 3.225317 1_455
Mg1 Mg3 3.251425 1_565
Mg1 Mg5 3.251425 1_555
Mg1 Mg13 3.264239 1_455
Mg1 Mg12 3.264239 1_455
Mg2 Mg4 2.980963 1_545
Mg2 Mg4 3.049707 1_555
Mg2 Nb0 3.174130 1_545
Mg2 Mg7 3.191532 1_554
Mg2 Mg6 3.191532 1_555
Mg2 Nb0 3.302643 1_655
Mg3 Mg5 2.985014 1_555
Mg3 Mg5 3.045656 1_545
Mg3 Mg6 3.181545 1_555
Mg3 Mg7 3.181545 1_555
Mg4 Nb0 3.174131 1_555
Mg4 Mg9 3.191532 1_554
Mg4 Mg8 3.191532 1_555
Mg4 Nb0 3.302643 1_655
Mg5 Mg9 3.181545 1_555
Mg5 Mg8 3.181545 1_555
Mg6 Mg8 2.966682 1_545
Mg6 Mg8 3.063987 1_555
Mg6 Nb0 3.180986 1_545
Mg7 Mg9 2.966682 1_545
Mg7 Mg9 3.063987 1_555
Mg7 Nb0 3.180986 1_546
Mg8 Nb0 3.180981 1_555
Mg9 Nb0 3.180981 1_556
Mg10 Mg12 3.025650 1_555
Mg10 Mg12 3.025650 1_545
Mg10 Mg3 3.100971 1_555
Mg10 Mg5 3.100976 1_545
Mg10 Mg8 3.210252 1_545
Mg10 Mg6 3.210252 1_555
Mg10 Mg8 3.268772 1_655
Mg10 Mg6 3.268772 1_655
Mg10 Mg2 3.269031 1_555
Mg10 Mg4 3.269037 1_545
Mg11 Mg13 3.025650 1_555
Mg11 Mg13 3.025650 1_545
Mg11 Mg3 3.100971 1_555
Mg11 Mg5 3.100976 1_545
Mg11 Mg9 3.210252 1_545
Mg11 Mg7 3.210252 1_555
Mg11 Mg9 3.268772 1_655
Mg11 Mg7 3.268772 1_655
Mg11 Mg2 3.269031 1_556
Mg11 Mg4 3.269037 1_546
Mg12 Nb0 3.069040 1_655
Mg12 Mg4 3.123353 1_555
Mg12 Mg2 3.123358 1_555
Mg12 Mg6 3.172910 1_665
Mg12 Mg8 3.172910 1_655
Mg12 Mg5 3.306794 1_555
Mg12 Mg3 3.306799 1_555
Mg12 Mg6 3.310664 1_555
Mg12 Mg8 3.310664 1_555
Mg13 Nb0 3.069040 1_656
Mg13 Mg4 3.123353 1_556
Mg13 Mg2 3.123358 1_556
Mg13 Mg7 3.172910 1_665
Mg13 Mg9 3.172910 1_655
Mg13 Mg5 3.306794 1_555
Mg13 Mg3 3.306799 1_555
Mg13 Mg7 3.310664 1_555
Mg13 Mg9 3.310664 1_555
