# generated using pymatgen
data_K2CuPb(NO2)6
_symmetry_space_group_name_H-M   'P 1'
_cell_length_a   7.67846829
_cell_length_b   7.67846829
_cell_length_c   7.67846829
_cell_angle_alpha   60.00000000
_cell_angle_beta   60.00000000
_cell_angle_gamma   60.00000000
_symmetry_Int_Tables_number   1
_chemical_formula_structural   K2CuPb(NO2)6
_chemical_formula_sum   'K2 Cu1 Pb1 N6 O12'
_cell_volume   320.11703681
_cell_formula_units_Z   1
loop_
 _symmetry_equiv_pos_site_id
 _symmetry_equiv_pos_as_xyz
  1  'x, y, z'
loop_
 _atom_site_type_symbol
 _atom_site_label
 _atom_site_symmetry_multiplicity
 _atom_site_fract_x
 _atom_site_fract_y
 _atom_site_fract_z
 _atom_site_occupancy
  K  K0  1  0.75000000  0.75000000  0.75000000  1
  K  K1  1  0.25000000  0.25000000  0.25000000  1
  Cu  Cu0  1  0.00000000  0.00000000  0.00000000  1
  Pb  Pb0  1  0.50000000  0.50000000  0.50000000  1
  N  N0  1  0.19911300  0.80088700  0.19911300  1
  N  N1  1  0.80088700  0.80088700  0.19911300  1
  N  N2  1  0.19911300  0.80088700  0.80088700  1
  N  N3  1  0.80088700  0.19911300  0.19911300  1
  N  N4  1  0.19911300  0.19911300  0.80088700  1
  N  N5  1  0.80088700  0.19911300  0.80088700  1
  O  O0  1  0.64171400  0.84029800  0.15970200  1
  O  O1  1  0.84029800  0.15970200  0.64171400  1
  O  O2  1  0.15970200  0.84029800  0.35828600  1
  O  O3  1  0.35828600  0.64171400  0.15970200  1
  O  O4  1  0.64171400  0.35828600  0.84029800  1
  O  O5  1  0.84029800  0.35828600  0.15970200  1
  O  O6  1  0.15970200  0.35828600  0.64171400  1
  O  O7  1  0.35828600  0.15970200  0.84029800  1
  O  O8  1  0.15970200  0.64171400  0.84029800  1
  O  O9  1  0.35828600  0.84029800  0.64171400  1
  O  O10  1  0.84029800  0.64171400  0.35828600  1
  O  O11  1  0.64171400  0.15970200  0.35828600  1
loop_
_geom_bond_atom_site_label_1
_geom_bond_atom_site_label_2
_geom_bond_distance
_geom_bond_site_symmetry_2
K0 O8 3.171380 1_655
K0 O0 3.171380 1_556
K0 O1 3.171380 1_565
K0 O5 3.171380 1_556
K0 O2 3.171380 1_655
K0 O7 3.171380 1_565
K0 O11 3.171380 1_565
K0 O3 3.171380 1_556
K0 O6 3.171380 1_655
K0 O9 3.171380 1_555
K0 O10 3.171380 1_555
K0 O4 3.171380 1_555
K1 O6 3.171380 1_555
K1 O3 3.171380 1_555
K1 O11 3.171380 1_555
K1 O4 3.171380 1_554
K1 O10 3.171380 1_455
K1 O9 3.171380 1_545
K1 O8 3.171380 1_554
K1 O0 3.171380 1_545
K1 O1 3.171380 1_455
K1 O2 3.171380 1_545
K1 O7 3.171380 1_554
K1 O5 3.171380 1_455
Cu0 N3 2.162167 1_455
Cu0 N0 2.162167 1_545
Cu0 N4 2.162167 1_554
Cu0 N5 2.162167 1_454
Cu0 N1 2.162167 1_445
Cu0 N2 2.162167 1_544
N0 O3 1.259111 1_555
N0 O2 1.259111 1_555
N1 O0 1.259111 1_555
N1 O10 1.259111 1_555
N2 O8 1.259111 1_555
N2 O9 1.259111 1_555
N3 O11 1.259111 1_555
N3 O5 1.259111 1_555
N4 O6 1.259111 1_555
N4 O7 1.259111 1_555
N5 O1 1.259111 1_555
N5 O4 1.259111 1_555
O0 Pb0 2.830488 1_555
O1 Pb0 2.830488 1_555
O2 Pb0 2.830488 1_555
O3 Pb0 2.830488 1_555
O4 Pb0 2.830488 1_555
O5 Pb0 2.830488 1_555
O6 Pb0 2.830488 1_555
O7 Pb0 2.830488 1_555
O8 Pb0 2.830488 1_555
O9 Pb0 2.830488 1_555
O10 Pb0 2.830488 1_555
O11 Pb0 2.830488 1_555
