# generated using pymatgen
data_Fe5O7F3
_symmetry_space_group_name_H-M   'P 1'
_cell_length_a   4.67396400
_cell_length_b   4.67611813
_cell_length_c   15.20086924
_cell_angle_alpha   89.85537351
_cell_angle_beta   89.94573042
_cell_angle_gamma   88.34013139
_symmetry_Int_Tables_number   1
_chemical_formula_structural   Fe5O7F3
_chemical_formula_sum   'Fe10 O14 F6'
_cell_volume   332.08972566
_cell_formula_units_Z   2
loop_
 _symmetry_equiv_pos_site_id
 _symmetry_equiv_pos_as_xyz
  1  'x, y, z'
loop_
 _atom_site_type_symbol
 _atom_site_label
 _atom_site_symmetry_multiplicity
 _atom_site_fract_x
 _atom_site_fract_y
 _atom_site_fract_z
 _atom_site_occupancy
  Fe  Fe0  1  0.99574000  0.99980800  0.99970000  1
  Fe  Fe1  1  0.99462400  0.00345900  0.20030100  1
  Fe  Fe2  1  0.00868500  0.97133800  0.40468500  1
  Fe  Fe3  1  0.00894500  0.97267600  0.59486400  1
  Fe  Fe4  1  0.97955800  0.98825700  0.79914900  1
  Fe  Fe5  1  0.46900700  0.47256800  0.09895600  1
  Fe  Fe6  1  0.47562800  0.50883400  0.50039300  1
  Fe  Fe7  1  0.51897300  0.53539100  0.29355800  1
  Fe  Fe8  1  0.51306100  0.52968800  0.70580700  1
  Fe  Fe9  1  0.51781000  0.52209200  0.90140500  1
  O  O0  1  0.81814900  0.81932300  0.29796300  1
  O  O1  1  0.80139100  0.78799500  0.50009800  1
  O  O2  1  0.81475600  0.81217800  0.69757500  1
  O  O3  1  0.81220900  0.81875500  0.90339200  1
  O  O4  1  0.30022100  0.68919200  0.99995500  1
  O  O5  1  0.29466400  0.69446400  0.19602800  1
  O  O6  1  0.31883200  0.68740700  0.39599600  1
  O  O7  1  0.31450500  0.68706800  0.60443100  1
  O  O8  1  0.30750200  0.70560600  0.80487700  1
  O  O9  1  0.68524200  0.30569000  0.99969500  1
  O  O10  1  0.68904300  0.30547800  0.19771400  1
  O  O11  1  0.69708000  0.31592000  0.80258400  1
  O  O12  1  0.17237500  0.17747000  0.09935100  1
  O  O13  1  0.19675500  0.18835400  0.50134600  1
  F  F0  1  0.78931400  0.79675600  0.09974100  1
  F  F1  1  0.70520400  0.30179400  0.39760000  1
  F  F2  1  0.70003400  0.29886900  0.60261800  1
  F  F3  1  0.20387200  0.20163300  0.30130000  1
  F  F4  1  0.19653900  0.20192400  0.89883600  1
  F  F5  1  0.20028100  0.20001300  0.70008000  1
loop_
_geom_bond_atom_site_label_1
_geom_bond_atom_site_label_2
_geom_bond_distance
_geom_bond_site_symmetry_2
Fe0 O3 1.909589 1_555
Fe0 O12 1.927379 1_666
Fe0 O4 2.003808 1_655
Fe0 O9 2.007925 1_565
Fe1 O0 1.912591 1_545
Fe1 O12 1.933275 1_655
Fe1 O10 1.979649 1_555
Fe1 O5 1.985326 1_645
Fe2 O6 1.941811 1_555
Fe2 O1 1.953583 1_455
Fe2 O0 1.993833 1_455
Fe2 O13 2.005764 1_565
Fe3 O7 1.932203 1_555
Fe3 O1 1.954343 1_455
Fe3 O13 1.962196 1_565
Fe3 O2 1.963560 1_455
Fe4 O2 1.923707 1_555
Fe4 O3 1.943754 1_555
Fe4 O11 1.994138 1_565
Fe4 O8 1.996566 1_655
Fe5 O4 1.965054 1_554
Fe5 O9 1.965808 1_554
Fe5 O10 1.967802 1_555
Fe5 O5 1.968364 1_555
Fe5 O12 1.984240 1_555
Fe6 O6 1.926849 1_555
Fe6 O7 1.931538 1_555
Fe6 O13 2.014447 1_555
Fe6 O1 2.034082 1_555
Fe7 O6 1.941490 1_555
Fe7 O5 1.950025 1_555
Fe7 O0 1.957243 1_555
Fe7 O10 1.966343 1_555
Fe8 O7 1.932605 1_555
Fe8 O8 1.955862 1_555
Fe8 O11 1.961699 1_555
Fe8 O2 1.963604 1_555
Fe9 O8 1.950162 1_555
Fe9 O9 1.953823 1_555
Fe9 O4 1.961116 1_555
Fe9 O11 1.961165 1_555
Fe9 O3 1.982322 1_555
F0 Fe0 2.046459 1_554
F0 Fe1 2.062934 1_565
F0 Fe5 2.161283 1_555
F1 Fe2 2.069757 1_645
F1 Fe7 2.095442 1_555
F1 Fe6 2.115305 1_555
F2 Fe3 2.073199 1_645
F2 Fe8 2.083356 1_555
F2 Fe6 2.101060 1_555
F3 Fe1 2.057877 1_455
F3 Fe2 2.123057 1_545
F3 Fe7 2.179579 1_555
F4 Fe0 2.041125 1_445
F4 Fe4 2.095774 1_445
F4 Fe9 2.151381 1_555
F5 Fe4 2.088383 1_445
F5 Fe3 2.134062 1_545
F5 Fe8 2.157036 1_555
