# generated using pymatgen
data_SmAlSi
_symmetry_space_group_name_H-M   'P 1'
_cell_length_a   4.17667647
_cell_length_b   4.17667722
_cell_length_c   7.82215648
_cell_angle_alpha   105.48449832
_cell_angle_beta   105.48450011
_cell_angle_gamma   89.99998895
_symmetry_Int_Tables_number   1
_chemical_formula_structural   SmAlSi
_chemical_formula_sum   'Sm2 Al2 Si2'
_cell_volume   126.35476032
_cell_formula_units_Z   2
loop_
 _symmetry_equiv_pos_site_id
 _symmetry_equiv_pos_as_xyz
  1  'x, y, z'
loop_
 _atom_site_type_symbol
 _atom_site_label
 _atom_site_symmetry_multiplicity
 _atom_site_fract_x
 _atom_site_fract_y
 _atom_site_fract_z
 _atom_site_occupancy
  Sm  Sm0  1  0.32934337  0.82934337  0.65868575  1
  Sm  Sm1  1  0.57934337  0.57934337  0.15868575  1
  Al  Al0  1  0.91331970  0.41331970  0.82663941  1
  Al  Al1  1  0.16331970  0.16331970  0.32663941  1
  Si  Si0  1  0.99773692  0.99773692  0.99547284  1
  Si  Si1  1  0.74773692  0.24773692  0.49547284  1
loop_
_geom_bond_atom_site_label_1
_geom_bond_atom_site_label_2
_geom_bond_distance
_geom_bond_site_symmetry_2
Al0 Si1 2.398702 1_555
Al0 Si0 2.420045 1_545
Al0 Si0 2.420048 1_555
Al0 Sm1 3.185206 1_556
Al0 Sm1 3.185207 1_656
Al0 Sm0 3.194091 1_545
Al0 Sm0 3.194094 1_555
Al0 Sm0 3.194094 1_645
Al0 Sm0 3.194097 1_655
Al1 Si0 2.398702 1_444
Al1 Si1 2.420045 1_455
Al1 Si1 2.420047 1_555
Al1 Sm0 3.185206 1_545
Al1 Sm0 3.185208 1_555
Al1 Sm1 3.194091 1_445
Al1 Sm1 3.194094 1_455
Al1 Sm1 3.194094 1_545
Al1 Sm1 3.194097 1_555
Si0 Sm1 3.181174 1_656
Si0 Sm1 3.181174 1_666
Si0 Sm1 3.181174 1_566
Si0 Sm1 3.181175 1_556
Si0 Sm0 3.211213 1_555
Si0 Sm0 3.211214 1_655
Si1 Sm0 3.181174 1_645
Si1 Sm0 3.181174 1_655
Si1 Sm0 3.181174 1_555
Si1 Sm0 3.181175 1_545
Si1 Sm1 3.211213 1_545
Si1 Sm1 3.211214 1_555
