# generated using pymatgen
data_Fe3Pb5F19
_symmetry_space_group_name_H-M   'P 1'
_cell_length_a   11.07877300
_cell_length_b   11.07877300
_cell_length_c   11.07877300
_cell_angle_alpha   97.32072303
_cell_angle_beta   97.32072303
_cell_angle_gamma   138.17226728
_symmetry_Int_Tables_number   1
_chemical_formula_structural   Fe3Pb5F19
_chemical_formula_sum   'Fe6 Pb10 F38'
_cell_volume   847.09689144
_cell_formula_units_Z   2
loop_
 _symmetry_equiv_pos_site_id
 _symmetry_equiv_pos_as_xyz
  1  'x, y, z'
loop_
 _atom_site_type_symbol
 _atom_site_label
 _atom_site_symmetry_multiplicity
 _atom_site_fract_x
 _atom_site_fract_y
 _atom_site_fract_z
 _atom_site_occupancy
  Fe  Fe0  1  0.28645200  0.10874000  0.50000000  1
  Fe  Fe1  1  0.60874000  0.78645200  0.50000000  1
  Fe  Fe2  1  0.10874000  0.60874000  0.82228700  1
  Fe  Fe3  1  0.78645200  0.28645200  0.17771300  1
  Fe  Fe4  1  0.74879700  0.74879700  0.00000000  1
  Fe  Fe5  1  0.24879700  0.24879700  0.00000000  1
  Pb  Pb0  1  0.66490000  0.96304300  0.84263800  1
  Pb  Pb1  1  0.12040600  0.82226200  0.15736200  1
  Pb  Pb2  1  0.96304300  0.12040600  0.29814300  1
  Pb  Pb3  1  0.16490000  0.32226200  0.70185700  1
  Pb  Pb4  1  0.82226200  0.66490000  0.70185700  1
  Pb  Pb5  1  0.62040600  0.46304300  0.29814300  1
  Pb  Pb6  1  0.46304300  0.16490000  0.84263800  1
  Pb  Pb7  1  0.32226200  0.62040600  0.15736200  1
  Pb  Pb8  1  0.28965200  0.78965200  0.50000000  1
  Pb  Pb9  1  0.78965200  0.28965200  0.50000000  1
  F  F0  1  0.46376800  0.10865100  0.50000000  1
  F  F1  1  0.60865100  0.96376800  0.50000000  1
  F  F2  1  0.10865100  0.60865100  0.64488200  1
  F  F3  1  0.96376800  0.46376800  0.35511800  1
  F  F4  1  0.71896500  0.09095600  0.24334400  1
  F  F5  1  0.84761200  0.47562100  0.75665600  1
  F  F6  1  0.09095600  0.84761200  0.37199100  1
  F  F7  1  0.21896500  0.97562100  0.62800900  1
  F  F8  1  0.47562100  0.71896500  0.62800900  1
  F  F9  1  0.34761200  0.59095600  0.37199100  1
  F  F10  1  0.59095600  0.21896500  0.24334400  1
  F  F11  1  0.97562100  0.34761200  0.75665600  1
  F  F12  1  0.62971600  0.62885400  0.50000000  1
  F  F13  1  0.12885400  0.12971600  0.50000000  1
  F  F14  1  0.62885400  0.12885400  0.99913800  1
  F  F15  1  0.12971600  0.62971600  0.00086200  1
  F  F16  1  0.78654300  0.51672700  0.50000000  1
  F  F17  1  0.01672700  0.28654300  0.50000000  1
  F  F18  1  0.51672700  0.01672700  0.73018400  1
  F  F19  1  0.28654300  0.78654300  0.26981600  1
  F  F20  1  0.00295500  0.00295500  0.00000000  1
  F  F21  1  0.50295500  0.50295500  0.00000000  1
  F  F22  1  0.70310500  0.87988400  0.06111600  1
  F  F23  1  0.81876800  0.64198900  0.93888400  1
  F  F24  1  0.87988400  0.81876800  0.17677900  1
  F  F25  1  0.20310500  0.14198900  0.82322100  1
  F  F26  1  0.64198900  0.70310500  0.82322100  1
  F  F27  1  0.31876800  0.37988400  0.17677900  1
  F  F28  1  0.37988400  0.20310500  0.06111600  1
  F  F29  1  0.14198900  0.31876800  0.93888400  1
  F  F30  1  0.35272000  0.70574300  0.85699600  1
  F  F31  1  0.84874600  0.49572400  0.14300400  1
  F  F32  1  0.70574300  0.84874600  0.35302200  1
  F  F33  1  0.85272000  0.99572400  0.64697800  1
  F  F34  1  0.49572400  0.35272000  0.64697800  1
  F  F35  1  0.34874600  0.20574300  0.35302200  1
  F  F36  1  0.20574300  0.85272000  0.85699600  1
  F  F37  1  0.99572400  0.34874600  0.14300400  1
loop_
_geom_bond_atom_site_label_1
_geom_bond_atom_site_label_2
_geom_bond_distance
_geom_bond_site_symmetry_2
F0 Fe0 1.965179 1_555
F0 Pb8 2.459909 1_545
F0 Pb9 2.503301 1_555
F1 Fe1 1.965179 1_555
F1 Pb8 2.459909 1_555
F1 Pb9 2.503301 1_565
F2 Fe2 1.965179 1_555
F2 Pb9 2.459906 1_455
F2 Pb8 2.503291 1_555
F3 Fe3 1.965179 1_555
F3 Pb9 2.459900 1_555
F3 Pb8 2.503298 1_655
F4 Fe3 1.976155 1_555
F4 Pb2 2.450186 1_555
F5 Fe2 1.976160 1_655
F5 Pb4 2.450194 1_555
F6 Fe0 1.976161 1_565
F6 Pb1 2.450198 1_555
F7 Fe0 1.976161 1_565
F7 Pb6 2.450194 1_565
F8 Fe1 1.976161 1_555
F8 Pb0 2.450194 1_555
F9 Fe1 1.976161 1_555
F9 Pb7 2.450198 1_555
F10 Fe3 1.976155 1_555
F10 Pb5 2.450186 1_555
F11 Fe2 1.976160 1_655
F11 Pb3 2.450194 1_655
F12 Fe1 1.925405 1_555
F12 Pb4 2.645407 1_555
F12 Pb5 2.645414 1_555
F13 Fe0 1.925405 1_555
F13 Pb3 2.645407 1_555
F13 Pb2 2.645414 1_455
F14 Fe3 1.925414 1_556
F14 Pb6 2.645407 1_555
F14 Pb0 2.645407 1_545
F15 Fe2 1.925416 1_554
F15 Pb1 2.645399 1_555
F15 Pb7 2.645399 1_555
F16 Pb5 2.392340 1_555
F16 Pb4 2.392345 1_555
F16 Pb9 2.541482 1_555
F17 Pb2 2.392340 1_455
F17 Pb3 2.392345 1_555
F17 Pb9 2.541482 1_455
F18 Pb0 2.392345 1_545
F18 Pb6 2.392345 1_555
F18 Pb8 2.541482 1_545
F19 Pb7 2.392336 1_555
F19 Pb1 2.392336 1_555
F19 Pb8 2.541482 1_555
F20 Fe5 1.944475 1_555
F20 Fe4 2.010249 1_445
F21 Fe4 1.944475 1_555
F21 Fe5 2.010249 1_555
F22 Fe4 1.938091 1_555
F22 Pb2 2.672596 1_565
F22 Pb0 2.788364 1_554
F23 Fe4 1.938091 1_556
F23 Pb4 2.672595 1_555
F23 Pb1 2.788370 1_656
F24 Fe4 1.938091 1_555
F24 Pb1 2.672606 1_655
F24 Pb2 2.788374 1_565
F25 Fe5 1.938091 1_556
F25 Pb6 2.672595 1_555
F25 Pb3 2.788364 1_555
F26 Fe4 1.938091 1_556
F26 Pb0 2.672595 1_555
F26 Pb4 2.788364 1_555
F27 Fe5 1.938091 1_555
F27 Pb7 2.672606 1_555
F27 Pb5 2.788374 1_555
F28 Fe5 1.938091 1_555
F28 Pb5 2.672596 1_555
F28 Pb6 2.788364 1_554
F29 Fe5 1.938091 1_556
F29 Pb3 2.672595 1_555
F29 Pb7 2.788370 1_556
F30 Fe2 1.977293 1_555
F30 Pb0 2.382382 1_555
F31 Fe3 1.977303 1_555
F31 Pb1 2.382385 1_655
F32 Fe1 1.977303 1_555
F32 Pb2 2.382385 1_565
F33 Fe1 1.977299 1_555
F33 Pb3 2.382384 1_665
F34 Fe0 1.977299 1_555
F34 Pb4 2.382384 1_555
F35 Fe0 1.977303 1_555
F35 Pb5 2.382385 1_555
F36 Fe2 1.977293 1_555
F36 Pb6 2.382382 1_565
F37 Fe3 1.977303 1_555
F37 Pb7 2.382385 1_655
