# generated using pymatgen
data_Sr5Ca3Si4
_symmetry_space_group_name_H-M   'P 1'
_cell_length_a   4.99073500
_cell_length_b   8.08762378
_cell_length_c   9.24130377
_cell_angle_alpha   90.46310882
_cell_angle_beta   90.00000000
_cell_angle_gamma   90.00000000
_symmetry_Int_Tables_number   1
_chemical_formula_structural   Sr5Ca3Si4
_chemical_formula_sum   'Sr5 Ca3 Si4'
_cell_volume   372.99628845
_cell_formula_units_Z   1
loop_
 _symmetry_equiv_pos_site_id
 _symmetry_equiv_pos_as_xyz
  1  'x, y, z'
loop_
 _atom_site_type_symbol
 _atom_site_label
 _atom_site_symmetry_multiplicity
 _atom_site_fract_x
 _atom_site_fract_y
 _atom_site_fract_z
 _atom_site_occupancy
  Sr  Sr0  1  0.75000000  0.47678500  0.82329300  1
  Sr  Sr1  1  0.75000000  0.97857400  0.68283700  1
  Sr  Sr2  1  0.25000000  0.52420700  0.17367500  1
  Sr  Sr3  1  0.25000000  0.01706900  0.32060400  1
  Sr  Sr4  1  0.75000000  0.34815100  0.42392400  1
  Ca  Ca0  1  0.75000000  0.85388600  0.07236900  1
  Ca  Ca1  1  0.25000000  0.65017300  0.57571000  1
  Ca  Ca2  1  0.25000000  0.14664600  0.92656500  1
  Si  Si0  1  0.75000000  0.23082200  0.09663900  1
  Si  Si1  1  0.75000000  0.74257500  0.39434400  1
  Si  Si2  1  0.25000000  0.76639800  0.89590300  1
  Si  Si3  1  0.25000000  0.26471400  0.61413500  1
loop_
_geom_bond_atom_site_label_1
_geom_bond_atom_site_label_2
_geom_bond_distance
_geom_bond_site_symmetry_2
Ca0 Si0 3.054948 1_565
Ca0 Si2 3.060766 1_554
Ca0 Si2 3.060766 1_654
Ca0 Si1 3.115630 1_555
Ca1 Si2 3.097466 1_555
Ca1 Si1 3.100767 1_555
Ca1 Si1 3.100767 1_455
Ca1 Si3 3.140457 1_555
Ca2 Si0 3.023787 1_556
Ca2 Si0 3.023787 1_456
Ca2 Si3 3.048386 1_555
Ca2 Si2 3.086048 1_545
Si0 Sr4 3.162575 1_555
Si0 Sr0 3.227912 1_554
Si0 Sr2 3.512334 1_555
Si0 Sr2 3.512334 1_655
Si0 Sr3 3.681992 1_555
Si0 Sr3 3.681992 1_655
Si1 Sr4 3.203845 1_555
Si1 Sr1 3.266282 1_555
Si1 Sr3 3.412347 1_565
Si1 Sr3 3.412347 1_665
Si1 Sr2 3.666918 1_555
Si1 Sr2 3.666918 1_655
Si2 Sr2 3.241503 1_556
Si2 Sr0 3.483962 1_555
Si2 Sr0 3.483962 1_455
Si2 Sr1 3.619824 1_455
Si2 Sr1 3.619824 1_555
Si3 Sr4 3.129097 1_555
Si3 Sr4 3.129097 1_455
Si3 Sr3 3.358849 1_555
Si3 Sr1 3.465428 1_445
Si3 Sr1 3.465428 1_545
Si3 Sr0 3.584841 1_455
Si3 Sr0 3.584841 1_555
