# generated using pymatgen
data_Li4Mn3CoO8
_symmetry_space_group_name_H-M   'P 1'
_cell_length_a   2.86582700
_cell_length_b   5.40704900
_cell_length_c   9.86764038
_cell_angle_alpha   83.57196138
_cell_angle_beta   90.00000000
_cell_angle_gamma   90.00000000
_symmetry_Int_Tables_number   1
_chemical_formula_structural   Li4Mn3CoO8
_chemical_formula_sum   'Li4 Mn3 Co1 O8'
_cell_volume   151.94438996
_cell_formula_units_Z   1
loop_
 _symmetry_equiv_pos_site_id
 _symmetry_equiv_pos_as_xyz
  1  'x, y, z'
loop_
 _atom_site_type_symbol
 _atom_site_label
 _atom_site_symmetry_multiplicity
 _atom_site_fract_x
 _atom_site_fract_y
 _atom_site_fract_z
 _atom_site_occupancy
  Li  Li0  1  0.50000000  0.75791900  0.24663700  1
  Li  Li1  1  0.50000000  0.24208100  0.75336300  1
  Li  Li2  1  0.00000000  0.24259100  0.24854700  1
  Li  Li3  1  0.00000000  0.75740900  0.75145300  1
  Mn  Mn0  1  0.00000000  0.50000000  0.50000000  1
  Mn  Mn1  1  0.50000000  0.50000000  0.00000000  1
  Mn  Mn2  1  0.50000000  0.00000000  0.50000000  1
  Co  Co0  1  0.00000000  0.00000000  0.00000000  1
  O  O0  1  0.50000000  0.11385100  0.12134500  1
  O  O1  1  0.50000000  0.60471300  0.61591400  1
  O  O2  1  0.00000000  0.62954100  0.10969700  1
  O  O3  1  0.00000000  0.11003800  0.61461900  1
  O  O4  1  0.50000000  0.39528700  0.38408600  1
  O  O5  1  0.50000000  0.88614900  0.87865500  1
  O  O6  1  0.00000000  0.88996200  0.38538100  1
  O  O7  1  0.00000000  0.37045900  0.89030300  1
loop_
_geom_bond_atom_site_label_1
_geom_bond_atom_site_label_2
_geom_bond_distance
_geom_bond_site_symmetry_2
Li0 O2 2.138001 1_555
Li0 O2 2.138001 1_655
Li0 O6 2.157827 1_555
Li0 O6 2.157827 1_655
Li0 O0 2.167861 1_565
Li0 O4 2.255813 1_555
Li1 O7 2.138001 1_655
Li1 O7 2.138001 1_555
Li1 O3 2.157827 1_555
Li1 O3 2.157827 1_655
Li1 O5 2.167861 1_545
Li1 O1 2.255813 1_555
Li2 O0 2.075795 1_455
Li2 O0 2.075795 1_555
Li2 O4 2.184248 1_455
Li2 O4 2.184248 1_555
Li2 O6 2.209549 1_545
Li2 O2 2.369157 1_555
Li3 O5 2.075795 1_455
Li3 O5 2.075795 1_555
Li3 O1 2.184248 1_455
Li3 O1 2.184248 1_555
Li3 O3 2.209549 1_565
Li3 O7 2.369157 1_555
Mn0 O1 1.956295 1_455
Mn0 O1 1.956295 1_555
Mn0 O4 1.956295 1_455
Mn0 O4 1.956295 1_555
Mn0 O3 2.278416 1_555
Mn0 O6 2.278416 1_555
Mn1 O2 1.971120 1_655
Mn1 O2 1.971120 1_555
Mn1 O7 1.971120 1_654
Mn1 O7 1.971120 1_554
Mn1 O5 2.287660 1_554
Mn1 O0 2.287660 1_555
Mn2 O6 1.958858 1_545
Mn2 O6 1.958858 1_645
Mn2 O3 1.958858 1_555
Mn2 O3 1.958858 1_655
Mn2 O4 2.308482 1_555
Mn2 O1 2.308482 1_545
Co0 O0 2.007732 1_455
Co0 O0 2.007732 1_555
Co0 O5 2.007732 1_544
Co0 O5 2.007732 1_444
Co0 O2 2.167620 1_545
Co0 O7 2.167620 1_554
