# generated using pymatgen
data_Rb2Mn(TeS3)2
_symmetry_space_group_name_H-M   'P 1'
_cell_length_a   6.99843928
_cell_length_b   6.99843928
_cell_length_c   15.55914600
_cell_angle_alpha   90.00000000
_cell_angle_beta   90.00000000
_cell_angle_gamma   119.99999323
_symmetry_Int_Tables_number   1
_chemical_formula_structural   Rb2Mn(TeS3)2
_chemical_formula_sum   'Rb4 Mn2 Te4 S12'
_cell_volume   659.96182631
_cell_formula_units_Z   2
loop_
 _symmetry_equiv_pos_site_id
 _symmetry_equiv_pos_as_xyz
  1  'x, y, z'
loop_
 _atom_site_type_symbol
 _atom_site_label
 _atom_site_symmetry_multiplicity
 _atom_site_fract_x
 _atom_site_fract_y
 _atom_site_fract_z
 _atom_site_occupancy
  Rb  Rb0  1  0.33333300  0.66666700  0.79688400  1
  Rb  Rb1  1  0.66666700  0.33333300  0.20311600  1
  Rb  Rb2  1  0.66666700  0.33333300  0.70311600  1
  Rb  Rb3  1  0.33333300  0.66666700  0.29688400  1
  Mn  Mn0  1  0.00000000  0.00000000  0.50000000  1
  Mn  Mn1  1  0.00000000  0.00000000  0.00000000  1
  Te  Te0  1  0.33333300  0.66666700  0.53884700  1
  Te  Te1  1  0.66666700  0.33333300  0.46115300  1
  Te  Te2  1  0.66666700  0.33333300  0.96115300  1
  Te  Te3  1  0.33333300  0.66666700  0.03884700  1
  S  S0  1  0.10940400  0.32183300  0.60881400  1
  S  S1  1  0.89059600  0.67816700  0.39118600  1
  S  S2  1  0.67816700  0.78757100  0.60881400  1
  S  S3  1  0.32183300  0.10940400  0.89118600  1
  S  S4  1  0.32183300  0.21242900  0.39118600  1
  S  S5  1  0.67816700  0.89059600  0.10881400  1
  S  S6  1  0.21242900  0.89059600  0.60881400  1
  S  S7  1  0.78757100  0.67816700  0.89118600  1
  S  S8  1  0.78757100  0.10940400  0.39118600  1
  S  S9  1  0.21242900  0.32183300  0.10881400  1
  S  S10  1  0.89059600  0.21242900  0.89118600  1
  S  S11  1  0.10940400  0.78757100  0.10881400  1
loop_
_geom_bond_atom_site_label_1
_geom_bond_atom_site_label_2
_geom_bond_distance
_geom_bond_site_symmetry_2
Rb0 S3 3.465429 1_565
Rb0 S10 3.465433 1_455
Rb0 S7 3.465436 1_555
Rb0 S6 3.613952 1_555
Rb0 S0 3.613955 1_555
Rb0 S2 3.613956 1_555
Rb0 Te3 3.764738 1_556
Rb1 S5 3.465429 1_545
Rb1 S11 3.465433 1_655
Rb1 S9 3.465436 1_555
Rb1 S8 3.613952 1_555
Rb1 S1 3.613955 1_555
Rb1 S4 3.613956 1_555
Rb1 Te2 3.764738 1_554
Rb2 S0 3.465429 1_655
Rb2 S6 3.465433 1_545
Rb2 S2 3.465436 1_555
Rb2 S10 3.613952 1_555
Rb2 S3 3.613955 1_555
Rb2 S7 3.613956 1_555
Rb2 Te1 3.764738 1_555
Rb3 S1 3.465429 1_455
Rb3 S8 3.465433 1_565
Rb3 S4 3.465436 1_555
Rb3 S11 3.613952 1_555
Rb3 S5 3.613955 1_555
Rb3 S9 3.613956 1_555
Rb3 Te0 3.764738 1_555
Mn0 S6 2.607898 1_545
Mn0 S8 2.607898 1_455
Mn0 S0 2.607898 1_555
Mn0 S1 2.607898 1_445
Mn0 S2 2.607898 1_445
Mn0 S4 2.607898 1_555
Mn1 S10 2.607898 1_454
Mn1 S11 2.607898 1_545
Mn1 S3 2.607898 1_554
Mn1 S5 2.607898 1_445
Mn1 S7 2.607898 1_444
Mn1 S9 2.607898 1_555
S0 Te0 2.383922 1_555
S1 Te1 2.383922 1_555
S2 Te0 2.383923 1_555
S3 Te2 2.383922 1_555
S4 Te1 2.383923 1_555
S5 Te3 2.383922 1_555
S6 Te0 2.383917 1_555
S7 Te2 2.383923 1_555
S8 Te1 2.383917 1_555
S9 Te3 2.383923 1_555
S10 Te2 2.383917 1_555
S11 Te3 2.383917 1_555
