# generated using pymatgen
data_YHfPd2
_symmetry_space_group_name_H-M   'P 1'
_cell_length_a   11.39225925
_cell_length_b   11.39225925
_cell_length_c   11.39225925
_cell_angle_alpha   127.19573524
_cell_angle_beta   117.19860705
_cell_angle_gamma   86.46741824
_symmetry_Int_Tables_number   1
_chemical_formula_structural   YHfPd2
_chemical_formula_sum   'Y1 Hf1 Pd2'
_cell_volume   998.27249785
_cell_formula_units_Z   1
loop_
 _symmetry_equiv_pos_site_id
 _symmetry_equiv_pos_as_xyz
  1  'x, y, z'
loop_
 _atom_site_type_symbol
 _atom_site_label
 _atom_site_symmetry_multiplicity
 _atom_site_fract_x
 _atom_site_fract_y
 _atom_site_fract_z
 _atom_site_occupancy
  Y  Y0  1  0.00000000  0.00000000  0.00000000  1
  Hf  Hf0  1  0.00000000  0.50000000  0.50000000  1
  Pd  Pd0  1  0.00000000  0.25556800  0.25556800  1
  Pd  Pd1  1  0.00000000  0.74443200  0.74443200  1
loop_
_geom_bond_atom_site_label_1
_geom_bond_atom_site_label_2
_geom_bond_distance
_geom_bond_site_symmetry_2
Hf0 Pd1 2.476477 1_555
Hf0 Pd0 2.476477 1_555
Pd0 Y0 2.589302 1_555
Pd1 Y0 2.589302 1_566
