# generated using pymatgen
data_Ti2ZnSnO6
_symmetry_space_group_name_H-M   'P 1'
_cell_length_a   7.62804900
_cell_length_b   7.62804900
_cell_length_c   7.74790300
_cell_angle_alpha   90.00000000
_cell_angle_beta   90.00000000
_cell_angle_gamma   90.00000000
_symmetry_Int_Tables_number   1
_chemical_formula_structural   Ti2ZnSnO6
_chemical_formula_sum   'Ti8 Zn4 Sn4 O24'
_cell_volume   450.82825107
_cell_formula_units_Z   4
loop_
 _symmetry_equiv_pos_site_id
 _symmetry_equiv_pos_as_xyz
  1  'x, y, z'
loop_
 _atom_site_type_symbol
 _atom_site_label
 _atom_site_symmetry_multiplicity
 _atom_site_fract_x
 _atom_site_fract_y
 _atom_site_fract_z
 _atom_site_occupancy
  Ti  Ti0  1  0.75000000  0.25000000  0.25000000  1
  Ti  Ti1  1  0.25000000  0.25000000  0.25000000  1
  Ti  Ti2  1  0.75000000  0.75000000  0.25000000  1
  Ti  Ti3  1  0.25000000  0.75000000  0.25000000  1
  Ti  Ti4  1  0.75000000  0.25000000  0.75000000  1
  Ti  Ti5  1  0.25000000  0.25000000  0.75000000  1
  Ti  Ti6  1  0.75000000  0.75000000  0.75000000  1
  Ti  Ti7  1  0.25000000  0.75000000  0.75000000  1
  Zn  Zn0  1  0.00000000  0.00000000  0.00000000  1
  Zn  Zn1  1  0.50000000  0.50000000  0.50000000  1
  Zn  Zn2  1  0.00000000  0.00000000  0.50000000  1
  Zn  Zn3  1  0.50000000  0.50000000  0.00000000  1
  Sn  Sn0  1  0.00000000  0.50000000  0.02226700  1
  Sn  Sn1  1  0.00000000  0.50000000  0.52226700  1
  Sn  Sn2  1  0.50000000  0.00000000  0.47773300  1
  Sn  Sn3  1  0.50000000  0.00000000  0.97773300  1
  O  O0  1  0.00000000  0.69904800  0.78590900  1
  O  O1  1  0.00000000  0.30095200  0.78590900  1
  O  O2  1  0.19904800  0.50000000  0.28590900  1
  O  O3  1  0.80095200  0.50000000  0.28590900  1
  O  O4  1  0.50000000  0.80095200  0.71409100  1
  O  O5  1  0.50000000  0.19904800  0.71409100  1
  O  O6  1  0.30095200  0.00000000  0.21409100  1
  O  O7  1  0.69904800  0.00000000  0.21409100  1
  O  O8  1  0.30041000  0.50000000  0.68088400  1
  O  O9  1  0.69959000  0.50000000  0.68088400  1
  O  O10  1  0.00000000  0.80041000  0.18088400  1
  O  O11  1  0.00000000  0.19959000  0.18088400  1
  O  O12  1  0.19959000  0.00000000  0.81911600  1
  O  O13  1  0.80041000  0.00000000  0.81911600  1
  O  O14  1  0.50000000  0.69959000  0.31911600  1
  O  O15  1  0.50000000  0.30041000  0.31911600  1
  O  O16  1  0.69353200  0.69353200  0.00000000  1
  O  O17  1  0.30646800  0.69353200  0.00000000  1
  O  O18  1  0.69353200  0.30646800  0.00000000  1
  O  O19  1  0.30646800  0.30646800  0.00000000  1
  O  O20  1  0.19353200  0.19353200  0.50000000  1
  O  O21  1  0.80646800  0.19353200  0.50000000  1
  O  O22  1  0.19353200  0.80646800  0.50000000  1
  O  O23  1  0.80646800  0.80646800  0.50000000  1
loop_
_geom_bond_atom_site_label_1
_geom_bond_atom_site_label_2
_geom_bond_distance
_geom_bond_site_symmetry_2
O0 Ti6 1.966001 1_455
O0 Ti7 1.966001 1_555
O0 Sn0 2.378857 1_556
O0 Sn1 2.545170 1_555
O1 Ti5 1.966001 1_555
O1 Ti4 1.966001 1_455
O1 Sn0 2.378857 1_556
O1 Sn1 2.545170 1_555
O2 Ti3 1.966001 1_555
O2 Ti1 1.966001 1_555
O2 Sn1 2.378857 1_555
O2 Sn0 2.545170 1_555
O3 Ti0 1.966001 1_555
O3 Ti2 1.966001 1_555
O3 Sn1 2.378857 1_655
O3 Sn0 2.545170 1_655
O4 Ti6 1.966001 1_555
O4 Ti7 1.966001 1_555
O4 Sn2 2.378857 1_565
O4 Sn3 2.545170 1_565
O5 Ti5 1.966001 1_555
O5 Ti4 1.966001 1_555
O5 Sn2 2.378857 1_555
O5 Sn3 2.545170 1_555
O6 Ti3 1.966001 1_545
O6 Ti1 1.966001 1_555
O6 Sn3 2.378857 1_554
O6 Sn2 2.545170 1_555
O7 Ti0 1.966001 1_555
O7 Ti2 1.966001 1_545
O7 Sn3 2.378857 1_554
O7 Sn2 2.545170 1_555
O8 Ti5 2.017752 1_555
O8 Ti7 2.017752 1_555
O8 Zn1 2.069318 1_555
O8 Sn1 2.600285 1_555
O9 Ti6 2.017752 1_555
O9 Ti4 2.017752 1_555
O9 Zn1 2.069318 1_555
O9 Sn1 2.600285 1_655
O10 Ti3 2.017752 1_555
O10 Ti2 2.017752 1_455
O10 Zn0 2.069318 1_565
O10 Sn0 2.600285 1_555
O11 Ti1 2.017752 1_555
O11 Ti0 2.017752 1_455
O11 Zn0 2.069318 1_555
O11 Sn0 2.600285 1_555
O12 Ti5 2.017752 1_555
O12 Ti7 2.017752 1_545
O12 Zn0 2.069318 1_556
O12 Sn3 2.600285 1_555
O13 Ti6 2.017752 1_545
O13 Ti4 2.017752 1_555
O13 Zn0 2.069318 1_656
O13 Sn3 2.600285 1_555
O14 Ti3 2.017752 1_555
O14 Ti2 2.017752 1_555
O14 Zn1 2.069318 1_555
O14 Sn2 2.600285 1_565
O15 Ti0 2.017752 1_555
O15 Ti1 2.017752 1_555
O15 Zn1 2.069318 1_555
O15 Sn2 2.600285 1_555
O16 Ti6 2.030505 1_554
O16 Ti2 2.030505 1_555
O16 Zn3 2.087763 1_555
O17 Ti7 2.030505 1_554
O17 Ti3 2.030505 1_555
O17 Zn3 2.087763 1_555
O18 Ti0 2.030505 1_555
O18 Ti4 2.030505 1_554
O18 Zn3 2.087763 1_555
O19 Ti5 2.030505 1_554
O19 Ti1 2.030505 1_555
O19 Zn3 2.087763 1_555
O20 Ti1 2.030505 1_555
O20 Ti5 2.030505 1_555
O20 Zn2 2.087763 1_555
O21 Ti0 2.030505 1_555
O21 Ti4 2.030505 1_555
O21 Zn2 2.087763 1_655
O22 Ti3 2.030505 1_555
O22 Ti7 2.030505 1_555
O22 Zn2 2.087763 1_565
O23 Ti6 2.030505 1_555
O23 Ti2 2.030505 1_555
O23 Zn2 2.087763 1_665
