# generated using pymatgen
data_LiLaO3
_symmetry_space_group_name_H-M   'P 1'
_cell_length_a   3.82263200
_cell_length_b   3.82263200
_cell_length_c   3.82263200
_cell_angle_alpha   90.00000000
_cell_angle_beta   90.00000000
_cell_angle_gamma   90.00000000
_symmetry_Int_Tables_number   1
_chemical_formula_structural   LiLaO3
_chemical_formula_sum   'Li1 La1 O3'
_cell_volume   55.85826900
_cell_formula_units_Z   1
loop_
 _symmetry_equiv_pos_site_id
 _symmetry_equiv_pos_as_xyz
  1  'x, y, z'
loop_
 _atom_site_type_symbol
 _atom_site_label
 _atom_site_symmetry_multiplicity
 _atom_site_fract_x
 _atom_site_fract_y
 _atom_site_fract_z
 _atom_site_occupancy
  Li  Li0  1  0.50000000  0.50000000  0.50000000  1
  La  La0  1  0.00000000  0.00000000  0.00000000  1
  O  O0  1  0.50000000  0.50000000  0.00000000  1
  O  O1  1  0.50000000  0.00000000  0.50000000  1
  O  O2  1  0.00000000  0.50000000  0.50000000  1
loop_
_geom_bond_atom_site_label_1
_geom_bond_atom_site_label_2
_geom_bond_distance
_geom_bond_site_symmetry_2
Li0 O2 1.911316 1_555
Li0 O1 1.911316 1_565
Li0 O0 1.911316 1_556
Li0 O2 1.911316 1_655
Li0 O1 1.911316 1_555
Li0 O0 1.911316 1_555
La0 O0 2.703009 1_445
La0 O0 2.703009 1_455
La0 O1 2.703009 1_555
La0 O2 2.703009 1_544
La0 O2 2.703009 1_545
La0 O1 2.703009 1_455
La0 O1 2.703009 1_454
La0 O0 2.703009 1_545
La0 O0 2.703009 1_555
La0 O1 2.703009 1_554
La0 O2 2.703009 1_555
La0 O2 2.703009 1_554
