# generated using pymatgen
data_Y6Nb4Al43
_symmetry_space_group_name_H-M   'P 1'
_cell_length_a   11.04224199
_cell_length_b   11.04224449
_cell_length_c   17.79120207
_cell_angle_alpha   89.99997477
_cell_angle_beta   90.00003129
_cell_angle_gamma   120.00000878
_symmetry_Int_Tables_number   1
_chemical_formula_structural   Y6Nb4Al43
_chemical_formula_sum   'Y12 Nb8 Al86'
_cell_volume   1878.67001822
_cell_formula_units_Z   2
loop_
 _symmetry_equiv_pos_site_id
 _symmetry_equiv_pos_as_xyz
  1  'x, y, z'
loop_
 _atom_site_type_symbol
 _atom_site_label
 _atom_site_symmetry_multiplicity
 _atom_site_fract_x
 _atom_site_fract_y
 _atom_site_fract_z
 _atom_site_occupancy
  Y  Y0  1  0.53104407  0.00000026  0.59619015  1
  Y  Y1  1  0.46896041  -0.00000047  0.40382756  1
  Y  Y2  1  -0.00000021  0.53104426  0.59619024  1
  Y  Y3  1  0.46895800  -0.00000045  0.09617431  1
  Y  Y4  1  -0.00000026  0.53104680  0.90380807  1
  Y  Y5  1  -0.00000059  0.46895920  0.40382725  1
  Y  Y6  1  0.53104611  -0.00000004  0.90380810  1
  Y  Y7  1  0.00000048  0.46895890  0.09617430  1
  Y  Y8  1  0.46895466  0.46895510  0.59619015  1
  Y  Y9  1  0.53103972  0.53103901  0.40382703  1
  Y  Y10  1  0.53104157  0.53104130  0.09617434  1
  Y  Y11  1  0.46895343  0.46895353  0.90380818  1
  Nb  Nb0  1  -0.00000026  -0.00000000  0.50000523  1
  Nb  Nb1  1  0.00000035  0.00000075  -0.00000484  1
  Nb  Nb2  1  0.72657470  -0.00000028  0.75000124  1
  Nb  Nb3  1  0.27342544  -0.00000092  0.24999926  1
  Nb  Nb4  1  -0.00000002  0.72657578  0.75000129  1
  Nb  Nb5  1  -0.00000032  0.27342552  0.24999874  1
  Nb  Nb6  1  0.27342557  0.27342589  0.75000138  1
  Nb  Nb7  1  0.72657299  0.72657289  0.24999884  1
  Al  Al0  1  0.15365895  0.59740169  0.74999478  1
  Al  Al1  1  0.84634193  0.40259849  0.25000502  1
  Al  Al2  1  0.40259780  0.55625762  0.74999474  1
  Al  Al3  1  0.59740131  0.15366049  0.74999488  1
  Al  Al4  1  0.59740069  0.44374324  0.25000492  1
  Al  Al5  1  0.40260023  0.84634098  0.25000558  1
  Al  Al6  1  0.44373985  0.84633941  0.74999472  1
  Al  Al7  1  0.55625712  0.40259842  0.74999485  1
  Al  Al8  1  0.55625953  0.15365790  0.25000505  1
  Al  Al9  1  0.44374340  0.59740126  0.25000510  1
  Al  Al10  1  0.84633977  0.44374091  0.74999471  1
  Al  Al11  1  0.15365854  0.55625735  0.25000506  1
  Al  Al12  1  0.15900320  0.00000001  0.11522349  1
  Al  Al13  1  0.84099233  -0.00000035  0.88477054  1
  Al  Al14  1  0.00000064  0.15900414  0.11522347  1
  Al  Al15  1  0.84099365  -0.00000017  0.61522046  1
  Al  Al16  1  -0.00000000  0.15900362  0.38478578  1
  Al  Al17  1  -0.00000142  0.84099257  0.88477084  1
  Al  Al18  1  0.15900263  -0.00000058  0.38478592  1
  Al  Al19  1  -0.00000125  0.84099400  0.61522055  1
  Al  Al20  1  0.84099574  0.84099572  0.11522308  1
  Al  Al21  1  0.15900548  0.15900609  0.88477107  1
  Al  Al22  1  0.15900565  0.15900596  0.61521997  1
  Al  Al23  1  0.84099669  0.84099639  0.38478610  1
  Al  Al24  1  0.24748591  0.49496973  0.50000494  1
  Al  Al25  1  0.75251615  0.50503063  0.50000500  1
  Al  Al26  1  0.50502992  0.75251556  0.50000500  1
  Al  Al27  1  0.75251383  0.50502635  -0.00000550  1
  Al  Al28  1  0.49497450  0.24748879  -0.00000520  1
  Al  Al29  1  0.49496951  0.24748635  0.50000505  1
  Al  Al30  1  0.24748832  0.49497478  -0.00000515  1
  Al  Al31  1  0.50502564  0.75251377  -0.00000557  1
  Al  Al32  1  0.24748416  0.75251354  0.50000530  1
  Al  Al33  1  0.75251361  0.24748400  0.50000494  1
  Al  Al34  1  0.75251162  0.24748741  -0.00000557  1
  Al  Al35  1  0.24748664  0.75251144  -0.00000557  1
  Al  Al36  1  0.14777491  -0.00000170  0.74999486  1
  Al  Al37  1  0.85222472  0.00000147  0.25000570  1
  Al  Al38  1  -0.00000244  0.14777580  0.74999475  1
  Al  Al39  1  0.00000134  0.85222404  0.25000566  1
  Al  Al40  1  0.85222049  0.85222236  0.74999476  1
  Al  Al41  1  0.14777864  0.14777655  0.25000540  1
  Al  Al42  1  0.33333241  0.66666654  0.62494986  1
  Al  Al43  1  0.66666718  0.33333369  0.37505603  1
  Al  Al44  1  0.66666773  0.33333361  0.12495275  1
  Al  Al45  1  0.66666648  0.33333334  0.87504076  1
  Al  Al46  1  0.33333234  0.66666646  0.87504073  1
  Al  Al47  1  0.33333337  0.66666668  0.12495270  1
  Al  Al48  1  0.33333289  0.66666634  0.37505615  1
  Al  Al49  1  0.66666615  0.33333313  0.62494990  1
  Al  Al50  1  0.25508483  0.00000039  0.52971403  1
  Al  Al51  1  0.74491605  -0.00000026  0.47028935  1
  Al  Al52  1  0.00000008  0.25508519  0.52971364  1
  Al  Al53  1  0.74491666  0.00000684  0.02971091  1
  Al  Al54  1  0.00000043  0.25508607  0.97028464  1
  Al  Al55  1  0.00000637  0.74491753  0.47029163  1
  Al  Al56  1  0.25508533  0.00000031  0.97028443  1
  Al  Al57  1  0.00000671  0.74491660  0.02971106  1
  Al  Al58  1  0.74491513  0.74491489  0.52971365  1
  Al  Al59  1  0.25508331  0.25508333  0.47028898  1
  Al  Al60  1  0.25508440  0.25508452  0.02971285  1
  Al  Al61  1  0.74491808  0.74492156  0.97028492  1
  Al  Al62  1  0.15789240  0.39460606  0.66279852  1
  Al  Al63  1  0.84210684  0.60539399  0.33720542  1
  Al  Al64  1  0.60539314  0.76328635  0.66279805  1
  Al  Al65  1  0.84210826  0.60539905  0.16280279  1
  Al  Al66  1  0.39460117  0.15789228  0.83719351  1
  Al  Al67  1  0.39460815  0.23670957  0.33720481  1
  Al  Al68  1  0.15789114  0.39460122  0.83719349  1
  Al  Al69  1  0.60539838  0.84210765  0.16280300  1
  Al  Al70  1  0.23671198  0.84210671  0.66279847  1
  Al  Al71  1  0.39460376  0.23670516  0.16280257  1
  Al  Al72  1  0.76328934  0.60539846  0.83719378  1
  Al  Al73  1  0.76328751  0.15789337  0.33720542  1
  Al  Al74  1  0.60539773  0.76329004  0.83719378  1
  Al  Al75  1  0.23670965  0.39460112  0.16280227  1
  Al  Al76  1  0.60539338  0.84210610  0.33720556  1
  Al  Al77  1  0.39460590  0.15789275  0.66279900  1
  Al  Al78  1  0.76329142  0.15789205  0.16280289  1
  Al  Al79  1  0.23671329  0.39460546  0.33720560  1
  Al  Al80  1  0.23670827  0.84210770  0.83719336  1
  Al  Al81  1  0.76328575  0.60539375  0.66279826  1
  Al  Al82  1  0.84210835  0.23670945  0.83719370  1
  Al  Al83  1  0.15789622  0.76329342  0.16280343  1
  Al  Al84  1  0.15789191  0.76328620  0.33720596  1
  Al  Al85  1  0.84210733  0.23671331  0.66279811  1
loop_
_geom_bond_atom_site_label_1
_geom_bond_atom_site_label_2
_geom_bond_distance
_geom_bond_site_symmetry_2
Y0 Y1 3.490347 1_555
Y2 Y5 3.490358 1_555
Y3 Y6 3.490421 1_554
Y4 Y7 3.490421 1_556
Y8 Y9 3.490359 1_555
Y10 Y11 3.490419 1_554
Nb2 Y6 3.485620 1_555
Nb2 Y0 3.485692 1_555
Nb3 Y3 3.485897 1_555
Nb3 Y1 3.485959 1_555
Nb4 Y4 3.485619 1_555
Nb4 Y2 3.485697 1_555
Nb5 Y7 3.485893 1_555
Nb5 Y5 3.485957 1_555
Nb6 Y11 3.485611 1_555
Nb6 Y8 3.485683 1_555
Nb7 Y10 3.485884 1_555
Nb7 Y9 3.485950 1_555
Al0 Nb4 2.708070 1_555
Al0 Al62 2.743726 1_555
Al0 Al68 2.743788 1_555
Al0 Al42 2.820120 1_555
Al0 Al46 2.820133 1_555
Al0 Al70 2.840934 1_555
Al0 Al80 2.840972 1_555
Al0 Al10 2.938851 1_455
Al0 Al6 3.001882 1_555
Al0 Al2 3.001901 1_555
Al0 Y2 3.108098 1_555
Al0 Y4 3.108238 1_555
Al1 Nb5 2.708048 1_655
Al1 Al63 2.743774 1_555
Al1 Al65 2.743831 1_555
Al1 Al43 2.820214 1_555
Al1 Al44 2.820227 1_555
Al1 Al73 2.840973 1_555
Al1 Al78 2.841008 1_555
Al1 Al11 2.938826 1_655
Al1 Al8 3.001905 1_555
Al1 Al4 3.001932 1_555
Al1 Y5 3.108366 1_655
Al1 Y7 3.108505 1_655
Al2 Nb6 2.708058 1_555
Al2 Al64 2.743726 1_555
Al2 Al74 2.743787 1_555
Al2 Al42 2.820123 1_555
Al2 Al46 2.820140 1_555
Al2 Al62 2.840935 1_555
Al2 Al68 2.840977 1_555
Al2 Al7 2.938845 1_555
Al2 Al6 3.001898 1_555
Al2 Y8 3.108102 1_555
Al2 Y11 3.108241 1_555
Al3 Nb2 2.708081 1_555
Al3 Al77 2.743713 1_555
Al3 Al66 2.743783 1_555
Al3 Al49 2.820115 1_555
Al3 Al45 2.820130 1_555
Al3 Al85 2.840948 1_555
Al3 Al82 2.840983 1_555
Al3 Al6 2.938870 1_545
Al3 Al7 3.001892 1_555
Al3 Y0 3.108107 1_555
Al3 Y6 3.108242 1_555
Al4 Nb7 2.708038 1_555
Al4 Al67 2.743769 1_555
Al4 Al71 2.743834 1_555
Al4 Al43 2.820221 1_555
Al4 Al44 2.820241 1_555
Al4 Al63 2.840980 1_555
Al4 Al65 2.841016 1_555
Al4 Al9 2.938814 1_555
Al4 Al8 3.001940 1_555
Al4 Y9 3.108362 1_555
Al4 Y10 3.108496 1_555
Al5 Nb3 2.708068 1_565
Al5 Al76 2.743746 1_555
Al5 Al69 2.743812 1_555
Al5 Al83 2.840991 1_555
Al5 Al84 2.841000 1_555
Al5 Al8 2.938830 1_565
Al5 Al9 3.001905 1_555
Al5 Y1 3.108368 1_565
Al5 Y3 3.108514 1_565
Al6 Nb2 2.708087 1_565
Al6 Al70 2.743716 1_555
Al6 Al80 2.743780 1_555
Al6 Al64 2.840950 1_555
Al6 Al74 2.840986 1_555
Al6 Y0 3.108108 1_565
Al6 Y6 3.108245 1_565
Al7 Nb6 2.708056 1_555
Al7 Al81 2.743725 1_555
Al7 Al72 2.743786 1_555
Al7 Al77 2.840934 1_555
Al7 Y8 3.108101 1_555
Al7 Y11 3.108237 1_555
Al8 Nb3 2.708079 1_555
Al8 Y1 3.108376 1_555
Al8 Y3 3.108506 1_555
Al9 Nb7 2.708037 1_555
Al9 Y9 3.108366 1_555
Al9 Y10 3.108505 1_555
Al10 Nb4 2.708088 1_655
Al10 Al85 2.743720 1_555
Al10 Al82 2.743783 1_555
Al10 Al49 2.820118 1_555
Al10 Al45 2.820134 1_555
Al10 Al81 2.840950 1_555
Al10 Al72 2.840993 1_555
Al10 Al3 3.001883 1_555
Al10 Al7 3.001905 1_555
Al10 Y2 3.108103 1_655
Al10 Y4 3.108242 1_655
Al11 Nb5 2.708059 1_555
Al11 Al84 2.743771 1_555
Al11 Al83 2.743824 1_555
Al11 Al48 2.820211 1_555
Al11 Al47 2.820232 1_555
Al11 Al79 2.840986 1_555
Al11 Al75 2.841022 1_555
Al11 Al5 3.001918 1_555
Al11 Al9 3.001923 1_555
Al11 Y5 3.108374 1_555
Al11 Y7 3.108503 1_555
Al12 Nb1 2.699142 1_555
Al12 Nb3 2.710340 1_555
Al12 Al71 2.741629 1_555
Al12 Al83 2.741637 1_545
Al12 Al56 2.788373 1_554
Al12 Al57 2.895777 1_545
Al12 Al60 2.895777 1_555
Al12 Al41 2.937757 1_555
Al12 Al39 2.937761 1_545
Al12 Al14 3.041055 1_555
Al12 Al20 3.041061 1_445
Al12 Y3 3.439337 1_555
Al13 Nb1 2.699123 1_656
Al13 Nb2 2.710212 1_555
Al13 Al82 2.741606 1_555
Al13 Al74 2.741609 1_545
Al13 Al53 2.788383 1_556
Al13 Al61 2.895765 1_545
Al13 Al54 2.895830 1_655
Al13 Al38 2.937681 1_655
Al13 Al40 2.937686 1_545
Al13 Al21 3.041116 1_655
Al13 Al17 3.041118 1_645
Al13 Y6 3.439222 1_555
Al14 Nb1 2.699144 1_555
Al14 Nb5 2.710329 1_555
Al14 Al75 2.741629 1_555
Al14 Al78 2.741635 1_455
Al14 Al54 2.788369 1_554
Al14 Al60 2.895772 1_555
Al14 Al53 2.895782 1_455
Al14 Al37 2.937765 1_455
Al14 Al41 2.937776 1_555
Al14 Al20 3.041071 1_445
Al14 Y7 3.439335 1_555
Al15 Nb0 2.698987 1_655
Al15 Nb2 2.710400 1_555
Al15 Al85 2.741662 1_555
Al15 Al64 2.741665 1_545
Al15 Al51 2.788223 1_555
Al15 Al58 2.895749 1_545
Al15 Al52 2.895752 1_655
Al15 Al38 2.937654 1_655
Al15 Al40 2.937659 1_545
Al15 Al19 3.041095 1_645
Al15 Al22 3.041105 1_655
Al15 Y0 3.439246 1_555
Al16 Nb0 2.699024 1_555
Al16 Nb5 2.710514 1_555
Al16 Al73 2.741683 1_455
Al16 Al79 2.741685 1_555
Al16 Al52 2.788187 1_555
Al16 Al59 2.895698 1_555
Al16 Al51 2.895708 1_455
Al16 Al37 2.937730 1_455
Al16 Al41 2.937757 1_555
Al16 Al18 3.041056 1_555
Al16 Al23 3.041060 1_445
Al16 Y5 3.439334 1_555
Al17 Nb1 2.699119 1_566
Al17 Nb4 2.710216 1_555
Al17 Al72 2.741606 1_455
Al17 Al80 2.741613 1_555
Al17 Al57 2.788383 1_556
Al17 Al61 2.895788 1_455
Al17 Al56 2.895826 1_565
Al17 Al36 2.937686 1_565
Al17 Al40 2.937699 1_455
Al17 Al21 3.041120 1_565
Al17 Y4 3.439221 1_555
Al18 Nb0 2.699021 1_555
Al18 Nb3 2.710514 1_555
Al18 Al84 2.741688 1_545
Al18 Al67 2.741693 1_555
Al18 Al50 2.788191 1_555
Al18 Al55 2.895702 1_545
Al18 Al59 2.895702 1_555
Al18 Al39 2.937729 1_545
Al18 Al41 2.937737 1_555
Al18 Al23 3.041047 1_445
Al18 Y1 3.439353 1_555
Al19 Nb0 2.698983 1_565
Al19 Nb4 2.710398 1_555
Al19 Al81 2.741662 1_455
Al19 Al70 2.741665 1_555
Al19 Al55 2.788199 1_555
Al19 Al58 2.895736 1_455
Al19 Al50 2.895754 1_565
Al19 Al36 2.937656 1_565
Al19 Al40 2.937670 1_455
Al19 Al22 3.041105 1_565
Al19 Y2 3.439252 1_555
Al20 Nb1 2.699149 1_665
Al20 Nb7 2.710341 1_555
Al20 Al65 2.741634 1_555
Al20 Al69 2.741639 1_555
Al20 Al61 2.788332 1_554
Al20 Al57 2.895842 1_655
Al20 Al53 2.895843 1_565
Al20 Al39 2.937783 1_655
Al20 Al37 2.937784 1_565
Al20 Y10 3.439328 1_555
Al21 Nb1 2.699100 1_556
Al21 Nb6 2.710231 1_555
Al21 Al68 2.741616 1_555
Al21 Al66 2.741619 1_555
Al21 Al60 2.788403 1_556
Al21 Al54 2.895811 1_555
Al21 Al56 2.895813 1_555
Al21 Al36 2.937700 1_555
Al21 Al38 2.937701 1_555
Al21 Y11 3.439235 1_555
Al22 Nb0 2.698979 1_555
Al22 Nb6 2.710415 1_555
Al22 Al62 2.741668 1_555
Al22 Al77 2.741671 1_555
Al22 Al59 2.788221 1_555
Al22 Al50 2.895739 1_555
Al22 Al52 2.895741 1_555
Al22 Al36 2.937678 1_555
Al22 Al38 2.937682 1_555
Al22 Y8 3.439238 1_555
Al23 Nb0 2.699019 1_665
Al23 Nb7 2.710526 1_555
Al23 Al63 2.741688 1_555
Al23 Al76 2.741693 1_555
Al23 Al58 2.788181 1_555
Al23 Al51 2.895705 1_565
Al23 Al55 2.895767 1_655
Al23 Al39 2.937749 1_655
Al23 Al37 2.937749 1_565
Al23 Y9 3.439346 1_555
Al24 Al52 2.743214 1_555
Al24 Al59 2.743238 1_555
Al24 Al42 2.763558 1_555
Al24 Al48 2.763612 1_555
Al24 Al32 2.843871 1_555
Al24 Al26 2.843873 1_555
Al24 Al62 3.082054 1_555
Al24 Al79 3.082149 1_555
Al24 Y5 3.113476 1_555
Al24 Y8 3.113505 1_555
Al24 Y9 3.412200 1_555
Al24 Y2 3.412311 1_555
Al25 Al58 2.743210 1_555
Al25 Al55 2.743267 1_655
Al25 Al49 2.763562 1_555
Al25 Al43 2.763617 1_555
Al25 Al33 2.843879 1_555
Al25 Al29 2.843879 1_555
Al25 Al81 3.082048 1_555
Al25 Al63 3.082149 1_555
Al25 Y9 3.113472 1_555
Al25 Y2 3.113512 1_655
Al25 Y5 3.412199 1_655
Al25 Y8 3.412314 1_555
Al26 Al58 2.743217 1_555
Al26 Al51 2.743237 1_565
Al26 Al42 2.763562 1_555
Al26 Al48 2.763615 1_555
Al26 Al32 2.843871 1_555
Al26 Al64 3.082042 1_555
Al26 Al76 3.082147 1_555
Al26 Y9 3.113482 1_555
Al26 Y0 3.113521 1_565
Al26 Y1 3.412191 1_565
Al26 Y8 3.412304 1_555
Al27 Al61 2.743302 1_554
Al27 Al57 2.743310 1_655
Al27 Al45 2.763663 1_554
Al27 Al44 2.763726 1_555
Al27 Al34 2.843796 1_555
Al27 Al28 2.843802 1_555
Al27 Al72 3.082196 1_554
Al27 Al65 3.082321 1_555
Al27 Y10 3.113488 1_555
Al27 Y4 3.113520 1_654
Al27 Y7 3.412225 1_655
Al27 Y11 3.412322 1_554
Al28 Al56 2.743259 1_554
Al28 Al60 2.743275 1_555
Al28 Al45 2.763661 1_554
Al28 Al44 2.763724 1_555
Al28 Al34 2.843795 1_555
Al28 Al66 3.082208 1_554
Al28 Al71 3.082297 1_555
Al28 Y3 3.113497 1_555
Al28 Y11 3.113517 1_554
Al28 Y10 3.412211 1_555
Al28 Y6 3.412333 1_554
Al29 Al50 2.743216 1_555
Al29 Al59 2.743233 1_555
Al29 Al49 2.763555 1_555
Al29 Al43 2.763622 1_555
Al29 Al33 2.843877 1_555
Al29 Al77 3.082060 1_555
Al29 Al67 3.082146 1_555
Al29 Y1 3.113484 1_555
Al29 Y8 3.113507 1_555
Al29 Y9 3.412186 1_555
Al29 Y0 3.412308 1_555
Al30 Al54 2.743252 1_554
Al30 Al60 2.743279 1_555
Al30 Al46 2.763660 1_554
Al30 Al47 2.763716 1_555
Al30 Al35 2.843792 1_555
Al30 Al31 2.843799 1_555
Al30 Al68 3.082211 1_554
Al30 Al75 3.082309 1_555
Al30 Y7 3.113487 1_555
Al30 Y11 3.113523 1_554
Al30 Y10 3.412217 1_555
Al30 Y4 3.412332 1_554
Al31 Al61 2.743251 1_554
Al31 Al53 2.743315 1_565
Al31 Al46 2.763663 1_554
Al31 Al47 2.763724 1_555
Al31 Al35 2.843795 1_555
Al31 Al74 3.082195 1_554
Al31 Al69 3.082325 1_555
Al31 Y10 3.113495 1_555
Al31 Y6 3.113520 1_564
Al31 Y3 3.412220 1_565
Al31 Y11 3.412325 1_554
Al32 Al55 2.743171 1_555
Al32 Al50 2.743229 1_565
Al32 Al42 2.763543 1_555
Al32 Al48 2.763614 1_555
Al32 Al70 3.082051 1_555
Al32 Al84 3.082150 1_555
Al32 Y1 3.113476 1_565
Al32 Y2 3.113511 1_555
Al32 Y5 3.412204 1_555
Al32 Y0 3.412304 1_565
Al33 Al52 2.743221 1_655
Al33 Al51 2.743241 1_555
Al33 Al49 2.763558 1_555
Al33 Al43 2.763611 1_555
Al33 Al85 3.082048 1_555
Al33 Al73 3.082151 1_555
Al33 Y5 3.113470 1_655
Al33 Y0 3.113511 1_555
Al33 Y1 3.412190 1_555
Al33 Y2 3.412308 1_655
Al34 Al53 2.743217 1_555
Al34 Al54 2.743264 1_654
Al34 Al45 2.763650 1_554
Al34 Al44 2.763712 1_555
Al34 Al82 3.082203 1_554
Al34 Al78 3.082330 1_555
Al34 Y7 3.113493 1_655
Al34 Y6 3.113526 1_554
Al34 Y3 3.412228 1_555
Al34 Y4 3.412320 1_654
Al35 Al57 2.743211 1_555
Al35 Al56 2.743265 1_564
Al35 Al46 2.763650 1_554
Al35 Al47 2.763718 1_555
Al35 Al80 3.082207 1_554
Al35 Al83 3.082327 1_555
Al35 Y3 3.113489 1_565
Al35 Y4 3.113520 1_554
Al35 Y7 3.412216 1_555
Al35 Y6 3.412322 1_564
Al36 Nb4 2.617555 1_545
Al36 Nb6 2.617603 1_555
Al36 Al40 2.826346 1_445
Al36 Al38 2.826351 1_555
Al36 Al80 2.850071 1_545
Al36 Al70 2.850087 1_545
Al36 Al66 2.850094 1_555
Al36 Al77 2.850102 1_555
Al37 Nb5 2.617569 1_655
Al37 Nb7 2.617612 1_545
Al37 Al41 2.826341 1_655
Al37 Al39 2.826343 1_645
Al37 Al78 2.850112 1_555
Al37 Al73 2.850123 1_555
Al37 Al69 2.850133 1_545
Al37 Al76 2.850145 1_545
Al38 Nb2 2.617558 1_455
Al38 Nb6 2.617607 1_555
Al38 Al40 2.826337 1_445
Al38 Al82 2.850067 1_455
Al38 Al85 2.850079 1_455
Al38 Al68 2.850089 1_555
Al38 Al62 2.850101 1_555
Al39 Nb3 2.617569 1_565
Al39 Nb7 2.617609 1_455
Al39 Al41 2.826328 1_565
Al39 Al84 2.850120 1_555
Al39 Al65 2.850125 1_455
Al39 Al83 2.850126 1_555
Al39 Al63 2.850133 1_455
Al40 Nb2 2.617562 1_565
Al40 Nb4 2.617590 1_655
Al40 Al74 2.850068 1_555
Al40 Al64 2.850079 1_555
Al40 Al72 2.850079 1_555
Al40 Al81 2.850091 1_555
Al41 Nb3 2.617572 1_555
Al41 Nb5 2.617607 1_555
Al41 Al75 2.850125 1_555
Al41 Al67 2.850128 1_555
Al41 Al79 2.850130 1_555
Al41 Al71 2.850131 1_555
Al42 Al62 2.722412 1_555
Al42 Al64 2.722413 1_555
Al42 Al70 2.722414 1_555
Al42 Al6 2.820115 1_555
Al42 Y2 3.246566 1_555
Al42 Y0 3.246578 1_565
Al42 Y8 3.246579 1_555
Al43 Al67 2.722402 1_555
Al43 Al63 2.722419 1_555
Al43 Al73 2.722424 1_555
Al43 Al8 2.820217 1_555
Al43 Y5 3.246591 1_655
Al43 Y9 3.246595 1_555
Al43 Y1 3.246610 1_555
Al44 Al71 2.722438 1_555
Al44 Al65 2.722461 1_555
Al44 Al78 2.722461 1_555
Al44 Al8 2.820235 1_555
Al44 Y7 3.246617 1_655
Al44 Y10 3.246627 1_555
Al44 Y3 3.246632 1_555
Al45 Al66 2.722447 1_555
Al45 Al72 2.722447 1_555
Al45 Al82 2.722453 1_555
Al45 Al7 2.820139 1_555
Al45 Y4 3.246597 1_655
Al45 Y11 3.246598 1_555
Al45 Y6 3.246599 1_555
Al46 Al68 2.722448 1_555
Al46 Al74 2.722449 1_555
Al46 Al80 2.722449 1_555
Al46 Al6 2.820131 1_555
Al46 Y4 3.246591 1_555
Al46 Y6 3.246601 1_565
Al46 Y11 3.246604 1_555
Al47 Al83 2.722445 1_555
Al47 Al69 2.722458 1_555
Al47 Al75 2.722462 1_555
Al47 Al5 2.820235 1_555
Al47 Al9 2.820236 1_555
Al47 Y7 3.246618 1_555
Al47 Y3 3.246620 1_565
Al47 Y10 3.246626 1_555
Al48 Al76 2.722420 1_555
Al48 Al84 2.722424 1_555
Al48 Al79 2.722427 1_555
Al48 Al5 2.820204 1_555
Al48 Al9 2.820220 1_555
Al48 Y1 3.246600 1_565
Al48 Y5 3.246603 1_555
Al48 Y9 3.246608 1_555
Al49 Al77 2.722413 1_555
Al49 Al81 2.722415 1_555
Al49 Al85 2.722417 1_555
Al49 Al7 2.820126 1_555
Al49 Y0 3.246570 1_555
Al49 Y8 3.246576 1_555
Al49 Y2 3.246577 1_655
Al50 Nb0 2.865871 1_555
Al50 Al70 2.886761 1_545
Al50 Al77 2.886765 1_555
Al50 Al55 3.008529 1_545
Al50 Al59 3.008578 1_555
Al50 Y1 3.254785 1_555
Al50 Y0 3.268675 1_555
Al51 Nb0 2.865880 1_655
Al51 Al76 2.886756 1_545
Al51 Al73 2.886757 1_555
Al51 Al58 3.008580 1_545
Al51 Al52 3.008583 1_655
Al51 Y0 3.254930 1_555
Al51 Y1 3.268544 1_555
Al52 Nb0 2.865873 1_555
Al52 Al85 2.886759 1_455
Al52 Al62 2.886763 1_555
Al52 Al59 3.008580 1_555
Al52 Y5 3.254769 1_555
Al52 Y2 3.268679 1_555
Al53 Nb1 2.865915 1_655
Al53 Al78 2.886814 1_555
Al53 Al69 2.886887 1_545
Al53 Al54 3.008562 1_654
Al53 Al61 3.008608 1_544
Al53 Y6 3.254912 1_554
Al53 Y3 3.268550 1_555
Al54 Nb1 2.865882 1_556
Al54 Al68 2.886834 1_555
Al54 Al82 2.886836 1_455
Al54 Al60 3.008608 1_556
Al54 Y7 3.254798 1_556
Al54 Y4 3.268697 1_555
Al55 Nb0 2.865898 1_565
Al55 Al84 2.886740 1_555
Al55 Al63 2.886816 1_455
Al55 Al58 3.008623 1_455
Al55 Y2 3.254884 1_555
Al55 Y5 3.268555 1_555
Al56 Nb1 2.865882 1_556
Al56 Al66 2.886837 1_555
Al56 Al80 2.886841 1_545
Al56 Al57 3.008561 1_546
Al56 Al60 3.008610 1_556
Al56 Y3 3.254801 1_556
Al56 Y6 3.268695 1_555
Al57 Nb1 2.865922 1_565
Al57 Al83 2.886840 1_555
Al57 Al65 2.886877 1_455
Al57 Al61 3.008660 1_454
Al57 Y4 3.254909 1_554
Al57 Y7 3.268544 1_555
Al58 Nb0 2.865870 1_665
Al58 Al81 2.886757 1_555
Al58 Al64 2.886764 1_555
Al58 Y9 3.254782 1_555
Al58 Y8 3.268687 1_555
Al59 Nb0 2.865881 1_555
Al59 Al79 2.886743 1_555
Al59 Al67 2.886787 1_555
Al59 Y8 3.254928 1_555
Al59 Y9 3.268551 1_555
Al60 Nb1 2.865890 1_555
Al60 Al75 2.886815 1_555
Al60 Al71 2.886853 1_555
Al60 Y11 3.254951 1_554
Al60 Y10 3.268557 1_555
Al61 Nb1 2.865831 1_666
Al61 Al74 2.886839 1_555
Al61 Al72 2.886868 1_555
Al61 Y10 3.254839 1_556
Al61 Y11 3.268752 1_555
Al62 Nb6 2.744465 1_555
Al62 Al85 3.019809 1_455
Al62 Y2 3.056236 1_555
Al62 Al68 3.102696 1_555
Al62 Y8 3.325122 1_555
Al63 Nb7 2.744498 1_555
Al63 Al84 3.019809 1_655
Al63 Y5 3.056300 1_655
Al63 Al65 3.102832 1_555
Al63 Y9 3.325237 1_555
Al64 Nb2 2.744470 1_565
Al64 Al81 3.019811 1_555
Al64 Y8 3.056238 1_555
Al64 Al74 3.102710 1_555
Al64 Y0 3.325126 1_565
Al65 Nb7 2.744364 1_555
Al65 Al83 3.019836 1_655
Al65 Y7 3.056390 1_655
Al65 Y10 3.325267 1_555
Al66 Nb6 2.744325 1_555
Al66 Al7 2.840972 1_555
Al66 Al80 3.019805 1_545
Al66 Y6 3.056335 1_555
Al66 Al77 3.102688 1_555
Al66 Y11 3.325143 1_555
Al67 Nb3 2.744471 1_555
Al67 Al8 2.840954 1_555
Al67 Al79 3.019864 1_555
Al67 Y9 3.056324 1_555
Al67 Al71 3.102825 1_555
Al67 Y1 3.325204 1_555
Al68 Nb6 2.744330 1_555
Al68 Al82 3.019787 1_455
Al68 Y4 3.056333 1_555
Al68 Y11 3.325152 1_555
Al69 Nb7 2.744363 1_555
Al69 Al9 2.841005 1_555
Al69 Al78 3.019803 1_565
Al69 Y3 3.056389 1_565
Al69 Al76 3.102831 1_555
Al69 Y10 3.325269 1_555
Al70 Nb4 2.744455 1_555
Al70 Al77 3.019819 1_565
Al70 Y0 3.056248 1_565
Al70 Al80 3.102695 1_555
Al70 Y2 3.325119 1_555
Al71 Nb3 2.744347 1_555
Al71 Al8 2.840986 1_555
Al71 Al75 3.019857 1_555
Al71 Y10 3.056422 1_555
Al71 Y3 3.325209 1_555
Al72 Nb4 2.744340 1_655
Al72 Al74 3.019792 1_555
Al72 Y11 3.056322 1_555
Al72 Al81 3.102706 1_555
Al72 Y4 3.325149 1_655
Al73 Al8 2.743747 1_555
Al73 Nb5 2.744495 1_655
Al73 Al76 3.019831 1_545
Al73 Y1 3.056301 1_555
Al73 Al78 3.102831 1_555
Al73 Y5 3.325228 1_655
Al74 Nb2 2.744333 1_565
Al74 Y11 3.056327 1_555
Al74 Y6 3.325146 1_565
Al75 Al9 2.743833 1_555
Al75 Nb5 2.744375 1_555
Al75 Y10 3.056381 1_555
Al75 Al79 3.102845 1_555
Al75 Y7 3.325267 1_555
Al76 Nb7 2.744502 1_555
Al76 Al9 2.840970 1_555
Al76 Y1 3.056294 1_565
Al76 Y9 3.325240 1_555
Al77 Nb6 2.744463 1_555
Al77 Y0 3.056240 1_555
Al77 Y8 3.325127 1_555
Al78 Al8 2.743807 1_555
Al78 Nb5 2.744354 1_655
Al78 Y3 3.056398 1_555
Al78 Y7 3.325270 1_655
Al79 Al9 2.743773 1_555
Al79 Nb5 2.744508 1_555
Al79 Y9 3.056289 1_555
Al79 Y5 3.325246 1_555
Al80 Nb4 2.744317 1_555
Al80 Y6 3.056340 1_565
Al80 Y4 3.325138 1_555
Al81 Nb4 2.744474 1_655
Al81 Y8 3.056237 1_555
Al81 Y2 3.325132 1_655
Al82 Nb2 2.744333 1_555
Al82 Y4 3.056334 1_655
Al82 Al85 3.102707 1_555
Al82 Y6 3.325149 1_555
Al83 Nb3 2.744335 1_565
Al83 Y7 3.056414 1_555
Al83 Al84 3.102831 1_555
Al83 Y3 3.325229 1_565
Al84 Nb3 2.744501 1_565
Al84 Y5 3.056293 1_555
Al84 Y1 3.325249 1_565
Al85 Nb2 2.744471 1_555
Al85 Y2 3.056235 1_655
Al85 Y0 3.325125 1_555
