# generated using pymatgen
data_Mn3(W5C2)2
_symmetry_space_group_name_H-M   'P 1'
_cell_length_a   8.00528008
_cell_length_b   8.00528001
_cell_length_c   8.02777600
_cell_angle_alpha   90.00000000
_cell_angle_beta   90.00000000
_cell_angle_gamma   119.98339208
_symmetry_Int_Tables_number   1
_chemical_formula_structural   Mn3(W5C2)2
_chemical_formula_sum   'Mn6 W20 C8'
_cell_volume   445.60657706
_cell_formula_units_Z   2
loop_
 _symmetry_equiv_pos_site_id
 _symmetry_equiv_pos_as_xyz
  1  'x, y, z'
loop_
 _atom_site_type_symbol
 _atom_site_label
 _atom_site_symmetry_multiplicity
 _atom_site_fract_x
 _atom_site_fract_y
 _atom_site_fract_z
 _atom_site_occupancy
  Mn  Mn0  1  0.46678000  0.53322000  0.25000000  1
  Mn  Mn1  1  0.46693900  0.93379600  0.25000000  1
  Mn  Mn2  1  0.06620400  0.53306100  0.25000000  1
  Mn  Mn3  1  0.53322000  0.46678000  0.75000000  1
  Mn  Mn4  1  0.53306100  0.06620400  0.75000000  1
  Mn  Mn5  1  0.93379600  0.46693900  0.75000000  1
  W  W0  1  0.11760300  0.88239700  0.25000000  1
  W  W1  1  0.11749400  0.23512700  0.25000000  1
  W  W2  1  0.76487300  0.88250600  0.25000000  1
  W  W3  1  0.88239700  0.11760300  0.75000000  1
  W  W4  1  0.88250600  0.76487300  0.75000000  1
  W  W5  1  0.23512700  0.11749400  0.75000000  1
  W  W6  1  0.20891800  0.79108300  0.94130100  1
  W  W7  1  0.20898400  0.41785600  0.94110900  1
  W  W8  1  0.58214400  0.79101600  0.94110900  1
  W  W9  1  0.79108300  0.20891800  0.05869900  1
  W  W10  1  0.79101600  0.58214400  0.05889100  1
  W  W11  1  0.41785600  0.20898400  0.05889100  1
  W  W12  1  0.79108300  0.20891800  0.44130100  1
  W  W13  1  0.79101600  0.58214400  0.44110900  1
  W  W14  1  0.41785600  0.20898400  0.44110900  1
  W  W15  1  0.20891800  0.79108300  0.55869900  1
  W  W16  1  0.20898400  0.41785600  0.55889100  1
  W  W17  1  0.58214400  0.79101600  0.55889100  1
  W  W18  1  0.00000000  0.00000000  0.50000000  1
  W  W19  1  0.00000000  0.00000000  0.00000000  1
  C  C0  1  0.50000000  0.50000000  0.50000000  1
  C  C1  1  0.50000000  0.00000000  0.50000000  1
  C  C2  1  0.00000000  0.50000000  0.50000000  1
  C  C3  1  0.50000000  0.50000000  0.00000000  1
  C  C4  1  0.50000000  0.00000000  0.00000000  1
  C  C5  1  0.00000000  0.50000000  0.00000000  1
  C  C6  1  0.33322400  0.66677600  0.25000000  1
  C  C7  1  0.66677600  0.33322400  0.75000000  1
loop_
_geom_bond_atom_site_label_1
_geom_bond_atom_site_label_2
_geom_bond_distance
_geom_bond_site_symmetry_2
Mn0 W2 2.616058 1_555
Mn0 W1 2.616058 1_555
Mn1 W2 2.614538 1_555
Mn1 W0 2.615302 1_555
Mn2 W1 2.614538 1_555
Mn2 W0 2.615302 1_555
Mn3 W5 2.616058 1_555
Mn3 W4 2.616058 1_555
Mn4 W5 2.614538 1_555
Mn4 W3 2.615302 1_555
Mn5 W4 2.614538 1_555
Mn5 W3 2.615302 1_555
W0 W19 2.585795 1_565
W0 W18 2.585795 1_565
W1 W19 2.585708 1_555
W1 W18 2.585708 1_555
W10 W19 2.935704 1_665
W11 W19 2.935704 1_555
W12 W18 2.934594 1_655
W13 W18 2.935704 1_665
W14 W18 2.935704 1_555
W15 W18 2.934594 1_565
W16 W18 2.935704 1_555
W17 W18 2.935704 1_665
W18 W4 2.585708 1_445
W18 W5 2.585708 1_555
W18 W2 2.585708 1_445
W18 W3 2.585795 1_455
W19 W4 2.585708 1_444
W19 W5 2.585708 1_554
W19 W2 2.585708 1_445
W19 W3 2.585795 1_454
W19 W9 2.934594 1_455
W19 W6 2.934594 1_544
W19 W7 2.935704 1_554
W19 W8 2.935704 1_444
C0 Mn0 2.059115 1_555
C0 Mn3 2.059115 1_555
C0 W17 2.133560 1_555
C0 W14 2.133560 1_555
C0 W13 2.133560 1_555
C0 W16 2.133560 1_555
C1 Mn4 2.058775 1_555
C1 Mn1 2.058775 1_545
C1 W15 2.133952 1_545
C1 W12 2.133960 1_555
C1 W14 2.134091 1_555
C1 W17 2.134091 1_545
C2 Mn5 2.058775 1_455
C2 Mn2 2.058775 1_555
C2 W12 2.133952 1_455
C2 W15 2.133960 1_555
C2 W16 2.134091 1_555
C2 W13 2.134091 1_455
C3 Mn0 2.059115 1_555
C3 Mn3 2.059115 1_554
C3 W8 2.133560 1_554
C3 W11 2.133560 1_555
C3 W10 2.133560 1_555
C3 W7 2.133560 1_554
C4 Mn1 2.058775 1_545
C4 Mn4 2.058775 1_554
C4 W6 2.133952 1_544
C4 W9 2.133960 1_555
C4 W11 2.134091 1_555
C4 W8 2.134091 1_544
C5 Mn5 2.058775 1_454
C5 Mn2 2.058775 1_555
C5 W9 2.133952 1_455
C5 W6 2.133960 1_554
C5 W7 2.134091 1_554
C5 W10 2.134091 1_455
C6 Mn1 1.851501 1_555
C6 Mn2 1.851501 1_555
C6 Mn0 1.851673 1_555
C7 Mn4 1.851501 1_555
C7 Mn5 1.851501 1_555
C7 Mn3 1.851673 1_555
