# generated using pymatgen
data_RbMg6C
_symmetry_space_group_name_H-M   'P 1'
_cell_length_a   23.21913774
_cell_length_b   23.21913774
_cell_length_c   6.83435000
_cell_angle_alpha   90.00000000
_cell_angle_beta   90.00000000
_cell_angle_gamma   150.98511378
_symmetry_Int_Tables_number   1
_chemical_formula_structural   RbMg6C
_chemical_formula_sum   'Rb8 Mg48 C8'
_cell_volume   1787.16281437
_cell_formula_units_Z   8
loop_
 _symmetry_equiv_pos_site_id
 _symmetry_equiv_pos_as_xyz
  1  'x, y, z'
loop_
 _atom_site_type_symbol
 _atom_site_label
 _atom_site_symmetry_multiplicity
 _atom_site_fract_x
 _atom_site_fract_y
 _atom_site_fract_z
 _atom_site_occupancy
  Rb  Rb0_0  1  0.39310500  0.10689500  0.25000000  1
  Rb  Rb0_1  1  0.39310500  0.10689500  0.75000000  1
  Rb  Rb0_2  1  0.39310500  0.60689500  0.25000000  1
  Rb  Rb0_3  1  0.39310500  0.60689500  0.75000000  1
  Rb  Rb0_4  1  0.89310500  0.10689500  0.25000000  1
  Rb  Rb0_5  1  0.89310500  0.10689500  0.75000000  1
  Rb  Rb0_6  1  0.89310500  0.60689500  0.25000000  1
  Rb  Rb0_7  1  0.89310500  0.60689500  0.75000000  1
  Mg  Mg0_0  1  0.14885650  0.10548700  0.25000000  1
  Mg  Mg0_1  1  0.14885650  0.10548700  0.75000000  1
  Mg  Mg0_2  1  0.14885650  0.60548700  0.25000000  1
  Mg  Mg0_3  1  0.14885650  0.60548700  0.75000000  1
  Mg  Mg0_4  1  0.64885650  0.10548700  0.25000000  1
  Mg  Mg0_5  1  0.64885650  0.10548700  0.75000000  1
  Mg  Mg0_6  1  0.64885650  0.60548700  0.25000000  1
  Mg  Mg0_7  1  0.64885650  0.60548700  0.75000000  1
  Mg  Mg1_0  1  0.39451300  0.35114350  0.25000000  1
  Mg  Mg1_1  1  0.39451300  0.35114350  0.75000000  1
  Mg  Mg1_2  1  0.39451300  0.85114350  0.25000000  1
  Mg  Mg1_3  1  0.39451300  0.85114350  0.75000000  1
  Mg  Mg1_4  1  0.89451300  0.35114350  0.25000000  1
  Mg  Mg1_5  1  0.89451300  0.35114350  0.75000000  1
  Mg  Mg1_6  1  0.89451300  0.85114350  0.25000000  1
  Mg  Mg1_7  1  0.89451300  0.85114350  0.75000000  1
  Mg  Mg2_0  1  0.09903900  0.16435950  0.00000000  1
  Mg  Mg2_1  1  0.09903900  0.16435950  0.50000000  1
  Mg  Mg2_2  1  0.09903900  0.66435950  0.00000000  1
  Mg  Mg2_3  1  0.09903900  0.66435950  0.50000000  1
  Mg  Mg2_4  1  0.59903900  0.16435950  0.00000000  1
  Mg  Mg2_5  1  0.59903900  0.16435950  0.50000000  1
  Mg  Mg2_6  1  0.59903900  0.66435950  0.00000000  1
  Mg  Mg2_7  1  0.59903900  0.66435950  0.50000000  1
  Mg  Mg3_0  1  0.33564050  0.40096100  0.00000000  1
  Mg  Mg3_1  1  0.33564050  0.40096100  0.50000000  1
  Mg  Mg3_2  1  0.33564050  0.90096100  0.00000000  1
  Mg  Mg3_3  1  0.33564050  0.90096100  0.50000000  1
  Mg  Mg3_4  1  0.83564050  0.40096100  0.00000000  1
  Mg  Mg3_5  1  0.83564050  0.40096100  0.50000000  1
  Mg  Mg3_6  1  0.83564050  0.90096100  0.00000000  1
  Mg  Mg3_7  1  0.83564050  0.90096100  0.50000000  1
  Mg  Mg4_0  1  0.31995400  0.18004600  0.00000000  1
  Mg  Mg4_1  1  0.31995400  0.18004600  0.50000000  1
  Mg  Mg4_2  1  0.31995400  0.68004600  0.00000000  1
  Mg  Mg4_3  1  0.31995400  0.68004600  0.50000000  1
  Mg  Mg4_4  1  0.81995400  0.18004600  0.00000000  1
  Mg  Mg4_5  1  0.81995400  0.18004600  0.50000000  1
  Mg  Mg4_6  1  0.81995400  0.68004600  0.00000000  1
  Mg  Mg4_7  1  0.81995400  0.68004600  0.50000000  1
  Mg  Mg5_0  1  0.07814350  0.42185650  0.00000000  1
  Mg  Mg5_1  1  0.07814350  0.42185650  0.50000000  1
  Mg  Mg5_2  1  0.07814350  0.92185650  0.00000000  1
  Mg  Mg5_3  1  0.07814350  0.92185650  0.50000000  1
  Mg  Mg5_4  1  0.57814350  0.42185650  0.00000000  1
  Mg  Mg5_5  1  0.57814350  0.42185650  0.50000000  1
  Mg  Mg5_6  1  0.57814350  0.92185650  0.00000000  1
  Mg  Mg5_7  1  0.57814350  0.92185650  0.50000000  1
  C  C0_0  1  0.23075100  0.26924900  0.25000000  1
  C  C0_1  1  0.23075100  0.26924900  0.75000000  1
  C  C0_2  1  0.23075100  0.76924900  0.25000000  1
  C  C0_3  1  0.23075100  0.76924900  0.75000000  1
  C  C0_4  1  0.73075100  0.26924900  0.25000000  1
  C  C0_5  1  0.73075100  0.26924900  0.75000000  1
  C  C0_6  1  0.73075100  0.76924900  0.25000000  1
  C  C0_7  1  0.73075100  0.76924900  0.75000000  1
loop_
_geom_bond_atom_site_label_1
_geom_bond_atom_site_label_2
_geom_bond_distance
_geom_bond_site_symmetry_2
Rb0_0 Rb0_1 3.417175 1_555
Rb0_0 Rb0_1 3.417175 1_554
Rb0_2 Rb0_3 3.417175 1_554
Rb0_2 Rb0_3 3.417175 1_555
Rb0_4 Rb0_5 3.417175 1_554
Rb0_4 Rb0_5 3.417175 1_555
Rb0_6 Rb0_7 3.417175 1_554
Rb0_6 Rb0_7 3.417175 1_555
Mg0_0 Mg4_0 3.109684 1_555
Mg0_0 Mg4_1 3.109684 1_555
Mg0_0 Mg5_2 3.398617 1_545
Mg0_0 Mg5_3 3.398617 1_545
Mg0_1 Mg4_0 3.109684 1_556
Mg0_1 Mg4_1 3.109684 1_555
Mg0_1 Mg5_2 3.398617 1_546
Mg0_1 Mg5_3 3.398617 1_545
Mg0_2 Mg4_2 3.109684 1_555
Mg0_2 Mg4_3 3.109684 1_555
Mg0_2 Mg5_0 3.398617 1_555
Mg0_2 Mg5_1 3.398617 1_555
Mg0_3 Mg4_2 3.109684 1_556
Mg0_3 Mg4_3 3.109684 1_555
Mg0_3 Mg5_0 3.398617 1_556
Mg0_3 Mg5_1 3.398617 1_555
Mg0_4 Mg4_4 3.109684 1_555
Mg0_4 Mg4_5 3.109684 1_555
Mg0_4 Mg5_6 3.398617 1_545
Mg0_4 Mg5_7 3.398617 1_545
Mg0_5 Mg4_5 3.109684 1_555
Mg0_5 Mg4_4 3.109684 1_556
Mg0_5 Mg5_7 3.398617 1_545
Mg0_5 Mg5_6 3.398617 1_546
Mg0_6 Mg4_7 3.109684 1_555
Mg0_6 Mg4_6 3.109684 1_555
Mg0_6 Mg5_5 3.398617 1_555
Mg0_6 Mg5_4 3.398617 1_555
Mg0_7 Mg4_7 3.109684 1_555
Mg0_7 Mg4_6 3.109684 1_556
Mg0_7 Mg5_4 3.398617 1_556
Mg0_7 Mg5_5 3.398617 1_555
Mg1_0 Mg4_0 3.109684 1_555
Mg1_0 Mg4_1 3.109684 1_555
Mg1_0 Mg5_5 3.398617 1_555
Mg1_0 Mg5_4 3.398617 1_555
Mg1_1 Mg4_0 3.109684 1_556
Mg1_1 Mg4_1 3.109684 1_555
Mg1_1 Mg5_4 3.398617 1_556
Mg1_1 Mg5_5 3.398617 1_555
Mg1_2 Mg4_2 3.109684 1_555
Mg1_2 Mg4_3 3.109684 1_555
Mg1_2 Mg5_6 3.398617 1_555
Mg1_2 Mg5_7 3.398617 1_555
Mg1_3 Mg4_2 3.109684 1_556
Mg1_3 Mg4_3 3.109684 1_555
Mg1_3 Mg5_6 3.398617 1_556
Mg1_3 Mg5_7 3.398617 1_555
Mg1_4 Mg4_5 3.109684 1_555
Mg1_4 Mg4_4 3.109684 1_555
Mg1_4 Mg5_1 3.398617 1_655
Mg1_4 Mg5_0 3.398617 1_655
Mg1_5 Mg4_5 3.109684 1_555
Mg1_5 Mg4_4 3.109684 1_556
Mg1_5 Mg5_1 3.398617 1_655
Mg1_5 Mg5_0 3.398617 1_656
Mg1_6 Mg4_6 3.109684 1_555
Mg1_6 Mg4_7 3.109684 1_555
Mg1_6 Mg5_3 3.398617 1_655
Mg1_6 Mg5_2 3.398617 1_655
Mg1_7 Mg4_6 3.109684 1_556
Mg1_7 Mg4_7 3.109684 1_555
Mg1_7 Mg5_2 3.398617 1_656
Mg1_7 Mg5_3 3.398617 1_655
Mg2_0 Rb0_5 4.050289 1_454
Mg2_0 Rb0_4 4.050289 1_455
Mg2_1 Rb0_5 4.050289 1_455
Mg2_1 Rb0_4 4.050289 1_455
Mg2_2 Rb0_6 4.050289 1_455
Mg2_2 Rb0_7 4.050289 1_454
Mg2_3 Rb0_6 4.050289 1_455
Mg2_3 Rb0_7 4.050289 1_455
Mg2_4 Rb0_1 4.050289 1_554
Mg2_4 Rb0_0 4.050289 1_555
Mg2_5 Rb0_1 4.050289 1_555
Mg2_5 Rb0_0 4.050289 1_555
Mg2_6 Rb0_2 4.050289 1_555
Mg2_6 Rb0_3 4.050289 1_554
Mg2_7 Rb0_3 4.050289 1_555
Mg2_7 Rb0_2 4.050289 1_555
Mg3_0 Rb0_3 4.050289 1_554
Mg3_0 Rb0_2 4.050289 1_555
Mg3_1 Rb0_3 4.050289 1_555
Mg3_1 Rb0_2 4.050289 1_555
Mg3_2 Rb0_0 4.050289 1_565
Mg3_2 Rb0_1 4.050289 1_564
Mg3_3 Rb0_0 4.050289 1_565
Mg3_3 Rb0_1 4.050289 1_565
Mg3_4 Rb0_6 4.050289 1_555
Mg3_4 Rb0_7 4.050289 1_554
Mg3_5 Rb0_6 4.050289 1_555
Mg3_5 Rb0_7 4.050289 1_555
Mg3_6 Rb0_5 4.050289 1_564
Mg3_6 Rb0_4 4.050289 1_565
Mg3_7 Rb0_5 4.050289 1_565
Mg3_7 Rb0_4 4.050289 1_565
Mg4_0 Mg5_2 2.931477 1_545
Mg4_0 Mg5_4 2.931477 1_555
Mg4_0 Mg4_1 3.417175 1_554
Mg4_0 Mg4_1 3.417175 1_555
Mg4_0 Rb0_1 3.706046 1_554
Mg4_0 Rb0_0 3.706046 1_555
Mg4_1 Mg5_3 2.931477 1_545
Mg4_1 Mg5_5 2.931477 1_555
Mg4_1 Rb0_0 3.706046 1_555
Mg4_1 Rb0_1 3.706046 1_555
Mg4_2 Mg5_6 2.931477 1_555
Mg4_2 Mg5_0 2.931477 1_555
Mg4_2 Mg4_3 3.417175 1_554
Mg4_2 Mg4_3 3.417175 1_555
Mg4_2 Rb0_3 3.706046 1_554
Mg4_2 Rb0_2 3.706046 1_555
Mg4_3 Mg5_1 2.931477 1_555
Mg4_3 Mg5_7 2.931477 1_555
Mg4_3 Rb0_2 3.706046 1_555
Mg4_3 Rb0_3 3.706046 1_555
Mg4_4 Mg5_6 2.931477 1_545
Mg4_4 Mg5_0 2.931477 1_655
Mg4_4 Mg4_5 3.417175 1_555
Mg4_4 Mg4_5 3.417175 1_554
Mg4_4 Rb0_5 3.706046 1_554
Mg4_4 Rb0_4 3.706046 1_555
Mg4_5 Mg5_7 2.931477 1_545
Mg4_5 Mg5_1 2.931477 1_655
Mg4_5 Rb0_5 3.706046 1_555
Mg4_5 Rb0_4 3.706046 1_555
Mg4_6 Mg5_4 2.931477 1_555
Mg4_6 Mg5_2 2.931477 1_655
Mg4_6 Mg4_7 3.417175 1_554
Mg4_6 Mg4_7 3.417175 1_555
Mg4_6 Rb0_7 3.706046 1_554
Mg4_6 Rb0_6 3.706046 1_555
Mg4_7 Mg5_5 2.931477 1_555
Mg4_7 Mg5_3 2.931477 1_655
Mg4_7 Rb0_6 3.706046 1_555
Mg4_7 Rb0_7 3.706046 1_555
Mg5_0 Mg5_1 3.417175 1_554
Mg5_0 Mg5_1 3.417175 1_555
Mg5_2 Mg5_3 3.417175 1_555
Mg5_2 Mg5_3 3.417175 1_554
Mg5_4 Mg5_5 3.417175 1_555
Mg5_4 Mg5_5 3.417175 1_554
Mg5_6 Mg5_7 3.417175 1_555
Mg5_6 Mg5_7 3.417175 1_554
C0_0 Mg2_1 2.275243 1_555
C0_0 Mg2_0 2.275243 1_555
C0_0 Mg3_0 2.275243 1_555
C0_0 Mg3_1 2.275243 1_555
C0_0 Mg0_0 2.329872 1_555
C0_0 Mg1_0 2.329872 1_555
C0_1 Mg2_0 2.275243 1_556
C0_1 Mg2_1 2.275243 1_555
C0_1 Mg3_0 2.275243 1_556
C0_1 Mg3_1 2.275243 1_555
C0_1 Mg0_1 2.329872 1_555
C0_1 Mg1_1 2.329872 1_555
C0_2 Mg2_2 2.275243 1_555
C0_2 Mg2_3 2.275243 1_555
C0_2 Mg3_2 2.275243 1_555
C0_2 Mg3_3 2.275243 1_555
C0_2 Mg0_2 2.329872 1_555
C0_2 Mg1_2 2.329872 1_555
C0_3 Mg2_2 2.275243 1_556
C0_3 Mg2_3 2.275243 1_555
C0_3 Mg3_2 2.275243 1_556
C0_3 Mg3_3 2.275243 1_555
C0_3 Mg0_3 2.329872 1_555
C0_3 Mg1_3 2.329872 1_555
C0_4 Mg2_5 2.275243 1_555
C0_4 Mg2_4 2.275243 1_555
C0_4 Mg3_4 2.275243 1_555
C0_4 Mg3_5 2.275243 1_555
C0_4 Mg0_4 2.329872 1_555
C0_4 Mg1_4 2.329872 1_555
C0_5 Mg2_4 2.275243 1_556
C0_5 Mg2_5 2.275243 1_555
C0_5 Mg3_5 2.275243 1_555
C0_5 Mg3_4 2.275243 1_556
C0_5 Mg0_5 2.329872 1_555
C0_5 Mg1_5 2.329872 1_555
C0_6 Mg2_6 2.275243 1_555
C0_6 Mg2_7 2.275243 1_555
C0_6 Mg3_6 2.275243 1_555
C0_6 Mg3_7 2.275243 1_555
C0_6 Mg0_6 2.329872 1_555
C0_6 Mg1_6 2.329872 1_555
C0_7 Mg2_6 2.275243 1_556
C0_7 Mg2_7 2.275243 1_555
C0_7 Mg3_6 2.275243 1_556
C0_7 Mg3_7 2.275243 1_555
C0_7 Mg0_7 2.329872 1_555
C0_7 Mg1_7 2.329872 1_555
