# generated using pymatgen
data_Ba6Zr(Zn3S7)2
_symmetry_space_group_name_H-M   'P 1'
_cell_length_a   12.72245978
_cell_length_b   12.72245978
_cell_length_c   12.72245978
_cell_angle_alpha   98.75131606
_cell_angle_beta   98.75131606
_cell_angle_gamma   134.08364843
_symmetry_Int_Tables_number   1
_chemical_formula_structural   Ba6Zr(Zn3S7)2
_chemical_formula_sum   'Ba12 Zr2 Zn12 S28'
_cell_volume   1362.05510883
_cell_formula_units_Z   2
loop_
 _symmetry_equiv_pos_site_id
 _symmetry_equiv_pos_as_xyz
  1  'x, y, z'
loop_
 _atom_site_type_symbol
 _atom_site_label
 _atom_site_symmetry_multiplicity
 _atom_site_fract_x
 _atom_site_fract_y
 _atom_site_fract_z
 _atom_site_occupancy
  Ba  Ba0  1  0.27050500  0.22949500  0.50000000  1
  Ba  Ba1  1  0.72949500  0.77050500  0.50000000  1
  Ba  Ba2  1  0.22949500  0.72949500  0.95899100  1
  Ba  Ba3  1  0.77050500  0.27050500  0.04100900  1
  Ba  Ba4  1  0.94656500  0.75000000  0.19656500  1
  Ba  Ba5  1  0.55343500  0.75000000  0.80343500  1
  Ba  Ba6  1  0.05343500  0.25000000  0.80343500  1
  Ba  Ba7  1  0.44656500  0.25000000  0.19656500  1
  Ba  Ba8  1  0.75000000  0.55343500  0.80343500  1
  Ba  Ba9  1  0.75000000  0.94656500  0.19656500  1
  Ba  Ba10  1  0.25000000  0.44656500  0.19656500  1
  Ba  Ba11  1  0.25000000  0.05343500  0.80343500  1
  Zr  Zr0  1  0.00000000  0.00000000  0.00000000  1
  Zr  Zr1  1  0.50000000  0.50000000  0.00000000  1
  Zn  Zn0  1  0.26015800  0.93916800  0.50000000  1
  Zn  Zn1  1  0.43916800  0.76015800  0.50000000  1
  Zn  Zn2  1  0.93916800  0.43916800  0.67901000  1
  Zn  Zn3  1  0.76015800  0.26015800  0.32099000  1
  Zn  Zn4  1  0.73984200  0.06083200  0.50000000  1
  Zn  Zn5  1  0.56083200  0.23984200  0.50000000  1
  Zn  Zn6  1  0.06083200  0.56083200  0.32099000  1
  Zn  Zn7  1  0.23984200  0.73984200  0.67901000  1
  Zn  Zn8  1  0.11726500  0.38273500  0.50000000  1
  Zn  Zn9  1  0.88273500  0.61726500  0.50000000  1
  Zn  Zn10  1  0.38273500  0.88273500  0.26546900  1
  Zn  Zn11  1  0.61726500  0.11726500  0.73453100  1
  S  S0  1  0.32690900  0.01550600  0.34241400  1
  S  S1  1  0.67309100  0.98449400  0.65758600  1
  S  S2  1  0.17309100  0.51550600  0.68859700  1
  S  S3  1  0.82690900  0.48449400  0.31140300  1
  S  S4  1  0.01550600  0.67309100  0.68859700  1
  S  S5  1  0.98449400  0.32690900  0.31140300  1
  S  S6  1  0.51550600  0.82690900  0.34241400  1
  S  S7  1  0.48449400  0.17309100  0.65758600  1
  S  S8  1  0.03959500  0.87722800  0.50000000  1
  S  S9  1  0.37722800  0.53959500  0.50000000  1
  S  S10  1  0.87722800  0.37722800  0.83763300  1
  S  S11  1  0.53959500  0.03959500  0.16236700  1
  S  S12  1  0.96040500  0.12277200  0.50000000  1
  S  S13  1  0.62277200  0.46040500  0.50000000  1
  S  S14  1  0.12277200  0.62277200  0.16236700  1
  S  S15  1  0.46040500  0.96040500  0.83763300  1
  S  S16  1  0.11155100  0.11233000  0.22388100  1
  S  S17  1  0.88844900  0.88767000  0.77611900  1
  S  S18  1  0.38844900  0.61233000  0.00078000  1
  S  S19  1  0.61155100  0.38767000  0.99922000  1
  S  S20  1  0.11233000  0.88844900  0.00078000  1
  S  S21  1  0.88767000  0.11155100  0.99922000  1
  S  S22  1  0.61233000  0.61155100  0.22388100  1
  S  S23  1  0.38767000  0.38844900  0.77611900  1
  S  S24  1  0.75000000  0.75000000  0.00000000  1
  S  S25  1  0.25000000  0.25000000  0.00000000  1
  S  S26  1  0.25000000  0.75000000  0.50000000  1
  S  S27  1  0.75000000  0.25000000  0.50000000  1
loop_
_geom_bond_atom_site_label_1
_geom_bond_atom_site_label_2
_geom_bond_distance
_geom_bond_site_symmetry_2
Ba0 S9 3.155149 1_555
Ba0 S12 3.155149 1_455
Ba0 S8 3.224359 1_545
Ba0 S13 3.224359 1_555
Ba0 S23 3.271490 1_555
Ba0 S16 3.271490 1_555
Ba1 S13 3.155149 1_555
Ba1 S8 3.155149 1_655
Ba1 S9 3.224359 1_555
Ba1 S12 3.224359 1_565
Ba1 S22 3.271490 1_555
Ba1 S17 3.271490 1_555
Ba2 S14 3.155137 1_556
Ba2 S11 3.155143 1_566
Ba2 S10 3.224359 1_455
Ba2 S15 3.224368 1_555
Ba2 S18 3.271490 1_556
Ba2 S20 3.271490 1_556
Ba3 S10 3.155137 1_554
Ba3 S15 3.155143 1_544
Ba3 S14 3.224359 1_655
Ba3 S11 3.224368 1_555
Ba3 S21 3.271490 1_554
Ba3 S19 3.271490 1_554
Ba4 S24 3.256513 1_555
Ba4 S0 3.299350 1_665
Ba4 S3 3.299353 1_555
Ba4 S20 3.394031 1_655
Ba4 S22 3.394042 1_555
Ba4 S16 3.406402 1_665
Ba4 S19 3.406407 1_554
Ba4 S8 3.600894 1_655
Ba4 S14 3.600894 1_655
Ba5 S24 3.256513 1_556
Ba5 S1 3.299343 1_555
Ba5 S2 3.299353 1_555
Ba5 S21 3.394038 1_565
Ba5 S23 3.394042 1_555
Ba5 S17 3.406402 1_555
Ba5 S18 3.406414 1_556
Ba5 S15 3.600894 1_555
Ba5 S9 3.600894 1_555
Ba6 S25 3.256513 1_556
Ba6 S1 3.299350 1_445
Ba6 S2 3.299353 1_555
Ba6 S21 3.394031 1_455
Ba6 S23 3.394042 1_555
Ba6 S17 3.406402 1_445
Ba6 S18 3.406407 1_556
Ba6 S12 3.600894 1_455
Ba6 S10 3.600894 1_455
Ba7 S25 3.256513 1_555
Ba7 S0 3.299343 1_555
Ba7 S3 3.299353 1_555
Ba7 S20 3.394038 1_545
Ba7 S22 3.394042 1_555
Ba7 S16 3.406402 1_555
Ba7 S19 3.406414 1_554
Ba7 S13 3.600894 1_555
Ba7 S11 3.600894 1_555
Ba8 S24 3.256513 1_556
Ba8 S7 3.299350 1_555
Ba8 S4 3.299353 1_655
Ba8 S19 3.394031 1_555
Ba8 S17 3.394042 1_555
Ba8 S23 3.406402 1_555
Ba8 S20 3.406407 1_656
Ba8 S10 3.600894 1_555
Ba8 S13 3.600894 1_555
Ba9 S24 3.256513 1_555
Ba9 S6 3.299343 1_555
Ba9 S5 3.299353 1_565
Ba9 S18 3.394038 1_555
Ba9 S16 3.394042 1_665
Ba9 S22 3.406402 1_555
Ba9 S21 3.406414 1_564
Ba9 S12 3.600894 1_565
Ba9 S11 3.600894 1_565
Ba10 S25 3.256513 1_555
Ba10 S6 3.299350 1_555
Ba10 S5 3.299353 1_455
Ba10 S18 3.394031 1_555
Ba10 S16 3.394042 1_555
Ba10 S22 3.406402 1_555
Ba10 S21 3.406407 1_454
Ba10 S9 3.600894 1_555
Ba10 S14 3.600894 1_555
Ba11 S25 3.256513 1_556
Ba11 S7 3.299343 1_555
Ba11 S4 3.299353 1_545
Ba11 S19 3.394038 1_555
Ba11 S17 3.394042 1_445
Ba11 S23 3.406402 1_555
Ba11 S20 3.406414 1_546
Ba11 S8 3.600894 1_545
Ba11 S15 3.600894 1_545
S0 Zn5 2.376330 1_555
S0 Zn0 2.376337 1_545
S0 Zn10 2.386162 1_545
S1 Zn1 2.376330 1_555
S1 Zn4 2.376337 1_565
S1 Zn11 2.386162 1_565
S2 Zn7 2.376324 1_555
S2 Zn2 2.376324 1_455
S2 Zn8 2.386162 1_555
S3 Zn6 2.376324 1_655
S3 Zn3 2.376324 1_555
S3 Zn9 2.386162 1_555
S4 Zn7 2.376324 1_555
S4 Zn2 2.376324 1_455
S4 Zn9 2.386162 1_455
S5 Zn6 2.376324 1_655
S5 Zn3 2.376324 1_555
S5 Zn8 2.386162 1_655
S6 Zn4 2.376330 1_565
S6 Zn1 2.376337 1_555
S6 Zn10 2.386162 1_555
S7 Zn0 2.376330 1_545
S7 Zn5 2.376337 1_555
S7 Zn11 2.386162 1_555
S8 Zn0 2.327742 1_555
S8 Zn9 2.395304 1_455
S9 Zn1 2.327742 1_555
S9 Zn8 2.395304 1_555
S10 Zn2 2.327742 1_555
S10 Zn11 2.395302 1_555
S11 Zn3 2.327742 1_555
S11 Zn10 2.395293 1_545
S12 Zn4 2.327742 1_555
S12 Zn8 2.395304 1_655
S13 Zn5 2.327742 1_555
S13 Zn9 2.395304 1_555
S14 Zn6 2.327742 1_555
S14 Zn10 2.395302 1_555
S15 Zn7 2.327742 1_555
S15 Zn11 2.395293 1_565
S16 Zr0 2.622717 1_555
S17 Zr0 2.622717 1_666
S18 Zr1 2.622717 1_555
S19 Zr1 2.622717 1_556
S20 Zr0 2.622717 1_565
S21 Zr0 2.622717 1_656
S22 Zr1 2.622717 1_555
S23 Zr1 2.622717 1_556
S24 Zr1 2.481256 1_555
S24 Zr0 2.481256 1_665
S25 Zr0 2.481256 1_555
S25 Zr1 2.481256 1_555
S26 Zn1 2.318632 1_555
S26 Zn7 2.318632 1_555
S26 Zn0 2.318632 1_555
S26 Zn6 2.318632 1_555
S27 Zn3 2.318632 1_555
S27 Zn5 2.318632 1_555
S27 Zn2 2.318632 1_555
S27 Zn4 2.318632 1_555
