# generated using pymatgen
data_La(TiAl10)2
_symmetry_space_group_name_H-M   'P 1'
_cell_length_a   10.34943910
_cell_length_b   10.34943825
_cell_length_c   10.34943686
_cell_angle_alpha   59.99991443
_cell_angle_beta   59.99993195
_cell_angle_gamma   59.99990844
_symmetry_Int_Tables_number   1
_chemical_formula_structural   La(TiAl10)2
_chemical_formula_sum   'La2 Ti4 Al40'
_cell_volume   783.85278849
_cell_formula_units_Z   2
loop_
 _symmetry_equiv_pos_site_id
 _symmetry_equiv_pos_as_xyz
  1  'x, y, z'
loop_
 _atom_site_type_symbol
 _atom_site_label
 _atom_site_symmetry_multiplicity
 _atom_site_fract_x
 _atom_site_fract_y
 _atom_site_fract_z
 _atom_site_occupancy
  La  La0  1  0.49999542  0.50000226  0.50000516  1
  La  La1  1  0.74999979  0.75000016  0.74999976  1
  Ti  Ti0  1  0.62500174  0.12499957  0.12499909  1
  Ti  Ti1  1  0.12499979  0.62500247  0.12499895  1
  Ti  Ti2  1  0.12499993  0.12499919  0.62500267  1
  Ti  Ti3  1  0.12499852  0.12499942  0.12499909  1
  Al  Al0  1  0.86225933  0.86225920  0.13774072  1
  Al  Al1  1  0.13774086  0.13774063  0.86225931  1
  Al  Al2  1  0.86225986  0.13774070  0.86225952  1
  Al  Al3  1  0.13774081  0.86225936  0.13774063  1
  Al  Al4  1  0.13774094  0.86225887  0.86225950  1
  Al  Al5  1  0.86225968  0.13774054  0.13774057  1
  Al  Al6  1  0.38779494  0.38779463  0.11220510  1
  Al  Al7  1  0.11220533  0.11220511  0.38779457  1
  Al  Al8  1  0.38779441  0.11220507  0.38779430  1
  Al  Al9  1  0.11220632  0.38779438  0.11220590  1
  Al  Al10  1  0.11220515  0.38779409  0.38779466  1
  Al  Al11  1  0.38779435  0.11220531  0.11220605  1
  Al  Al12  1  0.56901596  0.29893855  0.29893861  1
  Al  Al13  1  0.29893870  0.56901605  0.83310666  1
  Al  Al14  1  0.29893868  0.83310665  0.56901597  1
  Al  Al15  1  0.83310701  0.29893842  0.29893840  1
  Al  Al16  1  0.29893878  0.29893855  0.56901589  1
  Al  Al17  1  0.56901621  0.83310685  0.29893858  1
  Al  Al18  1  0.83310690  0.56901528  0.29893846  1
  Al  Al19  1  0.29893846  0.29893860  0.83310678  1
  Al  Al20  1  0.29893870  0.56901509  0.29893864  1
  Al  Al21  1  0.83310661  0.29893863  0.56901613  1
  Al  Al22  1  0.56901628  0.29893854  0.83310661  1
  Al  Al23  1  0.29893857  0.83310670  0.29893842  1
  Al  Al24  1  0.68087717  0.95108591  0.95108569  1
  Al  Al25  1  0.95108608  0.68087661  0.41695202  1
  Al  Al26  1  0.95108595  0.41695126  0.68087673  1
  Al  Al27  1  0.41695193  0.95108600  0.95108592  1
  Al  Al28  1  0.95108588  0.95108563  0.68087704  1
  Al  Al29  1  0.68087700  0.41695127  0.95108565  1
  Al  Al30  1  0.41695208  0.68087686  0.95108584  1
  Al  Al31  1  0.95108616  0.95108599  0.41695175  1
  Al  Al32  1  0.95108599  0.68087690  0.95108576  1
  Al  Al33  1  0.41695124  0.95108590  0.68087677  1
  Al  Al34  1  0.68087675  0.95108603  0.41695189  1
  Al  Al35  1  0.95108633  0.41695195  0.95108583  1
  Al  Al36  1  0.12499782  0.62500069  0.62500073  1
  Al  Al37  1  0.62500083  0.12499761  0.62500065  1
  Al  Al38  1  0.62500084  0.62500085  0.12499740  1
  Al  Al39  1  0.62500092  0.62500066  0.62500064  1
loop_
_geom_bond_atom_site_label_1
_geom_bond_atom_site_label_2
_geom_bond_distance
_geom_bond_site_symmetry_2
Al0 Ti1 2.594054 1_655
Al0 Ti0 2.594057 1_565
Al0 Al17 2.726548 1_555
Al0 Al18 2.726555 1_555
Al0 Al2 2.851073 1_564
Al0 Al4 2.851075 1_654
Al0 Al5 2.851078 1_565
Al0 Al3 2.851079 1_655
Al0 Al24 2.868010 1_554
Al0 Al32 2.868012 1_554
Al0 Al34 2.868016 1_555
Al0 Al25 2.868016 1_555
Al1 Ti2 2.594049 1_555
Al1 Ti3 2.594051 1_556
Al1 Al16 2.726550 1_555
Al1 Al19 2.726551 1_555
Al1 Al2 2.851072 1_455
Al1 Al3 2.851073 1_546
Al1 Al5 2.851073 1_456
Al1 Al4 2.851080 1_545
Al1 Al33 2.868008 1_545
Al1 Al26 2.868009 1_455
Al1 Al27 2.868013 1_545
Al1 Al35 2.868015 1_455
Al2 Ti2 2.594053 1_655
Al2 Ti0 2.594056 1_556
Al2 Al21 2.726553 1_555
Al2 Al22 2.726554 1_555
Al2 Al5 2.851072 1_556
Al2 Al4 2.851074 1_645
Al2 Al29 2.868007 1_555
Al2 Al26 2.868007 1_555
Al2 Al24 2.868016 1_545
Al2 Al28 2.868016 1_545
Al3 Ti3 2.594053 1_565
Al3 Ti1 2.594054 1_555
Al3 Al5 2.851071 1_465
Al3 Al4 2.851076 1_554
Al3 Al30 2.868011 1_554
Al3 Al31 2.868014 1_455
Al4 Ti1 2.594047 1_556
Al4 Ti2 2.594054 1_565
Al5 Ti3 2.594046 1_655
Al5 Ti0 2.594063 1_555
Al6 Ti0 2.594133 1_555
Al6 Ti1 2.594139 1_555
Al6 Al9 2.852185 1_555
Al6 Al8 2.852191 1_555
Al7 Ti3 2.594144 1_555
Al7 Ti2 2.594152 1_555
Al7 Al9 2.852187 1_555
Al7 Al8 2.852191 1_555
Al8 Ti0 2.594137 1_555
Al8 Ti2 2.594138 1_555
Al9 Ti1 2.594140 1_555
Al9 Ti3 2.594149 1_555
Al10 Ti2 2.594138 1_555
Al10 Ti1 2.594144 1_555
Al10 Al26 2.725128 1_455
Al10 Al25 2.725133 1_455
Al10 Al9 2.852181 1_555
Al10 Al8 2.852189 1_555
Al10 Al7 2.852191 1_555
Al10 Al6 2.852195 1_555
Al10 Al21 2.867200 1_455
Al10 Al18 2.867200 1_455
Al10 Al20 2.867204 1_555
Al10 Al16 2.867208 1_555
Al11 Ti0 2.594138 1_555
Al11 Ti3 2.594150 1_555
Al11 Al27 2.725130 1_544
Al11 Al24 2.725133 1_544
Al11 Al8 2.852182 1_555
Al11 Al9 2.852183 1_555
Al11 Al7 2.852186 1_555
Al11 Al6 2.852193 1_555
Al11 Al17 2.867199 1_545
Al11 Al23 2.867201 1_545
Al11 Al19 2.867207 1_554
Al11 Al22 2.867207 1_554
Al12 Al5 2.726552 1_555
Al12 Al15 2.733192 1_555
Al12 Al20 2.795140 1_555
Al12 Al16 2.795145 1_555
Al12 Ti0 2.823382 1_555
Al12 Al6 2.867203 1_555
Al12 Al8 2.867210 1_555
Al12 Al34 2.939677 1_545
Al12 Al29 2.939681 1_554
Al12 Al37 3.130718 1_555
Al12 Al38 3.130721 1_555
Al12 La0 3.244680 1_555
Al13 Al4 2.726547 1_555
Al13 Al14 2.733186 1_555
Al13 Al22 2.795147 1_555
Al13 Al19 2.795151 1_555
Al13 Ti1 2.823379 1_556
Al13 Al9 2.867201 1_556
Al13 Al6 2.867202 1_556
Al13 Al32 2.939679 1_455
Al13 Al30 2.939689 1_555
Al13 Al39 3.130719 1_555
Al13 Al36 3.130721 1_555
Al13 La0 3.244574 1_555
Al14 Al4 2.726551 1_555
Al14 Al17 2.795147 1_555
Al14 Al23 2.795151 1_555
Al14 Ti2 2.823382 1_565
Al14 Al8 2.867200 1_565
Al14 Al7 2.867201 1_565
Al14 Al28 2.939680 1_455
Al14 Al33 2.939683 1_555
Al14 Al39 3.130719 1_555
Al14 Al36 3.130721 1_555
Al14 La0 3.244586 1_555
Al15 Al5 2.726551 1_555
Al15 Al18 2.795144 1_555
Al15 Al21 2.795151 1_555
Al15 Ti3 2.823372 1_655
Al15 Al7 2.867200 1_655
Al15 Al9 2.867209 1_655
Al15 Al31 2.939676 1_545
Al15 Al35 2.939677 1_554
Al15 Al37 3.130719 1_555
Al15 Al38 3.130719 1_555
Al15 La0 3.244685 1_555
Al16 Al19 2.733191 1_555
Al16 Al20 2.795140 1_555
Al16 Ti2 2.823376 1_555
Al16 Al8 2.867210 1_555
Al16 Al33 2.939678 1_545
Al16 Al26 2.939680 1_455
Al16 Al37 3.130718 1_555
Al16 Al36 3.130719 1_555
Al16 La0 3.244636 1_555
Al17 Al18 2.733191 1_555
Al17 Al23 2.795154 1_555
Al17 Ti0 2.823379 1_565
Al17 Al8 2.867198 1_565
Al17 Al24 2.939680 1_554
Al17 Al34 2.939686 1_555
Al17 Al39 3.130717 1_555
Al17 Al38 3.130724 1_555
Al17 La0 3.244633 1_555
Al18 Al21 2.795143 1_555
Al18 Ti1 2.823388 1_655
Al18 Al9 2.867198 1_655
Al18 Al32 2.939678 1_554
Al18 Al25 2.939695 1_555
Al18 Al38 3.130719 1_555
Al18 Al39 3.130721 1_555
Al18 La0 3.244660 1_555
Al19 Al22 2.795153 1_555
Al19 Ti3 2.823380 1_556
Al19 Al9 2.867206 1_556
Al19 Al35 2.939674 1_455
Al19 Al27 2.939677 1_545
Al19 Al36 3.130715 1_555
Al19 Al37 3.130719 1_555
Al19 La0 3.244598 1_555
Al20 Al3 2.726553 1_555
Al20 Al23 2.733198 1_555
Al20 Ti1 2.823376 1_555
Al20 Al6 2.867198 1_555
Al20 Al25 2.939678 1_455
Al20 Al30 2.939679 1_554
Al20 Al36 3.130722 1_555
Al20 Al38 3.130724 1_555
Al20 La0 3.244651 1_555
Al21 Al22 2.733184 1_555
Al21 Ti2 2.823388 1_655
Al21 Al7 2.867204 1_655
Al21 Al28 2.939681 1_545
Al21 Al26 2.939682 1_555
Al21 Al39 3.130716 1_555
Al21 Al37 3.130722 1_555
Al21 La0 3.244647 1_555
Al22 Ti0 2.823376 1_556
Al22 Al6 2.867202 1_556
Al22 Al24 2.939678 1_545
Al22 Al29 2.939682 1_555
Al22 Al39 3.130718 1_555
Al22 Al37 3.130722 1_555
Al22 La0 3.244605 1_555
Al23 Al3 2.726549 1_555
Al23 Ti3 2.823382 1_565
Al23 Al7 2.867201 1_565
Al23 Al31 2.939677 1_455
Al23 Al27 2.939677 1_554
Al23 Al36 3.130718 1_555
Al23 Al38 3.130718 1_555
Al23 La0 3.244622 1_555
Al24 Al27 2.731477 1_555
Al24 Al28 2.796505 1_555
Al24 Al32 2.796507 1_555
Al24 Ti0 2.823422 1_566
Al24 Al37 3.130455 1_565
Al24 Al38 3.130456 1_556
Al24 La1 3.244600 1_555
Al25 Al26 2.731472 1_555
Al25 Al34 2.796511 1_555
Al25 Al31 2.796514 1_555
Al25 Ti1 2.823426 1_655
Al25 Al3 2.868013 1_655
Al25 Al36 3.130451 1_655
Al25 Al39 3.130455 1_555
Al25 La1 3.244590 1_555
Al26 Al29 2.796508 1_555
Al26 Al35 2.796518 1_555
Al26 Ti2 2.823417 1_655
Al26 Al39 3.130453 1_555
Al26 Al36 3.130459 1_655
Al26 La1 3.244597 1_555
Al27 Al30 2.796512 1_555
Al27 Al33 2.796517 1_555
Al27 Ti3 2.823424 1_566
Al27 Al3 2.868015 1_556
Al27 Al38 3.130449 1_556
Al27 Al37 3.130451 1_565
Al27 La1 3.244592 1_555
Al28 Al7 2.725128 1_665
Al28 Al31 2.731475 1_555
Al28 Al32 2.796505 1_555
Al28 Ti2 2.823432 1_665
Al28 Al4 2.868013 1_655
Al28 Al36 3.130454 1_655
Al28 Al37 3.130455 1_565
Al28 La1 3.244599 1_555
Al29 Al6 2.725127 1_556
Al29 Al30 2.731474 1_555
Al29 Al35 2.796519 1_555
Al29 Ti0 2.823419 1_556
Al29 Al5 2.868010 1_556
Al29 Al39 3.130453 1_555
Al29 Al38 3.130458 1_556
Al29 La1 3.244597 1_555
Al30 Al6 2.725129 1_556
Al30 Al33 2.796508 1_555
Al30 Ti1 2.823421 1_556
Al30 Al4 2.868012 1_555
Al30 Al38 3.130450 1_556
Al30 Al39 3.130455 1_555
Al30 La1 3.244589 1_555
Al31 Al7 2.725123 1_665
Al31 Al34 2.796515 1_555
Al31 Ti3 2.823417 1_665
Al31 Al5 2.868013 1_565
Al31 Al36 3.130451 1_655
Al31 Al37 3.130452 1_565
Al31 La1 3.244594 1_555
Al32 Al9 2.725133 1_656
Al32 Al35 2.731473 1_555
Al32 Ti1 2.823425 1_656
Al32 Al4 2.868011 1_655
Al32 Al36 3.130455 1_655
Al32 Al38 3.130456 1_556
Al32 La1 3.244601 1_555
Al33 Al8 2.725130 1_565
Al33 Al34 2.731475 1_555
Al33 Ti2 2.823410 1_565
Al33 Al4 2.868010 1_555
Al33 Al39 3.130456 1_555
Al33 Al37 3.130459 1_565
Al33 La1 3.244594 1_555
Al34 Al8 2.725132 1_565
Al34 Ti0 2.823427 1_565
Al34 Al5 2.868012 1_565
Al34 Al37 3.130451 1_565
Al34 Al39 3.130455 1_555
Al34 La1 3.244588 1_555
Al35 Al9 2.725136 1_656
Al35 Ti3 2.823414 1_656
Al35 Al5 2.868017 1_556
Al35 Al36 3.130449 1_655
Al35 Al38 3.130452 1_556
Al35 La1 3.244595 1_555
Al36 La0 3.168832 1_555
Al36 La1 3.168836 1_455
Al37 La1 3.168830 1_545
Al37 La0 3.168891 1_555
Al38 La1 3.168832 1_554
Al38 La0 3.168918 1_555
Al39 La1 3.168836 1_555
Al39 La0 3.168852 1_555
