# generated using pymatgen
data_Bi2(NCl3)3
_symmetry_space_group_name_H-M   'P 1'
_cell_length_a   19.09881700
_cell_length_b   7.42308600
_cell_length_c   12.48644300
_cell_angle_alpha   90.00000000
_cell_angle_beta   90.00000000
_cell_angle_gamma   90.00000000
_symmetry_Int_Tables_number   1
_chemical_formula_structural   Bi2(NCl3)3
_chemical_formula_sum   'Bi8 N12 Cl36'
_cell_volume   1770.23000843
_cell_formula_units_Z   4
loop_
 _symmetry_equiv_pos_site_id
 _symmetry_equiv_pos_as_xyz
  1  'x, y, z'
loop_
 _atom_site_type_symbol
 _atom_site_label
 _atom_site_symmetry_multiplicity
 _atom_site_fract_x
 _atom_site_fract_y
 _atom_site_fract_z
 _atom_site_occupancy
  Bi  Bi0  1  0.50570900  0.25000000  0.72992600  1
  Bi  Bi1  1  0.00570900  0.25000000  0.77007400  1
  Bi  Bi2  1  0.49429100  0.75000000  0.27007400  1
  Bi  Bi3  1  0.99429100  0.75000000  0.22992600  1
  Bi  Bi4  1  0.32919200  0.25000000  0.06915600  1
  Bi  Bi5  1  0.82919200  0.25000000  0.43084400  1
  Bi  Bi6  1  0.67080800  0.75000000  0.93084400  1
  Bi  Bi7  1  0.17080800  0.75000000  0.56915600  1
  N  N0  1  0.59617500  0.25000000  0.10516200  1
  N  N1  1  0.09617500  0.25000000  0.39483800  1
  N  N2  1  0.40382500  0.75000000  0.89483800  1
  N  N3  1  0.90382500  0.75000000  0.60516200  1
  N  N4  1  0.75975200  0.25000000  0.72498800  1
  N  N5  1  0.25975200  0.25000000  0.77501200  1
  N  N6  1  0.24024800  0.75000000  0.27501200  1
  N  N7  1  0.74024800  0.75000000  0.22498800  1
  N  N8  1  0.90427600  0.25000000  0.05448200  1
  N  N9  1  0.40427600  0.25000000  0.44551800  1
  N  N10  1  0.09572400  0.75000000  0.94551800  1
  N  N11  1  0.59572400  0.75000000  0.55448200  1
  Cl  Cl0  1  0.43868400  0.25000000  0.92216600  1
  Cl  Cl1  1  0.93868400  0.25000000  0.57783400  1
  Cl  Cl2  1  0.56131600  0.75000000  0.07783400  1
  Cl  Cl3  1  0.06131600  0.75000000  0.42216600  1
  Cl  Cl4  1  0.24758400  0.25000000  0.22474500  1
  Cl  Cl5  1  0.74758400  0.25000000  0.27525500  1
  Cl  Cl6  1  0.75241600  0.75000000  0.77525500  1
  Cl  Cl7  1  0.25241600  0.75000000  0.72474500  1
  Cl  Cl8  1  0.58572000  0.25000000  0.57292500  1
  Cl  Cl9  1  0.08572000  0.25000000  0.92707500  1
  Cl  Cl10  1  0.41428000  0.75000000  0.42707500  1
  Cl  Cl11  1  0.91428000  0.75000000  0.07292500  1
  Cl  Cl12  1  0.43088500  0.50031400  0.66542200  1
  Cl  Cl13  1  0.93088500  0.99968600  0.83457800  1
  Cl  Cl14  1  0.56911500  0.00031400  0.33457800  1
  Cl  Cl15  1  0.06911500  0.49968600  0.16542200  1
  Cl  Cl16  1  0.56911500  0.49968600  0.33457800  1
  Cl  Cl17  1  0.06911500  0.00031400  0.16542200  1
  Cl  Cl18  1  0.43088500  0.99968600  0.66542200  1
  Cl  Cl19  1  0.93088500  0.50031400  0.83457800  1
  Cl  Cl20  1  0.26899400  0.00086200  0.97152800  1
  Cl  Cl21  1  0.76899400  0.49913800  0.52847200  1
  Cl  Cl22  1  0.73100600  0.50086200  0.02847200  1
  Cl  Cl23  1  0.23100600  0.99913800  0.47152800  1
  Cl  Cl24  1  0.73100600  0.99913800  0.02847200  1
  Cl  Cl25  1  0.23100600  0.50086200  0.47152800  1
  Cl  Cl26  1  0.26899400  0.49913800  0.97152800  1
  Cl  Cl27  1  0.76899400  0.00086200  0.52847200  1
  Cl  Cl28  1  0.58962900  0.00285900  0.82493100  1
  Cl  Cl29  1  0.08962900  0.49714100  0.67506900  1
  Cl  Cl30  1  0.41037100  0.50285900  0.17506900  1
  Cl  Cl31  1  0.91037100  0.99714100  0.32493100  1
  Cl  Cl32  1  0.41037100  0.99714100  0.17506900  1
  Cl  Cl33  1  0.91037100  0.50285900  0.32493100  1
  Cl  Cl34  1  0.58962900  0.49714100  0.82493100  1
  Cl  Cl35  1  0.08962900  0.00285900  0.67506900  1
loop_
_geom_bond_atom_site_label_1
_geom_bond_atom_site_label_2
_geom_bond_distance
_geom_bond_site_symmetry_2
Bi0 Cl12 2.478596 1_555
Bi0 Cl18 2.478596 1_545
Bi0 Cl8 2.485607 1_555
Bi0 Cl28 2.709557 1_555
Bi0 Cl34 2.709557 1_555
Bi0 Cl0 2.720394 1_555
Bi1 Cl13 2.478596 1_445
Bi1 Cl19 2.478596 1_455
Bi1 Cl9 2.485607 1_555
Bi1 Cl29 2.709557 1_555
Bi1 Cl35 2.709557 1_555
Bi1 Cl1 2.720394 1_455
Bi2 Cl14 2.478596 1_565
Bi2 Cl16 2.478596 1_555
Bi2 Cl10 2.485607 1_555
Bi2 Cl32 2.709557 1_555
Bi2 Cl30 2.709557 1_555
Bi2 Cl2 2.720394 1_555
Bi3 Cl17 2.478596 1_665
Bi3 Cl15 2.478596 1_655
Bi3 Cl11 2.485607 1_555
Bi3 Cl33 2.709557 1_555
Bi3 Cl31 2.709557 1_555
Bi3 Cl3 2.720394 1_655
Bi4 Cl4 2.490698 1_555
Bi4 Cl20 2.495604 1_554
Bi4 Cl26 2.495604 1_554
Bi4 Cl32 2.770535 1_545
Bi4 Cl30 2.770535 1_555
Bi4 Cl0 2.782375 1_554
Bi5 Cl5 2.490698 1_555
Bi5 Cl27 2.495604 1_555
Bi5 Cl21 2.495604 1_555
Bi5 Cl33 2.770535 1_555
Bi5 Cl31 2.770535 1_545
Bi5 Cl1 2.782375 1_555
Bi6 Cl6 2.490698 1_555
Bi6 Cl24 2.495604 1_556
Bi6 Cl22 2.495604 1_556
Bi6 Cl34 2.770535 1_555
Bi6 Cl28 2.770535 1_565
Bi6 Cl2 2.782375 1_556
Bi7 Cl7 2.490698 1_555
Bi7 Cl25 2.495604 1_555
Bi7 Cl23 2.495604 1_555
Bi7 Cl35 2.770535 1_565
Bi7 Cl29 2.770535 1_555
Bi7 Cl3 2.782375 1_555
