# generated using pymatgen
data_K2RbTmV2O8
_symmetry_space_group_name_H-M   'P 1'
_cell_length_a   5.97245546
_cell_length_b   5.97245546
_cell_length_c   7.81178000
_cell_angle_alpha   90.00000000
_cell_angle_beta   90.00000000
_cell_angle_gamma   119.99999406
_symmetry_Int_Tables_number   1
_chemical_formula_structural   K2RbTmV2O8
_chemical_formula_sum   'K2 Rb1 Tm1 V2 O8'
_cell_volume   241.31621312
_cell_formula_units_Z   1
loop_
 _symmetry_equiv_pos_site_id
 _symmetry_equiv_pos_as_xyz
  1  'x, y, z'
loop_
 _atom_site_type_symbol
 _atom_site_label
 _atom_site_symmetry_multiplicity
 _atom_site_fract_x
 _atom_site_fract_y
 _atom_site_fract_z
 _atom_site_occupancy
  K  K0  1  0.33333300  0.66666700  0.70251000  1
  K  K1  1  0.66666700  0.33333300  0.29749000  1
  Rb  Rb0  1  0.00000000  0.00000000  0.00000000  1
  Tm  Tm0  1  0.00000000  0.00000000  0.50000000  1
  V  V0  1  0.33333300  0.66666700  0.25400700  1
  V  V1  1  0.66666700  0.33333300  0.74599300  1
  O  O0  1  0.33333300  0.66666700  0.03808300  1
  O  O1  1  0.66666700  0.33333300  0.96191700  1
  O  O2  1  0.17260500  0.82739500  0.32998500  1
  O  O3  1  0.82739500  0.17260500  0.67001500  1
  O  O4  1  0.17260500  0.34521000  0.32998500  1
  O  O5  1  0.82739500  0.65479000  0.67001500  1
  O  O6  1  0.65479000  0.82739500  0.32998500  1
  O  O7  1  0.34521000  0.17260500  0.67001500  1
loop_
_geom_bond_atom_site_label_1
_geom_bond_atom_site_label_2
_geom_bond_distance
_geom_bond_site_symmetry_2
K0 O0 2.621422 1_556
K0 O7 2.997624 1_565
K0 O5 2.997624 1_455
K0 O3 2.997627 1_565
K0 O3 2.997627 1_455
K0 O7 2.997630 1_555
K0 O5 2.997630 1_555
K1 O1 2.621422 1_554
K1 O4 2.997624 1_655
K1 O6 2.997624 1_545
K1 O2 2.997627 1_655
K1 O2 2.997627 1_545
K1 O6 2.997630 1_555
K1 O4 2.997630 1_555
O0 V0 1.686751 1_555
O0 Rb0 3.461005 1_565
O0 Rb0 3.461010 1_555
O0 Rb0 3.461010 1_665
O1 V1 1.686751 1_555
O1 Rb0 3.461005 1_656
O1 Rb0 3.461010 1_666
O1 Rb0 3.461010 1_556
O2 V0 1.765426 1_555
O2 Tm0 2.225313 1_565
O2 Rb0 3.135764 1_565
O3 V1 1.765426 1_555
O3 Tm0 2.225313 1_655
O3 Rb0 3.135764 1_656
O4 V0 1.765431 1_555
O4 Tm0 2.225313 1_555
O4 Rb0 3.135764 1_555
O5 V1 1.765431 1_555
O5 Tm0 2.225313 1_665
O5 Rb0 3.135764 1_666
O6 V0 1.765431 1_555
O6 Tm0 2.225313 1_665
O6 Rb0 3.135764 1_665
O7 V1 1.765431 1_555
O7 Tm0 2.225313 1_555
O7 Rb0 3.135764 1_556
