# generated using pymatgen
data_Mg14NbB
_symmetry_space_group_name_H-M   'P 1'
_cell_length_a   6.20964747
_cell_length_b   6.20964698
_cell_length_c   9.90477856
_cell_angle_alpha   90.00000000
_cell_angle_beta   90.00000000
_cell_angle_gamma   120.00000253
_symmetry_Int_Tables_number   1
_chemical_formula_structural   Mg14NbB
_chemical_formula_sum   'Mg14 Nb1 B1'
_cell_volume   330.75715521
_cell_formula_units_Z   1
loop_
 _symmetry_equiv_pos_site_id
 _symmetry_equiv_pos_as_xyz
  1  'x, y, z'
loop_
 _atom_site_type_symbol
 _atom_site_label
 _atom_site_symmetry_multiplicity
 _atom_site_fract_x
 _atom_site_fract_y
 _atom_site_fract_z
 _atom_site_occupancy
  Mg  Mg0  1  0.17365688  0.83682794  0.12500000  1
  Mg  Mg1  1  0.16378816  0.83189358  0.62500000  1
  Mg  Mg2  1  0.66317206  0.32634312  0.12500000  1
  Mg  Mg3  1  0.66810642  0.33621184  0.62500000  1
  Mg  Mg4  1  0.66317206  0.83682794  0.12500000  1
  Mg  Mg5  1  0.66810642  0.83189358  0.62500000  1
  Mg  Mg6  1  0.32334715  0.17665285  0.38190253  1
  Mg  Mg7  1  0.32334715  0.17665285  0.86809747  1
  Mg  Mg8  1  0.32334715  0.64669531  0.38190253  1
  Mg  Mg9  1  0.32334715  0.64669531  0.86809747  1
  Mg  Mg10  1  0.85330469  0.17665285  0.38190253  1
  Mg  Mg11  1  0.85330469  0.17665285  0.86809747  1
  Mg  Mg12  1  0.83333300  0.66666700  0.36792769  1
  Mg  Mg13  1  0.83333300  0.66666700  0.88207231  1
  Nb  Nb0  1  0.16666700  0.33333300  0.12500000  1
  B  B0  1  0.16666700  0.33333300  0.62500000  1
loop_
_geom_bond_atom_site_label_1
_geom_bond_atom_site_label_2
_geom_bond_distance
_geom_bond_site_symmetry_2
Mg0 Mg13 3.023083 1_454
Mg0 Mg12 3.023083 1_455
Mg0 Mg2 3.039716 1_565
Mg0 Mg4 3.039717 1_555
Mg0 Nb0 3.105051 1_555
Mg0 Nb0 3.105051 1_565
Mg0 Mg9 3.135317 1_554
Mg0 Mg8 3.135317 1_555
Mg0 Mg7 3.135323 1_564
Mg0 Mg6 3.135323 1_565
Mg0 Mg2 3.169931 1_455
Mg0 Mg4 3.169931 1_455
Mg1 Mg8 3.039951 1_555
Mg1 Mg9 3.039951 1_555
Mg1 Mg6 3.039958 1_565
Mg1 Mg7 3.039958 1_565
Mg1 Mg13 3.105063 1_455
Mg1 Mg12 3.105063 1_455
Mg2 Mg4 3.039716 1_545
Mg2 Nb0 3.105051 1_555
Mg2 Nb0 3.105051 1_655
Mg2 Mg7 3.135323 1_554
Mg2 Mg6 3.135323 1_555
Mg2 Mg4 3.169931 1_555
Mg3 Mg6 3.039958 1_555
Mg3 Mg7 3.039958 1_555
Mg4 Nb0 3.105051 1_555
Mg4 Nb0 3.105051 1_665
Mg4 Mg8 3.135323 1_555
Mg4 Mg9 3.135323 1_554
Mg5 Mg8 3.039957 1_555
Mg5 Mg9 3.039957 1_555
Mg6 Mg8 2.918798 1_555
Mg6 Nb0 3.051978 1_555
Mg6 Mg8 3.290849 1_545
Mg7 Mg9 2.918798 1_555
Mg7 Nb0 3.051978 1_556
Mg7 Mg9 3.290849 1_545
Mg8 Nb0 3.051984 1_555
Mg9 Nb0 3.051984 1_556
Mg10 Mg8 2.918798 1_655
Mg10 Mg6 2.918798 1_655
Mg10 Mg3 3.039951 1_555
Mg10 Mg5 3.039957 1_545
Mg10 Nb0 3.051984 1_655
Mg10 Mg12 3.109763 1_555
Mg10 Mg12 3.109763 1_545
Mg10 Mg2 3.135317 1_555
Mg10 Mg4 3.135323 1_545
Mg10 Mg8 3.290849 1_545
Mg10 Mg6 3.290849 1_555
Mg11 Mg9 2.918798 1_655
Mg11 Mg7 2.918798 1_655
Mg11 Mg3 3.039951 1_555
Mg11 Mg5 3.039957 1_545
Mg11 Nb0 3.051984 1_656
Mg11 Mg13 3.109763 1_555
Mg11 Mg13 3.109763 1_545
Mg11 Mg2 3.135317 1_556
Mg11 Mg4 3.135323 1_546
Mg11 Mg9 3.290849 1_545
Mg11 Mg7 3.290849 1_555
Mg12 Mg4 3.023077 1_555
Mg12 Mg2 3.023083 1_555
Mg12 Mg5 3.105057 1_555
Mg12 Mg3 3.105063 1_555
Mg12 Mg6 3.109763 1_665
Mg12 Mg6 3.109763 1_555
Mg12 Mg8 3.109763 1_655
Mg12 Mg8 3.109763 1_555
Mg13 Mg4 3.023077 1_556
Mg13 Mg2 3.023083 1_556
Mg13 Mg5 3.105057 1_555
Mg13 Mg3 3.105063 1_555
Mg13 Mg7 3.109763 1_665
Mg13 Mg7 3.109763 1_555
Mg13 Mg9 3.109763 1_655
Mg13 Mg9 3.109763 1_555
B0 Mg6 2.938945 1_555
B0 Mg7 2.938945 1_555
B0 Mg8 2.938951 1_555
B0 Mg9 2.938951 1_555
B0 Mg10 2.938951 1_455
B0 Mg11 2.938951 1_455
