# generated using pymatgen
data_Y(VCo5)2
_symmetry_space_group_name_H-M   'P 1'
_cell_length_a   4.65253600
_cell_length_b   6.32271419
_cell_length_c   6.32271419
_cell_angle_alpha   97.67130832
_cell_angle_beta   111.58753177
_cell_angle_gamma   68.41246823
_symmetry_Int_Tables_number   1
_chemical_formula_structural   Y(VCo5)2
_chemical_formula_sum   'Y1 V2 Co10'
_cell_volume   160.81544229
_cell_formula_units_Z   1
loop_
 _symmetry_equiv_pos_site_id
 _symmetry_equiv_pos_as_xyz
  1  'x, y, z'
loop_
 _atom_site_type_symbol
 _atom_site_label
 _atom_site_symmetry_multiplicity
 _atom_site_fract_x
 _atom_site_fract_y
 _atom_site_fract_z
 _atom_site_occupancy
  Y  Y0  1  0.00000000  0.00000000  0.00000000  1
  V  V0  1  0.00000000  0.36182700  0.36182700  1
  V  V1  1  0.00000000  0.63817300  0.63817300  1
  Co  Co0  1  0.71901100  0.78098900  0.21901100  1
  Co  Co1  1  0.28098900  0.21901100  0.78098900  1
  Co  Co2  1  0.50000000  0.77798100  0.77798100  1
  Co  Co3  1  0.50000000  0.22201900  0.22201900  1
  Co  Co4  1  0.50000000  0.00000000  0.50000000  1
  Co  Co5  1  0.00000000  0.00000000  0.50000000  1
  Co  Co6  1  0.50000000  0.50000000  0.00000000  1
  Co  Co7  1  0.00000000  0.50000000  0.00000000  1
  Co  Co8  1  0.64030900  0.35969100  0.64030900  1
  Co  Co9  1  0.35969100  0.64030900  0.35969100  1
loop_
_geom_bond_atom_site_label_1
_geom_bond_atom_site_label_2
_geom_bond_distance
_geom_bond_site_symmetry_2
V0 V1 2.300163 1_555
V0 Y0 3.011663 1_555
V1 Y0 3.011663 1_566
Co0 Co6 2.397739 1_555
Co0 Co4 2.397739 1_565
Co0 Co7 2.397739 1_655
Co0 Co5 2.397739 1_665
Co0 Co2 2.593010 1_554
Co0 Co3 2.593010 1_565
Co0 V0 2.601733 1_655
Co0 V1 2.601733 1_655
Co0 Co9 2.603210 1_555
Co0 Co9 2.603210 1_655
Co0 Y0 2.953002 1_665
Co0 Y0 2.953002 1_565
Co1 Co4 2.397739 1_555
Co1 Co6 2.397739 1_556
Co1 Co5 2.397739 1_555
Co1 Co7 2.397739 1_556
Co1 Co2 2.593010 1_545
Co1 Co3 2.593010 1_556
Co1 V0 2.601733 1_555
Co1 V1 2.601733 1_555
Co1 Co8 2.603210 1_555
Co1 Co8 2.603210 1_455
Co1 Y0 2.953002 1_556
Co1 Y0 2.953002 1_656
Co2 Co6 2.391316 1_556
Co2 Co4 2.391316 1_565
Co2 Co5 2.391317 1_565
Co2 Co7 2.391317 1_656
Co2 Co8 2.590662 1_555
Co2 Co9 2.590662 1_555
Co2 V1 2.601095 1_555
Co2 V1 2.601095 1_655
Co2 Y0 2.970947 1_566
Co2 Y0 2.970947 1_666
Co3 Co6 2.391316 1_555
Co3 Co4 2.391316 1_555
Co3 Co5 2.391317 1_655
Co3 Co7 2.391317 1_555
Co3 Co9 2.590662 1_555
Co3 Co8 2.590662 1_555
Co3 V0 2.601095 1_655
Co3 V0 2.601095 1_555
Co3 Y0 2.970947 1_655
Co3 Y0 2.970947 1_555
Co4 Co5 2.326268 1_555
Co4 Co5 2.326268 1_655
Co4 Co8 2.552036 1_555
Co4 Co9 2.552036 1_545
Co4 V1 2.555489 1_645
Co4 V0 2.555489 1_555
Co4 Y0 3.161357 1_555
Co4 Y0 3.161357 1_656
Co5 Co9 2.552036 1_545
Co5 Co8 2.552036 1_455
Co5 V0 2.555489 1_555
Co5 V1 2.555489 1_545
Co5 Y0 3.161357 1_555
Co5 Y0 3.161357 1_556
Co6 Co7 2.326268 1_555
Co6 Co7 2.326268 1_655
Co6 Co8 2.552036 1_554
Co6 Co9 2.552036 1_555
Co6 V1 2.555489 1_554
Co6 V0 2.555489 1_655
Co6 Y0 3.161357 1_565
Co6 Y0 3.161357 1_655
Co7 Co8 2.552036 1_454
Co7 Co9 2.552036 1_555
Co7 V1 2.555489 1_554
Co7 V0 2.555489 1_555
Co7 Y0 3.161357 1_555
Co7 Y0 3.161357 1_565
Co8 Co9 2.330656 1_555
Co8 V0 2.844679 1_655
Co8 V1 2.844679 1_655
Co8 V0 2.844679 1_555
Co8 V1 2.844679 1_555
Co8 Y0 2.987392 1_656
Co9 V1 2.844679 1_555
Co9 V0 2.844679 1_555
Co9 V0 2.844679 1_655
Co9 V1 2.844679 1_655
Co9 Y0 2.987392 1_565
