# generated using pymatgen
data_Sr2Ca2Mn3FeO10
_symmetry_space_group_name_H-M   'P 1'
_cell_length_a   11.00055774
_cell_length_b   11.10752520
_cell_length_c   17.70865457
_cell_angle_alpha   108.29452272
_cell_angle_beta   108.19119350
_cell_angle_gamma   90.00578108
_symmetry_Int_Tables_number   1
_chemical_formula_structural   Sr2Ca2Mn3FeO10
_chemical_formula_sum   'Sr16 Ca16 Mn24 Fe8 O80'
_cell_volume   1940.17672462
_cell_formula_units_Z   8
loop_
 _symmetry_equiv_pos_site_id
 _symmetry_equiv_pos_as_xyz
  1  'x, y, z'
loop_
 _atom_site_type_symbol
 _atom_site_label
 _atom_site_symmetry_multiplicity
 _atom_site_fract_x
 _atom_site_fract_y
 _atom_site_fract_z
 _atom_site_occupancy
  Sr  Sr0  1  0.30995900  0.55907400  0.61146900  1
  Sr  Sr1  1  0.80784000  0.05692900  0.60935600  1
  Sr  Sr2  1  0.81065400  0.55820000  0.61118800  1
  Sr  Sr3  1  0.19604500  0.43984100  0.38602300  1
  Sr  Sr4  1  0.20035200  0.44364600  0.89344800  1
  Sr  Sr5  1  0.69707200  0.44010600  0.38601100  1
  Sr  Sr6  1  0.69873200  0.93841800  0.38631600  1
  Sr  Sr7  1  0.70074700  0.94186100  0.89287100  1
  Sr  Sr8  1  0.06037800  0.30069300  0.61051900  1
  Sr  Sr9  1  0.06015500  0.80286000  0.61052200  1
  Sr  Sr10  1  0.55930600  0.30305500  0.61078000  1
  Sr  Sr11  1  0.55934900  0.80148000  0.61029000  1
  Sr  Sr12  1  0.44630300  0.19680100  0.38654300  1
  Sr  Sr13  1  0.45178400  0.19972000  0.89125700  1
  Sr  Sr14  1  0.94705900  0.19500000  0.38608000  1
  Sr  Sr15  1  0.94867500  0.20026300  0.89217200  1
  Ca  Ca0  1  0.30429800  0.06182400  0.10544000  1
  Ca  Ca1  1  0.30601400  0.05878400  0.60473600  1
  Ca  Ca2  1  0.30630700  0.56522400  0.10710700  1
  Ca  Ca3  1  0.80318600  0.06293000  0.10482900  1
  Ca  Ca4  1  0.80687000  0.56264600  0.10643100  1
  Ca  Ca5  1  0.19987500  0.93627900  0.39194900  1
  Ca  Ca6  1  0.20276200  0.93761700  0.89787400  1
  Ca  Ca7  1  0.70335900  0.44093500  0.89866900  1
  Ca  Ca8  1  0.05325700  0.29217200  0.10564900  1
  Ca  Ca9  1  0.05571200  0.79238800  0.10620500  1
  Ca  Ca10  1  0.55397600  0.29203300  0.10409200  1
  Ca  Ca11  1  0.55481100  0.79179900  0.10406700  1
  Ca  Ca12  1  0.44871800  0.70307000  0.39237300  1
  Ca  Ca13  1  0.45052400  0.70793800  0.89727500  1
  Ca  Ca14  1  0.95016400  0.70489600  0.39190000  1
  Ca  Ca15  1  0.95141300  0.70883700  0.89865500  1
  Mn  Mn0  1  0.00453600  0.99881900  0.49838500  1
  Mn  Mn1  1  0.00192100  0.49927900  0.49749000  1
  Mn  Mn2  1  0.50179300  0.49889700  0.49714900  1
  Mn  Mn3  1  0.25744900  0.25155400  0.00341900  1
  Mn  Mn4  1  0.25232100  0.24806900  0.49777200  1
  Mn  Mn5  1  0.25228100  0.74883700  0.49758600  1
  Mn  Mn6  1  0.75288400  0.24954600  0.49864600  1
  Mn  Mn7  1  0.75258100  0.74716800  0.49674200  1
  Mn  Mn8  1  0.10616900  0.08848500  0.24439800  1
  Mn  Mn9  1  0.11851500  0.09436200  0.75628300  1
  Mn  Mn10  1  0.10557500  0.59982100  0.24545600  1
  Mn  Mn11  1  0.11412500  0.60457600  0.75582100  1
  Mn  Mn12  1  0.60443900  0.08869800  0.24248700  1
  Mn  Mn13  1  0.60865900  0.10066700  0.74978200  1
  Mn  Mn14  1  0.60524400  0.59464200  0.24452100  1
  Mn  Mn15  1  0.61324800  0.59780400  0.75745900  1
  Mn  Mn16  1  0.35317900  0.40718800  0.24270900  1
  Mn  Mn17  1  0.36593600  0.40594300  0.75503800  1
  Mn  Mn18  1  0.35338500  0.89709200  0.24702700  1
  Mn  Mn19  1  0.36035000  0.90356600  0.75344700  1
  Mn  Mn20  1  0.85581600  0.40644100  0.24474200  1
  Mn  Mn21  1  0.86069800  0.41186500  0.75775600  1
  Mn  Mn22  1  0.85896700  0.89501600  0.24285400  1
  Mn  Mn23  1  0.86797300  0.90137400  0.75362500  1
  Fe  Fe0  1  0.00870900  0.00106900  0.00362400  1
  Fe  Fe1  1  0.00689900  0.50162800  0.00298900  1
  Fe  Fe2  1  0.50660800  0.00126400  0.00322200  1
  Fe  Fe3  1  0.50181100  0.99892500  0.49816700  1
  Fe  Fe4  1  0.50705900  0.50177600  0.00301700  1
  Fe  Fe5  1  0.25704500  0.75244900  0.00325600  1
  Fe  Fe6  1  0.75769000  0.25367700  0.00482600  1
  Fe  Fe7  1  0.75721900  0.75013700  0.00192200  1
  O  O0  1  0.12828200  0.11855000  0.49435000  1
  O  O1  1  0.13166700  0.12363000  0.99544000  1
  O  O2  1  0.12147900  0.62406800  0.48981600  1
  O  O3  1  0.12508200  0.62532300  0.99383500  1
  O  O4  1  0.62525100  0.12318800  0.49490600  1
  O  O5  1  0.62812600  0.12569700  0.99778500  1
  O  O6  1  0.62081000  0.62208100  0.49081100  1
  O  O7  1  0.62519800  0.62073500  0.99010100  1
  O  O8  1  0.13901400  0.37983200  0.01578700  1
  O  O9  1  0.13034300  0.37504100  0.50343900  1
  O  O10  1  0.13682700  0.88009400  0.01160300  1
  O  O11  1  0.13045500  0.87656400  0.49962800  1
  O  O12  1  0.63756300  0.38327500  0.01517400  1
  O  O13  1  0.62786100  0.37593100  0.50101100  1
  O  O14  1  0.63473600  0.87803700  0.01320500  1
  O  O15  1  0.62621100  0.87118500  0.49856800  1
  O  O16  1  0.37092500  0.11819400  0.49289200  1
  O  O17  1  0.37333600  0.12088100  0.99404200  1
  O  O18  1  0.37565500  0.62269900  0.49208900  1
  O  O19  1  0.37924400  0.62439100  0.99531200  1
  O  O20  1  0.87710900  0.12183500  0.49675900  1
  O  O21  1  0.87936500  0.12222200  0.99630600  1
  O  O22  1  0.87452600  0.62306200  0.49232300  1
  O  O23  1  0.87556400  0.61872400  0.99032100  1
  O  O24  1  0.38466800  0.38200900  0.01356200  1
  O  O25  1  0.37898500  0.37661200  0.50201600  1
  O  O26  1  0.38582600  0.88427900  0.01360700  1
  O  O27  1  0.37723500  0.87751300  0.50292300  1
  O  O28  1  0.88468900  0.38430200  0.01217000  1
  O  O29  1  0.87769200  0.37521900  0.50174300  1
  O  O30  1  0.88922000  0.88276600  0.01497900  1
  O  O31  1  0.88074400  0.87448700  0.50040000  1
  O  O32  1  0.09087200  0.09290500  0.13551500  1
  O  O33  1  0.08818000  0.07790800  0.64210700  1
  O  O34  1  0.07800800  0.59484800  0.13338300  1
  O  O35  1  0.07095300  0.58257500  0.64007400  1
  O  O36  1  0.58085500  0.09502400  0.13382600  1
  O  O37  1  0.57260600  0.07727600  0.63232800  1
  O  O38  1  0.57715700  0.59537400  0.13349100  1
  O  O39  1  0.57550400  0.57893100  0.64227300  1
  O  O40  1  0.42891700  0.41594000  0.35485600  1
  O  O41  1  0.44406900  0.41439000  0.86896900  1
  O  O42  1  0.43473100  0.91632500  0.36325800  1
  O  O43  1  0.44675200  0.91482500  0.86892000  1
  O  O44  1  0.93026000  0.41689100  0.35757900  1
  O  O45  1  0.94608400  0.41366000  0.86936100  1
  O  O46  1  0.93722200  0.91446100  0.35764800  1
  O  O47  1  0.95024200  0.91148700  0.86966000  1
  O  O48  1  0.33292800  0.29327400  0.13190000  1
  O  O49  1  0.32992300  0.30456400  0.64094200  1
  O  O50  1  0.32660200  0.79019100  0.13570100  1
  O  O51  1  0.31960900  0.80377000  0.63883000  1
  O  O52  1  0.83856900  0.29379200  0.13546500  1
  O  O53  1  0.82485700  0.31545400  0.64291300  1
  O  O54  1  0.83384400  0.78453900  0.13243700  1
  O  O55  1  0.82363700  0.80645100  0.63732300  1
  O  O56  1  0.18085600  0.18897800  0.35811400  1
  O  O57  1  0.19435900  0.20482700  0.87201900  1
  O  O58  1  0.19008500  0.69693900  0.35882700  1
  O  O59  1  0.20338600  0.70883600  0.86932000  1
  O  O60  1  0.68208300  0.18384400  0.35725600  1
  O  O61  1  0.68571900  0.20636600  0.86625000  1
  O  O62  1  0.69022700  0.68778900  0.35804600  1
  O  O63  1  0.70268700  0.70578600  0.86855200  1
  O  O64  1  0.42749500  0.05910900  0.23960600  1
  O  O65  1  0.42719100  0.06651600  0.74442500  1
  O  O66  1  0.42826900  0.57766400  0.24698000  1
  O  O67  1  0.43962800  0.57982000  0.76114900  1
  O  O68  1  0.92814500  0.06173900  0.23762300  1
  O  O69  1  0.94173100  0.06715400  0.75167400  1
  O  O70  1  0.92951200  0.57706100  0.24760700  1
  O  O71  1  0.94083800  0.57903000  0.76258100  1
  O  O72  1  0.17604100  0.42855500  0.23866300  1
  O  O73  1  0.19176100  0.43929100  0.75300700  1
  O  O74  1  0.17705000  0.91886200  0.24705500  1
  O  O75  1  0.18680600  0.92731400  0.76152000  1
  O  O76  1  0.67613000  0.42511800  0.23749500  1
  O  O77  1  0.68563300  0.43030300  0.76133500  1
  O  O78  1  0.68123400  0.92208700  0.23812300  1
  O  O79  1  0.69232400  0.94177500  0.75339500  1
loop_
_geom_bond_atom_site_label_1
_geom_bond_atom_site_label_2
_geom_bond_distance
_geom_bond_site_symmetry_2
Ca0 O64 2.348835 1_555
Ca0 O48 2.465640 1_555
Ca0 O10 2.492367 1_545
Ca0 O26 2.497141 1_545
Ca0 O1 2.530268 1_554
Ca0 O32 2.565246 1_555
Ca0 O17 2.578062 1_554
Ca0 O36 2.927916 1_555
Ca1 O65 2.389820 1_555
Ca1 O0 2.552088 1_555
Ca1 O27 2.553787 1_545
Ca1 O16 2.563518 1_555
Ca1 O11 2.584665 1_545
Ca1 O49 2.594008 1_555
Ca1 O33 2.669707 1_555
Ca1 O37 2.814890 1_555
Ca1 O51 3.070463 1_545
Ca2 O66 2.380044 1_555
Ca2 O50 2.384390 1_555
Ca2 O8 2.508551 1_555
Ca2 O24 2.530660 1_555
Ca2 O3 2.605317 1_554
Ca2 O19 2.608360 1_554
Ca2 O34 2.695494 1_555
Ca2 O38 2.870584 1_555
Ca3 O68 2.328301 1_555
Ca3 O52 2.452764 1_555
Ca3 O14 2.512784 1_545
Ca3 O5 2.517662 1_554
Ca3 O30 2.524621 1_545
Ca3 O21 2.574750 1_554
Ca3 O36 2.653664 1_555
Ca4 O54 2.361510 1_555
Ca4 O70 2.395554 1_555
Ca4 O12 2.479622 1_555
Ca4 O28 2.501994 1_555
Ca4 O7 2.630259 1_554
Ca4 O23 2.638352 1_554
Ca4 O38 2.719238 1_555
Ca4 O34 2.873293 1_655
Ca5 O74 2.443418 1_555
Ca5 O11 2.522369 1_555
Ca5 O58 2.530747 1_555
Ca5 O16 2.539759 1_565
Ca5 O27 2.550746 1_555
Ca5 O0 2.568013 1_565
Ca5 O46 2.754551 1_455
Ca5 O42 2.780466 1_555
Ca5 O56 3.042849 1_565
Ca6 O75 2.331588 1_555
Ca6 O59 2.430813 1_555
Ca6 O17 2.528335 1_565
Ca6 O1 2.543355 1_565
Ca6 O10 2.590432 1_556
Ca6 O26 2.606211 1_556
Ca6 O47 2.663194 1_455
Ca6 O43 2.882516 1_555
Ca7 O77 2.343114 1_555
Ca7 O61 2.479324 1_555
Ca7 O7 2.487754 1_555
Ca7 O23 2.487961 1_555
Ca7 O28 2.589452 1_556
Ca7 O12 2.636755 1_556
Ca7 O41 2.732246 1_555
Ca7 O45 2.873561 1_555
Ca8 O72 2.332490 1_555
Ca8 O32 2.438930 1_555
Ca8 O8 2.506047 1_555
Ca8 O21 2.522669 1_454
Ca8 O28 2.524555 1_455
Ca8 O52 2.574744 1_455
Ca8 O1 2.610608 1_554
Ca8 O48 2.963912 1_555
Ca9 O34 2.386546 1_555
Ca9 O74 2.386959 1_555
Ca9 O30 2.478528 1_455
Ca9 O10 2.551394 1_555
Ca9 O3 2.572125 1_554
Ca9 O23 2.614256 1_454
Ca9 O54 2.629364 1_455
Ca9 O50 2.861754 1_555
Ca10 O76 2.323121 1_555
Ca10 O36 2.404072 1_555
Ca10 O24 2.485909 1_555
Ca10 O12 2.501546 1_555
Ca10 O5 2.529506 1_554
Ca10 O17 2.572179 1_554
Ca10 O48 2.626599 1_555
Ca11 O78 2.333548 1_555
Ca11 O38 2.392909 1_555
Ca11 O14 2.475958 1_555
Ca11 O26 2.500223 1_555
Ca11 O19 2.515041 1_554
Ca11 O7 2.617537 1_554
Ca11 O50 2.738746 1_555
Ca11 O54 2.956936 1_555
Ca12 O66 2.450875 1_555
Ca12 O15 2.517510 1_555
Ca12 O6 2.521156 1_555
Ca12 O18 2.537085 1_555
Ca12 O42 2.572486 1_555
Ca12 O27 2.604876 1_555
Ca12 O58 2.715041 1_555
Ca12 O62 2.898318 1_555
Ca12 O40 3.039696 1_555
Ca13 O67 2.348709 1_555
Ca13 O43 2.499220 1_555
Ca13 O19 2.520192 1_555
Ca13 O7 2.521977 1_555
Ca13 O59 2.607497 1_555
Ca13 O14 2.618665 1_556
Ca13 O26 2.639984 1_556
Ca13 O63 2.971085 1_555
Ca14 O70 2.440633 1_555
Ca14 O2 2.510297 1_655
Ca14 O31 2.543136 1_555
Ca14 O11 2.561622 1_655
Ca14 O22 2.572873 1_555
Ca14 O46 2.576654 1_555
Ca14 O62 2.725804 1_555
Ca14 O58 2.872149 1_655
Ca14 O44 3.057322 1_555
Ca15 O71 2.354301 1_555
Ca15 O47 2.460084 1_555
Ca15 O23 2.489712 1_555
Ca15 O3 2.514495 1_655
Ca15 O30 2.612572 1_556
Ca15 O10 2.615852 1_656
Ca15 O63 2.617181 1_555
Ca15 O59 2.975237 1_655
Mn0 O0 1.935685 1_565
Mn0 O11 1.939934 1_555
Mn0 O31 1.955463 1_455
Mn0 O20 1.957735 1_465
Mn0 O46 2.240350 1_455
Mn0 O33 2.286918 1_565
Mn1 O22 1.965212 1_455
Mn1 O2 1.974584 1_555
Mn1 O29 1.975135 1_455
Mn1 O9 1.977355 1_555
Mn1 O44 2.225864 1_455
Mn1 O35 2.268080 1_555
Mn2 O6 1.945946 1_555
Mn2 O13 1.947637 1_555
Mn2 O25 1.955319 1_555
Mn2 O18 1.955642 1_555
Mn2 O40 2.263207 1_555
Mn2 O39 2.305831 1_555
Mn3 O1 1.924840 1_554
Mn3 O17 1.934088 1_554
Mn3 O8 1.938611 1_555
Mn3 O24 1.941582 1_555
Mn3 O48 2.058949 1_555
Mn3 O57 2.097375 1_554
Mn4 O16 1.945075 1_555
Mn4 O9 1.948139 1_555
Mn4 O0 1.956641 1_555
Mn4 O25 1.962800 1_555
Mn4 O56 2.220850 1_555
Mn4 O49 2.280399 1_555
Mn5 O2 1.940686 1_555
Mn5 O27 1.942900 1_555
Mn5 O11 1.951551 1_555
Mn5 O18 1.952357 1_555
Mn5 O58 2.213448 1_555
Mn5 O51 2.249924 1_555
Mn6 O29 1.934202 1_555
Mn6 O4 1.956723 1_555
Mn6 O13 1.965562 1_555
Mn6 O20 1.969771 1_555
Mn6 O60 2.245766 1_555
Mn6 O53 2.291818 1_555
Mn7 O22 1.924612 1_555
Mn7 O15 1.957445 1_555
Mn7 O6 1.963571 1_555
Mn7 O31 1.968993 1_555
Mn7 O62 2.206588 1_555
Mn7 O55 2.235608 1_555
Mn8 O56 1.879310 1_555
Mn8 O32 1.898793 1_555
Mn8 O68 1.941299 1_455
Mn8 O74 2.047691 1_545
Mn9 O33 1.891976 1_555
Mn9 O57 1.937919 1_555
Mn9 O69 1.940420 1_455
Mn9 O75 2.020053 1_545
Mn10 O58 1.879730 1_555
Mn10 O34 1.894541 1_555
Mn10 O70 1.966859 1_455
Mn10 O72 2.036936 1_555
Mn11 O35 1.887946 1_555
Mn11 O59 1.910831 1_555
Mn11 O71 1.972903 1_455
Mn11 O73 2.017889 1_555
Mn12 O60 1.882704 1_555
Mn12 O36 1.883649 1_555
Mn12 O64 1.956209 1_555
Mn12 O78 2.023804 1_545
Mn13 O37 1.922668 1_555
Mn13 O61 1.933601 1_555
Mn13 O65 1.999229 1_555
Mn13 O79 2.000118 1_545
Mn14 O62 1.872576 1_555
Mn14 O38 1.895302 1_555
Mn14 O66 1.971191 1_555
Mn14 O76 2.020642 1_555
Mn15 O39 1.892037 1_555
Mn15 O63 1.893873 1_555
Mn15 O67 1.943707 1_555
Mn15 O77 2.036333 1_555
Mn16 O40 1.869052 1_555
Mn16 O48 1.915567 1_555
Mn16 O72 1.944779 1_555
Mn16 O66 2.035782 1_555
Mn17 O49 1.891849 1_555
Mn17 O41 1.901716 1_555
Mn17 O73 1.942967 1_555
Mn17 O67 2.052474 1_555
Mn18 O50 1.884392 1_555
Mn18 O42 1.912292 1_555
Mn18 O74 1.954956 1_555
Mn18 O64 2.033609 1_565
Mn19 O51 1.889117 1_555
Mn19 O43 1.930395 1_555
Mn19 O75 1.970138 1_555
Mn19 O65 2.024054 1_565
Mn20 O44 1.873376 1_555
Mn20 O52 1.896577 1_555
Mn20 O76 1.955773 1_555
Mn20 O70 2.040858 1_555
Mn21 O53 1.889506 1_555
Mn21 O45 1.898655 1_555
Mn21 O77 1.955212 1_555
Mn21 O71 2.021186 1_555
Mn22 O46 1.884635 1_555
Mn22 O54 1.887247 1_555
Mn22 O78 1.957997 1_555
Mn22 O68 2.041711 1_565
Mn23 O55 1.897561 1_555
Mn23 O47 1.935953 1_555
Mn23 O79 1.982762 1_555
Mn23 O69 2.026684 1_565
Fe0 O10 1.951191 1_545
Fe0 O30 1.955890 1_445
Fe0 O21 1.961375 1_454
Fe0 O1 1.987388 1_554
Fe0 O32 2.120981 1_555
Fe0 O47 2.144040 1_444
Fe1 O28 1.949681 1_455
Fe1 O23 1.952057 1_454
Fe1 O3 1.968569 1_554
Fe1 O8 1.995243 1_555
Fe1 O34 2.094515 1_555
Fe1 O45 2.135843 1_454
Fe2 O26 1.946767 1_545
Fe2 O5 1.967248 1_554
Fe2 O14 1.971820 1_545
Fe2 O17 1.981987 1_554
Fe2 O36 2.099770 1_555
Fe2 O43 2.144824 1_544
Fe3 O16 1.957283 1_565
Fe3 O27 1.961323 1_555
Fe3 O4 1.962391 1_565
Fe3 O15 1.971450 1_555
Fe3 O37 2.134227 1_565
Fe3 O42 2.148703 1_555
Fe4 O12 1.955805 1_555
Fe4 O19 1.961563 1_554
Fe4 O7 1.965245 1_554
Fe4 O24 1.982397 1_555
Fe4 O38 2.096024 1_555
Fe4 O41 2.140928 1_554
Fe5 O10 1.942122 1_555
Fe5 O3 1.956922 1_554
Fe5 O19 1.960331 1_554
Fe5 O26 1.963074 1_555
Fe5 O50 2.127052 1_555
Fe5 O59 2.147816 1_554
Fe6 O12 1.959086 1_555
Fe6 O28 1.959986 1_555
Fe6 O5 1.960891 1_554
Fe6 O21 1.983561 1_554
Fe6 O52 2.099941 1_555
Fe6 O61 2.214110 1_554
Fe7 O7 1.959542 1_554
Fe7 O23 1.961328 1_554
Fe7 O14 1.965677 1_555
Fe7 O30 1.976956 1_555
Fe7 O54 2.104150 1_555
Fe7 O63 2.136710 1_554
O0 Sr14 2.647148 1_455
O0 Sr8 2.688875 1_555
O1 Sr15 2.607709 1_455
O2 Sr3 2.611321 1_555
O2 Sr9 2.683967 1_555
O2 Sr0 2.765669 1_555
O3 Sr4 2.566195 1_555
O4 Sr12 2.617797 1_555
O4 Sr6 2.656413 1_545
O4 Sr1 2.660595 1_555
O4 Sr10 2.661642 1_555
O5 Sr13 2.585932 1_555
O5 Sr7 2.608614 1_545
O6 Sr5 2.617454 1_555
O6 Sr11 2.674154 1_555
O6 Sr2 2.753056 1_555
O8 Sr4 2.743712 1_554
O8 Sr15 2.747834 1_454
O9 Sr8 2.600831 1_555
O9 Sr0 2.631810 1_555
O9 Sr14 2.675304 1_455
O9 Sr3 2.691029 1_555
O11 Sr9 2.661227 1_555
O12 Sr13 2.745744 1_554
O13 Sr10 2.627852 1_555
O13 Sr12 2.645023 1_555
O13 Sr2 2.649278 1_555
O13 Sr5 2.667293 1_555
O14 Sr7 2.735932 1_554
O15 Sr11 2.631511 1_555
O15 Sr6 2.658501 1_555
O15 Sr1 2.666131 1_565
O16 Sr12 2.646502 1_555
O16 Sr10 2.734166 1_555
O17 Sr13 2.608819 1_555
O18 Sr3 2.616129 1_555
O18 Sr11 2.675236 1_555
O18 Sr0 2.717126 1_555
O19 Sr4 2.581930 1_555
O20 Sr1 2.631965 1_555
O20 Sr6 2.632042 1_545
O20 Sr8 2.649611 1_655
O20 Sr14 2.652472 1_555
O21 Sr15 2.571897 1_555
O21 Sr7 2.584115 1_545
O22 Sr5 2.605273 1_555
O22 Sr9 2.691770 1_655
O22 Sr2 2.705352 1_555
O24 Sr4 2.706639 1_554
O24 Sr13 2.753425 1_554
O25 Sr0 2.625648 1_555
O25 Sr10 2.629609 1_555
O25 Sr3 2.662214 1_555
O25 Sr12 2.664711 1_555
O27 Sr11 2.640431 1_555
O28 Sr15 2.719735 1_554
O29 Sr2 2.617398 1_555
O29 Sr8 2.649309 1_655
O29 Sr5 2.655688 1_555
O29 Sr14 2.680824 1_555
O30 Sr7 2.738142 1_554
O31 Sr9 2.627234 1_655
O31 Sr6 2.640079 1_555
O31 Sr1 2.642801 1_565
O33 Sr8 2.700445 1_555
O33 Sr9 2.925901 1_545
O33 Sr1 2.949465 1_455
O35 Sr9 2.653310 1_555
O35 Sr2 2.744553 1_455
O35 Sr0 2.825973 1_555
O35 Sr8 3.003967 1_555
O37 Sr10 2.649963 1_555
O37 Sr1 2.740886 1_555
O37 Sr11 2.961735 1_545
O39 Sr11 2.697999 1_555
O39 Sr0 2.794404 1_555
O39 Sr2 2.803054 1_555
O39 Sr10 2.932177 1_555
O40 Sr12 2.658350 1_555
O40 Sr3 2.780012 1_555
O40 Sr5 2.822904 1_555
O41 Sr13 2.533488 1_555
O41 Sr4 2.849348 1_555
O42 Sr6 2.803145 1_555
O42 Sr12 3.008749 1_565
O43 Sr7 2.693868 1_555
O43 Sr13 3.061683 1_565
O44 Sr14 2.662001 1_555
O44 Sr5 2.761392 1_555
O44 Sr3 2.804801 1_655
O45 Sr15 2.525136 1_555
O45 Sr4 2.698568 1_655
O46 Sr6 2.821054 1_555
O46 Sr14 2.992689 1_565
O47 Sr7 2.903966 1_555
O47 Sr15 3.106340 1_565
O49 Sr10 2.736556 1_555
O49 Sr8 2.841160 1_555
O49 Sr0 3.027755 1_555
O51 Sr0 2.602774 1_555
O51 Sr9 2.738792 1_555
O51 Sr11 2.834689 1_555
O53 Sr1 2.737378 1_555
O53 Sr10 2.790890 1_555
O53 Sr8 2.817366 1_655
O53 Sr2 2.916572 1_555
O55 Sr2 2.644920 1_555
O55 Sr9 2.784873 1_655
O55 Sr11 2.792683 1_555
O55 Sr1 2.971107 1_565
O56 Sr3 2.668397 1_555
O56 Sr14 2.763857 1_455
O56 Sr12 2.800426 1_555
O57 Sr4 2.556849 1_555
O57 Sr13 2.747413 1_555
O57 Sr15 2.836878 1_455
O58 Sr3 3.038939 1_555
O59 Sr4 3.107940 1_555
O60 Sr5 2.725106 1_555
O60 Sr14 2.793507 1_555
O60 Sr12 2.794665 1_555
O60 Sr6 2.924353 1_545
O61 Sr13 2.748828 1_555
O61 Sr15 2.788065 1_555
O61 Sr7 3.114861 1_545
O62 Sr6 2.665530 1_555
O62 Sr5 2.941396 1_555
O63 Sr7 2.521644 1_555
O64 Sr12 2.513562 1_555
O65 Sr13 2.483701 1_555
O67 Sr0 2.523764 1_555
O68 Sr14 2.522133 1_555
O69 Sr15 2.440084 1_555
O69 Sr1 2.456935 1_555
O71 Sr2 2.550546 1_555
O72 Sr3 2.511962 1_555
O73 Sr4 2.444231 1_555
O73 Sr8 2.471754 1_555
O75 Sr9 2.520925 1_555
O76 Sr5 2.518848 1_555
O77 Sr10 2.521434 1_555
O78 Sr6 2.518458 1_555
O79 Sr7 2.442289 1_555
O79 Sr11 2.489180 1_555
