# generated using pymatgen
data_BaEuYSnO6
_symmetry_space_group_name_H-M   'P 1'
_cell_length_a   5.97451081
_cell_length_b   5.97451007
_cell_length_c   5.97451196
_cell_angle_alpha   60.00002470
_cell_angle_beta   60.00001499
_cell_angle_gamma   60.00001637
_symmetry_Int_Tables_number   1
_chemical_formula_structural   BaEuYSnO6
_chemical_formula_sum   'Ba1 Eu1 Y1 Sn1 O6'
_cell_volume   150.79684990
_cell_formula_units_Z   1
loop_
 _symmetry_equiv_pos_site_id
 _symmetry_equiv_pos_as_xyz
  1  'x, y, z'
loop_
 _atom_site_type_symbol
 _atom_site_label
 _atom_site_symmetry_multiplicity
 _atom_site_fract_x
 _atom_site_fract_y
 _atom_site_fract_z
 _atom_site_occupancy
  Ba  Ba0  1  0.74999971  0.75000023  0.75000019  1
  Eu  Eu0  1  0.25000013  0.24999976  0.25000024  1
  Y  Y0  1  0.49999995  0.49999999  0.50000000  1
  Sn  Sn0  1  0.99999995  0.00000003  0.99999998  1
  O  O0  1  0.75872716  0.24127285  0.24127277  1
  O  O1  1  0.24127279  0.75872728  0.75872720  1
  O  O2  1  0.75872734  0.24127282  0.75872701  1
  O  O3  1  0.24127278  0.75872725  0.24127268  1
  O  O4  1  0.75872728  0.75872718  0.24127275  1
  O  O5  1  0.24127291  0.24127261  0.75872719  1
loop_
_geom_bond_atom_site_label_1
_geom_bond_atom_site_label_2
_geom_bond_distance
_geom_bond_site_symmetry_2
Ba0 O5 2.988163 1_565
Ba0 O2 2.988164 1_565
Ba0 O3 2.988165 1_556
Ba0 O1 2.988165 1_555
Ba0 O4 2.988165 1_556
Ba0 O1 2.988166 1_655
Ba0 O2 2.988166 1_555
Ba0 O0 2.988166 1_556
Ba0 O0 2.988167 1_565
Ba0 O4 2.988167 1_555
Ba0 O3 2.988168 1_655
Ba0 O5 2.988168 1_655
Eu0 O0 2.988164 1_555
Eu0 O5 2.988165 1_555
Eu0 O3 2.988165 1_545
Eu0 O1 2.988165 1_545
Eu0 O2 2.988165 1_455
Eu0 O4 2.988165 1_545
Eu0 O3 2.988165 1_555
Eu0 O0 2.988166 1_455
Eu0 O4 2.988167 1_455
Eu0 O5 2.988167 1_554
Eu0 O2 2.988168 1_554
Eu0 O1 2.988168 1_554
O0 Sn0 2.038571 1_554
O0 Y0 2.186047 1_555
O1 Sn0 2.038570 1_465
O1 Y0 2.186047 1_555
O2 Sn0 2.038571 1_555
O2 Y0 2.186047 1_555
O3 Sn0 2.038571 1_464
O3 Y0 2.186048 1_555
O4 Sn0 2.038570 1_564
O4 Y0 2.186047 1_555
O5 Sn0 2.038570 1_455
O5 Y0 2.186047 1_555
