# generated using pymatgen
data_CaMg14NiO16
_symmetry_space_group_name_H-M   'P 1'
_cell_length_a   8.59203000
_cell_length_b   8.59203000
_cell_length_c   4.32177900
_cell_angle_alpha   90.00000000
_cell_angle_beta   90.00000000
_cell_angle_gamma   90.00000000
_symmetry_Int_Tables_number   1
_chemical_formula_structural   CaMg14NiO16
_chemical_formula_sum   'Ca1 Mg14 Ni1 O16'
_cell_volume   319.04660261
_cell_formula_units_Z   1
loop_
 _symmetry_equiv_pos_site_id
 _symmetry_equiv_pos_as_xyz
  1  'x, y, z'
loop_
 _atom_site_type_symbol
 _atom_site_label
 _atom_site_symmetry_multiplicity
 _atom_site_fract_x
 _atom_site_fract_y
 _atom_site_fract_z
 _atom_site_occupancy
  Ca  Ca0  1  0.00000000  0.00000000  0.00000000  1
  Mg  Mg0  1  0.50000000  0.00000000  0.00000000  1
  Mg  Mg1  1  0.00000000  0.50000000  0.00000000  1
  Mg  Mg2  1  0.25625500  0.00000000  0.50000000  1
  Mg  Mg3  1  0.74374500  0.00000000  0.50000000  1
  Mg  Mg4  1  0.25188600  0.50000000  0.50000000  1
  Mg  Mg5  1  0.74811400  0.50000000  0.50000000  1
  Mg  Mg6  1  0.00000000  0.25625500  0.50000000  1
  Mg  Mg7  1  0.50000000  0.25188600  0.50000000  1
  Mg  Mg8  1  0.00000000  0.74374500  0.50000000  1
  Mg  Mg9  1  0.50000000  0.74811400  0.50000000  1
  Mg  Mg10  1  0.25418200  0.25418200  0.00000000  1
  Mg  Mg11  1  0.74581800  0.25418200  0.00000000  1
  Mg  Mg12  1  0.25418200  0.74581800  0.00000000  1
  Mg  Mg13  1  0.74581800  0.74581800  0.00000000  1
  Ni  Ni0  1  0.50000000  0.50000000  0.00000000  1
  O  O0  1  0.00000000  0.26392800  0.00000000  1
  O  O1  1  0.50000000  0.25205800  0.00000000  1
  O  O2  1  0.00000000  0.73607200  0.00000000  1
  O  O3  1  0.50000000  0.74794200  0.00000000  1
  O  O4  1  0.25067700  0.25067700  0.50000000  1
  O  O5  1  0.74932300  0.25067700  0.50000000  1
  O  O6  1  0.25067700  0.74932300  0.50000000  1
  O  O7  1  0.74932300  0.74932300  0.50000000  1
  O  O8  1  0.00000000  0.00000000  0.50000000  1
  O  O9  1  0.50000000  0.00000000  0.50000000  1
  O  O10  1  0.00000000  0.50000000  0.50000000  1
  O  O11  1  0.50000000  0.50000000  0.50000000  1
  O  O12  1  0.26392800  0.00000000  0.00000000  1
  O  O13  1  0.73607200  0.00000000  0.00000000  1
  O  O14  1  0.25205800  0.50000000  0.00000000  1
  O  O15  1  0.74794200  0.50000000  0.00000000  1
loop_
_geom_bond_atom_site_label_1
_geom_bond_atom_site_label_2
_geom_bond_distance
_geom_bond_site_symmetry_2
Ca0 O8 2.160890 1_554
Ca0 O8 2.160890 1_555
Ca0 O12 2.267677 1_555
Ca0 O0 2.267677 1_555
Ca0 O13 2.267677 1_455
Ca0 O2 2.267677 1_545
Mg0 O13 2.028338 1_555
Mg0 O12 2.028338 1_555
Mg0 O9 2.160890 1_554
Mg0 O9 2.160890 1_555
Mg0 O1 2.165690 1_555
Mg0 O3 2.165690 1_545
Mg1 O2 2.028338 1_555
Mg1 O0 2.028338 1_555
Mg1 O10 2.160890 1_555
Mg1 O10 2.160890 1_554
Mg1 O15 2.165690 1_455
Mg1 O14 2.165690 1_555
Mg2 O9 2.094264 1_555
Mg2 O4 2.154357 1_555
Mg2 O6 2.154357 1_545
Mg2 O12 2.161895 1_556
Mg2 O12 2.161895 1_555
Mg2 O8 2.201751 1_555
Mg3 O9 2.094264 1_555
Mg3 O5 2.154357 1_555
Mg3 O7 2.154357 1_545
Mg3 O13 2.161895 1_555
Mg3 O13 2.161895 1_556
Mg3 O8 2.201751 1_655
Mg4 O11 2.131803 1_555
Mg4 O6 2.142216 1_555
Mg4 O4 2.142216 1_555
Mg4 O14 2.160890 1_556
Mg4 O14 2.160890 1_555
Mg4 O10 2.164212 1_555
Mg5 O11 2.131803 1_555
Mg5 O7 2.142216 1_555
Mg5 O5 2.142216 1_555
Mg5 O15 2.160890 1_556
Mg5 O15 2.160890 1_555
Mg5 O10 2.164212 1_655
Mg6 O10 2.094264 1_555
Mg6 O4 2.154357 1_555
Mg6 O5 2.154357 1_455
Mg6 O0 2.161895 1_556
Mg6 O0 2.161895 1_555
Mg6 O8 2.201751 1_555
Mg7 O11 2.131803 1_555
Mg7 O5 2.142216 1_555
Mg7 O4 2.142216 1_555
Mg7 O1 2.160890 1_555
Mg7 O1 2.160890 1_556
Mg7 O9 2.164212 1_555
Mg8 O10 2.094264 1_555
Mg8 O6 2.154357 1_555
Mg8 O7 2.154357 1_455
Mg8 O2 2.161895 1_555
Mg8 O2 2.161895 1_556
Mg8 O8 2.201751 1_565
Mg9 O11 2.131803 1_555
Mg9 O7 2.142216 1_555
Mg9 O6 2.142216 1_555
Mg9 O3 2.160890 1_556
Mg9 O3 2.160890 1_555
Mg9 O9 2.164212 1_565
Mg10 O14 2.112154 1_555
Mg10 O1 2.112154 1_555
Mg10 O4 2.161309 1_554
Mg10 O4 2.161309 1_555
Mg10 O12 2.185544 1_555
Mg10 O0 2.185544 1_555
Mg11 O15 2.112154 1_555
Mg11 O1 2.112154 1_555
Mg11 O5 2.161309 1_554
Mg11 O5 2.161309 1_555
Mg11 O0 2.185544 1_655
Mg11 O13 2.185544 1_555
Mg12 O14 2.112154 1_555
Mg12 O3 2.112154 1_555
Mg12 O6 2.161309 1_555
Mg12 O6 2.161309 1_554
Mg12 O12 2.185544 1_565
Mg12 O2 2.185544 1_555
Mg13 O15 2.112154 1_555
Mg13 O3 2.112154 1_555
Mg13 O7 2.161309 1_555
Mg13 O7 2.161309 1_554
Mg13 O13 2.185544 1_565
Mg13 O2 2.185544 1_655
Ni0 O3 2.130325 1_555
Ni0 O1 2.130325 1_555
Ni0 O14 2.130325 1_555
Ni0 O15 2.130325 1_555
Ni0 O11 2.160890 1_554
Ni0 O11 2.160890 1_555
