# generated using pymatgen
data_FeC3N3O2
_symmetry_space_group_name_H-M   'P 1'
_cell_length_a   7.71448549
_cell_length_b   7.71448549
_cell_length_c   7.71448549
_cell_angle_alpha   60.00000000
_cell_angle_beta   60.00000000
_cell_angle_gamma   60.00000000
_symmetry_Int_Tables_number   1
_chemical_formula_structural   FeC3N3O2
_chemical_formula_sum   'Fe2 C6 N6 O4'
_cell_volume   324.64289381
_cell_formula_units_Z   2
loop_
 _symmetry_equiv_pos_site_id
 _symmetry_equiv_pos_as_xyz
  1  'x, y, z'
loop_
 _atom_site_type_symbol
 _atom_site_label
 _atom_site_symmetry_multiplicity
 _atom_site_fract_x
 _atom_site_fract_y
 _atom_site_fract_z
 _atom_site_occupancy
  Fe  Fe0  1  0.00000000  0.00000000  0.00000000  1
  Fe  Fe1  1  0.50000000  0.50000000  0.50000000  1
  C  C0  1  0.70129700  0.70129700  0.29870300  1
  C  C1  1  0.29870300  0.70129700  0.29870300  1
  C  C2  1  0.70129700  0.29870300  0.29870300  1
  C  C3  1  0.29870300  0.29870300  0.70129700  1
  C  C4  1  0.70129700  0.29870300  0.70129700  1
  C  C5  1  0.29870300  0.70129700  0.70129700  1
  N  N0  1  0.80864400  0.80864400  0.19135600  1
  N  N1  1  0.19135600  0.80864400  0.19135600  1
  N  N2  1  0.80864400  0.19135600  0.19135600  1
  N  N3  1  0.19135600  0.19135600  0.80864400  1
  N  N4  1  0.80864400  0.19135600  0.80864400  1
  N  N5  1  0.19135600  0.80864400  0.80864400  1
  O  O0  1  0.69129400  0.69129400  0.92611800  1
  O  O1  1  0.69129400  0.92611800  0.69129400  1
  O  O2  1  0.92611800  0.69129400  0.69129400  1
  O  O3  1  0.69129400  0.69129400  0.69129400  1
loop_
_geom_bond_atom_site_label_1
_geom_bond_atom_site_label_2
_geom_bond_distance
_geom_bond_site_symmetry_2
Fe0 N1 2.087681 1_545
Fe0 N3 2.087681 1_554
Fe0 N2 2.087681 1_455
Fe0 N4 2.087681 1_454
Fe0 N0 2.087681 1_445
Fe0 N5 2.087681 1_544
C0 N0 1.171148 1_555
C0 Fe1 2.196136 1_555
C1 N1 1.171148 1_555
C1 Fe1 2.196136 1_555
C2 N2 1.171148 1_555
C2 Fe1 2.196136 1_555
C3 N3 1.171148 1_555
C3 Fe1 2.196136 1_555
C4 N4 1.171148 1_555
C4 Fe1 2.196136 1_555
C5 N5 1.171148 1_555
C5 Fe1 2.196136 1_555
O0 O3 1.811546 1_555
O0 O2 1.811546 1_555
O0 O1 1.811546 1_555
O1 O2 1.811546 1_555
O1 O3 1.811546 1_555
O2 O3 1.811546 1_555
