# generated using pymatgen
data_MnAlPd2
_symmetry_space_group_name_H-M   'P 1'
_cell_length_a   2.93516200
_cell_length_b   2.93516200
_cell_length_c   6.90041400
_cell_angle_alpha   90.00000000
_cell_angle_beta   90.00000000
_cell_angle_gamma   90.00000000
_symmetry_Int_Tables_number   1
_chemical_formula_structural   MnAlPd2
_chemical_formula_sum   'Mn1 Al1 Pd2'
_cell_volume   59.44828085
_cell_formula_units_Z   1
loop_
 _symmetry_equiv_pos_site_id
 _symmetry_equiv_pos_as_xyz
  1  'x, y, z'
loop_
 _atom_site_type_symbol
 _atom_site_label
 _atom_site_symmetry_multiplicity
 _atom_site_fract_x
 _atom_site_fract_y
 _atom_site_fract_z
 _atom_site_occupancy
  Mn  Mn0  1  0.00000000  0.00000000  0.50000000  1
  Al  Al0  1  0.00000000  0.00000000  0.00000000  1
  Pd  Pd0  1  0.50000000  0.50000000  0.23391100  1
  Pd  Pd1  1  0.50000000  0.50000000  0.76608900  1
loop_
_geom_bond_atom_site_label_1
_geom_bond_atom_site_label_2
_geom_bond_distance
_geom_bond_site_symmetry_2
Mn0 Pd1 2.771090 1_555
Mn0 Pd0 2.771090 1_545
Mn0 Pd1 2.771090 1_545
Mn0 Pd0 2.771090 1_455
Mn0 Pd1 2.771090 1_445
Mn0 Pd1 2.771090 1_455
Mn0 Pd0 2.771090 1_555
Mn0 Pd0 2.771090 1_445
Al0 Pd0 2.629230 1_545
Al0 Pd0 2.629230 1_455
Al0 Pd1 2.629230 1_454
Al0 Pd1 2.629230 1_544
Al0 Pd0 2.629230 1_555
Al0 Pd1 2.629230 1_554
Al0 Pd1 2.629230 1_444
Al0 Pd0 2.629230 1_445
