# generated using pymatgen
data_SrSm3(NiO4)2
_symmetry_space_group_name_H-M   'P 1'
_cell_length_a   6.75691086
_cell_length_b   6.75691086
_cell_length_c   5.38037600
_cell_angle_alpha   90.00000000
_cell_angle_beta   90.00000000
_cell_angle_gamma   133.49680766
_symmetry_Int_Tables_number   1
_chemical_formula_structural   SrSm3(NiO4)2
_chemical_formula_sum   'Sr1 Sm3 Ni2 O8'
_cell_volume   178.19445039
_cell_formula_units_Z   1
loop_
 _symmetry_equiv_pos_site_id
 _symmetry_equiv_pos_as_xyz
  1  'x, y, z'
loop_
 _atom_site_type_symbol
 _atom_site_label
 _atom_site_symmetry_multiplicity
 _atom_site_fract_x
 _atom_site_fract_y
 _atom_site_fract_z
 _atom_site_occupancy
  Sr  Sr0  1  0.64436500  0.35563500  0.00000000  1
  Sm  Sm0  1  0.13681300  0.86318700  0.50000000  1
  Sm  Sm1  1  0.86123800  0.13876200  0.50000000  1
  Sm  Sm2  1  0.36352600  0.63647400  0.00000000  1
  Ni  Ni0  1  0.50347000  0.49653000  0.50000000  1
  Ni  Ni1  1  0.00371600  0.99628400  0.00000000  1
  O  O0  1  0.31862800  0.68137200  0.50000000  1
  O  O1  1  0.83624100  0.16375900  0.00000000  1
  O  O2  1  0.17772700  0.82227300  0.00000000  1
  O  O3  1  0.67689900  0.32310100  0.50000000  1
  O  O4  1  0.24419600  0.25550700  0.73926700  1
  O  O5  1  0.74449300  0.75580400  0.26073300  1
  O  O6  1  0.74449300  0.75580400  0.73926700  1
  O  O7  1  0.24419600  0.25550700  0.26073300  1
loop_
_geom_bond_atom_site_label_1
_geom_bond_atom_site_label_2
_geom_bond_distance
_geom_bond_site_symmetry_2
Ni0 O5 1.857686 1_555
Ni0 O6 1.857686 1_555
Ni0 O7 1.857686 1_555
Ni0 O4 1.857686 1_555
Ni0 O3 2.153335 1_555
Ni0 O0 2.295041 1_555
Ni1 O6 1.938602 1_454
Ni1 O5 1.938602 1_455
Ni1 O4 1.938602 1_564
Ni1 O7 1.938602 1_565
Ni1 O1 2.079408 1_465
Ni1 O2 2.160561 1_555
O0 Sm0 2.257457 1_555
O0 Sm1 2.719382 1_455
O0 Sm1 2.719382 1_565
O0 Sm2 2.747340 1_556
O0 Sm2 2.747340 1_555
O1 Sr0 2.382377 1_555
O1 Sm2 2.688849 1_655
O1 Sm2 2.688849 1_545
O1 Sm1 2.708033 1_555
O1 Sm1 2.708033 1_554
O2 Sm2 2.306923 1_555
O2 Sr0 2.699394 1_455
O2 Sr0 2.699394 1_565
O2 Sm0 2.737731 1_555
O2 Sm0 2.737731 1_554
O3 Sm1 2.288796 1_555
O3 Sm0 2.713459 1_545
O3 Sm0 2.713459 1_655
O3 Sr0 2.720347 1_555
O3 Sr0 2.720347 1_556
O4 Sm1 2.483000 1_455
O4 Sm2 2.527276 1_556
O4 Sm0 2.561839 1_545
O4 Sr0 2.686722 1_556
O5 Sm1 2.483000 1_565
O5 Sm2 2.527276 1_555
O5 Sm0 2.561839 1_655
O5 Sr0 2.686722 1_555
O6 Sm1 2.483000 1_565
O6 Sm2 2.527276 1_556
O6 Sm0 2.561839 1_655
O6 Sr0 2.686722 1_556
O7 Sm1 2.483000 1_455
O7 Sm2 2.527276 1_555
O7 Sm0 2.561839 1_545
O7 Sr0 2.686722 1_555
