# generated using pymatgen
data_Zr3Ge
_symmetry_space_group_name_H-M   'P 1'
_cell_length_a   5.47230215
_cell_length_b   11.10850615
_cell_length_c   11.10821198
_cell_angle_alpha   89.99797412
_cell_angle_beta   89.99944480
_cell_angle_gamma   90.00062318
_symmetry_Int_Tables_number   1
_chemical_formula_structural   Zr3Ge
_chemical_formula_sum   'Zr24 Ge8'
_cell_volume   675.25823185
_cell_formula_units_Z   8
loop_
 _symmetry_equiv_pos_site_id
 _symmetry_equiv_pos_as_xyz
  1  'x, y, z'
loop_
 _atom_site_type_symbol
 _atom_site_label
 _atom_site_symmetry_multiplicity
 _atom_site_fract_x
 _atom_site_fract_y
 _atom_site_fract_z
 _atom_site_occupancy
  Zr  Zr0  1  0.78344920  0.85627981  0.16807869  1
  Zr  Zr1  1  0.78346577  0.64374219  0.33187464  1
  Zr  Zr2  1  0.28352441  0.66809095  0.14374442  1
  Zr  Zr3  1  0.28354351  0.83193534  0.35622172  1
  Zr  Zr4  1  0.21652785  0.14376731  0.83191074  1
  Zr  Zr5  1  0.21650707  0.35619860  0.66811082  1
  Zr  Zr6  1  0.71649608  0.33188525  0.85624447  1
  Zr  Zr7  1  0.71647476  0.16809718  0.64376640  1
  Zr  Zr8  1  0.97143862  0.22342729  0.11027632  1
  Zr  Zr9  1  0.97144534  0.27655317  0.38970470  1
  Zr  Zr10  1  0.47144408  0.61027058  0.77659824  1
  Zr  Zr11  1  0.47144395  0.88973946  0.72344715  1
  Zr  Zr12  1  0.02855078  0.77656557  0.88973359  1
  Zr  Zr13  1  0.02854670  0.72345017  0.61030913  1
  Zr  Zr14  1  0.52856053  0.38968760  0.22341935  1
  Zr  Zr15  1  0.52855958  0.11030625  0.27654974  1
  Zr  Zr16  1  0.25698698  0.96594228  0.06970624  1
  Zr  Zr17  1  0.25698166  0.53404031  0.43027105  1
  Zr  Zr18  1  0.75694453  0.56968590  0.03405984  1
  Zr  Zr19  1  0.75694293  0.93034429  0.46594081  1
  Zr  Zr20  1  0.74302741  0.03407220  0.93029911  1
  Zr  Zr21  1  0.74304527  0.46591336  0.56972125  1
  Zr  Zr22  1  0.24304227  0.43026455  0.96593913  1
  Zr  Zr23  1  0.24303532  0.06973662  0.53406287  1
  Ge  Ge0  1  0.46322321  0.20856880  0.04534299  1
  Ge  Ge1  1  0.46322591  0.29143049  0.45466066  1
  Ge  Ge2  1  0.96324686  0.54533039  0.79141867  1
  Ge  Ge3  1  0.96325246  0.95467073  0.70857562  1
  Ge  Ge4  1  0.53676801  0.79142295  0.95468297  1
  Ge  Ge5  1  0.53677069  0.70857540  0.54531702  1
  Ge  Ge6  1  0.03676687  0.45467842  0.20858677  1
  Ge  Ge7  1  0.03675740  0.04532359  0.29142387  1
loop_
_geom_bond_atom_site_label_1
_geom_bond_atom_site_label_2
_geom_bond_distance
_geom_bond_site_symmetry_2
Ge0 Zr20 2.781220 1_554
Ge0 Zr8 2.791059 1_455
Ge0 Zr15 2.813410 1_555
Ge0 Zr4 2.821658 1_554
Ge0 Zr14 2.844120 1_555
Ge0 Zr6 2.865217 1_554
Ge0 Zr8 2.877865 1_555
Ge0 Zr22 2.880039 1_554
Ge0 Zr16 2.934455 1_545
Ge1 Zr21 2.781235 1_555
Ge1 Zr9 2.791125 1_455
Ge1 Zr14 2.813727 1_555
Ge1 Zr5 2.821777 1_555
Ge1 Zr15 2.844428 1_555
Ge1 Zr7 2.865336 1_555
Ge1 Zr9 2.877951 1_555
Ge1 Zr23 2.880008 1_555
Ge1 Zr17 2.934353 1_555
Ge2 Zr22 2.781420 1_655
Ge2 Zr10 2.791166 1_555
Ge2 Zr12 2.814016 1_655
Ge2 Zr6 2.821974 1_555
Ge2 Zr13 2.844252 1_655
Ge2 Zr5 2.865525 1_655
Ge2 Zr10 2.877751 1_655
Ge2 Zr21 2.880143 1_555
Ge2 Zr18 2.934692 1_556
Ge3 Zr23 2.781287 1_665
Ge3 Zr11 2.791186 1_555
Ge3 Zr13 2.813657 1_655
Ge3 Zr7 2.821855 1_565
Ge3 Zr12 2.844529 1_655
Ge3 Zr4 2.865414 1_665
Ge3 Zr11 2.877747 1_655
Ge3 Zr20 2.880380 1_565
Ge3 Zr19 2.934630 1_555
Ge4 Zr16 2.781221 1_556
Ge4 Zr12 2.791095 1_655
Ge4 Zr11 2.813929 1_555
Ge4 Zr0 2.821437 1_556
Ge4 Zr10 2.844439 1_555
Ge4 Zr2 2.864921 1_556
Ge4 Zr12 2.877919 1_555
Ge4 Zr18 2.880330 1_556
Ge4 Zr20 2.934757 1_565
Ge5 Zr17 2.781473 1_555
Ge5 Zr13 2.791204 1_655
Ge5 Zr10 2.814331 1_555
Ge5 Zr1 2.821827 1_555
Ge5 Zr11 2.844884 1_555
Ge5 Zr3 2.865335 1_555
Ge5 Zr13 2.878075 1_555
Ge5 Zr19 2.880591 1_555
Ge5 Zr21 2.934965 1_555
Ge6 Zr18 2.781254 1_455
Ge6 Zr14 2.791271 1_555
Ge6 Zr8 2.814175 1_455
Ge6 Zr2 2.821735 1_555
Ge6 Zr9 2.844375 1_455
Ge6 Zr1 2.864974 1_455
Ge6 Zr14 2.877948 1_455
Ge6 Zr17 2.879861 1_555
Ge6 Zr22 2.934761 1_554
Ge7 Zr19 2.780973 1_445
Ge7 Zr15 2.791302 1_555
Ge7 Zr9 2.813822 1_455
Ge7 Zr3 2.821488 1_545
Ge7 Zr8 2.844450 1_455
Ge7 Zr0 2.865125 1_445
Ge7 Zr15 2.877925 1_455
Ge7 Zr16 2.880266 1_545
Ge7 Zr23 2.934695 1_555
