# generated using pymatgen
data_MgPt5
_symmetry_space_group_name_H-M   'P 1'
_cell_length_a   4.89196615
_cell_length_b   4.89196615
_cell_length_c   4.56253500
_cell_angle_alpha   90.00000000
_cell_angle_beta   90.00000000
_cell_angle_gamma   120.00000199
_symmetry_Int_Tables_number   1
_chemical_formula_structural   MgPt5
_chemical_formula_sum   'Mg1 Pt5'
_cell_volume   94.55918448
_cell_formula_units_Z   1
loop_
 _symmetry_equiv_pos_site_id
 _symmetry_equiv_pos_as_xyz
  1  'x, y, z'
loop_
 _atom_site_type_symbol
 _atom_site_label
 _atom_site_symmetry_multiplicity
 _atom_site_fract_x
 _atom_site_fract_y
 _atom_site_fract_z
 _atom_site_occupancy
  Mg  Mg0  1  0.00000000  0.00000000  0.00000000  1
  Pt  Pt0  1  0.65997300  0.00000000  0.50000000  1
  Pt  Pt1  1  0.66666700  0.33333300  0.00000000  1
  Pt  Pt2  1  0.34002700  0.34002700  0.50000000  1
  Pt  Pt3  1  0.00000000  0.65997300  0.50000000  1
  Pt  Pt4  1  0.33333300  0.66666700  0.00000000  1
loop_
_geom_bond_atom_site_label_1
_geom_bond_atom_site_label_2
_geom_bond_distance
_geom_bond_site_symmetry_2
Mg0 Pt2 2.823311 1_554
Mg0 Pt2 2.823311 1_555
Mg0 Pt3 2.823311 1_544
Mg0 Pt0 2.823311 1_455
Mg0 Pt0 2.823311 1_454
Mg0 Pt3 2.823311 1_545
Mg0 Pt1 2.824375 1_455
Mg0 Pt4 2.824375 1_545
Mg0 Pt1 2.824379 1_555
Mg0 Pt4 2.824379 1_445
Mg0 Pt1 2.824379 1_445
Mg0 Pt4 2.824379 1_555
Pt0 Pt1 2.794796 1_555
Pt0 Pt1 2.794796 1_556
Pt0 Pt4 2.794798 1_545
Pt0 Pt4 2.794798 1_546
Pt0 Pt3 2.796451 1_655
Pt0 Pt3 2.796451 1_545
Pt0 Pt2 2.796451 1_545
Pt0 Pt2 2.796451 1_555
Pt0 Pt2 2.881094 1_655
Pt0 Pt3 2.881094 1_645
Pt1 Pt3 2.794798 1_655
Pt1 Pt3 2.794798 1_654
Pt1 Pt2 2.794799 1_555
Pt1 Pt2 2.794799 1_554
Pt1 Pt4 2.824375 1_545
Pt1 Pt4 2.824375 1_655
Pt1 Pt4 2.824384 1_555
Pt2 Pt4 2.794799 1_556
Pt2 Pt4 2.794799 1_555
Pt2 Pt3 2.796451 1_655
Pt2 Pt3 2.796451 1_555
Pt2 Pt3 2.881094 1_545
Pt3 Pt4 2.794796 1_555
Pt3 Pt4 2.794796 1_556
