# generated using pymatgen
data_K2V3O8
_symmetry_space_group_name_H-M   'P 1'
_cell_length_a   8.87855816
_cell_length_b   8.87855816
_cell_length_c   5.25271081
_cell_angle_alpha   90.00000000
_cell_angle_beta   90.00000000
_cell_angle_gamma   90.00000000
_symmetry_Int_Tables_number   1
_chemical_formula_structural   K2V3O8
_chemical_formula_sum   'K4 V6 O16'
_cell_volume   414.06486364
_cell_formula_units_Z   2
loop_
 _symmetry_equiv_pos_site_id
 _symmetry_equiv_pos_as_xyz
  1  'x, y, z'
loop_
 _atom_site_type_symbol
 _atom_site_label
 _atom_site_symmetry_multiplicity
 _atom_site_fract_x
 _atom_site_fract_y
 _atom_site_fract_z
 _atom_site_occupancy
  K  K0  1  0.16843722  0.66843722  0.17292511  1
  K  K1  1  0.66843722  0.83156278  0.17292511  1
  K  K2  1  0.33156278  0.16843722  0.17292511  1
  K  K3  1  0.83156278  0.33156278  0.17292511  1
  V  V0  1  0.36557973  0.86557973  0.64300820  1
  V  V1  1  0.13442027  0.36557973  0.64300820  1
  V  V2  1  0.63442027  0.13442027  0.64300820  1
  V  V3  1  0.86557973  0.63442027  0.64300820  1
  V  V4  1  0.00000000  0.00000000  0.63193675  1
  V  V5  1  0.50000000  0.50000000  0.63193675  1
  O  O0  1  0.50000000  0.50000000  0.93994506  1
  O  O1  1  0.00000000  0.00000000  0.93994506  1
  O  O2  1  0.00000000  0.50000000  0.52078830  1
  O  O3  1  0.50000000  0.00000000  0.52078830  1
  O  O4  1  0.86886326  0.63113674  0.95665067  1
  O  O5  1  0.63113674  0.13113674  0.95665067  1
  O  O6  1  0.36886326  0.86886326  0.95665067  1
  O  O7  1  0.13113674  0.36886326  0.95665067  1
  O  O8  1  0.69112828  0.58633315  0.52602648  1
  O  O9  1  0.30887172  0.41366685  0.52602648  1
  O  O10  1  0.08633315  0.19112828  0.52602648  1
  O  O11  1  0.19112828  0.91366685  0.52602648  1
  O  O12  1  0.80887172  0.08633315  0.52602648  1
  O  O13  1  0.91366685  0.80887172  0.52602648  1
  O  O14  1  0.58633315  0.30887172  0.52602648  1
  O  O15  1  0.41366685  0.69112828  0.52602648  1
loop_
_geom_bond_atom_site_label_1
_geom_bond_atom_site_label_2
_geom_bond_distance
_geom_bond_site_symmetry_2
K0 O6 2.761115 1_554
K0 O2 2.794936 1_555
K0 O11 2.867267 1_555
K0 O15 2.867267 1_555
K0 O4 2.911132 1_454
K0 O7 2.911132 1_554
K0 O13 3.179831 1_455
K0 O9 3.179831 1_555
K1 O4 2.761115 1_554
K1 O3 2.794936 1_565
K1 O13 2.867267 1_555
K1 O8 2.867267 1_555
K1 O6 2.911132 1_554
K1 O5 2.911132 1_564
K1 O12 3.179831 1_565
K1 O15 3.179831 1_555
K2 O7 2.761115 1_554
K2 O3 2.794936 1_555
K2 O10 2.867267 1_555
K2 O9 2.867267 1_555
K2 O6 2.911132 1_544
K2 O5 2.911132 1_554
K2 O11 3.179831 1_545
K2 O14 3.179831 1_555
K3 O5 2.761115 1_554
K3 O2 2.794936 1_655
K3 O12 2.867267 1_555
K3 O14 2.867267 1_555
K3 O4 2.911132 1_554
K3 O7 2.911132 1_654
K3 O10 3.179831 1_655
K3 O8 3.179831 1_555
O0 V5 1.617879 1_555
O1 V4 1.617879 1_555
O2 V3 1.805777 1_455
O2 V1 1.805777 1_555
O3 V2 1.805777 1_555
O3 V0 1.805777 1_545
O4 V3 1.647989 1_555
O5 V2 1.647989 1_555
O6 V0 1.647989 1_555
O7 V1 1.647989 1_555
O8 V3 1.720139 1_555
O8 V5 1.943360 1_555
O9 V1 1.720139 1_555
O9 V5 1.943360 1_555
O10 V1 1.720139 1_555
O10 V4 1.943360 1_555
O11 V0 1.720139 1_555
O11 V4 1.943360 1_565
O12 V2 1.720139 1_555
O12 V4 1.943360 1_655
O13 V3 1.720139 1_555
O13 V4 1.943360 1_665
O14 V2 1.720139 1_555
O14 V5 1.943360 1_555
O15 V0 1.720139 1_555
O15 V5 1.943360 1_555
