# generated using pymatgen
data_TiP4W3
_symmetry_space_group_name_H-M   'P 1'
_cell_length_a   3.28019800
_cell_length_b   5.75229600
_cell_length_c   6.29907533
_cell_angle_alpha   89.81361552
_cell_angle_beta   90.00000000
_cell_angle_gamma   90.00000000
_symmetry_Int_Tables_number   1
_chemical_formula_structural   TiP4W3
_chemical_formula_sum   'Ti1 P4 W3'
_cell_volume   118.85454377
_cell_formula_units_Z   1
loop_
 _symmetry_equiv_pos_site_id
 _symmetry_equiv_pos_as_xyz
  1  'x, y, z'
loop_
 _atom_site_type_symbol
 _atom_site_label
 _atom_site_symmetry_multiplicity
 _atom_site_fract_x
 _atom_site_fract_y
 _atom_site_fract_z
 _atom_site_occupancy
  Ti  Ti0  1  0.50000000  0.50919700  0.30931500  1
  P  P0  1  0.50000000  0.68939600  0.93078000  1
  P  P1  1  0.50000000  0.19057000  0.56597200  1
  P  P2  1  0.00000000  0.31040000  0.06699800  1
  P  P3  1  0.00000000  0.81401500  0.43762700  1
  W  W0  1  0.50000000  0.00763000  0.18953700  1
  W  W1  1  0.00000000  0.48886900  0.68829900  1
  W  W2  1  0.00000000  0.98992300  0.81147200  1
loop_
_geom_bond_atom_site_label_1
_geom_bond_atom_site_label_2
_geom_bond_distance
_geom_bond_site_symmetry_2
Ti0 W1 2.898403 1_555
Ti0 W1 2.898403 1_655
P0 W0 2.455014 1_566
P0 W2 2.496947 1_555
P0 W2 2.496947 1_655
P0 W1 2.522875 1_555
P0 W1 2.522875 1_655
P0 Ti0 2.596889 1_556
P1 Ti0 2.440028 1_555
P1 W1 2.497318 1_655
P1 W1 2.497318 1_555
P1 W2 2.530192 1_645
P1 W2 2.530192 1_545
P1 W0 2.597340 1_555
P2 W2 2.451216 1_544
P2 W0 2.512017 1_455
P2 W0 2.512017 1_555
P2 Ti0 2.517693 1_455
P2 Ti0 2.517693 1_555
P2 W1 2.593911 1_554
P3 W1 2.443806 1_555
P3 W0 2.522131 1_565
P3 W0 2.522131 1_465
P3 Ti0 2.535120 1_555
P3 Ti0 2.535120 1_455
P3 W2 2.566095 1_555
