# generated using pymatgen
data_CaV5O7
_symmetry_space_group_name_H-M   'P 1'
_cell_length_a   3.10472316
_cell_length_b   5.35949865
_cell_length_c   18.00458703
_cell_angle_alpha   90.00626737
_cell_angle_beta   90.00065248
_cell_angle_gamma   106.87432783
_symmetry_Int_Tables_number   1
_chemical_formula_structural   CaV5O7
_chemical_formula_sum   'Ca2 V10 O14'
_cell_volume   286.69268727
_cell_formula_units_Z   2
loop_
 _symmetry_equiv_pos_site_id
 _symmetry_equiv_pos_as_xyz
  1  'x, y, z'
loop_
 _atom_site_type_symbol
 _atom_site_label
 _atom_site_symmetry_multiplicity
 _atom_site_fract_x
 _atom_site_fract_y
 _atom_site_fract_z
 _atom_site_occupancy
  Ca  Ca0  1  0.78976000  0.57938400  0.74998200  1
  Ca  Ca1  1  0.20880400  0.41686000  0.25011200  1
  V  V0  1  0.72675900  0.45373600  0.42949700  1
  V  V1  1  0.72626900  0.45344100  0.07055800  1
  V  V2  1  0.45879400  0.91694900  0.15130800  1
  V  V3  1  0.45858800  0.91682900  0.34871400  1
  V  V4  1  0.00218500  0.00431000  0.49705400  1
  V  V5  1  0.00207900  0.00421500  0.00290400  1
  V  V6  1  0.27289500  0.54577500  0.57276700  1
  V  V7  1  0.27292900  0.54592000  0.92731600  1
  V  V8  1  0.54099100  0.08194400  0.84865200  1
  V  V9  1  0.54111700  0.08224500  0.65108600  1
  O  O0  1  0.45854200  0.91674800  0.74996300  1
  O  O1  1  0.53972500  0.07876100  0.25008400  1
  O  O2  1  0.63022300  0.26065600  0.95869700  1
  O  O3  1  0.36846700  0.73674300  0.03999200  1
  O  O4  1  0.36854700  0.73689700  0.45999200  1
  O  O5  1  0.63029400  0.26066500  0.54131500  1
  O  O6  1  0.16729100  0.33486600  0.82757100  1
  O  O7  1  0.83239700  0.66315700  0.17114900  1
  O  O8  1  0.83203800  0.66293600  0.32887100  1
  O  O9  1  0.16738200  0.33494700  0.67236400  1
  O  O10  1  0.91556400  0.83080600  0.89121800  1
  O  O11  1  0.08596900  0.17519200  0.11286100  1
  O  O12  1  0.08682700  0.17522300  0.38724200  1
  O  O13  1  0.91556800  0.83079500  0.60873300  1
loop_
_geom_bond_atom_site_label_1
_geom_bond_atom_site_label_2
_geom_bond_distance
_geom_bond_site_symmetry_2
Ca0 O0 2.324015 1_655
Ca0 O0 2.325113 1_555
Ca0 O9 2.435765 1_555
Ca0 O6 2.435969 1_555
Ca0 O6 2.436164 1_655
Ca0 O9 2.436200 1_655
Ca0 O10 2.851017 1_555
Ca0 O13 2.851471 1_555
Ca1 O1 2.326675 1_455
Ca1 O1 2.328068 1_555
Ca1 O8 2.451992 1_555
Ca1 O8 2.452288 1_455
Ca1 O7 2.454661 1_455
Ca1 O7 2.455380 1_555
Ca1 O12 2.762677 1_555
Ca1 O11 2.764438 1_555
O0 V8 1.968422 1_565
O0 V9 1.972322 1_565
O1 V3 1.960492 1_545
O1 V2 1.962436 1_545
O2 V8 2.182951 1_555
O2 V5 2.184032 1_556
O2 V5 2.185580 1_656
O2 V7 2.206243 1_655
O2 V7 2.207258 1_555
O2 V1 2.243522 1_556
O3 V5 2.175729 1_665
O3 V5 2.177549 1_565
O3 V1 2.195836 1_555
O3 V1 2.196900 1_455
O3 V2 2.206938 1_555
O3 V7 2.252313 1_554
O4 V4 2.175408 1_665
O4 V4 2.177003 1_565
O4 V0 2.195263 1_455
O4 V0 2.195705 1_555
O4 V3 2.205926 1_555
O4 V6 2.254792 1_555
O5 V9 2.178041 1_555
O5 V4 2.184013 1_555
O5 V4 2.185551 1_655
O5 V6 2.205889 1_655
O5 V6 2.207044 1_555
O5 V0 2.243682 1_555
O6 V8 2.057300 1_455
O6 V8 2.059329 1_555
O6 V7 2.096750 1_555
O7 V2 2.055324 1_655
O7 V2 2.058943 1_555
O7 V1 2.106301 1_555
O8 V3 2.055839 1_655
O8 V3 2.058990 1_555
O8 V0 2.105708 1_555
O9 V9 2.057359 1_455
O9 V9 2.059049 1_555
O9 V6 2.094088 1_555
O10 V8 2.156952 1_665
O10 V8 2.158787 1_565
O10 V5 2.198663 1_666
O10 V7 2.228495 1_555
O10 V7 2.228988 1_655
O11 V2 2.149890 1_445
O11 V2 2.159836 1_545
O11 V5 2.165156 1_555
O11 V1 2.240147 1_455
O11 V1 2.243919 1_555
O12 V3 2.152931 1_445
O12 V3 2.158476 1_545
O12 V4 2.162820 1_555
O12 V0 2.241689 1_455
O12 V0 2.243285 1_555
O13 V9 2.156352 1_665
O13 V9 2.158366 1_565
O13 V4 2.198959 1_665
O13 V6 2.228081 1_555
O13 V6 2.228720 1_655
