# generated using pymatgen
data_Li9Mn2Co5O16
_symmetry_space_group_name_H-M   'P 1'
_cell_length_a   5.04499700
_cell_length_b   6.58957371
_cell_length_c   8.89707010
_cell_angle_alpha   97.82224007
_cell_angle_beta   96.29207072
_cell_angle_gamma   97.54886918
_symmetry_Int_Tables_number   1
_chemical_formula_structural   Li9Mn2Co5O16
_chemical_formula_sum   'Li9 Mn2 Co5 O16'
_cell_volume   288.02838585
_cell_formula_units_Z   1
loop_
 _symmetry_equiv_pos_site_id
 _symmetry_equiv_pos_as_xyz
  1  'x, y, z'
loop_
 _atom_site_type_symbol
 _atom_site_label
 _atom_site_symmetry_multiplicity
 _atom_site_fract_x
 _atom_site_fract_y
 _atom_site_fract_z
 _atom_site_occupancy
  Li  Li0  1  0.74354000  0.93649000  0.06080100  1
  Li  Li1  1  0.74522800  0.43747400  0.56602300  1
  Li  Li2  1  0.25797600  0.80919700  0.18299100  1
  Li  Li3  1  0.25038300  0.31243300  0.69032800  1
  Li  Li4  1  0.74961700  0.68756700  0.30967200  1
  Li  Li5  1  0.74202400  0.19080300  0.81700900  1
  Li  Li6  1  0.25646000  0.06351000  0.93919900  1
  Li  Li7  1  0.25477200  0.56252600  0.43397700  1
  Li  Li8  1  0.50000000  0.50000000  0.00000000  1
  Mn  Mn0  1  0.00249700  0.62426200  0.87951400  1
  Mn  Mn1  1  0.99750300  0.37573800  0.12048600  1
  Co  Co0  1  0.00520700  0.12962500  0.37417600  1
  Co  Co1  1  0.50000000  0.00000000  0.50000000  1
  Co  Co2  1  0.99479300  0.87037500  0.62582400  1
  Co  Co3  1  0.49946500  0.25756600  0.24236800  1
  Co  Co4  1  0.50053500  0.74243400  0.75763200  1
  O  O0  1  0.87965500  0.88548300  0.84267300  1
  O  O1  1  0.87986100  0.40210300  0.32451000  1
  O  O2  1  0.35461200  0.77273600  0.95888100  1
  O  O3  1  0.35985600  0.27010500  0.46297200  1
  O  O4  1  0.89554000  0.63918800  0.08306300  1
  O  O5  1  0.86053900  0.14223500  0.58527700  1
  O  O6  1  0.36618300  0.01003000  0.71273900  1
  O  O7  1  0.36097700  0.50771900  0.21541400  1
  O  O8  1  0.63381700  0.98997000  0.28726100  1
  O  O9  1  0.63902300  0.49228100  0.78458600  1
  O  O10  1  0.13946100  0.85776500  0.41472300  1
  O  O11  1  0.10446000  0.36081200  0.91693700  1
  O  O12  1  0.64014400  0.72989500  0.53702800  1
  O  O13  1  0.64538800  0.22726400  0.04111900  1
  O  O14  1  0.12034500  0.11451700  0.15732700  1
  O  O15  1  0.12013900  0.59789700  0.67549000  1
loop_
_geom_bond_atom_site_label_1
_geom_bond_atom_site_label_2
_geom_bond_distance
_geom_bond_site_symmetry_2
Li0 O13 2.066114 1_565
Li0 O14 2.123548 1_665
Li0 O0 2.127451 1_554
Li0 O8 2.143036 1_555
Li0 O2 2.150350 1_554
Li0 O4 2.220895 1_555
Li1 O9 2.070491 1_555
Li1 O15 2.105745 1_655
Li1 O12 2.105802 1_555
Li1 O5 2.125789 1_555
Li1 O3 2.146520 1_555
Li1 O1 2.314738 1_555
Li2 O4 2.055041 1_455
Li2 O2 2.093941 1_554
Li2 O8 2.143607 1_555
Li2 O7 2.166619 1_555
Li2 O10 2.202623 1_555
Li2 O14 2.244873 1_565
Li3 O15 2.088302 1_555
Li3 O3 2.146236 1_555
Li3 O9 2.170397 1_555
Li3 O5 2.175255 1_455
Li3 O6 2.177254 1_555
Li3 O11 2.218226 1_555
Li4 O1 2.088302 1_555
Li4 O12 2.146236 1_555
Li4 O7 2.170397 1_555
Li4 O10 2.175255 1_655
Li4 O8 2.177254 1_555
Li4 O4 2.218226 1_555
Li5 O11 2.055041 1_655
Li5 O13 2.093941 1_556
Li5 O6 2.143607 1_555
Li5 O9 2.166619 1_555
Li5 O5 2.202623 1_555
Li5 O0 2.244873 1_545
Li6 O2 2.066114 1_545
Li6 O0 2.123548 1_445
Li6 O14 2.127451 1_556
Li6 O6 2.143036 1_555
Li6 O13 2.150350 1_556
Li6 O11 2.220895 1_555
Li7 O7 2.070491 1_555
Li7 O1 2.105745 1_455
Li7 O3 2.105802 1_555
Li7 O10 2.125789 1_555
Li7 O12 2.146520 1_555
Li7 O15 2.314738 1_555
Li8 O2 2.090052 1_554
Li8 O13 2.090052 1_555
Li8 O11 2.093027 1_554
Li8 O4 2.093027 1_555
Li8 O9 2.108356 1_554
Li8 O7 2.108356 1_555
Mn0 O2 1.921421 1_555
Mn0 O11 1.934858 1_555
Mn0 O4 1.939118 1_456
Mn0 O0 1.960573 1_455
Mn0 O15 1.963373 1_555
Mn0 O9 1.968200 1_455
Mn1 O13 1.921421 1_555
Mn1 O4 1.934858 1_555
Mn1 O11 1.939118 1_654
Mn1 O14 1.960573 1_655
Mn1 O1 1.963373 1_555
Mn1 O7 1.968200 1_655
Co0 O3 1.933452 1_555
Co0 O8 1.997784 1_445
Co0 O10 2.058959 1_545
Co0 O1 2.066897 1_455
Co0 O14 2.068371 1_555
Co0 O5 2.083523 1_455
Co1 O10 1.954122 1_545
Co1 O5 1.954122 1_555
Co1 O3 2.053186 1_555
Co1 O12 2.053186 1_545
Co1 O8 2.073744 1_545
Co1 O6 2.073744 1_555
Co2 O12 1.933452 1_555
Co2 O6 1.997784 1_665
Co2 O5 2.058959 1_565
Co2 O15 2.066897 1_655
Co2 O0 2.068371 1_555
Co2 O10 2.083523 1_655
Co3 O7 1.906923 1_555
Co3 O13 2.004508 1_555
Co3 O14 2.033282 1_555
Co3 O1 2.036426 1_555
Co3 O8 2.043217 1_545
Co3 O3 2.151597 1_555
Co4 O9 1.906923 1_555
Co4 O2 2.004508 1_555
Co4 O0 2.033282 1_555
Co4 O15 2.036426 1_555
Co4 O6 2.043217 1_565
Co4 O12 2.151597 1_555
