# generated using pymatgen
data_Al(CuO2)2
_symmetry_space_group_name_H-M   'P 1'
_cell_length_a   6.11585818
_cell_length_b   6.11585818
_cell_length_c   6.11585818
_cell_angle_alpha   129.59943603
_cell_angle_beta   129.59943603
_cell_angle_gamma   74.04794896
_symmetry_Int_Tables_number   1
_chemical_formula_structural   Al(CuO2)2
_chemical_formula_sum   'Al2 Cu4 O8'
_cell_volume   132.44085731
_cell_formula_units_Z   2
loop_
 _symmetry_equiv_pos_site_id
 _symmetry_equiv_pos_as_xyz
  1  'x, y, z'
loop_
 _atom_site_type_symbol
 _atom_site_label
 _atom_site_symmetry_multiplicity
 _atom_site_fract_x
 _atom_site_fract_y
 _atom_site_fract_z
 _atom_site_occupancy
  Al  Al0  1  0.00000000  0.00000000  0.00000000  1
  Al  Al1  1  0.75000000  0.25000000  0.50000000  1
  Cu  Cu0  1  0.37500000  0.12500000  0.75000000  1
  Cu  Cu1  1  0.37500000  0.62500000  0.25000000  1
  Cu  Cu2  1  0.87500000  0.62500000  0.25000000  1
  Cu  Cu3  1  0.37500000  0.62500000  0.75000000  1
  O  O0  1  0.14336300  0.65123800  0.87038900  1
  O  O1  1  0.78084900  0.27297500  0.12961100  1
  O  O2  1  0.60663700  0.59876300  0.62961100  1
  O  O3  1  0.96915100  0.97702500  0.37038900  1
  O  O4  1  0.40123800  0.03084900  0.00787400  1
  O  O5  1  0.02297500  0.39336300  0.99212600  1
  O  O6  1  0.72702500  0.85663700  0.50787400  1
  O  O7  1  0.34876300  0.21915100  0.49212600  1
loop_
_geom_bond_atom_site_label_1
_geom_bond_atom_site_label_2
_geom_bond_distance
_geom_bond_site_symmetry_2
Al0 O0 1.910315 1_544
Al0 O1 1.910318 1_455
Al0 O7 1.910320 1_555
Al0 O6 1.910320 1_444
Al1 O4 1.910318 1_555
Al1 O3 1.910318 1_545
Al1 O5 1.910320 1_655
Al1 O2 1.910320 1_555
Cu0 O1 1.892036 1_556
Cu0 O3 1.892036 1_445
Cu0 O4 1.904971 1_556
Cu0 O7 1.904974 1_555
Cu1 O2 1.892032 1_555
Cu1 O0 1.892036 1_554
Cu1 O6 1.904974 1_555
Cu1 O5 1.904974 1_554
Cu2 O5 1.892037 1_654
Cu2 O6 1.892037 1_555
Cu2 O3 1.904971 1_555
Cu2 O1 1.904971 1_555
Cu3 O4 1.892036 1_566
Cu3 O7 1.892037 1_555
Cu3 O0 1.904977 1_555
Cu3 O2 1.904979 1_555
