# generated using pymatgen
data_BaCa3
_symmetry_space_group_name_H-M   'P 1'
_cell_length_a   8.23144097
_cell_length_b   8.23144152
_cell_length_c   6.68776230
_cell_angle_alpha   90.00000000
_cell_angle_beta   90.00000000
_cell_angle_gamma   119.99999200
_symmetry_Int_Tables_number   1
_chemical_formula_structural   BaCa3
_chemical_formula_sum   'Ba2 Ca6'
_cell_volume   392.43095804
_cell_formula_units_Z   2
loop_
 _symmetry_equiv_pos_site_id
 _symmetry_equiv_pos_as_xyz
  1  'x, y, z'
loop_
 _atom_site_type_symbol
 _atom_site_label
 _atom_site_symmetry_multiplicity
 _atom_site_fract_x
 _atom_site_fract_y
 _atom_site_fract_z
 _atom_site_occupancy
  Ba  Ba0  1  0.33333300  0.66666700  0.75000000  1
  Ba  Ba1  1  0.66666700  0.33333300  0.25000000  1
  Ca  Ca0  1  0.16149051  0.32298201  0.25000000  1
  Ca  Ca1  1  0.67701799  0.83850949  0.25000000  1
  Ca  Ca2  1  0.16149151  0.83850949  0.25000000  1
  Ca  Ca3  1  0.83850949  0.67701799  0.75000000  1
  Ca  Ca4  1  0.32298201  0.16149151  0.75000000  1
  Ca  Ca5  1  0.83850849  0.16149051  0.75000000  1
loop_
_geom_bond_atom_site_label_1
_geom_bond_atom_site_label_2
_geom_bond_distance
_geom_bond_site_symmetry_2
Ba0 Ca3 4.116374 1_455
Ba0 Ca5 4.116379 1_565
Ba0 Ca4 4.116382 1_555
Ba0 Ca4 4.116382 1_565
Ba0 Ca5 4.116387 1_455
Ba0 Ca3 4.116390 1_555
Ba0 Ca2 4.145363 1_555
Ba0 Ca2 4.145363 1_556
Ba0 Ca1 4.145367 1_556
Ba0 Ca1 4.145367 1_555
Ba0 Ca0 4.145367 1_555
Ba0 Ca0 4.145367 1_556
Ba1 Ca0 4.116374 1_655
Ba1 Ca1 4.116374 1_545
Ba1 Ca2 4.116379 1_545
Ba1 Ca2 4.116387 1_655
Ba1 Ca0 4.116390 1_555
Ba1 Ca1 4.116390 1_555
Ba1 Ca5 4.145363 1_554
Ba1 Ca5 4.145363 1_555
Ba1 Ca4 4.145367 1_555
Ba1 Ca4 4.145367 1_554
Ba1 Ca3 4.145367 1_555
Ba1 Ca3 4.145367 1_554
Ca0 Ca1 3.987908 1_445
Ca0 Ca2 3.987911 1_545
Ca0 Ca4 4.059887 1_555
Ca0 Ca4 4.059887 1_554
Ca0 Ca5 4.059888 1_454
Ca0 Ca5 4.059888 1_455
Ca0 Ca2 4.243530 1_555
Ca0 Ca1 4.243535 1_555
Ca1 Ca2 3.987915 1_655
Ca1 Ca5 4.059884 1_565
Ca1 Ca5 4.059884 1_564
Ca1 Ca3 4.059891 1_555
Ca1 Ca3 4.059891 1_554
Ca1 Ca2 4.243526 1_555
Ca2 Ca3 4.059888 1_455
Ca2 Ca3 4.059888 1_454
Ca2 Ca4 4.059888 1_564
Ca2 Ca4 4.059888 1_565
Ca3 Ca5 3.987911 1_565
Ca3 Ca4 3.987912 1_665
Ca3 Ca5 4.243530 1_555
Ca3 Ca4 4.243531 1_555
Ca4 Ca5 3.987911 1_455
Ca4 Ca5 4.243530 1_555
