# generated using pymatgen
data_Tb2VFeO6
_symmetry_space_group_name_H-M   'P 1'
_cell_length_a   5.67189100
_cell_length_b   5.36070900
_cell_length_c   9.41232826
_cell_angle_alpha   55.22685677
_cell_angle_beta   90.00000000
_cell_angle_gamma   90.00000000
_symmetry_Int_Tables_number   1
_chemical_formula_structural   Tb2VFeO6
_chemical_formula_sum   'Tb4 V2 Fe2 O12'
_cell_volume   235.07728555
_cell_formula_units_Z   2
loop_
 _symmetry_equiv_pos_site_id
 _symmetry_equiv_pos_as_xyz
  1  'x, y, z'
loop_
 _atom_site_type_symbol
 _atom_site_label
 _atom_site_symmetry_multiplicity
 _atom_site_fract_x
 _atom_site_fract_y
 _atom_site_fract_z
 _atom_site_occupancy
  Tb  Tb0  1  0.56957500  0.72989100  0.75033400  1
  Tb  Tb1  1  0.06957500  0.27010900  0.74966600  1
  Tb  Tb2  1  0.43042500  0.27010900  0.24966600  1
  Tb  Tb3  1  0.93042500  0.72989100  0.25033400  1
  V  V0  1  0.00000000  0.00000000  0.50000000  1
  V  V1  1  0.50000000  0.00000000  0.00000000  1
  Fe  Fe0  1  0.00000000  0.50000000  0.00000000  1
  Fe  Fe1  1  0.50000000  0.50000000  0.50000000  1
  O  O0  1  0.95969200  0.86256200  0.75121200  1
  O  O1  1  0.45969200  0.13743800  0.74878800  1
  O  O2  1  0.04030800  0.13743800  0.24878800  1
  O  O3  1  0.54030800  0.86256200  0.25121200  1
  O  O4  1  0.80355100  0.24788300  0.94289400  1
  O  O5  1  0.30355100  0.75211700  0.55710600  1
  O  O6  1  0.19736700  0.37005200  0.44200200  1
  O  O7  1  0.69736700  0.62994800  0.05799800  1
  O  O8  1  0.19644900  0.75211700  0.05710600  1
  O  O9  1  0.69644900  0.24788300  0.44289400  1
  O  O10  1  0.80263300  0.62994800  0.55799800  1
  O  O11  1  0.30263300  0.37005200  0.94200200  1
loop_
_geom_bond_atom_site_label_1
_geom_bond_atom_site_label_2
_geom_bond_distance
_geom_bond_site_symmetry_2
Fe0 O2 2.030228 1_555
Fe0 O0 2.030228 1_454
Fe0 O11 2.040445 1_554
Fe0 O7 2.040445 1_455
Fe0 O8 2.045893 1_555
Fe0 O4 2.045893 1_454
Fe1 O3 2.030228 1_555
Fe1 O1 2.030228 1_555
Fe1 O6 2.040445 1_555
Fe1 O10 2.040445 1_555
Fe1 O5 2.045893 1_555
Fe1 O9 2.045893 1_555
O0 V0 2.049096 1_665
O0 Tb1 2.263951 1_665
O0 Tb0 2.325648 1_555
O1 V1 2.049096 1_556
O1 Tb0 2.263951 1_545
O1 Tb1 2.325648 1_555
O2 V0 2.049096 1_555
O2 Tb3 2.263951 1_445
O2 Tb2 2.325648 1_555
O3 V1 2.049096 1_565
O3 Tb2 2.263951 1_565
O3 Tb3 2.325648 1_555
O4 V1 2.050430 1_556
O4 Tb1 2.313318 1_655
O4 Tb0 2.526018 1_555
O4 Tb3 2.727014 1_546
O5 V0 2.050430 1_565
O5 Tb0 2.313318 1_555
O5 Tb1 2.526018 1_555
O5 Tb2 2.727014 1_565
O6 V0 2.061832 1_555
O6 Tb3 2.301849 1_455
O6 Tb2 2.533385 1_555
O6 Tb1 2.725537 1_555
O7 V1 2.061832 1_565
O7 Tb2 2.301849 1_555
O7 Tb3 2.533385 1_555
O7 Tb0 2.725537 1_554
O8 V1 2.050430 1_565
O8 Tb3 2.313318 1_455
O8 Tb2 2.526018 1_555
O8 Tb1 2.727014 1_564
O9 V0 2.050430 1_655
O9 Tb2 2.313318 1_555
O9 Tb3 2.526018 1_555
O9 Tb0 2.727014 1_545
O10 V0 2.061832 1_665
O10 Tb1 2.301849 1_655
O10 Tb0 2.533385 1_555
O10 Tb3 2.725537 1_555
O11 V1 2.061832 1_556
O11 Tb0 2.301849 1_555
O11 Tb1 2.533385 1_555
O11 Tb2 2.725537 1_556
