# generated using pymatgen
data_USnRh2
_symmetry_space_group_name_H-M   'P 1'
_cell_length_a   4.41804000
_cell_length_b   7.01680400
_cell_length_c   9.85251100
_cell_angle_alpha   90.00000000
_cell_angle_beta   90.00000000
_cell_angle_gamma   90.00000000
_symmetry_Int_Tables_number   1
_chemical_formula_structural   USnRh2
_chemical_formula_sum   'U4 Sn4 Rh8'
_cell_volume   305.43297164
_cell_formula_units_Z   4
loop_
 _symmetry_equiv_pos_site_id
 _symmetry_equiv_pos_as_xyz
  1  'x, y, z'
loop_
 _atom_site_type_symbol
 _atom_site_label
 _atom_site_symmetry_multiplicity
 _atom_site_fract_x
 _atom_site_fract_y
 _atom_site_fract_z
 _atom_site_occupancy
  U  U0  1  0.25000000  0.30853700  0.09868000  1
  U  U1  1  0.75000000  0.69146300  0.90132000  1
  U  U2  1  0.75000000  0.80853700  0.40132000  1
  U  U3  1  0.25000000  0.19146300  0.59868000  1
  Sn  Sn0  1  0.25000000  0.78805800  0.14012000  1
  Sn  Sn1  1  0.75000000  0.21194200  0.85988000  1
  Sn  Sn2  1  0.75000000  0.28805800  0.35988000  1
  Sn  Sn3  1  0.25000000  0.71194200  0.64012000  1
  Rh  Rh0  1  0.25000000  0.52697800  0.39051400  1
  Rh  Rh1  1  0.75000000  0.47302200  0.60948600  1
  Rh  Rh2  1  0.75000000  0.02697800  0.10948600  1
  Rh  Rh3  1  0.25000000  0.97302200  0.89051400  1
  Rh  Rh4  1  0.25000000  0.07607700  0.32132100  1
  Rh  Rh5  1  0.75000000  0.92392300  0.67867900  1
  Rh  Rh6  1  0.75000000  0.57607700  0.17867900  1
  Rh  Rh7  1  0.25000000  0.42392300  0.82132100  1
loop_
_geom_bond_atom_site_label_1
_geom_bond_atom_site_label_2
_geom_bond_distance
_geom_bond_site_symmetry_2
Sn0 U1 3.297687 1_454
Sn0 U1 3.297687 1_554
Sn0 U0 3.389386 1_555
Sn0 U2 3.394583 1_555
Sn0 U2 3.394583 1_455
Sn1 U0 3.297687 1_556
Sn1 U0 3.297687 1_656
Sn1 U1 3.389386 1_555
Sn1 U3 3.394583 1_555
Sn1 U3 3.394583 1_655
Sn2 U3 3.297687 1_655
Sn2 U3 3.297687 1_555
Sn2 U2 3.389386 1_545
Sn2 U0 3.394583 1_655
Sn2 U0 3.394583 1_555
Sn3 U2 3.297687 1_555
Sn3 U2 3.297687 1_455
Sn3 U3 3.389386 1_565
Sn3 U1 3.394583 1_555
Sn3 U1 3.394583 1_455
Rh0 Sn3 2.780705 1_555
Rh0 Sn2 2.789510 1_555
Rh0 Sn2 2.789510 1_455
Rh0 U2 2.965514 1_455
Rh0 U2 2.965514 1_555
Rh0 Sn0 3.072811 1_555
Rh0 U3 3.122321 1_555
Rh0 U0 3.258325 1_555
Rh1 Sn2 2.780705 1_555
Rh1 Sn3 2.789510 1_555
Rh1 Sn3 2.789510 1_655
Rh1 U3 2.965514 1_555
Rh1 U3 2.965514 1_655
Rh1 Sn1 3.072811 1_555
Rh1 U2 3.122321 1_555
Rh1 U1 3.258325 1_555
Rh2 Sn1 2.780705 1_554
Rh2 Sn0 2.789510 1_545
Rh2 Sn0 2.789510 1_645
Rh2 U0 2.965514 1_555
Rh2 U0 2.965514 1_655
Rh2 Sn2 3.072811 1_555
Rh2 U1 3.122321 1_544
Rh2 U2 3.258325 1_545
Rh3 Sn0 2.780705 1_556
Rh3 Sn1 2.789510 1_565
Rh3 Sn1 2.789510 1_465
Rh3 U1 2.965514 1_555
Rh3 U1 2.965514 1_455
Rh3 Sn3 3.072811 1_555
Rh3 U0 3.122321 1_566
Rh3 U3 3.258325 1_565
Rh4 Sn2 2.690082 1_555
Rh4 Sn2 2.690082 1_455
Rh4 Sn0 2.696585 1_545
Rh4 U0 2.733557 1_555
Rh4 U3 2.850100 1_555
Rh4 U2 3.004194 1_445
Rh4 U2 3.004194 1_545
Rh5 Sn3 2.690082 1_555
Rh5 Sn3 2.690082 1_655
Rh5 Sn1 2.696585 1_565
Rh5 U1 2.733557 1_555
Rh5 U2 2.850100 1_555
Rh5 U3 3.004194 1_565
Rh5 U3 3.004194 1_665
Rh6 Sn0 2.690082 1_655
Rh6 Sn0 2.690082 1_555
Rh6 Sn2 2.696585 1_555
Rh6 U2 2.733557 1_555
Rh6 U1 2.850100 1_554
Rh6 U0 3.004194 1_655
Rh6 U0 3.004194 1_555
Rh7 Sn1 2.690082 1_555
Rh7 Sn1 2.690082 1_455
Rh7 Sn3 2.696585 1_555
Rh7 U3 2.733557 1_555
Rh7 U0 2.850100 1_556
Rh7 U1 3.004194 1_555
Rh7 U1 3.004194 1_455
