# generated using pymatgen
data_CaYb3
_symmetry_space_group_name_H-M   'P 1'
_cell_length_a   13.66313326
_cell_length_b   13.66313326
_cell_length_c   7.58452600
_cell_angle_alpha   90.00000000
_cell_angle_beta   90.00000000
_cell_angle_gamma   112.41137540
_symmetry_Int_Tables_number   1
_chemical_formula_structural   CaYb3
_chemical_formula_sum   'Ca8 Yb24'
_cell_volume   1308.94694318
_cell_formula_units_Z   8
loop_
 _symmetry_equiv_pos_site_id
 _symmetry_equiv_pos_as_xyz
  1  'x, y, z'
loop_
 _atom_site_type_symbol
 _atom_site_label
 _atom_site_symmetry_multiplicity
 _atom_site_fract_x
 _atom_site_fract_y
 _atom_site_fract_z
 _atom_site_occupancy
  Ca  Ca0_0  1  0.25000000  0.25000000  0.13214050  1
  Ca  Ca0_1  1  0.25000000  0.25000000  0.63214050  1
  Ca  Ca0_2  1  0.25000000  0.75000000  0.13214050  1
  Ca  Ca0_3  1  0.25000000  0.75000000  0.63214050  1
  Ca  Ca0_4  1  0.75000000  0.25000000  0.13214050  1
  Ca  Ca0_5  1  0.75000000  0.25000000  0.63214050  1
  Ca  Ca0_6  1  0.75000000  0.75000000  0.13214050  1
  Ca  Ca0_7  1  0.75000000  0.75000000  0.63214050  1
  Yb  Yb0_0  1  0.25000000  0.00000000  0.38028650  1
  Yb  Yb0_1  1  0.25000000  0.00000000  0.88028650  1
  Yb  Yb0_2  1  0.25000000  0.50000000  0.38028650  1
  Yb  Yb0_3  1  0.25000000  0.50000000  0.88028650  1
  Yb  Yb0_4  1  0.75000000  0.00000000  0.38028650  1
  Yb  Yb0_5  1  0.75000000  0.00000000  0.88028650  1
  Yb  Yb0_6  1  0.75000000  0.50000000  0.38028650  1
  Yb  Yb0_7  1  0.75000000  0.50000000  0.88028650  1
  Yb  Yb1_0  1  0.00000000  0.25000000  0.38028650  1
  Yb  Yb1_1  1  0.00000000  0.25000000  0.88028650  1
  Yb  Yb1_2  1  0.00000000  0.75000000  0.38028650  1
  Yb  Yb1_3  1  0.00000000  0.75000000  0.88028650  1
  Yb  Yb1_4  1  0.50000000  0.25000000  0.38028650  1
  Yb  Yb1_5  1  0.50000000  0.25000000  0.88028650  1
  Yb  Yb1_6  1  0.50000000  0.75000000  0.38028650  1
  Yb  Yb1_7  1  0.50000000  0.75000000  0.88028650  1
  Yb  Yb2_0  1  0.00000000  0.00000000  0.11800050  1
  Yb  Yb2_1  1  0.00000000  0.00000000  0.61800050  1
  Yb  Yb2_2  1  0.00000000  0.50000000  0.11800050  1
  Yb  Yb2_3  1  0.00000000  0.50000000  0.61800050  1
  Yb  Yb2_4  1  0.50000000  0.00000000  0.11800050  1
  Yb  Yb2_5  1  0.50000000  0.00000000  0.61800050  1
  Yb  Yb2_6  1  0.50000000  0.50000000  0.11800050  1
  Yb  Yb2_7  1  0.50000000  0.50000000  0.61800050  1
loop_
_geom_bond_atom_site_label_1
_geom_bond_atom_site_label_2
_geom_bond_distance
_geom_bond_site_symmetry_2
Ca0_0 Ca0_1 3.792263 1_555
Ca0_0 Ca0_1 3.792263 1_554
Ca0_0 Yb2_0 3.801320 1_555
Ca0_0 Yb2_6 3.801320 1_555
Ca0_0 Yb0_0 3.899970 1_555
Ca0_0 Yb1_4 3.899970 1_555
Ca0_0 Yb0_2 3.899970 1_555
Ca0_0 Yb1_0 3.899970 1_555
Ca0_0 Yb0_1 3.913619 1_554
Ca0_0 Yb0_3 3.913619 1_554
Ca0_0 Yb1_1 3.913619 1_554
Ca0_0 Yb1_5 3.913619 1_554
Ca0_1 Yb2_7 3.801320 1_555
Ca0_1 Yb2_1 3.801320 1_555
Ca0_1 Yb0_1 3.899970 1_555
Ca0_1 Yb1_1 3.899970 1_555
Ca0_1 Yb0_3 3.899970 1_555
Ca0_1 Yb1_5 3.899970 1_555
Ca0_1 Yb0_0 3.913619 1_555
Ca0_1 Yb1_4 3.913619 1_555
Ca0_1 Yb0_2 3.913619 1_555
Ca0_1 Yb1_0 3.913619 1_555
Ca0_2 Ca0_3 3.792263 1_554
Ca0_2 Ca0_3 3.792263 1_555
Ca0_2 Yb2_2 3.801320 1_555
Ca0_2 Yb2_4 3.801320 1_565
Ca0_2 Yb0_2 3.899970 1_555
Ca0_2 Yb1_2 3.899970 1_555
Ca0_2 Yb1_6 3.899970 1_555
Ca0_2 Yb0_0 3.899970 1_565
Ca0_2 Yb1_3 3.913619 1_554
Ca0_2 Yb0_3 3.913619 1_554
Ca0_2 Yb1_7 3.913619 1_554
Ca0_2 Yb0_1 3.913619 1_564
Ca0_3 Yb2_3 3.801320 1_555
Ca0_3 Yb2_5 3.801320 1_565
Ca0_3 Yb1_3 3.899970 1_555
Ca0_3 Yb0_3 3.899970 1_555
Ca0_3 Yb1_7 3.899970 1_555
Ca0_3 Yb0_1 3.899970 1_565
Ca0_3 Yb1_2 3.913619 1_555
Ca0_3 Yb0_2 3.913619 1_555
Ca0_3 Yb1_6 3.913619 1_555
Ca0_3 Yb0_0 3.913619 1_565
Ca0_4 Ca0_5 3.792263 1_554
Ca0_4 Ca0_5 3.792263 1_555
Ca0_4 Yb2_4 3.801320 1_555
Ca0_4 Yb2_2 3.801320 1_655
Ca0_4 Yb0_6 3.899970 1_555
Ca0_4 Yb0_4 3.899970 1_555
Ca0_4 Yb1_0 3.899970 1_655
Ca0_4 Yb1_4 3.899970 1_555
Ca0_4 Yb0_5 3.913619 1_554
Ca0_4 Yb0_7 3.913619 1_554
Ca0_4 Yb1_1 3.913619 1_654
Ca0_4 Yb1_5 3.913619 1_554
Ca0_5 Yb2_5 3.801320 1_555
Ca0_5 Yb2_3 3.801320 1_655
Ca0_5 Yb0_5 3.899970 1_555
Ca0_5 Yb0_7 3.899970 1_555
Ca0_5 Yb1_1 3.899970 1_655
Ca0_5 Yb1_5 3.899970 1_555
Ca0_5 Yb0_6 3.913619 1_555
Ca0_5 Yb0_4 3.913619 1_555
Ca0_5 Yb1_0 3.913619 1_655
Ca0_5 Yb1_4 3.913619 1_555
Ca0_6 Ca0_7 3.792263 1_555
Ca0_6 Ca0_7 3.792263 1_554
Ca0_6 Yb2_6 3.801320 1_555
Ca0_6 Yb2_0 3.801320 1_665
Ca0_6 Yb1_6 3.899970 1_555
Ca0_6 Yb1_2 3.899970 1_655
Ca0_6 Yb0_6 3.899970 1_555
Ca0_6 Yb0_4 3.899970 1_565
Ca0_6 Yb1_7 3.913619 1_554
Ca0_6 Yb1_3 3.913619 1_654
Ca0_6 Yb0_7 3.913619 1_554
Ca0_6 Yb0_5 3.913619 1_564
Ca0_7 Yb2_7 3.801320 1_555
Ca0_7 Yb2_1 3.801320 1_665
Ca0_7 Yb1_7 3.899970 1_555
Ca0_7 Yb1_3 3.899970 1_655
Ca0_7 Yb0_7 3.899970 1_555
Ca0_7 Yb0_5 3.899970 1_565
Ca0_7 Yb1_6 3.913619 1_555
Ca0_7 Yb1_2 3.913619 1_655
Ca0_7 Yb0_6 3.913619 1_555
Ca0_7 Yb0_4 3.913619 1_565
Yb0_0 Yb0_1 3.792263 1_554
Yb0_0 Yb0_1 3.792263 1_555
Yb0_0 Yb1_4 3.799807 1_555
Yb0_0 Yb1_2 3.799807 1_545
Yb0_0 Yb2_1 3.862408 1_555
Yb0_0 Yb2_5 3.862408 1_555
Yb0_0 Yb2_0 3.952841 1_555
Yb0_0 Yb2_4 3.952841 1_555
Yb0_1 Yb1_5 3.799807 1_555
Yb0_1 Yb1_3 3.799807 1_545
Yb0_1 Yb2_0 3.862408 1_556
Yb0_1 Yb2_4 3.862408 1_556
Yb0_1 Yb2_1 3.952841 1_555
Yb0_1 Yb2_5 3.952841 1_555
Yb0_2 Yb0_3 3.792263 1_554
Yb0_2 Yb0_3 3.792263 1_555
Yb0_2 Yb1_6 3.799807 1_555
Yb0_2 Yb1_0 3.799807 1_555
Yb0_2 Yb2_3 3.862408 1_555
Yb0_2 Yb2_7 3.862408 1_555
Yb0_2 Yb2_2 3.952841 1_555
Yb0_2 Yb2_6 3.952841 1_555
Yb0_3 Yb1_7 3.799807 1_555
Yb0_3 Yb1_1 3.799807 1_555
Yb0_3 Yb2_2 3.862408 1_556
Yb0_3 Yb2_6 3.862408 1_556
Yb0_3 Yb2_3 3.952841 1_555
Yb0_3 Yb2_7 3.952841 1_555
Yb0_4 Yb0_5 3.792263 1_554
Yb0_4 Yb0_5 3.792263 1_555
Yb0_4 Yb1_0 3.799807 1_655
Yb0_4 Yb1_6 3.799807 1_545
Yb0_4 Yb2_5 3.862408 1_555
Yb0_4 Yb2_1 3.862408 1_655
Yb0_4 Yb2_4 3.952841 1_555
Yb0_4 Yb2_0 3.952841 1_655
Yb0_5 Yb1_1 3.799807 1_655
Yb0_5 Yb1_7 3.799807 1_545
Yb0_5 Yb2_4 3.862408 1_556
Yb0_5 Yb2_0 3.862408 1_656
Yb0_5 Yb2_5 3.952841 1_555
Yb0_5 Yb2_1 3.952841 1_655
Yb0_6 Yb0_7 3.792263 1_554
Yb0_6 Yb0_7 3.792263 1_555
Yb0_6 Yb1_4 3.799807 1_555
Yb0_6 Yb1_2 3.799807 1_655
Yb0_6 Yb2_3 3.862408 1_655
Yb0_6 Yb2_7 3.862408 1_555
Yb0_6 Yb2_2 3.952841 1_655
Yb0_6 Yb2_6 3.952841 1_555
Yb0_7 Yb1_5 3.799807 1_555
Yb0_7 Yb1_3 3.799807 1_655
Yb0_7 Yb2_2 3.862408 1_656
Yb0_7 Yb2_6 3.862408 1_556
Yb0_7 Yb2_3 3.952841 1_655
Yb0_7 Yb2_7 3.952841 1_555
Yb1_0 Yb1_1 3.792263 1_554
Yb1_0 Yb1_1 3.792263 1_555
Yb1_0 Yb2_3 3.862408 1_555
Yb1_0 Yb2_1 3.862408 1_555
Yb1_0 Yb2_2 3.952841 1_555
Yb1_0 Yb2_0 3.952841 1_555
Yb1_1 Yb2_2 3.862408 1_556
Yb1_1 Yb2_0 3.862408 1_556
Yb1_1 Yb2_1 3.952841 1_555
Yb1_1 Yb2_3 3.952841 1_555
Yb1_2 Yb1_3 3.792263 1_554
Yb1_2 Yb1_3 3.792263 1_555
Yb1_2 Yb2_3 3.862408 1_555
Yb1_2 Yb2_1 3.862408 1_565
Yb1_2 Yb2_2 3.952841 1_555
Yb1_2 Yb2_0 3.952841 1_565
Yb1_3 Yb2_2 3.862408 1_556
Yb1_3 Yb2_0 3.862408 1_566
Yb1_3 Yb2_3 3.952841 1_555
Yb1_3 Yb2_1 3.952841 1_565
Yb1_4 Yb1_5 3.792263 1_554
Yb1_4 Yb1_5 3.792263 1_555
Yb1_4 Yb2_7 3.862408 1_555
Yb1_4 Yb2_5 3.862408 1_555
Yb1_4 Yb2_6 3.952841 1_555
Yb1_4 Yb2_4 3.952841 1_555
Yb1_5 Yb2_6 3.862408 1_556
Yb1_5 Yb2_4 3.862408 1_556
Yb1_5 Yb2_7 3.952841 1_555
Yb1_5 Yb2_5 3.952841 1_555
Yb1_6 Yb1_7 3.792263 1_554
Yb1_6 Yb1_7 3.792263 1_555
Yb1_6 Yb2_7 3.862408 1_555
Yb1_6 Yb2_5 3.862408 1_565
Yb1_6 Yb2_6 3.952841 1_555
Yb1_6 Yb2_4 3.952841 1_565
Yb1_7 Yb2_6 3.862408 1_556
Yb1_7 Yb2_4 3.862408 1_566
Yb1_7 Yb2_7 3.952841 1_555
Yb1_7 Yb2_5 3.952841 1_565
Yb2_0 Yb2_1 3.792263 1_554
Yb2_0 Yb2_1 3.792263 1_555
Yb2_2 Yb2_3 3.792263 1_554
Yb2_2 Yb2_3 3.792263 1_555
Yb2_4 Yb2_5 3.792263 1_554
Yb2_4 Yb2_5 3.792263 1_555
Yb2_6 Yb2_7 3.792263 1_554
Yb2_6 Yb2_7 3.792263 1_555
