# generated using pymatgen
data_CaSm2S3
_symmetry_space_group_name_H-M   'P 1'
_cell_length_a   4.01523753
_cell_length_b   4.01523753
_cell_length_c   9.82837050
_cell_angle_alpha   90.00000000
_cell_angle_beta   90.00000000
_cell_angle_gamma   119.99998921
_symmetry_Int_Tables_number   1
_chemical_formula_structural   CaSm2S3
_chemical_formula_sum   'Ca1 Sm2 S3'
_cell_volume   137.22545567
_cell_formula_units_Z   1
loop_
 _symmetry_equiv_pos_site_id
 _symmetry_equiv_pos_as_xyz
  1  'x, y, z'
loop_
 _atom_site_type_symbol
 _atom_site_label
 _atom_site_symmetry_multiplicity
 _atom_site_fract_x
 _atom_site_fract_y
 _atom_site_fract_z
 _atom_site_occupancy
  Ca  Ca0  1  -0.00000000  0.00000000  -0.00000000  1
  Sm  Sm0  1  0.33333300  0.66666700  0.65599429  1
  Sm  Sm1  1  0.66666700  0.33333300  0.34400571  1
  S  S0  1  0.33333300  0.66666700  0.16590221  1
  S  S1  1  0.66666700  0.33333300  0.83409779  1
  S  S2  1  -0.00000000  0.00000000  0.50000000  1
loop_
_geom_bond_atom_site_label_1
_geom_bond_atom_site_label_2
_geom_bond_distance
_geom_bond_site_symmetry_2
Ca0 S0 2.834206 1_545
Ca0 S1 2.834206 1_454
Ca0 S0 2.834209 1_445
Ca0 S0 2.834209 1_555
Ca0 S1 2.834209 1_554
Ca0 S1 2.834209 1_444
S0 Sm1 2.904853 1_455
S0 Sm1 2.904853 1_565
S0 Sm1 2.904858 1_555
S1 Sm0 2.904853 1_545
S1 Sm0 2.904853 1_655
S1 Sm0 2.904858 1_555
S2 Sm0 2.779324 1_545
S2 Sm1 2.779324 1_455
S2 Sm1 2.779327 1_445
S2 Sm0 2.779327 1_445
S2 Sm1 2.779327 1_555
S2 Sm0 2.779327 1_555
