# generated using pymatgen
data_FeH16C4N2Cl5
_symmetry_space_group_name_H-M   'P 1'
_cell_length_a   10.85950600
_cell_length_b   16.02186500
_cell_length_c   11.52859706
_cell_angle_alpha   90.00000000
_cell_angle_beta   113.39165532
_cell_angle_gamma   90.00000000
_symmetry_Int_Tables_number   1
_chemical_formula_structural   FeH16C4N2Cl5
_chemical_formula_sum   'Fe4 H64 C16 N8 Cl20'
_cell_volume   1840.99897226
_cell_formula_units_Z   4
loop_
 _symmetry_equiv_pos_site_id
 _symmetry_equiv_pos_as_xyz
  1  'x, y, z'
loop_
 _atom_site_type_symbol
 _atom_site_label
 _atom_site_symmetry_multiplicity
 _atom_site_fract_x
 _atom_site_fract_y
 _atom_site_fract_z
 _atom_site_occupancy
  Fe  Fe0  1  0.23517000  0.87616800  0.36056500  1
  Fe  Fe1  1  0.76483000  0.37616800  0.13943500  1
  Fe  Fe2  1  0.76483000  0.12383200  0.63943500  1
  Fe  Fe3  1  0.23517000  0.62383200  0.86056500  1
  H  H0  1  0.60751400  0.72404400  0.32774800  1
  H  H1  1  0.39248600  0.22404400  0.17225200  1
  H  H2  1  0.39248600  0.27595600  0.67225200  1
  H  H3  1  0.60751400  0.77595600  0.82774800  1
  H  H4  1  0.60758600  0.77903300  0.20147300  1
  H  H5  1  0.39241400  0.27903300  0.29852700  1
  H  H6  1  0.39241400  0.22096700  0.79852700  1
  H  H7  1  0.60758600  0.72096700  0.70147300  1
  H  H8  1  0.64782600  0.09552300  0.04210300  1
  H  H9  1  0.35217400  0.59552300  0.45789700  1
  H  H10  1  0.35217400  0.90447700  0.95789700  1
  H  H11  1  0.64782600  0.40447700  0.54210300  1
  H  H12  1  0.68078900  0.99317700  0.05872900  1
  H  H13  1  0.31921100  0.49317700  0.44127100  1
  H  H14  1  0.31921100  0.00682300  0.94127100  1
  H  H15  1  0.68078900  0.50682300  0.55872900  1
  H  H16  1  0.83527100  0.81974900  0.31568200  1
  H  H17  1  0.16472900  0.31974900  0.18431800  1
  H  H18  1  0.16472900  0.18025100  0.68431800  1
  H  H19  1  0.83527100  0.68025100  0.81568200  1
  H  H20  1  0.72976800  0.85006100  0.39567900  1
  H  H21  1  0.27023200  0.35006100  0.10432100  1
  H  H22  1  0.27023200  0.14993900  0.60432100  1
  H  H23  1  0.72976800  0.64993900  0.89567900  1
  H  H24  1  0.83693100  0.76043100  0.44865900  1
  H  H25  1  0.16306900  0.26043100  0.05134100  1
  H  H26  1  0.16306900  0.23956900  0.55134100  1
  H  H27  1  0.83693100  0.73956900  0.94865900  1
  H  H28  1  0.77877200  0.63307200  0.31817600  1
  H  H29  1  0.22122800  0.13307200  0.18182400  1
  H  H30  1  0.22122800  0.36692800  0.68182400  1
  H  H31  1  0.77877200  0.86692800  0.81817600  1
  H  H32  1  0.62824300  0.63157700  0.17694200  1
  H  H33  1  0.37175700  0.13157700  0.32305800  1
  H  H34  1  0.37175700  0.36842300  0.82305800  1
  H  H35  1  0.62824300  0.86842300  0.67694200  1
  H  H36  1  0.77136700  0.68941800  0.18065600  1
  H  H37  1  0.22863300  0.18941800  0.31934400  1
  H  H38  1  0.22863300  0.31058200  0.81934400  1
  H  H39  1  0.77136700  0.81058200  0.68065600  1
  H  H40  1  0.78518600  0.12125900  0.26208300  1
  H  H41  1  0.21481400  0.62125900  0.23791700  1
  H  H42  1  0.21481400  0.87874100  0.73791700  1
  H  H43  1  0.78518600  0.37874100  0.76208300  1
  H  H44  1  0.65160500  0.04866700  0.23733200  1
  H  H45  1  0.34839500  0.54866700  0.26266800  1
  H  H46  1  0.34839500  0.95133300  0.76266800  1
  H  H47  1  0.65160500  0.45133300  0.73733200  1
  H  H48  1  0.82043400  0.01177600  0.28008500  1
  H  H49  1  0.17956600  0.51177600  0.21991500  1
  H  H50  1  0.17956600  0.98822400  0.71991500  1
  H  H51  1  0.82043400  0.48822400  0.78008500  1
  H  H52  1  0.91572000  0.01534600  0.11477700  1
  H  H53  1  0.08428000  0.51534600  0.38522300  1
  H  H54  1  0.08428000  0.98465400  0.88522300  1
  H  H55  1  0.91572000  0.48465400  0.61477700  1
  H  H56  1  0.81785300  0.06396800  0.96523300  1
  H  H57  1  0.18214700  0.56396800  0.53476700  1
  H  H58  1  0.18214700  0.93603200  0.03476700  1
  H  H59  1  0.81785300  0.43603200  0.46523300  1
  H  H60  1  0.88815500  0.12597600  0.10516400  1
  H  H61  1  0.11184500  0.62597600  0.39483600  1
  H  H62  1  0.11184500  0.87402400  0.89483600  1
  H  H63  1  0.88815500  0.37402400  0.60516400  1
  C  C0  1  0.77530400  0.79765600  0.36655300  1
  C  C1  1  0.22469600  0.29765600  0.13344700  1
  C  C2  1  0.22469600  0.20234400  0.63344700  1
  C  C3  1  0.77530400  0.70234400  0.86655300  1
  C  C4  1  0.71480800  0.66883000  0.23549000  1
  C  C5  1  0.28519200  0.16883000  0.26451000  1
  C  C6  1  0.28519200  0.33117000  0.76451000  1
  C  C7  1  0.71480800  0.83117000  0.73549000  1
  C  C8  1  0.74646900  0.05901000  0.22778700  1
  C  C9  1  0.25353100  0.55901000  0.27221300  1
  C  C10  1  0.25353100  0.94099000  0.77221300  1
  C  C11  1  0.74646900  0.44099000  0.72778700  1
  C  C12  1  0.84474700  0.06528800  0.06710800  1
  C  C13  1  0.15525300  0.56528800  0.43289200  1
  C  C14  1  0.15525300  0.93471200  0.93289200  1
  C  C15  1  0.84474700  0.43471200  0.56710800  1
  N  N0  1  0.66550200  0.74386500  0.28001500  1
  N  N1  1  0.33449800  0.24386500  0.21998500  1
  N  N2  1  0.33449800  0.25613500  0.71998500  1
  N  N3  1  0.66550200  0.75613500  0.78001500  1
  N  N4  1  0.72160800  0.05253800  0.09164900  1
  N  N5  1  0.27839200  0.55253800  0.40835100  1
  N  N6  1  0.27839200  0.94746200  0.90835100  1
  N  N7  1  0.72160800  0.44746200  0.59164900  1
  Cl  Cl0  1  0.15880000  0.99242900  0.41097600  1
  Cl  Cl1  1  0.84120000  0.49242900  0.08902400  1
  Cl  Cl2  1  0.84120000  0.00757100  0.58902400  1
  Cl  Cl3  1  0.15880000  0.50757100  0.91097600  1
  Cl  Cl4  1  0.30773400  0.79080100  0.52366100  1
  Cl  Cl5  1  0.69226600  0.29080100  0.97633900  1
  Cl  Cl6  1  0.69226600  0.20919900  0.47633900  1
  Cl  Cl7  1  0.30773400  0.70919900  0.02366100  1
  Cl  Cl8  1  0.06622800  0.81703600  0.20373700  1
  Cl  Cl9  1  0.93377200  0.31703600  0.29626300  1
  Cl  Cl10  1  0.93377200  0.18296400  0.79626300  1
  Cl  Cl11  1  0.06622800  0.68296400  0.70373700  1
  Cl  Cl12  1  0.39901200  0.90541900  0.29932700  1
  Cl  Cl13  1  0.60098800  0.40541900  0.20067300  1
  Cl  Cl14  1  0.60098800  0.09458100  0.70067300  1
  Cl  Cl15  1  0.39901200  0.59458100  0.79932700  1
  Cl  Cl16  1  0.60022700  0.86633500  0.01425300  1
  Cl  Cl17  1  0.39977300  0.36633500  0.48574700  1
  Cl  Cl18  1  0.39977300  0.13366500  0.98574700  1
  Cl  Cl19  1  0.60022700  0.63366500  0.51425300  1
loop_
_geom_bond_atom_site_label_1
_geom_bond_atom_site_label_2
_geom_bond_distance
_geom_bond_site_symmetry_2
H0 N0 1.037005 1_555
H1 N1 1.037005 1_555
H2 N2 1.037005 1_555
H3 N3 1.037005 1_555
H4 N0 1.039590 1_555
H5 N1 1.039590 1_555
H6 N2 1.039590 1_555
H7 N3 1.039590 1_555
H8 N4 1.038823 1_555
H9 N5 1.038823 1_555
H10 N6 1.038823 1_555
H11 N7 1.038823 1_555
H12 N4 1.054272 1_565
H13 N5 1.054272 1_555
H14 N6 1.054272 1_545
H15 N7 1.054272 1_555
C0 H20 1.092746 1_555
C0 H16 1.093880 1_555
C0 H24 1.093882 1_555
C0 N0 1.488391 1_555
C1 H21 1.092746 1_555
C1 H17 1.093880 1_555
C1 H25 1.093882 1_555
C1 N1 1.488391 1_555
C2 H22 1.092746 1_555
C2 H18 1.093880 1_555
C2 H26 1.093882 1_555
C2 N2 1.488391 1_555
C3 H23 1.092746 1_555
C3 H19 1.093880 1_555
C3 H27 1.093882 1_555
C3 N3 1.488391 1_555
C4 H32 1.091657 1_555
C4 H28 1.092542 1_555
C4 H36 1.092693 1_555
C4 N0 1.487852 1_555
C5 H33 1.091657 1_555
C5 H29 1.092542 1_555
C5 H37 1.092693 1_555
C5 N1 1.487852 1_555
C6 H34 1.091657 1_555
C6 H30 1.092542 1_555
C6 H38 1.092693 1_555
C6 N2 1.487852 1_555
C7 H35 1.091657 1_555
C7 H31 1.092542 1_555
C7 H39 1.092693 1_555
C7 N3 1.487852 1_555
C8 H44 1.091258 1_555
C8 H40 1.093528 1_555
C8 H48 1.094012 1_555
C8 N4 1.486761 1_555
C9 H45 1.091258 1_555
C9 H41 1.093528 1_555
C9 H49 1.094012 1_555
C9 N5 1.486761 1_555
C10 H46 1.091258 1_555
C10 H42 1.093528 1_555
C10 H50 1.094012 1_555
C10 N6 1.486761 1_555
C11 H47 1.091258 1_555
C11 H43 1.093528 1_555
C11 H51 1.094012 1_555
C11 N7 1.486761 1_555
C12 H56 1.092143 1_554
C12 H60 1.093578 1_555
C12 H52 1.095437 1_555
C12 N4 1.486729 1_555
C13 H57 1.092143 1_555
C13 H61 1.093578 1_555
C13 H53 1.095437 1_555
C13 N5 1.486729 1_555
C14 H58 1.092143 1_556
C14 H62 1.093578 1_555
C14 H54 1.095437 1_555
C14 N6 1.486729 1_555
C15 H59 1.092143 1_555
C15 H63 1.093578 1_555
C15 H55 1.095437 1_555
C15 N7 1.486729 1_555
Cl0 Fe0 2.208618 1_555
Cl1 Fe1 2.208618 1_555
Cl2 Fe2 2.208618 1_555
Cl3 Fe3 2.208618 1_555
Cl4 Fe0 2.202405 1_555
Cl5 Fe1 2.202405 1_556
Cl6 Fe2 2.202405 1_555
Cl7 Fe3 2.202405 1_554
Cl8 Fe0 2.213259 1_555
Cl9 Fe1 2.213259 1_555
Cl10 Fe2 2.213259 1_555
Cl11 Fe3 2.213259 1_555
Cl12 Fe0 2.209335 1_555
Cl13 Fe1 2.209335 1_555
Cl14 Fe2 2.209335 1_555
Cl15 Fe3 2.209335 1_555
