# generated using pymatgen
data_Ca(NiO2)2
_symmetry_space_group_name_H-M   'P 1'
_cell_length_a   6.14172263
_cell_length_b   6.14172263
_cell_length_c   14.99450900
_cell_angle_alpha   90.00000000
_cell_angle_beta   90.00000000
_cell_angle_gamma   120.00000676
_symmetry_Int_Tables_number   1
_chemical_formula_structural   Ca(NiO2)2
_chemical_formula_sum   'Ca6 Ni12 O24'
_cell_volume   489.82759646
_cell_formula_units_Z   6
loop_
 _symmetry_equiv_pos_site_id
 _symmetry_equiv_pos_as_xyz
  1  'x, y, z'
loop_
 _atom_site_type_symbol
 _atom_site_label
 _atom_site_symmetry_multiplicity
 _atom_site_fract_x
 _atom_site_fract_y
 _atom_site_fract_z
 _atom_site_occupancy
  Ca  Ca0  1  0.33333300  0.66666700  0.04680900  1
  Ca  Ca1  1  0.00000000  0.00000000  0.38591800  1
  Ca  Ca2  1  0.66666700  0.33333300  0.33584800  1
  Ca  Ca3  1  0.66666700  0.33333300  0.74542300  1
  Ca  Ca4  1  0.00000000  0.00000000  0.98937900  1
  Ca  Ca5  1  0.00000000  0.00000000  0.62567600  1
  Ni  Ni0  1  0.32456000  0.16228000  0.16558900  1
  Ni  Ni1  1  0.83772000  0.67544000  0.16558900  1
  Ni  Ni2  1  0.99608800  0.49804400  0.51072500  1
  Ni  Ni3  1  0.83772000  0.16228000  0.16558900  1
  Ni  Ni4  1  0.50195600  0.00391200  0.51072500  1
  Ni  Ni5  1  0.33333300  0.66666700  0.66161600  1
  Ni  Ni6  1  0.33333300  0.66666700  0.27667400  1
  Ni  Ni7  1  0.65452500  0.82726300  0.82703400  1
  Ni  Ni8  1  0.50195600  0.49804400  0.51072500  1
  Ni  Ni9  1  0.17273700  0.34547500  0.82703400  1
  Ni  Ni10  1  0.17273700  0.82726300  0.82703400  1
  Ni  Ni11  1  0.66666700  0.33333300  0.95315700  1
  O  O0  1  0.71158000  0.85579000  0.10122400  1
  O  O1  1  0.00000000  0.00000000  0.24163800  1
  O  O2  1  0.14421000  0.28842000  0.10122400  1
  O  O3  1  0.14421000  0.85579000  0.10122400  1
  O  O4  1  0.36997400  0.18498700  0.45061200  1
  O  O5  1  0.51129600  0.48870400  0.22956300  1
  O  O6  1  0.66666700  0.33333300  0.58891800  1
  O  O7  1  0.51129600  0.02259200  0.22956300  1
  O  O8  1  0.66666700  0.33333300  0.07616100  1
  O  O9  1  0.81501300  0.63002600  0.45061200  1
  O  O10  1  0.81501300  0.18498700  0.45061200  1
  O  O11  1  0.97740800  0.48870400  0.22956300  1
  O  O12  1  0.06675500  0.53337800  0.73829800  1
  O  O13  1  0.19798500  0.80201500  0.57735800  1
  O  O14  1  0.19798500  0.39597000  0.57735800  1
  O  O15  1  0.33333300  0.66666700  0.89329800  1
  O  O16  1  0.33333300  0.66666700  0.41778600  1
  O  O17  1  0.46662200  0.93324500  0.73829800  1
  O  O18  1  0.46662200  0.53337800  0.73829800  1
  O  O19  1  0.60403000  0.80201500  0.57735800  1
  O  O20  1  0.82468500  0.17531500  0.89591400  1
  O  O21  1  0.82468500  0.64936900  0.89591400  1
  O  O22  1  0.00000000  0.00000000  0.77264500  1
  O  O23  1  0.35063100  0.17531500  0.89591400  1
loop_
_geom_bond_atom_site_label_1
_geom_bond_atom_site_label_2
_geom_bond_distance
_geom_bond_site_symmetry_2
Ca0 O3 2.171006 1_555
Ca0 O2 2.171011 1_555
Ca0 O0 2.171011 1_555
Ca0 O15 2.301822 1_554
Ca1 O1 2.163408 1_555
Ca1 O4 2.193955 1_555
Ca1 O9 2.193955 1_445
Ca1 O10 2.193956 1_455
Ca2 O11 2.295994 1_555
Ca2 O7 2.295994 1_555
Ca2 O5 2.295998 1_555
Ca2 O10 2.334859 1_555
Ca2 O9 2.334862 1_555
Ca2 O4 2.334862 1_555
Ca3 O12 2.130703 1_655
Ca3 O17 2.130703 1_545
Ca3 O18 2.130714 1_555
Ca3 O6 2.346716 1_555
Ca3 O21 2.813822 1_555
Ca3 O23 2.813822 1_555
Ca3 O20 2.813822 1_555
Ca4 O0 2.272865 1_446
Ca4 O2 2.272865 1_556
Ca4 O3 2.272865 1_546
Ca4 O20 2.332847 1_455
Ca4 O23 2.332852 1_555
Ca4 O21 2.332852 1_445
Ca5 O22 2.203728 1_555
Ca5 O19 2.227251 1_445
Ca5 O14 2.227251 1_555
Ca5 O13 2.227251 1_545
Ni0 O3 1.901757 1_545
Ni0 O2 1.901757 1_555
Ni0 O5 1.988840 1_555
Ni0 O7 1.988840 1_555
Ni0 O1 2.068920 1_555
Ni0 O8 2.260340 1_555
Ni1 O3 1.901757 1_655
Ni1 O0 1.901757 1_555
Ni1 O5 1.988840 1_555
Ni1 O11 1.988840 1_555
Ni1 O1 2.068920 1_665
Ni1 O8 2.260340 1_555
Ni2 O10 1.899419 1_555
Ni2 O9 1.899420 1_555
Ni2 O13 1.925157 1_655
Ni2 O14 1.925157 1_655
Ni2 O6 2.108250 1_555
Ni2 O16 2.271487 1_655
Ni3 O2 1.901757 1_655
Ni3 O0 1.901757 1_545
Ni3 O11 1.988840 1_555
Ni3 O7 1.988840 1_555
Ni3 O1 2.068920 1_655
Ni3 O8 2.260336 1_555
Ni4 O10 1.899419 1_555
Ni4 O4 1.899420 1_555
Ni4 O13 1.925157 1_545
Ni4 O19 1.925157 1_545
Ni4 O6 2.108250 1_555
Ni4 O16 2.271487 1_545
Ni5 O12 1.825513 1_555
Ni5 O17 1.825513 1_555
Ni5 O18 1.825513 1_555
Ni5 O13 1.915523 1_555
Ni5 O14 1.915527 1_555
Ni5 O19 1.915527 1_555
Ni6 O7 2.020627 1_565
Ni6 O11 2.020627 1_455
Ni6 O5 2.020632 1_555
Ni6 O16 2.115905 1_555
Ni7 O15 1.976312 1_555
Ni7 O22 2.010389 1_665
Ni7 O18 2.068107 1_555
Ni7 O17 2.068107 1_555
Ni7 O20 2.120002 1_565
Ni7 O21 2.120012 1_555
Ni8 O9 1.899420 1_555
Ni8 O4 1.899420 1_555
Ni8 O19 1.925157 1_555
Ni8 O14 1.925157 1_555
Ni8 O6 2.108254 1_555
Ni8 O16 2.271492 1_555
Ni9 O15 1.976312 1_555
Ni9 O22 2.010389 1_555
Ni9 O18 2.068107 1_555
Ni9 O12 2.068107 1_555
Ni9 O20 2.120002 1_455
Ni9 O23 2.120012 1_555
Ni10 O15 1.976312 1_555
Ni10 O22 2.010384 1_565
Ni10 O12 2.068107 1_555
Ni10 O17 2.068107 1_555
Ni10 O23 2.120002 1_565
Ni10 O21 2.120002 1_455
Ni11 O8 1.844385 1_556
Ni11 O21 1.887421 1_555
Ni11 O23 1.887421 1_555
Ni11 O20 1.887421 1_555
