# generated using pymatgen
data_Zn2AgAu
_symmetry_space_group_name_H-M   'P 1'
_cell_length_a   6.09621200
_cell_length_b   6.09621200
_cell_length_c   14.14310200
_cell_angle_alpha   90.00000000
_cell_angle_beta   90.00000000
_cell_angle_gamma   90.00000000
_symmetry_Int_Tables_number   1
_chemical_formula_structural   Zn2AgAu
_chemical_formula_sum   'Zn16 Ag8 Au8'
_cell_volume   525.61142470
_cell_formula_units_Z   8
loop_
 _symmetry_equiv_pos_site_id
 _symmetry_equiv_pos_as_xyz
  1  'x, y, z'
loop_
 _atom_site_type_symbol
 _atom_site_label
 _atom_site_symmetry_multiplicity
 _atom_site_fract_x
 _atom_site_fract_y
 _atom_site_fract_z
 _atom_site_occupancy
  Zn  Zn0_0  1  0.00000000  0.00000000  0.49794600  1
  Zn  Zn0_1  1  0.00000000  0.00000000  0.99794600  1
  Zn  Zn0_2  1  0.00000000  0.50000000  0.49794600  1
  Zn  Zn0_3  1  0.00000000  0.50000000  0.99794600  1
  Zn  Zn0_4  1  0.50000000  0.00000000  0.49794600  1
  Zn  Zn0_5  1  0.50000000  0.00000000  0.99794600  1
  Zn  Zn0_6  1  0.50000000  0.50000000  0.49794600  1
  Zn  Zn0_7  1  0.50000000  0.50000000  0.99794600  1
  Zn  Zn1_0  1  0.00000000  0.00000000  0.25205400  1
  Zn  Zn1_1  1  0.00000000  0.00000000  0.75205400  1
  Zn  Zn1_2  1  0.00000000  0.50000000  0.25205400  1
  Zn  Zn1_3  1  0.00000000  0.50000000  0.75205400  1
  Zn  Zn1_4  1  0.50000000  0.00000000  0.25205400  1
  Zn  Zn1_5  1  0.50000000  0.00000000  0.75205400  1
  Zn  Zn1_6  1  0.50000000  0.50000000  0.25205400  1
  Zn  Zn1_7  1  0.50000000  0.50000000  0.75205400  1
  Ag  Ag0_0  1  0.25000000  0.25000000  0.12500000  1
  Ag  Ag0_1  1  0.25000000  0.25000000  0.62500000  1
  Ag  Ag0_2  1  0.25000000  0.75000000  0.12500000  1
  Ag  Ag0_3  1  0.25000000  0.75000000  0.62500000  1
  Ag  Ag0_4  1  0.75000000  0.25000000  0.12500000  1
  Ag  Ag0_5  1  0.75000000  0.25000000  0.62500000  1
  Ag  Ag0_6  1  0.75000000  0.75000000  0.12500000  1
  Ag  Ag0_7  1  0.75000000  0.75000000  0.62500000  1
  Au  Au0_0  1  0.25000000  0.25000000  0.37500000  1
  Au  Au0_1  1  0.25000000  0.25000000  0.87500000  1
  Au  Au0_2  1  0.25000000  0.75000000  0.37500000  1
  Au  Au0_3  1  0.25000000  0.75000000  0.87500000  1
  Au  Au0_4  1  0.75000000  0.25000000  0.37500000  1
  Au  Au0_5  1  0.75000000  0.25000000  0.87500000  1
  Au  Au0_6  1  0.75000000  0.75000000  0.37500000  1
  Au  Au0_7  1  0.75000000  0.75000000  0.87500000  1
loop_
_geom_bond_atom_site_label_1
_geom_bond_atom_site_label_2
_geom_bond_distance
_geom_bond_site_symmetry_2
Zn0_0 Zn0_4 3.048106 1_555
Zn0_0 Zn0_2 3.048106 1_545
Zn0_0 Zn0_2 3.048106 1_555
Zn0_0 Zn0_4 3.048106 1_455
Zn0_1 Zn0_3 3.048106 1_545
Zn0_1 Zn0_5 3.048106 1_555
Zn0_1 Zn0_5 3.048106 1_455
Zn0_1 Zn0_3 3.048106 1_555
Zn0_2 Zn0_6 3.048106 1_555
Zn0_2 Zn0_6 3.048106 1_455
Zn0_3 Zn0_7 3.048106 1_555
Zn0_3 Zn0_7 3.048106 1_455
Zn0_4 Zn0_6 3.048106 1_545
Zn0_4 Zn0_6 3.048106 1_555
Zn0_5 Zn0_7 3.048106 1_545
Zn0_5 Zn0_7 3.048106 1_555
Zn1_0 Zn1_2 3.048106 1_555
Zn1_0 Zn1_2 3.048106 1_545
Zn1_0 Zn1_4 3.048106 1_455
Zn1_0 Zn1_4 3.048106 1_555
Zn1_1 Zn1_3 3.048106 1_555
Zn1_1 Zn1_3 3.048106 1_545
Zn1_1 Zn1_5 3.048106 1_455
Zn1_1 Zn1_5 3.048106 1_555
Zn1_2 Zn1_6 3.048106 1_555
Zn1_2 Zn1_6 3.048106 1_455
Zn1_3 Zn1_7 3.048106 1_455
Zn1_3 Zn1_7 3.048106 1_555
Zn1_4 Zn1_6 3.048106 1_555
Zn1_4 Zn1_6 3.048106 1_545
Zn1_5 Zn1_7 3.048106 1_555
Zn1_5 Zn1_7 3.048106 1_545
Ag0_0 Zn0_3 2.806147 1_554
Ag0_0 Zn0_7 2.806147 1_554
Ag0_0 Zn0_1 2.806147 1_554
Ag0_0 Zn0_5 2.806147 1_554
Ag0_0 Zn1_2 2.806147 1_555
Ag0_0 Zn1_6 2.806147 1_555
Ag0_0 Zn1_0 2.806147 1_555
Ag0_0 Zn1_4 2.806147 1_555
Ag0_0 Ag0_2 3.048106 1_555
Ag0_0 Ag0_4 3.048106 1_555
Ag0_0 Ag0_4 3.048106 1_455
Ag0_0 Ag0_2 3.048106 1_545
Ag0_1 Zn1_1 2.806147 1_555
Ag0_1 Zn1_5 2.806147 1_555
Ag0_1 Zn1_7 2.806147 1_555
Ag0_1 Zn1_3 2.806147 1_555
Ag0_1 Zn0_0 2.806147 1_555
Ag0_1 Zn0_4 2.806147 1_555
Ag0_1 Zn0_2 2.806147 1_555
Ag0_1 Zn0_6 2.806147 1_555
Ag0_1 Ag0_3 3.048106 1_545
Ag0_1 Ag0_3 3.048106 1_555
Ag0_1 Ag0_5 3.048106 1_555
Ag0_1 Ag0_5 3.048106 1_455
Ag0_2 Zn0_3 2.806147 1_554
Ag0_2 Zn0_7 2.806147 1_554
Ag0_2 Zn0_5 2.806147 1_564
Ag0_2 Zn0_1 2.806147 1_564
Ag0_2 Zn1_2 2.806147 1_555
Ag0_2 Zn1_4 2.806147 1_565
Ag0_2 Zn1_6 2.806147 1_555
Ag0_2 Zn1_0 2.806147 1_565
Ag0_2 Ag0_6 3.048106 1_455
Ag0_2 Ag0_6 3.048106 1_555
Ag0_3 Zn1_1 2.806147 1_565
Ag0_3 Zn1_5 2.806147 1_565
Ag0_3 Zn1_7 2.806147 1_555
Ag0_3 Zn1_3 2.806147 1_555
Ag0_3 Zn0_0 2.806147 1_565
Ag0_3 Zn0_2 2.806147 1_555
Ag0_3 Zn0_4 2.806147 1_565
Ag0_3 Zn0_6 2.806147 1_555
Ag0_3 Ag0_7 3.048106 1_455
Ag0_3 Ag0_7 3.048106 1_555
Ag0_4 Zn0_1 2.806147 1_654
Ag0_4 Zn0_7 2.806147 1_554
Ag0_4 Zn0_3 2.806147 1_654
Ag0_4 Zn0_5 2.806147 1_554
Ag0_4 Zn1_4 2.806147 1_555
Ag0_4 Zn1_6 2.806147 1_555
Ag0_4 Zn1_2 2.806147 1_655
Ag0_4 Zn1_0 2.806147 1_655
Ag0_4 Ag0_6 3.048106 1_545
Ag0_4 Ag0_6 3.048106 1_555
Ag0_5 Zn1_3 2.806147 1_655
Ag0_5 Zn1_5 2.806147 1_555
Ag0_5 Zn1_7 2.806147 1_555
Ag0_5 Zn1_1 2.806147 1_655
Ag0_5 Zn0_2 2.806147 1_655
Ag0_5 Zn0_4 2.806147 1_555
Ag0_5 Zn0_0 2.806147 1_655
Ag0_5 Zn0_6 2.806147 1_555
Ag0_5 Ag0_7 3.048106 1_545
Ag0_5 Ag0_7 3.048106 1_555
Ag0_6 Zn0_7 2.806147 1_554
Ag0_6 Zn0_5 2.806147 1_564
Ag0_6 Zn0_3 2.806147 1_654
Ag0_6 Zn0_1 2.806147 1_664
Ag0_6 Zn1_4 2.806147 1_565
Ag0_6 Zn1_6 2.806147 1_555
Ag0_6 Zn1_0 2.806147 1_665
Ag0_6 Zn1_2 2.806147 1_655
Ag0_7 Zn1_3 2.806147 1_655
Ag0_7 Zn1_5 2.806147 1_565
Ag0_7 Zn1_7 2.806147 1_555
Ag0_7 Zn1_1 2.806147 1_665
Ag0_7 Zn0_2 2.806147 1_655
Ag0_7 Zn0_0 2.806147 1_665
Ag0_7 Zn0_4 2.806147 1_565
Ag0_7 Zn0_6 2.806147 1_555
Au0_0 Zn1_0 2.769302 1_555
Au0_0 Zn1_4 2.769302 1_555
Au0_0 Zn0_6 2.769302 1_555
Au0_0 Zn1_2 2.769302 1_555
Au0_0 Zn1_6 2.769302 1_555
Au0_0 Zn0_0 2.769302 1_555
Au0_0 Zn0_4 2.769302 1_555
Au0_0 Zn0_2 2.769302 1_555
Au0_0 Au0_4 3.048106 1_555
Au0_0 Au0_2 3.048106 1_555
Au0_0 Au0_2 3.048106 1_545
Au0_0 Au0_4 3.048106 1_455
Au0_1 Zn1_7 2.769302 1_555
Au0_1 Zn1_5 2.769302 1_555
Au0_1 Zn0_3 2.769302 1_555
Au0_1 Zn0_1 2.769302 1_555
Au0_1 Zn0_7 2.769302 1_555
Au0_1 Zn0_5 2.769302 1_555
Au0_1 Zn1_1 2.769302 1_555
Au0_1 Zn1_3 2.769302 1_555
Au0_1 Au0_3 3.048106 1_555
Au0_1 Au0_5 3.048106 1_555
Au0_1 Au0_3 3.048106 1_545
Au0_1 Au0_5 3.048106 1_455
Au0_2 Zn1_0 2.769302 1_565
Au0_2 Zn0_6 2.769302 1_555
Au0_2 Zn1_4 2.769302 1_565
Au0_2 Zn1_2 2.769302 1_555
Au0_2 Zn1_6 2.769302 1_555
Au0_2 Zn0_0 2.769302 1_565
Au0_2 Zn0_4 2.769302 1_565
Au0_2 Zn0_2 2.769302 1_555
Au0_2 Au0_6 3.048106 1_455
Au0_2 Au0_6 3.048106 1_555
Au0_3 Zn1_7 2.769302 1_555
Au0_3 Zn0_1 2.769302 1_565
Au0_3 Zn0_3 2.769302 1_555
Au0_3 Zn1_5 2.769302 1_565
Au0_3 Zn0_7 2.769302 1_555
Au0_3 Zn0_5 2.769302 1_565
Au0_3 Zn1_1 2.769302 1_565
Au0_3 Zn1_3 2.769302 1_555
Au0_3 Au0_7 3.048106 1_555
Au0_3 Au0_7 3.048106 1_455
Au0_4 Zn1_4 2.769302 1_555
Au0_4 Zn1_0 2.769302 1_655
Au0_4 Zn0_6 2.769302 1_555
Au0_4 Zn1_6 2.769302 1_555
Au0_4 Zn0_2 2.769302 1_655
Au0_4 Zn0_4 2.769302 1_555
Au0_4 Zn1_2 2.769302 1_655
Au0_4 Zn0_0 2.769302 1_655
Au0_4 Au0_6 3.048106 1_555
Au0_4 Au0_6 3.048106 1_545
Au0_5 Zn1_7 2.769302 1_555
Au0_5 Zn1_3 2.769302 1_655
Au0_5 Zn1_5 2.769302 1_555
Au0_5 Zn1_1 2.769302 1_655
Au0_5 Zn0_7 2.769302 1_555
Au0_5 Zn0_3 2.769302 1_655
Au0_5 Zn0_1 2.769302 1_655
Au0_5 Zn0_5 2.769302 1_555
Au0_5 Au0_7 3.048106 1_545
Au0_5 Au0_7 3.048106 1_555
Au0_6 Zn0_6 2.769302 1_555
Au0_6 Zn1_4 2.769302 1_565
Au0_6 Zn1_6 2.769302 1_555
Au0_6 Zn0_0 2.769302 1_665
Au0_6 Zn0_2 2.769302 1_655
Au0_6 Zn1_2 2.769302 1_655
Au0_6 Zn0_4 2.769302 1_565
Au0_6 Zn1_0 2.769302 1_665
Au0_7 Zn1_7 2.769302 1_555
Au0_7 Zn1_3 2.769302 1_655
Au0_7 Zn1_5 2.769302 1_565
Au0_7 Zn1_1 2.769302 1_665
Au0_7 Zn0_1 2.769302 1_665
Au0_7 Zn0_7 2.769302 1_555
Au0_7 Zn0_3 2.769302 1_655
Au0_7 Zn0_5 2.769302 1_565
