# generated using pymatgen
data_Ti2As4W3
_symmetry_space_group_name_H-M   'P 1'
_cell_length_a   7.00501487
_cell_length_b   7.00501487
_cell_length_c   9.58238927
_cell_angle_alpha   47.05336706
_cell_angle_beta   47.05336706
_cell_angle_gamma   27.78606345
_symmetry_Int_Tables_number   1
_chemical_formula_structural   Ti2As4W3
_chemical_formula_sum   'Ti2 As4 W3'
_cell_volume   156.14075830
_cell_formula_units_Z   1
loop_
 _symmetry_equiv_pos_site_id
 _symmetry_equiv_pos_as_xyz
  1  'x, y, z'
loop_
 _atom_site_type_symbol
 _atom_site_label
 _atom_site_symmetry_multiplicity
 _atom_site_fract_x
 _atom_site_fract_y
 _atom_site_fract_z
 _atom_site_occupancy
  Ti  Ti0  1  0.99846400  0.99846400  0.00252300  1
  Ti  Ti1  1  0.63304500  0.63304500  0.66976400  1
  As  As0  1  0.71367800  0.71367800  0.34114000  1
  As  As1  1  0.27995400  0.27995400  0.66605300  1
  As  As2  1  0.05413500  0.05413500  0.23323500  1
  As  As3  1  0.94570500  0.94570500  0.77206300  1
  W  W0  1  0.37337700  0.37337700  0.31905200  1
  W  W1  1  0.30523100  0.30523100  0.06307500  1
  W  W2  1  0.69641000  0.69641000  0.93309600  1
loop_
_geom_bond_atom_site_label_1
_geom_bond_atom_site_label_2
_geom_bond_distance
_geom_bond_site_symmetry_2
Ti0 W0 2.771258 1_655
Ti0 W0 2.771258 1_565
Ti0 W1 2.816322 1_655
Ti0 W1 2.816322 1_565
Ti0 W2 2.829315 1_654
Ti0 W2 2.829315 1_564
Ti1 W0 3.063920 1_565
Ti1 W0 3.063920 1_655
As0 Ti1 2.504287 1_555
As0 W1 2.611907 1_565
As0 W1 2.611907 1_655
As0 W0 2.635498 1_565
As0 W0 2.635498 1_655
As0 Ti0 2.808707 1_555
As1 W2 2.566482 1_545
As1 W2 2.566482 1_455
As1 Ti1 2.592784 1_455
As1 Ti1 2.592784 1_545
As1 W0 2.596214 1_555
As1 Ti0 2.779432 1_446
As2 W1 2.550383 1_555
As2 W0 2.590565 1_455
As2 W0 2.590565 1_545
As2 W2 2.652005 1_544
As2 W2 2.652005 1_454
As2 Ti0 2.794701 1_445
As3 W2 2.555875 1_555
As3 Ti1 2.603014 1_565
As3 Ti1 2.603014 1_655
As3 W1 2.603256 1_566
As3 W1 2.603256 1_656
As3 Ti0 2.759701 1_556
