# generated using pymatgen
data_AgSbTe2
_symmetry_space_group_name_H-M   'P 1'
_cell_length_a   4.37451819
_cell_length_b   4.37451819
_cell_length_c   7.40619539
_cell_angle_alpha   72.82277228
_cell_angle_beta   72.82277228
_cell_angle_gamma   59.99999718
_symmetry_Int_Tables_number   1
_chemical_formula_structural   AgSbTe2
_chemical_formula_sum   'Ag1 Sb1 Te2'
_cell_volume   115.38269688
_cell_formula_units_Z   1
loop_
 _symmetry_equiv_pos_site_id
 _symmetry_equiv_pos_as_xyz
  1  'x, y, z'
loop_
 _atom_site_type_symbol
 _atom_site_label
 _atom_site_symmetry_multiplicity
 _atom_site_fract_x
 _atom_site_fract_y
 _atom_site_fract_z
 _atom_site_occupancy
  Ag  Ag0  1  0.50000000  0.50000000  0.50000000  1
  Sb  Sb0  1  0.00000000  0.00000000  0.00000000  1
  Te  Te0  1  0.75368300  0.75368300  0.73895100  1
  Te  Te1  1  0.24631700  0.24631700  0.26104900  1
loop_
_geom_bond_atom_site_label_1
_geom_bond_atom_site_label_2
_geom_bond_distance
_geom_bond_site_symmetry_2
Ag0 Te1 3.024316 1_655
Ag0 Te1 3.024316 1_565
Ag0 Te0 3.024316 1_455
Ag0 Te0 3.024316 1_545
Ag0 Te1 3.024317 1_555
Ag0 Te0 3.024317 1_555
Sb0 Te1 3.111602 1_455
Sb0 Te1 3.111602 1_545
Sb0 Te0 3.111602 1_454
Sb0 Te0 3.111602 1_544
Sb0 Te0 3.111602 1_444
Sb0 Te1 3.111602 1_555
