# generated using pymatgen
data_Li3LaGa8
_symmetry_space_group_name_H-M   'P 1'
_cell_length_a   7.25329800
_cell_length_b   8.89500176
_cell_length_c   30.27151338
_cell_angle_alpha   90.00000504
_cell_angle_beta   90.00000000
_cell_angle_gamma   90.00000000
_symmetry_Int_Tables_number   1
_chemical_formula_structural   Li3LaGa8
_chemical_formula_sum   'Li24 La8 Ga64'
_cell_volume   1953.06048166
_cell_formula_units_Z   8
loop_
 _symmetry_equiv_pos_site_id
 _symmetry_equiv_pos_as_xyz
  1  'x, y, z'
loop_
 _atom_site_type_symbol
 _atom_site_label
 _atom_site_symmetry_multiplicity
 _atom_site_fract_x
 _atom_site_fract_y
 _atom_site_fract_z
 _atom_site_occupancy
  Li  Li0_0  1  0.00000000  0.24999700  0.12160350  1
  Li  Li0_1  1  0.00000000  0.24999700  0.62160350  1
  Li  Li0_2  1  0.00000000  0.74999700  0.12160350  1
  Li  Li0_3  1  0.00000000  0.74999700  0.62160350  1
  Li  Li0_4  1  0.50000000  0.24999700  0.12160350  1
  Li  Li0_5  1  0.50000000  0.24999700  0.62160350  1
  Li  Li0_6  1  0.50000000  0.74999700  0.12160350  1
  Li  Li0_7  1  0.50000000  0.74999700  0.62160350  1
  Li  Li1_0  1  0.00000000  0.00000750  0.25000000  1
  Li  Li1_1  1  0.00000000  0.00000750  0.75000000  1
  Li  Li1_2  1  0.00000000  0.50000750  0.25000000  1
  Li  Li1_3  1  0.00000000  0.50000750  0.75000000  1
  Li  Li1_4  1  0.50000000  0.00000750  0.25000000  1
  Li  Li1_5  1  0.50000000  0.00000750  0.75000000  1
  Li  Li1_6  1  0.50000000  0.50000750  0.25000000  1
  Li  Li1_7  1  0.50000000  0.50000750  0.75000000  1
  Li  Li2_0  1  0.00000000  0.24999700  0.37839650  1
  Li  Li2_1  1  0.00000000  0.24999700  0.87839650  1
  Li  Li2_2  1  0.00000000  0.74999700  0.37839650  1
  Li  Li2_3  1  0.00000000  0.74999700  0.87839650  1
  Li  Li2_4  1  0.50000000  0.24999700  0.37839650  1
  Li  Li2_5  1  0.50000000  0.24999700  0.87839650  1
  Li  Li2_6  1  0.50000000  0.74999700  0.37839650  1
  Li  Li2_7  1  0.50000000  0.74999700  0.87839650  1
  La  La0_0  1  0.00000000  0.49998200  0.00000000  1
  La  La0_1  1  0.00000000  0.49998200  0.50000000  1
  La  La0_2  1  0.00000000  0.99998200  0.00000000  1
  La  La0_3  1  0.00000000  0.99998200  0.50000000  1
  La  La0_4  1  0.50000000  0.49998200  0.00000000  1
  La  La0_5  1  0.50000000  0.49998200  0.50000000  1
  La  La0_6  1  0.50000000  0.99998200  0.00000000  1
  La  La0_7  1  0.50000000  0.99998200  0.50000000  1
  Ga  Ga0_0  1  0.25000000  0.49994450  0.08823100  1
  Ga  Ga0_1  1  0.25000000  0.49994450  0.58823100  1
  Ga  Ga0_2  1  0.25000000  0.99994450  0.08823100  1
  Ga  Ga0_3  1  0.25000000  0.99994450  0.58823100  1
  Ga  Ga0_4  1  0.75000000  0.49994450  0.08823100  1
  Ga  Ga0_5  1  0.75000000  0.49994450  0.58823100  1
  Ga  Ga0_6  1  0.75000000  0.99994450  0.08823100  1
  Ga  Ga0_7  1  0.75000000  0.99994450  0.58823100  1
  Ga  Ga1_0  1  0.25000000  0.25001550  0.20931200  1
  Ga  Ga1_1  1  0.25000000  0.25001550  0.70931200  1
  Ga  Ga1_2  1  0.25000000  0.75001550  0.20931200  1
  Ga  Ga1_3  1  0.25000000  0.75001550  0.70931200  1
  Ga  Ga1_4  1  0.75000000  0.25001550  0.20931200  1
  Ga  Ga1_5  1  0.75000000  0.25001550  0.70931200  1
  Ga  Ga1_6  1  0.75000000  0.75001550  0.20931200  1
  Ga  Ga1_7  1  0.75000000  0.75001550  0.70931200  1
  Ga  Ga2_0  1  0.25000000  0.49998050  0.33033550  1
  Ga  Ga2_1  1  0.25000000  0.49998050  0.83033550  1
  Ga  Ga2_2  1  0.25000000  0.99998050  0.33033550  1
  Ga  Ga2_3  1  0.25000000  0.99998050  0.83033550  1
  Ga  Ga2_4  1  0.75000000  0.49998050  0.33033550  1
  Ga  Ga2_5  1  0.75000000  0.49998050  0.83033550  1
  Ga  Ga2_6  1  0.75000000  0.99998050  0.33033550  1
  Ga  Ga2_7  1  0.75000000  0.99998050  0.83033550  1
  Ga  Ga3_0  1  0.25000000  0.24996800  0.45533000  1
  Ga  Ga3_1  1  0.25000000  0.24996800  0.95533000  1
  Ga  Ga3_2  1  0.25000000  0.74996800  0.45533000  1
  Ga  Ga3_3  1  0.25000000  0.74996800  0.95533000  1
  Ga  Ga3_4  1  0.75000000  0.24996800  0.45533000  1
  Ga  Ga3_5  1  0.75000000  0.24996800  0.95533000  1
  Ga  Ga3_6  1  0.75000000  0.74996800  0.45533000  1
  Ga  Ga3_7  1  0.75000000  0.74996800  0.95533000  1
  Ga  Ga4_0  1  0.25000000  0.24996800  0.04467000  1
  Ga  Ga4_1  1  0.25000000  0.24996800  0.54467000  1
  Ga  Ga4_2  1  0.25000000  0.74996800  0.04467000  1
  Ga  Ga4_3  1  0.25000000  0.74996800  0.54467000  1
  Ga  Ga4_4  1  0.75000000  0.24996800  0.04467000  1
  Ga  Ga4_5  1  0.75000000  0.24996800  0.54467000  1
  Ga  Ga4_6  1  0.75000000  0.74996800  0.04467000  1
  Ga  Ga4_7  1  0.75000000  0.74996800  0.54467000  1
  Ga  Ga5_0  1  0.25000000  0.49998050  0.16966450  1
  Ga  Ga5_1  1  0.25000000  0.49998050  0.66966450  1
  Ga  Ga5_2  1  0.25000000  0.99998050  0.16966450  1
  Ga  Ga5_3  1  0.25000000  0.99998050  0.66966450  1
  Ga  Ga5_4  1  0.75000000  0.49998050  0.16966450  1
  Ga  Ga5_5  1  0.75000000  0.49998050  0.66966450  1
  Ga  Ga5_6  1  0.75000000  0.99998050  0.16966450  1
  Ga  Ga5_7  1  0.75000000  0.99998050  0.66966450  1
  Ga  Ga6_0  1  0.25000000  0.25001550  0.29068800  1
  Ga  Ga6_1  1  0.25000000  0.25001550  0.79068800  1
  Ga  Ga6_2  1  0.25000000  0.75001550  0.29068800  1
  Ga  Ga6_3  1  0.25000000  0.75001550  0.79068800  1
  Ga  Ga6_4  1  0.75000000  0.25001550  0.29068800  1
  Ga  Ga6_5  1  0.75000000  0.25001550  0.79068800  1
  Ga  Ga6_6  1  0.75000000  0.75001550  0.29068800  1
  Ga  Ga6_7  1  0.75000000  0.75001550  0.79068800  1
  Ga  Ga7_0  1  0.25000000  0.49994450  0.41176900  1
  Ga  Ga7_1  1  0.25000000  0.49994450  0.91176900  1
  Ga  Ga7_2  1  0.25000000  0.99994450  0.41176900  1
  Ga  Ga7_3  1  0.25000000  0.99994450  0.91176900  1
  Ga  Ga7_4  1  0.75000000  0.49994450  0.41176900  1
  Ga  Ga7_5  1  0.75000000  0.49994450  0.91176900  1
  Ga  Ga7_6  1  0.75000000  0.99994450  0.41176900  1
  Ga  Ga7_7  1  0.75000000  0.99994450  0.91176900  1
loop_
_geom_bond_atom_site_label_1
_geom_bond_atom_site_label_2
_geom_bond_distance
_geom_bond_site_symmetry_2
La0_0 La0_4 3.626649 1_455
La0_0 La0_4 3.626649 1_555
La0_1 La0_5 3.626649 1_555
La0_1 La0_5 3.626649 1_455
La0_2 La0_6 3.626649 1_455
La0_2 La0_6 3.626649 1_555
La0_3 La0_7 3.626649 1_455
La0_3 La0_7 3.626649 1_555
Ga0_0 Ga5_0 2.465115 1_555
Ga0_0 Ga4_0 2.585149 1_555
Ga0_0 Ga4_2 2.585508 1_555
Ga0_0 Li0_0 3.041663 1_555
Ga0_0 Li0_4 3.041663 1_555
Ga0_0 Li0_6 3.042345 1_555
Ga0_0 Li0_2 3.042345 1_555
Ga0_0 La0_0 3.228278 1_555
Ga0_0 La0_4 3.228278 1_555
Ga0_1 Ga5_1 2.465115 1_555
Ga0_1 Ga4_1 2.585149 1_555
Ga0_1 Ga4_3 2.585508 1_555
Ga0_1 Li0_5 3.041663 1_555
Ga0_1 Li0_1 3.041663 1_555
Ga0_1 Li0_7 3.042345 1_555
Ga0_1 Li0_3 3.042345 1_555
Ga0_1 La0_5 3.228278 1_555
Ga0_1 La0_1 3.228278 1_555
Ga0_2 Ga5_2 2.465115 1_555
Ga0_2 Ga4_2 2.585149 1_555
Ga0_2 Ga4_0 2.585508 1_565
Ga0_2 Li0_2 3.041663 1_555
Ga0_2 Li0_6 3.041663 1_555
Ga0_2 Li0_4 3.042345 1_565
Ga0_2 Li0_0 3.042345 1_565
Ga0_2 La0_2 3.228278 1_555
Ga0_2 La0_6 3.228278 1_555
Ga0_3 Ga5_3 2.465115 1_555
Ga0_3 Ga4_3 2.585149 1_555
Ga0_3 Ga4_1 2.585508 1_565
Ga0_3 Li0_7 3.041663 1_555
Ga0_3 Li0_3 3.041663 1_555
Ga0_3 Li0_1 3.042345 1_565
Ga0_3 Li0_5 3.042345 1_565
Ga0_3 La0_3 3.228278 1_555
Ga0_3 La0_7 3.228278 1_555
Ga0_4 Ga5_4 2.465115 1_555
Ga0_4 Ga4_4 2.585149 1_555
Ga0_4 Ga4_6 2.585508 1_555
Ga0_4 Li0_0 3.041663 1_655
Ga0_4 Li0_4 3.041663 1_555
Ga0_4 Li0_2 3.042345 1_655
Ga0_4 Li0_6 3.042345 1_555
Ga0_4 La0_4 3.228278 1_555
Ga0_4 La0_0 3.228278 1_655
Ga0_5 Ga5_5 2.465115 1_555
Ga0_5 Ga4_5 2.585149 1_555
Ga0_5 Ga4_7 2.585508 1_555
Ga0_5 Li0_5 3.041663 1_555
Ga0_5 Li0_1 3.041663 1_655
Ga0_5 Li0_3 3.042345 1_655
Ga0_5 Li0_7 3.042345 1_555
Ga0_5 La0_5 3.228278 1_555
Ga0_5 La0_1 3.228278 1_655
Ga0_6 Ga5_6 2.465115 1_555
Ga0_6 Ga4_6 2.585149 1_555
Ga0_6 Ga4_4 2.585508 1_565
Ga0_6 Li0_2 3.041663 1_655
Ga0_6 Li0_6 3.041663 1_555
Ga0_6 Li0_4 3.042345 1_565
Ga0_6 Li0_0 3.042345 1_665
Ga0_6 La0_6 3.228278 1_555
Ga0_6 La0_2 3.228278 1_655
Ga0_7 Ga5_7 2.465115 1_555
Ga0_7 Ga4_7 2.585149 1_555
Ga0_7 Ga4_5 2.585508 1_565
Ga0_7 Li0_3 3.041663 1_655
Ga0_7 Li0_7 3.041663 1_555
Ga0_7 Li0_1 3.042345 1_665
Ga0_7 Li0_5 3.042345 1_565
Ga0_7 La0_3 3.228278 1_655
Ga0_7 La0_7 3.228278 1_555
Ga1_0 Ga6_0 2.463375 1_555
Ga1_0 Ga5_0 2.526685 1_555
Ga1_0 Ga5_2 2.527233 1_545
Ga1_0 Li1_6 3.122491 1_555
Ga1_0 Li1_2 3.122491 1_555
Ga1_0 Li1_0 3.122592 1_555
Ga1_0 Li1_4 3.122592 1_555
Ga1_0 Li0_4 3.215204 1_555
Ga1_0 Li0_0 3.215204 1_555
Ga1_1 Ga6_1 2.463375 1_555
Ga1_1 Ga5_1 2.526685 1_555
Ga1_1 Ga5_3 2.527233 1_545
Ga1_1 Li1_3 3.122491 1_555
Ga1_1 Li1_7 3.122491 1_555
Ga1_1 Li1_1 3.122592 1_555
Ga1_1 Li1_5 3.122592 1_555
Ga1_1 Li0_1 3.215204 1_555
Ga1_1 Li0_5 3.215204 1_555
Ga1_2 Ga6_2 2.463375 1_555
Ga1_2 Ga5_2 2.526685 1_555
Ga1_2 Ga5_0 2.527233 1_555
Ga1_2 Li1_4 3.122491 1_565
Ga1_2 Li1_0 3.122491 1_565
Ga1_2 Li1_2 3.122592 1_555
Ga1_2 Li1_6 3.122592 1_555
Ga1_2 Li0_2 3.215204 1_555
Ga1_2 Li0_6 3.215204 1_555
Ga1_3 Ga6_3 2.463375 1_555
Ga1_3 Ga5_3 2.526685 1_555
Ga1_3 Ga5_1 2.527233 1_555
Ga1_3 Li1_1 3.122491 1_565
Ga1_3 Li1_5 3.122491 1_565
Ga1_3 Li1_3 3.122592 1_555
Ga1_3 Li1_7 3.122592 1_555
Ga1_3 Li0_3 3.215204 1_555
Ga1_3 Li0_7 3.215204 1_555
Ga1_4 Ga6_4 2.463375 1_555
Ga1_4 Ga5_4 2.526685 1_555
Ga1_4 Ga5_6 2.527233 1_545
Ga1_4 Li1_6 3.122491 1_555
Ga1_4 Li1_2 3.122491 1_655
Ga1_4 Li1_4 3.122592 1_555
Ga1_4 Li1_0 3.122592 1_655
Ga1_4 Li0_0 3.215204 1_655
Ga1_4 Li0_4 3.215204 1_555
Ga1_5 Ga6_5 2.463375 1_555
Ga1_5 Ga5_5 2.526685 1_555
Ga1_5 Ga5_7 2.527233 1_545
Ga1_5 Li1_3 3.122491 1_655
Ga1_5 Li1_7 3.122491 1_555
Ga1_5 Li1_5 3.122592 1_555
Ga1_5 Li1_1 3.122592 1_655
Ga1_5 Li0_1 3.215204 1_655
Ga1_5 Li0_5 3.215204 1_555
Ga1_6 Ga6_6 2.463375 1_555
Ga1_6 Ga5_6 2.526685 1_555
Ga1_6 Ga5_4 2.527233 1_555
Ga1_6 Li1_4 3.122491 1_565
Ga1_6 Li1_0 3.122491 1_665
Ga1_6 Li1_2 3.122592 1_655
Ga1_6 Li1_6 3.122592 1_555
Ga1_6 Li0_2 3.215204 1_655
Ga1_6 Li0_6 3.215204 1_555
Ga1_7 Ga6_7 2.463375 1_555
Ga1_7 Ga5_7 2.526685 1_555
Ga1_7 Ga5_5 2.527233 1_555
Ga1_7 Li1_1 3.122491 1_665
Ga1_7 Li1_5 3.122491 1_565
Ga1_7 Li1_3 3.122592 1_655
Ga1_7 Li1_7 3.122592 1_555
Ga1_7 Li0_3 3.215204 1_655
Ga1_7 Li0_7 3.215204 1_555
Ga2_0 Ga7_0 2.465115 1_555
Ga2_0 Ga6_0 2.526685 1_555
Ga2_0 Ga6_2 2.527233 1_555
Ga2_0 Li1_2 3.033508 1_555
Ga2_0 Li1_6 3.033508 1_555
Ga2_0 Li2_4 3.217022 1_555
Ga2_0 Li2_0 3.217022 1_555
Ga2_0 Li2_6 3.217225 1_555
Ga2_0 Li2_2 3.217225 1_555
Ga2_1 Ga7_1 2.465115 1_555
Ga2_1 Ga6_1 2.526685 1_555
Ga2_1 Ga6_3 2.527233 1_555
Ga2_1 Li1_3 3.033508 1_555
Ga2_1 Li1_7 3.033508 1_555
Ga2_1 Li2_1 3.217022 1_555
Ga2_1 Li2_5 3.217022 1_555
Ga2_1 Li2_3 3.217225 1_555
Ga2_1 Li2_7 3.217225 1_555
Ga2_2 Ga7_2 2.465115 1_555
Ga2_2 Ga6_2 2.526685 1_555
Ga2_2 Ga6_0 2.527233 1_565
Ga2_2 Li1_4 3.033508 1_565
Ga2_2 Li1_0 3.033508 1_565
Ga2_2 Li2_6 3.217022 1_555
Ga2_2 Li2_2 3.217022 1_555
Ga2_2 Li2_0 3.217225 1_565
Ga2_2 Li2_4 3.217225 1_565
Ga2_3 Ga7_3 2.465115 1_555
Ga2_3 Ga6_3 2.526685 1_555
Ga2_3 Ga6_1 2.527233 1_565
Ga2_3 Li1_1 3.033508 1_565
Ga2_3 Li1_5 3.033508 1_565
Ga2_3 Li2_3 3.217022 1_555
Ga2_3 Li2_7 3.217022 1_555
Ga2_3 Li2_5 3.217225 1_565
Ga2_3 Li2_1 3.217225 1_565
Ga2_4 Ga7_4 2.465115 1_555
Ga2_4 Ga6_4 2.526685 1_555
Ga2_4 Ga6_6 2.527233 1_555
Ga2_4 Li1_2 3.033508 1_655
Ga2_4 Li1_6 3.033508 1_555
Ga2_4 Li2_0 3.217022 1_655
Ga2_4 Li2_4 3.217022 1_555
Ga2_4 Li2_2 3.217225 1_655
Ga2_4 Li2_6 3.217225 1_555
Ga2_5 Ga7_5 2.465115 1_555
Ga2_5 Ga6_5 2.526685 1_555
Ga2_5 Ga6_7 2.527233 1_555
Ga2_5 Li1_3 3.033508 1_655
Ga2_5 Li1_7 3.033508 1_555
Ga2_5 Li2_5 3.217022 1_555
Ga2_5 Li2_1 3.217022 1_655
Ga2_5 Li2_7 3.217225 1_555
Ga2_5 Li2_3 3.217225 1_655
Ga2_6 Ga7_6 2.465115 1_555
Ga2_6 Ga6_6 2.526685 1_555
Ga2_6 Ga6_4 2.527233 1_565
Ga2_6 Li1_4 3.033508 1_565
Ga2_6 Li1_0 3.033508 1_665
Ga2_6 Li2_2 3.217022 1_655
Ga2_6 Li2_6 3.217022 1_555
Ga2_6 Li2_0 3.217225 1_665
Ga2_6 Li2_4 3.217225 1_565
Ga2_7 Ga7_7 2.465115 1_555
Ga2_7 Ga6_7 2.526685 1_555
Ga2_7 Ga6_5 2.527233 1_565
Ga2_7 Li1_5 3.033508 1_565
Ga2_7 Li1_1 3.033508 1_665
Ga2_7 Li2_7 3.217022 1_555
Ga2_7 Li2_3 3.217022 1_655
Ga2_7 Li2_5 3.217225 1_565
Ga2_7 Li2_1 3.217225 1_665
Ga3_0 Ga7_0 2.585149 1_555
Ga3_0 Ga7_2 2.585508 1_545
Ga3_0 Ga4_1 2.704457 1_555
Ga3_0 Li2_4 2.951591 1_555
Ga3_0 Li2_0 2.951591 1_555
Ga3_0 La0_3 3.171936 1_545
Ga3_0 La0_7 3.171936 1_545
Ga3_0 La0_1 3.172111 1_555
Ga3_0 La0_5 3.172111 1_555
Ga3_1 Ga7_1 2.585149 1_555
Ga3_1 Ga7_3 2.585508 1_545
Ga3_1 Ga4_0 2.704457 1_556
Ga3_1 Li2_1 2.951591 1_555
Ga3_1 Li2_5 2.951591 1_555
Ga3_1 La0_2 3.171936 1_546
Ga3_1 La0_6 3.171936 1_546
Ga3_1 La0_4 3.172111 1_556
Ga3_1 La0_0 3.172111 1_556
Ga3_2 Ga7_2 2.585149 1_555
Ga3_2 Ga7_0 2.585508 1_555
Ga3_2 Ga4_3 2.704457 1_555
Ga3_2 Li2_2 2.951591 1_555
Ga3_2 Li2_6 2.951591 1_555
Ga3_2 La0_1 3.171936 1_555
Ga3_2 La0_5 3.171936 1_555
Ga3_2 La0_3 3.172111 1_555
Ga3_2 La0_7 3.172111 1_555
Ga3_3 Ga7_3 2.585149 1_555
Ga3_3 Ga7_1 2.585508 1_555
Ga3_3 Ga4_2 2.704457 1_556
Ga3_3 Li2_7 2.951591 1_555
Ga3_3 Li2_3 2.951591 1_555
Ga3_3 La0_4 3.171936 1_556
Ga3_3 La0_0 3.171936 1_556
Ga3_3 La0_2 3.172111 1_556
Ga3_3 La0_6 3.172111 1_556
Ga3_4 Ga7_4 2.585149 1_555
Ga3_4 Ga7_6 2.585508 1_545
Ga3_4 Ga4_5 2.704457 1_555
Ga3_4 Li2_0 2.951591 1_655
Ga3_4 Li2_4 2.951591 1_555
Ga3_4 La0_3 3.171936 1_645
Ga3_4 La0_7 3.171936 1_545
Ga3_4 La0_1 3.172111 1_655
Ga3_4 La0_5 3.172111 1_555
Ga3_5 Ga7_5 2.585149 1_555
Ga3_5 Ga7_7 2.585508 1_545
Ga3_5 Ga4_4 2.704457 1_556
Ga3_5 Li2_1 2.951591 1_655
Ga3_5 Li2_5 2.951591 1_555
Ga3_5 La0_6 3.171936 1_546
Ga3_5 La0_2 3.171936 1_646
Ga3_5 La0_4 3.172111 1_556
Ga3_5 La0_0 3.172111 1_656
Ga3_6 Ga7_6 2.585149 1_555
Ga3_6 Ga7_4 2.585508 1_555
Ga3_6 Ga4_7 2.704457 1_555
Ga3_6 Li2_2 2.951591 1_655
Ga3_6 Li2_6 2.951591 1_555
Ga3_6 La0_1 3.171936 1_655
Ga3_6 La0_5 3.171936 1_555
Ga3_6 La0_7 3.172111 1_555
Ga3_6 La0_3 3.172111 1_655
Ga3_7 Ga7_7 2.585149 1_555
Ga3_7 Ga7_5 2.585508 1_555
Ga3_7 Ga4_6 2.704457 1_556
Ga3_7 Li2_7 2.951591 1_555
Ga3_7 Li2_3 2.951591 1_655
Ga3_7 La0_4 3.171936 1_556
Ga3_7 La0_0 3.171936 1_656
Ga3_7 La0_2 3.172111 1_656
Ga3_7 La0_6 3.172111 1_556
Ga4_0 Li0_4 2.951591 1_555
Ga4_0 Li0_0 2.951591 1_555
Ga4_0 La0_6 3.171936 1_545
Ga4_0 La0_2 3.171936 1_545
Ga4_0 La0_4 3.172111 1_555
Ga4_0 La0_0 3.172111 1_555
Ga4_1 Li0_1 2.951591 1_555
Ga4_1 Li0_5 2.951591 1_555
Ga4_1 La0_3 3.171936 1_545
Ga4_1 La0_7 3.171936 1_545
Ga4_1 La0_5 3.172111 1_555
Ga4_1 La0_1 3.172111 1_555
Ga4_2 Li0_2 2.951591 1_555
Ga4_2 Li0_6 2.951591 1_555
Ga4_2 La0_0 3.171936 1_555
Ga4_2 La0_4 3.171936 1_555
Ga4_2 La0_2 3.172111 1_555
Ga4_2 La0_6 3.172111 1_555
Ga4_3 Li0_3 2.951591 1_555
Ga4_3 Li0_7 2.951591 1_555
Ga4_3 La0_1 3.171936 1_555
Ga4_3 La0_5 3.171936 1_555
Ga4_3 La0_7 3.172111 1_555
Ga4_3 La0_3 3.172111 1_555
Ga4_4 Li0_0 2.951591 1_655
Ga4_4 Li0_4 2.951591 1_555
Ga4_4 La0_6 3.171936 1_545
Ga4_4 La0_2 3.171936 1_645
Ga4_4 La0_4 3.172111 1_555
Ga4_4 La0_0 3.172111 1_655
Ga4_5 Li0_5 2.951591 1_555
Ga4_5 Li0_1 2.951591 1_655
Ga4_5 La0_7 3.171936 1_545
Ga4_5 La0_3 3.171936 1_645
Ga4_5 La0_5 3.172111 1_555
Ga4_5 La0_1 3.172111 1_655
Ga4_6 Li0_2 2.951591 1_655
Ga4_6 Li0_6 2.951591 1_555
Ga4_6 La0_0 3.171936 1_655
Ga4_6 La0_4 3.171936 1_555
Ga4_6 La0_6 3.172111 1_555
Ga4_6 La0_2 3.172111 1_655
Ga4_7 Li0_3 2.951591 1_655
Ga4_7 Li0_7 2.951591 1_555
Ga4_7 La0_5 3.171936 1_555
Ga4_7 La0_1 3.171936 1_655
Ga4_7 La0_7 3.172111 1_555
Ga4_7 La0_3 3.172111 1_655
Ga5_0 Li1_6 3.033508 1_555
Ga5_0 Li1_2 3.033508 1_555
Ga5_0 Li0_0 3.217022 1_555
Ga5_0 Li0_4 3.217022 1_555
Ga5_0 Li0_6 3.217225 1_555
Ga5_0 Li0_2 3.217225 1_555
Ga5_1 Li1_3 3.033508 1_555
Ga5_1 Li1_7 3.033508 1_555
Ga5_1 Li0_5 3.217022 1_555
Ga5_1 Li0_1 3.217022 1_555
Ga5_1 Li0_3 3.217225 1_555
Ga5_1 Li0_7 3.217225 1_555
Ga5_2 Li1_0 3.033508 1_565
Ga5_2 Li1_4 3.033508 1_565
Ga5_2 Li0_2 3.217022 1_555
Ga5_2 Li0_6 3.217022 1_555
Ga5_2 Li0_0 3.217225 1_565
Ga5_2 Li0_4 3.217225 1_565
Ga5_3 Li1_1 3.033508 1_565
Ga5_3 Li1_5 3.033508 1_565
Ga5_3 Li0_7 3.217022 1_555
Ga5_3 Li0_3 3.217022 1_555
Ga5_3 Li0_1 3.217225 1_565
Ga5_3 Li0_5 3.217225 1_565
Ga5_4 Li1_6 3.033508 1_555
Ga5_4 Li1_2 3.033508 1_655
Ga5_4 Li0_0 3.217022 1_655
Ga5_4 Li0_4 3.217022 1_555
Ga5_4 Li0_6 3.217225 1_555
Ga5_4 Li0_2 3.217225 1_655
Ga5_5 Li1_3 3.033508 1_655
Ga5_5 Li1_7 3.033508 1_555
Ga5_5 Li0_1 3.217022 1_655
Ga5_5 Li0_5 3.217022 1_555
Ga5_5 Li0_3 3.217225 1_655
Ga5_5 Li0_7 3.217225 1_555
Ga5_6 Li1_4 3.033508 1_565
Ga5_6 Li1_0 3.033508 1_665
Ga5_6 Li0_2 3.217022 1_655
Ga5_6 Li0_6 3.217022 1_555
Ga5_6 Li0_0 3.217225 1_665
Ga5_6 Li0_4 3.217225 1_565
Ga5_7 Li1_5 3.033508 1_565
Ga5_7 Li1_1 3.033508 1_665
Ga5_7 Li0_3 3.217022 1_655
Ga5_7 Li0_7 3.217022 1_555
Ga5_7 Li0_1 3.217225 1_665
Ga5_7 Li0_5 3.217225 1_565
Ga6_0 Li1_2 3.122491 1_555
Ga6_0 Li1_6 3.122491 1_555
Ga6_0 Li1_0 3.122592 1_555
Ga6_0 Li1_4 3.122592 1_555
Ga6_0 Li2_4 3.215204 1_555
Ga6_0 Li2_0 3.215204 1_555
Ga6_1 Li1_3 3.122491 1_555
Ga6_1 Li1_7 3.122491 1_555
Ga6_1 Li1_1 3.122592 1_555
Ga6_1 Li1_5 3.122592 1_555
Ga6_1 Li2_5 3.215204 1_555
Ga6_1 Li2_1 3.215204 1_555
Ga6_2 Li1_0 3.122491 1_565
Ga6_2 Li1_4 3.122491 1_565
Ga6_2 Li1_2 3.122592 1_555
Ga6_2 Li1_6 3.122592 1_555
Ga6_2 Li2_2 3.215204 1_555
Ga6_2 Li2_6 3.215204 1_555
Ga6_3 Li1_1 3.122491 1_565
Ga6_3 Li1_5 3.122491 1_565
Ga6_3 Li1_3 3.122592 1_555
Ga6_3 Li1_7 3.122592 1_555
Ga6_3 Li2_3 3.215204 1_555
Ga6_3 Li2_7 3.215204 1_555
Ga6_4 Li1_6 3.122491 1_555
Ga6_4 Li1_2 3.122491 1_655
Ga6_4 Li1_4 3.122592 1_555
Ga6_4 Li1_0 3.122592 1_655
Ga6_4 Li2_0 3.215204 1_655
Ga6_4 Li2_4 3.215204 1_555
Ga6_5 Li1_3 3.122491 1_655
Ga6_5 Li1_7 3.122491 1_555
Ga6_5 Li1_5 3.122592 1_555
Ga6_5 Li1_1 3.122592 1_655
Ga6_5 Li2_1 3.215204 1_655
Ga6_5 Li2_5 3.215204 1_555
Ga6_6 Li1_4 3.122491 1_565
Ga6_6 Li1_0 3.122491 1_665
Ga6_6 Li1_2 3.122592 1_655
Ga6_6 Li1_6 3.122592 1_555
Ga6_6 Li2_2 3.215204 1_655
Ga6_6 Li2_6 3.215204 1_555
Ga6_7 Li1_5 3.122491 1_565
Ga6_7 Li1_1 3.122491 1_665
Ga6_7 Li1_3 3.122592 1_655
Ga6_7 Li1_7 3.122592 1_555
Ga6_7 Li2_7 3.215204 1_555
Ga6_7 Li2_3 3.215204 1_655
Ga7_0 Li2_0 3.041663 1_555
Ga7_0 Li2_4 3.041663 1_555
Ga7_0 Li2_6 3.042346 1_555
Ga7_0 Li2_2 3.042346 1_555
Ga7_0 La0_1 3.228278 1_555
Ga7_0 La0_5 3.228278 1_555
Ga7_1 Li2_1 3.041663 1_555
Ga7_1 Li2_5 3.041663 1_555
Ga7_1 Li2_3 3.042346 1_555
Ga7_1 Li2_7 3.042346 1_555
Ga7_1 La0_4 3.228278 1_556
Ga7_1 La0_0 3.228278 1_556
Ga7_2 Li2_2 3.041663 1_555
Ga7_2 Li2_6 3.041663 1_555
Ga7_2 Li2_0 3.042346 1_565
Ga7_2 Li2_4 3.042346 1_565
Ga7_2 La0_7 3.228278 1_555
Ga7_2 La0_3 3.228278 1_555
Ga7_3 Li2_7 3.041663 1_555
Ga7_3 Li2_3 3.041663 1_555
Ga7_3 Li2_5 3.042346 1_565
Ga7_3 Li2_1 3.042346 1_565
Ga7_3 La0_2 3.228278 1_556
Ga7_3 La0_6 3.228278 1_556
Ga7_4 Li2_0 3.041663 1_655
Ga7_4 Li2_4 3.041663 1_555
Ga7_4 Li2_6 3.042346 1_555
Ga7_4 Li2_2 3.042346 1_655
Ga7_4 La0_1 3.228278 1_655
Ga7_4 La0_5 3.228278 1_555
Ga7_5 Li2_5 3.041663 1_555
Ga7_5 Li2_1 3.041663 1_655
Ga7_5 Li2_3 3.042346 1_655
Ga7_5 Li2_7 3.042346 1_555
Ga7_5 La0_4 3.228278 1_556
Ga7_5 La0_0 3.228278 1_656
Ga7_6 Li2_2 3.041663 1_655
Ga7_6 Li2_6 3.041663 1_555
Ga7_6 Li2_4 3.042346 1_565
Ga7_6 Li2_0 3.042346 1_665
Ga7_6 La0_7 3.228278 1_555
Ga7_6 La0_3 3.228278 1_655
Ga7_7 Li2_3 3.041663 1_655
Ga7_7 Li2_7 3.041663 1_555
Ga7_7 Li2_5 3.042346 1_565
Ga7_7 Li2_1 3.042346 1_665
Ga7_7 La0_2 3.228278 1_656
Ga7_7 La0_6 3.228278 1_556
