# generated using pymatgen
data_UCo2Sn
_symmetry_space_group_name_H-M   'P 1'
_cell_length_a   4.30211700
_cell_length_b   6.62670500
_cell_length_c   9.31547300
_cell_angle_alpha   90.00000000
_cell_angle_beta   90.00000000
_cell_angle_gamma   90.00000000
_symmetry_Int_Tables_number   1
_chemical_formula_structural   UCo2Sn
_chemical_formula_sum   'U4 Co8 Sn4'
_cell_volume   265.57351778
_cell_formula_units_Z   4
loop_
 _symmetry_equiv_pos_site_id
 _symmetry_equiv_pos_as_xyz
  1  'x, y, z'
loop_
 _atom_site_type_symbol
 _atom_site_label
 _atom_site_symmetry_multiplicity
 _atom_site_fract_x
 _atom_site_fract_y
 _atom_site_fract_z
 _atom_site_occupancy
  U  U0  1  0.25000000  0.31080300  0.10054500  1
  U  U1  1  0.75000000  0.68919700  0.89945500  1
  U  U2  1  0.75000000  0.81080300  0.39945500  1
  U  U3  1  0.25000000  0.18919700  0.60054500  1
  Co  Co0  1  0.25000000  0.08591600  0.32513300  1
  Co  Co1  1  0.75000000  0.91408400  0.67486700  1
  Co  Co2  1  0.75000000  0.58591600  0.17486700  1
  Co  Co3  1  0.25000000  0.41408400  0.82513300  1
  Co  Co4  1  0.25000000  0.53196500  0.37962300  1
  Co  Co5  1  0.75000000  0.46803500  0.62037700  1
  Co  Co6  1  0.75000000  0.03196500  0.12037700  1
  Co  Co7  1  0.25000000  0.96803500  0.87962300  1
  Sn  Sn0  1  0.25000000  0.79782000  0.13909000  1
  Sn  Sn1  1  0.75000000  0.20218000  0.86091000  1
  Sn  Sn2  1  0.75000000  0.29782000  0.36091000  1
  Sn  Sn3  1  0.25000000  0.70218000  0.63909000  1
loop_
_geom_bond_atom_site_label_1
_geom_bond_atom_site_label_2
_geom_bond_distance
_geom_bond_site_symmetry_2
Co0 U0 2.568645 1_555
Co0 Sn0 2.578435 1_545
Co0 Sn2 2.590362 1_455
Co0 Sn2 2.590362 1_555
Co0 U3 2.655313 1_555
Co0 U2 2.903457 1_445
Co0 U2 2.903457 1_545
Co1 U1 2.568645 1_555
Co1 Sn1 2.578435 1_565
Co1 Sn3 2.590362 1_555
Co1 Sn3 2.590362 1_655
Co1 U2 2.655313 1_555
Co1 U3 2.903457 1_565
Co1 U3 2.903457 1_665
Co2 U2 2.568645 1_555
Co2 Sn2 2.578435 1_555
Co2 Sn0 2.590362 1_655
Co2 Sn0 2.590362 1_555
Co2 U1 2.655313 1_554
Co2 U0 2.903457 1_655
Co2 U0 2.903457 1_555
Co3 U3 2.568645 1_555
Co3 Sn3 2.578435 1_555
Co3 Sn1 2.590362 1_555
Co3 Sn1 2.590362 1_455
Co3 U0 2.655313 1_556
Co3 U1 2.903457 1_455
Co3 U1 2.903457 1_555
Co4 Sn2 2.657994 1_455
Co4 Sn2 2.657994 1_555
Co4 Sn3 2.667297 1_555
Co4 U2 2.841736 1_555
Co4 U2 2.841736 1_455
Co4 Sn0 2.850329 1_555
Co4 U0 2.984389 1_555
Co4 U3 3.065077 1_555
Co5 Sn3 2.657994 1_655
Co5 Sn3 2.657994 1_555
Co5 Sn2 2.667297 1_555
Co5 U3 2.841736 1_555
Co5 U3 2.841736 1_655
Co5 Sn1 2.850329 1_555
Co5 U1 2.984389 1_555
Co5 U2 3.065077 1_555
Co6 Sn0 2.657994 1_545
Co6 Sn0 2.657994 1_645
Co6 Sn1 2.667297 1_554
Co6 U0 2.841736 1_655
Co6 U0 2.841736 1_555
Co6 Sn2 2.850329 1_555
Co6 U2 2.984389 1_545
Co6 U1 3.065077 1_544
Co7 Sn1 2.657994 1_565
Co7 Sn1 2.657994 1_465
Co7 Sn0 2.667297 1_556
Co7 U1 2.841736 1_555
Co7 U1 2.841736 1_455
Co7 Sn3 2.850329 1_555
Co7 U3 2.984389 1_565
Co7 U0 3.065077 1_566
Sn0 U1 3.182516 1_454
Sn0 U1 3.182516 1_554
Sn0 U2 3.243013 1_555
Sn0 U2 3.243013 1_455
Sn0 U0 3.247231 1_555
Sn1 U0 3.182516 1_556
Sn1 U0 3.182516 1_656
Sn1 U3 3.243013 1_655
Sn1 U3 3.243013 1_555
Sn1 U1 3.247231 1_555
Sn2 U3 3.182516 1_655
Sn2 U3 3.182516 1_555
Sn2 U0 3.243013 1_555
Sn2 U0 3.243013 1_655
Sn2 U2 3.247231 1_545
Sn3 U2 3.182516 1_555
Sn3 U2 3.182516 1_455
Sn3 U1 3.243013 1_455
Sn3 U1 3.243013 1_555
Sn3 U3 3.247231 1_565
