# generated using pymatgen
data_Th(SiIr)2
_symmetry_space_group_name_H-M   'P 1'
_cell_length_a   5.83633414
_cell_length_b   5.83633414
_cell_length_c   5.83633414
_cell_angle_alpha   137.38039153
_cell_angle_beta   137.38039153
_cell_angle_gamma   61.85329534
_symmetry_Int_Tables_number   1
_chemical_formula_structural   Th(SiIr)2
_chemical_formula_sum   'Th1 Si2 Ir2'
_cell_volume   90.08965703
_cell_formula_units_Z   1
loop_
 _symmetry_equiv_pos_site_id
 _symmetry_equiv_pos_as_xyz
  1  'x, y, z'
loop_
 _atom_site_type_symbol
 _atom_site_label
 _atom_site_symmetry_multiplicity
 _atom_site_fract_x
 _atom_site_fract_y
 _atom_site_fract_z
 _atom_site_occupancy
  Th  Th0  1  0.00000000  0.00000000  0.00000000  1
  Si  Si0  1  0.25000000  0.75000000  0.50000000  1
  Si  Si1  1  0.75000000  0.25000000  0.50000000  1
  Ir  Ir0  1  0.63093200  0.63093200  0.00000000  1
  Ir  Ir1  1  0.36906800  0.36906800  0.00000000  1
loop_
_geom_bond_atom_site_label_1
_geom_bond_atom_site_label_2
_geom_bond_distance
_geom_bond_site_symmetry_2
Si0 Th0 3.281004 1_666
Si0 Th0 3.281004 1_555
Si0 Th0 3.281004 1_566
Si0 Th0 3.281004 1_565
Si1 Th0 3.281004 1_555
Si1 Th0 3.281004 1_656
Si1 Th0 3.281004 1_655
Si1 Th0 3.281004 1_666
Ir0 Si1 2.433110 1_565
Ir0 Si0 2.433110 1_655
Ir0 Si0 2.433110 1_554
Ir0 Si1 2.433110 1_554
Ir0 Ir1 2.622075 1_555
Ir0 Th0 3.273528 1_565
Ir0 Th0 3.273528 1_666
Ir0 Th0 3.273528 1_655
Ir0 Th0 3.273528 1_554
Ir1 Si0 2.433110 1_544
Ir1 Si1 2.433110 1_454
Ir1 Si0 2.433110 1_555
Ir1 Si1 2.433110 1_555
Ir1 Th0 3.273528 1_565
Ir1 Th0 3.273528 1_655
Ir1 Th0 3.273528 1_554
Ir1 Th0 3.273528 1_666
