# generated using pymatgen
data_Mg2Sb
_symmetry_space_group_name_H-M   'P 1'
_cell_length_a   6.62647279
_cell_length_b   6.62647279
_cell_length_c   31.12189600
_cell_angle_alpha   90.00000000
_cell_angle_beta   90.00000000
_cell_angle_gamma   120.00000787
_symmetry_Int_Tables_number   1
_chemical_formula_structural   Mg2Sb
_chemical_formula_sum   'Mg32 Sb16'
_cell_volume   1183.48152350
_cell_formula_units_Z   16
loop_
 _symmetry_equiv_pos_site_id
 _symmetry_equiv_pos_as_xyz
  1  'x, y, z'
loop_
 _atom_site_type_symbol
 _atom_site_label
 _atom_site_symmetry_multiplicity
 _atom_site_fract_x
 _atom_site_fract_y
 _atom_site_fract_z
 _atom_site_occupancy
  Mg  Mg0_0  1  0.00000000  0.00000000  0.25000000  1
  Mg  Mg0_1  1  0.00000000  0.00000000  0.75000000  1
  Mg  Mg0_2  1  0.00000000  0.50000000  0.25000000  1
  Mg  Mg0_3  1  0.00000000  0.50000000  0.75000000  1
  Mg  Mg0_4  1  0.50000000  0.00000000  0.25000000  1
  Mg  Mg0_5  1  0.50000000  0.00000000  0.75000000  1
  Mg  Mg0_6  1  0.50000000  0.50000000  0.25000000  1
  Mg  Mg0_7  1  0.50000000  0.50000000  0.75000000  1
  Mg  Mg1_0  1  0.33333350  0.16666650  0.16789450  1
  Mg  Mg1_1  1  0.33333350  0.16666650  0.66789450  1
  Mg  Mg1_2  1  0.33333350  0.66666650  0.16789450  1
  Mg  Mg1_3  1  0.33333350  0.66666650  0.66789450  1
  Mg  Mg1_4  1  0.83333350  0.16666650  0.16789450  1
  Mg  Mg1_5  1  0.83333350  0.16666650  0.66789450  1
  Mg  Mg1_6  1  0.83333350  0.66666650  0.16789450  1
  Mg  Mg1_7  1  0.83333350  0.66666650  0.66789450  1
  Mg  Mg2_0  1  0.33333350  0.16666650  0.00000000  1
  Mg  Mg2_1  1  0.33333350  0.16666650  0.50000000  1
  Mg  Mg2_2  1  0.33333350  0.66666650  0.00000000  1
  Mg  Mg2_3  1  0.33333350  0.66666650  0.50000000  1
  Mg  Mg2_4  1  0.83333350  0.16666650  0.00000000  1
  Mg  Mg2_5  1  0.83333350  0.16666650  0.50000000  1
  Mg  Mg2_6  1  0.83333350  0.66666650  0.00000000  1
  Mg  Mg2_7  1  0.83333350  0.66666650  0.50000000  1
  Mg  Mg3_0  1  0.33333350  0.16666650  0.33210550  1
  Mg  Mg3_1  1  0.33333350  0.16666650  0.83210550  1
  Mg  Mg3_2  1  0.33333350  0.66666650  0.33210550  1
  Mg  Mg3_3  1  0.33333350  0.66666650  0.83210550  1
  Mg  Mg3_4  1  0.83333350  0.16666650  0.33210550  1
  Mg  Mg3_5  1  0.83333350  0.16666650  0.83210550  1
  Mg  Mg3_6  1  0.83333350  0.66666650  0.33210550  1
  Mg  Mg3_7  1  0.83333350  0.66666650  0.83210550  1
  Sb  Sb0_0  1  0.00000000  0.00000000  0.08324550  1
  Sb  Sb0_1  1  0.00000000  0.00000000  0.58324550  1
  Sb  Sb0_2  1  0.00000000  0.50000000  0.08324550  1
  Sb  Sb0_3  1  0.00000000  0.50000000  0.58324550  1
  Sb  Sb0_4  1  0.50000000  0.00000000  0.08324550  1
  Sb  Sb0_5  1  0.50000000  0.00000000  0.58324550  1
  Sb  Sb0_6  1  0.50000000  0.50000000  0.08324550  1
  Sb  Sb0_7  1  0.50000000  0.50000000  0.58324550  1
  Sb  Sb1_0  1  0.00000000  0.00000000  0.41675450  1
  Sb  Sb1_1  1  0.00000000  0.00000000  0.91675450  1
  Sb  Sb1_2  1  0.00000000  0.50000000  0.41675450  1
  Sb  Sb1_3  1  0.00000000  0.50000000  0.91675450  1
  Sb  Sb1_4  1  0.50000000  0.00000000  0.41675450  1
  Sb  Sb1_5  1  0.50000000  0.00000000  0.91675450  1
  Sb  Sb1_6  1  0.50000000  0.50000000  0.41675450  1
  Sb  Sb1_7  1  0.50000000  0.50000000  0.91675450  1
loop_
_geom_bond_atom_site_label_1
_geom_bond_atom_site_label_2
_geom_bond_distance
_geom_bond_site_symmetry_2
Mg0_0 Mg1_4 3.191962 1_455
Mg0_0 Mg3_4 3.191962 1_455
Mg0_0 Mg1_0 3.191964 1_555
Mg0_0 Mg1_6 3.191964 1_445
Mg0_0 Mg3_0 3.191964 1_555
Mg0_0 Mg3_6 3.191964 1_445
Mg0_0 Mg0_6 3.313236 1_445
Mg0_0 Mg0_6 3.313236 1_555
Mg0_0 Mg0_2 3.313236 1_545
Mg0_0 Mg0_4 3.313236 1_555
Mg0_0 Mg0_4 3.313236 1_455
Mg0_0 Mg0_2 3.313236 1_555
Mg0_1 Mg3_5 3.191962 1_455
Mg0_1 Mg1_5 3.191962 1_455
Mg0_1 Mg3_7 3.191964 1_445
Mg0_1 Mg3_1 3.191964 1_555
Mg0_1 Mg1_7 3.191964 1_445
Mg0_1 Mg1_1 3.191964 1_555
Mg0_1 Mg0_7 3.313236 1_445
Mg0_1 Mg0_7 3.313236 1_555
Mg0_1 Mg0_3 3.313236 1_555
Mg0_1 Mg0_5 3.313236 1_455
Mg0_1 Mg0_5 3.313236 1_555
Mg0_1 Mg0_3 3.313236 1_545
Mg0_2 Mg1_6 3.191962 1_455
Mg0_2 Mg3_6 3.191962 1_455
Mg0_2 Mg1_2 3.191964 1_555
Mg0_2 Mg1_4 3.191964 1_455
Mg0_2 Mg3_2 3.191964 1_555
Mg0_2 Mg3_4 3.191964 1_455
Mg0_2 Mg0_4 3.313236 1_455
Mg0_2 Mg0_4 3.313236 1_565
Mg0_2 Mg0_6 3.313236 1_455
Mg0_2 Mg0_6 3.313236 1_555
Mg0_3 Mg3_7 3.191962 1_455
Mg0_3 Mg1_7 3.191962 1_455
Mg0_3 Mg3_3 3.191964 1_555
Mg0_3 Mg3_5 3.191964 1_455
Mg0_3 Mg1_3 3.191964 1_555
Mg0_3 Mg1_5 3.191964 1_455
Mg0_3 Mg0_5 3.313236 1_565
Mg0_3 Mg0_5 3.313236 1_455
Mg0_3 Mg0_7 3.313236 1_455
Mg0_3 Mg0_7 3.313236 1_555
Mg0_4 Mg1_0 3.191962 1_555
Mg0_4 Mg3_0 3.191962 1_555
Mg0_4 Mg1_2 3.191964 1_545
Mg0_4 Mg1_4 3.191964 1_555
Mg0_4 Mg3_4 3.191964 1_555
Mg0_4 Mg3_2 3.191964 1_545
Mg0_4 Mg0_6 3.313236 1_545
Mg0_4 Mg0_6 3.313236 1_555
Mg0_5 Mg3_1 3.191962 1_555
Mg0_5 Mg1_1 3.191962 1_555
Mg0_5 Mg3_5 3.191964 1_555
Mg0_5 Mg3_3 3.191964 1_545
Mg0_5 Mg1_5 3.191964 1_555
Mg0_5 Mg1_3 3.191964 1_545
Mg0_5 Mg0_7 3.313236 1_545
Mg0_5 Mg0_7 3.313236 1_555
Mg0_6 Mg1_2 3.191962 1_555
Mg0_6 Mg3_2 3.191962 1_555
Mg0_6 Mg1_0 3.191964 1_555
Mg0_6 Mg1_6 3.191964 1_555
Mg0_6 Mg3_6 3.191964 1_555
Mg0_6 Mg3_0 3.191964 1_555
Mg0_7 Mg3_3 3.191962 1_555
Mg0_7 Mg1_3 3.191962 1_555
Mg0_7 Mg3_7 3.191964 1_555
Mg0_7 Mg3_1 3.191964 1_555
Mg0_7 Mg1_1 3.191964 1_555
Mg0_7 Mg1_7 3.191964 1_555
Mg1_0 Sb0_4 3.255677 1_555
Mg1_0 Sb0_0 3.255678 1_555
Mg1_0 Sb0_6 3.255678 1_555
Mg1_0 Mg1_6 3.313236 1_555
Mg1_0 Mg1_6 3.313236 1_445
Mg1_0 Mg1_4 3.313236 1_455
Mg1_0 Mg1_2 3.313236 1_555
Mg1_0 Mg1_2 3.313236 1_545
Mg1_0 Mg1_4 3.313236 1_555
Mg1_1 Sb0_5 3.255677 1_555
Mg1_1 Sb0_7 3.255678 1_555
Mg1_1 Sb0_1 3.255678 1_555
Mg1_1 Mg1_7 3.313236 1_445
Mg1_1 Mg1_7 3.313236 1_555
Mg1_1 Mg1_3 3.313236 1_555
Mg1_1 Mg1_5 3.313236 1_455
Mg1_1 Mg1_5 3.313236 1_555
Mg1_1 Mg1_3 3.313236 1_545
Mg1_2 Sb0_6 3.255677 1_555
Mg1_2 Sb0_4 3.255678 1_565
Mg1_2 Sb0_2 3.255678 1_555
Mg1_2 Mg1_4 3.313236 1_455
Mg1_2 Mg1_4 3.313236 1_565
Mg1_2 Mg1_6 3.313236 1_455
Mg1_2 Mg1_6 3.313236 1_555
Mg1_3 Sb0_7 3.255677 1_555
Mg1_3 Sb0_3 3.255678 1_555
Mg1_3 Sb0_5 3.255678 1_565
Mg1_3 Mg1_5 3.313236 1_455
Mg1_3 Mg1_5 3.313236 1_565
Mg1_3 Mg1_7 3.313236 1_455
Mg1_3 Mg1_7 3.313236 1_555
Mg1_4 Sb0_0 3.255677 1_655
Mg1_4 Sb0_2 3.255678 1_655
Mg1_4 Sb0_4 3.255678 1_555
Mg1_4 Mg1_6 3.313236 1_555
Mg1_4 Mg1_6 3.313236 1_545
Mg1_5 Sb0_1 3.255677 1_655
Mg1_5 Sb0_3 3.255678 1_655
Mg1_5 Sb0_5 3.255678 1_555
Mg1_5 Mg1_7 3.313236 1_555
Mg1_5 Mg1_7 3.313236 1_545
Mg1_6 Sb0_2 3.255677 1_655
Mg1_6 Sb0_0 3.255678 1_665
Mg1_6 Sb0_6 3.255678 1_555
Mg1_7 Sb0_3 3.255677 1_655
Mg1_7 Sb0_1 3.255678 1_665
Mg1_7 Sb0_7 3.255678 1_555
Mg2_0 Sb1_5 3.220434 1_554
Mg2_0 Sb0_4 3.220434 1_555
Mg2_0 Sb1_1 3.220436 1_554
Mg2_0 Sb1_7 3.220436 1_554
Mg2_0 Sb0_6 3.220436 1_555
Mg2_0 Sb0_0 3.220436 1_555
Mg2_1 Sb1_4 3.220434 1_555
Mg2_1 Sb0_5 3.220434 1_555
Mg2_1 Sb1_6 3.220436 1_555
Mg2_1 Sb1_0 3.220436 1_555
Mg2_1 Sb0_7 3.220436 1_555
Mg2_1 Sb0_1 3.220436 1_555
Mg2_2 Sb1_7 3.220434 1_554
Mg2_2 Sb0_6 3.220434 1_555
Mg2_2 Sb1_5 3.220436 1_564
Mg2_2 Sb1_3 3.220436 1_554
Mg2_2 Sb0_2 3.220436 1_555
Mg2_2 Sb0_4 3.220436 1_565
Mg2_3 Sb1_6 3.220434 1_555
Mg2_3 Sb0_7 3.220434 1_555
Mg2_3 Sb1_2 3.220436 1_555
Mg2_3 Sb1_4 3.220436 1_565
Mg2_3 Sb0_3 3.220436 1_555
Mg2_3 Sb0_5 3.220436 1_565
Mg2_4 Sb1_1 3.220434 1_654
Mg2_4 Sb0_0 3.220434 1_655
Mg2_4 Sb1_3 3.220436 1_654
Mg2_4 Sb1_5 3.220436 1_554
Mg2_4 Sb0_2 3.220436 1_655
Mg2_4 Sb0_4 3.220436 1_555
Mg2_5 Sb1_0 3.220434 1_655
Mg2_5 Sb0_1 3.220434 1_655
Mg2_5 Sb1_2 3.220436 1_655
Mg2_5 Sb1_4 3.220436 1_555
Mg2_5 Sb0_3 3.220436 1_655
Mg2_5 Sb0_5 3.220436 1_555
Mg2_6 Sb1_3 3.220434 1_654
Mg2_6 Sb0_2 3.220434 1_655
Mg2_6 Sb1_1 3.220436 1_664
Mg2_6 Sb1_7 3.220436 1_554
Mg2_6 Sb0_6 3.220436 1_555
Mg2_6 Sb0_0 3.220436 1_665
Mg2_7 Sb1_2 3.220434 1_655
Mg2_7 Sb0_3 3.220434 1_655
Mg2_7 Sb1_6 3.220436 1_555
Mg2_7 Sb1_0 3.220436 1_665
Mg2_7 Sb0_7 3.220436 1_555
Mg2_7 Sb0_1 3.220436 1_665
Mg3_0 Sb1_4 3.255677 1_555
Mg3_0 Sb1_0 3.255678 1_555
Mg3_0 Sb1_6 3.255678 1_555
Mg3_0 Mg3_6 3.313236 1_445
Mg3_0 Mg3_6 3.313236 1_555
Mg3_0 Mg3_4 3.313236 1_455
Mg3_0 Mg3_2 3.313236 1_555
Mg3_0 Mg3_2 3.313236 1_545
Mg3_0 Mg3_4 3.313236 1_555
Mg3_1 Sb1_5 3.255677 1_555
Mg3_1 Sb1_1 3.255678 1_555
Mg3_1 Sb1_7 3.255678 1_555
Mg3_1 Mg3_7 3.313236 1_555
Mg3_1 Mg3_7 3.313236 1_445
Mg3_1 Mg3_3 3.313236 1_555
Mg3_1 Mg3_5 3.313236 1_455
Mg3_1 Mg3_5 3.313236 1_555
Mg3_1 Mg3_3 3.313236 1_545
Mg3_2 Sb1_6 3.255677 1_555
Mg3_2 Sb1_2 3.255678 1_555
Mg3_2 Sb1_4 3.255678 1_565
Mg3_2 Mg3_4 3.313236 1_455
Mg3_2 Mg3_4 3.313236 1_565
Mg3_2 Mg3_6 3.313236 1_455
Mg3_2 Mg3_6 3.313236 1_555
Mg3_3 Sb1_7 3.255677 1_555
Mg3_3 Sb1_3 3.255678 1_555
Mg3_3 Sb1_5 3.255678 1_565
Mg3_3 Mg3_5 3.313236 1_455
Mg3_3 Mg3_5 3.313236 1_565
Mg3_3 Mg3_7 3.313236 1_455
Mg3_3 Mg3_7 3.313236 1_555
Mg3_4 Sb1_0 3.255677 1_655
Mg3_4 Sb1_4 3.255678 1_555
Mg3_4 Sb1_2 3.255678 1_655
Mg3_4 Mg3_6 3.313236 1_555
Mg3_4 Mg3_6 3.313236 1_545
Mg3_5 Sb1_1 3.255677 1_655
Mg3_5 Sb1_3 3.255678 1_655
Mg3_5 Sb1_5 3.255678 1_555
Mg3_5 Mg3_7 3.313236 1_545
Mg3_5 Mg3_7 3.313236 1_555
Mg3_6 Sb1_2 3.255677 1_655
Mg3_6 Sb1_0 3.255678 1_665
Mg3_6 Sb1_6 3.255678 1_555
Mg3_7 Sb1_3 3.255677 1_655
Mg3_7 Sb1_1 3.255678 1_665
Mg3_7 Sb1_7 3.255678 1_555
