# generated using pymatgen
data_Rb5Li6(BO2)11
_symmetry_space_group_name_H-M   'P 1'
_cell_length_a   6.91087150
_cell_length_b   6.91087150
_cell_length_c   13.90918786
_cell_angle_alpha   75.49352378
_cell_angle_beta   75.49352378
_cell_angle_gamma   62.92486310
_symmetry_Int_Tables_number   1
_chemical_formula_structural   Rb5Li6(BO2)11
_chemical_formula_sum   'Rb5 Li6 B11 O22'
_cell_volume   565.42393422
_cell_formula_units_Z   1
loop_
 _symmetry_equiv_pos_site_id
 _symmetry_equiv_pos_as_xyz
  1  'x, y, z'
loop_
 _atom_site_type_symbol
 _atom_site_label
 _atom_site_symmetry_multiplicity
 _atom_site_fract_x
 _atom_site_fract_y
 _atom_site_fract_z
 _atom_site_occupancy
  Rb  Rb0  1  0.04920600  0.30389000  0.21294700  1
  Rb  Rb1  1  0.69611000  0.95079400  0.78705300  1
  Rb  Rb2  1  0.46837200  0.12576700  0.41168400  1
  Rb  Rb3  1  0.87423300  0.53162800  0.58831600  1
  Rb  Rb4  1  0.02064000  0.97936000  0.00000000  1
  Li  Li0  1  0.57473900  0.58581500  0.40446900  1
  Li  Li1  1  0.41418500  0.42526100  0.59553100  1
  Li  Li2  1  0.56951200  0.88411600  0.23200700  1
  Li  Li3  1  0.11588400  0.43048800  0.76799300  1
  Li  Li4  1  0.91209900  0.50232300  0.95415900  1
  Li  Li5  1  0.49767700  0.08790100  0.04584100  1
  B  B0  1  0.55124200  0.35418800  0.16416100  1
  B  B1  1  0.64581200  0.44875800  0.83583900  1
  B  B2  1  0.15748100  0.83104200  0.40937800  1
  B  B3  1  0.16895800  0.84251900  0.59062200  1
  B  B4  1  0.31512400  0.71120500  0.23487600  1
  B  B5  1  0.28879500  0.68487600  0.76512400  1
  B  B6  1  0.95403400  0.73302200  0.31604000  1
  B  B7  1  0.26697800  0.04596600  0.68396000  1
  B  B8  1  0.87045400  0.12954600  0.50000000  1
  B  B9  1  0.60160100  0.68986100  0.07469700  1
  B  B10  1  0.31013900  0.39839900  0.92530300  1
  O  O0  1  0.56395800  0.15809700  0.15913800  1
  O  O1  1  0.84190300  0.43604200  0.84086200  1
  O  O2  1  0.42496300  0.81170900  0.14177000  1
  O  O3  1  0.18829100  0.57503700  0.85823000  1
  O  O4  1  0.77754700  0.69761800  0.31646100  1
  O  O5  1  0.30238200  0.22245300  0.68353900  1
  O  O6  1  0.66681600  0.46020100  0.08569000  1
  O  O7  1  0.53979900  0.33318400  0.91431000  1
  O  O8  1  0.43360000  0.46571800  0.24555400  1
  O  O9  1  0.53428200  0.56640000  0.75444600  1
  O  O10  1  0.68297900  0.31702100  0.50000000  1
  O  O11  1  0.01223000  0.72707000  0.40652500  1
  O  O12  1  0.27293000  0.98777000  0.59347500  1
  O  O13  1  0.01796300  0.07165500  0.41068700  1
  O  O14  1  0.92834500  0.98203700  0.58931300  1
  O  O15  1  0.08653600  0.77418100  0.22549400  1
  O  O16  1  0.22581900  0.91346400  0.77450600  1
  O  O17  1  0.33072600  0.79575300  0.31885500  1
  O  O18  1  0.20424700  0.66927400  0.68114500  1
  O  O19  1  0.26894400  0.73105600  0.50000000  1
  O  O20  1  0.70953500  0.78900900  0.00185200  1
  O  O21  1  0.21099100  0.29046500  0.99814800  1
loop_
_geom_bond_atom_site_label_1
_geom_bond_atom_site_label_2
_geom_bond_distance
_geom_bond_site_symmetry_2
Li0 O4 1.926744 1_555
Li0 O10 1.942238 1_555
Li0 O17 2.068829 1_555
Li0 O19 2.137657 1_555
Li1 O5 1.926744 1_555
Li1 O10 1.942238 1_555
Li1 O18 2.068829 1_555
Li1 O19 2.137657 1_555
Li2 O4 1.873184 1_555
Li2 O0 1.898894 1_565
Li2 O17 2.025954 1_555
Li2 O2 2.054623 1_555
Li3 O5 1.873184 1_555
Li3 O1 1.898894 1_455
Li3 O18 2.025954 1_555
Li3 O3 2.054623 1_555
Li4 O1 1.968608 1_555
Li4 O20 1.998379 1_556
Li4 O21 2.053299 1_655
Li4 O6 2.221251 1_556
Li4 O3 2.222037 1_655
Li5 O0 1.968608 1_555
Li5 O21 1.998379 1_554
Li5 O20 2.053299 1_545
Li5 O7 2.221251 1_554
Li5 O2 2.222037 1_545
B0 O0 1.336042 1_555
B0 O8 1.393680 1_555
B0 O6 1.435743 1_555
B1 O1 1.336042 1_555
B1 O9 1.393680 1_555
B1 O7 1.435743 1_555
B2 O17 1.486973 1_555
B2 O11 1.488737 1_555
B2 O19 1.491708 1_555
B2 O13 1.497301 1_565
B3 O18 1.486973 1_555
B3 O12 1.488737 1_555
B3 O19 1.491708 1_555
B3 O14 1.497301 1_455
B4 O15 1.466622 1_555
B4 O17 1.476419 1_555
B4 O8 1.496948 1_555
B4 O2 1.507509 1_555
B5 O16 1.466622 1_555
B5 O18 1.476419 1_555
B5 O9 1.496948 1_555
B5 O3 1.507509 1_555
B6 O4 1.347174 1_555
B6 O11 1.400014 1_655
B6 O15 1.409059 1_655
B7 O5 1.347174 1_555
B7 O12 1.400014 1_545
B7 O16 1.409059 1_545
B8 O10 1.352466 1_555
B8 O14 1.409182 1_545
B8 O13 1.409182 1_655
B9 O20 1.338405 1_555
B9 O2 1.398889 1_555
B9 O6 1.416803 1_555
B10 O21 1.338405 1_555
B10 O3 1.398889 1_555
B10 O7 1.416803 1_555
O0 Rb0 3.164085 1_555
O0 Rb4 3.272184 1_645
O1 Rb1 3.164085 1_555
O1 Rb4 3.272184 1_646
O2 Rb4 3.421578 1_555
O3 Rb4 3.421578 1_556
O4 Rb0 2.993280 1_655
O4 Rb2 3.140856 1_565
O5 Rb1 2.993280 1_545
O5 Rb3 3.140856 1_455
O6 Rb0 3.173380 1_655
O6 Rb4 3.401404 1_645
O7 Rb1 3.173380 1_545
O7 Rb4 3.401404 1_646
O8 Rb2 2.821575 1_555
O9 Rb3 2.821575 1_555
O10 Rb3 2.994362 1_555
O10 Rb2 2.994362 1_555
O11 Rb3 2.716799 1_455
O12 Rb2 2.716799 1_565
O13 Rb0 2.827311 1_555
O13 Rb2 3.303471 1_555
O14 Rb1 2.827311 1_555
O14 Rb3 3.303471 1_555
O15 Rb4 3.155148 1_555
O16 Rb4 3.155148 1_556
O20 Rb1 2.925042 1_554
O20 Rb4 2.980545 1_655
O21 Rb0 2.925042 1_556
O21 Rb4 2.980545 1_546
