# generated using pymatgen
data_RbCaMg6
_symmetry_space_group_name_H-M   'P 1'
_cell_length_a   5.55041700
_cell_length_b   6.98716500
_cell_length_c   12.20023900
_cell_angle_alpha   90.00000000
_cell_angle_beta   90.00000000
_cell_angle_gamma   90.00000000
_symmetry_Int_Tables_number   1
_chemical_formula_structural   RbCaMg6
_chemical_formula_sum   'Rb2 Ca2 Mg12'
_cell_volume   473.14575747
_cell_formula_units_Z   2
loop_
 _symmetry_equiv_pos_site_id
 _symmetry_equiv_pos_as_xyz
  1  'x, y, z'
loop_
 _atom_site_type_symbol
 _atom_site_label
 _atom_site_symmetry_multiplicity
 _atom_site_fract_x
 _atom_site_fract_y
 _atom_site_fract_z
 _atom_site_occupancy
  Rb  Rb0  1  0.50000000  0.50000000  0.16087600  1
  Rb  Rb1  1  0.50000000  0.00000000  0.66087600  1
  Ca  Ca0  1  0.00000000  0.50000000  0.34312600  1
  Ca  Ca1  1  0.00000000  0.00000000  0.84312600  1
  Mg  Mg0  1  0.00000000  0.76635700  0.08072600  1
  Mg  Mg1  1  0.00000000  0.23364300  0.08072600  1
  Mg  Mg2  1  0.00000000  0.00000000  0.33378700  1
  Mg  Mg3  1  0.50000000  0.24789500  0.41720400  1
  Mg  Mg4  1  0.50000000  0.75210500  0.41720400  1
  Mg  Mg5  1  0.50000000  0.00000000  0.16635000  1
  Mg  Mg6  1  0.00000000  0.26635700  0.58072600  1
  Mg  Mg7  1  0.00000000  0.73364300  0.58072600  1
  Mg  Mg8  1  0.00000000  0.50000000  0.83378700  1
  Mg  Mg9  1  0.50000000  0.74789500  0.91720400  1
  Mg  Mg10  1  0.50000000  0.25210500  0.91720400  1
  Mg  Mg11  1  0.50000000  0.50000000  0.66635000  1
loop_
_geom_bond_atom_site_label_1
_geom_bond_atom_site_label_2
_geom_bond_distance
_geom_bond_site_symmetry_2
Ca0 Mg7 3.326856 1_555
Ca0 Mg6 3.326856 1_555
Ca0 Mg4 3.409026 1_555
Ca0 Mg4 3.409026 1_455
Ca0 Mg3 3.409026 1_455
Ca0 Mg3 3.409026 1_555
Ca0 Mg2 3.495440 1_555
Ca0 Mg2 3.495440 1_565
Ca0 Rb0 3.556080 1_455
Ca0 Rb0 3.556080 1_555
Ca0 Mg1 3.703001 1_555
Ca0 Mg0 3.703001 1_555
Ca1 Mg1 3.326856 1_556
Ca1 Mg0 3.326856 1_546
Ca1 Mg10 3.409026 1_555
Ca1 Mg10 3.409026 1_455
Ca1 Mg9 3.409026 1_545
Ca1 Mg9 3.409026 1_445
Ca1 Mg8 3.495440 1_555
Ca1 Mg8 3.495440 1_545
Ca1 Rb1 3.556080 1_455
Ca1 Rb1 3.556080 1_555
Ca1 Mg6 3.703001 1_555
Ca1 Mg7 3.703001 1_545
Mg0 Mg1 3.265004 1_565
Mg0 Mg5 3.384982 1_565
Mg0 Mg5 3.384982 1_465
Mg0 Mg9 3.420304 1_554
Mg0 Mg9 3.420304 1_454
Mg0 Rb0 3.481608 1_455
Mg0 Rb0 3.481608 1_555
Mg0 Mg2 3.492439 1_565
Mg0 Mg8 3.541196 1_554
Mg1 Mg5 3.384982 1_555
Mg1 Mg5 3.384982 1_455
Mg1 Mg10 3.420304 1_454
Mg1 Mg10 3.420304 1_554
Mg1 Rb0 3.481608 1_455
Mg1 Rb0 3.481608 1_555
Mg1 Mg2 3.492439 1_555
Mg1 Mg8 3.541196 1_554
Mg2 Mg6 3.541196 1_555
Mg2 Mg7 3.541196 1_545
Mg3 Mg6 3.420304 1_555
Mg3 Mg6 3.420304 1_655
Mg3 Rb1 3.440638 1_555
Mg3 Rb0 3.589241 1_555
Mg4 Mg7 3.420304 1_555
Mg4 Mg7 3.420304 1_655
Mg4 Rb1 3.440638 1_565
Mg4 Rb0 3.589241 1_555
Mg5 Rb0 3.494221 1_545
Mg5 Rb0 3.494221 1_555
Mg6 Mg7 3.265004 1_555
Mg6 Rb1 3.481608 1_455
Mg6 Rb1 3.481608 1_555
Mg6 Mg8 3.492439 1_555
Mg7 Rb1 3.481608 1_465
Mg7 Rb1 3.481608 1_565
Mg7 Mg8 3.492439 1_555
Mg9 Rb0 3.440638 1_556
Mg9 Rb1 3.589241 1_565
Mg10 Rb0 3.440638 1_556
Mg10 Rb1 3.589241 1_555
Mg11 Mg7 3.384982 1_655
Mg11 Mg7 3.384982 1_555
Mg11 Mg6 3.384982 1_555
Mg11 Mg6 3.384982 1_655
Mg11 Rb1 3.494221 1_565
Mg11 Rb1 3.494221 1_555
