# generated using pymatgen
data_Ca2MnN2
_symmetry_space_group_name_H-M   'P 1'
_cell_length_a   6.00764932
_cell_length_b   6.00764932
_cell_length_c   6.64759599
_cell_angle_alpha   62.36285028
_cell_angle_beta   62.36285028
_cell_angle_gamma   49.16547161
_symmetry_Int_Tables_number   1
_chemical_formula_structural   Ca2MnN2
_chemical_formula_sum   'Ca4 Mn2 N4'
_cell_volume   156.13332485
_cell_formula_units_Z   2
loop_
 _symmetry_equiv_pos_site_id
 _symmetry_equiv_pos_as_xyz
  1  'x, y, z'
loop_
 _atom_site_type_symbol
 _atom_site_label
 _atom_site_symmetry_multiplicity
 _atom_site_fract_x
 _atom_site_fract_y
 _atom_site_fract_z
 _atom_site_occupancy
  Ca  Ca0  1  0.31896000  0.31896000  0.61209700  1
  Ca  Ca1  1  0.68104000  0.68104000  0.38790300  1
  Ca  Ca2  1  0.96636300  0.96636300  0.77258000  1
  Ca  Ca3  1  0.03363700  0.03363700  0.22742000  1
  Mn  Mn0  1  0.62882900  0.62882900  0.87021300  1
  Mn  Mn1  1  0.37117100  0.37117100  0.12978700  1
  N  N0  1  0.80916100  0.80916100  0.62737600  1
  N  N1  1  0.19083900  0.19083900  0.37262400  1
  N  N2  1  0.51415300  0.51415300  0.19649800  1
  N  N3  1  0.48584700  0.48584700  0.80350200  1
loop_
_geom_bond_atom_site_label_1
_geom_bond_atom_site_label_2
_geom_bond_distance
_geom_bond_site_symmetry_2
Ca0 N2 2.483944 1_555
Ca0 N0 2.501360 1_545
Ca0 N0 2.501360 1_455
Ca0 N1 2.601426 1_555
Ca0 N3 2.703876 1_555
Ca1 N3 2.483944 1_555
Ca1 N1 2.501360 1_565
Ca1 N1 2.501360 1_655
Ca1 N0 2.601426 1_555
Ca1 N2 2.703876 1_555
Ca2 N0 2.360812 1_555
Ca2 N3 2.525537 1_565
Ca2 N3 2.525537 1_655
Ca2 N1 2.536083 1_665
Ca3 N1 2.360812 1_555
Ca3 N2 2.525537 1_545
Ca3 N2 2.525537 1_455
Ca3 N0 2.536083 1_445
Mn0 N0 1.800890 1_555
Mn0 N3 1.828695 1_555
Mn0 N2 1.871339 1_556
Mn1 N1 1.800890 1_555
Mn1 N2 1.828695 1_555
Mn1 N3 1.871339 1_554
