# generated using pymatgen
data_NaSr2Cd
_symmetry_space_group_name_H-M   'P 1'
_cell_length_a   13.93043177
_cell_length_b   14.12663098
_cell_length_c   14.12663177
_cell_angle_alpha   60.27362401
_cell_angle_beta   60.45837657
_cell_angle_gamma   60.45837688
_symmetry_Int_Tables_number   1
_chemical_formula_structural   NaSr2Cd
_chemical_formula_sum   'Na1 Sr2 Cd1'
_cell_volume   1983.36931828
_cell_formula_units_Z   1
loop_
 _symmetry_equiv_pos_site_id
 _symmetry_equiv_pos_as_xyz
  1  'x, y, z'
loop_
 _atom_site_type_symbol
 _atom_site_label
 _atom_site_symmetry_multiplicity
 _atom_site_fract_x
 _atom_site_fract_y
 _atom_site_fract_z
 _atom_site_occupancy
  Na  Na0  1  0.00000000  0.00000000  0.00000000  1
  Sr  Sr0  1  0.73461178  0.00000000  0.00000000  1
  Sr  Sr1  1  0.26538822  1.00000000  1.00000000  1
  Cd  Cd0  1  0.50000000  0.00000000  0.00000000  1
loop_
_geom_bond_atom_site_label_1
_geom_bond_atom_site_label_2
_geom_bond_distance
_geom_bond_site_symmetry_2
Na0 Sr0 3.696972 1_455
Na0 Sr1 3.696972 1_544
Cd0 Sr1 3.268243 1_544
Cd0 Sr0 3.268243 1_555
