# generated using pymatgen
data_BaCaV2Ni3(HO5)2
_symmetry_space_group_name_H-M   'P 1'
_cell_length_a   6.11822226
_cell_length_b   5.94902027
_cell_length_c   8.57112821
_cell_angle_alpha   67.52174410
_cell_angle_beta   57.29657954
_cell_angle_gamma   60.79576182
_symmetry_Int_Tables_number   1
_chemical_formula_structural   BaCaV2Ni3(HO5)2
_chemical_formula_sum   'Ba1 Ca1 V2 Ni3 H2 O10'
_cell_volume   226.13187341
_cell_formula_units_Z   1
loop_
 _symmetry_equiv_pos_site_id
 _symmetry_equiv_pos_as_xyz
  1  'x, y, z'
loop_
 _atom_site_type_symbol
 _atom_site_label
 _atom_site_symmetry_multiplicity
 _atom_site_fract_x
 _atom_site_fract_y
 _atom_site_fract_z
 _atom_site_occupancy
  Ba  Ba0  1  0.77738100  0.63017200  0.45667400  1
  Ca  Ca0  1  0.19826700  0.38190700  0.64063500  1
  V  V0  1  0.68148000  0.03400200  0.75600500  1
  V  V1  1  0.32403000  0.94428100  0.25865500  1
  Ni  Ni0  1  0.00205400  0.00165400  0.01296400  1
  Ni  Ni1  1  0.99598400  0.50106900  0.02516200  1
  Ni  Ni2  1  0.49672000  0.49944600  0.01685900  1
  H  H0  1  0.24903800  0.76227300  0.74400700  1
  H  H1  1  0.69398800  0.24381100  0.29089200  1
  O  O0  1  0.29295300  0.18608900  0.88208600  1
  O  O1  1  0.83142800  0.20737800  0.79100900  1
  O  O2  1  0.70983800  0.82760700  0.15363100  1
  O  O3  1  0.20065500  0.78596400  0.19019400  1
  O  O4  1  0.79587600  0.67463400  0.83377200  1
  O  O5  1  0.20680600  0.30279000  0.20326100  1
  O  O6  1  0.27228800  0.77938600  0.49939600  1
  O  O7  1  0.66934200  0.12630700  0.53220800  1
  O  O8  1  0.25974200  0.70362800  0.86462500  1
  O  O9  1  0.73796300  0.30343300  0.15629700  1
loop_
_geom_bond_atom_site_label_1
_geom_bond_atom_site_label_2
_geom_bond_distance
_geom_bond_site_symmetry_2
Ba0 O2 2.578817 1_555
Ba0 O6 2.611648 1_555
Ba0 O3 2.667242 1_655
Ba0 O5 2.736524 1_655
Ba0 H0 2.744178 1_555
Ba0 O7 2.943196 1_565
Ba0 O1 3.057502 1_555
Ba0 O7 3.135006 1_555
Ca0 O0 2.183799 1_555
Ca0 O7 2.322097 1_555
Ca0 O4 2.334687 1_455
Ca0 O6 2.350677 1_555
Ca0 O1 2.429290 1_455
Ni0 O9 2.013425 1_455
Ni0 O8 2.018788 1_544
Ni0 O2 2.060269 1_445
Ni0 O3 2.100719 1_545
Ni0 O0 2.106405 1_554
Ni0 O1 2.307737 1_454
Ni1 O9 2.005284 1_555
Ni1 O8 2.044477 1_654
Ni1 O2 2.069992 1_555
Ni1 O0 2.084077 1_654
Ni1 O5 2.156706 1_655
Ni1 O4 2.213025 1_554
Ni2 O9 2.031640 1_555
Ni2 O8 2.096159 1_554
Ni2 O4 2.099039 1_554
Ni2 O3 2.099796 1_555
Ni2 O5 2.144990 1_555
Ni2 O1 2.403325 1_554
H0 O8 0.984824 1_555
H1 O9 0.986864 1_555
O0 V0 1.873513 1_555
O1 V0 1.858204 1_555
O2 V1 1.856545 1_555
O3 V1 1.842856 1_555
O4 V0 1.859838 1_565
O5 V1 1.841059 1_545
O6 V1 1.835651 1_555
O7 V0 1.815271 1_555
