# generated using pymatgen
data_YbCl3O13
_symmetry_space_group_name_H-M   'P 1'
_cell_length_a   6.87432900
_cell_length_b   8.21369667
_cell_length_c   9.99950723
_cell_angle_alpha   75.92002184
_cell_angle_beta   74.93530729
_cell_angle_gamma   76.74869204
_symmetry_Int_Tables_number   1
_chemical_formula_structural   YbCl3O13
_chemical_formula_sum   'Yb2 Cl6 O26'
_cell_volume   520.45414453
_cell_formula_units_Z   2
loop_
 _symmetry_equiv_pos_site_id
 _symmetry_equiv_pos_as_xyz
  1  'x, y, z'
loop_
 _atom_site_type_symbol
 _atom_site_label
 _atom_site_symmetry_multiplicity
 _atom_site_fract_x
 _atom_site_fract_y
 _atom_site_fract_z
 _atom_site_occupancy
  Yb  Yb0  1  0.36048100  0.33558400  0.32079400  1
  Yb  Yb1  1  0.63951900  0.66441600  0.67920600  1
  Cl  Cl0  1  0.70944300  0.90062500  0.30541400  1
  Cl  Cl1  1  0.29055700  0.09937500  0.69458600  1
  Cl  Cl2  1  0.19963300  0.68290700  0.52168300  1
  Cl  Cl3  1  0.80036700  0.31709300  0.47831700  1
  Cl  Cl4  1  0.76668600  0.33378700  0.99207000  1
  Cl  Cl5  1  0.23331400  0.66621300  0.00793000  1
  O  O0  1  0.62369200  0.81560900  0.23062200  1
  O  O1  1  0.37630800  0.18439100  0.76937800  1
  O  O2  1  0.56602000  0.06036200  0.33216000  1
  O  O3  1  0.43398000  0.93963800  0.66784000  1
  O  O4  1  0.73155000  0.79269400  0.44309800  1
  O  O5  1  0.26845000  0.20730600  0.55690200  1
  O  O6  1  0.90594600  0.94106700  0.22833700  1
  O  O7  1  0.09405400  0.05893300  0.77166300  1
  O  O8  1  0.18535900  0.86161000  0.46533500  1
  O  O9  1  0.81464100  0.13839000  0.53466500  1
  O  O10  1  0.22811400  0.58970600  0.40870200  1
  O  O11  1  0.77188600  0.41029400  0.59129800  1
  O  O12  1  0.01248900  0.64735300  0.62708000  1
  O  O13  1  0.98751100  0.35264700  0.37292000  1
  O  O14  1  0.37049800  0.61690800  0.59312100  1
  O  O15  1  0.62950200  0.38309200  0.40687900  1
  O  O16  1  0.97265500  0.28290300  0.01549600  1
  O  O17  1  0.02734500  0.71709700  0.98450400  1
  O  O18  1  0.69176000  0.20330800  0.95902200  1
  O  O19  1  0.30824000  0.79669200  0.04097800  1
  O  O20  1  0.76608000  0.48618500  0.87666900  1
  O  O21  1  0.23392000  0.51381500  0.12333100  1
  O  O22  1  0.63292800  0.39105500  0.12041300  1
  O  O23  1  0.36707200  0.60894500  0.87958700  1
  O  O24  1  0.72998700  0.85627100  0.80691400  1
  O  O25  1  0.27001300  0.14372900  0.19308600  1
loop_
_geom_bond_atom_site_label_1
_geom_bond_atom_site_label_2
_geom_bond_distance
_geom_bond_site_symmetry_2
Cl0 O0 1.437502 1_555
Cl0 O6 1.438419 1_555
Cl0 O4 1.468894 1_555
Cl0 O2 1.485144 1_565
Cl1 O1 1.437502 1_555
Cl1 O7 1.438419 1_555
Cl1 O5 1.468894 1_555
Cl1 O3 1.485144 1_545
Cl2 O8 1.428948 1_555
Cl2 O10 1.462126 1_555
Cl2 O14 1.462749 1_555
Cl2 O12 1.472673 1_555
Cl3 O9 1.428948 1_555
Cl3 O11 1.462126 1_555
Cl3 O15 1.462749 1_555
Cl3 O13 1.472673 1_555
Cl4 O18 1.427212 1_555
Cl4 O16 1.444922 1_556
Cl4 O22 1.481818 1_556
Cl4 O20 1.481826 1_555
Cl5 O19 1.427212 1_555
Cl5 O17 1.444922 1_554
Cl5 O23 1.481818 1_554
Cl5 O21 1.481826 1_555
O2 Yb0 2.369335 1_555
O3 Yb1 2.369335 1_555
O4 Yb1 2.324512 1_555
O5 Yb0 2.324512 1_555
O10 Yb0 2.358738 1_555
O11 Yb1 2.358738 1_555
O12 Yb1 2.457870 1_455
O13 Yb0 2.457870 1_655
O14 Yb1 2.373835 1_555
O15 Yb0 2.373835 1_555
O20 Yb1 2.387780 1_555
O21 Yb0 2.387780 1_555
O22 Yb0 2.392998 1_555
O23 Yb1 2.392998 1_555
O24 Yb1 2.518343 1_555
O25 Yb0 2.518343 1_555
