# generated using pymatgen
data_YMg6BO8
_symmetry_space_group_name_H-M   'P 1'
_cell_length_a   9.03677462
_cell_length_b   4.37425385
_cell_length_c   4.37425385
_cell_angle_alpha   90.00000000
_cell_angle_beta   90.00000000
_cell_angle_gamma   90.00000000
_symmetry_Int_Tables_number   1
_chemical_formula_structural   YMg6BO8
_chemical_formula_sum   'Y1 Mg6 B1 O8'
_cell_volume   172.91051983
_cell_formula_units_Z   1
loop_
 _symmetry_equiv_pos_site_id
 _symmetry_equiv_pos_as_xyz
  1  'x, y, z'
loop_
 _atom_site_type_symbol
 _atom_site_label
 _atom_site_symmetry_multiplicity
 _atom_site_fract_x
 _atom_site_fract_y
 _atom_site_fract_z
 _atom_site_occupancy
  Y  Y0  1  0.00000000  0.00000000  0.00000000  1
  Mg  Mg0  1  0.00000000  0.50000000  0.50000000  1
  Mg  Mg1  1  0.50000000  0.50000000  0.50000000  1
  Mg  Mg2  1  0.27527137  0.00000000  0.50000000  1
  Mg  Mg3  1  0.72472863  0.00000000  0.50000000  1
  Mg  Mg4  1  0.27527137  0.50000000  -0.00000000  1
  Mg  Mg5  1  0.72472863  0.50000000  0.00000000  1
  B  B0  1  0.50000000  0.00000000  0.00000000  1
  O  O0  1  0.24488997  0.00000000  0.00000000  1
  O  O1  1  0.75511003  0.00000000  -0.00000000  1
  O  O2  1  0.25087257  0.50000000  0.50000000  1
  O  O3  1  0.74912743  0.50000000  0.50000000  1
  O  O4  1  0.00000000  0.00000000  0.50000000  1
  O  O5  1  0.50000000  0.00000000  0.50000000  1
  O  O6  1  0.00000000  0.50000000  0.00000000  1
  O  O7  1  0.50000000  0.50000000  0.00000000  1
loop_
_geom_bond_atom_site_label_1
_geom_bond_atom_site_label_2
_geom_bond_distance
_geom_bond_site_symmetry_2
Mg0 O6 2.187127 1_556
Mg0 O6 2.187127 1_555
Mg0 O4 2.187127 1_555
Mg0 O4 2.187127 1_565
Mg0 O3 2.267079 1_455
Mg0 O2 2.267079 1_555
Mg1 O7 2.187127 1_555
Mg1 O7 2.187127 1_556
Mg1 O5 2.187127 1_555
Mg1 O5 2.187127 1_565
Mg1 O2 2.251308 1_555
Mg1 O3 2.251308 1_555
Mg2 O5 2.030822 1_555
Mg2 O2 2.198213 1_555
Mg2 O2 2.198213 1_545
Mg2 O0 2.204292 1_555
Mg2 O0 2.204292 1_556
Mg2 O4 2.487565 1_555
Mg3 O5 2.030822 1_555
Mg3 O3 2.198213 1_545
Mg3 O3 2.198213 1_555
Mg3 O1 2.204292 1_555
Mg3 O1 2.204292 1_556
Mg3 O4 2.487565 1_655
Mg4 O7 2.030822 1_555
Mg4 O2 2.198213 1_554
Mg4 O2 2.198213 1_555
Mg4 O0 2.204292 1_565
Mg4 O0 2.204292 1_555
Mg4 O6 2.487565 1_555
Mg5 O7 2.030822 1_555
Mg5 O3 2.198213 1_555
Mg5 O3 2.198213 1_554
Mg5 O1 2.204292 1_555
Mg5 O1 2.204292 1_565
Mg5 O6 2.487565 1_655
B0 O7 2.187127 1_545
B0 O7 2.187127 1_555
B0 O5 2.187127 1_554
B0 O5 2.187127 1_555
O0 Y0 2.213015 1_555
O1 Y0 2.213015 1_655
O4 Y0 2.187127 1_555
O4 Y0 2.187127 1_556
O6 Y0 2.187127 1_555
O6 Y0 2.187127 1_565
