# generated using pymatgen
data_K2EuF5
_symmetry_space_group_name_H-M   'P 1'
_cell_length_a   6.54169025
_cell_length_b   7.43118419
_cell_length_c   10.75115933
_cell_angle_alpha   90.00000000
_cell_angle_beta   90.00000000
_cell_angle_gamma   90.00000000
_symmetry_Int_Tables_number   1
_chemical_formula_structural   K2EuF5
_chemical_formula_sum   'K8 Eu4 F20'
_cell_volume   522.64078842
_cell_formula_units_Z   4
loop_
 _symmetry_equiv_pos_site_id
 _symmetry_equiv_pos_as_xyz
  1  'x, y, z'
loop_
 _atom_site_type_symbol
 _atom_site_label
 _atom_site_symmetry_multiplicity
 _atom_site_fract_x
 _atom_site_fract_y
 _atom_site_fract_z
 _atom_site_occupancy
  K  K0  1  0.53457024  0.49612039  0.82972733  1
  K  K1  1  0.46542976  0.50387961  0.17027267  1
  K  K2  1  0.03457024  0.50387961  0.67027267  1
  K  K3  1  0.46542976  0.99612039  0.17027267  1
  K  K4  1  0.96542976  0.49612039  0.32972733  1
  K  K5  1  0.53457024  0.00387961  0.82972733  1
  K  K6  1  0.96542976  0.00387961  0.32972733  1
  K  K7  1  0.03457024  0.99612039  0.67027267  1
  Eu  Eu0  1  0.56050899  0.75000000  0.50189282  1
  Eu  Eu1  1  0.43949101  0.25000000  0.49810718  1
  Eu  Eu2  1  0.06050899  0.25000000  0.99810718  1
  Eu  Eu3  1  0.93949101  0.75000000  0.00189282  1
  F  F0  1  0.83385723  0.75000000  0.80249963  1
  F  F1  1  0.16614277  0.25000000  0.19750037  1
  F  F2  1  0.33385723  0.25000000  0.69750037  1
  F  F3  1  0.66614277  0.75000000  0.30249963  1
  F  F4  1  0.36317393  0.75000000  0.67153267  1
  F  F5  1  0.63682607  0.25000000  0.32846733  1
  F  F6  1  0.86317393  0.25000000  0.82846733  1
  F  F7  1  0.13682607  0.75000000  0.17153267  1
  F  F8  1  0.90444589  0.75000000  0.50991779  1
  F  F9  1  0.09555411  0.25000000  0.49008221  1
  F  F10  1  0.40444589  0.25000000  0.99008221  1
  F  F11  1  0.59555411  0.75000000  0.00991779  1
  F  F12  1  0.64923074  0.03096401  0.58221727  1
  F  F13  1  0.35076926  0.96903599  0.41778273  1
  F  F14  1  0.14923074  0.96903599  0.91778273  1
  F  F15  1  0.35076926  0.53096401  0.41778273  1
  F  F16  1  0.85076926  0.03096401  0.08221727  1
  F  F17  1  0.64923074  0.46903599  0.58221727  1
  F  F18  1  0.85076926  0.46903599  0.08221727  1
  F  F19  1  0.14923074  0.53096401  0.91778273  1
loop_
_geom_bond_atom_site_label_1
_geom_bond_atom_site_label_2
_geom_bond_distance
_geom_bond_site_symmetry_2
Eu0 F4 2.234451 1_555
Eu0 F8 2.251582 1_555
Eu0 F3 2.252332 1_555
Eu0 F15 2.312931 1_555
Eu0 F13 2.312931 1_555
Eu0 F17 2.332795 1_555
Eu0 F12 2.332795 1_565
Eu1 F5 2.234451 1_555
Eu1 F9 2.251582 1_555
Eu1 F2 2.252332 1_555
Eu1 F12 2.312931 1_555
Eu1 F17 2.312931 1_555
Eu1 F13 2.332795 1_545
Eu1 F15 2.332795 1_555
Eu2 F6 2.234451 1_455
Eu2 F10 2.251582 1_555
Eu2 F1 2.252332 1_556
Eu2 F18 2.312931 1_456
Eu2 F16 2.312931 1_456
Eu2 F14 2.332795 1_545
Eu2 F19 2.332795 1_555
Eu3 F7 2.234451 1_655
Eu3 F11 2.251582 1_555
Eu3 F0 2.252332 1_554
Eu3 F19 2.312931 1_654
Eu3 F14 2.312931 1_654
Eu3 F16 2.332795 1_565
Eu3 F18 2.332795 1_555
F0 K7 2.662709 1_655
F0 K2 2.662709 1_655
F0 K0 2.734629 1_555
F0 K5 2.734629 1_565
F1 K4 2.662709 1_455
F1 K6 2.662709 1_455
F1 K1 2.734629 1_555
F1 K3 2.734629 1_545
F2 K0 2.662709 1_555
F2 K5 2.662709 1_555
F2 K7 2.734629 1_545
F2 K2 2.734629 1_555
F3 K1 2.662709 1_555
F3 K3 2.662709 1_555
F3 K4 2.734629 1_555
F3 K6 2.734629 1_565
F4 K5 2.776533 1_565
F4 K0 2.776533 1_555
F4 K7 2.822442 1_555
F4 K2 2.822442 1_555
F5 K1 2.776533 1_555
F5 K3 2.776533 1_545
F5 K6 2.822442 1_555
F5 K4 2.822442 1_555
F6 K7 2.776533 1_645
F6 K2 2.776533 1_655
F6 K5 2.822442 1_555
F6 K0 2.822442 1_555
F7 K6 2.776533 1_465
F7 K4 2.776533 1_455
F7 K3 2.822442 1_555
F7 K1 2.822442 1_555
F8 K2 2.653657 1_655
F8 K7 2.653657 1_655
F8 K4 2.733399 1_555
F8 K6 2.733399 1_565
F9 K6 2.653657 1_455
F9 K4 2.653657 1_455
F9 K2 2.733399 1_555
F9 K7 2.733399 1_545
F10 K0 2.653657 1_555
F10 K5 2.653657 1_555
F10 K3 2.733399 1_546
F10 K1 2.733399 1_556
F11 K3 2.653657 1_555
F11 K1 2.653657 1_555
F11 K0 2.733399 1_554
F11 K5 2.733399 1_564
F12 K7 2.705101 1_645
F12 K5 2.772029 1_555
F13 K6 2.705101 1_465
F13 K3 2.772029 1_555
F14 K5 2.705101 1_565
F14 K7 2.772029 1_555
F15 K4 2.705101 1_455
F15 K1 2.772029 1_555
F16 K3 2.705101 1_545
F16 K6 2.772029 1_555
F17 K2 2.705101 1_655
F17 K0 2.772029 1_555
F18 K1 2.705101 1_555
F18 K4 2.772029 1_555
F19 K0 2.705101 1_555
F19 K2 2.772029 1_555
