# generated using pymatgen
data_BaAlGaO4
_symmetry_space_group_name_H-M   'P 1'
_cell_length_a   5.35129636
_cell_length_b   5.35129636
_cell_length_c   9.09050948
_cell_angle_alpha   89.12965030
_cell_angle_beta   89.12965030
_cell_angle_gamma   59.43152860
_symmetry_Int_Tables_number   1
_chemical_formula_structural   BaAlGaO4
_chemical_formula_sum   'Ba2 Al2 Ga2 O8'
_cell_volume   224.10629225
_cell_formula_units_Z   2
loop_
 _symmetry_equiv_pos_site_id
 _symmetry_equiv_pos_as_xyz
  1  'x, y, z'
loop_
 _atom_site_type_symbol
 _atom_site_label
 _atom_site_symmetry_multiplicity
 _atom_site_fract_x
 _atom_site_fract_y
 _atom_site_fract_z
 _atom_site_occupancy
  Ba  Ba0  1  0.00371000  0.99703100  0.75371700  1
  Ba  Ba1  1  0.00296900  0.99629000  0.24628300  1
  Al  Al0  1  0.34590400  0.32277100  0.94721800  1
  Al  Al1  1  0.67722900  0.65409600  0.05278200  1
  Ga  Ga0  1  0.67190600  0.65828400  0.44757900  1
  Ga  Ga1  1  0.34171600  0.32809400  0.55242100  1
  O  O0  1  0.69969900  0.61657400  0.24607500  1
  O  O1  1  0.38342600  0.30030100  0.75392500  1
  O  O2  1  0.33004000  0.66996000  0.50000000  1
  O  O3  1  0.66960800  0.99826900  0.48392400  1
  O  O4  1  0.00173100  0.33039200  0.51607600  1
  O  O5  1  0.64576400  0.35423600  0.00000000  1
  O  O6  1  0.36800000  0.99670400  0.01114700  1
  O  O7  1  0.00329600  0.63200000  0.98885300  1
loop_
_geom_bond_atom_site_label_1
_geom_bond_atom_site_label_2
_geom_bond_distance
_geom_bond_site_symmetry_2
Ba0 O4 2.777348 1_565
Ba0 O1 2.858738 1_465
Ba0 O7 2.874383 1_555
Ba0 O2 2.885122 1_555
Ba0 O5 2.934425 1_466
Ba0 O3 3.054874 1_455
Ba0 O6 3.067841 1_556
Ba0 O1 3.180733 1_565
Ba0 O1 3.213099 1_555
Ba1 O3 2.777348 1_455
Ba1 O0 2.858738 1_465
Ba1 O6 2.874383 1_555
Ba1 O2 2.885122 1_555
Ba1 O5 2.934425 1_465
Ba1 O4 3.054874 1_565
Ba1 O7 3.067841 1_554
Ba1 O0 3.180733 1_455
Ba1 O0 3.213099 1_555
Al0 O1 1.764492 1_555
Al0 O5 1.770340 1_556
Al0 O7 1.776225 1_555
Al0 O6 1.777006 1_546
Al1 O0 1.764492 1_555
Al1 O5 1.770340 1_555
Al1 O6 1.776225 1_555
Al1 O7 1.777006 1_654
Ga0 O0 1.843289 1_555
Ga0 O3 1.847909 1_555
Ga0 O4 1.852537 1_655
Ga0 O2 1.853630 1_555
Ga1 O1 1.843289 1_555
Ga1 O4 1.847909 1_555
Ga1 O3 1.852537 1_545
Ga1 O2 1.853630 1_555
