# generated using pymatgen
data_Ho3(GaNi3)2
_symmetry_space_group_name_H-M   'P 1'
_cell_length_a   7.67277377
_cell_length_b   7.67277377
_cell_length_c   7.67277377
_cell_angle_alpha   109.47122063
_cell_angle_beta   109.47122063
_cell_angle_gamma   109.47122063
_symmetry_Int_Tables_number   1
_chemical_formula_structural   Ho3(GaNi3)2
_chemical_formula_sum   'Ho6 Ga4 Ni12'
_cell_volume   347.72449794
_cell_formula_units_Z   2
loop_
 _symmetry_equiv_pos_site_id
 _symmetry_equiv_pos_as_xyz
  1  'x, y, z'
loop_
 _atom_site_type_symbol
 _atom_site_label
 _atom_site_symmetry_multiplicity
 _atom_site_fract_x
 _atom_site_fract_y
 _atom_site_fract_z
 _atom_site_occupancy
  Ho  Ho0  1  0.70977100  0.70977100  0.00000000  1
  Ho  Ho1  1  0.29022900  0.00000000  0.29022900  1
  Ho  Ho2  1  0.00000000  0.29022900  0.29022900  1
  Ho  Ho3  1  0.29022900  0.29022900  0.00000000  1
  Ho  Ho4  1  0.70977100  0.00000000  0.70977100  1
  Ho  Ho5  1  0.00000000  0.70977100  0.70977100  1
  Ga  Ga0  1  0.00000000  0.00000000  0.50000000  1
  Ga  Ga1  1  0.00000000  0.50000000  0.00000000  1
  Ga  Ga2  1  0.50000000  0.00000000  0.00000000  1
  Ga  Ga3  1  0.50000000  0.50000000  0.50000000  1
  Ni  Ni0  1  0.33905200  0.33905200  0.67810500  1
  Ni  Ni1  1  0.66094800  0.00000000  0.33905200  1
  Ni  Ni2  1  0.00000000  0.66094800  0.33905200  1
  Ni  Ni3  1  0.66094800  0.33905200  0.00000000  1
  Ni  Ni4  1  0.33905200  0.67810500  0.33905200  1
  Ni  Ni5  1  0.00000000  0.33905200  0.66094800  1
  Ni  Ni6  1  0.33905200  0.66094800  0.00000000  1
  Ni  Ni7  1  0.33905200  0.00000000  0.66094800  1
  Ni  Ni8  1  0.67810500  0.33905200  0.33905200  1
  Ni  Ni9  1  0.66094800  0.66094800  0.32189500  1
  Ni  Ni10  1  0.66094800  0.32189500  0.66094800  1
  Ni  Ni11  1  0.32189500  0.66094800  0.66094800  1
loop_
_geom_bond_atom_site_label_1
_geom_bond_atom_site_label_2
_geom_bond_distance
_geom_bond_site_symmetry_2
Ho0 Ni9 2.742404 1_555
Ho0 Ni0 2.742410 1_554
Ho0 Ni6 2.742411 1_555
Ho0 Ni3 2.742411 1_555
Ho0 Ni1 3.034902 1_565
Ho0 Ni2 3.034902 1_655
Ho0 Ni10 3.034907 1_554
Ho0 Ni11 3.034907 1_554
Ho0 Ho2 3.636450 1_665
Ho0 Ho1 3.636450 1_665
Ho0 Ho4 3.636450 1_564
Ho0 Ho5 3.636450 1_654
Ho1 Ni4 2.742404 1_545
Ho1 Ni10 2.742410 1_555
Ho1 Ni1 2.742411 1_555
Ho1 Ni7 2.742411 1_555
Ho1 Ni6 3.034902 1_545
Ho1 Ni2 3.034902 1_545
Ho1 Ni0 3.034907 1_555
Ho1 Ni8 3.034907 1_555
Ho1 Ho2 3.636450 1_555
Ho1 Ho3 3.636450 1_555
Ho1 Ho5 3.636450 1_544
Ho2 Ni8 2.742404 1_455
Ho2 Ni11 2.742410 1_555
Ho2 Ni5 2.742411 1_555
Ho2 Ni2 2.742411 1_555
Ho2 Ni3 3.034902 1_455
Ho2 Ni1 3.034902 1_455
Ho2 Ni0 3.034907 1_555
Ho2 Ni4 3.034907 1_555
Ho2 Ho3 3.636450 1_555
Ho2 Ho4 3.636450 1_454
Ho3 Ni0 2.742404 1_554
Ho3 Ni9 2.742410 1_555
Ho3 Ni3 2.742411 1_555
Ho3 Ni6 2.742411 1_555
Ho3 Ni5 3.034902 1_554
Ho3 Ni7 3.034902 1_554
Ho3 Ni4 3.034907 1_555
Ho3 Ni8 3.034907 1_555
Ho3 Ho4 3.636450 1_454
Ho3 Ho5 3.636450 1_544
Ho4 Ni10 2.742404 1_555
Ho4 Ni4 2.742410 1_545
Ho4 Ni1 2.742411 1_555
Ho4 Ni7 2.742411 1_555
Ho4 Ni3 3.034902 1_556
Ho4 Ni5 3.034902 1_655
Ho4 Ni9 3.034907 1_545
Ho4 Ni11 3.034907 1_545
Ho4 Ho5 3.636450 1_645
Ho5 Ni11 2.742404 1_555
Ho5 Ni8 2.742410 1_455
Ho5 Ni5 2.742411 1_555
Ho5 Ni2 2.742411 1_555
Ho5 Ni6 3.034902 1_556
Ho5 Ni7 3.034902 1_565
Ho5 Ni9 3.034907 1_455
Ho5 Ni10 3.034907 1_455
Ga0 Ni0 2.480106 1_555
Ga0 Ni9 2.480106 1_445
Ga0 Ni7 2.480107 1_555
Ga0 Ni5 2.480107 1_555
Ga0 Ni2 2.480107 1_545
Ga0 Ni1 2.480107 1_455
Ga0 Ho2 3.152609 1_555
Ga0 Ho1 3.152609 1_555
Ga0 Ho3 3.152609 1_556
Ga0 Ho5 3.152609 1_545
Ga0 Ho0 3.152609 1_445
Ga0 Ho4 3.152609 1_455
Ga1 Ni4 2.480106 1_555
Ga1 Ni10 2.480106 1_454
Ga1 Ni2 2.480107 1_555
Ga1 Ni6 2.480107 1_555
Ga1 Ni3 2.480107 1_455
Ga1 Ni5 2.480107 1_554
Ga1 Ho3 3.152609 1_555
Ga1 Ho2 3.152609 1_555
Ga1 Ho1 3.152609 1_565
Ga1 Ho4 3.152609 1_454
Ga1 Ho5 3.152609 1_554
Ga1 Ho0 3.152609 1_455
Ga2 Ni8 2.480106 1_555
Ga2 Ni11 2.480106 1_544
Ga2 Ni1 2.480107 1_555
Ga2 Ni3 2.480107 1_555
Ga2 Ni7 2.480107 1_554
Ga2 Ni6 2.480107 1_545
Ga2 Ho3 3.152609 1_555
Ga2 Ho1 3.152609 1_555
Ga2 Ho2 3.152609 1_655
Ga2 Ho4 3.152609 1_554
Ga2 Ho0 3.152609 1_545
Ga2 Ho5 3.152609 1_544
Ga3 Ni11 2.480114 1_555
Ga3 Ni9 2.480114 1_555
Ga3 Ni10 2.480114 1_555
Ga3 Ni8 2.480114 1_555
Ga3 Ni0 2.480114 1_555
Ga3 Ni4 2.480114 1_555
Ga3 Ho3 3.152609 1_555
Ga3 Ho2 3.152609 1_555
Ga3 Ho1 3.152609 1_555
Ga3 Ho0 3.152609 1_556
Ga3 Ho4 3.152609 1_565
Ga3 Ho5 3.152609 1_655
Ni0 Ni5 2.560598 1_555
Ni0 Ni7 2.560598 1_555
Ni0 Ni11 2.560606 1_555
Ni0 Ni10 2.560606 1_555
Ni0 Ni6 2.851916 1_556
Ni0 Ni3 2.851916 1_556
Ni1 Ni8 2.560598 1_555
Ni1 Ni9 2.560598 1_545
Ni1 Ni6 2.560601 1_545
Ni1 Ni5 2.560601 1_655
Ni1 Ni10 2.851916 1_555
Ni1 Ni4 2.851916 1_545
Ni2 Ni4 2.560598 1_555
Ni2 Ni9 2.560598 1_455
Ni2 Ni3 2.560601 1_455
Ni2 Ni7 2.560601 1_565
Ni2 Ni8 2.851916 1_455
Ni3 Ni8 2.560598 1_555
Ni3 Ni7 2.560601 1_554
Ni3 Ni9 2.851916 1_555
Ni4 Ni6 2.560598 1_555
Ni4 Ni9 2.560606 1_555
Ni4 Ni7 2.851916 1_565
Ni5 Ni6 2.560601 1_556
Ni5 Ni8 2.851916 1_455
Ni6 Ni9 2.851916 1_555
Ni8 Ni9 2.560606 1_555
Ni10 Ni5 2.560598 1_655
Ni10 Ni3 2.560598 1_556
Ni10 Ni8 2.560606 1_555
Ni10 Ni7 2.851916 1_555
Ni11 Ni6 2.560598 1_556
Ni11 Ni7 2.560598 1_565
Ni11 Ni4 2.560606 1_555
Ni11 Ni5 2.851916 1_555
Ni11 Ni2 2.851916 1_555
