# generated using pymatgen
data_Li3Tb4ZnSn8
_symmetry_space_group_name_H-M   'P 1'
_cell_length_a   4.68594000
_cell_length_b   4.34064500
_cell_length_c   18.95319100
_cell_angle_alpha   90.00000000
_cell_angle_beta   90.00000000
_cell_angle_gamma   90.00000000
_symmetry_Int_Tables_number   1
_chemical_formula_structural   Li3Tb4ZnSn8
_chemical_formula_sum   'Li3 Tb4 Zn1 Sn8'
_cell_volume   385.50794344
_cell_formula_units_Z   1
loop_
 _symmetry_equiv_pos_site_id
 _symmetry_equiv_pos_as_xyz
  1  'x, y, z'
loop_
 _atom_site_type_symbol
 _atom_site_label
 _atom_site_symmetry_multiplicity
 _atom_site_fract_x
 _atom_site_fract_y
 _atom_site_fract_z
 _atom_site_occupancy
  Li  Li0  1  0.25000000  0.50000000  0.67492700  1
  Li  Li1  1  0.75000000  0.50000000  0.32838000  1
  Li  Li2  1  0.75000000  0.00000000  0.82504000  1
  Tb  Tb0  1  0.25000000  0.00000000  0.40461900  1
  Tb  Tb1  1  0.25000000  0.50000000  0.89121700  1
  Tb  Tb2  1  0.75000000  0.50000000  0.10638600  1
  Tb  Tb3  1  0.75000000  0.00000000  0.60560200  1
  Zn  Zn0  1  0.25000000  0.00000000  0.16720800  1
  Sn  Sn0  1  0.25000000  0.50000000  0.25587200  1
  Sn  Sn1  1  0.25000000  0.00000000  0.75339500  1
  Sn  Sn2  1  0.75000000  0.00000000  0.24682600  1
  Sn  Sn3  1  0.75000000  0.50000000  0.74630000  1
  Sn  Sn4  1  0.25000000  0.00000000  0.03448300  1
  Sn  Sn5  1  0.25000000  0.50000000  0.54427000  1
  Sn  Sn6  1  0.75000000  0.50000000  0.46017900  1
  Sn  Sn7  1  0.75000000  0.00000000  0.95529600  1
loop_
_geom_bond_atom_site_label_1
_geom_bond_atom_site_label_2
_geom_bond_distance
_geom_bond_site_symmetry_2
Li0 Sn5 2.476367 1_555
Li0 Sn1 2.630992 1_555
Li0 Sn1 2.630992 1_565
Li0 Sn3 2.705445 1_455
Li0 Sn3 2.705445 1_555
Li0 Tb3 3.453436 1_465
Li0 Tb3 3.453436 1_455
Li0 Tb3 3.453436 1_555
Li0 Tb3 3.453436 1_565
Li1 Sn6 2.498012 1_555
Li1 Sn2 2.664491 1_565
Li1 Sn2 2.664491 1_555
Li1 Sn0 2.716265 1_555
Li1 Sn0 2.716265 1_655
Li1 Tb0 3.505389 1_565
Li1 Tb0 3.505389 1_655
Li1 Tb0 3.505389 1_555
Li1 Tb0 3.505389 1_665
Li2 Sn7 2.468767 1_555
Li2 Sn3 2.633910 1_545
Li2 Sn3 2.633910 1_555
Li2 Sn1 2.708026 1_555
Li2 Sn1 2.708026 1_655
Li2 Tb1 3.431179 1_555
Li2 Tb1 3.431179 1_545
Li2 Tb1 3.431179 1_645
Li2 Tb1 3.431179 1_655
Tb2 Zn0 3.395392 1_655
Tb2 Zn0 3.395392 1_555
Tb2 Zn0 3.395392 1_565
Tb2 Zn0 3.395392 1_665
Sn0 Zn0 2.744862 1_555
Sn0 Zn0 2.744862 1_565
Sn0 Tb0 3.557859 1_555
Sn0 Tb0 3.557859 1_565
Sn0 Tb2 3.676512 1_555
Sn0 Tb2 3.676512 1_455
Sn1 Tb1 3.396132 1_555
Sn1 Tb1 3.396132 1_545
Sn1 Tb3 3.651841 1_455
Sn1 Tb3 3.651841 1_555
Sn2 Zn0 2.786868 1_555
Sn2 Zn0 2.786868 1_655
Sn2 Tb2 3.434444 1_555
Sn2 Tb2 3.434444 1_545
Sn2 Tb0 3.799168 1_655
Sn2 Tb0 3.799168 1_555
Sn3 Tb3 3.438235 1_555
Sn3 Tb3 3.438235 1_565
Sn3 Tb1 3.610199 1_655
Sn3 Tb1 3.610199 1_555
Sn4 Zn0 2.515562 1_555
Sn4 Sn7 2.782454 1_454
Sn4 Sn7 2.782454 1_554
Sn4 Tb2 3.472320 1_545
Sn4 Tb2 3.472320 1_445
Sn4 Tb2 3.472320 1_455
Sn4 Tb2 3.472320 1_555
Sn4 Tb1 3.476121 1_544
Sn4 Tb1 3.476121 1_554
Sn5 Tb3 3.398686 1_455
Sn5 Tb3 3.398686 1_565
Sn5 Tb3 3.398686 1_555
Sn5 Tb3 3.398686 1_465
Sn5 Tb0 3.422867 1_555
Sn5 Tb0 3.422867 1_565
Sn6 Tb0 3.362841 1_665
Sn6 Tb0 3.362841 1_655
Sn6 Tb0 3.362841 1_555
Sn6 Tb0 3.362841 1_565
Sn6 Tb3 3.508148 1_555
Sn6 Tb3 3.508148 1_565
Sn7 Tb1 3.416844 1_555
Sn7 Tb1 3.416844 1_645
Sn7 Tb1 3.416844 1_545
Sn7 Tb1 3.416844 1_655
Sn7 Tb2 3.593149 1_556
Sn7 Tb2 3.593149 1_546
