# generated using pymatgen
data_BaMg14Mn
_symmetry_space_group_name_H-M   'P 1'
_cell_length_a   6.59152086
_cell_length_b   6.59152029
_cell_length_c   10.49825019
_cell_angle_alpha   90.00000000
_cell_angle_beta   90.00000000
_cell_angle_gamma   120.00000284
_symmetry_Int_Tables_number   1
_chemical_formula_structural   BaMg14Mn
_chemical_formula_sum   'Ba1 Mg14 Mn1'
_cell_volume   395.01970654
_cell_formula_units_Z   1
loop_
 _symmetry_equiv_pos_site_id
 _symmetry_equiv_pos_as_xyz
  1  'x, y, z'
loop_
 _atom_site_type_symbol
 _atom_site_label
 _atom_site_symmetry_multiplicity
 _atom_site_fract_x
 _atom_site_fract_y
 _atom_site_fract_z
 _atom_site_occupancy
  Ba  Ba0  1  0.16666700  0.33333300  0.62500000  1
  Mg  Mg0  1  0.15630081  0.82814990  0.12500000  1
  Mg  Mg1  1  0.18228909  0.84114404  0.62500000  1
  Mg  Mg2  1  0.67185010  0.34369919  0.12500000  1
  Mg  Mg3  1  0.65885596  0.31771091  0.62500000  1
  Mg  Mg4  1  0.67185010  0.82814990  0.12500000  1
  Mg  Mg5  1  0.65885596  0.84114404  0.62500000  1
  Mg  Mg6  1  0.33322314  0.16677686  0.34919701  1
  Mg  Mg7  1  0.33322314  0.16677686  0.90080299  1
  Mg  Mg8  1  0.33322314  0.66644729  0.34919701  1
  Mg  Mg9  1  0.33322314  0.66644729  0.90080299  1
  Mg  Mg10  1  0.83355271  0.16677686  0.34919701  1
  Mg  Mg11  1  0.83355271  0.16677686  0.90080299  1
  Mg  Mg12  1  0.83333300  0.66666700  0.38420031  1
  Mg  Mg13  1  0.83333300  0.66666700  0.86579969  1
  Mn  Mn0  1  0.16666700  0.33333300  0.12500000  1
loop_
_geom_bond_atom_site_label_1
_geom_bond_atom_site_label_2
_geom_bond_distance
_geom_bond_site_symmetry_2
Ba0 Mg1 3.296966 1_555
Ba0 Mg5 3.296966 1_555
Ba0 Mg5 3.296966 1_445
Ba0 Mg1 3.296966 1_545
Ba0 Mg3 3.296967 1_455
Ba0 Mg3 3.296967 1_555
Ba0 Mg7 3.464030 1_555
Ba0 Mg6 3.464030 1_555
Ba0 Mg8 3.464036 1_555
Ba0 Mg9 3.464036 1_555
Ba0 Mg11 3.464036 1_455
Ba0 Mg10 3.464036 1_455
Mg0 Mg8 3.046121 1_555
Mg0 Mg9 3.046121 1_554
Mg0 Mg6 3.046128 1_565
Mg0 Mg7 3.046128 1_564
Mg0 Mg2 3.193267 1_455
Mg0 Mg4 3.193267 1_455
Mg0 Mg12 3.286891 1_455
Mg0 Mg13 3.286891 1_454
Mg0 Mn0 3.296291 1_555
Mg0 Mn0 3.296291 1_565
Mg0 Mg2 3.398254 1_565
Mg0 Mg4 3.398254 1_555
Mg1 Mg3 3.141300 1_565
Mg1 Mg5 3.141300 1_555
Mg1 Mg12 3.218491 1_455
Mg1 Mg13 3.218491 1_455
Mg1 Mg9 3.441662 1_555
Mg1 Mg8 3.441662 1_555
Mg1 Mg7 3.441669 1_565
Mg1 Mg6 3.441669 1_565
Mg1 Mg3 3.450220 1_455
Mg1 Mg5 3.450220 1_455
Mg2 Mg6 3.046128 1_555
Mg2 Mg7 3.046128 1_554
Mg2 Mg4 3.193267 1_555
Mg2 Mn0 3.296292 1_655
Mg2 Mn0 3.296292 1_555
Mg2 Mg4 3.398254 1_545
Mg3 Mg5 3.141300 1_545
Mg3 Mg7 3.441669 1_555
Mg3 Mg6 3.441669 1_555
Mg3 Mg5 3.450220 1_555
Mg4 Mg9 3.046129 1_554
Mg4 Mg8 3.046129 1_555
Mg4 Mn0 3.296291 1_665
Mg4 Mn0 3.296291 1_555
Mg5 Mg9 3.441668 1_555
Mg5 Mg8 3.441668 1_555
Mg6 Mn0 3.025834 1_555
Mg6 Mg8 3.293588 1_555
Mg6 Mg8 3.297933 1_545
Mg7 Mn0 3.025834 1_556
Mg7 Mg9 3.293588 1_555
Mg7 Mg9 3.297933 1_545
Mg8 Mn0 3.025841 1_555
Mg9 Mn0 3.025841 1_556
Mg10 Mn0 3.025841 1_655
Mg10 Mg2 3.046121 1_555
Mg10 Mg4 3.046129 1_545
Mg10 Mg8 3.293588 1_655
Mg10 Mg6 3.293588 1_655
Mg10 Mg8 3.297933 1_545
Mg10 Mg6 3.297933 1_555
Mg10 Mg12 3.316183 1_555
Mg10 Mg12 3.316184 1_545
Mg10 Mg3 3.441662 1_555
Mg10 Mg5 3.441668 1_545
Mg11 Mn0 3.025841 1_656
Mg11 Mg2 3.046121 1_556
Mg11 Mg4 3.046129 1_546
Mg11 Mg9 3.293588 1_655
Mg11 Mg7 3.293588 1_655
Mg11 Mg9 3.297933 1_545
Mg11 Mg7 3.297933 1_555
Mg11 Mg13 3.316183 1_555
Mg11 Mg13 3.316184 1_545
Mg11 Mg3 3.441662 1_555
Mg11 Mg5 3.441668 1_545
Mg12 Mg5 3.218483 1_555
Mg12 Mg3 3.218490 1_555
Mg12 Mg4 3.286885 1_555
Mg12 Mg2 3.286891 1_555
Mg12 Mg6 3.316184 1_665
Mg12 Mg6 3.316184 1_555
Mg12 Mg8 3.316184 1_655
Mg12 Mg8 3.316184 1_555
Mg13 Mg5 3.218483 1_555
Mg13 Mg3 3.218490 1_555
Mg13 Mg4 3.286885 1_556
Mg13 Mg2 3.286891 1_556
Mg13 Mg7 3.316184 1_665
Mg13 Mg7 3.316184 1_555
Mg13 Mg9 3.316184 1_655
Mg13 Mg9 3.316184 1_555
