# generated using pymatgen
data_CaCr(SiO3)2
_symmetry_space_group_name_H-M   'P 1'
_cell_length_a   5.30795662
_cell_length_b   6.89962723
_cell_length_c   13.71066073
_cell_angle_alpha   90.60281439
_cell_angle_beta   100.15950315
_cell_angle_gamma   77.91675440
_symmetry_Int_Tables_number   1
_chemical_formula_structural   CaCr(SiO3)2
_chemical_formula_sum   'Ca4 Cr4 Si8 O24'
_cell_volume   483.11914768
_cell_formula_units_Z   4
loop_
 _symmetry_equiv_pos_site_id
 _symmetry_equiv_pos_as_xyz
  1  'x, y, z'
loop_
 _atom_site_type_symbol
 _atom_site_label
 _atom_site_symmetry_multiplicity
 _atom_site_fract_x
 _atom_site_fract_y
 _atom_site_fract_z
 _atom_site_occupancy
  Ca  Ca0  1  0.10064800  0.29870000  0.35064000  1
  Ca  Ca1  1  0.60064900  0.29871600  0.85063900  1
  Ca  Ca2  1  0.39934600  0.70130900  0.14935700  1
  Ca  Ca3  1  0.89935200  0.70128900  0.64935800  1
  Cr  Cr0  1  0.20223100  0.09557700  0.95224000  1
  Cr  Cr1  1  0.29785200  0.90424500  0.54785800  1
  Cr  Cr2  1  0.70227200  0.09549600  0.45232000  1
  Cr  Cr3  1  0.79771100  0.90453100  0.04767500  1
  Si  Si0  1  0.45864400  0.19432800  0.18864100  1
  Si  Si1  1  0.95864900  0.19434200  0.68864600  1
  Si  Si2  1  0.63281800  0.62272000  0.40282100  1
  Si  Si3  1  0.13282000  0.62272400  0.90282100  1
  Si  Si4  1  0.86717400  0.37729100  0.09717100  1
  Si  Si5  1  0.36717500  0.37727000  0.59716900  1
  Si  Si6  1  0.04134700  0.80569300  0.31135700  1
  Si  Si7  1  0.54134600  0.80566700  0.81135200  1
  O  O0  1  0.68820800  0.32646000  0.18147100  1
  O  O1  1  0.18821400  0.32645600  0.68147800  1
  O  O2  1  0.33005100  0.63703100  0.33678400  1
  O  O3  1  0.83004200  0.63703800  0.83677600  1
  O  O4  1  0.81178600  0.67355100  0.31852200  1
  O  O5  1  0.31178200  0.67355800  0.81851500  1
  O  O6  1  0.16994100  0.36298000  0.16320900  1
  O  O7  1  0.66995000  0.36297600  0.66321700  1
  O  O8  1  0.47392700  0.12367800  0.30079300  1
  O  O9  1  0.97394000  0.12367300  0.80079500  1
  O  O10  1  0.76498700  0.39837700  0.43817500  1
  O  O11  1  0.26500400  0.39839000  0.93816700  1
  O  O12  1  0.02606700  0.87633300  0.19919900  1
  O  O13  1  0.52607000  0.87633900  0.69920600  1
  O  O14  1  0.73500500  0.60163500  0.06181800  1
  O  O15  1  0.23498500  0.60161000  0.56182800  1
  O  O16  1  0.87146000  0.21219900  0.01128400  1
  O  O17  1  0.37143200  0.21219900  0.51130200  1
  O  O18  1  0.03371000  0.97742700  0.39391300  1
  O  O19  1  0.53371300  0.97744600  0.89387200  1
  O  O20  1  0.46629000  0.02258500  0.10608300  1
  O  O21  1  0.96629300  0.02255600  0.60612400  1
  O  O22  1  0.62854700  0.78780000  0.48871500  1
  O  O23  1  0.12856000  0.78780700  0.98869100  1
loop_
_geom_bond_atom_site_label_1
_geom_bond_atom_site_label_2
_geom_bond_distance
_geom_bond_site_symmetry_2
Ca0 O8 2.304281 1_555
Ca0 O10 2.304715 1_455
Ca0 O18 2.413218 1_545
Ca0 O17 2.413692 1_555
Ca0 O4 2.712836 1_455
Ca0 O6 2.713224 1_555
Ca0 O2 2.872106 1_555
Ca0 O0 2.872549 1_455
Ca1 O9 2.304363 1_555
Ca1 O11 2.304581 1_555
Ca1 O19 2.413040 1_545
Ca1 O16 2.413572 1_556
Ca1 O5 2.712799 1_555
Ca1 O7 2.713090 1_555
Ca1 O3 2.872032 1_555
Ca1 O1 2.872471 1_555
Ca2 O12 2.304256 1_555
Ca2 O14 2.304739 1_555
Ca2 O20 2.413254 1_565
Ca2 O23 2.413737 1_554
Ca2 O0 2.712820 1_555
Ca2 O2 2.713171 1_555
Ca2 O6 2.872091 1_555
Ca2 O4 2.872514 1_555
Ca3 O13 2.304366 1_555
Ca3 O15 2.304552 1_655
Ca3 O21 2.413035 1_565
Ca3 O22 2.413532 1_555
Ca3 O1 2.712734 1_655
Ca3 O3 2.713040 1_555
Ca3 O7 2.871997 1_555
Ca3 O5 2.872423 1_655
Cr0 O16 2.069199 1_456
Cr0 O19 2.069580 1_545
Cr0 O11 2.199097 1_555
Cr0 O9 2.199981 1_455
Cr0 O23 2.313191 1_545
Cr0 O20 2.313249 1_556
Cr1 O22 2.069338 1_555
Cr1 O21 2.069440 1_465
Cr1 O15 2.197897 1_555
Cr1 O13 2.198735 1_555
Cr1 O17 2.314579 1_565
Cr1 O18 2.314686 1_555
Cr2 O17 2.069165 1_555
Cr2 O18 2.069579 1_645
Cr2 O10 2.199568 1_555
Cr2 O8 2.201029 1_555
Cr2 O22 2.312621 1_545
Cr2 O21 2.312701 1_555
Cr3 O23 2.069250 1_654
Cr3 O20 2.069489 1_565
Cr3 O14 2.199649 1_555
Cr3 O12 2.201013 1_655
Cr3 O16 2.312473 1_565
Cr3 O19 2.312624 1_554
O0 Si0 1.683686 1_555
O0 Si4 1.701950 1_555
O1 Si1 1.683599 1_455
O1 Si5 1.701988 1_555
O2 Si2 1.683549 1_555
O2 Si6 1.702219 1_555
O3 Si3 1.683636 1_655
O3 Si7 1.702073 1_555
O4 Si6 1.683708 1_655
O4 Si2 1.701947 1_555
O5 Si7 1.683558 1_555
O5 Si3 1.702006 1_555
O6 Si4 1.683554 1_455
O6 Si0 1.702184 1_555
O7 Si5 1.683657 1_555
O7 Si1 1.702105 1_555
O8 Si0 1.601206 1_555
O9 Si1 1.601199 1_555
O10 Si2 1.601330 1_555
O11 Si3 1.601265 1_555
O12 Si6 1.601267 1_555
O13 Si7 1.601181 1_555
O14 Si4 1.601333 1_555
O15 Si5 1.601291 1_555
O16 Si4 1.629432 1_555
O17 Si5 1.629136 1_555
O18 Si6 1.629319 1_555
O19 Si7 1.629200 1_555
O20 Si0 1.629382 1_555
O21 Si1 1.629253 1_555
O22 Si2 1.629444 1_555
O23 Si3 1.629222 1_555
