# generated using pymatgen
data_RbHfMg14O15
_symmetry_space_group_name_H-M   'P 1'
_cell_length_a   4.14119700
_cell_length_b   8.43665300
_cell_length_c   10.79131200
_cell_angle_alpha   90.00000000
_cell_angle_beta   90.00000000
_cell_angle_gamma   90.00000000
_symmetry_Int_Tables_number   1
_chemical_formula_structural   RbHfMg14O15
_chemical_formula_sum   'Rb1 Hf1 Mg14 O15'
_cell_volume   377.02515464
_cell_formula_units_Z   1
loop_
 _symmetry_equiv_pos_site_id
 _symmetry_equiv_pos_as_xyz
  1  'x, y, z'
loop_
 _atom_site_type_symbol
 _atom_site_label
 _atom_site_symmetry_multiplicity
 _atom_site_fract_x
 _atom_site_fract_y
 _atom_site_fract_z
 _atom_site_occupancy
  Rb  Rb0  1  0.00000000  0.00000000  0.93412600  1
  Hf  Hf0  1  0.00000000  0.50000000  0.99211200  1
  Mg  Mg0  1  0.00000000  0.00000000  0.47720700  1
  Mg  Mg1  1  0.00000000  0.50000000  0.47090600  1
  Mg  Mg2  1  0.50000000  0.76480800  0.08168700  1
  Mg  Mg3  1  0.50000000  0.23519200  0.08168700  1
  Mg  Mg4  1  0.50000000  0.74515500  0.48343600  1
  Mg  Mg5  1  0.50000000  0.25484500  0.48343600  1
  Mg  Mg6  1  0.50000000  0.00000000  0.66993300  1
  Mg  Mg7  1  0.50000000  0.50000000  0.72183600  1
  Mg  Mg8  1  0.50000000  0.00000000  0.27093000  1
  Mg  Mg9  1  0.50000000  0.50000000  0.26408200  1
  Mg  Mg10  1  0.00000000  0.75824700  0.68194000  1
  Mg  Mg11  1  0.00000000  0.24175300  0.68194000  1
  Mg  Mg12  1  0.00000000  0.75216100  0.27272700  1
  Mg  Mg13  1  0.00000000  0.24783900  0.27272700  1
  O  O0  1  0.00000000  0.00000000  0.67961200  1
  O  O1  1  0.00000000  0.00000000  0.29182200  1
  O  O2  1  0.00000000  0.50000000  0.28508900  1
  O  O3  1  0.50000000  0.75399600  0.68898800  1
  O  O4  1  0.50000000  0.24600400  0.68898800  1
  O  O5  1  0.50000000  0.74588700  0.27448600  1
  O  O6  1  0.50000000  0.25411300  0.27448600  1
  O  O7  1  0.50000000  0.00000000  0.08027100  1
  O  O8  1  0.50000000  0.50000000  0.06347700  1
  O  O9  1  0.50000000  0.00000000  0.48160600  1
  O  O10  1  0.50000000  0.50000000  0.49839900  1
  O  O11  1  0.00000000  0.71874800  0.06313300  1
  O  O12  1  0.00000000  0.28125200  0.06313300  1
  O  O13  1  0.00000000  0.74451600  0.48789800  1
  O  O14  1  0.00000000  0.25548400  0.48789800  1
loop_
_geom_bond_atom_site_label_1
_geom_bond_atom_site_label_2
_geom_bond_distance
_geom_bond_site_symmetry_2
Hf0 O12 1.998314 1_556
Hf0 O11 1.998314 1_556
Hf0 O8 2.209178 1_456
Hf0 O8 2.209178 1_556
Mg0 O1 2.000547 1_555
Mg0 O9 2.071143 1_455
Mg0 O9 2.071143 1_555
Mg0 O14 2.158515 1_555
Mg0 O13 2.158515 1_545
Mg0 O0 2.184216 1_555
Mg1 O2 2.005209 1_555
Mg1 O13 2.071030 1_555
Mg1 O14 2.071030 1_555
Mg1 O10 2.091746 1_455
Mg1 O10 2.091746 1_555
Mg2 O7 1.984292 1_565
Mg2 O5 2.086669 1_555
Mg2 O11 2.116240 1_655
Mg2 O11 2.116240 1_555
Mg2 O8 2.242719 1_555
Mg3 O7 1.984292 1_555
Mg3 O6 2.086669 1_555
Mg3 O12 2.116240 1_655
Mg3 O12 2.116240 1_555
Mg3 O8 2.242719 1_555
Mg4 O13 2.071165 1_555
Mg4 O13 2.071165 1_655
Mg4 O10 2.074581 1_555
Mg4 O9 2.150130 1_565
Mg4 O3 2.219429 1_555
Mg4 O5 2.254853 1_555
Mg5 O14 2.071165 1_555
Mg5 O14 2.071165 1_655
Mg5 O10 2.074581 1_555
Mg5 O9 2.150130 1_555
Mg5 O4 2.219429 1_555
Mg5 O6 2.254853 1_555
Mg6 O9 2.032295 1_555
Mg6 O0 2.073231 1_555
Mg6 O0 2.073231 1_655
Mg6 O4 2.085612 1_555
Mg6 O3 2.085612 1_545
Mg7 O4 2.171997 1_555
Mg7 O3 2.171997 1_555
Mg7 O10 2.411178 1_555
Mg8 O7 2.057461 1_555
Mg8 O1 2.082836 1_655
Mg8 O1 2.082836 1_555
Mg8 O6 2.144207 1_555
Mg8 O5 2.144207 1_545
Mg8 O9 2.273470 1_555
Mg9 O5 2.077499 1_555
Mg9 O6 2.077499 1_555
Mg9 O2 2.082971 1_655
Mg9 O2 2.082971 1_555
Mg9 O8 2.164791 1_555
Mg9 O10 2.528588 1_555
Mg10 O0 2.039741 1_565
Mg10 O3 2.072305 1_555
Mg10 O3 2.072305 1_455
Mg10 O13 2.097170 1_555
Mg11 O0 2.039741 1_555
Mg11 O4 2.072305 1_455
Mg11 O4 2.072305 1_555
Mg11 O14 2.097170 1_555
Mg12 O5 2.071362 1_455
Mg12 O5 2.071362 1_555
Mg12 O1 2.101061 1_565
Mg12 O2 2.131573 1_555
Mg12 O11 2.279293 1_555
Mg12 O13 2.322873 1_555
Mg13 O6 2.071362 1_555
Mg13 O6 2.071362 1_455
Mg13 O1 2.101061 1_555
Mg13 O2 2.131573 1_555
Mg13 O12 2.279293 1_555
Mg13 O14 2.322873 1_555
O0 Rb0 2.746540 1_555
O7 Rb0 2.602808 1_554
O7 Rb0 2.602808 1_654
O11 Rb0 2.751072 1_564
O12 Rb0 2.751072 1_554
