# generated using pymatgen
data_Bi(SbTe2)3
_symmetry_space_group_name_H-M   'P 1'
_cell_length_a   10.46048790
_cell_length_b   10.46048790
_cell_length_c   7.59186520
_cell_angle_alpha   83.29320162
_cell_angle_beta   83.29320162
_cell_angle_gamma   24.18639404
_symmetry_Int_Tables_number   1
_chemical_formula_structural   Bi(SbTe2)3
_chemical_formula_sum   'Bi1 Sb3 Te6'
_cell_volume   337.91313595
_cell_formula_units_Z   1
loop_
 _symmetry_equiv_pos_site_id
 _symmetry_equiv_pos_as_xyz
  1  'x, y, z'
loop_
 _atom_site_type_symbol
 _atom_site_label
 _atom_site_symmetry_multiplicity
 _atom_site_fract_x
 _atom_site_fract_y
 _atom_site_fract_z
 _atom_site_occupancy
  Bi  Bi0  1  0.40214400  0.40214400  0.20012100  1
  Sb  Sb0  1  0.90035800  0.90035800  0.69840300  1
  Sb  Sb1  1  0.09846300  0.09846300  0.30048000  1
  Sb  Sb2  1  0.59992400  0.59992400  0.80024700  1
  Te  Te0  1  0.50109100  0.50109100  0.50252500  1
  Te  Te1  1  0.00204900  0.00204900  0.99663200  1
  Te  Te2  1  0.81507900  0.81507900  0.40211500  1
  Te  Te3  1  0.31612700  0.31612700  0.88646500  1
  Te  Te4  1  0.68277900  0.68277900  0.10687200  1
  Te  Te5  1  0.18198400  0.18198400  0.60614000  1
loop_
_geom_bond_atom_site_label_1
_geom_bond_atom_site_label_2
_geom_bond_distance
_geom_bond_site_symmetry_2
Bi0 Te2 3.110315 1_455
Bi0 Te2 3.110315 1_545
Bi0 Te3 3.125295 1_554
Bi0 Te0 3.236961 1_555
Bi0 Te1 3.257587 1_654
Bi0 Te1 3.257587 1_564
Sb0 Te2 3.006736 1_555
Sb0 Te3 3.036852 1_655
Sb0 Te3 3.036852 1_565
Sb0 Te0 3.244749 1_655
Sb0 Te0 3.244749 1_565
Sb0 Te1 3.252508 1_665
Sb1 Te5 3.041570 1_555
Sb1 Te4 3.054919 1_455
Sb1 Te4 3.054919 1_545
Sb1 Te1 3.209055 1_554
Sb1 Te0 3.223871 1_545
Sb1 Te0 3.223871 1_455
Sb2 Te5 3.033363 1_565
Sb2 Te5 3.033363 1_655
Sb2 Te4 3.038790 1_556
Sb2 Te0 3.207505 1_555
Sb2 Te1 3.212670 1_565
Sb2 Te1 3.212670 1_655
