# generated using pymatgen
data_LiMn2P2O9
_symmetry_space_group_name_H-M   'P 1'
_cell_length_a   6.30082400
_cell_length_b   7.53102100
_cell_length_c   13.90028000
_cell_angle_alpha   90.00000000
_cell_angle_beta   90.00000000
_cell_angle_gamma   90.00000000
_symmetry_Int_Tables_number   1
_chemical_formula_structural   LiMn2P2O9
_chemical_formula_sum   'Li4 Mn8 P8 O36'
_cell_volume   659.59105273
_cell_formula_units_Z   4
loop_
 _symmetry_equiv_pos_site_id
 _symmetry_equiv_pos_as_xyz
  1  'x, y, z'
loop_
 _atom_site_type_symbol
 _atom_site_label
 _atom_site_symmetry_multiplicity
 _atom_site_fract_x
 _atom_site_fract_y
 _atom_site_fract_z
 _atom_site_occupancy
  Li  Li0  1  0.75000000  0.93869800  0.77944200  1
  Li  Li1  1  0.75000000  0.56130200  0.27944200  1
  Li  Li2  1  0.25000000  0.43869800  0.72055800  1
  Li  Li3  1  0.25000000  0.06130200  0.22055800  1
  Mn  Mn0  1  0.75000000  0.35284500  0.87824400  1
  Mn  Mn1  1  0.25000000  0.64715500  0.12175600  1
  Mn  Mn2  1  0.25000000  0.85284500  0.62175600  1
  Mn  Mn3  1  0.75000000  0.14715500  0.37824400  1
  Mn  Mn4  1  0.50000000  0.00000000  0.00000000  1
  Mn  Mn5  1  0.50000000  0.50000000  0.50000000  1
  Mn  Mn6  1  0.00000000  0.50000000  0.50000000  1
  Mn  Mn7  1  0.00000000  0.00000000  0.00000000  1
  P  P0  1  0.25000000  0.36642600  0.93287200  1
  P  P1  1  0.75000000  0.63357400  0.06712800  1
  P  P2  1  0.75000000  0.86642600  0.56712800  1
  P  P3  1  0.25000000  0.13357400  0.43287200  1
  P  P4  1  0.75000000  0.39385000  0.69295200  1
  P  P5  1  0.75000000  0.10615000  0.19295200  1
  P  P6  1  0.25000000  0.89385000  0.80704800  1
  P  P7  1  0.25000000  0.60615000  0.30704800  1
  O  O0  1  0.04534000  0.59500600  0.36775400  1
  O  O1  1  0.54534000  0.40499400  0.63224600  1
  O  O2  1  0.95466000  0.09500600  0.13224600  1
  O  O3  1  0.45466000  0.90499400  0.86775400  1
  O  O4  1  0.95466000  0.40499400  0.63224600  1
  O  O5  1  0.45466000  0.59500600  0.36775400  1
  O  O6  1  0.04534000  0.90499400  0.86775400  1
  O  O7  1  0.54534000  0.09500600  0.13224600  1
  O  O8  1  0.25000000  0.31509300  0.48514600  1
  O  O9  1  0.75000000  0.68490700  0.51485400  1
  O  O10  1  0.75000000  0.81509300  0.01485400  1
  O  O11  1  0.25000000  0.18490700  0.98514600  1
  O  O12  1  0.75000000  0.12950500  0.94815900  1
  O  O13  1  0.25000000  0.87049500  0.05184100  1
  O  O14  1  0.25000000  0.62950500  0.55184100  1
  O  O15  1  0.75000000  0.37049500  0.44815900  1
  O  O16  1  0.75000000  0.21976600  0.75611900  1
  O  O17  1  0.25000000  0.78023400  0.24388100  1
  O  O18  1  0.25000000  0.71976600  0.74388100  1
  O  O19  1  0.75000000  0.28023400  0.25611900  1
  O  O20  1  0.44103000  0.12568400  0.36305900  1
  O  O21  1  0.94103000  0.87431600  0.63694100  1
  O  O22  1  0.55897000  0.62568400  0.13694100  1
  O  O23  1  0.05897000  0.37431600  0.86305900  1
  O  O24  1  0.55897000  0.87431600  0.63694100  1
  O  O25  1  0.05897000  0.12568400  0.36305900  1
  O  O26  1  0.44103000  0.37431600  0.86305900  1
  O  O27  1  0.94103000  0.62568400  0.13694100  1
  O  O28  1  0.75000000  0.47815300  0.99672400  1
  O  O29  1  0.25000000  0.03618900  0.72502500  1
  O  O30  1  0.25000000  0.46381100  0.22502500  1
  O  O31  1  0.75000000  0.53618900  0.77497500  1
  O  O32  1  0.75000000  0.02184700  0.49672400  1
  O  O33  1  0.25000000  0.97815300  0.50327600  1
  O  O34  1  0.25000000  0.52184700  0.00327600  1
  O  O35  1  0.75000000  0.96381100  0.27497500  1
loop_
_geom_bond_atom_site_label_1
_geom_bond_atom_site_label_2
_geom_bond_distance
_geom_bond_site_symmetry_2
Li0 O16 2.141412 1_565
Li0 O6 2.243709 1_655
Li0 O3 2.243709 1_555
Li0 O24 2.368003 1_555
Li0 O21 2.368003 1_555
Li1 O19 2.141412 1_555
Li1 O5 2.243709 1_555
Li1 O0 2.243709 1_655
Li1 O22 2.368003 1_555
Li1 O27 2.368003 1_555
Li2 O18 2.141412 1_555
Li2 O4 2.243709 1_455
Li2 O1 2.243709 1_555
Li2 O26 2.368003 1_555
Li2 O23 2.368003 1_555
Li3 O17 2.141412 1_545
Li3 O2 2.243709 1_455
Li3 O7 2.243709 1_555
Li3 O20 2.368003 1_555
Li3 O25 2.368003 1_555
Mn0 O28 1.898120 1_555
Mn0 O12 1.942555 1_555
Mn0 O23 1.964840 1_655
Mn0 O26 1.964840 1_555
Mn0 O16 1.971344 1_555
Mn0 O31 1.991755 1_555
Mn1 O34 1.898120 1_555
Mn1 O13 1.942555 1_555
Mn1 O22 1.964840 1_555
Mn1 O27 1.964840 1_455
Mn1 O17 1.971344 1_555
Mn1 O30 1.991755 1_555
Mn2 O33 1.898120 1_555
Mn2 O14 1.942555 1_555
Mn2 O24 1.964840 1_555
Mn2 O21 1.964840 1_455
Mn2 O18 1.971344 1_555
Mn2 O29 1.991755 1_565
Mn3 O32 1.898120 1_555
Mn3 O15 1.942555 1_555
Mn3 O25 1.964840 1_655
Mn3 O20 1.964840 1_555
Mn3 O19 1.971344 1_555
Mn3 O35 1.991755 1_545
Mn4 O13 1.987904 1_545
Mn4 O12 1.987904 1_554
Mn4 O3 1.993170 1_544
Mn4 O7 1.993170 1_555
Mn4 O10 2.112598 1_545
Mn4 O11 2.112598 1_554
Mn5 O15 1.987904 1_555
Mn5 O14 1.987904 1_555
Mn5 O1 1.993170 1_555
Mn5 O5 1.993170 1_555
Mn5 O8 2.112598 1_555
Mn5 O9 2.112598 1_555
Mn6 O15 1.987904 1_455
Mn6 O14 1.987904 1_555
Mn6 O4 1.993170 1_455
Mn6 O0 1.993170 1_555
Mn6 O8 2.112598 1_555
Mn6 O9 2.112598 1_455
Mn7 O13 1.987904 1_545
Mn7 O12 1.987904 1_454
Mn7 O6 1.993170 1_544
Mn7 O2 1.993170 1_455
Mn7 O10 2.112598 1_445
Mn7 O11 2.112598 1_554
O0 P7 1.543364 1_555
O1 P4 1.543364 1_555
O2 P5 1.543364 1_555
O3 P6 1.543364 1_555
O4 P4 1.543364 1_555
O5 P7 1.543364 1_555
O6 P6 1.543364 1_555
O7 P5 1.543364 1_555
O8 P3 1.548139 1_555
O9 P2 1.548139 1_555
O10 P1 1.548139 1_555
O11 P0 1.548139 1_555
O16 P4 1.577895 1_555
O17 P7 1.577895 1_555
O18 P6 1.577895 1_555
O19 P5 1.577895 1_555
O20 P3 1.547259 1_555
O21 P2 1.547259 1_555
O22 P1 1.547259 1_555
O23 P0 1.547259 1_555
O24 P2 1.547259 1_555
O25 P3 1.547259 1_555
O26 P0 1.547259 1_555
O27 P1 1.547259 1_555
O28 P1 1.525696 1_556
O29 P6 1.564934 1_545
O30 P7 1.564934 1_555
O31 P4 1.564934 1_555
O32 P2 1.525696 1_545
O33 P3 1.525696 1_565
O34 P0 1.525696 1_554
O35 P5 1.564934 1_565
