# generated using pymatgen
data_PaAs2
_symmetry_space_group_name_H-M   'P 1'
_cell_length_a   4.01716908
_cell_length_b   4.01716908
_cell_length_c   8.12899977
_cell_angle_alpha   90.00000000
_cell_angle_beta   90.00000000
_cell_angle_gamma   90.00000000
_symmetry_Int_Tables_number   1
_chemical_formula_structural   PaAs2
_chemical_formula_sum   'Pa2 As4'
_cell_volume   131.18293214
_cell_formula_units_Z   2
loop_
 _symmetry_equiv_pos_site_id
 _symmetry_equiv_pos_as_xyz
  1  'x, y, z'
loop_
 _atom_site_type_symbol
 _atom_site_label
 _atom_site_symmetry_multiplicity
 _atom_site_fract_x
 _atom_site_fract_y
 _atom_site_fract_z
 _atom_site_occupancy
  Pa  Pa0  1  0.75000000  0.75000000  0.27704800  1
  Pa  Pa1  1  0.25000000  0.25000000  0.72295200  1
  As  As0  1  0.75000000  0.75000000  0.63915568  1
  As  As1  1  0.25000000  0.25000000  0.36084432  1
  As  As2  1  0.25000000  0.75000000  -0.00000000  1
  As  As3  1  0.75000000  0.25000000  -0.00000000  1
loop_
_geom_bond_atom_site_label_1
_geom_bond_atom_site_label_2
_geom_bond_distance
_geom_bond_site_symmetry_2
As0 Pa1 2.921101 1_565
As0 Pa1 2.921101 1_655
As0 Pa1 2.921101 1_665
As0 Pa1 2.921101 1_555
As0 Pa0 2.943573 1_555
As1 Pa0 2.921101 1_445
As1 Pa0 2.921101 1_545
As1 Pa0 2.921101 1_555
As1 Pa0 2.921101 1_455
As1 Pa1 2.943573 1_555
As2 As3 2.840567 1_455
As2 As3 2.840567 1_465
As2 As3 2.840567 1_555
As2 As3 2.840567 1_565
As2 Pa0 3.017693 1_555
As2 Pa0 3.017693 1_455
As2 Pa1 3.017693 1_554
As2 Pa1 3.017693 1_564
As3 Pa0 3.017693 1_555
As3 Pa0 3.017693 1_545
As3 Pa1 3.017693 1_654
As3 Pa1 3.017693 1_554
