# generated using pymatgen
data_HfMg6Sb
_symmetry_space_group_name_H-M   'P 1'
_cell_length_a   5.10185000
_cell_length_b   6.47485000
_cell_length_c   10.85929400
_cell_angle_alpha   90.00000000
_cell_angle_beta   90.00000000
_cell_angle_gamma   90.00000000
_symmetry_Int_Tables_number   1
_chemical_formula_structural   HfMg6Sb
_chemical_formula_sum   'Hf2 Mg12 Sb2'
_cell_volume   358.72280651
_cell_formula_units_Z   2
loop_
 _symmetry_equiv_pos_site_id
 _symmetry_equiv_pos_as_xyz
  1  'x, y, z'
loop_
 _atom_site_type_symbol
 _atom_site_label
 _atom_site_symmetry_multiplicity
 _atom_site_fract_x
 _atom_site_fract_y
 _atom_site_fract_z
 _atom_site_occupancy
  Hf  Hf0  1  0.50000000  0.50000000  0.16929400  1
  Hf  Hf1  1  0.50000000  0.00000000  0.66929400  1
  Mg  Mg0  1  0.00000000  0.24858400  0.08253700  1
  Mg  Mg1  1  0.00000000  0.75141600  0.08253700  1
  Mg  Mg2  1  0.00000000  0.50000000  0.83355200  1
  Mg  Mg3  1  0.50000000  0.25561200  0.91922300  1
  Mg  Mg4  1  0.50000000  0.74438800  0.91922300  1
  Mg  Mg5  1  0.50000000  0.50000000  0.66544200  1
  Mg  Mg6  1  0.00000000  0.74858400  0.58253700  1
  Mg  Mg7  1  0.00000000  0.25141600  0.58253700  1
  Mg  Mg8  1  0.00000000  0.00000000  0.33355200  1
  Mg  Mg9  1  0.50000000  0.75561200  0.41922300  1
  Mg  Mg10  1  0.50000000  0.24438800  0.41922300  1
  Mg  Mg11  1  0.50000000  0.00000000  0.16544200  1
  Sb  Sb0  1  0.00000000  0.50000000  0.32819200  1
  Sb  Sb1  1  0.00000000  0.00000000  0.82819200  1
loop_
_geom_bond_atom_site_label_1
_geom_bond_atom_site_label_2
_geom_bond_distance
_geom_bond_site_symmetry_2
Hf0 Sb0 3.079714 1_655
Hf0 Sb0 3.079714 1_555
Hf0 Mg4 3.142987 1_554
Hf0 Mg3 3.142987 1_554
Hf0 Mg1 3.169354 1_555
Hf0 Mg1 3.169354 1_655
Hf0 Mg0 3.169354 1_555
Hf0 Mg0 3.169354 1_655
Hf0 Mg9 3.178879 1_555
Hf0 Mg10 3.178879 1_555
Hf0 Mg11 3.237695 1_555
Hf0 Mg11 3.237695 1_565
Hf1 Sb1 3.079714 1_655
Hf1 Sb1 3.079714 1_555
Hf1 Mg10 3.142987 1_555
Hf1 Mg9 3.142987 1_545
Hf1 Mg7 3.169354 1_655
Hf1 Mg7 3.169354 1_555
Hf1 Mg6 3.169354 1_545
Hf1 Mg6 3.169354 1_645
Hf1 Mg3 3.178879 1_555
Hf1 Mg4 3.178879 1_545
Hf1 Mg5 3.237695 1_545
Hf1 Mg5 3.237695 1_555
Mg0 Mg3 3.107169 1_454
Mg0 Mg3 3.107169 1_554
Mg0 Sb0 3.125108 1_555
Mg0 Mg11 3.147757 1_555
Mg0 Mg11 3.147757 1_455
Mg0 Mg2 3.156032 1_554
Mg0 Mg8 3.165575 1_555
Mg0 Sb1 3.196766 1_554
Mg0 Mg1 3.219088 1_545
Mg0 Mg1 3.255762 1_555
Mg1 Mg4 3.107169 1_554
Mg1 Mg4 3.107169 1_454
Mg1 Sb0 3.125108 1_555
Mg1 Mg11 3.147757 1_565
Mg1 Mg11 3.147757 1_465
Mg1 Mg2 3.156032 1_554
Mg1 Mg8 3.165575 1_565
Mg1 Sb1 3.196766 1_564
Mg2 Mg5 3.136857 1_455
Mg2 Mg5 3.136857 1_555
Mg2 Mg4 3.142712 1_455
Mg2 Mg4 3.142712 1_555
Mg2 Mg3 3.142712 1_455
Mg2 Mg3 3.142712 1_555
Mg2 Mg6 3.165575 1_555
Mg2 Mg7 3.165575 1_555
Mg2 Sb1 3.237948 1_555
Mg2 Sb1 3.237948 1_565
Mg3 Mg4 3.164751 1_555
Mg3 Mg5 3.177861 1_555
Mg3 Sb1 3.197437 1_655
Mg3 Sb1 3.197437 1_555
Mg3 Mg4 3.310099 1_545
Mg4 Mg5 3.177861 1_555
Mg4 Sb1 3.197437 1_565
Mg4 Sb1 3.197437 1_665
Mg5 Mg9 3.144552 1_555
Mg5 Mg6 3.147757 1_555
Mg5 Mg6 3.147757 1_655
Mg5 Mg7 3.147757 1_555
Mg5 Mg7 3.147757 1_655
Mg6 Mg9 3.107169 1_555
Mg6 Mg9 3.107169 1_455
Mg6 Sb1 3.125108 1_565
Mg6 Mg8 3.156032 1_565
Mg6 Sb0 3.196766 1_555
Mg6 Mg7 3.219088 1_555
Mg6 Mg7 3.255762 1_565
Mg7 Sb1 3.125108 1_555
Mg7 Mg8 3.156032 1_555
Mg7 Sb0 3.196766 1_555
Mg8 Mg9 3.142712 1_545
Mg8 Mg9 3.142712 1_445
Mg8 Sb0 3.237948 1_545
Mg8 Sb0 3.237948 1_555
Mg9 Sb0 3.197437 1_655
Mg9 Sb0 3.197437 1_555
Mg10 Mg7 3.107169 1_555
Mg10 Mg7 3.107169 1_655
Mg10 Mg8 3.142712 1_555
Mg10 Mg8 3.142712 1_655
Mg10 Mg5 3.144552 1_555
Mg10 Mg9 3.164751 1_545
Mg10 Mg11 3.177861 1_555
Mg10 Sb0 3.197437 1_655
Mg10 Sb0 3.197437 1_555
Mg10 Mg9 3.310099 1_555
Mg11 Mg8 3.136857 1_555
Mg11 Mg8 3.136857 1_655
Mg11 Mg3 3.144552 1_554
Mg11 Mg4 3.144552 1_544
Mg11 Mg9 3.177861 1_545
