# generated using pymatgen
data_Ba2LaNbO6
_symmetry_space_group_name_H-M   'P 1'
_cell_length_a   8.76124124
_cell_length_b   8.76124124
_cell_length_c   8.76124124
_cell_angle_alpha   90.00000000
_cell_angle_beta   90.00000000
_cell_angle_gamma   90.00000000
_symmetry_Int_Tables_number   1
_chemical_formula_structural   Ba2LaNbO6
_chemical_formula_sum   'Ba8 La4 Nb4 O24'
_cell_volume   672.50716583
_cell_formula_units_Z   4
loop_
 _symmetry_equiv_pos_site_id
 _symmetry_equiv_pos_as_xyz
  1  'x, y, z'
loop_
 _atom_site_type_symbol
 _atom_site_label
 _atom_site_symmetry_multiplicity
 _atom_site_fract_x
 _atom_site_fract_y
 _atom_site_fract_z
 _atom_site_occupancy
  Ba  Ba0  1  0.50000000  0.50000000  0.50000000  1
  Ba  Ba1  1  -0.00000000  0.00000000  -0.00000000  1
  Ba  Ba2  1  -0.00000000  0.00000000  0.50000000  1
  Ba  Ba3  1  -0.00000000  0.50000000  -0.00000000  1
  Ba  Ba4  1  0.50000000  0.00000000  -0.00000000  1
  Ba  Ba5  1  0.50000000  0.50000000  -0.00000000  1
  Ba  Ba6  1  0.50000000  0.00000000  0.50000000  1
  Ba  Ba7  1  -0.00000000  0.50000000  0.50000000  1
  La  La0  1  0.75000000  0.75000000  0.75000000  1
  La  La1  1  0.75000000  0.25000000  0.25000000  1
  La  La2  1  0.25000000  0.75000000  0.25000000  1
  La  La3  1  0.25000000  0.25000000  0.75000000  1
  Nb  Nb0  1  0.25000000  0.25000000  0.25000000  1
  Nb  Nb1  1  0.25000000  0.75000000  0.75000000  1
  Nb  Nb2  1  0.75000000  0.25000000  0.75000000  1
  Nb  Nb3  1  0.75000000  0.75000000  0.25000000  1
  O  O0  1  0.22653126  0.27664268  0.47952350  1
  O  O1  1  0.22653126  0.72335732  0.52047650  1
  O  O2  1  0.77346874  0.27664268  0.52047650  1
  O  O3  1  0.77346874  0.72335732  0.47952350  1
  O  O4  1  0.27664268  0.47952350  0.22653126  1
  O  O5  1  0.72335732  0.52047650  0.22653126  1
  O  O6  1  0.27664268  0.52047650  0.77346874  1
  O  O7  1  0.72335732  0.47952350  0.77346874  1
  O  O8  1  0.47952350  0.22653126  0.27664268  1
  O  O9  1  0.52047650  0.22653126  0.72335732  1
  O  O10  1  0.52047650  0.77346874  0.27664268  1
  O  O11  1  0.47952350  0.77346874  0.72335732  1
  O  O12  1  0.27346874  0.22335732  0.02047650  1
  O  O13  1  0.27346874  0.77664268  0.97952350  1
  O  O14  1  0.72653126  0.22335732  0.97952350  1
  O  O15  1  0.72653126  0.77664268  0.02047650  1
  O  O16  1  0.22335732  0.02047650  0.27346874  1
  O  O17  1  0.77664268  0.97952350  0.27346874  1
  O  O18  1  0.22335732  0.97952350  0.72653126  1
  O  O19  1  0.77664268  0.02047650  0.72653126  1
  O  O20  1  0.02047650  0.27346874  0.22335732  1
  O  O21  1  0.97952350  0.27346874  0.77664268  1
  O  O22  1  0.97952350  0.72653126  0.22335732  1
  O  O23  1  0.02047650  0.72653126  0.77664268  1
loop_
_geom_bond_atom_site_label_1
_geom_bond_atom_site_label_2
_geom_bond_distance
_geom_bond_site_symmetry_2
Ba0 O3 3.098718 1_555
Ba0 O11 3.098718 1_555
Ba0 O1 3.098718 1_555
Ba0 O5 3.098718 1_555
Ba0 O7 3.098718 1_555
Ba0 O9 3.098718 1_555
Ba0 O6 3.098718 1_555
Ba0 O10 3.098718 1_555
Ba0 O0 3.098718 1_555
Ba0 O2 3.098718 1_555
Ba0 O4 3.098718 1_555
Ba0 O8 3.098718 1_555
Ba1 O20 3.098718 1_555
Ba1 O18 3.098718 1_544
Ba1 O21 3.098718 1_454
Ba1 O22 3.098718 1_445
Ba1 O13 3.098718 1_544
Ba1 O17 3.098718 1_445
Ba1 O14 3.098718 1_454
Ba1 O23 3.098718 1_544
Ba1 O19 3.098718 1_454
Ba1 O15 3.098718 1_445
Ba1 O12 3.098718 1_555
Ba1 O16 3.098718 1_555
Ba2 O17 2.792957 1_445
Ba2 O19 2.792957 1_455
Ba2 O16 2.792957 1_555
Ba2 O18 2.792957 1_545
Ba2 O0 3.137783 1_555
Ba2 O2 3.137783 1_455
Ba2 O3 3.137783 1_445
Ba2 O1 3.137783 1_545
Ba2 O23 3.412789 1_545
Ba2 O20 3.412789 1_555
Ba2 O22 3.412789 1_445
Ba2 O21 3.412789 1_455
Ba3 O21 2.792957 1_454
Ba3 O22 2.792957 1_455
Ba3 O20 2.792957 1_555
Ba3 O23 2.792957 1_554
Ba3 O4 3.137783 1_555
Ba3 O6 3.137783 1_554
Ba3 O5 3.137783 1_455
Ba3 O7 3.137783 1_454
Ba3 O14 3.412789 1_454
Ba3 O13 3.412789 1_554
Ba3 O12 3.412789 1_555
Ba3 O15 3.412789 1_455
Ba4 O12 2.792957 1_555
Ba4 O14 2.792957 1_554
Ba4 O13 2.792957 1_544
Ba4 O15 2.792957 1_545
Ba4 O8 3.137783 1_555
Ba4 O10 3.137783 1_545
Ba4 O9 3.137783 1_554
Ba4 O11 3.137783 1_544
Ba4 O18 3.412789 1_544
Ba4 O17 3.412789 1_545
Ba4 O16 3.412789 1_555
Ba4 O19 3.412789 1_554
Ba5 O7 2.792957 1_554
Ba5 O6 2.792957 1_554
Ba5 O5 2.792957 1_555
Ba5 O4 2.792957 1_555
Ba5 O13 3.137783 1_554
Ba5 O14 3.137783 1_554
Ba5 O15 3.137783 1_555
Ba5 O12 3.137783 1_555
Ba5 O10 3.412789 1_555
Ba5 O8 3.412789 1_555
Ba5 O9 3.412789 1_554
Ba5 O11 3.412789 1_554
Ba6 O8 2.792957 1_555
Ba6 O10 2.792957 1_545
Ba6 O9 2.792957 1_555
Ba6 O11 2.792957 1_545
Ba6 O17 3.137783 1_545
Ba6 O16 3.137783 1_555
Ba6 O19 3.137783 1_555
Ba6 O18 3.137783 1_545
Ba6 O2 3.412789 1_555
Ba6 O0 3.412789 1_555
Ba6 O1 3.412789 1_545
Ba6 O3 3.412789 1_545
Ba7 O3 2.792957 1_455
Ba7 O0 2.792957 1_555
Ba7 O2 2.792957 1_455
Ba7 O1 2.792957 1_555
Ba7 O22 3.137783 1_455
Ba7 O20 3.137783 1_555
Ba7 O23 3.137783 1_555
Ba7 O21 3.137783 1_455
Ba7 O4 3.412789 1_555
Ba7 O6 3.412789 1_555
Ba7 O7 3.412789 1_455
Ba7 O5 3.412789 1_455
La0 O3 2.390039 1_555
La0 O19 2.390039 1_565
La0 O23 2.390039 1_655
La0 O11 2.390039 1_555
La0 O15 2.390039 1_556
La0 O7 2.390039 1_555
La1 O2 2.390039 1_555
La1 O20 2.390039 1_655
La1 O14 2.390039 1_554
La1 O8 2.390039 1_555
La1 O5 2.390039 1_555
La1 O17 2.390039 1_545
La2 O10 2.390039 1_555
La2 O4 2.390039 1_555
La2 O1 2.390039 1_555
La2 O16 2.390039 1_565
La2 O22 2.390039 1_455
La2 O13 2.390039 1_554
La3 O18 2.390039 1_545
La3 O21 2.390039 1_455
La3 O6 2.390039 1_555
La3 O12 2.390039 1_556
La3 O0 2.390039 1_555
La3 O9 2.390039 1_555
Nb0 O4 2.034828 1_555
Nb0 O8 2.034828 1_555
Nb0 O12 2.034828 1_555
Nb0 O16 2.034828 1_555
Nb0 O0 2.034828 1_555
Nb0 O20 2.034828 1_555
Nb1 O11 2.034828 1_555
Nb1 O18 2.034828 1_555
Nb1 O6 2.034828 1_555
Nb1 O13 2.034828 1_555
Nb1 O23 2.034828 1_555
Nb1 O1 2.034828 1_555
Nb2 O21 2.034828 1_555
Nb2 O14 2.034828 1_555
Nb2 O9 2.034828 1_555
Nb2 O7 2.034828 1_555
Nb2 O19 2.034828 1_555
Nb2 O2 2.034828 1_555
Nb3 O15 2.034828 1_555
Nb3 O5 2.034828 1_555
Nb3 O10 2.034828 1_555
Nb3 O22 2.034828 1_555
Nb3 O3 2.034828 1_555
Nb3 O17 2.034828 1_555
