# generated using pymatgen
data_KCeHfZrO6
_symmetry_space_group_name_H-M   'P 1'
_cell_length_a   5.87229693
_cell_length_b   5.87229693
_cell_length_c   5.87229693
_cell_angle_alpha   60.00000000
_cell_angle_beta   60.00000000
_cell_angle_gamma   60.00000000
_symmetry_Int_Tables_number   1
_chemical_formula_structural   KCeHfZrO6
_chemical_formula_sum   'K1 Ce1 Hf1 Zr1 O6'
_cell_volume   143.18879165
_cell_formula_units_Z   1
loop_
 _symmetry_equiv_pos_site_id
 _symmetry_equiv_pos_as_xyz
  1  'x, y, z'
loop_
 _atom_site_type_symbol
 _atom_site_label
 _atom_site_symmetry_multiplicity
 _atom_site_fract_x
 _atom_site_fract_y
 _atom_site_fract_z
 _atom_site_occupancy
  K  K0  1  0.25000000  0.25000000  0.25000000  1
  Ce  Ce0  1  0.75000000  0.75000000  0.75000000  1
  Hf  Hf0  1  0.00000000  0.00000000  0.00000000  1
  Zr  Zr0  1  0.50000000  0.50000000  0.50000000  1
  O  O0  1  0.75188063  0.24811937  0.24811937  1
  O  O1  1  0.24811937  0.75188063  0.75188063  1
  O  O2  1  0.75188063  0.24811937  0.75188063  1
  O  O3  1  0.24811937  0.75188063  0.24811937  1
  O  O4  1  0.75188063  0.75188063  0.24811937  1
  O  O5  1  0.24811937  0.24811937  0.75188063  1
loop_
_geom_bond_atom_site_label_1
_geom_bond_atom_site_label_2
_geom_bond_distance
_geom_bond_site_symmetry_2
K0 O3 2.936190 1_545
K0 O5 2.936190 1_554
K0 O0 2.936190 1_455
K0 O4 2.936190 1_455
K0 O1 2.936190 1_554
K0 O2 2.936190 1_455
K0 O2 2.936190 1_554
K0 O4 2.936190 1_545
K0 O1 2.936190 1_545
K0 O0 2.936190 1_555
K0 O5 2.936190 1_555
K0 O3 2.936190 1_555
Ce0 O0 2.936190 1_556
Ce0 O2 2.936190 1_565
Ce0 O1 2.936190 1_555
Ce0 O3 2.936190 1_655
Ce0 O4 2.936190 1_555
Ce0 O4 2.936190 1_556
Ce0 O0 2.936190 1_565
Ce0 O1 2.936190 1_655
Ce0 O5 2.936190 1_655
Ce0 O5 2.936190 1_565
Ce0 O2 2.936190 1_555
Ce0 O3 2.936190 1_556
Hf0 O2 2.060552 1_454
Hf0 O4 2.060552 1_445
Hf0 O1 2.060552 1_544
Hf0 O0 2.060552 1_455
Hf0 O3 2.060552 1_545
Hf0 O5 2.060552 1_554
O0 Zr0 2.091789 1_555
O1 Zr0 2.091789 1_555
O2 Zr0 2.091789 1_555
O3 Zr0 2.091789 1_555
O4 Zr0 2.091789 1_555
O5 Zr0 2.091789 1_555
