# generated using pymatgen
data_CeCoGe2
_symmetry_space_group_name_H-M   'P 1'
_cell_length_a   8.56152440
_cell_length_b   8.56152440
_cell_length_c   4.15637485
_cell_angle_alpha   90.00000000
_cell_angle_beta   90.00000000
_cell_angle_gamma   151.82404600
_symmetry_Int_Tables_number   1
_chemical_formula_structural   CeCoGe2
_chemical_formula_sum   'Ce2 Co2 Ge4'
_cell_volume   143.85510590
_cell_formula_units_Z   2
loop_
 _symmetry_equiv_pos_site_id
 _symmetry_equiv_pos_as_xyz
  1  'x, y, z'
loop_
 _atom_site_type_symbol
 _atom_site_label
 _atom_site_symmetry_multiplicity
 _atom_site_fract_x
 _atom_site_fract_y
 _atom_site_fract_z
 _atom_site_occupancy
  Ce  Ce0  1  0.88850619  0.11149381  0.25000000  1
  Ce  Ce1  1  0.11149381  0.88850619  0.75000000  1
  Co  Co0  1  0.68053712  0.31946288  0.25000000  1
  Co  Co1  1  0.31946288  0.68053712  0.75000000  1
  Ge  Ge0  1  0.54356555  0.45643445  0.25000000  1
  Ge  Ge1  1  0.45643445  0.54356555  0.75000000  1
  Ge  Ge2  1  0.24980090  0.75019910  0.25000000  1
  Ge  Ge3  1  0.75019910  0.24980090  0.75000000  1
loop_
_geom_bond_atom_site_label_1
_geom_bond_atom_site_label_2
_geom_bond_distance
_geom_bond_site_symmetry_2
Ce0 Ge3 3.097599 1_555
Ce0 Ge3 3.097599 1_554
Ce0 Ge2 3.106384 1_545
Ce0 Ge2 3.106384 1_655
Ce0 Ge1 3.151911 1_654
Ce0 Ge1 3.151911 1_655
Ce0 Ge1 3.151911 1_545
Ce0 Ge1 3.151911 1_544
Ce0 Co1 3.158587 1_655
Ce0 Co1 3.158587 1_654
Ce0 Co1 3.158587 1_544
Ce0 Co1 3.158587 1_545
Ce0 Ge0 3.312818 1_655
Ce0 Ge0 3.312818 1_545
Ce1 Ge2 3.097599 1_555
Ce1 Ge2 3.097599 1_556
Ce1 Ge3 3.106384 1_455
Ce1 Ge3 3.106384 1_565
Ce1 Ge0 3.151911 1_565
Ce1 Ge0 3.151911 1_455
Ce1 Ge0 3.151911 1_456
Ce1 Ge0 3.151911 1_566
Ce1 Co0 3.158587 1_566
Ce1 Co0 3.158587 1_565
Ce1 Co0 3.158587 1_456
Ce1 Co0 3.158587 1_455
Ce1 Ge1 3.312818 1_565
Ce1 Ge1 3.312818 1_455
Co0 Ge0 2.274829 1_555
Co0 Ge3 2.378528 1_555
Co0 Ge3 2.378528 1_554
Co0 Ge2 2.380382 1_655
Co0 Ge2 2.380382 1_545
Co1 Ge1 2.274829 1_555
Co1 Ge2 2.378528 1_555
Co1 Ge2 2.378528 1_556
Co1 Ge3 2.380382 1_565
Co1 Ge3 2.380382 1_455
Ge0 Ge1 2.532369 1_555
Ge0 Ge1 2.532369 1_554
