# generated using pymatgen
data_Sr5Al9
_symmetry_space_group_name_H-M   'P 1'
_cell_length_a   12.34623251
_cell_length_b   12.34623251
_cell_length_c   12.34623318
_cell_angle_alpha   27.42732790
_cell_angle_beta   27.42732790
_cell_angle_gamma   27.42732219
_symmetry_Int_Tables_number   1
_chemical_formula_structural   Sr5Al9
_chemical_formula_sum   'Sr5 Al9'
_cell_volume   352.39715778
_cell_formula_units_Z   1
loop_
 _symmetry_equiv_pos_site_id
 _symmetry_equiv_pos_as_xyz
  1  'x, y, z'
loop_
 _atom_site_type_symbol
 _atom_site_label
 _atom_site_symmetry_multiplicity
 _atom_site_fract_x
 _atom_site_fract_y
 _atom_site_fract_z
 _atom_site_occupancy
  Sr  Sr0  1  0.50000000  0.50000000  0.50000000  1
  Sr  Sr1  1  0.21695022  0.21695022  0.21695022  1
  Sr  Sr2  1  0.78304978  0.78304978  0.78304978  1
  Sr  Sr3  1  0.31693563  0.31693563  0.31693563  1
  Sr  Sr4  1  0.68306437  0.68306437  0.68306437  1
  Al  Al0  1  0.00000000  0.00000000  0.00000000  1
  Al  Al1  1  0.12396386  0.12396386  0.12396386  1
  Al  Al2  1  0.87603614  0.87603614  0.87603614  1
  Al  Al3  1  0.72601126  0.23573722  0.23573722  1
  Al  Al4  1  0.23573722  0.23573722  0.72601126  1
  Al  Al5  1  0.23573722  0.72601126  0.23573722  1
  Al  Al6  1  0.76426278  0.27398874  0.76426278  1
  Al  Al7  1  0.27398874  0.76426278  0.76426278  1
  Al  Al8  1  0.76426278  0.76426278  0.27398874  1
loop_
_geom_bond_atom_site_label_1
_geom_bond_atom_site_label_2
_geom_bond_distance
_geom_bond_site_symmetry_2
Al0 Al6 2.909837 1_454
Al0 Al7 2.909837 1_544
Al0 Al3 2.909837 1_455
Al0 Al5 2.909837 1_545
Al0 Al8 2.909837 1_445
Al0 Al4 2.909837 1_554
Al0 Sr4 3.429826 1_454
Al0 Sr3 3.429826 1_545
Al0 Sr4 3.429826 1_544
Al0 Sr3 3.429826 1_455
Al0 Sr4 3.429826 1_445
Al0 Sr3 3.429826 1_554
Al1 Al3 2.693856 1_455
Al1 Al5 2.693856 1_545
Al1 Al4 2.693856 1_554
Al1 Sr1 3.312538 1_555
Al1 Sr2 3.390487 1_454
Al1 Sr2 3.390487 1_544
Al1 Sr2 3.390488 1_445
Al1 Sr0 3.706298 1_545
Al1 Sr0 3.706298 1_455
Al1 Sr0 3.706299 1_554
Al2 Al6 2.693856 1_565
Al2 Al7 2.693856 1_655
Al2 Al8 2.693856 1_556
Al2 Sr2 3.312538 1_555
Al2 Sr1 3.390487 1_656
Al2 Sr1 3.390487 1_566
Al2 Sr1 3.390488 1_665
Al2 Sr0 3.706298 1_565
Al2 Sr0 3.706298 1_655
Al2 Sr0 3.706299 1_556
Al3 Al5 2.869985 1_555
Al3 Al4 2.869985 1_555
Al3 Al5 2.983853 1_645
Al3 Al4 2.983854 1_654
Al3 Sr3 3.365403 1_555
Al3 Sr4 3.415959 1_545
Al3 Sr4 3.415960 1_554
Al3 Sr2 3.436766 1_554
Al3 Sr2 3.436766 1_545
Al4 Al5 2.869985 1_555
Al4 Al5 2.983854 1_546
Al4 Sr3 3.365404 1_555
Al4 Sr4 3.415959 1_545
Al4 Sr4 3.415959 1_455
Al4 Sr2 3.436765 1_455
Al4 Sr2 3.436765 1_545
Al5 Sr3 3.365403 1_555
Al5 Sr4 3.415959 1_455
Al5 Sr4 3.415960 1_554
Al5 Sr2 3.436766 1_554
Al5 Sr2 3.436766 1_455
Al6 Al7 2.869985 1_555
Al6 Al8 2.869985 1_555
Al6 Al7 2.983853 1_645
Al6 Al8 2.983854 1_546
Al6 Sr4 3.365403 1_555
Al6 Sr3 3.415959 1_655
Al6 Sr3 3.415960 1_556
Al6 Sr1 3.436766 1_556
Al6 Sr1 3.436766 1_655
Al7 Al8 2.869985 1_555
Al7 Al8 2.983854 1_456
Al7 Sr4 3.365403 1_555
Al7 Sr3 3.415959 1_565
Al7 Sr3 3.415960 1_556
Al7 Sr1 3.436766 1_556
Al7 Sr1 3.436766 1_565
Al8 Sr4 3.365404 1_555
Al8 Sr3 3.415959 1_565
Al8 Sr3 3.415959 1_655
Al8 Sr1 3.436765 1_655
Al8 Sr1 3.436765 1_565
