# generated using pymatgen
data_GaCu4Ni15
_symmetry_space_group_name_H-M   'P 1'
_cell_length_a   3.54373800
_cell_length_b   3.54373800
_cell_length_c   17.67313000
_cell_angle_alpha   90.00000000
_cell_angle_beta   90.00000000
_cell_angle_gamma   90.00000000
_symmetry_Int_Tables_number   1
_chemical_formula_structural   GaCu4Ni15
_chemical_formula_sum   'Ga1 Cu4 Ni15'
_cell_volume   221.94056294
_cell_formula_units_Z   1
loop_
 _symmetry_equiv_pos_site_id
 _symmetry_equiv_pos_as_xyz
  1  'x, y, z'
loop_
 _atom_site_type_symbol
 _atom_site_label
 _atom_site_symmetry_multiplicity
 _atom_site_fract_x
 _atom_site_fract_y
 _atom_site_fract_z
 _atom_site_occupancy
  Ga  Ga0  1  0.00000000  0.00000000  0.00000000  1
  Cu  Cu0  1  0.00000000  0.00000000  0.20009900  1
  Cu  Cu1  1  0.00000000  0.00000000  0.40005300  1
  Cu  Cu2  1  0.00000000  0.00000000  0.59994700  1
  Cu  Cu3  1  0.00000000  0.00000000  0.79990100  1
  Ni  Ni0  1  0.50000000  0.50000000  0.00000000  1
  Ni  Ni1  1  0.50000000  0.50000000  0.20012300  1
  Ni  Ni2  1  0.50000000  0.50000000  0.40008600  1
  Ni  Ni3  1  0.50000000  0.50000000  0.59991400  1
  Ni  Ni4  1  0.50000000  0.50000000  0.79987700  1
  Ni  Ni5  1  0.50000000  0.00000000  0.10047700  1
  Ni  Ni6  1  0.50000000  0.00000000  0.30002400  1
  Ni  Ni7  1  0.50000000  0.00000000  0.50000000  1
  Ni  Ni8  1  0.50000000  0.00000000  0.69997600  1
  Ni  Ni9  1  0.50000000  0.00000000  0.89952300  1
  Ni  Ni10  1  0.00000000  0.50000000  0.10047700  1
  Ni  Ni11  1  0.00000000  0.50000000  0.30002400  1
  Ni  Ni12  1  0.00000000  0.50000000  0.50000000  1
  Ni  Ni13  1  0.00000000  0.50000000  0.69997600  1
  Ni  Ni14  1  0.00000000  0.50000000  0.89952300  1
loop_
_geom_bond_atom_site_label_1
_geom_bond_atom_site_label_2
_geom_bond_distance
_geom_bond_site_symmetry_2
Ga0 Ni0 2.505801 1_445
Ga0 Ni0 2.505801 1_555
Ga0 Ni0 2.505801 1_545
Ga0 Ni0 2.505801 1_455
Ga0 Ni10 2.508542 1_545
Ga0 Ni5 2.508542 1_555
Ga0 Ni5 2.508542 1_455
Ga0 Ni10 2.508542 1_555
Ga0 Ni14 2.508542 1_554
Ga0 Ni9 2.508542 1_454
Ga0 Ni14 2.508542 1_544
Ga0 Ni9 2.508542 1_554
Cu0 Ni5 2.497868 1_555
Cu0 Ni5 2.497868 1_455
Cu0 Ni10 2.497868 1_555
Cu0 Ni10 2.497868 1_545
Cu0 Ni11 2.501646 1_555
Cu0 Ni11 2.501646 1_545
Cu0 Ni6 2.501646 1_555
Cu0 Ni6 2.501646 1_455
Cu0 Ni1 2.505801 1_445
Cu0 Ni1 2.505801 1_455
Cu0 Ni1 2.505801 1_555
Cu0 Ni1 2.505801 1_545
Cu1 Ni12 2.501920 1_545
Cu1 Ni12 2.501920 1_555
Cu1 Ni7 2.501920 1_455
Cu1 Ni7 2.501920 1_555
Cu1 Ni6 2.502944 1_455
Cu1 Ni11 2.502944 1_555
Cu1 Ni11 2.502944 1_545
Cu1 Ni6 2.502944 1_555
Cu1 Ni2 2.505801 1_445
Cu1 Ni2 2.505801 1_545
Cu1 Ni2 2.505801 1_555
Cu1 Ni2 2.505801 1_455
Cu2 Ni12 2.501920 1_545
Cu2 Ni12 2.501920 1_555
Cu2 Ni7 2.501920 1_455
Cu2 Ni7 2.501920 1_555
Cu2 Ni8 2.502944 1_555
Cu2 Ni8 2.502944 1_455
Cu2 Ni13 2.502944 1_555
Cu2 Ni13 2.502944 1_545
Cu2 Ni3 2.505801 1_455
Cu2 Ni3 2.505801 1_545
Cu2 Ni3 2.505801 1_445
Cu2 Ni3 2.505801 1_555
Cu3 Ni14 2.497868 1_555
Cu3 Ni14 2.497868 1_545
Cu3 Ni9 2.497868 1_555
Cu3 Ni9 2.497868 1_455
Cu3 Ni13 2.501646 1_555
Cu3 Ni8 2.501646 1_455
Cu3 Ni8 2.501646 1_555
Cu3 Ni13 2.501646 1_545
Cu3 Ni4 2.505801 1_445
Cu3 Ni4 2.505801 1_455
Cu3 Ni4 2.505801 1_555
Cu3 Ni4 2.505801 1_545
Ni0 Ni5 2.508542 1_565
Ni0 Ni10 2.508542 1_655
Ni0 Ni5 2.508542 1_555
Ni0 Ni10 2.508542 1_555
Ni0 Ni14 2.508542 1_654
Ni0 Ni14 2.508542 1_554
Ni0 Ni9 2.508542 1_564
Ni0 Ni9 2.508542 1_554
Ni1 Ni10 2.498167 1_555
Ni1 Ni5 2.498167 1_565
Ni1 Ni10 2.498167 1_655
Ni1 Ni5 2.498167 1_555
Ni1 Ni11 2.501346 1_655
Ni1 Ni6 2.501346 1_555
Ni1 Ni11 2.501346 1_555
Ni1 Ni6 2.501346 1_565
Ni2 Ni7 2.501509 1_555
Ni2 Ni7 2.501509 1_565
Ni2 Ni6 2.503356 1_565
Ni2 Ni6 2.503356 1_555
Ni3 Ni7 2.501509 1_565
Ni3 Ni7 2.501509 1_555
Ni3 Ni8 2.503356 1_565
Ni3 Ni8 2.503356 1_555
Ni4 Ni9 2.498167 1_565
Ni4 Ni9 2.498167 1_555
Ni4 Ni8 2.501346 1_565
Ni4 Ni8 2.501346 1_555
Ni10 Ni5 2.505801 1_555
Ni10 Ni5 2.505801 1_465
Ni10 Ni5 2.505801 1_455
Ni10 Ni5 2.505801 1_565
Ni11 Ni2 2.503356 1_455
Ni11 Ni2 2.503356 1_555
Ni11 Ni6 2.505801 1_565
Ni11 Ni6 2.505801 1_555
Ni11 Ni6 2.505801 1_455
Ni11 Ni6 2.505801 1_465
Ni12 Ni3 2.501509 1_555
Ni12 Ni3 2.501509 1_455
Ni12 Ni2 2.501509 1_455
Ni12 Ni2 2.501509 1_555
Ni12 Ni7 2.505801 1_455
Ni12 Ni7 2.505801 1_555
Ni12 Ni7 2.505801 1_565
Ni12 Ni7 2.505801 1_465
Ni13 Ni4 2.501346 1_455
Ni13 Ni4 2.501346 1_555
Ni13 Ni3 2.503356 1_555
Ni13 Ni3 2.503356 1_455
Ni13 Ni8 2.505801 1_465
Ni13 Ni8 2.505801 1_455
Ni13 Ni8 2.505801 1_565
Ni13 Ni8 2.505801 1_555
Ni14 Ni4 2.498167 1_555
Ni14 Ni4 2.498167 1_455
Ni14 Ni9 2.505801 1_465
Ni14 Ni9 2.505801 1_555
Ni14 Ni9 2.505801 1_455
Ni14 Ni9 2.505801 1_565
