# generated using pymatgen
data_ErCoGe2
_symmetry_space_group_name_H-M   'P 1'
_cell_length_a   8.48479016
_cell_length_b   8.48479016
_cell_length_c   4.16261400
_cell_angle_alpha   90.00000000
_cell_angle_beta   90.00000000
_cell_angle_gamma   152.02649429
_symmetry_Int_Tables_number   1
_chemical_formula_structural   ErCoGe2
_chemical_formula_sum   'Er2 Co2 Ge4'
_cell_volume   140.56582297
_cell_formula_units_Z   2
loop_
 _symmetry_equiv_pos_site_id
 _symmetry_equiv_pos_as_xyz
  1  'x, y, z'
loop_
 _atom_site_type_symbol
 _atom_site_label
 _atom_site_symmetry_multiplicity
 _atom_site_fract_x
 _atom_site_fract_y
 _atom_site_fract_z
 _atom_site_occupancy
  Er  Er0  1  0.89164300  0.10835700  0.25000000  1
  Er  Er1  1  0.10835700  0.89164300  0.75000000  1
  Co  Co0  1  0.68114000  0.31886000  0.25000000  1
  Co  Co1  1  0.31886000  0.68114000  0.75000000  1
  Ge  Ge0  1  0.54461000  0.45539000  0.25000000  1
  Ge  Ge1  1  0.45539000  0.54461000  0.75000000  1
  Ge  Ge2  1  0.25141700  0.74858300  0.25000000  1
  Ge  Ge3  1  0.74858300  0.25141700  0.75000000  1
loop_
_geom_bond_atom_site_label_1
_geom_bond_atom_site_label_2
_geom_bond_distance
_geom_bond_site_symmetry_2
Er0 Ge2 3.088234 1_655
Er0 Ge2 3.088234 1_545
Er0 Ge1 3.104717 1_544
Er0 Ge1 3.104717 1_545
Er0 Ge1 3.104717 1_654
Er0 Ge1 3.104717 1_655
Er0 Ge3 3.143425 1_554
Er0 Ge3 3.143425 1_555
Er0 Ge0 3.248087 1_655
Er0 Ge0 3.248087 1_545
Er1 Ge3 3.088234 1_455
Er1 Ge3 3.088234 1_565
Er1 Ge0 3.104717 1_455
Er1 Ge0 3.104717 1_456
Er1 Ge0 3.104717 1_566
Er1 Ge0 3.104717 1_565
Er1 Ge2 3.143425 1_555
Er1 Ge2 3.143425 1_556
Er1 Ge1 3.248087 1_565
Er1 Ge1 3.248087 1_455
Co0 Ge0 2.248166 1_555
Co0 Ge2 2.354725 1_655
Co0 Ge2 2.354725 1_545
Co0 Ge3 2.359058 1_554
Co0 Ge3 2.359058 1_555
Co0 Er1 3.158129 1_655
Co0 Er1 3.158129 1_654
Co0 Er1 3.158129 1_544
Co0 Er1 3.158129 1_545
Co1 Ge1 2.248166 1_555
Co1 Ge3 2.354725 1_565
Co1 Ge3 2.354725 1_455
Co1 Ge2 2.359058 1_555
Co1 Ge2 2.359058 1_556
Co1 Er0 3.158129 1_566
Co1 Er0 3.158129 1_565
Co1 Er0 3.158129 1_455
Co1 Er0 3.158129 1_456
Ge0 Ge1 2.547588 1_554
Ge0 Ge1 2.547588 1_555
