# generated using pymatgen
data_Mg4TiN4
_symmetry_space_group_name_H-M   'P 1'
_cell_length_a   5.46453793
_cell_length_b   5.48269110
_cell_length_c   8.28754787
_cell_angle_alpha   70.64930120
_cell_angle_beta   82.72969854
_cell_angle_gamma   68.92969891
_symmetry_Int_Tables_number   1
_chemical_formula_structural   Mg4TiN4
_chemical_formula_sum   'Mg8 Ti2 N8'
_cell_volume   218.60006103
_cell_formula_units_Z   2
loop_
 _symmetry_equiv_pos_site_id
 _symmetry_equiv_pos_as_xyz
  1  'x, y, z'
loop_
 _atom_site_type_symbol
 _atom_site_label
 _atom_site_symmetry_multiplicity
 _atom_site_fract_x
 _atom_site_fract_y
 _atom_site_fract_z
 _atom_site_occupancy
  Mg  Mg0  1  0.72727000  0.61982100  0.20393000  1
  Mg  Mg1  1  0.27273000  0.38017900  0.79607000  1
  Mg  Mg2  1  0.75463400  0.24298400  0.99719200  1
  Mg  Mg3  1  0.24536600  0.75701600  0.00280800  1
  Mg  Mg4  1  0.73685600  0.47999600  0.57448800  1
  Mg  Mg5  1  0.26314400  0.52000400  0.42551200  1
  Mg  Mg6  1  0.25788500  0.93425900  0.58700900  1
  Mg  Mg7  1  0.74211500  0.06574100  0.41299100  1
  Ti  Ti0  1  0.72221900  0.83741300  0.76960200  1
  Ti  Ti1  1  0.27778100  0.16258700  0.23039800  1
  N  N0  1  0.99290500  0.70028900  0.60826900  1
  N  N1  1  0.00709500  0.29971100  0.39173100  1
  N  N2  1  0.84050200  0.84643900  0.97288600  1
  N  N3  1  0.15949800  0.15356100  0.02711400  1
  N  N4  1  0.50611500  0.61078600  0.80419700  1
  N  N5  1  0.49388500  0.38921400  0.19580300  1
  N  N6  1  0.48991900  0.81164900  0.37900000  1
  N  N7  1  0.51008100  0.18835100  0.62100000  1
loop_
_geom_bond_atom_site_label_1
_geom_bond_atom_site_label_2
_geom_bond_distance
_geom_bond_site_symmetry_2
Mg0 N2 2.066234 1_554
Mg0 N6 2.108940 1_555
Mg0 N5 2.113573 1_555
Mg0 N1 2.168719 1_655
Mg1 N3 2.066234 1_556
Mg1 N7 2.108940 1_555
Mg1 N4 2.113573 1_555
Mg1 N0 2.168719 1_455
Mg2 N3 2.115402 1_656
Mg2 N2 2.126121 1_545
Mg2 N5 2.200428 1_556
Mg2 N4 2.216351 1_555
Mg3 N2 2.115402 1_454
Mg3 N3 2.126121 1_565
Mg3 N4 2.200428 1_554
Mg3 N5 2.216351 1_555
Mg4 N6 2.142158 1_555
Mg4 N1 2.197336 1_655
Mg4 N0 2.243485 1_555
Mg4 N7 2.266373 1_555
Mg4 N4 2.318454 1_555
Mg5 N7 2.142158 1_555
Mg5 N0 2.197336 1_455
Mg5 N1 2.243485 1_555
Mg5 N6 2.266373 1_555
Mg5 N5 2.318454 1_555
Mg6 N6 2.152501 1_555
Mg6 N0 2.212347 1_455
Mg6 N1 2.224855 1_565
Mg6 N4 2.235591 1_555
Mg6 N7 2.378685 1_565
Mg7 N7 2.152501 1_555
Mg7 N1 2.212347 1_655
Mg7 N0 2.224855 1_545
Mg7 N5 2.235591 1_555
Mg7 N6 2.378685 1_545
N0 Ti0 1.976581 1_555
N1 Ti1 1.976581 1_555
N2 Ti0 1.900630 1_555
N3 Ti1 1.900630 1_555
N4 Ti0 1.937492 1_555
N5 Ti1 1.937492 1_555
N6 Ti1 1.936461 1_565
N7 Ti0 1.936461 1_545
