# generated using pymatgen
data_Ca4Tl2CO9
_symmetry_space_group_name_H-M   'P 1'
_cell_length_a   9.86968359
_cell_length_b   9.86968359
_cell_length_c   9.86968359
_cell_angle_alpha   151.66833553
_cell_angle_beta   151.21048255
_cell_angle_gamma   40.83375076
_symmetry_Int_Tables_number   1
_chemical_formula_structural   Ca4Tl2CO9
_chemical_formula_sum   'Ca4 Tl2 C1 O9'
_cell_volume   219.27118232
_cell_formula_units_Z   1
loop_
 _symmetry_equiv_pos_site_id
 _symmetry_equiv_pos_as_xyz
  1  'x, y, z'
loop_
 _atom_site_type_symbol
 _atom_site_label
 _atom_site_symmetry_multiplicity
 _atom_site_fract_x
 _atom_site_fract_y
 _atom_site_fract_z
 _atom_site_occupancy
  Ca  Ca0  1  0.60797400  0.10156800  0.49359400  1
  Ca  Ca1  1  0.11104700  0.58764800  0.47660100  1
  Ca  Ca2  1  0.39202600  0.88561900  0.49359400  1
  Ca  Ca3  1  0.88895300  0.36555500  0.47660100  1
  Tl  Tl0  1  0.25371500  0.24542400  0.99170900  1
  Tl  Tl1  1  0.74628500  0.73799400  0.99170900  1
  C  C0  1  0.00000000  0.97436400  0.97436400  1
  O  O0  1  0.62901200  0.62145200  0.99244000  1
  O  O1  1  0.37098800  0.36342800  0.99244000  1
  O  O2  1  0.13807300  0.12398000  0.98590700  1
  O  O3  1  0.86192700  0.84783500  0.98590700  1
  O  O4  1  0.74994600  0.24104200  0.49109600  1
  O  O5  1  0.25005400  0.74114900  0.49109600  1
  O  O6  1  0.77210600  0.10921500  0.88132100  1
  O  O7  1  0.22789400  0.10921500  0.33710900  1
  O  O8  1  0.00000000  0.70451100  0.70451100  1
loop_
_geom_bond_atom_site_label_1
_geom_bond_atom_site_label_2
_geom_bond_distance
_geom_bond_site_symmetry_2
Ca0 O0 2.441050 1_555
Ca0 O0 2.452058 1_544
Ca0 O6 2.466729 1_555
Ca0 O7 2.466729 1_555
Ca0 O2 2.516277 1_655
Ca0 O2 2.516277 1_554
Ca0 O4 2.626414 1_555
Ca1 O8 2.330730 1_555
Ca1 O2 2.422596 1_554
Ca1 O0 2.477203 1_454
Ca1 O0 2.477203 1_555
Ca1 O2 2.510640 1_565
Ca1 O5 2.572480 1_555
Ca1 O6 2.936084 1_454
Ca1 O7 2.936084 1_555
Ca2 O1 2.441051 1_565
Ca2 O1 2.452054 1_554
Ca2 O6 2.466736 1_565
Ca2 O7 2.466738 1_565
Ca2 O3 2.516268 1_555
Ca2 O3 2.516277 1_454
Ca2 O5 2.626414 1_555
Ca3 O8 2.330720 1_655
Ca3 O3 2.422596 1_544
Ca3 O1 2.477202 1_554
Ca3 O1 2.477207 1_655
Ca3 O3 2.510640 1_555
Ca3 O4 2.572498 1_555
Ca3 O6 2.936078 1_554
Ca3 O7 2.936080 1_655
C0 O6 1.294230 1_465
C0 O7 1.294230 1_566
C0 O8 1.303606 1_555
O0 Tl1 2.169474 1_555
O1 Tl0 2.169474 1_555
O2 Tl0 2.139483 1_555
O3 Tl1 2.139492 1_555
O4 Tl1 2.413389 1_544
O4 Tl1 2.419309 1_555
O4 Tl0 2.454608 1_655
O4 Tl0 2.454608 1_554
O5 Tl0 2.413387 1_554
O5 Tl0 2.419312 1_565
O5 Tl1 2.454606 1_555
O5 Tl1 2.454610 1_454
