# generated using pymatgen
data_Li7Mn4CoO12
_symmetry_space_group_name_H-M   'P 1'
_cell_length_a   2.86508500
_cell_length_b   14.83180765
_cell_length_c   5.30591785
_cell_angle_alpha   98.43869055
_cell_angle_beta   90.00000000
_cell_angle_gamma   84.45739691
_symmetry_Int_Tables_number   1
_chemical_formula_structural   Li7Mn4CoO12
_chemical_formula_sum   'Li7 Mn4 Co1 O12'
_cell_volume   221.96491073
_cell_formula_units_Z   1
loop_
 _symmetry_equiv_pos_site_id
 _symmetry_equiv_pos_as_xyz
  1  'x, y, z'
loop_
 _atom_site_type_symbol
 _atom_site_label
 _atom_site_symmetry_multiplicity
 _atom_site_fract_x
 _atom_site_fract_y
 _atom_site_fract_z
 _atom_site_occupancy
  Li  Li0  1  0.42076900  0.15846400  0.23455300  1
  Li  Li1  1  0.25013500  0.49973000  0.75194700  1
  Li  Li2  1  0.07685200  0.84629400  0.27038400  1
  Li  Li3  1  0.92243700  0.15512600  0.73085300  1
  Li  Li4  1  0.74918800  0.50162300  0.25270600  1
  Li  Li5  1  0.57979700  0.84040500  0.76545500  1
  Li  Li6  1  0.50006800  0.99986300  0.50002000  1
  Mn  Mn0  1  0.00038800  0.99922500  0.99896800  1
  Mn  Mn1  1  0.83415100  0.33169800  0.49589000  1
  Mn  Mn2  1  0.66637100  0.66725800  0.00369500  1
  Mn  Mn3  1  0.33329400  0.33341000  0.99595200  1
  Co  Co0  1  0.16583500  0.66833200  0.50463900  1
  O  O0  1  0.46271700  0.07456800  0.88412900  1
  O  O1  1  0.29425800  0.41148300  0.39648100  1
  O  O2  1  0.12924300  0.74151400  0.89201300  1
  O  O3  1  0.96270000  0.07460100  0.32947100  1
  O  O4  1  0.79401600  0.41196900  0.89280100  1
  O  O5  1  0.62991500  0.74016800  0.38695600  1
  O  O6  1  0.37226900  0.25546300  0.60430200  1
  O  O7  1  0.20508400  0.58983200  0.11071900  1
  O  O8  1  0.03821500  0.92356800  0.66671300  1
  O  O9  1  0.87094700  0.25810700  0.10331900  1
  O  O10  1  0.70321300  0.59357400  0.61316100  1
  O  O11  1  0.53813700  0.92372500  0.11487600  1
loop_
_geom_bond_atom_site_label_1
_geom_bond_atom_site_label_2
_geom_bond_distance
_geom_bond_site_symmetry_2
Li0 O3 2.005587 1_555
Li0 O3 2.005589 1_455
Li0 O0 2.076520 1_554
Li0 O9 2.236703 1_555
Li0 O9 2.236704 1_455
Li0 O6 2.251877 1_555
Li1 O1 2.128349 1_555
Li1 O4 2.138864 1_455
Li1 O4 2.138866 1_555
Li1 O7 2.155536 1_556
Li1 O10 2.194201 1_455
Li1 O10 2.194201 1_555
Li2 O11 2.077912 1_455
Li2 O11 2.077914 1_555
Li2 O8 2.239661 1_555
Li2 O5 2.274859 1_555
Li2 O5 2.274859 1_455
Li2 O2 2.346782 1_554
Li3 O0 2.100727 1_555
Li3 O0 2.100731 1_655
Li3 O6 2.233909 1_555
Li3 O6 2.233911 1_655
Li3 O3 2.280833 1_555
Li3 O9 2.308870 1_556
Li4 O7 2.145858 1_555
Li4 O7 2.145860 1_655
Li4 O4 2.157099 1_554
Li4 O1 2.168918 1_655
Li4 O1 2.168918 1_555
Li4 O10 2.175977 1_555
Li5 O8 2.005881 1_655
Li5 O8 2.005883 1_555
Li5 O11 2.068279 1_556
Li5 O2 2.218875 1_555
Li5 O2 2.218877 1_655
Li5 O5 2.312259 1_555
Li6 O3 2.093506 1_465
Li6 O3 2.093510 1_565
Li6 O8 2.096843 1_655
Li6 O8 2.096845 1_555
Li6 O0 2.169586 1_565
Li6 O11 2.182222 1_555
Mn0 O3 1.933381 1_466
Mn0 O8 1.942858 1_555
Mn0 O0 1.964789 1_465
Mn0 O0 1.964791 1_565
Mn0 O11 1.968446 1_556
Mn0 O11 1.968450 1_456
Mn1 O6 1.959724 1_555
Mn1 O6 1.959726 1_655
Mn1 O1 1.975056 1_655
Mn1 O1 1.975058 1_555
Mn1 O9 2.202641 1_555
Mn1 O4 2.259084 1_555
Mn2 O2 1.948469 1_554
Mn2 O2 1.948469 1_654
Mn2 O7 1.967863 1_655
Mn2 O7 1.967863 1_555
Mn2 O5 2.156013 1_555
Mn2 O10 2.193702 1_554
Mn3 O9 1.949161 1_456
Mn3 O9 1.949168 1_556
Mn3 O4 1.970747 1_455
Mn3 O4 1.970754 1_555
Mn3 O6 2.222006 1_555
Mn3 O1 2.263286 1_556
Co0 O5 1.939570 1_555
Co0 O5 1.939578 1_455
Co0 O10 1.946554 1_555
Co0 O10 1.946558 1_455
Co0 O2 2.176448 1_555
Co0 O7 2.235453 1_555
