# generated using pymatgen
data_MgSi
_symmetry_space_group_name_H-M   'P 1'
_cell_length_a   2.94927400
_cell_length_b   5.03692449
_cell_length_c   14.41445099
_cell_angle_alpha   87.50093501
_cell_angle_beta   85.51005874
_cell_angle_gamma   89.79738538
_symmetry_Int_Tables_number   1
_chemical_formula_structural   MgSi
_chemical_formula_sum   'Mg6 Si6'
_cell_volume   213.27039188
_cell_formula_units_Z   6
loop_
 _symmetry_equiv_pos_site_id
 _symmetry_equiv_pos_as_xyz
  1  'x, y, z'
loop_
 _atom_site_type_symbol
 _atom_site_label
 _atom_site_symmetry_multiplicity
 _atom_site_fract_x
 _atom_site_fract_y
 _atom_site_fract_z
 _atom_site_occupancy
  Mg  Mg0  1  0.20018500  0.07415200  0.59501600  1
  Mg  Mg1  1  0.03688200  0.78229600  0.92745600  1
  Mg  Mg2  1  0.87006800  0.48704200  0.25998100  1
  Mg  Mg3  1  0.12993200  0.51295800  0.74001900  1
  Mg  Mg4  1  0.96311800  0.21770400  0.07254400  1
  Mg  Mg5  1  0.79981500  0.92584800  0.40498400  1
  Si  Si0  1  0.70032000  0.59041900  0.56761200  1
  Si  Si1  1  0.55440700  0.29075600  0.90083300  1
  Si  Si2  1  0.37870500  0.99471200  0.23179800  1
  Si  Si3  1  0.62129500  0.00528800  0.76820200  1
  Si  Si4  1  0.44559300  0.70924400  0.09916700  1
  Si  Si5  1  0.29968000  0.40958100  0.43238800  1
loop_
_geom_bond_atom_site_label_1
_geom_bond_atom_site_label_2
_geom_bond_distance
_geom_bond_site_symmetry_2
Mg0 Si5 2.826001 1_555
Mg0 Si0 2.869793 1_545
Mg0 Si3 2.881248 1_555
Mg0 Si0 2.909741 1_445
Mg0 Si3 2.920358 1_455
Mg0 Si0 2.990010 1_555
Mg0 Si0 3.010975 1_455
Mg1 Si4 2.845903 1_556
Mg1 Si3 2.870433 1_465
Mg1 Si1 2.914646 1_455
Mg1 Si4 2.924385 1_456
Mg1 Si1 2.927659 1_555
Mg1 Si3 2.944706 1_565
Mg1 Si1 2.950453 1_465
Mg1 Si1 2.980984 1_565
Mg2 Si5 2.887656 1_655
Mg2 Si4 2.900243 1_555
Mg2 Si5 2.902352 1_555
Mg2 Si2 2.920795 1_645
Mg2 Si2 2.936001 1_545
Mg2 Si4 2.945884 1_655
Mg2 Si2 2.962975 1_555
Mg2 Si2 2.965675 1_655
Mg3 Si0 2.887656 1_455
Mg3 Si1 2.900243 1_555
Mg3 Si0 2.902352 1_555
Mg3 Si3 2.920795 1_465
Mg3 Si3 2.936001 1_565
Mg3 Si1 2.945884 1_455
Mg3 Si3 2.962975 1_555
Mg3 Si3 2.965675 1_455
Mg4 Si1 2.845903 1_554
Mg4 Si2 2.870433 1_645
Mg4 Si4 2.914646 1_655
Mg4 Si1 2.924385 1_654
Mg4 Si4 2.927659 1_555
Mg4 Si2 2.944706 1_545
Mg4 Si4 2.950453 1_645
Mg4 Si4 2.980984 1_545
Mg5 Si0 2.826001 1_555
Mg5 Si5 2.869793 1_565
Mg5 Si2 2.881248 1_555
Mg5 Si5 2.909741 1_665
Mg5 Si2 2.920358 1_655
Mg5 Si5 2.990010 1_555
Mg5 Si5 3.010975 1_655
Si0 Si5 2.558944 1_555
Si0 Si5 2.712498 1_655
Si1 Si3 2.437228 1_555
Si2 Si4 2.437228 1_555
