# generated using pymatgen
data_Na3Np(H3O4)2
_symmetry_space_group_name_H-M   'P 1'
_cell_length_a   6.91180566
_cell_length_b   7.96584042
_cell_length_c   7.81441500
_cell_angle_alpha   90.00000000
_cell_angle_beta   90.00000000
_cell_angle_gamma   112.32965136
_symmetry_Int_Tables_number   1
_chemical_formula_structural   Na3Np(H3O4)2
_chemical_formula_sum   'Na6 Np2 H12 O16'
_cell_volume   397.98575889
_cell_formula_units_Z   2
loop_
 _symmetry_equiv_pos_site_id
 _symmetry_equiv_pos_as_xyz
  1  'x, y, z'
loop_
 _atom_site_type_symbol
 _atom_site_label
 _atom_site_symmetry_multiplicity
 _atom_site_fract_x
 _atom_site_fract_y
 _atom_site_fract_z
 _atom_site_occupancy
  Na  Na0  1  0.50000000  0.50000000  0.00000000  1
  Na  Na1  1  0.00000000  0.50000000  0.50000000  1
  Na  Na2  1  0.40260000  0.85046600  0.17730100  1
  Na  Na3  1  0.09740000  0.14953400  0.67730100  1
  Na  Na4  1  0.59740000  0.14953400  0.82269900  1
  Na  Na5  1  0.90260000  0.85046600  0.32269900  1
  Np  Np0  1  0.00000000  0.50000000  0.00000000  1
  Np  Np1  1  0.50000000  0.50000000  0.50000000  1
  H  H0  1  0.84455900  0.71376500  0.78934800  1
  H  H1  1  0.65544100  0.28623500  0.28934800  1
  H  H2  1  0.15544100  0.28623500  0.21065200  1
  H  H3  1  0.34455900  0.71376500  0.71065200  1
  H  H4  1  0.79272600  0.87889400  0.00016200  1
  H  H5  1  0.70727400  0.12110600  0.50016200  1
  H  H6  1  0.20727400  0.12110600  0.99983800  1
  H  H7  1  0.29272600  0.87889400  0.49983800  1
  H  H8  1  0.87346700  0.08474900  0.07201300  1
  H  H9  1  0.62653300  0.91525100  0.57201300  1
  H  H10  1  0.12653300  0.91525100  0.92798700  1
  H  H11  1  0.37346700  0.08474900  0.42798700  1
  O  O0  1  0.27996500  0.65368800  0.93470200  1
  O  O1  1  0.22003500  0.34631200  0.43470200  1
  O  O2  1  0.72003500  0.34631200  0.06529800  1
  O  O3  1  0.77996500  0.65368800  0.56529800  1
  O  O4  1  0.95487000  0.38233900  0.78275900  1
  O  O5  1  0.54513000  0.61766100  0.28275900  1
  O  O6  1  0.04513000  0.61766100  0.21724100  1
  O  O7  1  0.45487000  0.38233900  0.71724100  1
  O  O8  1  0.87839900  0.72803300  0.91367800  1
  O  O9  1  0.62160100  0.27196700  0.41367800  1
  O  O10  1  0.12160100  0.27196700  0.08632200  1
  O  O11  1  0.37839900  0.72803300  0.58632200  1
  O  O12  1  0.74753800  0.96870300  0.06339800  1
  O  O13  1  0.75246200  0.03129700  0.56339800  1
  O  O14  1  0.25246200  0.03129700  0.93660200  1
  O  O15  1  0.24753800  0.96870300  0.43660200  1
loop_
_geom_bond_atom_site_label_1
_geom_bond_atom_site_label_2
_geom_bond_distance
_geom_bond_site_symmetry_2
Na0 O2 2.342417 1_555
Na0 O0 2.342417 1_554
Na0 O5 2.374012 1_555
Na0 O7 2.374012 1_554
Na0 O10 2.642916 1_555
Na0 O8 2.642916 1_554
Na1 O1 2.342417 1_555
Na1 O3 2.342417 1_455
Na1 O6 2.374012 1_555
Na1 O4 2.374012 1_455
Na1 O11 2.642916 1_555
Na1 O9 2.642916 1_455
Na2 O12 2.378484 1_555
Na2 O0 2.399973 1_554
Na2 O6 2.481830 1_555
Na2 O5 2.544991 1_555
Na3 O13 2.378484 1_455
Na3 O1 2.399973 1_555
Na3 O7 2.481830 1_555
Na3 O4 2.544991 1_455
Na4 O14 2.378484 1_555
Na4 O2 2.399973 1_556
Na4 O4 2.481830 1_555
Na4 O7 2.544991 1_555
Na5 O15 2.378484 1_655
Na5 O3 2.399973 1_555
Na5 O5 2.481830 1_555
Na5 O6 2.544991 1_655
Np0 O6 1.906699 1_555
Np0 O4 1.906699 1_454
Np0 O2 1.924448 1_455
Np0 O0 1.924448 1_554
Np0 O10 2.370890 1_555
Np0 O8 2.370890 1_454
Np1 O5 1.906699 1_555
Np1 O7 1.906699 1_555
Np1 O1 1.924448 1_555
Np1 O3 1.924448 1_555
Np1 O9 2.370890 1_555
Np1 O11 2.370890 1_555
H0 O8 0.995673 1_555
H1 O9 0.995673 1_555
H2 O10 0.995673 1_555
H3 O11 0.995673 1_555
H4 O12 1.011596 1_555
H5 O13 1.011596 1_555
H6 O14 1.011596 1_555
H7 O15 1.011596 1_555
H8 O12 1.002624 1_545
H9 O13 1.002624 1_565
H10 O14 1.002624 1_565
H11 O15 1.002624 1_545
