# generated using pymatgen
data_Pu2Si4Mo3
_symmetry_space_group_name_H-M   'P 1'
_cell_length_a   6.82034000
_cell_length_b   6.74654100
_cell_length_c   6.79653977
_cell_angle_alpha   69.87838919
_cell_angle_beta   90.00000000
_cell_angle_gamma   90.00000000
_symmetry_Int_Tables_number   1
_chemical_formula_structural   Pu2Si4Mo3
_chemical_formula_sum   'Pu4 Si8 Mo6'
_cell_volume   293.64611141
_cell_formula_units_Z   2
loop_
 _symmetry_equiv_pos_site_id
 _symmetry_equiv_pos_as_xyz
  1  'x, y, z'
loop_
 _atom_site_type_symbol
 _atom_site_label
 _atom_site_symmetry_multiplicity
 _atom_site_fract_x
 _atom_site_fract_y
 _atom_site_fract_z
 _atom_site_occupancy
  Pu  Pu0  1  0.65497700  0.94617700  0.67592700  1
  Pu  Pu1  1  0.15497700  0.55382300  0.32407300  1
  Pu  Pu2  1  0.34502300  0.05382300  0.32407300  1
  Pu  Pu3  1  0.84502300  0.44617700  0.67592700  1
  Si  Si0  1  0.63269000  0.13471500  0.99454400  1
  Si  Si1  1  0.13269000  0.36528500  0.00545600  1
  Si  Si2  1  0.36731000  0.86528500  0.00545600  1
  Si  Si3  1  0.86731000  0.63471500  0.99454400  1
  Si  Si4  1  0.54181900  0.37057100  0.41297000  1
  Si  Si5  1  0.04181900  0.12942900  0.58703000  1
  Si  Si6  1  0.45818100  0.62942900  0.58703000  1
  Si  Si7  1  0.95818100  0.87057100  0.41297000  1
  Mo  Mo0  1  0.50000000  0.50000000  0.00000000  1
  Mo  Mo1  1  0.00000000  0.00000000  0.00000000  1
  Mo  Mo2  1  0.66682800  0.75257900  0.25092200  1
  Mo  Mo3  1  0.16682800  0.74742100  0.74907800  1
  Mo  Mo4  1  0.33317200  0.24742100  0.74907800  1
  Mo  Mo5  1  0.83317200  0.25257900  0.25092200  1
loop_
_geom_bond_atom_site_label_1
_geom_bond_atom_site_label_2
_geom_bond_distance
_geom_bond_site_symmetry_2
Pu0 Si6 2.760705 1_555
Pu0 Si3 2.840997 1_555
Pu0 Si0 2.868021 1_565
Pu0 Si2 2.884845 1_556
Pu0 Si5 2.888029 1_665
Pu0 Si7 2.891004 1_555
Pu0 Si4 2.909790 1_565
Pu1 Si7 2.760705 1_455
Pu1 Si2 2.840997 1_555
Pu1 Si1 2.868021 1_555
Pu1 Si3 2.884845 1_454
Pu1 Si4 2.888029 1_555
Pu1 Si6 2.891004 1_555
Pu1 Si5 2.909790 1_555
Pu2 Si4 2.760705 1_555
Pu2 Si1 2.840997 1_555
Pu2 Si2 2.868021 1_545
Pu2 Si0 2.884845 1_554
Pu2 Si7 2.888029 1_445
Pu2 Si5 2.891004 1_555
Pu2 Si6 2.909790 1_545
Pu3 Si5 2.760705 1_655
Pu3 Si0 2.840997 1_555
Pu3 Si3 2.868021 1_555
Pu3 Si1 2.884845 1_656
Pu3 Si6 2.888029 1_555
Pu3 Si4 2.891004 1_555
Pu3 Si7 2.909790 1_555
Si0 Si2 2.548115 1_546
Si1 Si3 2.548115 1_454
Si4 Si6 2.489230 1_555
Si5 Si7 2.489230 1_445
Mo0 Si0 2.637532 1_554
Mo0 Si2 2.637532 1_555
Mo0 Si6 2.652452 1_554
Mo0 Si4 2.652452 1_555
Mo0 Si1 2.660853 1_555
Mo0 Si3 2.660853 1_554
Mo1 Si1 2.637532 1_555
Mo1 Si3 2.637532 1_444
Mo1 Si5 2.652452 1_554
Mo1 Si7 2.652452 1_445
Mo1 Si0 2.660853 1_454
Mo1 Si2 2.660853 1_545
Mo2 Si7 2.529539 1_555
Mo2 Si3 2.547848 1_554
Mo2 Si6 2.574463 1_555
Mo2 Si4 2.574707 1_555
Mo2 Si0 2.578026 1_564
Mo2 Si2 2.581038 1_555
Mo3 Si6 2.529539 1_555
Mo3 Si2 2.547848 1_556
Mo3 Si7 2.574463 1_455
Mo3 Si5 2.574707 1_565
Mo3 Si1 2.578026 1_556
Mo3 Si3 2.581038 1_455
Mo4 Si5 2.529539 1_555
Mo4 Si1 2.547848 1_556
Mo4 Si4 2.574463 1_555
Mo4 Si6 2.574707 1_555
Mo4 Si2 2.578026 1_546
Mo4 Si0 2.581038 1_555
Mo5 Si4 2.529539 1_555
Mo5 Si0 2.547848 1_554
Mo5 Si5 2.574463 1_655
Mo5 Si7 2.574707 1_545
Mo5 Si3 2.578026 1_554
Mo5 Si1 2.581038 1_655
