# generated using pymatgen
data_RbLiMg30O31
_symmetry_space_group_name_H-M   'P 1'
_cell_length_a   8.47872800
_cell_length_b   8.62642100
_cell_length_c   8.65935300
_cell_angle_alpha   90.00000000
_cell_angle_beta   90.00000000
_cell_angle_gamma   90.00000000
_symmetry_Int_Tables_number   1
_chemical_formula_structural   RbLiMg30O31
_chemical_formula_sum   'Rb1 Li1 Mg30 O31'
_cell_volume   633.35440690
_cell_formula_units_Z   1
loop_
 _symmetry_equiv_pos_site_id
 _symmetry_equiv_pos_as_xyz
  1  'x, y, z'
loop_
 _atom_site_type_symbol
 _atom_site_label
 _atom_site_symmetry_multiplicity
 _atom_site_fract_x
 _atom_site_fract_y
 _atom_site_fract_z
 _atom_site_occupancy
  Rb  Rb0  1  0.90822000  0.50000000  0.00000000  1
  Li  Li0  1  0.01329800  0.00000000  0.00000000  1
  Mg  Mg0  1  0.00410900  0.00000000  0.50000000  1
  Mg  Mg1  1  0.00972100  0.50000000  0.50000000  1
  Mg  Mg2  1  0.49728100  0.00000000  0.00000000  1
  Mg  Mg3  1  0.47800200  0.50000000  0.00000000  1
  Mg  Mg4  1  0.49928000  0.00000000  0.50000000  1
  Mg  Mg5  1  0.49565200  0.50000000  0.50000000  1
  Mg  Mg6  1  0.00396000  0.75639300  0.75125500  1
  Mg  Mg7  1  0.00396000  0.24360700  0.75125500  1
  Mg  Mg8  1  0.00396000  0.75639300  0.24874500  1
  Mg  Mg9  1  0.00396000  0.24360700  0.24874500  1
  Mg  Mg10  1  0.50150300  0.74896200  0.75289300  1
  Mg  Mg11  1  0.50150300  0.25103800  0.75289300  1
  Mg  Mg12  1  0.50150300  0.74896200  0.24710700  1
  Mg  Mg13  1  0.50150300  0.25103800  0.24710700  1
  Mg  Mg14  1  0.75674300  0.78239000  0.00000000  1
  Mg  Mg15  1  0.75674300  0.21761000  0.00000000  1
  Mg  Mg16  1  0.75301300  0.75441100  0.50000000  1
  Mg  Mg17  1  0.75301300  0.24558900  0.50000000  1
  Mg  Mg18  1  0.23940600  0.75184500  0.00000000  1
  Mg  Mg19  1  0.23940600  0.24815500  0.00000000  1
  Mg  Mg20  1  0.25192200  0.75116200  0.50000000  1
  Mg  Mg21  1  0.25192200  0.24883800  0.50000000  1
  Mg  Mg22  1  0.75439800  0.00000000  0.74916000  1
  Mg  Mg23  1  0.75161700  0.50000000  0.72075300  1
  Mg  Mg24  1  0.75439800  0.00000000  0.25084000  1
  Mg  Mg25  1  0.75161700  0.50000000  0.27924700  1
  Mg  Mg26  1  0.24923900  0.00000000  0.75372700  1
  Mg  Mg27  1  0.24212500  0.50000000  0.75473700  1
  Mg  Mg28  1  0.24923900  0.00000000  0.24627300  1
  Mg  Mg29  1  0.24212500  0.50000000  0.24526300  1
  O  O0  1  0.73561300  0.00000000  0.00000000  1
  O  O1  1  0.74778900  0.00000000  0.50000000  1
  O  O2  1  0.74419200  0.50000000  0.50000000  1
  O  O3  1  0.26203000  0.00000000  0.00000000  1
  O  O4  1  0.24762000  0.50000000  0.00000000  1
  O  O5  1  0.25474200  0.00000000  0.50000000  1
  O  O6  1  0.25669900  0.50000000  0.50000000  1
  O  O7  1  0.75285400  0.74310900  0.75591300  1
  O  O8  1  0.75285400  0.25689100  0.75591300  1
  O  O9  1  0.75285400  0.74310900  0.24408700  1
  O  O10  1  0.75285400  0.25689100  0.24408700  1
  O  O11  1  0.25311400  0.74928100  0.75090300  1
  O  O12  1  0.25311400  0.25071900  0.75090300  1
  O  O13  1  0.25311400  0.74928100  0.24909700  1
  O  O14  1  0.25311400  0.25071900  0.24909700  1
  O  O15  1  0.99963400  0.77186200  0.00000000  1
  O  O16  1  0.99963400  0.22813800  0.00000000  1
  O  O17  1  0.00050000  0.75162600  0.50000000  1
  O  O18  1  0.00050000  0.24837400  0.50000000  1
  O  O19  1  0.51095400  0.74031100  0.00000000  1
  O  O20  1  0.51095400  0.25968900  0.00000000  1
  O  O21  1  0.50404600  0.74832200  0.50000000  1
  O  O22  1  0.50404600  0.25167800  0.50000000  1
  O  O23  1  0.99971900  0.00000000  0.73807900  1
  O  O24  1  0.99949900  0.50000000  0.72862200  1
  O  O25  1  0.99971900  0.00000000  0.26192100  1
  O  O26  1  0.99949900  0.50000000  0.27137800  1
  O  O27  1  0.50390700  0.00000000  0.74971100  1
  O  O28  1  0.50829100  0.50000000  0.75634500  1
  O  O29  1  0.50390700  0.00000000  0.25028900  1
  O  O30  1  0.50829100  0.50000000  0.24365500  1
loop_
_geom_bond_atom_site_label_1
_geom_bond_atom_site_label_2
_geom_bond_distance
_geom_bond_site_symmetry_2
Li0 O16 1.971422 1_455
Li0 O15 1.971422 1_445
Li0 O3 2.108931 1_555
Li0 O25 2.270987 1_455
Li0 O23 2.270987 1_454
Li0 O0 2.354416 1_455
Mg0 O23 2.061946 1_455
Mg0 O25 2.061946 1_455
Mg0 O5 2.125049 1_555
Mg0 O18 2.142797 1_555
Mg0 O17 2.142797 1_545
Mg0 O1 2.173268 1_455
Mg1 O26 1.981615 1_455
Mg1 O24 1.981615 1_455
Mg1 O6 2.094059 1_555
Mg1 O17 2.172039 1_555
Mg1 O18 2.172039 1_555
Mg1 O2 2.251348 1_455
Mg2 O3 1.994629 1_555
Mg2 O0 2.020752 1_555
Mg2 O27 2.168069 1_554
Mg2 O29 2.168069 1_555
Mg2 O20 2.243184 1_555
Mg2 O19 2.243184 1_545
Mg3 O4 1.953346 1_555
Mg3 O19 2.091767 1_555
Mg3 O20 2.091767 1_555
Mg3 O30 2.125467 1_555
Mg3 O28 2.125467 1_554
Mg4 O5 2.073371 1_555
Mg4 O1 2.107040 1_555
Mg4 O27 2.162692 1_555
Mg4 O29 2.162692 1_555
Mg4 O22 2.171456 1_555
Mg4 O21 2.171456 1_545
Mg5 O6 2.026017 1_555
Mg5 O2 2.107303 1_555
Mg5 O21 2.143312 1_555
Mg5 O22 2.143312 1_555
Mg5 O28 2.222367 1_555
Mg5 O30 2.222367 1_555
Mg6 O23 2.104859 1_465
Mg6 O11 2.113402 1_555
Mg6 O7 2.132523 1_455
Mg6 O15 2.158412 1_456
Mg6 O17 2.176292 1_555
Mg6 O24 2.220742 1_455
Mg7 O23 2.104859 1_455
Mg7 O12 2.113402 1_555
Mg7 O8 2.132523 1_455
Mg7 O16 2.158412 1_456
Mg7 O18 2.176292 1_555
Mg7 O24 2.220742 1_455
Mg8 O25 2.104859 1_465
Mg8 O13 2.113402 1_555
Mg8 O9 2.132523 1_455
Mg8 O15 2.158412 1_455
Mg8 O17 2.176292 1_555
Mg8 O26 2.220742 1_455
Mg9 O25 2.104859 1_455
Mg9 O14 2.113402 1_555
Mg9 O10 2.132523 1_455
Mg9 O16 2.158412 1_455
Mg9 O18 2.176292 1_555
Mg9 O26 2.220742 1_455
Mg10 O11 2.106095 1_555
Mg10 O7 2.131895 1_555
Mg10 O19 2.142587 1_556
Mg10 O28 2.148630 1_555
Mg10 O27 2.165831 1_565
Mg10 O21 2.190003 1_555
Mg11 O12 2.106095 1_555
Mg11 O8 2.131895 1_555
Mg11 O20 2.142587 1_556
Mg11 O28 2.148630 1_555
Mg11 O27 2.165831 1_555
Mg11 O22 2.190003 1_555
Mg12 O13 2.106095 1_555
Mg12 O9 2.131895 1_555
Mg12 O19 2.142587 1_555
Mg12 O30 2.148630 1_555
Mg12 O29 2.165831 1_565
Mg12 O21 2.190003 1_555
Mg13 O14 2.106095 1_555
Mg13 O10 2.131895 1_555
Mg13 O20 2.142587 1_555
Mg13 O30 2.148630 1_555
Mg13 O29 2.165831 1_555
Mg13 O22 2.190003 1_555
Mg14 O0 1.885725 1_565
Mg14 O15 2.061408 1_555
Mg14 O19 2.115355 1_555
Mg14 O7 2.140879 1_554
Mg14 O9 2.140879 1_555
Mg14 Rb0 2.753848 1_555
Mg15 O0 1.885725 1_555
Mg15 O16 2.061408 1_555
Mg15 O20 2.115355 1_555
Mg15 O10 2.140879 1_555
Mg15 O8 2.140879 1_554
Mg15 Rb0 2.753848 1_555
Mg16 O17 2.098512 1_655
Mg16 O21 2.111577 1_555
Mg16 O1 2.119017 1_565
Mg16 O2 2.195930 1_555
Mg16 O7 2.218185 1_555
Mg16 O9 2.218185 1_555
Mg17 O18 2.098512 1_655
Mg17 O22 2.111577 1_555
Mg17 O1 2.119017 1_555
Mg17 O2 2.195930 1_555
Mg17 O8 2.218185 1_555
Mg17 O10 2.218185 1_555
Mg18 O15 2.040282 1_455
Mg18 O3 2.149267 1_565
Mg18 O13 2.160261 1_555
Mg18 O11 2.160261 1_554
Mg18 O4 2.173637 1_555
Mg18 O19 2.304531 1_555
Mg19 O16 2.040282 1_455
Mg19 O3 2.149267 1_555
Mg19 O14 2.160261 1_555
Mg19 O12 2.160261 1_554
Mg19 O4 2.173637 1_555
Mg19 O20 2.304531 1_555
Mg20 O17 2.131743 1_555
Mg20 O21 2.137831 1_555
Mg20 O5 2.146715 1_565
Mg20 O6 2.167008 1_555
Mg20 O11 2.172742 1_555
Mg20 O13 2.172742 1_555
Mg21 O18 2.131743 1_555
Mg21 O22 2.137831 1_555
Mg21 O5 2.146715 1_555
Mg21 O6 2.167008 1_555
Mg21 O12 2.172742 1_555
Mg21 O14 2.172742 1_555
Mg22 O23 2.082222 1_555
Mg22 O27 2.123850 1_555
Mg22 O1 2.158292 1_555
Mg22 O0 2.177944 1_556
Mg22 O8 2.216860 1_555
Mg22 O7 2.216860 1_545
Mg23 O2 1.912615 1_555
Mg23 O28 2.085989 1_555
Mg23 O24 2.102828 1_555
Mg23 O7 2.119172 1_555
Mg23 O8 2.119172 1_555
Mg23 Rb0 2.758666 1_556
Mg24 O25 2.082222 1_555
Mg24 O29 2.123850 1_555
Mg24 O1 2.158292 1_555
Mg24 O0 2.177944 1_555
Mg24 O9 2.216860 1_545
Mg24 O10 2.216860 1_555
Mg25 O2 1.912615 1_555
Mg25 O30 2.085989 1_555
Mg25 O26 2.102828 1_555
Mg25 O9 2.119172 1_555
Mg25 O10 2.119172 1_555
Mg25 Rb0 2.758666 1_555
Mg26 O23 2.119947 1_455
Mg26 O3 2.135321 1_556
Mg26 O27 2.159541 1_555
Mg26 O12 2.163195 1_555
Mg26 O11 2.163195 1_545
Mg26 O5 2.197607 1_555
Mg27 O24 2.069552 1_455
Mg27 O4 2.124330 1_556
Mg27 O11 2.152676 1_555
Mg27 O12 2.152676 1_555
Mg27 O6 2.209316 1_555
Mg27 O28 2.256792 1_555
Mg28 O25 2.119947 1_455
Mg28 O3 2.135321 1_555
Mg28 O29 2.159541 1_555
Mg28 O14 2.163195 1_555
Mg28 O13 2.163195 1_545
Mg28 O5 2.197607 1_555
Mg29 O26 2.069552 1_455
Mg29 O4 2.124330 1_555
Mg29 O13 2.152676 1_555
Mg29 O14 2.152676 1_555
Mg29 O6 2.209316 1_555
Mg29 O30 2.256792 1_555
O4 Rb0 2.877680 1_455
O15 Rb0 2.469956 1_555
O16 Rb0 2.469956 1_555
O24 Rb0 2.474120 1_556
O26 Rb0 2.474120 1_555
