# generated using pymatgen
data_Fe4O5F3
_symmetry_space_group_name_H-M   'P 1'
_cell_length_a   6.03747200
_cell_length_b   6.42403900
_cell_length_c   7.03611200
_cell_angle_alpha   90.00000000
_cell_angle_beta   90.00000000
_cell_angle_gamma   90.00000000
_symmetry_Int_Tables_number   1
_chemical_formula_structural   Fe4O5F3
_chemical_formula_sum   'Fe8 O10 F6'
_cell_volume   272.89529144
_cell_formula_units_Z   2
loop_
 _symmetry_equiv_pos_site_id
 _symmetry_equiv_pos_as_xyz
  1  'x, y, z'
loop_
 _atom_site_type_symbol
 _atom_site_label
 _atom_site_symmetry_multiplicity
 _atom_site_fract_x
 _atom_site_fract_y
 _atom_site_fract_z
 _atom_site_occupancy
  Fe  Fe0  1  0.76288900  0.00000000  0.73979600  1
  Fe  Fe1  1  0.23711100  0.00000000  0.73979600  1
  Fe  Fe2  1  0.50000000  0.50000000  0.72487200  1
  Fe  Fe3  1  0.00000000  0.50000000  0.76183300  1
  Fe  Fe4  1  0.50000000  0.00000000  0.23816700  1
  Fe  Fe5  1  0.00000000  0.00000000  0.27512800  1
  Fe  Fe6  1  0.26288900  0.50000000  0.26020400  1
  Fe  Fe7  1  0.73711100  0.50000000  0.26020400  1
  O  O0  1  0.00000000  0.00000000  0.55796500  1
  O  O1  1  0.75977600  0.69308500  0.75387900  1
  O  O2  1  0.24022400  0.69308500  0.75387900  1
  O  O3  1  0.74022400  0.80691500  0.24612100  1
  O  O4  1  0.25977600  0.80691500  0.24612100  1
  O  O5  1  0.75977600  0.30691500  0.75387900  1
  O  O6  1  0.24022400  0.30691500  0.75387900  1
  O  O7  1  0.50000000  0.50000000  0.44203500  1
  O  O8  1  0.74022400  0.19308500  0.24612100  1
  O  O9  1  0.25977600  0.19308500  0.24612100  1
  F  F0  1  0.50000000  0.00000000  0.56022700  1
  F  F1  1  0.50000000  0.00000000  0.92961700  1
  F  F2  1  0.00000000  0.00000000  0.94647500  1
  F  F3  1  0.00000000  0.50000000  0.43977300  1
  F  F4  1  0.00000000  0.50000000  0.07038300  1
  F  F5  1  0.50000000  0.50000000  0.05352500  1
loop_
_geom_bond_atom_site_label_1
_geom_bond_atom_site_label_2
_geom_bond_distance
_geom_bond_site_symmetry_2
Fe0 O0 1.919937 1_655
Fe0 O5 1.974212 1_555
Fe0 O1 1.974212 1_545
Fe1 O0 1.919937 1_555
Fe1 O6 1.974212 1_555
Fe1 O2 1.974212 1_545
Fe2 O7 1.990073 1_555
Fe2 O2 2.009990 1_555
Fe2 O1 2.009990 1_555
Fe2 O5 2.009990 1_555
Fe2 O6 2.009990 1_555
Fe3 O2 1.909238 1_555
Fe3 O1 1.909238 1_455
Fe3 O6 1.909238 1_555
Fe3 O5 1.909238 1_455
Fe4 O8 1.909238 1_555
Fe4 O9 1.909238 1_555
Fe4 O3 1.909238 1_545
Fe4 O4 1.909238 1_545
Fe5 O0 1.990073 1_555
Fe5 O8 2.009990 1_455
Fe5 O9 2.009990 1_555
Fe5 O3 2.009990 1_445
Fe5 O4 2.009990 1_545
Fe6 O7 1.919937 1_555
Fe6 O4 1.974212 1_555
Fe6 O9 1.974212 1_555
Fe7 O7 1.919937 1_555
Fe7 O3 1.974212 1_555
Fe7 O8 1.974212 1_555
F0 Fe0 2.028671 1_555
F0 Fe1 2.028671 1_555
F0 Fe4 2.266050 1_555
F1 Fe0 2.074365 1_555
F1 Fe1 2.074365 1_555
F1 Fe4 2.170992 1_556
F2 Fe1 2.040609 1_555
F2 Fe0 2.040609 1_455
F2 Fe5 2.312439 1_556
F3 Fe6 2.028671 1_555
F3 Fe7 2.028671 1_455
F3 Fe3 2.266050 1_555
F4 Fe7 2.074365 1_455
F4 Fe6 2.074365 1_555
F4 Fe3 2.170992 1_554
F5 Fe7 2.040609 1_555
F5 Fe6 2.040609 1_555
F5 Fe2 2.312439 1_554
