# generated using pymatgen
data_Na2ZnSe2
_symmetry_space_group_name_H-M   'P 1'
_cell_length_a   7.35156651
_cell_length_b   7.12967088
_cell_length_c   9.12352617
_cell_angle_alpha   86.50949937
_cell_angle_beta   90.00000000
_cell_angle_gamma   90.00000000
_symmetry_Int_Tables_number   1
_chemical_formula_structural   Na2ZnSe2
_chemical_formula_sum   'Na8 Zn4 Se8'
_cell_volume   477.31566730
_cell_formula_units_Z   4
loop_
 _symmetry_equiv_pos_site_id
 _symmetry_equiv_pos_as_xyz
  1  'x, y, z'
loop_
 _atom_site_type_symbol
 _atom_site_label
 _atom_site_symmetry_multiplicity
 _atom_site_fract_x
 _atom_site_fract_y
 _atom_site_fract_z
 _atom_site_occupancy
  Na  Na0  1  0.17857307  0.95311620  0.67584797  1
  Na  Na1  1  0.67857307  0.54688380  0.32415203  1
  Na  Na2  1  0.82142693  0.04688380  0.32415203  1
  Na  Na3  1  0.32142693  0.45311620  0.67584797  1
  Na  Na4  1  0.26469286  0.98799416  0.05588583  1
  Na  Na5  1  0.76469286  0.51200584  0.94411417  1
  Na  Na6  1  0.73530714  0.01200584  0.94411417  1
  Na  Na7  1  0.23530714  0.48799416  0.05588583  1
  Zn  Zn0  1  0.09075818  0.65482592  0.37199696  1
  Zn  Zn1  1  0.59075818  0.84517408  0.62800304  1
  Zn  Zn2  1  0.90924182  0.34517408  0.62800304  1
  Zn  Zn3  1  0.40924182  0.15482592  0.37199696  1
  Se  Se0  1  0.60881638  0.19842920  0.59392196  1
  Se  Se1  1  0.10881638  0.30157080  0.40607804  1
  Se  Se2  1  0.39118362  0.80157080  0.40607804  1
  Se  Se3  1  0.89118362  0.69842920  0.59392196  1
  Se  Se4  1  0.54537170  0.25482763  0.14253207  1
  Se  Se5  1  0.04537170  0.24517237  0.85746793  1
  Se  Se6  1  0.45462830  0.74517237  0.85746793  1
  Se  Se7  1  0.95462830  0.75482763  0.14253207  1
loop_
_geom_bond_atom_site_label_1
_geom_bond_atom_site_label_2
_geom_bond_distance
_geom_bond_site_symmetry_2
Na0 Se5 2.908705 1_565
Na0 Se3 2.912898 1_455
Na0 Se6 2.960270 1_555
Na1 Se4 2.908705 1_555
Na1 Se2 2.912898 1_555
Na1 Se7 2.960270 1_555
Na2 Se7 2.908705 1_545
Na2 Se1 2.912898 1_655
Na2 Se4 2.960270 1_555
Na3 Se6 2.908705 1_555
Na3 Se0 2.912898 1_555
Na3 Se5 2.960270 1_555
Na4 Se7 2.902484 1_455
Na4 Se6 2.933531 1_554
Na4 Se4 2.947040 1_565
Na4 Se5 2.972316 1_564
Na5 Se6 2.902484 1_555
Na5 Se7 2.933531 1_556
Na5 Se5 2.947040 1_655
Na5 Se4 2.972316 1_556
Na6 Se5 2.902484 1_655
Na6 Se4 2.933531 1_556
Na6 Se6 2.947040 1_545
Na6 Se7 2.972316 1_546
Na7 Se4 2.902484 1_555
Na7 Se5 2.933531 1_554
Na7 Se7 2.947040 1_455
Na7 Se6 2.972316 1_554
Se0 Zn2 2.471603 1_555
Se0 Zn1 2.522352 1_545
Se0 Zn3 2.534855 1_555
Se1 Zn3 2.471603 1_555
Se1 Zn0 2.522352 1_555
Se1 Zn2 2.534855 1_455
Se2 Zn0 2.471603 1_555
Se2 Zn3 2.522352 1_565
Se2 Zn1 2.534855 1_555
Se3 Zn1 2.471603 1_555
Se3 Zn2 2.522352 1_555
Se3 Zn0 2.534855 1_655
Se4 Zn3 2.389767 1_555
Se5 Zn2 2.389767 1_455
Se6 Zn1 2.389767 1_555
Se7 Zn0 2.389767 1_655
