# generated using pymatgen
data_Li7Mn4CoO12
_symmetry_space_group_name_H-M   'P 1'
_cell_length_a   5.02218895
_cell_length_b   5.02215596
_cell_length_c   19.54401092
_cell_angle_alpha   93.86541217
_cell_angle_beta   93.86502745
_cell_angle_gamma   117.57907866
_symmetry_Int_Tables_number   1
_chemical_formula_structural   Li7Mn4CoO12
_chemical_formula_sum   'Li14 Mn8 Co2 O24'
_cell_volume   433.21857812
_cell_formula_units_Z   2
loop_
 _symmetry_equiv_pos_site_id
 _symmetry_equiv_pos_as_xyz
  1  'x, y, z'
loop_
 _atom_site_type_symbol
 _atom_site_label
 _atom_site_symmetry_multiplicity
 _atom_site_fract_x
 _atom_site_fract_y
 _atom_site_fract_z
 _atom_site_occupancy
  Li  Li0  1  0.66666000  0.33333900  0.99999100  1
  Li  Li1  1  0.66666100  0.33334000  0.50001000  1
  Li  Li2  1  0.41399700  0.08066100  0.12234700  1
  Li  Li3  1  0.41474700  0.08141000  0.62248700  1
  Li  Li4  1  0.91933900  0.58600300  0.37765100  1
  Li  Li5  1  0.91858600  0.58525100  0.87751500  1
  Li  Li6  1  0.07806400  0.42215500  0.12396500  1
  Li  Li7  1  0.07776500  0.42254500  0.62414700  1
  Li  Li8  1  0.57784400  0.92193300  0.37603400  1
  Li  Li9  1  0.57745900  0.92223700  0.87585400  1
  Li  Li10  1  0.75549100  0.74472300  0.12396600  1
  Li  Li11  1  0.75587200  0.74441500  0.62414900  1
  Li  Li12  1  0.25527800  0.24451100  0.37603300  1
  Li  Li13  1  0.25558000  0.24412000  0.87585300  1
  Mn  Mn0  1  0.99865800  0.00136600  0.00003200  1
  Mn  Mn1  1  0.99863700  0.00134300  0.49997000  1
  Mn  Mn2  1  0.33468100  0.66529900  0.49997000  1
  Mn  Mn3  1  0.33470300  0.66532100  0.00003200  1
  Mn  Mn4  1  0.49908800  0.50090400  0.25000000  1
  Mn  Mn5  1  0.49993900  0.50005700  0.74999900  1
  Mn  Mn6  1  0.83424600  0.16576400  0.25000000  1
  Mn  Mn7  1  0.83340400  0.16660200  0.74999800  1
  Co  Co0  1  0.16666600  0.83333200  0.75000100  1
  Co  Co1  1  0.16666600  0.83333500  0.25000000  1
  O  O0  1  0.05844300  0.72511100  0.05601100  1
  O  O1  1  0.05846700  0.72513800  0.55605700  1
  O  O2  1  0.27489100  0.94155600  0.44398800  1
  O  O3  1  0.27486800  0.94153400  0.94394300  1
  O  O4  1  0.56042500  0.22709400  0.30940900  1
  O  O5  1  0.56453500  0.23118600  0.80983900  1
  O  O6  1  0.77290700  0.43957300  0.19059100  1
  O  O7  1  0.76880800  0.43547100  0.69016100  1
  O  O8  1  0.68963200  0.99966600  0.05484000  1
  O  O9  1  0.68953100  0.99946800  0.55485700  1
  O  O10  1  0.33297700  0.35627200  0.05484100  1
  O  O11  1  0.33277900  0.35617200  0.55485800  1
  O  O12  1  0.00033500  0.31036700  0.44516000  1
  O  O13  1  0.00053200  0.31047100  0.94514300  1
  O  O14  1  0.64373000  0.66702300  0.44515800  1
  O  O15  1  0.64383100  0.66722000  0.94514100  1
  O  O16  1  0.22975900  0.56813300  0.30831700  1
  O  O17  1  0.23030000  0.56922700  0.80792700  1
  O  O18  1  0.90146200  0.89643600  0.30831500  1
  O  O19  1  0.90253900  0.89698600  0.80792900  1
  O  O20  1  0.43186000  0.77024300  0.19168500  1
  O  O21  1  0.43078300  0.76969700  0.69207200  1
  O  O22  1  0.10356000  0.09854200  0.19168200  1
  O  O23  1  0.10301700  0.09744800  0.69207300  1
loop_
_geom_bond_atom_site_label_1
_geom_bond_atom_site_label_2
_geom_bond_distance
_geom_bond_site_symmetry_2
Li0 O10 2.091662 1_556
Li0 O8 2.091681 1_546
Li0 O15 2.092311 1_555
Li0 O13 2.092330 1_655
Li0 O0 2.185381 1_656
Li0 O3 2.185684 1_545
Li1 O14 2.091677 1_555
Li1 O12 2.091702 1_655
Li1 O11 2.092302 1_555
Li1 O9 2.092320 1_545
Li1 O2 2.185394 1_545
Li1 O1 2.185692 1_655
Li2 O0 2.116900 1_545
Li2 O10 2.125434 1_555
Li2 O8 2.125483 1_545
Li2 O6 2.149497 1_555
Li2 O20 2.161663 1_545
Li2 O22 2.161729 1_555
Li3 O1 2.120810 1_545
Li3 O7 2.123952 1_555
Li3 O11 2.125821 1_555
Li3 O9 2.125859 1_545
Li3 O21 2.166962 1_545
Li3 O23 2.167046 1_555
Li4 O2 2.116912 1_655
Li4 O14 2.125437 1_555
Li4 O12 2.125516 1_655
Li4 O4 2.149479 1_555
Li4 O16 2.161631 1_655
Li4 O18 2.161719 1_555
Li5 O3 2.120817 1_655
Li5 O5 2.123959 1_555
Li5 O15 2.125756 1_555
Li5 O13 2.125829 1_655
Li5 O17 2.166986 1_655
Li5 O19 2.167079 1_555
Li6 O10 2.034369 1_555
Li6 O6 2.104698 1_455
Li6 O20 2.111810 1_555
Li6 O0 2.117098 1_555
Li6 O22 2.206623 1_555
Li6 O8 2.357610 1_445
Li7 O11 2.038000 1_555
Li7 O7 2.104333 1_455
Li7 O21 2.110393 1_555
Li7 O1 2.116917 1_555
Li7 O23 2.214812 1_555
Li7 O9 2.360128 1_445
Li8 O14 2.034366 1_555
Li8 O4 2.104702 1_565
Li8 O16 2.111782 1_555
Li8 O2 2.117091 1_555
Li8 O18 2.206671 1_555
Li8 O12 2.357630 1_665
Li9 O15 2.037984 1_555
Li9 O5 2.104310 1_565
Li9 O17 2.110410 1_555
Li9 O3 2.116895 1_555
Li9 O19 2.214730 1_555
Li9 O13 2.360112 1_665
Li10 O8 2.034461 1_555
Li10 O6 2.104653 1_555
Li10 O22 2.111780 1_665
Li10 O0 2.117081 1_655
Li10 O20 2.206765 1_555
Li10 O10 2.357708 1_555
Li11 O9 2.038123 1_555
Li11 O7 2.104271 1_555
Li11 O23 2.110400 1_665
Li11 O1 2.116916 1_655
Li11 O21 2.214797 1_555
Li11 O11 2.360194 1_555
Li12 O12 2.034467 1_555
Li12 O4 2.104631 1_555
Li12 O18 2.111806 1_445
Li12 O2 2.117094 1_545
Li12 O16 2.206688 1_555
Li12 O14 2.357702 1_555
Li13 O13 2.038096 1_555
Li13 O5 2.104338 1_555
Li13 O19 2.110395 1_445
Li13 O3 2.116872 1_545
Li13 O17 2.214902 1_555
Li13 O15 2.360197 1_555
Mn0 O0 1.938571 1_645
Mn0 O3 1.939786 1_644
Mn0 O8 1.941448 1_545
Mn0 O13 1.942449 1_654
Mn0 O10 1.967874 1_655
Mn0 O15 1.968026 1_544
Mn1 O2 1.938607 1_645
Mn1 O1 1.939737 1_645
Mn1 O12 1.941464 1_655
Mn1 O9 1.942430 1_545
Mn1 O14 1.967905 1_545
Mn1 O11 1.967996 1_655
Mn2 O2 1.938626 1_555
Mn2 O1 1.939794 1_555
Mn2 O14 1.941552 1_555
Mn2 O11 1.942483 1_555
Mn2 O12 1.967998 1_555
Mn2 O9 1.968093 1_555
Mn3 O0 1.938603 1_555
Mn3 O3 1.939805 1_554
Mn3 O10 1.941510 1_555
Mn3 O15 1.942530 1_554
Mn3 O8 1.967974 1_555
Mn3 O13 1.968112 1_554
Mn4 O16 1.954847 1_555
Mn4 O20 1.954862 1_555
Mn4 O4 1.973131 1_555
Mn4 O6 1.973154 1_555
Mn4 O22 2.235119 1_555
Mn4 O18 2.235133 1_555
Mn5 O21 1.955840 1_555
Mn5 O17 1.955880 1_555
Mn5 O7 1.965584 1_555
Mn5 O5 1.965639 1_555
Mn5 O23 2.235782 1_555
Mn5 O19 2.235807 1_555
Mn6 O22 1.954782 1_655
Mn6 O18 1.954790 1_545
Mn6 O6 1.973132 1_555
Mn6 O4 1.973160 1_555
Mn6 O16 2.235095 1_655
Mn6 O20 2.235137 1_545
Mn7 O23 1.955701 1_655
Mn7 O19 1.955742 1_545
Mn7 O7 1.965594 1_555
Mn7 O5 1.965616 1_555
Mn7 O21 2.235773 1_545
Mn7 O17 2.235784 1_655
Co0 O17 1.920741 1_555
Co0 O21 1.920828 1_555
Co0 O23 1.920844 1_565
Co0 O19 1.920899 1_455
Co0 O5 2.241824 1_565
Co0 O7 2.241831 1_455
Co1 O20 1.928698 1_555
Co1 O16 1.928757 1_555
Co1 O18 1.928758 1_455
Co1 O22 1.928819 1_565
Co1 O4 2.220186 1_565
Co1 O6 2.220193 1_455
