# generated using pymatgen
data_MgTeN2
_symmetry_space_group_name_H-M   'P 1'
_cell_length_a   6.38662700
_cell_length_b   7.63576100
_cell_length_c   5.49599900
_cell_angle_alpha   90.00000000
_cell_angle_beta   90.00000000
_cell_angle_gamma   90.00000000
_symmetry_Int_Tables_number   1
_chemical_formula_structural   MgTeN2
_chemical_formula_sum   'Mg4 Te4 N8'
_cell_volume   268.02204973
_cell_formula_units_Z   4
loop_
 _symmetry_equiv_pos_site_id
 _symmetry_equiv_pos_as_xyz
  1  'x, y, z'
loop_
 _atom_site_type_symbol
 _atom_site_label
 _atom_site_symmetry_multiplicity
 _atom_site_fract_x
 _atom_site_fract_y
 _atom_site_fract_z
 _atom_site_occupancy
  Mg  Mg0  1  0.53833900  0.87287900  0.00195200  1
  Mg  Mg1  1  0.46166100  0.12712100  0.50195200  1
  Mg  Mg2  1  0.96166100  0.37287900  0.50195200  1
  Mg  Mg3  1  0.03833900  0.62712100  0.00195200  1
  Te  Te0  1  0.64278900  0.35004300  0.02704900  1
  Te  Te1  1  0.35721100  0.64995700  0.52704900  1
  Te  Te2  1  0.85721100  0.85004300  0.52704900  1
  Te  Te3  1  0.14278900  0.14995700  0.02704900  1
  N  N0  1  0.69679300  0.27243700  0.35110800  1
  N  N1  1  0.30320700  0.72756300  0.85110800  1
  N  N2  1  0.80320700  0.77243700  0.85110800  1
  N  N3  1  0.19679300  0.22756300  0.35110800  1
  N  N4  1  0.54046800  0.85828600  0.38989000  1
  N  N5  1  0.45953200  0.14171400  0.88989000  1
  N  N6  1  0.95953200  0.35828600  0.88989000  1
  N  N7  1  0.04046800  0.64171400  0.38989000  1
loop_
_geom_bond_atom_site_label_1
_geom_bond_atom_site_label_2
_geom_bond_distance
_geom_bond_site_symmetry_2
Mg0 N2 2.033980 1_554
Mg0 N1 2.042943 1_554
Mg0 N4 2.135060 1_555
Mg0 N5 2.201470 1_564
Mg1 N3 2.033980 1_555
Mg1 N0 2.042943 1_555
Mg1 N5 2.135060 1_555
Mg1 N4 2.201470 1_545
Mg2 N0 2.033980 1_555
Mg2 N3 2.042943 1_655
Mg2 N6 2.135060 1_555
Mg2 N7 2.201470 1_655
Mg3 N1 2.033980 1_554
Mg3 N2 2.042943 1_454
Mg3 N7 2.135060 1_555
Mg3 N6 2.201470 1_454
N0 Te0 1.908447 1_555
N1 Te1 1.908447 1_555
N2 Te2 1.908447 1_555
N3 Te3 1.908447 1_555
N4 Te1 2.113897 1_555
N4 Te2 2.159726 1_555
N5 Te0 2.113897 1_556
N5 Te3 2.159726 1_556
N6 Te3 2.113897 1_656
N6 Te0 2.159726 1_556
N7 Te2 2.113897 1_455
N7 Te1 2.159726 1_555
