# generated using pymatgen
data_YGaN2
_symmetry_space_group_name_H-M   'P 1'
_cell_length_a   5.10235000
_cell_length_b   10.15494400
_cell_length_c   16.60663700
_cell_angle_alpha   90.00000000
_cell_angle_beta   90.00000000
_cell_angle_gamma   90.00000000
_symmetry_Int_Tables_number   1
_chemical_formula_structural   YGaN2
_chemical_formula_sum   'Y16 Ga16 N32'
_cell_volume   860.45759344
_cell_formula_units_Z   16
loop_
 _symmetry_equiv_pos_site_id
 _symmetry_equiv_pos_as_xyz
  1  'x, y, z'
loop_
 _atom_site_type_symbol
 _atom_site_label
 _atom_site_symmetry_multiplicity
 _atom_site_fract_x
 _atom_site_fract_y
 _atom_site_fract_z
 _atom_site_occupancy
  Y  Y0  1  0.73880800  0.99583500  0.43697200  1
  Y  Y1  1  0.23880800  0.50416500  0.56302800  1
  Y  Y2  1  0.26119200  0.49583500  0.06302800  1
  Y  Y3  1  0.76119200  0.00416500  0.93697200  1
  Y  Y4  1  0.26119200  0.00416500  0.56302800  1
  Y  Y5  1  0.76119200  0.49583500  0.43697200  1
  Y  Y6  1  0.73880800  0.50416500  0.93697200  1
  Y  Y7  1  0.23880800  0.99583500  0.06302800  1
  Y  Y8  1  0.78229200  0.25379400  0.31206500  1
  Y  Y9  1  0.28229200  0.24620600  0.68793500  1
  Y  Y10  1  0.21770800  0.75379400  0.18793500  1
  Y  Y11  1  0.71770800  0.74620600  0.81206500  1
  Y  Y12  1  0.21770800  0.74620600  0.68793500  1
  Y  Y13  1  0.71770800  0.75379400  0.31206500  1
  Y  Y14  1  0.78229200  0.24620600  0.81206500  1
  Y  Y15  1  0.28229200  0.25379400  0.18793500  1
  Ga  Ga0  1  0.70019700  0.02150700  0.18749100  1
  Ga  Ga1  1  0.20019700  0.47849300  0.81250900  1
  Ga  Ga2  1  0.29980300  0.52150700  0.31250900  1
  Ga  Ga3  1  0.79980300  0.97849300  0.68749100  1
  Ga  Ga4  1  0.29980300  0.97849300  0.81250900  1
  Ga  Ga5  1  0.79980300  0.52150700  0.18749100  1
  Ga  Ga6  1  0.70019700  0.47849300  0.68749100  1
  Ga  Ga7  1  0.20019700  0.02150700  0.31250900  1
  Ga  Ga8  1  0.80284500  0.27461600  0.06232800  1
  Ga  Ga9  1  0.30284500  0.22538400  0.93767200  1
  Ga  Ga10  1  0.19715500  0.77461600  0.43767200  1
  Ga  Ga11  1  0.69715500  0.72538400  0.56232800  1
  Ga  Ga12  1  0.19715500  0.72538400  0.93767200  1
  Ga  Ga13  1  0.69715500  0.77461600  0.06232800  1
  Ga  Ga14  1  0.80284500  0.22538400  0.56232800  1
  Ga  Ga15  1  0.30284500  0.27461600  0.43767200  1
  N  N0  1  0.68877400  0.48824100  0.30035300  1
  N  N1  1  0.18877400  0.01175900  0.69964700  1
  N  N2  1  0.31122600  0.98824100  0.19964700  1
  N  N3  1  0.81122600  0.51175900  0.80035300  1
  N  N4  1  0.31122600  0.51175900  0.69964700  1
  N  N5  1  0.81122600  0.98824100  0.30035300  1
  N  N6  1  0.68877400  0.01175900  0.80035300  1
  N  N7  1  0.18877400  0.48824100  0.19964700  1
  N  N8  1  0.69356600  0.25767900  0.44845100  1
  N  N9  1  0.19356600  0.24232100  0.55154900  1
  N  N10  1  0.30643400  0.75767900  0.05154900  1
  N  N11  1  0.80643400  0.74232100  0.94845100  1
  N  N12  1  0.30643400  0.74232100  0.55154900  1
  N  N13  1  0.80643400  0.75767900  0.44845100  1
  N  N14  1  0.69356600  0.24232100  0.94845100  1
  N  N15  1  0.19356600  0.25767900  0.05154900  1
  N  N16  1  0.72734100  0.46897000  0.07438600  1
  N  N17  1  0.22734100  0.03103000  0.92561400  1
  N  N18  1  0.27265900  0.96897000  0.42561400  1
  N  N19  1  0.77265900  0.53103000  0.57438600  1
  N  N20  1  0.27265900  0.53103000  0.92561400  1
  N  N21  1  0.77265900  0.96897000  0.07438600  1
  N  N22  1  0.72734100  0.03103000  0.57438600  1
  N  N23  1  0.22734100  0.46897000  0.42561400  1
  N  N24  1  0.73822500  0.21799400  0.17563400  1
  N  N25  1  0.23822500  0.28200600  0.82436600  1
  N  N26  1  0.26177500  0.71799400  0.32436600  1
  N  N27  1  0.76177500  0.78200600  0.67563400  1
  N  N28  1  0.26177500  0.78200600  0.82436600  1
  N  N29  1  0.76177500  0.71799400  0.17563400  1
  N  N30  1  0.73822500  0.28200600  0.67563400  1
  N  N31  1  0.23822500  0.21799400  0.32436600  1
loop_
_geom_bond_atom_site_label_1
_geom_bond_atom_site_label_2
_geom_bond_distance
_geom_bond_site_symmetry_2
Ga0 N5 1.986931 1_545
Ga0 N21 1.987289 1_545
Ga0 N24 2.014373 1_555
Ga0 N2 2.023307 1_545
Ga1 N4 1.986931 1_555
Ga1 N20 1.987289 1_555
Ga1 N25 2.014373 1_555
Ga1 N3 2.023307 1_455
Ga2 N7 1.986931 1_555
Ga2 N23 1.987289 1_555
Ga2 N26 2.014373 1_555
Ga2 N0 2.023307 1_555
Ga3 N6 1.986931 1_565
Ga3 N22 1.987289 1_565
Ga3 N27 2.014373 1_555
Ga3 N1 2.023307 1_665
Ga4 N1 1.986931 1_565
Ga4 N17 1.987289 1_565
Ga4 N28 2.014373 1_555
Ga4 N6 2.023307 1_565
Ga5 N0 1.986931 1_555
Ga5 N16 1.987289 1_555
Ga5 N29 2.014373 1_555
Ga5 N7 2.023307 1_655
Ga6 N3 1.986931 1_555
Ga6 N19 1.987289 1_555
Ga6 N30 2.014373 1_555
Ga6 N4 2.023307 1_555
Ga7 N2 1.986931 1_545
Ga7 N18 1.987289 1_545
Ga7 N31 2.014373 1_555
Ga7 N5 2.023307 1_445
Ga8 N24 1.994960 1_555
Ga8 N14 1.998690 1_554
Ga8 N15 2.008991 1_655
Ga8 N16 2.020847 1_555
Ga9 N25 1.994960 1_555
Ga9 N15 1.998690 1_556
Ga9 N14 2.008991 1_555
Ga9 N17 2.020847 1_555
Ga10 N26 1.994960 1_555
Ga10 N12 1.998690 1_555
Ga10 N13 2.008991 1_455
Ga10 N18 2.020847 1_555
Ga11 N27 1.994960 1_555
Ga11 N13 1.998690 1_555
Ga11 N12 2.008991 1_555
Ga11 N19 2.020847 1_555
Ga12 N28 1.994960 1_555
Ga12 N10 1.998690 1_556
Ga12 N11 2.008991 1_455
Ga12 N20 2.020847 1_555
Ga13 N29 1.994960 1_555
Ga13 N11 1.998690 1_554
Ga13 N10 2.008991 1_555
Ga13 N21 2.020847 1_555
Ga14 N30 1.994960 1_555
Ga14 N8 1.998690 1_555
Ga14 N9 2.008991 1_655
Ga14 N22 2.020847 1_555
Ga15 N31 1.994960 1_555
Ga15 N9 1.998690 1_555
Ga15 N8 2.008991 1_555
Ga15 N23 2.020847 1_555
N0 Y5 2.299968 1_555
N0 Y8 2.435919 1_555
N0 Y13 2.707708 1_555
N1 Y4 2.299968 1_555
N1 Y9 2.435919 1_555
N1 Y12 2.707708 1_545
N2 Y7 2.299968 1_555
N2 Y10 2.435919 1_555
N2 Y15 2.707708 1_565
N3 Y6 2.299968 1_555
N3 Y11 2.435919 1_555
N3 Y14 2.707708 1_555
N4 Y1 2.299968 1_555
N4 Y12 2.435919 1_555
N4 Y9 2.707708 1_555
N5 Y0 2.299968 1_555
N5 Y13 2.435919 1_555
N5 Y8 2.707708 1_565
N6 Y3 2.299968 1_555
N6 Y14 2.435919 1_555
N6 Y11 2.707708 1_545
N7 Y2 2.299968 1_555
N7 Y15 2.435919 1_555
N7 Y10 2.707708 1_555
N8 Y8 2.310051 1_555
N8 Y5 2.450378 1_555
N8 Y0 2.675811 1_545
N9 Y9 2.310051 1_555
N9 Y4 2.450378 1_555
N9 Y1 2.675811 1_555
N10 Y10 2.310051 1_555
N10 Y7 2.450378 1_555
N10 Y2 2.675811 1_555
N11 Y11 2.310051 1_555
N11 Y6 2.450378 1_555
N11 Y3 2.675811 1_565
N12 Y12 2.310051 1_555
N12 Y1 2.450378 1_555
N12 Y4 2.675811 1_565
N13 Y13 2.310051 1_555
N13 Y0 2.450378 1_555
N13 Y5 2.675811 1_555
N14 Y14 2.310051 1_555
N14 Y3 2.450378 1_555
N14 Y6 2.675811 1_555
N15 Y15 2.310051 1_555
N15 Y2 2.450378 1_555
N15 Y7 2.675811 1_545
N16 Y6 2.310544 1_554
N16 Y2 2.401469 1_555
N16 Y2 2.744013 1_655
N17 Y7 2.310544 1_546
N17 Y3 2.401469 1_455
N17 Y3 2.744013 1_555
N18 Y4 2.310544 1_565
N18 Y0 2.401469 1_555
N18 Y0 2.744013 1_455
N19 Y5 2.310544 1_555
N19 Y1 2.401469 1_655
N19 Y1 2.744013 1_555
N20 Y2 2.310544 1_556
N20 Y6 2.401469 1_555
N20 Y6 2.744013 1_455
N21 Y3 2.310544 1_564
N21 Y7 2.401469 1_655
N21 Y7 2.744013 1_555
N22 Y0 2.310544 1_545
N22 Y4 2.401469 1_555
N22 Y4 2.744013 1_655
N23 Y1 2.310544 1_555
N23 Y5 2.401469 1_455
N23 Y5 2.744013 1_555
N24 Y8 2.305632 1_555
N24 Y15 2.363410 1_555
N24 Y15 2.807167 1_655
N25 Y9 2.305632 1_555
N25 Y14 2.363410 1_455
N25 Y14 2.807167 1_555
N26 Y10 2.305632 1_555
N26 Y13 2.363410 1_555
N26 Y13 2.807167 1_455
N27 Y11 2.305632 1_555
N27 Y12 2.363410 1_655
N27 Y12 2.807167 1_555
N28 Y12 2.305632 1_555
N28 Y11 2.363410 1_555
N28 Y11 2.807167 1_455
N29 Y13 2.305632 1_555
N29 Y10 2.363410 1_655
N29 Y10 2.807167 1_555
N30 Y14 2.305632 1_555
N30 Y9 2.363410 1_555
N30 Y9 2.807167 1_655
N31 Y15 2.305632 1_555
N31 Y8 2.363410 1_455
N31 Y8 2.807167 1_555
