# generated using pymatgen
data_CeAlPd2
_symmetry_space_group_name_H-M   'P 1'
_cell_length_a   5.91858222
_cell_length_b   6.96376348
_cell_length_c   7.55958462
_cell_angle_alpha   90.00807043
_cell_angle_beta   89.99778054
_cell_angle_gamma   89.99670821
_symmetry_Int_Tables_number   1
_chemical_formula_structural   CeAlPd2
_chemical_formula_sum   'Ce4 Al4 Pd8'
_cell_volume   311.57286321
_cell_formula_units_Z   4
loop_
 _symmetry_equiv_pos_site_id
 _symmetry_equiv_pos_as_xyz
  1  'x, y, z'
loop_
 _atom_site_type_symbol
 _atom_site_label
 _atom_site_symmetry_multiplicity
 _atom_site_fract_x
 _atom_site_fract_y
 _atom_site_fract_z
 _atom_site_occupancy
  Ce  Ce0  1  0.34206049  0.75006721  0.03454535  1
  Ce  Ce1  1  0.15788353  0.75005457  0.53459516  1
  Ce  Ce2  1  0.65789456  0.25004632  0.96539583  1
  Ce  Ce3  1  0.84211819  0.24994821  0.46547815  1
  Al  Al0  1  0.65857397  0.74996112  0.38069717  1
  Al  Al1  1  0.84138095  0.74995088  0.88077543  1
  Al  Al2  1  0.34143946  0.25000278  0.61924134  1
  Al  Al3  1  0.15858727  0.24999346  0.11929771  1
  Pd  Pd0  1  0.91422543  0.55155827  0.17624415  1
  Pd  Pd1  1  0.58585969  0.94847071  0.67622986  1
  Pd  Pd2  1  0.08577966  0.05152705  0.82379242  1
  Pd  Pd3  1  0.41418488  0.44844334  0.32370368  1
  Pd  Pd4  1  0.08587573  0.44847372  0.82383767  1
  Pd  Pd5  1  0.41415469  0.05148880  0.32371773  1
  Pd  Pd6  1  0.91422519  0.94843872  0.17622261  1
  Pd  Pd7  1  0.58575532  0.55157482  0.67622676  1
loop_
_geom_bond_atom_site_label_1
_geom_bond_atom_site_label_2
_geom_bond_distance
_geom_bond_site_symmetry_2
Ce0 Pd4 3.040853 1_554
Ce0 Pd2 3.040862 1_564
Ce0 Pd5 3.060322 1_565
Ce0 Pd3 3.061626 1_555
Ce0 Pd6 3.076733 1_455
Ce0 Pd0 3.077484 1_455
Ce0 Pd7 3.365504 1_554
Ce0 Pd1 3.365878 1_554
Ce1 Pd5 3.041263 1_565
Ce1 Pd3 3.041828 1_555
Ce1 Pd2 3.060650 1_565
Ce1 Pd4 3.061789 1_555
Ce1 Pd7 3.077333 1_555
Ce1 Pd1 3.077646 1_555
Ce1 Pd0 3.365778 1_455
Ce1 Pd6 3.365834 1_455
Ce2 Pd0 3.041449 1_556
Ce2 Pd6 3.042012 1_546
Ce2 Pd1 3.060974 1_545
Ce2 Pd7 3.061241 1_555
Ce2 Pd2 3.077243 1_655
Ce2 Pd4 3.077571 1_655
Ce2 Pd3 3.365204 1_556
Ce2 Pd5 3.366207 1_556
Ce3 Pd1 3.040935 1_545
Ce3 Pd7 3.041518 1_555
Ce3 Pd6 3.061144 1_545
Ce3 Pd0 3.061964 1_555
Ce3 Pd5 3.078050 1_555
Ce3 Pd3 3.078056 1_555
Ce3 Pd2 3.365593 1_655
Ce3 Pd4 3.366165 1_655
Al0 Pd0 2.566350 1_555
Al0 Pd6 2.567055 1_555
Al0 Pd3 2.585863 1_555
Al0 Pd5 2.585964 1_565
Al0 Pd7 2.662013 1_555
Al0 Pd1 2.662026 1_555
Al0 Ce1 3.176006 1_655
Al0 Ce1 3.183528 1_555
Al0 Ce0 3.218249 1_555
Al1 Pd7 2.566759 1_555
Al1 Pd1 2.567061 1_555
Al1 Pd4 2.585759 1_655
Al1 Pd2 2.586291 1_665
Al1 Pd6 2.661583 1_556
Al1 Pd0 2.661676 1_556
Al1 Ce0 3.175627 1_556
Al1 Ce0 3.183198 1_656
Al1 Ce1 3.218269 1_655
Al2 Pd4 2.566951 1_555
Al2 Pd2 2.567427 1_555
Al2 Pd7 2.585917 1_555
Al2 Pd1 2.586004 1_545
Al2 Pd5 2.661985 1_555
Al2 Pd3 2.662190 1_555
Al2 Ce3 3.175697 1_455
Al2 Ce3 3.183091 1_555
Al2 Ce2 3.218064 1_555
Al3 Pd3 2.566288 1_555
Al3 Pd5 2.566593 1_555
Al3 Pd0 2.585825 1_455
Al3 Pd6 2.585976 1_445
Al3 Pd4 2.661811 1_554
Al3 Pd2 2.661839 1_554
Al3 Ce2 3.175920 1_554
Al3 Ce2 3.183635 1_454
Al3 Ce3 3.218154 1_455
