# generated using pymatgen
data_Y6Fe(SiS7)2
_symmetry_space_group_name_H-M   'P 1'
_cell_length_a   9.87968458
_cell_length_b   9.87968458
_cell_length_c   5.64687800
_cell_angle_alpha   90.00000000
_cell_angle_beta   90.00000000
_cell_angle_gamma   120.00000391
_symmetry_Int_Tables_number   1
_chemical_formula_structural   Y6Fe(SiS7)2
_chemical_formula_sum   'Y6 Fe1 Si2 S14'
_cell_volume   477.33708744
_cell_formula_units_Z   1
loop_
 _symmetry_equiv_pos_site_id
 _symmetry_equiv_pos_as_xyz
  1  'x, y, z'
loop_
 _atom_site_type_symbol
 _atom_site_label
 _atom_site_symmetry_multiplicity
 _atom_site_fract_x
 _atom_site_fract_y
 _atom_site_fract_z
 _atom_site_occupancy
  Y  Y0  1  0.12320500  0.35531800  0.74707100  1
  Y  Y1  1  0.23211400  0.87679500  0.74707100  1
  Y  Y2  1  0.64468200  0.76788600  0.74707100  1
  Y  Y3  1  0.87608700  0.64508300  0.25188000  1
  Y  Y4  1  0.76899600  0.12391300  0.25188000  1
  Y  Y5  1  0.35491700  0.23100400  0.25188000  1
  Fe  Fe0  1  0.00000000  0.00000000  0.51502100  1
  Si  Si0  1  0.33333300  0.66666700  0.16451900  1
  Si  Si1  1  0.66666700  0.33333300  0.66365500  1
  S  S0  1  0.33333300  0.66666700  0.53659500  1
  S  S1  1  0.66666700  0.33333300  0.03550600  1
  S  S2  1  0.08607500  0.24489200  0.27568400  1
  S  S3  1  0.15881700  0.91392500  0.27568400  1
  S  S4  1  0.75510800  0.84118300  0.27568400  1
  S  S5  1  0.91496800  0.75365300  0.75472200  1
  S  S6  1  0.83868400  0.08503200  0.75472200  1
  S  S7  1  0.24634700  0.16131600  0.75472200  1
  S  S8  1  0.41165400  0.51866000  0.01458500  1
  S  S9  1  0.10700600  0.58834600  0.01458500  1
  S  S10  1  0.48134000  0.89299400  0.01458500  1
  S  S11  1  0.58596200  0.47883000  0.51245600  1
  S  S12  1  0.89286900  0.41403800  0.51245600  1
  S  S13  1  0.52117000  0.10713100  0.51245600  1
loop_
_geom_bond_atom_site_label_1
_geom_bond_atom_site_label_2
_geom_bond_distance
_geom_bond_site_symmetry_2
Fe0 S4 2.519130 1_445
Fe0 S2 2.519130 1_555
Fe0 S3 2.519130 1_545
Fe0 S5 2.533136 1_445
Fe0 S7 2.533137 1_555
Fe0 S6 2.533144 1_455
S0 Si0 2.101068 1_555
S0 Y1 2.966214 1_555
S0 Y0 2.966227 1_555
S0 Y2 2.966231 1_555
S1 Si1 2.099797 1_554
S1 Y4 2.981184 1_555
S1 Y3 2.981191 1_555
S1 Y5 2.981192 1_555
S2 Y5 2.730579 1_555
S2 Y4 2.741505 1_455
S2 Y0 2.830214 1_555
S2 Y0 3.136063 1_554
S3 Y3 2.730579 1_455
S3 Y5 2.741505 1_565
S3 Y1 2.830217 1_555
S3 Y1 3.136066 1_554
S4 Y4 2.730579 1_565
S4 Y3 2.741505 1_555
S4 Y2 2.830214 1_555
S4 Y2 3.136063 1_554
S5 Y1 2.736346 1_655
S5 Y2 2.743694 1_555
S5 Y3 2.960999 1_556
S5 Y3 2.991448 1_555
S6 Y2 2.736343 1_545
S6 Y0 2.743704 1_655
S6 Y4 2.960996 1_556
S6 Y4 2.991445 1_555
S7 Y0 2.736328 1_555
S7 Y1 2.743713 1_545
S7 Y5 2.960999 1_556
S7 Y5 2.991448 1_555
S8 Si0 2.141324 1_555
S8 Y2 2.824240 1_554
S8 Y0 2.899758 1_554
S8 Y5 2.931448 1_555
S9 Si0 2.141315 1_555
S9 Y0 2.824245 1_554
S9 Y1 2.899758 1_554
S9 Y3 2.931449 1_455
S10 Si0 2.141317 1_555
S10 Y1 2.824237 1_554
S10 Y2 2.899766 1_554
S10 Y4 2.931448 1_565
S11 Si1 2.139435 1_555
S11 Y5 2.789546 1_555
S11 Y3 2.893253 1_555
S11 Y2 2.930958 1_555
S12 Si1 2.139435 1_555
S12 Y3 2.789551 1_555
S12 Y4 2.893252 1_555
S12 Y0 2.930958 1_655
S13 Si1 2.139435 1_555
S13 Y4 2.789542 1_555
S13 Y5 2.893260 1_555
S13 Y1 2.930958 1_545
