# generated using pymatgen
data_Te2MoWSeS
_symmetry_space_group_name_H-M   'P 1'
_cell_length_a   3.40133120
_cell_length_b   3.40133120
_cell_length_c   38.79183600
_cell_angle_alpha   90.00000000
_cell_angle_beta   90.00000000
_cell_angle_gamma   119.99998452
_symmetry_Int_Tables_number   1
_chemical_formula_structural   Te2MoWSeS
_chemical_formula_sum   'Te4 Mo2 W2 Se2 S2'
_cell_volume   388.65913632
_cell_formula_units_Z   2
loop_
 _symmetry_equiv_pos_site_id
 _symmetry_equiv_pos_as_xyz
  1  'x, y, z'
loop_
 _atom_site_type_symbol
 _atom_site_label
 _atom_site_symmetry_multiplicity
 _atom_site_fract_x
 _atom_site_fract_y
 _atom_site_fract_z
 _atom_site_occupancy
  Te  Te0  1  0.00000000  0.00000000  0.33020600  1
  Te  Te1  1  0.33333300  0.66666700  0.42121200  1
  Te  Te2  1  0.33333300  0.66666700  0.51819000  1
  Te  Te3  1  0.00000000  0.00000000  0.23323900  1
  Mo  Mo0  1  0.00000000  0.00000000  0.09395200  1
  Mo  Mo1  1  0.33333300  0.66666700  0.65753600  1
  W  W0  1  0.00000000  0.00000000  0.46972700  1
  W  W1  1  0.33333300  0.66666700  0.28173300  1
  Se  Se0  1  0.00000000  0.00000000  0.69997700  1
  Se  Se1  1  0.00000000  0.00000000  0.61510000  1
  S  S0  1  0.33333300  0.66666700  0.05516300  1
  S  S1  1  0.33333300  0.66666700  0.13271200  1
loop_
_geom_bond_atom_site_label_1
_geom_bond_atom_site_label_2
_geom_bond_distance
_geom_bond_site_symmetry_2
Te0 W1 2.718839 1_545
Te0 W1 2.718841 1_555
Te0 W1 2.718841 1_445
Te1 W0 2.719966 1_565
Te1 W0 2.719968 1_555
Te1 W0 2.719968 1_665
Te2 W0 2.718570 1_565
Te2 W0 2.718573 1_555
Te2 W0 2.718573 1_665
Te3 W1 2.719402 1_545
Te3 W1 2.719405 1_445
Te3 W1 2.719405 1_555
Mo0 S1 2.473271 1_545
Mo0 S1 2.473274 1_555
Mo0 S1 2.473274 1_445
Mo0 S0 2.473955 1_545
Mo0 S0 2.473958 1_555
Mo0 S0 2.473958 1_445
Mo1 Se1 2.562464 1_565
Mo1 Se1 2.562466 1_665
Mo1 Se1 2.562466 1_555
Mo1 Se0 2.562588 1_565
Mo1 Se0 2.562591 1_665
Mo1 Se0 2.562591 1_555
