# generated using pymatgen
data_MgSi2
_symmetry_space_group_name_H-M   'P 1'
_cell_length_a   5.22863097
_cell_length_b   5.22863097
_cell_length_c   12.24682311
_cell_angle_alpha   72.82107982
_cell_angle_beta   72.82107982
_cell_angle_gamma   39.74553268
_symmetry_Int_Tables_number   1
_chemical_formula_structural   MgSi2
_chemical_formula_sum   'Mg4 Si8'
_cell_volume   203.23975882
_cell_formula_units_Z   4
loop_
 _symmetry_equiv_pos_site_id
 _symmetry_equiv_pos_as_xyz
  1  'x, y, z'
loop_
 _atom_site_type_symbol
 _atom_site_label
 _atom_site_symmetry_multiplicity
 _atom_site_fract_x
 _atom_site_fract_y
 _atom_site_fract_z
 _atom_site_occupancy
  Mg  Mg0  1  0.60901900  0.60901900  0.16309700  1
  Mg  Mg1  1  0.95719100  0.95719100  0.80126600  1
  Mg  Mg2  1  0.63957500  0.63957500  0.58478300  1
  Mg  Mg3  1  0.12721900  0.12721900  0.37269600  1
  Si  Si0  1  0.26569600  0.26569600  0.97059700  1
  Si  Si1  1  0.33616700  0.33616700  0.15600000  1
  Si  Si2  1  0.86710100  0.86710100  0.29542400  1
  Si  Si3  1  0.26860600  0.26860600  0.72379700  1
  Si  Si4  1  0.98948800  0.98948800  0.01732500  1
  Si  Si5  1  0.64488100  0.64488100  0.88219700  1
  Si  Si6  1  0.91608400  0.91608400  0.58425000  1
  Si  Si7  1  0.38509900  0.38509900  0.44842700  1
loop_
_geom_bond_atom_site_label_1
_geom_bond_atom_site_label_2
_geom_bond_distance
_geom_bond_site_symmetry_2
Mg0 Si1 2.711924 1_555
Mg0 Si1 2.834602 1_565
Mg0 Si1 2.834602 1_655
Mg0 Si0 2.968077 1_564
Mg0 Si0 2.968077 1_654
Mg0 Si2 3.003990 1_545
Mg0 Si2 3.003990 1_455
Mg0 Si4 3.007695 1_545
Mg0 Si4 3.007695 1_455
Mg1 Si4 2.762299 1_556
Mg1 Si6 2.811046 1_555
Mg1 Si3 2.907692 1_665
Mg1 Si5 2.916140 1_555
Mg1 Si0 2.924585 1_655
Mg1 Si0 2.924585 1_565
Mg1 Si3 2.933283 1_655
Mg1 Si3 2.933283 1_565
Mg1 Si5 2.949193 1_655
Mg1 Si5 2.949193 1_565
Mg2 Si6 2.717293 1_555
Mg2 Si6 2.828256 1_455
Mg2 Si6 2.828256 1_545
Mg2 Si3 3.004123 1_565
Mg2 Si3 3.004123 1_655
Mg2 Si7 3.040623 1_565
Mg2 Si7 3.040623 1_655
Mg3 Si6 2.764956 1_445
Mg3 Si1 2.800022 1_555
Mg3 Si2 2.866675 1_545
Mg3 Si2 2.866675 1_455
Mg3 Si7 2.881309 1_455
Mg3 Si7 2.881309 1_545
Mg3 Si7 2.961347 1_555
Mg3 Si2 2.993361 1_445
Si0 Si5 2.559460 1_545
Si0 Si5 2.559460 1_455
Si0 Si1 2.573783 1_556
Si0 Si4 2.594182 1_446
Si1 Si2 2.548230 1_455
Si1 Si2 2.548230 1_545
Si1 Si4 2.590077 1_455
Si1 Si4 2.590077 1_545
Si2 Si7 2.628663 1_565
Si2 Si7 2.628663 1_655
Si3 Si6 2.574193 1_455
Si3 Si6 2.574193 1_545
Si3 Si5 2.630629 1_545
Si3 Si5 2.630629 1_455
Si4 Si5 2.577724 1_654
Si4 Si5 2.577724 1_564
Si6 Si7 2.517384 1_655
Si6 Si7 2.517384 1_565
