# generated using pymatgen
data_Te2Mo(WSe2)2
_symmetry_space_group_name_H-M   'P 1'
_cell_length_a   3.39225611
_cell_length_b   3.39225611
_cell_length_c   31.47442500
_cell_angle_alpha   90.00000000
_cell_angle_beta   90.00000000
_cell_angle_gamma   120.00000216
_symmetry_Int_Tables_number   1
_chemical_formula_structural   Te2Mo(WSe2)2
_chemical_formula_sum   'Te2 Mo1 W2 Se4'
_cell_volume   313.66473487
_cell_formula_units_Z   1
loop_
 _symmetry_equiv_pos_site_id
 _symmetry_equiv_pos_as_xyz
  1  'x, y, z'
loop_
 _atom_site_type_symbol
 _atom_site_label
 _atom_site_symmetry_multiplicity
 _atom_site_fract_x
 _atom_site_fract_y
 _atom_site_fract_z
 _atom_site_occupancy
  Te  Te0  1  0.00000000  0.00000000  0.05961600  1
  Te  Te1  1  0.00000000  0.00000000  0.94038400  1
  Mo  Mo0  1  0.33333300  0.66666700  0.00000000  1
  W  W0  1  0.00000000  0.00000000  0.76865000  1
  W  W1  1  0.00000000  0.00000000  0.23135000  1
  Se  Se0  1  0.33333300  0.66666700  0.71599600  1
  Se  Se1  1  0.33333300  0.66666700  0.17865100  1
  Se  Se2  1  0.33333300  0.66666700  0.82134900  1
  Se  Se3  1  0.33333300  0.66666700  0.28400400  1
loop_
_geom_bond_atom_site_label_1
_geom_bond_atom_site_label_2
_geom_bond_distance
_geom_bond_site_symmetry_2
Mo0 Te0 2.712304 1_565
Mo0 Te1 2.712304 1_564
Mo0 Te1 2.712306 1_554
Mo0 Te0 2.712306 1_555
Mo0 Te1 2.712306 1_664
Mo0 Te0 2.712306 1_665
Se0 W0 2.565596 1_565
Se0 W0 2.565599 1_555
Se0 W0 2.565599 1_665
Se1 W1 2.566512 1_565
Se1 W1 2.566514 1_665
Se1 W1 2.566514 1_555
Se2 W0 2.566512 1_565
Se2 W0 2.566514 1_665
Se2 W0 2.566514 1_555
Se3 W1 2.565596 1_565
Se3 W1 2.565599 1_665
Se3 W1 2.565599 1_555
