# generated using pymatgen
data_NaS2N(O2F)2
_symmetry_space_group_name_H-M   'P 1'
_cell_length_a   9.32339700
_cell_length_b   7.56191900
_cell_length_c   9.21056893
_cell_angle_alpha   73.49414731
_cell_angle_beta   90.00000000
_cell_angle_gamma   90.00000000
_symmetry_Int_Tables_number   1
_chemical_formula_structural   NaS2N(O2F)2
_chemical_formula_sum   'Na4 S8 N4 O16 F8'
_cell_volume   622.61055167
_cell_formula_units_Z   4
loop_
 _symmetry_equiv_pos_site_id
 _symmetry_equiv_pos_as_xyz
  1  'x, y, z'
loop_
 _atom_site_type_symbol
 _atom_site_label
 _atom_site_symmetry_multiplicity
 _atom_site_fract_x
 _atom_site_fract_y
 _atom_site_fract_z
 _atom_site_occupancy
  Na  Na0  1  0.48359600  0.24494900  0.06837200  1
  Na  Na1  1  0.01640400  0.24494900  0.56837200  1
  Na  Na2  1  0.51640400  0.75505100  0.93162800  1
  Na  Na3  1  0.98359600  0.75505100  0.43162800  1
  S  S0  1  0.72484500  0.13597400  0.38755800  1
  S  S1  1  0.77515500  0.13597400  0.88755800  1
  S  S2  1  0.27515500  0.86402600  0.61244200  1
  S  S3  1  0.22484500  0.86402600  0.11244200  1
  S  S4  1  0.71948100  0.52125100  0.27018900  1
  S  S5  1  0.78051900  0.52125100  0.77018900  1
  S  S6  1  0.28051900  0.47874900  0.72981100  1
  S  S7  1  0.21948100  0.47874900  0.22981100  1
  N  N0  1  0.79410700  0.33399100  0.35973200  1
  N  N1  1  0.70589300  0.33399100  0.85973200  1
  N  N2  1  0.20589300  0.66600900  0.64026800  1
  N  N3  1  0.29410700  0.66600900  0.14026800  1
  O  O0  1  0.63398200  0.10709300  0.27062600  1
  O  O1  1  0.86601800  0.10709300  0.77062600  1
  O  O2  1  0.36601800  0.89290700  0.72937400  1
  O  O3  1  0.13398200  0.89290700  0.22937400  1
  O  O4  1  0.63790300  0.51657100  0.13772200  1
  O  O5  1  0.86209700  0.51657100  0.63772200  1
  O  O6  1  0.36209700  0.48342900  0.86227800  1
  O  O7  1  0.13790300  0.48342900  0.36227800  1
  O  O8  1  0.83605100  0.00436300  0.44928600  1
  O  O9  1  0.66394900  0.00436300  0.94928600  1
  O  O10  1  0.16394900  0.99563700  0.55071400  1
  O  O11  1  0.33605100  0.99563700  0.05071400  1
  O  O12  1  0.82014700  0.66772500  0.25776900  1
  O  O13  1  0.67985300  0.66772500  0.75776900  1
  O  O14  1  0.17985300  0.33227500  0.74223100  1
  O  O15  1  0.32014700  0.33227500  0.24223100  1
  F  F0  1  0.61867500  0.12377500  0.52667000  1
  F  F1  1  0.88132500  0.12377500  0.02667000  1
  F  F2  1  0.38132500  0.87622500  0.47333000  1
  F  F3  1  0.11867500  0.87622500  0.97333000  1
  F  F4  1  0.59920600  0.55105400  0.38554900  1
  F  F5  1  0.90079400  0.55105400  0.88554900  1
  F  F6  1  0.40079400  0.44894600  0.61445100  1
  F  F7  1  0.09920600  0.44894600  0.11445100  1
loop_
_geom_bond_atom_site_label_1
_geom_bond_atom_site_label_2
_geom_bond_distance
_geom_bond_site_symmetry_2
Na0 O0 2.327971 1_555
Na0 O11 2.376402 1_545
Na0 O15 2.433824 1_555
Na0 O6 2.488672 1_554
Na0 O4 2.728025 1_555
Na0 O9 2.911055 1_554
Na1 O1 2.327971 1_455
Na1 O10 2.376402 1_545
Na1 O14 2.433824 1_555
Na1 O7 2.488672 1_555
Na1 O5 2.728025 1_455
Na1 O8 2.911055 1_455
Na2 O2 2.327971 1_555
Na2 O9 2.376402 1_565
Na2 O13 2.433824 1_555
Na2 O4 2.488672 1_556
Na2 O6 2.728025 1_555
Na2 O11 2.911055 1_556
Na3 O3 2.327971 1_655
Na3 O8 2.376402 1_565
Na3 O12 2.433824 1_555
Na3 O5 2.488672 1_555
Na3 O7 2.728025 1_655
Na3 O10 2.911055 1_655
N0 S4 1.582991 1_555
N0 S0 1.583285 1_555
N0 Na1 2.776067 1_655
N1 S5 1.582991 1_555
N1 S1 1.583285 1_555
N1 Na0 2.776067 1_556
N2 S6 1.582991 1_555
N2 S2 1.583285 1_555
N2 Na3 2.776067 1_455
N3 S7 1.582991 1_555
N3 S3 1.583285 1_555
N3 Na2 2.776067 1_554
O0 S0 1.434911 1_555
O1 S1 1.434911 1_555
O2 S2 1.434911 1_555
O3 S3 1.434911 1_555
O4 S4 1.446690 1_555
O5 S5 1.446690 1_555
O6 S6 1.446690 1_555
O7 S7 1.446690 1_555
O8 S0 1.437777 1_555
O9 S1 1.437777 1_555
O10 S2 1.437777 1_555
O11 S3 1.437777 1_555
O12 S4 1.431361 1_555
O13 S5 1.431361 1_555
O14 S6 1.431361 1_555
O15 S7 1.431361 1_555
F0 S0 1.600909 1_555
F1 S1 1.600909 1_554
F2 S2 1.600909 1_555
F3 S3 1.600909 1_556
F4 S4 1.604153 1_555
F5 S5 1.604153 1_555
F6 S6 1.604153 1_555
F7 S7 1.604153 1_555
