# generated using pymatgen
data_Li4MnCo2O7
_symmetry_space_group_name_H-M   'P 1'
_cell_length_a   6.49516087
_cell_length_b   6.49516087
_cell_length_c   14.46322459
_cell_angle_alpha   71.15186749
_cell_angle_beta   71.15186749
_cell_angle_gamma   26.60554654
_symmetry_Int_Tables_number   1
_chemical_formula_structural   Li4MnCo2O7
_chemical_formula_sum   'Li8 Mn2 Co4 O14'
_cell_volume   257.76193897
_cell_formula_units_Z   2
loop_
 _symmetry_equiv_pos_site_id
 _symmetry_equiv_pos_as_xyz
  1  'x, y, z'
loop_
 _atom_site_type_symbol
 _atom_site_label
 _atom_site_symmetry_multiplicity
 _atom_site_fract_x
 _atom_site_fract_y
 _atom_site_fract_z
 _atom_site_occupancy
  Li  Li0  1  0.50000000  0.50000000  0.00000000  1
  Li  Li1  1  0.06466700  0.06466700  0.15290800  1
  Li  Li2  1  0.63684700  0.63684700  0.29926100  1
  Li  Li3  1  0.93533300  0.93533300  0.84709200  1
  Li  Li4  1  0.36315300  0.36315300  0.70073900  1
  Li  Li5  1  0.21035300  0.21035300  0.43176700  1
  Li  Li6  1  0.78964700  0.78964700  0.56823300  1
  Li  Li7  1  0.50000000  0.50000000  0.50000000  1
  Mn  Mn0  1  0.21195900  0.21195900  0.92731900  1
  Mn  Mn1  1  0.78804100  0.78804100  0.07268100  1
  Co  Co0  1  0.36146200  0.36146200  0.22315200  1
  Co  Co1  1  0.93111400  0.93111400  0.37011300  1
  Co  Co2  1  0.06888600  0.06888600  0.62988700  1
  Co  Co3  1  0.63853800  0.63853800  0.77684800  1
  O  O0  1  0.65607300  0.65607300  0.02689600  1
  O  O1  1  0.22753900  0.22753900  0.16376700  1
  O  O2  1  0.79293600  0.79293600  0.31349500  1
  O  O3  1  0.08171900  0.08171900  0.89278400  1
  O  O4  1  0.50528300  0.50528300  0.75288400  1
  O  O5  1  0.36043400  0.36043400  0.45626900  1
  O  O6  1  0.93503800  0.93503800  0.61243900  1
  O  O7  1  0.34392700  0.34392700  0.97310400  1
  O  O8  1  0.91828100  0.91828100  0.10721600  1
  O  O9  1  0.49471700  0.49471700  0.24711600  1
  O  O10  1  0.77246100  0.77246100  0.83623300  1
  O  O11  1  0.20706400  0.20706400  0.68650500  1
  O  O12  1  0.06496200  0.06496200  0.38756100  1
  O  O13  1  0.63956600  0.63956600  0.54373100  1
loop_
_geom_bond_atom_site_label_1
_geom_bond_atom_site_label_2
_geom_bond_distance
_geom_bond_site_symmetry_2
Li0 O7 2.133960 1_554
Li0 O0 2.133960 1_555
Li0 O8 2.154494 1_545
Li0 O8 2.154494 1_455
Li0 O3 2.154494 1_654
Li0 O3 2.154494 1_564
Li1 O9 2.017950 1_455
Li1 O9 2.017950 1_545
Li1 O1 2.116319 1_555
Li1 O8 2.161789 1_445
Li1 O0 2.343551 1_545
Li1 O0 2.343551 1_455
Li2 O12 1.979863 1_655
Li2 O12 1.979863 1_565
Li2 O2 2.050797 1_555
Li2 O9 2.167231 1_555
Li2 O1 2.428308 1_655
Li2 O1 2.428308 1_565
Li3 O4 2.017950 1_565
Li3 O4 2.017950 1_655
Li3 O10 2.116319 1_555
Li3 O3 2.161789 1_665
Li3 O7 2.343551 1_565
Li3 O7 2.343551 1_655
Li4 O6 1.979863 1_545
Li4 O6 1.979863 1_455
Li4 O11 2.050797 1_555
Li4 O4 2.167231 1_555
Li4 O10 2.428308 1_545
Li4 O10 2.428308 1_455
Li5 O5 2.042471 1_555
Li5 O12 2.137111 1_555
Li5 O13 2.166698 1_455
Li5 O13 2.166698 1_545
Li5 O2 2.250321 1_545
Li5 O2 2.250321 1_455
Li6 O13 2.042471 1_555
Li6 O6 2.137111 1_555
Li6 O5 2.166698 1_655
Li6 O5 2.166698 1_565
Li6 O11 2.250321 1_655
Li6 O11 2.250321 1_565
Li7 O13 2.062505 1_555
Li7 O5 2.062505 1_555
Li7 O12 2.160077 1_655
Li7 O12 2.160077 1_565
Li7 O6 2.160077 1_455
Li7 O6 2.160077 1_545
Mn0 O3 1.872523 1_555
Mn0 O10 1.971071 1_545
Mn0 O10 1.971071 1_455
Mn0 O7 1.988779 1_555
Mn0 O0 2.032572 1_456
Mn0 O0 2.032572 1_546
Mn1 O8 1.872523 1_555
Mn1 O1 1.971071 1_655
Mn1 O1 1.971071 1_565
Mn1 O0 1.988779 1_555
Mn1 O7 2.032572 1_654
Mn1 O7 2.032572 1_564
Co0 O9 1.829094 1_555
Co0 O2 1.984902 1_545
Co0 O2 1.984902 1_455
Co0 O1 2.137636 1_555
Co0 O8 2.182095 1_545
Co0 O8 2.182095 1_455
Co1 O12 1.791731 1_665
Co1 O5 1.960987 1_655
Co1 O5 1.960987 1_565
Co1 O2 2.161396 1_555
Co1 O9 2.257214 1_565
Co1 O9 2.257214 1_655
Co2 O6 1.791731 1_445
Co2 O13 1.960987 1_455
Co2 O13 1.960987 1_545
Co2 O11 2.161396 1_555
Co2 O4 2.257214 1_455
Co2 O4 2.257214 1_545
Co3 O4 1.829094 1_555
Co3 O11 1.984902 1_655
Co3 O11 1.984902 1_565
Co3 O10 2.137636 1_555
Co3 O3 2.182095 1_565
Co3 O3 2.182095 1_655
