# generated using pymatgen
data_Cs2CuBr4
_symmetry_space_group_name_H-M   'P 1'
_cell_length_a   7.98721348
_cell_length_b   10.28151007
_cell_length_c   12.95183472
_cell_angle_alpha   90.00000000
_cell_angle_beta   90.00000000
_cell_angle_gamma   90.00000000
_symmetry_Int_Tables_number   1
_chemical_formula_structural   Cs2CuBr4
_chemical_formula_sum   'Cs8 Cu4 Br16'
_cell_volume   1063.61264328
_cell_formula_units_Z   4
loop_
 _symmetry_equiv_pos_site_id
 _symmetry_equiv_pos_as_xyz
  1  'x, y, z'
loop_
 _atom_site_type_symbol
 _atom_site_label
 _atom_site_symmetry_multiplicity
 _atom_site_fract_x
 _atom_site_fract_y
 _atom_site_fract_z
 _atom_site_occupancy
  Cs  Cs0  1  0.75000000  0.37406740  0.60501639  1
  Cs  Cs1  1  0.75000000  0.87406740  0.89498361  1
  Cs  Cs2  1  0.25000000  0.62593260  0.39498361  1
  Cs  Cs3  1  0.25000000  0.12593260  0.10501639  1
  Cs  Cs4  1  0.75000000  0.49261502  0.16643652  1
  Cs  Cs5  1  0.75000000  0.99261502  0.33356348  1
  Cs  Cs6  1  0.25000000  0.50738498  0.83356348  1
  Cs  Cs7  1  0.25000000  0.00738498  0.66643652  1
  Cu  Cu0  1  0.75000000  0.26919488  0.91850819  1
  Cu  Cu1  1  0.75000000  0.76919488  0.58149181  1
  Cu  Cu2  1  0.25000000  0.73080512  0.08149181  1
  Cu  Cu3  1  0.25000000  0.23080512  0.41850819  1
  Br  Br0  1  0.75000000  0.49719306  0.87859945  1
  Br  Br1  1  0.75000000  0.99719306  0.62140055  1
  Br  Br2  1  0.25000000  0.50280694  0.12140055  1
  Br  Br3  1  0.25000000  0.00280694  0.37859945  1
  Br  Br4  1  0.75000000  0.15529275  0.07957092  1
  Br  Br5  1  0.75000000  0.65529275  0.42042908  1
  Br  Br6  1  0.25000000  0.84470725  0.92042908  1
  Br  Br7  1  0.25000000  0.34470725  0.57957092  1
  Br  Br8  1  0.48340099  0.20533120  0.85651650  1
  Br  Br9  1  0.01659901  0.70533120  0.64348350  1
  Br  Br10  1  0.98340099  0.79466880  0.14348350  1
  Br  Br11  1  0.51659901  0.29466880  0.35651650  1
  Br  Br12  1  0.51659901  0.79466880  0.14348350  1
  Br  Br13  1  0.98340099  0.29466880  0.35651650  1
  Br  Br14  1  0.01659901  0.20533120  0.85651650  1
  Br  Br15  1  0.48340099  0.70533120  0.64348350  1
loop_
_geom_bond_atom_site_label_1
_geom_bond_atom_site_label_2
_geom_bond_distance
_geom_bond_site_symmetry_2
Cs0 Cu1 4.073917 1_555
Cs0 Cu0 4.201024 1_555
Cs1 Cu0 4.073917 1_565
Cs1 Cu1 4.201024 1_555
Cs2 Cu3 4.073917 1_555
Cs2 Cu2 4.201024 1_555
Cs3 Cu2 4.073917 1_545
Cs3 Cu3 4.201024 1_555
Br0 Cu0 2.400477 1_555
Br0 Cs4 3.728315 1_556
Br0 Cs0 3.762745 1_555
Br0 Cs1 3.880644 1_555
Br0 Cs6 4.037340 1_555
Br0 Cs6 4.037340 1_655
Br1 Cu1 2.400477 1_555
Br1 Cs5 3.728315 1_555
Br1 Cs1 3.762745 1_555
Br1 Cs0 3.880644 1_565
Br1 Cs7 4.037340 1_565
Br1 Cs7 4.037340 1_665
Br2 Cu2 2.400477 1_555
Br2 Cs6 3.728315 1_554
Br2 Cs2 3.762745 1_555
Br2 Cs3 3.880644 1_555
Br2 Cs4 4.037340 1_455
Br2 Cs4 4.037340 1_555
Br3 Cu3 2.400477 1_555
Br3 Cs7 3.728315 1_555
Br3 Cs3 3.762745 1_555
Br3 Cs2 3.880644 1_545
Br3 Cs5 4.037340 1_545
Br3 Cs5 4.037340 1_445
Br4 Cu0 2.392296 1_554
Br4 Cs4 3.646103 1_555
Br4 Cs5 3.690451 1_545
Br4 Cs1 3.751796 1_544
Br4 Cs3 4.018536 1_655
Br4 Cs3 4.018536 1_555
Br5 Cu1 2.392296 1_555
Br5 Cs5 3.646103 1_555
Br5 Cs4 3.690451 1_555
Br5 Cs0 3.751796 1_555
Br5 Cs2 4.018536 1_655
Br5 Cs2 4.018536 1_555
Br6 Cu2 2.392296 1_556
Br6 Cs6 3.646103 1_555
Br6 Cs7 3.690451 1_565
Br6 Cs3 3.751796 1_566
Br6 Cs1 4.018536 1_555
Br6 Cs1 4.018536 1_455
Br7 Cu3 2.392296 1_555
Br7 Cs7 3.646103 1_555
Br7 Cs6 3.690451 1_555
Br7 Cs2 3.751796 1_555
Br7 Cs0 4.018536 1_555
Br7 Cs0 4.018536 1_455
Br8 Cu0 2.368560 1_555
Br8 Cs6 3.634318 1_555
Br8 Cs7 3.698403 1_555
Br8 Cs3 3.807974 1_556
Br8 Cs1 4.047542 1_545
Br8 Cs0 4.260821 1_555
Br9 Cu1 2.368560 1_455
Br9 Cs7 3.634318 1_565
Br9 Cs6 3.698403 1_555
Br9 Cs2 3.807974 1_555
Br9 Cs0 4.047542 1_455
Br9 Cs1 4.260821 1_455
Br10 Cu2 2.368560 1_655
Br10 Cs4 3.634318 1_555
Br10 Cs5 3.698403 1_555
Br10 Cs1 3.807974 1_554
Br10 Cs3 4.047542 1_665
Br10 Cs2 4.260821 1_655
Br11 Cu3 2.368560 1_555
Br11 Cs5 3.634318 1_545
Br11 Cs4 3.698403 1_555
Br11 Cs0 3.807974 1_555
Br11 Cs2 4.047542 1_555
Br11 Cs3 4.260821 1_555
Br12 Cu2 2.368560 1_555
Br12 Cs4 3.634318 1_555
Br12 Cs5 3.698403 1_555
Br12 Cs1 3.807974 1_554
Br12 Cs3 4.047542 1_565
Br12 Cs2 4.260821 1_555
Br13 Cu3 2.368560 1_655
Br13 Cs5 3.634318 1_545
Br13 Cs4 3.698403 1_555
Br13 Cs0 3.807974 1_555
Br13 Cs2 4.047542 1_655
Br13 Cs3 4.260821 1_655
Br14 Cu0 2.368560 1_455
Br14 Cs6 3.634318 1_555
Br14 Cs7 3.698403 1_555
Br14 Cs3 3.807974 1_556
Br14 Cs1 4.047542 1_445
Br14 Cs0 4.260821 1_455
Br15 Cu1 2.368560 1_555
Br15 Cs7 3.634318 1_565
Br15 Cs6 3.698403 1_555
Br15 Cs2 3.807974 1_555
Br15 Cs0 4.047542 1_555
Br15 Cs1 4.260821 1_555
