# generated using pymatgen
data_AlH5(SeO4)2
_symmetry_space_group_name_H-M   'P 1'
_cell_length_a   6.58543700
_cell_length_b   7.48787800
_cell_length_c   8.93460454
_cell_angle_alpha   54.01979658
_cell_angle_beta   90.00000000
_cell_angle_gamma   90.00000000
_symmetry_Int_Tables_number   1
_chemical_formula_structural   AlH5(SeO4)2
_chemical_formula_sum   'Al2 H10 Se4 O16'
_cell_volume   356.52116803
_cell_formula_units_Z   2
loop_
 _symmetry_equiv_pos_site_id
 _symmetry_equiv_pos_as_xyz
  1  'x, y, z'
loop_
 _atom_site_type_symbol
 _atom_site_label
 _atom_site_symmetry_multiplicity
 _atom_site_fract_x
 _atom_site_fract_y
 _atom_site_fract_z
 _atom_site_occupancy
  Al  Al0  1  0.00000000  0.00000000  0.00000000  1
  Al  Al1  1  0.50000000  0.00000000  0.50000000  1
  H  H0  1  0.25510200  0.68558000  0.09078300  1
  H  H1  1  0.74489800  0.31442000  0.90921700  1
  H  H2  1  0.75510200  0.31442000  0.40921700  1
  H  H3  1  0.24489800  0.68558000  0.59078300  1
  H  H4  1  0.00000000  0.50000000  0.50000000  1
  H  H5  1  0.50000000  0.50000000  0.00000000  1
  H  H6  1  0.71910500  0.30671600  0.23538200  1
  H  H7  1  0.28089500  0.69328400  0.76461800  1
  H  H8  1  0.21910500  0.69328400  0.26461800  1
  H  H9  1  0.78089500  0.30671600  0.73538200  1
  Se  Se0  1  0.69792400  0.74533800  0.34559000  1
  Se  Se1  1  0.30207600  0.25466200  0.65441000  1
  Se  Se2  1  0.19792400  0.25466200  0.15441000  1
  Se  Se3  1  0.80207600  0.74533800  0.84559000  1
  O  O0  1  0.22276700  0.78493500  0.12739500  1
  O  O1  1  0.77723300  0.21506500  0.87260500  1
  O  O2  1  0.72276700  0.21506500  0.37260500  1
  O  O3  1  0.27723300  0.78493500  0.62739500  1
  O  O4  1  0.83567200  0.77888700  0.01797200  1
  O  O5  1  0.16432800  0.22111300  0.98202800  1
  O  O6  1  0.33567200  0.22111300  0.48202800  1
  O  O7  1  0.66432800  0.77888700  0.51797200  1
  O  O8  1  0.81837600  0.48283000  0.48114800  1
  O  O9  1  0.18162400  0.51717000  0.51885200  1
  O  O10  1  0.31837600  0.51717000  0.01885200  1
  O  O11  1  0.68162400  0.48283000  0.98114800  1
  O  O12  1  0.90263900  0.91700000  0.23066800  1
  O  O13  1  0.09736100  0.08300000  0.76933200  1
  O  O14  1  0.40263900  0.08300000  0.26933200  1
  O  O15  1  0.59736100  0.91700000  0.73066800  1
loop_
_geom_bond_atom_site_label_1
_geom_bond_atom_site_label_2
_geom_bond_distance
_geom_bond_site_symmetry_2
Al0 O12 1.881423 1_445
Al0 O13 1.881423 1_554
Al0 O5 1.904135 1_554
Al0 O4 1.904135 1_445
Al0 O1 1.971613 1_454
Al0 O0 1.971613 1_545
Al1 O15 1.881423 1_545
Al1 O14 1.881423 1_555
Al1 O6 1.904135 1_555
Al1 O7 1.904135 1_545
Al1 O2 1.971613 1_555
Al1 O3 1.971613 1_545
H0 O0 0.995877 1_555
H1 O1 0.995877 1_555
H2 O2 0.995877 1_555
H3 O3 0.995877 1_555
H4 O9 1.225127 1_555
H4 O8 1.225127 1_455
H5 O10 1.225127 1_555
H5 O11 1.225127 1_554
H6 O2 0.993007 1_555
H7 O3 0.993007 1_555
H8 O0 0.993007 1_555
H9 O1 0.993007 1_555
O4 Se3 1.714288 1_554
O5 Se2 1.714288 1_556
O6 Se1 1.714288 1_555
O7 Se0 1.714288 1_555
O8 Se0 1.778335 1_555
O9 Se1 1.778335 1_555
O10 Se2 1.778335 1_555
O11 Se3 1.778335 1_555
O12 Se0 1.724291 1_555
O13 Se1 1.724291 1_555
O14 Se2 1.724291 1_555
O15 Se3 1.724291 1_555
