# generated using pymatgen
data_BaSeO4
_symmetry_space_group_name_H-M   'P 1'
_cell_length_a   5.69226862
_cell_length_b   7.40285603
_cell_length_c   9.09971333
_cell_angle_alpha   90.00000000
_cell_angle_beta   90.00000000
_cell_angle_gamma   90.00000000
_symmetry_Int_Tables_number   1
_chemical_formula_structural   BaSeO4
_chemical_formula_sum   'Ba4 Se4 O16'
_cell_volume   383.45323021
_cell_formula_units_Z   4
loop_
 _symmetry_equiv_pos_site_id
 _symmetry_equiv_pos_as_xyz
  1  'x, y, z'
loop_
 _atom_site_type_symbol
 _atom_site_label
 _atom_site_symmetry_multiplicity
 _atom_site_fract_x
 _atom_site_fract_y
 _atom_site_fract_z
 _atom_site_occupancy
  Ba  Ba0  1  0.25000000  0.34231200  0.68231527  1
  Ba  Ba1  1  0.75000000  0.65768800  0.31768473  1
  Ba  Ba2  1  0.75000000  0.84231200  0.81768473  1
  Ba  Ba3  1  0.25000000  0.15768800  0.18231527  1
  Se  Se0  1  0.25000000  0.81442804  0.56391439  1
  Se  Se1  1  0.75000000  0.18557196  0.43608561  1
  Se  Se2  1  0.75000000  0.31442804  0.93608561  1
  Se  Se3  1  0.25000000  0.68557196  0.06391439  1
  O  O0  1  0.51486813  0.31661774  0.41877453  1
  O  O1  1  0.01486813  0.68338226  0.58122547  1
  O  O2  1  0.48513187  0.81661774  0.08122547  1
  O  O3  1  0.98513187  0.18338226  0.91877453  1
  O  O4  1  0.48513187  0.68338226  0.58122547  1
  O  O5  1  0.98513187  0.31661774  0.41877453  1
  O  O6  1  0.51486813  0.18338226  0.91877453  1
  O  O7  1  0.01486813  0.81661774  0.08122547  1
  O  O8  1  0.25000000  0.59300065  0.89981023  1
  O  O9  1  0.75000000  0.40699935  0.10018977  1
  O  O10  1  0.75000000  0.09300065  0.60018977  1
  O  O11  1  0.25000000  0.90699935  0.39981023  1
  O  O12  1  0.25000000  0.53756985  0.19957090  1
  O  O13  1  0.75000000  0.46243015  0.80042910  1
  O  O14  1  0.75000000  0.03756985  0.30042910  1
  O  O15  1  0.25000000  0.96243015  0.69957090  1
loop_
_geom_bond_atom_site_label_1
_geom_bond_atom_site_label_2
_geom_bond_distance
_geom_bond_site_symmetry_2
Ba0 O8 2.713124 1_555
Ba0 O15 2.816591 1_545
Ba0 O5 2.839092 1_455
Ba0 O0 2.839092 1_555
Ba0 O6 2.878759 1_555
Ba0 O3 2.878759 1_455
Ba0 O1 3.002114 1_555
Ba0 O4 3.002114 1_555
Ba0 O13 3.169604 1_555
Ba0 O13 3.169604 1_455
Ba1 O9 2.713124 1_555
Ba1 O14 2.816591 1_565
Ba1 O4 2.839092 1_555
Ba1 O1 2.839092 1_655
Ba1 O7 2.878759 1_655
Ba1 O2 2.878759 1_555
Ba1 O0 3.002114 1_555
Ba1 O5 3.002114 1_555
Ba1 O12 3.169604 1_555
Ba1 O12 3.169604 1_655
Ba2 O10 2.713124 1_565
Ba2 O13 2.816591 1_555
Ba2 O7 2.839092 1_656
Ba2 O2 2.839092 1_556
Ba2 O4 2.878759 1_555
Ba2 O1 2.878759 1_655
Ba2 O3 3.002114 1_565
Ba2 O6 3.002114 1_565
Ba2 O15 3.169604 1_655
Ba2 O15 3.169604 1_555
Ba3 O11 2.713124 1_545
Ba3 O12 2.816591 1_555
Ba3 O3 2.839092 1_454
Ba3 O6 2.839092 1_554
Ba3 O0 2.878759 1_555
Ba3 O5 2.878759 1_455
Ba3 O7 3.002114 1_545
Ba3 O2 3.002114 1_545
Ba3 O14 3.169604 1_455
Ba3 O14 3.169604 1_555
O0 Se1 1.660524 1_555
O1 Se0 1.660524 1_555
O2 Se3 1.660524 1_555
O3 Se2 1.660524 1_555
O4 Se0 1.660524 1_555
O5 Se1 1.660524 1_555
O6 Se2 1.660524 1_555
O7 Se3 1.660524 1_555
O8 Se3 1.643038 1_556
O9 Se2 1.643038 1_554
O10 Se1 1.643038 1_555
O11 Se0 1.643038 1_555
O12 Se3 1.650531 1_555
O13 Se2 1.650531 1_555
O14 Se1 1.650531 1_555
O15 Se0 1.650531 1_555
