# generated using pymatgen
data_Zn10Co(B4Rh9)2
_symmetry_space_group_name_H-M   'P 1'
_cell_length_a   17.91422000
_cell_length_b   17.91422000
_cell_length_c   2.87869500
_cell_angle_alpha   90.00000000
_cell_angle_beta   90.00000000
_cell_angle_gamma   90.00000000
_symmetry_Int_Tables_number   1
_chemical_formula_structural   Zn10Co(B4Rh9)2
_chemical_formula_sum   'Zn20 Co2 B16 Rh36'
_cell_volume   923.82872158
_cell_formula_units_Z   2
loop_
 _symmetry_equiv_pos_site_id
 _symmetry_equiv_pos_as_xyz
  1  'x, y, z'
loop_
 _atom_site_type_symbol
 _atom_site_label
 _atom_site_symmetry_multiplicity
 _atom_site_fract_x
 _atom_site_fract_y
 _atom_site_fract_z
 _atom_site_occupancy
  Zn  Zn0  1  0.55005600  0.05005600  0.00000000  1
  Zn  Zn1  1  0.44994400  0.94994400  0.00000000  1
  Zn  Zn2  1  0.05005600  0.44994400  0.00000000  1
  Zn  Zn3  1  0.94994400  0.55005600  0.00000000  1
  Zn  Zn4  1  0.03177900  0.18752900  0.00000000  1
  Zn  Zn5  1  0.96822100  0.81247100  0.00000000  1
  Zn  Zn6  1  0.18752900  0.96822100  0.00000000  1
  Zn  Zn7  1  0.53177900  0.31247100  0.00000000  1
  Zn  Zn8  1  0.81247100  0.03177900  0.00000000  1
  Zn  Zn9  1  0.46822100  0.68752900  0.00000000  1
  Zn  Zn10  1  0.68752900  0.53177900  0.00000000  1
  Zn  Zn11  1  0.31247100  0.46822100  0.00000000  1
  Zn  Zn12  1  0.20941800  0.70941800  0.00000000  1
  Zn  Zn13  1  0.79058200  0.29058200  0.00000000  1
  Zn  Zn14  1  0.70941800  0.79058200  0.00000000  1
  Zn  Zn15  1  0.29058200  0.20941800  0.00000000  1
  Zn  Zn16  1  0.66891900  0.16891900  0.00000000  1
  Zn  Zn17  1  0.33108100  0.83108100  0.00000000  1
  Zn  Zn18  1  0.16891900  0.33108100  0.00000000  1
  Zn  Zn19  1  0.83108100  0.66891900  0.00000000  1
  Co  Co0  1  0.00000000  0.00000000  0.00000000  1
  Co  Co1  1  0.50000000  0.50000000  0.00000000  1
  B  B0  1  0.33409900  0.03883000  0.00000000  1
  B  B1  1  0.66590100  0.96117000  0.00000000  1
  B  B2  1  0.03883000  0.66590100  0.00000000  1
  B  B3  1  0.83409900  0.46117000  0.00000000  1
  B  B4  1  0.96117000  0.33409900  0.00000000  1
  B  B5  1  0.16590100  0.53883000  0.00000000  1
  B  B6  1  0.53883000  0.83409900  0.00000000  1
  B  B7  1  0.46117000  0.16590100  0.00000000  1
  B  B8  1  0.16661900  0.12413500  0.00000000  1
  B  B9  1  0.83338100  0.87586500  0.00000000  1
  B  B10  1  0.12413500  0.83338100  0.00000000  1
  B  B11  1  0.66661900  0.37586500  0.00000000  1
  B  B12  1  0.87586500  0.16661900  0.00000000  1
  B  B13  1  0.33338100  0.62413500  0.00000000  1
  B  B14  1  0.62413500  0.66661900  0.00000000  1
  B  B15  1  0.37586500  0.33338100  0.00000000  1
  Rh  Rh0  1  0.25519000  0.08760100  0.50000000  1
  Rh  Rh1  1  0.74481000  0.91239900  0.50000000  1
  Rh  Rh2  1  0.08760100  0.74481000  0.50000000  1
  Rh  Rh3  1  0.75519000  0.41239900  0.50000000  1
  Rh  Rh4  1  0.91239900  0.25519000  0.50000000  1
  Rh  Rh5  1  0.24481000  0.58760100  0.50000000  1
  Rh  Rh6  1  0.58760100  0.75519000  0.50000000  1
  Rh  Rh7  1  0.41239900  0.24481000  0.50000000  1
  Rh  Rh8  1  0.04776800  0.32609000  0.50000000  1
  Rh  Rh9  1  0.95223200  0.67391000  0.50000000  1
  Rh  Rh10  1  0.32609000  0.95223200  0.50000000  1
  Rh  Rh11  1  0.54776800  0.17391000  0.50000000  1
  Rh  Rh12  1  0.67391000  0.04776800  0.50000000  1
  Rh  Rh13  1  0.45223200  0.82609000  0.50000000  1
  Rh  Rh14  1  0.82609000  0.54776800  0.50000000  1
  Rh  Rh15  1  0.17391000  0.45223200  0.50000000  1
  Rh  Rh16  1  0.15972300  0.21091100  0.50000000  1
  Rh  Rh17  1  0.84027700  0.78908900  0.50000000  1
  Rh  Rh18  1  0.21091100  0.84027700  0.50000000  1
  Rh  Rh19  1  0.65972300  0.28908900  0.50000000  1
  Rh  Rh20  1  0.78908900  0.15972300  0.50000000  1
  Rh  Rh21  1  0.34027700  0.71091100  0.50000000  1
  Rh  Rh22  1  0.71091100  0.65972300  0.50000000  1
  Rh  Rh23  1  0.28908900  0.34027700  0.50000000  1
  Rh  Rh24  1  0.09878300  0.06675500  0.50000000  1
  Rh  Rh25  1  0.90121700  0.93324500  0.50000000  1
  Rh  Rh26  1  0.06675500  0.90121700  0.50000000  1
  Rh  Rh27  1  0.59878300  0.43324500  0.50000000  1
  Rh  Rh28  1  0.93324500  0.09878300  0.50000000  1
  Rh  Rh29  1  0.40121700  0.56675500  0.50000000  1
  Rh  Rh30  1  0.56675500  0.59878300  0.50000000  1
  Rh  Rh31  1  0.43324500  0.40121700  0.50000000  1
  Rh  Rh32  1  0.08247800  0.58247800  0.50000000  1
  Rh  Rh33  1  0.91752200  0.41752200  0.50000000  1
  Rh  Rh34  1  0.58247800  0.91752200  0.50000000  1
  Rh  Rh35  1  0.41752200  0.08247800  0.50000000  1
loop_
_geom_bond_atom_site_label_1
_geom_bond_atom_site_label_2
_geom_bond_distance
_geom_bond_site_symmetry_2
Zn0 Zn1 2.536291 1_545
Zn2 Zn3 2.536291 1_455
Co0 Rh28 2.575533 1_454
Co0 Rh24 2.575533 1_554
Co0 Rh24 2.575533 1_555
Co0 Rh28 2.575533 1_455
Co0 Rh25 2.575533 1_445
Co0 Rh26 2.575533 1_544
Co0 Rh26 2.575533 1_545
Co0 Rh25 2.575533 1_444
Co1 Rh27 2.575533 1_555
Co1 Rh27 2.575533 1_554
Co1 Rh30 2.575533 1_555
Co1 Rh30 2.575533 1_554
Co1 Rh29 2.575533 1_555
Co1 Rh31 2.575533 1_554
Co1 Rh31 2.575533 1_555
Co1 Rh29 2.575533 1_554
B0 Rh10 2.121072 1_545
B0 Rh10 2.121072 1_544
B0 Rh0 2.198479 1_554
B0 Rh0 2.198479 1_555
B0 Rh35 2.217324 1_555
B0 Rh35 2.217324 1_554
B0 Zn1 2.615770 1_545
B1 Rh12 2.121072 1_564
B1 Rh12 2.121072 1_565
B1 Rh1 2.198479 1_555
B1 Rh1 2.198479 1_554
B1 Rh34 2.217324 1_555
B1 Rh34 2.217324 1_554
B1 Zn0 2.615770 1_565
B2 Rh9 2.121072 1_454
B2 Rh9 2.121072 1_455
B2 Rh2 2.198479 1_555
B2 Rh2 2.198479 1_554
B2 Rh32 2.217324 1_554
B2 Rh32 2.217324 1_555
B2 Zn3 2.615770 1_455
B3 Rh14 2.121072 1_554
B3 Rh14 2.121072 1_555
B3 Rh3 2.198479 1_555
B3 Rh3 2.198479 1_554
B3 Rh33 2.217324 1_554
B3 Rh33 2.217324 1_555
B3 Zn3 2.615770 1_555
B4 Rh8 2.121072 1_655
B4 Rh8 2.121072 1_654
B4 Rh4 2.198479 1_554
B4 Rh4 2.198479 1_555
B4 Rh33 2.217324 1_554
B4 Rh33 2.217324 1_555
B4 Zn2 2.615770 1_655
B5 Rh15 2.121072 1_554
B5 Rh15 2.121072 1_555
B5 Rh5 2.198479 1_555
B5 Rh5 2.198479 1_554
B5 Rh32 2.217324 1_555
B5 Rh32 2.217324 1_554
B5 Zn2 2.615770 1_555
B6 Rh13 2.121072 1_555
B6 Rh13 2.121072 1_554
B6 Rh6 2.198479 1_555
B6 Rh6 2.198479 1_554
B6 Rh34 2.217324 1_554
B6 Rh34 2.217324 1_555
B6 Zn1 2.615770 1_555
B7 Rh11 2.121072 1_554
B7 Rh11 2.121072 1_555
B7 Rh7 2.198479 1_554
B7 Rh7 2.198479 1_555
B7 Rh35 2.217324 1_554
B7 Rh35 2.217324 1_555
B7 Zn0 2.615770 1_555
B8 Rh16 2.122152 1_555
B8 Rh16 2.122152 1_554
B8 Rh24 2.145954 1_554
B8 Rh24 2.145954 1_555
B8 Rh0 2.240004 1_554
B8 Rh0 2.240004 1_555
B8 Zn4 2.669196 1_555
B9 Rh17 2.122152 1_554
B9 Rh17 2.122152 1_555
B9 Rh25 2.145954 1_555
B9 Rh25 2.145954 1_554
B9 Rh1 2.240004 1_555
B9 Rh1 2.240004 1_554
B9 Zn5 2.669196 1_555
B10 Rh18 2.122152 1_554
B10 Rh18 2.122152 1_555
B10 Rh26 2.145954 1_554
B10 Rh26 2.145954 1_555
B10 Rh2 2.240004 1_554
B10 Rh2 2.240004 1_555
B10 Zn6 2.669196 1_555
B11 Rh19 2.122152 1_555
B11 Rh19 2.122152 1_554
B11 Rh27 2.145954 1_555
B11 Rh27 2.145954 1_554
B11 Rh3 2.240004 1_554
B11 Rh3 2.240004 1_555
B11 Zn7 2.669196 1_555
B12 Rh20 2.122152 1_555
B12 Rh20 2.122152 1_554
B12 Rh28 2.145954 1_555
B12 Rh28 2.145954 1_554
B12 Rh4 2.240004 1_555
B12 Rh4 2.240004 1_554
B12 Zn8 2.669196 1_555
B13 Rh21 2.122152 1_555
B13 Rh21 2.122152 1_554
B13 Rh29 2.145954 1_554
B13 Rh29 2.145954 1_555
B13 Rh5 2.240004 1_555
B13 Rh5 2.240004 1_554
B13 Zn9 2.669196 1_555
B14 Rh22 2.122152 1_554
B14 Rh22 2.122152 1_555
B14 Rh30 2.145954 1_555
B14 Rh30 2.145954 1_554
B14 Rh6 2.240004 1_555
B14 Rh6 2.240004 1_554
B14 Zn10 2.669196 1_555
B15 Rh23 2.122152 1_555
B15 Rh23 2.122152 1_554
B15 Rh31 2.145954 1_555
B15 Rh31 2.145954 1_554
B15 Rh7 2.240004 1_554
B15 Rh7 2.240004 1_555
B15 Zn11 2.669196 1_555
Rh0 Zn15 2.689971 1_555
Rh0 Zn15 2.689971 1_556
Rh0 Zn6 2.848596 1_546
Rh0 Zn6 2.848596 1_545
Rh1 Zn14 2.689971 1_556
Rh1 Zn14 2.689971 1_555
Rh1 Zn8 2.848596 1_566
Rh1 Zn8 2.848596 1_565
Rh2 Zn12 2.689971 1_555
Rh2 Zn12 2.689971 1_556
Rh2 Zn5 2.848596 1_456
Rh2 Zn5 2.848596 1_455
Rh3 Zn13 2.689971 1_555
Rh3 Zn13 2.689971 1_556
Rh3 Zn10 2.848596 1_555
Rh3 Zn10 2.848596 1_556
Rh4 Zn13 2.689971 1_556
Rh4 Zn13 2.689971 1_555
Rh4 Zn4 2.848596 1_655
Rh4 Zn4 2.848596 1_656
Rh5 Zn12 2.689971 1_555
Rh5 Zn12 2.689971 1_556
Rh5 Zn11 2.848596 1_555
Rh5 Zn11 2.848596 1_556
Rh6 Zn14 2.689971 1_555
Rh6 Zn14 2.689971 1_556
Rh6 Zn9 2.848596 1_555
Rh6 Zn9 2.848596 1_556
Rh7 Zn15 2.689971 1_556
Rh7 Zn15 2.689971 1_555
Rh7 Zn7 2.848596 1_556
Rh7 Zn7 2.848596 1_555
Rh8 Zn18 2.605768 1_556
Rh8 Zn18 2.605768 1_555
Rh8 Zn2 2.645041 1_555
Rh8 Zn2 2.645041 1_556
Rh8 Zn4 2.883599 1_556
Rh8 Zn4 2.883599 1_555
Rh9 Zn19 2.605768 1_555
Rh9 Zn19 2.605768 1_556
Rh9 Zn3 2.645041 1_555
Rh9 Zn3 2.645041 1_556
Rh9 Zn5 2.883599 1_556
Rh9 Zn5 2.883599 1_555
Rh10 Zn17 2.605768 1_556
Rh10 Zn17 2.605768 1_555
Rh10 Zn1 2.645041 1_555
Rh10 Zn1 2.645041 1_556
Rh10 Zn6 2.883599 1_556
Rh10 Zn6 2.883599 1_555
Rh11 Zn16 2.605768 1_555
Rh11 Zn16 2.605768 1_556
Rh11 Zn0 2.645041 1_556
Rh11 Zn0 2.645041 1_555
Rh11 Zn7 2.883599 1_556
Rh11 Zn7 2.883599 1_555
Rh12 Zn16 2.605768 1_555
Rh12 Zn16 2.605768 1_556
Rh12 Zn0 2.645041 1_556
Rh12 Zn0 2.645041 1_555
Rh12 Zn8 2.883599 1_556
Rh12 Zn8 2.883599 1_555
Rh13 Zn17 2.605768 1_556
Rh13 Zn17 2.605768 1_555
Rh13 Zn1 2.645041 1_556
Rh13 Zn1 2.645041 1_555
Rh13 Zn9 2.883599 1_555
Rh13 Zn9 2.883599 1_556
Rh14 Zn19 2.605768 1_555
Rh14 Zn19 2.605768 1_556
Rh14 Zn3 2.645041 1_556
Rh14 Zn3 2.645041 1_555
Rh14 Zn10 2.883599 1_555
Rh14 Zn10 2.883599 1_556
Rh15 Zn18 2.605768 1_556
Rh15 Zn18 2.605768 1_555
Rh15 Zn2 2.645041 1_556
Rh15 Zn2 2.645041 1_555
Rh15 Zn11 2.883599 1_556
Rh15 Zn11 2.883599 1_555
Rh16 Zn18 2.594841 1_556
Rh16 Zn18 2.594841 1_555
Rh16 Zn4 2.738707 1_556
Rh16 Zn4 2.738707 1_555
Rh16 Zn15 2.750979 1_556
Rh16 Zn15 2.750979 1_555
Rh17 Zn19 2.594841 1_556
Rh17 Zn19 2.594841 1_555
Rh17 Zn5 2.738707 1_555
Rh17 Zn5 2.738707 1_556
Rh17 Zn14 2.750979 1_556
Rh17 Zn14 2.750979 1_555
Rh18 Zn17 2.594841 1_555
Rh18 Zn17 2.594841 1_556
Rh18 Zn6 2.738707 1_555
Rh18 Zn6 2.738707 1_556
Rh18 Zn12 2.750979 1_556
Rh18 Zn12 2.750979 1_555
Rh19 Zn16 2.594841 1_556
Rh19 Zn16 2.594841 1_555
Rh19 Zn7 2.738707 1_556
Rh19 Zn7 2.738707 1_555
Rh19 Zn13 2.750979 1_555
Rh19 Zn13 2.750979 1_556
Rh20 Zn16 2.594841 1_556
Rh20 Zn16 2.594841 1_555
Rh20 Zn8 2.738707 1_556
Rh20 Zn8 2.738707 1_555
Rh20 Zn13 2.750979 1_555
Rh20 Zn13 2.750979 1_556
Rh21 Zn17 2.594841 1_556
Rh21 Zn17 2.594841 1_555
Rh21 Zn9 2.738707 1_556
Rh21 Zn9 2.738707 1_555
Rh21 Zn12 2.750979 1_556
Rh21 Zn12 2.750979 1_555
Rh22 Zn19 2.594841 1_556
Rh22 Zn19 2.594841 1_555
Rh22 Zn10 2.738707 1_555
Rh22 Zn10 2.738707 1_556
Rh22 Zn14 2.750979 1_556
Rh22 Zn14 2.750979 1_555
Rh23 Zn18 2.594841 1_555
Rh23 Zn18 2.594841 1_556
Rh23 Zn11 2.738707 1_556
Rh23 Zn11 2.738707 1_555
Rh23 Zn15 2.750979 1_556
Rh23 Zn15 2.750979 1_555
Rh24 Zn6 2.777593 1_546
Rh24 Zn6 2.777593 1_545
Rh24 Zn4 2.862437 1_556
Rh24 Zn4 2.862437 1_555
Rh25 Zn8 2.777593 1_566
Rh25 Zn8 2.777593 1_565
Rh25 Zn5 2.862437 1_555
Rh25 Zn5 2.862437 1_556
Rh26 Zn5 2.777593 1_455
Rh26 Zn5 2.777593 1_456
Rh26 Zn6 2.862437 1_555
Rh26 Zn6 2.862437 1_556
Rh27 Zn10 2.777593 1_556
Rh27 Zn10 2.777593 1_555
Rh27 Zn7 2.862437 1_556
Rh27 Zn7 2.862437 1_555
Rh28 Zn4 2.777593 1_655
Rh28 Zn4 2.777593 1_656
Rh28 Zn8 2.862437 1_555
Rh28 Zn8 2.862437 1_556
Rh29 Zn11 2.777593 1_555
Rh29 Zn11 2.777593 1_556
Rh29 Zn9 2.862437 1_555
Rh29 Zn9 2.862437 1_556
Rh30 Zn9 2.777593 1_555
Rh30 Zn9 2.777593 1_556
Rh30 Zn10 2.862437 1_555
Rh30 Zn10 2.862437 1_556
Rh31 Zn7 2.777593 1_555
Rh31 Zn7 2.777593 1_556
Rh31 Zn11 2.862437 1_555
Rh31 Zn11 2.862437 1_556
Rh32 Zn3 2.836564 1_455
Rh32 Zn3 2.836564 1_456
Rh32 Zn2 2.836564 1_555
Rh32 Zn2 2.836564 1_556
Rh33 Zn2 2.836564 1_655
Rh33 Zn2 2.836564 1_656
Rh33 Zn3 2.836564 1_556
Rh33 Zn3 2.836564 1_555
Rh34 Zn0 2.836564 1_565
Rh34 Zn0 2.836564 1_566
Rh34 Zn1 2.836564 1_556
Rh34 Zn1 2.836564 1_555
Rh35 Zn1 2.836564 1_546
Rh35 Zn1 2.836564 1_545
Rh35 Zn0 2.836564 1_555
Rh35 Zn0 2.836564 1_556
