# generated using pymatgen
data_BaIn9Ir2
_symmetry_space_group_name_H-M   'P 1'
_cell_length_a   8.93232802
_cell_length_b   8.93232802
_cell_length_c   4.32873142
_cell_angle_alpha   90.00000000
_cell_angle_beta   90.00000000
_cell_angle_gamma   119.99999351
_symmetry_Int_Tables_number   1
_chemical_formula_structural   BaIn9Ir2
_chemical_formula_sum   'Ba1 In9 Ir2'
_cell_volume   299.10290239
_cell_formula_units_Z   1
loop_
 _symmetry_equiv_pos_site_id
 _symmetry_equiv_pos_as_xyz
  1  'x, y, z'
loop_
 _atom_site_type_symbol
 _atom_site_label
 _atom_site_symmetry_multiplicity
 _atom_site_fract_x
 _atom_site_fract_y
 _atom_site_fract_z
 _atom_site_occupancy
  Ba  Ba0  1  0.00000000  0.00000000  0.00000000  1
  In  In0  1  0.58536874  0.79268437  0.50000000  1
  In  In1  1  0.20731563  0.79268437  0.50000000  1
  In  In2  1  0.20731563  0.41463126  0.50000000  1
  In  In3  1  0.79268437  0.58536874  0.50000000  1
  In  In4  1  0.79268437  0.20731563  0.50000000  1
  In  In5  1  0.41463126  0.20731563  0.50000000  1
  In  In6  1  0.00000000  0.50000000  0.00000000  1
  In  In7  1  0.50000000  0.50000000  0.00000000  1
  In  In8  1  0.50000000  0.00000000  0.00000000  1
  Ir  Ir0  1  0.33333300  0.66666700  0.00000000  1
  Ir  Ir1  1  0.66666700  0.33333300  0.00000000  1
loop_
_geom_bond_atom_site_label_1
_geom_bond_atom_site_label_2
_geom_bond_distance
_geom_bond_site_symmetry_2
Ba0 In4 3.869379 1_455
Ba0 In1 3.869379 1_544
Ba0 In1 3.869379 1_545
Ba0 In4 3.869379 1_454
Ba0 In3 3.869379 1_445
Ba0 In3 3.869379 1_444
Ba0 In0 3.869379 1_445
Ba0 In0 3.869379 1_444
Ba0 In2 3.869379 1_554
Ba0 In2 3.869379 1_555
Ba0 In5 3.869379 1_555
Ba0 In5 3.869379 1_554
In0 Ir0 2.913010 1_556
In0 Ir0 2.913010 1_555
In1 Ir0 2.913005 1_555
In1 Ir0 2.913005 1_556
In2 Ir0 2.913010 1_556
In2 Ir0 2.913010 1_555
In3 Ir1 2.913010 1_555
In3 Ir1 2.913010 1_556
In4 Ir1 2.913005 1_555
In4 Ir1 2.913005 1_556
In5 Ir1 2.913010 1_555
In5 Ir1 2.913010 1_556
In6 Ir0 2.578539 1_555
In6 Ir1 2.578539 1_455
In7 Ir1 2.578546 1_555
In7 Ir0 2.578546 1_555
In8 Ir0 2.578539 1_545
In8 Ir1 2.578539 1_555
