# generated using pymatgen
data_NaCoSO4F
_symmetry_space_group_name_H-M   'P 1'
_cell_length_a   6.76787429
_cell_length_b   7.91925919
_cell_length_c   7.91893683
_cell_angle_alpha   66.56088566
_cell_angle_beta   92.47315429
_cell_angle_gamma   92.47306941
_symmetry_Int_Tables_number   1
_chemical_formula_structural   NaCoSO4F
_chemical_formula_sum   'Na4 Co4 S4 O16 F4'
_cell_volume   388.88625085
_cell_formula_units_Z   4
loop_
 _symmetry_equiv_pos_site_id
 _symmetry_equiv_pos_as_xyz
  1  'x, y, z'
loop_
 _atom_site_type_symbol
 _atom_site_label
 _atom_site_symmetry_multiplicity
 _atom_site_fract_x
 _atom_site_fract_y
 _atom_site_fract_z
 _atom_site_occupancy
  Na  Na0  1  0.62498900  0.96081700  0.28918100  1
  Na  Na1  1  0.12498900  0.46075200  0.78924800  1
  Na  Na2  1  0.87496700  0.53918500  0.21076200  1
  Na  Na3  1  0.37505400  0.03923700  0.71081400  1
  Co  Co0  1  0.74981600  0.74969300  0.75046100  1
  Co  Co1  1  0.50018200  0.49954000  0.50030700  1
  Co  Co2  1  0.24986800  0.24977600  0.25031700  1
  Co  Co3  1  0.00013200  0.99968000  0.00022600  1
  S  S0  1  0.62497200  0.30610500  0.94390900  1
  S  S1  1  0.12497200  0.80619800  0.44381500  1
  S  S2  1  0.87506500  0.19379900  0.55618900  1
  S  S3  1  0.37499100  0.69379800  0.05618700  1
  O  O0  1  0.78050500  0.45704100  0.89852200  1
  O  O1  1  0.28064400  0.95708900  0.39868200  1
  O  O2  1  0.46945500  0.35149300  0.79295400  1
  O  O3  1  0.96931400  0.85133200  0.29290500  1
  O  O4  1  0.71949400  0.04299000  0.60147700  1
  O  O5  1  0.21934600  0.54298400  0.10131600  1
  O  O6  1  0.03069600  0.14866800  0.70702200  1
  O  O7  1  0.53054600  0.64850700  0.20701500  1
  O  O8  1  0.53457900  0.27964900  0.12175800  1
  O  O9  1  0.03440500  0.77986800  0.62151300  1
  O  O10  1  0.71544100  0.12830200  0.97034700  1
  O  O11  1  0.21561700  0.62854700  0.47012700  1
  O  O12  1  0.96557600  0.22038500  0.37829800  1
  O  O13  1  0.46560800  0.72024900  0.87843400  1
  O  O14  1  0.78437000  0.37150400  0.52975500  1
  O  O15  1  0.28440400  0.87164100  0.02961900  1
  F  F0  1  0.62504600  0.71035900  0.53957600  1
  F  F1  1  0.12504500  0.21051200  0.03942600  1
  F  F2  1  0.87476300  0.79008600  0.95985800  1
  F  F3  1  0.37515000  0.29021400  0.45997900  1
loop_
_geom_bond_atom_site_label_1
_geom_bond_atom_site_label_2
_geom_bond_distance
_geom_bond_site_symmetry_2
Na0 O8 2.430542 1_565
Na0 O10 2.430615 1_564
Na0 O3 2.516197 1_555
Na0 O1 2.516355 1_555
Na0 O4 2.838384 1_565
Na0 O7 2.838465 1_555
Na1 O9 2.433037 1_555
Na1 O11 2.433132 1_555
Na1 O2 2.516439 1_555
Na1 O0 2.516580 1_455
Na1 O5 2.836750 1_556
Na1 O6 2.836849 1_555
Na2 O12 2.430808 1_555
Na2 O14 2.432120 1_555
Na2 O7 2.516288 1_555
Na2 O5 2.516313 1_655
Na2 O3 2.837017 1_555
Na2 O0 2.837780 1_554
Na3 O15 2.430897 1_546
Na3 O13 2.432027 1_545
Na3 O6 2.516156 1_555
Na3 O4 2.516434 1_555
Na3 O1 2.836920 1_545
Na3 O2 2.837891 1_555
Co0 F2 1.960781 1_555
Co0 F0 1.966819 1_555
Co0 O0 2.155881 1_555
Co0 O4 2.160818 1_565
Co0 O13 2.173176 1_555
Co0 O9 2.178399 1_655
Co1 F3 1.960310 1_555
Co1 F0 1.966407 1_555
Co1 O2 2.155789 1_555
Co1 O7 2.160727 1_555
Co1 O14 2.173299 1_555
Co1 O11 2.178483 1_555
Co2 F3 1.963704 1_555
Co2 F1 1.966735 1_555
Co2 O1 2.156461 1_545
Co2 O5 2.160386 1_555
Co2 O12 2.173766 1_455
Co2 O8 2.177992 1_555
Co3 F2 1.963241 1_454
Co3 F1 1.966366 1_565
Co3 O3 2.156350 1_455
Co3 O6 2.160306 1_564
Co3 O15 2.173873 1_555
Co3 O10 2.178114 1_464
O0 S0 1.499414 1_555
O1 S1 1.499909 1_555
O2 S0 1.499406 1_555
O3 S1 1.499910 1_655
O4 S2 1.498950 1_555
O5 S3 1.499377 1_555
O6 S2 1.499378 1_455
O7 S3 1.498942 1_555
O8 S0 1.493395 1_554
O9 S1 1.493089 1_555
O10 S0 1.493383 1_555
O11 S1 1.493077 1_555
O12 S2 1.493792 1_555
O13 S3 1.493392 1_556
O14 S2 1.493370 1_555
O15 S3 1.493765 1_555
F0 Na0 2.176460 1_555
F1 Na1 2.174570 1_554
F2 Na2 2.180597 1_556
F3 Na3 2.180627 1_555
