# generated using pymatgen
data_Sr5(PbN3)2
_symmetry_space_group_name_H-M   'P 1'
_cell_length_a   6.66974775
_cell_length_b   6.47479240
_cell_length_c   14.61410878
_cell_angle_alpha   89.99999939
_cell_angle_beta   96.59674842
_cell_angle_gamma   119.03770645
_symmetry_Int_Tables_number   1
_chemical_formula_structural   Sr5(PbN3)2
_chemical_formula_sum   'Sr10 Pb4 N12'
_cell_volume   546.99890296
_cell_formula_units_Z   2
loop_
 _symmetry_equiv_pos_site_id
 _symmetry_equiv_pos_as_xyz
  1  'x, y, z'
loop_
 _atom_site_type_symbol
 _atom_site_label
 _atom_site_symmetry_multiplicity
 _atom_site_fract_x
 _atom_site_fract_y
 _atom_site_fract_z
 _atom_site_occupancy
  Sr  Sr0  1  0.17958700  0.84208200  0.01854000  1
  Sr  Sr1  1  0.82041300  0.66249500  0.48146000  1
  Sr  Sr2  1  0.82041300  0.15791800  0.98146000  1
  Sr  Sr3  1  0.17958700  0.33750500  0.51854000  1
  Sr  Sr4  1  0.29746300  0.04921000  0.71483300  1
  Sr  Sr5  1  0.70253700  0.75174700  0.78516700  1
  Sr  Sr6  1  0.70253700  0.95079000  0.28516700  1
  Sr  Sr7  1  0.29746300  0.24825300  0.21483300  1
  Sr  Sr8  1  0.00000000  0.37379100  0.75000000  1
  Sr  Sr9  1  0.00000000  0.62620900  0.25000000  1
  Pb  Pb0  1  0.57786000  0.91773100  0.58561300  1
  Pb  Pb1  1  0.42214000  0.33987100  0.91438700  1
  Pb  Pb2  1  0.42214000  0.08226900  0.41438700  1
  Pb  Pb3  1  0.57786000  0.66012900  0.08561300  1
  N  N0  1  0.93275800  0.01108900  0.63257300  1
  N  N1  1  0.06724200  0.07833300  0.86742700  1
  N  N2  1  0.06724200  0.98891100  0.36742700  1
  N  N3  1  0.93275800  0.92166700  0.13257300  1
  N  N4  1  0.31547900  0.66925500  0.66901500  1
  N  N5  1  0.68452100  0.35377400  0.83098500  1
  N  N6  1  0.68452100  0.33074500  0.33098500  1
  N  N7  1  0.31547900  0.64622600  0.16901500  1
  N  N8  1  0.52048300  0.24245100  0.56215700  1
  N  N9  1  0.47951700  0.72196900  0.93784300  1
  N  N10  1  0.47951700  0.75754900  0.43784300  1
  N  N11  1  0.52048300  0.27803100  0.06215700  1
loop_
_geom_bond_atom_site_label_1
_geom_bond_atom_site_label_2
_geom_bond_distance
_geom_bond_site_symmetry_2
N0 Pb0 2.162679 1_545
N0 Sr4 2.483623 1_655
N0 Sr3 2.684567 1_655
N0 Sr8 2.731648 1_655
N0 Sr5 2.904169 1_545
N0 Sr1 2.917324 1_545
N1 Pb1 2.162675 1_555
N1 Sr5 2.483628 1_445
N1 Sr2 2.684561 1_455
N1 Sr8 2.731638 1_555
N1 Sr4 2.904173 1_555
N1 Sr0 2.917333 1_546
N2 Pb2 2.162679 1_565
N2 Sr6 2.483623 1_455
N2 Sr1 2.684567 1_455
N2 Sr9 2.731648 1_555
N2 Sr7 2.904169 1_565
N2 Sr3 2.917324 1_565
N3 Pb3 2.162675 1_555
N3 Sr7 2.483628 1_665
N3 Sr0 2.684561 1_655
N3 Sr9 2.731638 1_655
N3 Sr6 2.904173 1_555
N3 Sr2 2.917333 1_564
N4 Pb0 2.212097 1_555
N4 Sr8 2.480424 1_555
N4 Sr4 2.611606 1_565
N4 Sr5 2.736017 1_555
N4 Sr3 2.814851 1_555
N5 Pb1 2.212101 1_555
N5 Sr8 2.480419 1_655
N5 Sr5 2.611619 1_555
N5 Sr4 2.736014 1_555
N5 Sr2 2.814843 1_555
N6 Pb2 2.212097 1_555
N6 Sr9 2.480424 1_655
N6 Sr6 2.611606 1_545
N6 Sr7 2.736017 1_555
N6 Sr1 2.814851 1_555
N7 Pb3 2.212101 1_555
N7 Sr9 2.480419 1_555
N7 Sr7 2.611619 1_555
N7 Sr6 2.736014 1_555
N7 Sr0 2.814843 1_555
N8 Pb2 2.276753 1_555
N8 Pb0 2.331391 1_545
N8 Sr3 2.642010 1_555
N8 Sr4 2.777101 1_555
N8 Sr1 2.837218 1_555
N9 Pb3 2.276755 1_556
N9 Pb1 2.331397 1_555
N9 Sr2 2.642006 1_565
N9 Sr5 2.777102 1_555
N9 Sr0 2.837214 1_556
N10 Pb0 2.276753 1_555
N10 Pb2 2.331391 1_565
N10 Sr1 2.642010 1_555
N10 Sr6 2.777101 1_555
N10 Sr3 2.837218 1_555
N11 Pb1 2.276755 1_554
N11 Pb3 2.331397 1_555
N11 Sr0 2.642006 1_545
N11 Sr7 2.777102 1_555
N11 Sr2 2.837214 1_554
