# generated using pymatgen
data_LiNd(PO3)4
_symmetry_space_group_name_H-M   'P 1'
_cell_length_a   9.08670988
_cell_length_b   9.08670988
_cell_length_c   9.91612215
_cell_angle_alpha   56.94646870
_cell_angle_beta   56.94646870
_cell_angle_gamma   46.51520971
_symmetry_Int_Tables_number   1
_chemical_formula_structural   LiNd(PO3)4
_chemical_formula_sum   'Li2 Nd2 P8 O24'
_cell_volume   478.04382718
_cell_formula_units_Z   2
loop_
 _symmetry_equiv_pos_site_id
 _symmetry_equiv_pos_as_xyz
  1  'x, y, z'
loop_
 _atom_site_type_symbol
 _atom_site_label
 _atom_site_symmetry_multiplicity
 _atom_site_fract_x
 _atom_site_fract_y
 _atom_site_fract_z
 _atom_site_occupancy
  Li  Li0  1  0.70326500  0.29673500  0.75000000  1
  Li  Li1  1  0.29673500  0.70326500  0.25000000  1
  Nd  Nd0  1  0.20192400  0.79807600  0.75000000  1
  Nd  Nd1  1  0.79807500  0.20192400  0.25000000  1
  P  P0  1  0.99195200  0.30318500  0.80193600  1
  P  P1  1  0.69681500  0.00804800  0.69806400  1
  P  P2  1  0.00804800  0.69681500  0.19806400  1
  P  P3  1  0.30318500  0.99195200  0.30193600  1
  P  P4  1  0.58395000  0.69294000  0.88597400  1
  P  P5  1  0.30706000  0.41605000  0.61402600  1
  P  P6  1  0.41605000  0.30706000  0.11402600  1
  P  P7  1  0.69294000  0.58395000  0.38597400  1
  O  O0  1  0.78029700  0.53696400  0.76953200  1
  O  O1  1  0.46303600  0.21970300  0.73046800  1
  O  O2  1  0.21970300  0.46303600  0.23046800  1
  O  O3  1  0.53696400  0.78029700  0.26953200  1
  O  O4  1  0.65986100  0.82944100  0.85219400  1
  O  O5  1  0.17055900  0.34013900  0.64780600  1
  O  O6  1  0.34013900  0.17055900  0.14780600  1
  O  O7  1  0.82944100  0.65986100  0.35219400  1
  O  O8  1  0.57358100  0.56171800  0.56992000  1
  O  O9  1  0.43828200  0.42641900  0.93008000  1
  O  O10  1  0.42641900  0.43828200  0.43008000  1
  O  O11  1  0.56171800  0.57358100  0.06992000  1
  O  O12  1  0.82738700  0.39901400  0.31998200  1
  O  O13  1  0.60098600  0.17261300  0.18001800  1
  O  O14  1  0.17261300  0.60098600  0.68001800  1
  O  O15  1  0.39901400  0.82738700  0.81998200  1
  O  O16  1  0.24086400  0.01391600  0.46741600  1
  O  O17  1  0.98608400  0.75913600  0.03258400  1
  O  O18  1  0.75913600  0.98608400  0.53258400  1
  O  O19  1  0.01391600  0.24086400  0.96741600  1
  O  O20  1  0.16894400  0.98061800  0.26826000  1
  O  O21  1  0.01938200  0.83105600  0.23174000  1
  O  O22  1  0.83105600  0.01938200  0.73174000  1
  O  O23  1  0.98061800  0.16894400  0.76826000  1
loop_
_geom_bond_atom_site_label_1
_geom_bond_atom_site_label_2
_geom_bond_distance
_geom_bond_site_symmetry_2
Li0 O22 1.993326 1_555
Li0 O23 1.993326 1_555
Li0 O8 2.018658 1_555
Li0 O9 2.018658 1_555
Li1 O21 1.993326 1_555
Li1 O20 1.993326 1_555
Li1 O11 2.018658 1_555
Li1 O10 2.018658 1_555
Nd0 O16 2.387951 1_565
Nd0 O17 2.387951 1_456
Nd0 O15 2.444101 1_555
Nd0 O14 2.444101 1_555
Nd0 O23 2.524819 1_465
Nd0 O22 2.524819 1_465
Nd0 O9 2.613232 1_555
Nd0 O8 2.613232 1_555
Nd1 O18 2.387950 1_545
Nd1 O19 2.387953 1_654
Nd1 O13 2.444093 1_555
Nd1 O12 2.444108 1_555
Nd1 O21 2.524817 1_645
Nd1 O20 2.524826 1_645
Nd1 O10 2.613229 1_555
Nd1 O11 2.613230 1_555
O0 P4 1.607117 1_555
O0 P0 1.619024 1_555
O1 P5 1.607117 1_555
O1 P1 1.619024 1_555
O2 P6 1.607117 1_555
O2 P2 1.619024 1_555
O3 P7 1.607117 1_555
O3 P3 1.619024 1_555
O4 P1 1.602203 1_565
O4 P4 1.612058 1_555
O5 P0 1.602203 1_455
O5 P5 1.612058 1_555
O6 P3 1.602203 1_545
O6 P6 1.612058 1_555
O7 P2 1.602203 1_655
O7 P7 1.612058 1_555
O8 P7 1.511881 1_555
O9 P6 1.511881 1_556
O10 P5 1.511881 1_555
O11 P4 1.511881 1_554
O12 P7 1.498862 1_555
O13 P6 1.498862 1_555
O14 P5 1.498862 1_555
O15 P4 1.498862 1_555
O16 P3 1.497055 1_545
O17 P2 1.497055 1_655
O18 P1 1.497055 1_565
O19 P0 1.497055 1_455
O20 P3 1.504930 1_555
O21 P2 1.504930 1_555
O22 P1 1.504930 1_555
O23 P0 1.504930 1_555
