# generated using pymatgen
data_La4GaSi3
_symmetry_space_group_name_H-M   'P 1'
_cell_length_a   4.07438940
_cell_length_b   4.54898195
_cell_length_c   11.42307406
_cell_angle_alpha   90.00000000
_cell_angle_beta   90.00000000
_cell_angle_gamma   90.00000000
_symmetry_Int_Tables_number   1
_chemical_formula_structural   La4GaSi3
_chemical_formula_sum   'La4 Ga1 Si3'
_cell_volume   211.71895385
_cell_formula_units_Z   1
loop_
 _symmetry_equiv_pos_site_id
 _symmetry_equiv_pos_as_xyz
  1  'x, y, z'
loop_
 _atom_site_type_symbol
 _atom_site_label
 _atom_site_symmetry_multiplicity
 _atom_site_fract_x
 _atom_site_fract_y
 _atom_site_fract_z
 _atom_site_occupancy
  La  La0  1  0.00000000  0.00000000  0.35959218  1
  La  La1  1  -0.00000000  0.50000000  0.85596486  1
  La  La2  1  0.50000000  0.50000000  0.14323955  1
  La  La3  1  0.50000000  -0.00000000  0.64268948  1
  Ga  Ga0  1  0.00000000  -0.00000000  0.06551066  1
  Si  Si0  1  0.00000000  0.50000000  0.56575400  1
  Si  Si1  1  0.50000000  0.50000000  0.43537362  1
  Si  Si2  1  0.50000000  -0.00000000  0.93187465  1
loop_
_geom_bond_atom_site_label_1
_geom_bond_atom_site_label_2
_geom_bond_distance
_geom_bond_site_symmetry_2
La0 Si1 3.173773 1_445
La0 Si1 3.173773 1_555
La0 Si1 3.173773 1_545
La0 Si1 3.173773 1_455
La0 Si0 3.274041 1_545
La0 Si0 3.274041 1_555
La1 Si2 3.174173 1_455
La1 Si2 3.174173 1_565
La1 Si2 3.174173 1_465
La1 Si2 3.174173 1_555
La1 Si0 3.315100 1_555
La2 Si2 3.317049 1_564
La2 Si2 3.317049 1_554
La2 Si1 3.337069 1_555
La3 Si0 3.177394 1_655
La3 Si0 3.177394 1_645
La3 Si0 3.177394 1_545
La3 Si0 3.177394 1_555
La3 Si1 3.283536 1_555
La3 Si1 3.283536 1_545
La3 Si2 3.303384 1_555
Ga0 Si2 2.545676 1_554
Ga0 Si2 2.545676 1_454
Ga0 La2 3.179912 1_545
Ga0 La2 3.179912 1_445
Ga0 La2 3.179912 1_455
Ga0 La2 3.179912 1_555
Ga0 La1 3.301955 1_544
Ga0 La1 3.301955 1_554
Ga0 La0 3.359315 1_555
Si0 Si1 2.523551 1_455
Si0 Si1 2.523551 1_555
