# generated using pymatgen
data_Cs2HgAuF6
_symmetry_space_group_name_H-M   'P 1'
_cell_length_a   6.54349969
_cell_length_b   6.54349969
_cell_length_c   6.54349969
_cell_angle_alpha   60.00000000
_cell_angle_beta   60.00000000
_cell_angle_gamma   60.00000000
_symmetry_Int_Tables_number   1
_chemical_formula_structural   Cs2HgAuF6
_chemical_formula_sum   'Cs2 Hg1 Au1 F6'
_cell_volume   198.11404245
_cell_formula_units_Z   1
loop_
 _symmetry_equiv_pos_site_id
 _symmetry_equiv_pos_as_xyz
  1  'x, y, z'
loop_
 _atom_site_type_symbol
 _atom_site_label
 _atom_site_symmetry_multiplicity
 _atom_site_fract_x
 _atom_site_fract_y
 _atom_site_fract_z
 _atom_site_occupancy
  Cs  Cs0  1  0.75000000  0.75000000  0.75000000  1
  Cs  Cs1  1  0.25000000  0.25000000  0.25000000  1
  Hg  Hg0  1  0.50000000  0.50000000  0.50000000  1
  Au  Au0  1  0.00000000  0.00000000  0.00000000  1
  F  F0  1  0.75301400  0.24698600  0.24698600  1
  F  F1  1  0.24698600  0.24698600  0.75301400  1
  F  F2  1  0.24698600  0.75301400  0.75301400  1
  F  F3  1  0.24698600  0.75301400  0.24698600  1
  F  F4  1  0.75301400  0.24698600  0.75301400  1
  F  F5  1  0.75301400  0.75301400  0.24698600  1
loop_
_geom_bond_atom_site_label_1
_geom_bond_atom_site_label_2
_geom_bond_distance
_geom_bond_site_symmetry_2
Cs0 F2 3.271869 1_655
Cs0 F4 3.271869 1_565
Cs0 F5 3.271869 1_556
Cs0 F3 3.271869 1_655
Cs0 F1 3.271869 1_565
Cs0 F3 3.271869 1_556
Cs0 F0 3.271869 1_556
Cs0 F1 3.271869 1_655
Cs0 F4 3.271869 1_555
Cs0 F0 3.271869 1_565
Cs0 F5 3.271869 1_555
Cs0 F2 3.271869 1_555
Cs1 F4 3.271869 1_554
Cs1 F3 3.271869 1_555
Cs1 F0 3.271869 1_555
Cs1 F1 3.271869 1_555
Cs1 F1 3.271869 1_554
Cs1 F5 3.271869 1_455
Cs1 F2 3.271869 1_554
Cs1 F2 3.271869 1_545
Cs1 F5 3.271869 1_545
Cs1 F4 3.271869 1_455
Cs1 F3 3.271869 1_545
Cs1 F0 3.271869 1_455
Au0 F3 2.285585 1_545
Au0 F2 2.285585 1_544
Au0 F0 2.285585 1_455
Au0 F5 2.285585 1_445
Au0 F4 2.285585 1_454
Au0 F1 2.285585 1_554
F0 Hg0 2.341368 1_555
F1 Hg0 2.341368 1_555
F2 Hg0 2.341368 1_555
F3 Hg0 2.341368 1_555
F4 Hg0 2.341368 1_555
F5 Hg0 2.341368 1_555
