# generated using pymatgen
data_Nd2MgS4
_symmetry_space_group_name_H-M   'P 1'
_cell_length_a   3.97321700
_cell_length_b   12.95817400
_cell_length_c   14.00433900
_cell_angle_alpha   90.00000000
_cell_angle_beta   90.00000000
_cell_angle_gamma   90.00000000
_symmetry_Int_Tables_number   1
_chemical_formula_structural   Nd2MgS4
_chemical_formula_sum   'Nd8 Mg4 S16'
_cell_volume   721.02231734
_cell_formula_units_Z   4
loop_
 _symmetry_equiv_pos_site_id
 _symmetry_equiv_pos_as_xyz
  1  'x, y, z'
loop_
 _atom_site_type_symbol
 _atom_site_label
 _atom_site_symmetry_multiplicity
 _atom_site_fract_x
 _atom_site_fract_y
 _atom_site_fract_z
 _atom_site_occupancy
  Nd  Nd0  1  0.25000000  0.12163000  0.07400300  1
  Nd  Nd1  1  0.75000000  0.87837000  0.92599700  1
  Nd  Nd2  1  0.75000000  0.37837000  0.57400300  1
  Nd  Nd3  1  0.25000000  0.62163000  0.42599700  1
  Nd  Nd4  1  0.25000000  0.13213300  0.70755800  1
  Nd  Nd5  1  0.75000000  0.86786700  0.29244200  1
  Nd  Nd6  1  0.75000000  0.36786700  0.20755800  1
  Nd  Nd7  1  0.25000000  0.63213300  0.79244200  1
  Mg  Mg0  1  0.75000000  0.10688400  0.46093900  1
  Mg  Mg1  1  0.25000000  0.89311600  0.53906100  1
  Mg  Mg2  1  0.25000000  0.39311600  0.96093900  1
  Mg  Mg3  1  0.75000000  0.60688400  0.03906100  1
  S  S0  1  0.75000000  0.00159800  0.61307200  1
  S  S1  1  0.25000000  0.99840200  0.38692800  1
  S  S2  1  0.25000000  0.49840200  0.11307200  1
  S  S3  1  0.75000000  0.50159800  0.88692800  1
  S  S4  1  0.25000000  0.02504200  0.88535900  1
  S  S5  1  0.75000000  0.97495800  0.11464100  1
  S  S6  1  0.75000000  0.47495800  0.38535900  1
  S  S7  1  0.25000000  0.52504200  0.61464100  1
  S  S8  1  0.25000000  0.22938200  0.24552800  1
  S  S9  1  0.75000000  0.77061800  0.75447200  1
  S  S10  1  0.75000000  0.27061800  0.74552800  1
  S  S11  1  0.25000000  0.72938200  0.25447200  1
  S  S12  1  0.75000000  0.26919700  0.01598400  1
  S  S13  1  0.25000000  0.73080300  0.98401600  1
  S  S14  1  0.25000000  0.23080300  0.51598400  1
  S  S15  1  0.75000000  0.76919700  0.48401600  1
loop_
_geom_bond_atom_site_label_1
_geom_bond_atom_site_label_2
_geom_bond_distance
_geom_bond_site_symmetry_2
Nd0 S8 2.778421 1_555
Nd0 S5 2.807629 1_445
Nd0 S5 2.807629 1_545
Nd0 S12 2.874596 1_455
Nd0 S12 2.874596 1_555
Nd0 S4 2.923320 1_554
Nd1 S9 2.778421 1_555
Nd1 S4 2.807629 1_665
Nd1 S4 2.807629 1_565
Nd1 S13 2.874596 1_555
Nd1 S13 2.874596 1_655
Nd1 S5 2.923320 1_556
Nd2 S10 2.778421 1_555
Nd2 S7 2.807629 1_655
Nd2 S7 2.807629 1_555
Nd2 S14 2.874596 1_555
Nd2 S14 2.874596 1_655
Nd2 S6 2.923320 1_555
Nd3 S11 2.778421 1_555
Nd3 S6 2.807629 1_455
Nd3 S6 2.807629 1_555
Nd3 S15 2.874596 1_455
Nd3 S15 2.874596 1_555
Nd3 S7 2.923320 1_555
Nd4 S10 2.729403 1_555
Nd4 S10 2.729403 1_455
Nd4 S4 2.850570 1_555
Nd4 S0 2.925520 1_455
Nd4 S0 2.925520 1_555
Nd4 S14 2.971961 1_555
Nd5 S11 2.729403 1_655
Nd5 S11 2.729403 1_555
Nd5 S5 2.850570 1_555
Nd5 S1 2.925520 1_655
Nd5 S1 2.925520 1_555
Nd5 S15 2.971961 1_555
Nd6 S8 2.729403 1_555
Nd6 S8 2.729403 1_655
Nd6 S6 2.850570 1_555
Nd6 S2 2.925520 1_555
Nd6 S2 2.925520 1_655
Nd6 S12 2.971961 1_555
Nd7 S9 2.729403 1_555
Nd7 S9 2.729403 1_455
Nd7 S7 2.850570 1_555
Nd7 S3 2.925520 1_555
Nd7 S3 2.925520 1_455
Nd7 S13 2.971961 1_555
Mg0 S0 2.529917 1_555
Mg0 S1 2.645178 1_645
Mg0 S1 2.645178 1_545
Mg0 S14 2.668207 1_555
Mg0 S14 2.668207 1_655
Mg1 S1 2.529917 1_555
Mg1 S0 2.645178 1_565
Mg1 S0 2.645178 1_465
Mg1 S15 2.668207 1_455
Mg1 S15 2.668207 1_555
Mg2 S2 2.529917 1_556
Mg2 S3 2.645178 1_555
Mg2 S3 2.645178 1_455
Mg2 S12 2.668207 1_556
Mg2 S12 2.668207 1_456
Mg3 S3 2.529917 1_554
Mg3 S2 2.645178 1_655
Mg3 S2 2.645178 1_555
Mg3 S13 2.668207 1_554
Mg3 S13 2.668207 1_654
