# generated using pymatgen
data_Cs3SbSe3
_symmetry_space_group_name_H-M   'P 1'
_cell_length_a   10.73779602
_cell_length_b   10.73779602
_cell_length_c   10.73779602
_cell_angle_alpha   90.00000000
_cell_angle_beta   90.00000000
_cell_angle_gamma   90.00000000
_symmetry_Int_Tables_number   1
_chemical_formula_structural   Cs3SbSe3
_chemical_formula_sum   'Cs12 Sb4 Se12'
_cell_volume   1238.07070909
_cell_formula_units_Z   4
loop_
 _symmetry_equiv_pos_site_id
 _symmetry_equiv_pos_as_xyz
  1  'x, y, z'
loop_
 _atom_site_type_symbol
 _atom_site_label
 _atom_site_symmetry_multiplicity
 _atom_site_fract_x
 _atom_site_fract_y
 _atom_site_fract_z
 _atom_site_occupancy
  Cs  Cs0  1  0.18519297  0.68519297  0.81480703  1
  Cs  Cs1  1  0.68519297  0.81480703  0.18519297  1
  Cs  Cs2  1  0.81480703  0.18519297  0.68519297  1
  Cs  Cs3  1  0.31480703  0.31480703  0.31480703  1
  Cs  Cs4  1  0.92535241  0.42535241  0.07464759  1
  Cs  Cs5  1  0.42535241  0.07464759  0.92535241  1
  Cs  Cs6  1  0.07464759  0.92535241  0.42535241  1
  Cs  Cs7  1  0.57464759  0.57464759  0.57464759  1
  Cs  Cs8  1  0.68891312  0.18891312  0.31108688  1
  Cs  Cs9  1  0.18891312  0.31108688  0.68891312  1
  Cs  Cs10  1  0.31108688  0.68891312  0.18891312  1
  Cs  Cs11  1  0.81108688  0.81108688  0.81108688  1
  Sb  Sb0  1  0.47434977  0.97434977  0.52565023  1
  Sb  Sb1  1  0.97434977  0.52565023  0.47434977  1
  Sb  Sb2  1  0.52565023  0.47434977  0.97434977  1
  Sb  Sb3  1  0.02565023  0.02565023  0.02565023  1
  Se  Se0  1  0.00665025  0.79693762  0.09582060  1
  Se  Se1  1  0.90417940  0.50665025  0.70306238  1
  Se  Se2  1  0.29693762  0.40417940  0.99334975  1
  Se  Se3  1  0.50665025  0.70306238  0.90417940  1
  Se  Se4  1  0.40417940  0.99334975  0.29693762  1
  Se  Se5  1  0.79693762  0.09582060  0.00665025  1
  Se  Se6  1  0.99334975  0.29693762  0.40417940  1
  Se  Se7  1  0.09582060  0.00665025  0.79693762  1
  Se  Se8  1  0.70306238  0.90417940  0.50665025  1
  Se  Se9  1  0.49334975  0.20306238  0.59582060  1
  Se  Se10  1  0.59582060  0.49334975  0.20306238  1
  Se  Se11  1  0.20306238  0.59582060  0.49334975  1
loop_
_geom_bond_atom_site_label_1
_geom_bond_atom_site_label_2
_geom_bond_distance
_geom_bond_site_symmetry_2
Cs0 Se3 3.587798 1_555
Cs0 Se11 3.587798 1_555
Cs0 Se7 3.587798 1_565
Cs0 Se0 3.770985 1_556
Cs0 Se1 3.770985 1_455
Cs0 Se2 3.770985 1_555
Cs1 Se8 3.587798 1_555
Cs1 Se10 3.587798 1_555
Cs1 Se0 3.587798 1_655
Cs1 Se5 3.770985 1_565
Cs1 Se3 3.770985 1_554
Cs1 Se4 3.770985 1_555
Cs2 Se1 3.587798 1_555
Cs2 Se9 3.587798 1_555
Cs2 Se5 3.587798 1_556
Cs2 Se7 3.770985 1_655
Cs2 Se8 3.770985 1_545
Cs2 Se6 3.770985 1_555
Cs3 Se6 3.587798 1_455
Cs3 Se4 3.587798 1_545
Cs3 Se2 3.587798 1_554
Cs3 Se9 3.770985 1_555
Cs3 Se10 3.770985 1_555
Cs3 Se11 3.770985 1_555
Cs4 Se6 3.867175 1_555
Cs4 Se10 3.867175 1_555
Cs4 Se5 3.867175 1_555
Cs4 Se0 4.090709 1_655
Cs4 Se1 4.090709 1_554
Cs4 Se2 4.090709 1_654
Cs5 Se2 3.867175 1_555
Cs5 Se7 3.867175 1_555
Cs5 Se9 3.867175 1_555
Cs5 Se3 4.090709 1_545
Cs5 Se5 4.090709 1_556
Cs5 Se4 4.090709 1_546
Cs6 Se4 3.867175 1_555
Cs6 Se11 3.867175 1_555
Cs6 Se0 3.867175 1_555
Cs6 Se8 4.090709 1_455
Cs6 Se7 4.090709 1_565
Cs6 Se6 4.090709 1_465
Cs7 Se1 3.867175 1_555
Cs7 Se3 3.867175 1_555
Cs7 Se8 3.867175 1_555
Cs7 Se9 4.090709 1_555
Cs7 Se10 4.090709 1_555
Cs7 Se11 4.090709 1_555
Cs8 Se6 3.609835 1_555
Cs8 Se10 3.609835 1_555
Cs8 Se5 3.609835 1_555
Cs8 Se9 3.712212 1_555
Cs8 Se8 3.712212 1_545
Cs8 Se4 3.712212 1_545
Cs9 Se2 3.609835 1_555
Cs9 Se9 3.609835 1_555
Cs9 Se7 3.609835 1_555
Cs9 Se11 3.712212 1_555
Cs9 Se1 3.712212 1_455
Cs9 Se6 3.712212 1_455
Cs10 Se4 3.609835 1_555
Cs10 Se11 3.609835 1_555
Cs10 Se0 3.609835 1_555
Cs10 Se10 3.712212 1_555
Cs10 Se3 3.712212 1_554
Cs10 Se2 3.712212 1_554
Cs11 Se1 3.609835 1_555
Cs11 Se3 3.609835 1_555
Cs11 Se8 3.609835 1_555
Cs11 Se5 3.712212 1_566
Cs11 Se7 3.712212 1_665
Cs11 Se0 3.712212 1_656
Sb0 Se9 2.576944 1_565
Sb0 Se8 2.576944 1_555
Sb0 Se4 2.576944 1_555
Sb1 Se11 2.576944 1_655
Sb1 Se1 2.576944 1_555
Sb1 Se6 2.576944 1_555
Sb2 Se10 2.576944 1_556
Sb2 Se3 2.576944 1_555
Sb2 Se2 2.576944 1_555
Sb3 Se5 2.576944 1_455
Sb3 Se0 2.576944 1_545
Sb3 Se7 2.576944 1_554
