# generated using pymatgen
data_Yb3Pd
_symmetry_space_group_name_H-M   'P 1'
_cell_length_a   6.31420375
_cell_length_b   6.87903247
_cell_length_c   9.49050394
_cell_angle_alpha   90.00000000
_cell_angle_beta   90.00000000
_cell_angle_gamma   90.00000000
_symmetry_Int_Tables_number   1
_chemical_formula_structural   Yb3Pd
_chemical_formula_sum   'Yb12 Pd4'
_cell_volume   412.22585291
_cell_formula_units_Z   4
loop_
 _symmetry_equiv_pos_site_id
 _symmetry_equiv_pos_as_xyz
  1  'x, y, z'
loop_
 _atom_site_type_symbol
 _atom_site_label
 _atom_site_symmetry_multiplicity
 _atom_site_fract_x
 _atom_site_fract_y
 _atom_site_fract_z
 _atom_site_occupancy
  Yb  Yb0  1  0.32020281  0.67844479  0.06029403  1
  Yb  Yb1  1  0.17979719  0.17844479  0.43970597  1
  Yb  Yb2  1  0.67979719  0.32155521  0.56029403  1
  Yb  Yb3  1  0.82020281  0.82155521  0.93970597  1
  Yb  Yb4  1  0.67979719  0.32155521  0.93970597  1
  Yb  Yb5  1  0.82020281  0.82155521  0.56029403  1
  Yb  Yb6  1  0.32020281  0.67844479  0.43970597  1
  Yb  Yb7  1  0.17979719  0.17844479  0.06029403  1
  Yb  Yb8  1  0.87007425  0.52526563  0.25000000  1
  Yb  Yb9  1  0.62992575  0.02526563  0.25000000  1
  Yb  Yb10  1  0.12992575  0.47473437  0.75000000  1
  Yb  Yb11  1  0.37007425  0.97473437  0.75000000  1
  Pd  Pd0  1  0.05207772  0.89002635  0.25000000  1
  Pd  Pd1  1  0.44792228  0.39002635  0.25000000  1
  Pd  Pd2  1  0.94792228  0.10997365  0.75000000  1
  Pd  Pd3  1  0.55207772  0.60997365  0.75000000  1
loop_
_geom_bond_atom_site_label_1
_geom_bond_atom_site_label_2
_geom_bond_distance
_geom_bond_site_symmetry_2
Pd0 Yb8 2.759849 1_455
Pd0 Yb1 2.797897 1_565
Pd0 Yb7 2.797897 1_565
Pd0 Yb9 2.823236 1_465
Pd0 Yb6 2.868119 1_555
Pd0 Yb0 2.868119 1_555
Pd1 Yb9 2.759849 1_555
Pd1 Yb6 2.797897 1_555
Pd1 Yb0 2.797897 1_555
Pd1 Yb8 2.823236 1_555
Pd1 Yb1 2.868119 1_555
Pd1 Yb7 2.868119 1_555
Pd2 Yb10 2.759849 1_655
Pd2 Yb3 2.797897 1_545
Pd2 Yb5 2.797897 1_545
Pd2 Yb11 2.823236 1_645
Pd2 Yb4 2.868119 1_555
Pd2 Yb2 2.868119 1_555
Pd3 Yb11 2.759849 1_555
Pd3 Yb4 2.797897 1_555
Pd3 Yb2 2.797897 1_555
Pd3 Yb10 2.823236 1_555
Pd3 Yb3 2.868119 1_555
Pd3 Yb5 2.868119 1_555
