# generated using pymatgen
data_Na3(PO4)2
_symmetry_space_group_name_H-M   'P 1'
_cell_length_a   7.01182100
_cell_length_b   9.45880100
_cell_length_c   13.27247388
_cell_angle_alpha   54.59221046
_cell_angle_beta   90.00000000
_cell_angle_gamma   90.00000000
_symmetry_Int_Tables_number   1
_chemical_formula_structural   Na3(PO4)2
_chemical_formula_sum   'Na12 P8 O32'
_cell_volume   717.46798248
_cell_formula_units_Z   4
loop_
 _symmetry_equiv_pos_site_id
 _symmetry_equiv_pos_as_xyz
  1  'x, y, z'
loop_
 _atom_site_type_symbol
 _atom_site_label
 _atom_site_symmetry_multiplicity
 _atom_site_fract_x
 _atom_site_fract_y
 _atom_site_fract_z
 _atom_site_occupancy
  Na  Na0  1  0.84881400  0.33417700  0.73349000  1
  Na  Na1  1  0.65118600  0.33417700  0.23349000  1
  Na  Na2  1  0.15118600  0.66582300  0.26651000  1
  Na  Na3  1  0.34881400  0.66582300  0.76651000  1
  Na  Na4  1  0.87728700  0.99718800  0.24823900  1
  Na  Na5  1  0.62271300  0.99718800  0.74823900  1
  Na  Na6  1  0.12271300  0.00281200  0.75176100  1
  Na  Na7  1  0.37728700  0.00281200  0.25176100  1
  Na  Na8  1  0.64349200  0.70672300  0.56149200  1
  Na  Na9  1  0.85650800  0.70672300  0.06149200  1
  Na  Na10  1  0.35650800  0.29327700  0.43850800  1
  Na  Na11  1  0.14349200  0.29327700  0.93850800  1
  P  P0  1  0.33542600  0.33723600  0.67559600  1
  P  P1  1  0.16457400  0.33723600  0.17559600  1
  P  P2  1  0.66457400  0.66276400  0.32440400  1
  P  P3  1  0.83542600  0.66276400  0.82440400  1
  P  P4  1  0.15608200  0.68424900  0.51534100  1
  P  P5  1  0.34391800  0.68424900  0.01534100  1
  P  P6  1  0.84391800  0.31575100  0.48465900  1
  P  P7  1  0.65608200  0.31575100  0.98465900  1
  O  O0  1  0.38223100  0.20716500  0.64599700  1
  O  O1  1  0.11776900  0.20716500  0.14599700  1
  O  O2  1  0.61776900  0.79283500  0.35400300  1
  O  O3  1  0.88223100  0.79283500  0.85400300  1
  O  O4  1  0.51710600  0.39934900  0.70493000  1
  O  O5  1  0.98289400  0.39934900  0.20493000  1
  O  O6  1  0.48289400  0.60065100  0.29507000  1
  O  O7  1  0.01710600  0.60065100  0.79507000  1
  O  O8  1  0.17880300  0.27358500  0.77176700  1
  O  O9  1  0.32119700  0.27358500  0.27176700  1
  O  O10  1  0.82119700  0.72641500  0.22823300  1
  O  O11  1  0.67880300  0.72641500  0.72823300  1
  O  O12  1  0.96721900  0.63118500  0.58649200  1
  O  O13  1  0.53278100  0.63118500  0.08649200  1
  O  O14  1  0.03278100  0.36881500  0.41350800  1
  O  O15  1  0.46721900  0.36881500  0.91350800  1
  O  O16  1  0.30490400  0.75768300  0.56030300  1
  O  O17  1  0.19509600  0.75768300  0.06030300  1
  O  O18  1  0.69509600  0.24231700  0.43969700  1
  O  O19  1  0.80490400  0.24231700  0.93969700  1
  O  O20  1  0.12618600  0.79839800  0.37595800  1
  O  O21  1  0.37381400  0.79839800  0.87595800  1
  O  O22  1  0.87381400  0.20160200  0.62404200  1
  O  O23  1  0.62618600  0.20160200  0.12404200  1
  O  O24  1  0.25553600  0.50821000  0.54344300  1
  O  O25  1  0.24446400  0.50821000  0.04344300  1
  O  O26  1  0.74446400  0.49179000  0.45655700  1
  O  O27  1  0.75553600  0.49179000  0.95655700  1
  O  O28  1  0.77820200  0.02783700  0.42845500  1
  O  O29  1  0.72179800  0.02783700  0.92845500  1
  O  O30  1  0.22179800  0.97216300  0.57154500  1
  O  O31  1  0.27820200  0.97216300  0.07154500  1
loop_
_geom_bond_atom_site_label_1
_geom_bond_atom_site_label_2
_geom_bond_distance
_geom_bond_site_symmetry_2
Na0 O19 2.363182 1_555
Na0 O8 2.367056 1_655
Na0 O4 2.379627 1_555
Na0 O22 2.413356 1_555
Na0 O12 2.456985 1_555
Na0 O29 2.682673 1_555
Na1 O18 2.363182 1_555
Na1 O9 2.367056 1_555
Na1 O5 2.379627 1_555
Na1 O23 2.413356 1_555
Na1 O13 2.456985 1_555
Na1 O28 2.682673 1_555
Na2 O17 2.363182 1_555
Na2 O10 2.367056 1_455
Na2 O6 2.379627 1_555
Na2 O20 2.413356 1_555
Na2 O14 2.456985 1_555
Na2 O31 2.682673 1_555
Na3 O16 2.363182 1_555
Na3 O11 2.367056 1_555
Na3 O7 2.379627 1_555
Na3 O21 2.413356 1_555
Na3 O15 2.456985 1_555
Na3 O30 2.682673 1_555
Na4 O1 2.346564 1_665
Na4 O20 2.400299 1_655
Na4 O23 2.421238 1_565
Na4 O2 2.423601 1_555
Na4 O28 2.662990 1_565
Na4 O10 2.751894 1_555
Na5 O0 2.346564 1_565
Na5 O21 2.400299 1_555
Na5 O22 2.421238 1_565
Na5 O3 2.423601 1_555
Na5 O29 2.662990 1_565
Na5 O11 2.751894 1_555
Na6 O3 2.346564 1_445
Na6 O22 2.400299 1_455
Na6 O21 2.421238 1_545
Na6 O0 2.423601 1_555
Na6 O30 2.662990 1_545
Na6 O8 2.751894 1_555
Na7 O2 2.346564 1_545
Na7 O23 2.400299 1_555
Na7 O20 2.421238 1_545
Na7 O1 2.423601 1_555
Na7 O31 2.662990 1_545
Na7 O9 2.751894 1_555
Na8 O11 2.339085 1_555
Na8 O12 2.344867 1_555
Na8 O2 2.383408 1_555
Na8 O16 2.420788 1_555
Na8 O4 2.539435 1_555
Na8 O28 2.649677 1_565
Na9 O10 2.339085 1_555
Na9 O13 2.344867 1_555
Na9 O3 2.383408 1_554
Na9 O17 2.420788 1_655
Na9 O5 2.539435 1_555
Na9 O29 2.649677 1_564
Na10 O9 2.339085 1_555
Na10 O14 2.344867 1_555
Na10 O0 2.383408 1_555
Na10 O18 2.420788 1_555
Na10 O6 2.539435 1_555
Na10 O30 2.649677 1_545
Na11 O8 2.339085 1_555
Na11 O15 2.344867 1_555
Na11 O1 2.383408 1_556
Na11 O19 2.420788 1_455
Na11 O7 2.539435 1_555
Na11 O31 2.649677 1_546
O0 P0 1.528331 1_555
O1 P1 1.528331 1_555
O2 P2 1.528331 1_555
O3 P3 1.528331 1_555
O4 P0 1.544233 1_555
O5 P1 1.544233 1_655
O6 P2 1.544233 1_555
O7 P3 1.544233 1_455
O8 P0 1.518981 1_555
O9 P1 1.518981 1_555
O10 P2 1.518981 1_555
O11 P3 1.518981 1_555
O12 P4 1.532374 1_655
O13 P5 1.532374 1_555
O14 P6 1.532374 1_455
O15 P7 1.532374 1_555
O16 P4 1.551718 1_555
O17 P5 1.551718 1_555
O18 P6 1.551718 1_555
O19 P7 1.551718 1_555
O20 P4 1.522328 1_555
O21 P5 1.522328 1_556
O22 P6 1.522328 1_555
O23 P7 1.522328 1_554
O24 P4 1.636570 1_555
O24 P0 1.648843 1_555
O25 P5 1.636570 1_555
O25 P1 1.648843 1_555
O26 P6 1.636570 1_555
O26 P2 1.648843 1_555
O27 P7 1.636570 1_555
O27 P3 1.648843 1_555
