# generated using pymatgen
data_Mg5Si9
_symmetry_space_group_name_H-M   'P 1'
_cell_length_a   6.89276800
_cell_length_b   7.21678108
_cell_length_c   12.65883614
_cell_angle_alpha   82.86097643
_cell_angle_beta   75.57361739
_cell_angle_gamma   62.69051509
_symmetry_Int_Tables_number   1
_chemical_formula_structural   Mg5Si9
_chemical_formula_sum   'Mg10 Si18'
_cell_volume   541.83234762
_cell_formula_units_Z   2
loop_
 _symmetry_equiv_pos_site_id
 _symmetry_equiv_pos_as_xyz
  1  'x, y, z'
loop_
 _atom_site_type_symbol
 _atom_site_label
 _atom_site_symmetry_multiplicity
 _atom_site_fract_x
 _atom_site_fract_y
 _atom_site_fract_z
 _atom_site_occupancy
  Mg  Mg0  1  0.49931900  0.01428000  0.73064200  1
  Mg  Mg1  1  0.15090200  0.02651600  0.36839200  1
  Mg  Mg2  1  0.49797600  0.36055600  0.55332600  1
  Mg  Mg3  1  0.64762200  0.60281800  0.38057600  1
  Mg  Mg4  1  0.01593400  0.37303300  0.54499400  1
  Mg  Mg5  1  0.75953100  0.90811700  0.47341000  1
  Mg  Mg6  1  0.45932600  0.86793600  0.11598300  1
  Mg  Mg7  1  0.84998400  0.77526000  0.89584900  1
  Mg  Mg8  1  0.63967700  0.20048100  0.10945700  1
  Mg  Mg9  1  0.48298200  0.56695700  0.95147400  1
  Si  Si0  1  0.91512700  0.69337200  0.16863600  1
  Si  Si1  1  0.14344000  0.31918000  0.90486000  1
  Si  Si2  1  0.71967700  0.21165800  0.31130000  1
  Si  Si3  1  0.18820000  0.78432200  0.70237600  1
  Si  Si4  1  0.42119900  0.53729000  0.24772800  1
  Si  Si5  1  0.77021500  0.22610200  0.78809600  1
  Si  Si6  1  0.13182200  0.42700200  0.29134700  1
  Si  Si7  1  0.74853200  0.57228600  0.75000700  1
  Si  Si8  1  0.03002800  0.17053800  0.15805700  1
  Si  Si9  1  0.90772300  0.05427700  0.61358200  1
  Si  Si10  1  0.09384600  0.02035100  0.86046400  1
  Si  Si11  1  0.09599900  0.88335100  0.04631500  1
  Si  Si12  1  0.58710200  0.96489100  0.28436400  1
  Si  Si13  1  0.14330400  0.46662600  0.72697100  1
  Si  Si14  1  0.50526100  0.17220600  0.93659000  1
  Si  Si15  1  0.84343900  0.48804000  0.05664200  1
  Si  Si16  1  0.56359100  0.68933400  0.59986000  1
  Si  Si17  1  0.18830200  0.62344700  0.42852600  1
loop_
_geom_bond_atom_site_label_1
_geom_bond_atom_site_label_2
_geom_bond_distance
_geom_bond_site_symmetry_2
Mg0 Si16 2.843005 1_545
Mg0 Si10 2.851442 1_555
Mg0 Si7 2.858877 1_545
Mg0 Si9 2.960467 1_555
Mg0 Si14 2.988641 1_555
Mg0 Si1 3.046398 1_555
Mg0 Si13 3.057650 1_555
Mg0 Si5 3.150317 1_555
Mg1 Si12 2.768775 1_545
Mg1 Si17 2.822537 1_545
Mg1 Si2 2.885920 1_455
Mg1 Si6 2.887278 1_555
Mg1 Si8 2.913204 1_555
Mg1 Si9 3.120503 1_455
Mg2 Si13 2.723550 1_555
Mg2 Si16 2.765170 1_555
Mg2 Si17 2.805490 1_555
Mg2 Si9 2.893131 1_555
Mg2 Si2 3.139308 1_555
Mg3 Si12 2.635735 1_555
Mg3 Si4 2.769502 1_555
Mg3 Si16 2.780045 1_555
Mg3 Si2 2.845413 1_555
Mg3 Si6 2.935414 1_655
Mg3 Si17 3.007739 1_555
Mg3 Si0 3.038070 1_555
Mg4 Si17 2.699312 1_555
Mg4 Si9 2.712428 1_455
Mg4 Si16 2.863332 1_455
Mg4 Si7 2.883105 1_455
Mg4 Si13 2.910707 1_555
Mg4 Si6 3.129880 1_555
Mg5 Si16 2.670313 1_555
Mg5 Si17 2.675826 1_655
Mg5 Si9 2.767940 1_565
Mg5 Si2 2.774298 1_565
Mg5 Si12 2.834437 1_555
Mg6 Si8 2.717169 1_565
Mg6 Si12 2.771310 1_555
Mg6 Si11 2.807539 1_555
Mg6 Si4 2.812874 1_555
Mg6 Si15 2.819740 1_555
Mg6 Si0 3.017405 1_555
Mg6 Si14 3.019814 1_564
Mg7 Si15 2.726351 1_556
Mg7 Si14 2.762058 1_565
Mg7 Si7 2.880708 1_555
Mg7 Si10 2.882804 1_665
Mg7 Si13 2.918330 1_655
Mg7 Si3 2.948297 1_655
Mg7 Si1 2.974989 1_655
Mg7 Si11 3.210048 1_656
Mg7 Si5 3.221500 1_565
Mg8 Si14 2.642604 1_554
Mg8 Si12 2.674738 1_545
Mg8 Si4 2.761348 1_555
Mg8 Si2 2.762819 1_555
Mg8 Si8 2.814739 1_655
Mg8 Si11 2.892496 1_645
Mg8 Si15 2.930523 1_555
Mg9 Si11 2.695745 1_556
Mg9 Si7 2.751403 1_555
Mg9 Si14 2.809358 1_555
Mg9 Si15 2.903612 1_556
Mg9 Si5 3.000588 1_555
Si0 Si11 2.431164 1_655
Si0 Si15 2.448064 1_555
Si0 Si12 2.468939 1_555
Si0 Si6 2.473560 1_655
Si1 Si14 2.339253 1_555
Si1 Si13 2.368067 1_555
Si1 Si15 2.396402 1_456
Si1 Si10 2.481327 1_555
Si2 Si8 2.433137 1_655
Si2 Si4 2.514234 1_555
Si3 Si9 2.424645 1_465
Si4 Si6 2.390726 1_555
Si5 Si9 2.423932 1_555
Si5 Si7 2.427008 1_555
Si10 Si5 2.379268 1_455
Si10 Si11 2.436908 1_546
Si10 Si3 2.551771 1_545
Si11 Si8 2.458981 1_565
Si12 Si2 2.433565 1_565
Si13 Si7 2.413857 1_455
Si13 Si3 2.423834 1_555
Si14 Si5 2.404074 1_555
Si15 Si8 2.437199 1_655
Si16 Si3 2.401982 1_555
Si16 Si7 2.402350 1_555
Si17 Si4 2.410159 1_555
Si17 Si6 2.575296 1_555
