# generated using pymatgen
data_K3AlSe3
_symmetry_space_group_name_H-M   'P 1'
_cell_length_a   13.10160551
_cell_length_b   8.10653919
_cell_length_c   10.46606880
_cell_angle_alpha   52.41097776
_cell_angle_beta   90.00000000
_cell_angle_gamma   90.00000000
_symmetry_Int_Tables_number   1
_chemical_formula_structural   K3AlSe3
_chemical_formula_sum   'K12 Al4 Se12'
_cell_volume   880.82906557
_cell_formula_units_Z   4
loop_
 _symmetry_equiv_pos_site_id
 _symmetry_equiv_pos_as_xyz
  1  'x, y, z'
loop_
 _atom_site_type_symbol
 _atom_site_label
 _atom_site_symmetry_multiplicity
 _atom_site_fract_x
 _atom_site_fract_y
 _atom_site_fract_z
 _atom_site_occupancy
  K  K0  1  0.31225326  0.15110383  0.07356895  1
  K  K1  1  0.68774674  0.84889617  0.92643105  1
  K  K2  1  0.81225326  0.84889617  0.42643105  1
  K  K3  1  0.89802241  0.32215728  0.39778370  1
  K  K4  1  0.61929938  0.37755097  0.47042706  1
  K  K5  1  0.11929938  0.62244903  0.02957294  1
  K  K6  1  0.38070062  0.62244903  0.52957294  1
  K  K7  1  0.88070062  0.37755097  0.97042706  1
  K  K8  1  0.60197759  0.32215728  0.89778370  1
  K  K9  1  0.10197759  0.67784272  0.60221630  1
  K  K10  1  0.39802241  0.67784272  0.10221630  1
  K  K11  1  0.18774674  0.15110383  0.57356895  1
  Al  Al0  1  0.06239383  0.94286845  0.15831862  1
  Al  Al1  1  0.56239383  0.05713155  0.34168138  1
  Al  Al2  1  0.43760617  0.94286845  0.65831862  1
  Al  Al3  1  0.93760617  0.05713155  0.84168138  1
  Se  Se0  1  0.39756229  0.17107211  0.36951408  1
  Se  Se1  1  0.89756229  0.82892789  0.13048592  1
  Se  Se2  1  0.60243771  0.82892789  0.63048592  1
  Se  Se3  1  0.10243771  0.17107211  0.86951408  1
  Se  Se4  1  0.68580736  0.32648026  0.19766757  1
  Se  Se5  1  0.18580736  0.67351974  0.30233243  1
  Se  Se6  1  0.31419264  0.67351974  0.80233243  1
  Se  Se7  1  0.81419264  0.32648026  0.69766757  1
  Se  Se8  1  0.54774503  0.87026379  0.23711560  1
  Se  Se9  1  0.04774503  0.12973621  0.26288440  1
  Se  Se10  1  0.45225497  0.12973621  0.76288440  1
  Se  Se11  1  0.95225497  0.87026379  0.73711560  1
loop_
_geom_bond_atom_site_label_1
_geom_bond_atom_site_label_2
_geom_bond_distance
_geom_bond_site_symmetry_2
K0 Se6 3.365636 1_554
K0 Se0 3.388345 1_555
K0 Se3 3.423744 1_554
K0 Se5 3.486719 1_545
K0 Se8 3.588594 1_545
K0 Se10 3.828161 1_554
K1 Se4 3.365636 1_556
K1 Se2 3.388345 1_555
K1 Se1 3.423744 1_556
K1 Se7 3.486719 1_565
K1 Se10 3.588594 1_565
K1 Se8 3.828161 1_556
K2 Se7 3.365636 1_555
K2 Se1 3.388345 1_555
K2 Se2 3.423744 1_555
K2 Se4 3.486719 1_565
K2 Se9 3.588594 1_665
K2 Se11 3.828161 1_555
K3 Se11 3.265792 1_545
K3 Se1 3.268370 1_555
K3 Se9 3.310780 1_655
K3 Se7 3.345524 1_555
K3 Se4 3.468243 1_555
K4 Se4 3.243758 1_555
K4 Se10 3.269972 1_555
K4 Se8 3.300952 1_555
K4 Se7 3.338632 1_555
K4 Se2 3.680419 1_545
K4 Se0 3.809671 1_555
K5 Se5 3.243758 1_555
K5 Se11 3.269972 1_454
K5 Se9 3.300952 1_555
K5 Se6 3.338632 1_554
K5 Se3 3.680419 1_564
K5 Se1 3.809671 1_455
K6 Se6 3.243758 1_555
K6 Se8 3.269972 1_555
K6 Se10 3.300952 1_555
K6 Se5 3.338632 1_555
K6 Se0 3.680419 1_565
K6 Se2 3.809671 1_555
K7 Se7 3.243758 1_555
K7 Se9 3.269972 1_656
K7 Se11 3.300952 1_555
K7 Se4 3.338632 1_556
K7 Se1 3.680419 1_546
K7 Se3 3.809671 1_655
K8 Se8 3.265792 1_546
K8 Se2 3.268370 1_555
K8 Se10 3.310780 1_555
K8 Se4 3.345524 1_556
K8 Se7 3.468243 1_555
K9 Se9 3.265792 1_565
K9 Se3 3.268370 1_555
K9 Se11 3.310780 1_455
K9 Se5 3.345524 1_555
K9 Se6 3.468243 1_555
K10 Se10 3.265792 1_564
K10 Se0 3.268370 1_555
K10 Se8 3.310780 1_555
K10 Se6 3.345524 1_554
K10 Se5 3.468243 1_555
K11 Se5 3.365636 1_555
K11 Se3 3.388345 1_555
K11 Se0 3.423744 1_555
K11 Se6 3.486719 1_545
K11 Se11 3.588594 1_445
K11 Se9 3.828161 1_555
Al0 Se9 2.356236 1_565
Al0 Se5 2.374612 1_555
Al0 Se1 2.435149 1_455
Al0 Se3 2.451959 1_564
Al1 Se8 2.356236 1_545
Al1 Se4 2.374612 1_555
Al1 Se0 2.435149 1_555
Al1 Se2 2.451959 1_545
Al2 Se10 2.356236 1_565
Al2 Se6 2.374612 1_555
Al2 Se2 2.435149 1_555
Al2 Se0 2.451959 1_565
Al3 Se11 2.356236 1_545
Al3 Se7 2.374612 1_555
Al3 Se3 2.435149 1_655
Al3 Se1 2.451959 1_546
