# generated using pymatgen
data_Ag3SNO4
_symmetry_space_group_name_H-M   'P 1'
_cell_length_a   8.79234500
_cell_length_b   11.29506900
_cell_length_c   14.81239778
_cell_angle_alpha   50.11724723
_cell_angle_beta   90.00000000
_cell_angle_gamma   90.00000000
_symmetry_Int_Tables_number   1
_chemical_formula_structural   Ag3SNO4
_chemical_formula_sum   'Ag24 S8 N8 O32'
_cell_volume   1128.80030413
_cell_formula_units_Z   8
loop_
 _symmetry_equiv_pos_site_id
 _symmetry_equiv_pos_as_xyz
  1  'x, y, z'
loop_
 _atom_site_type_symbol
 _atom_site_label
 _atom_site_symmetry_multiplicity
 _atom_site_fract_x
 _atom_site_fract_y
 _atom_site_fract_z
 _atom_site_occupancy
  Ag  Ag0  1  0.50000000  0.00000000  0.50000000  1
  Ag  Ag1  1  0.00000000  0.00000000  0.00000000  1
  Ag  Ag2  1  0.00000000  0.00000000  0.50000000  1
  Ag  Ag3  1  0.50000000  0.00000000  0.00000000  1
  Ag  Ag4  1  0.49621700  0.50418700  0.25234100  1
  Ag  Ag5  1  0.00378300  0.50418700  0.75234100  1
  Ag  Ag6  1  0.50378300  0.49581300  0.74765900  1
  Ag  Ag7  1  0.99621700  0.49581300  0.24765900  1
  Ag  Ag8  1  0.25038400  0.75202000  0.60013200  1
  Ag  Ag9  1  0.24961600  0.75202000  0.10013200  1
  Ag  Ag10  1  0.74961600  0.24798000  0.39986800  1
  Ag  Ag11  1  0.75038400  0.24798000  0.89986800  1
  Ag  Ag12  1  0.25143300  0.26157900  0.38301600  1
  Ag  Ag13  1  0.24856700  0.26157900  0.88301600  1
  Ag  Ag14  1  0.74856700  0.73842100  0.61698400  1
  Ag  Ag15  1  0.75143300  0.73842100  0.11698400  1
  Ag  Ag16  1  0.50455700  0.25005400  0.57795700  1
  Ag  Ag17  1  0.99544300  0.25005400  0.07795700  1
  Ag  Ag18  1  0.49544300  0.74994600  0.42204300  1
  Ag  Ag19  1  0.00455700  0.74994600  0.92204300  1
  Ag  Ag20  1  0.52139200  0.74280300  0.92684600  1
  Ag  Ag21  1  0.97860800  0.74280300  0.42684600  1
  Ag  Ag22  1  0.47860800  0.25719700  0.07315400  1
  Ag  Ag23  1  0.02139200  0.25719700  0.57315400  1
  S  S0  1  0.74867800  0.95268200  0.67611300  1
  S  S1  1  0.75132200  0.95268200  0.17611300  1
  S  S2  1  0.25132200  0.04731800  0.32388700  1
  S  S3  1  0.24867800  0.04731800  0.82388700  1
  S  S4  1  0.26637600  0.55433800  0.87400100  1
  S  S5  1  0.23362400  0.55433800  0.37400100  1
  S  S6  1  0.73362400  0.44566200  0.12599900  1
  S  S7  1  0.76637600  0.44566200  0.62599900  1
  N  N0  1  0.25426400  0.51289900  0.78434500  1
  N  N1  1  0.24573600  0.51289900  0.28434500  1
  N  N2  1  0.74573600  0.48710100  0.21565500  1
  N  N3  1  0.75426400  0.48710100  0.71565500  1
  N  N4  1  0.74939300  0.98049400  0.55000700  1
  N  N5  1  0.75060700  0.98049400  0.05000700  1
  N  N6  1  0.25060700  0.01950600  0.44999300  1
  N  N7  1  0.24939300  0.01950600  0.94999300  1
  O  O0  1  0.15348800  0.67637100  0.83101300  1
  O  O1  1  0.34651200  0.67637100  0.33101300  1
  O  O2  1  0.84651200  0.32362900  0.16898700  1
  O  O3  1  0.65348800  0.32362900  0.66898700  1
  O  O4  1  0.42572400  0.60367000  0.86525500  1
  O  O5  1  0.07427600  0.60367000  0.36525500  1
  O  O6  1  0.57427600  0.39633000  0.13474500  1
  O  O7  1  0.92572400  0.39633000  0.63474500  1
  O  O8  1  0.26632600  0.41083300  0.49620100  1
  O  O9  1  0.23367400  0.41083300  0.99620100  1
  O  O10  1  0.73367400  0.58916700  0.50379900  1
  O  O11  1  0.76632600  0.58916700  0.00379900  1
  O  O12  1  0.85696800  0.82612600  0.75475700  1
  O  O13  1  0.64303200  0.82612600  0.25475700  1
  O  O14  1  0.14303200  0.17387400  0.24524300  1
  O  O15  1  0.35696800  0.17387400  0.74524300  1
  O  O16  1  0.79294700  0.10042100  0.64682400  1
  O  O17  1  0.70705300  0.10042100  0.14682400  1
  O  O18  1  0.20705300  0.89957900  0.35317600  1
  O  O19  1  0.29294700  0.89957900  0.85317600  1
  O  O20  1  0.08966800  0.08718600  0.78031600  1
  O  O21  1  0.41033200  0.08718600  0.28031600  1
  O  O22  1  0.91033200  0.91281400  0.21968400  1
  O  O23  1  0.58966800  0.91281400  0.71968400  1
  O  O24  1  0.50356100  0.76018900  0.07355600  1
  O  O25  1  0.99643900  0.76018900  0.57355600  1
  O  O26  1  0.49643900  0.23981100  0.92644400  1
  O  O27  1  0.00356100  0.23981100  0.42644400  1
  O  O28  1  0.50133100  0.75596700  0.57268500  1
  O  O29  1  0.99866900  0.75596700  0.07268500  1
  O  O30  1  0.49866900  0.24403300  0.42731500  1
  O  O31  1  0.00133100  0.24403300  0.92731500  1
loop_
_geom_bond_atom_site_label_1
_geom_bond_atom_site_label_2
_geom_bond_distance
_geom_bond_site_symmetry_2
Ag0 O28 2.225103 1_545
Ag0 O30 2.225103 1_555
Ag0 N4 2.279489 1_545
Ag0 N6 2.279489 1_555
Ag1 O31 2.225103 1_554
Ag1 O29 2.225103 1_445
Ag1 N7 2.279489 1_554
Ag1 N5 2.279489 1_445
Ag2 O27 2.177219 1_555
Ag2 O25 2.177219 1_445
Ag2 N6 2.289759 1_555
Ag2 N4 2.289759 1_445
Ag3 O26 2.177219 1_554
Ag3 O24 2.177219 1_545
Ag3 N5 2.289759 1_545
Ag3 N7 2.289759 1_554
Ag4 N1 2.268133 1_555
Ag4 N2 2.297833 1_555
Ag4 O24 2.357570 1_555
Ag4 O30 2.363365 1_555
Ag4 O6 2.776817 1_555
Ag5 N0 2.268133 1_555
Ag5 N3 2.297833 1_455
Ag5 O25 2.357570 1_455
Ag5 O31 2.363365 1_555
Ag5 O7 2.776817 1_455
Ag6 N3 2.268133 1_555
Ag6 N0 2.297833 1_555
Ag6 O26 2.357570 1_555
Ag6 O28 2.363365 1_555
Ag6 O4 2.776817 1_555
Ag7 N2 2.268133 1_555
Ag7 N1 2.297833 1_655
Ag7 O27 2.357570 1_655
Ag7 O29 2.363365 1_555
Ag7 O5 2.776817 1_655
Ag8 O28 2.238814 1_555
Ag8 O25 2.258798 1_455
Ag8 N0 2.300040 1_555
Ag8 N6 2.336050 1_565
Ag9 O29 2.238814 1_455
Ag9 O24 2.258798 1_555
Ag9 N1 2.300040 1_555
Ag9 N7 2.336050 1_564
Ag10 O30 2.238814 1_555
Ag10 O27 2.258798 1_655
Ag10 N2 2.300040 1_555
Ag10 N4 2.336050 1_545
Ag11 O31 2.238814 1_655
Ag11 O26 2.258798 1_555
Ag11 N3 2.300040 1_555
Ag11 N5 2.336050 1_546
Ag12 N1 2.208180 1_555
Ag12 N6 2.231944 1_555
Ag12 O27 2.240781 1_555
Ag12 O30 2.242411 1_555
Ag13 N0 2.208180 1_555
Ag13 N7 2.231944 1_555
Ag13 O26 2.240781 1_555
Ag13 O31 2.242411 1_555
Ag14 N3 2.208180 1_555
Ag14 N4 2.231944 1_555
Ag14 O25 2.240781 1_555
Ag14 O28 2.242411 1_555
Ag15 N2 2.208180 1_555
Ag15 N5 2.231944 1_555
Ag15 O24 2.240781 1_555
Ag15 O29 2.242411 1_555
Ag16 O30 2.276164 1_555
Ag16 O3 2.379164 1_555
Ag16 O15 2.414536 1_555
Ag16 O8 2.516243 1_555
Ag17 O31 2.276164 1_654
Ag17 O2 2.379164 1_555
Ag17 O14 2.414536 1_655
Ag17 O9 2.516243 1_654
Ag18 O28 2.276164 1_555
Ag18 O1 2.379164 1_555
Ag18 O13 2.414536 1_555
Ag18 O10 2.516243 1_555
Ag19 O29 2.276164 1_456
Ag19 O0 2.379164 1_555
Ag19 O12 2.414536 1_455
Ag19 O11 2.516243 1_456
Ag20 O24 2.309308 1_556
Ag20 O4 2.418294 1_555
Ag20 O19 2.425434 1_555
Ag20 O23 2.430467 1_555
Ag20 O11 2.532133 1_556
Ag21 O25 2.309308 1_555
Ag21 O5 2.418294 1_655
Ag21 O18 2.425434 1_655
Ag21 O22 2.430467 1_555
Ag21 O10 2.532133 1_555
Ag22 O26 2.309308 1_554
Ag22 O6 2.418294 1_555
Ag22 O17 2.425434 1_555
Ag22 O21 2.430467 1_555
Ag22 O9 2.532133 1_554
Ag23 O27 2.309308 1_555
Ag23 O7 2.418294 1_455
Ag23 O16 2.425434 1_455
Ag23 O20 2.430467 1_555
Ag23 O8 2.532133 1_555
N0 S4 1.670690 1_555
N1 S5 1.670690 1_555
N2 S6 1.670690 1_555
N3 S7 1.670690 1_555
N4 S0 1.683857 1_555
N5 S1 1.683857 1_555
N6 S2 1.683857 1_555
N7 S3 1.683857 1_555
O0 S4 1.471375 1_555
O1 S5 1.471375 1_555
O2 S6 1.471375 1_555
O3 S7 1.471375 1_555
O4 S4 1.482434 1_555
O5 S5 1.482434 1_555
O6 S6 1.482434 1_555
O7 S7 1.482434 1_555
O8 S5 1.491225 1_555
O9 S4 1.491225 1_555
O10 S7 1.491225 1_555
O11 S6 1.491225 1_555
O12 S0 1.473568 1_555
O13 S1 1.473568 1_555
O14 S2 1.473568 1_555
O15 S3 1.473568 1_555
O16 S0 1.481863 1_545
O17 S1 1.481863 1_545
O18 S2 1.481863 1_565
O19 S3 1.481863 1_565
O20 S3 1.483644 1_555
O21 S2 1.483644 1_555
O22 S1 1.483644 1_555
O23 S0 1.483644 1_555
