# generated using pymatgen
data_Cs2Se
_symmetry_space_group_name_H-M   'P 1'
_cell_length_a   6.61643614
_cell_length_b   6.61643614
_cell_length_c   8.47281400
_cell_angle_alpha   90.00000000
_cell_angle_beta   90.00000000
_cell_angle_gamma   131.49745576
_symmetry_Int_Tables_number   1
_chemical_formula_structural   Cs2Se
_chemical_formula_sum   'Cs4 Se2'
_cell_volume   277.81080104
_cell_formula_units_Z   2
loop_
 _symmetry_equiv_pos_site_id
 _symmetry_equiv_pos_as_xyz
  1  'x, y, z'
loop_
 _atom_site_type_symbol
 _atom_site_label
 _atom_site_symmetry_multiplicity
 _atom_site_fract_x
 _atom_site_fract_y
 _atom_site_fract_z
 _atom_site_occupancy
  Cs  Cs0  1  0.50000000  0.50000000  0.50000000  1
  Cs  Cs1  1  0.50000000  0.50000000  0.00000000  1
  Cs  Cs2  1  0.80686200  0.19313800  0.25000000  1
  Cs  Cs3  1  0.19313800  0.80686200  0.75000000  1
  Se  Se0  1  0.12181200  0.87818800  0.25000000  1
  Se  Se1  1  0.87818800  0.12181200  0.75000000  1
loop_
_geom_bond_atom_site_label_1
_geom_bond_atom_site_label_2
_geom_bond_distance
_geom_bond_site_symmetry_2
Cs0 Se1 3.745963 1_565
Cs0 Se0 3.745963 1_655
Cs0 Se1 3.745963 1_455
Cs0 Se0 3.745963 1_545
Cs1 Se1 3.745963 1_564
Cs1 Se0 3.745963 1_655
Cs1 Se1 3.745963 1_454
Cs1 Se0 3.745963 1_545
Cs2 Se0 3.517133 1_655
Cs2 Se0 3.517133 1_545
Cs2 Se0 3.799906 1_645
Cs3 Se1 3.517133 1_565
Cs3 Se1 3.517133 1_455
Cs3 Se1 3.799906 1_465
