# generated using pymatgen
data_K4Ba2SnP4
_symmetry_space_group_name_H-M   'P 1'
_cell_length_a   10.39648744
_cell_length_b   10.39648744
_cell_length_c   7.89018619
_cell_angle_alpha   89.25456487
_cell_angle_beta   89.25456487
_cell_angle_gamma   119.59706114
_symmetry_Int_Tables_number   1
_chemical_formula_structural   K4Ba2SnP4
_chemical_formula_sum   'K8 Ba4 Sn2 P8'
_cell_volume   741.30159459
_cell_formula_units_Z   2
loop_
 _symmetry_equiv_pos_site_id
 _symmetry_equiv_pos_as_xyz
  1  'x, y, z'
loop_
 _atom_site_type_symbol
 _atom_site_label
 _atom_site_symmetry_multiplicity
 _atom_site_fract_x
 _atom_site_fract_y
 _atom_site_fract_z
 _atom_site_occupancy
  K  K0  1  0.05341700  0.52590900  0.61715700  1
  K  K1  1  0.52590900  0.05341700  0.11715700  1
  K  K2  1  0.27832300  0.13750500  0.80797000  1
  K  K3  1  0.86540000  0.71801700  0.78447100  1
  K  K4  1  0.86189900  0.14777600  0.79631900  1
  K  K5  1  0.71801700  0.86540000  0.28447100  1
  K  K6  1  0.13750500  0.27832300  0.30797000  1
  K  K7  1  0.14777600  0.86189900  0.29631900  1
  Ba  Ba0  1  0.46868700  0.94340500  0.61720900  1
  Ba  Ba1  1  0.46654800  0.52345100  0.61856900  1
  Ba  Ba2  1  0.94340500  0.46868700  0.11720900  1
  Ba  Ba3  1  0.52345100  0.46654800  0.11856900  1
  Sn  Sn0  1  0.67108100  0.33661300  0.50252100  1
  Sn  Sn1  1  0.33661300  0.67108100  0.00252100  1
  P  P0  1  0.66462700  0.34146900  0.83161000  1
  P  P1  1  0.34146900  0.66462700  0.33161000  1
  P  P2  1  0.60542300  0.79772300  0.88284500  1
  P  P3  1  0.20115500  0.39582100  0.91077600  1
  P  P4  1  0.19559900  0.80015000  0.89930000  1
  P  P5  1  0.39582100  0.20115500  0.41077600  1
  P  P6  1  0.79772300  0.60542300  0.38284500  1
  P  P7  1  0.80015000  0.19559900  0.39930000  1
loop_
_geom_bond_atom_site_label_1
_geom_bond_atom_site_label_2
_geom_bond_distance
_geom_bond_site_symmetry_2
K0 P4 3.370095 1_555
K0 P1 3.405591 1_555
K0 P3 3.408587 1_555
K0 Sn0 3.592217 1_455
K0 P7 3.608352 1_455
K0 P6 3.664260 1_455
K1 P7 3.370095 1_555
K1 P0 3.405591 1_554
K1 P5 3.408587 1_555
K1 Sn1 3.592217 1_545
K1 P4 3.608352 1_544
K1 P2 3.664260 1_544
K2 P4 3.240163 1_545
K2 P3 3.268331 1_555
K2 P5 3.286275 1_555
K2 P0 3.504081 1_555
K3 P4 3.246595 1_655
K3 P2 3.281630 1_555
K3 P6 3.353839 1_555
K3 P0 3.419207 1_555
K4 P7 3.286230 1_555
K4 P3 3.326392 1_655
K4 P2 3.335126 1_545
K4 P0 3.523963 1_555
K5 P7 3.246595 1_565
K5 P6 3.281630 1_555
K5 P2 3.353839 1_554
K5 P1 3.419207 1_555
K6 P7 3.240163 1_455
K6 P5 3.268331 1_555
K6 P3 3.286275 1_554
K6 P1 3.504081 1_555
K7 P4 3.286230 1_554
K7 P5 3.326392 1_565
K7 P6 3.335126 1_455
K7 P1 3.523963 1_555
Ba0 P4 3.287152 1_555
Ba0 P2 3.290811 1_555
Ba0 P1 3.418829 1_555
Ba0 P5 3.511607 1_565
Ba0 P7 3.536868 1_565
Ba1 P2 3.275632 1_555
Ba1 P3 3.290544 1_555
Ba1 P1 3.293497 1_555
Ba1 P5 3.492387 1_555
Ba1 P6 3.596369 1_555
Ba2 P7 3.287152 1_555
Ba2 P6 3.290811 1_555
Ba2 P0 3.418829 1_554
Ba2 P3 3.511607 1_654
Ba2 P4 3.536868 1_654
Ba3 P6 3.275632 1_555
Ba3 P5 3.290544 1_555
Ba3 P0 3.293497 1_554
Ba3 P3 3.492387 1_554
Ba3 P2 3.596369 1_554
P0 Sn0 2.598359 1_555
P1 Sn1 2.598359 1_555
P2 Sn1 2.588383 1_556
P3 Sn1 2.606970 1_556
P4 Sn1 2.561067 1_556
P5 Sn0 2.606970 1_555
P6 Sn0 2.588383 1_555
P7 Sn0 2.561067 1_555
