# generated using pymatgen
data_BaDyFe4O7
_symmetry_space_group_name_H-M   'P 1'
_cell_length_a   9.37838100
_cell_length_b   6.29466200
_cell_length_c   6.44869855
_cell_angle_alpha   88.47751569
_cell_angle_beta   90.00000000
_cell_angle_gamma   90.00000000
_symmetry_Int_Tables_number   1
_chemical_formula_structural   BaDyFe4O7
_chemical_formula_sum   'Ba2 Dy2 Fe8 O14'
_cell_volume   380.55639062
_cell_formula_units_Z   2
loop_
 _symmetry_equiv_pos_site_id
 _symmetry_equiv_pos_as_xyz
  1  'x, y, z'
loop_
 _atom_site_type_symbol
 _atom_site_label
 _atom_site_symmetry_multiplicity
 _atom_site_fract_x
 _atom_site_fract_y
 _atom_site_fract_z
 _atom_site_occupancy
  Ba  Ba0  1  0.00156500  0.76159000  0.72902800  1
  Ba  Ba1  1  0.50156500  0.23841000  0.27097200  1
  Dy  Dy0  1  0.75194400  0.25443600  0.74932000  1
  Dy  Dy1  1  0.25194400  0.74556400  0.25068000  1
  Fe  Fe0  1  0.36846800  0.00524400  0.73220800  1
  Fe  Fe1  1  0.86846800  0.99475600  0.26779200  1
  Fe  Fe2  1  0.12518600  0.27204100  0.49825500  1
  Fe  Fe3  1  0.62518600  0.72795900  0.50174500  1
  Fe  Fe4  1  0.12246500  0.23026900  0.99194100  1
  Fe  Fe5  1  0.62246500  0.76973100  0.00805900  1
  Fe  Fe6  1  0.35745200  0.48099000  0.78157600  1
  Fe  Fe7  1  0.85745200  0.51901000  0.21842400  1
  O  O0  1  0.99133800  0.22805500  0.74838900  1
  O  O1  1  0.49133800  0.77194500  0.25161100  1
  O  O2  1  0.50050600  0.23694500  0.73700800  1
  O  O3  1  0.00050600  0.76305500  0.26299200  1
  O  O4  1  0.22680100  0.54058700  0.54439600  1
  O  O5  1  0.72680100  0.45941300  0.45560400  1
  O  O6  1  0.23079700  0.94926200  0.94859900  1
  O  O7  1  0.73079700  0.05073800  0.05140100  1
  O  O8  1  0.27762900  0.44136700  0.06323900  1
  O  O9  1  0.77762900  0.55863300  0.93676100  1
  O  O10  1  0.27348200  0.03139100  0.46671600  1
  O  O11  1  0.77348200  0.96860900  0.53328400  1
  O  O12  1  0.49036800  0.75478500  0.74938600  1
  O  O13  1  0.99036800  0.24521500  0.25061400  1
loop_
_geom_bond_atom_site_label_1
_geom_bond_atom_site_label_2
_geom_bond_distance
_geom_bond_site_symmetry_2
Ba0 O9 2.783234 1_455
Ba0 O11 2.789197 1_455
Ba0 O4 2.811213 1_555
Ba0 O6 2.847996 1_555
Ba0 O0 2.943768 1_465
Ba0 O3 3.005111 1_555
Ba1 O8 2.783234 1_555
Ba1 O10 2.789197 1_555
Ba1 O5 2.811213 1_555
Ba1 O7 2.847996 1_555
Ba1 O1 2.943768 1_545
Ba1 O2 3.005111 1_555
Dy0 O0 2.251281 1_555
Dy0 O5 2.275538 1_555
Dy0 O9 2.304044 1_555
Dy0 O7 2.312031 1_556
Dy0 O11 2.313423 1_545
Dy0 O2 2.362083 1_555
Dy1 O1 2.251281 1_555
Dy1 O4 2.275538 1_555
Dy1 O8 2.304044 1_555
Dy1 O6 2.312031 1_554
Dy1 O10 2.313423 1_565
Dy1 O3 2.362083 1_555
Fe0 O2 1.914135 1_555
Fe0 O6 1.926738 1_545
Fe0 O10 1.933100 1_555
Fe0 O12 1.948199 1_545
Fe1 O3 1.914135 1_655
Fe1 O7 1.926738 1_565
Fe1 O11 1.933100 1_555
Fe1 O13 1.948199 1_565
Fe2 O4 1.970004 1_555
Fe2 O13 2.047382 1_455
Fe2 O0 2.056829 1_455
Fe2 O10 2.070422 1_555
Fe3 O5 1.970004 1_555
Fe3 O12 2.047382 1_555
Fe3 O1 2.056829 1_555
Fe3 O11 2.070422 1_555
Fe4 O0 1.995101 1_455
Fe4 O8 2.031530 1_556
Fe4 O6 2.065288 1_545
Fe4 O13 2.081952 1_456
Fe5 O1 1.995101 1_555
Fe5 O9 2.031530 1_554
Fe5 O7 2.065288 1_565
Fe5 O12 2.081952 1_554
Fe6 O8 1.974263 1_556
Fe6 O4 1.987704 1_555
Fe6 O2 2.065392 1_555
Fe6 O12 2.132652 1_555
Fe7 O9 1.974263 1_554
Fe7 O5 1.987704 1_555
Fe7 O3 2.065392 1_655
Fe7 O13 2.132652 1_555
