# generated using pymatgen
data_K4Th(S2O9)2
_symmetry_space_group_name_H-M   'P 1'
_cell_length_a   9.93495100
_cell_length_b   9.93706152
_cell_length_c   10.26420886
_cell_angle_alpha   117.64181300
_cell_angle_beta   89.56704866
_cell_angle_gamma   95.05827523
_symmetry_Int_Tables_number   1
_chemical_formula_structural   K4Th(S2O9)2
_chemical_formula_sum   'K8 Th2 S8 O36'
_cell_volume   893.53554216
_cell_formula_units_Z   2
loop_
 _symmetry_equiv_pos_site_id
 _symmetry_equiv_pos_as_xyz
  1  'x, y, z'
loop_
 _atom_site_type_symbol
 _atom_site_label
 _atom_site_symmetry_multiplicity
 _atom_site_fract_x
 _atom_site_fract_y
 _atom_site_fract_z
 _atom_site_occupancy
  K  K0  1  0.36515500  0.50406800  0.23527800  1
  K  K1  1  0.63484500  0.49593200  0.76472200  1
  K  K2  1  0.79292600  0.97796500  0.81821700  1
  K  K3  1  0.20707400  0.02203500  0.18178300  1
  K  K4  1  0.50000000  0.00000000  0.50000000  1
  K  K5  1  0.00000000  0.50000000  0.50000000  1
  K  K6  1  0.35148400  0.78072800  0.75262000  1
  K  K7  1  0.64851600  0.21927200  0.24738000  1
  Th  Th0  1  0.84044100  0.72313000  0.25837100  1
  Th  Th1  1  0.15955900  0.27687000  0.74162900  1
  S  S0  1  0.82404700  0.13774800  0.53036300  1
  S  S1  1  0.17595300  0.86225200  0.46963700  1
  S  S2  1  0.00847900  0.66425800  0.88506500  1
  S  S3  1  0.99152100  0.33574200  0.11493500  1
  S  S4  1  0.68809600  0.64168400  0.48748600  1
  S  S5  1  0.31190400  0.35831600  0.51251400  1
  S  S6  1  0.43928100  0.16866400  0.92485100  1
  S  S7  1  0.56071900  0.83133600  0.07514900  1
  O  O0  1  0.77537100  0.97017400  0.44367900  1
  O  O1  1  0.22462900  0.02982600  0.55632100  1
  O  O2  1  0.94609800  0.14928000  0.62512800  1
  O  O3  1  0.05390200  0.85072000  0.37487200  1
  O  O4  1  0.71583400  0.21533900  0.62661500  1
  O  O5  1  0.28416600  0.78466100  0.37338500  1
  O  O6  1  0.86572100  0.20078000  0.43062700  1
  O  O7  1  0.13427900  0.79922000  0.56937300  1
  O  O8  1  0.97060600  0.67416300  0.03531100  1
  O  O9  1  0.02939400  0.32583700  0.96468900  1
  O  O10  1  0.04939700  0.50440500  0.79549500  1
  O  O11  1  0.95060300  0.49559500  0.20450500  1
  O  O12  1  0.88973300  0.68128900  0.81297200  1
  O  O13  1  0.11026700  0.31871100  0.18702800  1
  O  O14  1  0.12332600  0.77677300  0.91000300  1
  O  O15  1  0.87667400  0.22322700  0.08999700  1
  O  O16  1  0.69509800  0.49696700  0.49299000  1
  O  O17  1  0.30490200  0.50303300  0.50701000  1
  O  O18  1  0.60479000  0.74661100  0.60139800  1
  O  O19  1  0.39521000  0.25338900  0.39860200  1
  O  O20  1  0.83087100  0.71710400  0.49863200  1
  O  O21  1  0.16912900  0.28289600  0.50136800  1
  O  O22  1  0.63750000  0.61176900  0.33531000  1
  O  O23  1  0.36250000  0.38823100  0.66469000  1
  O  O24  1  0.64799400  0.74756500  0.13499700  1
  O  O25  1  0.35200600  0.25243500  0.86500300  1
  O  O26  1  0.48888700  0.93498800  0.20447300  1
  O  O27  1  0.51111300  0.06501200  0.79552700  1
  O  O28  1  0.47011400  0.71405700  0.95699700  1
  O  O29  1  0.52988600  0.28594300  0.04300300  1
  O  O30  1  0.65388900  0.91606900  0.02057900  1
  O  O31  1  0.34611100  0.08393100  0.97942100  1
  O  O32  1  0.73533900  0.52306700  0.02841300  1
  O  O33  1  0.26466100  0.47693300  0.97158700  1
  O  O34  1  0.92880000  0.91624500  0.18542500  1
  O  O35  1  0.07120000  0.08375500  0.81457500  1
loop_
_geom_bond_atom_site_label_1
_geom_bond_atom_site_label_2
_geom_bond_distance
_geom_bond_site_symmetry_2
K0 O5 2.672492 1_555
K0 O33 2.776918 1_554
K0 O29 2.806953 1_555
K0 O22 2.834139 1_555
K0 O17 2.852700 1_555
K0 O13 2.898357 1_555
K1 O4 2.672492 1_555
K1 O32 2.776918 1_556
K1 O28 2.806953 1_555
K1 O23 2.834139 1_555
K1 O16 2.852700 1_555
K1 O12 2.898357 1_555
K2 O30 2.755519 1_556
K2 O15 2.789812 1_566
K2 O35 2.876133 1_665
K2 O18 2.879137 1_555
K2 O27 3.043872 1_565
K2 O20 3.144130 1_555
K2 O12 3.157699 1_555
K3 O31 2.755519 1_554
K3 O14 2.789812 1_544
K3 O34 2.876133 1_445
K3 O19 2.879137 1_555
K3 O26 3.043872 1_545
K3 O21 3.144130 1_555
K3 O13 3.157699 1_555
K4 O4 2.741988 1_555
K4 O5 2.741988 1_545
K4 O26 2.793731 1_545
K4 O27 2.793731 1_555
K4 O0 2.804767 1_545
K4 O1 2.804767 1_555
K5 O21 2.854037 1_555
K5 O20 2.854037 1_455
K5 O7 2.911701 1_555
K5 O6 2.911701 1_455
K5 O16 3.027745 1_455
K5 O17 3.027745 1_555
K5 O11 3.055732 1_455
K5 O10 3.055732 1_555
K5 O12 3.112890 1_455
K5 O13 3.112890 1_555
K6 O17 2.742584 1_555
K6 O28 2.773670 1_555
K6 O14 2.781558 1_555
K6 O31 2.831664 1_565
K6 O18 2.908696 1_555
K6 O7 2.946198 1_555
K6 O27 2.958973 1_565
K7 O16 2.742584 1_555
K7 O29 2.773670 1_555
K7 O15 2.781558 1_555
K7 O30 2.831664 1_545
K7 O19 2.908696 1_555
K7 O6 2.946198 1_555
K7 O26 2.958973 1_545
O0 S0 1.512655 1_565
O0 Th0 2.447623 1_555
O1 S1 1.512655 1_545
O1 Th1 2.447623 1_555
O2 S0 1.522983 1_555
O2 Th1 2.385853 1_655
O3 S1 1.522983 1_555
O3 Th0 2.385853 1_455
O4 S0 1.466173 1_555
O5 S1 1.466173 1_555
O6 S0 1.467839 1_555
O7 S1 1.467839 1_555
O8 S2 1.544807 1_654
O8 Th0 2.486675 1_555
O9 S3 1.544807 1_456
O9 Th1 2.486675 1_555
O10 S2 1.512242 1_555
O10 Th1 2.425498 1_555
O11 S3 1.512242 1_555
O11 Th0 2.425498 1_555
O12 S2 1.460338 1_655
O13 S3 1.460338 1_455
O14 S2 1.459925 1_555
O15 S3 1.459925 1_555
O16 S4 1.472799 1_555
O17 S5 1.472799 1_555
O18 S4 1.464776 1_555
O19 S5 1.464776 1_555
O20 S4 1.523890 1_555
O20 Th0 2.495335 1_555
O21 S5 1.523890 1_555
O21 Th1 2.495335 1_555
O22 S4 1.528222 1_555
O22 Th0 2.511315 1_555
O23 S5 1.528222 1_555
O23 Th1 2.511315 1_555
O24 S7 1.559466 1_555
O24 Th0 2.392047 1_555
O25 S6 1.559466 1_555
O25 Th1 2.392047 1_555
O26 S7 1.476100 1_555
O27 S6 1.476100 1_555
O28 S7 1.469452 1_556
O29 S6 1.469452 1_554
O30 S7 1.473715 1_555
O31 S6 1.473715 1_555
O32 Th0 2.435354 1_555
O33 Th1 2.435354 1_555
O34 Th0 2.457634 1_555
O35 Th1 2.457634 1_555
