# generated using pymatgen
data_KMg14Co
_symmetry_space_group_name_H-M   'P 1'
_cell_length_a   6.33349415
_cell_length_b   6.33349365
_cell_length_c   10.48663987
_cell_angle_alpha   90.00000000
_cell_angle_beta   90.00000000
_cell_angle_gamma   120.00000266
_symmetry_Int_Tables_number   1
_chemical_formula_structural   KMg14Co
_chemical_formula_sum   'K1 Mg14 Co1'
_cell_volume   364.29539982
_cell_formula_units_Z   1
loop_
 _symmetry_equiv_pos_site_id
 _symmetry_equiv_pos_as_xyz
  1  'x, y, z'
loop_
 _atom_site_type_symbol
 _atom_site_label
 _atom_site_symmetry_multiplicity
 _atom_site_fract_x
 _atom_site_fract_y
 _atom_site_fract_z
 _atom_site_occupancy
  K  K0  1  0.16666700  0.33333300  0.62500000  1
  Mg  Mg0  1  0.15671640  0.82835770  0.12500000  1
  Mg  Mg1  1  0.17398543  0.83699222  0.62500000  1
  Mg  Mg2  1  0.67164230  0.34328360  0.12500000  1
  Mg  Mg3  1  0.66300778  0.32601457  0.62500000  1
  Mg  Mg4  1  0.67164230  0.82835770  0.12500000  1
  Mg  Mg5  1  0.66300778  0.83699222  0.62500000  1
  Mg  Mg6  1  0.32923845  0.17076155  0.34578436  1
  Mg  Mg7  1  0.32923845  0.17076155  0.90421564  1
  Mg  Mg8  1  0.32923845  0.65847791  0.34578436  1
  Mg  Mg9  1  0.32923845  0.65847791  0.90421564  1
  Mg  Mg10  1  0.84152209  0.17076155  0.34578436  1
  Mg  Mg11  1  0.84152209  0.17076155  0.90421564  1
  Mg  Mg12  1  0.83333300  0.66666700  0.38395742  1
  Mg  Mg13  1  0.83333300  0.66666700  0.86604258  1
  Co  Co0  1  0.16666700  0.33333300  0.12500000  1
loop_
_geom_bond_atom_site_label_1
_geom_bond_atom_site_label_2
_geom_bond_distance
_geom_bond_site_symmetry_2
K0 Mg1 3.167001 1_545
K0 Mg5 3.167001 1_555
K0 Mg5 3.167001 1_445
K0 Mg1 3.167001 1_555
K0 Mg3 3.167001 1_555
K0 Mg3 3.167002 1_455
K0 Mg6 3.428395 1_555
K0 Mg7 3.428395 1_555
K0 Mg8 3.428400 1_555
K0 Mg9 3.428400 1_555
K0 Mg10 3.428400 1_455
K0 Mg11 3.428400 1_455
Mg0 Mg8 2.981231 1_555
Mg0 Mg9 2.981231 1_554
Mg0 Mg6 2.981238 1_565
Mg0 Mg7 2.981238 1_564
Mg0 Mg2 3.072214 1_455
Mg0 Mg4 3.072214 1_455
Mg0 Mg13 3.243551 1_454
Mg0 Mg12 3.243551 1_455
Mg0 Mg2 3.261280 1_565
Mg0 Mg4 3.261280 1_555
Mg1 Mg3 3.097220 1_565
Mg1 Mg5 3.097220 1_555
Mg1 Mg13 3.143338 1_455
Mg1 Mg12 3.143338 1_455
Mg1 Mg3 3.236274 1_455
Mg1 Mg5 3.236274 1_455
Mg1 Mg8 3.454024 1_555
Mg1 Mg9 3.454024 1_555
Mg1 Mg6 3.454030 1_565
Mg1 Mg7 3.454030 1_565
Mg2 Mg7 2.981238 1_554
Mg2 Mg6 2.981238 1_555
Mg2 Mg4 3.072214 1_555
Mg2 Mg4 3.261280 1_545
Mg3 Mg5 3.097220 1_545
Mg3 Mg5 3.236274 1_555
Mg3 Mg6 3.454030 1_555
Mg3 Mg7 3.454030 1_555
Mg4 Mg9 2.981238 1_554
Mg4 Mg8 2.981238 1_555
Mg5 Mg9 3.454030 1_555
Mg5 Mg8 3.454030 1_555
Mg6 Mg8 3.088948 1_555
Mg6 Mg8 3.244545 1_545
Mg7 Mg9 3.088948 1_555
Mg7 Mg9 3.244545 1_545
Mg10 Mg2 2.981231 1_555
Mg10 Mg4 2.981238 1_545
Mg10 Mg8 3.088948 1_655
Mg10 Mg6 3.088949 1_655
Mg10 Mg12 3.192264 1_555
Mg10 Mg12 3.192264 1_545
Mg10 Mg8 3.244545 1_545
Mg10 Mg6 3.244545 1_555
Mg10 Mg3 3.454024 1_555
Mg10 Mg5 3.454029 1_545
Mg11 Mg2 2.981231 1_556
Mg11 Mg4 2.981238 1_546
Mg11 Mg9 3.088948 1_655
Mg11 Mg7 3.088949 1_655
Mg11 Mg13 3.192264 1_555
Mg11 Mg13 3.192264 1_545
Mg11 Mg9 3.244545 1_545
Mg11 Mg7 3.244545 1_555
Mg11 Mg3 3.454024 1_555
Mg11 Mg5 3.454029 1_545
Mg12 Mg5 3.143331 1_555
Mg12 Mg3 3.143338 1_555
Mg12 Mg6 3.192264 1_665
Mg12 Mg6 3.192264 1_555
Mg12 Mg8 3.192264 1_655
Mg12 Mg8 3.192264 1_555
Mg12 Mg4 3.243545 1_555
Mg12 Mg2 3.243551 1_555
Mg13 Mg5 3.143331 1_555
Mg13 Mg3 3.143338 1_555
Mg13 Mg7 3.192264 1_665
Mg13 Mg7 3.192264 1_555
Mg13 Mg9 3.192264 1_655
Mg13 Mg9 3.192264 1_555
Mg13 Mg4 3.243545 1_556
Mg13 Mg2 3.243551 1_556
Co0 Mg7 2.922509 1_554
Co0 Mg6 2.922509 1_555
Co0 Mg9 2.922515 1_554
Co0 Mg8 2.922515 1_555
Co0 Mg11 2.922516 1_454
Co0 Mg10 2.922516 1_455
Co0 Mg4 3.167217 1_445
Co0 Mg0 3.167217 1_545
Co0 Mg4 3.167217 1_555
Co0 Mg0 3.167217 1_555
Co0 Mg2 3.167217 1_555
Co0 Mg2 3.167217 1_455
