# generated using pymatgen
data_Ho2Pb2O7
_symmetry_space_group_name_H-M   'P 1'
_cell_length_a   7.51590404
_cell_length_b   7.51590404
_cell_length_c   7.51590404
_cell_angle_alpha   60.00000000
_cell_angle_beta   60.00000000
_cell_angle_gamma   60.00000000
_symmetry_Int_Tables_number   1
_chemical_formula_structural   Ho2Pb2O7
_chemical_formula_sum   'Ho4 Pb4 O14'
_cell_volume   300.21243776
_cell_formula_units_Z   2
loop_
 _symmetry_equiv_pos_site_id
 _symmetry_equiv_pos_as_xyz
  1  'x, y, z'
loop_
 _atom_site_type_symbol
 _atom_site_label
 _atom_site_symmetry_multiplicity
 _atom_site_fract_x
 _atom_site_fract_y
 _atom_site_fract_z
 _atom_site_occupancy
  Ho  Ho0  1  0.12500000  0.12500000  0.62500000  1
  Ho  Ho1  1  0.12500000  0.62500000  0.12500000  1
  Ho  Ho2  1  0.62500000  0.12500000  0.12500000  1
  Ho  Ho3  1  0.12500000  0.12500000  0.12500000  1
  Pb  Pb0  1  0.12500000  0.62500000  0.62500000  1
  Pb  Pb1  1  0.62500000  0.62500000  0.62500000  1
  Pb  Pb2  1  0.62500000  0.12500000  0.62500000  1
  Pb  Pb3  1  0.62500000  0.62500000  0.12500000  1
  O  O0  1  0.27580085  0.72419915  0.72419915  1
  O  O1  1  0.52580085  0.97419915  0.97419915  1
  O  O2  1  0.27580085  0.72419915  0.27580085  1
  O  O3  1  0.72419915  0.27580085  0.72419915  1
  O  O4  1  0.72419915  0.72419915  0.27580085  1
  O  O5  1  -0.00000000  -0.00000000  -0.00000000  1
  O  O6  1  0.27580085  0.27580085  0.72419915  1
  O  O7  1  0.97419915  0.52580085  0.97419915  1
  O  O8  1  0.25000000  0.25000000  0.25000000  1
  O  O9  1  0.52580085  0.52580085  0.97419915  1
  O  O10  1  0.97419915  0.97419915  0.52580085  1
  O  O11  1  0.52580085  0.97419915  0.52580085  1
  O  O12  1  0.72419915  0.27580085  0.27580085  1
  O  O13  1  0.97419915  0.52580085  0.52580085  1
loop_
_geom_bond_atom_site_label_1
_geom_bond_atom_site_label_2
_geom_bond_distance
_geom_bond_site_symmetry_2
Ho0 O8 2.301266 1_555
Ho0 O5 2.301266 1_556
Ho0 O0 2.469770 1_545
Ho0 O3 2.469770 1_455
Ho0 O6 2.469770 1_555
Ho0 O11 2.469770 1_545
Ho0 O13 2.469770 1_455
Ho0 O10 2.469770 1_445
Ho1 O8 2.301266 1_555
Ho1 O5 2.301266 1_565
Ho1 O9 2.469770 1_554
Ho1 O2 2.469770 1_555
Ho1 O7 2.469770 1_454
Ho1 O0 2.469770 1_554
Ho1 O13 2.469770 1_455
Ho1 O4 2.469770 1_455
Ho2 O8 2.301266 1_555
Ho2 O5 2.301266 1_655
Ho2 O9 2.469770 1_554
Ho2 O4 2.469770 1_545
Ho2 O1 2.469770 1_544
Ho2 O12 2.469770 1_555
Ho2 O11 2.469770 1_545
Ho2 O3 2.469770 1_554
Ho3 O8 2.301266 1_555
Ho3 O5 2.301266 1_555
Ho3 O2 2.469770 1_545
Ho3 O7 2.469770 1_454
Ho3 O1 2.469770 1_544
Ho3 O6 2.469770 1_554
Ho3 O12 2.469770 1_455
Ho3 O10 2.469770 1_445
O0 Pb0 2.154601 1_555
O0 Pb1 2.154601 1_555
O1 Pb2 2.154601 1_565
O1 Pb3 2.154601 1_556
O2 Pb0 2.154601 1_555
O2 Pb3 2.154601 1_555
O3 Pb1 2.154601 1_555
O3 Pb2 2.154601 1_555
O4 Pb3 2.154601 1_555
O4 Pb1 2.154601 1_555
O6 Pb0 2.154601 1_555
O6 Pb2 2.154601 1_555
O7 Pb3 2.154601 1_556
O7 Pb0 2.154601 1_655
O9 Pb3 2.154601 1_556
O9 Pb1 2.154601 1_555
O10 Pb2 2.154601 1_565
O10 Pb0 2.154601 1_655
O11 Pb2 2.154601 1_565
O11 Pb1 2.154601 1_555
O12 Pb3 2.154601 1_555
O12 Pb2 2.154601 1_555
O13 Pb1 2.154601 1_555
O13 Pb0 2.154601 1_655
