# generated using pymatgen
data_Mg14NiBiO16
_symmetry_space_group_name_H-M   'P 1'
_cell_length_a   8.76954899
_cell_length_b   8.68425248
_cell_length_c   4.35786109
_cell_angle_alpha   90.00000000
_cell_angle_beta   90.00000000
_cell_angle_gamma   90.00000000
_symmetry_Int_Tables_number   1
_chemical_formula_structural   Mg14NiBiO16
_chemical_formula_sum   'Mg14 Ni1 Bi1 O16'
_cell_volume   331.88152926
_cell_formula_units_Z   1
loop_
 _symmetry_equiv_pos_site_id
 _symmetry_equiv_pos_as_xyz
  1  'x, y, z'
loop_
 _atom_site_type_symbol
 _atom_site_label
 _atom_site_symmetry_multiplicity
 _atom_site_fract_x
 _atom_site_fract_y
 _atom_site_fract_z
 _atom_site_occupancy
  Mg  Mg0  1  0.50000000  -0.00000000  -0.00000000  1
  Mg  Mg1  1  0.50000000  0.50000000  -0.00000000  1
  Mg  Mg2  1  0.00000000  0.22947284  0.50000000  1
  Mg  Mg3  1  0.00000000  0.77052716  0.50000000  1
  Mg  Mg4  1  0.50000000  0.24514563  0.50000000  1
  Mg  Mg5  1  0.50000000  0.75485437  0.50000000  1
  Mg  Mg6  1  0.24896383  -0.00000000  0.50000000  1
  Mg  Mg7  1  0.26526564  0.50000000  0.50000000  1
  Mg  Mg8  1  0.75103617  -0.00000000  0.50000000  1
  Mg  Mg9  1  0.73473436  0.50000000  0.50000000  1
  Mg  Mg10  1  0.25569423  0.23635386  0.00000000  1
  Mg  Mg11  1  0.25569423  0.76364614  -0.00000000  1
  Mg  Mg12  1  0.74430577  0.23635386  -0.00000000  1
  Mg  Mg13  1  0.74430577  0.76364614  -0.00000000  1
  Ni  Ni0  1  0.00000000  -0.00000000  -0.00000000  1
  Bi  Bi0  1  0.00000000  0.50000000  -0.00000000  1
  O  O0  1  0.27306207  -0.00000000  -0.00000000  1
  O  O1  1  0.26728208  0.50000000  -0.00000000  1
  O  O2  1  0.72693793  -0.00000000  -0.00000000  1
  O  O3  1  0.73271792  0.50000000  0.00000000  1
  O  O4  1  0.24824640  0.25142206  0.50000000  1
  O  O5  1  0.24824640  0.74857794  0.50000000  1
  O  O6  1  0.75175360  0.25142206  0.50000000  1
  O  O7  1  0.75175360  0.74857794  0.50000000  1
  O  O8  1  0.00000000  -0.00000000  0.50000000  1
  O  O9  1  0.00000000  0.50000000  0.50000000  1
  O  O10  1  0.50000000  -0.00000000  0.50000000  1
  O  O11  1  0.50000000  0.50000000  0.50000000  1
  O  O12  1  0.00000000  0.23723360  -0.00000000  1
  O  O13  1  0.00000000  0.76276640  0.00000000  1
  O  O14  1  0.50000000  0.25215743  -0.00000000  1
  O  O15  1  0.50000000  0.74784257  -0.00000000  1
loop_
_geom_bond_atom_site_label_1
_geom_bond_atom_site_label_2
_geom_bond_distance
_geom_bond_site_symmetry_2
Mg0 O0 1.990143 1_555
Mg0 O2 1.990143 1_555
Mg0 O10 2.178931 1_555
Mg0 O10 2.178931 1_554
Mg0 O15 2.189799 1_545
Mg0 O14 2.189799 1_555
Mg1 O1 2.040831 1_555
Mg1 O3 2.040831 1_555
Mg1 O14 2.152327 1_555
Mg1 O15 2.152327 1_555
Mg1 O11 2.178931 1_554
Mg1 O11 2.178931 1_555
Mg2 O8 1.992800 1_555
Mg2 O12 2.179973 1_555
Mg2 O12 2.179973 1_556
Mg2 O4 2.185338 1_555
Mg2 O6 2.185338 1_455
Mg2 O9 2.349326 1_555
Mg3 O8 1.992800 1_565
Mg3 O13 2.179973 1_555
Mg3 O13 2.179973 1_556
Mg3 O5 2.185338 1_555
Mg3 O7 2.185338 1_455
Mg3 O9 2.349326 1_555
Mg4 O10 2.128907 1_555
Mg4 O14 2.179781 1_555
Mg4 O14 2.179781 1_556
Mg4 O6 2.208438 1_555
Mg4 O4 2.208438 1_555
Mg4 O11 2.213220 1_555
Mg5 O10 2.128907 1_565
Mg5 O15 2.179781 1_556
Mg5 O15 2.179781 1_555
Mg5 O7 2.208438 1_555
Mg5 O5 2.208438 1_555
Mg5 O11 2.213220 1_555
Mg6 O8 2.183301 1_555
Mg6 O5 2.183422 1_545
Mg6 O4 2.183422 1_555
Mg6 O0 2.189155 1_556
Mg6 O0 2.189155 1_555
Mg6 O10 2.201474 1_555
Mg7 O11 2.058514 1_555
Mg7 O4 2.163867 1_555
Mg7 O5 2.163867 1_555
Mg7 O1 2.179002 1_555
Mg7 O1 2.179002 1_556
Mg7 O9 2.326260 1_555
Mg8 O8 2.183301 1_655
Mg8 O6 2.183422 1_555
Mg8 O7 2.183422 1_545
Mg8 O2 2.189155 1_555
Mg8 O2 2.189155 1_556
Mg8 O10 2.201474 1_555
Mg9 O11 2.058514 1_555
Mg9 O6 2.163867 1_555
Mg9 O7 2.163867 1_555
Mg9 O3 2.179002 1_556
Mg9 O3 2.179002 1_555
Mg9 O9 2.326260 1_655
Mg10 O0 2.058200 1_555
Mg10 O14 2.146843 1_555
Mg10 O4 2.183833 1_554
Mg10 O4 2.183833 1_555
Mg10 O12 2.242336 1_555
Mg10 O1 2.291824 1_555
Mg11 O0 2.058200 1_565
Mg11 O15 2.146843 1_555
Mg11 O5 2.183833 1_554
Mg11 O5 2.183833 1_555
Mg11 O13 2.242336 1_555
Mg11 O1 2.291824 1_555
Mg12 O2 2.058200 1_555
Mg12 O14 2.146843 1_555
Mg12 O6 2.183833 1_555
Mg12 O6 2.183833 1_554
Mg12 O12 2.242336 1_655
Mg12 O3 2.291824 1_555
Mg13 O2 2.058200 1_565
Mg13 O15 2.146843 1_555
Mg13 O7 2.183833 1_555
Mg13 O7 2.183833 1_554
Mg13 O13 2.242336 1_655
Mg13 O3 2.291824 1_555
Ni0 O12 2.060196 1_555
Ni0 O13 2.060196 1_545
Ni0 O8 2.178931 1_554
Ni0 O8 2.178931 1_555
Ni0 O2 2.394631 1_455
Ni0 O0 2.394631 1_555
Bi0 O9 2.178931 1_554
Bi0 O9 2.178931 1_555
Bi0 O13 2.281930 1_555
Bi0 O12 2.281930 1_555
Bi0 O3 2.343943 1_455
Bi0 O1 2.343943 1_555
