# generated using pymatgen
data_CaAgBiO5
_symmetry_space_group_name_H-M   'P 1'
_cell_length_a   11.07219600
_cell_length_b   5.88474300
_cell_length_c   8.96230313
_cell_angle_alpha   72.70202728
_cell_angle_beta   90.00000000
_cell_angle_gamma   90.00000000
_symmetry_Int_Tables_number   1
_chemical_formula_structural   CaAgBiO5
_chemical_formula_sum   'Ca4 Ag4 Bi4 O20'
_cell_volume   557.54542994
_cell_formula_units_Z   4
loop_
 _symmetry_equiv_pos_site_id
 _symmetry_equiv_pos_as_xyz
  1  'x, y, z'
loop_
 _atom_site_type_symbol
 _atom_site_label
 _atom_site_symmetry_multiplicity
 _atom_site_fract_x
 _atom_site_fract_y
 _atom_site_fract_z
 _atom_site_occupancy
  Ca  Ca0  1  0.10647900  0.52102400  0.84094900  1
  Ca  Ca1  1  0.89352100  0.47897600  0.15905100  1
  Ca  Ca2  1  0.60647900  0.47897600  0.65905100  1
  Ca  Ca3  1  0.39352100  0.52102400  0.34094900  1
  Ag  Ag0  1  0.37135600  0.05959800  0.11446700  1
  Ag  Ag1  1  0.62864400  0.94040200  0.88553300  1
  Ag  Ag2  1  0.87135600  0.94040200  0.38553300  1
  Ag  Ag3  1  0.12864400  0.05959800  0.61446700  1
  Bi  Bi0  1  0.91174400  0.03995800  0.83920600  1
  Bi  Bi1  1  0.08825600  0.96004200  0.16079400  1
  Bi  Bi2  1  0.58825600  0.03995800  0.33920600  1
  Bi  Bi3  1  0.41174400  0.96004200  0.66079400  1
  O  O0  1  0.97978400  0.85311000  0.67972900  1
  O  O1  1  0.02334800  0.30390200  0.68301900  1
  O  O2  1  0.75516300  0.22927000  0.30900700  1
  O  O3  1  0.46436900  0.77617100  0.49373700  1
  O  O4  1  0.71399400  0.76240600  0.45273000  1
  O  O5  1  0.78600600  0.76240600  0.95273000  1
  O  O6  1  0.47665200  0.30390200  0.18301900  1
  O  O7  1  0.52334800  0.69609800  0.81698100  1
  O  O8  1  0.53563100  0.22382900  0.50626300  1
  O  O9  1  0.47978400  0.14689000  0.82027100  1
  O  O10  1  0.28600600  0.23759400  0.54727000  1
  O  O11  1  0.02021600  0.14689000  0.32027100  1
  O  O12  1  0.52021600  0.85311000  0.17972900  1
  O  O13  1  0.21399400  0.23759400  0.04727000  1
  O  O14  1  0.96436900  0.22382900  0.00626300  1
  O  O15  1  0.03563100  0.77617100  0.99373700  1
  O  O16  1  0.24483700  0.77073000  0.69099300  1
  O  O17  1  0.97665200  0.69609800  0.31698100  1
  O  O18  1  0.25516300  0.77073000  0.19099300  1
  O  O19  1  0.74483700  0.22927000  0.80900700  1
loop_
_geom_bond_atom_site_label_1
_geom_bond_atom_site_label_2
_geom_bond_distance
_geom_bond_site_symmetry_2
Ca0 O16 2.266689 1_555
Ca0 O1 2.357675 1_555
Ca0 O13 2.405030 1_556
Ca0 O15 2.442852 1_555
Ca0 O14 2.487711 1_456
Ca0 O0 2.489062 1_455
Ca1 O2 2.266689 1_555
Ca1 O17 2.357675 1_555
Ca1 O5 2.405030 1_554
Ca1 O14 2.442852 1_555
Ca1 O15 2.487711 1_654
Ca1 O11 2.489062 1_655
Ca2 O19 2.266689 1_555
Ca2 O7 2.357675 1_555
Ca2 O4 2.405030 1_555
Ca2 O8 2.442852 1_555
Ca2 O3 2.487711 1_555
Ca2 O9 2.489062 1_555
Ca3 O18 2.266689 1_555
Ca3 O6 2.357675 1_555
Ca3 O10 2.405030 1_555
Ca3 O3 2.442852 1_555
Ca3 O8 2.487711 1_555
Ca3 O12 2.489062 1_555
Ag0 O12 2.027948 1_545
Ag0 O13 2.029898 1_555
Ag0 O18 2.078913 1_545
Ag0 O6 2.080588 1_555
Ag1 O9 2.027948 1_565
Ag1 O5 2.029898 1_555
Ag1 O19 2.078913 1_565
Ag1 O7 2.080588 1_555
Ag2 O11 2.027948 1_665
Ag2 O4 2.029898 1_555
Ag2 O2 2.078913 1_565
Ag2 O17 2.080588 1_555
Ag3 O0 2.027948 1_445
Ag3 O10 2.029898 1_555
Ag3 O16 2.078913 1_545
Ag3 O1 2.080588 1_555
Bi0 O19 2.133134 1_555
Bi0 O1 2.146154 1_655
Bi0 O5 2.157054 1_545
Bi0 O14 2.171490 1_556
Bi0 O0 2.180363 1_545
Bi0 O15 2.220552 1_645
Bi1 O18 2.133134 1_555
Bi1 O17 2.146154 1_455
Bi1 O13 2.157054 1_565
Bi1 O15 2.171490 1_554
Bi1 O11 2.180363 1_565
Bi1 O14 2.220552 1_465
Bi2 O2 2.133134 1_555
Bi2 O6 2.146154 1_555
Bi2 O4 2.157054 1_545
Bi2 O8 2.171490 1_555
Bi2 O12 2.180363 1_545
Bi2 O3 2.220552 1_545
Bi3 O16 2.133134 1_555
Bi3 O7 2.146154 1_555
Bi3 O10 2.157054 1_565
Bi3 O3 2.171490 1_555
Bi3 O9 2.180363 1_565
Bi3 O8 2.220552 1_565
