# generated using pymatgen
data_Sn(S4I)4
_symmetry_space_group_name_H-M   'P 1'
_cell_length_a   14.59942187
_cell_length_b   13.99007629
_cell_length_c   13.09318816
_cell_angle_alpha   65.14060387
_cell_angle_beta   60.39732086
_cell_angle_gamma   54.46207527
_symmetry_Int_Tables_number   1
_chemical_formula_structural   Sn(S4I)4
_chemical_formula_sum   'Sn2 S32 I8'
_cell_volume   1858.20238401
_cell_formula_units_Z   2
loop_
 _symmetry_equiv_pos_site_id
 _symmetry_equiv_pos_as_xyz
  1  'x, y, z'
loop_
 _atom_site_type_symbol
 _atom_site_label
 _atom_site_symmetry_multiplicity
 _atom_site_fract_x
 _atom_site_fract_y
 _atom_site_fract_z
 _atom_site_occupancy
  Sn  Sn0  1  0.00837800  0.99162200  0.99162200  1
  Sn  Sn1  1  0.25837800  0.24162200  0.24162200  1
  S  S0  1  0.83844600  0.09207100  0.59115100  1
  S  S1  1  0.64714400  0.17662000  0.44880300  1
  S  S2  1  0.36959300  0.86445600  0.53349700  1
  S  S3  1  0.81179900  0.60474800  0.72151300  1
  S  S4  1  0.32786500  0.74314300  0.51575100  1
  S  S5  1  0.51560400  0.78281700  0.57580300  1
  S  S6  1  0.80230400  0.14678900  0.42591100  1
  S  S7  1  0.73424900  0.83675800  0.92213500  1
  S  S8  1  0.72743300  0.44880300  0.17662000  1
  S  S9  1  0.12577600  0.57580300  0.78281700  1
  S  S10  1  0.71650300  0.01754600  0.88040700  1
  S  S11  1  0.74852100  0.77164100  0.07951100  1
  S  S12  1  0.86194000  0.72151300  0.60474800  1
  S  S13  1  0.47833200  0.59115100  0.09207100  1
  S  S14  1  0.64525200  0.43820100  0.38806000  1
  S  S15  1  0.65884900  0.77166800  0.41155400  1
  S  S16  1  0.38554400  0.88040700  0.01754600  1
  S  S17  1  0.52848700  0.38806000  0.43820100  1
  S  S18  1  0.23245400  0.53349700  0.86445600  1
  S  S19  1  0.50685700  0.92213500  0.83675800  1
  S  S20  1  0.17048900  0.84967300  0.50147900  1
  S  S21  1  0.82408900  0.62500400  0.44769600  1
  S  S22  1  0.10321100  0.44769600  0.62500400  1
  S  S23  1  0.67419700  0.12422400  0.73439600  1
  S  S24  1  0.46718300  0.73439600  0.12422400  1
  S  S25  1  0.41324200  0.51575100  0.74314300  1
  S  S26  1  0.15792900  0.41155400  0.77166800  1
  S  S27  1  0.40032700  0.07951100  0.77164100  1
  S  S28  1  0.80119700  0.52256700  0.60285600  1
  S  S29  1  0.62499600  0.42591100  0.14678900  1
  S  S30  1  0.07338000  0.60285600  0.52256700  1
  S  S31  1  0.47835900  0.50147900  0.84967300  1
  I  I0  1  0.19269000  0.76886100  0.02199300  1
  I  I1  1  0.25712500  0.44485300  0.21844500  1
  I  I2  1  0.01645500  0.02199300  0.76886100  1
  I  I3  1  0.80514700  0.99287500  0.17042300  1
  I  I4  1  0.48113900  0.05731000  0.23354500  1
  I  I5  1  0.22800700  0.23354500  0.05731000  1
  I  I6  1  0.07957700  0.21844500  0.44485300  1
  I  I7  1  0.03155500  0.17042300  0.99287500  1
loop_
_geom_bond_atom_site_label_1
_geom_bond_atom_site_label_2
_geom_bond_distance
_geom_bond_site_symmetry_2
S0 S23 2.117125 1_555
S0 S6 2.193404 1_555
S1 S6 1.931515 1_555
S1 S17 2.388669 1_555
S2 S5 1.989908 1_555
S2 S4 2.231336 1_555
S10 S23 1.989908 1_555
S10 S7 2.231349 1_545
S11 S7 1.935056 1_554
S12 S3 1.930364 1_555
S12 S30 2.388669 1_655
S13 S24 2.117125 1_555
S13 S29 2.193404 1_555
S14 S17 1.930364 1_555
S14 S8 2.388669 1_555
S15 S5 2.117125 1_555
S15 S21 2.193404 1_555
S16 S24 1.989908 1_555
S16 S19 2.231343 1_554
S18 S9 1.989908 1_555
S18 S25 2.231347 1_555
S19 S27 1.935050 1_565
S20 S4 1.935055 1_555
S21 S28 1.931515 1_555
S22 S30 1.931515 1_555
S22 S26 2.193404 1_555
S25 S31 1.935044 1_555
S26 S9 2.117125 1_555
S28 S3 2.388669 1_555
S29 S8 1.931515 1_555
I0 Sn0 2.716204 1_554
I1 Sn1 2.719540 1_555
I2 Sn0 2.716209 1_545
I3 Sn0 2.719540 1_654
I4 Sn1 2.716206 1_555
I5 Sn1 2.716196 1_555
I6 Sn1 2.719540 1_555
I7 Sn0 2.719540 1_545
