# generated using pymatgen
data_Cu11PdN4
_symmetry_space_group_name_H-M   'P 1'
_cell_length_a   7.46859800
_cell_length_b   7.46859800
_cell_length_c   3.80660200
_cell_angle_alpha   90.00000000
_cell_angle_beta   90.00000000
_cell_angle_gamma   90.00000000
_symmetry_Int_Tables_number   1
_chemical_formula_structural   Cu11PdN4
_chemical_formula_sum   'Cu11 Pd1 N4'
_cell_volume   212.33209240
_cell_formula_units_Z   1
loop_
 _symmetry_equiv_pos_site_id
 _symmetry_equiv_pos_as_xyz
  1  'x, y, z'
loop_
 _atom_site_type_symbol
 _atom_site_label
 _atom_site_symmetry_multiplicity
 _atom_site_fract_x
 _atom_site_fract_y
 _atom_site_fract_z
 _atom_site_occupancy
  Cu  Cu0  1  0.00000000  0.00000000  0.50000000  1
  Cu  Cu1  1  0.24222700  0.50000000  0.00000000  1
  Cu  Cu2  1  0.75777300  0.50000000  0.00000000  1
  Cu  Cu3  1  0.50000000  0.75777300  0.00000000  1
  Cu  Cu4  1  0.50000000  0.24222700  0.00000000  1
  Cu  Cu5  1  0.00000000  0.50000000  0.50000000  1
  Cu  Cu6  1  0.50000000  0.00000000  0.50000000  1
  Cu  Cu7  1  0.24080000  0.24080000  0.50000000  1
  Cu  Cu8  1  0.75920000  0.75920000  0.50000000  1
  Cu  Cu9  1  0.24080000  0.75920000  0.50000000  1
  Cu  Cu10  1  0.75920000  0.24080000  0.50000000  1
  Pd  Pd0  1  0.50000000  0.50000000  0.50000000  1
  N  N0  1  0.00000000  0.00000000  0.00000000  1
  N  N1  1  0.50000000  0.50000000  0.00000000  1
  N  N2  1  0.00000000  0.50000000  0.00000000  1
  N  N3  1  0.50000000  0.00000000  0.00000000  1
loop_
_geom_bond_atom_site_label_1
_geom_bond_atom_site_label_2
_geom_bond_distance
_geom_bond_site_symmetry_2
Cu0 N0 1.903301 1_556
Cu0 N0 1.903301 1_555
Cu0 Cu7 2.543376 1_555
Cu0 Cu10 2.543376 1_455
Cu0 Cu8 2.543376 1_445
Cu0 Cu9 2.543376 1_545
Cu1 N2 1.809096 1_555
Cu1 N1 1.925203 1_555
Cu1 Cu7 2.714816 1_554
Cu1 Cu9 2.714816 1_555
Cu1 Cu7 2.714816 1_555
Cu1 Cu9 2.714816 1_554
Cu2 N2 1.809096 1_655
Cu2 N1 1.925203 1_555
Cu2 Cu8 2.714816 1_555
Cu2 Cu8 2.714816 1_554
Cu3 N3 1.809096 1_565
Cu3 N1 1.925203 1_555
Cu3 Cu8 2.714816 1_555
Cu3 Cu8 2.714816 1_554
Cu3 Cu9 2.714816 1_555
Cu3 Cu9 2.714816 1_554
Cu4 N3 1.809096 1_555
Cu4 N1 1.925203 1_555
Cu4 Cu7 2.714816 1_554
Cu4 Cu7 2.714816 1_555
Cu5 N2 1.903301 1_555
Cu5 N2 1.903301 1_556
Cu5 Cu7 2.642336 1_555
Cu5 Cu9 2.642336 1_555
Cu5 Cu8 2.642336 1_455
Cu6 N3 1.903301 1_555
Cu6 N3 1.903301 1_556
Cu6 Cu8 2.642336 1_545
Cu6 Cu9 2.642336 1_545
Cu6 Cu7 2.642336 1_555
Cu7 Pd0 2.737720 1_555
Cu8 Pd0 2.737720 1_555
Cu9 Pd0 2.737720 1_555
Cu10 Cu6 2.642336 1_555
Cu10 Cu5 2.642336 1_655
Cu10 Cu2 2.714816 1_555
Cu10 Cu4 2.714816 1_556
Cu10 Cu4 2.714816 1_555
Cu10 Cu2 2.714816 1_556
Cu10 Pd0 2.737720 1_555
N1 Pd0 1.903301 1_555
N1 Pd0 1.903301 1_554
