# generated using pymatgen
data_SrGaBO4
_symmetry_space_group_name_H-M   'P 1'
_cell_length_a   5.98272300
_cell_length_b   9.11968000
_cell_length_c   15.55476500
_cell_angle_alpha   90.00000000
_cell_angle_beta   90.00000000
_cell_angle_gamma   90.00000000
_symmetry_Int_Tables_number   1
_chemical_formula_structural   SrGaBO4
_chemical_formula_sum   'Sr8 Ga8 B8 O32'
_cell_volume   848.67605581
_cell_formula_units_Z   8
loop_
 _symmetry_equiv_pos_site_id
 _symmetry_equiv_pos_as_xyz
  1  'x, y, z'
loop_
 _atom_site_type_symbol
 _atom_site_label
 _atom_site_symmetry_multiplicity
 _atom_site_fract_x
 _atom_site_fract_y
 _atom_site_fract_z
 _atom_site_occupancy
  Sr  Sr0  1  0.50261200  0.57390600  0.62067300  1
  Sr  Sr1  1  0.50261200  0.42609400  0.37932700  1
  Sr  Sr2  1  0.49738800  0.92609400  0.12067300  1
  Sr  Sr3  1  0.49738800  0.07390600  0.87932700  1
  Sr  Sr4  1  0.99700100  0.21321100  0.02136600  1
  Sr  Sr5  1  0.99700100  0.78678900  0.97863400  1
  Sr  Sr6  1  0.00299900  0.28678900  0.52136600  1
  Sr  Sr7  1  0.00299900  0.71321100  0.47863400  1
  Ga  Ga0  1  0.74675600  0.46182200  0.84555400  1
  Ga  Ga1  1  0.74675600  0.53817800  0.15444600  1
  Ga  Ga2  1  0.25324400  0.03817800  0.34555400  1
  Ga  Ga3  1  0.25324400  0.96182200  0.65444600  1
  Ga  Ga4  1  0.24748300  0.46355200  0.84647400  1
  Ga  Ga5  1  0.24748300  0.53644800  0.15352600  1
  Ga  Ga6  1  0.75251700  0.03644800  0.34647400  1
  Ga  Ga7  1  0.75251700  0.96355200  0.65352600  1
  B  B0  1  0.00023300  0.51974100  0.68685000  1
  B  B1  1  0.00023300  0.48025900  0.31315000  1
  B  B2  1  0.99976700  0.98025900  0.18685000  1
  B  B3  1  0.99976700  0.01974100  0.81315000  1
  B  B4  1  0.50234000  0.20724000  0.57579200  1
  B  B5  1  0.50234000  0.79276000  0.42420800  1
  B  B6  1  0.49766000  0.29276000  0.07579200  1
  B  B7  1  0.49766000  0.70724000  0.92420800  1
  O  O0  1  0.00293300  0.53070400  0.59901000  1
  O  O1  1  0.00293300  0.46929600  0.40099000  1
  O  O2  1  0.99706700  0.96929600  0.09901000  1
  O  O3  1  0.99706700  0.03070400  0.90099000  1
  O  O4  1  0.29379400  0.64095300  0.90543700  1
  O  O5  1  0.29379400  0.35904700  0.09456300  1
  O  O6  1  0.70620600  0.85904700  0.40543700  1
  O  O7  1  0.70620600  0.14095300  0.59456300  1
  O  O8  1  0.49648700  0.34604600  0.85396100  1
  O  O9  1  0.49648700  0.65395400  0.14603900  1
  O  O10  1  0.50351300  0.15395400  0.35396100  1
  O  O11  1  0.50351300  0.84604600  0.64603900  1
  O  O12  1  0.70042500  0.35783900  0.09808900  1
  O  O13  1  0.70042500  0.64216100  0.90191100  1
  O  O14  1  0.29957500  0.14216100  0.59808900  1
  O  O15  1  0.29957500  0.85783900  0.40191100  1
  O  O16  1  0.20314200  0.51783100  0.73119700  1
  O  O17  1  0.20314200  0.48216900  0.26880300  1
  O  O18  1  0.79685800  0.98216900  0.23119700  1
  O  O19  1  0.79685800  0.01783100  0.76880300  1
  O  O20  1  0.79539100  0.50739100  0.72920300  1
  O  O21  1  0.79539100  0.49260900  0.27079700  1
  O  O22  1  0.20460900  0.99260900  0.22920300  1
  O  O23  1  0.20460900  0.00739100  0.77079700  1
  O  O24  1  0.99704000  0.37662400  0.89176900  1
  O  O25  1  0.99704000  0.62337600  0.10823100  1
  O  O26  1  0.00296000  0.12337600  0.39176900  1
  O  O27  1  0.00296000  0.87662400  0.60823100  1
  O  O28  1  0.50100000  0.34030300  0.53433400  1
  O  O29  1  0.50100000  0.65969700  0.46566600  1
  O  O30  1  0.49900000  0.15969700  0.03433400  1
  O  O31  1  0.49900000  0.84030300  0.96566600  1
loop_
_geom_bond_atom_site_label_1
_geom_bond_atom_site_label_2
_geom_bond_distance
_geom_bond_site_symmetry_2
Ga0 O24 1.833741 1_555
Ga0 O8 1.836784 1_555
Ga0 O20 1.879571 1_555
Ga0 O13 1.884175 1_555
Ga1 O25 1.833741 1_555
Ga1 O9 1.836784 1_555
Ga1 O21 1.879571 1_555
Ga1 O12 1.884175 1_555
Ga2 O26 1.833741 1_555
Ga2 O10 1.836784 1_555
Ga2 O22 1.879571 1_545
Ga2 O15 1.884175 1_545
Ga3 O27 1.833741 1_555
Ga3 O11 1.836784 1_555
Ga3 O23 1.879571 1_565
Ga3 O14 1.884175 1_565
Ga4 O24 1.835716 1_455
Ga4 O8 1.838803 1_555
Ga4 O16 1.878999 1_555
Ga4 O4 1.880252 1_555
Ga5 O25 1.835716 1_455
Ga5 O9 1.838803 1_555
Ga5 O17 1.878999 1_555
Ga5 O5 1.880252 1_555
Ga6 O26 1.835716 1_655
Ga6 O10 1.838803 1_555
Ga6 O18 1.878999 1_545
Ga6 O6 1.880252 1_545
Ga7 O27 1.835716 1_655
Ga7 O11 1.838803 1_555
Ga7 O19 1.878999 1_565
Ga7 O7 1.880252 1_565
B0 O0 1.370079 1_555
B0 O20 1.395913 1_455
B0 O16 1.396355 1_555
B1 O1 1.370079 1_555
B1 O21 1.395913 1_455
B1 O17 1.396355 1_555
B2 O2 1.370079 1_555
B2 O22 1.395913 1_655
B2 O18 1.396355 1_555
B3 O3 1.370079 1_555
B3 O23 1.395913 1_655
B3 O19 1.396355 1_555
B4 O28 1.374221 1_555
B4 O7 1.392227 1_555
B4 O14 1.394313 1_555
B5 O29 1.374221 1_555
B5 O6 1.392227 1_555
B5 O15 1.394313 1_555
B6 O30 1.374221 1_555
B6 O5 1.392227 1_555
B6 O12 1.394313 1_555
B7 O31 1.374221 1_555
B7 O4 1.392227 1_555
B7 O13 1.394313 1_555
O0 Sr7 2.505235 1_555
O0 Sr6 2.531145 1_555
O0 Sr0 3.034061 1_555
O0 Sr0 3.037846 1_455
O1 Sr6 2.505235 1_555
O1 Sr7 2.531145 1_555
O1 Sr1 3.034061 1_555
O1 Sr1 3.037846 1_455
O2 Sr5 2.505235 1_554
O2 Sr4 2.531145 1_565
O2 Sr2 3.034061 1_555
O2 Sr2 3.037846 1_655
O3 Sr4 2.505235 1_556
O3 Sr5 2.531145 1_545
O3 Sr3 3.034061 1_555
O3 Sr3 3.037846 1_655
O4 Sr5 2.493597 1_455
O5 Sr4 2.493597 1_455
O6 Sr7 2.493597 1_655
O7 Sr6 2.493597 1_655
O8 Sr3 2.513004 1_555
O9 Sr2 2.513004 1_555
O10 Sr1 2.513004 1_555
O11 Sr0 2.513004 1_555
O12 Sr4 2.512396 1_555
O13 Sr5 2.512396 1_555
O14 Sr6 2.512396 1_555
O15 Sr7 2.512396 1_555
O16 Sr0 2.535167 1_555
O17 Sr1 2.535167 1_555
O18 Sr2 2.535167 1_555
O19 Sr3 2.535167 1_555
O20 Sr0 2.507189 1_555
O21 Sr1 2.507189 1_555
O22 Sr2 2.507189 1_555
O23 Sr3 2.507189 1_555
O24 Sr4 2.506905 1_556
O25 Sr5 2.506905 1_554
O26 Sr6 2.506905 1_555
O27 Sr7 2.506905 1_555
O28 Sr0 2.518379 1_555
O28 Sr1 2.534879 1_555
O28 Sr6 3.025839 1_555
O28 Sr6 3.049393 1_655
O29 Sr1 2.518379 1_555
O29 Sr0 2.534879 1_555
O29 Sr7 3.025839 1_555
O29 Sr7 3.049393 1_655
O30 Sr2 2.518379 1_545
O30 Sr3 2.534879 1_554
O30 Sr4 3.025839 1_555
O30 Sr4 3.049393 1_455
O31 Sr3 2.518379 1_565
O31 Sr2 2.534879 1_556
O31 Sr5 3.025839 1_555
O31 Sr5 3.049393 1_455
