# generated using pymatgen
data_SrCaEuBiO6
_symmetry_space_group_name_H-M   'P 1'
_cell_length_a   8.54600394
_cell_length_b   8.54462051
_cell_length_c   8.54397561
_cell_angle_alpha   90.00000000
_cell_angle_beta   90.00000000
_cell_angle_gamma   90.00000000
_symmetry_Int_Tables_number   1
_chemical_formula_structural   SrCaEuBiO6
_chemical_formula_sum   'Sr4 Ca4 Eu4 Bi4 O24'
_cell_volume   623.90126747
_cell_formula_units_Z   4
loop_
 _symmetry_equiv_pos_site_id
 _symmetry_equiv_pos_as_xyz
  1  'x, y, z'
loop_
 _atom_site_type_symbol
 _atom_site_label
 _atom_site_symmetry_multiplicity
 _atom_site_fract_x
 _atom_site_fract_y
 _atom_site_fract_z
 _atom_site_occupancy
  Sr  Sr0  1  -0.00000000  0.50000000  0.50000000  1
  Sr  Sr1  1  0.50000000  -0.00000000  0.50000000  1
  Sr  Sr2  1  0.50000000  0.50000000  -0.00000000  1
  Sr  Sr3  1  -0.00000000  0.50000000  -0.00000000  1
  Ca  Ca0  1  0.50000000  -0.00000000  -0.00000000  1
  Ca  Ca1  1  -0.00000000  -0.00000000  0.50000000  1
  Ca  Ca2  1  -0.00000000  -0.00000000  -0.00000000  1
  Ca  Ca3  1  0.50000000  0.50000000  0.50000000  1
  Eu  Eu0  1  0.24976475  0.24784223  0.24972439  1
  Eu  Eu1  1  0.75023525  0.75215777  0.24972439  1
  Eu  Eu2  1  0.75023525  0.24784223  0.75027561  1
  Eu  Eu3  1  0.24976475  0.75215777  0.75027561  1
  Bi  Bi0  1  0.74967873  0.75258281  0.75017856  1
  Bi  Bi1  1  0.25032127  0.24741719  0.75017856  1
  Bi  Bi2  1  0.25032127  0.75258281  0.24982144  1
  Bi  Bi3  1  0.74967873  0.24741719  0.24982144  1
  O  O0  1  0.98983704  0.18908250  0.29529811  1
  O  O1  1  0.01016296  0.81091750  0.29529811  1
  O  O2  1  0.01016296  0.18908250  0.70470189  1
  O  O3  1  0.98983704  0.81091750  0.70470189  1
  O  O4  1  0.29778354  0.99110200  0.19098533  1
  O  O5  1  0.29778354  0.00889800  0.80901467  1
  O  O6  1  0.70221646  0.00889800  0.19098533  1
  O  O7  1  0.70221646  0.99110200  0.80901467  1
  O  O8  1  0.19722334  0.28575487  0.99068867  1
  O  O9  1  0.80277666  0.28575487  0.00931133  1
  O  O10  1  0.19722334  0.71424513  0.00931133  1
  O  O11  1  0.80277666  0.71424513  0.99068867  1
  O  O12  1  0.50852769  0.30069946  0.21481407  1
  O  O13  1  0.49147231  0.69930054  0.21481407  1
  O  O14  1  0.49147231  0.30069946  0.78518593  1
  O  O15  1  0.50852769  0.69930054  0.78518593  1
  O  O16  1  0.21204834  0.50962706  0.29732287  1
  O  O17  1  0.21204834  0.49037294  0.70267713  1
  O  O18  1  0.78795166  0.49037294  0.29732287  1
  O  O19  1  0.78795166  0.50962706  0.70267713  1
  O  O20  1  0.29996254  0.21248206  0.50862557  1
  O  O21  1  0.70003746  0.21248206  0.49137443  1
  O  O22  1  0.29996254  0.78751794  0.49137443  1
  O  O23  1  0.70003746  0.78751794  0.50862557  1
loop_
_geom_bond_atom_site_label_1
_geom_bond_atom_site_label_2
_geom_bond_distance
_geom_bond_site_symmetry_2
Ca0 O5 2.378013 1_554
Ca0 O4 2.378013 1_545
Ca0 O7 2.378013 1_544
Ca0 O6 2.378013 1_555
Ca1 O0 2.382587 1_455
Ca1 O1 2.382587 1_545
Ca1 O2 2.382587 1_555
Ca1 O3 2.382587 1_445
Ca2 O9 2.967976 1_455
Ca2 O11 2.967976 1_444
Ca2 O10 2.967976 1_545
Ca2 O8 2.967976 1_554
Ca2 O0 2.997242 1_455
Ca2 O3 2.997242 1_444
Ca2 O2 2.997242 1_554
Ca2 O1 2.997242 1_545
Ca2 O7 3.024033 1_444
Ca2 O6 3.024033 1_455
Ca2 O4 3.024033 1_545
Ca2 O5 3.024033 1_554
Ca3 O12 2.973628 1_555
Ca3 O13 2.973628 1_555
Ca3 O14 2.973628 1_555
Ca3 O15 2.973628 1_555
Ca3 O22 2.993898 1_555
Ca3 O20 2.993898 1_555
Ca3 O23 2.993898 1_555
Ca3 O21 2.993898 1_555
Ca3 O16 3.010175 1_555
Ca3 O17 3.010175 1_555
Ca3 O18 3.010175 1_555
Ca3 O19 3.010175 1_555
Eu0 O20 2.273426 1_555
Eu0 O12 2.276662 1_555
Eu0 O8 2.281401 1_554
Eu0 O4 2.287532 1_545
Eu0 O16 2.296255 1_555
Eu0 O0 2.310426 1_455
Eu1 O23 2.273426 1_555
Eu1 O13 2.276662 1_555
Eu1 O11 2.281401 1_554
Eu1 O6 2.287532 1_565
Eu1 O18 2.296255 1_555
Eu1 O1 2.310426 1_655
Eu2 O21 2.273426 1_555
Eu2 O14 2.276662 1_555
Eu2 O9 2.281401 1_556
Eu2 O7 2.287532 1_545
Eu2 O19 2.296255 1_555
Eu2 O2 2.310426 1_655
Eu3 O22 2.273426 1_555
Eu3 O15 2.276662 1_555
Eu3 O10 2.281401 1_556
Eu3 O5 2.287532 1_565
Eu3 O17 2.296255 1_555
Eu3 O3 2.310426 1_455
Bi0 O23 2.128015 1_555
Bi0 O11 2.129762 1_555
Bi0 O15 2.131656 1_555
Bi0 O7 2.137965 1_555
Bi0 O19 2.140403 1_555
Bi0 O3 2.147497 1_555
Bi1 O20 2.128015 1_555
Bi1 O8 2.129762 1_555
Bi1 O14 2.131656 1_555
Bi1 O5 2.137965 1_555
Bi1 O17 2.140403 1_555
Bi1 O2 2.147497 1_555
Bi2 O22 2.128015 1_555
Bi2 O10 2.129762 1_555
Bi2 O13 2.131656 1_555
Bi2 O4 2.137965 1_555
Bi2 O16 2.140403 1_555
Bi2 O1 2.147497 1_555
Bi3 O21 2.128015 1_555
Bi3 O9 2.129762 1_555
Bi3 O12 2.131656 1_555
Bi3 O6 2.137965 1_555
Bi3 O18 2.140403 1_555
Bi3 O0 2.147497 1_555
O8 Sr3 2.489658 1_556
O8 Sr2 3.170631 1_556
O9 Sr3 2.489658 1_655
O9 Sr2 3.170631 1_555
O10 Sr3 2.489658 1_555
O10 Sr2 3.170631 1_555
O11 Sr3 2.489658 1_656
O11 Sr2 3.170631 1_556
O12 Sr2 2.504777 1_555
O13 Sr2 2.504777 1_555
O14 Sr2 2.504777 1_556
O15 Sr2 2.504777 1_556
O16 Sr0 2.507865 1_555
O16 Sr3 3.121528 1_555
O17 Sr0 2.507865 1_555
O17 Sr3 3.121528 1_556
O18 Sr0 2.507865 1_655
O18 Sr3 3.121528 1_655
O19 Sr0 2.507865 1_655
O19 Sr3 3.121528 1_656
O20 Sr1 2.494838 1_555
O21 Sr1 2.494838 1_555
O22 Sr1 2.494838 1_565
O23 Sr1 2.494838 1_565
