# generated using pymatgen
data_Na4Dy2(IrO4)3
_symmetry_space_group_name_H-M   'P 1'
_cell_length_a   3.20415900
_cell_length_b   9.45593395
_cell_length_c   9.45593395
_cell_angle_alpha   119.99999963
_cell_angle_beta   90.00000000
_cell_angle_gamma   90.00000000
_symmetry_Int_Tables_number   1
_chemical_formula_structural   Na4Dy2(IrO4)3
_chemical_formula_sum   'Na4 Dy2 Ir3 O12'
_cell_volume   248.11530353
_cell_formula_units_Z   1
loop_
 _symmetry_equiv_pos_site_id
 _symmetry_equiv_pos_as_xyz
  1  'x, y, z'
loop_
 _atom_site_type_symbol
 _atom_site_label
 _atom_site_symmetry_multiplicity
 _atom_site_fract_x
 _atom_site_fract_y
 _atom_site_fract_z
 _atom_site_occupancy
  Na  Na0  1  0.50000000  0.30050900  0.30050900  1
  Na  Na1  1  0.50000000  0.00000000  0.69949100  1
  Na  Na2  1  0.50000000  0.69949100  0.00000000  1
  Na  Na3  1  0.00000000  0.00000000  0.00000000  1
  Dy  Dy0  1  0.50000000  0.66666700  0.33333300  1
  Dy  Dy1  1  0.50000000  0.33333300  0.66666700  1
  Ir  Ir0  1  0.00000000  0.66992400  0.66992400  1
  Ir  Ir1  1  0.00000000  0.00000000  0.33007600  1
  Ir  Ir2  1  0.00000000  0.33007600  0.00000000  1
  O  O0  1  0.00000000  0.75608600  0.21665300  1
  O  O1  1  0.00000000  0.46056700  0.24391400  1
  O  O2  1  0.00000000  0.53943300  0.78334700  1
  O  O3  1  0.00000000  0.78334700  0.53943300  1
  O  O4  1  0.00000000  0.21665300  0.75608600  1
  O  O5  1  0.00000000  0.24391400  0.46056700  1
  O  O6  1  0.50000000  0.54268700  0.54268700  1
  O  O7  1  0.50000000  0.00000000  0.45731300  1
  O  O8  1  0.50000000  0.45731300  0.00000000  1
  O  O9  1  0.50000000  0.80333200  0.80333200  1
  O  O10  1  0.50000000  0.00000000  0.19666800  1
  O  O11  1  0.50000000  0.19666800  0.00000000  1
loop_
_geom_bond_atom_site_label_1
_geom_bond_atom_site_label_2
_geom_bond_distance
_geom_bond_site_symmetry_2
Na0 O6 2.290019 1_555
Na0 O1 2.440019 1_555
Na0 O5 2.440019 1_555
Na0 O1 2.440019 1_655
Na0 O5 2.440019 1_655
Na0 O10 2.499721 1_555
Na0 O11 2.499721 1_555
Na1 O7 2.290019 1_555
Na1 O4 2.440019 1_555
Na1 O4 2.440019 1_655
Na1 O3 2.440019 1_645
Na1 O3 2.440019 1_545
Na1 O9 2.499721 1_545
Na1 O11 2.499721 1_556
Na2 O8 2.290019 1_555
Na2 O0 2.440019 1_555
Na2 O0 2.440019 1_655
Na2 O2 2.440019 1_554
Na2 O2 2.440019 1_654
Na2 O9 2.499721 1_554
Na2 O10 2.499721 1_565
Na3 O11 2.454601 1_555
Na3 O11 2.454601 1_455
Na3 O10 2.454601 1_455
Na3 O10 2.454601 1_555
Na3 O9 2.454601 1_544
Na3 O9 2.454601 1_444
Dy0 O0 2.330624 1_555
Dy0 O0 2.330624 1_655
Dy0 O3 2.330630 1_555
Dy0 O3 2.330630 1_655
Dy0 O1 2.330630 1_555
Dy0 O1 2.330630 1_655
Dy0 O7 2.759372 1_565
Dy0 O8 2.759374 1_555
Dy0 O6 2.759381 1_555
Dy1 O4 2.330624 1_555
Dy1 O4 2.330624 1_655
Dy1 O2 2.330630 1_555
Dy1 O2 2.330630 1_655
Dy1 O5 2.330630 1_555
Dy1 O5 2.330630 1_655
Dy1 O8 2.759372 1_556
Dy1 O7 2.759374 1_555
Dy1 O6 2.759381 1_555
Ir0 O3 1.999060 1_555
Ir0 O2 1.999060 1_555
Ir0 O6 2.003551 1_455
Ir0 O6 2.003551 1_555
Ir0 O9 2.039126 1_555
Ir0 O9 2.039126 1_455
Ir1 O0 1.999060 1_545
Ir1 O5 1.999060 1_555
Ir1 O7 2.003551 1_455
Ir1 O7 2.003551 1_555
Ir1 O10 2.039126 1_455
Ir1 O10 2.039126 1_555
Ir2 O4 1.999060 1_554
Ir2 O1 1.999060 1_555
Ir2 O8 2.003551 1_555
Ir2 O8 2.003551 1_455
Ir2 O11 2.039126 1_455
Ir2 O11 2.039126 1_555
