# generated using pymatgen
data_La2TeO6
_symmetry_space_group_name_H-M   'P 1'
_cell_length_a   5.51768979
_cell_length_b   9.46604022
_cell_length_c   10.38043246
_cell_angle_alpha   90.00000000
_cell_angle_beta   90.00000000
_cell_angle_gamma   90.00000000
_symmetry_Int_Tables_number   1
_chemical_formula_structural   La2TeO6
_chemical_formula_sum   'La8 Te4 O24'
_cell_volume   542.17697833
_cell_formula_units_Z   4
loop_
 _symmetry_equiv_pos_site_id
 _symmetry_equiv_pos_as_xyz
  1  'x, y, z'
loop_
 _atom_site_type_symbol
 _atom_site_label
 _atom_site_symmetry_multiplicity
 _atom_site_fract_x
 _atom_site_fract_y
 _atom_site_fract_z
 _atom_site_occupancy
  La  La0  1  0.52595594  0.10501504  0.95601830  1
  La  La1  1  0.02595594  0.39498496  0.04398170  1
  La  La2  1  0.47404406  0.60501504  0.54398170  1
  La  La3  1  0.97404406  0.89498496  0.45601830  1
  La  La4  1  0.52864733  0.21768305  0.35886564  1
  La  La5  1  0.02864733  0.28231695  0.64113436  1
  La  La6  1  0.47135267  0.71768305  0.14113436  1
  La  La7  1  0.97135267  0.78231695  0.85886564  1
  Te  Te0  1  0.45972513  0.99626699  0.64027569  1
  Te  Te1  1  0.95972513  0.50373301  0.35972431  1
  Te  Te2  1  0.54027487  0.49626699  0.85972431  1
  Te  Te3  1  0.04027487  0.00373301  0.14027569  1
  O  O0  1  0.29816412  0.13673866  0.17527640  1
  O  O1  1  0.79816412  0.36326134  0.82472360  1
  O  O2  1  0.70183588  0.63673866  0.32472360  1
  O  O3  1  0.20183588  0.86326134  0.67527640  1
  O  O4  1  0.71624680  0.11176205  0.56501422  1
  O  O5  1  0.21624680  0.38823795  0.43498578  1
  O  O6  1  0.28375320  0.61176205  0.93498578  1
  O  O7  1  0.78375320  0.88823795  0.06501422  1
  O  O8  1  0.67599219  0.63459979  0.74676145  1
  O  O9  1  0.17599219  0.86540021  0.25323855  1
  O  O10  1  0.32400781  0.13459979  0.75323855  1
  O  O11  1  0.82400781  0.36540021  0.24676145  1
  O  O12  1  0.66753651  0.94635902  0.77978593  1
  O  O13  1  0.16753651  0.55364098  0.22021407  1
  O  O14  1  0.33246349  0.44635902  0.72021407  1
  O  O15  1  0.83246349  0.05364098  0.27978593  1
  O  O16  1  0.25396539  0.08419405  0.50933672  1
  O  O17  1  0.75396539  0.41580595  0.49066328  1
  O  O18  1  0.74603461  0.58419405  0.99066328  1
  O  O19  1  0.24603461  0.91580595  0.00933672  1
  O  O20  1  0.06805018  0.64641062  0.47900370  1
  O  O21  1  0.56805018  0.85358938  0.52099630  1
  O  O22  1  0.93194982  0.14641062  0.02099630  1
  O  O23  1  0.43194982  0.35358938  0.97900370  1
loop_
_geom_bond_atom_site_label_1
_geom_bond_atom_site_label_2
_geom_bond_distance
_geom_bond_site_symmetry_2
La0 O22 2.372080 1_556
La0 O10 2.398091 1_555
La0 O23 2.421292 1_555
La0 O19 2.428943 1_546
La0 O12 2.492467 1_545
La0 O0 2.617267 1_556
La0 O7 2.741215 1_546
La1 O23 2.372080 1_554
La1 O11 2.398091 1_455
La1 O22 2.421292 1_455
La1 O18 2.428943 1_454
La1 O13 2.492467 1_555
La1 O1 2.617267 1_454
La1 O6 2.741215 1_554
La2 O20 2.372080 1_555
La2 O8 2.398091 1_555
La2 O21 2.421292 1_555
La2 O17 2.428943 1_555
La2 O14 2.492467 1_555
La2 O2 2.617267 1_555
La2 O5 2.741215 1_555
La3 O21 2.372080 1_555
La3 O9 2.398091 1_655
La3 O20 2.421292 1_655
La3 O16 2.428943 1_665
La3 O15 2.492467 1_565
La3 O3 2.617267 1_655
La3 O4 2.741215 1_565
La4 O0 2.415830 1_555
La4 O15 2.428028 1_555
La4 O11 2.442407 1_555
La4 O5 2.490409 1_555
La4 O16 2.516643 1_555
La4 O4 2.579922 1_555
La4 O17 2.633372 1_555
La5 O1 2.415830 1_455
La5 O14 2.428028 1_555
La5 O10 2.442407 1_555
La5 O4 2.490409 1_455
La5 O17 2.516643 1_455
La5 O5 2.579922 1_555
La5 O16 2.633372 1_555
La6 O2 2.415830 1_555
La6 O13 2.428028 1_555
La6 O9 2.442407 1_555
La6 O7 2.490409 1_555
La6 O18 2.516643 1_554
La6 O6 2.579922 1_554
La6 O19 2.633372 1_555
La7 O3 2.415830 1_655
La7 O12 2.428028 1_555
La7 O8 2.442407 1_555
La7 O6 2.490409 1_655
La7 O19 2.516643 1_656
La7 O7 2.579922 1_556
La7 O18 2.633372 1_555
O0 Te3 1.934418 1_555
O1 Te2 1.934418 1_555
O2 Te1 1.934418 1_555
O3 Te0 1.934418 1_555
O4 Te0 1.951662 1_545
O5 Te1 1.951662 1_455
O6 Te2 1.951662 1_555
O7 Te3 1.951662 1_665
O8 Te2 1.910619 1_555
O9 Te3 1.910619 1_565
O10 Te0 1.910619 1_545
O11 Te1 1.910619 1_555
O12 Te0 1.906617 1_555
O13 Te1 1.906617 1_455
O14 Te2 1.906617 1_555
O15 Te3 1.906617 1_655
O16 Te0 1.956819 1_545
O17 Te1 1.956819 1_555
O18 Te2 1.956819 1_555
O19 Te3 1.956819 1_565
O20 Te1 1.927283 1_455
O21 Te0 1.927283 1_555
O22 Te3 1.927283 1_655
O23 Te2 1.927283 1_555
