# generated using pymatgen
data_Cr3GaFe3As2
_symmetry_space_group_name_H-M   'P 1'
_cell_length_a   6.00205156
_cell_length_b   6.00205156
_cell_length_c   3.81982200
_cell_angle_alpha   90.00000000
_cell_angle_beta   90.00000000
_cell_angle_gamma   119.99999516
_symmetry_Int_Tables_number   1
_chemical_formula_structural   Cr3GaFe3As2
_chemical_formula_sum   'Cr3 Ga1 Fe3 As2'
_cell_volume   119.17172409
_cell_formula_units_Z   1
loop_
 _symmetry_equiv_pos_site_id
 _symmetry_equiv_pos_as_xyz
  1  'x, y, z'
loop_
 _atom_site_type_symbol
 _atom_site_label
 _atom_site_symmetry_multiplicity
 _atom_site_fract_x
 _atom_site_fract_y
 _atom_site_fract_z
 _atom_site_occupancy
  Cr  Cr0  1  0.00000000  0.42511900  0.50000000  1
  Cr  Cr1  1  0.57488100  0.57488100  0.50000000  1
  Cr  Cr2  1  0.42511900  0.00000000  0.50000000  1
  Ga  Ga0  1  0.00000000  0.00000000  0.50000000  1
  Fe  Fe0  1  0.00000000  0.75784900  0.00000000  1
  Fe  Fe1  1  0.24215100  0.24215100  0.00000000  1
  Fe  Fe2  1  0.75784900  0.00000000  0.00000000  1
  As  As0  1  0.33333300  0.66666700  0.00000000  1
  As  As1  1  0.66666700  0.33333300  0.00000000  1
loop_
_geom_bond_atom_site_label_1
_geom_bond_atom_site_label_2
_geom_bond_distance
_geom_bond_site_symmetry_2
Cr0 Ga0 2.551586 1_555
Cr1 Ga0 2.551586 1_665
Cr2 Ga0 2.551586 1_555
Fe0 Ga0 2.400029 1_564
Fe0 Ga0 2.400029 1_565
Fe1 Ga0 2.400029 1_554
Fe1 Ga0 2.400029 1_555
Fe2 Ga0 2.400029 1_654
Fe2 Ga0 2.400029 1_655
As0 Fe0 2.323182 1_555
As0 Fe2 2.323186 1_565
As0 Fe1 2.323188 1_555
As0 Cr2 2.617594 1_565
As0 Cr2 2.617594 1_564
As0 Cr0 2.617595 1_555
As0 Cr0 2.617595 1_554
As0 Cr1 2.617598 1_555
As0 Cr1 2.617598 1_554
As1 Fe2 2.323182 1_555
As1 Fe0 2.323186 1_655
As1 Fe1 2.323188 1_555
As1 Cr0 2.617594 1_655
As1 Cr0 2.617594 1_654
As1 Cr2 2.617595 1_555
As1 Cr2 2.617595 1_554
As1 Cr1 2.617598 1_555
As1 Cr1 2.617598 1_554
