# generated using pymatgen
data_ErMg(BO2)5
_symmetry_space_group_name_H-M   'P 1'
_cell_length_a   7.64218300
_cell_length_b   8.61007800
_cell_length_c   12.28161916
_cell_angle_alpha   49.36560230
_cell_angle_beta   90.00000000
_cell_angle_gamma   90.00000000
_symmetry_Int_Tables_number   1
_chemical_formula_structural   ErMg(BO2)5
_chemical_formula_sum   'Er4 Mg4 B20 O40'
_cell_volume   613.27254857
_cell_formula_units_Z   4
loop_
 _symmetry_equiv_pos_site_id
 _symmetry_equiv_pos_as_xyz
  1  'x, y, z'
loop_
 _atom_site_type_symbol
 _atom_site_label
 _atom_site_symmetry_multiplicity
 _atom_site_fract_x
 _atom_site_fract_y
 _atom_site_fract_z
 _atom_site_occupancy
  Er  Er0  1  0.19331900  0.94637600  0.24174900  1
  Er  Er1  1  0.80668100  0.05362400  0.75825100  1
  Er  Er2  1  0.69331900  0.05362400  0.25825100  1
  Er  Er3  1  0.30668100  0.94637600  0.74174900  1
  Mg  Mg0  1  0.90863600  0.52880600  0.37143900  1
  Mg  Mg1  1  0.09136400  0.47119400  0.62856100  1
  Mg  Mg2  1  0.40863600  0.47119400  0.12856100  1
  Mg  Mg3  1  0.59136400  0.52880600  0.87143900  1
  B  B0  1  0.82630300  0.91256200  0.10390400  1
  B  B1  1  0.17369700  0.08743800  0.89609600  1
  B  B2  1  0.32630300  0.08743800  0.39609600  1
  B  B3  1  0.67369700  0.91256200  0.60390400  1
  B  B4  1  0.57528300  0.65984300  0.25874700  1
  B  B5  1  0.42471700  0.34015700  0.74125300  1
  B  B6  1  0.07528300  0.34015700  0.24125300  1
  B  B7  1  0.92471700  0.65984300  0.75874700  1
  B  B8  1  0.81135700  0.47645600  0.08868200  1
  B  B9  1  0.18864300  0.52354400  0.91131800  1
  B  B10  1  0.31135700  0.52354400  0.41131800  1
  B  B11  1  0.68864300  0.47645600  0.58868200  1
  B  B12  1  0.46794500  0.72178800  0.55583200  1
  B  B13  1  0.53205500  0.27821200  0.44416800  1
  B  B14  1  0.96794500  0.27821200  0.94416800  1
  B  B15  1  0.03205500  0.72178800  0.05583200  1
  B  B16  1  0.59746400  0.84479300  0.99439200  1
  B  B17  1  0.40253600  0.15520700  0.00560800  1
  B  B18  1  0.09746400  0.15520700  0.50560800  1
  B  B19  1  0.90253600  0.84479300  0.49439200  1
  O  O0  1  0.91317500  0.31010400  0.19347200  1
  O  O1  1  0.08682500  0.68989600  0.80652800  1
  O  O2  1  0.41317500  0.68989600  0.30652800  1
  O  O3  1  0.58682500  0.31010400  0.69347200  1
  O  O4  1  0.87233900  0.67255100  0.01078000  1
  O  O5  1  0.12766100  0.32744900  0.98922000  1
  O  O6  1  0.37233900  0.32744900  0.48922000  1
  O  O7  1  0.62766100  0.67255100  0.51078000  1
  O  O8  1  0.38944300  0.90561900  0.41890100  1
  O  O9  1  0.61055700  0.09438100  0.58109900  1
  O  O10  1  0.88944300  0.09438100  0.08109900  1
  O  O11  1  0.11055700  0.90561900  0.91890100  1
  O  O12  1  0.70932900  0.80559900  0.23102200  1
  O  O13  1  0.29067100  0.19440100  0.76897800  1
  O  O14  1  0.20932900  0.19440100  0.26897800  1
  O  O15  1  0.79067100  0.80559900  0.73102200  1
  O  O16  1  0.64972000  0.42124600  0.07507000  1
  O  O17  1  0.35028000  0.57875400  0.92493000  1
  O  O18  1  0.14972000  0.57875400  0.42493000  1
  O  O19  1  0.85028000  0.42124600  0.57507000  1
  O  O20  1  0.77126200  0.97217200  0.47837100  1
  O  O21  1  0.22873800  0.02782800  0.52162900  1
  O  O22  1  0.27126200  0.02782800  0.02162900  1
  O  O23  1  0.72873800  0.97217200  0.97837100  1
  O  O24  1  0.65002900  0.45408900  0.36519600  1
  O  O25  1  0.34997100  0.54591100  0.63480400  1
  O  O26  1  0.15002900  0.54591100  0.13480400  1
  O  O27  1  0.84997100  0.45408900  0.86519600  1
  O  O28  1  0.52846900  0.68986000  0.12708400  1
  O  O29  1  0.47153100  0.31014000  0.87291600  1
  O  O30  1  0.02846900  0.31014000  0.37291600  1
  O  O31  1  0.97153100  0.68986000  0.62708400  1
  O  O32  1  0.95184400  0.88284600  0.37320000  1
  O  O33  1  0.04815600  0.11715400  0.62680000  1
  O  O34  1  0.45184400  0.11715400  0.12680000  1
  O  O35  1  0.54815600  0.88284600  0.87320000  1
  O  O36  1  0.97193800  0.76666100  0.14878800  1
  O  O37  1  0.02806200  0.23333900  0.85121200  1
  O  O38  1  0.47193800  0.23333900  0.35121200  1
  O  O39  1  0.52806200  0.76666100  0.64878800  1
loop_
_geom_bond_atom_site_label_1
_geom_bond_atom_site_label_2
_geom_bond_distance
_geom_bond_site_symmetry_2
Er0 O32 2.271760 1_455
Er0 O34 2.314047 1_565
Er0 O14 2.370101 1_565
Er0 O22 2.384489 1_565
Er0 O18 2.432359 1_555
Er0 O2 2.458517 1_555
Er0 O8 2.471617 1_555
Er0 O5 2.717036 1_564
Er0 O10 2.763149 1_465
Er0 O36 2.976761 1_455
Er1 O33 2.271760 1_655
Er1 O35 2.314047 1_545
Er1 O15 2.370101 1_545
Er1 O23 2.384489 1_545
Er1 O19 2.432359 1_555
Er1 O3 2.458517 1_555
Er1 O9 2.471617 1_555
Er1 O4 2.717036 1_546
Er1 O11 2.763149 1_645
Er1 O37 2.976761 1_655
Er2 O34 2.271760 1_555
Er2 O32 2.314047 1_545
Er2 O12 2.370101 1_545
Er2 O20 2.384489 1_545
Er2 O16 2.432359 1_555
Er2 O0 2.458517 1_555
Er2 O10 2.471617 1_555
Er2 O7 2.717036 1_545
Er2 O8 2.763149 1_545
Er2 O38 2.976761 1_555
Er3 O35 2.271760 1_555
Er3 O33 2.314047 1_565
Er3 O13 2.370101 1_565
Er3 O21 2.384489 1_565
Er3 O17 2.432359 1_555
Er3 O1 2.458517 1_555
Er3 O11 2.471617 1_555
Er3 O6 2.717036 1_565
Er3 O9 2.763149 1_565
Er3 O39 2.976761 1_555
Mg0 O19 2.072321 1_555
Mg0 O30 2.083072 1_655
Mg0 O18 2.092603 1_655
Mg0 O24 2.095193 1_555
Mg0 O36 2.147494 1_555
Mg0 O12 2.370792 1_555
Mg1 O18 2.072321 1_555
Mg1 O31 2.083072 1_455
Mg1 O19 2.092603 1_455
Mg1 O25 2.095193 1_555
Mg1 O37 2.147494 1_555
Mg1 O13 2.370792 1_555
Mg2 O17 2.072321 1_554
Mg2 O28 2.083072 1_555
Mg2 O16 2.092603 1_555
Mg2 O26 2.095193 1_555
Mg2 O38 2.147494 1_555
Mg2 O14 2.370792 1_555
Mg3 O16 2.072321 1_556
Mg3 O29 2.083072 1_555
Mg3 O17 2.092603 1_555
Mg3 O27 2.095193 1_555
Mg3 O39 2.147494 1_555
Mg3 O15 2.370792 1_555
B0 O23 1.471636 1_554
B0 O10 1.480174 1_565
B0 O12 1.487274 1_555
B0 O36 1.489538 1_555
B1 O22 1.471636 1_556
B1 O11 1.480174 1_545
B1 O13 1.487274 1_555
B1 O37 1.489538 1_555
B2 O21 1.471636 1_555
B2 O8 1.480174 1_545
B2 O14 1.487274 1_555
B2 O38 1.489538 1_555
B3 O20 1.471636 1_555
B3 O9 1.480174 1_565
B3 O15 1.487274 1_555
B3 O39 1.489538 1_555
B4 O2 1.464196 1_555
B4 O24 1.468783 1_555
B4 O12 1.477743 1_555
B4 O28 1.505080 1_555
B5 O3 1.464196 1_555
B5 O25 1.468783 1_555
B5 O13 1.477743 1_555
B5 O29 1.505080 1_555
B6 O0 1.464196 1_455
B6 O26 1.468783 1_555
B6 O14 1.477743 1_555
B6 O30 1.505080 1_555
B7 O1 1.464196 1_655
B7 O27 1.468783 1_555
B7 O15 1.477743 1_555
B7 O31 1.505080 1_555
B8 O4 1.370866 1_555
B8 O16 1.372330 1_555
B8 O0 1.382893 1_555
B9 O5 1.370866 1_555
B9 O17 1.372330 1_555
B9 O1 1.382893 1_555
B10 O6 1.370866 1_555
B10 O18 1.372330 1_555
B10 O2 1.382893 1_555
B11 O7 1.370866 1_555
B11 O19 1.372330 1_555
B11 O3 1.382893 1_555
B12 O25 1.460730 1_555
B12 O8 1.492128 1_555
B12 O39 1.496065 1_555
B12 O7 1.510365 1_555
B13 O24 1.460730 1_555
B13 O9 1.492128 1_555
B13 O38 1.496065 1_555
B13 O6 1.510365 1_555
B14 O27 1.460730 1_555
B14 O10 1.492128 1_556
B14 O37 1.496065 1_655
B14 O5 1.510365 1_655
B15 O26 1.460730 1_555
B15 O11 1.492128 1_554
B15 O36 1.496065 1_455
B15 O4 1.510365 1_455
B16 O35 1.352630 1_555
B16 O28 1.371813 1_556
B16 O23 1.402477 1_555
B17 O34 1.352630 1_555
B17 O29 1.371813 1_554
B17 O22 1.402477 1_555
B18 O33 1.352630 1_555
B18 O30 1.371813 1_555
B18 O21 1.402477 1_555
B19 O32 1.352630 1_555
B19 O31 1.371813 1_555
B19 O20 1.402477 1_555
