# generated using pymatgen
data_Mg2W2O5
_symmetry_space_group_name_H-M   'P 1'
_cell_length_a   5.26768500
_cell_length_b   3.22559000
_cell_length_c   14.10711307
_cell_angle_alpha   89.46670759
_cell_angle_beta   90.00000000
_cell_angle_gamma   90.00000000
_symmetry_Int_Tables_number   1
_chemical_formula_structural   Mg2W2O5
_chemical_formula_sum   'Mg4 W4 O10'
_cell_volume   239.68910607
_cell_formula_units_Z   2
loop_
 _symmetry_equiv_pos_site_id
 _symmetry_equiv_pos_as_xyz
  1  'x, y, z'
loop_
 _atom_site_type_symbol
 _atom_site_label
 _atom_site_symmetry_multiplicity
 _atom_site_fract_x
 _atom_site_fract_y
 _atom_site_fract_z
 _atom_site_occupancy
  Mg  Mg0  1  0.79862500  0.98963700  0.55420300  1
  Mg  Mg1  1  0.19783300  0.00474500  0.95097700  1
  Mg  Mg2  1  0.29862500  0.01036300  0.44579700  1
  Mg  Mg3  1  0.69783300  0.99525500  0.04902300  1
  W  W0  1  0.80502000  0.51485400  0.32911100  1
  W  W1  1  0.19165900  0.49889200  0.16997500  1
  W  W2  1  0.69165900  0.50110800  0.83002500  1
  W  W3  1  0.30502000  0.48514600  0.67088900  1
  O  O0  1  0.49535300  0.49387600  0.25080200  1
  O  O1  1  0.89832500  0.49242000  0.07687000  1
  O  O2  1  0.39832500  0.50758000  0.92313000  1
  O  O3  1  0.61051000  0.48903400  0.58538800  1
  O  O4  1  0.83475000  0.00455800  0.90937900  1
  O  O5  1  0.16817000  0.99746000  0.58683000  1
  O  O6  1  0.11051000  0.51096600  0.41461200  1
  O  O7  1  0.66817000  0.00254000  0.41317000  1
  O  O8  1  0.99535300  0.50612400  0.74919800  1
  O  O9  1  0.33475000  0.99544200  0.09062100  1
loop_
_geom_bond_atom_site_label_1
_geom_bond_atom_site_label_2
_geom_bond_distance
_geom_bond_site_symmetry_2
Mg0 O3 1.941557 1_555
Mg0 O3 1.945125 1_565
Mg0 O5 2.000534 1_655
Mg0 O7 2.104949 1_565
Mg1 O2 1.962945 1_545
Mg1 O2 1.971943 1_555
Mg1 O4 2.000610 1_455
Mg1 O9 2.097803 1_546
Mg2 O6 1.941557 1_555
Mg2 O6 1.945125 1_545
Mg2 O7 2.000534 1_555
Mg2 O5 2.104949 1_545
Mg3 O1 1.962945 1_565
Mg3 O1 1.971943 1_555
Mg3 O9 2.000610 1_555
Mg3 O4 2.097803 1_564
O0 W1 1.964511 1_555
O0 W0 1.971616 1_555
O1 W1 2.028224 1_655
O2 W2 2.028224 1_555
O3 W3 2.011053 1_555
O4 W2 2.086455 1_555
O4 W2 2.119505 1_545
O5 W3 2.105981 1_565
O5 W3 2.149463 1_555
O6 W0 2.011053 1_455
O7 W0 2.105981 1_545
O7 W0 2.149463 1_555
O8 W2 1.964511 1_555
O8 W3 1.971616 1_655
O9 W1 2.086455 1_555
O9 W1 2.119505 1_565
