# generated using pymatgen
data_ErCd2
_symmetry_space_group_name_H-M   'P 1'
_cell_length_a   10.90819527
_cell_length_b   10.90819527
_cell_length_c   6.42896000
_cell_angle_alpha   90.00000000
_cell_angle_beta   90.00000000
_cell_angle_gamma   119.99999556
_symmetry_Int_Tables_number   1
_chemical_formula_structural   ErCd2
_chemical_formula_sum   'Er8 Cd16'
_cell_volume   662.48672782
_cell_formula_units_Z   8
loop_
 _symmetry_equiv_pos_site_id
 _symmetry_equiv_pos_as_xyz
  1  'x, y, z'
loop_
 _atom_site_type_symbol
 _atom_site_label
 _atom_site_symmetry_multiplicity
 _atom_site_fract_x
 _atom_site_fract_y
 _atom_site_fract_z
 _atom_site_occupancy
  Er  Er0_0  1  0.00000000  0.00000000  0.00000000  1
  Er  Er0_1  1  0.00000000  0.00000000  0.50000000  1
  Er  Er0_2  1  0.00000000  0.50000000  0.00000000  1
  Er  Er0_3  1  0.00000000  0.50000000  0.50000000  1
  Er  Er0_4  1  0.50000000  0.00000000  0.00000000  1
  Er  Er0_5  1  0.50000000  0.00000000  0.50000000  1
  Er  Er0_6  1  0.50000000  0.50000000  0.00000000  1
  Er  Er0_7  1  0.50000000  0.50000000  0.50000000  1
  Cd  Cd0_0  1  0.33333350  0.16666650  0.47850350  1
  Cd  Cd0_1  1  0.33333350  0.16666650  0.97850350  1
  Cd  Cd0_2  1  0.33333350  0.66666650  0.47850350  1
  Cd  Cd0_3  1  0.33333350  0.66666650  0.97850350  1
  Cd  Cd0_4  1  0.83333350  0.16666650  0.47850350  1
  Cd  Cd0_5  1  0.83333350  0.16666650  0.97850350  1
  Cd  Cd0_6  1  0.83333350  0.66666650  0.47850350  1
  Cd  Cd0_7  1  0.83333350  0.66666650  0.97850350  1
  Cd  Cd1_0  1  0.16666650  0.33333350  0.02149650  1
  Cd  Cd1_1  1  0.16666650  0.33333350  0.52149650  1
  Cd  Cd1_2  1  0.16666650  0.83333350  0.02149650  1
  Cd  Cd1_3  1  0.16666650  0.83333350  0.52149650  1
  Cd  Cd1_4  1  0.66666650  0.33333350  0.02149650  1
  Cd  Cd1_5  1  0.66666650  0.33333350  0.52149650  1
  Cd  Cd1_6  1  0.66666650  0.83333350  0.02149650  1
  Cd  Cd1_7  1  0.66666650  0.83333350  0.52149650  1
loop_
_geom_bond_atom_site_label_1
_geom_bond_atom_site_label_2
_geom_bond_distance
_geom_bond_site_symmetry_2
Er0_0 Er0_1 3.214480 1_555
Er0_0 Er0_1 3.214480 1_554
Er0_2 Er0_3 3.214480 1_555
Er0_2 Er0_3 3.214480 1_554
Er0_4 Er0_5 3.214480 1_555
Er0_4 Er0_5 3.214480 1_554
Er0_6 Er0_7 3.214480 1_555
Er0_6 Er0_7 3.214480 1_554
Cd0_0 Er0_5 3.151953 1_555
Cd0_0 Er0_1 3.151958 1_555
Cd0_0 Er0_7 3.151958 1_555
Cd0_0 Cd1_5 3.161029 1_555
Cd0_0 Cd1_3 3.161029 1_545
Cd0_0 Cd1_1 3.161038 1_555
Cd0_0 Cd0_1 3.214480 1_555
Cd0_0 Cd0_1 3.214480 1_554
Cd0_1 Er0_4 3.151953 1_556
Cd0_1 Er0_0 3.151958 1_556
Cd0_1 Er0_6 3.151958 1_556
Cd0_1 Cd1_4 3.161029 1_556
Cd0_1 Cd1_2 3.161029 1_546
Cd0_1 Cd1_0 3.161038 1_556
Cd0_2 Er0_7 3.151953 1_555
Cd0_2 Er0_5 3.151958 1_565
Cd0_2 Er0_3 3.151958 1_555
Cd0_2 Cd1_7 3.161029 1_555
Cd0_2 Cd1_1 3.161029 1_555
Cd0_2 Cd1_3 3.161038 1_555
Cd0_2 Cd0_3 3.214480 1_554
Cd0_2 Cd0_3 3.214480 1_555
Cd0_3 Er0_6 3.151953 1_556
Cd0_3 Er0_4 3.151958 1_566
Cd0_3 Er0_2 3.151958 1_556
Cd0_3 Cd1_6 3.161029 1_556
Cd0_3 Cd1_0 3.161029 1_556
Cd0_3 Cd1_2 3.161038 1_556
Cd0_4 Er0_1 3.151953 1_655
Cd0_4 Er0_5 3.151958 1_555
Cd0_4 Er0_3 3.151958 1_655
Cd0_4 Cd1_7 3.161029 1_545
Cd0_4 Cd1_1 3.161029 1_655
Cd0_4 Cd1_5 3.161038 1_555
Cd0_4 Cd0_5 3.214480 1_555
Cd0_4 Cd0_5 3.214480 1_554
Cd0_5 Er0_0 3.151953 1_656
Cd0_5 Er0_4 3.151958 1_556
Cd0_5 Er0_2 3.151958 1_656
Cd0_5 Cd1_6 3.161029 1_546
Cd0_5 Cd1_0 3.161029 1_656
Cd0_5 Cd1_4 3.161038 1_556
Cd0_6 Er0_3 3.151953 1_655
Cd0_6 Er0_7 3.151958 1_555
Cd0_6 Er0_1 3.151958 1_665
Cd0_6 Cd1_5 3.161029 1_555
Cd0_6 Cd1_3 3.161029 1_655
Cd0_6 Cd1_7 3.161038 1_555
Cd0_6 Cd0_7 3.214480 1_554
Cd0_6 Cd0_7 3.214480 1_555
Cd0_7 Er0_2 3.151953 1_656
Cd0_7 Er0_6 3.151958 1_556
Cd0_7 Er0_0 3.151958 1_666
Cd0_7 Cd1_4 3.161029 1_556
Cd0_7 Cd1_2 3.161029 1_656
Cd0_7 Cd1_6 3.161038 1_556
Cd1_0 Er0_2 3.151953 1_555
Cd1_0 Er0_0 3.151958 1_555
Cd1_0 Er0_6 3.151958 1_555
Cd1_0 Cd1_1 3.214480 1_555
Cd1_0 Cd1_1 3.214480 1_554
Cd1_1 Er0_3 3.151953 1_555
Cd1_1 Er0_1 3.151958 1_555
Cd1_1 Er0_7 3.151958 1_555
Cd1_2 Er0_0 3.151953 1_565
Cd1_2 Er0_2 3.151958 1_555
Cd1_2 Er0_4 3.151958 1_565
Cd1_2 Cd1_3 3.214480 1_554
Cd1_2 Cd1_3 3.214480 1_555
Cd1_3 Er0_1 3.151953 1_565
Cd1_3 Er0_3 3.151958 1_555
Cd1_3 Er0_5 3.151958 1_565
Cd1_4 Er0_6 3.151953 1_555
Cd1_4 Er0_4 3.151958 1_555
Cd1_4 Er0_2 3.151958 1_655
Cd1_4 Cd1_5 3.214480 1_554
Cd1_4 Cd1_5 3.214480 1_555
Cd1_5 Er0_7 3.151953 1_555
Cd1_5 Er0_5 3.151958 1_555
Cd1_5 Er0_3 3.151958 1_655
Cd1_6 Er0_4 3.151953 1_565
Cd1_6 Er0_6 3.151958 1_555
Cd1_6 Er0_0 3.151958 1_665
Cd1_6 Cd1_7 3.214480 1_555
Cd1_6 Cd1_7 3.214480 1_554
Cd1_7 Er0_5 3.151953 1_565
Cd1_7 Er0_7 3.151958 1_555
Cd1_7 Er0_1 3.151958 1_665
