# generated using pymatgen
data_MgTl2(PO4)4
_symmetry_space_group_name_H-M   'P 1'
_cell_length_a   6.92147600
_cell_length_b   7.44476454
_cell_length_c   7.83598500
_cell_angle_alpha   112.94053637
_cell_angle_beta   98.04411778
_cell_angle_gamma   88.18365844
_symmetry_Int_Tables_number   1
_chemical_formula_structural   MgTl2(PO4)4
_chemical_formula_sum   'Mg1 Tl2 P4 O16'
_cell_volume   368.06937376
_cell_formula_units_Z   1
loop_
 _symmetry_equiv_pos_site_id
 _symmetry_equiv_pos_as_xyz
  1  'x, y, z'
loop_
 _atom_site_type_symbol
 _atom_site_label
 _atom_site_symmetry_multiplicity
 _atom_site_fract_x
 _atom_site_fract_y
 _atom_site_fract_z
 _atom_site_occupancy
  Mg  Mg0  1  0.50000000  0.50000000  0.00000000  1
  Tl  Tl0  1  0.24474600  0.93453900  0.78672700  1
  Tl  Tl1  1  0.75525400  0.06546100  0.21327300  1
  P  P0  1  0.82486600  0.25696200  0.72778100  1
  P  P1  1  0.17513400  0.74303800  0.27221900  1
  P  P2  1  0.73235500  0.65598200  0.73779300  1
  P  P3  1  0.26764500  0.34401800  0.26220700  1
  O  O0  1  0.03396400  0.25791000  0.83100000  1
  O  O1  1  0.96603600  0.74209000  0.16900000  1
  O  O2  1  0.79721800  0.07207100  0.54866100  1
  O  O3  1  0.20278200  0.92792900  0.45133900  1
  O  O4  1  0.67280800  0.27995500  0.85635200  1
  O  O5  1  0.32719200  0.72004500  0.14364800  1
  O  O6  1  0.81483800  0.43752000  0.66048300  1
  O  O7  1  0.18516200  0.56248000  0.33951700  1
  O  O8  1  0.62514400  0.69040700  0.56801400  1
  O  O9  1  0.37485600  0.30959300  0.43198600  1
  O  O10  1  0.90451800  0.80232500  0.81167900  1
  O  O11  1  0.09548200  0.19767500  0.18832100  1
  O  O12  1  0.60192400  0.67688100  0.88563800  1
  O  O13  1  0.39807600  0.32311900  0.11436200  1
  O  O14  1  0.24967000  0.45602800  0.78585200  1
  O  O15  1  0.75033000  0.54397200  0.21414800  1
loop_
_geom_bond_atom_site_label_1
_geom_bond_atom_site_label_2
_geom_bond_distance
_geom_bond_site_symmetry_2
Mg0 O12 2.047084 1_554
Mg0 O13 2.047084 1_555
Mg0 O4 2.048515 1_554
Mg0 O5 2.048515 1_555
Mg0 O15 2.172358 1_555
Mg0 O14 2.172358 1_554
O0 P0 1.554802 1_455
O0 Tl0 2.704148 1_545
O1 P1 1.554802 1_655
O1 Tl1 2.704148 1_565
O2 P0 1.528651 1_555
O2 Tl1 2.584593 1_555
O3 P1 1.528651 1_555
O3 Tl0 2.584593 1_555
O4 P0 1.517531 1_555
O5 P1 1.517531 1_555
O6 P2 1.614918 1_555
O6 P0 1.620572 1_555
O7 P3 1.614918 1_555
O7 P1 1.620572 1_555
O8 P2 1.537434 1_555
O9 P3 1.537434 1_555
O10 P2 1.529589 1_555
O10 Tl0 2.641660 1_655
O11 P3 1.529589 1_555
O11 Tl1 2.641660 1_455
O12 P2 1.524680 1_555
O13 P3 1.524680 1_555
