# generated using pymatgen
data_HfTa
_symmetry_space_group_name_H-M   'P 1'
_cell_length_a   5.89629960
_cell_length_b   5.89629960
_cell_length_c   9.69511000
_cell_angle_alpha   90.00000000
_cell_angle_beta   90.00000000
_cell_angle_gamma   108.96429813
_symmetry_Int_Tables_number   1
_chemical_formula_structural   HfTa
_chemical_formula_sum   'Hf8 Ta8'
_cell_volume   318.76819087
_cell_formula_units_Z   8
loop_
 _symmetry_equiv_pos_site_id
 _symmetry_equiv_pos_as_xyz
  1  'x, y, z'
loop_
 _atom_site_type_symbol
 _atom_site_label
 _atom_site_symmetry_multiplicity
 _atom_site_fract_x
 _atom_site_fract_y
 _atom_site_fract_z
 _atom_site_occupancy
  Hf  Hf0_0  1  0.00000000  0.00000000  0.00000000  1
  Hf  Hf0_1  1  0.00000000  0.00000000  0.50000000  1
  Hf  Hf0_2  1  0.00000000  0.50000000  0.00000000  1
  Hf  Hf0_3  1  0.00000000  0.50000000  0.50000000  1
  Hf  Hf0_4  1  0.50000000  0.00000000  0.00000000  1
  Hf  Hf0_5  1  0.50000000  0.00000000  0.50000000  1
  Hf  Hf0_6  1  0.50000000  0.50000000  0.00000000  1
  Hf  Hf0_7  1  0.50000000  0.50000000  0.50000000  1
  Ta  Ta0_0  1  0.25000000  0.25000000  0.25000000  1
  Ta  Ta0_1  1  0.25000000  0.25000000  0.75000000  1
  Ta  Ta0_2  1  0.25000000  0.75000000  0.25000000  1
  Ta  Ta0_3  1  0.25000000  0.75000000  0.75000000  1
  Ta  Ta0_4  1  0.75000000  0.25000000  0.25000000  1
  Ta  Ta0_5  1  0.75000000  0.25000000  0.75000000  1
  Ta  Ta0_6  1  0.75000000  0.75000000  0.25000000  1
  Ta  Ta0_7  1  0.75000000  0.75000000  0.75000000  1
loop_
_geom_bond_atom_site_label_1
_geom_bond_atom_site_label_2
_geom_bond_distance
_geom_bond_site_symmetry_2
Hf0_0 Hf0_4 2.948150 1_555
Hf0_0 Hf0_2 2.948150 1_555
Hf0_0 Hf0_4 2.948150 1_455
Hf0_0 Hf0_2 2.948150 1_545
Hf0_0 Ta0_0 2.967861 1_555
Hf0_0 Ta0_1 2.967861 1_554
Hf0_0 Ta0_7 2.967861 1_444
Hf0_0 Ta0_6 2.967861 1_445
Hf0_1 Hf0_5 2.948150 1_555
Hf0_1 Hf0_3 2.948150 1_545
Hf0_1 Hf0_5 2.948150 1_455
Hf0_1 Hf0_3 2.948150 1_555
Hf0_1 Ta0_0 2.967861 1_555
Hf0_1 Ta0_1 2.967861 1_555
Hf0_1 Ta0_7 2.967861 1_445
Hf0_1 Ta0_6 2.967861 1_445
Hf0_2 Hf0_6 2.948150 1_455
Hf0_2 Hf0_6 2.948150 1_555
Hf0_2 Ta0_4 2.967861 1_455
Hf0_2 Ta0_5 2.967861 1_454
Hf0_2 Ta0_3 2.967861 1_554
Hf0_2 Ta0_2 2.967861 1_555
Hf0_3 Hf0_7 2.948150 1_455
Hf0_3 Hf0_7 2.948150 1_555
Hf0_3 Ta0_3 2.967861 1_555
Hf0_3 Ta0_4 2.967861 1_455
Hf0_3 Ta0_5 2.967861 1_455
Hf0_3 Ta0_2 2.967861 1_555
Hf0_4 Hf0_6 2.948150 1_555
Hf0_4 Hf0_6 2.948150 1_545
Hf0_4 Ta0_4 2.967861 1_555
Hf0_4 Ta0_5 2.967861 1_554
Hf0_4 Ta0_3 2.967861 1_544
Hf0_4 Ta0_2 2.967861 1_545
Hf0_5 Hf0_7 2.948150 1_555
Hf0_5 Hf0_7 2.948150 1_545
Hf0_5 Ta0_4 2.967861 1_555
Hf0_5 Ta0_5 2.967861 1_555
Hf0_5 Ta0_3 2.967861 1_545
Hf0_5 Ta0_2 2.967861 1_545
Hf0_6 Ta0_7 2.967861 1_554
Hf0_6 Ta0_6 2.967861 1_555
Hf0_6 Ta0_0 2.967861 1_555
Hf0_6 Ta0_1 2.967861 1_554
Hf0_7 Ta0_7 2.967861 1_555
Hf0_7 Ta0_6 2.967861 1_555
Hf0_7 Ta0_0 2.967861 1_555
Hf0_7 Ta0_1 2.967861 1_555
Ta0_0 Ta0_4 2.948150 1_555
Ta0_0 Ta0_2 2.948150 1_555
Ta0_0 Ta0_2 2.948150 1_545
Ta0_0 Ta0_4 2.948150 1_455
Ta0_1 Ta0_5 2.948150 1_555
Ta0_1 Ta0_3 2.948150 1_545
Ta0_1 Ta0_3 2.948150 1_555
Ta0_1 Ta0_5 2.948150 1_455
Ta0_2 Ta0_6 2.948150 1_555
Ta0_2 Ta0_6 2.948150 1_455
Ta0_3 Ta0_7 2.948150 1_555
Ta0_3 Ta0_7 2.948150 1_455
Ta0_4 Ta0_6 2.948150 1_555
Ta0_4 Ta0_6 2.948150 1_545
Ta0_5 Ta0_7 2.948150 1_555
Ta0_5 Ta0_7 2.948150 1_545
