# generated using pymatgen
data_CeSe2
_symmetry_space_group_name_H-M   'P 1'
_cell_length_a   5.78017170
_cell_length_b   5.78017170
_cell_length_c   50.18134102
_cell_angle_alpha   86.51076513
_cell_angle_beta   86.51076513
_cell_angle_gamma   59.99450946
_symmetry_Int_Tables_number   1
_chemical_formula_structural   CeSe2
_chemical_formula_sum   'Ce8 Se16'
_cell_volume   1448.28925874
_cell_formula_units_Z   8
loop_
 _symmetry_equiv_pos_site_id
 _symmetry_equiv_pos_as_xyz
  1  'x, y, z'
loop_
 _atom_site_type_symbol
 _atom_site_label
 _atom_site_symmetry_multiplicity
 _atom_site_fract_x
 _atom_site_fract_y
 _atom_site_fract_z
 _atom_site_occupancy
  Ce  Ce0_0  1  0.25001600  0.24998400  0.25000000  1
  Ce  Ce0_1  1  0.25001600  0.24998400  0.75000000  1
  Ce  Ce0_2  1  0.25001600  0.74998400  0.25000000  1
  Ce  Ce0_3  1  0.25001600  0.74998400  0.75000000  1
  Ce  Ce0_4  1  0.75001600  0.24998400  0.25000000  1
  Ce  Ce0_5  1  0.75001600  0.24998400  0.75000000  1
  Ce  Ce0_6  1  0.75001600  0.74998400  0.25000000  1
  Ce  Ce0_7  1  0.75001600  0.74998400  0.75000000  1
  Se  Se0_0  1  0.26896700  0.29198250  0.40534850  1
  Se  Se0_1  1  0.26896700  0.29198250  0.90534850  1
  Se  Se0_2  1  0.26896700  0.79198250  0.40534850  1
  Se  Se0_3  1  0.26896700  0.79198250  0.90534850  1
  Se  Se0_4  1  0.76896700  0.29198250  0.40534850  1
  Se  Se0_5  1  0.76896700  0.29198250  0.90534850  1
  Se  Se0_6  1  0.76896700  0.79198250  0.40534850  1
  Se  Se0_7  1  0.76896700  0.79198250  0.90534850  1
  Se  Se1_0  1  0.20801750  0.23103300  0.09465150  1
  Se  Se1_1  1  0.20801750  0.23103300  0.59465150  1
  Se  Se1_2  1  0.20801750  0.73103300  0.09465150  1
  Se  Se1_3  1  0.20801750  0.73103300  0.59465150  1
  Se  Se1_4  1  0.70801750  0.23103300  0.09465150  1
  Se  Se1_5  1  0.70801750  0.23103300  0.59465150  1
  Se  Se1_6  1  0.70801750  0.73103300  0.09465150  1
  Se  Se1_7  1  0.70801750  0.73103300  0.59465150  1
loop_
_geom_bond_atom_site_label_1
_geom_bond_atom_site_label_2
_geom_bond_distance
_geom_bond_site_symmetry_2
Ce0_0 Ce0_6 2.889846 1_545
Ce0_0 Ce0_6 2.889846 1_455
Ce0_0 Ce0_2 2.890086 1_545
Ce0_0 Ce0_4 2.890086 1_455
Ce0_0 Ce0_4 2.890086 1_555
Ce0_0 Ce0_2 2.890086 1_555
Ce0_1 Ce0_7 2.889846 1_455
Ce0_1 Ce0_7 2.889846 1_545
Ce0_1 Ce0_5 2.890086 1_455
Ce0_1 Ce0_3 2.890086 1_555
Ce0_1 Ce0_5 2.890086 1_555
Ce0_1 Ce0_3 2.890086 1_545
Ce0_2 Ce0_4 2.889846 1_555
Ce0_2 Ce0_4 2.889846 1_465
Ce0_2 Ce0_6 2.890086 1_455
Ce0_2 Ce0_6 2.890086 1_555
Ce0_3 Ce0_5 2.889846 1_465
Ce0_3 Ce0_5 2.889846 1_555
Ce0_3 Ce0_7 2.890086 1_455
Ce0_3 Ce0_7 2.890086 1_555
Ce0_4 Ce0_6 2.890086 1_545
Ce0_4 Ce0_6 2.890086 1_555
Ce0_5 Ce0_7 2.890086 1_545
Ce0_5 Ce0_7 2.890086 1_555
Se0_0 Se0_6 2.889846 1_455
Se0_0 Se0_6 2.889846 1_545
Se0_0 Se0_2 2.890086 1_545
Se0_0 Se0_4 2.890086 1_455
Se0_0 Se0_4 2.890086 1_555
Se0_0 Se0_2 2.890086 1_555
Se0_1 Se0_7 2.889846 1_455
Se0_1 Se0_7 2.889846 1_545
Se0_1 Se0_3 2.890086 1_555
Se0_1 Se0_5 2.890086 1_555
Se0_1 Se0_5 2.890086 1_455
Se0_1 Se0_3 2.890086 1_545
Se0_2 Se0_4 2.889846 1_465
Se0_2 Se0_4 2.889846 1_555
Se0_2 Se0_6 2.890086 1_555
Se0_2 Se0_6 2.890086 1_455
Se0_3 Se0_5 2.889846 1_555
Se0_3 Se0_5 2.889846 1_465
Se0_3 Se0_7 2.890086 1_455
Se0_3 Se0_7 2.890086 1_555
Se0_4 Se0_6 2.890086 1_555
Se0_4 Se0_6 2.890086 1_545
Se0_5 Se0_7 2.890086 1_555
Se0_5 Se0_7 2.890086 1_545
Se1_0 Se1_6 2.889846 1_545
Se1_0 Se1_6 2.889846 1_455
Se1_0 Se1_2 2.890086 1_545
Se1_0 Se1_4 2.890086 1_455
Se1_0 Se1_4 2.890086 1_555
Se1_0 Se1_2 2.890086 1_555
Se1_1 Se1_7 2.889846 1_455
Se1_1 Se1_7 2.889846 1_545
Se1_1 Se1_5 2.890086 1_555
Se1_1 Se1_5 2.890086 1_455
Se1_1 Se1_3 2.890086 1_555
Se1_1 Se1_3 2.890086 1_545
Se1_2 Se1_4 2.889846 1_465
Se1_2 Se1_4 2.889846 1_555
Se1_2 Se1_6 2.890086 1_555
Se1_2 Se1_6 2.890086 1_455
Se1_3 Se1_5 2.889846 1_555
Se1_3 Se1_5 2.889846 1_465
Se1_3 Se1_7 2.890086 1_455
Se1_3 Se1_7 2.890086 1_555
Se1_4 Se1_6 2.890086 1_555
Se1_4 Se1_6 2.890086 1_545
Se1_5 Se1_7 2.890086 1_545
Se1_5 Se1_7 2.890086 1_555
