# generated using pymatgen
data_K4Na4MoW7O20
_symmetry_space_group_name_H-M   'P 1'
_cell_length_a   11.62594658
_cell_length_b   11.73969738
_cell_length_c   17.67499438
_cell_angle_alpha   110.20750080
_cell_angle_beta   109.17979058
_cell_angle_gamma   89.55593646
_symmetry_Int_Tables_number   1
_chemical_formula_structural   K4Na4MoW7O20
_chemical_formula_sum   'K16 Na16 Mo4 W28 O80'
_cell_volume   2122.95563782
_cell_formula_units_Z   4
loop_
 _symmetry_equiv_pos_site_id
 _symmetry_equiv_pos_as_xyz
  1  'x, y, z'
loop_
 _atom_site_type_symbol
 _atom_site_label
 _atom_site_symmetry_multiplicity
 _atom_site_fract_x
 _atom_site_fract_y
 _atom_site_fract_z
 _atom_site_occupancy
  K  K0  1  0.30408800  0.06347300  0.10867500  1
  K  K1  1  0.30187900  0.56246400  0.10767100  1
  K  K2  1  0.80473000  0.06369600  0.11140500  1
  K  K3  1  0.80160300  0.55926600  0.10818700  1
  K  K4  1  0.19945900  0.93418200  0.39210000  1
  K  K5  1  0.19268500  0.92795900  0.88287400  1
  K  K6  1  0.70411100  0.43817500  0.39615200  1
  K  K7  1  0.69017100  0.42703300  0.88308400  1
  K  K8  1  0.69989200  0.93332500  0.39408500  1
  K  K9  1  0.05750000  0.29602200  0.10975000  1
  K  K10  1  0.05454900  0.79496400  0.10619800  1
  K  K11  1  0.55818200  0.29667400  0.11046100  1
  K  K12  1  0.55038600  0.79688000  0.10512900  1
  K  K13  1  0.45196100  0.71006500  0.39367200  1
  K  K14  1  0.43721000  0.70518300  0.88216700  1
  K  K15  1  0.94413100  0.70174300  0.88259700  1
  Na  Na0  1  0.29946300  0.07056900  0.60243900  1
  Na  Na1  1  0.30029600  0.56426600  0.59973600  1
  Na  Na2  1  0.80301400  0.06681400  0.60176700  1
  Na  Na3  1  0.79892100  0.56941400  0.60161900  1
  Na  Na4  1  0.20631500  0.43821300  0.40486400  1
  Na  Na5  1  0.19923400  0.44085400  0.89770500  1
  Na  Na6  1  0.69834600  0.93769400  0.89638300  1
  Na  Na7  1  0.05215800  0.28451100  0.60306600  1
  Na  Na8  1  0.05143200  0.79035300  0.60189300  1
  Na  Na9  1  0.55150800  0.28880800  0.60332600  1
  Na  Na10  1  0.55341300  0.78913800  0.60172600  1
  Na  Na11  1  0.45465200  0.21530800  0.40790200  1
  Na  Na12  1  0.44625400  0.21225100  0.89576800  1
  Na  Na13  1  0.95289600  0.21223400  0.40468400  1
  Na  Na14  1  0.94491000  0.20698700  0.89543700  1
  Na  Na15  1  0.94752200  0.71044000  0.40117700  1
  Mo  Mo0  1  0.00559300  0.99892600  0.99676400  1
  Mo  Mo1  1  0.00248000  0.49505300  0.99492300  1
  Mo  Mo2  1  0.50404600  0.99814800  0.99528500  1
  Mo  Mo3  1  0.25092900  0.74527400  0.99321800  1
  W  W0  1  0.01462600  0.00165100  0.50374100  1
  W  W1  1  0.01492800  0.50336500  0.50540300  1
  W  W2  1  0.51366300  0.00648200  0.50613900  1
  W  W3  1  0.50332600  0.49692700  0.99464300  1
  W  W4  1  0.51500900  0.50266900  0.50623200  1
  W  W5  1  0.25333000  0.24805900  0.99374400  1
  W  W6  1  0.26466700  0.25473200  0.50519800  1
  W  W7  1  0.26309300  0.74949300  0.50319800  1
  W  W8  1  0.75569000  0.24478800  0.99522100  1
  W  W9  1  0.76883200  0.25360400  0.50759500  1
  W  W10  1  0.75315300  0.74752600  0.99312300  1
  W  W11  1  0.76536100  0.75412900  0.50694700  1
  W  W12  1  0.09442800  0.11748500  0.25545800  1
  W  W13  1  0.08552500  0.09886100  0.74571400  1
  W  W14  1  0.09556000  0.59163100  0.25451100  1
  W  W15  1  0.08805100  0.58221800  0.73719200  1
  W  W16  1  0.60038500  0.10181500  0.25831100  1
  W  W17  1  0.58469800  0.09036800  0.74566900  1
  W  W18  1  0.60514200  0.58933000  0.24945000  1
  W  W19  1  0.58595900  0.58921200  0.74087300  1
  W  W20  1  0.35061300  0.40049700  0.25761400  1
  W  W21  1  0.33698000  0.40074100  0.74843100  1
  W  W22  1  0.34675900  0.91517000  0.25161800  1
  W  W23  1  0.34011600  0.90997900  0.74076800  1
  W  W24  1  0.86902900  0.38937100  0.25638700  1
  W  W25  1  0.84528000  0.40022700  0.74562000  1
  W  W26  1  0.85335600  0.90389700  0.25201500  1
  W  W27  1  0.83600700  0.91356200  0.74859500  1
  O  O0  1  0.12991300  0.12390700  0.49080400  1
  O  O1  1  0.12256200  0.12272600  0.98333000  1
  O  O2  1  0.12725300  0.61456500  0.48280400  1
  O  O3  1  0.12454000  0.61570300  0.98280300  1
  O  O4  1  0.63358900  0.12702800  0.49666100  1
  O  O5  1  0.63285700  0.12540300  0.98580700  1
  O  O6  1  0.63255700  0.62406300  0.49546600  1
  O  O7  1  0.62207200  0.61837700  0.98556700  1
  O  O8  1  0.13670300  0.36748000  0.99870300  1
  O  O9  1  0.14831300  0.38855200  0.52284900  1
  O  O10  1  0.12956900  0.87561400  0.00195700  1
  O  O11  1  0.14609100  0.88272500  0.52066100  1
  O  O12  1  0.62947700  0.37101100  0.00003400  1
  O  O13  1  0.64867500  0.38693000  0.52471700  1
  O  O14  1  0.63876000  0.86814900  0.99996000  1
  O  O15  1  0.64843700  0.88956600  0.52587800  1
  O  O16  1  0.38249800  0.12360500  0.48973000  1
  O  O17  1  0.37009800  0.13009400  0.98876000  1
  O  O18  1  0.38026100  0.61681900  0.49196500  1
  O  O19  1  0.37031400  0.61252300  0.98348000  1
  O  O20  1  0.88334600  0.11986200  0.48829700  1
  O  O21  1  0.87461700  0.11563800  0.98606600  1
  O  O22  1  0.88531800  0.62386900  0.49414000  1
  O  O23  1  0.86554300  0.62393800  0.98885600  1
  O  O24  1  0.38097400  0.37707300  0.00149900  1
  O  O25  1  0.39856100  0.38755300  0.52252700  1
  O  O26  1  0.37747600  0.87391800  0.00317200  1
  O  O27  1  0.39826200  0.89097700  0.52579700  1
  O  O28  1  0.87450200  0.36420900  0.99874100  1
  O  O29  1  0.90127400  0.38908200  0.52599200  1
  O  O30  1  0.87682200  0.87547900  0.00094500  1
  O  O31  1  0.89771600  0.88760300  0.52229100  1
  O  O32  1  0.07075700  0.08153200  0.13288300  1
  O  O33  1  0.08666100  0.11070800  0.63928500  1
  O  O34  1  0.06982400  0.58180600  0.13903700  1
  O  O35  1  0.09526000  0.61684000  0.64071000  1
  O  O36  1  0.57405600  0.08389000  0.13845100  1
  O  O37  1  0.58242700  0.11339700  0.64308600  1
  O  O38  1  0.57438900  0.58944800  0.13510900  1
  O  O39  1  0.58758200  0.61715200  0.64062900  1
  O  O40  1  0.44670300  0.39236000  0.36711000  1
  O  O41  1  0.43778400  0.39408200  0.85665500  1
  O  O42  1  0.44907800  0.91652600  0.36611300  1
  O  O43  1  0.44758600  0.91665100  0.85391300  1
  O  O44  1  0.94310000  0.39156100  0.37060800  1
  O  O45  1  0.93523100  0.39256800  0.85586900  1
  O  O46  1  0.94476800  0.89360100  0.36485900  1
  O  O47  1  0.94200300  0.91099300  0.85841200  1
  O  O48  1  0.31865600  0.30732000  0.13269200  1
  O  O49  1  0.33992400  0.28318200  0.63973700  1
  O  O50  1  0.32176100  0.80119900  0.13845000  1
  O  O51  1  0.33641500  0.77756200  0.63881000  1
  O  O52  1  0.82417800  0.30853400  0.12761100  1
  O  O53  1  0.85264200  0.27758800  0.64077000  1
  O  O54  1  0.82509900  0.80211000  0.13142200  1
  O  O55  1  0.83934300  0.78883900  0.64315400  1
  O  O56  1  0.20345900  0.22439900  0.36880800  1
  O  O57  1  0.19722800  0.20156500  0.86066500  1
  O  O58  1  0.20395500  0.70277100  0.36720300  1
  O  O59  1  0.18637600  0.68940300  0.85352100  1
  O  O60  1  0.70716000  0.20984700  0.37040300  1
  O  O61  1  0.70267500  0.18842800  0.85934700  1
  O  O62  1  0.70060700  0.69920300  0.36800800  1
  O  O63  1  0.68933800  0.69344300  0.85937000  1
  O  O64  1  0.44636400  0.07636300  0.27276800  1
  O  O65  1  0.41891900  0.07274800  0.75012600  1
  O  O66  1  0.44634800  0.53812700  0.24830000  1
  O  O67  1  0.41864000  0.53999100  0.72937700  1
  O  O68  1  0.94633400  0.06355900  0.26943100  1
  O  O69  1  0.92092900  0.06540600  0.74672000  1
  O  O70  1  0.93579700  0.55672300  0.25836900  1
  O  O71  1  0.91783000  0.54228800  0.72696600  1
  O  O72  1  0.19774900  0.45057200  0.27159500  1
  O  O73  1  0.17151900  0.43061500  0.75093000  1
  O  O74  1  0.18704000  0.96237900  0.25101000  1
  O  O75  1  0.17151600  0.94505400  0.73434800  1
  O  O76  1  0.70913600  0.45090400  0.25664800  1
  O  O77  1  0.67721800  0.43934100  0.73684500  1
  O  O78  1  0.69365000  0.95220700  0.24999400  1
  O  O79  1  0.66855100  0.93702200  0.75030800  1
loop_
_geom_bond_atom_site_label_1
_geom_bond_atom_site_label_2
_geom_bond_distance
_geom_bond_site_symmetry_2
K0 O10 2.686859 1_545
K0 O26 2.703062 1_545
K0 O48 2.743107 1_555
K0 O64 2.778371 1_555
K0 O1 2.795672 1_554
K0 O17 2.813569 1_554
K0 O32 2.877118 1_555
K0 O36 3.004098 1_555
K1 O66 2.611700 1_555
K1 O50 2.660539 1_555
K1 O8 2.688702 1_554
K1 O24 2.717586 1_555
K1 O3 2.730482 1_554
K1 O19 2.800482 1_554
K1 O34 2.919530 1_555
K1 O38 3.045130 1_555
K1 O48 3.170951 1_555
K2 O14 2.705666 1_544
K2 O30 2.731820 1_545
K2 O68 2.737409 1_555
K2 O5 2.760360 1_554
K2 O52 2.791709 1_555
K2 O21 2.839629 1_554
K2 O36 2.868973 1_555
K2 O32 2.989502 1_655
K2 O54 3.208770 1_545
K3 O70 2.610363 1_555
K3 O12 2.679457 1_555
K3 O54 2.738705 1_555
K3 O7 2.753088 1_554
K3 O28 2.773271 1_554
K3 O23 2.779005 1_554
K3 O38 2.832816 1_555
K3 O34 2.981133 1_655
K3 O52 3.078638 1_555
K4 O74 2.585005 1_555
K4 O58 2.600736 1_555
K4 O0 2.621592 1_565
K4 O16 2.731446 1_565
K4 O11 2.791737 1_555
K4 O46 2.855360 1_455
K4 O27 2.899067 1_555
K4 O42 3.078414 1_555
K5 O75 2.632714 1_555
K5 O59 2.663113 1_555
K5 O1 2.676354 1_565
K5 O10 2.694730 1_556
K5 O26 2.729158 1_556
K5 O47 2.800351 1_455
K5 O17 2.803460 1_565
K5 O43 3.163143 1_555
K6 O76 2.540653 1_555
K6 O60 2.561215 1_555
K6 O6 2.611630 1_555
K6 O22 2.693618 1_555
K6 O13 2.802459 1_555
K6 O29 2.879209 1_555
K6 O40 2.886756 1_555
K6 O44 2.975437 1_555
K6 O62 3.267635 1_555
K7 O77 2.593555 1_555
K7 O7 2.656618 1_555
K7 O12 2.666100 1_556
K7 O61 2.695453 1_555
K7 O28 2.730197 1_555
K7 O23 2.752920 1_555
K7 O41 2.823072 1_555
K7 O45 3.043085 1_555
K7 O63 3.295448 1_555
K8 O78 2.609398 1_555
K8 O62 2.625617 1_555
K8 O4 2.663696 1_565
K8 O20 2.708688 1_565
K8 O42 2.789334 1_555
K8 O15 2.791981 1_555
K8 O31 2.847684 1_555
K8 O46 3.060809 1_555
K9 O32 2.682414 1_555
K9 O28 2.707903 1_454
K9 O72 2.743926 1_555
K9 O21 2.757119 1_454
K9 O1 2.765895 1_554
K9 O8 2.782275 1_554
K9 O52 2.829106 1_455
K9 O48 2.925845 1_555
K9 O34 3.209915 1_555
K10 O74 2.601503 1_555
K10 O30 2.698613 1_455
K10 O10 2.706587 1_555
K10 O23 2.712620 1_454
K10 O34 2.749419 1_555
K10 O3 2.795782 1_554
K10 O54 2.841460 1_455
K10 O50 2.965184 1_555
K10 O32 3.229734 1_565
K11 O76 2.621505 1_555
K11 O17 2.702309 1_554
K11 O36 2.702876 1_555
K11 O24 2.731851 1_555
K11 O12 2.740268 1_555
K11 O5 2.796460 1_554
K11 O48 2.933310 1_555
K11 O52 3.006016 1_555
K12 O78 2.583544 1_555
K12 O26 2.612277 1_555
K12 O38 2.659431 1_555
K12 O14 2.748396 1_554
K12 O19 2.754587 1_554
K12 O7 2.760915 1_554
K12 O50 2.901752 1_555
K12 O54 3.070532 1_555
K12 O36 3.211302 1_565
K13 O42 2.629981 1_555
K13 O66 2.643773 1_555
K13 O18 2.681614 1_555
K13 O6 2.721172 1_555
K13 O58 2.762149 1_555
K13 O27 2.804479 1_555
K13 O15 2.878241 1_555
K13 O62 3.065021 1_555
K14 O26 2.647317 1_556
K14 O67 2.665682 1_555
K14 O19 2.696056 1_555
K14 O43 2.706992 1_555
K14 O14 2.756399 1_555
K14 O7 2.769388 1_555
K14 O59 2.787150 1_555
K14 O63 3.082998 1_555
K15 O47 2.633524 1_555
K15 O71 2.657689 1_555
K15 O30 2.692833 1_556
K15 O3 2.705288 1_655
K15 O10 2.714749 1_656
K15 O23 2.742632 1_555
K15 O63 2.851404 1_555
K15 O59 3.018287 1_655
Na0 O49 2.358734 1_555
Na0 O11 2.509411 1_545
Na0 O65 2.513124 1_555
Na0 O0 2.539638 1_555
Na0 O27 2.571253 1_545
Na0 O16 2.723600 1_555
Na0 O33 2.756007 1_555
Na1 O51 2.356798 1_555
Na1 O67 2.366069 1_555
Na1 O9 2.401300 1_555
Na1 O25 2.550110 1_555
Na1 O2 2.600039 1_555
Na1 O18 2.618729 1_555
Na1 O35 2.718520 1_555
Na2 O53 2.348029 1_555
Na2 O15 2.429924 1_545
Na2 O69 2.482894 1_555
Na2 O4 2.512374 1_555
Na2 O31 2.559379 1_545
Na2 O20 2.717547 1_555
Na2 O37 2.888292 1_555
Na3 O71 2.321450 1_555
Na3 O55 2.425099 1_555
Na3 O13 2.444268 1_555
Na3 O6 2.469965 1_555
Na3 O29 2.595330 1_555
Na3 O22 2.670045 1_555
Na3 O39 2.766093 1_555
Na4 O56 2.364354 1_555
Na4 O72 2.379334 1_555
Na4 O2 2.420958 1_555
Na4 O18 2.578029 1_555
Na4 O9 2.629343 1_555
Na4 O25 2.730189 1_555
Na4 O44 2.934343 1_455
Na5 O3 2.434660 1_555
Na5 O73 2.466641 1_555
Na5 O19 2.507203 1_555
Na5 O8 2.526251 1_555
Na5 O24 2.601561 1_556
Na5 O57 2.653505 1_555
Na5 O45 2.921430 1_455
Na6 O79 2.486856 1_555
Na6 O5 2.508473 1_565
Na6 O14 2.524414 1_555
Na6 O30 2.577560 1_556
Na6 O21 2.592412 1_565
Na6 O63 2.706440 1_555
Na6 O43 2.751135 1_555
Na7 O33 2.335572 1_555
Na7 O29 2.447815 1_455
Na7 O73 2.501011 1_555
Na7 O20 2.537136 1_455
Na7 O0 2.622375 1_555
Na7 O53 2.624332 1_455
Na7 O9 2.647784 1_555
Na8 O35 2.366301 1_555
Na8 O75 2.383851 1_555
Na8 O31 2.429541 1_455
Na8 O22 2.499411 1_455
Na8 O11 2.565318 1_555
Na8 O2 2.767037 1_555
Na8 O55 2.793424 1_455
Na9 O37 2.384531 1_555
Na9 O77 2.391853 1_555
Na9 O25 2.447117 1_555
Na9 O16 2.535790 1_555
Na9 O13 2.586637 1_555
Na9 O4 2.598557 1_555
Na9 O49 2.746187 1_555
Na10 O39 2.339751 1_555
Na10 O27 2.443049 1_555
Na10 O79 2.505823 1_555
Na10 O15 2.548134 1_555
Na10 O18 2.587324 1_555
Na10 O6 2.592878 1_555
Na10 O51 2.822415 1_555
Na11 O64 2.352567 1_555
Na11 O40 2.416040 1_555
Na11 O16 2.416888 1_555
Na11 O25 2.576092 1_555
Na11 O4 2.609283 1_555
Na11 O13 2.747173 1_555
Na11 O56 2.781643 1_555
Na12 O65 2.442906 1_555
Na12 O41 2.452717 1_555
Na12 O24 2.494695 1_556
Na12 O17 2.545645 1_555
Na12 O12 2.552792 1_556
Na12 O5 2.663977 1_555
Na12 O57 2.748497 1_555
Na13 O44 2.373808 1_555
Na13 O68 2.401426 1_555
Na13 O20 2.433058 1_555
Na13 O0 2.574210 1_655
Na13 O29 2.649286 1_555
Na13 O60 2.716978 1_555
Na13 O9 2.788675 1_655
Na14 O28 2.457866 1_555
Na14 O45 2.499093 1_555
Na14 O69 2.501424 1_555
Na14 O21 2.538583 1_555
Na14 O1 2.565031 1_655
Na14 O8 2.620782 1_655
Na14 O61 2.668059 1_555
Na15 O46 2.444519 1_555
Na15 O22 2.490294 1_555
Na15 O70 2.505453 1_555
Na15 O2 2.611344 1_655
Na15 O31 2.638853 1_555
Na15 O62 2.729140 1_555
Na15 O11 2.792542 1_655
Mo0 O10 2.038157 1_556
Mo0 O21 2.046762 1_465
Mo0 O1 2.121119 1_565
Mo0 O32 2.122421 1_566
Mo0 O30 2.127746 1_456
Mo0 O47 2.161495 1_455
Mo1 O3 2.122809 1_555
Mo1 O8 2.155675 1_555
Mo1 O28 2.179637 1_455
Mo1 O23 2.190433 1_455
Mo1 O45 2.192854 1_455
Mo1 O34 2.246844 1_556
Mo2 O26 2.149473 1_556
Mo2 O14 2.180346 1_555
Mo2 O17 2.192221 1_565
Mo2 O43 2.206904 1_555
Mo2 O5 2.207935 1_565
Mo2 O36 2.231289 1_566
Mo3 O26 2.038897 1_556
Mo3 O3 2.042128 1_555
Mo3 O10 2.074219 1_556
Mo3 O19 2.079179 1_555
Mo3 O59 2.182045 1_555
Mo3 O50 2.270169 1_556
O0 W0 2.089642 1_555
O0 W6 2.093653 1_555
O1 W5 2.042996 1_555
O2 W1 2.073282 1_555
O2 W7 2.098427 1_555
O4 W2 2.079077 1_555
O4 W9 2.087059 1_555
O5 W8 1.935232 1_555
O6 W4 2.079236 1_555
O6 W11 2.091214 1_555
O7 W3 2.073286 1_555
O7 W10 2.097904 1_555
O8 W5 1.943035 1_555
O9 W1 2.063281 1_555
O9 W6 2.073890 1_555
O11 W7 2.073974 1_555
O11 W0 2.080804 1_565
O12 W3 2.077755 1_554
O12 W8 2.077826 1_554
O13 W4 2.075613 1_555
O13 W9 2.099892 1_555
O14 W10 1.935658 1_555
O15 W11 2.094203 1_555
O15 W2 2.097386 1_565
O16 W6 2.060034 1_555
O16 W2 2.062154 1_555
O17 W5 1.932279 1_555
O18 W7 2.062069 1_555
O18 W4 2.062745 1_555
O19 W3 2.055198 1_555
O20 W9 2.061548 1_555
O20 W0 2.070017 1_655
O21 W8 2.044921 1_555
O22 W11 2.066376 1_555
O22 W1 2.067832 1_655
O23 W10 1.943666 1_555
O24 W5 2.067057 1_554
O24 W3 2.068801 1_554
O25 W4 2.072580 1_555
O25 W6 2.083917 1_555
O27 W2 2.102248 1_565
O27 W7 2.134850 1_555
O28 W8 1.946964 1_555
O29 W9 2.087559 1_555
O29 W1 2.087846 1_655
O30 W10 2.025360 1_554
O31 W11 2.089548 1_555
O31 W0 2.090887 1_665
O32 W12 1.981407 1_555
O33 W13 1.937852 1_555
O33 W0 2.158564 1_555
O34 W14 1.924880 1_555
O35 W15 1.911445 1_555
O35 W1 2.171893 1_555
O36 W16 1.973080 1_555
O37 W17 1.915306 1_555
O37 W2 2.172260 1_555
O38 W18 1.933735 1_555
O38 W3 2.197608 1_554
O39 W19 1.915939 1_555
O39 W4 2.157800 1_555
O40 W20 1.925649 1_555
O40 W4 2.210701 1_555
O41 W21 1.915069 1_555
O41 W3 2.178440 1_555
O42 W22 1.976596 1_555
O42 W2 2.188618 1_565
O43 W23 1.953993 1_555
O44 W24 1.907922 1_555
O44 W1 2.155408 1_655
O45 W25 1.918213 1_555
O46 W26 1.973306 1_555
O46 W0 2.202104 1_665
O47 W27 1.937843 1_555
O48 W20 2.002136 1_555
O48 W5 2.166690 1_554
O49 W21 1.951284 1_555
O49 W6 2.149558 1_555
O50 W22 1.910708 1_555
O51 W23 1.918530 1_555
O51 W7 2.167190 1_555
O52 W24 2.022075 1_555
O52 W8 2.060297 1_554
O53 W25 1.942590 1_555
O53 W9 2.146799 1_555
O54 W26 1.966073 1_555
O54 W10 2.160611 1_554
O55 W27 1.944253 1_555
O55 W11 2.160747 1_555
O56 W12 1.953151 1_555
O56 W6 2.174473 1_555
O57 W13 1.966338 1_555
O57 W5 2.089630 1_555
O58 W14 1.959247 1_555
O58 W7 2.135534 1_555
O59 W15 1.951475 1_555
O60 W16 1.935778 1_555
O60 W9 2.158872 1_555
O61 W17 1.964525 1_555
O61 W8 2.126310 1_555
O62 W18 1.978249 1_555
O62 W11 2.170724 1_555
O63 W19 1.981600 1_555
O63 W10 2.088142 1_555
O64 W16 1.929418 1_555
O64 W22 2.079074 1_545
O65 W17 1.969981 1_555
O65 W23 2.056042 1_545
O66 W18 1.937536 1_555
O66 W20 2.051467 1_555
O67 W19 1.958507 1_555
O67 W21 2.074038 1_555
O68 W12 1.957154 1_655
O68 W26 2.047120 1_545
O69 W13 1.963468 1_655
O69 W27 2.059884 1_545
O70 W14 1.933091 1_655
O70 W24 2.102831 1_555
O71 W15 1.972205 1_655
O71 W25 2.045959 1_555
O72 W20 1.933148 1_555
O72 W14 2.079463 1_555
O73 W21 1.964692 1_555
O73 W15 2.070068 1_555
O74 W22 1.931410 1_555
O74 W12 2.099397 1_565
O75 W23 1.974381 1_555
O75 W13 2.038029 1_565
O76 W24 1.989952 1_555
O76 W18 2.032271 1_555
O77 W25 1.971986 1_555
O77 W19 2.039735 1_555
O78 W26 1.929892 1_555
O78 W16 2.044242 1_565
O79 W27 1.972712 1_555
O79 W17 2.054311 1_565
