# generated using pymatgen
data_Tb2Pr
_symmetry_space_group_name_H-M   'P 1'
_cell_length_a   17.95026799
_cell_length_b   17.95026799
_cell_length_c   17.95026770
_cell_angle_alpha   23.50899625
_cell_angle_beta   23.50899625
_cell_angle_gamma   23.50899501
_symmetry_Int_Tables_number   1
_chemical_formula_structural   Tb2Pr
_chemical_formula_sum   'Tb16 Pr8'
_cell_volume   808.17188248
_cell_formula_units_Z   8
loop_
 _symmetry_equiv_pos_site_id
 _symmetry_equiv_pos_as_xyz
  1  'x, y, z'
loop_
 _atom_site_type_symbol
 _atom_site_label
 _atom_site_symmetry_multiplicity
 _atom_site_fract_x
 _atom_site_fract_y
 _atom_site_fract_z
 _atom_site_occupancy
  Tb  Tb0_0  1  0.11187992  0.11187992  0.11187991  1
  Tb  Tb0_1  1  0.11187992  0.11187992  0.61187991  1
  Tb  Tb0_2  1  0.11187992  0.61187991  0.11187991  1
  Tb  Tb0_3  1  0.11187992  0.61187992  0.61187992  1
  Tb  Tb0_4  1  0.61187992  0.11187992  0.11187991  1
  Tb  Tb0_5  1  0.61187992  0.11187992  0.61187992  1
  Tb  Tb0_6  1  0.61187992  0.61187992  0.11187991  1
  Tb  Tb0_7  1  0.61187992  0.61187992  0.61187992  1
  Tb  Tb1_0  1  0.49899466  0.49899466  0.49899466  1
  Tb  Tb1_1  1  0.49899466  0.49899466  0.99899466  1
  Tb  Tb1_2  1  0.49899466  0.99899465  0.49899466  1
  Tb  Tb1_3  1  0.49899466  0.99899466  0.99899466  1
  Tb  Tb1_4  1  0.99899466  0.49899466  0.49899466  1
  Tb  Tb1_5  1  0.99899465  0.49899466  0.99899466  1
  Tb  Tb1_6  1  0.99899466  0.99899466  0.49899466  1
  Tb  Tb1_7  1  0.99899466  0.99899466  0.99899466  1
  Pr  Pr0_0  1  0.38912593  0.38912593  0.38912593  1
  Pr  Pr0_1  1  0.38912593  0.38912593  0.88912593  1
  Pr  Pr0_2  1  0.38912593  0.88912593  0.38912593  1
  Pr  Pr0_3  1  0.38912593  0.88912593  0.88912593  1
  Pr  Pr0_4  1  0.88912593  0.38912593  0.38912593  1
  Pr  Pr0_5  1  0.88912593  0.38912593  0.88912593  1
  Pr  Pr0_6  1  0.88912593  0.88912593  0.38912593  1
  Pr  Pr0_7  1  0.88912593  0.88912593  0.88912593  1
loop_
_geom_bond_atom_site_label_1
_geom_bond_atom_site_label_2
_geom_bond_distance
_geom_bond_site_symmetry_2
Tb0_0 Tb1_6 3.518675 1_445
Tb0_0 Tb1_5 3.518675 1_454
Tb0_0 Tb1_3 3.518675 1_544
Tb0_0 Tb0_6 3.656803 1_455
Tb0_0 Tb0_6 3.656804 1_545
Tb0_0 Tb0_3 3.656804 1_545
Tb0_0 Tb0_5 3.656804 1_554
Tb0_0 Tb0_3 3.656804 1_554
Tb0_0 Tb0_5 3.656804 1_455
Tb0_1 Tb1_7 3.518675 1_445
Tb0_1 Tb1_2 3.518675 1_545
Tb0_1 Tb1_4 3.518675 1_455
Tb0_1 Tb0_7 3.656804 1_455
Tb0_1 Tb0_7 3.656804 1_545
Tb0_1 Tb0_2 3.656804 1_555
Tb0_1 Tb0_4 3.656804 1_555
Tb0_1 Tb0_4 3.656804 1_456
Tb0_1 Tb0_2 3.656804 1_546
Tb0_2 Tb1_4 3.518675 1_455
Tb0_2 Tb1_1 3.518675 1_554
Tb0_2 Tb1_7 3.518675 1_454
Tb0_2 Tb0_4 3.656803 1_555
Tb0_2 Tb0_4 3.656804 1_465
Tb0_2 Tb0_7 3.656804 1_554
Tb0_2 Tb0_7 3.656804 1_455
Tb0_3 Tb1_5 3.518675 1_455
Tb0_3 Tb1_0 3.518675 1_555
Tb0_3 Tb1_6 3.518675 1_455
Tb0_3 Tb0_5 3.656804 1_465
Tb0_3 Tb0_5 3.656804 1_555
Tb0_3 Tb0_6 3.656804 1_456
Tb0_3 Tb0_6 3.656804 1_555
Tb0_4 Tb1_2 3.518675 1_545
Tb0_4 Tb1_1 3.518675 1_554
Tb0_4 Tb1_7 3.518675 1_544
Tb0_4 Tb0_7 3.656804 1_554
Tb0_4 Tb0_7 3.656804 1_545
Tb0_5 Tb1_3 3.518675 1_545
Tb0_5 Tb1_0 3.518675 1_555
Tb0_5 Tb1_6 3.518675 1_545
Tb0_5 Tb0_6 3.656804 1_546
Tb0_5 Tb0_6 3.656804 1_555
Tb0_6 Tb1_0 3.518675 1_555
Tb0_6 Tb1_5 3.518675 1_554
Tb0_6 Tb1_3 3.518675 1_554
Tb0_7 Tb1_1 3.518675 1_555
Tb0_7 Tb1_2 3.518675 1_555
Tb0_7 Tb1_4 3.518675 1_555
Tb1_0 Tb1_6 3.656803 1_545
Tb1_0 Tb1_6 3.656804 1_455
Tb1_0 Tb1_5 3.656804 1_554
Tb1_0 Tb1_3 3.656804 1_545
Tb1_0 Tb1_3 3.656804 1_554
Tb1_0 Tb1_5 3.656804 1_455
Tb1_1 Tb1_7 3.656803 1_455
Tb1_1 Tb1_7 3.656804 1_545
Tb1_1 Tb1_4 3.656804 1_456
Tb1_1 Tb1_2 3.656804 1_555
Tb1_1 Tb1_2 3.656804 1_546
Tb1_1 Tb1_4 3.656804 1_555
Tb1_2 Tb1_4 3.656803 1_555
Tb1_2 Tb1_4 3.656804 1_465
Tb1_2 Tb1_7 3.656804 1_455
Tb1_2 Tb1_7 3.656804 1_554
Tb1_3 Tb1_5 3.656803 1_555
Tb1_3 Tb1_5 3.656804 1_465
Tb1_3 Tb1_6 3.656804 1_555
Tb1_3 Tb1_6 3.656804 1_456
Tb1_4 Tb1_7 3.656804 1_554
Tb1_4 Tb1_7 3.656804 1_545
Tb1_5 Tb1_6 3.656804 1_546
Tb1_5 Tb1_6 3.656804 1_555
Pr0_0 Tb0_3 3.615952 1_555
Pr0_0 Tb0_5 3.615952 1_555
Pr0_0 Tb0_6 3.615952 1_555
Pr0_0 Tb1_1 3.646212 1_554
Pr0_0 Tb1_4 3.646212 1_455
Pr0_0 Tb1_2 3.646212 1_545
Pr0_0 Pr0_6 3.656803 1_545
Pr0_0 Pr0_6 3.656804 1_455
Pr0_0 Pr0_5 3.656804 1_554
Pr0_0 Pr0_3 3.656804 1_554
Pr0_0 Pr0_3 3.656804 1_545
Pr0_0 Pr0_5 3.656804 1_455
Pr0_1 Tb0_2 3.615952 1_556
Pr0_1 Tb0_4 3.615952 1_556
Pr0_1 Tb0_7 3.615952 1_555
Pr0_1 Tb1_0 3.646212 1_555
Pr0_1 Tb1_3 3.646212 1_545
Pr0_1 Tb1_5 3.646212 1_455
Pr0_1 Pr0_7 3.656804 1_455
Pr0_1 Pr0_7 3.656804 1_545
Pr0_1 Pr0_2 3.656804 1_555
Pr0_1 Pr0_4 3.656804 1_555
Pr0_1 Pr0_4 3.656804 1_456
Pr0_1 Pr0_2 3.656804 1_546
Pr0_2 Tb0_1 3.615952 1_565
Pr0_2 Tb0_7 3.615952 1_555
Pr0_2 Tb0_4 3.615952 1_565
Pr0_2 Tb1_3 3.646212 1_554
Pr0_2 Tb1_6 3.646212 1_455
Pr0_2 Tb1_0 3.646212 1_555
Pr0_2 Pr0_4 3.656803 1_555
Pr0_2 Pr0_4 3.656804 1_465
Pr0_2 Pr0_7 3.656804 1_554
Pr0_2 Pr0_7 3.656804 1_455
Pr0_3 Tb0_0 3.615952 1_566
Pr0_3 Tb0_6 3.615952 1_556
Pr0_3 Tb0_5 3.615952 1_565
Pr0_3 Tb1_2 3.646212 1_555
Pr0_3 Tb1_7 3.646212 1_455
Pr0_3 Tb1_1 3.646212 1_555
Pr0_3 Pr0_5 3.656803 1_555
Pr0_3 Pr0_5 3.656804 1_465
Pr0_3 Pr0_6 3.656804 1_456
Pr0_3 Pr0_6 3.656804 1_555
Pr0_4 Tb0_1 3.615952 1_655
Pr0_4 Tb0_7 3.615952 1_555
Pr0_4 Tb0_2 3.615952 1_655
Pr0_4 Tb1_5 3.646212 1_554
Pr0_4 Tb1_6 3.646212 1_545
Pr0_4 Tb1_0 3.646212 1_555
Pr0_4 Pr0_7 3.656804 1_554
Pr0_4 Pr0_7 3.656804 1_545
Pr0_5 Tb0_0 3.615952 1_656
Pr0_5 Tb0_6 3.615952 1_556
Pr0_5 Tb0_3 3.615952 1_655
Pr0_5 Tb1_4 3.646212 1_555
Pr0_5 Tb1_7 3.646212 1_545
Pr0_5 Tb1_1 3.646212 1_555
Pr0_5 Pr0_6 3.656804 1_546
Pr0_5 Pr0_6 3.656804 1_555
Pr0_6 Tb0_5 3.615952 1_565
Pr0_6 Tb0_3 3.615952 1_655
Pr0_6 Tb0_0 3.615952 1_665
Pr0_6 Tb1_7 3.646212 1_554
Pr0_6 Tb1_4 3.646212 1_555
Pr0_6 Tb1_2 3.646212 1_555
Pr0_7 Tb0_2 3.615952 1_656
Pr0_7 Tb0_4 3.615952 1_566
Pr0_7 Tb0_1 3.615952 1_665
Pr0_7 Tb1_6 3.646212 1_555
Pr0_7 Tb1_3 3.646212 1_555
Pr0_7 Tb1_5 3.646212 1_555
