# generated using pymatgen
data_Pr5Co19
_symmetry_space_group_name_H-M   'P 1'
_cell_length_a   5.06616784
_cell_length_b   5.06616800
_cell_length_c   16.41044376
_cell_angle_alpha   81.12043318
_cell_angle_beta   81.12043226
_cell_angle_gamma   59.99999894
_symmetry_Int_Tables_number   1
_chemical_formula_structural   Pr5Co19
_chemical_formula_sum   'Pr5 Co19'
_cell_volume   358.92169259
_cell_formula_units_Z   1
loop_
 _symmetry_equiv_pos_site_id
 _symmetry_equiv_pos_as_xyz
  1  'x, y, z'
loop_
 _atom_site_type_symbol
 _atom_site_label
 _atom_site_symmetry_multiplicity
 _atom_site_fract_x
 _atom_site_fract_y
 _atom_site_fract_z
 _atom_site_occupancy
  Pr  Pr0  1  0.00000000  0.00000000  0.00000000  1
  Pr  Pr1  1  0.92056800  0.92056800  0.23829600  1
  Pr  Pr2  1  0.07943200  0.07943200  0.76170400  1
  Pr  Pr3  1  0.84711000  0.84711000  0.45867000  1
  Pr  Pr4  1  0.15289000  0.15289000  0.54133000  1
  Co  Co0  1  0.50000000  0.50000000  0.50000000  1
  Co  Co1  1  0.74907000  0.74907000  0.75278900  1
  Co  Co2  1  0.25093000  0.25093000  0.24721100  1
  Co  Co3  1  0.66646300  0.66646300  0.00061100  1
  Co  Co4  1  0.33353700  0.33353700  0.99938900  1
  Co  Co5  1  0.58523300  0.58523300  0.24430000  1
  Co  Co6  1  0.41476700  0.41476700  0.75570000  1
  Co  Co7  1  0.38103800  0.38103800  0.36566000  1
  Co  Co8  1  0.87226300  0.38103800  0.36566000  1
  Co  Co9  1  0.38103800  0.87226300  0.36566000  1
  Co  Co10  1  0.61896200  0.61896200  0.63434000  1
  Co  Co11  1  0.12773700  0.61896200  0.63434000  1
  Co  Co12  1  0.61896200  0.12773700  0.63434000  1
  Co  Co13  1  0.45920000  0.45920000  0.12221600  1
  Co  Co14  1  0.95938400  0.45920000  0.12221600  1
  Co  Co15  1  0.45920000  0.95938400  0.12221600  1
  Co  Co16  1  0.54080000  0.54080000  0.87778400  1
  Co  Co17  1  0.04061600  0.54080000  0.87778400  1
  Co  Co18  1  0.54080000  0.04061600  0.87778400  1
loop_
_geom_bond_atom_site_label_1
_geom_bond_atom_site_label_2
_geom_bond_distance
_geom_bond_site_symmetry_2
Co0 Co11 2.601958 1_555
Co0 Co8 2.601958 1_555
Co0 Co9 2.601958 1_555
Co0 Co12 2.601958 1_555
Co0 Co10 2.601961 1_555
Co0 Co7 2.601961 1_555
Co0 Pr4 3.000125 1_655
Co0 Pr3 3.000125 1_455
Co0 Pr3 3.000125 1_545
Co0 Pr4 3.000125 1_565
Co0 Pr3 3.000125 1_555
Co0 Pr4 3.000125 1_555
Co1 Co10 2.423403 1_555
Co1 Co11 2.423408 1_655
Co1 Co12 2.423408 1_565
Co1 Co16 2.492209 1_555
Co1 Co18 2.492212 1_565
Co1 Co17 2.492212 1_655
Co1 Pr2 2.928492 1_565
Co1 Pr2 2.928492 1_655
Co1 Pr2 2.928497 1_665
Co2 Co7 2.423403 1_555
Co2 Co8 2.423408 1_455
Co2 Co9 2.423408 1_545
Co2 Pr1 2.928492 1_545
Co2 Pr1 2.928492 1_455
Co2 Pr1 2.928497 1_445
Co3 Pr0 2.924970 1_565
Co3 Pr0 2.924970 1_665
Co3 Pr0 2.924970 1_655
Co4 Pr0 2.924970 1_656
Co4 Pr0 2.924970 1_566
Co4 Pr0 2.924970 1_556
Co5 Co7 2.429974 1_555
Co5 Co9 2.429974 1_555
Co5 Co8 2.429974 1_555
Co5 Pr1 2.926558 1_455
Co5 Pr1 2.926558 1_545
Co5 Pr1 2.926563 1_555
Co6 Pr2 2.926558 1_655
Co6 Pr2 2.926558 1_565
Co6 Pr2 2.926563 1_555
Co7 Co8 2.488628 1_555
Co7 Co9 2.488628 1_555
Co7 Co8 2.577540 1_455
Co7 Co9 2.577540 1_545
Co7 Pr3 2.944972 1_455
Co7 Pr3 2.944972 1_545
Co7 Pr4 3.203312 1_555
Co7 Pr1 3.262960 1_545
Co7 Pr1 3.262960 1_455
Co8 Co9 2.488628 1_555
Co8 Co9 2.577540 1_645
Co8 Pr3 2.944970 1_545
Co8 Pr3 2.944974 1_555
Co8 Pr4 3.203314 1_655
Co8 Pr1 3.262958 1_545
Co8 Pr1 3.262962 1_555
Co9 Pr3 2.944970 1_455
Co9 Pr3 2.944974 1_555
Co9 Pr4 3.203314 1_565
Co9 Pr1 3.262958 1_455
Co9 Pr1 3.262962 1_555
Co10 Co6 2.429974 1_555
Co10 Co11 2.488628 1_555
Co10 Co12 2.488628 1_555
Co10 Co11 2.577540 1_655
Co10 Co12 2.577540 1_565
Co10 Pr4 2.944972 1_655
Co10 Pr4 2.944972 1_565
Co10 Pr3 3.203312 1_555
Co10 Pr2 3.262960 1_565
Co10 Pr2 3.262960 1_655
Co11 Co6 2.429974 1_555
Co11 Co12 2.488628 1_555
Co11 Co12 2.577540 1_465
Co11 Pr4 2.944970 1_565
Co11 Pr4 2.944974 1_555
Co11 Pr3 3.203314 1_455
Co11 Pr2 3.262958 1_565
Co11 Pr2 3.262962 1_555
Co12 Co6 2.429974 1_555
Co12 Pr4 2.944970 1_655
Co12 Pr4 2.944974 1_555
Co12 Pr3 3.203314 1_545
Co12 Pr2 3.262958 1_655
Co12 Pr2 3.262962 1_555
Co13 Co3 2.448731 1_555
Co13 Co5 2.454936 1_555
Co13 Co4 2.463944 1_554
Co13 Co2 2.492209 1_555
Co13 Co14 2.532152 1_455
Co13 Co15 2.532152 1_545
Co13 Co14 2.534016 1_555
Co13 Co15 2.534016 1_555
Co13 Pr1 3.151186 1_455
Co13 Pr1 3.151186 1_545
Co13 Pr0 3.211111 1_655
Co13 Pr0 3.211111 1_565
Co14 Co3 2.448731 1_555
Co14 Co5 2.454939 1_555
Co14 Co4 2.463944 1_654
Co14 Co2 2.492212 1_655
Co14 Co15 2.532152 1_645
Co14 Co15 2.534016 1_555
Co14 Pr1 3.151186 1_545
Co14 Pr1 3.151186 1_555
Co14 Pr0 3.211111 1_665
Co14 Pr0 3.211111 1_655
Co15 Co3 2.448731 1_555
Co15 Co5 2.454939 1_555
Co15 Co4 2.463944 1_564
Co15 Co2 2.492212 1_565
Co15 Pr1 3.151186 1_455
Co15 Pr1 3.151186 1_555
Co15 Pr0 3.211111 1_665
Co15 Pr0 3.211111 1_565
Co16 Co4 2.448731 1_555
Co16 Co6 2.454936 1_555
Co16 Co3 2.463944 1_556
Co16 Co17 2.532152 1_655
Co16 Co18 2.532152 1_565
Co16 Co17 2.534016 1_555
Co16 Co18 2.534016 1_555
Co16 Pr2 3.151186 1_655
Co16 Pr2 3.151186 1_565
Co16 Pr0 3.211111 1_566
Co16 Pr0 3.211111 1_656
Co17 Co4 2.448731 1_555
Co17 Co6 2.454939 1_555
Co17 Co3 2.463944 1_456
Co17 Co18 2.532152 1_465
Co17 Co18 2.534016 1_555
Co17 Pr2 3.151186 1_555
Co17 Pr2 3.151186 1_565
Co17 Pr0 3.211111 1_556
Co17 Pr0 3.211111 1_566
Co18 Co4 2.448731 1_555
Co18 Co6 2.454939 1_555
Co18 Co3 2.463944 1_546
Co18 Pr2 3.151186 1_655
Co18 Pr2 3.151186 1_555
Co18 Pr0 3.211111 1_556
Co18 Pr0 3.211111 1_656
