# generated using pymatgen
data_KPSe6
_symmetry_space_group_name_H-M   'P 1'
_cell_length_a   6.93128146
_cell_length_b   11.58309762
_cell_length_c   11.76013317
_cell_angle_alpha   90.00000000
_cell_angle_beta   90.00000000
_cell_angle_gamma   90.00000000
_symmetry_Int_Tables_number   1
_chemical_formula_structural   KPSe6
_chemical_formula_sum   'K4 P4 Se24'
_cell_volume   944.17063869
_cell_formula_units_Z   4
loop_
 _symmetry_equiv_pos_site_id
 _symmetry_equiv_pos_as_xyz
  1  'x, y, z'
loop_
 _atom_site_type_symbol
 _atom_site_label
 _atom_site_symmetry_multiplicity
 _atom_site_fract_x
 _atom_site_fract_y
 _atom_site_fract_z
 _atom_site_occupancy
  K  K0  1  0.83978767  0.34176598  0.87343462  1
  K  K1  1  0.16021233  0.84176598  0.12656538  1
  K  K2  1  0.16021233  0.34176598  0.37343462  1
  K  K3  1  0.83978767  0.84176598  0.62656538  1
  P  P0  1  0.22758427  0.66168094  0.83304327  1
  P  P1  1  0.77241573  0.16168094  0.16695673  1
  P  P2  1  0.77241573  0.66168094  0.33304327  1
  P  P3  1  0.22758427  0.16168094  0.66695673  1
  Se  Se0  1  0.92761522  0.69105723  0.87296548  1
  Se  Se1  1  0.07238478  0.19105723  0.12703452  1
  Se  Se2  1  0.07238478  0.69105723  0.37296548  1
  Se  Se3  1  0.92761522  0.19105723  0.62703452  1
  Se  Se4  1  0.93494738  0.46204619  0.12982263  1
  Se  Se5  1  0.06505262  0.96204619  0.87017737  1
  Se  Se6  1  0.06505262  0.46204619  0.62982263  1
  Se  Se7  1  0.93494738  0.96204619  0.37017737  1
  Se  Se8  1  0.56893944  0.29891200  0.13653856  1
  Se  Se9  1  0.43106056  0.79891200  0.86346144  1
  Se  Se10  1  0.43106056  0.29891200  0.63653856  1
  Se  Se11  1  0.56893944  0.79891200  0.36346144  1
  Se  Se12  1  0.73561011  0.62814506  0.14496681  1
  Se  Se13  1  0.26438989  0.12814506  0.85503319  1
  Se  Se14  1  0.26438989  0.62814506  0.64496681  1
  Se  Se15  1  0.73561011  0.12814506  0.35503319  1
  Se  Se16  1  0.74617304  0.54138947  0.60567512  1
  Se  Se17  1  0.25382696  0.04138947  0.39432488  1
  Se  Se18  1  0.25382696  0.54138947  0.10567512  1
  Se  Se19  1  0.74617304  0.04138947  0.89432488  1
  Se  Se20  1  0.32614082  0.49071412  0.91673269  1
  Se  Se21  1  0.67385918  0.99071412  0.08326731  1
  Se  Se22  1  0.67385918  0.49071412  0.41673269  1
  Se  Se23  1  0.32614082  0.99071412  0.58326731  1
loop_
_geom_bond_atom_site_label_1
_geom_bond_atom_site_label_2
_geom_bond_distance
_geom_bond_site_symmetry_2
K0 Se4 3.386336 1_556
K0 Se3 3.437240 1_555
K0 Se6 3.547767 1_655
K0 Se19 3.547795 1_555
K0 Se8 3.653003 1_556
K0 Se1 3.813276 1_656
K0 Se20 3.820975 1_655
K0 Se13 3.851093 1_655
K1 Se5 3.386336 1_554
K1 Se2 3.437240 1_555
K1 Se7 3.547767 1_455
K1 Se18 3.547795 1_555
K1 Se9 3.653003 1_554
K1 Se0 3.813276 1_454
K1 Se21 3.820975 1_455
K1 Se12 3.851093 1_455
K2 Se6 3.386336 1_555
K2 Se1 3.437240 1_555
K2 Se4 3.547767 1_455
K2 Se17 3.547795 1_555
K2 Se10 3.653003 1_555
K2 Se3 3.813276 1_455
K2 Se22 3.820975 1_455
K2 Se15 3.851093 1_455
K3 Se7 3.386336 1_555
K3 Se0 3.437240 1_555
K3 Se5 3.547767 1_655
K3 Se16 3.547795 1_555
K3 Se11 3.653003 1_555
K3 Se2 3.813276 1_655
K3 Se23 3.820975 1_655
K3 Se14 3.851093 1_655
P0 Se9 2.154938 1_555
P0 Se0 2.158507 1_455
P0 Se14 2.260100 1_555
P0 Se20 2.314518 1_555
P1 Se8 2.154938 1_555
P1 Se1 2.158507 1_655
P1 Se15 2.260100 1_555
P1 Se21 2.314518 1_545
P2 Se11 2.154938 1_555
P2 Se2 2.158507 1_655
P2 Se12 2.260100 1_555
P2 Se22 2.314518 1_555
P3 Se10 2.154938 1_555
P3 Se3 2.158507 1_455
P3 Se13 2.260100 1_555
P3 Se23 2.314518 1_545
Se12 Se4 2.375343 1_555
Se13 Se5 2.375343 1_545
Se14 Se6 2.375343 1_555
Se15 Se7 2.375343 1_545
Se16 Se22 2.352234 1_555
Se16 Se6 2.410489 1_655
Se17 Se23 2.352234 1_545
Se17 Se7 2.410489 1_445
Se18 Se20 2.352234 1_554
Se18 Se4 2.410489 1_455
Se19 Se21 2.352234 1_546
Se19 Se5 2.410489 1_645
