# generated using pymatgen
data_K2BaAs5
_symmetry_space_group_name_H-M   'P 1'
_cell_length_a   6.68611218
_cell_length_b   6.68611218
_cell_length_c   11.86185200
_cell_angle_alpha   90.00000000
_cell_angle_beta   90.00000000
_cell_angle_gamma   107.38688956
_symmetry_Int_Tables_number   1
_chemical_formula_structural   K2BaAs5
_chemical_formula_sum   'K4 Ba2 As10'
_cell_volume   506.04450731
_cell_formula_units_Z   2
loop_
 _symmetry_equiv_pos_site_id
 _symmetry_equiv_pos_as_xyz
  1  'x, y, z'
loop_
 _atom_site_type_symbol
 _atom_site_label
 _atom_site_symmetry_multiplicity
 _atom_site_fract_x
 _atom_site_fract_y
 _atom_site_fract_z
 _atom_site_occupancy
  K  K0  1  0.76134500  0.23865500  0.85228600  1
  K  K1  1  0.23865500  0.76134500  0.35228600  1
  K  K2  1  0.85797300  0.14202700  0.22734900  1
  K  K3  1  0.14202700  0.85797300  0.72734900  1
  Ba  Ba0  1  0.60598500  0.39401500  0.52655800  1
  Ba  Ba1  1  0.39401500  0.60598500  0.02655800  1
  As  As0  1  0.30049300  0.38959700  0.75683100  1
  As  As1  1  0.69950700  0.61040300  0.25683100  1
  As  As2  1  0.38959700  0.30049300  0.25683100  1
  As  As3  1  0.61040300  0.69950700  0.75683100  1
  As  As4  1  0.94073900  0.05926100  0.50879800  1
  As  As5  1  0.05926100  0.94073900  0.00879800  1
  As  As6  1  0.10458000  0.41508600  0.58312800  1
  As  As7  1  0.89542000  0.58491400  0.08312800  1
  As  As8  1  0.41508600  0.10458000  0.08312800  1
  As  As9  1  0.58491400  0.89542000  0.58312800  1
loop_
_geom_bond_atom_site_label_1
_geom_bond_atom_site_label_2
_geom_bond_distance
_geom_bond_site_symmetry_2
As0 As3 2.453795 1_555
As0 As6 2.474611 1_555
As0 Ba0 3.405545 1_555
As0 K3 3.410068 1_545
As0 Ba1 3.489999 1_556
As0 K3 3.610386 1_555
As0 K0 3.622282 1_455
As0 K0 3.695066 1_555
As1 As2 2.453795 1_555
As1 As7 2.474611 1_555
As1 Ba1 3.405545 1_555
As1 K2 3.410068 1_565
As1 Ba0 3.489999 1_555
As1 K2 3.610386 1_555
As1 K1 3.622282 1_655
As1 K1 3.695066 1_555
As2 As8 2.474611 1_555
As2 Ba1 3.405545 1_555
As2 K2 3.410068 1_455
As2 Ba0 3.489999 1_555
As2 K2 3.610386 1_555
As2 K1 3.622282 1_545
As2 K1 3.695066 1_555
As3 As9 2.474611 1_555
As3 Ba0 3.405545 1_555
As3 K3 3.410068 1_655
As3 Ba1 3.489999 1_556
As3 K3 3.610386 1_555
As3 K0 3.622282 1_565
As3 K0 3.695066 1_555
As4 As6 2.465742 1_655
As4 As9 2.465742 1_545
As4 K3 3.380189 1_645
As4 K2 3.455591 1_555
As4 Ba0 3.613505 1_555
As4 K1 3.708539 1_645
As5 As8 2.465742 1_565
As5 As7 2.465742 1_455
As5 K2 3.380189 1_465
As5 K3 3.455591 1_554
As5 Ba1 3.613505 1_555
As5 K0 3.708539 1_464
As6 Ba0 3.361954 1_455
As6 K3 3.363754 1_555
As6 Ba0 3.462848 1_555
As6 K1 3.524329 1_555
As7 Ba1 3.361954 1_655
As7 K2 3.363754 1_555
As7 Ba1 3.462848 1_555
As7 K0 3.524329 1_554
As8 Ba1 3.361954 1_545
As8 K2 3.363754 1_555
As8 Ba1 3.462848 1_555
As8 K0 3.524329 1_554
As9 Ba0 3.361954 1_565
As9 K3 3.363754 1_555
As9 Ba0 3.462848 1_555
As9 K1 3.524329 1_555
