# generated using pymatgen
data_Be2IrAu
_symmetry_space_group_name_H-M   'P 1'
_cell_length_a   9.39635821
_cell_length_b   9.39635821
_cell_length_c   9.39635821
_cell_angle_alpha   125.68628214
_cell_angle_beta   118.08870528
_cell_angle_gamma   86.89392178
_symmetry_Int_Tables_number   1
_chemical_formula_structural   Be2IrAu
_chemical_formula_sum   'Be2 Ir1 Au1'
_cell_volume   565.63173472
_cell_formula_units_Z   1
loop_
 _symmetry_equiv_pos_site_id
 _symmetry_equiv_pos_as_xyz
  1  'x, y, z'
loop_
 _atom_site_type_symbol
 _atom_site_label
 _atom_site_symmetry_multiplicity
 _atom_site_fract_x
 _atom_site_fract_y
 _atom_site_fract_z
 _atom_site_occupancy
  Be  Be0  1  0.00000000  0.24233100  0.24233100  1
  Be  Be1  1  0.00000000  0.75766900  0.75766900  1
  Ir  Ir0  1  0.00000000  0.00000000  0.00000000  1
  Au  Au0  1  0.00000000  0.50000000  0.50000000  1
loop_
_geom_bond_atom_site_label_1
_geom_bond_atom_site_label_2
_geom_bond_distance
_geom_bond_site_symmetry_2
Be0 Ir0 2.078600 1_555
Be1 Ir0 2.078600 1_566
Au0 Be1 2.210162 1_555
Au0 Be0 2.210162 1_555
