# generated using pymatgen
data_CaSnHg
_symmetry_space_group_name_H-M   'P 1'
_cell_length_a   4.92762934
_cell_length_b   4.92762934
_cell_length_c   7.89405000
_cell_angle_alpha   90.00000000
_cell_angle_beta   90.00000000
_cell_angle_gamma   119.99999116
_symmetry_Int_Tables_number   1
_chemical_formula_structural   CaSnHg
_chemical_formula_sum   'Ca2 Sn2 Hg2'
_cell_volume   165.99943441
_cell_formula_units_Z   2
loop_
 _symmetry_equiv_pos_site_id
 _symmetry_equiv_pos_as_xyz
  1  'x, y, z'
loop_
 _atom_site_type_symbol
 _atom_site_label
 _atom_site_symmetry_multiplicity
 _atom_site_fract_x
 _atom_site_fract_y
 _atom_site_fract_z
 _atom_site_occupancy
  Ca  Ca0  1  0.00000000  0.00000000  0.50000000  1
  Ca  Ca1  1  0.00000000  0.00000000  0.00000000  1
  Sn  Sn0  1  0.33333300  0.66666700  0.25000000  1
  Sn  Sn1  1  0.66666700  0.33333300  0.75000000  1
  Hg  Hg0  1  0.33333300  0.66666700  0.75000000  1
  Hg  Hg1  1  0.66666700  0.33333300  0.25000000  1
loop_
_geom_bond_atom_site_label_1
_geom_bond_atom_site_label_2
_geom_bond_distance
_geom_bond_site_symmetry_2
Ca0 Sn0 3.462453 1_545
Ca0 Hg1 3.462453 1_455
Ca0 Hg0 3.462453 1_545
Ca0 Sn1 3.462453 1_455
Ca0 Hg1 3.462456 1_445
Ca0 Hg0 3.462456 1_555
Ca0 Hg0 3.462456 1_445
Ca0 Hg1 3.462456 1_555
Ca0 Sn1 3.462456 1_555
Ca0 Sn1 3.462456 1_445
Ca0 Sn0 3.462456 1_445
Ca0 Sn0 3.462456 1_555
Ca0 Ca1 3.947025 1_556
Ca0 Ca1 3.947025 1_555
Ca1 Sn1 3.462453 1_454
Ca1 Sn0 3.462453 1_545
Ca1 Hg0 3.462453 1_544
Ca1 Hg1 3.462453 1_455
Ca1 Hg1 3.462456 1_445
Ca1 Sn1 3.462456 1_444
Ca1 Hg1 3.462456 1_555
Ca1 Hg0 3.462456 1_444
Ca1 Sn0 3.462456 1_555
Ca1 Sn0 3.462456 1_445
Ca1 Sn1 3.462456 1_554
Ca1 Hg0 3.462456 1_554
Hg0 Sn1 2.844966 1_455
Hg0 Sn1 2.844966 1_565
Hg0 Sn1 2.844974 1_555
Hg1 Sn0 2.844966 1_545
Hg1 Sn0 2.844966 1_655
Hg1 Sn0 2.844974 1_555
