# generated using pymatgen
data_Ca8In3
_symmetry_space_group_name_H-M   'P 1'
_cell_length_a   9.59116851
_cell_length_b   9.68161568
_cell_length_c   9.75208887
_cell_angle_alpha   99.07480936
_cell_angle_beta   100.98942287
_cell_angle_gamma   119.69453552
_symmetry_Int_Tables_number   1
_chemical_formula_structural   Ca8In3
_chemical_formula_sum   'Ca16 In6'
_cell_volume   737.68289320
_cell_formula_units_Z   2
loop_
 _symmetry_equiv_pos_site_id
 _symmetry_equiv_pos_as_xyz
  1  'x, y, z'
loop_
 _atom_site_type_symbol
 _atom_site_label
 _atom_site_symmetry_multiplicity
 _atom_site_fract_x
 _atom_site_fract_y
 _atom_site_fract_z
 _atom_site_occupancy
  Ca  Ca0  1  0.29576917  0.94115314  0.78168675  1
  Ca  Ca1  1  0.86893930  0.58158750  0.76185556  1
  Ca  Ca2  1  0.03833675  0.37959324  0.22218628  1
  Ca  Ca3  1  0.80402499  0.17849683  0.46134678  1
  Ca  Ca4  1  0.66928109  0.75791335  0.22129533  1
  Ca  Ca5  1  0.37629991  0.81909241  0.44103711  1
  Ca  Ca6  1  0.25776919  0.64979905  0.00472087  1
  Ca  Ca7  1  0.21638740  0.28151793  0.75994927  1
  Ca  Ca8  1  0.41457897  0.11065946  0.21849475  1
  Ca  Ca9  1  0.10986135  0.03244344  0.41119067  1
  Ca  Ca10  1  0.87796243  0.58916565  0.40827360  1
  Ca  Ca11  1  0.00370310  0.00296312  0.00186535  1
  Ca  Ca12  1  0.56297856  0.72750514  0.81238146  1
  Ca  Ca13  1  0.79343067  0.17009662  0.81440560  1
  Ca  Ca14  1  0.45622875  0.47922706  0.46332654  1
  Ca  Ca15  1  0.63411238  0.38052868  0.00090996  1
  In  In0  1  0.83636864  0.88019780  0.61169935  1
  In  In1  1  0.66005297  0.04025109  0.08511786  1
  In  In2  1  0.01211400  0.72026583  0.13822279  1
  In  In3  1  0.16305904  0.54311310  0.61137823  1
  In  In4  1  0.33666265  0.38073765  0.11150587  1
  In  In5  1  0.50967770  0.21739291  0.61165100  1
loop_
_geom_bond_atom_site_label_1
_geom_bond_atom_site_label_2
_geom_bond_distance
_geom_bond_site_symmetry_2
Ca0 In5 3.372128 1_565
Ca0 In3 3.397740 1_555
Ca0 In1 3.704815 1_566
Ca1 In5 3.295532 1_555
Ca1 In2 3.443426 1_656
Ca1 In0 3.557489 1_555
Ca1 In3 3.563270 1_655
Ca2 In4 3.240676 1_555
Ca2 In1 3.271110 1_455
Ca2 In3 3.583283 1_555
Ca2 In2 3.634215 1_555
Ca3 In3 3.296435 1_655
Ca3 In1 3.442107 1_555
Ca3 In0 3.554821 1_545
Ca3 In5 3.566126 1_555
Ca4 In4 3.252850 1_555
Ca4 In1 3.253213 1_565
Ca4 In0 3.582911 1_555
Ca4 In2 3.702849 1_655
Ca5 In3 3.370899 1_555
Ca5 In5 3.398857 1_565
Ca5 In2 3.701597 1_555
Ca6 In2 3.192744 1_555
Ca6 In4 3.309226 1_555
Ca6 In3 3.619166 1_554
Ca6 In1 3.640451 1_565
Ca7 In4 3.219146 1_556
Ca7 In3 3.306612 1_555
Ca7 In0 3.558053 1_445
Ca7 In5 3.658959 1_555
Ca8 In1 3.190223 1_555
Ca8 In4 3.314142 1_555
Ca8 In5 3.617062 1_555
Ca8 In2 3.641241 1_545
Ca9 In2 3.286829 1_545
Ca9 In5 3.311746 1_555
Ca9 In0 3.451218 1_445
Ca10 In2 3.306130 1_655
Ca10 In3 3.319717 1_655
Ca10 In0 3.418486 1_555
Ca11 In2 3.254492 1_545
Ca11 In4 3.257477 1_555
Ca11 In0 3.580685 1_444
Ca11 In1 3.709420 1_455
Ca12 In1 3.291140 1_566
Ca12 In3 3.314710 1_555
Ca12 In0 3.452498 1_555
Ca13 In1 3.305703 1_556
Ca13 In5 3.315820 1_555
Ca13 In0 3.414709 1_545
Ca14 In4 3.221883 1_555
Ca14 In5 3.307971 1_555
Ca14 In0 3.556813 1_555
Ca14 In3 3.655518 1_555
Ca15 In4 3.237341 1_555
Ca15 In2 3.271257 1_655
Ca15 In5 3.583723 1_554
Ca15 In1 3.630039 1_555
