# generated using pymatgen
data_La12Ga23MoO56
_symmetry_space_group_name_H-M   'P 1'
_cell_length_a   9.79194400
_cell_length_b   9.79479151
_cell_length_c   13.27799302
_cell_angle_alpha   98.44555104
_cell_angle_beta   98.41057147
_cell_angle_gamma   94.62990225
_symmetry_Int_Tables_number   1
_chemical_formula_structural   La12Ga23MoO56
_chemical_formula_sum   'La12 Ga23 Mo1 O56'
_cell_volume   1239.32012731
_cell_formula_units_Z   1
loop_
 _symmetry_equiv_pos_site_id
 _symmetry_equiv_pos_as_xyz
  1  'x, y, z'
loop_
 _atom_site_type_symbol
 _atom_site_label
 _atom_site_symmetry_multiplicity
 _atom_site_fract_x
 _atom_site_fract_y
 _atom_site_fract_z
 _atom_site_occupancy
  La  La0  1  0.35568800  0.93617100  0.64827500  1
  La  La1  1  0.10356100  0.68455400  0.89266800  1
  La  La2  1  0.60520800  0.18551300  0.39604700  1
  La  La3  1  0.85838500  0.42564700  0.14041800  1
  La  La4  1  0.96830500  0.96801800  0.46839200  1
  La  La5  1  0.70948800  0.71008400  0.70919000  1
  La  La6  1  0.20953600  0.20893300  0.20986300  1
  La  La7  1  0.45861600  0.45904000  0.95830600  1
  La  La8  1  0.93659100  0.35638500  0.64714000  1
  La  La9  1  0.68366100  0.10343100  0.89335700  1
  La  La10  1  0.18526800  0.60466100  0.39612000  1
  La  La11  1  0.42557500  0.85876100  0.13995500  1
  Ga  Ga0  1  0.30233300  0.96699800  0.36918500  1
  Ga  Ga1  1  0.04917200  0.71560100  0.61636400  1
  Ga  Ga2  1  0.54682500  0.21832600  0.11679000  1
  Ga  Ga3  1  0.79967300  0.46361100  0.86653800  1
  Ga  Ga4  1  0.70249600  0.03567800  0.63416700  1
  Ga  Ga5  1  0.45139900  0.78322600  0.88328000  1
  Ga  Ga6  1  0.95066000  0.28062400  0.38123000  1
  Ga  Ga7  1  0.19773400  0.53573100  0.13222300  1
  Ga  Ga8  1  0.56195200  0.80363600  0.44043800  1
  Ga  Ga9  1  0.31545800  0.55400700  0.68444300  1
  Ga  Ga10  1  0.81689900  0.05910600  0.18148600  1
  Ga  Ga11  1  0.06521600  0.30256900  0.93311000  1
  Ga  Ga12  1  0.00590700  0.00606900  0.75740800  1
  Ga  Ga13  1  0.75751500  0.75669500  0.99961200  1
  Ga  Ga14  1  0.25882000  0.25665200  0.50609300  1
  Ga  Ga15  1  0.49839000  0.50108300  0.25737000  1
  Ga  Ga16  1  0.55356100  0.31588300  0.68416500  1
  Ga  Ga17  1  0.30292000  0.06736000  0.93441200  1
  Ga  Ga18  1  0.80348400  0.55886300  0.43887400  1
  Ga  Ga19  1  0.05968700  0.81831600  0.18255500  1
  Ga  Ga20  1  0.00041700  0.99979000  0.99966500  1
  Ga  Ga21  1  0.25042600  0.24996600  0.74992700  1
  Ga  Ga22  1  0.49966700  0.49993100  0.50018200  1
  Mo  Mo0  1  0.74998400  0.74985900  0.25042800  1
  O  O0  1  0.20850600  0.87893500  0.45400300  1
  O  O1  1  0.96122900  0.62775700  0.70439400  1
  O  O2  1  0.46220200  0.12533200  0.20393400  1
  O  O3  1  0.71438000  0.38030300  0.95826800  1
  O  O4  1  0.79056100  0.11800000  0.54331200  1
  O  O5  1  0.53978300  0.87153300  0.79572000  1
  O  O6  1  0.03382800  0.37135000  0.29230100  1
  O  O7  1  0.29026600  0.62606900  0.04788200  1
  O  O8  1  0.59608400  0.13898600  0.71610100  1
  O  O9  1  0.34727900  0.88992000  0.96652600  1
  O  O10  1  0.84590800  0.38441100  0.46544200  1
  O  O11  1  0.09219500  0.64035500  0.21565600  1
  O  O12  1  0.57108200  0.88371500  0.57726300  1
  O  O13  1  0.32103000  0.63220800  0.82575400  1
  O  O14  1  0.82013100  0.12852000  0.32333700  1
  O  O15  1  0.06920100  0.38274700  0.07438000  1
  O  O16  1  0.81063200  0.95514200  0.73248000  1
  O  O17  1  0.56290700  0.70781800  0.98440900  1
  O  O18  1  0.06215600  0.20501500  0.48081800  1
  O  O19  1  0.30659400  0.45661700  0.23170400  1
  O  O20  1  0.23323400  0.91993100  0.22723600  1
  O  O21  1  0.97755500  0.66894300  0.47502100  1
  O  O22  1  0.48158400  0.17007400  0.97614000  1
  O  O23  1  0.73159500  0.41832900  0.72598100  1
  O  O24  1  0.48940400  0.94157200  0.36708700  1
  O  O25  1  0.23706600  0.69513700  0.61646700  1
  O  O26  1  0.73597600  0.19677900  0.11748200  1
  O  O27  1  0.98794700  0.44504100  0.86720500  1
  O  O28  1  0.30602600  0.15936900  0.38254700  1
  O  O29  1  0.05363600  0.90933200  0.63329500  1
  O  O30  1  0.55544800  0.41218500  0.13554200  1
  O  O31  1  0.80575500  0.65745300  0.88191000  1
  O  O32  1  0.78948800  0.57317100  0.29361000  1
  O  O33  1  0.02765400  0.80999300  0.04195600  1
  O  O34  1  0.28397300  0.06376600  0.79326800  1
  O  O35  1  0.53343600  0.31373900  0.54278600  1
  O  O36  1  0.99516900  0.06424600  0.15341900  1
  O  O37  1  0.24300900  0.31967200  0.90088200  1
  O  O38  1  0.49260900  0.57036500  0.64998400  1
  O  O39  1  0.73991500  0.82294300  0.39356900  1
  O  O40  1  0.29433000  0.43804400  0.48432200  1
  O  O41  1  0.55246700  0.68572300  0.23116700  1
  O  O42  1  0.79279600  0.94146800  0.99152900  1
  O  O43  1  0.04388700  0.18696100  0.73498600  1
  O  O44  1  0.18967100  0.11057900  0.03255500  1
  O  O45  1  0.43934900  0.36192600  0.78109100  1
  O  O46  1  0.68702200  0.61886100  0.52879100  1
  O  O47  1  0.93490400  0.85261100  0.28131200  1
  O  O48  1  0.68509600  0.90153700  0.18120200  1
  O  O49  1  0.93221100  0.15337300  0.92458500  1
  O  O50  1  0.18297000  0.40389600  0.67424400  1
  O  O51  1  0.43364300  0.65030600  0.41771100  1
  O  O52  1  0.56448100  0.41632200  0.36657100  1
  O  O53  1  0.79839200  0.66537900  0.11901400  1
  O  O54  1  0.05672300  0.91295500  0.86668300  1
  O  O55  1  0.30515100  0.16250600  0.61549100  1
loop_
_geom_bond_atom_site_label_1
_geom_bond_atom_site_label_2
_geom_bond_distance
_geom_bond_site_symmetry_2
La0 O34 2.364722 1_565
La0 O55 2.397206 1_565
La0 O12 2.493160 1_555
La0 O25 2.494433 1_555
La0 O5 2.645599 1_555
La0 O0 2.720779 1_555
La0 O8 2.897904 1_565
La0 O29 2.922934 1_555
La1 O54 2.383331 1_555
La1 O33 2.419581 1_556
La1 O27 2.475044 1_455
La1 O13 2.486509 1_555
La1 O1 2.636003 1_455
La1 O7 2.707690 1_556
La1 O31 2.887308 1_455
La1 O9 2.943492 1_555
La2 O35 2.385756 1_555
La2 O52 2.404765 1_555
La2 O14 2.509661 1_555
La2 O24 2.511546 1_545
La2 O4 2.662763 1_555
La2 O2 2.682430 1_555
La2 O10 2.880207 1_555
La2 O28 2.896877 1_555
La3 O15 2.401682 1_655
La3 O26 2.411146 1_555
La3 O53 2.511858 1_555
La3 O32 2.525075 1_555
La3 O3 2.573107 1_554
La3 O6 2.598126 1_655
La3 O11 2.932376 1_655
La3 O30 2.949395 1_555
La4 O29 2.394761 1_655
La4 O18 2.399814 1_665
La4 O39 2.535736 1_555
La4 O47 2.536353 1_555
La4 O4 2.582029 1_565
La4 O0 2.596866 1_655
La4 O21 2.951854 1_555
La4 O14 2.954045 1_565
La5 O38 2.393164 1_555
La5 O46 2.402048 1_555
La5 O16 2.479216 1_555
La5 O31 2.491428 1_555
La5 O5 2.651643 1_555
La5 O1 2.661282 1_555
La5 O12 2.889687 1_555
La5 O23 2.921608 1_555
La6 O44 2.382891 1_555
La6 O36 2.392437 1_455
La6 O28 2.480531 1_555
La6 O19 2.492663 1_555
La6 O2 2.676369 1_555
La6 O6 2.677767 1_555
La6 O20 2.898654 1_545
La6 O15 2.928661 1_555
La7 O37 2.379103 1_555
La7 O45 2.379283 1_555
La7 O17 2.519385 1_555
La7 O30 2.526382 1_556
La7 O3 2.679363 1_555
La7 O7 2.691845 1_556
La7 O13 2.888214 1_555
La7 O22 2.898562 1_555
La8 O50 2.383684 1_655
La8 O43 2.389512 1_655
La8 O23 2.473472 1_555
La8 O10 2.508306 1_555
La8 O1 2.636388 1_555
La8 O4 2.708498 1_555
La8 O27 2.880882 1_555
La8 O18 2.951931 1_655
La9 O49 2.405733 1_555
La9 O42 2.414837 1_545
La9 O8 2.468739 1_555
La9 O22 2.486702 1_555
La9 O5 2.628480 1_545
La9 O3 2.700675 1_555
La9 O16 2.894049 1_545
La9 O26 2.938323 1_556
La10 O40 2.377461 1_555
La10 O51 2.404143 1_555
La10 O21 2.503421 1_455
La10 O11 2.520570 1_555
La10 O0 2.665181 1_555
La10 O6 2.692794 1_555
La10 O25 2.886941 1_555
La10 O19 2.896029 1_555
La11 O9 2.389879 1_554
La11 O20 2.421972 1_555
La11 O48 2.507358 1_555
La11 O41 2.527044 1_555
La11 O7 2.581642 1_555
La11 O2 2.603040 1_565
La11 O17 2.914840 1_554
La11 O24 2.965156 1_555
Ga0 O0 1.821141 1_555
Ga0 O28 1.863343 1_565
Ga0 O24 1.872107 1_555
Ga0 O20 1.882591 1_555
Ga1 O1 1.821633 1_455
Ga1 O25 1.866574 1_555
Ga1 O29 1.873925 1_555
Ga1 O21 1.879934 1_455
Ga2 O2 1.823011 1_555
Ga2 O22 1.860701 1_554
Ga2 O30 1.871815 1_555
Ga2 O26 1.879842 1_555
Ga3 O3 1.823830 1_555
Ga3 O23 1.862634 1_555
Ga3 O27 1.865942 1_555
Ga3 O31 1.874675 1_555
Ga4 O4 1.823979 1_555
Ga4 O8 1.863238 1_555
Ga4 O16 1.865606 1_545
Ga4 O12 1.875696 1_545
Ga5 O5 1.821458 1_555
Ga5 O13 1.865234 1_555
Ga5 O9 1.875024 1_555
Ga5 O17 1.879747 1_555
Ga6 O6 1.822052 1_655
Ga6 O18 1.866765 1_655
Ga6 O10 1.872374 1_555
Ga6 O14 1.874270 1_555
Ga7 O7 1.821127 1_555
Ga7 O15 1.869219 1_555
Ga7 O19 1.871804 1_555
Ga7 O11 1.875583 1_555
Ga8 O51 1.837512 1_555
Ga8 O12 1.856454 1_555
Ga8 O24 1.902012 1_555
Ga8 O39 1.938641 1_555
Ga9 O50 1.856165 1_555
Ga9 O38 1.858193 1_555
Ga9 O25 1.910462 1_555
Ga9 O13 1.910869 1_555
Ga10 O36 1.835811 1_555
Ga10 O26 1.865650 1_555
Ga10 O14 1.900987 1_555
Ga10 O48 1.929490 1_545
Ga11 O37 1.853094 1_555
Ga11 O49 1.856221 1_455
Ga11 O27 1.902915 1_455
Ga11 O15 1.917747 1_556
Ga12 O54 1.853492 1_545
Ga12 O43 1.856658 1_555
Ga12 O16 1.904460 1_445
Ga12 O29 1.915765 1_545
Ga13 O42 1.836643 1_555
Ga13 O31 1.858588 1_555
Ga13 O17 1.900796 1_555
Ga13 O53 1.939702 1_556
Ga14 O55 1.853210 1_555
Ga14 O40 1.855170 1_555
Ga14 O28 1.909567 1_555
Ga14 O18 1.918513 1_555
Ga15 O52 1.837478 1_555
Ga15 O19 1.862806 1_555
Ga15 O30 1.901645 1_555
Ga15 O41 1.938110 1_555
Ga16 O45 1.855373 1_555
Ga16 O35 1.855478 1_555
Ga16 O23 1.903957 1_555
Ga16 O8 1.906822 1_555
Ga17 O34 1.850891 1_555
Ga17 O44 1.855688 1_556
Ga17 O22 1.910066 1_555
Ga17 O9 1.917414 1_545
Ga18 O46 1.836210 1_555
Ga18 O10 1.861593 1_555
Ga18 O21 1.900047 1_555
Ga18 O32 1.940083 1_555
Ga19 O33 1.835787 1_555
Ga19 O20 1.867886 1_555
Ga19 O11 1.899092 1_555
Ga19 O47 1.931546 1_455
Ga20 O54 2.016073 1_555
Ga20 O44 2.025315 1_566
Ga20 O49 2.027505 1_465
Ga20 O33 2.045798 1_556
Ga20 O42 2.049702 1_455
Ga20 O36 2.055834 1_466
Ga21 O45 2.027635 1_555
Ga21 O55 2.027837 1_555
Ga21 O34 2.028548 1_555
Ga21 O50 2.032487 1_555
Ga21 O37 2.034103 1_555
Ga21 O43 2.038517 1_555
Ga22 O38 2.020384 1_555
Ga22 O40 2.023951 1_555
Ga22 O35 2.025080 1_555
Ga22 O46 2.046478 1_555
Ga22 O51 2.051074 1_555
Ga22 O52 2.051179 1_555
Mo0 O39 1.949639 1_555
Mo0 O32 1.951436 1_555
Mo0 O41 1.952602 1_555
Mo0 O47 1.956312 1_555
Mo0 O53 1.958383 1_555
Mo0 O48 1.959194 1_555
