# generated using pymatgen
data_LaZnCrWO6
_symmetry_space_group_name_H-M   'P 1'
_cell_length_a   5.69727900
_cell_length_b   5.44903900
_cell_length_c   9.51390050
_cell_angle_alpha   55.91787184
_cell_angle_beta   90.00000000
_cell_angle_gamma   90.00000000
_symmetry_Int_Tables_number   1
_chemical_formula_structural   LaZnCrWO6
_chemical_formula_sum   'La2 Zn2 Cr2 W2 O12'
_cell_volume   244.62434596
_cell_formula_units_Z   2
loop_
 _symmetry_equiv_pos_site_id
 _symmetry_equiv_pos_as_xyz
  1  'x, y, z'
loop_
 _atom_site_type_symbol
 _atom_site_label
 _atom_site_symmetry_multiplicity
 _atom_site_fract_x
 _atom_site_fract_y
 _atom_site_fract_z
 _atom_site_occupancy
  La  La0  1  0.28936900  0.76646800  0.24656500  1
  La  La1  1  0.71063100  0.76646800  0.74656500  1
  Zn  Zn0  1  0.72842300  0.25234200  0.24400200  1
  Zn  Zn1  1  0.27157700  0.25234200  0.74400200  1
  Cr  Cr0  1  0.24673600  0.00107800  0.49968500  1
  Cr  Cr1  1  0.75326400  0.00107800  0.99968500  1
  W  W0  1  0.23500400  0.49949900  0.99996900  1
  W  W1  1  0.76499600  0.49949900  0.49996900  1
  O  O0  1  0.77624000  0.33843900  0.75391500  1
  O  O1  1  0.02524400  0.14039700  0.06424700  1
  O  O2  1  0.05278200  0.75020500  0.45257000  1
  O  O3  1  0.55131300  0.25546100  0.05467300  1
  O  O4  1  0.55734900  0.87807300  0.43467700  1
  O  O5  1  0.27719200  0.61803500  0.74969700  1
  O  O6  1  0.22376000  0.33843900  0.25391500  1
  O  O7  1  0.97475600  0.14039700  0.56424700  1
  O  O8  1  0.94721800  0.75020500  0.95257000  1
  O  O9  1  0.44868700  0.25546100  0.55467300  1
  O  O10  1  0.44265100  0.87807300  0.93467700  1
  O  O11  1  0.72280800  0.61803500  0.24969700  1
loop_
_geom_bond_atom_site_label_1
_geom_bond_atom_site_label_2
_geom_bond_distance
_geom_bond_site_symmetry_2
La0 O6 2.324148 1_555
La0 O1 2.337448 1_565
La0 O2 2.339078 1_555
La0 O11 2.593475 1_555
La0 O4 2.669004 1_555
La0 O3 2.684767 1_565
La0 O10 2.813314 1_554
La0 O9 2.832309 1_555
La1 O0 2.324148 1_555
La1 O7 2.337448 1_565
La1 O8 2.339078 1_555
La1 O5 2.593475 1_555
La1 O10 2.669004 1_555
La1 O9 2.684767 1_565
La1 O4 2.813314 1_555
La1 O3 2.832309 1_556
Cr0 O7 1.969088 1_455
Cr0 O2 1.994359 1_545
Cr0 O6 2.011555 1_555
Cr0 O9 2.081256 1_555
Cr0 O4 2.104287 1_545
Cr0 O5 2.116625 1_545
Cr1 O1 1.969088 1_656
Cr1 O8 1.994359 1_545
Cr1 O0 2.011555 1_555
Cr1 O3 2.081256 1_556
Cr1 O10 2.104287 1_545
Cr1 O11 2.116625 1_546
O0 W1 2.057925 1_555
O1 W0 2.071214 1_554
O2 W1 2.016790 1_455
O3 Zn0 2.056375 1_555
O3 W0 2.123929 1_554
O4 Zn0 2.062420 1_565
O4 W1 2.145847 1_555
O5 Zn1 2.023788 1_555
O5 W0 2.102560 1_555
O6 W0 2.057925 1_554
O7 W1 2.071214 1_555
O8 W0 2.016790 1_655
O9 Zn1 2.056375 1_555
O9 W1 2.123929 1_555
O10 Zn1 2.062420 1_565
O10 W0 2.145847 1_555
O11 Zn0 2.023788 1_555
O11 W1 2.102560 1_555
