# generated using pymatgen
data_Tm3SbO7
_symmetry_space_group_name_H-M   'P 1'
_cell_length_a   6.33291301
_cell_length_b   6.33291301
_cell_length_c   7.34504444
_cell_angle_alpha   90.00000000
_cell_angle_beta   90.00000000
_cell_angle_gamma   109.25888439
_symmetry_Int_Tables_number   1
_chemical_formula_structural   Tm3SbO7
_chemical_formula_sum   'Tm6 Sb2 O14'
_cell_volume   278.09353793
_cell_formula_units_Z   2
loop_
 _symmetry_equiv_pos_site_id
 _symmetry_equiv_pos_as_xyz
  1  'x, y, z'
loop_
 _atom_site_type_symbol
 _atom_site_label
 _atom_site_symmetry_multiplicity
 _atom_site_fract_x
 _atom_site_fract_y
 _atom_site_fract_z
 _atom_site_occupancy
  Tm  Tm0  1  0.99942294  0.46803054  0.74780994  1
  Tm  Tm1  1  0.00057706  0.53196946  0.24780994  1
  Tm  Tm2  1  0.53196946  0.00057706  0.75219006  1
  Tm  Tm3  1  0.46803054  0.99942294  0.25219006  1
  Tm  Tm4  1  0.50970598  0.50970598  0.50000000  1
  Tm  Tm5  1  0.49029402  0.49029402  -0.00000000  1
  Sb  Sb0  1  0.99969946  0.99969946  0.50000000  1
  Sb  Sb1  1  0.00030054  0.00030054  -0.00000000  1
  O  O0  1  0.63803607  0.36196393  0.75000000  1
  O  O1  1  0.36196393  0.63803607  0.25000000  1
  O  O2  1  0.92774341  0.07225659  0.75000000  1
  O  O3  1  0.07225659  0.92774341  0.25000000  1
  O  O4  1  0.92275585  0.67387188  0.52930008  1
  O  O5  1  0.07724415  0.32612812  0.02930008  1
  O  O6  1  0.32612812  0.07724415  0.97069992  1
  O  O7  1  0.67387188  0.92275585  0.47069992  1
  O  O8  1  0.36991363  0.63008637  0.75000000  1
  O  O9  1  0.63008637  0.36991363  0.25000000  1
  O  O10  1  0.93211291  0.67832315  0.96671693  1
  O  O11  1  0.06788709  0.32167685  0.46671693  1
  O  O12  1  0.32167685  0.06788709  0.53328307  1
  O  O13  1  0.67832315  0.93211291  0.03328307  1
loop_
_geom_bond_atom_site_label_1
_geom_bond_atom_site_label_2
_geom_bond_distance
_geom_bond_site_symmetry_2
O0 Tm2 2.162215 1_555
O0 Tm0 2.162215 1_555
O0 Tm5 2.325806 1_556
O0 Tm4 2.325806 1_555
O1 Tm1 2.162215 1_555
O1 Tm3 2.162215 1_555
O1 Tm4 2.325806 1_555
O1 Tm5 2.325806 1_555
O2 Sb1 1.982114 1_656
O2 Sb0 1.982114 1_545
O2 Tm2 2.395375 1_555
O2 Tm0 2.395375 1_555
O3 Sb1 1.982114 1_565
O3 Sb0 1.982114 1_455
O3 Tm1 2.395375 1_555
O3 Tm3 2.395375 1_555
O4 Sb0 1.969327 1_555
O4 Tm0 2.220017 1_555
O4 Tm1 2.370111 1_655
O4 Tm4 2.485084 1_555
O5 Sb1 1.969327 1_555
O5 Tm1 2.220017 1_555
O5 Tm0 2.370111 1_454
O5 Tm5 2.485084 1_555
O6 Sb1 1.969327 1_556
O6 Tm2 2.220017 1_555
O6 Tm3 2.370111 1_546
O6 Tm5 2.485084 1_556
O7 Sb0 1.969327 1_555
O7 Tm3 2.220017 1_555
O7 Tm2 2.370111 1_565
O7 Tm4 2.485084 1_555
O8 Tm2 2.229374 1_565
O8 Tm0 2.229374 1_455
O8 Tm5 2.276403 1_556
O8 Tm4 2.276403 1_555
O9 Tm1 2.229374 1_655
O9 Tm3 2.229374 1_545
O9 Tm5 2.276403 1_555
O9 Tm4 2.276403 1_555
O10 Sb1 1.955282 1_666
O10 Tm0 2.216997 1_555
O10 Tm1 2.361116 1_656
O10 Tm5 2.666199 1_556
O11 Sb0 1.955282 1_445
O11 Tm1 2.216997 1_555
O11 Tm0 2.361116 1_455
O11 Tm4 2.666199 1_555
O12 Sb0 1.955282 1_445
O12 Tm2 2.216997 1_555
O12 Tm3 2.361116 1_545
O12 Tm4 2.666199 1_555
O13 Sb1 1.955282 1_665
O13 Tm3 2.216997 1_555
O13 Tm2 2.361116 1_564
O13 Tm5 2.666199 1_555
