# generated using pymatgen
data_YbEu
_symmetry_space_group_name_H-M   'P 1'
_cell_length_a   13.57717242
_cell_length_b   13.57717242
_cell_length_c   13.57717206
_cell_angle_alpha   33.27556586
_cell_angle_beta   33.27556586
_cell_angle_gamma   33.27557017
_symmetry_Int_Tables_number   1
_chemical_formula_structural   YbEu
_chemical_formula_sum   'Yb8 Eu8'
_cell_volume   670.79085095
_cell_formula_units_Z   8
loop_
 _symmetry_equiv_pos_site_id
 _symmetry_equiv_pos_as_xyz
  1  'x, y, z'
loop_
 _atom_site_type_symbol
 _atom_site_label
 _atom_site_symmetry_multiplicity
 _atom_site_fract_x
 _atom_site_fract_y
 _atom_site_fract_z
 _atom_site_occupancy
  Yb  Yb0_0  1  0.25000000  0.25000000  0.25000000  1
  Yb  Yb0_1  1  0.25000000  0.25000000  0.75000000  1
  Yb  Yb0_2  1  0.25000000  0.75000000  0.25000000  1
  Yb  Yb0_3  1  0.25000000  0.75000000  0.75000000  1
  Yb  Yb0_4  1  0.75000000  0.25000000  0.25000000  1
  Yb  Yb0_5  1  0.75000000  0.25000000  0.75000000  1
  Yb  Yb0_6  1  0.75000000  0.75000000  0.25000000  1
  Yb  Yb0_7  1  0.75000000  0.75000000  0.75000000  1
  Eu  Eu0_0  1  0.00000000  0.00000000  0.00000000  1
  Eu  Eu0_1  1  0.00000000  0.00000000  0.50000000  1
  Eu  Eu0_2  1  0.00000000  0.50000000  0.00000000  1
  Eu  Eu0_3  1  1.00000000  0.50000000  0.50000000  1
  Eu  Eu0_4  1  0.50000000  0.00000000  0.00000000  1
  Eu  Eu0_5  1  0.50000000  1.00000000  0.50000000  1
  Eu  Eu0_6  1  0.50000000  0.50000000  0.00000000  1
  Eu  Eu0_7  1  0.50000000  0.50000000  0.50000000  1
loop_
_geom_bond_atom_site_label_1
_geom_bond_atom_site_label_2
_geom_bond_distance
_geom_bond_site_symmetry_2
Yb0_0 Yb0_5 3.887419 1_554
Yb0_0 Yb0_3 3.887419 1_554
Yb0_0 Yb0_3 3.887419 1_545
Yb0_0 Yb0_5 3.887419 1_455
Yb0_0 Yb0_6 3.887420 1_455
Yb0_0 Yb0_6 3.887420 1_545
Yb0_1 Yb0_4 3.887419 1_456
Yb0_1 Yb0_4 3.887419 1_555
Yb0_1 Yb0_2 3.887419 1_555
Yb0_1 Yb0_2 3.887419 1_546
Yb0_1 Yb0_7 3.887420 1_545
Yb0_1 Yb0_7 3.887420 1_455
Yb0_2 Yb0_7 3.887419 1_455
Yb0_2 Yb0_7 3.887419 1_554
Yb0_2 Yb0_4 3.887420 1_465
Yb0_2 Yb0_4 3.887420 1_555
Yb0_3 Yb0_6 3.887419 1_555
Yb0_3 Yb0_6 3.887419 1_456
Yb0_3 Yb0_5 3.887420 1_465
Yb0_3 Yb0_5 3.887420 1_555
Yb0_4 Yb0_7 3.887419 1_545
Yb0_4 Yb0_7 3.887419 1_554
Yb0_5 Yb0_6 3.887419 1_555
Yb0_5 Yb0_6 3.887419 1_546
Eu0_0 Eu0_5 3.887419 1_544
Eu0_0 Eu0_3 3.887419 1_454
Eu0_0 Eu0_3 3.887419 1_445
Eu0_0 Eu0_5 3.887419 1_445
Eu0_0 Eu0_6 3.887420 1_545
Eu0_0 Eu0_6 3.887420 1_455
Eu0_0 Yb0_1 3.911423 1_554
Eu0_0 Yb0_6 3.911423 1_445
Eu0_0 Yb0_2 3.911423 1_545
Eu0_0 Yb0_4 3.911423 1_455
Eu0_0 Yb0_3 3.911423 1_544
Eu0_0 Yb0_5 3.911423 1_454
Eu0_1 Eu0_4 3.887419 1_456
Eu0_1 Eu0_2 3.887419 1_555
Eu0_1 Eu0_2 3.887419 1_546
Eu0_1 Eu0_4 3.887419 1_555
Eu0_1 Eu0_7 3.887420 1_545
Eu0_1 Eu0_7 3.887420 1_455
Eu0_1 Yb0_7 3.911423 1_445
Eu0_1 Yb0_0 3.911423 1_555
Eu0_1 Yb0_3 3.911423 1_545
Eu0_1 Yb0_5 3.911423 1_455
Eu0_1 Yb0_2 3.911423 1_545
Eu0_1 Yb0_4 3.911423 1_455
Eu0_2 Eu0_7 3.887419 1_554
Eu0_2 Eu0_7 3.887419 1_455
Eu0_2 Eu0_4 3.887420 1_465
Eu0_2 Eu0_4 3.887420 1_555
Eu0_2 Yb0_3 3.911423 1_554
Eu0_2 Yb0_4 3.911423 1_455
Eu0_2 Yb0_6 3.911423 1_455
Eu0_2 Yb0_7 3.911423 1_454
Eu0_2 Yb0_0 3.911423 1_555
Eu0_2 Yb0_1 3.911423 1_554
Eu0_3 Eu0_6 3.887419 1_556
Eu0_3 Eu0_6 3.887419 1_655
Eu0_3 Eu0_5 3.887420 1_555
Eu0_3 Eu0_5 3.887420 1_645
Eu0_3 Yb0_5 3.911423 1_555
Eu0_3 Yb0_2 3.911423 1_655
Eu0_3 Yb0_0 3.911423 1_655
Eu0_3 Yb0_6 3.911423 1_555
Eu0_3 Yb0_1 3.911423 1_655
Eu0_3 Yb0_7 3.911423 1_555
Eu0_4 Eu0_7 3.887419 1_554
Eu0_4 Eu0_7 3.887419 1_545
Eu0_4 Yb0_5 3.911423 1_554
Eu0_4 Yb0_2 3.911423 1_545
Eu0_4 Yb0_7 3.911423 1_544
Eu0_4 Yb0_6 3.911423 1_545
Eu0_4 Yb0_0 3.911423 1_555
Eu0_4 Yb0_1 3.911423 1_554
Eu0_5 Eu0_6 3.887419 1_556
Eu0_5 Eu0_6 3.887419 1_565
Eu0_5 Yb0_3 3.911423 1_555
Eu0_5 Yb0_4 3.911423 1_565
Eu0_5 Yb0_0 3.911423 1_565
Eu0_5 Yb0_6 3.911423 1_555
Eu0_5 Yb0_1 3.911423 1_565
Eu0_5 Yb0_7 3.911423 1_555
Eu0_6 Yb0_0 3.911423 1_555
Eu0_6 Yb0_7 3.911423 1_554
Eu0_6 Yb0_2 3.911423 1_555
Eu0_6 Yb0_4 3.911423 1_555
Eu0_6 Yb0_3 3.911423 1_554
Eu0_6 Yb0_5 3.911423 1_554
Eu0_7 Yb0_6 3.911423 1_555
Eu0_7 Yb0_1 3.911423 1_555
Eu0_7 Yb0_5 3.911423 1_555
Eu0_7 Yb0_3 3.911423 1_555
Eu0_7 Yb0_4 3.911423 1_555
Eu0_7 Yb0_2 3.911423 1_555
