# generated using pymatgen
data_K4Gd2C3O9F4
_symmetry_space_group_name_H-M   'P 1'
_cell_length_a   7.00925863
_cell_length_b   7.00925863
_cell_length_c   7.06114690
_cell_angle_alpha   81.40163060
_cell_angle_beta   81.40163060
_cell_angle_gamma   81.12830056
_symmetry_Int_Tables_number   1
_chemical_formula_structural   K4Gd2C3O9F4
_chemical_formula_sum   'K4 Gd2 C3 O9 F4'
_cell_volume   336.05828316
_cell_formula_units_Z   1
loop_
 _symmetry_equiv_pos_site_id
 _symmetry_equiv_pos_as_xyz
  1  'x, y, z'
loop_
 _atom_site_type_symbol
 _atom_site_label
 _atom_site_symmetry_multiplicity
 _atom_site_fract_x
 _atom_site_fract_y
 _atom_site_fract_z
 _atom_site_occupancy
  K  K0  1  0.87218500  0.50279900  0.12013800  1
  K  K1  1  0.13487000  0.86513000  0.50000000  1
  K  K2  1  0.49720100  0.12781500  0.87986200  1
  K  K3  1  0.99886400  0.00113600  0.00000000  1
  Gd  Gd0  1  0.35158300  0.36005600  0.35587200  1
  Gd  Gd1  1  0.63994400  0.64841700  0.64412800  1
  C  C0  1  0.65000900  0.00709200  0.36285200  1
  C  C1  1  0.35617000  0.64383000  0.00000000  1
  C  C2  1  0.99290800  0.34999100  0.63714800  1
  O  O0  1  0.13095100  0.20639600  0.63614100  1
  O  O1  1  0.64506100  0.15771500  0.23021400  1
  O  O2  1  0.21779100  0.64506900  0.14516600  1
  O  O3  1  0.35493100  0.78220900  0.85483400  1
  O  O4  1  0.79360400  0.86904900  0.36385900  1
  O  O5  1  0.84228500  0.35493900  0.76978600  1
  O  O6  1  0.50249600  0.99852900  0.50017400  1
  O  O7  1  0.49802400  0.50197600  0.00000000  1
  O  O8  1  0.00147100  0.49750400  0.49982600  1
  F  F0  1  0.19333600  0.19466500  0.19440200  1
  F  F1  1  0.80533500  0.80666400  0.80559800  1
  F  F2  1  0.56319000  0.59200700  0.35047100  1
  F  F3  1  0.40799300  0.43680900  0.64952900  1
loop_
_geom_bond_atom_site_label_1
_geom_bond_atom_site_label_2
_geom_bond_distance
_geom_bond_site_symmetry_2
K0 O2 2.796371 1_655
K0 O5 2.868242 1_554
K0 O7 2.875591 1_555
K0 O8 2.949043 1_655
K0 O1 3.040490 1_555
K0 O4 3.233684 1_555
K1 O0 2.702972 1_565
K1 O4 2.702972 1_455
K1 O8 2.873769 1_555
K1 O6 2.873769 1_555
K1 O2 3.072190 1_555
K1 O3 3.072190 1_555
K2 O3 2.796371 1_545
K2 O1 2.868242 1_556
K2 O7 2.875591 1_556
K2 O6 2.949043 1_545
K2 O5 3.040490 1_555
K2 O0 3.233684 1_555
K3 O0 2.849997 1_654
K3 O4 2.849997 1_545
K3 O2 2.856289 1_645
K3 O3 2.856289 1_644
K3 O1 2.912981 1_555
K3 O5 2.912981 1_554
Gd0 O1 2.441495 1_555
Gd0 O2 2.456539 1_555
Gd0 O0 2.535621 1_555
Gd0 O8 2.607937 1_555
Gd0 O7 2.674669 1_555
Gd0 O6 2.702209 1_545
Gd1 O5 2.441495 1_555
Gd1 O3 2.456539 1_555
Gd1 O4 2.535621 1_555
Gd1 O6 2.607937 1_555
Gd1 O7 2.674669 1_556
Gd1 O8 2.702209 1_655
C0 O4 1.284130 1_545
C0 O1 1.302211 1_555
C0 O6 1.309521 1_545
C1 O7 1.293173 1_555
C1 O2 1.301664 1_555
C1 O3 1.301664 1_554
C2 O0 1.284130 1_655
C2 O5 1.302211 1_555
C2 O8 1.309521 1_655
F0 Gd0 2.245925 1_555
F0 K3 2.696117 1_455
F0 K2 2.877095 1_554
F0 K0 2.919168 1_455
F0 K1 2.949015 1_545
F1 Gd1 2.245925 1_555
F1 K3 2.696117 1_566
F1 K0 2.877095 1_556
F1 K2 2.919168 1_565
F1 K1 2.949015 1_655
F2 Gd1 2.321579 1_555
F2 Gd0 2.356466 1_555
F2 K0 2.561268 1_555
F3 Gd0 2.321576 1_555
F3 Gd1 2.356471 1_555
F3 K2 2.561263 1_555
