# generated using pymatgen
data_Ta2H4O7
_symmetry_space_group_name_H-M   'P 1'
_cell_length_a   8.20912231
_cell_length_b   7.56679037
_cell_length_c   7.36954895
_cell_angle_alpha   66.66497243
_cell_angle_beta   57.81777783
_cell_angle_gamma   55.51724974
_symmetry_Int_Tables_number   1
_chemical_formula_structural   Ta2H4O7
_chemical_formula_sum   'Ta4 H8 O14'
_cell_volume   316.41755506
_cell_formula_units_Z   2
loop_
 _symmetry_equiv_pos_site_id
 _symmetry_equiv_pos_as_xyz
  1  'x, y, z'
loop_
 _atom_site_type_symbol
 _atom_site_label
 _atom_site_symmetry_multiplicity
 _atom_site_fract_x
 _atom_site_fract_y
 _atom_site_fract_z
 _atom_site_occupancy
  Ta  Ta0  1  0.27539500  0.50062400  0.79412400  1
  Ta  Ta1  1  0.74937600  0.97460500  0.82014300  1
  Ta  Ta2  1  0.79412400  0.42985700  0.27539500  1
  Ta  Ta3  1  0.82014300  0.45587600  0.74937600  1
  H  H0  1  0.62014100  0.87985900  0.62014100  1
  H  H1  1  0.46314900  0.04409400  0.24602000  1
  H  H2  1  0.24602000  0.24673700  0.46314900  1
  H  H3  1  0.37014100  0.62985900  0.37014100  1
  H  H4  1  0.00326300  0.00398000  0.20590600  1
  H  H5  1  0.20590600  0.78685100  0.00326300  1
  H  H6  1  0.23013700  0.26986300  0.23013700  1
  H  H7  1  0.98013700  0.01986300  0.98013700  1
  O  O0  1  0.04590200  0.75708700  0.71740200  1
  O  O1  1  0.71740200  0.47960900  0.04590200  1
  O  O2  1  0.07394500  0.42605500  0.07394500  1
  O  O3  1  0.70554600  0.79445400  0.70554600  1
  O  O4  1  0.64650400  0.88133000  0.10989300  1
  O  O5  1  0.10989300  0.36227300  0.64650400  1
  O  O6  1  0.49291300  0.20409800  0.77039100  1
  O  O7  1  0.77039100  0.53259800  0.49291300  1
  O  O8  1  0.45554600  0.54445400  0.45554600  1
  O  O9  1  0.82394500  0.17605500  0.82394500  1
  O  O10  1  0.88772700  0.14010700  0.36867000  1
  O  O11  1  0.36867000  0.60349600  0.88772700  1
  O  O12  1  0.31780800  0.18219200  0.31780800  1
  O  O13  1  0.06780800  0.93219200  0.06780800  1
loop_
_geom_bond_atom_site_label_1
_geom_bond_atom_site_label_2
_geom_bond_distance
_geom_bond_site_symmetry_2
H0 O3 0.969590 1_555
H1 O12 1.072012 1_555
H1 O4 1.435294 1_545
H2 O12 1.072012 1_555
H2 O5 1.435294 1_555
H3 O8 0.969590 1_555
H4 O13 1.072012 1_545
H4 O10 1.435294 1_455
H5 O13 1.072012 1_555
H5 O11 1.435294 1_554
H6 O12 0.995316 1_555
H7 O13 0.995316 1_646
O0 Ta1 1.922254 1_455
O0 Ta0 1.939214 1_555
O1 Ta3 1.922254 1_554
O1 Ta2 1.939214 1_555
O2 Ta2 1.951352 1_455
O2 Ta0 1.951352 1_554
O3 Ta1 2.119431 1_555
O3 Ta3 2.119431 1_555
O4 Ta1 1.825102 1_554
O5 Ta3 1.825102 1_455
O6 Ta0 1.922254 1_555
O6 Ta1 1.939214 1_545
O7 Ta2 1.922254 1_555
O7 Ta3 1.939214 1_555
O8 Ta2 2.119431 1_555
O8 Ta0 2.119431 1_555
O9 Ta3 1.951352 1_555
O9 Ta1 1.951352 1_545
O10 Ta2 1.825102 1_555
O11 Ta0 1.825102 1_555
