# generated using pymatgen
data_LiIn(TeMo)6
_symmetry_space_group_name_H-M   'P 1'
_cell_length_a   10.05162560
_cell_length_b   10.05162560
_cell_length_c   4.60593700
_cell_angle_alpha   90.00000000
_cell_angle_beta   90.00000000
_cell_angle_gamma   119.99999735
_symmetry_Int_Tables_number   1
_chemical_formula_structural   LiIn(TeMo)6
_chemical_formula_sum   'Li1 In1 Te6 Mo6'
_cell_volume   403.01503089
_cell_formula_units_Z   1
loop_
 _symmetry_equiv_pos_site_id
 _symmetry_equiv_pos_as_xyz
  1  'x, y, z'
loop_
 _atom_site_type_symbol
 _atom_site_label
 _atom_site_symmetry_multiplicity
 _atom_site_fract_x
 _atom_site_fract_y
 _atom_site_fract_z
 _atom_site_occupancy
  Li  Li0  1  0.00000000  0.00000000  0.50000000  1
  In  In0  1  0.66666700  0.33333300  0.00000000  1
  Te  Te0  1  0.03267800  0.31549900  0.50000000  1
  Te  Te1  1  0.68450100  0.71717900  0.50000000  1
  Te  Te2  1  0.28282100  0.96732200  0.50000000  1
  Te  Te3  1  0.63779200  0.00811600  0.00000000  1
  Te  Te4  1  0.99188400  0.62967700  0.00000000  1
  Te  Te5  1  0.37032300  0.36220800  0.00000000  1
  Mo  Mo0  1  0.35460400  0.52493100  0.50000000  1
  Mo  Mo1  1  0.47506900  0.82967300  0.50000000  1
  Mo  Mo2  1  0.17032700  0.64539600  0.50000000  1
  Mo  Mo3  1  0.31446400  0.81020600  0.00000000  1
  Mo  Mo4  1  0.18979400  0.50425800  0.00000000  1
  Mo  Mo5  1  0.49574200  0.68553600  0.00000000  1
loop_
_geom_bond_atom_site_label_1
_geom_bond_atom_site_label_2
_geom_bond_distance
_geom_bond_site_symmetry_2
Li0 Te2 3.020469 1_545
Li0 Te0 3.020469 1_555
Li0 Te1 3.020469 1_445
In0 Te3 3.133935 1_555
In0 Te4 3.133944 1_555
In0 Te5 3.133955 1_555
Mo0 Mo2 2.672084 1_555
Mo0 Mo1 2.672084 1_555
Mo0 Mo5 2.762637 1_555
Mo0 Mo5 2.762637 1_556
Mo0 Mo4 2.783335 1_555
Mo0 Mo4 2.783335 1_556
Mo0 Te0 2.844388 1_555
Mo0 Te5 2.874430 1_556
Mo0 Te5 2.874430 1_555
Mo0 Te1 2.884822 1_555
Mo1 Mo2 2.672084 1_555
Mo1 Mo3 2.762637 1_555
Mo1 Mo3 2.762637 1_556
Mo1 Mo5 2.783335 1_555
Mo1 Mo5 2.783335 1_556
Mo1 Te1 2.844388 1_555
Mo1 Te3 2.874434 1_565
Mo1 Te3 2.874434 1_566
Mo1 Te2 2.884822 1_555
Mo2 Mo4 2.762637 1_556
Mo2 Mo4 2.762637 1_555
Mo2 Mo3 2.783336 1_556
Mo2 Mo3 2.783336 1_555
Mo2 Te2 2.844388 1_555
Mo2 Te4 2.874436 1_455
Mo2 Te4 2.874436 1_456
Mo2 Te0 2.884822 1_555
Mo3 Mo5 2.678419 1_555
Mo3 Mo4 2.678419 1_555
Mo3 Te4 2.814698 1_455
Mo3 Te3 2.838041 1_565
Mo3 Te2 2.898488 1_554
Mo3 Te2 2.898488 1_555
Mo4 Mo5 2.678419 1_555
Mo4 Te5 2.814690 1_555
Mo4 Te4 2.838049 1_455
Mo4 Te0 2.898488 1_554
Mo4 Te0 2.898488 1_555
Mo5 Te3 2.814699 1_565
Mo5 Te5 2.838040 1_555
Mo5 Te1 2.898488 1_554
Mo5 Te1 2.898488 1_555
