# generated using pymatgen
data_NdCd6
_symmetry_space_group_name_H-M   'P 1'
_cell_length_a   13.80089371
_cell_length_b   13.80089371
_cell_length_c   13.80089371
_cell_angle_alpha   110.35186426
_cell_angle_beta   109.74599326
_cell_angle_gamma   108.32246025
_symmetry_Int_Tables_number   1
_chemical_formula_structural   NdCd6
_chemical_formula_sum   'Nd12 Cd72'
_cell_volume   2022.81749848
_cell_formula_units_Z   12
loop_
 _symmetry_equiv_pos_site_id
 _symmetry_equiv_pos_as_xyz
  1  'x, y, z'
loop_
 _atom_site_type_symbol
 _atom_site_label
 _atom_site_symmetry_multiplicity
 _atom_site_fract_x
 _atom_site_fract_y
 _atom_site_fract_z
 _atom_site_occupancy
  Nd  Nd0  1  0.80397600  0.50646500  0.70248800  1
  Nd  Nd1  1  0.19602400  0.49353500  0.29751200  1
  Nd  Nd2  1  0.19602400  0.89851200  0.70248800  1
  Nd  Nd3  1  0.80397600  0.10148800  0.29751200  1
  Nd  Nd4  1  0.10994300  0.30140200  0.80854100  1
  Nd  Nd5  1  0.89005700  0.69859800  0.19145900  1
  Nd  Nd6  1  0.49286100  0.30140200  0.19145900  1
  Nd  Nd7  1  0.50713900  0.69859800  0.80854100  1
  Nd  Nd8  1  0.29777300  0.18885500  0.48662900  1
  Nd  Nd9  1  0.70222700  0.81114500  0.51337100  1
  Nd  Nd10  1  0.29777300  0.81114500  0.10891800  1
  Nd  Nd11  1  0.70222700  0.18885500  0.89108200  1
  Cd  Cd0  1  0.99822700  0.67711700  0.00002600  1
  Cd  Cd1  1  0.32291000  0.32288300  0.32111100  1
  Cd  Cd2  1  0.00177300  0.00179900  0.67888900  1
  Cd  Cd3  1  0.67709000  0.99820100  0.99997400  1
  Cd  Cd4  1  0.00177300  0.32288300  0.99997400  1
  Cd  Cd5  1  0.67709000  0.67711700  0.67888900  1
  Cd  Cd6  1  0.99822700  0.99820100  0.32111100  1
  Cd  Cd7  1  0.32291000  0.00179900  0.00002600  1
  Cd  Cd8  1  0.77276600  0.45296400  0.91490700  1
  Cd  Cd9  1  0.46194300  0.54703600  0.31980200  1
  Cd  Cd10  1  0.22723400  0.14214100  0.68019800  1
  Cd  Cd11  1  0.53805700  0.85785900  0.08509300  1
  Cd  Cd12  1  0.86008200  0.08947500  0.54817800  1
  Cd  Cd13  1  0.13991800  0.68809600  0.22939300  1
  Cd  Cd14  1  0.54129700  0.31190400  0.45182200  1
  Cd  Cd15  1  0.45870300  0.91052500  0.77060700  1
  Cd  Cd16  1  0.31580400  0.45580300  0.54034500  1
  Cd  Cd17  1  0.91545800  0.77545900  0.45965500  1
  Cd  Cd18  1  0.08454200  0.54419700  0.86000100  1
  Cd  Cd19  1  0.68419600  0.22454100  0.13999900  1
  Cd  Cd20  1  0.22723400  0.54703600  0.08509300  1
  Cd  Cd21  1  0.53805700  0.45296400  0.68019800  1
  Cd  Cd22  1  0.77276600  0.85785900  0.31980200  1
  Cd  Cd23  1  0.46194300  0.14214100  0.91490700  1
  Cd  Cd24  1  0.13991800  0.91052500  0.45182200  1
  Cd  Cd25  1  0.86008200  0.31190400  0.77060700  1
  Cd  Cd26  1  0.45870300  0.68809600  0.54817800  1
  Cd  Cd27  1  0.54129700  0.08947500  0.22939300  1
  Cd  Cd28  1  0.68419600  0.54419700  0.45965500  1
  Cd  Cd29  1  0.08454200  0.22454100  0.54034500  1
  Cd  Cd30  1  0.91545800  0.45580300  0.13999900  1
  Cd  Cd31  1  0.31580400  0.77545900  0.86000100  1
  Cd  Cd32  1  0.74393800  0.64820700  0.90426900  1
  Cd  Cd33  1  0.25606200  0.35179300  0.09573100  1
  Cd  Cd34  1  0.25606200  0.16033100  0.90426900  1
  Cd  Cd35  1  0.74393800  0.83966900  0.09573100  1
  Cd  Cd36  1  0.85503300  0.09017600  0.76485700  1
  Cd  Cd37  1  0.14496700  0.90982400  0.23514300  1
  Cd  Cd38  1  0.32531900  0.09017600  0.23514300  1
  Cd  Cd39  1  0.67468100  0.90982400  0.76485700  1
  Cd  Cd40  1  0.09471600  0.24187100  0.33658700  1
  Cd  Cd41  1  0.90528400  0.75812900  0.66341300  1
  Cd  Cd42  1  0.09471600  0.75812900  0.85284500  1
  Cd  Cd43  1  0.90528400  0.24187100  0.14715500  1
  Cd  Cd44  1  0.59677400  0.24377600  0.64700300  1
  Cd  Cd45  1  0.40322600  0.75622400  0.35299700  1
  Cd  Cd46  1  0.40322600  0.05022900  0.64700300  1
  Cd  Cd47  1  0.59677400  0.94977100  0.35299700  1
  Cd  Cd48  1  0.94777200  0.35235000  0.59542300  1
  Cd  Cd49  1  0.05222800  0.64765000  0.40457700  1
  Cd  Cd50  1  0.75692700  0.35235000  0.40457700  1
  Cd  Cd51  1  0.24307300  0.64765000  0.59542300  1
  Cd  Cd52  1  0.34946700  0.40363000  0.75309700  1
  Cd  Cd53  1  0.65053300  0.59637000  0.24690300  1
  Cd  Cd54  1  0.34946700  0.59637000  0.94583700  1
  Cd  Cd55  1  0.65053300  0.40363000  0.05416300  1
  Cd  Cd56  1  0.59200100  0.59200100  0.00000000  1
  Cd  Cd57  1  0.40799900  0.40799900  0.00000000  1
  Cd  Cd58  1  0.59613600  0.00000000  0.59613600  1
  Cd  Cd59  1  0.40386400  0.00000000  0.40386400  1
  Cd  Cd60  1  0.00000000  0.40465100  0.40465100  1
  Cd  Cd61  1  0.00000000  0.59534900  0.59534900  1
  Cd  Cd62  1  0.50000000  0.30278100  0.80278100  1
  Cd  Cd63  1  0.50000000  0.69721900  0.19721900  1
  Cd  Cd64  1  0.69844900  0.19844900  0.50000000  1
  Cd  Cd65  1  0.30155100  0.80155100  0.50000000  1
  Cd  Cd66  1  0.19278000  0.50000000  0.69278000  1
  Cd  Cd67  1  0.80722000  0.50000000  0.30722000  1
  Cd  Cd68  1  0.91537200  0.82124000  0.90586700  1
  Cd  Cd69  1  0.08462800  0.17876000  0.09413300  1
  Cd  Cd70  1  0.08462800  0.99049500  0.90586700  1
  Cd  Cd71  1  0.91537200  0.00950500  0.09413300  1
loop_
_geom_bond_atom_site_label_1
_geom_bond_atom_site_label_2
_geom_bond_distance
_geom_bond_site_symmetry_2
Cd0 Cd18 2.997022 1_654
Cd0 Cd13 3.027296 1_655
Cd0 Cd37 3.027601 1_655
Cd0 Cd68 3.029221 1_554
Cd0 Cd8 3.095503 1_554
Cd0 Cd42 3.101676 1_654
Cd0 Cd32 3.136998 1_554
Cd0 Nd0 3.385330 1_554
Cd0 Nd5 3.419764 1_555
Cd0 Nd10 3.439585 1_655
Cd1 Cd16 2.997019 1_555
Cd1 Cd14 3.027281 1_555
Cd1 Cd38 3.027595 1_555
Cd1 Cd69 3.029221 1_555
Cd1 Cd9 3.095506 1_555
Cd1 Cd40 3.101682 1_555
Cd1 Cd33 3.137011 1_555
Cd1 Nd1 3.385330 1_555
Cd1 Nd6 3.419762 1_555
Cd1 Nd8 3.439587 1_555
Cd2 Cd36 3.027607 1_455
Cd2 Cd70 3.029221 1_545
Cd2 Cd41 3.101682 1_445
Cd2 Cd34 3.137004 1_555
Cd2 Nd2 3.385330 1_545
Cd2 Nd4 3.419764 1_555
Cd2 Nd9 3.439585 1_445
Cd3 Cd39 3.027607 1_555
Cd3 Cd71 3.029221 1_566
Cd3 Cd43 3.101682 1_566
Cd3 Cd35 3.137004 1_556
Cd3 Nd3 3.385330 1_566
Cd3 Nd7 3.419764 1_555
Cd3 Nd11 3.439585 1_565
Cd4 Cd69 3.029221 1_556
Cd4 Cd43 3.101676 1_456
Cd4 Nd1 3.385330 1_556
Cd4 Nd4 3.419764 1_555
Cd4 Nd11 3.439585 1_455
Cd5 Cd68 3.029221 1_555
Cd5 Nd0 3.385330 1_555
Cd5 Nd7 3.419762 1_555
Cd5 Nd9 3.439587 1_555
Cd6 Cd71 3.029221 1_565
Cd6 Nd3 3.385330 1_565
Cd6 Nd5 3.419764 1_555
Cd6 Nd8 3.439585 1_665
Cd7 Cd70 3.029221 1_544
Cd7 Nd2 3.385330 1_544
Cd7 Nd6 3.419764 1_555
Cd7 Nd10 3.439585 1_545
Cd8 Nd11 3.325739 1_555
Cd8 Nd0 3.388757 1_555
Cd8 Nd5 3.472014 1_556
Cd9 Nd9 3.325738 1_555
Cd9 Nd1 3.388748 1_555
Cd9 Nd6 3.472014 1_555
Cd10 Cd34 2.889642 1_555
Cd10 Cd29 3.043513 1_555
Cd10 Cd52 3.062921 1_555
Cd10 Cd2 3.095495 1_555
Cd10 Cd24 3.099639 1_545
Cd10 Cd62 3.128694 1_555
Cd10 Cd46 3.162736 1_555
Cd10 Nd8 3.325726 1_555
Cd10 Nd2 3.388750 1_545
Cd10 Nd4 3.472014 1_555
Cd11 Cd35 2.889642 1_555
Cd11 Cd31 3.043513 1_554
Cd11 Cd54 3.062921 1_554
Cd11 Cd3 3.095495 1_554
Cd11 Cd27 3.099639 1_565
Cd11 Cd63 3.128694 1_555
Cd11 Cd47 3.162736 1_555
Cd11 Nd10 3.325739 1_555
Cd11 Nd3 3.388750 1_565
Cd11 Nd7 3.472014 1_554
Cd12 Cd36 3.011366 1_555
Cd12 Cd2 3.027289 1_655
Cd12 Cd64 3.079364 1_555
Cd12 Cd47 3.089779 1_545
Cd12 Cd22 3.099639 1_545
Cd12 Cd29 3.133418 1_655
Cd12 Cd48 3.180012 1_555
Cd12 Nd3 3.356227 1_555
Cd12 Nd4 3.366464 1_655
Cd12 Nd9 3.532663 1_545
Cd13 Cd37 3.011366 1_555
Cd13 Cd65 3.079364 1_555
Cd13 Cd45 3.089776 1_555
Cd13 Cd20 3.099639 1_555
Cd13 Cd30 3.133418 1_455
Cd13 Cd49 3.180004 1_555
Cd13 Nd1 3.356241 1_555
Cd13 Nd5 3.366464 1_455
Cd13 Nd10 3.532669 1_555
Cd14 Cd38 3.011366 1_555
Cd14 Cd64 3.079364 1_555
Cd14 Cd44 3.089789 1_555
Cd14 Cd21 3.099639 1_555
Cd14 Cd28 3.133418 1_555
Cd14 Cd50 3.180012 1_555
Cd14 Nd0 3.356229 1_555
Cd14 Nd6 3.366464 1_555
Cd14 Nd8 3.532678 1_555
Cd15 Cd39 3.011366 1_555
Cd15 Cd3 3.027289 1_555
Cd15 Cd65 3.079364 1_555
Cd15 Cd46 3.089779 1_565
Cd15 Cd23 3.099639 1_565
Cd15 Cd31 3.133418 1_555
Cd15 Cd51 3.180012 1_555
Cd15 Nd2 3.356227 1_555
Cd15 Nd7 3.366464 1_555
Cd15 Nd11 3.532669 1_565
Cd16 Cd40 2.949235 1_555
Cd16 Cd21 3.043513 1_555
Cd16 Cd51 3.063005 1_555
Cd16 Cd26 3.133418 1_555
Cd16 Cd66 3.138867 1_555
Cd16 Cd52 3.180330 1_555
Cd16 Nd7 3.332649 1_555
Cd16 Nd8 3.403452 1_555
Cd16 Nd1 3.499548 1_555
Cd17 Cd41 2.949235 1_555
Cd17 Cd2 2.997015 1_665
Cd17 Cd22 3.043513 1_555
Cd17 Cd49 3.063017 1_655
Cd17 Cd24 3.133418 1_655
Cd17 Cd67 3.138867 1_555
Cd17 Cd53 3.180330 1_555
Cd17 Nd5 3.332649 1_555
Cd17 Nd9 3.403444 1_555
Cd17 Nd2 3.499556 1_655
Cd18 Cd42 2.949235 1_555
Cd18 Cd20 3.043513 1_556
Cd18 Cd48 3.063004 1_455
Cd18 Cd25 3.133418 1_455
Cd18 Cd66 3.138867 1_555
Cd18 Cd54 3.180330 1_555
Cd18 Nd4 3.332649 1_555
Cd18 Nd10 3.403450 1_556
Cd18 Nd0 3.499562 1_455
Cd19 Cd43 2.949235 1_555
Cd19 Cd3 2.997015 1_544
Cd19 Cd23 3.043513 1_554
Cd19 Cd50 3.063005 1_555
Cd19 Cd27 3.133418 1_555
Cd19 Cd67 3.138867 1_555
Cd19 Cd55 3.180330 1_555
Cd19 Nd6 3.332649 1_555
Cd19 Nd11 3.403450 1_554
Cd19 Nd3 3.499556 1_555
Cd20 Cd33 2.889642 1_555
Cd20 Cd54 3.062921 1_554
Cd20 Cd4 3.095503 1_554
Cd20 Cd63 3.128694 1_555
Cd20 Cd45 3.162739 1_555
Cd20 Nd10 3.325739 1_555
Cd20 Nd1 3.388757 1_555
Cd20 Nd4 3.472014 1_554
Cd21 Cd32 2.889642 1_555
Cd21 Cd52 3.062921 1_555
Cd21 Cd5 3.095506 1_555
Cd21 Cd62 3.128694 1_555
Cd21 Cd44 3.162749 1_555
Cd21 Nd8 3.325738 1_555
Cd21 Nd0 3.388748 1_555
Cd21 Nd7 3.472014 1_555
Cd22 Cd35 2.889642 1_555
Cd22 Cd53 3.062921 1_555
Cd22 Cd6 3.095495 1_555
Cd22 Cd63 3.128694 1_555
Cd22 Cd47 3.162736 1_555
Cd22 Nd9 3.325726 1_555
Cd22 Nd3 3.388750 1_565
Cd22 Nd5 3.472014 1_555
Cd23 Cd34 2.889642 1_555
Cd23 Cd55 3.062921 1_556
Cd23 Cd7 3.095495 1_556
Cd23 Cd62 3.128694 1_555
Cd23 Cd46 3.162736 1_555
Cd23 Nd11 3.325739 1_555
Cd23 Nd2 3.388750 1_545
Cd23 Nd6 3.472014 1_556
Cd24 Cd37 3.011366 1_555
Cd24 Cd6 3.027289 1_455
Cd24 Cd65 3.079364 1_555
Cd24 Cd46 3.089779 1_565
Cd24 Cd49 3.180012 1_555
Cd24 Nd2 3.356227 1_555
Cd24 Nd5 3.366464 1_455
Cd24 Nd8 3.532663 1_565
Cd25 Cd36 3.011366 1_555
Cd25 Cd4 3.027296 1_655
Cd25 Cd64 3.079364 1_555
Cd25 Cd44 3.089776 1_555
Cd25 Cd8 3.099639 1_555
Cd25 Cd48 3.180004 1_555
Cd25 Nd0 3.356241 1_555
Cd25 Nd4 3.366464 1_655
Cd25 Nd11 3.532669 1_555
Cd26 Cd39 3.011366 1_555
Cd26 Cd5 3.027281 1_555
Cd26 Cd65 3.079364 1_555
Cd26 Cd45 3.089789 1_555
Cd26 Cd9 3.099639 1_555
Cd26 Cd51 3.180012 1_555
Cd26 Nd1 3.356229 1_555
Cd26 Nd7 3.366464 1_555
Cd26 Nd9 3.532678 1_555
Cd27 Cd38 3.011366 1_555
Cd27 Cd7 3.027289 1_555
Cd27 Cd64 3.079364 1_555
Cd27 Cd47 3.089779 1_545
Cd27 Cd50 3.180012 1_555
Cd27 Nd3 3.356227 1_555
Cd27 Nd6 3.366464 1_555
Cd27 Nd10 3.532669 1_545
Cd28 Cd41 2.949235 1_555
Cd28 Cd5 2.997019 1_555
Cd28 Cd9 3.043513 1_555
Cd28 Cd50 3.063005 1_555
Cd28 Cd67 3.138867 1_555
Cd28 Cd53 3.180330 1_555
Cd28 Nd6 3.332649 1_555
Cd28 Nd9 3.403452 1_555
Cd28 Nd0 3.499548 1_555
Cd29 Cd40 2.949235 1_555
Cd29 Cd6 2.997015 1_445
Cd29 Cd48 3.063017 1_455
Cd29 Cd66 3.138867 1_555
Cd29 Cd52 3.180330 1_555
Cd29 Nd4 3.332649 1_555
Cd29 Nd8 3.403444 1_555
Cd29 Nd3 3.499556 1_455
Cd30 Cd43 2.949235 1_555
Cd30 Cd4 2.997022 1_654
Cd30 Cd8 3.043513 1_554
Cd30 Cd49 3.063004 1_655
Cd30 Cd67 3.138867 1_555
Cd30 Cd55 3.180330 1_555
Cd30 Nd5 3.332649 1_555
Cd30 Nd11 3.403450 1_554
Cd30 Nd1 3.499562 1_655
Cd31 Cd42 2.949235 1_555
Cd31 Cd7 2.997015 1_566
Cd31 Cd51 3.063005 1_555
Cd31 Cd66 3.138867 1_555
Cd31 Cd54 3.180330 1_555
Cd31 Nd7 3.332649 1_555
Cd31 Nd10 3.403450 1_556
Cd31 Nd2 3.499556 1_555
Cd32 Cd68 2.770671 1_555
Cd32 Cd56 2.882040 1_556
Cd32 Cd8 2.889642 1_555
Cd32 Cd35 3.017869 1_556
Cd32 Cd5 3.137011 1_555
Cd32 Nd0 3.325222 1_555
Cd32 Nd7 3.472715 1_555
Cd32 Nd5 3.472715 1_556
Cd33 Cd69 2.770671 1_555
Cd33 Cd57 2.882040 1_555
Cd33 Cd9 2.889642 1_555
Cd33 Cd34 3.017869 1_554
Cd33 Cd4 3.136998 1_554
Cd33 Nd1 3.325222 1_555
Cd33 Nd6 3.472715 1_555
Cd33 Nd4 3.472715 1_554
Cd34 Cd70 2.770663 1_545
Cd34 Cd57 2.882040 1_556
Cd34 Cd7 3.137004 1_556
Cd34 Nd2 3.325227 1_545
Cd34 Nd4 3.472715 1_555
Cd34 Nd6 3.472715 1_556
Cd35 Cd71 2.770663 1_565
Cd35 Cd56 2.882040 1_555
Cd35 Cd6 3.137004 1_555
Cd35 Nd3 3.325227 1_565
Cd35 Nd5 3.472715 1_555
Cd35 Nd7 3.472715 1_554
Cd36 Cd39 2.914673 1_545
Cd36 Cd4 3.027601 1_655
Cd36 Cd58 3.050256 1_555
Cd36 Nd11 3.460406 1_555
Cd36 Nd9 3.460412 1_545
Cd36 Nd4 3.483416 1_655
Cd37 Cd38 2.914673 1_565
Cd37 Cd6 3.027607 1_455
Cd37 Cd59 3.050256 1_565
Cd37 Nd10 3.460406 1_555
Cd37 Nd8 3.460412 1_565
Cd37 Nd5 3.483416 1_455
Cd38 Cd7 3.027607 1_555
Cd38 Cd59 3.050256 1_555
Cd38 Nd10 3.460406 1_545
Cd38 Nd8 3.460419 1_555
Cd38 Nd6 3.483416 1_555
Cd39 Cd5 3.027595 1_555
Cd39 Cd58 3.050256 1_565
Cd39 Nd11 3.460406 1_565
Cd39 Nd9 3.460419 1_555
Cd39 Nd7 3.483416 1_555
Cd40 Cd60 2.974225 1_555
Cd40 Cd43 3.008524 1_455
Cd40 Cd69 3.091292 1_555
Cd40 Cd71 3.091293 1_455
Cd40 Cd6 3.101682 1_445
Cd40 Nd8 3.331429 1_555
Cd40 Nd1 3.614939 1_555
Cd40 Nd3 3.614952 1_455
Cd41 Cd61 2.974225 1_655
Cd41 Cd42 3.008524 1_655
Cd41 Cd68 3.091292 1_555
Cd41 Cd70 3.091293 1_655
Cd41 Cd5 3.101682 1_555
Cd41 Nd9 3.331429 1_555
Cd41 Nd0 3.614939 1_555
Cd41 Nd2 3.614952 1_655
Cd42 Cd61 2.974225 1_555
Cd42 Cd70 3.091293 1_555
Cd42 Cd68 3.091299 1_455
Cd42 Cd7 3.101682 1_566
Cd42 Nd10 3.331423 1_556
Cd42 Nd0 3.614946 1_455
Cd42 Nd2 3.614952 1_555
Cd43 Cd60 2.974225 1_655
Cd43 Cd71 3.091293 1_555
Cd43 Cd69 3.091299 1_655
Cd43 Nd11 3.331423 1_554
Cd43 Nd1 3.614946 1_655
Cd43 Nd3 3.614952 1_555
Cd44 Cd64 2.840587 1_555
Cd44 Cd62 2.911192 1_555
Cd44 Cd46 3.127925 1_555
Cd44 Cd8 3.162739 1_555
Cd44 Cd58 3.185279 1_555
Cd44 Cd59 3.185286 1_555
Cd44 Nd0 3.460939 1_555
Cd44 Nd11 3.632675 1_555
Cd44 Nd8 3.632687 1_555
Cd45 Cd65 2.840587 1_555
Cd45 Cd63 2.911192 1_555
Cd45 Cd47 3.127925 1_555
Cd45 Cd9 3.162749 1_555
Cd45 Cd59 3.185279 1_565
Cd45 Cd58 3.185286 1_565
Cd45 Nd1 3.460939 1_555
Cd45 Nd10 3.632675 1_555
Cd45 Nd9 3.632687 1_555
Cd46 Cd65 2.840589 1_545
Cd46 Cd62 2.911190 1_555
Cd46 Cd59 3.185292 1_555
Cd46 Cd58 3.185292 1_555
Cd46 Nd2 3.460920 1_545
Cd46 Nd8 3.632675 1_555
Cd46 Nd11 3.632684 1_555
Cd47 Cd64 2.840589 1_565
Cd47 Cd63 2.911190 1_555
Cd47 Cd58 3.185292 1_565
Cd47 Cd59 3.185292 1_565
Cd47 Nd3 3.460920 1_565
Cd47 Nd9 3.632675 1_555
Cd47 Nd10 3.632684 1_555
Cd48 Cd66 2.843351 1_655
Cd48 Cd64 2.912524 1_555
Cd48 Cd50 3.030973 1_555
Cd48 Cd61 3.201450 1_655
Cd48 Cd60 3.201457 1_655
Cd48 Nd4 3.483415 1_655
Cd48 Nd0 3.618642 1_555
Cd48 Nd3 3.618647 1_555
Cd49 Cd67 2.843351 1_455
Cd49 Cd65 2.912524 1_555
Cd49 Cd51 3.030973 1_555
Cd49 Cd60 3.201450 1_555
Cd49 Cd61 3.201457 1_555
Cd49 Nd5 3.483415 1_455
Cd49 Nd1 3.618642 1_555
Cd49 Nd2 3.618647 1_555
Cd50 Cd67 2.843340 1_555
Cd50 Cd64 2.912535 1_555
Cd50 Cd60 3.201451 1_655
Cd50 Cd61 3.201451 1_655
Cd50 Nd6 3.483409 1_555
Cd50 Nd3 3.618645 1_555
Cd50 Nd0 3.618647 1_555
Cd51 Cd66 2.843340 1_555
Cd51 Cd65 2.912535 1_555
Cd51 Cd60 3.201451 1_555
Cd51 Cd61 3.201451 1_555
Cd51 Nd7 3.483409 1_555
Cd51 Nd2 3.618645 1_555
Cd51 Nd1 3.618647 1_555
Cd52 Cd62 2.870970 1_555
Cd52 Cd66 2.915456 1_555
Cd52 Cd54 3.038013 1_555
Cd52 Cd56 3.199011 1_556
Cd52 Cd57 3.199011 1_556
Cd52 Nd8 3.483454 1_555
Cd52 Nd4 3.609854 1_555
Cd52 Nd7 3.609854 1_555
Cd53 Cd63 2.870970 1_555
Cd53 Cd67 2.915456 1_555
Cd53 Cd55 3.038013 1_555
Cd53 Cd9 3.062921 1_555
Cd53 Cd56 3.199011 1_555
Cd53 Cd57 3.199011 1_555
Cd53 Nd9 3.483454 1_555
Cd53 Nd6 3.609854 1_555
Cd53 Nd5 3.609854 1_555
Cd54 Cd63 2.870970 1_556
Cd54 Cd66 2.915456 1_555
Cd54 Cd56 3.199011 1_556
Cd54 Cd57 3.199011 1_556
Cd54 Nd10 3.483463 1_556
Cd54 Nd4 3.609854 1_555
Cd54 Nd7 3.609854 1_555
Cd55 Cd62 2.870970 1_554
Cd55 Cd67 2.915456 1_555
Cd55 Cd8 3.062921 1_554
Cd55 Cd56 3.199011 1_555
Cd55 Cd57 3.199011 1_555
Cd55 Nd11 3.483463 1_554
Cd55 Nd6 3.609854 1_555
Cd55 Nd5 3.609854 1_555
Cd56 Cd57 2.973660 1_555
Cd56 Cd62 3.445886 1_554
Cd56 Cd63 3.445886 1_555
Cd56 Nd5 3.494811 1_555
Cd56 Nd7 3.494811 1_554
Cd57 Cd62 3.445886 1_554
Cd57 Cd63 3.445886 1_555
Cd57 Nd4 3.494811 1_554
Cd57 Nd6 3.494811 1_555
Cd58 Cd59 3.053628 1_555
Cd58 Nd11 3.420548 1_555
Cd58 Nd9 3.420551 1_545
Cd59 Nd10 3.420548 1_545
Cd59 Nd8 3.420551 1_555
Cd60 Cd61 3.005826 1_555
Cd60 Cd67 3.410679 1_455
Cd60 Cd66 3.410679 1_555
Cd60 Nd1 3.589951 1_555
Cd60 Nd3 3.589954 1_455
Cd61 Cd67 3.410679 1_455
Cd61 Cd66 3.410679 1_555
Cd61 Nd0 3.589951 1_455
Cd61 Nd2 3.589954 1_555
Cd62 Cd8 3.128694 1_555
Cd62 Nd8 3.679644 1_555
Cd62 Nd11 3.679655 1_555
Cd63 Cd9 3.128694 1_555
Cd63 Nd9 3.679644 1_555
Cd63 Nd10 3.679655 1_555
Cd64 Nd3 3.618727 1_555
Cd64 Nd0 3.618738 1_555
Cd65 Nd2 3.618727 1_555
Cd65 Nd1 3.618738 1_555
Cd66 Nd4 3.698818 1_555
Cd66 Nd7 3.698818 1_555
Cd67 Nd5 3.698818 1_555
Cd67 Nd6 3.698818 1_555
Cd68 Cd70 2.735342 1_655
Cd68 Cd71 2.967485 1_566
Cd68 Nd0 3.676621 1_555
Cd69 Cd71 2.735342 1_455
Cd69 Cd70 2.967485 1_544
Cd69 Nd1 3.676621 1_555
Cd70 Nd2 3.676621 1_555
Cd71 Nd3 3.676621 1_555
