# generated using pymatgen
data_TmRu3C
_symmetry_space_group_name_H-M   'P 1'
_cell_length_a   4.11425196
_cell_length_b   4.11425196
_cell_length_c   4.11425196
_cell_angle_alpha   90.00000000
_cell_angle_beta   90.00000000
_cell_angle_gamma   90.00000000
_symmetry_Int_Tables_number   1
_chemical_formula_structural   TmRu3C
_chemical_formula_sum   'Tm1 Ru3 C1'
_cell_volume   69.64222759
_cell_formula_units_Z   1
loop_
 _symmetry_equiv_pos_site_id
 _symmetry_equiv_pos_as_xyz
  1  'x, y, z'
loop_
 _atom_site_type_symbol
 _atom_site_label
 _atom_site_symmetry_multiplicity
 _atom_site_fract_x
 _atom_site_fract_y
 _atom_site_fract_z
 _atom_site_occupancy
  Tm  Tm0  1  0.50000000  0.50000000  0.50000000  1
  Ru  Ru0  1  0.50000000  -0.00000000  -0.00000000  1
  Ru  Ru1  1  -0.00000000  0.50000000  -0.00000000  1
  Ru  Ru2  1  -0.00000000  0.00000000  0.50000000  1
  C  C0  1  0.00000000  0.00000000  0.00000000  1
loop_
_geom_bond_atom_site_label_1
_geom_bond_atom_site_label_2
_geom_bond_distance
_geom_bond_site_symmetry_2
Ru0 Tm0 2.909215 1_555
Ru0 Tm0 2.909215 1_554
Ru0 Tm0 2.909215 1_544
Ru0 Tm0 2.909215 1_545
Ru1 Tm0 2.909215 1_455
Ru1 Tm0 2.909215 1_555
Ru1 Tm0 2.909215 1_554
Ru1 Tm0 2.909215 1_454
Ru2 Tm0 2.909215 1_455
Ru2 Tm0 2.909215 1_555
Ru2 Tm0 2.909215 1_545
Ru2 Tm0 2.909215 1_445
C0 Ru1 2.057126 1_545
C0 Ru1 2.057126 1_555
C0 Ru0 2.057126 1_555
C0 Ru0 2.057126 1_455
C0 Ru2 2.057126 1_555
C0 Ru2 2.057126 1_554
