# generated using pymatgen
data_YFeNi4
_symmetry_space_group_name_H-M   'P 1'
_cell_length_a   4.94918171
_cell_length_b   4.94918171
_cell_length_c   3.92439800
_cell_angle_alpha   90.00000000
_cell_angle_beta   90.00000000
_cell_angle_gamma   119.99999606
_symmetry_Int_Tables_number   1
_chemical_formula_structural   YFeNi4
_chemical_formula_sum   'Y1 Fe1 Ni4'
_cell_volume   83.24736435
_cell_formula_units_Z   1
loop_
 _symmetry_equiv_pos_site_id
 _symmetry_equiv_pos_as_xyz
  1  'x, y, z'
loop_
 _atom_site_type_symbol
 _atom_site_label
 _atom_site_symmetry_multiplicity
 _atom_site_fract_x
 _atom_site_fract_y
 _atom_site_fract_z
 _atom_site_occupancy
  Y  Y0  1  0.66666700  0.33333300  0.00000000  1
  Fe  Fe0  1  0.00000000  0.00000000  0.00000000  1
  Ni  Ni0  1  0.33333300  0.66666700  0.00000000  1
  Ni  Ni1  1  0.66591700  0.83295800  0.50000000  1
  Ni  Ni2  1  0.16704200  0.83295800  0.50000000  1
  Ni  Ni3  1  0.16704200  0.33408300  0.50000000  1
loop_
_geom_bond_atom_site_label_1
_geom_bond_atom_site_label_2
_geom_bond_distance
_geom_bond_site_symmetry_2
Fe0 Ni3 2.429118 1_555
Fe0 Ni1 2.429118 1_444
Fe0 Ni1 2.429118 1_445
Fe0 Ni3 2.429118 1_554
Fe0 Ni2 2.429121 1_544
Fe0 Ni2 2.429121 1_545
Fe0 Y0 2.857408 1_455
Fe0 Ni0 2.857408 1_545
Fe0 Ni0 2.857413 1_445
Fe0 Y0 2.857413 1_555
Fe0 Y0 2.857413 1_445
Fe0 Ni0 2.857413 1_555
Ni0 Ni2 2.425332 1_554
Ni0 Ni2 2.425332 1_555
Ni0 Ni3 2.425337 1_555
Ni0 Ni1 2.425337 1_555
Ni0 Ni3 2.425337 1_554
Ni0 Ni1 2.425337 1_554
Ni0 Y0 2.857409 1_455
Ni0 Y0 2.857409 1_565
Ni0 Y0 2.857417 1_555
Ni1 Ni2 2.469023 1_555
Ni1 Ni3 2.469023 1_555
Ni1 Ni2 2.480159 1_655
Ni1 Ni3 2.480159 1_665
Ni1 Y0 3.158138 1_556
Ni1 Y0 3.158138 1_555
Ni1 Y0 3.158138 1_566
Ni1 Y0 3.158138 1_565
Ni2 Ni3 2.469023 1_555
Ni2 Ni3 2.480159 1_565
Ni2 Y0 3.158138 1_456
Ni2 Y0 3.158138 1_455
Ni2 Y0 3.158138 1_565
Ni2 Y0 3.158138 1_566
Ni3 Y0 3.158138 1_556
Ni3 Y0 3.158138 1_555
Ni3 Y0 3.158138 1_456
Ni3 Y0 3.158138 1_455
