# generated using pymatgen
data_Bi4O5
_symmetry_space_group_name_H-M   'P 1'
_cell_length_a   7.88244637
_cell_length_b   7.88244637
_cell_length_c   5.58849397
_cell_angle_alpha   86.07212417
_cell_angle_beta   86.07212417
_cell_angle_gamma   95.14853704
_symmetry_Int_Tables_number   1
_chemical_formula_structural   Bi4O5
_chemical_formula_sum   'Bi8 O10'
_cell_volume   344.04140047
_cell_formula_units_Z   2
loop_
 _symmetry_equiv_pos_site_id
 _symmetry_equiv_pos_as_xyz
  1  'x, y, z'
loop_
 _atom_site_type_symbol
 _atom_site_label
 _atom_site_symmetry_multiplicity
 _atom_site_fract_x
 _atom_site_fract_y
 _atom_site_fract_z
 _atom_site_occupancy
  Bi  Bi0  1  0.71853500  0.07406000  0.72666800  1
  Bi  Bi1  1  0.77243100  0.55597000  0.74196100  1
  Bi  Bi2  1  0.21042200  0.00425900  0.72097500  1
  Bi  Bi3  1  0.28301500  0.48633300  0.73520900  1
  Bi  Bi4  1  0.48633300  0.28301500  0.23520900  1
  Bi  Bi5  1  0.00425900  0.21042200  0.22097500  1
  Bi  Bi6  1  0.55597000  0.77243100  0.24196100  1
  Bi  Bi7  1  0.07406000  0.71853500  0.22666800  1
  O  O0  1  0.53437300  0.44304000  0.57689700  1
  O  O1  1  0.95753900  0.04138500  0.89740500  1
  O  O2  1  0.04138500  0.95753900  0.39740500  1
  O  O3  1  0.44304000  0.53437300  0.07689700  1
  O  O4  1  0.79507300  0.67303600  0.09037800  1
  O  O5  1  0.30517500  0.72532800  0.47839300  1
  O  O6  1  0.27187300  0.20715300  0.99911400  1
  O  O7  1  0.20715300  0.27187300  0.49911400  1
  O  O8  1  0.72532800  0.30517500  0.97839300  1
  O  O9  1  0.67303600  0.79507300  0.59037800  1
loop_
_geom_bond_atom_site_label_1
_geom_bond_atom_site_label_2
_geom_bond_distance
_geom_bond_site_symmetry_2
Bi0 O1 2.196740 1_555
Bi0 O8 2.375825 1_555
Bi0 O9 2.381203 1_545
Bi1 O4 2.222355 1_556
Bi1 O9 2.240718 1_555
Bi1 O0 2.283495 1_555
Bi1 O8 2.287998 1_555
Bi2 O1 2.214983 1_455
Bi2 O6 2.348015 1_555
Bi2 O2 2.348206 1_545
Bi2 O7 2.375614 1_555
Bi2 O5 2.791798 1_545
Bi3 O0 2.178845 1_555
Bi3 O5 2.274968 1_555
Bi3 O7 2.277797 1_555
Bi3 O3 2.392507 1_556
Bi3 O6 2.555093 1_555
Bi4 O3 2.178845 1_555
Bi4 O8 2.274968 1_554
Bi4 O6 2.277797 1_554
Bi4 O0 2.392507 1_555
Bi4 O7 2.555093 1_555
Bi5 O2 2.214983 1_545
Bi5 O7 2.348015 1_555
Bi5 O1 2.348206 1_454
Bi5 O6 2.375614 1_554
Bi5 O8 2.791798 1_454
Bi6 O9 2.222355 1_555
Bi6 O4 2.240718 1_555
Bi6 O3 2.283495 1_555
Bi6 O5 2.287998 1_555
Bi7 O2 2.196740 1_555
Bi7 O5 2.375825 1_555
Bi7 O4 2.381203 1_455
