# generated using pymatgen
data_Ca(MnN)2
_symmetry_space_group_name_H-M   'P 1'
_cell_length_a   3.26658200
_cell_length_b   3.26658200
_cell_length_c   6.77519900
_cell_angle_alpha   90.00000000
_cell_angle_beta   90.00000000
_cell_angle_gamma   90.00000000
_symmetry_Int_Tables_number   1
_chemical_formula_structural   Ca(MnN)2
_chemical_formula_sum   'Ca1 Mn2 N2'
_cell_volume   72.29515364
_cell_formula_units_Z   1
loop_
 _symmetry_equiv_pos_site_id
 _symmetry_equiv_pos_as_xyz
  1  'x, y, z'
loop_
 _atom_site_type_symbol
 _atom_site_label
 _atom_site_symmetry_multiplicity
 _atom_site_fract_x
 _atom_site_fract_y
 _atom_site_fract_z
 _atom_site_occupancy
  Ca  Ca0  1  0.50000000  0.50000000  0.00000000  1
  Mn  Mn0  1  0.00000000  0.00000000  0.64788600  1
  Mn  Mn1  1  0.00000000  0.00000000  0.35211400  1
  N  N0  1  0.00000000  0.50000000  0.24411500  1
  N  N1  1  0.50000000  0.00000000  0.75588500  1
loop_
_geom_bond_atom_site_label_1
_geom_bond_atom_site_label_2
_geom_bond_distance
_geom_bond_site_symmetry_2
Ca0 N0 2.324460 1_555
Ca0 N0 2.324460 1_655
Ca0 N1 2.324460 1_554
Ca0 N1 2.324460 1_564
Mn0 N1 1.789706 1_555
Mn0 N1 1.789706 1_455
Mn1 N0 1.789706 1_555
Mn1 N0 1.789706 1_545
