# generated using pymatgen
data_Cd
_symmetry_space_group_name_H-M   'P 1'
_cell_length_a   6.18613570
_cell_length_b   6.18613485
_cell_length_c   20.86147392
_cell_angle_alpha   90.00000000
_cell_angle_beta   90.00000000
_cell_angle_gamma   119.99999335
_symmetry_Int_Tables_number   1
_chemical_formula_structural   Cd
_chemical_formula_sum   Cd32
_cell_volume   691.37627981
_cell_formula_units_Z   32
loop_
 _symmetry_equiv_pos_site_id
 _symmetry_equiv_pos_as_xyz
  1  'x, y, z'
loop_
 _atom_site_type_symbol
 _atom_site_label
 _atom_site_symmetry_multiplicity
 _atom_site_fract_x
 _atom_site_fract_y
 _atom_site_fract_z
 _atom_site_occupancy
  Cd  Cd0_0  1  0.00000000  0.00000000  0.00000000  1
  Cd  Cd0_1  1  0.00000000  0.00000000  0.50000000  1
  Cd  Cd0_2  1  0.00000000  0.50000000  0.00000000  1
  Cd  Cd0_3  1  0.00000000  0.50000000  0.50000000  1
  Cd  Cd0_4  1  0.50000000  0.00000000  0.00000000  1
  Cd  Cd0_5  1  0.50000000  0.00000000  0.50000000  1
  Cd  Cd0_6  1  0.50000000  0.50000000  0.00000000  1
  Cd  Cd0_7  1  0.50000000  0.50000000  0.50000000  1
  Cd  Cd1_0  1  0.16666650  0.33333300  0.12500000  1
  Cd  Cd1_1  1  0.16666650  0.33333300  0.62500000  1
  Cd  Cd1_2  1  0.16666650  0.83333300  0.12500000  1
  Cd  Cd1_3  1  0.16666650  0.83333300  0.62500000  1
  Cd  Cd1_4  1  0.66666650  0.33333300  0.12500000  1
  Cd  Cd1_5  1  0.66666650  0.33333300  0.62500000  1
  Cd  Cd1_6  1  0.66666650  0.83333300  0.12500000  1
  Cd  Cd1_7  1  0.66666650  0.83333300  0.62500000  1
  Cd  Cd2_0  1  0.00000000  0.00000000  0.25000000  1
  Cd  Cd2_1  1  0.00000000  0.00000000  0.75000000  1
  Cd  Cd2_2  1  0.00000000  0.50000000  0.25000000  1
  Cd  Cd2_3  1  0.00000000  0.50000000  0.75000000  1
  Cd  Cd2_4  1  0.50000000  0.00000000  0.25000000  1
  Cd  Cd2_5  1  0.50000000  0.00000000  0.75000000  1
  Cd  Cd2_6  1  0.50000000  0.50000000  0.25000000  1
  Cd  Cd2_7  1  0.50000000  0.50000000  0.75000000  1
  Cd  Cd3_0  1  0.33333350  0.16666750  0.37500000  1
  Cd  Cd3_1  1  0.33333350  0.16666750  0.87500000  1
  Cd  Cd3_2  1  0.33333350  0.66666750  0.37500000  1
  Cd  Cd3_3  1  0.33333350  0.66666750  0.87500000  1
  Cd  Cd3_4  1  0.83333350  0.16666750  0.37500000  1
  Cd  Cd3_5  1  0.83333350  0.16666750  0.87500000  1
  Cd  Cd3_6  1  0.83333350  0.66666750  0.37500000  1
  Cd  Cd3_7  1  0.83333350  0.66666750  0.87500000  1
loop_
_geom_bond_atom_site_label_1
_geom_bond_atom_site_label_2
_geom_bond_distance
_geom_bond_site_symmetry_2
Cd0_0 Cd0_2 3.093067 1_555
Cd0_0 Cd0_2 3.093067 1_545
Cd0_0 Cd0_4 3.093068 1_455
Cd0_0 Cd0_4 3.093068 1_555
Cd0_0 Cd0_6 3.093068 1_555
Cd0_0 Cd0_6 3.093068 1_445
Cd0_0 Cd3_7 3.160542 1_444
Cd0_0 Cd1_0 3.160543 1_555
Cd0_0 Cd1_2 3.160545 1_545
Cd0_0 Cd1_6 3.160545 1_445
Cd0_0 Cd3_1 3.160545 1_554
Cd0_0 Cd3_5 3.160546 1_454
Cd0_1 Cd0_3 3.093067 1_555
Cd0_1 Cd0_3 3.093067 1_545
Cd0_1 Cd0_5 3.093068 1_455
Cd0_1 Cd0_5 3.093068 1_555
Cd0_1 Cd0_7 3.093068 1_555
Cd0_1 Cd0_7 3.093068 1_445
Cd0_1 Cd3_6 3.160542 1_445
Cd0_1 Cd1_1 3.160543 1_555
Cd0_1 Cd1_3 3.160545 1_545
Cd0_1 Cd1_7 3.160545 1_445
Cd0_1 Cd3_0 3.160545 1_555
Cd0_1 Cd3_4 3.160546 1_455
Cd0_2 Cd0_6 3.093068 1_455
Cd0_2 Cd0_6 3.093068 1_555
Cd0_2 Cd0_4 3.093068 1_455
Cd0_2 Cd0_4 3.093068 1_565
Cd0_2 Cd3_5 3.160542 1_454
Cd0_2 Cd1_2 3.160543 1_555
Cd0_2 Cd1_0 3.160545 1_555
Cd0_2 Cd1_4 3.160545 1_455
Cd0_2 Cd3_3 3.160545 1_554
Cd0_2 Cd3_7 3.160546 1_454
Cd0_3 Cd0_7 3.093068 1_555
Cd0_3 Cd0_7 3.093068 1_455
Cd0_3 Cd0_5 3.093068 1_455
Cd0_3 Cd0_5 3.093068 1_565
Cd0_3 Cd3_4 3.160542 1_455
Cd0_3 Cd1_3 3.160543 1_555
Cd0_3 Cd1_1 3.160545 1_555
Cd0_3 Cd1_5 3.160545 1_455
Cd0_3 Cd3_2 3.160545 1_555
Cd0_3 Cd3_6 3.160546 1_455
Cd0_4 Cd0_6 3.093067 1_545
Cd0_4 Cd0_6 3.093067 1_555
Cd0_4 Cd3_3 3.160542 1_544
Cd0_4 Cd1_4 3.160543 1_555
Cd0_4 Cd1_6 3.160545 1_545
Cd0_4 Cd1_2 3.160545 1_545
Cd0_4 Cd3_5 3.160545 1_554
Cd0_4 Cd3_1 3.160546 1_554
Cd0_5 Cd0_7 3.093067 1_545
Cd0_5 Cd0_7 3.093067 1_555
Cd0_5 Cd3_2 3.160542 1_545
Cd0_5 Cd1_5 3.160543 1_555
Cd0_5 Cd1_7 3.160545 1_545
Cd0_5 Cd1_3 3.160545 1_545
Cd0_5 Cd3_4 3.160545 1_555
Cd0_5 Cd3_0 3.160546 1_555
Cd0_6 Cd3_1 3.160542 1_554
Cd0_6 Cd1_6 3.160543 1_555
Cd0_6 Cd1_4 3.160545 1_555
Cd0_6 Cd1_0 3.160545 1_555
Cd0_6 Cd3_7 3.160545 1_554
Cd0_6 Cd3_3 3.160546 1_554
Cd0_7 Cd3_0 3.160542 1_555
Cd0_7 Cd1_7 3.160543 1_555
Cd0_7 Cd1_5 3.160545 1_555
Cd0_7 Cd1_1 3.160545 1_555
Cd0_7 Cd3_6 3.160545 1_555
Cd0_7 Cd3_2 3.160546 1_555
Cd1_0 Cd1_2 3.093067 1_555
Cd1_0 Cd1_2 3.093067 1_545
Cd1_0 Cd1_4 3.093068 1_455
Cd1_0 Cd1_4 3.093068 1_555
Cd1_0 Cd1_6 3.093068 1_555
Cd1_0 Cd1_6 3.093068 1_445
Cd1_0 Cd2_0 3.160543 1_555
Cd1_0 Cd2_2 3.160545 1_555
Cd1_0 Cd2_6 3.160545 1_555
Cd1_1 Cd1_3 3.093067 1_555
Cd1_1 Cd1_3 3.093067 1_545
Cd1_1 Cd1_5 3.093068 1_455
Cd1_1 Cd1_5 3.093068 1_555
Cd1_1 Cd1_7 3.093068 1_555
Cd1_1 Cd1_7 3.093068 1_445
Cd1_1 Cd2_1 3.160543 1_555
Cd1_1 Cd2_3 3.160545 1_555
Cd1_1 Cd2_7 3.160545 1_555
Cd1_2 Cd1_6 3.093068 1_455
Cd1_2 Cd1_6 3.093068 1_555
Cd1_2 Cd1_4 3.093068 1_455
Cd1_2 Cd1_4 3.093068 1_565
Cd1_2 Cd2_2 3.160543 1_555
Cd1_2 Cd2_0 3.160545 1_565
Cd1_2 Cd2_4 3.160545 1_565
Cd1_3 Cd1_7 3.093068 1_455
Cd1_3 Cd1_7 3.093068 1_555
Cd1_3 Cd1_5 3.093068 1_455
Cd1_3 Cd1_5 3.093068 1_565
Cd1_3 Cd2_3 3.160543 1_555
Cd1_3 Cd2_1 3.160545 1_565
Cd1_3 Cd2_5 3.160545 1_565
Cd1_4 Cd1_6 3.093067 1_545
Cd1_4 Cd1_6 3.093067 1_555
Cd1_4 Cd2_4 3.160543 1_555
Cd1_4 Cd2_6 3.160545 1_555
Cd1_4 Cd2_2 3.160545 1_655
Cd1_5 Cd1_7 3.093067 1_545
Cd1_5 Cd1_7 3.093067 1_555
Cd1_5 Cd2_5 3.160543 1_555
Cd1_5 Cd2_7 3.160545 1_555
Cd1_5 Cd2_3 3.160545 1_655
Cd1_6 Cd2_6 3.160543 1_555
Cd1_6 Cd2_4 3.160545 1_565
Cd1_6 Cd2_0 3.160545 1_665
Cd1_7 Cd2_7 3.160543 1_555
Cd1_7 Cd2_5 3.160545 1_565
Cd1_7 Cd2_1 3.160545 1_665
Cd2_0 Cd2_2 3.093067 1_555
Cd2_0 Cd2_2 3.093067 1_545
Cd2_0 Cd2_4 3.093068 1_455
Cd2_0 Cd2_4 3.093068 1_555
Cd2_0 Cd2_6 3.093068 1_445
Cd2_0 Cd2_6 3.093068 1_555
Cd2_0 Cd3_6 3.160542 1_445
Cd2_0 Cd3_0 3.160545 1_555
Cd2_0 Cd3_4 3.160546 1_455
Cd2_1 Cd2_3 3.093067 1_555
Cd2_1 Cd2_3 3.093067 1_545
Cd2_1 Cd2_5 3.093068 1_455
Cd2_1 Cd2_5 3.093068 1_555
Cd2_1 Cd2_7 3.093068 1_445
Cd2_1 Cd2_7 3.093068 1_555
Cd2_1 Cd3_7 3.160542 1_445
Cd2_1 Cd3_1 3.160545 1_555
Cd2_1 Cd3_5 3.160546 1_455
Cd2_2 Cd2_6 3.093068 1_455
Cd2_2 Cd2_6 3.093068 1_555
Cd2_2 Cd2_4 3.093068 1_455
Cd2_2 Cd2_4 3.093068 1_565
Cd2_2 Cd3_4 3.160542 1_455
Cd2_2 Cd3_2 3.160545 1_555
Cd2_2 Cd3_6 3.160546 1_455
Cd2_3 Cd2_7 3.093068 1_555
Cd2_3 Cd2_7 3.093068 1_455
Cd2_3 Cd2_5 3.093068 1_455
Cd2_3 Cd2_5 3.093068 1_565
Cd2_3 Cd3_5 3.160542 1_455
Cd2_3 Cd3_3 3.160545 1_555
Cd2_3 Cd3_7 3.160546 1_455
Cd2_4 Cd2_6 3.093067 1_545
Cd2_4 Cd2_6 3.093067 1_555
Cd2_4 Cd3_2 3.160542 1_545
Cd2_4 Cd3_4 3.160545 1_555
Cd2_4 Cd3_0 3.160546 1_555
Cd2_5 Cd2_7 3.093067 1_545
Cd2_5 Cd2_7 3.093067 1_555
Cd2_5 Cd3_3 3.160542 1_545
Cd2_5 Cd3_5 3.160545 1_555
Cd2_5 Cd3_1 3.160546 1_555
Cd2_6 Cd3_0 3.160542 1_555
Cd2_6 Cd3_6 3.160545 1_555
Cd2_6 Cd3_2 3.160546 1_555
Cd2_7 Cd3_1 3.160542 1_555
Cd2_7 Cd3_7 3.160545 1_555
Cd2_7 Cd3_3 3.160546 1_555
Cd3_0 Cd3_2 3.093067 1_545
Cd3_0 Cd3_2 3.093067 1_555
Cd3_0 Cd3_4 3.093068 1_455
Cd3_0 Cd3_4 3.093068 1_555
Cd3_0 Cd3_6 3.093068 1_445
Cd3_0 Cd3_6 3.093068 1_555
Cd3_1 Cd3_3 3.093067 1_545
Cd3_1 Cd3_3 3.093067 1_555
Cd3_1 Cd3_5 3.093068 1_455
Cd3_1 Cd3_5 3.093068 1_555
Cd3_1 Cd3_7 3.093068 1_445
Cd3_1 Cd3_7 3.093068 1_555
Cd3_2 Cd3_6 3.093068 1_555
Cd3_2 Cd3_6 3.093068 1_455
Cd3_2 Cd3_4 3.093068 1_565
Cd3_2 Cd3_4 3.093068 1_455
Cd3_3 Cd3_7 3.093068 1_555
Cd3_3 Cd3_7 3.093068 1_455
Cd3_3 Cd3_5 3.093068 1_565
Cd3_3 Cd3_5 3.093068 1_455
Cd3_4 Cd3_6 3.093067 1_545
Cd3_4 Cd3_6 3.093067 1_555
Cd3_5 Cd3_7 3.093067 1_545
Cd3_5 Cd3_7 3.093067 1_555
