# generated using pymatgen
data_MnGa6
_symmetry_space_group_name_H-M   'P 1'
_cell_length_a   5.02090661
_cell_length_b   5.02090661
_cell_length_c   8.91121700
_cell_angle_alpha   90.00000000
_cell_angle_beta   90.00000000
_cell_angle_gamma   98.42405183
_symmetry_Int_Tables_number   1
_chemical_formula_structural   MnGa6
_chemical_formula_sum   'Mn2 Ga12'
_cell_volume   222.22361561
_cell_formula_units_Z   2
loop_
 _symmetry_equiv_pos_site_id
 _symmetry_equiv_pos_as_xyz
  1  'x, y, z'
loop_
 _atom_site_type_symbol
 _atom_site_label
 _atom_site_symmetry_multiplicity
 _atom_site_fract_x
 _atom_site_fract_y
 _atom_site_fract_z
 _atom_site_occupancy
  Mn  Mn0  1  0.44728000  0.44728000  0.25000000  1
  Mn  Mn1  1  0.55272000  0.55272000  0.75000000  1
  Ga  Ga0  1  0.67353100  0.32646900  0.50000000  1
  Ga  Ga1  1  0.67353100  0.32646900  0.00000000  1
  Ga  Ga2  1  0.32646900  0.67353100  0.50000000  1
  Ga  Ga3  1  0.32646900  0.67353100  0.00000000  1
  Ga  Ga4  1  0.13170500  0.13170500  0.40037200  1
  Ga  Ga5  1  0.86829500  0.86829500  0.59962800  1
  Ga  Ga6  1  0.13170500  0.13170500  0.09962800  1
  Ga  Ga7  1  0.86829500  0.86829500  0.90037200  1
  Ga  Ga8  1  0.95844600  0.59942400  0.25000000  1
  Ga  Ga9  1  0.40057600  0.04155400  0.75000000  1
  Ga  Ga10  1  0.04155400  0.40057600  0.75000000  1
  Ga  Ga11  1  0.59942400  0.95844600  0.25000000  1
loop_
_geom_bond_atom_site_label_1
_geom_bond_atom_site_label_2
_geom_bond_distance
_geom_bond_site_symmetry_2
Ga0 Mn1 2.612165 1_555
Ga0 Mn0 2.612165 1_555
Ga0 Ga2 2.638705 1_555
Ga0 Ga5 2.774105 1_545
Ga0 Ga4 2.774105 1_655
Ga0 Ga8 2.883284 1_555
Ga0 Ga9 2.883284 1_555
Ga0 Ga10 2.883489 1_655
Ga0 Ga11 2.883489 1_545
Ga0 Ga5 2.892387 1_555
Ga0 Ga4 2.892387 1_555
Ga1 Mn0 2.612165 1_555
Ga1 Mn1 2.612165 1_554
Ga1 Ga3 2.638705 1_555
Ga1 Ga6 2.774105 1_655
Ga1 Ga7 2.774105 1_544
Ga1 Ga8 2.883284 1_555
Ga1 Ga9 2.883284 1_554
Ga1 Ga10 2.883489 1_654
Ga1 Ga11 2.883489 1_545
Ga1 Ga7 2.892387 1_554
Ga1 Ga6 2.892387 1_555
Ga2 Mn1 2.612165 1_555
Ga2 Mn0 2.612165 1_555
Ga2 Ga5 2.774105 1_455
Ga2 Ga4 2.774105 1_565
Ga2 Ga9 2.883489 1_565
Ga2 Ga8 2.883489 1_455
Ga2 Ga5 2.892387 1_555
Ga2 Ga4 2.892387 1_555
Ga3 Mn0 2.612165 1_555
Ga3 Mn1 2.612165 1_554
Ga3 Ga6 2.774105 1_565
Ga3 Ga7 2.774105 1_454
Ga3 Ga9 2.883489 1_564
Ga3 Ga8 2.883489 1_455
Ga3 Ga7 2.892387 1_554
Ga3 Ga6 2.892387 1_555
Ga4 Mn0 2.465992 1_555
Ga4 Ga5 2.477624 1_445
Ga4 Ga6 2.679995 1_555
Ga4 Ga8 2.943767 1_455
Ga4 Ga8 3.002266 1_445
Ga5 Mn1 2.465992 1_555
Ga5 Ga7 2.679995 1_555
Ga5 Ga9 2.943767 1_565
Ga5 Ga9 3.002266 1_665
Ga6 Mn0 2.465992 1_555
Ga6 Ga7 2.477624 1_444
Ga6 Ga8 2.943767 1_455
Ga6 Ga8 3.002266 1_445
Ga7 Mn1 2.465992 1_555
Ga7 Ga9 2.943767 1_565
Ga7 Ga9 3.002266 1_665
Ga8 Mn0 2.568290 1_555
Ga8 Mn0 2.675241 1_655
Ga9 Mn1 2.568290 1_555
Ga9 Mn1 2.675241 1_545
Ga10 Mn1 2.568290 1_555
Ga10 Mn1 2.675241 1_455
Ga10 Ga9 2.729637 1_555
Ga10 Ga2 2.883284 1_555
Ga10 Ga3 2.883284 1_556
Ga10 Ga7 2.943767 1_455
Ga10 Ga5 2.943767 1_455
Ga10 Ga7 3.002266 1_445
Ga10 Ga5 3.002266 1_445
Ga11 Mn0 2.568290 1_555
Ga11 Mn0 2.675241 1_565
Ga11 Ga8 2.729637 1_555
Ga11 Ga3 2.883284 1_555
Ga11 Ga2 2.883284 1_555
Ga11 Ga6 2.943767 1_565
Ga11 Ga4 2.943767 1_565
Ga11 Ga6 3.002266 1_665
Ga11 Ga4 3.002266 1_665
