# generated using pymatgen
data_Zn(Mo4O5)2
_symmetry_space_group_name_H-M   'P 1'
_cell_length_a   13.70295462
_cell_length_b   13.70295462
_cell_length_c   13.70295462
_cell_angle_alpha   152.79369944
_cell_angle_beta   152.79369944
_cell_angle_gamma   38.85535652
_symmetry_Int_Tables_number   1
_chemical_formula_structural   Zn(Mo4O5)2
_chemical_formula_sum   'Zn2 Mo16 O20'
_cell_volume   536.90957722
_cell_formula_units_Z   2
loop_
 _symmetry_equiv_pos_site_id
 _symmetry_equiv_pos_as_xyz
  1  'x, y, z'
loop_
 _atom_site_type_symbol
 _atom_site_label
 _atom_site_symmetry_multiplicity
 _atom_site_fract_x
 _atom_site_fract_y
 _atom_site_fract_z
 _atom_site_occupancy
  Zn  Zn0  1  0.25000000  0.75000000  0.50000000  1
  Zn  Zn1  1  0.50000000  0.50000000  0.00000000  1
  Mo  Mo0  1  0.79236000  0.54894200  0.75658200  1
  Mo  Mo1  1  0.29894200  0.04236000  0.25658200  1
  Mo  Mo2  1  0.78577800  0.04236000  0.74341800  1
  Mo  Mo3  1  0.79236000  0.03577800  0.24341800  1
  Mo  Mo4  1  0.95764000  0.70105800  0.74341800  1
  Mo  Mo5  1  0.45105800  0.20764000  0.24341800  1
  Mo  Mo6  1  0.96422200  0.20764000  0.75658200  1
  Mo  Mo7  1  0.95764000  0.21422200  0.25658200  1
  Mo  Mo8  1  0.12361300  0.39005700  0.26644400  1
  Mo  Mo9  1  0.14005700  0.37361300  0.76644400  1
  Mo  Mo10  1  0.60717000  0.37361300  0.23355600  1
  Mo  Mo11  1  0.12361300  0.85717000  0.73355600  1
  Mo  Mo12  1  0.62638700  0.39283000  0.76644400  1
  Mo  Mo13  1  0.14283000  0.87638700  0.26644400  1
  Mo  Mo14  1  0.60994300  0.87638700  0.73355600  1
  Mo  Mo15  1  0.62638700  0.85994300  0.23355600  1
  O  O0  1  0.37500000  0.62500000  0.25000000  1
  O  O1  1  0.20618400  0.97175400  0.76556900  1
  O  O2  1  0.04048200  0.82312600  0.78264400  1
  O  O3  1  0.57312600  0.29048200  0.28264400  1
  O  O4  1  0.00783800  0.29048200  0.71735600  1
  O  O5  1  0.04048200  0.25783800  0.21735600  1
  O  O6  1  0.70951800  0.42687400  0.71735600  1
  O  O7  1  0.17687400  0.95951800  0.21735600  1
  O  O8  1  0.74216200  0.95951800  0.78264400  1
  O  O9  1  0.70951800  0.99216200  0.28264400  1
  O  O10  1  0.72175400  0.45618400  0.26556900  1
  O  O11  1  0.55938500  0.79381600  0.76556900  1
  O  O12  1  0.02824600  0.79381600  0.23443100  1
  O  O13  1  0.54381600  0.27824600  0.73443100  1
  O  O14  1  0.20618400  0.44061500  0.23443100  1
  O  O15  1  0.19061500  0.45618400  0.73443100  1
  O  O16  1  0.37500000  0.12500000  0.75000000  1
  O  O17  1  0.87500000  0.62500000  0.25000000  1
  O  O18  1  0.37500000  0.62500000  0.75000000  1
  O  O19  1  0.54381600  0.80938500  0.26556900  1
loop_
_geom_bond_atom_site_label_1
_geom_bond_atom_site_label_2
_geom_bond_distance
_geom_bond_site_symmetry_2
Mo0 O6 2.155968 1_555
Mo0 O4 2.168059 1_655
Mo0 O3 2.168059 1_555
Mo0 O12 2.178666 1_656
Mo0 O11 2.178666 1_555
Mo1 O7 2.155968 1_545
Mo1 O5 2.168059 1_555
Mo1 O2 2.168059 1_544
Mo1 O13 2.178666 1_555
Mo1 O19 2.178666 1_545
Mo2 O8 2.155968 1_545
Mo2 O2 2.168059 1_645
Mo2 O5 2.168059 1_656
Mo2 O13 2.178661 1_555
Mo2 O19 2.178666 1_545
Mo3 O9 2.155968 1_545
Mo3 O3 2.168059 1_555
Mo3 O4 2.168059 1_655
Mo3 O12 2.178661 1_645
Mo3 O11 2.178666 1_544
Mo4 O2 2.155968 1_655
Mo4 O7 2.168059 1_656
Mo4 O8 2.168059 1_555
Mo4 O10 2.178666 1_555
Mo4 O15 2.178666 1_655
Mo5 O3 2.155968 1_555
Mo5 O9 2.168059 1_545
Mo5 O6 2.168059 1_555
Mo5 O1 2.178666 1_544
Mo5 O14 2.178666 1_555
Mo6 O4 2.155968 1_655
Mo6 O9 2.168059 1_545
Mo6 O6 2.168059 1_555
Mo6 O1 2.178661 1_645
Mo6 O14 2.178666 1_656
Mo7 O5 2.155968 1_655
Mo7 O7 2.168059 1_645
Mo7 O8 2.168059 1_544
Mo7 O10 2.178661 1_555
Mo7 O15 2.178666 1_655
Mo8 O14 2.144039 1_555
Mo8 O5 2.171733 1_555
Mo8 O17 2.205532 1_455
Mo8 O18 2.205532 1_555
Mo9 O15 2.144039 1_555
Mo9 O4 2.171733 1_555
Mo9 O16 2.205532 1_555
Mo9 O0 2.205532 1_556
Mo10 O10 2.144039 1_555
Mo10 O3 2.171746 1_555
Mo10 O16 2.205532 1_554
Mo10 O0 2.205537 1_555
Mo11 O1 2.144039 1_555
Mo11 O2 2.171746 1_555
Mo11 O17 2.205532 1_455
Mo11 O18 2.205537 1_555
Mo12 O13 2.144039 1_555
Mo12 O6 2.171746 1_555
Mo12 O17 2.205532 1_556
Mo12 O18 2.205537 1_555
Mo13 O12 2.144039 1_555
Mo13 O7 2.171746 1_555
Mo13 O16 2.205532 1_565
Mo13 O0 2.205537 1_555
Mo14 O11 2.144039 1_555
Mo14 O8 2.171733 1_555
Mo14 O16 2.205532 1_565
Mo14 O0 2.205532 1_555
Mo15 O19 2.144039 1_555
Mo15 O9 2.171733 1_555
Mo15 O17 2.205532 1_555
Mo15 O18 2.205532 1_554
O1 Zn0 2.052472 1_555
O10 Zn1 2.052472 1_555
O11 Zn0 2.052477 1_555
O12 Zn0 2.052472 1_555
O13 Zn1 2.052472 1_556
O14 Zn0 2.052477 1_555
O15 Zn1 2.052477 1_556
O19 Zn1 2.052477 1_555
