# generated using pymatgen
data_Nd5Cu5O13
_symmetry_space_group_name_H-M   'P 1'
_cell_length_a   8.45847500
_cell_length_b   3.84155700
_cell_length_c   8.50284918
_cell_angle_alpha   90.00000000
_cell_angle_beta   90.27533969
_cell_angle_gamma   90.00000000
_symmetry_Int_Tables_number   1
_chemical_formula_structural   Nd5Cu5O13
_chemical_formula_sum   'Nd5 Cu5 O13'
_cell_volume   276.28595789
_cell_formula_units_Z   1
loop_
 _symmetry_equiv_pos_site_id
 _symmetry_equiv_pos_as_xyz
  1  'x, y, z'
loop_
 _atom_site_type_symbol
 _atom_site_label
 _atom_site_symmetry_multiplicity
 _atom_site_fract_x
 _atom_site_fract_y
 _atom_site_fract_z
 _atom_site_occupancy
  Nd  Nd0  1  0.50000000  0.50000000  0.50000000  1
  Nd  Nd1  1  0.85686400  0.50000000  0.26994000  1
  Nd  Nd2  1  0.14313600  0.50000000  0.73006000  1
  Nd  Nd3  1  0.73305700  0.50000000  0.85385800  1
  Nd  Nd4  1  0.26694300  0.50000000  0.14614200  1
  Cu  Cu0  1  0.00000000  0.00000000  0.00000000  1
  Cu  Cu1  1  0.84088300  0.00000000  0.57265300  1
  Cu  Cu2  1  0.15911700  0.00000000  0.42734700  1
  Cu  Cu3  1  0.57067000  0.00000000  0.16589000  1
  Cu  Cu4  1  0.42933000  0.00000000  0.83411000  1
  O  O0  1  0.95038900  0.00000000  0.76788300  1
  O  O1  1  0.04961100  0.00000000  0.23211700  1
  O  O2  1  0.61067700  0.00000000  0.70297500  1
  O  O3  1  0.38932300  0.00000000  0.29702500  1
  O  O4  1  0.71287000  0.00000000  0.38924100  1
  O  O5  1  0.28713000  0.00000000  0.61075900  1
  O  O6  1  0.76067800  0.00000000  0.04710100  1
  O  O7  1  0.23932200  0.00000000  0.95289900  1
  O  O8  1  0.82868700  0.50000000  0.57547900  1
  O  O9  1  0.17131300  0.50000000  0.42452100  1
  O  O10  1  0.57018700  0.50000000  0.18529100  1
  O  O11  1  0.42981300  0.50000000  0.81470900  1
  O  O12  1  0.00000000  0.50000000  0.00000000  1
loop_
_geom_bond_atom_site_label_1
_geom_bond_atom_site_label_2
_geom_bond_distance
_geom_bond_site_symmetry_2
Nd0 O11 2.743772 1_555
Nd0 O10 2.743772 1_555
Nd0 O2 2.743878 1_555
Nd0 O2 2.743878 1_565
Nd0 O3 2.743878 1_555
Nd0 O3 2.743878 1_565
Nd0 O5 2.799038 1_555
Nd0 O5 2.799038 1_565
Nd0 O4 2.799038 1_555
Nd0 O4 2.799038 1_565
Nd0 O9 2.850299 1_555
Nd0 O8 2.850299 1_555
Nd1 O4 2.492733 1_555
Nd1 O4 2.492733 1_565
Nd1 O10 2.526099 1_555
Nd1 O1 2.540843 1_655
Nd1 O1 2.540843 1_665
Nd1 O12 2.600144 1_655
Nd1 O8 2.610002 1_555
Nd1 O6 2.815428 1_565
Nd1 O6 2.815428 1_555
Nd1 O9 2.961133 1_655
Nd2 O5 2.492733 1_555
Nd2 O5 2.492733 1_565
Nd2 O11 2.526099 1_555
Nd2 O0 2.540843 1_465
Nd2 O0 2.540843 1_455
Nd2 O12 2.600144 1_556
Nd2 O9 2.610002 1_555
Nd2 O7 2.815428 1_565
Nd2 O7 2.815428 1_555
Nd2 O8 2.961133 1_455
Nd3 O8 2.505086 1_555
Nd3 O2 2.528652 1_555
Nd3 O2 2.528652 1_565
Nd3 O6 2.537738 1_556
Nd3 O6 2.537738 1_566
Nd3 O12 2.572041 1_656
Nd3 O11 2.584905 1_555
Nd3 O0 2.759719 1_565
Nd3 O0 2.759719 1_555
Nd3 O10 3.142771 1_556
Nd4 O9 2.505086 1_555
Nd4 O3 2.528652 1_555
Nd4 O3 2.528652 1_565
Nd4 O7 2.537738 1_554
Nd4 O7 2.537738 1_564
Nd4 O12 2.572041 1_555
Nd4 O10 2.584905 1_555
Nd4 O1 2.759719 1_555
Nd4 O1 2.759719 1_565
Nd4 O11 3.142771 1_554
Cu0 O12 1.920778 1_545
Cu0 O12 1.920778 1_555
Cu0 O1 2.015800 1_555
Cu0 O0 2.015800 1_454
Cu0 O7 2.065423 1_554
Cu0 O6 2.065423 1_455
Cu1 O4 1.894289 1_555
Cu1 O0 1.897052 1_555
Cu1 O8 1.923703 1_545
Cu1 O8 1.923703 1_555
Cu1 O2 2.245038 1_555
Cu2 O5 1.894289 1_555
Cu2 O1 1.897052 1_555
Cu2 O9 1.923703 1_555
Cu2 O9 1.923703 1_545
Cu2 O3 2.245038 1_555
Cu3 O3 1.900689 1_555
Cu3 O6 1.902318 1_555
Cu3 O10 1.927855 1_555
Cu3 O10 1.927855 1_545
Cu3 O4 2.243082 1_555
Cu4 O2 1.900689 1_555
Cu4 O7 1.902318 1_555
Cu4 O11 1.927855 1_555
Cu4 O11 1.927855 1_545
Cu4 O5 2.243082 1_555
