# generated using pymatgen
data_BaBiBrO2
_symmetry_space_group_name_H-M   'P 1'
_cell_length_a   7.58739764
_cell_length_b   7.58739764
_cell_length_c   7.58739764
_cell_angle_alpha   148.51005264
_cell_angle_beta   148.51005264
_cell_angle_gamma   45.13298627
_symmetry_Int_Tables_number   1
_chemical_formula_structural   BaBiBrO2
_chemical_formula_sum   'Ba1 Bi1 Br1 O2'
_cell_volume   118.80197846
_cell_formula_units_Z   1
loop_
 _symmetry_equiv_pos_site_id
 _symmetry_equiv_pos_as_xyz
  1  'x, y, z'
loop_
 _atom_site_type_symbol
 _atom_site_label
 _atom_site_symmetry_multiplicity
 _atom_site_fract_x
 _atom_site_fract_y
 _atom_site_fract_z
 _atom_site_occupancy
  Ba  Ba0  1  0.85550000  0.85550000  0.00000000  1
  Bi  Bi0  1  0.17235000  0.17235000  0.00000000  1
  Br  Br0  1  0.49134500  0.49134500  0.00000000  1
  O  O0  1  0.74040300  0.24040300  0.50000000  1
  O  O1  1  0.24040300  0.74040300  0.50000000  1
loop_
_geom_bond_atom_site_label_1
_geom_bond_atom_site_label_2
_geom_bond_distance
_geom_bond_site_symmetry_2
Ba0 O0 2.615394 1_554
Ba0 O1 2.615394 1_554
Ba0 O0 2.615394 1_565
Ba0 O1 2.615394 1_655
Ba0 Br0 3.478745 1_666
Ba0 Br0 3.478745 1_565
Ba0 Br0 3.478745 1_554
Ba0 Br0 3.478745 1_655
Bi0 O1 2.269010 1_544
Bi0 O1 2.269010 1_555
Bi0 O0 2.269010 1_555
Bi0 O0 2.269010 1_454
