# generated using pymatgen
data_Mn2InCuSe4
_symmetry_space_group_name_H-M   'P 1'
_cell_length_a   6.85858788
_cell_length_b   6.85858788
_cell_length_c   6.85858788
_cell_angle_alpha   131.41645038
_cell_angle_beta   131.41645038
_cell_angle_gamma   71.15225641
_symmetry_Int_Tables_number   1
_chemical_formula_structural   Mn2InCuSe4
_chemical_formula_sum   'Mn2 In1 Cu1 Se4'
_cell_volume   177.63630925
_cell_formula_units_Z   1
loop_
 _symmetry_equiv_pos_site_id
 _symmetry_equiv_pos_as_xyz
  1  'x, y, z'
loop_
 _atom_site_type_symbol
 _atom_site_label
 _atom_site_symmetry_multiplicity
 _atom_site_fract_x
 _atom_site_fract_y
 _atom_site_fract_z
 _atom_site_occupancy
  Mn  Mn0  1  0.25000000  0.75000000  0.50000000  1
  Mn  Mn1  1  0.75000000  0.25000000  0.50000000  1
  In  In0  1  0.50000000  0.50000000  0.00000000  1
  Cu  Cu0  1  0.00000000  0.00000000  0.00000000  1
  Se  Se0  1  0.91814700  0.37175600  0.00000000  1
  Se  Se1  1  0.08185300  0.08185300  0.45360900  1
  Se  Se2  1  0.62824400  0.62824400  0.54639100  1
  Se  Se3  1  0.37175600  0.91814700  0.00000000  1
loop_
_geom_bond_atom_site_label_1
_geom_bond_atom_site_label_2
_geom_bond_distance
_geom_bond_site_symmetry_2
Mn0 Se1 2.321274 1_565
Mn0 Se2 2.321274 1_555
Mn0 Se0 2.321274 1_455
Mn0 Se3 2.321274 1_556
Mn1 Se2 2.321274 1_555
Mn1 Se1 2.321274 1_655
Mn1 Se3 2.321274 1_545
Mn1 Se0 2.321274 1_556
In0 Se3 2.714528 1_555
In0 Se0 2.714528 1_555
In0 Se2 2.714528 1_555
In0 Se1 2.714528 1_554
Cu0 Se0 2.427221 1_455
Cu0 Se3 2.427221 1_545
Cu0 Se2 2.427221 1_444
Cu0 Se1 2.427221 1_555
