# generated using pymatgen
data_Rb3CoCl5
_symmetry_space_group_name_H-M   'P 1'
_cell_length_a   8.81417761
_cell_length_b   8.81417761
_cell_length_c   9.42813598
_cell_angle_alpha   117.86824848
_cell_angle_beta   117.86824848
_cell_angle_gamma   90.00000000
_symmetry_Int_Tables_number   1
_chemical_formula_structural   Rb3CoCl5
_chemical_formula_sum   'Rb6 Co2 Cl10'
_cell_volume   549.59594638
_cell_formula_units_Z   2
loop_
 _symmetry_equiv_pos_site_id
 _symmetry_equiv_pos_as_xyz
  1  'x, y, z'
loop_
 _atom_site_type_symbol
 _atom_site_label
 _atom_site_symmetry_multiplicity
 _atom_site_fract_x
 _atom_site_fract_y
 _atom_site_fract_z
 _atom_site_occupancy
  Rb  Rb0  1  0.25000000  0.25000000  0.50000000  1
  Rb  Rb1  1  0.75000000  0.75000000  0.50000000  1
  Rb  Rb2  1  0.66276094  0.16276094  0.00000000  1
  Rb  Rb3  1  0.33723906  0.83723906  -0.00000000  1
  Rb  Rb4  1  0.83723906  0.66276094  0.00000000  1
  Rb  Rb5  1  0.16276094  0.33723906  0.00000000  1
  Co  Co0  1  0.25000000  0.75000000  0.50000000  1
  Co  Co1  1  0.75000000  0.25000000  0.50000000  1
  Cl  Cl0  1  0.29644979  0.79644979  0.30657134  1
  Cl  Cl1  1  0.70355021  0.20355021  0.69342866  1
  Cl  Cl2  1  0.01012155  0.51012155  0.30657134  1
  Cl  Cl3  1  0.51012155  0.29644979  0.30657134  1
  Cl  Cl4  1  0.20355021  0.98987845  0.69342866  1
  Cl  Cl5  1  0.98987845  0.48987845  0.69342866  1
  Cl  Cl6  1  0.48987845  0.70355021  0.69342866  1
  Cl  Cl7  1  0.79644979  0.01012155  0.30657134  1
  Cl  Cl8  1  -0.00000000  0.00000000  0.00000000  1
  Cl  Cl9  1  0.50000000  0.50000000  0.00000000  1
loop_
_geom_bond_atom_site_label_1
_geom_bond_atom_site_label_2
_geom_bond_distance
_geom_bond_site_symmetry_2
Cl0 Co0 2.248792 1_555
Cl0 Rb3 3.248984 1_555
Cl0 Rb4 3.464729 1_455
Cl0 Rb5 3.464729 1_555
Cl0 Rb0 3.654739 1_565
Cl0 Rb1 3.654739 1_555
Cl1 Co1 2.248792 1_555
Cl1 Rb2 3.248984 1_556
Cl1 Rb4 3.464729 1_556
Cl1 Rb5 3.464729 1_656
Cl1 Rb0 3.654739 1_555
Cl1 Rb1 3.654739 1_545
Cl2 Co0 2.248792 1_555
Cl2 Rb2 3.248985 1_455
Cl2 Rb4 3.464729 1_455
Cl2 Rb5 3.464729 1_555
Cl2 Rb1 3.654739 1_455
Cl2 Rb0 3.654739 1_555
Cl3 Co1 2.248792 1_555
Cl3 Rb5 3.248984 1_555
Cl3 Rb2 3.464729 1_555
Cl3 Rb3 3.464729 1_545
Cl3 Rb0 3.654738 1_555
Cl3 Rb1 3.654739 1_555
Cl4 Co0 2.248792 1_555
Cl4 Rb5 3.248984 1_566
Cl4 Rb3 3.464729 1_556
Cl4 Rb2 3.464729 1_566
Cl4 Rb0 3.654738 1_565
Cl4 Rb1 3.654739 1_455
Cl5 Co1 2.248792 1_555
Cl5 Rb3 3.248985 1_656
Cl5 Rb4 3.464729 1_556
Cl5 Rb5 3.464729 1_656
Cl5 Rb1 3.654739 1_555
Cl5 Rb0 3.654739 1_655
Cl6 Co0 2.248792 1_555
Cl6 Rb4 3.248984 1_556
Cl6 Rb3 3.464729 1_556
Cl6 Rb2 3.464729 1_566
Cl6 Rb1 3.654738 1_555
Cl6 Rb0 3.654739 1_555
Cl7 Co1 2.248792 1_555
Cl7 Rb4 3.248984 1_545
Cl7 Rb2 3.464729 1_555
Cl7 Rb3 3.464729 1_545
Cl7 Rb1 3.654738 1_545
Cl7 Rb0 3.654739 1_655
Cl8 Rb3 3.300569 1_545
Cl8 Rb5 3.300569 1_555
Cl8 Rb2 3.300569 1_455
Cl8 Rb4 3.300569 1_445
Cl8 Rb1 3.537121 1_444
Cl8 Rb0 3.537121 1_555
Cl9 Rb2 3.300569 1_555
Cl9 Rb4 3.300569 1_555
Cl9 Rb3 3.300569 1_555
Cl9 Rb5 3.300569 1_555
Cl9 Rb1 3.537121 1_555
Cl9 Rb0 3.537121 1_554
