# generated using pymatgen
data_V3Co
_symmetry_space_group_name_H-M   'P 1'
_cell_length_a   4.62052410
_cell_length_b   4.62052410
_cell_length_c   4.62052410
_cell_angle_alpha   90.00000000
_cell_angle_beta   90.00000000
_cell_angle_gamma   90.00000000
_symmetry_Int_Tables_number   1
_chemical_formula_structural   V3Co
_chemical_formula_sum   'V6 Co2'
_cell_volume   98.64469161
_cell_formula_units_Z   2
loop_
 _symmetry_equiv_pos_site_id
 _symmetry_equiv_pos_as_xyz
  1  'x, y, z'
loop_
 _atom_site_type_symbol
 _atom_site_label
 _atom_site_symmetry_multiplicity
 _atom_site_fract_x
 _atom_site_fract_y
 _atom_site_fract_z
 _atom_site_occupancy
  V  V0  1  0.50000000  0.25000000  -0.00000000  1
  V  V1  1  0.50000000  0.75000000  -0.00000000  1
  V  V2  1  0.25000000  -0.00000000  0.50000000  1
  V  V3  1  0.75000000  -0.00000000  0.50000000  1
  V  V4  1  -0.00000000  0.50000000  0.25000000  1
  V  V5  1  -0.00000000  0.50000000  0.75000000  1
  Co  Co0  1  0.50000000  0.50000000  0.50000000  1
  Co  Co1  1  -0.00000000  -0.00000000  -0.00000000  1
loop_
_geom_bond_atom_site_label_1
_geom_bond_atom_site_label_2
_geom_bond_distance
_geom_bond_site_symmetry_2
V0 V1 2.310262 1_545
V0 V1 2.310262 1_555
V2 V3 2.310262 1_455
V2 V3 2.310262 1_555
V4 V5 2.310262 1_555
V4 V5 2.310262 1_554
Co0 V3 2.582951 1_565
Co0 V1 2.582951 1_556
Co0 V2 2.582951 1_555
Co0 V0 2.582951 1_555
Co0 V5 2.582951 1_555
Co0 V4 2.582951 1_555
Co0 V0 2.582951 1_556
Co0 V1 2.582951 1_555
Co0 V3 2.582951 1_555
Co0 V2 2.582951 1_565
Co0 V5 2.582951 1_655
Co0 V4 2.582951 1_655
Co1 V3 2.582951 1_454
Co1 V2 2.582951 1_555
Co1 V5 2.582951 1_554
Co1 V2 2.582951 1_554
Co1 V0 2.582951 1_555
Co1 V3 2.582951 1_455
Co1 V4 2.582951 1_545
Co1 V1 2.582951 1_445
Co1 V0 2.582951 1_455
Co1 V4 2.582951 1_555
Co1 V5 2.582951 1_544
Co1 V1 2.582951 1_545
