# generated using pymatgen
data_Sc(SeO3)3
_symmetry_space_group_name_H-M   'P 1'
_cell_length_a   7.67269966
_cell_length_b   7.67269966
_cell_length_c   7.73330941
_cell_angle_alpha   83.79947508
_cell_angle_beta   83.79947508
_cell_angle_gamma   78.90522754
_symmetry_Int_Tables_number   1
_chemical_formula_structural   Sc(SeO3)3
_chemical_formula_sum   'Sc2 Se6 O18'
_cell_volume   442.36136839
_cell_formula_units_Z   2
loop_
 _symmetry_equiv_pos_site_id
 _symmetry_equiv_pos_as_xyz
  1  'x, y, z'
loop_
 _atom_site_type_symbol
 _atom_site_label
 _atom_site_symmetry_multiplicity
 _atom_site_fract_x
 _atom_site_fract_y
 _atom_site_fract_z
 _atom_site_occupancy
  Sc  Sc0  1  0.24049100  0.74658100  0.97110000  1
  Sc  Sc1  1  0.74658100  0.24049100  0.47110000  1
  Se  Se0  1  0.17875200  0.36250800  0.26466200  1
  Se  Se1  1  0.36250800  0.17875200  0.76466200  1
  Se  Se2  1  0.06338600  0.83335400  0.56317100  1
  Se  Se3  1  0.83335400  0.06338600  0.06317100  1
  Se  Se4  1  0.68498900  0.56659600  0.79963700  1
  Se  Se5  1  0.56659600  0.68498900  0.29963700  1
  O  O0  1  0.14902700  0.51784800  0.08993900  1
  O  O1  1  0.51784800  0.14902700  0.58993900  1
  O  O2  1  0.97705700  0.30257100  0.32317600  1
  O  O3  1  0.30257100  0.97705700  0.82317600  1
  O  O4  1  0.32143000  0.18530200  0.19907600  1
  O  O5  1  0.18530200  0.32143000  0.69907600  1
  O  O6  1  0.08764700  0.72762200  0.76599700  1
  O  O7  1  0.72762200  0.08764700  0.26599700  1
  O  O8  1  0.90381700  0.01626200  0.59784000  1
  O  O9  1  0.01626200  0.90381700  0.09784000  1
  O  O10  1  0.99376000  0.69625100  0.44408400  1
  O  O11  1  0.69625100  0.99376000  0.94408400  1
  O  O12  1  0.46025600  0.58314000  0.84223100  1
  O  O13  1  0.58314000  0.46025600  0.34223100  1
  O  O14  1  0.75011700  0.38408000  0.68661600  1
  O  O15  1  0.38408000  0.75011700  0.18661600  1
  O  O16  1  0.77500400  0.52115500  0.99127000  1
  O  O17  1  0.52115500  0.77500400  0.49127000  1
loop_
_geom_bond_atom_site_label_1
_geom_bond_atom_site_label_2
_geom_bond_distance
_geom_bond_site_symmetry_2
O0 Se0 1.706564 1_555
O0 Sc0 2.098425 1_554
O1 Se1 1.706564 1_555
O1 Sc1 2.098425 1_555
O2 Se0 1.699654 1_655
O2 Sc1 2.105259 1_555
O3 Se1 1.699654 1_565
O3 Sc0 2.105259 1_555
O4 Se0 1.661473 1_555
O5 Se1 1.661473 1_555
O6 Se2 1.697969 1_555
O6 Sc0 2.104649 1_555
O7 Se3 1.697969 1_555
O7 Sc1 2.104649 1_555
O8 Se2 1.699844 1_645
O8 Sc1 2.113851 1_555
O9 Se3 1.699844 1_465
O9 Sc0 2.113851 1_554
O10 Se2 1.664916 1_655
O11 Se3 1.664916 1_566
O12 Se4 1.702925 1_555
O12 Sc0 2.121832 1_555
O13 Se5 1.702925 1_555
O13 Sc1 2.121832 1_555
O14 Se4 1.695716 1_555
O14 Sc1 2.100038 1_555
O15 Se5 1.695716 1_555
O15 Sc0 2.100038 1_554
O16 Se4 1.676775 1_555
O17 Se5 1.676775 1_555
