# generated using pymatgen
data_UAlNi
_symmetry_space_group_name_H-M   'P 1'
_cell_length_a   6.60536038
_cell_length_b   6.60536038
_cell_length_c   4.10273000
_cell_angle_alpha   90.00000000
_cell_angle_beta   90.00000000
_cell_angle_gamma   120.00000381
_symmetry_Int_Tables_number   1
_chemical_formula_structural   UAlNi
_chemical_formula_sum   'U3 Al3 Ni3'
_cell_volume   155.02316038
_cell_formula_units_Z   3
loop_
 _symmetry_equiv_pos_site_id
 _symmetry_equiv_pos_as_xyz
  1  'x, y, z'
loop_
 _atom_site_type_symbol
 _atom_site_label
 _atom_site_symmetry_multiplicity
 _atom_site_fract_x
 _atom_site_fract_y
 _atom_site_fract_z
 _atom_site_occupancy
  U  U0  1  0.42855300  0.00000000  0.50000000  1
  U  U1  1  0.00000000  0.42855300  0.50000000  1
  U  U2  1  0.57144700  0.57144700  0.50000000  1
  Al  Al0  1  0.76462300  0.00000000  0.00000000  1
  Al  Al1  1  0.00000000  0.76462300  0.00000000  1
  Al  Al2  1  0.23537700  0.23537700  0.00000000  1
  Ni  Ni0  1  0.33333300  0.66666700  0.00000000  1
  Ni  Ni1  1  0.66666700  0.33333300  0.00000000  1
  Ni  Ni2  1  0.00000000  0.00000000  0.50000000  1
loop_
_geom_bond_atom_site_label_1
_geom_bond_atom_site_label_2
_geom_bond_distance
_geom_bond_site_symmetry_2
Al0 Ni2 2.573975 1_654
Al0 Ni2 2.573975 1_655
Al0 Ni1 2.586724 1_555
Al0 Ni0 2.586728 1_545
Al1 Ni2 2.573975 1_565
Al1 Ni2 2.573975 1_564
Al1 Ni0 2.586724 1_555
Al1 Ni1 2.586728 1_455
Al2 Ni2 2.573975 1_555
Al2 Ni2 2.573975 1_554
Al2 Ni1 2.586730 1_555
Al2 Ni0 2.586730 1_555
Ni0 U0 2.840195 1_564
Ni0 U0 2.840195 1_565
Ni0 U1 2.840196 1_554
Ni0 U1 2.840196 1_555
Ni0 U2 2.840199 1_555
Ni0 U2 2.840199 1_554
Ni1 U1 2.840195 1_654
Ni1 U1 2.840195 1_655
Ni1 U0 2.840196 1_555
Ni1 U0 2.840196 1_554
Ni1 U2 2.840199 1_555
Ni1 U2 2.840199 1_554
Ni2 U2 2.830747 1_445
Ni2 U0 2.830747 1_555
Ni2 U1 2.830747 1_555
