# generated using pymatgen
data_Tl2FeCu3S4
_symmetry_space_group_name_H-M   'P 1'
_cell_length_a   3.83837300
_cell_length_b   3.83837300
_cell_length_c   13.68851600
_cell_angle_alpha   90.00000000
_cell_angle_beta   90.00000000
_cell_angle_gamma   90.00000000
_symmetry_Int_Tables_number   1
_chemical_formula_structural   Tl2FeCu3S4
_chemical_formula_sum   'Tl2 Fe1 Cu3 S4'
_cell_volume   201.67437483
_cell_formula_units_Z   1
loop_
 _symmetry_equiv_pos_site_id
 _symmetry_equiv_pos_as_xyz
  1  'x, y, z'
loop_
 _atom_site_type_symbol
 _atom_site_label
 _atom_site_symmetry_multiplicity
 _atom_site_fract_x
 _atom_site_fract_y
 _atom_site_fract_z
 _atom_site_occupancy
  Tl  Tl0  1  0.50000000  0.00000000  0.73639000  1
  Tl  Tl1  1  0.00000000  0.50000000  0.26361000  1
  Fe  Fe0  1  0.50000000  0.50000000  0.00000000  1
  Cu  Cu0  1  0.00000000  0.00000000  0.50000000  1
  Cu  Cu1  1  0.00000000  0.00000000  0.00000000  1
  Cu  Cu2  1  0.50000000  0.50000000  0.50000000  1
  S  S0  1  0.00000000  0.50000000  0.90146200  1
  S  S1  1  0.50000000  0.00000000  0.39786500  1
  S  S2  1  0.50000000  0.00000000  0.09853800  1
  S  S3  1  0.00000000  0.50000000  0.60213500  1
loop_
_geom_bond_atom_site_label_1
_geom_bond_atom_site_label_2
_geom_bond_distance
_geom_bond_site_symmetry_2
Fe0 S2 2.345771 1_555
Fe0 S2 2.345771 1_565
Fe0 S0 2.345771 1_654
Fe0 S0 2.345771 1_554
Cu0 S3 2.374425 1_545
Cu0 S3 2.374425 1_555
Cu0 S1 2.374425 1_455
Cu0 S1 2.374425 1_555
Cu1 S2 2.345771 1_555
Cu1 S2 2.345771 1_455
Cu1 S0 2.345771 1_544
Cu1 S0 2.345771 1_554
Cu2 S3 2.374425 1_655
Cu2 S3 2.374425 1_555
Cu2 S1 2.374425 1_555
Cu2 S1 2.374425 1_565
S1 Tl1 3.277787 1_545
S1 Tl1 3.277787 1_645
S1 Tl1 3.277787 1_555
S1 Tl1 3.277787 1_655
S3 Tl0 3.277787 1_555
S3 Tl0 3.277787 1_565
S3 Tl0 3.277787 1_455
S3 Tl0 3.277787 1_465
