# generated using pymatgen
data_CaYMg14O16
_symmetry_space_group_name_H-M   'P 1'
_cell_length_a   4.41531900
_cell_length_b   8.75487900
_cell_length_c   8.83351000
_cell_angle_alpha   90.00000000
_cell_angle_beta   90.00000000
_cell_angle_gamma   90.00000000
_symmetry_Int_Tables_number   1
_chemical_formula_structural   CaYMg14O16
_chemical_formula_sum   'Ca1 Y1 Mg14 O16'
_cell_volume   341.46448421
_cell_formula_units_Z   1
loop_
 _symmetry_equiv_pos_site_id
 _symmetry_equiv_pos_as_xyz
  1  'x, y, z'
loop_
 _atom_site_type_symbol
 _atom_site_label
 _atom_site_symmetry_multiplicity
 _atom_site_fract_x
 _atom_site_fract_y
 _atom_site_fract_z
 _atom_site_occupancy
  Ca  Ca0  1  0.00000000  0.00000000  0.00000000  1
  Y  Y0  1  0.00000000  0.00000000  0.50000000  1
  Mg  Mg0  1  0.00000000  0.50000000  0.00000000  1
  Mg  Mg1  1  0.00000000  0.50000000  0.50000000  1
  Mg  Mg2  1  0.50000000  0.00000000  0.24211900  1
  Mg  Mg3  1  0.50000000  0.00000000  0.75788100  1
  Mg  Mg4  1  0.50000000  0.50000000  0.24838100  1
  Mg  Mg5  1  0.50000000  0.50000000  0.75161900  1
  Mg  Mg6  1  0.50000000  0.25782000  0.00000000  1
  Mg  Mg7  1  0.50000000  0.26339000  0.50000000  1
  Mg  Mg8  1  0.50000000  0.74218000  0.00000000  1
  Mg  Mg9  1  0.50000000  0.73661000  0.50000000  1
  Mg  Mg10  1  0.00000000  0.26075000  0.24534700  1
  Mg  Mg11  1  0.00000000  0.26075000  0.75465300  1
  Mg  Mg12  1  0.00000000  0.73925000  0.24534700  1
  Mg  Mg13  1  0.00000000  0.73925000  0.75465300  1
  O  O0  1  0.00000000  0.26477200  0.00000000  1
  O  O1  1  0.00000000  0.26041000  0.50000000  1
  O  O2  1  0.00000000  0.73522800  0.00000000  1
  O  O3  1  0.00000000  0.73959000  0.50000000  1
  O  O4  1  0.50000000  0.24902100  0.25013700  1
  O  O5  1  0.50000000  0.24902100  0.74986300  1
  O  O6  1  0.50000000  0.75097900  0.25013700  1
  O  O7  1  0.50000000  0.75097900  0.74986300  1
  O  O8  1  0.50000000  0.00000000  0.00000000  1
  O  O9  1  0.50000000  0.00000000  0.50000000  1
  O  O10  1  0.50000000  0.50000000  0.00000000  1
  O  O11  1  0.50000000  0.50000000  0.50000000  1
  O  O12  1  0.00000000  0.00000000  0.25213100  1
  O  O13  1  0.00000000  0.00000000  0.74786900  1
  O  O14  1  0.00000000  0.50000000  0.25125800  1
  O  O15  1  0.00000000  0.50000000  0.74874200  1
loop_
_geom_bond_atom_site_label_1
_geom_bond_atom_site_label_2
_geom_bond_distance
_geom_bond_site_symmetry_2
Ca0 O8 2.207660 1_455
Ca0 O8 2.207660 1_555
Ca0 O13 2.227202 1_554
Ca0 O12 2.227202 1_555
Ca0 O2 2.318047 1_545
Ca0 O0 2.318047 1_555
Mg0 O0 2.059393 1_555
Mg0 O2 2.059393 1_555
Mg0 O10 2.207660 1_555
Mg0 O10 2.207660 1_455
Mg0 O14 2.219490 1_555
Mg0 O15 2.219490 1_554
Mg1 O1 2.097581 1_555
Mg1 O3 2.097581 1_555
Mg1 O14 2.197265 1_555
Mg1 O15 2.197265 1_555
Mg1 O11 2.207660 1_555
Mg1 O11 2.207660 1_455
Mg2 O8 2.138761 1_555
Mg2 O4 2.181299 1_555
Mg2 O6 2.181299 1_545
Mg2 O12 2.209430 1_655
Mg2 O12 2.209430 1_555
Mg2 O9 2.277994 1_555
Mg3 O8 2.138761 1_556
Mg3 O5 2.181299 1_555
Mg3 O7 2.181299 1_545
Mg3 O13 2.209430 1_555
Mg3 O13 2.209430 1_655
Mg3 O9 2.277994 1_555
Mg4 O10 2.194076 1_555
Mg4 O6 2.197346 1_555
Mg4 O4 2.197346 1_555
Mg4 O14 2.207806 1_655
Mg4 O14 2.207806 1_555
Mg4 O11 2.222679 1_555
Mg5 O10 2.194076 1_556
Mg5 O7 2.197346 1_555
Mg5 O5 2.197346 1_555
Mg5 O15 2.207806 1_655
Mg5 O15 2.207806 1_555
Mg5 O11 2.222679 1_555
Mg6 O10 2.120257 1_555
Mg6 O0 2.208498 1_555
Mg6 O0 2.208498 1_655
Mg6 O4 2.210930 1_555
Mg6 O5 2.210930 1_554
Mg6 O8 2.257183 1_555
Mg7 O11 2.071492 1_555
Mg7 O1 2.207814 1_655
Mg7 O1 2.207814 1_555
Mg7 O5 2.210749 1_555
Mg7 O4 2.210749 1_555
Mg7 O9 2.305948 1_555
Mg8 O10 2.120257 1_555
Mg8 O2 2.208498 1_555
Mg8 O2 2.208498 1_655
Mg8 O6 2.210930 1_555
Mg8 O7 2.210930 1_554
Mg8 O8 2.257183 1_565
Mg9 O11 2.071492 1_555
Mg9 O3 2.207814 1_555
Mg9 O3 2.207814 1_655
Mg9 O7 2.210749 1_555
Mg9 O6 2.210749 1_555
Mg9 O9 2.305948 1_565
Mg10 O14 2.095256 1_555
Mg10 O0 2.167561 1_555
Mg10 O4 2.210451 1_555
Mg10 O4 2.210451 1_455
Mg10 O1 2.249482 1_555
Mg10 O12 2.283621 1_555
Mg11 O15 2.095256 1_555
Mg11 O0 2.167561 1_556
Mg11 O5 2.210451 1_555
Mg11 O5 2.210451 1_455
Mg11 O1 2.249482 1_555
Mg11 O13 2.283621 1_555
Mg12 O14 2.095256 1_555
Mg12 O2 2.167561 1_555
Mg12 O6 2.210451 1_455
Mg12 O6 2.210451 1_555
Mg12 O3 2.249482 1_555
Mg12 O12 2.283621 1_565
Mg13 O15 2.095256 1_555
Mg13 O2 2.167561 1_556
Mg13 O7 2.210451 1_555
Mg13 O7 2.210451 1_455
Mg13 O3 2.249482 1_555
Mg13 O13 2.283621 1_565
O1 Y0 2.279858 1_555
O3 Y0 2.279858 1_565
O9 Y0 2.207660 1_555
O9 Y0 2.207660 1_655
O12 Y0 2.189553 1_555
O13 Y0 2.189553 1_555
