# generated using pymatgen
data_H36Pb3C10(I5N2)2
_symmetry_space_group_name_H-M   'P 1'
_cell_length_a   26.84944258
_cell_length_b   26.84944258
_cell_length_c   9.16150100
_cell_angle_alpha   90.00000000
_cell_angle_beta   90.00000000
_cell_angle_gamma   160.63730446
_symmetry_Int_Tables_number   1
_chemical_formula_structural   H36Pb3C10(I5N2)2
_chemical_formula_sum   'H72 Pb6 C20 I20 N8'
_cell_volume   2189.68784969
_cell_formula_units_Z   2
loop_
 _symmetry_equiv_pos_site_id
 _symmetry_equiv_pos_as_xyz
  1  'x, y, z'
loop_
 _atom_site_type_symbol
 _atom_site_label
 _atom_site_symmetry_multiplicity
 _atom_site_fract_x
 _atom_site_fract_y
 _atom_site_fract_z
 _atom_site_occupancy
  H  H0  1  0.67715200  0.51874200  0.90287200  1
  H  H1  1  0.51874200  0.67715200  0.09712800  1
  H  H2  1  0.17715200  0.01874200  0.59712800  1
  H  H3  1  0.01874200  0.17715200  0.40287200  1
  H  H4  1  0.75576300  0.63368900  0.01529700  1
  H  H5  1  0.63368900  0.75576300  0.98470300  1
  H  H6  1  0.25576300  0.13368900  0.48470300  1
  H  H7  1  0.13368900  0.25576300  0.51529700  1
  H  H8  1  0.64991900  0.55392500  0.87846800  1
  H  H9  1  0.55392500  0.64991900  0.12153200  1
  H  H10  1  0.14991900  0.05392500  0.62153200  1
  H  H11  1  0.05392500  0.14991900  0.37846800  1
  H  H12  1  0.42205000  0.30111600  0.98451600  1
  H  H13  1  0.30111600  0.42205000  0.01548400  1
  H  H14  1  0.92205000  0.80111600  0.51548400  1
  H  H15  1  0.80111600  0.92205000  0.48451600  1
  H  H16  1  0.50674700  0.42535300  0.10529700  1
  H  H17  1  0.42535300  0.50674700  0.89470300  1
  H  H18  1  0.00674700  0.92535300  0.39470300  1
  H  H19  1  0.92535300  0.00674700  0.60529700  1
  H  H20  1  0.53550900  0.38749600  0.13521600  1
  H  H21  1  0.38749600  0.53550900  0.86478400  1
  H  H22  1  0.03550900  0.88749600  0.36478400  1
  H  H23  1  0.88749600  0.03550900  0.63521600  1
  H  H24  1  0.23346900  0.92617500  0.58394300  1
  H  H25  1  0.92617500  0.23346900  0.41605700  1
  H  H26  1  0.73346900  0.42617500  0.91605700  1
  H  H27  1  0.42617500  0.73346900  0.08394300  1
  H  H28  1  0.09195000  0.75415100  0.61689400  1
  H  H29  1  0.75415100  0.09195000  0.38310600  1
  H  H30  1  0.59195000  0.25415100  0.88310600  1
  H  H31  1  0.25415100  0.59195000  0.11689400  1
  H  H32  1  0.10373300  0.79336300  0.45302800  1
  H  H33  1  0.79336300  0.10373300  0.54697200  1
  H  H34  1  0.60373300  0.29336300  0.04697200  1
  H  H35  1  0.29336300  0.60373300  0.95302800  1
  H  H36  1  0.34173800  0.97374800  0.40559300  1
  H  H37  1  0.97374800  0.34173800  0.59440700  1
  H  H38  1  0.84173800  0.47374800  0.09440700  1
  H  H39  1  0.47374800  0.84173800  0.90559300  1
  H  H40  1  0.31637200  0.91872500  0.57535200  1
  H  H41  1  0.91872500  0.31637200  0.42464800  1
  H  H42  1  0.81637200  0.41872500  0.92464800  1
  H  H43  1  0.41872500  0.81637200  0.07535200  1
  H  H44  1  0.06173300  0.64578700  0.47457100  1
  H  H45  1  0.64578700  0.06173300  0.52542900  1
  H  H46  1  0.56173300  0.14578700  0.02542900  1
  H  H47  1  0.14578700  0.56173300  0.97457100  1
  H  H48  1  0.11116000  0.71884900  0.30432400  1
  H  H49  1  0.71884900  0.11116000  0.69567600  1
  H  H50  1  0.61116000  0.21884900  0.19567600  1
  H  H51  1  0.21884900  0.61116000  0.80432400  1
  H  H52  1  0.27428800  0.78849200  0.46549800  1
  H  H53  1  0.78849200  0.27428800  0.53450200  1
  H  H54  1  0.77428800  0.28849200  0.03450200  1
  H  H55  1  0.28849200  0.77428800  0.96549800  1
  H  H56  1  0.35784500  0.89976900  0.31962900  1
  H  H57  1  0.89976900  0.35784500  0.68037100  1
  H  H58  1  0.85784500  0.39976900  0.18037100  1
  H  H59  1  0.39976900  0.85784500  0.81962900  1
  H  H60  1  0.22995200  0.70078400  0.23136800  1
  H  H61  1  0.70078400  0.22995200  0.76863200  1
  H  H62  1  0.72995200  0.20078400  0.26863200  1
  H  H63  1  0.20078400  0.72995200  0.73136800  1
  H  H64  1  0.14716300  0.67686000  0.15336500  1
  H  H65  1  0.67686000  0.14716300  0.84663500  1
  H  H66  1  0.64716300  0.17686000  0.34663500  1
  H  H67  1  0.17686000  0.64716300  0.65336500  1
  H  H68  1  0.05624200  0.55909400  0.29834300  1
  H  H69  1  0.55909400  0.05624200  0.70165700  1
  H  H70  1  0.55624200  0.05909400  0.20165700  1
  H  H71  1  0.05909400  0.55624200  0.79834300  1
  Pb  Pb0  1  0.01383400  0.01383400  0.00000000  1
  Pb  Pb1  1  0.51383400  0.51383400  0.50000000  1
  Pb  Pb2  1  0.14999500  0.90231700  0.00125100  1
  Pb  Pb3  1  0.90231700  0.14999500  0.99874900  1
  Pb  Pb4  1  0.64999500  0.40231700  0.49874900  1
  Pb  Pb5  1  0.40231700  0.64999500  0.50125100  1
  C  C0  1  0.52075600  0.40246500  0.05197700  1
  C  C1  1  0.40246500  0.52075600  0.94802300  1
  C  C2  1  0.02075600  0.90246500  0.44802300  1
  C  C3  1  0.90246500  0.02075600  0.55197700  1
  C  C4  1  0.25719500  0.87846900  0.48052700  1
  C  C5  1  0.87846900  0.25719500  0.51947300  1
  C  C6  1  0.75719500  0.37846900  0.01947300  1
  C  C7  1  0.37846900  0.75719500  0.98052700  1
  C  C8  1  0.15825600  0.74684800  0.40475200  1
  C  C9  1  0.74684800  0.15825600  0.59524800  1
  C  C10  1  0.65825600  0.24684800  0.09524800  1
  C  C11  1  0.24684800  0.65825600  0.90475200  1
  C  C12  1  0.24870500  0.78550900  0.36551100  1
  C  C13  1  0.78550900  0.24870500  0.63448900  1
  C  C14  1  0.74870500  0.28550900  0.13448900  1
  C  C15  1  0.28550900  0.74870500  0.86551100  1
  C  C16  1  0.16629100  0.67473800  0.25622400  1
  C  C17  1  0.67473800  0.16629100  0.74377600  1
  C  C18  1  0.66629100  0.17473800  0.24377600  1
  C  C19  1  0.17473800  0.66629100  0.75622400  1
  I  I0  1  0.06173400  0.93967200  0.02229900  1
  I  I1  1  0.93967200  0.06173400  0.97770100  1
  I  I2  1  0.56173400  0.43967200  0.47770100  1
  I  I3  1  0.43967200  0.56173400  0.52229900  1
  I  I4  1  0.41758700  0.15623500  0.23716100  1
  I  I5  1  0.15623500  0.41758700  0.76283900  1
  I  I6  1  0.91758700  0.65623500  0.26283900  1
  I  I7  1  0.65623500  0.91758700  0.73716100  1
  I  I8  1  0.37553300  0.14229600  0.73719300  1
  I  I9  1  0.14229600  0.37553300  0.26280700  1
  I  I10  1  0.87553300  0.64229600  0.76280700  1
  I  I11  1  0.64229600  0.87553300  0.23719300  1
  I  I12  1  0.75894400  0.77253500  0.24540900  1
  I  I13  1  0.77253500  0.75894400  0.75459100  1
  I  I14  1  0.25894400  0.27253500  0.25459100  1
  I  I15  1  0.27253500  0.25894400  0.74540900  1
  I  I16  1  0.20761800  0.84524900  0.93221300  1
  I  I17  1  0.84524900  0.20761800  0.06778700  1
  I  I18  1  0.70761800  0.34524900  0.56778700  1
  I  I19  1  0.34524900  0.70761800  0.43221300  1
  N  N0  1  0.65746400  0.53333200  0.95721300  1
  N  N1  1  0.53333200  0.65746400  0.04278700  1
  N  N2  1  0.15746400  0.03333200  0.54278700  1
  N  N3  1  0.03333200  0.15746400  0.45721300  1
  N  N4  1  0.16623900  0.83578300  0.53658500  1
  N  N5  1  0.83578300  0.16623900  0.46341500  1
  N  N6  1  0.66623900  0.33578300  0.96341500  1
  N  N7  1  0.33578300  0.66623900  0.03658500  1
loop_
_geom_bond_atom_site_label_1
_geom_bond_atom_site_label_2
_geom_bond_distance
_geom_bond_site_symmetry_2
H0 N0 1.035114 1_555
H1 N1 1.035114 1_555
H2 N2 1.035114 1_555
H3 N3 1.035114 1_555
H4 N0 1.044368 1_554
H5 N1 1.044368 1_556
H6 N2 1.044368 1_555
H7 N3 1.044368 1_555
H8 N0 1.038530 1_555
H9 N1 1.038530 1_555
H10 N2 1.038530 1_555
H11 N3 1.038530 1_555
H24 N4 1.034681 1_555
H25 N5 1.034681 1_555
H26 N6 1.034681 1_555
H27 N7 1.034681 1_555
H28 N4 1.036698 1_555
H29 N5 1.036698 1_555
H30 N6 1.036698 1_555
H31 N7 1.036698 1_555
H32 N4 1.045501 1_555
H33 N5 1.045501 1_555
H34 N6 1.045501 1_554
H35 N7 1.045501 1_556
C0 H16 1.092653 1_555
C0 H20 1.095616 1_555
C0 H12 1.096728 1_554
C0 N0 1.495759 1_554
C1 H17 1.092653 1_555
C1 H21 1.095616 1_555
C1 H13 1.096728 1_556
C1 N1 1.495759 1_556
C2 H18 1.092653 1_555
C2 H22 1.095616 1_555
C2 H14 1.096728 1_455
C2 N2 1.495759 1_565
C3 H19 1.092653 1_555
C3 H23 1.095616 1_555
C3 H15 1.096728 1_545
C3 N3 1.495759 1_655
C4 H40 1.098663 1_555
C4 H36 1.100580 1_555
C4 N4 1.503347 1_555
C5 H41 1.098663 1_555
C5 H37 1.100580 1_555
C5 N5 1.503347 1_555
C6 H42 1.098663 1_554
C6 H38 1.100580 1_555
C6 N6 1.503347 1_554
C7 H43 1.098663 1_556
C7 H39 1.100580 1_555
C7 N7 1.503347 1_556
C8 H48 1.103164 1_555
C8 H44 1.104302 1_555
C9 H49 1.103164 1_555
C9 H45 1.104302 1_555
C10 H50 1.103164 1_555
C10 H46 1.104302 1_555
C11 H51 1.103164 1_555
C11 H47 1.104302 1_555
C12 H56 1.101152 1_555
C12 H52 1.101608 1_555
C13 H57 1.101152 1_555
C13 H53 1.101608 1_555
C14 H58 1.101152 1_555
C14 H54 1.101608 1_555
C15 H59 1.101152 1_555
C15 H55 1.101608 1_555
C16 H60 1.098661 1_555
C16 H68 1.099682 1_555
C16 H64 1.100104 1_555
C17 H61 1.098661 1_555
C17 H69 1.099682 1_555
C17 H65 1.100104 1_555
C18 H62 1.098661 1_555
C18 H70 1.099682 1_555
C18 H66 1.100104 1_555
C19 H63 1.098661 1_555
C19 H71 1.099682 1_555
C19 H67 1.100104 1_555
I0 Pb0 3.239246 1_565
I0 Pb2 3.338196 1_555
I1 Pb0 3.239246 1_656
I1 Pb3 3.338196 1_555
I2 Pb1 3.239246 1_555
I2 Pb4 3.338196 1_555
I3 Pb1 3.239246 1_555
I3 Pb5 3.338196 1_555
I4 Pb2 3.216666 1_545
I4 Pb4 3.246861 1_555
I5 Pb3 3.216666 1_455
I5 Pb5 3.246861 1_555
I6 Pb4 3.216666 1_555
I6 Pb2 3.246861 1_655
I7 Pb5 3.216666 1_555
I7 Pb3 3.246861 1_565
I8 Pb2 3.227462 1_546
I8 Pb4 3.277534 1_555
I9 Pb3 3.227462 1_454
I9 Pb5 3.277534 1_555
I10 Pb4 3.227462 1_555
I10 Pb2 3.277534 1_656
I11 Pb5 3.227462 1_555
I11 Pb3 3.277534 1_564
I12 Pb0 3.194329 1_665
I12 Pb1 3.277876 1_555
I13 Pb0 3.194329 1_666
I13 Pb1 3.277876 1_555
I14 Pb1 3.194329 1_555
I14 Pb0 3.277876 1_555
I15 Pb1 3.194329 1_555
I15 Pb0 3.277876 1_556
I16 Pb2 3.100728 1_556
I17 Pb3 3.100728 1_554
I18 Pb4 3.100728 1_555
I19 Pb5 3.100728 1_555
