# generated using pymatgen
data_MgCu2TeO12
_symmetry_space_group_name_H-M   'P 1'
_cell_length_a   5.28851496
_cell_length_b   5.28851496
_cell_length_c   8.58711200
_cell_angle_alpha   90.00000000
_cell_angle_beta   90.00000000
_cell_angle_gamma   119.99998695
_symmetry_Int_Tables_number   1
_chemical_formula_structural   MgCu2TeO12
_chemical_formula_sum   'Mg1 Cu2 Te1 O12'
_cell_volume   207.99135781
_cell_formula_units_Z   1
loop_
 _symmetry_equiv_pos_site_id
 _symmetry_equiv_pos_as_xyz
  1  'x, y, z'
loop_
 _atom_site_type_symbol
 _atom_site_label
 _atom_site_symmetry_multiplicity
 _atom_site_fract_x
 _atom_site_fract_y
 _atom_site_fract_z
 _atom_site_occupancy
  Mg  Mg0  1  0.00000000  0.00000000  0.50000000  1
  Cu  Cu0  1  0.66666700  0.33333300  0.00000000  1
  Cu  Cu1  1  0.33333300  0.66666700  0.00000000  1
  Te  Te0  1  0.00000000  0.00000000  0.00000000  1
  O  O0  1  0.57557300  0.57557300  0.55877000  1
  O  O1  1  0.42442700  0.42442700  0.44123000  1
  O  O2  1  0.00000000  0.42442700  0.55877000  1
  O  O3  1  0.00000000  0.57557300  0.44123000  1
  O  O4  1  0.42442700  0.00000000  0.55877000  1
  O  O5  1  0.57557300  0.00000000  0.44123000  1
  O  O6  1  0.68238000  0.68238000  0.88076700  1
  O  O7  1  0.31762000  0.31762000  0.11923300  1
  O  O8  1  0.00000000  0.31762000  0.88076700  1
  O  O9  1  0.00000000  0.68238000  0.11923300  1
  O  O10  1  0.31762000  0.00000000  0.88076700  1
  O  O11  1  0.68238000  0.00000000  0.11923300  1
loop_
_geom_bond_atom_site_label_1
_geom_bond_atom_site_label_2
_geom_bond_distance
_geom_bond_site_symmetry_2
Mg0 O3 2.300623 1_545
Mg0 O5 2.300623 1_455
Mg0 O2 2.300623 1_555
Mg0 O4 2.300623 1_555
Mg0 O1 2.300623 1_555
Mg0 O0 2.300623 1_445
Cu0 O11 2.075883 1_555
Cu0 O8 2.075883 1_654
Cu0 O9 2.075886 1_655
Cu0 O10 2.075886 1_554
Cu0 O7 2.075888 1_555
Cu0 O6 2.075888 1_554
Cu1 O9 2.075883 1_555
Cu1 O10 2.075883 1_564
Cu1 O11 2.075886 1_565
Cu1 O8 2.075886 1_554
Cu1 O7 2.075888 1_555
Cu1 O6 2.075888 1_554
O0 O1 1.287512 1_555
O2 O3 1.287512 1_555
O4 O5 1.287512 1_555
O6 Te0 1.967187 1_666
O7 Te0 1.967187 1_555
O8 Te0 1.967187 1_556
O9 Te0 1.967187 1_565
O10 Te0 1.967187 1_556
O11 Te0 1.967187 1_655
