# generated using pymatgen
data_La7Rh3
_symmetry_space_group_name_H-M   'P 1'
_cell_length_a   10.31586300
_cell_length_b   10.31586375
_cell_length_c   6.48820400
_cell_angle_alpha   90.00000000
_cell_angle_beta   90.00000000
_cell_angle_gamma   120.00000079
_symmetry_Int_Tables_number   1
_chemical_formula_structural   La7Rh3
_chemical_formula_sum   'La14 Rh6'
_cell_volume   597.95195198
_cell_formula_units_Z   2
loop_
 _symmetry_equiv_pos_site_id
 _symmetry_equiv_pos_as_xyz
  1  'x, y, z'
loop_
 _atom_site_type_symbol
 _atom_site_label
 _atom_site_symmetry_multiplicity
 _atom_site_fract_x
 _atom_site_fract_y
 _atom_site_fract_z
 _atom_site_occupancy
  La  La0  1  0.66666700  0.33333300  0.56712400  1
  La  La1  1  0.33333300  0.66666700  0.06712400  1
  La  La2  1  0.87488400  0.74976800  0.76410600  1
  La  La3  1  0.25023200  0.12511600  0.76410600  1
  La  La4  1  0.87488400  0.12511600  0.76410600  1
  La  La5  1  0.12511600  0.25023200  0.26410600  1
  La  La6  1  0.74976800  0.87488400  0.26410600  1
  La  La7  1  0.12511600  0.87488400  0.26410600  1
  La  La8  1  0.45781200  0.91562500  0.59313000  1
  La  La9  1  0.08437500  0.54218800  0.59313000  1
  La  La10  1  0.45781200  0.54218800  0.59313000  1
  La  La11  1  0.54218800  0.08437500  0.09313000  1
  La  La12  1  0.91562500  0.45781200  0.09313000  1
  La  La13  1  0.54218800  0.45781200  0.09313000  1
  Rh  Rh0  1  0.18997300  0.37994500  0.85623100  1
  Rh  Rh1  1  0.62005500  0.81002700  0.85623100  1
  Rh  Rh2  1  0.18997300  0.81002700  0.85623100  1
  Rh  Rh3  1  0.81002700  0.62005500  0.35623100  1
  Rh  Rh4  1  0.37994500  0.18997300  0.35623100  1
  Rh  Rh5  1  0.81002700  0.18997300  0.35623100  1
loop_
_geom_bond_atom_site_label_1
_geom_bond_atom_site_label_2
_geom_bond_distance
_geom_bond_site_symmetry_2
La0 Rh5 2.904061 1_555
La0 Rh4 2.904076 1_555
La0 Rh3 2.904076 1_555
La1 Rh2 2.904061 1_554
La1 Rh1 2.904076 1_554
La1 Rh0 2.904076 1_554
La2 Rh3 2.888978 1_555
La2 Rh1 3.047670 1_555
La2 Rh2 3.047680 1_655
La3 Rh4 2.888978 1_555
La3 Rh0 3.047670 1_555
La3 Rh2 3.047680 1_545
La4 Rh5 2.888982 1_555
La4 Rh0 3.047677 1_655
La4 Rh1 3.047677 1_545
La5 Rh0 2.888978 1_554
La5 Rh4 3.047670 1_555
La5 Rh5 3.047680 1_455
La6 Rh1 2.888978 1_554
La6 Rh3 3.047670 1_555
La6 Rh5 3.047680 1_565
La7 Rh2 2.888982 1_554
La7 Rh3 3.047677 1_455
La7 Rh4 3.047677 1_565
La8 Rh2 2.953807 1_555
La8 Rh1 2.953822 1_555
La9 Rh2 2.953807 1_555
La9 Rh0 2.953822 1_555
La10 Rh0 2.953809 1_555
La10 Rh1 2.953809 1_555
La11 Rh5 2.953807 1_555
La11 Rh4 2.953822 1_555
La12 Rh5 2.953807 1_555
La12 Rh3 2.953822 1_555
La13 Rh3 2.953809 1_555
La13 Rh4 2.953809 1_555
