# generated using pymatgen
data_ScBiO3
_symmetry_space_group_name_H-M   'P 1'
_cell_length_a   6.01484032
_cell_length_b   6.01484032
_cell_length_c   6.01484077
_cell_angle_alpha   56.62642017
_cell_angle_beta   56.62642017
_cell_angle_gamma   56.62642390
_symmetry_Int_Tables_number   1
_chemical_formula_structural   ScBiO3
_chemical_formula_sum   'Sc2 Bi2 O6'
_cell_volume   141.88024261
_cell_formula_units_Z   2
loop_
 _symmetry_equiv_pos_site_id
 _symmetry_equiv_pos_as_xyz
  1  'x, y, z'
loop_
 _atom_site_type_symbol
 _atom_site_label
 _atom_site_symmetry_multiplicity
 _atom_site_fract_x
 _atom_site_fract_y
 _atom_site_fract_z
 _atom_site_occupancy
  Sc  Sc0  1  0.85136300  0.85136300  0.85136300  1
  Sc  Sc1  1  0.14863700  0.14863700  0.14863700  1
  Bi  Bi0  1  0.63694900  0.63694900  0.63694900  1
  Bi  Bi1  1  0.36305100  0.36305100  0.36305100  1
  O  O0  1  0.55337700  0.97710700  0.20625500  1
  O  O1  1  0.79374500  0.44662300  0.02289300  1
  O  O2  1  0.02289300  0.79374500  0.44662300  1
  O  O3  1  0.97710700  0.20625500  0.55337700  1
  O  O4  1  0.20625500  0.55337700  0.97710700  1
  O  O5  1  0.44662300  0.02289300  0.79374500  1
loop_
_geom_bond_atom_site_label_1
_geom_bond_atom_site_label_2
_geom_bond_distance
_geom_bond_site_symmetry_2
Bi0 O4 2.370572 1_555
Bi0 O3 2.370572 1_555
Bi0 O0 2.370572 1_555
Bi0 O2 2.426093 1_655
Bi0 O5 2.426093 1_565
Bi0 O1 2.426093 1_556
Bi1 O1 2.370572 1_555
Bi1 O2 2.370572 1_555
Bi1 O5 2.370572 1_555
Bi1 O3 2.426093 1_455
Bi1 O0 2.426093 1_545
Bi1 O4 2.426093 1_554
O0 Sc0 2.101580 1_554
O0 Sc1 2.209661 1_565
O1 Sc1 2.101579 1_655
O1 Sc0 2.209661 1_554
O2 Sc1 2.101579 1_565
O2 Sc0 2.209661 1_455
O3 Sc0 2.101579 1_545
O3 Sc1 2.209661 1_655
O4 Sc0 2.101579 1_455
O4 Sc1 2.209661 1_556
O5 Sc1 2.101580 1_556
O5 Sc0 2.209661 1_545
