# generated using pymatgen
data_Te2MoWSe2
_symmetry_space_group_name_H-M   'P 1'
_cell_length_a   3.43761036
_cell_length_b   3.43761036
_cell_length_c   39.14105500
_cell_angle_alpha   90.00000000
_cell_angle_beta   90.00000000
_cell_angle_gamma   120.00000686
_symmetry_Int_Tables_number   1
_chemical_formula_structural   Te2MoWSe2
_chemical_formula_sum   'Te4 Mo2 W2 Se4'
_cell_volume   400.56816155
_cell_formula_units_Z   2
loop_
 _symmetry_equiv_pos_site_id
 _symmetry_equiv_pos_as_xyz
  1  'x, y, z'
loop_
 _atom_site_type_symbol
 _atom_site_label
 _atom_site_symmetry_multiplicity
 _atom_site_fract_x
 _atom_site_fract_y
 _atom_site_fract_z
 _atom_site_occupancy
  Te  Te0  1  0.00000000  0.00000000  0.32942500  1
  Te  Te1  1  0.33333300  0.66666700  0.42233000  1
  Te  Te2  1  0.33333300  0.66666700  0.51705700  1
  Te  Te3  1  0.00000000  0.00000000  0.23407900  1
  Mo  Mo0  1  0.00000000  0.00000000  0.09393100  1
  Mo  Mo1  1  0.00000000  0.00000000  0.46970900  1
  W  W0  1  0.33333300  0.66666700  0.28177100  1
  W  W1  1  0.33333300  0.66666700  0.65754000  1
  Se  Se0  1  0.00000000  0.00000000  0.69946000  1
  Se  Se1  1  0.33333300  0.66666700  0.05212200  1
  Se  Se2  1  0.33333300  0.66666700  0.13570800  1
  Se  Se3  1  0.00000000  0.00000000  0.61561500  1
loop_
_geom_bond_atom_site_label_1
_geom_bond_atom_site_label_2
_geom_bond_distance
_geom_bond_site_symmetry_2
Te0 W0 2.723623 1_545
Te0 W0 2.723625 1_555
Te0 W0 2.723625 1_445
Te3 W0 2.724642 1_545
Te3 W0 2.724644 1_555
Te3 W0 2.724644 1_445
Mo0 Se2 2.571558 1_545
Mo0 Se2 2.571561 1_555
Mo0 Se2 2.571561 1_445
Mo0 Se1 2.572355 1_545
Mo0 Se1 2.572357 1_445
Mo0 Se1 2.572357 1_555
Mo1 Te2 2.715435 1_545
Mo1 Te2 2.715437 1_555
Mo1 Te2 2.715437 1_445
Mo1 Te1 2.716263 1_545
Mo1 Te1 2.716265 1_555
Mo1 Te1 2.716265 1_445
Se0 W1 2.575121 1_545
Se0 W1 2.575123 1_445
Se0 W1 2.575123 1_555
Se3 W1 2.575246 1_545
Se3 W1 2.575248 1_555
Se3 W1 2.575248 1_445
