# generated using pymatgen
data_Al3Ru
_symmetry_space_group_name_H-M   'P 1'
_cell_length_a   5.45907780
_cell_length_b   5.45907780
_cell_length_c   8.94260600
_cell_angle_alpha   90.00000000
_cell_angle_beta   90.00000000
_cell_angle_gamma   119.99999759
_symmetry_Int_Tables_number   1
_chemical_formula_structural   Al3Ru
_chemical_formula_sum   'Al12 Ru4'
_cell_volume   230.79867251
_cell_formula_units_Z   4
loop_
 _symmetry_equiv_pos_site_id
 _symmetry_equiv_pos_as_xyz
  1  'x, y, z'
loop_
 _atom_site_type_symbol
 _atom_site_label
 _atom_site_symmetry_multiplicity
 _atom_site_fract_x
 _atom_site_fract_y
 _atom_site_fract_z
 _atom_site_occupancy
  Al  Al0  1  0.50000000  0.50000000  0.50000000  1
  Al  Al1  1  0.50000000  0.00000000  0.50000000  1
  Al  Al2  1  0.00000000  0.50000000  0.50000000  1
  Al  Al3  1  0.50000000  0.50000000  0.00000000  1
  Al  Al4  1  0.50000000  0.00000000  0.00000000  1
  Al  Al5  1  0.00000000  0.50000000  0.00000000  1
  Al  Al6  1  0.83645200  0.67290400  0.25000000  1
  Al  Al7  1  0.32709600  0.16354800  0.25000000  1
  Al  Al8  1  0.83645200  0.16354800  0.25000000  1
  Al  Al9  1  0.16354800  0.32709600  0.75000000  1
  Al  Al10  1  0.67290400  0.83645200  0.75000000  1
  Al  Al11  1  0.16354800  0.83645200  0.75000000  1
  Ru  Ru0  1  0.00000000  0.00000000  0.50000000  1
  Ru  Ru1  1  0.00000000  0.00000000  0.00000000  1
  Ru  Ru2  1  0.33333300  0.66666700  0.25000000  1
  Ru  Ru3  1  0.66666700  0.33333300  0.75000000  1
loop_
_geom_bond_atom_site_label_1
_geom_bond_atom_site_label_2
_geom_bond_distance
_geom_bond_site_symmetry_2
Al0 Al1 2.729539 1_555
Al0 Al1 2.729539 1_565
Al0 Al2 2.729539 1_655
Al0 Al2 2.729539 1_555
Al0 Ru0 2.729539 1_555
Al0 Ru0 2.729539 1_665
Al0 Ru2 2.735253 1_555
Al0 Ru3 2.735253 1_555
Al0 Al9 2.743891 1_555
Al0 Al6 2.743891 1_555
Al0 Al7 2.743891 1_555
Al0 Al10 2.743891 1_555
Al1 Ru0 2.729539 1_555
Al1 Ru0 2.729539 1_655
Al1 Al2 2.729539 1_545
Al1 Al2 2.729539 1_655
Al1 Ru2 2.735250 1_545
Al1 Ru3 2.735250 1_555
Al1 Al7 2.743891 1_555
Al1 Al10 2.743891 1_545
Al1 Al11 2.743891 1_545
Al1 Al8 2.743891 1_555
Al2 Ru0 2.729539 1_565
Al2 Ru0 2.729539 1_555
Al2 Ru3 2.735250 1_455
Al2 Ru2 2.735250 1_555
Al2 Al6 2.743891 1_455
Al2 Al9 2.743891 1_555
Al2 Al8 2.743891 1_455
Al3 Al5 2.729539 1_655
Al3 Al4 2.729539 1_565
Al3 Al4 2.729539 1_555
Al3 Al5 2.729539 1_555
Al3 Ru1 2.729539 1_555
Al3 Ru1 2.729539 1_665
Al3 Ru3 2.735253 1_554
Al3 Ru2 2.735253 1_555
Al3 Al6 2.743891 1_555
Al3 Al7 2.743891 1_555
Al3 Al9 2.743891 1_554
Al4 Ru1 2.729539 1_655
Al4 Ru1 2.729539 1_555
Al4 Al5 2.729539 1_545
Al4 Al5 2.729539 1_655
Al4 Ru3 2.735250 1_554
Al4 Ru2 2.735250 1_545
Al4 Al7 2.743891 1_555
Al4 Al8 2.743891 1_555
Al5 Ru1 2.729539 1_555
Al5 Ru1 2.729539 1_565
Al5 Ru3 2.735250 1_454
Al5 Ru2 2.735250 1_555
Al5 Al6 2.743891 1_455
Al5 Al9 2.743891 1_554
Al5 Al8 2.743891 1_455
Al6 Al8 2.678464 1_565
Al6 Al7 2.678464 1_665
Al6 Ru1 2.718368 1_665
Al6 Ru0 2.718368 1_665
Al6 Ru2 2.729695 1_655
Al6 Ru2 2.729701 1_555
Al6 Al8 2.780614 1_555
Al6 Al7 2.780614 1_555
Al7 Al8 2.678464 1_455
Al7 Ru1 2.718368 1_555
Al7 Ru0 2.718368 1_555
Al7 Ru2 2.729695 1_545
Al7 Ru2 2.729701 1_555
Al7 Al8 2.780614 1_555
Al8 Ru0 2.718368 1_655
Al8 Ru1 2.718368 1_655
Al8 Ru2 2.729698 1_545
Al8 Ru2 2.729698 1_655
Al9 Ru1 2.718368 1_556
Al9 Ru0 2.718368 1_555
Al9 Ru3 2.729695 1_455
Al9 Ru3 2.729701 1_555
Al10 Al11 2.678464 1_655
Al10 Al9 2.678464 1_665
Al10 Ru1 2.718368 1_666
Al10 Ru0 2.718368 1_665
Al10 Ru3 2.729695 1_565
Al10 Ru3 2.729701 1_555
Al10 Al4 2.743891 1_566
Al10 Al3 2.743891 1_556
Al10 Al11 2.780614 1_555
Al10 Al9 2.780614 1_555
Al11 Al9 2.678464 1_565
Al11 Ru0 2.718368 1_565
Al11 Ru1 2.718368 1_566
Al11 Ru3 2.729698 1_455
Al11 Ru3 2.729698 1_565
Al11 Al4 2.743891 1_566
Al11 Al5 2.743891 1_556
Al11 Al2 2.743891 1_555
Al11 Al9 2.780614 1_555
