# generated using pymatgen
data_Na2PrWO6
_symmetry_space_group_name_H-M   'P 1'
_cell_length_a   8.41354390
_cell_length_b   8.41354390
_cell_length_c   8.41354390
_cell_angle_alpha   90.00000000
_cell_angle_beta   90.00000000
_cell_angle_gamma   90.00000000
_symmetry_Int_Tables_number   1
_chemical_formula_structural   Na2PrWO6
_chemical_formula_sum   'Na8 Pr4 W4 O24'
_cell_volume   595.57559785
_cell_formula_units_Z   4
loop_
 _symmetry_equiv_pos_site_id
 _symmetry_equiv_pos_as_xyz
  1  'x, y, z'
loop_
 _atom_site_type_symbol
 _atom_site_label
 _atom_site_symmetry_multiplicity
 _atom_site_fract_x
 _atom_site_fract_y
 _atom_site_fract_z
 _atom_site_occupancy
  Na  Na0  1  0.50000000  0.50000000  0.50000000  1
  Na  Na1  1  -0.00000000  -0.00000000  -0.00000000  1
  Na  Na2  1  -0.00000000  -0.00000000  0.50000000  1
  Na  Na3  1  -0.00000000  0.50000000  -0.00000000  1
  Na  Na4  1  0.50000000  -0.00000000  -0.00000000  1
  Na  Na5  1  0.50000000  0.50000000  -0.00000000  1
  Na  Na6  1  0.50000000  -0.00000000  0.50000000  1
  Na  Na7  1  -0.00000000  0.50000000  0.50000000  1
  Pr  Pr0  1  0.75000000  0.75000000  0.75000000  1
  Pr  Pr1  1  0.75000000  0.25000000  0.25000000  1
  Pr  Pr2  1  0.25000000  0.75000000  0.25000000  1
  Pr  Pr3  1  0.25000000  0.25000000  0.75000000  1
  W  W0  1  0.25000000  0.25000000  0.25000000  1
  W  W1  1  0.25000000  0.75000000  0.75000000  1
  W  W2  1  0.75000000  0.25000000  0.75000000  1
  W  W3  1  0.75000000  0.75000000  0.25000000  1
  O  O0  1  0.21146443  0.29657567  0.47423821  1
  O  O1  1  0.21146443  0.70342433  0.52576179  1
  O  O2  1  0.78853557  0.29657567  0.52576179  1
  O  O3  1  0.78853557  0.70342433  0.47423821  1
  O  O4  1  0.29657567  0.47423821  0.21146443  1
  O  O5  1  0.70342433  0.52576179  0.21146443  1
  O  O6  1  0.29657567  0.52576179  0.78853557  1
  O  O7  1  0.70342433  0.47423821  0.78853557  1
  O  O8  1  0.47423821  0.21146443  0.29657567  1
  O  O9  1  0.52576179  0.21146443  0.70342433  1
  O  O10  1  0.52576179  0.78853557  0.29657567  1
  O  O11  1  0.47423821  0.78853557  0.70342433  1
  O  O12  1  0.28853557  0.20342433  0.02576179  1
  O  O13  1  0.28853557  0.79657567  0.97423821  1
  O  O14  1  0.71146443  0.20342433  0.97423821  1
  O  O15  1  0.71146443  0.79657567  0.02576179  1
  O  O16  1  0.20342433  0.02576179  0.28853557  1
  O  O17  1  0.79657567  0.97423821  0.28853557  1
  O  O18  1  0.20342433  0.97423821  0.71146443  1
  O  O19  1  0.79657567  0.02576179  0.71146443  1
  O  O20  1  0.02576179  0.28853557  0.20342433  1
  O  O21  1  0.97423821  0.28853557  0.79657567  1
  O  O22  1  0.97423821  0.71146443  0.20342433  1
  O  O23  1  0.02576179  0.71146443  0.79657567  1
loop_
_geom_bond_atom_site_label_1
_geom_bond_atom_site_label_2
_geom_bond_distance
_geom_bond_site_symmetry_2
Na0 O0 2.978179 1_555
Na0 O10 2.978179 1_555
Na0 O2 2.978179 1_555
Na0 O4 2.978179 1_555
Na0 O8 2.978179 1_555
Na0 O6 2.978179 1_555
Na0 O11 2.978179 1_555
Na0 O5 2.978179 1_555
Na0 O7 2.978179 1_555
Na0 O3 2.978179 1_555
Na0 O9 2.978179 1_555
Na0 O1 2.978179 1_555
Na1 O18 2.978179 1_544
Na1 O22 2.978179 1_445
Na1 O14 2.978179 1_454
Na1 O17 2.978179 1_445
Na1 O23 2.978179 1_544
Na1 O19 2.978179 1_454
Na1 O21 2.978179 1_454
Na1 O15 2.978179 1_445
Na1 O12 2.978179 1_555
Na1 O16 2.978179 1_555
Na1 O20 2.978179 1_555
Na1 O13 2.978179 1_544
Na2 O16 2.478247 1_555
Na2 O18 2.478247 1_545
Na2 O19 2.478247 1_455
Na2 O17 2.478247 1_445
Na3 O20 2.478247 1_555
Na3 O21 2.478247 1_454
Na3 O22 2.478247 1_455
Na3 O23 2.478247 1_554
Na4 O12 2.478247 1_555
Na4 O14 2.478247 1_554
Na4 O15 2.478247 1_545
Na4 O13 2.478247 1_544
Na5 O6 2.478247 1_554
Na5 O5 2.478247 1_555
Na5 O4 2.478247 1_555
Na5 O7 2.478247 1_554
Na6 O8 2.478247 1_555
Na6 O9 2.478247 1_555
Na6 O11 2.478247 1_545
Na6 O10 2.478247 1_545
Na7 O0 2.478247 1_555
Na7 O3 2.478247 1_455
Na7 O1 2.478247 1_555
Na7 O2 2.478247 1_455
O0 W0 1.953991 1_555
O0 Pr3 2.375226 1_555
O1 W1 1.953991 1_555
O1 Pr2 2.375226 1_555
O2 W2 1.953991 1_555
O2 Pr1 2.375226 1_555
O3 W3 1.953991 1_555
O3 Pr0 2.375226 1_555
O4 W0 1.953991 1_555
O4 Pr2 2.375226 1_555
O5 W3 1.953991 1_555
O5 Pr1 2.375226 1_555
O6 W1 1.953991 1_555
O6 Pr3 2.375226 1_555
O7 W2 1.953991 1_555
O7 Pr0 2.375226 1_555
O8 W0 1.953991 1_555
O8 Pr1 2.375226 1_555
O9 W2 1.953991 1_555
O9 Pr3 2.375226 1_555
O10 W3 1.953991 1_555
O10 Pr2 2.375226 1_555
O11 W1 1.953991 1_555
O11 Pr0 2.375226 1_555
O12 W0 1.953991 1_555
O12 Pr3 2.375226 1_554
O13 W1 1.953991 1_555
O13 Pr2 2.375226 1_556
O14 W2 1.953991 1_555
O14 Pr1 2.375226 1_556
O15 W3 1.953991 1_555
O15 Pr0 2.375226 1_554
O16 W0 1.953991 1_555
O16 Pr2 2.375226 1_545
O17 W3 1.953991 1_555
O17 Pr1 2.375226 1_565
O18 W1 1.953991 1_555
O18 Pr3 2.375226 1_565
O19 W2 1.953991 1_555
O19 Pr0 2.375226 1_545
O20 W0 1.953991 1_555
O20 Pr1 2.375226 1_455
O21 W2 1.953991 1_555
O21 Pr3 2.375226 1_655
O22 W3 1.953991 1_555
O22 Pr2 2.375226 1_655
O23 W1 1.953991 1_555
O23 Pr0 2.375226 1_455
