# generated using pymatgen
data_Rb7VN4
_symmetry_space_group_name_H-M   'P 1'
_cell_length_a   14.62548054
_cell_length_b   14.62548054
_cell_length_c   14.62548054
_cell_angle_alpha   90.00000000
_cell_angle_beta   90.00000000
_cell_angle_gamma   90.00000000
_symmetry_Int_Tables_number   1
_chemical_formula_structural   Rb7VN4
_chemical_formula_sum   'Rb56 V8 N32'
_cell_volume   3128.45874976
_cell_formula_units_Z   8
loop_
 _symmetry_equiv_pos_site_id
 _symmetry_equiv_pos_as_xyz
  1  'x, y, z'
loop_
 _atom_site_type_symbol
 _atom_site_label
 _atom_site_symmetry_multiplicity
 _atom_site_fract_x
 _atom_site_fract_y
 _atom_site_fract_z
 _atom_site_occupancy
  Rb  Rb0  1  0.29476623  0.70523377  0.20523377  1
  Rb  Rb1  1  0.70523377  0.20523377  0.29476623  1
  Rb  Rb2  1  0.20523377  0.29476623  0.70523377  1
  Rb  Rb3  1  0.79476623  0.79476623  0.79476623  1
  Rb  Rb4  1  0.70523377  0.29476623  0.79476623  1
  Rb  Rb5  1  0.29476623  0.79476623  0.70523377  1
  Rb  Rb6  1  0.79476623  0.70523377  0.29476623  1
  Rb  Rb7  1  0.20523377  0.20523377  0.20523377  1
  Rb  Rb8  1  0.32296683  0.59565670  0.47069192  1
  Rb  Rb9  1  0.67703317  0.09565670  0.02930808  1
  Rb  Rb10  1  0.17703317  0.40434330  0.97069192  1
  Rb  Rb11  1  0.82296683  0.90434330  0.52930808  1
  Rb  Rb12  1  0.47069192  0.32296683  0.59565670  1
  Rb  Rb13  1  0.02930808  0.67703317  0.09565670  1
  Rb  Rb14  1  0.97069192  0.17703317  0.40434330  1
  Rb  Rb15  1  0.52930808  0.82296683  0.90434330  1
  Rb  Rb16  1  0.59565670  0.47069192  0.32296683  1
  Rb  Rb17  1  0.09565670  0.02930808  0.67703317  1
  Rb  Rb18  1  0.40434330  0.97069192  0.17703317  1
  Rb  Rb19  1  0.90434330  0.52930808  0.82296683  1
  Rb  Rb20  1  0.67703317  0.40434330  0.52930808  1
  Rb  Rb21  1  0.32296683  0.90434330  0.97069192  1
  Rb  Rb22  1  0.82296683  0.59565670  0.02930808  1
  Rb  Rb23  1  0.17703317  0.09565670  0.47069192  1
  Rb  Rb24  1  0.52930808  0.67703317  0.40434330  1
  Rb  Rb25  1  0.97069192  0.32296683  0.90434330  1
  Rb  Rb26  1  0.02930808  0.82296683  0.59565670  1
  Rb  Rb27  1  0.47069192  0.17703317  0.09565670  1
  Rb  Rb28  1  0.40434330  0.52930808  0.67703317  1
  Rb  Rb29  1  0.90434330  0.97069192  0.32296683  1
  Rb  Rb30  1  0.59565670  0.02930808  0.82296683  1
  Rb  Rb31  1  0.09565670  0.47069192  0.17703317  1
  Rb  Rb32  1  0.32796604  0.86362310  0.43584450  1
  Rb  Rb33  1  0.67203396  0.36362310  0.06415550  1
  Rb  Rb34  1  0.17203396  0.13637690  0.93584450  1
  Rb  Rb35  1  0.82796604  0.63637690  0.56415550  1
  Rb  Rb36  1  0.43584450  0.32796604  0.86362310  1
  Rb  Rb37  1  0.06415550  0.67203396  0.36362310  1
  Rb  Rb38  1  0.93584450  0.17203396  0.13637690  1
  Rb  Rb39  1  0.56415550  0.82796604  0.63637690  1
  Rb  Rb40  1  0.86362310  0.43584450  0.32796604  1
  Rb  Rb41  1  0.36362310  0.06415550  0.67203396  1
  Rb  Rb42  1  0.13637690  0.93584450  0.17203396  1
  Rb  Rb43  1  0.63637690  0.56415550  0.82796604  1
  Rb  Rb44  1  0.67203396  0.13637690  0.56415550  1
  Rb  Rb45  1  0.32796604  0.63637690  0.93584450  1
  Rb  Rb46  1  0.82796604  0.86362310  0.06415550  1
  Rb  Rb47  1  0.17203396  0.36362310  0.43584450  1
  Rb  Rb48  1  0.56415550  0.67203396  0.13637690  1
  Rb  Rb49  1  0.93584450  0.32796604  0.63637690  1
  Rb  Rb50  1  0.06415550  0.82796604  0.86362310  1
  Rb  Rb51  1  0.43584450  0.17203396  0.36362310  1
  Rb  Rb52  1  0.13637690  0.56415550  0.67203396  1
  Rb  Rb53  1  0.63637690  0.93584450  0.32796604  1
  Rb  Rb54  1  0.86362310  0.06415550  0.82796604  1
  Rb  Rb55  1  0.36362310  0.43584450  0.17203396  1
  V  V0  1  0.10818326  0.89181674  0.39181674  1
  V  V1  1  0.89181674  0.39181674  0.10818326  1
  V  V2  1  0.39181674  0.10818326  0.89181674  1
  V  V3  1  0.60818326  0.60818326  0.60818326  1
  V  V4  1  0.89181674  0.10818326  0.60818326  1
  V  V5  1  0.10818326  0.60818326  0.89181674  1
  V  V6  1  0.60818326  0.89181674  0.10818326  1
  V  V7  1  0.39181674  0.39181674  0.39181674  1
  N  N0  1  0.18214553  0.81785447  0.31785447  1
  N  N1  1  0.81785447  0.31785447  0.18214553  1
  N  N2  1  0.31785447  0.18214553  0.81785447  1
  N  N3  1  0.68214553  0.68214553  0.68214553  1
  N  N4  1  0.81785447  0.18214553  0.68214553  1
  N  N5  1  0.18214553  0.68214553  0.81785447  1
  N  N6  1  0.68214553  0.81785447  0.18214553  1
  N  N7  1  0.31785447  0.31785447  0.31785447  1
  N  N8  1  0.09014936  0.00465097  0.33504584  1
  N  N9  1  0.90985064  0.50465097  0.16495416  1
  N  N10  1  0.40985064  0.99534903  0.83504584  1
  N  N11  1  0.59014936  0.49534903  0.66495416  1
  N  N12  1  0.33504584  0.09014936  0.00465097  1
  N  N13  1  0.16495416  0.90985064  0.50465097  1
  N  N14  1  0.83504584  0.40985064  0.99534903  1
  N  N15  1  0.66495416  0.59014936  0.49534903  1
  N  N16  1  0.00465097  0.33504584  0.09014936  1
  N  N17  1  0.50465097  0.16495416  0.90985064  1
  N  N18  1  0.99534903  0.83504584  0.40985064  1
  N  N19  1  0.49534903  0.66495416  0.59014936  1
  N  N20  1  0.90985064  0.99534903  0.66495416  1
  N  N21  1  0.09014936  0.49534903  0.83504584  1
  N  N22  1  0.59014936  0.00465097  0.16495416  1
  N  N23  1  0.40985064  0.50465097  0.33504584  1
  N  N24  1  0.66495416  0.90985064  0.99534903  1
  N  N25  1  0.83504584  0.09014936  0.49534903  1
  N  N26  1  0.16495416  0.59014936  0.00465097  1
  N  N27  1  0.33504584  0.40985064  0.50465097  1
  N  N28  1  0.99534903  0.66495416  0.90985064  1
  N  N29  1  0.49534903  0.83504584  0.09014936  1
  N  N30  1  0.00465097  0.16495416  0.59014936  1
  N  N31  1  0.50465097  0.33504584  0.40985064  1
loop_
_geom_bond_atom_site_label_1
_geom_bond_atom_site_label_2
_geom_bond_distance
_geom_bond_site_symmetry_2
N0 V0 1.873618 1_555
N0 Rb32 2.823893 1_555
N0 Rb42 2.823893 1_555
N0 Rb37 2.823893 1_555
N0 Rb0 2.852916 1_555
N1 V1 1.873618 1_555
N1 Rb40 2.823893 1_555
N1 Rb38 2.823893 1_555
N1 Rb33 2.823893 1_555
N1 Rb1 2.852916 1_555
N2 V2 1.873618 1_555
N2 Rb36 2.823893 1_555
N2 Rb34 2.823893 1_555
N2 Rb41 2.823893 1_555
N2 Rb2 2.852916 1_555
N3 V3 1.873618 1_555
N3 Rb35 2.823893 1_555
N3 Rb39 2.823893 1_555
N3 Rb43 2.823893 1_555
N3 Rb3 2.852916 1_555
N4 V4 1.873618 1_555
N4 Rb49 2.823893 1_555
N4 Rb44 2.823893 1_555
N4 Rb54 2.823893 1_555
N4 Rb4 2.852916 1_555
N5 V5 1.873618 1_555
N5 Rb45 2.823893 1_555
N5 Rb52 2.823893 1_555
N5 Rb50 2.823893 1_555
N5 Rb5 2.852916 1_555
N6 V6 1.873618 1_555
N6 Rb53 2.823893 1_555
N6 Rb48 2.823893 1_555
N6 Rb46 2.823893 1_555
N6 Rb6 2.852916 1_555
N7 V7 1.873618 1_555
N7 Rb51 2.823893 1_555
N7 Rb55 2.823893 1_555
N7 Rb47 2.823893 1_555
N7 Rb7 2.852916 1_555
N8 V0 1.866094 1_545
N8 Rb42 2.674672 1_545
N8 Rb23 2.705939 1_555
N8 Rb29 2.768160 1_445
N8 Rb14 3.230472 1_455
N9 V1 1.866094 1_555
N9 Rb40 2.674672 1_555
N9 Rb22 2.705939 1_555
N9 Rb31 2.768160 1_655
N9 Rb13 3.230472 1_655
N10 V2 1.866094 1_565
N10 Rb41 2.674672 1_565
N10 Rb21 2.705939 1_555
N10 Rb30 2.768160 1_565
N10 Rb15 3.230472 1_555
N11 V3 1.866094 1_555
N11 Rb43 2.674672 1_555
N11 Rb20 2.705939 1_555
N11 Rb28 2.768160 1_555
N11 Rb12 3.230472 1_555
N12 V2 1.866094 1_554
N12 Rb34 2.674672 1_554
N12 Rb27 2.705939 1_555
N12 Rb21 2.768160 1_544
N12 Rb18 3.230472 1_545
N13 V0 1.866094 1_555
N13 Rb32 2.674672 1_555
N13 Rb26 2.705939 1_555
N13 Rb23 2.768160 1_565
N13 Rb17 3.230472 1_565
N14 V1 1.866094 1_556
N14 Rb33 2.674672 1_556
N14 Rb25 2.705939 1_555
N14 Rb22 2.768160 1_556
N14 Rb19 3.230472 1_555
N15 V3 1.866094 1_555
N15 Rb35 2.674672 1_555
N15 Rb24 2.705939 1_555
N15 Rb20 2.768160 1_555
N15 Rb16 3.230472 1_555
N16 V1 1.866094 1_455
N16 Rb38 2.674672 1_455
N16 Rb31 2.705939 1_555
N16 Rb25 2.768160 1_454
N16 Rb10 3.230472 1_554
N17 V2 1.866094 1_555
N17 Rb36 2.674672 1_555
N17 Rb30 2.705939 1_555
N17 Rb27 2.768160 1_556
N17 Rb9 3.230472 1_556
N18 V0 1.866094 1_655
N18 Rb37 2.674672 1_655
N18 Rb29 2.705939 1_555
N18 Rb26 2.768160 1_655
N18 Rb11 3.230472 1_555
N19 V3 1.866094 1_555
N19 Rb39 2.674672 1_555
N19 Rb28 2.705939 1_555
N19 Rb24 2.768160 1_555
N19 Rb8 3.230472 1_555
N20 V4 1.866094 1_565
N20 Rb54 2.674672 1_565
N20 Rb11 2.705939 1_555
N20 Rb17 2.768160 1_665
N20 Rb26 3.230472 1_655
N21 V5 1.866094 1_555
N21 Rb52 2.674672 1_555
N21 Rb10 2.705939 1_555
N21 Rb19 2.768160 1_455
N21 Rb25 3.230472 1_455
N22 V6 1.866094 1_545
N22 Rb53 2.674672 1_545
N22 Rb9 2.705939 1_555
N22 Rb18 2.768160 1_545
N22 Rb27 3.230472 1_555
N23 V7 1.866094 1_555
N23 Rb55 2.674672 1_555
N23 Rb8 2.705939 1_555
N23 Rb16 2.768160 1_555
N23 Rb24 3.230472 1_555
N24 V6 1.866094 1_556
N24 Rb46 2.674672 1_556
N24 Rb15 2.705939 1_555
N24 Rb9 2.768160 1_566
N24 Rb30 3.230472 1_565
N25 V4 1.866094 1_555
N25 Rb44 2.674672 1_555
N25 Rb14 2.705939 1_555
N25 Rb11 2.768160 1_545
N25 Rb29 3.230472 1_545
N26 V5 1.866094 1_554
N26 Rb45 2.674672 1_554
N26 Rb13 2.705939 1_555
N26 Rb10 2.768160 1_554
N26 Rb31 3.230472 1_555
N27 V7 1.866094 1_555
N27 Rb47 2.674672 1_555
N27 Rb12 2.705939 1_555
N27 Rb8 2.768160 1_555
N27 Rb28 3.230472 1_555
N28 V5 1.866094 1_655
N28 Rb50 2.674672 1_655
N28 Rb19 2.705939 1_555
N28 Rb13 2.768160 1_656
N28 Rb22 3.230472 1_556
N29 V6 1.866094 1_555
N29 Rb48 2.674672 1_555
N29 Rb18 2.705939 1_555
N29 Rb15 2.768160 1_554
N29 Rb21 3.230472 1_554
N30 V4 1.866094 1_455
N30 Rb49 2.674672 1_455
N30 Rb17 2.705939 1_555
N30 Rb14 2.768160 1_455
N30 Rb23 3.230472 1_555
N31 V7 1.866094 1_555
N31 Rb51 2.674672 1_555
N31 Rb16 2.705939 1_555
N31 Rb12 2.768160 1_555
N31 Rb20 3.230472 1_555
