# generated using pymatgen
data_Cs2FeHF5
_symmetry_space_group_name_H-M   'P 1'
_cell_length_a   6.56683637
_cell_length_b   6.56683637
_cell_length_c   9.22424200
_cell_angle_alpha   90.00000000
_cell_angle_beta   90.00000000
_cell_angle_gamma   96.56963429
_symmetry_Int_Tables_number   1
_chemical_formula_structural   Cs2FeHF5
_chemical_formula_sum   'Cs4 Fe2 H2 F10'
_cell_volume   395.16811665
_cell_formula_units_Z   2
loop_
 _symmetry_equiv_pos_site_id
 _symmetry_equiv_pos_as_xyz
  1  'x, y, z'
loop_
 _atom_site_type_symbol
 _atom_site_label
 _atom_site_symmetry_multiplicity
 _atom_site_fract_x
 _atom_site_fract_y
 _atom_site_fract_z
 _atom_site_occupancy
  Cs  Cs0  1  0.77145800  0.22854200  0.00000000  1
  Cs  Cs1  1  0.22854200  0.77145800  0.00000000  1
  Cs  Cs2  1  0.22854200  0.77145800  0.50000000  1
  Cs  Cs3  1  0.77145800  0.22854200  0.50000000  1
  Fe  Fe0  1  0.25470000  0.25470000  0.25000000  1
  Fe  Fe1  1  0.74530000  0.74530000  0.75000000  1
  H  H0  1  0.56923600  0.56923600  0.25000000  1
  H  H1  1  0.43076400  0.43076400  0.75000000  1
  F  F0  1  0.09370200  0.48229300  0.25000000  1
  F  F1  1  0.90629800  0.51770700  0.75000000  1
  F  F2  1  0.48229300  0.09370200  0.25000000  1
  F  F3  1  0.51770700  0.90629800  0.75000000  1
  F  F4  1  0.03872000  0.03872000  0.25000000  1
  F  F5  1  0.96128000  0.96128000  0.75000000  1
  F  F6  1  0.30286700  0.30286700  0.04716600  1
  F  F7  1  0.69713300  0.69713300  0.95283400  1
  F  F8  1  0.69713300  0.69713300  0.54716600  1
  F  F9  1  0.30286700  0.30286700  0.45283400  1
loop_
_geom_bond_atom_site_label_1
_geom_bond_atom_site_label_2
_geom_bond_distance
_geom_bond_site_symmetry_2
Cs0 F1 3.053367 1_554
Cs0 F2 3.053367 1_555
Cs0 F6 3.200014 1_555
Cs0 F7 3.200014 1_554
Cs0 F5 3.233050 1_544
Cs0 F4 3.233050 1_655
Cs0 F0 3.430120 1_655
Cs0 F3 3.430120 1_544
Cs0 F7 3.495084 1_544
Cs0 F6 3.495084 1_655
Cs1 F3 3.053367 1_554
Cs1 F0 3.053367 1_555
Cs1 F6 3.200014 1_555
Cs1 F7 3.200014 1_554
Cs1 F5 3.233050 1_454
Cs1 F4 3.233050 1_565
Cs1 F2 3.430120 1_565
Cs1 F1 3.430120 1_454
Cs1 F7 3.495084 1_454
Cs1 F6 3.495084 1_565
Cs2 F3 3.053367 1_555
Cs2 F0 3.053367 1_555
Cs2 F8 3.200014 1_555
Cs2 F9 3.200014 1_555
Cs2 F5 3.233050 1_455
Cs2 F4 3.233050 1_565
Cs2 F2 3.430120 1_565
Cs2 F1 3.430120 1_455
Cs2 F8 3.495084 1_455
Cs2 F9 3.495084 1_565
Cs3 F1 3.053367 1_555
Cs3 F2 3.053367 1_555
Cs3 F8 3.200014 1_555
Cs3 F9 3.200014 1_555
Cs3 F5 3.233050 1_545
Cs3 F4 3.233050 1_655
Cs3 F0 3.430120 1_655
Cs3 F3 3.430120 1_545
Cs3 F8 3.495084 1_545
Cs3 F9 3.495084 1_655
F0 Fe0 1.926932 1_555
F1 Fe1 1.926932 1_555
F2 Fe0 1.926932 1_555
F3 Fe1 1.926932 1_555
F4 Fe0 1.887561 1_555
F5 Fe1 1.887561 1_555
F6 Fe0 1.917761 1_555
F7 Fe1 1.917761 1_555
F8 Fe1 1.917761 1_555
F9 Fe0 1.917761 1_555
