# generated using pymatgen
data_Ho6Ta4Al43
_symmetry_space_group_name_H-M   'P 1'
_cell_length_a   11.01137701
_cell_length_b   11.01139506
_cell_length_c   17.72395239
_cell_angle_alpha   90.00000764
_cell_angle_beta   90.00000541
_cell_angle_gamma   119.99996595
_symmetry_Int_Tables_number   1
_chemical_formula_structural   Ho6Ta4Al43
_chemical_formula_sum   'Ho12 Ta8 Al86'
_cell_volume   1861.12409591
_cell_formula_units_Z   2
loop_
 _symmetry_equiv_pos_site_id
 _symmetry_equiv_pos_as_xyz
  1  'x, y, z'
loop_
 _atom_site_type_symbol
 _atom_site_label
 _atom_site_symmetry_multiplicity
 _atom_site_fract_x
 _atom_site_fract_y
 _atom_site_fract_z
 _atom_site_occupancy
  Ho  Ho0  1  0.53123527  0.00000027  0.59639872  1
  Ho  Ho1  1  0.46875914  -0.00000088  0.40357153  1
  Ho  Ho2  1  0.00000090  0.53123516  0.59639883  1
  Ho  Ho3  1  0.46876117  0.00000091  0.09642827  1
  Ho  Ho4  1  0.00000048  0.53123290  0.90359947  1
  Ho  Ho5  1  -0.00000095  0.46875863  0.40357212  1
  Ho  Ho6  1  0.53123448  0.00000170  0.90359945  1
  Ho  Ho7  1  0.00000050  0.46876116  0.09642807  1
  Ho  Ho8  1  0.46876486  0.46876552  0.59639884  1
  Ho  Ho9  1  0.53124147  0.53124077  0.40357272  1
  Ho  Ho10  1  0.53123914  0.53123852  0.09642776  1
  Ho  Ho11  1  0.46876652  0.46876701  0.90359896  1
  Ta  Ta0  1  -0.00000024  -0.00000040  0.49999036  1
  Ta  Ta1  1  0.00000006  -0.00000001  0.00001136  1
  Ta  Ta2  1  0.72614634  0.00000417  0.74999696  1
  Ta  Ta3  1  0.27385736  -0.00000009  0.25000302  1
  Ta  Ta4  1  0.00000028  0.72614470  0.74999681  1
  Ta  Ta5  1  0.00000026  0.27385655  0.25000290  1
  Ta  Ta6  1  0.27385557  0.27385169  0.74999668  1
  Ta  Ta7  1  0.72614252  0.72614436  0.25000265  1
  Al  Al0  1  0.15292170  0.59677314  0.75000028  1
  Al  Al1  1  0.84706671  0.40321914  0.24999841  1
  Al  Al2  1  0.40322659  0.55614873  0.74999987  1
  Al  Al3  1  0.59677363  0.15292242  0.75000008  1
  Al  Al4  1  0.59678092  0.44384677  0.24999863  1
  Al  Al5  1  0.40321874  0.84706555  0.24999854  1
  Al  Al6  1  0.44385031  0.84707786  0.75000019  1
  Al  Al7  1  0.55614874  0.40322655  0.74999994  1
  Al  Al8  1  0.55615323  0.15293435  0.24999862  1
  Al  Al9  1  0.44384704  0.59678080  0.24999863  1
  Al  Al10  1  0.84707834  0.44385095  0.75000026  1
  Al  Al11  1  0.15293456  0.55615289  0.24999851  1
  Al  Al12  1  0.15929629  -0.00000016  0.11517245  1
  Al  Al13  1  0.84071595  -0.00000093  0.88483784  1
  Al  Al14  1  0.00000041  0.15929598  0.11517244  1
  Al  Al15  1  0.84071621  -0.00000094  0.61515972  1
  Al  Al16  1  0.00000043  0.15929301  0.38483265  1
  Al  Al17  1  -0.00000040  0.84071591  0.88483755  1
  Al  Al18  1  0.15929340  -0.00000001  0.38483263  1
  Al  Al19  1  -0.00000069  0.84071603  0.61515968  1
  Al  Al20  1  0.84070407  0.84070362  0.11517248  1
  Al  Al21  1  0.15928306  0.15928293  0.88483696  1
  Al  Al22  1  0.15928249  0.15928273  0.61516015  1
  Al  Al23  1  0.84070685  0.84070638  0.38483259  1
  Al  Al24  1  0.24740514  0.49482276  0.49999787  1
  Al  Al25  1  0.75258660  0.50517683  0.49999725  1
  Al  Al26  1  0.50517858  0.75258684  0.49999572  1
  Al  Al27  1  0.75258610  0.50517952  0.00000250  1
  Al  Al28  1  0.49482158  0.24740578  0.00000291  1
  Al  Al29  1  0.49482292  0.24740495  0.49999786  1
  Al  Al30  1  0.24740574  0.49482115  0.00000286  1
  Al  Al31  1  0.50517989  0.75258570  0.00000219  1
  Al  Al32  1  0.24741349  0.75259470  0.49999922  1
  Al  Al33  1  0.75259510  0.24741365  0.49999903  1
  Al  Al34  1  0.75259743  0.24741502  0.00000070  1
  Al  Al35  1  0.24741504  0.75259707  0.00000067  1
  Al  Al36  1  0.14826844  0.00000037  0.74999605  1
  Al  Al37  1  0.85171424  -0.00000008  0.25000191  1
  Al  Al38  1  -0.00000018  0.14828839  0.74999811  1
  Al  Al39  1  0.00000021  0.85171303  0.25000196  1
  Al  Al40  1  0.85171640  0.85171616  0.74999683  1
  Al  Al41  1  0.14828729  0.14828676  0.25000199  1
  Al  Al42  1  0.33333238  0.66666740  0.62466008  1
  Al  Al43  1  0.66666716  0.33333220  0.37534162  1
  Al  Al44  1  0.66666780  0.33333245  0.12465931  1
  Al  Al45  1  0.66666781  0.33333284  0.87533579  1
  Al  Al46  1  0.33333256  0.66666733  0.87533571  1
  Al  Al47  1  0.33333274  0.66666753  0.12465914  1
  Al  Al48  1  0.33333262  0.66666715  0.37534169  1
  Al  Al49  1  0.66666803  0.33333265  0.62465995  1
  Al  Al50  1  0.25543637  0.00000053  0.52955700  1
  Al  Al51  1  0.74455361  -0.00000298  0.47044338  1
  Al  Al52  1  0.00000087  0.25543635  0.52955694  1
  Al  Al53  1  0.74455332  -0.00000067  0.02955714  1
  Al  Al54  1  0.00000247  0.25543806  0.97044189  1
  Al  Al55  1  -0.00000272  0.74455346  0.47044333  1
  Al  Al56  1  0.25543844  0.00000231  0.97044176  1
  Al  Al57  1  -0.00000038  0.74455307  0.02955715  1
  Al  Al58  1  0.74456026  0.74456002  0.52955839  1
  Al  Al59  1  0.25544766  0.25544744  0.47044376  1
  Al  Al60  1  0.25544767  0.25544737  0.02955560  1
  Al  Al61  1  0.74456170  0.74456107  0.97044339  1
  Al  Al62  1  0.15817039  0.39508114  0.66245248  1
  Al  Al63  1  0.84182787  0.60490996  0.33754925  1
  Al  Al64  1  0.60491807  0.76308924  0.66245192  1
  Al  Al65  1  0.84183256  0.60491433  0.16245517  1
  Al  Al66  1  0.39508069  0.15817128  0.83754682  1
  Al  Al67  1  0.39508984  0.23691729  0.33754956  1
  Al  Al68  1  0.15817050  0.39508026  0.83754709  1
  Al  Al69  1  0.60491444  0.84183235  0.16245520  1
  Al  Al70  1  0.23691002  0.84182904  0.66245209  1
  Al  Al71  1  0.39508561  0.23691793  0.16245527  1
  Al  Al72  1  0.76309051  0.60491950  0.83754689  1
  Al  Al73  1  0.76308261  0.15817127  0.33754926  1
  Al  Al74  1  0.60491964  0.76308994  0.83754687  1
  Al  Al75  1  0.23691823  0.39508534  0.16245507  1
  Al  Al76  1  0.60491468  0.84183067  0.33754617  1
  Al  Al77  1  0.39508189  0.15817138  0.66245230  1
  Al  Al78  1  0.76308252  0.15816715  0.16245532  1
  Al  Al79  1  0.23691768  0.39508954  0.33754970  1
  Al  Al80  1  0.23690930  0.84182949  0.83754716  1
  Al  Al81  1  0.76308984  0.60491813  0.66245212  1
  Al  Al82  1  0.84182942  0.23690966  0.83754754  1
  Al  Al83  1  0.15816698  0.76308209  0.16245534  1
  Al  Al84  1  0.15817132  0.76308227  0.33754934  1
  Al  Al85  1  0.84182931  0.23691021  0.66245188  1
loop_
_geom_bond_atom_site_label_1
_geom_bond_atom_site_label_2
_geom_bond_distance
_geom_bond_site_symmetry_2
Ho0 Ta2 3.466632 1_555
Ho0 Ho1 3.486210 1_555
Ho1 Ta3 3.466171 1_555
Ho2 Ta4 3.466635 1_555
Ho2 Ho5 3.486202 1_555
Ho3 Ta3 3.466266 1_555
Ho3 Ho6 3.486233 1_554
Ho4 Ta4 3.466715 1_555
Ho4 Ho7 3.486227 1_556
Ho5 Ta5 3.466186 1_555
Ho6 Ta2 3.466702 1_555
Ho7 Ta5 3.466277 1_555
Ho8 Ta6 3.466645 1_555
Ho8 Ho9 3.486193 1_555
Ho9 Ta7 3.466196 1_555
Ho10 Ta7 3.466278 1_555
Ho10 Ho11 3.486231 1_554
Ho11 Ta6 3.466717 1_555
Al0 Ta4 2.695105 1_555
Al0 Al68 2.733475 1_555
Al0 Al62 2.733476 1_555
Al0 Al46 2.818628 1_555
Al0 Al42 2.818694 1_555
Al0 Al80 2.837054 1_555
Al0 Al70 2.837063 1_555
Al0 Al10 2.916564 1_455
Al0 Al6 3.004941 1_555
Al0 Al2 3.004944 1_555
Al0 Ho4 3.090698 1_555
Al0 Ho2 3.090732 1_555
Al1 Ta5 2.695141 1_655
Al1 Al65 2.733391 1_555
Al1 Al63 2.733450 1_555
Al1 Al44 2.818611 1_555
Al1 Al43 2.818673 1_555
Al1 Al78 2.836985 1_555
Al1 Al73 2.837026 1_555
Al1 Al11 2.916797 1_655
Al1 Al8 3.004756 1_555
Al1 Al4 3.004757 1_555
Al1 Ho7 3.090306 1_655
Al1 Ho5 3.090352 1_655
Al2 Ta6 2.695149 1_555
Al2 Al74 2.733474 1_555
Al2 Al64 2.733474 1_555
Al2 Al46 2.818646 1_555
Al2 Al42 2.818703 1_555
Al2 Al68 2.837053 1_555
Al2 Al62 2.837054 1_555
Al2 Al7 2.916574 1_555
Al2 Al6 3.004950 1_555
Al2 Ho11 3.090699 1_555
Al2 Ho8 3.090729 1_555
Al3 Ta2 2.695085 1_555
Al3 Al77 2.733472 1_555
Al3 Al66 2.733472 1_555
Al3 Al45 2.818631 1_555
Al3 Al49 2.818692 1_555
Al3 Al82 2.837052 1_555
Al3 Al85 2.837058 1_555
Al3 Al6 2.916580 1_545
Al3 Al7 3.004943 1_555
Al3 Ho6 3.090700 1_555
Al3 Ho0 3.090738 1_555
Al4 Ta7 2.695160 1_555
Al4 Al71 2.733389 1_555
Al4 Al67 2.733451 1_555
Al4 Al44 2.818629 1_555
Al4 Al43 2.818679 1_555
Al4 Al65 2.836984 1_555
Al4 Al63 2.837013 1_555
Al4 Al9 2.916799 1_555
Al4 Al8 3.004751 1_555
Al4 Ho10 3.090313 1_555
Al4 Ho9 3.090364 1_555
Al5 Ta3 2.695138 1_565
Al5 Al69 2.733389 1_555
Al5 Al76 2.733442 1_555
Al5 Al83 2.836982 1_555
Al5 Al84 2.837019 1_555
Al5 Al8 2.916811 1_565
Al5 Al9 3.004754 1_555
Al5 Ho3 3.090313 1_565
Al5 Ho1 3.090348 1_565
Al6 Ta2 2.695136 1_565
Al6 Al80 2.733469 1_555
Al6 Al70 2.733472 1_555
Al6 Al74 2.837057 1_555
Al6 Al64 2.837063 1_555
Al6 Ho6 3.090712 1_565
Al6 Ho0 3.090741 1_565
Al7 Ta6 2.695105 1_555
Al7 Al72 2.733476 1_555
Al7 Al81 2.733476 1_555
Al7 Al77 2.837050 1_555
Al7 Ho11 3.090702 1_555
Al7 Ho8 3.090736 1_555
Al8 Ta3 2.695139 1_555
Al8 Ho3 3.090305 1_555
Al8 Ho1 3.090354 1_555
Al9 Ta7 2.695133 1_555
Al9 Ho10 3.090317 1_555
Al9 Ho9 3.090368 1_555
Al10 Ta4 2.695117 1_655
Al10 Al82 2.733476 1_555
Al10 Al85 2.733481 1_555
Al10 Al45 2.818630 1_555
Al10 Al49 2.818695 1_555
Al10 Al72 2.837050 1_555
Al10 Al81 2.837058 1_555
Al10 Al3 3.004942 1_555
Al10 Al7 3.004947 1_555
Al10 Ho4 3.090702 1_655
Al10 Ho2 3.090740 1_655
Al11 Ta5 2.695147 1_555
Al11 Al83 2.733397 1_555
Al11 Al84 2.733456 1_555
Al11 Al47 2.818614 1_555
Al11 Al48 2.818666 1_555
Al11 Al75 2.836981 1_555
Al11 Al79 2.837016 1_555
Al11 Al9 3.004745 1_555
Al11 Al5 3.004749 1_555
Al11 Ho7 3.090308 1_555
Al11 Ho5 3.090366 1_555
Al12 Ta1 2.691263 1_555
Al12 Ta3 2.702245 1_555
Al12 Al83 2.734197 1_545
Al12 Al71 2.734202 1_555
Al12 Al56 2.775064 1_554
Al12 Al57 2.890933 1_545
Al12 Al60 2.890953 1_555
Al12 Al39 2.930793 1_545
Al12 Al41 2.930793 1_555
Al12 Al14 3.038138 1_555
Al12 Al20 3.038139 1_445
Al12 Ho3 3.423785 1_555
Al13 Ta1 2.691339 1_656
Al13 Ta2 2.702464 1_555
Al13 Al74 2.734236 1_545
Al13 Al82 2.734245 1_555
Al13 Al53 2.774969 1_556
Al13 Al54 2.890757 1_655
Al13 Al61 2.890761 1_545
Al13 Al40 2.930903 1_545
Al13 Al38 2.930904 1_655
Al13 Al17 3.037897 1_645
Al13 Al21 3.037899 1_655
Al13 Ho6 3.424017 1_555
Al14 Ta1 2.691261 1_555
Al14 Ta5 2.702243 1_555
Al14 Al78 2.734197 1_455
Al14 Al75 2.734200 1_555
Al14 Al54 2.775063 1_554
Al14 Al53 2.890932 1_455
Al14 Al60 2.890946 1_555
Al14 Al37 2.930790 1_455
Al14 Al41 2.930792 1_555
Al14 Al20 3.038145 1_445
Al14 Ho7 3.423800 1_555
Al15 Ta0 2.691281 1_655
Al15 Ta2 2.702409 1_555
Al15 Al64 2.734256 1_545
Al15 Al85 2.734263 1_555
Al15 Al51 2.774915 1_555
Al15 Al58 2.890728 1_545
Al15 Al52 2.890731 1_655
Al15 Al40 2.930846 1_545
Al15 Al38 2.930884 1_655
Al15 Al19 3.037891 1_645
Al15 Al22 3.037891 1_655
Al15 Ho0 3.424002 1_555
Al16 Ta0 2.691196 1_555
Al16 Ta5 2.702247 1_555
Al16 Al73 2.734236 1_455
Al16 Al79 2.734237 1_555
Al16 Al52 2.774968 1_555
Al16 Al51 2.890887 1_455
Al16 Al59 2.890888 1_555
Al16 Al41 2.930798 1_555
Al16 Al37 2.930798 1_455
Al16 Al18 3.038080 1_555
Al16 Al23 3.038090 1_445
Al16 Ho5 3.423804 1_555
Al17 Ta1 2.691346 1_566
Al17 Ta4 2.702460 1_555
Al17 Al80 2.734232 1_555
Al17 Al72 2.734234 1_455
Al17 Al57 2.774975 1_556
Al17 Al56 2.890755 1_565
Al17 Al61 2.890758 1_455
Al17 Al36 2.930874 1_565
Al17 Al40 2.930898 1_455
Al17 Al21 3.037903 1_565
Al17 Ho4 3.424030 1_555
Al18 Ta0 2.691197 1_555
Al18 Ta3 2.702246 1_555
Al18 Al84 2.734237 1_545
Al18 Al67 2.734237 1_555
Al18 Al50 2.774967 1_555
Al18 Al55 2.890888 1_545
Al18 Al59 2.890894 1_555
Al18 Al41 2.930798 1_555
Al18 Al39 2.930799 1_545
Al18 Al23 3.038085 1_445
Al18 Ho1 3.423796 1_555
Al19 Ta0 2.691283 1_565
Al19 Ta4 2.702405 1_555
Al19 Al81 2.734254 1_455
Al19 Al70 2.734256 1_555
Al19 Al55 2.774916 1_555
Al19 Al58 2.890724 1_455
Al19 Al50 2.890725 1_565
Al19 Al36 2.930800 1_565
Al19 Al40 2.930845 1_455
Al19 Al22 3.037900 1_565
Al19 Ho2 3.424009 1_555
Al20 Ta1 2.691264 1_665
Al20 Ta7 2.702237 1_555
Al20 Al65 2.734201 1_555
Al20 Al69 2.734202 1_555
Al20 Al61 2.775044 1_554
Al20 Al57 2.890924 1_655
Al20 Al53 2.890928 1_565
Al20 Al37 2.930790 1_565
Al20 Al39 2.930790 1_655
Al20 Ho10 3.423798 1_555
Al21 Ta1 2.691348 1_556
Al21 Ta6 2.702448 1_555
Al21 Al66 2.734236 1_555
Al21 Al68 2.734240 1_555
Al21 Al60 2.774966 1_556
Al21 Al54 2.890731 1_555
Al21 Al56 2.890733 1_555
Al21 Al36 2.930856 1_555
Al21 Al38 2.930886 1_555
Al21 Ho11 3.424033 1_555
Al22 Ta0 2.691285 1_555
Al22 Ta6 2.702391 1_555
Al22 Al62 2.734262 1_555
Al22 Al77 2.734264 1_555
Al22 Al59 2.774931 1_555
Al22 Al52 2.890712 1_555
Al22 Al50 2.890720 1_555
Al22 Al36 2.930784 1_555
Al22 Al38 2.930870 1_555
Al22 Ho8 3.424019 1_555
Al23 Ta0 2.691196 1_665
Al23 Ta7 2.702247 1_555
Al23 Al76 2.734225 1_555
Al23 Al63 2.734240 1_555
Al23 Al58 2.775007 1_555
Al23 Al55 2.890854 1_655
Al23 Al51 2.890860 1_565
Al23 Al39 2.930798 1_655
Al23 Al37 2.930799 1_565
Al23 Ho9 3.423795 1_555
Al24 Al52 2.731917 1_555
Al24 Al59 2.731921 1_555
Al24 Al48 2.750800 1_555
Al24 Al42 2.750887 1_555
Al24 Al32 2.838383 1_555
Al24 Al26 2.838393 1_555
Al24 Al79 3.063085 1_555
Al24 Al62 3.063194 1_555
Al24 Ho8 3.105209 1_555
Al24 Ho5 3.105325 1_555
Al24 Ho2 3.404995 1_555
Al24 Ho9 3.405375 1_555
Al25 Al55 2.731886 1_655
Al25 Al58 2.731938 1_555
Al25 Al43 2.750793 1_555
Al25 Al49 2.750892 1_555
Al25 Al33 2.838379 1_555
Al25 Al29 2.838382 1_555
Al25 Al63 3.063075 1_555
Al25 Al81 3.063202 1_555
Al25 Ho2 3.105186 1_655
Al25 Ho9 3.105341 1_555
Al25 Ho8 3.405053 1_555
Al25 Ho5 3.405321 1_655
Al26 Al51 2.731870 1_565
Al26 Al58 2.731926 1_555
Al26 Al48 2.750776 1_555
Al26 Al42 2.750925 1_555
Al26 Al32 2.838392 1_555
Al26 Al76 3.063111 1_555
Al26 Al64 3.063218 1_555
Al26 Ho0 3.105202 1_565
Al26 Ho9 3.105332 1_555
Al26 Ho8 3.405058 1_555
Al26 Ho1 3.405322 1_565
Al27 Al57 2.731888 1_655
Al27 Al61 2.731903 1_554
Al27 Al44 2.750824 1_555
Al27 Al45 2.750962 1_554
Al27 Al28 2.838397 1_555
Al27 Al34 2.838409 1_555
Al27 Al65 3.063164 1_555
Al27 Al72 3.063208 1_554
Al27 Ho4 3.105220 1_654
Al27 Ho10 3.105339 1_555
Al27 Ho11 3.405045 1_554
Al27 Ho7 3.405344 1_655
Al28 Al60 2.731892 1_555
Al28 Al56 2.731903 1_554
Al28 Al44 2.750811 1_555
Al28 Al45 2.750964 1_554
Al28 Al34 2.838416 1_555
Al28 Al71 3.063164 1_555
Al28 Al66 3.063216 1_554
Al28 Ho11 3.105244 1_554
Al28 Ho3 3.105328 1_555
Al28 Ho6 3.405022 1_554
Al28 Ho10 3.405345 1_555
Al29 Al59 2.731916 1_555
Al29 Al50 2.731919 1_555
Al29 Al43 2.750798 1_555
Al29 Al49 2.750886 1_555
Al29 Al33 2.838379 1_555
Al29 Al67 3.063086 1_555
Al29 Al77 3.063188 1_555
Al29 Ho8 3.105224 1_555
Al29 Ho1 3.105333 1_555
Al29 Ho0 3.405002 1_555
Al29 Ho9 3.405373 1_555
Al30 Al60 2.731896 1_555
Al30 Al54 2.731901 1_554
Al30 Al47 2.750812 1_555
Al30 Al46 2.750966 1_554
Al30 Al31 2.838399 1_555
Al30 Al35 2.838421 1_555
Al30 Al75 3.063162 1_555
Al30 Al68 3.063212 1_554
Al30 Ho11 3.105231 1_554
Al30 Ho7 3.105328 1_555
Al30 Ho4 3.405023 1_554
Al30 Ho10 3.405347 1_555
Al31 Al53 2.731890 1_565
Al31 Al61 2.731902 1_554
Al31 Al47 2.750825 1_555
Al31 Al46 2.750961 1_554
Al31 Al35 2.838409 1_555
Al31 Al69 3.063170 1_555
Al31 Al74 3.063202 1_554
Al31 Ho6 3.105232 1_564
Al31 Ho10 3.105348 1_555
Al31 Ho11 3.405035 1_554
Al31 Ho3 3.405362 1_565
Al32 Al50 2.731905 1_565
Al32 Al55 2.731912 1_555
Al32 Al48 2.750831 1_555
Al32 Al42 2.750875 1_555
Al32 Al84 3.063100 1_555
Al32 Al70 3.063155 1_555
Al32 Ho2 3.105175 1_555
Al32 Ho1 3.105353 1_565
Al32 Ho0 3.405019 1_565
Al32 Ho5 3.405380 1_555
Al33 Al52 2.731901 1_655
Al33 Al51 2.731919 1_555
Al33 Al43 2.750828 1_555
Al33 Al49 2.750875 1_555
Al33 Al73 3.063099 1_555
Al33 Al85 3.063154 1_555
Al33 Ho0 3.105181 1_555
Al33 Ho5 3.105339 1_655
Al33 Ho2 3.405022 1_655
Al33 Ho1 3.405382 1_555
Al34 Al54 2.731895 1_654
Al34 Al53 2.731898 1_555
Al34 Al44 2.750848 1_555
Al34 Al45 2.750940 1_554
Al34 Al82 3.063155 1_554
Al34 Al78 3.063195 1_555
Al34 Ho6 3.105208 1_554
Al34 Ho7 3.105343 1_655
Al34 Ho4 3.405004 1_654
Al34 Ho3 3.405384 1_555
Al35 Al57 2.731891 1_555
Al35 Al56 2.731900 1_564
Al35 Al47 2.750847 1_555
Al35 Al46 2.750940 1_554
Al35 Al80 3.063164 1_554
Al35 Al83 3.063196 1_555
Al35 Ho4 3.105218 1_554
Al35 Ho3 3.105350 1_565
Al35 Ho6 3.405018 1_564
Al35 Ho7 3.405383 1_555
Al36 Ta6 2.614470 1_555
Al36 Ta4 2.614513 1_545
Al36 Al40 2.827960 1_445
Al36 Al38 2.828005 1_555
Al36 Al70 2.844946 1_545
Al36 Al77 2.844947 1_555
Al36 Al66 2.845006 1_555
Al36 Al80 2.845006 1_545
Al37 Ta7 2.614520 1_545
Al37 Ta5 2.614531 1_655
Al37 Al39 2.828160 1_645
Al37 Al41 2.828161 1_655
Al37 Al76 2.844850 1_545
Al37 Al78 2.844866 1_555
Al37 Al69 2.844872 1_545
Al37 Al73 2.844908 1_555
Al38 Ta2 2.614497 1_455
Al38 Ta6 2.614522 1_555
Al38 Al40 2.828158 1_445
Al38 Al85 2.844818 1_455
Al38 Al62 2.844819 1_555
Al38 Al82 2.844844 1_455
Al38 Al68 2.844845 1_555
Al39 Ta3 2.614532 1_565
Al39 Ta7 2.614538 1_455
Al39 Al41 2.828172 1_565
Al39 Al83 2.844855 1_555
Al39 Al65 2.844868 1_455
Al39 Al84 2.844899 1_555
Al39 Al63 2.844911 1_455
Al40 Ta4 2.614514 1_655
Al40 Ta2 2.614542 1_565
Al40 Al81 2.844849 1_555
Al40 Al64 2.844849 1_555
Al40 Al74 2.844887 1_555
Al40 Al72 2.844890 1_555
Al41 Ta5 2.614530 1_555
Al41 Ta3 2.614531 1_555
Al41 Al71 2.844861 1_555
Al41 Al75 2.844869 1_555
Al41 Al67 2.844906 1_555
Al41 Al79 2.844913 1_555
Al42 Al70 2.709980 1_555
Al42 Al64 2.709995 1_555
Al42 Al62 2.710003 1_555
Al42 Al6 2.818694 1_555
Al42 Ho2 3.236245 1_555
Al42 Ho0 3.236267 1_565
Al42 Ho8 3.236275 1_555
Al43 Al73 2.709917 1_555
Al43 Al67 2.709924 1_555
Al43 Al63 2.709931 1_555
Al43 Al8 2.818663 1_555
Al43 Ho5 3.236171 1_655
Al43 Ho1 3.236189 1_555
Al43 Ho9 3.236199 1_555
Al44 Al78 2.709971 1_555
Al44 Al65 2.709987 1_555
Al44 Al71 2.709991 1_555
Al44 Al8 2.818614 1_555
Al44 Ho3 3.236176 1_555
Al44 Ho7 3.236179 1_655
Al44 Ho10 3.236202 1_555
Al45 Al82 2.709968 1_555
Al45 Al66 2.709991 1_555
Al45 Al72 2.709995 1_555
Al45 Al7 2.818647 1_555
Al45 Ho6 3.236252 1_555
Al45 Ho4 3.236264 1_655
Al45 Ho11 3.236288 1_555
Al46 Al80 2.709977 1_555
Al46 Al68 2.709993 1_555
Al46 Al74 2.709994 1_555
Al46 Al6 2.818631 1_555
Al46 Ho4 3.236255 1_555
Al46 Ho11 3.236278 1_555
Al46 Ho6 3.236285 1_565
Al47 Al83 2.709974 1_555
Al47 Al69 2.709983 1_555
Al47 Al75 2.709996 1_555
Al47 Al5 2.818612 1_555
Al47 Al9 2.818630 1_555
Al47 Ho7 3.236178 1_555
Al47 Ho3 3.236190 1_565
Al47 Ho10 3.236206 1_555
Al48 Al84 2.709917 1_555
Al48 Al79 2.709932 1_555
Al48 Al76 2.709982 1_555
Al48 Al5 2.818667 1_555
Al48 Al9 2.818679 1_555
Al48 Ho1 3.236176 1_565
Al48 Ho5 3.236190 1_555
Al48 Ho9 3.236207 1_555
Al49 Al85 2.709975 1_555
Al49 Al77 2.709998 1_555
Al49 Al81 2.709999 1_555
Al49 Al7 2.818707 1_555
Al49 Ho0 3.236258 1_555
Al49 Ho2 3.236261 1_655
Al49 Ho8 3.236290 1_555
Al50 Ta0 2.861104 1_555
Al50 Al70 2.875383 1_545
Al50 Al77 2.875383 1_555
Al50 Al59 3.001560 1_555
Al50 Al55 3.001580 1_545
Al50 Ho1 3.240964 1_555
Al50 Ho0 3.259822 1_555
Al51 Ta0 2.861135 1_655
Al51 Al76 2.875378 1_545
Al51 Al73 2.875379 1_555
Al51 Al58 3.001561 1_545
Al51 Al52 3.001582 1_655
Al51 Ho0 3.240568 1_555
Al51 Ho1 3.259980 1_555
Al52 Ta0 2.861109 1_555
Al52 Al85 2.875380 1_455
Al52 Al62 2.875380 1_555
Al52 Al59 3.001555 1_555
Al52 Ho5 3.240956 1_555
Al52 Ho2 3.259825 1_555
Al53 Ta1 2.861148 1_655
Al53 Al69 2.875393 1_545
Al53 Al78 2.875397 1_555
Al53 Al61 3.001575 1_544
Al53 Al54 3.001600 1_654
Al53 Ho6 3.240597 1_554
Al53 Ho3 3.259949 1_555
Al54 Ta1 2.861126 1_556
Al54 Al68 2.875357 1_555
Al54 Al82 2.875374 1_455
Al54 Al60 3.001551 1_556
Al54 Ho7 3.240980 1_556
Al54 Ho4 3.259798 1_555
Al55 Ta0 2.861140 1_565
Al55 Al63 2.875355 1_455
Al55 Al84 2.875375 1_555
Al55 Al58 3.001557 1_455
Al55 Ho2 3.240574 1_555
Al55 Ho5 3.259982 1_555
Al56 Ta1 2.861126 1_556
Al56 Al66 2.875363 1_555
Al56 Al80 2.875376 1_545
Al56 Al60 3.001555 1_556
Al56 Al57 3.001601 1_546
Al56 Ho3 3.240976 1_556
Al56 Ho6 3.259798 1_555
Al57 Ta1 2.861155 1_565
Al57 Al65 2.875392 1_455
Al57 Al83 2.875393 1_555
Al57 Al61 3.001566 1_454
Al57 Ho4 3.240604 1_554
Al57 Ho7 3.259946 1_555
Al58 Ta0 2.861149 1_665
Al58 Al64 2.875350 1_555
Al58 Al81 2.875354 1_555
Al58 Ho9 3.240932 1_555
Al58 Ho8 3.259776 1_555
Al59 Ta0 2.861170 1_555
Al59 Al79 2.875362 1_555
Al59 Al67 2.875363 1_555
Al59 Ho8 3.240548 1_555
Al59 Ho9 3.259959 1_555
Al60 Ta1 2.861158 1_555
Al60 Al75 2.875412 1_555
Al60 Al71 2.875413 1_555
Al60 Ho11 3.240580 1_554
Al60 Ho10 3.259942 1_555
Al61 Ta1 2.861139 1_666
Al61 Al72 2.875389 1_555
Al61 Al74 2.875391 1_555
Al61 Ho10 3.240945 1_556
Al61 Ho11 3.259798 1_555
Al62 Ta6 2.740930 1_555
Al62 Al85 3.016671 1_455
Al62 Ho2 3.043505 1_555
Al62 Al68 3.103369 1_555
Al62 Ho8 3.309214 1_555
Al63 Ta7 2.740995 1_555
Al63 Al84 3.016694 1_655
Al63 Ho5 3.043287 1_655
Al63 Al65 3.103359 1_555
Al63 Ho9 3.308989 1_555
Al64 Ta2 2.740943 1_565
Al64 Al81 3.016689 1_555
Al64 Ho8 3.043507 1_555
Al64 Al74 3.103375 1_555
Al64 Ho0 3.309213 1_565
Al65 Ta7 2.741006 1_555
Al65 Al83 3.016608 1_655
Al65 Ho7 3.043303 1_655
Al65 Ho10 3.309064 1_555
Al66 Ta6 2.740918 1_555
Al66 Al7 2.837046 1_555
Al66 Al80 3.016683 1_545
Al66 Ho6 3.043497 1_555
Al66 Al77 3.103367 1_555
Al66 Ho11 3.309218 1_555
Al67 Ta3 2.740978 1_555
Al67 Al8 2.837012 1_555
Al67 Al79 3.016704 1_555
Al67 Ho9 3.043301 1_555
Al67 Al71 3.103363 1_555
Al67 Ho1 3.308993 1_555
Al68 Ta6 2.740985 1_555
Al68 Al82 3.016671 1_455
Al68 Ho4 3.043489 1_555
Al68 Ho11 3.309211 1_555
Al69 Ta7 2.740974 1_555
Al69 Al9 2.836985 1_555
Al69 Al78 3.016616 1_565
Al69 Ho3 3.043309 1_565
Al69 Al76 3.103304 1_555
Al69 Ho10 3.309075 1_555
Al70 Ta4 2.740896 1_555
Al70 Al77 3.016688 1_565
Al70 Ho0 3.043519 1_565
Al70 Al80 3.103377 1_555
Al70 Ho2 3.309209 1_555
Al71 Ta3 2.740995 1_555
Al71 Al8 2.836979 1_555
Al71 Al75 3.016612 1_555
Al71 Ho10 3.043305 1_555
Al71 Ho3 3.309057 1_555
Al72 Ta4 2.740951 1_655
Al72 Al74 3.016675 1_555
Al72 Ho11 3.043499 1_555
Al72 Al81 3.103371 1_555
Al72 Ho4 3.309222 1_655
Al73 Al8 2.733450 1_555
Al73 Ta5 2.740975 1_655
Al73 Al76 3.016672 1_545
Al73 Ho1 3.043292 1_555
Al73 Al78 3.103357 1_555
Al73 Ho5 3.308994 1_655
Al74 Ta2 2.740987 1_565
Al74 Ho11 3.043494 1_555
Al74 Ho6 3.309232 1_565
Al75 Al9 2.733392 1_555
Al75 Ta5 2.740992 1_555
Al75 Ho10 3.043302 1_555
Al75 Al79 3.103369 1_555
Al75 Ho7 3.309063 1_555
Al76 Ta7 2.740919 1_555
Al76 Al9 2.837013 1_555
Al76 Ho1 3.043316 1_565
Al76 Ho9 3.309037 1_555
Al77 Ta6 2.740869 1_555
Al77 Ho0 3.043514 1_555
Al77 Ho8 3.309219 1_555
Al78 Al8 2.733394 1_555
Al78 Ta5 2.740987 1_655
Al78 Ho3 3.043303 1_555
Al78 Ho7 3.309074 1_655
Al79 Al9 2.733452 1_555
Al79 Ta5 2.740978 1_555
Al79 Ho9 3.043299 1_555
Al79 Ho5 3.308996 1_555
Al80 Ta4 2.740947 1_555
Al80 Ho6 3.043511 1_565
Al80 Ho4 3.309221 1_555
Al81 Ta4 2.740901 1_655
Al81 Ho8 3.043515 1_555
Al81 Ho2 3.309212 1_655
Al82 Ta2 2.740924 1_555
Al82 Ho4 3.043495 1_655
Al82 Al85 3.103387 1_555
Al82 Ho6 3.309202 1_555
Al83 Ta3 2.740992 1_565
Al83 Ho7 3.043305 1_555
Al83 Al84 3.103358 1_555
Al83 Ho3 3.309074 1_565
Al84 Ta3 2.740978 1_565
Al84 Ho5 3.043301 1_555
Al84 Ho1 3.308992 1_565
Al85 Ta2 2.740874 1_555
Al85 Ho2 3.043518 1_655
Al85 Ho0 3.309209 1_555
