# generated using pymatgen
data_UCu4(SeO7)2
_symmetry_space_group_name_H-M   'P 1'
_cell_length_a   5.38418900
_cell_length_b   5.88528200
_cell_length_c   19.93518300
_cell_angle_alpha   90.00000000
_cell_angle_beta   90.00000000
_cell_angle_gamma   90.00000000
_symmetry_Int_Tables_number   1
_chemical_formula_structural   UCu4(SeO7)2
_chemical_formula_sum   'U2 Cu8 Se4 O28'
_cell_volume   631.69552534
_cell_formula_units_Z   2
loop_
 _symmetry_equiv_pos_site_id
 _symmetry_equiv_pos_as_xyz
  1  'x, y, z'
loop_
 _atom_site_type_symbol
 _atom_site_label
 _atom_site_symmetry_multiplicity
 _atom_site_fract_x
 _atom_site_fract_y
 _atom_site_fract_z
 _atom_site_occupancy
  U  U0  1  0.68574000  0.50000000  0.49967100  1
  U  U1  1  0.31426000  0.00000000  0.99967100  1
  Cu  Cu0  1  0.60492000  0.50000000  0.24930500  1
  Cu  Cu1  1  0.39508000  0.00000000  0.74930500  1
  Cu  Cu2  1  0.39169000  0.50000000  0.75259300  1
  Cu  Cu3  1  0.60831000  0.00000000  0.25259300  1
  Cu  Cu4  1  0.10722000  0.25171300  0.25085700  1
  Cu  Cu5  1  0.10722000  0.74828700  0.25085700  1
  Cu  Cu6  1  0.89278000  0.24828700  0.75085700  1
  Cu  Cu7  1  0.89278000  0.75171300  0.75085700  1
  Se  Se0  1  0.98247700  0.50000000  0.08299800  1
  Se  Se1  1  0.01752300  0.00000000  0.58299800  1
  Se  Se2  1  0.64636300  0.50000000  0.91743100  1
  Se  Se3  1  0.35363700  0.00000000  0.41743100  1
  O  O0  1  0.39745100  0.50000000  0.54722100  1
  O  O1  1  0.60254900  0.00000000  0.04722100  1
  O  O2  1  0.97171600  0.50000000  0.45135900  1
  O  O3  1  0.02828400  0.00000000  0.95135900  1
  O  O4  1  0.93325000  0.50000000  0.16727400  1
  O  O5  1  0.06675000  0.00000000  0.66727400  1
  O  O6  1  0.68868500  0.50000000  0.83257600  1
  O  O7  1  0.31131500  0.00000000  0.33257600  1
  O  O8  1  0.18084500  0.27557600  0.07014400  1
  O  O9  1  0.18084500  0.72442400  0.07014400  1
  O  O10  1  0.81915500  0.22442400  0.57014400  1
  O  O11  1  0.81915500  0.77557600  0.57014400  1
  O  O12  1  0.44705200  0.27609600  0.92990300  1
  O  O13  1  0.44705200  0.72390400  0.92990300  1
  O  O14  1  0.55294800  0.22390400  0.42990300  1
  O  O15  1  0.55294800  0.77609600  0.42990300  1
  O  O16  1  0.99070700  0.50000000  0.70517200  1
  O  O17  1  0.00929300  0.00000000  0.20517200  1
  O  O18  1  0.20083400  0.50000000  0.29855000  1
  O  O19  1  0.79916600  0.00000000  0.79855000  1
  O  O20  1  0.78594100  0.25730500  0.28680700  1
  O  O21  1  0.78594100  0.74269500  0.28680700  1
  O  O22  1  0.21405900  0.24269500  0.78680700  1
  O  O23  1  0.21405900  0.75730500  0.78680700  1
  O  O24  1  0.42875500  0.24541000  0.21426300  1
  O  O25  1  0.42875500  0.75459000  0.21426300  1
  O  O26  1  0.57124500  0.25459000  0.71426300  1
  O  O27  1  0.57124500  0.74541000  0.71426300  1
loop_
_geom_bond_atom_site_label_1
_geom_bond_atom_site_label_2
_geom_bond_distance
_geom_bond_site_symmetry_2
Cu0 O21 1.883876 1_555
Cu0 O20 1.883876 1_555
Cu0 O24 1.905955 1_555
Cu0 O25 1.905955 1_555
Cu0 O18 2.386905 1_555
Cu0 O4 2.408174 1_555
Cu1 O23 1.883876 1_545
Cu1 O22 1.883876 1_555
Cu1 O27 1.905955 1_545
Cu1 O26 1.905955 1_555
Cu1 O19 2.386905 1_555
Cu1 O5 2.408174 1_555
Cu2 O26 1.898556 1_555
Cu2 O27 1.898556 1_555
Cu2 O23 1.916520 1_555
Cu2 O22 1.916520 1_555
Cu2 O6 2.258185 1_555
Cu2 O16 2.356867 1_455
Cu3 O25 1.898556 1_545
Cu3 O24 1.898556 1_555
Cu3 O20 1.916520 1_555
Cu3 O21 1.916520 1_545
Cu3 O7 2.258185 1_555
Cu3 O17 2.356867 1_655
Cu4 O18 1.814727 1_555
Cu4 O17 1.817140 1_555
Cu4 O20 1.872699 1_455
Cu4 O24 1.878997 1_555
Cu4 O4 2.406027 1_455
Cu4 O7 2.460897 1_555
Cu5 O18 1.814727 1_555
Cu5 O17 1.817140 1_565
Cu5 O21 1.872699 1_455
Cu5 O25 1.878997 1_555
Cu5 O4 2.406027 1_455
Cu5 O7 2.460897 1_565
Cu6 O19 1.814727 1_555
Cu6 O16 1.817140 1_555
Cu6 O22 1.872699 1_655
Cu6 O26 1.878997 1_555
Cu6 O5 2.406027 1_655
Cu6 O6 2.460897 1_555
Cu7 O19 1.814727 1_565
Cu7 O16 1.817140 1_555
Cu7 O23 1.872699 1_655
Cu7 O27 1.878997 1_555
Cu7 O5 2.406027 1_665
Cu7 O6 2.460897 1_555
O0 U0 1.818758 1_555
O1 U1 1.818758 1_554
O2 U0 1.816151 1_555
O3 U1 1.816151 1_555
O4 Se0 1.700836 1_555
O5 Se1 1.700836 1_555
O6 Se2 1.706879 1_555
O7 Se3 1.706879 1_555
O8 Se0 1.717819 1_455
O8 U1 2.262763 1_554
O9 Se0 1.717819 1_455
O9 U1 2.262763 1_564
O10 Se1 1.717819 1_655
O10 U0 2.262763 1_555
O11 Se1 1.717819 1_665
O11 U0 2.262763 1_555
O12 Se2 1.717514 1_555
O12 U1 2.255201 1_555
O13 Se2 1.717514 1_555
O13 U1 2.255201 1_565
O14 Se3 1.717514 1_555
O14 U0 2.255201 1_555
O15 Se3 1.717514 1_565
O15 U0 2.255201 1_555
