# generated using pymatgen
data_MgBi4(P2O7)4
_symmetry_space_group_name_H-M   'P 1'
_cell_length_a   9.01186719
_cell_length_b   5.24497735
_cell_length_c   13.48394887
_cell_angle_alpha   89.02517665
_cell_angle_beta   102.45314585
_cell_angle_gamma   92.46823285
_symmetry_Int_Tables_number   1
_chemical_formula_structural   MgBi4(P2O7)4
_chemical_formula_sum   'Mg1 Bi4 P8 O28'
_cell_volume   621.75440200
_cell_formula_units_Z   1
loop_
 _symmetry_equiv_pos_site_id
 _symmetry_equiv_pos_as_xyz
  1  'x, y, z'
loop_
 _atom_site_type_symbol
 _atom_site_label
 _atom_site_symmetry_multiplicity
 _atom_site_fract_x
 _atom_site_fract_y
 _atom_site_fract_z
 _atom_site_occupancy
  Mg  Mg0  1  0.11075900  0.25841900  0.71290300  1
  Bi  Bi0  1  0.27594100  0.80129000  0.52240400  1
  Bi  Bi1  1  0.77826200  0.76391800  0.02356600  1
  Bi  Bi2  1  0.25775700  0.21841000  0.98435000  1
  Bi  Bi3  1  0.71645000  0.23885600  0.47371700  1
  P  P0  1  0.52013800  0.74090500  0.34372100  1
  P  P1  1  0.02862100  0.72644200  0.84174900  1
  P  P2  1  0.58987000  0.26040000  0.87654500  1
  P  P3  1  0.44740300  0.70670300  0.11495800  1
  P  P4  1  0.05463200  0.27049900  0.38456700  1
  P  P5  1  0.92129300  0.74385200  0.62815800  1
  P  P6  1  0.44989900  0.28510000  0.65557800  1
  P  P7  1  0.98308600  0.26538900  0.15304200  1
  O  O0  1  0.77653800  0.64549100  0.55735700  1
  O  O1  1  0.09749300  0.32828600  0.08889100  1
  O  O2  1  0.50054600  0.13528300  0.57250000  1
  O  O3  1  0.30739700  0.82199500  0.04596900  1
  O  O4  1  0.07224200  0.98588800  0.40791100  1
  O  O5  1  0.06367000  0.59311000  0.62584600  1
  O  O6  1  0.96308300  0.70230800  0.93724000  1
  O  O7  1  0.44570200  0.57344800  0.63814300  1
  O  O8  1  0.89914300  0.36449200  0.39184200  1
  O  O9  1  0.40315200  0.82777200  0.40095600  1
  O  O10  1  0.65864300  0.92487300  0.35550300  1
  O  O11  1  0.44936400  0.41971400  0.09780200  1
  O  O12  1  0.92974700  0.97942800  0.15062900  1
  O  O13  1  0.13300000  0.50259100  0.83775600  1
  O  O14  1  0.84052500  0.43040700  0.12677100  1
  O  O15  1  0.58396300  0.24549400  0.75700800  1
  O  O16  1  0.29966700  0.16277000  0.67321500  1
  O  O17  1  0.89050100  0.69457400  0.74368500  1
  O  O18  1  0.44347300  0.13911900  0.89654600  1
  O  O19  1  0.55870400  0.45921300  0.36109500  1
  O  O20  1  0.59805000  0.84877500  0.10520100  1
  O  O21  1  0.06912900  0.31873500  0.26740400  1
  O  O22  1  0.19083500  0.42390000  0.44612500  1
  O  O23  1  0.10688400  0.98888600  0.83164000  1
  O  O24  1  0.94894100  0.03477000  0.61797400  1
  O  O25  1  0.42722500  0.76068900  0.22691800  1
  O  O26  1  0.60851900  0.54751200  0.90465700  1
  O  O27  1  0.73546800  0.12279300  0.92734500  1
loop_
_geom_bond_atom_site_label_1
_geom_bond_atom_site_label_2
_geom_bond_distance
_geom_bond_site_symmetry_2
Mg0 O16 1.977851 1_555
Mg0 O24 2.059066 1_455
Mg0 O5 2.102107 1_555
Mg0 O13 2.102437 1_555
Mg0 O23 2.122720 1_545
Bi0 O9 2.191687 1_555
Bi0 O22 2.272105 1_555
Bi0 O7 2.295301 1_555
Bi0 O4 2.360213 1_555
Bi0 O2 2.601393 1_565
Bi0 O16 2.772065 1_565
Bi0 O5 2.777798 1_555
Bi1 O20 2.212966 1_555
Bi1 O14 2.230755 1_555
Bi1 O12 2.236297 1_555
Bi1 O26 2.248037 1_554
Bi1 O6 2.264692 1_554
Bi1 O27 2.266876 1_564
Bi2 O3 2.252668 1_546
Bi2 O11 2.279325 1_556
Bi2 O18 2.303708 1_555
Bi2 O1 2.320016 1_556
Bi2 O23 2.504762 1_545
Bi2 O13 2.545295 1_555
Bi3 O19 2.193982 1_555
Bi3 O8 2.242632 1_555
Bi3 O10 2.276303 1_545
Bi3 O0 2.415147 1_555
Bi3 O2 2.618607 1_555
Bi3 O24 2.771978 1_555
O0 P5 1.516903 1_555
O1 P7 1.505226 1_455
O2 P6 1.536890 1_555
O3 P3 1.537311 1_555
O4 P4 1.528242 1_565
O5 P5 1.542027 1_455
O6 P1 1.529298 1_655
O7 P6 1.527410 1_555
O8 P4 1.528588 1_655
O9 P0 1.522793 1_555
O10 P0 1.526506 1_555
O11 P3 1.528237 1_555
O12 P7 1.553870 1_565
O13 P1 1.544453 1_555
O14 P7 1.553777 1_555
O15 P2 1.604328 1_555
O15 P6 1.634829 1_555
O16 P6 1.536244 1_555
O17 P1 1.614149 1_655
O17 P5 1.654380 1_555
O18 P2 1.514361 1_555
O19 P0 1.534901 1_555
O20 P3 1.549919 1_555
O21 P7 1.593038 1_455
O21 P4 1.627721 1_555
O22 P4 1.530100 1_555
O23 P1 1.536967 1_555
O24 P5 1.544041 1_545
O25 P3 1.590503 1_555
O25 P0 1.620357 1_555
O26 P2 1.552354 1_555
O27 P2 1.545598 1_555
