# generated using pymatgen
data_MgV4Sb2(PO4)6
_symmetry_space_group_name_H-M   'P 1'
_cell_length_a   9.51128235
_cell_length_b   9.79582948
_cell_length_c   9.20217880
_cell_angle_alpha   54.14176760
_cell_angle_beta   55.72280779
_cell_angle_gamma   54.65411777
_symmetry_Int_Tables_number   1
_chemical_formula_structural   MgV4Sb2(PO4)6
_chemical_formula_sum   'Mg1 V4 Sb2 P6 O24'
_cell_volume   533.16583172
_cell_formula_units_Z   1
loop_
 _symmetry_equiv_pos_site_id
 _symmetry_equiv_pos_as_xyz
  1  'x, y, z'
loop_
 _atom_site_type_symbol
 _atom_site_label
 _atom_site_symmetry_multiplicity
 _atom_site_fract_x
 _atom_site_fract_y
 _atom_site_fract_z
 _atom_site_occupancy
  Mg  Mg0  1  0.60672150  0.56394025  0.66695948  1
  V  V0  1  0.14432220  0.15302868  0.15822492  1
  V  V1  1  0.35044419  0.32673084  0.33805554  1
  V  V2  1  0.72837187  0.76833453  0.69656996  1
  V  V3  1  0.84994395  0.84976871  0.85342809  1
  Sb  Sb0  1  0.97325242  0.94129020  0.01711888  1
  Sb  Sb1  1  0.47313585  0.47167182  0.45085840  1
  P  P0  1  0.06747703  0.76182572  0.42062582  1
  P  P1  1  0.44072080  0.06644350  0.75671476  1
  P  P2  1  0.74830091  0.45626575  0.02534117  1
  P  P3  1  0.22673025  0.52554584  0.97206235  1
  P  P4  1  0.53801535  0.95849741  0.26771169  1
  P  P5  1  0.96775247  0.22617353  0.54626801  1
  O  O0  1  0.12463624  0.26592827  0.50223268  1
  O  O1  1  0.30472419  0.49241725  0.10288500  1
  O  O2  1  0.15428548  0.89990783  0.25631653  1
  O  O3  1  0.52901382  0.11123519  0.28810550  1
  O  O4  1  0.99620112  0.75429931  0.62190883  1
  O  O5  1  0.22847232  0.56525640  0.42373387  1
  O  O6  1  0.28058780  0.14392564  0.90254199  1
  O  O7  1  0.43103709  0.24074970  0.55575750  1
  O  O8  1  0.12761222  0.40476011  0.05676571  1
  O  O9  1  0.56424615  0.43442719  0.20882903  1
  O  O10  1  0.07349447  0.72630259  0.94658369  1
  O  O11  1  0.39553298  0.02338644  0.19185028  1
  O  O12  1  0.63591071  0.01001904  0.74272890  1
  O  O13  1  0.90598332  0.28176758  0.07847606  1
  O  O14  1  0.37780457  0.52581742  0.77879489  1
  O  O15  1  0.74615545  0.63485962  0.98432411  1
  O  O16  1  0.54977285  0.78514925  0.44466147  1
  O  O17  1  0.73519286  0.91928386  0.09792886  1
  O  O18  1  0.78561219  0.38794783  0.55158929  1
  O  O19  1  0.00624975  0.14710950  0.41910074  1
  O  O20  1  0.43671736  0.91473562  0.75290620  1
  O  O21  1  0.93716622  0.06666033  0.75606807  1
  O  O22  1  0.71865959  0.49593876  0.85073587  1
  O  O23  1  0.91117144  0.77716949  0.39380690  1
loop_
_geom_bond_atom_site_label_1
_geom_bond_atom_site_label_2
_geom_bond_distance
_geom_bond_site_symmetry_2
Mg0 O18 1.926124 1_555
Mg0 O16 1.967327 1_555
Mg0 O14 1.976299 1_555
Mg0 O22 2.079652 1_555
O0 P5 1.532579 1_455
O0 V1 2.005225 1_555
O1 P3 1.540960 1_554
O1 V1 1.906571 1_555
O2 P0 1.512415 1_555
O2 V0 2.043078 1_565
O3 P4 1.563263 1_545
O3 V1 1.913429 1_555
O4 P0 1.542487 1_655
O4 V2 2.171227 1_555
O4 V3 2.199870 1_555
O5 P0 1.620697 1_555
O5 Sb1 2.058114 1_555
O5 V1 2.327802 1_555
O6 P1 1.500050 1_555
O6 V0 1.975047 1_556
O7 P1 1.629200 1_555
O7 Sb1 2.064831 1_555
O7 V1 2.077559 1_555
O8 P3 1.509531 1_554
O8 V0 1.998527 1_555
O9 P2 1.625423 1_555
O9 Sb1 2.063169 1_555
O9 V1 2.225061 1_555
O10 P3 1.604697 1_555
O10 Sb0 2.084872 1_456
O10 V3 2.140465 1_455
O11 P4 1.508970 1_545
O11 V0 2.068586 1_555
O12 P1 1.547782 1_555
O12 V3 2.100257 1_545
O12 V2 2.215242 1_545
O13 P2 1.513572 1_555
O13 V0 2.179386 1_655
O14 P3 1.532343 1_555
O15 P2 1.548320 1_556
O15 V2 2.223128 1_555
O15 V3 2.225222 1_555
O16 P4 1.514407 1_555
O17 P4 1.635509 1_555
O17 Sb0 2.051013 1_555
O17 V3 2.210469 1_554
O18 P5 1.527686 1_555
O19 P5 1.534401 1_455
O19 V0 1.965941 1_555
O20 P1 1.529438 1_565
O20 V2 2.160743 1_555
O21 P5 1.616344 1_555
O21 Sb0 2.093194 1_546
O21 V3 2.230929 1_545
O22 P2 1.569736 1_556
O22 V2 2.200873 1_555
O23 P0 1.550790 1_655
O23 V2 2.286476 1_555
O23 Sb0 2.685679 1_555
