# generated using pymatgen
data_CaB2(HO)8
_symmetry_space_group_name_H-M   'P 1'
_cell_length_a   5.73253500
_cell_length_b   7.73425963
_cell_length_c   7.98634590
_cell_angle_alpha   65.27236205
_cell_angle_beta   71.80476298
_cell_angle_gamma   72.68334429
_symmetry_Int_Tables_number   1
_chemical_formula_structural   CaB2(HO)8
_chemical_formula_sum   'Ca2 B4 H16 O16'
_cell_volume   299.76126840
_cell_formula_units_Z   2
loop_
 _symmetry_equiv_pos_site_id
 _symmetry_equiv_pos_as_xyz
  1  'x, y, z'
loop_
 _atom_site_type_symbol
 _atom_site_label
 _atom_site_symmetry_multiplicity
 _atom_site_fract_x
 _atom_site_fract_y
 _atom_site_fract_z
 _atom_site_occupancy
  Ca  Ca0  1  0.16965400  0.23438200  0.81663700  1
  Ca  Ca1  1  0.83034600  0.76561800  0.18336300  1
  B  B0  1  0.83199500  0.02557400  0.76799700  1
  B  B1  1  0.16800500  0.97442600  0.23200300  1
  B  B2  1  0.39648900  0.43527500  0.28649600  1
  B  B3  1  0.60351100  0.56472500  0.71350400  1
  H  H0  1  0.42829300  0.05541700  0.30077500  1
  H  H1  1  0.57170700  0.94458300  0.69922500  1
  H  H2  1  0.63191900  0.20016700  0.92533500  1
  H  H3  1  0.36808100  0.79983300  0.07466500  1
  H  H4  1  0.96605000  0.25580800  0.54160600  1
  H  H5  1  0.03395000  0.74419200  0.45839400  1
  H  H6  1  0.12871200  0.79665800  0.79104300  1
  H  H7  1  0.87128800  0.20334200  0.20895700  1
  H  H8  1  0.57163700  0.17212200  0.44472900  1
  H  H9  1  0.42836300  0.82787800  0.55527100  1
  H  H10  1  0.65503800  0.54226300  0.05009600  1
  H  H11  1  0.34496200  0.45773700  0.94990400  1
  H  H12  1  0.35583200  0.57042200  0.46900700  1
  H  H13  1  0.64416800  0.42957800  0.53099300  1
  H  H14  1  0.85990300  0.63830800  0.79790000  1
  H  H15  1  0.14009700  0.36169200  0.20210000  1
  O  O0  1  0.60570900  0.06597800  0.69581900  1
  O  O1  1  0.39429100  0.93402200  0.30418100  1
  O  O2  1  0.76723300  0.08345600  0.93760500  1
  O  O3  1  0.23276700  0.91654400  0.06239500  1
  O  O4  1  0.03175500  0.12907500  0.62768300  1
  O  O5  1  0.96824500  0.87092500  0.37231700  1
  O  O6  1  0.05629700  0.18477700  0.16288900  1
  O  O7  1  0.94370300  0.81522300  0.83711100  1
  O  O8  1  0.53571400  0.23399700  0.31639800  1
  O  O9  1  0.46428600  0.76600300  0.68360200  1
  O  O10  1  0.42978200  0.42506300  0.83494100  1
  O  O11  1  0.57021800  0.57493700  0.16505900  1
  O  O12  1  0.29259500  0.46534700  0.47129500  1
  O  O13  1  0.70740500  0.53465300  0.52870500  1
  O  O14  1  0.19516300  0.47972700  0.18506100  1
  O  O15  1  0.80483700  0.52027300  0.81493900  1
loop_
_geom_bond_atom_site_label_1
_geom_bond_atom_site_label_2
_geom_bond_distance
_geom_bond_site_symmetry_2
Ca0 O4 2.392081 1_555
Ca0 O3 2.429732 1_546
Ca0 O10 2.458794 1_555
Ca0 O6 2.520893 1_556
Ca0 O0 2.546155 1_555
Ca0 O15 2.550064 1_455
Ca0 O12 2.590013 1_555
Ca0 O2 2.624013 1_455
Ca1 O5 2.392081 1_555
Ca1 O2 2.429732 1_564
Ca1 O11 2.458794 1_555
Ca1 O7 2.520893 1_554
Ca1 O1 2.546155 1_555
Ca1 O14 2.550064 1_655
Ca1 O13 2.590013 1_555
Ca1 O3 2.624013 1_655
B0 O0 1.479055 1_555
B0 O4 1.483815 1_655
B0 O7 1.486889 1_545
B0 O2 1.505778 1_555
B1 O1 1.479055 1_555
B1 O5 1.483815 1_455
B1 O6 1.486889 1_565
B1 O3 1.505778 1_555
B2 O8 1.478450 1_555
B2 O14 1.490330 1_555
B2 O12 1.497588 1_555
B2 O11 1.503325 1_555
B3 O9 1.478450 1_555
B3 O15 1.490330 1_555
B3 O13 1.497588 1_555
B3 O10 1.503325 1_555
H0 O1 1.002265 1_545
H1 O0 1.002265 1_565
H2 O2 0.991341 1_555
H3 O3 0.991341 1_555
H4 O4 0.976425 1_655
H5 O5 0.976425 1_455
H6 O7 0.995312 1_455
H7 O6 0.995312 1_655
H8 O8 0.992292 1_555
H9 O9 0.992292 1_555
H10 O11 0.992683 1_555
H11 O10 0.992683 1_555
H12 O12 0.975197 1_555
H13 O13 0.975197 1_555
H14 O15 0.996178 1_555
H15 O14 0.996178 1_555
