# generated using pymatgen
data_Mg(SbO2)2
_symmetry_space_group_name_H-M   'P 1'
_cell_length_a   7.20959263
_cell_length_b   7.20959263
_cell_length_c   21.27348055
_cell_angle_alpha   79.28262172
_cell_angle_beta   79.28262172
_cell_angle_gamma   53.75564444
_symmetry_Int_Tables_number   1
_chemical_formula_structural   Mg(SbO2)2
_chemical_formula_sum   'Mg8 Sb16 O32'
_cell_volume   872.19969953
_cell_formula_units_Z   8
loop_
 _symmetry_equiv_pos_site_id
 _symmetry_equiv_pos_as_xyz
  1  'x, y, z'
loop_
 _atom_site_type_symbol
 _atom_site_label
 _atom_site_symmetry_multiplicity
 _atom_site_fract_x
 _atom_site_fract_y
 _atom_site_fract_z
 _atom_site_occupancy
  Mg  Mg0  1  0.62814800  0.62814800  0.06055100  1
  Mg  Mg1  1  0.12968200  0.12968200  0.10018300  1
  Mg  Mg2  1  0.89940600  0.89940600  0.28494300  1
  Mg  Mg3  1  0.36036800  0.36036800  0.38870400  1
  Mg  Mg4  1  0.59024100  0.59024100  0.64778500  1
  Mg  Mg5  1  0.49905500  0.49905500  0.50987500  1
  Mg  Mg6  1  0.90089000  0.90089000  0.85243300  1
  Mg  Mg7  1  0.73815500  0.73815500  0.74551600  1
  Sb  Sb0  1  0.63206100  0.12840900  0.11927600  1
  Sb  Sb1  1  0.32196900  0.32196900  0.25639500  1
  Sb  Sb2  1  0.12840900  0.63206100  0.11927600  1
  Sb  Sb3  1  0.17152300  0.17152300  0.53818500  1
  Sb  Sb4  1  0.83833700  0.34806100  0.37602500  1
  Sb  Sb5  1  0.62872400  0.62872400  0.20454500  1
  Sb  Sb6  1  0.40769700  0.40769700  0.80320300  1
  Sb  Sb7  1  0.34806100  0.83833700  0.37602500  1
  Sb  Sb8  1  0.12936600  0.62065900  0.62634400  1
  Sb  Sb9  1  0.86031400  0.86031400  0.46278200  1
  Sb  Sb10  1  0.62065900  0.12936600  0.62634400  1
  Sb  Sb11  1  0.91408900  0.42318900  0.88252200  1
  Sb  Sb12  1  0.42318900  0.91408900  0.88252200  1
  Sb  Sb13  1  0.09241500  0.09241500  0.70508300  1
  Sb  Sb14  1  0.98446800  0.98446800  0.97756800  1
  Sb  Sb15  1  0.39001800  0.39001800  0.96589900  1
  O  O0  1  0.27053800  0.78451700  0.06336200  1
  O  O1  1  0.91105700  0.91105700  0.17975500  1
  O  O2  1  0.78451700  0.27053800  0.06336200  1
  O  O3  1  0.85429400  0.85429400  0.05899500  1
  O  O4  1  0.47306100  0.47306100  0.20009100  1
  O  O5  1  0.56099200  0.12070200  0.31608400  1
  O  O6  1  0.45647800  0.87733100  0.13646900  1
  O  O7  1  0.20751400  0.20751400  0.44374700  1
  O  O8  1  0.12070200  0.56099200  0.31608400  1
  O  O9  1  0.28379300  0.28379300  0.05003300  1
  O  O10  1  0.00181700  0.00181700  0.34187200  1
  O  O11  1  0.87733100  0.45647800  0.13646900  1
  O  O12  1  0.74080500  0.32174800  0.58082900  1
  O  O13  1  0.62560100  0.62560100  0.43644400  1
  O  O14  1  0.71100000  0.20562000  0.44911900  1
  O  O15  1  0.44121300  0.44121300  0.70807100  1
  O  O16  1  0.32174800  0.74080500  0.58082900  1
  O  O17  1  0.51758500  0.51758500  0.34180700  1
  O  O18  1  0.32709700  0.32709700  0.54051700  1
  O  O19  1  0.20562000  0.71100000  0.44911900  1
  O  O20  1  0.88403500  0.88403500  0.68361600  1
  O  O21  1  0.03884600  0.57937000  0.81204000  1
  O  O22  1  0.89772000  0.45533700  0.69223800  1
  O  O23  1  0.69210400  0.69210400  0.94153000  1
  O  O24  1  0.57937000  0.03884600  0.81204000  1
  O  O25  1  0.84987400  0.84987400  0.56166800  1
  O  O26  1  0.63173700  0.63173700  0.82871500  1
  O  O27  1  0.45533700  0.89772000  0.69223800  1
  O  O28  1  0.27274400  0.27274400  0.91622500  1
  O  O29  1  0.10389600  0.71481100  0.92769600  1
  O  O30  1  0.04946600  0.04946600  0.79925600  1
  O  O31  1  0.71481100  0.10389600  0.92769600  1
loop_
_geom_bond_atom_site_label_1
_geom_bond_atom_site_label_2
_geom_bond_distance
_geom_bond_site_symmetry_2
Mg0 O2 2.110109 1_555
Mg0 O0 2.110109 1_555
Mg0 O11 2.252582 1_555
Mg0 O6 2.252582 1_555
Mg0 O23 2.493823 1_554
Mg1 O9 2.045771 1_555
Mg1 O11 2.131296 1_455
Mg1 O6 2.131296 1_545
Mg1 O0 2.297478 1_545
Mg1 O2 2.297478 1_455
Mg2 O10 1.966411 1_665
Mg2 O8 2.031299 1_655
Mg2 O5 2.031299 1_565
Mg2 O1 2.211335 1_555
Mg3 O17 2.059816 1_555
Mg3 O7 2.067886 1_555
Mg3 O8 2.161217 1_555
Mg3 O5 2.161217 1_555
Mg3 O19 2.574309 1_555
Mg3 O14 2.574309 1_555
Mg4 O15 2.072107 1_555
Mg4 O22 2.154668 1_555
Mg4 O27 2.154668 1_555
Mg4 O16 2.218112 1_555
Mg4 O12 2.218112 1_555
Mg5 O13 2.007263 1_555
Mg5 O12 2.139292 1_555
Mg5 O16 2.139292 1_555
Mg5 O18 2.171436 1_555
Mg5 O19 2.222821 1_555
Mg5 O14 2.222821 1_555
Mg6 O30 2.007473 1_665
Mg6 O31 2.063088 1_565
Mg6 O29 2.063088 1_655
Mg6 O24 2.190357 1_565
Mg6 O21 2.190357 1_655
Mg7 O26 1.998968 1_555
Mg7 O20 2.055261 1_555
Mg7 O22 2.089616 1_555
Mg7 O27 2.089616 1_555
Mg7 O24 2.369997 1_565
Mg7 O21 2.369997 1_655
O0 Sb2 2.016230 1_555
O0 Sb14 2.562959 1_454
O1 Sb0 2.154620 1_565
O1 Sb2 2.154620 1_655
O2 Sb0 2.016230 1_555
O2 Sb14 2.562959 1_544
O3 Sb2 2.133418 1_655
O3 Sb0 2.133418 1_565
O3 Sb14 2.143457 1_554
O4 Sb5 2.023940 1_555
O4 Sb1 2.059231 1_555
O5 Sb1 1.964514 1_555
O6 Sb5 1.980794 1_555
O6 Sb0 2.702603 1_565
O7 Sb3 1.965370 1_555
O8 Sb1 1.964514 1_555
O9 Sb15 2.012558 1_554
O9 Sb0 2.676773 1_555
O9 Sb2 2.676773 1_555
O10 Sb7 2.241763 1_545
O10 Sb4 2.241763 1_455
O11 Sb5 1.980794 1_555
O11 Sb2 2.702603 1_655
O12 Sb10 2.054458 1_555
O12 Sb3 2.641911 1_655
O13 Sb4 2.145383 1_555
O13 Sb7 2.145383 1_555
O14 Sb9 2.029612 1_545
O14 Sb4 2.074916 1_555
O15 Sb6 1.979337 1_555
O15 Sb10 2.632336 1_555
O15 Sb8 2.632336 1_555
O16 Sb8 2.054458 1_555
O16 Sb3 2.641911 1_565
O17 Sb4 2.079530 1_555
O17 Sb7 2.079530 1_555
O18 Sb3 2.011846 1_555
O18 Sb8 2.597470 1_555
O18 Sb10 2.597470 1_555
O19 Sb9 2.029612 1_455
O19 Sb7 2.074916 1_555
O20 Sb8 2.075103 1_655
O20 Sb10 2.075103 1_565
O21 Sb11 2.095976 1_455
O21 Sb6 2.155835 1_555
O22 Sb13 2.103571 1_655
O22 Sb8 2.652627 1_655
O23 Sb11 2.094024 1_555
O23 Sb12 2.094024 1_555
O24 Sb12 2.095976 1_545
O24 Sb6 2.155835 1_555
O25 Sb9 2.079805 1_555
O25 Sb10 2.220873 1_565
O25 Sb8 2.220873 1_655
O26 Sb12 2.078976 1_555
O26 Sb11 2.078976 1_555
O27 Sb13 2.103571 1_565
O27 Sb10 2.652627 1_565
O28 Sb15 2.014037 1_555
O28 Sb11 2.336789 1_455
O28 Sb12 2.336789 1_545
O28 Sb6 2.655845 1_555
O29 Sb14 2.023511 1_455
O29 Sb15 2.145452 1_555
O30 Sb13 1.963989 1_555
O31 Sb14 2.023511 1_545
O31 Sb15 2.145452 1_555
