# generated using pymatgen
data_Fe3O4
_symmetry_space_group_name_H-M   'P 1'
_cell_length_a   6.07178986
_cell_length_b   6.09073648
_cell_length_c   10.50103103
_cell_angle_alpha   89.78676563
_cell_angle_beta   73.12446406
_cell_angle_gamma   59.57543615
_symmetry_Int_Tables_number   1
_chemical_formula_structural   Fe3O4
_chemical_formula_sum   'Fe12 O16'
_cell_volume   315.58086296
_cell_formula_units_Z   4
loop_
 _symmetry_equiv_pos_site_id
 _symmetry_equiv_pos_as_xyz
  1  'x, y, z'
loop_
 _atom_site_type_symbol
 _atom_site_label
 _atom_site_symmetry_multiplicity
 _atom_site_fract_x
 _atom_site_fract_y
 _atom_site_fract_z
 _atom_site_occupancy
  Fe  Fe0  1  0.49952700  0.74966100  0.75080600  1
  Fe  Fe1  1  0.50090000  0.00132400  0.49682000  1
  Fe  Fe2  1  0.00058400  0.74969000  0.24919100  1
  Fe  Fe3  1  0.50085700  0.74652400  0.24682500  1
  Fe  Fe4  1  0.50043900  0.25160500  0.75208400  1
  Fe  Fe5  1  0.13141200  0.18799700  0.06297900  1
  Fe  Fe6  1  0.13095600  0.68814100  0.56284000  1
  Fe  Fe7  1  0.86952600  0.31287600  0.43736700  1
  Fe  Fe8  1  0.86880800  0.81074200  0.93745400  1
  Fe  Fe9  1  0.49965700  0.25108400  0.24929300  1
  Fe  Fe10  1  0.49866900  0.49888700  0.00202800  1
  Fe  Fe11  1  0.99876900  0.25030300  0.75045700  1
  O  O0  1  0.25615700  0.38011200  0.12589600  1
  O  O1  1  0.26758700  0.87840100  0.62597100  1
  O  O2  1  0.73680400  0.11909300  0.38154300  1
  O  O3  1  0.73885200  0.62365200  0.86683700  1
  O  O4  1  0.74638600  0.86509200  0.13100400  1
  O  O5  1  0.72759600  0.38784000  0.63436000  1
  O  O6  1  0.74120500  0.39101700  0.13153900  1
  O  O7  1  0.72908100  0.88337600  0.62770600  1
  O  O8  1  0.26437500  0.10726000  0.37957700  1
  O  O9  1  0.26491600  0.61951500  0.86181500  1
  O  O10  1  0.25880900  0.87077400  0.13239700  1
  O  O11  1  0.27170500  0.35411300  0.62320900  1
  O  O12  1  0.25175500  0.63574900  0.37110200  1
  O  O13  1  0.27329400  0.11235900  0.86376500  1
  O  O14  1  0.73045200  0.64414400  0.37838200  1
  O  O15  1  0.74092200  0.12867000  0.86675400  1
loop_
_geom_bond_atom_site_label_1
_geom_bond_atom_site_label_2
_geom_bond_distance
_geom_bond_site_symmetry_2
Fe0 O3 2.019083 1_555
Fe0 O13 2.043078 1_565
Fe0 O9 2.046734 1_555
Fe0 O5 2.053179 1_555
Fe0 O1 2.064546 1_555
Fe0 O7 2.091116 1_555
Fe1 O2 2.014693 1_555
Fe1 O8 2.019087 1_555
Fe1 O14 2.040818 1_545
Fe1 O11 2.058050 1_555
Fe1 O1 2.087555 1_545
Fe1 O7 2.101156 1_545
Fe2 O4 2.103195 1_455
Fe2 O0 2.113946 1_555
Fe2 O12 2.121624 1_555
Fe2 O10 2.134081 1_555
Fe2 O2 2.154121 1_465
Fe2 O14 2.171050 1_455
Fe3 O10 2.017071 1_555
Fe3 O6 2.019209 1_555
Fe3 O4 2.062620 1_555
Fe3 O12 2.080140 1_555
Fe3 O14 2.114714 1_555
Fe3 O8 2.120838 1_565
Fe4 O15 2.012337 1_555
Fe4 O9 2.052107 1_555
Fe4 O13 2.057911 1_555
Fe4 O5 2.068972 1_555
Fe4 O11 2.087306 1_555
Fe4 O7 2.116336 1_545
Fe5 O0 1.890323 1_555
Fe5 O10 1.914687 1_545
Fe5 O6 1.926090 1_455
Fe5 O13 1.972193 1_554
Fe6 O12 1.898445 1_555
Fe6 O1 1.941463 1_555
Fe6 O11 1.953285 1_555
Fe6 O7 1.983527 1_455
Fe7 O2 1.904957 1_555
Fe7 O14 1.932995 1_555
Fe7 O5 1.950349 1_555
Fe7 O8 1.950499 1_655
Fe8 O4 1.916172 1_556
Fe8 O15 1.924830 1_565
Fe8 O3 1.930725 1_555
Fe8 O9 1.957689 1_655
Fe9 O0 2.100125 1_555
Fe9 O6 2.147482 1_555
Fe9 O2 2.151410 1_555
Fe9 O4 2.165312 1_545
Fe9 O12 2.173412 1_555
Fe9 O8 2.191747 1_555
Fe10 O0 2.084068 1_555
Fe10 O6 2.150838 1_555
Fe10 O3 2.152204 1_554
Fe10 O10 2.156436 1_555
Fe10 O15 2.171981 1_554
Fe10 O9 2.207083 1_554
Fe11 O3 2.102700 1_555
Fe11 O1 2.131336 1_645
Fe11 O15 2.132896 1_555
Fe11 O13 2.150747 1_655
Fe11 O5 2.158680 1_555
Fe11 O11 2.168163 1_655
