# generated using pymatgen
data_K2O
_symmetry_space_group_name_H-M   'P 1'
_cell_length_a   8.32228236
_cell_length_b   4.27031736
_cell_length_c   4.26346603
_cell_angle_alpha   59.96033062
_cell_angle_beta   90.00000000
_cell_angle_gamma   90.00000000
_symmetry_Int_Tables_number   1
_chemical_formula_structural   K2O
_chemical_formula_sum   'K4 O2'
_cell_volume   131.16630839
_cell_formula_units_Z   2
loop_
 _symmetry_equiv_pos_site_id
 _symmetry_equiv_pos_as_xyz
  1  'x, y, z'
loop_
 _atom_site_type_symbol
 _atom_site_label
 _atom_site_symmetry_multiplicity
 _atom_site_fract_x
 _atom_site_fract_y
 _atom_site_fract_z
 _atom_site_occupancy
  K  K0  1  0.87299184  0.00204067  -0.00285632  1
  K  K1  1  0.62405215  0.33538879  0.33157556  1
  K  K2  1  0.12405215  0.66461121  0.66842444  1
  K  K3  1  0.37299184  0.99795933  0.00285632  1
  O  O0  1  0.25295601  0.33173714  0.33633285  1
  O  O1  1  0.75295601  0.66826286  0.66366715  1
loop_
_geom_bond_atom_site_label_1
_geom_bond_atom_site_label_2
_geom_bond_distance
_geom_bond_site_symmetry_2
K0 O1 2.655100 1_545
K0 O1 2.657730 1_554
K0 O1 2.660803 1_544
K1 O1 2.681629 1_555
K1 O1 2.688426 1_554
K1 O1 2.689423 1_545
K1 O0 3.088422 1_555
K2 O0 2.681629 1_555
K2 O0 2.688426 1_556
K2 O0 2.689423 1_565
K2 O1 3.088422 1_455
K3 O0 2.655100 1_564
K3 O0 2.657730 1_555
K3 O0 2.660803 1_565
