# generated using pymatgen
data_EuMg2H5
_symmetry_space_group_name_H-M   'P 1'
_cell_length_a   3.68711900
_cell_length_b   3.68711900
_cell_length_c   7.73795000
_cell_angle_alpha   90.00000000
_cell_angle_beta   90.00000000
_cell_angle_gamma   90.00000000
_symmetry_Int_Tables_number   1
_chemical_formula_structural   EuMg2H5
_chemical_formula_sum   'Eu1 Mg2 H5'
_cell_volume   105.19624263
_cell_formula_units_Z   1
loop_
 _symmetry_equiv_pos_site_id
 _symmetry_equiv_pos_as_xyz
  1  'x, y, z'
loop_
 _atom_site_type_symbol
 _atom_site_label
 _atom_site_symmetry_multiplicity
 _atom_site_fract_x
 _atom_site_fract_y
 _atom_site_fract_z
 _atom_site_occupancy
  Eu  Eu0  1  0.00000000  0.00000000  0.00000000  1
  Mg  Mg0  1  0.50000000  0.50000000  0.29341800  1
  Mg  Mg1  1  0.50000000  0.50000000  0.70658200  1
  H  H0  1  0.50000000  0.50000000  0.00000000  1
  H  H1  1  0.00000000  0.50000000  0.21363400  1
  H  H2  1  0.00000000  0.50000000  0.78636600  1
  H  H3  1  0.50000000  0.00000000  0.21363400  1
  H  H4  1  0.50000000  0.00000000  0.78636600  1
loop_
_geom_bond_atom_site_label_1
_geom_bond_atom_site_label_2
_geom_bond_distance
_geom_bond_site_symmetry_2
Eu0 H3 2.476170 1_555
Eu0 H1 2.476170 1_555
Eu0 H1 2.476170 1_545
Eu0 H4 2.476170 1_554
Eu0 H2 2.476170 1_544
Eu0 H2 2.476170 1_554
Eu0 H4 2.476170 1_454
Eu0 H3 2.476170 1_455
Eu0 H0 2.607187 1_455
Eu0 H0 2.607187 1_445
Eu0 H0 2.607187 1_545
Eu0 H0 2.607187 1_555
H0 Mg0 2.270454 1_555
H0 Mg1 2.270454 1_554
H1 Mg0 1.944184 1_555
H1 Mg0 1.944184 1_455
H2 Mg1 1.944184 1_455
H2 Mg1 1.944184 1_555
H3 Mg0 1.944184 1_555
H3 Mg0 1.944184 1_545
H4 Mg1 1.944184 1_545
H4 Mg1 1.944184 1_555
