# generated using pymatgen
data_Na2(CoO2)3
_symmetry_space_group_name_H-M   'P 1'
_cell_length_a   10.17754344
_cell_length_b   10.17754344
_cell_length_c   12.62181040
_cell_angle_alpha   66.22332106
_cell_angle_beta   66.22332106
_cell_angle_gamma   60.00000367
_symmetry_Int_Tables_number   1
_chemical_formula_structural   Na2(CoO2)3
_chemical_formula_sum   'Na16 Co24 O48'
_cell_volume   1002.05984844
_cell_formula_units_Z   8
loop_
 _symmetry_equiv_pos_site_id
 _symmetry_equiv_pos_as_xyz
  1  'x, y, z'
loop_
 _atom_site_type_symbol
 _atom_site_label
 _atom_site_symmetry_multiplicity
 _atom_site_fract_x
 _atom_site_fract_y
 _atom_site_fract_z
 _atom_site_occupancy
  Na  Na0  1  0.58403200  0.58403200  0.24790500  1
  Na  Na1  1  0.08403200  0.08403200  0.74790500  1
  Na  Na2  1  0.41596800  0.41596800  0.75209500  1
  Na  Na3  1  0.91596800  0.91596800  0.25209500  1
  Na  Na4  1  0.11409800  0.38590200  0.75000000  1
  Na  Na5  1  0.38590200  0.75000000  0.75000000  1
  Na  Na6  1  0.75000000  0.11409800  0.75000000  1
  Na  Na7  1  0.61409800  0.25000000  0.25000000  1
  Na  Na8  1  0.25000000  0.88590200  0.25000000  1
  Na  Na9  1  0.88590200  0.61409800  0.25000000  1
  Na  Na10  1  0.55955100  0.94044900  0.75000000  1
  Na  Na11  1  0.94044900  0.75000000  0.75000000  1
  Na  Na12  1  0.75000000  0.55955100  0.75000000  1
  Na  Na13  1  0.05955100  0.25000000  0.25000000  1
  Na  Na14  1  0.25000000  0.44044900  0.25000000  1
  Na  Na15  1  0.44044900  0.05955100  0.25000000  1
  Co  Co0  1  0.50000000  0.50000000  0.50000000  1
  Co  Co1  1  0.00000000  0.00000000  0.00000000  1
  Co  Co2  1  0.83023100  0.83023100  0.50930700  1
  Co  Co3  1  0.33023100  0.33023100  0.00930700  1
  Co  Co4  1  0.16976900  0.16976900  0.49069300  1
  Co  Co5  1  0.66976900  0.66976900  0.99069300  1
  Co  Co6  1  0.00000000  0.00000000  0.50000000  1
  Co  Co7  1  0.00000000  0.50000000  0.50000000  1
  Co  Co8  1  0.50000000  0.00000000  0.50000000  1
  Co  Co9  1  0.50000000  0.00000000  0.00000000  1
  Co  Co10  1  0.00000000  0.50000000  0.00000000  1
  Co  Co11  1  0.50000000  0.50000000  0.00000000  1
  Co  Co12  1  0.33107900  0.83138500  0.49832300  1
  Co  Co13  1  0.83138500  0.33921300  0.49832300  1
  Co  Co14  1  0.33921300  0.33107900  0.49832300  1
  Co  Co15  1  0.83107900  0.83921300  0.99832300  1
  Co  Co16  1  0.83921300  0.33138500  0.99832300  1
  Co  Co17  1  0.33138500  0.83107900  0.99832300  1
  Co  Co18  1  0.66892100  0.16861500  0.50167700  1
  Co  Co19  1  0.16861500  0.66078700  0.50167700  1
  Co  Co20  1  0.66078700  0.66892100  0.50167700  1
  Co  Co21  1  0.16892100  0.16078700  0.00167700  1
  Co  Co22  1  0.16078700  0.66861500  0.00167700  1
  Co  Co23  1  0.66861500  0.16892100  0.00167700  1
  O  O0  1  0.37094200  0.69240600  0.40685200  1
  O  O1  1  0.69240600  0.52980000  0.40685200  1
  O  O2  1  0.52980000  0.37094200  0.40685200  1
  O  O3  1  0.87094200  0.02980000  0.90685200  1
  O  O4  1  0.02980000  0.19240600  0.90685200  1
  O  O5  1  0.19240600  0.87094200  0.90685200  1
  O  O6  1  0.62905800  0.30759400  0.59314800  1
  O  O7  1  0.30759400  0.47020000  0.59314800  1
  O  O8  1  0.47020000  0.62905800  0.59314800  1
  O  O9  1  0.12905800  0.97020000  0.09314800  1
  O  O10  1  0.97020000  0.80759400  0.09314800  1
  O  O11  1  0.80759400  0.12905800  0.09314800  1
  O  O12  1  0.87107800  0.18636400  0.41227500  1
  O  O13  1  0.18636400  0.53028400  0.41227500  1
  O  O14  1  0.53028400  0.87107800  0.41227500  1
  O  O15  1  0.37107800  0.03028400  0.91227500  1
  O  O16  1  0.03028400  0.68636400  0.91227500  1
  O  O17  1  0.68636400  0.37107800  0.91227500  1
  O  O18  1  0.12892200  0.81363600  0.58772500  1
  O  O19  1  0.81363600  0.46971600  0.58772500  1
  O  O20  1  0.46971600  0.12892200  0.58772500  1
  O  O21  1  0.62892200  0.96971600  0.08772500  1
  O  O22  1  0.96971600  0.31363600  0.08772500  1
  O  O23  1  0.31363600  0.62892200  0.08772500  1
  O  O24  1  0.19103000  0.03242900  0.40061600  1
  O  O25  1  0.03242900  0.37592500  0.40061600  1
  O  O26  1  0.37592500  0.19103000  0.40061600  1
  O  O27  1  0.69103000  0.87592500  0.90061600  1
  O  O28  1  0.87592500  0.53242900  0.90061600  1
  O  O29  1  0.53242900  0.69103000  0.90061600  1
  O  O30  1  0.80897000  0.96757100  0.59938400  1
  O  O31  1  0.96757100  0.62407500  0.59938400  1
  O  O32  1  0.62407500  0.80897000  0.59938400  1
  O  O33  1  0.30897000  0.12407500  0.09938400  1
  O  O34  1  0.12407500  0.46757100  0.09938400  1
  O  O35  1  0.46757100  0.30897000  0.09938400  1
  O  O36  1  0.87052200  0.69062400  0.41294300  1
  O  O37  1  0.69062400  0.02591200  0.41294300  1
  O  O38  1  0.02591200  0.87052200  0.41294300  1
  O  O39  1  0.37052200  0.52591200  0.91294300  1
  O  O40  1  0.52591200  0.19062400  0.91294300  1
  O  O41  1  0.19062400  0.37052200  0.91294300  1
  O  O42  1  0.12947800  0.30937600  0.58705700  1
  O  O43  1  0.30937600  0.97408800  0.58705700  1
  O  O44  1  0.97408800  0.12947800  0.58705700  1
  O  O45  1  0.62947800  0.47408800  0.08705700  1
  O  O46  1  0.47408800  0.80937600  0.08705700  1
  O  O47  1  0.80937600  0.62947800  0.08705700  1
loop_
_geom_bond_atom_site_label_1
_geom_bond_atom_site_label_2
_geom_bond_distance
_geom_bond_site_symmetry_2
Na0 O1 2.414262 1_555
Na0 O0 2.414265 1_555
Na0 O2 2.414269 1_555
Na0 O47 2.478844 1_555
Na0 O46 2.478851 1_555
Na0 O45 2.478858 1_555
Na1 O4 2.414262 1_555
Na1 O5 2.414265 1_545
Na1 O3 2.414269 1_455
Na1 O42 2.478844 1_555
Na1 O43 2.478851 1_545
Na1 O44 2.478858 1_455
Na2 O7 2.414262 1_555
Na2 O6 2.414265 1_555
Na2 O8 2.414269 1_555
Na2 O41 2.478844 1_555
Na2 O40 2.478851 1_555
Na2 O39 2.478858 1_555
Na3 O10 2.414262 1_555
Na3 O11 2.414265 1_565
Na3 O9 2.414269 1_655
Na3 O36 2.478844 1_555
Na3 O37 2.478851 1_565
Na3 O38 2.478858 1_655
Na4 O7 2.389544 1_555
Na4 O4 2.389544 1_555
Na4 O41 2.402283 1_555
Na4 O42 2.402283 1_555
Na4 O28 2.582456 1_455
Na4 O31 2.582456 1_455
Na5 O8 2.389544 1_555
Na5 O5 2.389544 1_555
Na5 O39 2.402277 1_555
Na5 O43 2.402279 1_555
Na5 O29 2.582456 1_555
Na5 O32 2.582456 1_555
Na6 O3 2.389544 1_555
Na6 O6 2.389544 1_555
Na6 O44 2.402277 1_555
Na6 O40 2.402279 1_555
Na6 O30 2.582456 1_545
Na6 O27 2.582456 1_545
Na7 O2 2.389544 1_555
Na7 O11 2.389544 1_555
Na7 O45 2.402277 1_555
Na7 O37 2.402279 1_555
Na7 O35 2.582456 1_555
Na7 O26 2.582456 1_555
Na8 O9 2.389544 1_555
Na8 O0 2.389544 1_555
Na8 O38 2.402277 1_555
Na8 O46 2.402279 1_555
Na8 O24 2.582456 1_565
Na8 O33 2.582456 1_565
Na9 O10 2.389544 1_555
Na9 O1 2.389544 1_555
Na9 O47 2.402283 1_555
Na9 O36 2.402283 1_555
Na9 O34 2.582456 1_655
Na9 O25 2.582456 1_655
Na10 O15 2.301902 1_565
Na10 O20 2.301902 1_565
Na10 O27 2.449828 1_555
Na10 O32 2.449828 1_555
Na10 O29 2.553500 1_555
Na10 O30 2.553500 1_555
Na11 O18 2.301899 1_655
Na11 O16 2.301905 1_655
Na11 O28 2.449828 1_555
Na11 O30 2.449828 1_555
Na11 O31 2.553500 1_555
Na11 O27 2.553500 1_555
Na12 O17 2.301899 1_555
Na12 O19 2.301905 1_555
Na12 O31 2.449828 1_555
Na12 O29 2.449828 1_555
Na12 O28 2.553500 1_555
Na12 O32 2.553500 1_555
Na13 O12 2.301899 1_455
Na13 O22 2.301905 1_455
Na13 O34 2.449828 1_555
Na13 O24 2.449828 1_555
Na13 O25 2.553500 1_555
Na13 O33 2.553500 1_555
Na14 O23 2.301899 1_555
Na14 O13 2.301905 1_555
Na14 O25 2.449828 1_555
Na14 O35 2.449828 1_555
Na14 O34 2.553500 1_555
Na14 O26 2.553500 1_555
Na15 O21 2.301902 1_545
Na15 O14 2.301902 1_545
Na15 O33 2.449828 1_555
Na15 O26 2.449828 1_555
Na15 O24 2.553500 1_555
Na15 O35 2.553500 1_555
Co0 O2 1.938771 1_555
Co0 O8 1.938771 1_555
Co0 O1 1.938771 1_555
Co0 O7 1.938771 1_555
Co0 O0 1.938771 1_555
Co0 O6 1.938771 1_555
Co1 O9 1.938771 1_545
Co1 O3 1.938771 1_454
Co1 O4 1.938771 1_554
Co1 O10 1.938771 1_445
Co1 O11 1.938771 1_455
Co1 O5 1.938771 1_544
Co2 O30 2.018377 1_555
Co2 O32 2.018377 1_555
Co2 O31 2.018377 1_555
Co2 O36 2.018671 1_555
Co2 O37 2.018675 1_565
Co2 O38 2.018680 1_655
Co3 O35 2.018377 1_555
Co3 O33 2.018377 1_555
Co3 O34 2.018377 1_555
Co3 O41 2.018671 1_554
Co3 O40 2.018675 1_554
Co3 O39 2.018680 1_554
Co4 O24 2.018377 1_555
Co4 O26 2.018377 1_555
Co4 O25 2.018377 1_555
Co4 O42 2.018671 1_555
Co4 O43 2.018675 1_545
Co4 O44 2.018680 1_455
Co5 O29 2.018377 1_555
Co5 O27 2.018377 1_555
Co5 O28 2.018377 1_555
Co5 O47 2.018671 1_556
Co5 O46 2.018675 1_556
Co5 O45 2.018680 1_556
Co6 O12 1.880035 1_455
Co6 O18 1.880035 1_545
Co6 O38 1.897327 1_545
Co6 O44 1.897327 1_455
Co6 O24 1.950319 1_555
Co6 O30 1.950319 1_445
Co7 O19 1.880039 1_455
Co7 O13 1.880039 1_555
Co7 O36 1.897332 1_455
Co7 O42 1.897332 1_555
Co7 O25 1.950319 1_555
Co7 O31 1.950319 1_455
Co8 O14 1.880030 1_545
Co8 O20 1.880030 1_555
Co8 O37 1.897336 1_555
Co8 O43 1.897336 1_545
Co8 O26 1.950319 1_555
Co8 O32 1.950319 1_545
Co9 O21 1.880030 1_545
Co9 O15 1.880030 1_554
Co9 O40 1.897336 1_554
Co9 O46 1.897336 1_545
Co9 O33 1.950319 1_555
Co9 O27 1.950319 1_544
Co10 O16 1.880039 1_554
Co10 O22 1.880039 1_455
Co10 O41 1.897332 1_554
Co10 O47 1.897332 1_455
Co10 O34 1.950319 1_555
Co10 O28 1.950319 1_454
Co11 O23 1.880035 1_555
Co11 O17 1.880035 1_554
Co11 O45 1.897327 1_555
Co11 O39 1.897327 1_554
Co11 O35 1.950319 1_555
Co11 O29 1.950319 1_554
Co12 O0 1.965577 1_555
Co12 O18 1.968332 1_555
Co12 O8 2.034970 1_555
Co12 O14 2.035414 1_555
Co12 O43 2.050332 1_555
Co12 O24 2.050707 1_565
Co13 O1 1.965577 1_555
Co13 O19 1.968323 1_555
Co13 O6 2.034970 1_555
Co13 O12 2.035405 1_555
Co13 O44 2.050337 1_555
Co13 O25 2.050707 1_655
Co14 O2 1.965577 1_555
Co14 O20 1.968328 1_555
Co14 O7 2.034970 1_555
Co14 O13 2.035410 1_555
Co14 O42 2.050341 1_555
Co14 O26 2.050707 1_555
Co15 O3 1.965577 1_565
Co15 O21 1.968328 1_556
Co15 O10 2.034970 1_556
Co15 O16 2.035410 1_655
Co15 O47 2.050341 1_556
Co15 O27 2.050707 1_555
Co16 O4 1.965577 1_655
Co16 O22 1.968323 1_556
Co16 O11 2.034970 1_556
Co16 O17 2.035405 1_555
Co16 O45 2.050337 1_556
Co16 O28 2.050707 1_555
Co17 O5 1.965577 1_555
Co17 O23 1.968332 1_556
Co17 O9 2.034970 1_556
Co17 O15 2.035414 1_565
Co17 O46 2.050332 1_556
Co17 O29 2.050707 1_555
Co18 O6 1.965577 1_555
Co18 O12 1.968332 1_555
Co18 O2 2.034970 1_555
Co18 O20 2.035414 1_555
Co18 O37 2.050332 1_555
Co18 O30 2.050707 1_545
Co19 O7 1.965577 1_555
Co19 O13 1.968323 1_555
Co19 O0 2.034970 1_555
Co19 O18 2.035405 1_555
Co19 O38 2.050337 1_555
Co19 O31 2.050707 1_455
Co20 O8 1.965577 1_555
Co20 O14 1.968328 1_555
Co20 O1 2.034970 1_555
Co20 O19 2.035410 1_555
Co20 O36 2.050341 1_555
Co20 O32 2.050707 1_555
Co21 O9 1.965577 1_545
Co21 O15 1.968328 1_554
Co21 O4 2.034970 1_554
Co21 O22 2.035410 1_455
Co21 O41 2.050341 1_554
Co21 O33 2.050707 1_555
Co22 O10 1.965577 1_455
Co22 O16 1.968323 1_554
Co22 O5 2.034970 1_554
Co22 O23 2.035405 1_555
Co22 O39 2.050337 1_554
Co22 O34 2.050707 1_555
Co23 O11 1.965577 1_555
Co23 O17 1.968332 1_554
Co23 O3 2.034970 1_554
Co23 O21 2.035414 1_545
Co23 O40 2.050332 1_554
Co23 O35 2.050707 1_555
