# generated using pymatgen
data_LiEu2IrO6
_symmetry_space_group_name_H-M   'P 1'
_cell_length_a   5.82225300
_cell_length_b   5.46167800
_cell_length_c   9.41532111
_cell_angle_alpha   55.11641190
_cell_angle_beta   90.00000000
_cell_angle_gamma   90.00000000
_symmetry_Int_Tables_number   1
_chemical_formula_structural   LiEu2IrO6
_chemical_formula_sum   'Li2 Eu4 Ir2 O12'
_cell_volume   245.60281527
_cell_formula_units_Z   2
loop_
 _symmetry_equiv_pos_site_id
 _symmetry_equiv_pos_as_xyz
  1  'x, y, z'
loop_
 _atom_site_type_symbol
 _atom_site_label
 _atom_site_symmetry_multiplicity
 _atom_site_fract_x
 _atom_site_fract_y
 _atom_site_fract_z
 _atom_site_occupancy
  Li  Li0  1  0.00000000  0.00000000  0.00000000  1
  Li  Li1  1  0.50000000  0.00000000  0.50000000  1
  Eu  Eu0  1  0.07087800  0.76685800  0.74872100  1
  Eu  Eu1  1  0.57087800  0.23314200  0.75127900  1
  Eu  Eu2  1  0.42912200  0.76685800  0.24872100  1
  Eu  Eu3  1  0.92912200  0.23314200  0.25127900  1
  Ir  Ir0  1  0.50000000  0.50000000  0.00000000  1
  Ir  Ir1  1  0.00000000  0.50000000  0.50000000  1
  O  O0  1  0.28655100  0.26991600  0.55297200  1
  O  O1  1  0.78655100  0.73008400  0.94702800  1
  O  O2  1  0.71344900  0.73008400  0.44702800  1
  O  O3  1  0.21344900  0.26991600  0.05297200  1
  O  O4  1  0.03175800  0.64778700  0.25553300  1
  O  O5  1  0.53175800  0.35221300  0.24446700  1
  O  O6  1  0.31707300  0.84306200  0.95366500  1
  O  O7  1  0.81707300  0.15693800  0.54633500  1
  O  O8  1  0.68292700  0.15693800  0.04633500  1
  O  O9  1  0.18292700  0.84306200  0.45366500  1
  O  O10  1  0.46824200  0.64778700  0.75553300  1
  O  O11  1  0.96824200  0.35221300  0.74446700  1
loop_
_geom_bond_atom_site_label_1
_geom_bond_atom_site_label_2
_geom_bond_distance
_geom_bond_site_symmetry_2
Li0 O4 2.056534 1_545
Li0 O11 2.056534 1_454
Li0 O6 2.181913 1_544
Li0 O8 2.181913 1_455
Li0 O3 2.192586 1_555
Li0 O1 2.192586 1_444
Li1 O5 2.056534 1_555
Li1 O10 2.056534 1_545
Li1 O7 2.181913 1_555
Li1 O9 2.181913 1_545
Li1 O0 2.192586 1_555
Li1 O2 2.192586 1_545
Eu0 O11 2.364555 1_455
Eu0 O7 2.389580 1_465
Eu0 O10 2.394131 1_555
Eu0 O1 2.416191 1_455
Eu0 O0 2.594311 1_565
Eu0 O6 2.621051 1_555
Eu0 O9 2.644588 1_555
Eu0 O3 2.714489 1_556
Eu1 O10 2.364555 1_555
Eu1 O6 2.389580 1_545
Eu1 O11 2.394131 1_555
Eu1 O0 2.416191 1_555
Eu1 O1 2.594311 1_545
Eu1 O7 2.621051 1_555
Eu1 O8 2.644588 1_556
Eu1 O2 2.714489 1_555
Eu2 O5 2.364555 1_555
Eu2 O8 2.389580 1_565
Eu2 O4 2.394131 1_555
Eu2 O2 2.416191 1_555
Eu2 O3 2.594311 1_565
Eu2 O9 2.621051 1_555
Eu2 O6 2.644588 1_554
Eu2 O0 2.714489 1_555
Eu3 O4 2.364555 1_655
Eu3 O9 2.389580 1_645
Eu3 O5 2.394131 1_555
Eu3 O3 2.416191 1_655
Eu3 O2 2.594311 1_545
Eu3 O8 2.621051 1_555
Eu3 O7 2.644588 1_555
Eu3 O1 2.714489 1_554
Ir0 O10 1.964333 1_554
Ir0 O5 1.964333 1_555
Ir0 O1 1.973444 1_554
Ir0 O3 1.973444 1_555
Ir0 O8 1.974943 1_555
Ir0 O6 1.974943 1_554
Ir1 O4 1.964333 1_555
Ir1 O11 1.964333 1_455
Ir1 O2 1.973444 1_455
Ir1 O0 1.973444 1_555
Ir1 O9 1.974943 1_555
Ir1 O7 1.974943 1_455
