# generated using pymatgen
data_Sr2FeWO6
_symmetry_space_group_name_H-M   'P 1'
_cell_length_a   5.70774874
_cell_length_b   5.70740608
_cell_length_c   8.02886631
_cell_angle_alpha   90.00462574
_cell_angle_beta   90.02388795
_cell_angle_gamma   89.02825857
_symmetry_Int_Tables_number   1
_chemical_formula_structural   Sr2FeWO6
_chemical_formula_sum   'Sr4 Fe2 W2 O12'
_cell_volume   261.51424080
_cell_formula_units_Z   2
loop_
 _symmetry_equiv_pos_site_id
 _symmetry_equiv_pos_as_xyz
  1  'x, y, z'
loop_
 _atom_site_type_symbol
 _atom_site_label
 _atom_site_symmetry_multiplicity
 _atom_site_fract_x
 _atom_site_fract_y
 _atom_site_fract_z
 _atom_site_occupancy
  Sr  Sr0  1  0.49943500  0.99859200  0.74167200  1
  Sr  Sr1  1  0.99900400  0.49974300  0.25875000  1
  Sr  Sr2  1  0.00106300  0.50025900  0.74127400  1
  Sr  Sr3  1  0.50062900  0.00139500  0.25834800  1
  Fe  Fe0  1  0.49940700  0.49982000  0.99986900  1
  Fe  Fe1  1  0.00003400  0.99999800  0.49998400  1
  W  W0  1  0.00006900  0.00005600  0.00001500  1
  W  W1  1  0.50006800  0.50003800  0.50002700  1
  O  O0  1  0.24256100  0.24112000  0.00021200  1
  O  O1  1  0.75060200  0.74730500  0.50025600  1
  O  O2  1  0.24942500  0.25270800  0.49977100  1
  O  O3  1  0.75746900  0.75887100  0.99978900  1
  O  O4  1  0.45924600  0.54047400  0.75430100  1
  O  O5  1  0.95580600  0.04400700  0.23506800  1
  O  O6  1  0.04425000  0.95603900  0.76491300  1
  O  O7  1  0.54080800  0.45954100  0.24573200  1
  O  O8  1  0.26395200  0.73901000  0.46071700  1
  O  O9  1  0.75733100  0.24386300  0.95582000  1
  O  O10  1  0.24270000  0.75613700  0.04418200  1
  O  O11  1  0.73614200  0.26101900  0.53929800  1
loop_
_geom_bond_atom_site_label_1
_geom_bond_atom_site_label_2
_geom_bond_distance
_geom_bond_site_symmetry_2
Fe0 O4 1.997902 1_555
Fe0 O7 2.000803 1_556
Fe0 O10 2.083552 1_556
Fe0 O9 2.086585 1_555
Fe0 O0 2.098260 1_556
Fe0 O3 2.104626 1_555
Fe1 O2 2.043567 1_565
Fe1 O1 2.043664 1_455
Fe1 O8 2.124049 1_555
Fe1 O11 2.124131 1_465
Fe1 O5 2.155998 1_465
Fe1 O6 2.156061 1_555
O0 W0 1.968055 1_555
O0 Sr3 2.875180 1_555
O0 Sr0 2.882325 1_544
O0 Sr2 2.887663 1_554
O0 Sr1 2.890059 1_455
O1 W1 2.026066 1_555
O1 Sr1 2.774940 1_555
O1 Sr2 2.775991 1_655
O1 Sr0 2.793072 1_555
O1 Sr3 2.799832 1_565
O2 W1 2.026767 1_555
O2 Sr2 2.774777 1_555
O2 Sr1 2.775861 1_455
O2 Sr3 2.793292 1_555
O2 Sr0 2.799975 1_545
O3 W0 1.968987 1_666
O3 Sr0 2.874961 1_555
O3 Sr3 2.882327 1_566
O3 Sr1 2.887863 1_556
O3 Sr2 2.889995 1_655
O4 W1 2.067341 1_555
O4 Sr0 2.630548 1_555
O4 Sr2 2.631157 1_555
O4 Sr2 3.098985 1_655
O4 Sr0 3.099008 1_545
O5 W0 1.920021 1_655
O5 Sr3 2.620252 1_555
O5 Sr1 2.623766 1_555
O5 Sr1 3.117747 1_545
O5 Sr3 3.120620 1_655
O6 W0 1.920396 1_566
O6 Sr0 2.620238 1_555
O6 Sr2 2.623983 1_555
O6 Sr2 3.117472 1_565
O6 Sr0 3.120535 1_455
O7 W1 2.067494 1_555
O7 Sr3 2.630697 1_555
O7 Sr1 2.631220 1_555
O7 Sr3 3.098842 1_565
O7 Sr1 3.098904 1_455
O8 W1 1.927045 1_555
O8 Sr3 2.603522 1_565
O8 Sr1 2.617038 1_455
O8 Sr0 3.025622 1_555
O8 Sr2 3.042202 1_555
O9 W0 1.978901 1_656
O9 Sr2 2.667473 1_655
O9 Sr0 2.673953 1_545
O9 Sr1 3.164814 1_556
O9 Sr3 3.167645 1_556
O10 W0 1.978883 1_565
O10 Sr1 2.667472 1_455
O10 Sr3 2.674111 1_565
O10 Sr2 3.164582 1_554
O10 Sr0 3.167590 1_554
O11 W1 1.927016 1_555
O11 Sr0 2.603777 1_545
O11 Sr2 2.616910 1_655
O11 Sr3 3.025789 1_555
O11 Sr1 3.042001 1_555
