# generated using pymatgen
data_DyGaNi
_symmetry_space_group_name_H-M   'P 1'
_cell_length_a   4.28742516
_cell_length_b   6.83825134
_cell_length_c   7.19505933
_cell_angle_alpha   90.00000000
_cell_angle_beta   90.00000000
_cell_angle_gamma   90.00000000
_symmetry_Int_Tables_number   1
_chemical_formula_structural   DyGaNi
_chemical_formula_sum   'Dy4 Ga4 Ni4'
_cell_volume   210.94828110
_cell_formula_units_Z   4
loop_
 _symmetry_equiv_pos_site_id
 _symmetry_equiv_pos_as_xyz
  1  'x, y, z'
loop_
 _atom_site_type_symbol
 _atom_site_label
 _atom_site_symmetry_multiplicity
 _atom_site_fract_x
 _atom_site_fract_y
 _atom_site_fract_z
 _atom_site_occupancy
  Dy  Dy0  1  0.25000000  0.01928576  0.80319595  1
  Dy  Dy1  1  0.25000000  0.51928576  0.69680405  1
  Dy  Dy2  1  0.75000000  0.98071424  0.19680405  1
  Dy  Dy3  1  0.75000000  0.48071424  0.30319595  1
  Ga  Ga0  1  0.25000000  0.17815552  0.41929273  1
  Ga  Ga1  1  0.25000000  0.67815552  0.08070727  1
  Ga  Ga2  1  0.75000000  0.82184448  0.58070727  1
  Ga  Ga3  1  0.75000000  0.32184448  0.91929273  1
  Ni  Ni0  1  0.25000000  0.79436498  0.40887105  1
  Ni  Ni1  1  0.25000000  0.29436498  0.09112895  1
  Ni  Ni2  1  0.75000000  0.20563502  0.59112895  1
  Ni  Ni3  1  0.75000000  0.70563502  0.90887105  1
loop_
_geom_bond_atom_site_label_1
_geom_bond_atom_site_label_2
_geom_bond_distance
_geom_bond_site_symmetry_2
Dy0 Ni1 2.798269 1_556
Dy0 Ni2 2.923615 1_555
Dy0 Ni2 2.923615 1_455
Dy0 Ga0 2.968170 1_555
Dy0 Ga2 2.996838 1_545
Dy0 Ga2 2.996838 1_445
Dy0 Ga1 3.070587 1_546
Dy0 Ga3 3.094175 1_555
Dy0 Ga3 3.094175 1_455
Dy0 Ni3 3.126321 1_545
Dy0 Ni3 3.126321 1_445
Dy0 Ni0 3.227274 1_545
Dy1 Ni0 2.798269 1_555
Dy1 Ni3 2.923615 1_455
Dy1 Ni3 2.923615 1_555
Dy1 Ga1 2.968170 1_556
Dy1 Ga3 2.996838 1_455
Dy1 Ga3 2.996838 1_555
Dy1 Ga0 3.070587 1_555
Dy1 Ga2 3.094175 1_555
Dy1 Ga2 3.094175 1_455
Dy1 Ni2 3.126321 1_555
Dy1 Ni2 3.126321 1_455
Dy1 Ni1 3.227274 1_556
Dy2 Ni3 2.798269 1_554
Dy2 Ni0 2.923615 1_655
Dy2 Ni0 2.923615 1_555
Dy2 Ga2 2.968170 1_555
Dy2 Ga0 2.996838 1_565
Dy2 Ga0 2.996838 1_665
Dy2 Ga3 3.070587 1_564
Dy2 Ga1 3.094175 1_655
Dy2 Ga1 3.094175 1_555
Dy2 Ni1 3.126321 1_565
Dy2 Ni1 3.126321 1_665
Dy2 Ni2 3.227274 1_565
Dy3 Ni2 2.798269 1_555
Dy3 Ni1 2.923615 1_555
Dy3 Ni1 2.923615 1_655
Dy3 Ga3 2.968170 1_554
Dy3 Ga1 2.996838 1_655
Dy3 Ga1 2.996838 1_555
Dy3 Ga2 3.070587 1_555
Dy3 Ga0 3.094175 1_555
Dy3 Ga0 3.094175 1_655
Dy3 Ni0 3.126321 1_655
Dy3 Ni0 3.126321 1_555
Dy3 Ni3 3.227274 1_554
Ga0 Ni2 2.481820 1_455
Ga0 Ni2 2.481820 1_555
Ga0 Ni1 2.491298 1_555
Ga0 Ni0 2.625527 1_545
Ga1 Ni3 2.481820 1_554
Ga1 Ni3 2.481820 1_454
Ga1 Ni0 2.491298 1_555
Ga1 Ni1 2.625527 1_555
Ga2 Ni0 2.481820 1_555
Ga2 Ni0 2.481820 1_655
Ga2 Ni3 2.491298 1_555
Ga2 Ni2 2.625527 1_565
Ga3 Ni1 2.481820 1_556
Ga3 Ni1 2.481820 1_656
Ga3 Ni2 2.491298 1_555
Ga3 Ni3 2.625527 1_555
