# generated using pymatgen
data_NaEuCu2F8
_symmetry_space_group_name_H-M   'P 1'
_cell_length_a   6.47470644
_cell_length_b   6.47470644
_cell_length_c   6.47470644
_cell_angle_alpha   129.44127665
_cell_angle_beta   129.44127665
_cell_angle_gamma   74.30156966
_symmetry_Int_Tables_number   1
_chemical_formula_structural   NaEuCu2F8
_chemical_formula_sum   'Na1 Eu1 Cu2 F8'
_cell_volume   157.80706426
_cell_formula_units_Z   1
loop_
 _symmetry_equiv_pos_site_id
 _symmetry_equiv_pos_as_xyz
  1  'x, y, z'
loop_
 _atom_site_type_symbol
 _atom_site_label
 _atom_site_symmetry_multiplicity
 _atom_site_fract_x
 _atom_site_fract_y
 _atom_site_fract_z
 _atom_site_occupancy
  Na  Na0  1  0.50000000  0.50000000  0.00000000  1
  Eu  Eu0  1  0.00000000  0.00000000  0.00000000  1
  Cu  Cu0  1  0.75000000  0.25000000  0.50000000  1
  Cu  Cu1  1  0.25000000  0.75000000  0.50000000  1
  F  F0  1  0.44507300  0.29567900  0.49202200  1
  F  F1  1  0.80365700  0.95305200  0.50797800  1
  F  F2  1  0.29567900  0.80365700  0.85060500  1
  F  F3  1  0.19634300  0.70432100  0.14939500  1
  F  F4  1  0.95305200  0.44507300  0.14939500  1
  F  F5  1  0.55492700  0.04694800  0.85060500  1
  F  F6  1  0.04694800  0.19634300  0.49202200  1
  F  F7  1  0.70432100  0.55492700  0.50797800  1
loop_
_geom_bond_atom_site_label_1
_geom_bond_atom_site_label_2
_geom_bond_distance
_geom_bond_site_symmetry_2
Eu0 F5 2.385422 1_454
Eu0 F4 2.385422 1_455
Eu0 F0 2.385424 1_555
Eu0 F7 2.385424 1_444
Eu0 F1 2.385427 1_444
Eu0 F6 2.385427 1_555
Eu0 F3 2.385427 1_545
Eu0 F2 2.385427 1_544
Cu0 F6 1.887293 1_655
Cu0 F1 1.887293 1_545
Cu0 F7 1.887299 1_555
Cu0 F0 1.887299 1_555
Cu1 F3 1.887293 1_555
Cu1 F2 1.887293 1_555
Cu1 F5 1.887297 1_565
Cu1 F4 1.887297 1_455
F0 Na0 2.436022 1_556
F1 Na0 2.436026 1_555
F2 Na0 2.436026 1_556
F3 Na0 2.436026 1_555
F4 Na0 2.436026 1_555
F5 Na0 2.436026 1_556
F6 Na0 2.436026 1_556
F7 Na0 2.436022 1_555
