# generated using pymatgen
data_EuPPt
_symmetry_space_group_name_H-M   'P 1'
_cell_length_a   4.10083665
_cell_length_b   4.10083665
_cell_length_c   4.30096519
_cell_angle_alpha   90.00000000
_cell_angle_beta   90.00000000
_cell_angle_gamma   119.99998978
_symmetry_Int_Tables_number   1
_chemical_formula_structural   EuPPt
_chemical_formula_sum   'Eu1 P1 Pt1'
_cell_volume   62.63852807
_cell_formula_units_Z   1
loop_
 _symmetry_equiv_pos_site_id
 _symmetry_equiv_pos_as_xyz
  1  'x, y, z'
loop_
 _atom_site_type_symbol
 _atom_site_label
 _atom_site_symmetry_multiplicity
 _atom_site_fract_x
 _atom_site_fract_y
 _atom_site_fract_z
 _atom_site_occupancy
  Eu  Eu0  1  0.66666700  0.33333300  0.00000000  1
  P  P0  1  0.33333300  0.66666700  0.50000000  1
  Pt  Pt0  1  0.00000000  0.00000000  0.50000000  1
loop_
_geom_bond_atom_site_label_1
_geom_bond_atom_site_label_2
_geom_bond_distance
_geom_bond_site_symmetry_2
Eu0 Pt0 3.198466 1_655
Eu0 Pt0 3.198466 1_654
Eu0 P0 3.198466 1_544
Eu0 P0 3.198466 1_545
Eu0 P0 3.198466 1_655
Eu0 P0 3.198466 1_654
Eu0 Pt0 3.198469 1_665
Eu0 Pt0 3.198469 1_555
Eu0 Pt0 3.198469 1_554
Eu0 Pt0 3.198469 1_664
Eu0 P0 3.198471 1_554
Eu0 P0 3.198471 1_555
P0 Pt0 2.367617 1_565
P0 Pt0 2.367621 1_665
P0 Pt0 2.367621 1_555
