# generated using pymatgen
data_YB4Rh
_symmetry_space_group_name_H-M   'P 1'
_cell_length_a   3.56052750
_cell_length_b   5.95627063
_cell_length_c   11.54970531
_cell_angle_alpha   89.99950970
_cell_angle_beta   90.00000587
_cell_angle_gamma   90.00000289
_symmetry_Int_Tables_number   1
_chemical_formula_structural   YB4Rh
_chemical_formula_sum   'Y4 B16 Rh4'
_cell_volume   244.93997546
_cell_formula_units_Z   4
loop_
 _symmetry_equiv_pos_site_id
 _symmetry_equiv_pos_as_xyz
  1  'x, y, z'
loop_
 _atom_site_type_symbol
 _atom_site_label
 _atom_site_symmetry_multiplicity
 _atom_site_fract_x
 _atom_site_fract_y
 _atom_site_fract_z
 _atom_site_occupancy
  Y  Y0  1  -0.00000004  0.36873891  0.14894467  1
  Y  Y1  1  0.00000003  0.63125893  0.85108369  1
  Y  Y2  1  0.00000006  0.86874722  0.35108222  1
  Y  Y3  1  -0.00000001  0.13125497  0.64888950  1
  B  B0  1  0.49999993  0.78952770  0.68663656  1
  B  B1  1  0.50000011  0.21046150  0.31335259  1
  B  B2  1  0.50000000  0.28953410  0.81334314  1
  B  B3  1  0.50000002  0.71045431  0.18666649  1
  B  B4  1  0.49999994  0.86315057  0.53081079  1
  B  B5  1  0.50000008  0.13685316  0.46916029  1
  B  B6  1  0.49999997  0.36314784  0.96918901  1
  B  B7  1  0.50000002  0.63685581  0.03083830  1
  B  B8  1  0.50000002  0.02218538  0.19219763  1
  B  B9  1  0.49999998  0.97782348  0.80781296  1
  B  B10  1  0.50000006  0.52217632  0.30782061  1
  B  B11  1  0.49999989  0.47783168  0.69216802  1
  B  B12  1  0.50000003  0.11187460  0.04677632  1
  B  B13  1  0.50000003  0.88812625  0.95324720  1
  B  B14  1  0.49999997  0.61188000  0.45322622  1
  B  B15  1  0.49999996  0.38812600  0.54675092  1
  Rh  Rh0  1  -0.00000001  0.85777943  0.09443801  1
  Rh  Rh1  1  0.00000002  0.14221838  0.90560401  1
  Rh  Rh2  1  0.00000019  0.35776699  0.40556736  1
  Rh  Rh3  1  -0.00000023  0.64222645  0.59439048  1
loop_
_geom_bond_atom_site_label_1
_geom_bond_atom_site_label_2
_geom_bond_distance
_geom_bond_site_symmetry_2
B0 B9 1.793495 1_555
B0 B4 1.852392 1_555
B0 B11 1.857644 1_555
B0 Rh3 2.252606 1_655
B0 Rh3 2.252607 1_555
B0 Y3 2.739037 1_565
B0 Y3 2.739038 1_665
B0 Y1 2.768642 1_555
B0 Y1 2.768642 1_655
B1 B8 1.793229 1_555
B1 B5 1.852168 1_555
B1 B10 1.857756 1_555
B1 Rh2 2.252445 1_555
B1 Rh2 2.252445 1_655
B1 Y2 2.738948 1_645
B1 Y2 2.738948 1_545
B1 Y0 2.768348 1_655
B1 Y0 2.768349 1_555
B2 B6 1.852612 1_555
B2 B9 1.857732 1_545
B2 Rh1 2.252714 1_555
B2 Rh1 2.252714 1_655
B2 Y1 2.739020 1_655
B2 Y1 2.739020 1_555
B2 Y3 2.768725 1_555
B2 Y3 2.768725 1_655
B3 B7 1.852392 1_555
B3 B8 1.857854 1_565
B3 Rh0 2.252558 1_655
B3 Rh0 2.252559 1_555
B3 Y0 2.738944 1_655
B3 Y0 2.738944 1_555
B3 Y2 2.768453 1_655
B3 Y2 2.768453 1_555
B4 B5 1.778958 1_565
B4 Rh3 2.332404 1_655
B4 Rh3 2.332404 1_555
B4 Y2 2.734857 1_555
B4 Y2 2.734858 1_655
B4 Y3 2.753063 1_665
B4 Y3 2.753063 1_565
B5 Rh2 2.332417 1_555
B5 Rh2 2.332418 1_655
B5 Y3 2.734863 1_655
B5 Y3 2.734863 1_555
B5 Y2 2.753064 1_545
B5 Y2 2.753064 1_645
B6 B7 1.778993 1_556
B6 Rh1 2.332448 1_555
B6 Rh1 2.332449 1_655
B6 Y0 2.735095 1_656
B6 Y0 2.735095 1_556
B6 Y1 2.753224 1_555
B6 Y1 2.753225 1_655
B7 Rh0 2.332482 1_655
B7 Rh0 2.332482 1_555
B7 Y1 2.735086 1_554
B7 Y1 2.735086 1_654
B7 Y0 2.753250 1_655
B7 Y0 2.753251 1_555
B8 Rh0 2.324465 1_545
B8 Rh0 2.324465 1_645
B8 Y2 2.715150 1_545
B8 Y2 2.715150 1_645
B8 Y0 2.771221 1_655
B8 Y0 2.771221 1_555
B9 Rh1 2.324613 1_665
B9 Rh1 2.324613 1_565
B9 Y3 2.715440 1_565
B9 Y3 2.715441 1_665
B9 Y1 2.771306 1_555
B9 Y1 2.771307 1_655
B10 B14 1.762342 1_555
B10 B3 1.793213 1_555
B10 Rh2 2.324393 1_555
B10 Rh2 2.324393 1_655
B10 Y0 2.715092 1_655
B10 Y0 2.715092 1_555
B10 Y2 2.771322 1_655
B10 Y2 2.771322 1_555
B11 B15 1.762472 1_555
B11 B2 1.793475 1_555
B11 Rh3 2.324529 1_655
B11 Rh3 2.324529 1_555
B11 Y1 2.715381 1_555
B11 Y1 2.715382 1_655
B11 Y3 2.771383 1_555
B11 Y3 2.771383 1_655
B12 B13 1.715527 1_544
B12 B6 1.744407 1_554
B12 B8 1.762480 1_555
B12 Rh0 2.400606 1_645
B12 Rh0 2.400607 1_545
B12 Rh1 2.420852 1_554
B12 Rh1 2.420852 1_654
B12 Y0 2.627272 1_655
B12 Y0 2.627273 1_555
B13 B7 1.744415 1_556
B13 B9 1.762637 1_555
B13 Rh1 2.400546 1_665
B13 Rh1 2.400546 1_565
B13 Rh0 2.420997 1_656
B13 Rh0 2.420998 1_556
B13 Y1 2.627258 1_555
B13 Y1 2.627258 1_655
B14 B15 1.715507 1_555
B14 B4 1.744391 1_555
B14 Rh2 2.400671 1_555
B14 Rh2 2.400673 1_655
B14 Rh3 2.420792 1_655
B14 Rh3 2.420793 1_555
B14 Y2 2.627144 1_555
B14 Y2 2.627145 1_655
B15 B5 1.744438 1_555
B15 Rh3 2.400573 1_655
B15 Rh3 2.400574 1_555
B15 Rh2 2.420948 1_555
B15 Rh2 2.420949 1_655
B15 Y3 2.627130 1_555
B15 Y3 2.627130 1_655
Rh0 Rh1 2.761683 1_564
Rh0 Y2 2.964885 1_555
Rh0 Y0 2.980105 1_555
Rh0 Y0 3.107847 1_565
Rh0 Y1 3.117743 1_554
Rh1 Y3 2.965697 1_555
Rh1 Y1 2.980138 1_555
Rh1 Y1 3.107878 1_545
Rh1 Y0 3.117601 1_556
Rh2 Rh3 2.761682 1_555
Rh2 Y0 2.964636 1_555
Rh2 Y2 2.979942 1_545
Rh2 Y2 3.107907 1_555
Rh2 Y3 3.117365 1_555
Rh3 Y1 2.965450 1_555
Rh3 Y3 2.980027 1_565
Rh3 Y3 3.107888 1_555
Rh3 Y2 3.117243 1_555
