# generated using pymatgen
data_BaSrNdNbO6
_symmetry_space_group_name_H-M   'P 1'
_cell_length_a   6.04268080
_cell_length_b   6.09320801
_cell_length_c   8.56641415
_cell_angle_alpha   90.34145535
_cell_angle_beta   89.61479910
_cell_angle_gamma   90.08638787
_symmetry_Int_Tables_number   1
_chemical_formula_structural   BaSrNdNbO6
_chemical_formula_sum   'Ba2 Sr2 Nd2 Nb2 O12'
_cell_volume   315.39639892
_cell_formula_units_Z   2
loop_
 _symmetry_equiv_pos_site_id
 _symmetry_equiv_pos_as_xyz
  1  'x, y, z'
loop_
 _atom_site_type_symbol
 _atom_site_label
 _atom_site_symmetry_multiplicity
 _atom_site_fract_x
 _atom_site_fract_y
 _atom_site_fract_z
 _atom_site_occupancy
  Ba  Ba0  1  0.99490304  0.02665797  0.25054419  1
  Ba  Ba1  1  0.00509696  0.97334203  0.74945581  1
  Sr  Sr0  1  0.50927796  0.53479185  0.25237649  1
  Sr  Sr1  1  0.49072204  0.46520815  0.74762351  1
  Nd  Nd0  1  0.50000000  -0.00000000  0.00000000  1
  Nd  Nd1  1  0.00000000  0.50000000  0.50000000  1
  Nb  Nb0  1  0.00000000  0.50000000  0.00000000  1
  Nb  Nb1  1  0.50000000  -0.00000000  0.50000000  1
  O  O0  1  0.19826724  0.23636834  0.96161472  1
  O  O1  1  0.31053829  0.72939699  0.54911565  1
  O  O2  1  0.80173276  0.76363166  0.03838528  1
  O  O3  1  0.68946171  0.27060301  0.45088435  1
  O  O4  1  0.26378011  0.69657346  0.95003402  1
  O  O5  1  0.23297062  0.19569636  0.52761404  1
  O  O6  1  0.73621989  0.30342654  0.04996598  1
  O  O7  1  0.76702938  0.80430364  0.47238596  1
  O  O8  1  0.43269432  0.95633561  0.26991897  1
  O  O9  1  0.08900912  0.49604925  0.23009709  1
  O  O10  1  0.56730568  0.04366439  0.73008103  1
  O  O11  1  0.91099088  0.50395075  0.76990291  1
loop_
_geom_bond_atom_site_label_1
_geom_bond_atom_site_label_2
_geom_bond_distance
_geom_bond_site_symmetry_2
Ba0 O8 2.686938 1_645
Ba0 O2 2.687440 1_545
Ba0 O7 2.707954 1_545
Ba0 O6 2.884149 1_555
Ba0 O3 2.914887 1_555
Ba0 O9 2.921291 1_655
Ba0 O5 2.962453 1_655
Ba0 O0 3.043195 1_654
Ba0 O9 3.287020 1_645
Ba1 O10 2.686938 1_465
Ba1 O0 2.687440 1_565
Ba1 O5 2.707954 1_565
Ba1 O4 2.884149 1_555
Ba1 O1 2.914887 1_555
Ba1 O11 2.921291 1_455
Ba1 O7 2.962453 1_455
Ba1 O2 3.043195 1_456
Ba1 O11 3.287020 1_465
Nd0 O0 2.351250 1_554
Nd0 O2 2.351250 1_545
Nd0 O8 2.361567 1_545
Nd0 O10 2.361567 1_554
Nd0 O6 2.372703 1_555
Nd0 O4 2.372703 1_544
Nd1 O7 2.343789 1_455
Nd1 O5 2.343789 1_555
Nd1 O11 2.370301 1_455
Nd1 O9 2.370301 1_555
Nd1 O3 2.376480 1_455
Nd1 O1 2.376480 1_555
Nb0 O2 2.029310 1_455
Nb0 O0 2.029310 1_554
Nb0 O6 2.037073 1_455
Nb0 O4 2.037073 1_554
Nb0 O11 2.046946 1_454
Nb0 O9 2.046946 1_555
Nb1 O5 2.019591 1_555
Nb1 O7 2.019591 1_545
Nb1 O10 2.031039 1_555
Nb1 O8 2.031039 1_545
Nb1 O1 2.049999 1_545
Nb1 O3 2.049999 1_555
O0 Sr1 2.899512 1_555
O1 Sr1 2.594475 1_555
O1 Sr0 3.039292 1_555
O2 Sr0 2.899512 1_555
O3 Sr0 2.594475 1_555
O3 Sr1 3.039292 1_555
O4 Sr1 2.611365 1_555
O4 Sr0 3.157050 1_556
O5 Sr1 2.944412 1_555
O6 Sr0 2.611365 1_555
O6 Sr1 3.157050 1_554
O7 Sr0 2.944412 1_555
O8 Sr0 2.613859 1_555
O9 Sr0 2.558445 1_555
O10 Sr1 2.613859 1_555
O11 Sr1 2.558445 1_555
