# generated using pymatgen
data_Ho4MgRh
_symmetry_space_group_name_H-M   'P 1'
_cell_length_a   9.62354694
_cell_length_b   9.62351863
_cell_length_c   9.62354107
_cell_angle_alpha   59.99924362
_cell_angle_beta   59.99933596
_cell_angle_gamma   59.99923580
_symmetry_Int_Tables_number   1
_chemical_formula_structural   Ho4MgRh
_chemical_formula_sum   'Ho16 Mg4 Rh4'
_cell_volume   630.20493023
_cell_formula_units_Z   4
loop_
 _symmetry_equiv_pos_site_id
 _symmetry_equiv_pos_as_xyz
  1  'x, y, z'
loop_
 _atom_site_type_symbol
 _atom_site_label
 _atom_site_symmetry_multiplicity
 _atom_site_fract_x
 _atom_site_fract_y
 _atom_site_fract_z
 _atom_site_occupancy
  Ho  Ho0  1  0.81269758  0.18730410  0.18730209  1
  Ho  Ho1  1  0.18730273  0.81269657  0.81269656  1
  Ho  Ho2  1  0.18730329  0.81269670  0.18730396  1
  Ho  Ho3  1  0.81269728  0.18730356  0.81269763  1
  Ho  Ho4  1  0.18730200  0.18730490  0.81269712  1
  Ho  Ho5  1  0.81269700  0.81269651  0.18730309  1
  Ho  Ho6  1  0.93552990  0.56447105  0.56447415  1
  Ho  Ho7  1  0.56447515  0.93552545  0.93552898  1
  Ho  Ho8  1  0.56447433  0.93552633  0.56447310  1
  Ho  Ho9  1  0.93552879  0.56447164  0.93552653  1
  Ho  Ho10  1  0.56447529  0.56447073  0.93552824  1
  Ho  Ho11  1  0.93552994  0.93552422  0.56447447  1
  Ho  Ho12  1  0.34634113  0.34634664  0.34634305  1
  Ho  Ho13  1  0.34634113  0.34634693  0.96096749  1
  Ho  Ho14  1  0.34634147  0.96096933  0.34634382  1
  Ho  Ho15  1  0.96096747  0.34634589  0.34634267  1
  Mg  Mg0  1  0.57923715  0.57923454  0.57923653  1
  Mg  Mg1  1  0.57921904  0.57921674  0.26232862  1
  Mg  Mg2  1  0.57921896  0.26232705  0.57921915  1
  Mg  Mg3  1  0.26232961  0.57921660  0.57921879  1
  Rh  Rh0  1  0.14172667  0.14173120  0.14172613  1
  Rh  Rh1  1  0.14172598  0.14173083  0.57481463  1
  Rh  Rh2  1  0.14172693  0.57481649  0.14172796  1
  Rh  Rh3  1  0.57481318  0.14173000  0.14172725  1
loop_
_geom_bond_atom_site_label_1
_geom_bond_atom_site_label_2
_geom_bond_distance
_geom_bond_site_symmetry_2
Ho0 Rh0 2.797458 1_655
Ho0 Rh3 2.797515 1_555
Ho0 Mg1 3.524344 1_555
Ho0 Mg2 3.524376 1_555
Ho0 Ho10 3.615812 1_554
Ho0 Ho9 3.615840 1_554
Ho0 Ho8 3.615856 1_545
Ho0 Ho11 3.615889 1_545
Ho1 Rh2 2.797448 1_556
Ho1 Rh1 2.797467 1_565
Ho1 Mg0 3.524360 1_555
Ho1 Mg3 3.524528 1_555
Ho1 Ho11 3.615850 1_455
Ho1 Ho9 3.615872 1_455
Ho1 Ho8 3.615876 1_555
Ho1 Ho10 3.615889 1_555
Ho2 Rh0 2.797481 1_565
Ho2 Rh2 2.797491 1_555
Ho2 Mg3 3.524368 1_555
Ho2 Mg1 3.524370 1_555
Ho2 Ho6 3.615844 1_455
Ho2 Ho7 3.615873 1_554
Ho3 Rh1 2.797446 1_655
Ho3 Rh3 2.797454 1_556
Ho3 Mg0 3.524335 1_555
Ho3 Mg2 3.524539 1_555
Ho3 Ho6 3.615847 1_555
Ho3 Ho7 3.615879 1_545
Ho4 Rh0 2.797455 1_556
Ho4 Rh1 2.797503 1_555
Ho4 Mg3 3.524342 1_555
Ho4 Mg2 3.524374 1_555
Ho4 Ho6 3.615805 1_455
Ho4 Ho9 3.615824 1_455
Ho4 Ho8 3.615867 1_545
Ho4 Ho7 3.615894 1_545
Ho5 Rh2 2.797439 1_655
Ho5 Rh3 2.797468 1_565
Ho5 Mg0 3.524355 1_555
Ho5 Mg1 3.524535 1_555
Ho5 Ho7 3.615854 1_554
Ho5 Ho8 3.615861 1_555
Ho5 Ho6 3.615881 1_555
Ho5 Ho9 3.615885 1_554
Ho6 Mg0 3.292861 1_555
Ho6 Mg3 3.292996 1_655
Ho6 Rh1 3.495397 1_655
Ho6 Rh2 3.495446 1_655
Ho6 Ho8 3.570823 1_555
Ho6 Ho9 3.570835 1_555
Ho7 Mg1 3.293047 1_556
Ho7 Mg2 3.293062 1_565
Ho7 Rh0 3.495451 1_566
Ho7 Rh3 3.495454 1_566
Ho7 Ho9 3.570806 1_555
Ho7 Ho8 3.570871 1_555
Ho8 Mg0 3.292839 1_555
Ho8 Mg2 3.292999 1_565
Ho8 Rh3 3.495457 1_565
Ho8 Rh1 3.495472 1_565
Ho9 Mg3 3.293057 1_655
Ho9 Mg1 3.293073 1_556
Ho9 Rh0 3.495381 1_656
Ho9 Rh2 3.495470 1_656
Ho10 Mg0 3.292850 1_555
Ho10 Mg1 3.292998 1_556
Ho10 Rh3 3.495408 1_556
Ho10 Rh2 3.495465 1_556
Ho10 Ho12 3.500186 1_556
Ho10 Ho13 3.500251 1_555
Ho10 Ho8 3.570822 1_555
Ho10 Ho6 3.570822 1_555
Ho10 Ho9 3.570847 1_555
Ho10 Ho7 3.570855 1_555
Ho10 Ho3 3.615834 1_555
Ho10 Ho2 3.615862 1_556
Ho11 Mg3 3.293042 1_655
Ho11 Mg2 3.293075 1_565
Ho11 Rh0 3.495452 1_665
Ho11 Rh1 3.495466 1_665
Ho11 Ho14 3.500181 1_655
Ho11 Ho15 3.500228 1_565
Ho11 Ho9 3.570792 1_555
Ho11 Ho7 3.570825 1_555
Ho11 Ho6 3.570839 1_555
Ho11 Ho8 3.570868 1_555
Ho11 Ho2 3.615854 1_655
Ho11 Ho3 3.615891 1_565
Ho12 Rh2 2.794178 1_555
Ho12 Rh1 2.794192 1_555
Ho12 Rh3 2.794201 1_555
Ho12 Mg3 3.478072 1_555
Ho12 Mg1 3.478081 1_555
Ho12 Mg2 3.478111 1_555
Ho12 Ho6 3.500159 1_455
Ho12 Ho8 3.500221 1_545
Ho13 Rh2 2.794185 1_556
Ho13 Rh0 2.794194 1_556
Ho13 Rh3 2.794200 1_556
Ho13 Mg3 3.478166 1_555
Ho13 Mg0 3.478183 1_555
Ho13 Mg2 3.478201 1_555
Ho13 Ho9 3.500171 1_455
Ho13 Ho7 3.500230 1_545
Ho14 Rh1 2.794203 1_565
Ho14 Rh3 2.794205 1_565
Ho14 Rh0 2.794207 1_565
Ho14 Mg3 3.478195 1_555
Ho14 Mg1 3.478207 1_555
Ho14 Mg0 3.478211 1_555
Ho14 Ho7 3.500203 1_554
Ho14 Ho8 3.500269 1_555
Ho15 Rh2 2.794188 1_655
Ho15 Rh1 2.794191 1_655
Ho15 Rh0 2.794199 1_655
Ho15 Mg0 3.478175 1_555
Ho15 Mg1 3.478176 1_555
Ho15 Mg2 3.478200 1_555
Ho15 Ho9 3.500193 1_554
Ho15 Ho6 3.500247 1_555
Mg0 Mg2 3.049936 1_555
Mg0 Mg3 3.049946 1_555
Mg0 Mg1 3.049949 1_555
Mg1 Mg2 3.049567 1_555
Mg1 Mg3 3.049572 1_555
Mg2 Mg3 3.049561 1_555
