# generated using pymatgen
data_Na2Mo(HO2)2
_symmetry_space_group_name_H-M   'P 1'
_cell_length_a   8.70057400
_cell_length_b   10.53860300
_cell_length_c   13.91023700
_cell_angle_alpha   90.00000000
_cell_angle_beta   90.00000000
_cell_angle_gamma   90.00000000
_symmetry_Int_Tables_number   1
_chemical_formula_structural   Na2Mo(HO2)2
_chemical_formula_sum   'Na16 Mo8 H16 O32'
_cell_volume   1275.45599402
_cell_formula_units_Z   8
loop_
 _symmetry_equiv_pos_site_id
 _symmetry_equiv_pos_as_xyz
  1  'x, y, z'
loop_
 _atom_site_type_symbol
 _atom_site_label
 _atom_site_symmetry_multiplicity
 _atom_site_fract_x
 _atom_site_fract_y
 _atom_site_fract_z
 _atom_site_occupancy
  Na  Na0  1  0.16646700  0.00368500  0.43257600  1
  Na  Na1  1  0.83353300  0.99631500  0.56742400  1
  Na  Na2  1  0.33353300  0.99631500  0.93257600  1
  Na  Na3  1  0.83353300  0.50368500  0.06742400  1
  Na  Na4  1  0.66646700  0.00368500  0.06742400  1
  Na  Na5  1  0.16646700  0.49631500  0.93257600  1
  Na  Na6  1  0.66646700  0.49631500  0.56742400  1
  Na  Na7  1  0.33353300  0.50368500  0.43257600  1
  Na  Na8  1  0.25198500  0.44373200  0.13802900  1
  Na  Na9  1  0.74801500  0.55626800  0.86197100  1
  Na  Na10  1  0.24801500  0.55626800  0.63802900  1
  Na  Na11  1  0.74801500  0.94373200  0.36197100  1
  Na  Na12  1  0.75198500  0.44373200  0.36197100  1
  Na  Na13  1  0.25198500  0.05626800  0.63802900  1
  Na  Na14  1  0.75198500  0.05626800  0.86197100  1
  Na  Na15  1  0.24801500  0.94373200  0.13802900  1
  Mo  Mo0  1  0.00829100  0.20129800  0.02492900  1
  Mo  Mo1  1  0.99170900  0.79870200  0.97507100  1
  Mo  Mo2  1  0.49170900  0.79870200  0.52492900  1
  Mo  Mo3  1  0.99170900  0.70129800  0.47507100  1
  Mo  Mo4  1  0.50829100  0.20129800  0.47507100  1
  Mo  Mo5  1  0.00829100  0.29870200  0.52492900  1
  Mo  Mo6  1  0.50829100  0.29870200  0.97507100  1
  Mo  Mo7  1  0.49170900  0.70129800  0.02492900  1
  H  H0  1  0.22309100  0.34674000  0.30198200  1
  H  H1  1  0.77690900  0.65326000  0.69801800  1
  H  H2  1  0.27690900  0.65326000  0.80198200  1
  H  H3  1  0.77690900  0.84674000  0.19801800  1
  H  H4  1  0.72309100  0.34674000  0.19801800  1
  H  H5  1  0.22309100  0.15326000  0.80198200  1
  H  H6  1  0.72309100  0.15326000  0.69801800  1
  H  H7  1  0.27690900  0.84674000  0.30198200  1
  H  H8  1  0.46467800  0.10084100  0.20402100  1
  H  H9  1  0.53532200  0.89915900  0.79597900  1
  H  H10  1  0.03532200  0.89915900  0.70402100  1
  H  H11  1  0.53532200  0.60084100  0.29597900  1
  H  H12  1  0.96467800  0.10084100  0.29597900  1
  H  H13  1  0.46467800  0.39915900  0.70402100  1
  H  H14  1  0.96467800  0.39915900  0.79597900  1
  H  H15  1  0.03532200  0.60084100  0.20402100  1
  O  O0  1  0.45030600  0.31663600  0.09765200  1
  O  O1  1  0.54969400  0.68336400  0.90234800  1
  O  O2  1  0.04969400  0.68336400  0.59765200  1
  O  O3  1  0.54969400  0.81663600  0.40234800  1
  O  O4  1  0.95030600  0.31663600  0.40234800  1
  O  O5  1  0.45030600  0.18336400  0.59765200  1
  O  O6  1  0.95030600  0.18336400  0.90234800  1
  O  O7  1  0.04969400  0.81663600  0.09765200  1
  O  O8  1  0.18043400  0.10913200  0.04199400  1
  O  O9  1  0.81956600  0.89086800  0.95800600  1
  O  O10  1  0.31956600  0.89086800  0.54199400  1
  O  O11  1  0.81956600  0.60913200  0.45800600  1
  O  O12  1  0.68043400  0.10913200  0.45800600  1
  O  O13  1  0.18043400  0.39086800  0.54199400  1
  O  O14  1  0.68043400  0.39086800  0.95800600  1
  O  O15  1  0.31956600  0.60913200  0.04199400  1
  O  O16  1  0.04664800  0.36903100  0.05090600  1
  O  O17  1  0.95335200  0.63096900  0.94909400  1
  O  O18  1  0.45335200  0.63096900  0.55090600  1
  O  O19  1  0.95335200  0.86903100  0.44909400  1
  O  O20  1  0.54664800  0.36903100  0.44909400  1
  O  O21  1  0.04664800  0.13096900  0.55090600  1
  O  O22  1  0.54664800  0.13096900  0.94909400  1
  O  O23  1  0.45335200  0.86903100  0.05090600  1
  O  O24  1  0.36198500  0.14549700  0.39523900  1
  O  O25  1  0.63801500  0.85450300  0.60476100  1
  O  O26  1  0.13801500  0.85450300  0.89523900  1
  O  O27  1  0.63801500  0.64549700  0.10476100  1
  O  O28  1  0.86198500  0.14549700  0.10476100  1
  O  O29  1  0.36198500  0.35450300  0.89523900  1
  O  O30  1  0.86198500  0.35450300  0.60476100  1
  O  O31  1  0.13801500  0.64549700  0.39523900  1
loop_
_geom_bond_atom_site_label_1
_geom_bond_atom_site_label_2
_geom_bond_distance
_geom_bond_site_symmetry_2
Na0 O24 2.323161 1_555
Na0 O10 2.346166 1_545
Na0 O19 2.346206 1_445
Na0 O21 2.365470 1_555
Na1 O25 2.323161 1_555
Na1 O12 2.346166 1_565
Na1 O21 2.346206 1_665
Na1 O19 2.365470 1_555
Na2 O26 2.323161 1_555
Na2 O8 2.346166 1_566
Na2 O22 2.346206 1_565
Na2 O23 2.365470 1_556
Na3 O27 2.323161 1_555
Na3 O14 2.346166 1_554
Na3 O16 2.346206 1_655
Na3 O17 2.365470 1_554
Na4 O28 2.323161 1_555
Na4 O9 2.346166 1_544
Na4 O23 2.346206 1_545
Na4 O22 2.365470 1_554
Na5 O29 2.323161 1_555
Na5 O15 2.346166 1_556
Na5 O17 2.346206 1_455
Na5 O16 2.365470 1_556
Na6 O30 2.323161 1_555
Na6 O11 2.346166 1_555
Na6 O18 2.346206 1_555
Na6 O20 2.365470 1_555
Na7 O31 2.323161 1_555
Na7 O13 2.346166 1_555
Na7 O20 2.346206 1_555
Na7 O18 2.365470 1_555
Na8 O0 2.255406 1_555
Na8 O15 2.273462 1_555
Na8 O16 2.297873 1_555
Na9 O1 2.255406 1_555
Na9 O14 2.273462 1_555
Na9 O17 2.297873 1_555
Na10 O2 2.255406 1_555
Na10 O13 2.273462 1_555
Na10 O18 2.297873 1_555
Na11 O3 2.255406 1_555
Na11 O12 2.273462 1_565
Na11 O19 2.297873 1_555
Na12 O4 2.255406 1_555
Na12 O11 2.273462 1_555
Na12 O20 2.297873 1_555
Na13 O5 2.255406 1_555
Na13 O10 2.273462 1_545
Na13 O21 2.297873 1_555
Na14 O6 2.255406 1_555
Na14 O9 2.273462 1_545
Na14 O22 2.297873 1_555
Na15 O7 2.255406 1_555
Na15 O8 2.273462 1_565
Na15 O23 2.297873 1_555
Mo0 O6 1.788216 1_454
Mo0 O28 1.788682 1_455
Mo0 O8 1.800835 1_555
Mo0 O16 1.834832 1_555
Mo1 O7 1.788216 1_656
Mo1 O26 1.788682 1_655
Mo1 O9 1.800835 1_555
Mo1 O17 1.834832 1_555
Mo2 O3 1.788216 1_555
Mo2 O25 1.788682 1_555
Mo2 O10 1.800835 1_555
Mo2 O18 1.834832 1_555
Mo3 O2 1.788216 1_655
Mo3 O31 1.788682 1_655
Mo3 O11 1.800835 1_555
Mo3 O19 1.834832 1_555
Mo4 O5 1.788216 1_555
Mo4 O24 1.788682 1_555
Mo4 O12 1.800835 1_555
Mo4 O20 1.834832 1_555
Mo5 O4 1.788216 1_455
Mo5 O30 1.788682 1_455
Mo5 O13 1.800835 1_555
Mo5 O21 1.834832 1_555
Mo6 O0 1.788216 1_556
Mo6 O29 1.788682 1_555
Mo6 O14 1.800835 1_555
Mo6 O22 1.834832 1_555
Mo7 O1 1.788216 1_554
Mo7 O27 1.788682 1_555
Mo7 O15 1.800835 1_555
Mo7 O23 1.834832 1_555
H0 Na8 2.511824 1_555
H0 Na7 2.637994 1_555
H1 Na9 2.511824 1_555
H1 Na6 2.637994 1_555
H2 Na10 2.511824 1_555
H2 Na5 2.637994 1_555
H3 Na11 2.511824 1_555
H3 Na4 2.637994 1_565
H4 Na12 2.511824 1_555
H4 Na3 2.637994 1_555
H5 Na13 2.511824 1_555
H5 Na2 2.637994 1_545
H6 Na14 2.511824 1_555
H6 Na1 2.637994 1_545
H7 Na15 2.511824 1_555
H7 Na0 2.637994 1_565
H8 Na15 2.671630 1_545
H9 Na14 2.671630 1_565
H10 Na13 2.671630 1_565
H11 Na12 2.671630 1_555
H12 Na11 2.671630 1_545
H13 Na10 2.671630 1_555
H14 Na9 2.671630 1_555
H15 Na8 2.671630 1_555
