# generated using pymatgen
data_Al2Re3B
_symmetry_space_group_name_H-M   'P 1'
_cell_length_a   7.60617087
_cell_length_b   7.60617087
_cell_length_c   7.60617087
_cell_angle_alpha   60.00000000
_cell_angle_beta   60.00000000
_cell_angle_gamma   60.00000000
_symmetry_Int_Tables_number   1
_chemical_formula_structural   Al2Re3B
_chemical_formula_sum   'Al8 Re12 B4'
_cell_volume   311.15962133
_cell_formula_units_Z   4
loop_
 _symmetry_equiv_pos_site_id
 _symmetry_equiv_pos_as_xyz
  1  'x, y, z'
loop_
 _atom_site_type_symbol
 _atom_site_label
 _atom_site_symmetry_multiplicity
 _atom_site_fract_x
 _atom_site_fract_y
 _atom_site_fract_z
 _atom_site_occupancy
  Al  Al0  1  0.91413700  0.91413700  0.25758800  1
  Al  Al1  1  0.33586300  0.33586300  0.33586300  1
  Al  Al2  1  0.25758800  0.91413700  0.91413700  1
  Al  Al3  1  0.33586300  0.99241200  0.33586300  1
  Al  Al4  1  0.99241200  0.33586300  0.33586300  1
  Al  Al5  1  0.33586300  0.33586300  0.99241200  1
  Al  Al6  1  0.91413700  0.91413700  0.91413700  1
  Al  Al7  1  0.91413700  0.25758800  0.91413700  1
  Re  Re0  1  0.69175900  0.69175900  0.30824100  1
  Re  Re1  1  0.30824100  0.69175900  0.30824100  1
  Re  Re2  1  0.55824100  0.94175900  0.55824100  1
  Re  Re3  1  0.55824100  0.94175900  0.94175900  1
  Re  Re4  1  0.94175900  0.55824100  0.55824100  1
  Re  Re5  1  0.94175900  0.55824100  0.94175900  1
  Re  Re6  1  0.30824100  0.30824100  0.69175900  1
  Re  Re7  1  0.55824100  0.55824100  0.94175900  1
  Re  Re8  1  0.30824100  0.69175900  0.69175900  1
  Re  Re9  1  0.69175900  0.30824100  0.30824100  1
  Re  Re10  1  0.94175900  0.94175900  0.55824100  1
  Re  Re11  1  0.69175900  0.30824100  0.69175900  1
  B  B0  1  0.12500000  0.12500000  0.12500000  1
  B  B1  1  0.12500000  0.12500000  0.62500000  1
  B  B2  1  0.62500000  0.12500000  0.12500000  1
  B  B3  1  0.12500000  0.62500000  0.12500000  1
loop_
_geom_bond_atom_site_label_1
_geom_bond_atom_site_label_2
_geom_bond_distance
_geom_bond_site_symmetry_2
Al0 B2 2.345032 1_565
Al0 B3 2.345032 1_655
Al0 B0 2.345038 1_665
Al0 Re4 2.514527 1_555
Al0 Re2 2.514527 1_555
Al0 Re10 2.514532 1_555
Al0 Al2 2.612347 1_654
Al0 Al7 2.612347 1_564
Al0 Al6 2.612347 1_554
Al0 Re0 2.725445 1_555
Al0 Re9 2.725452 1_565
Al0 Re1 2.725452 1_655
Al1 B3 2.345036 1_555
Al1 B2 2.345036 1_555
Al1 B1 2.345036 1_555
Al1 Re1 2.514524 1_555
Al1 Re6 2.514524 1_555
Al1 Re9 2.514524 1_555
Al1 Al3 2.612347 1_545
Al1 Al4 2.612347 1_455
Al1 Al5 2.612347 1_554
Al1 Re4 2.725449 1_455
Al1 Re7 2.725449 1_554
Al1 Re2 2.725449 1_545
Al2 B1 2.345032 1_565
Al2 B3 2.345032 1_556
Al2 B0 2.345038 1_566
Al2 Re7 2.514527 1_555
Al2 Re2 2.514527 1_555
Al2 Re3 2.514532 1_555
Al2 Al7 2.612347 1_465
Al2 Al6 2.612347 1_455
Al2 Re8 2.725445 1_555
Al2 Re1 2.725452 1_556
Al2 Re6 2.725452 1_565
Al3 B1 2.345032 1_565
Al3 B2 2.345032 1_565
Al3 B0 2.345038 1_565
Al3 Re8 2.514527 1_555
Al3 Re0 2.514527 1_555
Al3 Re1 2.514532 1_555
Al3 Al4 2.612347 1_465
Al3 Al5 2.612347 1_564
Al3 Re2 2.725445 1_555
Al3 Re3 2.725452 1_554
Al3 Re10 2.725452 1_455
Al4 B3 2.345032 1_655
Al4 B1 2.345032 1_655
Al4 B0 2.345038 1_655
Al4 Re0 2.514527 1_555
Al4 Re11 2.514527 1_555
Al4 Re9 2.514532 1_555
Al4 Al5 2.612347 1_654
Al4 Re4 2.725445 1_555
Al4 Re5 2.725452 1_554
Al4 Re10 2.725452 1_545
Al5 B2 2.345032 1_556
Al5 B3 2.345032 1_556
Al5 B0 2.345038 1_556
Al5 Re8 2.514527 1_555
Al5 Re11 2.514527 1_555
Al5 Re6 2.514532 1_555
Al5 Re7 2.725445 1_555
Al5 Re3 2.725452 1_545
Al5 Re5 2.725452 1_455
Al6 B3 2.345036 1_656
Al6 B1 2.345036 1_665
Al6 B2 2.345036 1_566
Al6 Re5 2.514524 1_555
Al6 Re10 2.514524 1_555
Al6 Re3 2.514524 1_555
Al6 Al7 2.612347 1_565
Al6 Re0 2.725449 1_556
Al6 Re8 2.725449 1_655
Al6 Re11 2.725449 1_565
Al7 B1 2.345032 1_655
Al7 B2 2.345032 1_556
Al7 B0 2.345038 1_656
Al7 Re7 2.514527 1_555
Al7 Re4 2.514527 1_555
Al7 Re5 2.514532 1_555
Al7 Re11 2.725445 1_555
Al7 Re9 2.725452 1_556
Al7 Re6 2.725452 1_655
Re0 Re3 2.831377 1_554
Re0 Re4 2.831377 1_555
Re0 Re5 2.831377 1_554
Re0 Re2 2.831377 1_555
Re0 Re1 2.917103 1_555
Re0 Re8 2.917103 1_555
Re0 Re9 2.917103 1_555
Re0 Re11 2.917103 1_555
Re1 Re3 2.831377 1_554
Re1 Re10 2.831377 1_455
Re1 Re7 2.831377 1_554
Re1 Re4 2.831377 1_455
Re1 Re6 2.917103 1_555
Re1 Re8 2.917103 1_555
Re1 Re9 2.917103 1_555
Re2 Re6 2.831377 1_565
Re2 Re9 2.831377 1_565
Re2 Re8 2.831377 1_555
Re2 Re3 2.917103 1_555
Re2 Re7 2.917103 1_555
Re2 Re4 2.917103 1_555
Re3 Re6 2.831377 1_565
Re3 Re5 2.917103 1_555
Re3 Re7 2.917103 1_555
Re4 Re6 2.831377 1_655
Re4 Re5 2.917103 1_555
Re4 Re7 2.917103 1_555
Re5 Re9 2.831377 1_556
Re5 Re6 2.831377 1_655
Re5 Re8 2.831377 1_655
Re5 Re7 2.917103 1_555
Re6 Re8 2.917103 1_555
Re6 Re9 2.917103 1_555
Re7 Re9 2.831377 1_556
Re7 Re8 2.831377 1_555
Re10 Re11 2.831377 1_565
Re10 Re8 2.831377 1_655
Re10 Re9 2.831377 1_565
Re10 Re2 2.917103 1_555
Re10 Re5 2.917103 1_555
Re10 Re4 2.917103 1_555
Re10 Re3 2.917103 1_555
Re11 Re7 2.831377 1_555
Re11 Re4 2.831377 1_555
Re11 Re3 2.831377 1_545
Re11 Re6 2.917103 1_555
Re11 Re8 2.917103 1_555
Re11 Re9 2.917103 1_555
B0 Re3 2.738797 1_544
B0 Re5 2.738797 1_454
B0 Re1 2.738797 1_545
B0 Re9 2.738797 1_455
B0 Re10 2.738797 1_445
B0 Re6 2.738797 1_554
B1 Re11 2.738797 1_455
B1 Re10 2.738797 1_445
B1 Re6 2.738797 1_555
B1 Re2 2.738797 1_545
B1 Re4 2.738797 1_455
B1 Re8 2.738797 1_545
B2 Re0 2.738797 1_545
B2 Re7 2.738797 1_554
B2 Re9 2.738797 1_555
B2 Re2 2.738797 1_545
B2 Re3 2.738797 1_544
B2 Re11 2.738797 1_554
B3 Re0 2.738797 1_455
B3 Re7 2.738797 1_554
B3 Re4 2.738797 1_455
B3 Re8 2.738797 1_554
B3 Re1 2.738797 1_555
B3 Re5 2.738797 1_454
