# generated using pymatgen
data_NdNiB4
_symmetry_space_group_name_H-M   'P 1'
_cell_length_a   6.93786704
_cell_length_b   6.93786704
_cell_length_c   6.93786704
_cell_angle_alpha   112.81241293
_cell_angle_beta   112.81241293
_cell_angle_gamma   102.97755914
_symmetry_Int_Tables_number   1
_chemical_formula_structural   NdNiB4
_chemical_formula_sum   'Nd4 Ni4 B16'
_cell_volume   254.63482006
_cell_formula_units_Z   4
loop_
 _symmetry_equiv_pos_site_id
 _symmetry_equiv_pos_as_xyz
  1  'x, y, z'
loop_
 _atom_site_type_symbol
 _atom_site_label
 _atom_site_symmetry_multiplicity
 _atom_site_fract_x
 _atom_site_fract_y
 _atom_site_fract_z
 _atom_site_occupancy
  Nd  Nd0  1  0.79506000  0.79506000  0.00000000  1
  Nd  Nd1  1  0.20494000  0.20494000  0.00000000  1
  Nd  Nd2  1  0.75000000  0.25000000  0.50000000  1
  Nd  Nd3  1  0.25000000  0.75000000  0.50000000  1
  Ni  Ni0  1  0.27205300  0.50000000  0.77205300  1
  Ni  Ni1  1  0.72794700  0.50000000  0.22794700  1
  Ni  Ni2  1  0.50000000  0.72794700  0.22794700  1
  Ni  Ni3  1  0.50000000  0.27205300  0.77205300  1
  B  B0  1  0.27562500  0.11243000  0.38805500  1
  B  B1  1  0.72437500  0.88757000  0.61194500  1
  B  B2  1  0.27562500  0.88757000  0.16319500  1
  B  B3  1  0.72437500  0.11243000  0.83680500  1
  B  B4  1  0.11243000  0.72437500  0.83680500  1
  B  B5  1  0.88757000  0.27562500  0.16319500  1
  B  B6  1  0.11243000  0.27562500  0.38805500  1
  B  B7  1  0.88757000  0.72437500  0.61194500  1
  B  B8  1  0.11312300  0.11312300  0.52948900  1
  B  B9  1  0.58363400  0.58363400  0.47051100  1
  B  B10  1  0.11312300  0.58363400  0.00000000  1
  B  B11  1  0.58363400  0.11312300  0.00000000  1
  B  B12  1  0.88687700  0.88687700  0.47051100  1
  B  B13  1  0.41636600  0.41636600  0.52948900  1
  B  B14  1  0.88687800  0.41636600  0.00000000  1
  B  B15  1  0.41636600  0.88687800  0.00000000  1
loop_
_geom_bond_atom_site_label_1
_geom_bond_atom_site_label_2
_geom_bond_distance
_geom_bond_site_symmetry_2
Nd0 Ni3 3.092196 1_554
Nd0 Ni2 3.092196 1_555
Nd0 Ni1 3.092196 1_555
Nd0 Ni0 3.092196 1_554
Nd1 Ni3 3.092196 1_554
Nd1 Ni1 3.092196 1_555
Nd1 Ni0 3.092196 1_554
Nd1 Ni2 3.092196 1_555
Nd2 Ni1 3.004687 1_555
Nd2 Ni3 3.004687 1_555
Nd2 Ni2 3.004687 1_545
Nd2 Ni0 3.004687 1_655
Nd3 Ni1 3.004687 1_455
Nd3 Ni2 3.004687 1_555
Nd3 Ni0 3.004687 1_555
Nd3 Ni3 3.004687 1_565
Ni0 Ni2 2.474951 1_556
Ni0 Ni3 2.474951 1_555
Ni1 Ni3 2.474951 1_554
Ni1 Ni2 2.474951 1_555
B0 B2 1.726354 1_545
B0 B8 1.758000 1_555
B0 B13 1.758000 1_555
B0 B6 1.771901 1_555
B0 Ni3 2.114073 1_555
B0 Nd1 2.891064 1_555
B0 Nd0 2.891064 1_445
B0 Nd2 2.894495 1_555
B0 Nd3 2.894495 1_545
B1 B3 1.726354 1_565
B1 B12 1.758000 1_555
B1 B9 1.758000 1_555
B1 B7 1.771901 1_555
B1 Ni2 2.114073 1_555
B1 Nd0 2.891064 1_556
B1 Nd1 2.891064 1_666
B1 Nd2 2.894495 1_565
B1 Nd3 2.894495 1_555
B2 B4 1.771901 1_554
B2 Ni2 2.114073 1_555
B2 Nd0 2.891064 1_455
B2 Nd1 2.891064 1_565
B2 Nd2 2.894495 1_565
B2 Nd3 2.894495 1_555
B3 B5 1.771901 1_556
B3 Ni3 2.114073 1_555
B3 Nd0 2.891064 1_546
B3 Nd1 2.891064 1_656
B3 Nd3 2.894495 1_545
B3 Nd2 2.894495 1_555
B4 B7 1.726354 1_455
B4 Ni0 2.114073 1_555
B4 Nd0 2.891064 1_456
B4 Nd1 2.891064 1_566
B4 Nd3 2.894495 1_555
B4 Nd2 2.894495 1_455
B5 B6 1.726354 1_655
B5 Ni1 2.114073 1_555
B5 Nd0 2.891064 1_545
B5 Nd1 2.891064 1_655
B5 Nd3 2.894495 1_655
B5 Nd2 2.894495 1_555
B6 B8 1.758000 1_555
B6 Ni0 2.114073 1_555
B6 Nd1 2.891064 1_555
B6 Nd0 2.891064 1_445
B6 Nd3 2.894495 1_555
B6 Nd2 2.894495 1_455
B7 B9 1.758000 1_555
B7 Ni1 2.114073 1_555
B7 Nd0 2.891064 1_556
B7 Nd1 2.891064 1_666
B7 Nd3 2.894495 1_655
B7 Nd2 2.894495 1_555
B8 Ni0 2.231927 1_555
B8 Ni3 2.231927 1_555
B8 Nd1 2.839074 1_556
B8 Nd3 2.848866 1_545
B8 Nd2 2.848866 1_455
B8 Nd0 2.911162 1_445
B9 Ni2 2.231927 1_555
B9 Ni1 2.231927 1_555
B9 Nd1 2.839074 1_555
B9 Nd3 2.848866 1_555
B9 Nd2 2.848866 1_555
B9 Nd0 2.911162 1_556
B10 B14 1.729859 1_455
B10 B2 1.758000 1_555
B10 B4 1.758000 1_554
B10 Ni0 2.231927 1_554
B10 Ni2 2.231927 1_555
B10 Nd1 2.839074 1_555
B10 Nd3 2.848866 1_555
B10 Nd2 2.848866 1_454
B10 Nd0 2.911162 1_455
B11 B15 1.729859 1_545
B11 B5 1.758000 1_555
B11 B3 1.758000 1_554
B11 Ni3 2.231927 1_554
B11 Ni1 2.231927 1_555
B11 Nd1 2.839074 1_555
B11 Nd2 2.848866 1_555
B11 Nd3 2.848866 1_544
B11 Nd0 2.911162 1_545
B12 B8 1.729864 1_665
B12 B7 1.758000 1_555
B12 Ni2 2.231927 1_555
B12 Ni1 2.231927 1_555
B12 Nd0 2.839074 1_555
B12 Nd3 2.848866 1_655
B12 Nd2 2.848866 1_565
B12 Nd1 2.911162 1_666
B13 B9 1.729864 1_555
B13 B6 1.758000 1_555
B13 Ni0 2.231927 1_555
B13 Ni3 2.231927 1_555
B13 Nd0 2.839074 1_556
B13 Nd3 2.848866 1_555
B13 Nd2 2.848866 1_555
B13 Nd1 2.911162 1_555
B14 B3 1.758001 1_554
B14 B5 1.758001 1_555
B14 Ni3 2.231932 1_554
B14 Ni1 2.231932 1_555
B14 Nd0 2.839077 1_555
B14 Nd2 2.848864 1_554
B14 Nd3 2.848864 1_655
B14 Nd1 2.911156 1_655
B15 B4 1.758001 1_554
B15 B2 1.758001 1_555
B15 Ni0 2.231932 1_554
B15 Ni2 2.231932 1_555
B15 Nd0 2.839077 1_555
B15 Nd3 2.848864 1_554
B15 Nd2 2.848864 1_565
B15 Nd1 2.911156 1_565
