# generated using pymatgen
data_CoSnN
_symmetry_space_group_name_H-M   'P 1'
_cell_length_a   6.10142800
_cell_length_b   6.09176948
_cell_length_c   23.54925400
_cell_angle_alpha   90.00000000
_cell_angle_beta   90.00000000
_cell_angle_gamma   120.05246190
_symmetry_Int_Tables_number   1
_chemical_formula_structural   CoSnN
_chemical_formula_sum   'Co16 Sn16 N16'
_cell_volume   757.62257771
_cell_formula_units_Z   16
loop_
 _symmetry_equiv_pos_site_id
 _symmetry_equiv_pos_as_xyz
  1  'x, y, z'
loop_
 _atom_site_type_symbol
 _atom_site_label
 _atom_site_symmetry_multiplicity
 _atom_site_fract_x
 _atom_site_fract_y
 _atom_site_fract_z
 _atom_site_occupancy
  Co  Co0_0  1  0.33184450  0.16368850  0.36519000  1
  Co  Co0_1  1  0.33184450  0.16368850  0.86519000  1
  Co  Co0_2  1  0.33184450  0.66368850  0.36519000  1
  Co  Co0_3  1  0.33184450  0.66368850  0.86519000  1
  Co  Co0_4  1  0.83184450  0.16368850  0.36519000  1
  Co  Co0_5  1  0.83184450  0.16368850  0.86519000  1
  Co  Co0_6  1  0.83184450  0.66368850  0.36519000  1
  Co  Co0_7  1  0.83184450  0.66368850  0.86519000  1
  Co  Co1_0  1  0.16815550  0.33631150  0.11519000  1
  Co  Co1_1  1  0.16815550  0.33631150  0.61519000  1
  Co  Co1_2  1  0.16815550  0.83631150  0.11519000  1
  Co  Co1_3  1  0.16815550  0.83631150  0.61519000  1
  Co  Co1_4  1  0.66815550  0.33631150  0.11519000  1
  Co  Co1_5  1  0.66815550  0.33631150  0.61519000  1
  Co  Co1_6  1  0.66815550  0.83631150  0.11519000  1
  Co  Co1_7  1  0.66815550  0.83631150  0.61519000  1
  Sn  Sn0_0  1  0.49936500  0.49873000  0.21351200  1
  Sn  Sn0_1  1  0.49936500  0.49873000  0.71351200  1
  Sn  Sn0_2  1  0.49936500  0.99873000  0.21351200  1
  Sn  Sn0_3  1  0.49936500  0.99873000  0.71351200  1
  Sn  Sn0_4  1  0.99936500  0.49873000  0.21351200  1
  Sn  Sn0_5  1  0.99936500  0.49873000  0.71351200  1
  Sn  Sn0_6  1  0.99936500  0.99873000  0.21351200  1
  Sn  Sn0_7  1  0.99936500  0.99873000  0.71351200  1
  Sn  Sn1_0  1  0.00063500  0.00127000  0.46351200  1
  Sn  Sn1_1  1  0.00063500  0.00127000  0.96351200  1
  Sn  Sn1_2  1  0.00063500  0.50127000  0.46351200  1
  Sn  Sn1_3  1  0.00063500  0.50127000  0.96351200  1
  Sn  Sn1_4  1  0.50063500  0.00127000  0.46351200  1
  Sn  Sn1_5  1  0.50063500  0.00127000  0.96351200  1
  Sn  Sn1_6  1  0.50063500  0.50127000  0.46351200  1
  Sn  Sn1_7  1  0.50063500  0.50127000  0.96351200  1
  N  N0_0  1  0.16486550  0.32973150  0.34361800  1
  N  N0_1  1  0.16486550  0.32973150  0.84361800  1
  N  N0_2  1  0.16486550  0.82973150  0.34361800  1
  N  N0_3  1  0.16486550  0.82973150  0.84361800  1
  N  N0_4  1  0.66486550  0.32973150  0.34361800  1
  N  N0_5  1  0.66486550  0.32973150  0.84361800  1
  N  N0_6  1  0.66486550  0.82973150  0.34361800  1
  N  N0_7  1  0.66486550  0.82973150  0.84361800  1
  N  N1_0  1  0.33513450  0.17026850  0.09361800  1
  N  N1_1  1  0.33513450  0.17026850  0.59361800  1
  N  N1_2  1  0.33513450  0.67026850  0.09361800  1
  N  N1_3  1  0.33513450  0.67026850  0.59361800  1
  N  N1_4  1  0.83513450  0.17026850  0.09361800  1
  N  N1_5  1  0.83513450  0.17026850  0.59361800  1
  N  N1_6  1  0.83513450  0.67026850  0.09361800  1
  N  N1_7  1  0.83513450  0.67026850  0.59361800  1
loop_
_geom_bond_atom_site_label_1
_geom_bond_atom_site_label_2
_geom_bond_distance
_geom_bond_site_symmetry_2
Co0_0 N0_4 1.830657 1_555
Co0_0 N0_0 1.830662 1_555
Co0_0 N0_2 1.832714 1_545
Co0_0 Sn1_4 2.901941 1_555
Co0_0 Sn1_0 2.901943 1_555
Co0_0 Sn1_6 2.920542 1_555
Co0_1 N0_5 1.830657 1_555
Co0_1 N0_1 1.830662 1_555
Co0_1 N0_3 1.832714 1_545
Co0_1 Sn1_5 2.901941 1_555
Co0_1 Sn1_1 2.901943 1_555
Co0_1 Sn1_7 2.920542 1_555
Co0_2 N0_6 1.830657 1_555
Co0_2 N0_2 1.830662 1_555
Co0_2 N0_0 1.832714 1_555
Co0_2 Sn1_6 2.901941 1_555
Co0_2 Sn1_2 2.901943 1_555
Co0_2 Sn1_4 2.920542 1_565
Co0_3 N0_7 1.830657 1_555
Co0_3 N0_3 1.830662 1_555
Co0_3 N0_1 1.832714 1_555
Co0_3 Sn1_7 2.901941 1_555
Co0_3 Sn1_3 2.901943 1_555
Co0_3 Sn1_5 2.920542 1_565
Co0_4 N0_0 1.830657 1_655
Co0_4 N0_4 1.830662 1_555
Co0_4 N0_6 1.832714 1_545
Co0_4 Sn1_0 2.901941 1_655
Co0_4 Sn1_4 2.901943 1_555
Co0_4 Sn1_2 2.920542 1_655
Co0_5 N0_1 1.830657 1_655
Co0_5 N0_5 1.830662 1_555
Co0_5 N0_7 1.832714 1_545
Co0_5 Sn1_1 2.901941 1_655
Co0_5 Sn1_5 2.901943 1_555
Co0_5 Sn1_3 2.920542 1_655
Co0_6 N0_2 1.830657 1_655
Co0_6 N0_6 1.830662 1_555
Co0_6 N0_4 1.832714 1_555
Co0_6 Sn1_2 2.901941 1_655
Co0_6 Sn1_6 2.901943 1_555
Co0_6 Sn1_0 2.920542 1_665
Co0_7 N0_3 1.830657 1_655
Co0_7 N0_7 1.830662 1_555
Co0_7 N0_5 1.832714 1_555
Co0_7 Sn1_3 2.901941 1_655
Co0_7 Sn1_7 2.901943 1_555
Co0_7 Sn1_1 2.920542 1_665
Co1_0 N1_4 1.830657 1_455
Co1_0 N1_0 1.830662 1_555
Co1_0 N1_2 1.832714 1_555
Co1_0 Sn0_4 2.901941 1_455
Co1_0 Sn0_0 2.901943 1_555
Co1_0 Sn0_6 2.920542 1_445
Co1_1 N1_5 1.830657 1_455
Co1_1 N1_1 1.830662 1_555
Co1_1 N1_3 1.832714 1_555
Co1_1 Sn0_5 2.901941 1_455
Co1_1 Sn0_1 2.901943 1_555
Co1_1 Sn0_7 2.920542 1_445
Co1_2 N1_6 1.830657 1_455
Co1_2 N1_2 1.830662 1_555
Co1_2 N1_0 1.832714 1_565
Co1_2 Sn0_6 2.901941 1_455
Co1_2 Sn0_2 2.901943 1_555
Co1_2 Sn0_4 2.920542 1_455
Co1_3 N1_7 1.830657 1_455
Co1_3 N1_3 1.830662 1_555
Co1_3 N1_1 1.832714 1_565
Co1_3 Sn0_7 2.901941 1_455
Co1_3 Sn0_3 2.901943 1_555
Co1_3 Sn0_5 2.920542 1_455
Co1_4 N1_0 1.830657 1_555
Co1_4 N1_4 1.830662 1_555
Co1_4 N1_6 1.832714 1_555
Co1_4 Sn0_0 2.901941 1_555
Co1_4 Sn0_4 2.901943 1_555
Co1_4 Sn0_2 2.920542 1_545
Co1_5 N1_1 1.830657 1_555
Co1_5 N1_5 1.830662 1_555
Co1_5 N1_7 1.832714 1_555
Co1_5 Sn0_1 2.901941 1_555
Co1_5 Sn0_5 2.901943 1_555
Co1_5 Sn0_3 2.920542 1_545
Co1_6 N1_2 1.830657 1_555
Co1_6 N1_6 1.830662 1_555
Co1_6 N1_4 1.832714 1_565
Co1_6 Sn0_2 2.901941 1_555
Co1_6 Sn0_6 2.901943 1_555
Co1_6 Sn0_0 2.920542 1_555
Co1_7 N1_3 1.830657 1_555
Co1_7 N1_7 1.830662 1_555
Co1_7 N1_5 1.832714 1_565
Co1_7 Sn0_3 2.901941 1_555
Co1_7 Sn0_7 2.901943 1_555
Co1_7 Sn0_1 2.920542 1_555
Sn0_0 Sn0_2 3.045885 1_555
Sn0_0 Sn0_2 3.045885 1_545
Sn0_0 Sn0_6 3.045885 1_445
Sn0_0 Sn0_6 3.045885 1_555
Sn0_0 Sn0_4 3.050714 1_555
Sn0_0 Sn0_4 3.050714 1_455
Sn0_1 Sn0_3 3.045885 1_555
Sn0_1 Sn0_7 3.045885 1_555
Sn0_1 Sn0_3 3.045885 1_545
Sn0_1 Sn0_7 3.045885 1_445
Sn0_1 Sn0_5 3.050714 1_555
Sn0_1 Sn0_5 3.050714 1_455
Sn0_2 Sn0_4 3.045885 1_455
Sn0_2 Sn0_4 3.045885 1_565
Sn0_2 Sn0_6 3.050714 1_555
Sn0_2 Sn0_6 3.050714 1_455
Sn0_3 Sn0_5 3.045885 1_455
Sn0_3 Sn0_5 3.045885 1_565
Sn0_3 Sn0_7 3.050714 1_455
Sn0_3 Sn0_7 3.050714 1_555
Sn0_4 Sn0_6 3.045885 1_555
Sn0_4 Sn0_6 3.045885 1_545
Sn0_5 Sn0_7 3.045885 1_555
Sn0_5 Sn0_7 3.045885 1_545
Sn1_0 Sn1_2 3.045885 1_545
Sn1_0 Sn1_2 3.045885 1_555
Sn1_0 Sn1_6 3.045885 1_555
Sn1_0 Sn1_6 3.045885 1_445
Sn1_0 Sn1_4 3.050714 1_455
Sn1_0 Sn1_4 3.050714 1_555
Sn1_1 Sn1_3 3.045885 1_555
Sn1_1 Sn1_3 3.045885 1_545
Sn1_1 Sn1_7 3.045885 1_555
Sn1_1 Sn1_7 3.045885 1_445
Sn1_1 Sn1_5 3.050714 1_455
Sn1_1 Sn1_5 3.050714 1_555
Sn1_2 Sn1_4 3.045885 1_455
Sn1_2 Sn1_4 3.045885 1_565
Sn1_2 Sn1_6 3.050714 1_555
Sn1_2 Sn1_6 3.050714 1_455
Sn1_3 Sn1_5 3.045885 1_455
Sn1_3 Sn1_5 3.045885 1_565
Sn1_3 Sn1_7 3.050714 1_555
Sn1_3 Sn1_7 3.050714 1_455
Sn1_4 Sn1_6 3.045885 1_545
Sn1_4 Sn1_6 3.045885 1_555
Sn1_5 Sn1_7 3.045885 1_545
Sn1_5 Sn1_7 3.045885 1_555
