# generated using pymatgen
data_Mg(BrO6)2
_symmetry_space_group_name_H-M   'P 1'
_cell_length_a   9.76869889
_cell_length_b   9.76869889
_cell_length_c   9.76869889
_cell_angle_alpha   90.00000000
_cell_angle_beta   90.00000000
_cell_angle_gamma   90.00000000
_symmetry_Int_Tables_number   1
_chemical_formula_structural   Mg(BrO6)2
_chemical_formula_sum   'Mg4 Br8 O48'
_cell_volume   932.20229845
_cell_formula_units_Z   4
loop_
 _symmetry_equiv_pos_site_id
 _symmetry_equiv_pos_as_xyz
  1  'x, y, z'
loop_
 _atom_site_type_symbol
 _atom_site_label
 _atom_site_symmetry_multiplicity
 _atom_site_fract_x
 _atom_site_fract_y
 _atom_site_fract_z
 _atom_site_occupancy
  Mg  Mg0  1  -0.00000000  -0.00000000  -0.00000000  1
  Mg  Mg1  1  0.50000000  -0.00000000  0.50000000  1
  Mg  Mg2  1  -0.00000000  0.50000000  0.50000000  1
  Mg  Mg3  1  0.50000000  0.50000000  -0.00000000  1
  Br  Br0  1  0.26071491  0.26071491  0.26071491  1
  Br  Br1  1  0.73928509  0.73928509  0.73928509  1
  Br  Br2  1  0.23928509  0.73928509  0.76071491  1
  Br  Br3  1  0.73928509  0.76071491  0.23928509  1
  Br  Br4  1  0.76071491  0.26071491  0.23928509  1
  Br  Br5  1  0.26071491  0.23928509  0.76071491  1
  Br  Br6  1  0.76071491  0.23928509  0.73928509  1
  Br  Br7  1  0.23928509  0.76071491  0.26071491  1
  O  O0  1  0.12328975  0.33714002  0.18047903  1
  O  O1  1  0.87671025  0.66285998  0.81952097  1
  O  O2  1  0.37671025  0.66285998  0.68047903  1
  O  O3  1  0.87671025  0.83714002  0.31952097  1
  O  O4  1  0.18047903  0.12328975  0.33714002  1
  O  O5  1  0.62328975  0.33714002  0.31952097  1
  O  O6  1  0.12328975  0.16285998  0.68047903  1
  O  O7  1  0.81952097  0.87671025  0.66285998  1
  O  O8  1  0.62328975  0.16285998  0.81952097  1
  O  O9  1  0.68047903  0.37671025  0.66285998  1
  O  O10  1  0.37671025  0.83714002  0.18047903  1
  O  O11  1  0.31952097  0.62328975  0.33714002  1
  O  O12  1  0.31952097  0.87671025  0.83714002  1
  O  O13  1  0.68047903  0.12328975  0.16285998  1
  O  O14  1  0.81952097  0.62328975  0.16285998  1
  O  O15  1  0.18047903  0.37671025  0.83714002  1
  O  O16  1  0.33714002  0.18047903  0.12328975  1
  O  O17  1  0.66285998  0.81952097  0.87671025  1
  O  O18  1  0.83714002  0.31952097  0.87671025  1
  O  O19  1  0.16285998  0.68047903  0.12328975  1
  O  O20  1  0.16285998  0.81952097  0.62328975  1
  O  O21  1  0.83714002  0.18047903  0.37671025  1
  O  O22  1  0.66285998  0.68047903  0.37671025  1
  O  O23  1  0.33714002  0.31952097  0.62328975  1
  O  O24  1  0.19256756  0.45931153  0.42935043  1
  O  O25  1  0.80743244  0.54068847  0.57064957  1
  O  O26  1  0.30743244  0.54068847  0.92935043  1
  O  O27  1  0.80743244  0.95931153  0.07064957  1
  O  O28  1  0.42935043  0.19256756  0.45931153  1
  O  O29  1  0.69256756  0.45931153  0.07064957  1
  O  O30  1  0.19256756  0.04068847  0.92935043  1
  O  O31  1  0.57064957  0.80743244  0.54068847  1
  O  O32  1  0.69256756  0.04068847  0.57064957  1
  O  O33  1  0.92935043  0.30743244  0.54068847  1
  O  O34  1  0.30743244  0.95931153  0.42935043  1
  O  O35  1  0.07064957  0.69256756  0.45931153  1
  O  O36  1  0.07064957  0.80743244  0.95931153  1
  O  O37  1  0.92935043  0.19256756  0.04068847  1
  O  O38  1  0.57064957  0.69256756  0.04068847  1
  O  O39  1  0.42935043  0.30743244  0.95931153  1
  O  O40  1  0.45931153  0.42935043  0.19256756  1
  O  O41  1  0.54068847  0.57064957  0.80743244  1
  O  O42  1  0.95931153  0.07064957  0.80743244  1
  O  O43  1  0.04068847  0.92935043  0.19256756  1
  O  O44  1  0.04068847  0.57064957  0.69256756  1
  O  O45  1  0.95931153  0.42935043  0.30743244  1
  O  O46  1  0.54068847  0.92935043  0.30743244  1
  O  O47  1  0.45931153  0.07064957  0.69256756  1
loop_
_geom_bond_atom_site_label_1
_geom_bond_atom_site_label_2
_geom_bond_distance
_geom_bond_site_symmetry_2
Mg0 O36 2.042784 1_544
Mg0 O42 2.042784 1_454
Mg0 O43 2.042784 1_545
Mg0 O30 2.042784 1_554
Mg0 O37 2.042784 1_455
Mg0 O27 2.042784 1_445
Mg1 O46 2.042784 1_545
Mg1 O28 2.042784 1_555
Mg1 O31 2.042784 1_545
Mg1 O34 2.042784 1_545
Mg1 O32 2.042784 1_555
Mg1 O47 2.042784 1_555
Mg2 O33 2.042784 1_455
Mg2 O45 2.042784 1_455
Mg2 O35 2.042784 1_555
Mg2 O44 2.042784 1_555
Mg2 O24 2.042784 1_555
Mg2 O25 2.042784 1_455
Mg3 O26 2.042784 1_554
Mg3 O29 2.042784 1_555
Mg3 O39 2.042784 1_554
Mg3 O40 2.042784 1_555
Mg3 O41 2.042784 1_554
Mg3 O38 2.042784 1_555
Br0 O16 1.724508 1_555
Br0 O0 1.724508 1_555
Br0 O4 1.724508 1_555
Br1 O7 1.724508 1_555
Br1 O17 1.724508 1_555
Br1 O1 1.724508 1_555
Br2 O12 1.724508 1_555
Br2 O2 1.724508 1_555
Br2 O20 1.724508 1_555
Br3 O22 1.724508 1_555
Br3 O3 1.724508 1_555
Br3 O14 1.724508 1_555
Br4 O21 1.724508 1_555
Br4 O5 1.724508 1_555
Br4 O13 1.724508 1_555
Br5 O23 1.724508 1_555
Br5 O6 1.724508 1_555
Br5 O15 1.724508 1_555
Br6 O18 1.724508 1_555
Br6 O9 1.724508 1_555
Br6 O8 1.724508 1_555
Br7 O10 1.724508 1_555
Br7 O11 1.724508 1_555
Br7 O19 1.724508 1_555
