# generated using pymatgen
data_Ca(PIr)2
_symmetry_space_group_name_H-M   'P 1'
_cell_length_a   6.62417628
_cell_length_b   6.62417711
_cell_length_c   7.06827117
_cell_angle_alpha   90.00000000
_cell_angle_beta   90.00000000
_cell_angle_gamma   119.99999088
_symmetry_Int_Tables_number   1
_chemical_formula_structural   Ca(PIr)2
_chemical_formula_sum   'Ca3 P6 Ir6'
_cell_volume   268.60104054
_cell_formula_units_Z   3
loop_
 _symmetry_equiv_pos_site_id
 _symmetry_equiv_pos_as_xyz
  1  'x, y, z'
loop_
 _atom_site_type_symbol
 _atom_site_label
 _atom_site_symmetry_multiplicity
 _atom_site_fract_x
 _atom_site_fract_y
 _atom_site_fract_z
 _atom_site_occupancy
  Ca  Ca0  1  0.39515296  0.39515296  0.50000000  1
  Ca  Ca1  1  0.60484704  -0.00000000  0.16666700  1
  Ca  Ca2  1  -0.00000000  0.60484704  0.83333300  1
  P  P0  1  0.88334816  0.22323909  0.54318924  1
  P  P1  1  0.22323909  0.88334816  0.45681076  1
  P  P2  1  0.11665184  0.33989193  0.12347776  1
  P  P3  1  0.77676091  0.66010807  0.20985524  1
  P  P4  1  0.33989193  0.11665184  0.87652224  1
  P  P5  1  0.66010807  0.77676091  0.79014476  1
  Ir  Ir0  1  0.86367437  0.86367437  0.50000000  1
  Ir  Ir1  1  0.13632563  -0.00000000  0.16666700  1
  Ir  Ir2  1  0.48618517  0.48618517  -0.00000000  1
  Ir  Ir3  1  -0.00000000  0.51381483  0.33333300  1
  Ir  Ir4  1  0.51381483  -0.00000000  0.66666700  1
  Ir  Ir5  1  -0.00000000  0.13632563  0.83333300  1
loop_
_geom_bond_atom_site_label_1
_geom_bond_atom_site_label_2
_geom_bond_distance
_geom_bond_site_symmetry_2
Ca0 P0 3.003872 1_455
Ca0 P1 3.003873 1_545
Ca0 P3 3.039673 1_555
Ca0 P5 3.039674 1_555
Ca0 Ir0 3.103569 1_555
Ca0 P2 3.153563 1_555
Ca0 P4 3.153563 1_555
Ca0 Ir5 3.294617 1_555
Ca0 Ir1 3.294617 1_555
Ca0 Ir3 3.303754 1_555
Ca0 Ir4 3.303754 1_555
Ca1 P2 3.003874 1_655
Ca1 P3 3.003878 1_545
Ca1 P1 3.039670 1_545
Ca1 P4 3.039670 1_554
Ca1 Ir1 3.103568 1_555
Ca1 P5 3.153560 1_544
Ca1 P0 3.153562 1_555
Ca1 Ir0 3.294617 1_545
Ca1 Ir5 3.294622 1_654
Ca1 Ir3 3.303752 1_655
Ca1 Ir2 3.303754 1_545
Ca2 P4 3.003874 1_565
Ca2 P5 3.003878 1_455
Ca2 P2 3.039670 1_556
Ca2 P0 3.039670 1_455
Ca2 Ir5 3.103569 1_555
Ca2 P3 3.153559 1_456
Ca2 P1 3.153562 1_555
Ca2 Ir0 3.294617 1_455
Ca2 Ir1 3.294622 1_566
Ca2 Ir4 3.303751 1_565
Ca2 Ir2 3.303754 1_456
Ir0 P1 2.339410 1_655
Ir0 P0 2.339410 1_565
Ir0 P5 2.362060 1_555
Ir0 P3 2.362060 1_555
Ir1 P3 2.339412 1_445
Ir1 P2 2.339416 1_555
Ir1 P1 2.362051 1_545
Ir1 P4 2.362060 1_554
Ir2 P3 2.239400 1_555
Ir2 P5 2.239400 1_554
Ir2 P2 2.306660 1_555
Ir2 P4 2.306660 1_554
Ir3 P2 2.239396 1_555
Ir3 P0 2.239406 1_455
Ir3 P3 2.306654 1_455
Ir3 P1 2.306659 1_555
Ir4 P4 2.239396 1_555
Ir4 P1 2.239405 1_545
Ir4 P5 2.306654 1_545
Ir4 P0 2.306659 1_555
Ir5 P5 2.339412 1_445
Ir5 P4 2.339416 1_555
Ir5 P0 2.362051 1_455
Ir5 P2 2.362060 1_556
