# generated using pymatgen
data_V2FeGe
_symmetry_space_group_name_H-M   'P 1'
_cell_length_a   4.63664290
_cell_length_b   4.63664290
_cell_length_c   4.58279260
_cell_angle_alpha   90.00000000
_cell_angle_beta   90.00000000
_cell_angle_gamma   90.07352821
_symmetry_Int_Tables_number   1
_chemical_formula_structural   V2FeGe
_chemical_formula_sum   'V4 Fe2 Ge2'
_cell_volume   98.52289018
_cell_formula_units_Z   2
loop_
 _symmetry_equiv_pos_site_id
 _symmetry_equiv_pos_as_xyz
  1  'x, y, z'
loop_
 _atom_site_type_symbol
 _atom_site_label
 _atom_site_symmetry_multiplicity
 _atom_site_fract_x
 _atom_site_fract_y
 _atom_site_fract_z
 _atom_site_occupancy
  V  V0  1  0.49668293  0.49668293  0.50000000  1
  V  V1  1  0.23925677  0.00721805  0.75000000  1
  V  V2  1  0.00721805  0.23925677  0.25000000  1
  V  V3  1  0.49668293  0.49668293  0.00000000  1
  Fe  Fe0  1  0.74855786  0.00695359  0.75000000  1
  Fe  Fe1  1  0.00695359  0.74855786  0.25000000  1
  Ge  Ge0  1  0.51046944  0.99417843  0.25000000  1
  Ge  Ge1  1  0.99417843  0.51046944  0.75000000  1
loop_
_geom_bond_atom_site_label_1
_geom_bond_atom_site_label_2
_geom_bond_distance
_geom_bond_site_symmetry_2
V0 V3 2.291396 1_555
V0 V3 2.291396 1_556
V0 V1 2.807285 1_555
V0 V2 2.807285 1_555
V0 V1 2.889296 1_565
V0 V2 2.889296 1_655
V1 V3 2.807285 1_556
V1 V3 2.889296 1_546
V2 V3 2.807285 1_555
V2 V3 2.889296 1_455
Fe0 V1 2.275194 1_655
Fe0 V1 2.361449 1_555
Fe0 Ge0 2.544111 1_545
Fe0 Ge0 2.544111 1_546
Fe0 Ge1 2.569633 1_545
Fe0 Ge1 2.596273 1_555
Fe0 V3 2.799892 1_556
Fe0 V0 2.799892 1_555
Fe0 V2 2.801017 1_656
Fe0 V2 2.801017 1_655
Fe0 Fe1 2.850441 1_646
Fe0 Fe1 2.850441 1_645
Fe0 V3 2.875257 1_546
Fe0 V0 2.875257 1_545
Fe1 V2 2.275194 1_565
Fe1 V2 2.361449 1_555
Fe1 Ge1 2.544111 1_455
Fe1 Ge1 2.544111 1_454
Fe1 Ge0 2.569633 1_455
Fe1 Ge0 2.596273 1_555
Fe1 V0 2.799892 1_555
Fe1 V3 2.799892 1_555
Fe1 V1 2.801017 1_564
Fe1 V1 2.801017 1_565
Fe1 V0 2.875257 1_455
Fe1 V3 2.875257 1_455
Ge0 V2 2.567001 1_665
Ge0 V0 2.576284 1_555
Ge0 V3 2.576284 1_555
Ge0 V2 2.596694 1_565
Ge0 V0 2.597246 1_565
Ge0 V3 2.597246 1_565
Ge0 V1 2.614516 1_564
Ge0 V1 2.614516 1_565
Ge1 V1 2.567001 1_665
Ge1 V0 2.576284 1_555
Ge1 V3 2.576284 1_556
Ge1 V1 2.596694 1_655
Ge1 V0 2.597246 1_655
Ge1 V3 2.597246 1_656
Ge1 V2 2.614516 1_655
Ge1 V2 2.614516 1_656
