# generated using pymatgen
data_Ca6Cd32Cu
_symmetry_space_group_name_H-M   'P 1'
_cell_length_a   9.73038500
_cell_length_b   9.73038500
_cell_length_c   9.73038500
_cell_angle_alpha   90.00000000
_cell_angle_beta   90.00000000
_cell_angle_gamma   90.00000000
_symmetry_Int_Tables_number   1
_chemical_formula_structural   Ca6Cd32Cu
_chemical_formula_sum   'Ca6 Cd32 Cu1'
_cell_volume   921.27666853
_cell_formula_units_Z   1
loop_
 _symmetry_equiv_pos_site_id
 _symmetry_equiv_pos_as_xyz
  1  'x, y, z'
loop_
 _atom_site_type_symbol
 _atom_site_label
 _atom_site_symmetry_multiplicity
 _atom_site_fract_x
 _atom_site_fract_y
 _atom_site_fract_z
 _atom_site_occupancy
  Ca  Ca0  1  0.20340300  0.00000000  0.50000000  1
  Ca  Ca1  1  0.79659700  0.00000000  0.50000000  1
  Ca  Ca2  1  0.50000000  0.20340300  0.00000000  1
  Ca  Ca3  1  0.50000000  0.79659700  0.00000000  1
  Ca  Ca4  1  0.00000000  0.50000000  0.20340300  1
  Ca  Ca5  1  0.00000000  0.50000000  0.79659700  1
  Cd  Cd0  1  0.32146500  0.50000000  0.00000000  1
  Cd  Cd1  1  0.67853500  0.50000000  0.00000000  1
  Cd  Cd2  1  0.00000000  0.32146500  0.50000000  1
  Cd  Cd3  1  0.00000000  0.67853500  0.50000000  1
  Cd  Cd4  1  0.50000000  0.00000000  0.32146500  1
  Cd  Cd5  1  0.50000000  0.00000000  0.67853500  1
  Cd  Cd6  1  0.28077200  0.28077200  0.28077200  1
  Cd  Cd7  1  0.71922800  0.71922800  0.71922800  1
  Cd  Cd8  1  0.71922800  0.71922800  0.28077200  1
  Cd  Cd9  1  0.71922800  0.28077200  0.71922800  1
  Cd  Cd10  1  0.28077200  0.28077200  0.71922800  1
  Cd  Cd11  1  0.28077200  0.71922800  0.28077200  1
  Cd  Cd12  1  0.28077200  0.71922800  0.71922800  1
  Cd  Cd13  1  0.71922800  0.28077200  0.28077200  1
  Cd  Cd14  1  0.25745900  0.50000000  0.50000000  1
  Cd  Cd15  1  0.74254100  0.50000000  0.50000000  1
  Cd  Cd16  1  0.50000000  0.25745900  0.50000000  1
  Cd  Cd17  1  0.50000000  0.74254100  0.50000000  1
  Cd  Cd18  1  0.50000000  0.50000000  0.25745900  1
  Cd  Cd19  1  0.50000000  0.50000000  0.74254100  1
  Cd  Cd20  1  0.00000000  0.14944300  0.25844600  1
  Cd  Cd21  1  0.00000000  0.85055700  0.74155400  1
  Cd  Cd22  1  0.00000000  0.85055700  0.25844600  1
  Cd  Cd23  1  0.00000000  0.14944300  0.74155400  1
  Cd  Cd24  1  0.25844600  0.00000000  0.14944300  1
  Cd  Cd25  1  0.74155400  0.00000000  0.85055700  1
  Cd  Cd26  1  0.25844600  0.00000000  0.85055700  1
  Cd  Cd27  1  0.74155400  0.00000000  0.14944300  1
  Cd  Cd28  1  0.14944300  0.25844600  0.00000000  1
  Cd  Cd29  1  0.85055700  0.74155400  0.00000000  1
  Cd  Cd30  1  0.14944300  0.74155400  0.00000000  1
  Cd  Cd31  1  0.85055700  0.25844600  0.00000000  1
  Cu  Cu0  1  0.00000000  0.00000000  0.00000000  1
loop_
_geom_bond_atom_site_label_1
_geom_bond_atom_site_label_2
_geom_bond_distance
_geom_bond_site_symmetry_2
Ca0 Cd5 3.368520 1_555
Ca0 Cd4 3.368520 1_555
Ca0 Cd21 3.399434 1_545
Ca0 Cd23 3.399434 1_555
Ca0 Cd20 3.399434 1_555
Ca0 Cd22 3.399434 1_545
Ca0 Cd26 3.452847 1_555
Ca0 Cd24 3.452847 1_555
Ca0 Cd12 3.546986 1_545
Ca0 Cd10 3.546986 1_555
Ca0 Cd6 3.546986 1_555
Ca0 Cd11 3.546986 1_545
Ca0 Cd2 3.701545 1_555
Ca0 Cd3 3.701545 1_545
Ca0 Cd17 3.821638 1_545
Ca0 Cd16 3.821638 1_555
Ca1 Cd5 3.368520 1_555
Ca1 Cd4 3.368520 1_555
Ca1 Cd20 3.399434 1_655
Ca1 Cd22 3.399434 1_645
Ca1 Cd21 3.399434 1_645
Ca1 Cd23 3.399434 1_655
Ca1 Cd27 3.452847 1_555
Ca1 Cd25 3.452847 1_555
Ca1 Cd7 3.546986 1_545
Ca1 Cd9 3.546986 1_555
Ca1 Cd8 3.546986 1_545
Ca1 Cd13 3.546986 1_555
Ca1 Cd2 3.701545 1_655
Ca1 Cd3 3.701545 1_645
Ca1 Cd17 3.821638 1_545
Ca1 Cd16 3.821638 1_555
Ca2 Cd0 3.368520 1_555
Ca2 Cd1 3.368520 1_555
Ca2 Cd25 3.399434 1_554
Ca2 Cd24 3.399434 1_555
Ca2 Cd26 3.399434 1_554
Ca2 Cd27 3.399434 1_555
Ca2 Cd31 3.452847 1_555
Ca2 Cd28 3.452847 1_555
Ca2 Cd9 3.546986 1_554
Ca2 Cd6 3.546986 1_555
Ca2 Cd10 3.546986 1_554
Ca2 Cd13 3.546986 1_555
Ca2 Cd4 3.701545 1_555
Ca2 Cd5 3.701545 1_554
Ca2 Cd18 3.821638 1_555
Ca2 Cd19 3.821638 1_554
Ca3 Cd0 3.368520 1_555
Ca3 Cd1 3.368520 1_555
Ca3 Cd26 3.399434 1_564
Ca3 Cd24 3.399434 1_565
Ca3 Cd25 3.399434 1_564
Ca3 Cd27 3.399434 1_565
Ca3 Cd30 3.452847 1_555
Ca3 Cd29 3.452847 1_555
Ca3 Cd11 3.546986 1_555
Ca3 Cd8 3.546986 1_555
Ca3 Cd12 3.546986 1_554
Ca3 Cd7 3.546986 1_554
Ca3 Cd5 3.701545 1_564
Ca3 Cd4 3.701545 1_565
Ca3 Cd18 3.821638 1_555
Ca3 Cd19 3.821638 1_554
Ca4 Cd2 3.368520 1_555
Ca4 Cd3 3.368520 1_555
Ca4 Cd29 3.399434 1_455
Ca4 Cd30 3.399434 1_555
Ca4 Cd31 3.399434 1_455
Ca4 Cd28 3.399434 1_555
Ca4 Cd20 3.452847 1_555
Ca4 Cd22 3.452847 1_555
Ca4 Cd11 3.546986 1_555
Ca4 Cd13 3.546986 1_455
Ca4 Cd6 3.546986 1_555
Ca4 Cd8 3.546986 1_455
Ca4 Cd1 3.701545 1_455
Ca4 Cd0 3.701545 1_555
Ca4 Cd14 3.821638 1_555
Ca4 Cd15 3.821638 1_455
Ca5 Cd2 3.368520 1_555
Ca5 Cd3 3.368520 1_555
Ca5 Cd28 3.399434 1_556
Ca5 Cd31 3.399434 1_456
Ca5 Cd30 3.399434 1_556
Ca5 Cd29 3.399434 1_456
Ca5 Cd21 3.452847 1_555
Ca5 Cd23 3.452847 1_555
Ca5 Cd9 3.546986 1_455
Ca5 Cd10 3.546986 1_555
Ca5 Cd7 3.546986 1_455
Ca5 Cd12 3.546986 1_555
Ca5 Cd0 3.701545 1_556
Ca5 Cd1 3.701545 1_456
Ca5 Cd15 3.821638 1_455
Ca5 Cd14 3.821638 1_555
Cd0 Cd28 2.885513 1_555
Cd0 Cd30 2.885513 1_555
Cd0 Cd19 3.048576 1_554
Cd0 Cd18 3.048576 1_555
Cd1 Cd31 2.885513 1_555
Cd1 Cd29 2.885513 1_555
Cd1 Cd19 3.048576 1_554
Cd1 Cd18 3.048576 1_555
Cd2 Cd23 2.885513 1_555
Cd2 Cd20 2.885513 1_555
Cd10 Cd28 3.023922 1_556
Cd10 Cd26 3.023922 1_555
Cd10 Cd23 3.023922 1_555
Cd10 Cd16 3.025279 1_555
Cd10 Cd14 3.025279 1_555
Cd10 Cd19 3.025279 1_555
Cd11 Cd30 3.023922 1_555
Cd11 Cd22 3.023922 1_555
Cd11 Cd24 3.023922 1_565
Cd11 Cd14 3.025279 1_555
Cd11 Cd17 3.025279 1_555
Cd11 Cd18 3.025279 1_555
Cd12 Cd21 3.023922 1_555
Cd12 Cd30 3.023922 1_556
Cd12 Cd26 3.023922 1_565
Cd12 Cd14 3.025279 1_555
Cd12 Cd17 3.025279 1_555
Cd12 Cd19 3.025279 1_555
Cd13 Cd27 3.023922 1_555
Cd13 Cd31 3.023922 1_555
Cd13 Cd20 3.023922 1_655
Cd13 Cd15 3.025279 1_555
Cd13 Cd16 3.025279 1_555
Cd13 Cd18 3.025279 1_555
Cd14 Cd6 3.025279 1_555
Cd14 Cd3 3.048576 1_555
Cd14 Cd2 3.048576 1_555
Cd14 Cd17 3.337568 1_555
Cd14 Cd18 3.337568 1_555
Cd14 Cd19 3.337568 1_555
Cd14 Cd16 3.337568 1_555
Cd15 Cd9 3.025279 1_555
Cd15 Cd7 3.025279 1_555
Cd15 Cd8 3.025279 1_555
Cd15 Cd2 3.048576 1_655
Cd15 Cd3 3.048576 1_655
Cd15 Cd17 3.337568 1_555
Cd15 Cd18 3.337568 1_555
Cd15 Cd19 3.337568 1_555
Cd15 Cd16 3.337568 1_555
Cd16 Cd6 3.025279 1_555
Cd16 Cd9 3.025279 1_555
Cd16 Cd5 3.048576 1_555
Cd16 Cd4 3.048576 1_555
Cd16 Cd18 3.337568 1_555
Cd16 Cd19 3.337568 1_555
Cd17 Cd7 3.025279 1_555
Cd17 Cd8 3.025279 1_555
Cd17 Cd4 3.048576 1_565
Cd17 Cd5 3.048576 1_565
Cd17 Cd18 3.337568 1_555
Cd17 Cd19 3.337568 1_555
Cd18 Cd8 3.025279 1_555
Cd18 Cd6 3.025279 1_555
Cd19 Cd9 3.025279 1_555
Cd19 Cd7 3.025279 1_555
Cd20 Cu0 2.904932 1_555
Cd20 Cd22 2.908276 1_545
Cd20 Cd6 3.023922 1_555
Cd20 Cd31 3.092506 1_455
Cd20 Cd24 3.092506 1_555
Cd20 Cd28 3.092506 1_555
Cd20 Cd27 3.092506 1_455
Cd21 Cd3 2.885513 1_555
Cd21 Cu0 2.904932 1_566
Cd21 Cd23 2.908276 1_565
Cd21 Cd7 3.023922 1_455
Cd21 Cd30 3.092506 1_556
Cd21 Cd29 3.092506 1_456
Cd21 Cd25 3.092506 1_465
Cd21 Cd26 3.092506 1_565
Cd22 Cd3 2.885513 1_555
Cd22 Cu0 2.904932 1_565
Cd22 Cd8 3.023922 1_455
Cd22 Cd27 3.092506 1_465
Cd22 Cd30 3.092506 1_555
Cd22 Cd29 3.092506 1_455
Cd22 Cd24 3.092506 1_565
Cd23 Cu0 2.904932 1_556
Cd23 Cd9 3.023922 1_455
Cd23 Cd25 3.092506 1_455
Cd23 Cd28 3.092506 1_556
Cd23 Cd31 3.092506 1_456
Cd23 Cd26 3.092506 1_555
Cd24 Cd4 2.885513 1_555
Cd24 Cu0 2.904932 1_555
Cd24 Cd26 2.908276 1_554
Cd24 Cd6 3.023922 1_555
Cd24 Cd28 3.092506 1_555
Cd24 Cd30 3.092506 1_545
Cd25 Cd5 2.885513 1_555
Cd25 Cu0 2.904932 1_656
Cd25 Cd27 2.908276 1_556
Cd25 Cd7 3.023922 1_545
Cd25 Cd9 3.023922 1_555
Cd25 Cd29 3.092506 1_546
Cd25 Cd31 3.092506 1_556
Cd26 Cd5 2.885513 1_555
Cd26 Cu0 2.904932 1_556
Cd26 Cd28 3.092506 1_556
Cd26 Cd30 3.092506 1_546
Cd27 Cd4 2.885513 1_555
Cd27 Cu0 2.904932 1_655
Cd27 Cd8 3.023922 1_545
Cd27 Cd29 3.092506 1_545
Cd27 Cd31 3.092506 1_555
Cd28 Cu0 2.904932 1_555
Cd28 Cd31 2.908276 1_455
Cd28 Cd6 3.023922 1_555
Cd29 Cu0 2.904932 1_665
Cd29 Cd30 2.908276 1_655
Cd29 Cd8 3.023922 1_555
Cd29 Cd7 3.023922 1_554
Cd30 Cu0 2.904932 1_565
Cd31 Cu0 2.904932 1_655
Cd31 Cd9 3.023922 1_554
