# generated using pymatgen
data_La7SmMn4(FeO6)4
_symmetry_space_group_name_H-M   'P 1'
_cell_length_a   7.91599100
_cell_length_b   7.91599100
_cell_length_c   7.85112600
_cell_angle_alpha   90.00000000
_cell_angle_beta   90.00000000
_cell_angle_gamma   90.00000000
_symmetry_Int_Tables_number   1
_chemical_formula_structural   La7SmMn4(FeO6)4
_chemical_formula_sum   'La7 Sm1 Mn4 Fe4 O24'
_cell_volume   491.97442951
_cell_formula_units_Z   1
loop_
 _symmetry_equiv_pos_site_id
 _symmetry_equiv_pos_as_xyz
  1  'x, y, z'
loop_
 _atom_site_type_symbol
 _atom_site_label
 _atom_site_symmetry_multiplicity
 _atom_site_fract_x
 _atom_site_fract_y
 _atom_site_fract_z
 _atom_site_occupancy
  La  La0  1  0.50000000  0.00000000  0.74824100  1
  La  La1  1  0.00000000  0.00000000  0.74821100  1
  La  La2  1  0.50000000  0.00000000  0.25174900  1
  La  La3  1  0.00000000  0.00000000  0.25176700  1
  La  La4  1  0.00000000  0.50000000  0.74824100  1
  La  La5  1  0.50000000  0.50000000  0.25180800  1
  La  La6  1  0.00000000  0.50000000  0.25174900  1
  Sm  Sm0  1  0.50000000  0.50000000  0.74818700  1
  Mn  Mn0  1  0.74977400  0.25022600  0.50020800  1
  Mn  Mn1  1  0.25022600  0.25022600  0.50020800  1
  Mn  Mn2  1  0.74977400  0.74977400  0.50020800  1
  Mn  Mn3  1  0.25022600  0.74977400  0.50020800  1
  Fe  Fe0  1  0.74974400  0.25025600  0.99973900  1
  Fe  Fe1  1  0.25025600  0.25025600  0.99973900  1
  Fe  Fe2  1  0.74974400  0.74974400  0.99973900  1
  Fe  Fe3  1  0.25025600  0.74974400  0.99973900  1
  O  O0  1  0.74996400  0.00000000  0.99995900  1
  O  O1  1  0.25003600  0.00000000  0.99995900  1
  O  O2  1  0.74995400  0.00000000  0.50004200  1
  O  O3  1  0.25004600  0.00000000  0.50004200  1
  O  O4  1  0.74896600  0.50000000  0.99897600  1
  O  O5  1  0.25103400  0.50000000  0.99897600  1
  O  O6  1  0.74887400  0.50000000  0.50112400  1
  O  O7  1  0.25112600  0.50000000  0.50112400  1
  O  O8  1  0.74894500  0.25105500  0.75018900  1
  O  O9  1  0.25105500  0.25105500  0.75018900  1
  O  O10  1  0.74996300  0.25003700  0.24977600  1
  O  O11  1  0.25003700  0.25003700  0.24977600  1
  O  O12  1  0.74894500  0.74894500  0.75018900  1
  O  O13  1  0.25105500  0.74894500  0.75018900  1
  O  O14  1  0.74996300  0.74996300  0.24977600  1
  O  O15  1  0.25003700  0.74996300  0.24977600  1
  O  O16  1  0.50000000  0.25103400  0.99897600  1
  O  O17  1  0.00000000  0.25003600  0.99995900  1
  O  O18  1  0.50000000  0.25112600  0.50112400  1
  O  O19  1  0.00000000  0.25004600  0.50004200  1
  O  O20  1  0.50000000  0.74896600  0.99897600  1
  O  O21  1  0.00000000  0.74996400  0.99995900  1
  O  O22  1  0.50000000  0.74887400  0.50112400  1
  O  O23  1  0.00000000  0.74995400  0.50004200  1
loop_
_geom_bond_atom_site_label_1
_geom_bond_atom_site_label_2
_geom_bond_distance
_geom_bond_site_symmetry_2
La0 O2 2.777084 1_555
La0 O3 2.777084 1_555
La0 O18 2.777762 1_555
La0 O22 2.777762 1_545
La0 O0 2.796595 1_555
La0 O1 2.796595 1_555
La0 O20 2.797158 1_545
La0 O16 2.797158 1_555
La0 O8 2.798792 1_555
La0 O9 2.798792 1_555
La0 O12 2.798792 1_545
La0 O13 2.798792 1_545
La1 O2 2.777438 1_455
La1 O23 2.777438 1_545
La1 O19 2.777438 1_555
La1 O3 2.777438 1_555
La1 O1 2.797165 1_555
La1 O17 2.797165 1_555
La1 O21 2.797165 1_545
La1 O0 2.797165 1_455
La1 O13 2.810579 1_545
La1 O9 2.810579 1_555
La1 O8 2.810579 1_455
La1 O12 2.810579 1_445
La2 O2 2.777602 1_555
La2 O3 2.777602 1_555
La2 O18 2.790173 1_555
La2 O22 2.790173 1_545
La2 O0 2.796995 1_554
La2 O1 2.796995 1_554
La2 O10 2.798768 1_555
La2 O14 2.798768 1_545
La2 O11 2.798768 1_555
La2 O15 2.798768 1_545
La2 O20 2.808442 1_544
La2 O16 2.808442 1_554
La3 O19 2.778021 1_555
La3 O2 2.778021 1_455
La3 O3 2.778021 1_555
La3 O23 2.778021 1_545
La3 O17 2.797498 1_554
La3 O1 2.797498 1_554
La3 O21 2.797498 1_544
La3 O0 2.797498 1_454
La3 O11 2.799183 1_555
La3 O10 2.799183 1_455
La3 O15 2.799183 1_545
La3 O14 2.799183 1_445
La4 O19 2.777084 1_555
La4 O23 2.777084 1_555
La4 O7 2.777762 1_555
La4 O6 2.777762 1_455
La4 O21 2.796595 1_555
La4 O17 2.796595 1_555
La4 O4 2.797158 1_455
La4 O5 2.797158 1_555
La4 O13 2.798792 1_555
La4 O12 2.798792 1_455
La4 O9 2.798792 1_555
La4 O8 2.798792 1_455
La5 O22 2.777173 1_555
La5 O6 2.777173 1_555
La5 O18 2.777173 1_555
La5 O7 2.777173 1_555
La5 O16 2.797211 1_554
La5 O5 2.797211 1_554
La5 O20 2.797211 1_554
La5 O4 2.797211 1_554
La5 O14 2.798357 1_555
La5 O15 2.798357 1_555
La5 O10 2.798357 1_555
La5 O11 2.798357 1_555
La6 O19 2.777602 1_555
La6 O23 2.777602 1_555
La6 O7 2.790173 1_555
La6 O6 2.790173 1_455
La6 O21 2.796995 1_554
La6 O17 2.796995 1_554
La6 O15 2.798768 1_555
La6 O14 2.798768 1_455
La6 O11 2.798768 1_555
La6 O10 2.798768 1_455
La6 O5 2.808442 1_554
La6 O4 2.808442 1_454
Mn0 O8 1.962654 1_555
Mn0 O10 1.966174 1_555
Mn0 O18 1.977235 1_555
Mn0 O6 1.977235 1_555
Mn0 O2 1.980788 1_555
Mn0 O19 1.980788 1_655
Mn1 O9 1.962654 1_555
Mn1 O11 1.966174 1_555
Mn1 O18 1.977235 1_555
Mn1 O7 1.977235 1_555
Mn1 O3 1.980788 1_555
Mn1 O19 1.980788 1_555
Mn2 O12 1.962654 1_555
Mn2 O14 1.966174 1_555
Mn2 O6 1.977235 1_555
Mn2 O22 1.977235 1_555
Mn2 O2 1.980788 1_565
Mn2 O23 1.980788 1_655
Mn3 O13 1.962654 1_555
Mn3 O15 1.966174 1_555
Mn3 O7 1.977235 1_555
Mn3 O22 1.977235 1_555
Mn3 O23 1.980788 1_555
Mn3 O3 1.980788 1_565
Fe0 O8 1.959269 1_555
Fe0 O10 1.963074 1_556
Fe0 O16 1.976990 1_555
Fe0 O4 1.976990 1_555
Fe0 O0 1.981026 1_555
Fe0 O17 1.981026 1_655
Fe1 O9 1.959269 1_555
Fe1 O11 1.963074 1_556
Fe1 O5 1.976990 1_555
Fe1 O16 1.976990 1_555
Fe1 O17 1.981026 1_555
Fe1 O1 1.981026 1_555
Fe2 O12 1.959269 1_555
Fe2 O14 1.963074 1_556
Fe2 O20 1.976990 1_555
Fe2 O4 1.976990 1_555
Fe2 O0 1.981026 1_565
Fe2 O21 1.981026 1_655
Fe3 O13 1.959269 1_555
Fe3 O15 1.963074 1_556
Fe3 O5 1.976990 1_555
Fe3 O20 1.976990 1_555
Fe3 O21 1.981026 1_555
Fe3 O1 1.981026 1_565
O4 Sm0 2.785852 1_555
O5 Sm0 2.785852 1_555
O6 Sm0 2.764734 1_555
O7 Sm0 2.764734 1_555
O8 Sm0 2.786959 1_555
O9 Sm0 2.786959 1_555
O12 Sm0 2.786959 1_555
O13 Sm0 2.786959 1_555
O16 Sm0 2.785852 1_555
O18 Sm0 2.764734 1_555
O20 Sm0 2.785852 1_555
O22 Sm0 2.764734 1_555
