# generated using pymatgen
data_SiRh
_symmetry_space_group_name_H-M   'P 1'
_cell_length_a   4.68607869
_cell_length_b   4.68607869
_cell_length_c   4.68607869
_cell_angle_alpha   90.00000000
_cell_angle_beta   90.00000000
_cell_angle_gamma   90.00000000
_symmetry_Int_Tables_number   1
_chemical_formula_structural   SiRh
_chemical_formula_sum   'Si4 Rh4'
_cell_volume   102.90316471
_cell_formula_units_Z   4
loop_
 _symmetry_equiv_pos_site_id
 _symmetry_equiv_pos_as_xyz
  1  'x, y, z'
loop_
 _atom_site_type_symbol
 _atom_site_label
 _atom_site_symmetry_multiplicity
 _atom_site_fract_x
 _atom_site_fract_y
 _atom_site_fract_z
 _atom_site_occupancy
  Si  Si0  1  0.15809888  0.34190112  0.65809888  1
  Si  Si1  1  0.34190112  0.65809888  0.15809888  1
  Si  Si2  1  0.65809888  0.15809888  0.34190112  1
  Si  Si3  1  0.84190112  0.84190112  0.84190112  1
  Rh  Rh0  1  0.84670727  0.65329273  0.34670727  1
  Rh  Rh1  1  0.65329273  0.34670727  0.84670727  1
  Rh  Rh2  1  0.34670727  0.84670727  0.65329273  1
  Rh  Rh3  1  0.15329273  0.15329273  0.15329273  1
loop_
_geom_bond_atom_site_label_1
_geom_bond_atom_site_label_2
_geom_bond_distance
_geom_bond_site_symmetry_2
Rh0 Si3 2.483238 1_555
Rh0 Si1 2.483238 1_655
Rh0 Si2 2.483238 1_555
Rh0 Si2 2.525381 1_565
Rh0 Si1 2.525381 1_555
Rh0 Si3 2.525381 1_554
Rh0 Si0 2.527418 1_655
Rh1 Si3 2.483238 1_555
Rh1 Si2 2.483238 1_556
Rh1 Si0 2.483238 1_555
Rh1 Si0 2.525381 1_655
Rh1 Si3 2.525381 1_545
Rh1 Si2 2.525381 1_555
Rh1 Si1 2.527418 1_556
Rh2 Si3 2.483238 1_555
Rh2 Si0 2.483238 1_565
Rh2 Si1 2.483238 1_555
Rh2 Si1 2.525381 1_556
Rh2 Si3 2.525381 1_455
Rh2 Si0 2.525381 1_555
Rh2 Si2 2.527418 1_565
Rh3 Si2 2.483238 1_455
Rh3 Si1 2.483238 1_545
Rh3 Si0 2.483238 1_554
Rh3 Si1 2.525381 1_555
Rh3 Si2 2.525381 1_555
Rh3 Si0 2.525381 1_555
Rh3 Si3 2.527418 1_444
