# generated using pymatgen
data_CaAs2F12
_symmetry_space_group_name_H-M   'P 1'
_cell_length_a   5.33800965
_cell_length_b   5.33800965
_cell_length_c   7.53196625
_cell_angle_alpha   90.00000000
_cell_angle_beta   90.00000000
_cell_angle_gamma   90.00000000
_symmetry_Int_Tables_number   1
_chemical_formula_structural   CaAs2F12
_chemical_formula_sum   'Ca1 As2 F12'
_cell_volume   214.61846010
_cell_formula_units_Z   1
loop_
 _symmetry_equiv_pos_site_id
 _symmetry_equiv_pos_as_xyz
  1  'x, y, z'
loop_
 _atom_site_type_symbol
 _atom_site_label
 _atom_site_symmetry_multiplicity
 _atom_site_fract_x
 _atom_site_fract_y
 _atom_site_fract_z
 _atom_site_occupancy
  Ca  Ca0  1  -0.00000000  0.00000000  -0.00000000  1
  As  As0  1  -0.00000000  0.50000000  0.24905198  1
  As  As1  1  0.50000000  0.00000000  0.75094802  1
  F  F0  1  0.26323313  0.22490547  0.76817381  1
  F  F1  1  0.73676687  0.77509453  0.76817381  1
  F  F2  1  0.22490547  0.73676687  0.23182619  1
  F  F3  1  0.77509453  0.26323313  0.23182619  1
  F  F4  1  -0.00000000  0.50000000  0.47393306  1
  F  F5  1  0.50000000  0.00000000  0.52606694  1
  F  F6  1  -0.00000000  0.50000000  0.01091693  1
  F  F7  1  0.50000000  0.00000000  0.98908307  1
  F  F8  1  0.22490547  0.26323313  0.23182619  1
  F  F9  1  0.77509453  0.73676687  0.23182619  1
  F  F10  1  0.26323313  0.77509453  0.76817381  1
  F  F11  1  0.73676687  0.22490547  0.76817381  1
loop_
_geom_bond_atom_site_label_1
_geom_bond_atom_site_label_2
_geom_bond_distance
_geom_bond_site_symmetry_2
Ca0 F10 2.542563 1_544
Ca0 F1 2.542563 1_444
Ca0 F11 2.542563 1_454
Ca0 F0 2.542563 1_554
Ca0 F3 2.542563 1_455
Ca0 F2 2.542563 1_545
Ca0 F9 2.542563 1_445
Ca0 F8 2.542563 1_555
Ca0 F6 2.670271 1_555
Ca0 F7 2.670271 1_554
Ca0 F7 2.670271 1_454
Ca0 F6 2.670271 1_545
As0 F4 1.693797 1_555
As0 F2 1.747999 1_555
As0 F9 1.747999 1_455
As0 F3 1.747999 1_455
As0 F8 1.747999 1_555
As0 F6 1.793625 1_555
As1 F5 1.693797 1_555
As1 F1 1.747999 1_545
As1 F10 1.747999 1_545
As1 F11 1.747999 1_555
As1 F0 1.747999 1_555
As1 F7 1.793625 1_555
