# generated using pymatgen
data_Cs2MgCr2(H6O7)2
_symmetry_space_group_name_H-M   'P 1'
_cell_length_a   6.57245094
_cell_length_b   9.73560691
_cell_length_c   12.90548000
_cell_angle_alpha   90.00000000
_cell_angle_beta   90.00000000
_cell_angle_gamma   106.84323236
_symmetry_Int_Tables_number   1
_chemical_formula_structural   Cs2MgCr2(H6O7)2
_chemical_formula_sum   'Cs4 Mg2 Cr4 H24 O28'
_cell_volume   790.35531433
_cell_formula_units_Z   2
loop_
 _symmetry_equiv_pos_site_id
 _symmetry_equiv_pos_as_xyz
  1  'x, y, z'
loop_
 _atom_site_type_symbol
 _atom_site_label
 _atom_site_symmetry_multiplicity
 _atom_site_fract_x
 _atom_site_fract_y
 _atom_site_fract_z
 _atom_site_occupancy
  Cs  Cs0  1  0.84409200  0.60743500  0.14718000  1
  Cs  Cs1  1  0.15590800  0.39256500  0.85282000  1
  Cs  Cs2  1  0.15590800  0.89256500  0.64718000  1
  Cs  Cs3  1  0.84409200  0.10743500  0.35282000  1
  Mg  Mg0  1  0.50000000  0.00000000  0.00000000  1
  Mg  Mg1  1  0.50000000  0.50000000  0.50000000  1
  Cr  Cr0  1  0.76191000  0.60733500  0.84924200  1
  Cr  Cr1  1  0.23809000  0.39266500  0.15075800  1
  Cr  Cr2  1  0.23809000  0.89266500  0.34924200  1
  Cr  Cr3  1  0.76191000  0.10733500  0.65075800  1
  H  H0  1  0.56956700  0.76715400  0.59267000  1
  H  H1  1  0.43043300  0.23284600  0.40733000  1
  H  H2  1  0.43043300  0.73284600  0.09267000  1
  H  H3  1  0.56956700  0.26715400  0.90733000  1
  H  H4  1  0.80153400  0.70560300  0.40345000  1
  H  H5  1  0.19846600  0.29439700  0.59655000  1
  H  H6  1  0.19846600  0.79439700  0.90345000  1
  H  H7  1  0.80153400  0.20560300  0.09655000  1
  H  H8  1  0.51130400  0.65420400  0.68329700  1
  H  H9  1  0.48869600  0.34579600  0.31670300  1
  H  H10  1  0.48869600  0.84579600  0.18329700  1
  H  H11  1  0.51130400  0.15420400  0.81670300  1
  H  H12  1  0.83594500  0.52191100  0.62487800  1
  H  H13  1  0.16405500  0.47808900  0.37512200  1
  H  H14  1  0.16405500  0.97808900  0.12487800  1
  H  H15  1  0.83594500  0.02191100  0.87512200  1
  H  H16  1  0.42156500  0.77250900  0.86494300  1
  H  H17  1  0.57843500  0.22749100  0.13505700  1
  H  H18  1  0.57843500  0.72749100  0.36494300  1
  H  H19  1  0.42156500  0.27250900  0.63505700  1
  H  H20  1  0.84908100  0.91023200  0.96174000  1
  H  H21  1  0.15091900  0.08976800  0.03826000  1
  H  H22  1  0.15091900  0.58976800  0.46174000  1
  H  H23  1  0.84908100  0.41023200  0.53826000  1
  O  O0  1  0.92020800  0.73248200  0.92496100  1
  O  O1  1  0.07979200  0.26751800  0.07503900  1
  O  O2  1  0.07979200  0.76751800  0.42496100  1
  O  O3  1  0.92020800  0.23248200  0.57503900  1
  O  O4  1  0.68687000  0.95309100  0.58638400  1
  O  O5  1  0.31313000  0.04690900  0.41361600  1
  O  O6  1  0.31313000  0.54690900  0.08638400  1
  O  O7  1  0.68687000  0.45309100  0.91361600  1
  O  O8  1  0.35026200  0.84482700  0.88780600  1
  O  O9  1  0.64973800  0.15517300  0.11219400  1
  O  O10  1  0.64973800  0.65517300  0.38780600  1
  O  O11  1  0.35026200  0.34482700  0.61219400  1
  O  O12  1  0.54538300  0.65497700  0.81371400  1
  O  O13  1  0.45461700  0.34502300  0.18628600  1
  O  O14  1  0.45461700  0.84502300  0.31371400  1
  O  O15  1  0.54538300  0.15497700  0.68628600  1
  O  O16  1  0.49441300  0.66458000  0.60699100  1
  O  O17  1  0.50558700  0.33542000  0.39300900  1
  O  O18  1  0.50558700  0.83542000  0.10699100  1
  O  O19  1  0.49441300  0.16458000  0.89300900  1
  O  O20  1  0.79582100  0.99306900  0.94834400  1
  O  O21  1  0.20417900  0.00693100  0.05165600  1
  O  O22  1  0.20417900  0.50693100  0.44834400  1
  O  O23  1  0.79582100  0.49306900  0.55165600  1
  O  O24  1  0.89842100  0.58873900  0.74459000  1
  O  O25  1  0.10157900  0.41126100  0.25541000  1
  O  O26  1  0.10157900  0.91126100  0.24459000  1
  O  O27  1  0.89842100  0.08873900  0.75541000  1
loop_
_geom_bond_atom_site_label_1
_geom_bond_atom_site_label_2
_geom_bond_distance
_geom_bond_site_symmetry_2
Cs0 O13 3.089374 1_555
Cs0 O0 3.099022 1_554
Cs0 O26 3.208236 1_655
Cs0 O25 3.214894 1_655
Cs0 H2 3.361679 1_555
Cs0 O7 3.392876 1_554
Cs0 O6 3.393926 1_655
Cs0 O10 3.440235 1_555
Cs0 O6 3.456778 1_555
Cs1 O12 3.089374 1_555
Cs1 O1 3.099022 1_556
Cs1 O27 3.208236 1_455
Cs1 O24 3.214894 1_455
Cs1 H3 3.361679 1_555
Cs1 O6 3.392876 1_556
Cs1 O7 3.393926 1_455
Cs1 O11 3.440235 1_555
Cs1 O7 3.456778 1_555
Cs2 O15 3.089374 1_565
Cs2 O2 3.099022 1_555
Cs2 O24 3.208236 1_455
Cs2 O27 3.214894 1_465
Cs2 H0 3.361679 1_555
Cs2 O5 3.392876 1_565
Cs2 O4 3.393926 1_455
Cs2 O8 3.440235 1_555
Cs2 O4 3.456778 1_555
Cs3 O14 3.089374 1_545
Cs3 O3 3.099022 1_555
Cs3 O25 3.208236 1_655
Cs3 O26 3.214894 1_645
Cs3 H1 3.361679 1_555
Cs3 O4 3.392876 1_545
Cs3 O5 3.393926 1_655
Cs3 O9 3.440235 1_555
Cs3 O5 3.456778 1_555
Mg0 O21 2.074893 1_555
Mg0 O20 2.074893 1_544
Mg0 O9 2.117935 1_555
Mg0 O8 2.117935 1_544
Mg0 O18 2.123509 1_545
Mg0 O19 2.123509 1_554
Mg1 O23 2.074893 1_555
Mg1 O22 2.074893 1_555
Mg1 O10 2.117935 1_555
Mg1 O11 2.117935 1_555
Mg1 O17 2.123509 1_555
Mg1 O16 2.123509 1_555
Cr0 O24 1.660113 1_555
Cr0 O7 1.661091 1_555
Cr0 O0 1.669493 1_555
Cr0 O12 1.683190 1_555
Cr1 O25 1.660113 1_555
Cr1 O6 1.661091 1_555
Cr1 O1 1.669493 1_555
Cr1 O13 1.683190 1_555
Cr2 O26 1.660113 1_555
Cr2 O5 1.661091 1_565
Cr2 O2 1.669493 1_555
Cr2 O14 1.683190 1_555
Cr3 O27 1.660113 1_555
Cr3 O4 1.661091 1_545
Cr3 O3 1.669493 1_555
Cr3 O15 1.683190 1_555
H0 O16 0.994752 1_555
H1 O17 0.994752 1_555
H2 O18 0.994752 1_555
H3 O19 0.994752 1_555
H4 O10 0.996645 1_555
H5 O11 0.996645 1_555
H6 O8 0.996645 1_555
H7 O9 0.996645 1_555
H8 O16 0.999395 1_555
H9 O17 0.999395 1_555
H10 O18 0.999395 1_555
H11 O19 0.999395 1_555
H12 O23 0.999218 1_555
H13 O22 0.999218 1_555
H14 O21 0.999218 1_565
H15 O20 0.999218 1_545
H16 O8 0.996788 1_555
H17 O9 0.996788 1_555
H18 O10 0.996788 1_555
H19 O11 0.996788 1_555
H20 O20 0.983062 1_555
H21 O21 0.983062 1_555
H22 O22 0.983062 1_555
H23 O23 0.983062 1_555
