# generated using pymatgen
data_Lu11(Ni10C)6
_symmetry_space_group_name_H-M   'P 1'
_cell_length_a   10.68550641
_cell_length_b   10.68550641
_cell_length_c   10.68550641
_cell_angle_alpha   109.47122063
_cell_angle_beta   109.47122063
_cell_angle_gamma   109.47122063
_symmetry_Int_Tables_number   1
_chemical_formula_structural   Lu11(Ni10C)6
_chemical_formula_sum   'Lu11 Ni60 C6'
_cell_volume   939.21157508
_cell_formula_units_Z   1
loop_
 _symmetry_equiv_pos_site_id
 _symmetry_equiv_pos_as_xyz
  1  'x, y, z'
loop_
 _atom_site_type_symbol
 _atom_site_label
 _atom_site_symmetry_multiplicity
 _atom_site_fract_x
 _atom_site_fract_y
 _atom_site_fract_z
 _atom_site_occupancy
  Lu  Lu0  1  0.00000000  0.00000000  0.33686200  1
  Lu  Lu1  1  0.00000000  0.33686200  0.00000000  1
  Lu  Lu2  1  0.33686200  0.00000000  0.00000000  1
  Lu  Lu3  1  0.66313800  0.66313800  0.66313800  1
  Lu  Lu4  1  0.00000000  0.00000000  0.66313800  1
  Lu  Lu5  1  0.00000000  0.66313800  0.00000000  1
  Lu  Lu6  1  0.66313800  0.00000000  0.00000000  1
  Lu  Lu7  1  0.33686200  0.33686200  0.33686200  1
  Lu  Lu8  1  0.50000000  0.50000000  0.00000000  1
  Lu  Lu9  1  0.50000000  0.00000000  0.50000000  1
  Lu  Lu10  1  0.00000000  0.50000000  0.50000000  1
  Ni  Ni0  1  0.00000000  0.76740800  0.41937600  1
  Ni  Ni1  1  0.23259200  0.23259200  0.65196800  1
  Ni  Ni2  1  0.76740800  0.00000000  0.41937600  1
  Ni  Ni3  1  0.00000000  0.41937600  0.76740800  1
  Ni  Ni4  1  0.76740800  0.41937600  0.00000000  1
  Ni  Ni5  1  0.23259200  0.65196800  0.23259200  1
  Ni  Ni6  1  0.65196800  0.23259200  0.23259200  1
  Ni  Ni7  1  0.41937600  0.76740800  0.00000000  1
  Ni  Ni8  1  0.41937600  0.00000000  0.76740800  1
  Ni  Ni9  1  0.34803200  0.58062300  0.58062300  1
  Ni  Ni10  1  0.58062300  0.58062300  0.34803200  1
  Ni  Ni11  1  0.58062300  0.34803200  0.58062300  1
  Ni  Ni12  1  0.00000000  0.23259200  0.58062300  1
  Ni  Ni13  1  0.76740800  0.76740800  0.34803200  1
  Ni  Ni14  1  0.23259200  0.00000000  0.58062300  1
  Ni  Ni15  1  0.00000000  0.58062300  0.23259200  1
  Ni  Ni16  1  0.23259200  0.58062300  0.00000000  1
  Ni  Ni17  1  0.76740800  0.34803200  0.76740800  1
  Ni  Ni18  1  0.34803200  0.76740800  0.76740800  1
  Ni  Ni19  1  0.58062300  0.23259200  0.00000000  1
  Ni  Ni20  1  0.58062300  0.00000000  0.23259200  1
  Ni  Ni21  1  0.65196800  0.41937600  0.41937600  1
  Ni  Ni22  1  0.41937600  0.41937600  0.65196800  1
  Ni  Ni23  1  0.41937600  0.65196800  0.41937600  1
  Ni  Ni24  1  0.14860200  0.31723600  0.46583700  1
  Ni  Ni25  1  0.68276400  0.83136600  0.14860200  1
  Ni  Ni26  1  0.16863400  0.85139800  0.31723600  1
  Ni  Ni27  1  0.85139800  0.16863400  0.31723600  1
  Ni  Ni28  1  0.31723600  0.14860200  0.46583700  1
  Ni  Ni29  1  0.83136600  0.68276400  0.14860200  1
  Ni  Ni30  1  0.85139800  0.31723600  0.16863400  1
  Ni  Ni31  1  0.31723600  0.46583700  0.14860200  1
  Ni  Ni32  1  0.83136600  0.14860200  0.68276400  1
  Ni  Ni33  1  0.14860200  0.46583700  0.31723600  1
  Ni  Ni34  1  0.68276400  0.14860200  0.83136600  1
  Ni  Ni35  1  0.16863400  0.31723600  0.85139800  1
  Ni  Ni36  1  0.14860200  0.68276400  0.83136600  1
  Ni  Ni37  1  0.31723600  0.16863400  0.85139800  1
  Ni  Ni38  1  0.46583700  0.14860200  0.31723600  1
  Ni  Ni39  1  0.14860200  0.83136600  0.68276400  1
  Ni  Ni40  1  0.31723600  0.85139800  0.16863400  1
  Ni  Ni41  1  0.46583700  0.31723600  0.14860200  1
  Ni  Ni42  1  0.85139800  0.68276400  0.53416300  1
  Ni  Ni43  1  0.68276400  0.53416300  0.85139800  1
  Ni  Ni44  1  0.53416300  0.85139800  0.68276400  1
  Ni  Ni45  1  0.85139800  0.53416300  0.68276400  1
  Ni  Ni46  1  0.68276400  0.85139800  0.53416300  1
  Ni  Ni47  1  0.53416300  0.68276400  0.85139800  1
  Ni  Ni48  1  0.85539900  0.85539900  0.00000000  1
  Ni  Ni49  1  0.14460100  0.00000000  0.14460100  1
  Ni  Ni50  1  0.00000000  0.14460100  0.14460100  1
  Ni  Ni51  1  0.14460100  0.14460100  0.00000000  1
  Ni  Ni52  1  0.85539900  0.00000000  0.85539900  1
  Ni  Ni53  1  0.00000000  0.85539900  0.85539900  1
  Ni  Ni54  1  0.75000000  0.25000000  0.50000000  1
  Ni  Ni55  1  0.75000000  0.50000000  0.25000000  1
  Ni  Ni56  1  0.50000000  0.25000000  0.75000000  1
  Ni  Ni57  1  0.25000000  0.50000000  0.75000000  1
  Ni  Ni58  1  0.25000000  0.75000000  0.50000000  1
  Ni  Ni59  1  0.50000000  0.75000000  0.25000000  1
  C  C0  1  0.70624700  0.70624700  0.00000000  1
  C  C1  1  0.29375300  0.00000000  0.29375300  1
  C  C2  1  0.00000000  0.29375300  0.29375300  1
  C  C3  1  0.29375300  0.29375300  0.00000000  1
  C  C4  1  0.70624700  0.00000000  0.70624700  1
  C  C5  1  0.00000000  0.70624700  0.70624700  1
loop_
_geom_bond_atom_site_label_1
_geom_bond_atom_site_label_2
_geom_bond_distance
_geom_bond_site_symmetry_2
Lu0 Ni29 2.783846 1_445
Lu0 Ni25 2.783846 1_445
Lu0 Ni27 2.783846 1_455
Lu0 Ni26 2.783846 1_545
Lu0 Ni28 2.783847 1_555
Lu0 Ni24 2.783847 1_555
Lu0 Ni1 2.900920 1_555
Lu0 Ni0 2.900920 1_545
Lu0 Ni2 2.900920 1_455
Lu0 Ni14 2.940370 1_555
Lu0 Ni12 2.940370 1_555
Lu0 Ni13 2.940377 1_445
Lu0 Ni48 2.953684 1_445
Lu0 Ni49 2.953684 1_555
Lu0 Ni50 2.953684 1_555
Lu1 Ni32 2.783846 1_454
Lu1 Ni34 2.783846 1_454
Lu1 Ni35 2.783846 1_554
Lu1 Ni30 2.783846 1_455
Lu1 Ni31 2.783847 1_555
Lu1 Ni33 2.783847 1_555
Lu1 Ni5 2.900920 1_555
Lu1 Ni4 2.900920 1_455
Lu1 Ni3 2.900920 1_554
Lu1 Ni15 2.940370 1_555
Lu1 Ni16 2.940370 1_555
Lu1 Ni17 2.940377 1_454
Lu1 Ni52 2.953684 1_454
Lu1 Ni51 2.953684 1_555
Lu1 Ni50 2.953684 1_555
Lu2 Ni39 2.783846 1_544
Lu2 Ni36 2.783846 1_544
Lu2 Ni37 2.783846 1_554
Lu2 Ni40 2.783846 1_545
Lu2 Ni38 2.783847 1_555
Lu2 Ni41 2.783847 1_555
Lu2 Ni6 2.900920 1_555
Lu2 Ni7 2.900920 1_545
Lu2 Ni8 2.900920 1_554
Lu2 Ni20 2.940370 1_555
Lu2 Ni19 2.940370 1_555
Lu2 Ni18 2.940377 1_544
Lu2 Ni53 2.953684 1_544
Lu2 Ni51 2.953684 1_555
Lu2 Ni49 2.953684 1_555
Lu3 Ni44 2.783838 1_555
Lu3 Ni43 2.783838 1_555
Lu3 Ni46 2.783838 1_555
Lu3 Ni47 2.783838 1_555
Lu3 Ni42 2.783838 1_555
Lu3 Ni45 2.783838 1_555
Lu3 Ni11 2.900916 1_555
Lu3 Ni10 2.900916 1_555
Lu3 Ni9 2.900916 1_555
Lu3 Ni23 2.940377 1_555
Lu3 Ni22 2.940377 1_555
Lu3 Ni21 2.940377 1_555
Lu3 Ni53 2.953684 1_655
Lu3 Ni48 2.953684 1_556
Lu3 Ni52 2.953684 1_565
Lu4 Ni32 2.783846 1_455
Lu4 Ni39 2.783846 1_545
Lu4 Ni37 2.783846 1_555
Lu4 Ni35 2.783846 1_555
Lu4 Ni46 2.783847 1_445
Lu4 Ni42 2.783847 1_445
Lu4 Ni13 2.900920 1_445
Lu4 Ni14 2.900926 1_555
Lu4 Ni12 2.900926 1_555
Lu4 Ni0 2.940377 1_545
Lu4 Ni2 2.940377 1_455
Lu4 Ni1 2.940377 1_555
Lu4 Ni52 2.953684 1_455
Lu4 Ni53 2.953684 1_545
Lu4 Ni51 2.953684 1_556
Lu5 Ni29 2.783846 1_455
Lu5 Ni36 2.783846 1_554
Lu5 Ni40 2.783846 1_555
Lu5 Ni26 2.783846 1_555
Lu5 Ni45 2.783847 1_454
Lu5 Ni43 2.783847 1_454
Lu5 Ni17 2.900920 1_454
Lu5 Ni16 2.900926 1_555
Lu5 Ni15 2.900926 1_555
Lu5 Ni4 2.940377 1_455
Lu5 Ni5 2.940377 1_555
Lu5 Ni3 2.940377 1_554
Lu5 Ni53 2.953684 1_554
Lu5 Ni48 2.953684 1_455
Lu5 Ni49 2.953684 1_565
Lu6 Ni34 2.783846 1_554
Lu6 Ni25 2.783846 1_545
Lu6 Ni30 2.783846 1_555
Lu6 Ni27 2.783846 1_555
Lu6 Ni44 2.783847 1_544
Lu6 Ni47 2.783847 1_544
Lu6 Ni18 2.900920 1_544
Lu6 Ni20 2.900926 1_555
Lu6 Ni19 2.900926 1_555
Lu6 Ni6 2.940377 1_555
Lu6 Ni8 2.940377 1_554
Lu6 Ni7 2.940377 1_545
Lu6 Ni48 2.953684 1_545
Lu6 Ni50 2.953684 1_655
Lu6 Ni52 2.953684 1_554
Lu7 Ni41 2.783838 1_555
Lu7 Ni33 2.783838 1_555
Lu7 Ni24 2.783838 1_555
Lu7 Ni31 2.783838 1_555
Lu7 Ni38 2.783838 1_555
Lu7 Ni28 2.783838 1_555
Lu7 Ni21 2.900920 1_555
Lu7 Ni23 2.900920 1_555
Lu7 Ni22 2.900920 1_555
Lu7 Ni10 2.940364 1_555
Lu7 Ni11 2.940364 1_555
Lu7 Ni9 2.940364 1_555
Lu7 Ni50 2.953684 1_555
Lu7 Ni49 2.953684 1_555
Lu7 Ni51 2.953684 1_555
Lu8 Ni55 3.084640 1_555
Lu8 Ni56 3.084640 1_554
Lu8 Ni59 3.084640 1_555
Lu8 Ni57 3.084640 1_554
Lu8 Ni19 3.247760 1_555
Lu8 Ni16 3.247760 1_555
Lu8 Ni7 3.247766 1_555
Lu8 Ni1 3.247766 1_554
Lu8 Ni13 3.247766 1_555
Lu8 Ni4 3.247766 1_555
Lu8 Ni22 3.247766 1_554
Lu8 Ni10 3.247770 1_555
Lu9 Ni59 3.084640 1_545
Lu9 Ni56 3.084640 1_555
Lu9 Ni54 3.084640 1_555
Lu9 Ni58 3.084640 1_545
Lu9 Ni20 3.247760 1_555
Lu9 Ni14 3.247760 1_555
Lu9 Ni17 3.247766 1_555
Lu9 Ni8 3.247766 1_555
Lu9 Ni2 3.247766 1_555
Lu9 Ni5 3.247766 1_545
Lu9 Ni23 3.247766 1_545
Lu9 Ni11 3.247770 1_555
Lu10 Ni55 3.084640 1_455
Lu10 Ni58 3.084640 1_555
Lu10 Ni57 3.084640 1_555
Lu10 Ni54 3.084640 1_455
Lu10 Ni15 3.247760 1_555
Lu10 Ni12 3.247760 1_555
Lu10 Ni21 3.247766 1_455
Lu10 Ni6 3.247766 1_455
Lu10 Ni18 3.247766 1_555
Lu10 Ni0 3.247766 1_555
Lu10 Ni3 3.247766 1_555
Lu10 Ni9 3.247770 1_555
Ni0 Ni15 2.304652 1_555
Ni0 Ni14 2.344155 1_565
Ni0 Ni13 2.344155 1_455
Ni0 Ni39 2.434007 1_555
Ni0 Ni42 2.434016 1_455
Ni0 Ni29 2.475810 1_455
Ni0 Ni26 2.475810 1_555
Ni0 Ni55 2.610916 1_455
Ni0 Ni58 2.610916 1_555
Ni1 Ni22 2.304646 1_555
Ni1 Ni14 2.344155 1_555
Ni1 Ni12 2.344155 1_555
Ni1 Ni35 2.434007 1_555
Ni1 Ni37 2.434007 1_555
Ni1 Ni24 2.475819 1_555
Ni1 Ni28 2.475819 1_555
Ni1 Ni57 2.610916 1_555
Ni1 Ni56 2.610916 1_555
Ni2 Ni20 2.304652 1_555
Ni2 Ni32 2.434007 1_555
Ni2 Ni46 2.434016 1_545
Ni2 Ni25 2.475810 1_545
Ni2 Ni27 2.475810 1_555
Ni2 Ni59 2.610916 1_545
Ni2 Ni54 2.610916 1_555
Ni3 Ni36 2.434007 1_555
Ni3 Ni45 2.434016 1_455
Ni3 Ni35 2.475810 1_555
Ni3 Ni32 2.475810 1_455
Ni3 Ni54 2.610916 1_455
Ni3 Ni57 2.610916 1_555
Ni4 Ni43 2.434016 1_554
Ni4 Ni56 2.610916 1_554
Ni4 Ni55 2.610916 1_555
Ni5 Ni58 2.610916 1_555
Ni5 Ni59 2.610916 1_555
Ni10 Ni13 2.304658 1_555
Ni10 Ni21 2.344150 1_555
Ni10 Ni23 2.344150 1_555
Ni10 Ni41 2.434000 1_555
Ni10 Ni31 2.434000 1_555
Ni10 Ni42 2.475819 1_555
Ni10 Ni46 2.475819 1_555
Ni10 Ni55 2.610922 1_555
Ni10 Ni59 2.610922 1_555
Ni11 Ni17 2.304658 1_555
Ni11 Ni21 2.344150 1_555
Ni11 Ni22 2.344150 1_555
Ni11 Ni38 2.434000 1_555
Ni11 Ni28 2.434000 1_555
Ni11 Ni45 2.475819 1_555
Ni11 Ni43 2.475819 1_555
Ni11 Ni56 2.610922 1_555
Ni11 Ni54 2.610922 1_555
Ni12 Ni3 2.304652 1_555
Ni12 Ni2 2.344155 1_455
Ni12 Ni27 2.433998 1_455
Ni12 Ni24 2.434007 1_555
Ni12 Ni35 2.475819 1_555
Ni12 Ni32 2.475819 1_455
Ni12 Ni54 2.610916 1_455
Ni12 Ni57 2.610916 1_555
Ni13 Ni2 2.344155 1_565
Ni13 Ni25 2.434007 1_555
Ni13 Ni29 2.434007 1_555
Ni13 Ni42 2.475819 1_555
Ni13 Ni46 2.475819 1_555
Ni13 Ni55 2.610916 1_555
Ni13 Ni59 2.610916 1_555
Ni14 Ni8 2.304652 1_555
Ni14 Ni26 2.433998 1_545
Ni14 Ni28 2.434007 1_555
Ni14 Ni37 2.475819 1_555
Ni14 Ni39 2.475819 1_545
Ni14 Ni56 2.610916 1_555
Ni14 Ni58 2.610916 1_545
Ni15 Ni4 2.344155 1_455
Ni15 Ni5 2.344155 1_555
Ni15 Ni30 2.433998 1_455
Ni15 Ni33 2.434007 1_555
Ni15 Ni26 2.475819 1_555
Ni15 Ni29 2.475819 1_455
Ni15 Ni55 2.610916 1_455
Ni15 Ni58 2.610916 1_555
Ni16 Ni7 2.304652 1_555
Ni16 Ni5 2.344155 1_555
Ni16 Ni3 2.344155 1_554
Ni16 Ni35 2.433998 1_554
Ni16 Ni31 2.434007 1_555
Ni16 Ni40 2.475819 1_555
Ni16 Ni36 2.475819 1_554
Ni16 Ni59 2.610916 1_555
Ni16 Ni57 2.610916 1_554
Ni17 Ni4 2.344155 1_556
Ni17 Ni3 2.344155 1_655
Ni17 Ni32 2.434007 1_555
Ni17 Ni34 2.434007 1_555
Ni17 Ni45 2.475819 1_555
Ni17 Ni43 2.475819 1_555
Ni17 Ni56 2.610916 1_555
Ni17 Ni54 2.610916 1_555
Ni18 Ni9 2.304658 1_555
Ni18 Ni7 2.344155 1_556
Ni18 Ni8 2.344155 1_565
Ni18 Ni39 2.434007 1_555
Ni18 Ni36 2.434007 1_555
Ni18 Ni44 2.475819 1_555
Ni18 Ni47 2.475819 1_555
Ni18 Ni58 2.610916 1_555
Ni18 Ni57 2.610916 1_555
Ni19 Ni4 2.304652 1_555
Ni19 Ni6 2.344155 1_555
Ni19 Ni8 2.344155 1_554
Ni19 Ni37 2.433998 1_554
Ni19 Ni41 2.434007 1_555
Ni19 Ni30 2.475819 1_555
Ni19 Ni34 2.475819 1_554
Ni19 Ni56 2.610916 1_554
Ni19 Ni55 2.610916 1_555
Ni20 Ni6 2.344155 1_555
Ni20 Ni7 2.344155 1_545
Ni20 Ni40 2.433998 1_545
Ni20 Ni38 2.434007 1_555
Ni20 Ni25 2.475819 1_545
Ni20 Ni27 2.475819 1_555
Ni20 Ni54 2.610916 1_555
Ni20 Ni59 2.610916 1_545
Ni21 Ni6 2.304646 1_555
Ni21 Ni42 2.434005 1_555
Ni21 Ni45 2.434005 1_555
Ni21 Ni38 2.475813 1_555
Ni21 Ni41 2.475813 1_555
Ni21 Ni55 2.610916 1_555
Ni21 Ni54 2.610916 1_555
Ni22 Ni9 2.344150 1_555
Ni22 Ni47 2.434005 1_555
Ni22 Ni43 2.434005 1_555
Ni22 Ni24 2.475813 1_555
Ni22 Ni28 2.475813 1_555
Ni22 Ni57 2.610916 1_555
Ni22 Ni56 2.610916 1_555
Ni23 Ni5 2.304646 1_555
Ni23 Ni9 2.344150 1_555
Ni23 Ni44 2.434005 1_555
Ni23 Ni46 2.434005 1_555
Ni23 Ni31 2.475813 1_555
Ni23 Ni33 2.475813 1_555
Ni23 Ni59 2.610916 1_555
Ni23 Ni58 2.610916 1_555
Ni24 Ni9 2.434000 1_555
Ni24 Ni57 2.578863 1_555
Ni25 Ni7 2.434007 1_555
Ni25 Ni59 2.578855 1_555
Ni26 Ni5 2.434007 1_555
Ni26 Ni58 2.578855 1_555
Ni27 Ni6 2.434007 1_555
Ni27 Ni54 2.578855 1_555
Ni28 Ni56 2.578863 1_555
Ni29 Ni4 2.434007 1_555
Ni29 Ni55 2.578855 1_555
Ni30 Ni6 2.434007 1_555
Ni30 Ni4 2.475810 1_555
Ni30 Ni55 2.578855 1_555
Ni31 Ni5 2.475819 1_555
Ni31 Ni59 2.578863 1_555
Ni32 Ni54 2.578855 1_555
Ni33 Ni9 2.434000 1_555
Ni33 Ni5 2.475819 1_555
Ni33 Ni58 2.578863 1_555
Ni34 Ni8 2.434007 1_555
Ni34 Ni4 2.475810 1_556
Ni34 Ni56 2.578855 1_555
Ni35 Ni57 2.578855 1_555
Ni36 Ni7 2.475810 1_556
Ni36 Ni57 2.578855 1_555
Ni37 Ni8 2.475810 1_555
Ni37 Ni56 2.578855 1_555
Ni38 Ni6 2.475819 1_555
Ni38 Ni54 2.578863 1_555
Ni39 Ni8 2.475810 1_565
Ni39 Ni58 2.578855 1_555
Ni40 Ni5 2.434007 1_555
Ni40 Ni7 2.475810 1_555
Ni40 Ni59 2.578855 1_555
Ni41 Ni6 2.475819 1_555
Ni41 Ni55 2.578863 1_555
Ni42 Ni55 2.578863 1_555
Ni43 Ni56 2.578863 1_555
Ni44 Ni8 2.434016 1_565
Ni44 Ni9 2.475819 1_555
Ni44 Ni58 2.578863 1_555
Ni45 Ni54 2.578863 1_555
Ni46 Ni59 2.578863 1_555
Ni47 Ni7 2.434016 1_556
Ni47 Ni9 2.475819 1_555
Ni47 Ni57 2.578863 1_555
Ni54 Ni6 2.610916 1_555
Ni55 Ni6 2.610916 1_555
Ni56 Ni8 2.610916 1_555
Ni57 Ni7 2.610916 1_556
Ni57 Ni9 2.610922 1_555
Ni58 Ni8 2.610916 1_565
Ni58 Ni9 2.610922 1_555
Ni59 Ni7 2.610916 1_555
C0 Ni48 1.840321 1_555
C0 Ni47 1.856280 1_554
C0 Ni43 1.856280 1_554
C0 Ni25 1.856287 1_555
C0 Ni29 1.856287 1_555
C0 Lu8 2.544791 1_555
C1 Ni49 1.840321 1_555
C1 Ni38 1.856280 1_555
C1 Ni28 1.856280 1_555
C1 Ni26 1.856287 1_545
C1 Ni40 1.856287 1_545
C1 Lu9 2.544791 1_555
C2 Ni50 1.840321 1_555
C2 Ni33 1.856280 1_555
C2 Ni24 1.856280 1_555
C2 Ni27 1.856287 1_455
C2 Ni30 1.856287 1_455
C2 Lu10 2.544791 1_555
C3 Ni51 1.840321 1_555
C3 Ni41 1.856280 1_555
C3 Ni31 1.856280 1_555
C3 Ni35 1.856287 1_554
C3 Ni37 1.856287 1_554
C3 Lu8 2.544791 1_555
C4 Ni52 1.840321 1_555
C4 Ni44 1.856280 1_545
C4 Ni46 1.856280 1_545
C4 Ni32 1.856287 1_555
C4 Ni34 1.856287 1_555
C4 Lu9 2.544791 1_555
C5 Ni53 1.840321 1_555
C5 Ni45 1.856280 1_455
C5 Ni42 1.856280 1_455
C5 Ni39 1.856287 1_555
C5 Ni36 1.856287 1_555
C5 Lu10 2.544791 1_555
