# generated using pymatgen
data_V12Ag5O32
_symmetry_space_group_name_H-M   'P 1'
_cell_length_a   8.40840484
_cell_length_b   8.40840484
_cell_length_c   12.44175202
_cell_angle_alpha   74.04835229
_cell_angle_beta   74.04835229
_cell_angle_gamma   51.45708396
_symmetry_Int_Tables_number   1
_chemical_formula_structural   V12Ag5O32
_chemical_formula_sum   'V12 Ag5 O32'
_cell_volume   655.21156200
_cell_formula_units_Z   1
loop_
 _symmetry_equiv_pos_site_id
 _symmetry_equiv_pos_as_xyz
  1  'x, y, z'
loop_
 _atom_site_type_symbol
 _atom_site_label
 _atom_site_symmetry_multiplicity
 _atom_site_fract_x
 _atom_site_fract_y
 _atom_site_fract_z
 _atom_site_occupancy
  V  V0  1  0.96369300  0.96369300  0.45876000  1
  V  V1  1  0.46318100  0.46318100  0.45966300  1
  V  V2  1  0.53670900  0.03628300  0.54005600  1
  V  V3  1  0.03628300  0.53670900  0.54005600  1
  V  V4  1  0.49449400  0.49449400  0.19252300  1
  V  V5  1  0.99338400  0.99338400  0.18944100  1
  V  V6  1  0.00627600  0.50507900  0.80540000  1
  V  V7  1  0.50507900  0.00627600  0.80540000  1
  V  V8  1  0.07463800  0.07463800  0.92128300  1
  V  V9  1  0.57865800  0.57865800  0.91926700  1
  V  V10  1  0.42650400  0.92519400  0.07980700  1
  V  V11  1  0.92519400  0.42650400  0.07980700  1
  Ag  Ag0  1  0.21276900  0.21276900  0.32073000  1
  Ag  Ag1  1  0.71348000  0.71348000  0.32008400  1
  Ag  Ag2  1  0.28515000  0.78725500  0.67970100  1
  Ag  Ag3  1  0.78725500  0.28515000  0.67970100  1
  Ag  Ag4  1  0.35722300  0.35722300  0.97908200  1
  O  O0  1  0.38512100  0.38512100  0.26741800  1
  O  O1  1  0.88498100  0.88498100  0.26795500  1
  O  O2  1  0.11687800  0.61546400  0.73145800  1
  O  O3  1  0.61546400  0.11687800  0.73145800  1
  O  O4  1  0.04430400  0.04430400  0.32358100  1
  O  O5  1  0.54428200  0.54428200  0.32362400  1
  O  O6  1  0.45487900  0.95436400  0.67406400  1
  O  O7  1  0.95436400  0.45487900  0.67406400  1
  O  O8  1  0.47787200  0.47787200  0.04612300  1
  O  O9  1  0.97693800  0.97693800  0.04626000  1
  O  O10  1  0.02599800  0.52209300  0.95740500  1
  O  O11  1  0.52209300  0.02599800  0.95740500  1
  O  O12  1  0.32564200  0.32564200  0.53839300  1
  O  O13  1  0.82567400  0.82567400  0.53816600  1
  O  O14  1  0.17507500  0.67453400  0.46123800  1
  O  O15  1  0.67453400  0.17507500  0.46123800  1
  O  O16  1  0.71492200  0.71492200  0.83070700  1
  O  O17  1  0.21576100  0.21576100  0.82966000  1
  O  O18  1  0.78240100  0.28276900  0.17251100  1
  O  O19  1  0.28276900  0.78240100  0.17251100  1
  O  O20  1  0.14217500  0.14217500  0.07217800  1
  O  O21  1  0.64175300  0.64175300  0.07147900  1
  O  O22  1  0.35695200  0.85712400  0.92917500  1
  O  O23  1  0.85712400  0.35695200  0.92917500  1
  O  O24  1  0.02435400  0.02435400  0.54992300  1
  O  O25  1  0.52425200  0.52425200  0.55015200  1
  O  O26  1  0.47588800  0.97591900  0.44878200  1
  O  O27  1  0.97591900  0.47588800  0.44878200  1
  O  O28  1  0.02885400  0.02885400  0.81623800  1
  O  O29  1  0.52908000  0.52908000  0.81644700  1
  O  O30  1  0.47122100  0.97100700  0.18578500  1
  O  O31  1  0.97100700  0.47122100  0.18578500  1
loop_
_geom_bond_atom_site_label_1
_geom_bond_atom_site_label_2
_geom_bond_distance
_geom_bond_site_symmetry_2
Ag0 O30 2.457461 1_545
Ag0 O31 2.457461 1_455
Ag0 O26 2.470177 1_545
Ag0 O27 2.470177 1_455
Ag0 O0 2.490163 1_555
Ag0 O4 2.541582 1_555
Ag1 O30 2.452648 1_555
Ag1 O31 2.452648 1_555
Ag1 O27 2.472763 1_555
Ag1 O26 2.472763 1_555
Ag1 O1 2.478507 1_555
Ag1 O5 2.550192 1_555
Ag2 O2 2.457249 1_555
Ag2 O28 2.466923 1_565
Ag2 O24 2.473687 1_565
Ag2 O29 2.480579 1_555
Ag2 O25 2.483503 1_555
Ag2 O6 2.530985 1_555
Ag3 O3 2.457249 1_555
Ag3 O28 2.466923 1_655
Ag3 O24 2.473687 1_655
Ag3 O29 2.480579 1_555
Ag3 O25 2.483503 1_555
Ag3 O7 2.530985 1_555
Ag4 O8 2.228617 1_556
Ag4 O11 2.268710 1_555
Ag4 O10 2.268710 1_555
Ag4 O29 2.767418 1_555
O0 V4 1.634550 1_555
O1 V5 1.634763 1_555
O2 V6 1.645843 1_555
O3 V7 1.645843 1_555
O4 V0 1.751247 1_445
O4 V5 2.041068 1_445
O5 V1 1.762249 1_555
O5 V4 1.995032 1_555
O6 V2 1.748306 1_565
O6 V7 2.009872 1_565
O7 V3 1.748306 1_655
O7 V6 2.009872 1_655
O8 V9 1.830855 1_554
O8 V4 1.913382 1_555
O9 V8 1.790065 1_664
O9 V5 1.872525 1_555
O10 V11 1.774924 1_456
O10 V6 1.993814 1_555
O11 V10 1.774924 1_546
O11 V7 1.993814 1_555
O12 V2 1.918654 1_555
O12 V3 1.918654 1_555
O12 V1 2.013909 1_555
O13 V2 1.915607 1_565
O13 V3 1.915607 1_655
O13 V0 2.021795 1_555
O14 V1 1.911845 1_555
O14 V0 1.917050 1_455
O14 V3 2.024435 1_555
O15 V1 1.911845 1_555
O15 V0 1.917050 1_545
O15 V2 2.024435 1_555
O16 V7 1.925777 1_565
O16 V6 1.925777 1_655
O16 V9 2.021822 1_555
O17 V7 1.913218 1_555
O17 V6 1.913218 1_555
O17 V8 2.093642 1_555
O18 V4 1.906132 1_555
O18 V5 1.912211 1_545
O18 V11 2.124515 1_555
O19 V4 1.906132 1_555
O19 V5 1.912211 1_455
O19 V10 2.124515 1_555
O20 V11 1.909762 1_455
O20 V10 1.909762 1_545
O20 V5 2.281027 1_445
O20 V8 2.396557 1_554
O21 V10 1.903597 1_555
O21 V11 1.903597 1_555
O21 V4 2.279275 1_555
O21 V9 2.367398 1_554
O22 V9 1.888276 1_555
O22 V8 1.899630 1_565
O22 V7 2.307912 1_565
O22 V10 2.406477 1_556
O23 V9 1.888276 1_555
O23 V8 1.899630 1_655
O23 V6 2.307912 1_655
O23 V11 2.406477 1_556
O24 V0 1.663428 1_445
O25 V1 1.661042 1_555
O26 V2 1.663814 1_565
O27 V3 1.663814 1_655
O28 V8 1.655987 1_555
O29 V9 1.669397 1_555
O30 V10 1.661484 1_555
O31 V11 1.661484 1_555
