# generated using pymatgen
data_TbNi3Sn2
_symmetry_space_group_name_H-M   'P 1'
_cell_length_a   4.23956100
_cell_length_b   9.28552035
_cell_length_c   9.28552060
_cell_angle_alpha   60.06174075
_cell_angle_beta   90.00000000
_cell_angle_gamma   90.00000000
_symmetry_Int_Tables_number   1
_chemical_formula_structural   TbNi3Sn2
_chemical_formula_sum   'Tb3 Ni9 Sn6'
_cell_volume   316.76258617
_cell_formula_units_Z   3
loop_
 _symmetry_equiv_pos_site_id
 _symmetry_equiv_pos_as_xyz
  1  'x, y, z'
loop_
 _atom_site_type_symbol
 _atom_site_label
 _atom_site_symmetry_multiplicity
 _atom_site_fract_x
 _atom_site_fract_y
 _atom_site_fract_z
 _atom_site_occupancy
  Tb  Tb0  1  0.50000000  0.33329700  0.33341300  1
  Tb  Tb1  1  0.50000000  0.66658700  0.66670300  1
  Tb  Tb2  1  0.00000000  0.00032300  0.99967700  1
  Ni  Ni0  1  0.00000000  0.20388800  0.16863300  1
  Ni  Ni1  1  0.00000000  0.16844900  0.62702900  1
  Ni  Ni2  1  0.00000000  0.62737100  0.20440600  1
  Ni  Ni3  1  0.00000000  0.83136700  0.79611200  1
  Ni  Ni4  1  0.00000000  0.37297100  0.83155100  1
  Ni  Ni5  1  0.00000000  0.79559400  0.37262900  1
  Ni  Ni6  1  0.50000000  0.29804500  0.70195500  1
  Ni  Ni7  1  0.50000000  0.70194100  0.99987800  1
  Ni  Ni8  1  0.50000000  0.00012200  0.29805900  1
  Sn  Sn0  1  0.50000000  0.74718700  0.25281300  1
  Sn  Sn1  1  0.50000000  0.25304400  0.99995600  1
  Sn  Sn2  1  0.50000000  0.00004400  0.74695600  1
  Sn  Sn3  1  0.00000000  0.47292300  0.52707700  1
  Sn  Sn4  1  0.00000000  0.52691600  0.00017000  1
  Sn  Sn5  1  0.00000000  0.99983000  0.47308400  1
loop_
_geom_bond_atom_site_label_1
_geom_bond_atom_site_label_2
_geom_bond_distance
_geom_bond_site_symmetry_2
Ni0 Sn5 2.497104 1_545
Ni0 Sn1 2.537990 1_554
Ni0 Sn1 2.537990 1_454
Ni0 Sn4 2.600115 1_555
Ni0 Ni8 2.692226 1_555
Ni0 Ni8 2.692226 1_455
Ni0 Ni4 2.712340 1_554
Ni0 Tb2 2.999010 1_554
Ni0 Tb0 3.180194 1_455
Ni0 Tb0 3.180194 1_555
Ni1 Sn3 2.497077 1_555
Ni1 Sn2 2.537852 1_455
Ni1 Sn2 2.537852 1_555
Ni1 Sn5 2.593987 1_545
Ni1 Ni6 2.694670 1_455
Ni1 Ni6 2.694670 1_555
Ni1 Ni3 2.712340 1_545
Ni1 Tb2 3.003088 1_555
Ni1 Tb0 3.178706 1_555
Ni1 Tb0 3.178706 1_455
Ni2 Sn4 2.496437 1_555
Ni2 Sn0 2.536222 1_455
Ni2 Sn0 2.536222 1_555
Ni2 Sn3 2.597091 1_555
Ni2 Ni7 2.695761 1_554
Ni2 Ni7 2.695761 1_454
Ni2 Ni5 2.704687 1_555
Ni2 Tb2 3.005923 1_564
Ni2 Tb0 3.181173 1_555
Ni2 Tb0 3.181173 1_455
Ni3 Sn4 2.497104 1_556
Ni3 Sn2 2.537990 1_565
Ni3 Sn2 2.537990 1_465
Ni3 Sn5 2.600115 1_555
Ni3 Ni7 2.692226 1_555
Ni3 Ni7 2.692226 1_455
Ni3 Tb2 2.999010 1_565
Ni3 Tb1 3.180194 1_555
Ni3 Tb1 3.180194 1_455
Ni4 Sn3 2.497077 1_555
Ni4 Sn1 2.537852 1_555
Ni4 Sn1 2.537852 1_455
Ni4 Sn4 2.593987 1_556
Ni4 Ni6 2.694670 1_455
Ni4 Ni6 2.694670 1_555
Ni4 Tb2 3.003088 1_555
Ni4 Tb1 3.178706 1_555
Ni4 Tb1 3.178706 1_455
Ni5 Sn5 2.496437 1_555
Ni5 Sn0 2.536222 1_455
Ni5 Sn0 2.536222 1_555
Ni5 Sn3 2.597091 1_555
Ni5 Ni8 2.695761 1_465
Ni5 Ni8 2.695761 1_565
Ni5 Tb2 3.005923 1_564
Ni5 Tb1 3.181173 1_455
Ni5 Tb1 3.181173 1_555
Ni6 Sn2 2.584052 1_555
Ni6 Sn1 2.584052 1_555
Ni6 Sn3 2.671185 1_555
Ni6 Sn3 2.671185 1_655
Ni6 Tb1 3.271065 1_555
Ni6 Tb0 3.271065 1_555
Ni6 Tb2 3.485716 1_555
Ni6 Tb2 3.485716 1_655
Ni7 Sn0 2.584083 1_556
Ni7 Sn2 2.586295 1_565
Ni7 Sn4 2.670271 1_556
Ni7 Sn4 2.670271 1_656
Ni7 Tb1 3.269935 1_555
Ni7 Tb0 3.275274 1_556
Ni7 Tb2 3.487795 1_665
Ni7 Tb2 3.487795 1_565
Ni8 Sn0 2.584083 1_545
Ni8 Sn1 2.586295 1_554
Ni8 Sn5 2.670271 1_645
Ni8 Sn5 2.670271 1_545
Ni8 Tb0 3.269935 1_555
Ni8 Tb1 3.275274 1_545
Ni8 Tb2 3.487795 1_554
Ni8 Tb2 3.487795 1_654
Sn0 Tb2 3.166802 1_664
Sn0 Tb2 3.166802 1_564
Sn0 Tb0 3.529769 1_555
Sn0 Tb1 3.529769 1_555
Sn1 Tb2 3.163272 1_555
Sn1 Tb2 3.163272 1_655
Sn1 Tb0 3.527827 1_556
Sn1 Tb1 3.529942 1_555
Sn2 Tb2 3.163272 1_555
Sn2 Tb2 3.163272 1_655
Sn2 Tb1 3.527827 1_545
Sn2 Tb0 3.529942 1_555
Sn3 Tb1 3.425677 1_555
Sn3 Tb1 3.425677 1_455
Sn3 Tb0 3.425677 1_555
Sn3 Tb0 3.425677 1_455
Sn4 Tb0 3.427518 1_455
Sn4 Tb0 3.427518 1_555
Sn4 Tb1 3.428549 1_554
Sn4 Tb1 3.428549 1_454
Sn5 Tb1 3.427518 1_555
Sn5 Tb1 3.427518 1_455
Sn5 Tb0 3.428549 1_565
Sn5 Tb0 3.428549 1_465
