# generated using pymatgen
data_CeMg14Cd
_symmetry_space_group_name_H-M   'P 1'
_cell_length_a   6.47592739
_cell_length_b   6.47592739
_cell_length_c   10.30142900
_cell_angle_alpha   90.00000000
_cell_angle_beta   90.00000000
_cell_angle_gamma   120.22409289
_symmetry_Int_Tables_number   1
_chemical_formula_structural   CeMg14Cd
_chemical_formula_sum   'Ce1 Mg14 Cd1'
_cell_volume   373.29049082
_cell_formula_units_Z   1
loop_
 _symmetry_equiv_pos_site_id
 _symmetry_equiv_pos_as_xyz
  1  'x, y, z'
loop_
 _atom_site_type_symbol
 _atom_site_label
 _atom_site_symmetry_multiplicity
 _atom_site_fract_x
 _atom_site_fract_y
 _atom_site_fract_z
 _atom_site_occupancy
  Ce  Ce0  1  0.83271700  0.16728300  0.50000000  1
  Mg  Mg0  1  0.83334800  0.16665200  0.00000000  1
  Mg  Mg1  1  0.33345100  0.66654900  0.00000000  1
  Mg  Mg2  1  0.33681400  0.17333400  0.50000000  1
  Mg  Mg3  1  0.33341000  0.16694700  0.00000000  1
  Mg  Mg4  1  0.82666600  0.66318600  0.50000000  1
  Mg  Mg5  1  0.83305300  0.66659000  0.00000000  1
  Mg  Mg6  1  0.16918400  0.33436300  0.24661600  1
  Mg  Mg7  1  0.16918400  0.33436300  0.75338400  1
  Mg  Mg8  1  0.66563700  0.83081600  0.24661600  1
  Mg  Mg9  1  0.66563700  0.83081600  0.75338400  1
  Mg  Mg10  1  0.66550800  0.33449200  0.24594300  1
  Mg  Mg11  1  0.66550800  0.33449200  0.75405700  1
  Mg  Mg12  1  0.16672000  0.83328000  0.25335600  1
  Mg  Mg13  1  0.16672000  0.83328000  0.74664400  1
  Cd  Cd0  1  0.33645300  0.66354700  0.50000000  1
loop_
_geom_bond_atom_site_label_1
_geom_bond_atom_site_label_2
_geom_bond_distance
_geom_bond_site_symmetry_2
Ce0 Mg9 3.218409 1_545
Ce0 Mg7 3.218409 1_655
Ce0 Mg8 3.218409 1_545
Ce0 Mg6 3.218409 1_655
Ce0 Mg10 3.221024 1_555
Ce0 Mg11 3.221024 1_555
Ce0 Mg4 3.231335 1_555
Ce0 Mg2 3.231335 1_555
Ce0 Mg2 3.244947 1_655
Ce0 Mg4 3.244947 1_545
Mg0 Mg11 3.157709 1_554
Mg0 Mg10 3.157709 1_555
Mg0 Mg6 3.160004 1_655
Mg0 Mg8 3.160004 1_545
Mg0 Mg9 3.160004 1_544
Mg0 Mg7 3.160004 1_654
Mg0 Mg1 3.226990 1_545
Mg0 Mg1 3.226990 1_655
Mg0 Mg5 3.237404 1_545
Mg0 Mg3 3.237404 1_655
Mg0 Mg3 3.238524 1_555
Mg0 Mg5 3.238524 1_555
Mg1 Mg8 3.147946 1_555
Mg1 Mg6 3.147946 1_555
Mg1 Mg9 3.147946 1_554
Mg1 Mg7 3.147946 1_554
Mg1 Mg12 3.212027 1_555
Mg1 Mg13 3.212027 1_554
Mg1 Mg5 3.235253 1_555
Mg1 Mg3 3.235253 1_555
Mg1 Mg3 3.240675 1_565
Mg1 Mg5 3.240675 1_455
Mg2 Mg4 3.161495 1_555
Mg2 Mg7 3.196690 1_555
Mg2 Mg6 3.196690 1_555
Mg2 Mg4 3.292485 1_445
Mg3 Mg6 3.149835 1_555
Mg3 Mg7 3.149835 1_554
Mg3 Mg5 3.224686 1_555
Mg3 Mg5 3.229294 1_445
Mg4 Mg9 3.196690 1_555
Mg4 Mg8 3.196690 1_555
Mg5 Mg8 3.149835 1_555
Mg5 Mg9 3.149835 1_554
Mg6 Mg8 3.204098 1_555
Mg6 Mg8 3.249882 1_445
Mg7 Mg9 3.204098 1_555
Mg7 Mg9 3.249882 1_445
Mg10 Mg3 3.142006 1_555
Mg10 Mg5 3.142006 1_555
Mg10 Mg4 3.198917 1_555
Mg10 Mg2 3.198917 1_555
Mg10 Mg6 3.213745 1_555
Mg10 Mg8 3.213745 1_555
Mg10 Mg12 3.227922 1_655
Mg10 Mg12 3.227922 1_545
Mg10 Mg8 3.262197 1_545
Mg10 Mg6 3.262197 1_655
Mg11 Mg3 3.142006 1_556
Mg11 Mg5 3.142006 1_556
Mg11 Mg4 3.198917 1_555
Mg11 Mg2 3.198917 1_555
Mg11 Mg7 3.213745 1_555
Mg11 Mg9 3.213745 1_555
Mg11 Mg13 3.227922 1_655
Mg11 Mg13 3.227922 1_545
Mg11 Mg9 3.262197 1_545
Mg11 Mg7 3.262197 1_655
Mg12 Mg4 3.174323 1_455
Mg12 Mg2 3.174323 1_565
Mg12 Mg3 3.209011 1_565
Mg12 Mg5 3.209011 1_455
Mg12 Mg6 3.237719 1_565
Mg12 Mg8 3.237719 1_455
Mg12 Mg8 3.239756 1_555
Mg12 Mg6 3.239756 1_555
Mg13 Mg4 3.174323 1_455
Mg13 Mg2 3.174323 1_565
Mg13 Mg3 3.209011 1_566
Mg13 Mg5 3.209011 1_456
Mg13 Mg7 3.237719 1_565
Mg13 Mg9 3.237719 1_455
Mg13 Mg9 3.239756 1_555
Mg13 Mg7 3.239756 1_555
Cd0 Mg2 3.175761 1_555
Cd0 Mg4 3.175761 1_555
Cd0 Mg13 3.176216 1_555
Cd0 Mg12 3.176216 1_555
Cd0 Mg9 3.194722 1_555
Cd0 Mg7 3.194722 1_555
Cd0 Mg8 3.194722 1_555
Cd0 Mg6 3.194722 1_555
Cd0 Ce0 3.227263 1_565
Cd0 Ce0 3.227263 1_455
Cd0 Mg4 3.300167 1_455
Cd0 Mg2 3.300167 1_565
