# generated using pymatgen
data_Ba2Tl2Fe3O10
_symmetry_space_group_name_H-M   'P 1'
_cell_length_a   3.68724700
_cell_length_b   3.88829576
_cell_length_c   18.27076180
_cell_angle_alpha   90.08638536
_cell_angle_beta   90.26313031
_cell_angle_gamma   90.16313636
_symmetry_Int_Tables_number   1
_chemical_formula_structural   Ba2Tl2Fe3O10
_chemical_formula_sum   'Ba2 Tl2 Fe3 O10'
_cell_volume   261.94573764
_cell_formula_units_Z   1
loop_
 _symmetry_equiv_pos_site_id
 _symmetry_equiv_pos_as_xyz
  1  'x, y, z'
loop_
 _atom_site_type_symbol
 _atom_site_label
 _atom_site_symmetry_multiplicity
 _atom_site_fract_x
 _atom_site_fract_y
 _atom_site_fract_z
 _atom_site_occupancy
  Ba  Ba0  1  0.22271900  0.20310300  0.26867800  1
  Ba  Ba1  1  0.77627800  0.70581300  0.72845900  1
  Tl  Tl0  1  0.72481200  0.69909800  0.43498000  1
  Tl  Tl1  1  0.24021300  0.19519200  0.56397700  1
  Fe  Fe0  1  0.29685200  0.20747100  0.86495500  1
  Fe  Fe1  1  0.72870500  0.70234200  0.13327100  1
  Fe  Fe2  1  0.23622000  0.70868100  0.98516900  1
  O  O0  1  0.29621700  0.70773800  0.86985800  1
  O  O1  1  0.26794900  0.20536400  0.67523200  1
  O  O2  1  0.79237300  0.20712700  0.81939400  1
  O  O3  1  0.72267100  0.72768500  0.54931300  1
  O  O4  1  0.73571500  0.70771200  0.02859400  1
  O  O5  1  0.22765000  0.70201800  0.16367800  1
  O  O6  1  0.71289400  0.70428400  0.32409700  1
  O  O7  1  0.72483700  0.20239000  0.16552500  1
  O  O8  1  0.21065600  0.22456400  0.45038100  1
  O  O9  1  0.23370800  0.20812300  0.96749300  1
loop_
_geom_bond_atom_site_label_1
_geom_bond_atom_site_label_2
_geom_bond_distance
_geom_bond_site_symmetry_2
Ba0 O7 2.624963 1_455
Ba0 O7 2.648001 1_555
Ba0 O5 2.730452 1_555
Ba0 O5 2.732414 1_545
Ba0 O6 2.836671 1_555
Ba0 O6 2.839522 1_545
Ba0 O6 2.885067 1_445
Ba0 O6 2.896390 1_455
Ba0 O8 3.321280 1_555
Ba1 O2 2.556028 1_555
Ba1 O2 2.559730 1_565
Ba1 O1 2.829694 1_665
Ba1 O1 2.837161 1_655
Ba1 O1 2.863943 1_555
Ba1 O1 2.870800 1_565
Ba1 O0 3.138415 1_555
Ba1 O0 3.210010 1_655
Ba1 O3 3.279436 1_555
Fe0 O9 1.888919 1_555
Fe0 O0 1.945304 1_545
Fe0 O0 1.947121 1_555
Fe0 O2 2.011282 1_555
Fe0 O2 2.034410 1_455
Fe1 O4 1.912967 1_555
Fe1 O5 1.919347 1_655
Fe1 O5 1.931675 1_555
Fe1 O7 2.030936 1_565
Fe1 O7 2.032202 1_555
Fe2 O9 1.969170 1_565
Fe2 O9 1.972438 1_555
Fe2 O4 2.002055 1_556
Fe2 O4 2.012149 1_456
Fe2 O0 2.119412 1_555
O1 Tl1 2.035135 1_555
O3 Tl0 2.091791 1_555
O3 Tl1 2.561671 1_565
O3 Tl1 2.644222 1_665
O3 Tl1 2.740150 1_555
O3 Tl1 2.831928 1_655
O6 Tl0 2.026324 1_555
O8 Tl1 2.081170 1_555
O8 Tl0 2.590106 1_455
O8 Tl0 2.657886 1_555
O8 Tl0 2.726851 1_445
O8 Tl0 2.805899 1_545
