# generated using pymatgen
data_KTlBr3
_symmetry_space_group_name_H-M   'P 1'
_cell_length_a   8.30564938
_cell_length_b   8.30564938
_cell_length_c   8.30564938
_cell_angle_alpha   60.00000000
_cell_angle_beta   60.00000000
_cell_angle_gamma   60.00000000
_symmetry_Int_Tables_number   1
_chemical_formula_structural   KTlBr3
_chemical_formula_sum   'K2 Tl2 Br6'
_cell_volume   405.14061514
_cell_formula_units_Z   2
loop_
 _symmetry_equiv_pos_site_id
 _symmetry_equiv_pos_as_xyz
  1  'x, y, z'
loop_
 _atom_site_type_symbol
 _atom_site_label
 _atom_site_symmetry_multiplicity
 _atom_site_fract_x
 _atom_site_fract_y
 _atom_site_fract_z
 _atom_site_occupancy
  K  K0  1  0.75000000  0.75000000  0.75000000  1
  K  K1  1  0.25000000  0.25000000  0.25000000  1
  Tl  Tl0  1  0.50000000  0.50000000  0.50000000  1
  Tl  Tl1  1  0.00000000  0.00000000  0.00000000  1
  Br  Br0  1  0.76149100  0.23850900  0.23850900  1
  Br  Br1  1  0.23850900  0.23850900  0.76149100  1
  Br  Br2  1  0.23850900  0.76149100  0.76149100  1
  Br  Br3  1  0.23850900  0.76149100  0.23850900  1
  Br  Br4  1  0.76149100  0.23850900  0.76149100  1
  Br  Br5  1  0.76149100  0.76149100  0.23850900  1
loop_
_geom_bond_atom_site_label_1
_geom_bond_atom_site_label_2
_geom_bond_distance
_geom_bond_site_symmetry_2
Br0 Tl1 2.801518 1_655
Br0 Tl0 3.071463 1_555
Br1 Tl1 2.801518 1_556
Br1 Tl0 3.071463 1_555
Br2 Tl1 2.801518 1_566
Br2 Tl0 3.071463 1_555
Br3 Tl1 2.801518 1_565
Br3 Tl0 3.071463 1_555
Br4 Tl1 2.801518 1_656
Br4 Tl0 3.071463 1_555
Br5 Tl1 2.801518 1_665
Br5 Tl0 3.071463 1_555
