# generated using pymatgen
data_ZnBi2(PO5)2
_symmetry_space_group_name_H-M   'P 1'
_cell_length_a   10.32175336
_cell_length_b   8.64581286
_cell_length_c   8.19415255
_cell_angle_alpha   75.55043884
_cell_angle_beta   54.20688096
_cell_angle_gamma   50.24268020
_symmetry_Int_Tables_number   1
_chemical_formula_structural   ZnBi2(PO5)2
_chemical_formula_sum   'Zn2 Bi4 P4 O20'
_cell_volume   446.79842720
_cell_formula_units_Z   2
loop_
 _symmetry_equiv_pos_site_id
 _symmetry_equiv_pos_as_xyz
  1  'x, y, z'
loop_
 _atom_site_type_symbol
 _atom_site_label
 _atom_site_symmetry_multiplicity
 _atom_site_fract_x
 _atom_site_fract_y
 _atom_site_fract_z
 _atom_site_occupancy
  Zn  Zn0  1  0.86561100  0.63438900  0.63438900  1
  Zn  Zn1  1  0.61561100  0.38438900  0.38438900  1
  Bi  Bi0  1  0.38459800  0.35620000  0.89810400  1
  Bi  Bi1  1  0.36109700  0.89810400  0.35620000  1
  Bi  Bi2  1  0.89380000  0.86540200  0.88890300  1
  Bi  Bi3  1  0.35189600  0.88890300  0.86540200  1
  P  P0  1  0.94572200  0.43243100  0.02286500  1
  P  P1  1  0.81756900  0.30427800  0.65101800  1
  P  P2  1  0.59898200  0.02286500  0.43243100  1
  P  P3  1  0.22713500  0.65101800  0.30427800  1
  O  O0  1  0.30176200  0.79409800  0.67914300  1
  O  O1  1  0.45590200  0.94823800  0.02500300  1
  O  O2  1  0.22499700  0.67914300  0.79409800  1
  O  O3  1  0.57085700  0.02500300  0.94823800  1
  O  O4  1  0.51576000  0.22563100  0.53299100  1
  O  O5  1  0.39278200  0.59048200  0.32876000  1
  O  O6  1  0.71700900  0.52438200  0.73424000  1
  O  O7  1  0.77863200  0.96499100  0.20654300  1
  O  O8  1  0.42255400  0.05608500  0.45308400  1
  O  O9  1  0.28500900  0.47136800  0.20016700  1
  O  O10  1  0.72561800  0.53299100  0.22563100  1
  O  O11  1  0.04345700  0.20016700  0.47136800  1
  O  O12  1  0.04983300  0.20654300  0.96499100  1
  O  O13  1  0.19391500  0.82744600  0.18172200  1
  O  O14  1  0.06827800  0.45308400  0.05608500  1
  O  O15  1  0.79691600  0.18172300  0.82744600  1
  O  O16  1  0.92124000  0.56202500  0.85721800  1
  O  O17  1  0.68797500  0.32876000  0.59048200  1
  O  O18  1  0.02436900  0.73424000  0.52438200  1
  O  O19  1  0.65951800  0.85721800  0.56202500  1
loop_
_geom_bond_atom_site_label_1
_geom_bond_atom_site_label_2
_geom_bond_distance
_geom_bond_site_symmetry_2
Bi0 O9 2.262552 1_556
Bi0 O14 2.266411 1_556
Bi0 O3 2.315094 1_555
Bi0 O2 2.409861 1_555
Bi0 O17 2.516162 1_555
Bi0 O4 2.655356 1_555
Bi1 O11 2.262543 1_565
Bi1 O8 2.266429 1_565
Bi1 O1 2.315093 1_555
Bi1 O0 2.409862 1_555
Bi1 O5 2.516162 1_555
Bi1 O10 2.655360 1_555
Bi2 O7 2.262537 1_556
Bi2 O15 2.266421 1_565
Bi2 O2 2.315091 1_655
Bi2 O3 2.409865 1_565
Bi2 O16 2.516162 1_555
Bi2 O18 2.655363 1_655
Bi3 O12 2.262545 1_565
Bi3 O13 2.266418 1_556
Bi3 O0 2.315100 1_555
Bi3 O1 2.409855 1_556
Bi3 O19 2.516162 1_555
Bi3 O6 2.655359 1_555
O0 O2 1.473067 1_555
O1 O3 1.473067 1_564
O4 P2 1.567467 1_555
O4 Zn1 1.984012 1_555
O5 P3 1.562591 1_555
O5 Zn1 2.061980 1_555
O6 P1 1.567467 1_555
O6 Zn0 1.984012 1_555
O7 P2 1.541278 1_565
O8 P2 1.556315 1_555
O9 P3 1.541273 1_555
O10 P0 1.567467 1_555
O10 Zn1 1.984012 1_555
O11 P1 1.541279 1_455
O12 P0 1.541281 1_456
O13 P3 1.556320 1_555
O14 P0 1.556325 1_455
O15 P1 1.556315 1_555
O16 P0 1.562595 1_556
O16 Zn0 2.061981 1_555
O17 P1 1.562601 1_555
O17 Zn1 2.061973 1_555
O18 P3 1.567467 1_555
O18 Zn0 1.984012 1_455
O19 P2 1.562597 1_565
O19 Zn0 2.061975 1_555
