# generated using pymatgen
data_Rb3Tm(PO4)2
_symmetry_space_group_name_H-M   'P 1'
_cell_length_a   5.69835149
_cell_length_b   5.69835149
_cell_length_c   8.27696800
_cell_angle_alpha   90.00000000
_cell_angle_beta   90.00000000
_cell_angle_gamma   119.99999405
_symmetry_Int_Tables_number   1
_chemical_formula_structural   Rb3Tm(PO4)2
_chemical_formula_sum   'Rb3 Tm1 P2 O8'
_cell_volume   232.75574107
_cell_formula_units_Z   1
loop_
 _symmetry_equiv_pos_site_id
 _symmetry_equiv_pos_as_xyz
  1  'x, y, z'
loop_
 _atom_site_type_symbol
 _atom_site_label
 _atom_site_symmetry_multiplicity
 _atom_site_fract_x
 _atom_site_fract_y
 _atom_site_fract_z
 _atom_site_occupancy
  Rb  Rb0  1  0.33333300  0.66666700  0.76207900  1
  Rb  Rb1  1  0.66666700  0.33333300  0.23792100  1
  Rb  Rb2  1  0.00000000  0.00000000  0.00000000  1
  Tm  Tm0  1  0.00000000  0.00000000  0.50000000  1
  P  P0  1  0.33333300  0.66666700  0.28216200  1
  P  P1  1  0.66666700  0.33333300  0.71783800  1
  O  O0  1  0.33333300  0.66666700  0.09672700  1
  O  O1  1  0.66666700  0.33333300  0.90327300  1
  O  O2  1  0.18421500  0.81578500  0.34601000  1
  O  O3  1  0.81578500  0.18421500  0.65399000  1
  O  O4  1  0.18421500  0.36843100  0.34601000  1
  O  O5  1  0.81578500  0.63156900  0.65399000  1
  O  O6  1  0.63156900  0.81578500  0.34601000  1
  O  O7  1  0.36843100  0.18421500  0.65399000  1
loop_
_geom_bond_atom_site_label_1
_geom_bond_atom_site_label_2
_geom_bond_distance
_geom_bond_site_symmetry_2
O0 P0 1.534840 1_555
O0 Rb0 2.769871 1_554
O0 Rb2 3.385954 1_565
O0 Rb2 3.385959 1_555
O0 Rb2 3.385959 1_665
O1 P1 1.534840 1_555
O1 Rb1 2.769871 1_556
O1 Rb2 3.385954 1_656
O1 Rb2 3.385959 1_666
O1 Rb2 3.385959 1_556
O2 P0 1.563773 1_555
O2 Tm0 2.220423 1_565
O2 Rb1 2.991354 1_455
O2 Rb1 2.991354 1_565
O2 Rb2 3.392307 1_565
O3 P1 1.563773 1_555
O3 Tm0 2.220423 1_655
O3 Rb0 2.991354 1_545
O3 Rb0 2.991354 1_655
O3 Rb2 3.392307 1_656
O4 P0 1.563773 1_555
O4 Tm0 2.220427 1_555
O4 Rb1 2.991349 1_455
O4 Rb1 2.991360 1_555
O4 Rb2 3.392310 1_555
O5 P1 1.563773 1_555
O5 Tm0 2.220427 1_665
O5 Rb0 2.991349 1_655
O5 Rb0 2.991360 1_555
O5 Rb2 3.392310 1_666
O6 P0 1.563773 1_555
O6 Tm0 2.220427 1_665
O6 Rb1 2.991349 1_565
O6 Rb1 2.991360 1_555
O6 Rb2 3.392310 1_665
O7 P1 1.563773 1_555
O7 Tm0 2.220427 1_555
O7 Rb0 2.991349 1_545
O7 Rb0 2.991360 1_555
O7 Rb2 3.392310 1_556
