# generated using pymatgen
data_Na7Cr4P9O32
_symmetry_space_group_name_H-M   'P 1'
_cell_length_a   14.29660700
_cell_length_b   6.41045600
_cell_length_c   14.29664251
_cell_angle_alpha   89.91836838
_cell_angle_beta   90.00000000
_cell_angle_gamma   90.00000000
_symmetry_Int_Tables_number   1
_chemical_formula_structural   Na7Cr4P9O32
_chemical_formula_sum   'Na14 Cr8 P18 O64'
_cell_volume   1310.25407648
_cell_formula_units_Z   2
loop_
 _symmetry_equiv_pos_site_id
 _symmetry_equiv_pos_as_xyz
  1  'x, y, z'
loop_
 _atom_site_type_symbol
 _atom_site_label
 _atom_site_symmetry_multiplicity
 _atom_site_fract_x
 _atom_site_fract_y
 _atom_site_fract_z
 _atom_site_occupancy
  Na  Na0  1  0.90731100  0.35432500  0.00687800  1
  Na  Na1  1  0.40731100  0.64567500  0.99312200  1
  Na  Na2  1  0.09270400  0.35388500  0.49316400  1
  Na  Na3  1  0.59270400  0.64611500  0.50683600  1
  Na  Na4  1  0.74322600  0.14615500  0.65721600  1
  Na  Na5  1  0.75694000  0.85432600  0.15739000  1
  Na  Na6  1  0.25694000  0.14567400  0.84261000  1
  Na  Na7  1  0.24322600  0.85384500  0.34278400  1
  Na  Na8  1  0.99995200  0.25002100  0.74996500  1
  Na  Na9  1  0.49995200  0.74997900  0.25003500  1
  Na  Na10  1  0.51412300  0.92537500  0.76388700  1
  Na  Na11  1  0.01412300  0.07462500  0.23611300  1
  Na  Na12  1  0.98611500  0.57464100  0.26413400  1
  Na  Na13  1  0.48611500  0.42535900  0.73586600  1
  Cr  Cr0  1  0.11972900  0.62367000  0.94012400  1
  Cr  Cr1  1  0.61972900  0.37633000  0.05987600  1
  Cr  Cr2  1  0.88032700  0.62380400  0.56000300  1
  Cr  Cr3  1  0.38032700  0.37619600  0.43999700  1
  Cr  Cr4  1  0.81000300  0.87622700  0.86962700  1
  Cr  Cr5  1  0.69012500  0.12365400  0.36978300  1
  Cr  Cr6  1  0.19012500  0.87634600  0.63021700  1
  Cr  Cr7  1  0.31000300  0.12377300  0.13037300  1
  P  P0  1  0.29961900  0.64855300  0.80416800  1
  P  P1  1  0.79961900  0.35144700  0.19583200  1
  P  P2  1  0.70029900  0.64678400  0.69597000  1
  P  P3  1  0.20029900  0.35321600  0.30403000  1
  P  P4  1  0.94580600  0.85138700  0.04962500  1
  P  P5  1  0.55400500  0.14667800  0.54968700  1
  P  P6  1  0.05400500  0.85332200  0.45031300  1
  P  P7  1  0.44580600  0.14861300  0.95037500  1
  P  P8  1  0.11511000  0.10842200  0.99846600  1
  P  P9  1  0.61511000  0.89157800  0.00153400  1
  P  P10  1  0.88489800  0.10849300  0.50131200  1
  P  P11  1  0.38489800  0.89150700  0.49868800  1
  P  P12  1  0.75131800  0.39153600  0.86511800  1
  P  P13  1  0.74847400  0.60841200  0.36509100  1
  P  P14  1  0.24847400  0.39158800  0.63490900  1
  P  P15  1  0.25131800  0.60846400  0.13488200  1
  P  P16  1  0.00002400  0.75001900  0.74998800  1
  P  P17  1  0.50002400  0.24998100  0.25001200  1
  O  O0  1  0.16623400  0.63027800  0.07258300  1
  O  O1  1  0.66623400  0.36972200  0.92741700  1
  O  O2  1  0.83417200  0.62990700  0.42691200  1
  O  O3  1  0.33417200  0.37009300  0.57308800  1
  O  O4  1  0.67693000  0.87017700  0.91583400  1
  O  O5  1  0.82260500  0.13032600  0.41622700  1
  O  O6  1  0.32260500  0.86967400  0.58377300  1
  O  O7  1  0.17693000  0.12982300  0.08416600  1
  O  O8  1  0.06002100  0.60170900  0.81239100  1
  O  O9  1  0.56002100  0.39829100  0.18760900  1
  O  O10  1  0.94000600  0.60175700  0.68767000  1
  O  O11  1  0.44000600  0.39824300  0.31233000  1
  O  O12  1  0.93765200  0.89827600  0.80997800  1
  O  O13  1  0.56237400  0.10170500  0.31003500  1
  O  O14  1  0.06237400  0.89829500  0.68996500  1
  O  O15  1  0.43765200  0.10172400  0.19002200  1
  O  O16  1  0.14055400  0.93287400  0.93051200  1
  O  O17  1  0.64055400  0.06712600  0.06948800  1
  O  O18  1  0.85943900  0.93259500  0.56949500  1
  O  O19  1  0.35943900  0.06740500  0.43050500  1
  O  O20  1  0.81946000  0.56730600  0.89055300  1
  O  O21  1  0.68048100  0.43272600  0.39055600  1
  O  O22  1  0.18048100  0.56727400  0.60944400  1
  O  O23  1  0.31946000  0.43269400  0.10944700  1
  O  O24  1  0.99319900  0.66972900  0.99939700  1
  O  O25  1  0.49319900  0.33027100  0.00060300  1
  O  O26  1  0.00679500  0.66972300  0.50005100  1
  O  O27  1  0.50679500  0.33027700  0.49994900  1
  O  O28  1  0.75000700  0.83021100  0.74318500  1
  O  O29  1  0.74935500  0.16961900  0.24321100  1
  O  O30  1  0.24935500  0.83038100  0.75678900  1
  O  O31  1  0.25000700  0.16978900  0.25681500  1
  O  O32  1  0.25223000  0.57818200  0.89580900  1
  O  O33  1  0.75223000  0.42181800  0.10419100  1
  O  O34  1  0.74777100  0.57819600  0.60414400  1
  O  O35  1  0.24777100  0.42180400  0.39585600  1
  O  O36  1  0.85415900  0.92174200  0.00221000  1
  O  O37  1  0.64582200  0.07807600  0.50224400  1
  O  O38  1  0.14582200  0.92192400  0.49775600  1
  O  O39  1  0.35415900  0.07825800  0.99779000  1
  O  O40  1  0.10134300  0.30823700  0.94113500  1
  O  O41  1  0.60134300  0.69176300  0.05886500  1
  O  O42  1  0.89871000  0.30821200  0.55876500  1
  O  O43  1  0.39871000  0.69178800  0.44123500  1
  O  O44  1  0.80880400  0.19176300  0.85132400  1
  O  O45  1  0.69117800  0.80816400  0.35130800  1
  O  O46  1  0.19117800  0.19183600  0.64869200  1
  O  O47  1  0.30880400  0.80823700  0.14867600  1
  O  O48  1  0.01190400  0.06039100  0.04098100  1
  O  O49  1  0.51190400  0.93960900  0.95901900  1
  O  O50  1  0.98816500  0.06083300  0.45963700  1
  O  O51  1  0.48816500  0.93916700  0.54036300  1
  O  O52  1  0.70965000  0.43920300  0.76183700  1
  O  O53  1  0.79099900  0.56039200  0.26189700  1
  O  O54  1  0.29099900  0.43960800  0.73810300  1
  O  O55  1  0.20965000  0.56079700  0.23816300  1
  O  O56  1  0.40353300  0.68061900  0.81930500  1
  O  O57  1  0.90353300  0.31938100  0.18069500  1
  O  O58  1  0.59643100  0.67938900  0.68055300  1
  O  O59  1  0.09643100  0.32061100  0.31944700  1
  O  O60  1  0.93067800  0.81934900  0.15353700  1
  O  O61  1  0.56943200  0.17931800  0.65355500  1
  O  O62  1  0.06943200  0.82068200  0.34644500  1
  O  O63  1  0.43067800  0.18065100  0.84646300  1
loop_
_geom_bond_atom_site_label_1
_geom_bond_atom_site_label_2
_geom_bond_distance
_geom_bond_site_symmetry_2
Na0 O24 2.367824 1_554
Na0 O48 2.453873 1_655
Na0 O20 2.490143 1_554
Na0 O57 2.495342 1_555
Na0 O33 2.653330 1_555
Na0 O44 2.832252 1_554
Na0 O36 2.876152 1_545
Na0 O40 2.943904 1_654
Na1 O25 2.367824 1_556
Na1 O49 2.453873 1_555
Na1 O23 2.490143 1_556
Na1 O56 2.495342 1_555
Na1 O32 2.653330 1_555
Na1 O47 2.832252 1_556
Na1 O39 2.876152 1_565
Na1 O41 2.943904 1_556
Na2 O26 2.370238 1_555
Na2 O50 2.448496 1_455
Na2 O22 2.493213 1_555
Na2 O59 2.493585 1_555
Na2 O35 2.652923 1_555
Na2 O46 2.828187 1_555
Na2 O38 2.871972 1_545
Na2 O42 2.942211 1_455
Na3 O27 2.370238 1_555
Na3 O51 2.448496 1_555
Na3 O21 2.493213 1_555
Na3 O58 2.493585 1_555
Na3 O34 2.652923 1_555
Na3 O45 2.828187 1_555
Na3 O37 2.871972 1_565
Na3 O43 2.942211 1_555
Na4 O28 2.369586 1_545
Na4 O52 2.450442 1_555
Na4 O18 2.492454 1_545
Na4 O61 2.494285 1_555
Na4 O37 2.653525 1_555
Na4 O42 2.827972 1_555
Na4 O34 2.871326 1_555
Na4 O44 2.944133 1_555
Na5 O29 2.368411 1_565
Na5 O53 2.451900 1_555
Na5 O17 2.490774 1_565
Na5 O60 2.494579 1_555
Na5 O36 2.652893 1_555
Na5 O41 2.832435 1_555
Na5 O33 2.876833 1_555
Na5 O45 2.941977 1_555
Na6 O30 2.368411 1_545
Na6 O54 2.451900 1_555
Na6 O16 2.490774 1_545
Na6 O63 2.494579 1_555
Na6 O39 2.652893 1_555
Na6 O40 2.832435 1_555
Na6 O32 2.876833 1_555
Na6 O46 2.941977 1_555
Na7 O31 2.369586 1_565
Na7 O55 2.450442 1_555
Na7 O19 2.492454 1_565
Na7 O62 2.494285 1_555
Na7 O38 2.653525 1_555
Na7 O43 2.827972 1_555
Na7 O35 2.871326 1_555
Na7 O47 2.944133 1_555
Na8 O10 2.570219 1_555
Na8 O12 2.570654 1_545
Na8 O14 2.573233 1_645
Na8 O8 2.573412 1_655
Na9 O11 2.570219 1_555
Na9 O15 2.570654 1_565
Na9 O13 2.573233 1_565
Na9 O9 2.573412 1_555
Na10 O58 2.301308 1_555
Na10 O63 2.345282 1_565
Na10 O56 2.363407 1_555
Na10 O61 2.399184 1_565
Na10 O49 2.791534 1_555
Na11 O59 2.301308 1_555
Na11 O60 2.345282 1_445
Na11 O57 2.363407 1_455
Na11 O62 2.399184 1_545
Na11 O48 2.791534 1_555
Na12 O62 2.301432 1_655
Na12 O57 2.345223 1_555
Na12 O60 2.362617 1_555
Na12 O59 2.400189 1_655
Na12 O53 2.791177 1_555
Na13 O61 2.301432 1_555
Na13 O56 2.345223 1_555
Na13 O63 2.362617 1_555
Na13 O58 2.400189 1_555
Na13 O54 2.791177 1_555
Cr0 O0 2.007545 1_556
Cr0 O16 2.008886 1_555
Cr0 O32 2.018756 1_555
Cr0 O24 2.019476 1_455
Cr0 O8 2.020905 1_555
Cr0 O40 2.039114 1_555
Cr1 O1 2.007545 1_554
Cr1 O17 2.008886 1_555
Cr1 O33 2.018756 1_555
Cr1 O25 2.019476 1_555
Cr1 O9 2.020905 1_555
Cr1 O41 2.039114 1_555
Cr2 O18 2.006675 1_555
Cr2 O2 2.014251 1_555
Cr2 O34 2.018566 1_555
Cr2 O10 2.019552 1_555
Cr2 O26 2.022292 1_655
Cr2 O42 2.040190 1_555
Cr3 O19 2.006675 1_555
Cr3 O3 2.014251 1_555
Cr3 O35 2.018566 1_555
Cr3 O11 2.019552 1_555
Cr3 O27 2.022292 1_555
Cr3 O43 2.040190 1_555
Cr4 O20 2.006933 1_555
Cr4 O4 2.014276 1_555
Cr4 O12 2.019233 1_555
Cr4 O36 2.019433 1_556
Cr4 O28 2.022873 1_555
Cr4 O44 2.039287 1_565
Cr5 O5 2.007508 1_555
Cr5 O21 2.008583 1_555
Cr5 O37 2.017732 1_555
Cr5 O29 2.019119 1_555
Cr5 O13 2.021274 1_555
Cr5 O45 2.040038 1_545
Cr6 O6 2.007508 1_555
Cr6 O22 2.008583 1_555
Cr6 O38 2.017732 1_555
Cr6 O30 2.019119 1_555
Cr6 O14 2.021274 1_555
Cr6 O46 2.040038 1_565
Cr7 O23 2.006933 1_555
Cr7 O7 2.014276 1_555
Cr7 O15 2.019233 1_555
Cr7 O39 2.019433 1_554
Cr7 O31 2.022873 1_555
Cr7 O47 2.039287 1_545
O0 P15 1.513983 1_555
O1 P12 1.513983 1_555
O2 P13 1.517098 1_555
O3 P14 1.517098 1_555
O4 P9 1.517103 1_556
O5 P10 1.513914 1_555
O6 P11 1.513914 1_555
O7 P8 1.517103 1_554
O8 P16 1.559858 1_555
O9 P17 1.559858 1_555
O10 P16 1.560689 1_655
O11 P17 1.560689 1_555
O12 P16 1.560862 1_655
O13 P17 1.559526 1_555
O14 P16 1.559526 1_555
O15 P17 1.560862 1_555
O16 P8 1.531560 1_565
O17 P9 1.531560 1_545
O18 P10 1.533300 1_565
O19 P11 1.533300 1_545
O20 P12 1.533644 1_555
O21 P13 1.531235 1_555
O22 P14 1.531235 1_555
O23 P15 1.533644 1_555
O24 P4 1.527485 1_556
O25 P7 1.527485 1_554
O26 P6 1.531021 1_555
O27 P5 1.531021 1_555
O28 P2 1.531524 1_555
O29 P1 1.526953 1_555
O30 P0 1.526953 1_555
O31 P3 1.531524 1_555
O32 P0 1.541863 1_555
O33 P1 1.541863 1_555
O34 P2 1.542412 1_555
O35 P3 1.542412 1_555
O36 P4 1.542331 1_555
O37 P5 1.541886 1_555
O38 P6 1.541886 1_555
O39 P7 1.542331 1_555
O40 P8 1.532409 1_555
O41 P9 1.532409 1_555
O42 P10 1.534863 1_555
O43 P11 1.534863 1_555
O44 P12 1.534628 1_555
O45 P13 1.532573 1_555
O46 P14 1.532573 1_555
O47 P15 1.534628 1_555
O48 P8 1.625055 1_554
O48 P4 1.644042 1_445
O49 P9 1.625055 1_556
O49 P7 1.644042 1_565
O50 P10 1.621270 1_555
O50 P6 1.635187 1_645
O51 P11 1.621270 1_555
O51 P5 1.635187 1_565
O52 P12 1.620870 1_555
O52 P2 1.634561 1_555
O53 P13 1.625504 1_555
O53 P1 1.644678 1_555
O54 P14 1.625504 1_555
O54 P0 1.644678 1_555
O55 P15 1.620870 1_555
O55 P3 1.634561 1_555
O56 P0 1.515346 1_555
O57 P1 1.515346 1_555
O58 P2 1.515666 1_555
O59 P3 1.515666 1_555
O60 P4 1.514950 1_555
O61 P5 1.516056 1_555
O62 P6 1.516056 1_555
O63 P7 1.514950 1_555
