# generated using pymatgen
data_DyY(FeO3)2
_symmetry_space_group_name_H-M   'P 1'
_cell_length_a   5.35546100
_cell_length_b   5.64675100
_cell_length_c   7.73693300
_cell_angle_alpha   90.00000000
_cell_angle_beta   90.00000000
_cell_angle_gamma   90.00000000
_symmetry_Int_Tables_number   1
_chemical_formula_structural   DyY(FeO3)2
_chemical_formula_sum   'Dy2 Y2 Fe4 O12'
_cell_volume   233.97224081
_cell_formula_units_Z   2
loop_
 _symmetry_equiv_pos_site_id
 _symmetry_equiv_pos_as_xyz
  1  'x, y, z'
loop_
 _atom_site_type_symbol
 _atom_site_label
 _atom_site_symmetry_multiplicity
 _atom_site_fract_x
 _atom_site_fract_y
 _atom_site_fract_z
 _atom_site_occupancy
  Dy  Dy0  1  0.76973900  0.93348700  0.50000000  1
  Dy  Dy1  1  0.23026100  0.43348700  0.50000000  1
  Y  Y0  1  0.73049400  0.06614800  0.00000000  1
  Y  Y1  1  0.26950600  0.56614800  0.00000000  1
  Fe  Fe0  1  0.25008400  0.99990300  0.74952600  1
  Fe  Fe1  1  0.74991600  0.49990300  0.25047400  1
  Fe  Fe2  1  0.25008400  0.99990300  0.25047400  1
  Fe  Fe3  1  0.74991600  0.49990300  0.74952600  1
  O  O0  1  0.55633500  0.80374200  0.80972600  1
  O  O1  1  0.44366500  0.30374200  0.19027400  1
  O  O2  1  0.94412700  0.19637800  0.31104300  1
  O  O3  1  0.05587300  0.69637800  0.68895700  1
  O  O4  1  0.94412700  0.19637800  0.68895700  1
  O  O5  1  0.05587300  0.69637800  0.31104300  1
  O  O6  1  0.55633500  0.80374200  0.19027400  1
  O  O7  1  0.44366500  0.30374200  0.80972600  1
  O  O8  1  0.86568100  0.45631900  0.00000000  1
  O  O9  1  0.13431900  0.95631900  0.00000000  1
  O  O10  1  0.63281600  0.54399900  0.50000000  1
  O  O11  1  0.36718400  0.04399900  0.50000000  1
loop_
_geom_bond_atom_site_label_1
_geom_bond_atom_site_label_2
_geom_bond_distance
_geom_bond_site_symmetry_2
Dy0 O11 2.244367 1_565
Dy0 O4 2.283242 1_565
Dy0 O2 2.283242 1_565
Dy0 O10 2.318364 1_555
Dy0 O3 2.505617 1_655
Dy0 O5 2.505617 1_655
Dy0 O6 2.754146 1_555
Dy0 O0 2.754146 1_555
Dy1 O10 2.244367 1_555
Dy1 O3 2.283242 1_555
Dy1 O5 2.283242 1_555
Dy1 O11 2.318364 1_555
Dy1 O4 2.505617 1_455
Dy1 O2 2.505617 1_455
Dy1 O7 2.754146 1_555
Dy1 O1 2.754146 1_555
Fe0 O0 2.033188 1_555
Fe0 O4 2.033541 1_465
Fe0 O11 2.045084 1_565
Fe0 O9 2.049487 1_556
Fe0 O7 2.057997 1_565
Fe0 O3 2.058870 1_555
Fe1 O1 2.033188 1_555
Fe1 O5 2.033541 1_655
Fe1 O10 2.045084 1_555
Fe1 O8 2.049487 1_555
Fe1 O6 2.057997 1_555
Fe1 O2 2.058870 1_555
Fe2 O6 2.033188 1_555
Fe2 O2 2.033541 1_465
Fe2 O11 2.045084 1_565
Fe2 O9 2.049487 1_555
Fe2 O1 2.057997 1_565
Fe2 O5 2.058870 1_555
Fe3 O7 2.033188 1_555
Fe3 O3 2.033541 1_655
Fe3 O10 2.045084 1_555
Fe3 O8 2.049487 1_556
Fe3 O0 2.057997 1_555
Fe3 O4 2.058870 1_555
O0 Y0 2.287505 1_566
O0 Y1 2.515309 1_556
O1 Y1 2.287505 1_555
O1 Y0 2.515309 1_555
O2 Y0 2.764251 1_555
O3 Y1 2.764251 1_556
O4 Y0 2.764251 1_556
O5 Y1 2.764251 1_555
O6 Y0 2.287505 1_565
O6 Y1 2.515309 1_555
O7 Y1 2.287505 1_556
O7 Y0 2.515309 1_556
O8 Y1 2.249835 1_655
O8 Y0 2.319104 1_555
O9 Y0 2.249835 1_465
O9 Y1 2.319104 1_555
