# generated using pymatgen
data_LiMnCo3O8
_symmetry_space_group_name_H-M   'P 1'
_cell_length_a   5.67450139
_cell_length_b   6.00265287
_cell_length_c   8.32696158
_cell_angle_alpha   85.99304567
_cell_angle_beta   90.00562711
_cell_angle_gamma   90.06942124
_symmetry_Int_Tables_number   1
_chemical_formula_structural   LiMnCo3O8
_chemical_formula_sum   'Li2 Mn2 Co6 O16'
_cell_volume   282.93995366
_cell_formula_units_Z   2
loop_
 _symmetry_equiv_pos_site_id
 _symmetry_equiv_pos_as_xyz
  1  'x, y, z'
loop_
 _atom_site_type_symbol
 _atom_site_label
 _atom_site_symmetry_multiplicity
 _atom_site_fract_x
 _atom_site_fract_y
 _atom_site_fract_z
 _atom_site_occupancy
  Li  Li0  1  0.00006500  0.00000400  0.50003000  1
  Li  Li1  1  0.49999300  0.50000200  0.99999100  1
  Mn  Mn0  1  0.50013400  0.50007200  0.49986400  1
  Mn  Mn1  1  0.99985200  0.00000100  0.00006800  1
  Co  Co0  1  0.49997500  0.00001700  0.99999100  1
  Co  Co1  1  0.99996000  0.50001200  0.50001400  1
  Co  Co2  1  0.24863600  0.74837400  0.24640300  1
  Co  Co3  1  0.75140900  0.25158500  0.75362900  1
  Co  Co4  1  0.75087400  0.74848900  0.24657600  1
  Co  Co5  1  0.24904500  0.25146100  0.75349100  1
  O  O0  1  0.49993900  0.95287800  0.23041500  1
  O  O1  1  0.00055900  0.45208900  0.74720000  1
  O  O2  1  0.50007000  0.04715600  0.76960700  1
  O  O3  1  0.99944900  0.54794500  0.25280500  1
  O  O4  1  0.75303600  0.28352900  0.52455500  1
  O  O5  1  0.25330800  0.78312100  0.01990700  1
  O  O6  1  0.24813200  0.28244400  0.52470100  1
  O  O7  1  0.74621300  0.78314600  0.01995800  1
  O  O8  1  0.99988500  0.03646300  0.76636800  1
  O  O9  1  0.49957100  0.53529800  0.26420200  1
  O  O10  1  0.00009800  0.96357400  0.23362500  1
  O  O11  1  0.50041500  0.46475100  0.73574800  1
  O  O12  1  0.75187500  0.71756800  0.47525700  1
  O  O13  1  0.25375200  0.21676300  0.98004800  1
  O  O14  1  0.24698800  0.71652300  0.47544600  1
  O  O15  1  0.74676600  0.21673500  0.98010300  1
loop_
_geom_bond_atom_site_label_1
_geom_bond_atom_site_label_2
_geom_bond_distance
_geom_bond_site_symmetry_2
Li0 O6 2.222809 1_555
Li0 O12 2.223356 1_445
Li0 O14 2.226041 1_545
Li0 O4 2.226552 1_455
Li0 O8 2.243726 1_455
Li0 O10 2.244252 1_545
Li1 O7 2.214075 1_556
Li1 O13 2.214565 1_555
Li1 O5 2.218189 1_556
Li1 O15 2.219161 1_555
Li1 O9 2.224943 1_556
Li1 O11 2.225164 1_555
Mn0 O12 1.935260 1_555
Mn0 O6 1.936993 1_555
Mn0 O4 1.938670 1_555
Mn0 O14 1.939197 1_555
Mn0 O9 1.958965 1_555
Mn0 O11 1.960822 1_555
Mn1 O15 1.938280 1_554
Mn1 O7 1.938751 1_545
Mn1 O13 1.939521 1_654
Mn1 O5 1.940380 1_645
Mn1 O10 1.941831 1_645
Mn1 O8 1.943023 1_554
Co0 O15 1.909557 1_555
Co0 O13 1.909613 1_555
Co0 O5 1.909772 1_546
Co0 O7 1.910191 1_546
Co0 O2 1.919494 1_555
Co0 O0 1.919823 1_546
Co1 O4 1.911073 1_555
Co1 O14 1.911631 1_655
Co1 O12 1.922619 1_555
Co1 O6 1.922995 1_655
Co1 O1 2.058312 1_655
Co1 O3 2.058505 1_555
Co2 O3 1.853824 1_455
Co2 O0 1.879130 1_555
Co2 O5 1.883165 1_555
Co2 O14 1.903474 1_555
Co2 O10 1.911596 1_555
Co2 O9 1.913980 1_555
Co3 O1 1.853951 1_655
Co3 O2 1.878991 1_555
Co3 O15 1.883006 1_555
Co3 O4 1.903748 1_555
Co3 O8 1.911018 1_555
Co3 O11 1.914609 1_555
Co4 O3 1.853864 1_555
Co4 O0 1.879371 1_555
Co4 O7 1.884154 1_555
Co4 O12 1.900298 1_555
Co4 O10 1.911724 1_655
Co4 O9 1.913662 1_555
Co5 O1 1.853797 1_555
Co5 O2 1.879422 1_555
Co5 O13 1.883663 1_555
Co5 O6 1.901211 1_555
Co5 O8 1.911100 1_455
Co5 O11 1.914369 1_555
