# generated using pymatgen
data_MoW3(SeS)4
_symmetry_space_group_name_H-M   'P 1'
_cell_length_a   3.25322346
_cell_length_b   3.25322346
_cell_length_c   40.14898800
_cell_angle_alpha   90.00000000
_cell_angle_beta   90.00000000
_cell_angle_gamma   119.99998894
_symmetry_Int_Tables_number   1
_chemical_formula_structural   MoW3(SeS)4
_chemical_formula_sum   'Mo1 W3 Se4 S4'
_cell_volume   367.98750532
_cell_formula_units_Z   1
loop_
 _symmetry_equiv_pos_site_id
 _symmetry_equiv_pos_as_xyz
  1  'x, y, z'
loop_
 _atom_site_type_symbol
 _atom_site_label
 _atom_site_symmetry_multiplicity
 _atom_site_fract_x
 _atom_site_fract_y
 _atom_site_fract_z
 _atom_site_occupancy
  Mo  Mo0  1  0.00000000  0.00000000  0.09347600  1
  W  W0  1  0.00000000  0.00000000  0.46959100  1
  W  W1  1  0.33333300  0.66666700  0.28188000  1
  W  W2  1  0.33333300  0.66666700  0.65795000  1
  Se  Se0  1  0.00000000  0.00000000  0.32443600  1
  Se  Se1  1  0.33333300  0.66666700  0.05121100  1
  Se  Se2  1  0.33333300  0.66666700  0.13574400  1
  Se  Se3  1  0.00000000  0.00000000  0.23935100  1
  S  S0  1  0.00000000  0.00000000  0.69662900  1
  S  S1  1  0.33333300  0.66666700  0.43095500  1
  S  S2  1  0.33333300  0.66666700  0.50822200  1
  S  S3  1  0.00000000  0.00000000  0.61930200  1
loop_
_geom_bond_atom_site_label_1
_geom_bond_atom_site_label_2
_geom_bond_distance
_geom_bond_site_symmetry_2
Mo0 Se1 2.531259 1_545
Mo0 Se1 2.531261 1_445
Mo0 Se1 2.531261 1_555
Mo0 Se2 2.531340 1_545
Mo0 Se2 2.531342 1_445
Mo0 Se2 2.531342 1_555
Se0 W1 2.539106 1_545
Se0 W1 2.539109 1_555
Se0 W1 2.539109 1_445
Se3 W1 2.538377 1_545
Se3 W1 2.538379 1_555
Se3 W1 2.538379 1_445
S0 W2 2.437085 1_545
S0 W2 2.437087 1_555
S0 W2 2.437087 1_445
S1 W0 2.435985 1_565
S1 W0 2.435988 1_665
S1 W0 2.435988 1_555
S2 W0 2.435857 1_565
S2 W0 2.435860 1_665
S2 W0 2.435860 1_555
S3 W2 2.436292 1_545
S3 W2 2.436294 1_555
S3 W2 2.436294 1_445
