# generated using pymatgen
data_Zr4Pd2N
_symmetry_space_group_name_H-M   'P 1'
_cell_length_a   8.88385625
_cell_length_b   8.88385625
_cell_length_c   8.88385625
_cell_angle_alpha   60.00000000
_cell_angle_beta   60.00000000
_cell_angle_gamma   60.00000000
_symmetry_Int_Tables_number   1
_chemical_formula_structural   Zr4Pd2N
_chemical_formula_sum   'Zr16 Pd8 N4'
_cell_volume   495.78064767
_cell_formula_units_Z   4
loop_
 _symmetry_equiv_pos_site_id
 _symmetry_equiv_pos_as_xyz
  1  'x, y, z'
loop_
 _atom_site_type_symbol
 _atom_site_label
 _atom_site_symmetry_multiplicity
 _atom_site_fract_x
 _atom_site_fract_y
 _atom_site_fract_z
 _atom_site_occupancy
  Zr  Zr0  1  0.12500000  0.62500000  0.62500000  1
  Zr  Zr1  1  0.62500000  0.12500000  0.62500000  1
  Zr  Zr2  1  0.62500000  0.62500000  0.12500000  1
  Zr  Zr3  1  0.62500000  0.62500000  0.62500000  1
  Zr  Zr4  1  0.81944000  0.81944000  0.18056000  1
  Zr  Zr5  1  0.18056000  0.18056000  0.81944000  1
  Zr  Zr6  1  0.81944000  0.18056000  0.81944000  1
  Zr  Zr7  1  0.18056000  0.81944000  0.18056000  1
  Zr  Zr8  1  0.18056000  0.81944000  0.81944000  1
  Zr  Zr9  1  0.81944000  0.18056000  0.18056000  1
  Zr  Zr10  1  0.43056000  0.43056000  0.06944000  1
  Zr  Zr11  1  0.06944000  0.06944000  0.43056000  1
  Zr  Zr12  1  0.43056000  0.06944000  0.43056000  1
  Zr  Zr13  1  0.06944000  0.43056000  0.06944000  1
  Zr  Zr14  1  0.06944000  0.43056000  0.43056000  1
  Zr  Zr15  1  0.43056000  0.06944000  0.06944000  1
  Pd  Pd0  1  0.76726200  0.41091300  0.41091300  1
  Pd  Pd1  1  0.41091300  0.76726200  0.41091300  1
  Pd  Pd2  1  0.41091300  0.41091300  0.76726200  1
  Pd  Pd3  1  0.41091300  0.41091300  0.41091300  1
  Pd  Pd4  1  0.48273800  0.83908700  0.83908700  1
  Pd  Pd5  1  0.83908700  0.48273800  0.83908700  1
  Pd  Pd6  1  0.83908700  0.83908700  0.48273800  1
  Pd  Pd7  1  0.83908700  0.83908700  0.83908700  1
  N  N0  1  0.62500000  0.12500000  0.12500000  1
  N  N1  1  0.12500000  0.62500000  0.12500000  1
  N  N2  1  0.12500000  0.12500000  0.62500000  1
  N  N3  1  0.12500000  0.12500000  0.12500000  1
loop_
_geom_bond_atom_site_label_1
_geom_bond_atom_site_label_2
_geom_bond_distance
_geom_bond_site_symmetry_2
Pd0 Zr3 2.764369 1_555
Pd0 Zr2 2.764376 1_555
Pd0 Zr1 2.764376 1_555
Pd0 Zr14 2.869683 1_655
Pd0 Zr11 2.869688 1_655
Pd0 Zr13 2.869688 1_655
Pd1 Zr3 2.764369 1_555
Pd1 Zr0 2.764376 1_555
Pd1 Zr2 2.764376 1_555
Pd1 Zr12 2.869683 1_565
Pd1 Zr11 2.869688 1_565
Pd1 Zr15 2.869688 1_565
Pd2 Zr3 2.764369 1_555
Pd2 Zr0 2.764376 1_555
Pd2 Zr1 2.764376 1_555
Pd2 Zr10 2.869683 1_556
Pd2 Zr15 2.869688 1_556
Pd2 Zr13 2.869688 1_556
Pd3 Zr2 2.764371 1_555
Pd3 Zr0 2.764371 1_555
Pd3 Zr1 2.764371 1_555
Pd3 Zr10 2.869692 1_555
Pd3 Zr14 2.869692 1_555
Pd3 Zr12 2.869692 1_555
Pd4 Zr3 2.764369 1_555
Pd4 Zr1 2.764376 1_565
Pd4 Zr2 2.764376 1_556
Pd4 Zr8 2.869683 1_555
Pd4 Zr5 2.869688 1_565
Pd4 Zr7 2.869688 1_556
Pd5 Zr3 2.764369 1_555
Pd5 Zr0 2.764376 1_655
Pd5 Zr2 2.764376 1_556
Pd5 Zr6 2.869683 1_555
Pd5 Zr9 2.869688 1_556
Pd5 Zr5 2.869688 1_655
Pd6 Zr3 2.764369 1_555
Pd6 Zr1 2.764376 1_565
Pd6 Zr0 2.764376 1_655
Pd6 Zr4 2.869683 1_555
Pd6 Zr9 2.869688 1_565
Pd6 Zr7 2.869688 1_655
Pd7 Zr1 2.764371 1_565
Pd7 Zr2 2.764371 1_556
Pd7 Zr0 2.764371 1_655
Pd7 Zr6 2.869692 1_565
Pd7 Zr8 2.869692 1_655
Pd7 Zr4 2.869692 1_556
N0 Zr10 2.328076 1_555
N0 Zr9 2.328076 1_555
N0 Zr15 2.328076 1_555
N0 Zr12 2.328076 1_555
N0 Zr6 2.328076 1_554
N0 Zr4 2.328076 1_545
N1 Zr7 2.328076 1_555
N1 Zr10 2.328076 1_555
N1 Zr14 2.328076 1_555
N1 Zr4 2.328076 1_455
N1 Zr13 2.328076 1_555
N1 Zr8 2.328076 1_554
N2 Zr5 2.328076 1_555
N2 Zr11 2.328076 1_555
N2 Zr14 2.328076 1_555
N2 Zr6 2.328076 1_455
N2 Zr12 2.328076 1_555
N2 Zr8 2.328076 1_545
N3 Zr11 2.328076 1_555
N3 Zr15 2.328076 1_555
N3 Zr13 2.328076 1_555
N3 Zr9 2.328076 1_455
N3 Zr5 2.328076 1_554
N3 Zr7 2.328076 1_545
