# generated using pymatgen
data_YMg14Zn
_symmetry_space_group_name_H-M   'P 1'
_cell_length_a   6.43284221
_cell_length_b   6.36854046
_cell_length_c   10.33954281
_cell_angle_alpha   90.00000000
_cell_angle_beta   90.00000000
_cell_angle_gamma   119.66989242
_symmetry_Int_Tables_number   1
_chemical_formula_structural   YMg14Zn
_chemical_formula_sum   'Y1 Mg14 Zn1'
_cell_volume   368.05253928
_cell_formula_units_Z   1
loop_
 _symmetry_equiv_pos_site_id
 _symmetry_equiv_pos_as_xyz
  1  'x, y, z'
loop_
 _atom_site_type_symbol
 _atom_site_label
 _atom_site_symmetry_multiplicity
 _atom_site_fract_x
 _atom_site_fract_y
 _atom_site_fract_z
 _atom_site_occupancy
  Y  Y0  1  0.15805857  0.32902878  0.12500000  1
  Mg  Mg0  1  0.16804181  0.33402040  0.62500000  1
  Mg  Mg1  1  0.16401499  0.83200699  0.62500000  1
  Mg  Mg2  1  0.65196640  0.31573166  0.12500000  1
  Mg  Mg3  1  0.66600690  0.33648850  0.62500000  1
  Mg  Mg4  1  0.65196640  0.83623374  0.12500000  1
  Mg  Mg5  1  0.66600690  0.82951740  0.62500000  1
  Mg  Mg6  1  0.33393114  0.16383217  0.37708094  1
  Mg  Mg7  1  0.33393114  0.16383217  0.87291906  1
  Mg  Mg8  1  0.33393114  0.67009996  0.37708094  1
  Mg  Mg9  1  0.33393114  0.67009996  0.87291906  1
  Mg  Mg10  1  0.83251252  0.16625676  0.38222680  1
  Mg  Mg11  1  0.83251252  0.16625676  0.86777320  1
  Mg  Mg12  1  0.83983250  0.66991675  0.36294177  1
  Mg  Mg13  1  0.83983250  0.66991675  0.88705823  1
  Zn  Zn0  1  0.19352344  0.84676122  0.12500000  1
loop_
_geom_bond_atom_site_label_1
_geom_bond_atom_site_label_2
_geom_bond_distance
_geom_bond_site_symmetry_2
Y0 Zn0 3.190434 1_545
Y0 Zn0 3.190434 1_555
Mg0 Mg11 3.133390 1_455
Mg0 Mg10 3.133390 1_455
Mg0 Mg6 3.166930 1_555
Mg0 Mg7 3.166930 1_555
Mg0 Mg9 3.166936 1_555
Mg0 Mg8 3.166936 1_555
Mg0 Mg1 3.184350 1_545
Mg0 Mg1 3.184350 1_555
Mg0 Mg5 3.195579 1_555
Mg0 Mg3 3.195579 1_555
Mg0 Mg5 3.237320 1_445
Mg0 Mg3 3.237321 1_455
Mg1 Mg8 3.153503 1_555
Mg1 Mg9 3.153503 1_555
Mg1 Mg7 3.153510 1_565
Mg1 Mg6 3.153510 1_565
Mg1 Mg3 3.195789 1_455
Mg1 Mg5 3.195789 1_455
Mg1 Mg3 3.237112 1_565
Mg1 Mg5 3.237112 1_555
Mg1 Mg12 3.259612 1_455
Mg1 Mg13 3.259612 1_455
Mg2 Zn0 2.982847 1_545
Mg2 Mg7 3.155216 1_554
Mg2 Mg6 3.155216 1_555
Mg2 Y0 3.214535 1_655
Mg2 Y0 3.219990 1_555
Mg3 Mg5 3.139874 1_555
Mg3 Mg6 3.165094 1_555
Mg3 Mg7 3.165094 1_555
Mg3 Mg5 3.228666 1_545
Mg4 Zn0 2.982847 1_555
Mg4 Mg8 3.155216 1_555
Mg4 Mg9 3.155216 1_554
Mg4 Y0 3.214535 1_665
Mg4 Y0 3.219990 1_555
Mg5 Mg8 3.165094 1_555
Mg5 Mg9 3.165094 1_555
Mg6 Zn0 3.143406 1_545
Mg6 Mg8 3.144354 1_545
Mg6 Y0 3.218463 1_555
Mg6 Mg8 3.224187 1_555
Mg7 Zn0 3.143406 1_546
Mg7 Mg9 3.144354 1_545
Mg7 Y0 3.218463 1_556
Mg7 Mg9 3.224187 1_555
Mg8 Zn0 3.143400 1_555
Mg8 Y0 3.218469 1_555
Mg9 Zn0 3.143400 1_556
Mg9 Y0 3.218469 1_556
Mg10 Mg3 3.126200 1_555
Mg10 Mg5 3.126207 1_545
Mg10 Mg12 3.190770 1_555
Mg10 Mg12 3.190770 1_545
Mg10 Mg8 3.200122 1_545
Mg10 Mg6 3.200122 1_555
Mg10 Y0 3.222504 1_655
Mg10 Mg2 3.228491 1_555
Mg10 Mg4 3.228497 1_545
Mg10 Mg8 3.233656 1_655
Mg10 Mg6 3.233656 1_655
Mg11 Mg3 3.126200 1_555
Mg11 Mg5 3.126207 1_545
Mg11 Mg13 3.190770 1_555
Mg11 Mg13 3.190770 1_545
Mg11 Mg9 3.200122 1_545
Mg11 Mg7 3.200122 1_555
Mg11 Y0 3.222504 1_656
Mg11 Mg2 3.228491 1_556
Mg11 Mg4 3.228497 1_546
Mg11 Mg9 3.233656 1_655
Mg11 Mg7 3.233656 1_655
Mg12 Mg4 3.146790 1_555
Mg12 Mg2 3.146797 1_555
Mg12 Zn0 3.156090 1_655
Mg12 Mg6 3.181242 1_665
Mg12 Mg8 3.181242 1_655
Mg12 Mg6 3.258242 1_555
Mg12 Mg8 3.258243 1_555
Mg12 Mg5 3.278779 1_555
Mg12 Mg3 3.278786 1_555
Mg13 Mg4 3.146790 1_556
Mg13 Mg2 3.146797 1_556
Mg13 Zn0 3.156090 1_656
Mg13 Mg7 3.181242 1_665
Mg13 Mg9 3.181242 1_655
Mg13 Mg7 3.258242 1_555
Mg13 Mg9 3.258243 1_555
Mg13 Mg5 3.278779 1_555
Mg13 Mg3 3.278786 1_555
