# generated using pymatgen
data_Rb3AlI6
_symmetry_space_group_name_H-M   'P 1'
_cell_length_a   8.82794956
_cell_length_b   8.82794956
_cell_length_c   8.82794956
_cell_angle_alpha   60.00000000
_cell_angle_beta   60.00000000
_cell_angle_gamma   60.00000000
_symmetry_Int_Tables_number   1
_chemical_formula_structural   Rb3AlI6
_chemical_formula_sum   'Rb3 Al1 I6'
_cell_volume   486.47948636
_cell_formula_units_Z   1
loop_
 _symmetry_equiv_pos_site_id
 _symmetry_equiv_pos_as_xyz
  1  'x, y, z'
loop_
 _atom_site_type_symbol
 _atom_site_label
 _atom_site_symmetry_multiplicity
 _atom_site_fract_x
 _atom_site_fract_y
 _atom_site_fract_z
 _atom_site_occupancy
  Rb  Rb0  1  0.75000000  0.75000000  0.75000000  1
  Rb  Rb1  1  0.25000000  0.25000000  0.25000000  1
  Rb  Rb2  1  0.50000000  0.50000000  0.50000000  1
  Al  Al0  1  0.00000000  0.00000000  0.00000000  1
  I  I0  1  0.77771600  0.22228400  0.22228400  1
  I  I1  1  0.22228400  0.22228400  0.77771600  1
  I  I2  1  0.22228400  0.77771600  0.77771600  1
  I  I3  1  0.22228400  0.77771600  0.22228400  1
  I  I4  1  0.77771600  0.22228400  0.77771600  1
  I  I5  1  0.77771600  0.77771600  0.22228400  1
loop_
_geom_bond_atom_site_label_1
_geom_bond_atom_site_label_2
_geom_bond_distance
_geom_bond_site_symmetry_2
Al0 I1 2.775128 1_554
Al0 I0 2.775128 1_455
Al0 I3 2.775128 1_545
Al0 I5 2.775128 1_445
Al0 I2 2.775128 1_544
Al0 I4 2.775128 1_454
I0 Rb2 3.467175 1_555
I1 Rb2 3.467175 1_555
I2 Rb2 3.467175 1_555
I3 Rb2 3.467175 1_555
I4 Rb2 3.467175 1_555
I5 Rb2 3.467175 1_555
