# generated using pymatgen
data_Ge3(TeO6)2
_symmetry_space_group_name_H-M   'P 1'
_cell_length_a   10.59733636
_cell_length_b   10.59733636
_cell_length_c   10.59733636
_cell_angle_alpha   109.47122063
_cell_angle_beta   109.47122063
_cell_angle_gamma   109.47122063
_symmetry_Int_Tables_number   1
_chemical_formula_structural   Ge3(TeO6)2
_chemical_formula_sum   'Ge12 Te8 O48'
_cell_volume   916.15354511
_cell_formula_units_Z   4
loop_
 _symmetry_equiv_pos_site_id
 _symmetry_equiv_pos_as_xyz
  1  'x, y, z'
loop_
 _atom_site_type_symbol
 _atom_site_label
 _atom_site_symmetry_multiplicity
 _atom_site_fract_x
 _atom_site_fract_y
 _atom_site_fract_z
 _atom_site_occupancy
  Ge  Ge0  1  0.12500000  0.75000000  0.87500000  1
  Ge  Ge1  1  0.87500000  0.25000000  0.12500000  1
  Ge  Ge2  1  0.62500000  0.37500000  0.25000000  1
  Ge  Ge3  1  0.75000000  0.87500000  0.12500000  1
  Ge  Ge4  1  0.87500000  0.12500000  0.75000000  1
  Ge  Ge5  1  0.25000000  0.62500000  0.37500000  1
  Ge  Ge6  1  0.75000000  0.37500000  0.62500000  1
  Ge  Ge7  1  0.25000000  0.12500000  0.87500000  1
  Ge  Ge8  1  0.12500000  0.87500000  0.25000000  1
  Ge  Ge9  1  0.37500000  0.62500000  0.75000000  1
  Ge  Ge10  1  0.62500000  0.75000000  0.37500000  1
  Ge  Ge11  1  0.37500000  0.25000000  0.62500000  1
  Te  Te0  1  0.50000000  0.50000000  0.50000000  1
  Te  Te1  1  0.50000000  0.00000000  0.50000000  1
  Te  Te2  1  0.00000000  0.50000000  0.50000000  1
  Te  Te3  1  0.50000000  0.50000000  0.00000000  1
  Te  Te4  1  0.00000000  0.00000000  0.50000000  1
  Te  Te5  1  0.00000000  0.50000000  0.00000000  1
  Te  Te6  1  0.50000000  0.00000000  0.00000000  1
  Te  Te7  1  0.00000000  0.00000000  0.00000000  1
  O  O0  1  0.41939500  0.81886200  0.80446300  1
  O  O1  1  0.88506800  0.39946700  0.08060500  1
  O  O2  1  0.10053300  0.98560100  0.68113800  1
  O  O3  1  0.51439900  0.61493200  0.69553700  1
  O  O4  1  0.68113800  0.08060500  0.69553700  1
  O  O5  1  0.61493200  0.69553700  0.51439900  1
  O  O6  1  0.61493200  0.41939500  0.10053300  1
  O  O7  1  0.69553700  0.51439900  0.61493200  1
  O  O8  1  0.81886200  0.51439900  0.39946700  1
  O  O9  1  0.98560100  0.80446300  0.88506800  1
  O  O10  1  0.80446300  0.88506800  0.98560100  1
  O  O11  1  0.69553700  0.68113800  0.08060500  1
  O  O12  1  0.41939500  0.10053300  0.61493200  1
  O  O13  1  0.39946700  0.81886200  0.51439900  1
  O  O14  1  0.08060500  0.69553700  0.68113800  1
  O  O15  1  0.10053300  0.61493200  0.41939500  1
  O  O16  1  0.51439900  0.39946700  0.81886200  1
  O  O17  1  0.08060500  0.88506800  0.39946700  1
  O  O18  1  0.98560100  0.68113800  0.10053300  1
  O  O19  1  0.18113800  0.48560100  0.60053300  1
  O  O20  1  0.68113800  0.10053300  0.98560100  1
  O  O21  1  0.80446300  0.41939500  0.81886200  1
  O  O22  1  0.39946700  0.08060500  0.88506800  1
  O  O23  1  0.88506800  0.98560100  0.80446300  1
  O  O24  1  0.58060500  0.18113800  0.19553700  1
  O  O25  1  0.11493200  0.60053300  0.91939500  1
  O  O26  1  0.89946700  0.01439900  0.31886200  1
  O  O27  1  0.48560100  0.38506800  0.30446300  1
  O  O28  1  0.31886200  0.91939500  0.30446300  1
  O  O29  1  0.38506800  0.30446300  0.48560100  1
  O  O30  1  0.38506800  0.58060500  0.89946700  1
  O  O31  1  0.30446300  0.48560100  0.38506800  1
  O  O32  1  0.11493200  0.01439900  0.19553700  1
  O  O33  1  0.60053300  0.91939500  0.11493200  1
  O  O34  1  0.19553700  0.58060500  0.18113800  1
  O  O35  1  0.18113800  0.19553700  0.58060500  1
  O  O36  1  0.31886200  0.89946700  0.01439900  1
  O  O37  1  0.01439900  0.31886200  0.89946700  1
  O  O38  1  0.91939500  0.11493200  0.60053300  1
  O  O39  1  0.48560100  0.60053300  0.18113800  1
  O  O40  1  0.89946700  0.38506800  0.58060500  1
  O  O41  1  0.91939500  0.30446300  0.31886200  1
  O  O42  1  0.60053300  0.18113800  0.48560100  1
  O  O43  1  0.58060500  0.89946700  0.38506800  1
  O  O44  1  0.30446300  0.31886200  0.91939500  1
  O  O45  1  0.19553700  0.11493200  0.01439900  1
  O  O46  1  0.01439900  0.19553700  0.11493200  1
  O  O47  1  0.81886200  0.80446300  0.41939500  1
loop_
_geom_bond_atom_site_label_1
_geom_bond_atom_site_label_2
_geom_bond_distance
_geom_bond_site_symmetry_2
Ge0 O14 1.777422 1_555
Ge0 O36 1.777422 1_556
Ge0 O25 1.777422 1_555
Ge0 O9 1.777422 1_455
Ge1 O41 1.777422 1_555
Ge1 O20 1.777422 1_554
Ge1 O1 1.777422 1_555
Ge1 O46 1.777422 1_655
Ge2 O8 1.777422 1_555
Ge2 O27 1.777422 1_555
Ge2 O24 1.777422 1_555
Ge2 O6 1.777422 1_555
Ge3 O11 1.777422 1_555
Ge3 O33 1.777422 1_555
Ge3 O26 1.777422 1_565
Ge3 O10 1.777422 1_554
Ge4 O4 1.777422 1_555
Ge4 O37 1.777422 1_655
Ge4 O38 1.777422 1_555
Ge4 O23 1.777422 1_545
Ge5 O13 1.777422 1_555
Ge5 O31 1.777422 1_555
Ge5 O34 1.777422 1_555
Ge5 O15 1.777422 1_555
Ge6 O21 1.777422 1_555
Ge6 O40 1.777422 1_555
Ge6 O42 1.777422 1_555
Ge6 O7 1.777422 1_555
Ge7 O44 1.777422 1_555
Ge7 O2 1.777422 1_545
Ge7 O22 1.777422 1_555
Ge7 O45 1.777422 1_556
Ge8 O28 1.777422 1_555
Ge8 O18 1.777422 1_455
Ge8 O17 1.777422 1_555
Ge8 O32 1.777422 1_565
Ge9 O0 1.777422 1_555
Ge9 O30 1.777422 1_555
Ge9 O19 1.777422 1_555
Ge9 O3 1.777422 1_555
Ge10 O43 1.777422 1_555
Ge10 O47 1.777422 1_555
Ge10 O39 1.777422 1_555
Ge10 O5 1.777422 1_555
Ge11 O29 1.777422 1_555
Ge11 O16 1.777422 1_555
Ge11 O12 1.777422 1_555
Ge11 O35 1.777422 1_555
O0 Te6 1.945089 1_566
O1 Te5 1.945089 1_655
O2 Te4 1.945089 1_565
O3 Te0 1.945089 1_555
O4 Te1 1.945089 1_555
O5 Te0 1.945089 1_555
O6 Te3 1.945089 1_555
O7 Te0 1.945089 1_555
O8 Te2 1.945089 1_655
O9 Te7 1.945089 1_666
O10 Te7 1.945089 1_666
O11 Te3 1.945089 1_555
O12 Te1 1.945089 1_555
O13 Te1 1.945089 1_565
O14 Te2 1.945089 1_555
O15 Te2 1.945089 1_555
O16 Te3 1.945089 1_556
O17 Te4 1.945089 1_565
O18 Te5 1.945089 1_655
O19 Te2 1.945089 1_555
O20 Te6 1.945089 1_556
O21 Te5 1.945089 1_656
O22 Te6 1.945089 1_556
O23 Te7 1.945089 1_666
O24 Te6 1.945089 1_555
O25 Te5 1.945089 1_556
O26 Te4 1.945089 1_655
O27 Te0 1.945089 1_555
O28 Te1 1.945089 1_565
O29 Te0 1.945089 1_555
O30 Te3 1.945089 1_556
O31 Te0 1.945089 1_555
O32 Te7 1.945089 1_555
O33 Te6 1.945089 1_565
O34 Te5 1.945089 1_555
O35 Te4 1.945089 1_555
O36 Te6 1.945089 1_565
O37 Te5 1.945089 1_556
O38 Te4 1.945089 1_655
O39 Te3 1.945089 1_555
O40 Te2 1.945089 1_655
O41 Te2 1.945089 1_655
O42 Te1 1.945089 1_555
O43 Te1 1.945089 1_565
O44 Te3 1.945089 1_556
O45 Te7 1.945089 1_555
O46 Te7 1.945089 1_555
O47 Te4 1.945089 1_665
