# generated using pymatgen
data_YMg14C
_symmetry_space_group_name_H-M   'P 1'
_cell_length_a   6.57753800
_cell_length_b   5.94921528
_cell_length_c   10.35815085
_cell_angle_alpha   90.00000000
_cell_angle_beta   90.00000000
_cell_angle_gamma   116.88731924
_symmetry_Int_Tables_number   1
_chemical_formula_structural   YMg14C
_chemical_formula_sum   'Y1 Mg14 C1'
_cell_volume   361.50998529
_cell_formula_units_Z   1
loop_
 _symmetry_equiv_pos_site_id
 _symmetry_equiv_pos_as_xyz
  1  'x, y, z'
loop_
 _atom_site_type_symbol
 _atom_site_label
 _atom_site_symmetry_multiplicity
 _atom_site_fract_x
 _atom_site_fract_y
 _atom_site_fract_z
 _atom_site_occupancy
  Y  Y0  1  0.10291107  0.30145503  0.12500000  1
  Mg  Mg0  1  0.15131566  0.32565733  0.62500000  1
  Mg  Mg1  1  0.13314319  0.81657110  0.62500000  1
  Mg  Mg2  1  0.57193264  0.26918506  0.12500000  1
  Mg  Mg3  1  0.65492851  0.33035767  0.62500000  1
  Mg  Mg4  1  0.57193264  0.80274658  0.12500000  1
  Mg  Mg5  1  0.65492851  0.82456984  0.62500000  1
  Mg  Mg6  1  0.34166322  0.17446184  0.38225722  1
  Mg  Mg7  1  0.34166322  0.17446184  0.86774278  1
  Mg  Mg8  1  0.34166322  0.66720239  0.38225722  1
  Mg  Mg9  1  0.34166322  0.66720239  0.86774278  1
  Mg  Mg10  1  0.82639728  0.16319914  0.38083396  1
  Mg  Mg11  1  0.82639728  0.16319914  0.86916604  1
  Mg  Mg12  1  0.94300217  0.72150159  0.27209901  1
  Mg  Mg13  1  0.94300217  0.72150159  0.97790099  1
  C  C0  1  0.25345598  0.87672749  0.12500000  1
loop_
_geom_bond_atom_site_label_1
_geom_bond_atom_site_label_2
_geom_bond_distance
_geom_bond_site_symmetry_2
Mg0 Mg1 2.976517 1_545
Mg0 Mg1 2.976517 1_555
Mg0 Mg6 3.117256 1_555
Mg0 Mg7 3.117256 1_555
Mg0 Mg8 3.117261 1_555
Mg0 Mg9 3.117261 1_555
Mg0 Mg11 3.166974 1_455
Mg0 Mg10 3.166974 1_455
Mg0 Mg5 3.277746 1_445
Mg0 Mg3 3.277746 1_455
Mg0 Mg5 3.299981 1_555
Mg0 Mg3 3.299981 1_555
Mg1 Mg3 3.167280 1_455
Mg1 Mg5 3.167280 1_455
Mg1 Mg8 3.177296 1_555
Mg1 Mg9 3.177296 1_555
Mg1 Mg6 3.177301 1_565
Mg1 Mg7 3.177301 1_565
Mg1 Mg3 3.410806 1_565
Mg1 Mg5 3.410807 1_555
Mg2 Mg7 2.990030 1_554
Mg2 Mg6 2.990030 1_555
Mg2 Y0 3.176447 1_555
Mg2 Y0 3.410011 1_655
Mg3 Mg5 2.940175 1_555
Mg3 Mg5 3.009041 1_545
Mg3 Mg6 3.114394 1_555
Mg3 Mg7 3.114394 1_555
Mg4 Mg9 2.990029 1_554
Mg4 Mg8 2.990029 1_555
Mg4 Y0 3.176446 1_555
Mg4 Y0 3.410011 1_665
Mg5 Mg9 3.114394 1_555
Mg5 Mg8 3.114394 1_555
Mg6 Mg8 2.931420 1_555
Mg6 Mg8 3.017796 1_545
Mg6 Y0 3.348245 1_555
Mg7 Mg9 2.931420 1_555
Mg7 Mg9 3.017796 1_545
Mg7 Y0 3.348245 1_556
Mg8 Y0 3.348251 1_555
Mg9 Y0 3.348251 1_556
Mg10 Y0 3.107048 1_655
Mg10 Mg3 3.109957 1_555
Mg10 Mg5 3.109962 1_545
Mg10 Mg8 3.219247 1_545
Mg10 Mg6 3.219247 1_555
Mg10 Mg12 3.253424 1_555
Mg10 Mg12 3.253424 1_545
Mg10 Mg2 3.343034 1_555
Mg10 Mg4 3.343039 1_545
Mg10 Mg8 3.359443 1_655
Mg10 Mg6 3.359443 1_655
Mg11 Y0 3.107048 1_656
Mg11 Mg3 3.109957 1_555
Mg11 Mg5 3.109962 1_545
Mg11 Mg9 3.219247 1_545
Mg11 Mg7 3.219247 1_555
Mg11 Mg13 3.253424 1_555
Mg11 Mg13 3.253424 1_545
Mg11 Mg2 3.343034 1_556
Mg11 Mg4 3.343039 1_546
Mg11 Mg9 3.359443 1_655
Mg11 Mg7 3.359443 1_655
Mg12 Mg6 3.008063 1_665
Mg12 Mg8 3.008063 1_655
Mg12 Y0 3.471293 1_665
Mg12 Y0 3.471303 1_655
Mg13 Mg7 3.008063 1_665
Mg13 Mg9 3.008063 1_655
Mg13 Y0 3.471293 1_666
Mg13 Y0 3.471303 1_656
C0 Mg2 2.327181 1_565
C0 Mg4 2.327181 1_555
C0 Mg12 2.374578 1_455
C0 Mg13 2.374578 1_454
C0 Y0 3.102947 1_555
C0 Y0 3.102947 1_565
