# generated using pymatgen
data_Ba2CaCu3F14
_symmetry_space_group_name_H-M   'P 1'
_cell_length_a   5.40272341
_cell_length_b   7.41428628
_cell_length_c   14.89421322
_cell_angle_alpha   91.55899822
_cell_angle_beta   90.12726004
_cell_angle_gamma   111.14000294
_symmetry_Int_Tables_number   1
_chemical_formula_structural   Ba2CaCu3F14
_chemical_formula_sum   'Ba4 Ca2 Cu6 F28'
_cell_volume   556.21869688
_cell_formula_units_Z   2
loop_
 _symmetry_equiv_pos_site_id
 _symmetry_equiv_pos_as_xyz
  1  'x, y, z'
loop_
 _atom_site_type_symbol
 _atom_site_label
 _atom_site_symmetry_multiplicity
 _atom_site_fract_x
 _atom_site_fract_y
 _atom_site_fract_z
 _atom_site_occupancy
  Ba  Ba0  1  0.12921500  0.38504800  0.62214500  1
  Ba  Ba1  1  0.25821200  0.38603200  0.12332100  1
  Ba  Ba2  1  0.87071900  0.61432400  0.37780100  1
  Ba  Ba3  1  0.74593400  0.61500700  0.87864400  1
  Ca  Ca0  1  0.41680400  0.99918600  0.74998600  1
  Ca  Ca1  1  0.58144600  0.99668900  0.25046300  1
  Cu  Cu0  1  0.09718500  0.23877500  0.87581400  1
  Cu  Cu1  1  0.90168500  0.75950800  0.12514700  1
  Cu  Cu2  1  0.14204100  0.23980000  0.37557500  1
  Cu  Cu3  1  0.85848000  0.75922200  0.62583900  1
  Cu  Cu4  1  0.50225200  0.00118500  0.99967200  1
  Cu  Cu5  1  0.49960400  0.99962000  0.50063300  1
  F  F0  1  0.92063100  0.97939000  0.34557200  1
  F  F1  1  0.87081200  0.26345100  0.45564900  1
  F  F2  1  0.12763900  0.73570400  0.54521800  1
  F  F3  1  0.66611800  0.49471400  0.59475100  1
  F  F4  1  0.61014700  0.11131600  0.61459300  1
  F  F5  1  0.49964600  0.88867900  0.88531000  1
  F  F6  1  0.39551200  0.25672700  0.95547900  1
  F  F7  1  0.94193700  0.01611200  0.15568400  1
  F  F8  1  0.35900700  0.31872400  0.77896300  1
  F  F9  1  0.33465800  0.50341500  0.40809900  1
  F  F10  1  0.82587900  0.24667000  0.79160300  1
  F  F11  1  0.17074600  0.50311100  0.90844500  1
  F  F12  1  0.41862800  0.24436900  0.29215800  1
  F  F13  1  0.17361800  0.75125700  0.21056300  1
  F  F14  1  0.50406800  0.11309500  0.11516500  1
  F  F15  1  0.63394600  0.67900400  0.22478300  1
  F  F16  1  0.14344800  0.83710400  0.02148300  1
  F  F17  1  0.07934000  0.02020200  0.65579200  1
  F  F18  1  0.86933700  0.16891400  0.98228800  1
  F  F19  1  0.69210100  0.83249600  0.52198200  1
  F  F20  1  0.60331100  0.73991500  0.04390200  1
  F  F21  1  0.58336000  0.75382000  0.71006000  1
  F  F22  1  0.95791300  0.31755700  0.27698100  1
  F  F23  1  0.30462000  0.16553000  0.48012700  1
  F  F24  1  0.38954000  0.88848100  0.38674000  1
  F  F25  1  0.05754500  0.97903300  0.84463000  1
  F  F26  1  0.04592000  0.68135800  0.72386000  1
  F  F27  1  0.83225500  0.49986200  0.09263000  1
loop_
_geom_bond_atom_site_label_1
_geom_bond_atom_site_label_2
_geom_bond_distance
_geom_bond_site_symmetry_2
Ba0 F17 2.681376 1_555
Ba0 F3 2.750265 1_555
Ba0 F8 2.780021 1_555
Ba0 F26 2.803421 1_555
Ba0 F1 2.804728 1_455
Ba0 F4 2.806609 1_455
Ba0 F2 2.872309 1_555
Ba0 F3 2.927185 1_455
Ba0 F23 2.992560 1_555
Ba0 F10 3.009185 1_455
Ba0 F21 3.187882 1_555
Ba1 F7 2.714722 1_455
Ba1 F22 2.759261 1_455
Ba1 F27 2.763079 1_455
Ba1 F15 2.783905 1_555
Ba1 F14 2.792915 1_555
Ba1 F6 2.847724 1_554
Ba1 F20 2.899975 1_555
Ba1 F27 2.946049 1_555
Ba1 F18 2.962233 1_454
Ba1 F12 2.994771 1_555
Ba1 F13 3.151796 1_555
Ba2 F0 2.678468 1_555
Ba2 F15 2.747653 1_555
Ba2 F9 2.752441 1_555
Ba2 F24 2.807217 1_655
Ba2 F22 2.808776 1_555
Ba2 F2 2.813518 1_655
Ba2 F1 2.877001 1_555
Ba2 F9 2.943538 1_655
Ba2 F13 2.978356 1_655
Ba2 F19 3.017550 1_555
Ba2 F12 3.174920 1_555
Ba3 F25 2.678853 1_655
Ba3 F11 2.746255 1_655
Ba3 F26 2.772512 1_655
Ba3 F5 2.799051 1_555
Ba3 F8 2.810038 1_555
Ba3 F20 2.812289 1_556
Ba3 F6 2.915117 1_555
Ba3 F11 2.951089 1_555
Ba3 F21 2.986360 1_555
Ba3 F16 3.014692 1_656
Ba3 F10 3.160063 1_555
Ca0 F5 2.298782 1_555
Ca0 F4 2.307176 1_565
Ca0 F17 2.349921 1_565
Ca0 F25 2.364582 1_555
Ca0 F21 2.365841 1_555
Ca0 F10 2.375428 1_565
Ca0 F26 2.502059 1_555
Ca0 F8 2.524916 1_565
Ca1 F14 2.309037 1_565
Ca1 F24 2.310076 1_555
Ca1 F0 2.355665 1_555
Ca1 F13 2.358534 1_555
Ca1 F7 2.372291 1_565
Ca1 F12 2.374292 1_565
Ca1 F15 2.491595 1_555
Ca1 F22 2.531349 1_565
Cu0 F11 1.902817 1_555
Cu0 F25 1.903602 1_545
Cu0 F10 1.944954 1_455
Cu0 F6 1.962552 1_555
Cu0 F8 1.970781 1_555
Cu0 F18 1.972819 1_455
Cu1 F27 1.873189 1_555
Cu1 F7 1.878255 1_565
Cu1 F13 1.959972 1_655
Cu1 F20 1.974058 1_555
Cu1 F16 1.984004 1_655
Cu1 F15 2.021363 1_555
Cu2 F9 1.901816 1_555
Cu2 F0 1.908720 1_445
Cu2 F12 1.936958 1_555
Cu2 F1 1.944786 1_455
Cu2 F23 1.972093 1_555
Cu2 F22 1.982841 1_455
Cu3 F3 1.902338 1_555
Cu3 F17 1.911092 1_665
Cu3 F21 1.937160 1_555
Cu3 F2 1.940677 1_655
Cu3 F19 1.971741 1_555
Cu3 F26 1.987773 1_655
Cu4 F5 1.873888 1_545
Cu4 F14 1.887844 1_556
Cu4 F16 1.914847 1_546
Cu4 F18 1.946201 1_555
Cu4 F6 2.282508 1_555
Cu4 F20 2.305491 1_546
Cu5 F24 1.864464 1_555
Cu5 F4 1.867017 1_565
Cu5 F19 1.915097 1_555
Cu5 F23 1.915695 1_565
Cu5 F1 2.354795 1_565
Cu5 F2 2.355565 1_555
