# generated using pymatgen
data_NaLi3
_symmetry_space_group_name_H-M   'P 1'
_cell_length_a   5.68608242
_cell_length_b   5.68608242
_cell_length_c   5.68608242
_cell_angle_alpha   131.93172471
_cell_angle_beta   131.93172471
_cell_angle_gamma   70.33688167
_symmetry_Int_Tables_number   1
_chemical_formula_structural   NaLi3
_chemical_formula_sum   'Na1 Li3'
_cell_volume   99.71378414
_cell_formula_units_Z   1
loop_
 _symmetry_equiv_pos_site_id
 _symmetry_equiv_pos_as_xyz
  1  'x, y, z'
loop_
 _atom_site_type_symbol
 _atom_site_label
 _atom_site_symmetry_multiplicity
 _atom_site_fract_x
 _atom_site_fract_y
 _atom_site_fract_z
 _atom_site_occupancy
  Na  Na0  1  -0.00000000  0.00000000  -0.00000000  1
  Li  Li0  1  0.75000000  0.25000000  0.50000000  1
  Li  Li1  1  0.25000000  0.75000000  0.50000000  1
  Li  Li2  1  0.50000000  0.50000000  -0.00000000  1
loop_
_geom_bond_atom_site_label_1
_geom_bond_atom_site_label_2
_geom_bond_distance
_geom_bond_site_symmetry_2
Li0 Li1 3.275082 1_544
Li0 Li1 3.275082 1_645
Li0 Li1 3.275082 1_656
Li0 Li1 3.275082 1_555
Li0 Na0 3.280918 1_656
Li0 Na0 3.280918 1_655
Li0 Li2 3.280918 1_556
Li0 Li2 3.280918 1_545
Li0 Na0 3.280918 1_666
Li0 Li2 3.280918 1_555
Li0 Li2 3.280918 1_656
Li0 Na0 3.280918 1_555
Li1 Na0 3.280918 1_565
Li1 Na0 3.280918 1_566
Li1 Li2 3.280918 1_455
Li1 Li2 3.280918 1_556
Li1 Na0 3.280918 1_666
Li1 Li2 3.280918 1_555
Li1 Li2 3.280918 1_566
Li1 Na0 3.280918 1_555
Li2 Na0 3.275082 1_565
Li2 Na0 3.275082 1_655
Li2 Na0 3.275082 1_666
Li2 Na0 3.275082 1_554
