# generated using pymatgen
data_Pr2Mn3Cu9As7
_symmetry_space_group_name_H-M   'P 1'
_cell_length_a   9.92730584
_cell_length_b   9.92730584
_cell_length_c   4.00744000
_cell_angle_alpha   90.00000000
_cell_angle_beta   90.00000000
_cell_angle_gamma   119.99999892
_symmetry_Int_Tables_number   1
_chemical_formula_structural   Pr2Mn3Cu9As7
_chemical_formula_sum   'Pr2 Mn3 Cu9 As7'
_cell_volume   342.02706104
_cell_formula_units_Z   1
loop_
 _symmetry_equiv_pos_site_id
 _symmetry_equiv_pos_as_xyz
  1  'x, y, z'
loop_
 _atom_site_type_symbol
 _atom_site_label
 _atom_site_symmetry_multiplicity
 _atom_site_fract_x
 _atom_site_fract_y
 _atom_site_fract_z
 _atom_site_occupancy
  Pr  Pr0  1  0.00000000  0.00000000  0.00000000  1
  Pr  Pr1  1  0.66666700  0.33333300  0.50000000  1
  Mn  Mn0  1  0.43032400  0.54287300  0.50000000  1
  Mn  Mn1  1  0.11254900  0.56967600  0.50000000  1
  Mn  Mn2  1  0.45712700  0.88745100  0.50000000  1
  Cu  Cu0  1  0.38078500  0.29119900  0.00000000  1
  Cu  Cu1  1  0.91041400  0.61921500  0.00000000  1
  Cu  Cu2  1  0.70880100  0.08958600  0.00000000  1
  Cu  Cu3  1  0.61607700  0.78707600  0.00000000  1
  Cu  Cu4  1  0.17099900  0.38392300  0.00000000  1
  Cu  Cu5  1  0.21292400  0.82900100  0.00000000  1
  Cu  Cu6  1  0.75755700  0.71009400  0.50000000  1
  Cu  Cu7  1  0.95253700  0.24244300  0.50000000  1
  Cu  Cu8  1  0.28990600  0.04746300  0.50000000  1
  As  As0  1  0.62774300  0.54433200  0.00000000  1
  As  As1  1  0.91658900  0.37225700  0.00000000  1
  As  As2  1  0.45566800  0.08341100  0.00000000  1
  As  As3  1  0.74646700  0.96045100  0.50000000  1
  As  As4  1  0.21398300  0.25353300  0.50000000  1
  As  As5  1  0.03954900  0.78601700  0.50000000  1
  As  As6  1  0.33333300  0.66666700  0.00000000  1
loop_
_geom_bond_atom_site_label_1
_geom_bond_atom_site_label_2
_geom_bond_distance
_geom_bond_site_symmetry_2
Cu0 Cu8 2.915568 1_555
Cu0 Cu8 2.915568 1_554
Cu0 Mn0 3.044712 1_554
Cu0 Mn0 3.044712 1_555
Cu0 Pr0 3.423264 1_555
Cu1 Cu6 2.915568 1_555
Cu1 Cu6 2.915568 1_554
Cu1 Mn1 3.044712 1_655
Cu1 Mn1 3.044712 1_654
Cu1 Pr0 3.423264 1_665
Cu2 Cu7 2.915568 1_554
Cu2 Cu7 2.915568 1_555
Cu2 Mn2 3.044712 1_545
Cu2 Mn2 3.044712 1_544
Cu2 Pr0 3.423264 1_655
Cu3 Cu6 2.764952 1_554
Cu3 Cu6 2.764952 1_555
Cu3 Mn0 2.970188 1_555
Cu3 Mn0 2.970188 1_554
Cu3 Mn2 3.011656 1_554
Cu3 Mn2 3.011656 1_555
Cu3 Pr0 3.307255 1_665
Cu4 Cu7 2.764952 1_454
Cu4 Cu7 2.764952 1_455
Cu4 Mn1 2.970188 1_555
Cu4 Mn1 2.970188 1_554
Cu4 Mn0 3.011656 1_554
Cu4 Mn0 3.011656 1_555
Cu4 Pr0 3.307255 1_555
Cu5 Cu8 2.764952 1_565
Cu5 Cu8 2.764952 1_564
Cu5 Mn2 2.970188 1_554
Cu5 Mn2 2.970188 1_555
Cu5 Mn1 3.011656 1_555
Cu5 Mn1 3.011656 1_554
Cu5 Pr0 3.307254 1_565
Cu6 Mn0 2.813548 1_555
Cu6 Pr0 3.341206 1_666
Cu6 Pr0 3.341206 1_665
Cu6 Pr1 3.380624 1_555
Cu7 Mn1 2.813548 1_655
Cu7 Pr0 3.341206 1_656
Cu7 Pr0 3.341206 1_655
Cu7 Pr1 3.380614 1_555
Cu8 Mn2 2.813547 1_545
Cu8 Pr0 3.341206 1_555
Cu8 Pr0 3.341206 1_556
Cu8 Pr1 3.380621 1_555
As0 Cu3 2.469737 1_555
As0 Cu0 2.482846 1_555
As0 Cu6 2.502579 1_555
As0 Cu6 2.502579 1_554
As0 Cu1 2.518155 1_555
As0 Mn0 2.797800 1_555
As0 Mn0 2.797800 1_554
As0 Pr1 3.059603 1_554
As0 Pr1 3.059603 1_555
As1 Cu4 2.469737 1_655
As1 Cu1 2.482846 1_555
As1 Cu7 2.502579 1_554
As1 Cu7 2.502579 1_555
As1 Cu2 2.518155 1_555
As1 Mn1 2.797800 1_654
As1 Mn1 2.797800 1_655
As1 Pr1 3.059595 1_554
As1 Pr1 3.059595 1_555
As2 Cu5 2.469737 1_545
As2 Cu2 2.482846 1_555
As2 Cu8 2.502579 1_555
As2 Cu8 2.502579 1_554
As2 Cu0 2.518155 1_555
As2 Mn2 2.797800 1_544
As2 Mn2 2.797800 1_545
As2 Pr1 3.059598 1_555
As2 Pr1 3.059598 1_554
As3 Cu2 2.505493 1_566
As3 Cu2 2.505493 1_565
As3 Cu7 2.508963 1_565
As3 Cu3 2.534734 1_556
As3 Cu3 2.534734 1_555
As3 Cu6 2.542206 1_555
As3 Mn2 2.587293 1_555
As3 Pr0 3.084745 1_665
As3 Pr0 3.084745 1_666
As4 Cu0 2.505498 1_556
As4 Cu0 2.505498 1_555
As4 Cu8 2.508970 1_555
As4 Cu4 2.534730 1_555
As4 Cu4 2.534730 1_556
As4 Cu7 2.542196 1_455
As4 Mn0 2.587296 1_555
As4 Pr0 3.084742 1_556
As4 Pr0 3.084742 1_555
As5 Cu1 2.505497 1_456
As5 Cu1 2.505497 1_455
As5 Cu6 2.508961 1_455
As5 Cu5 2.534736 1_555
As5 Cu5 2.534736 1_556
As5 Cu8 2.542201 1_565
As5 Mn1 2.587303 1_555
As5 Pr0 3.084738 1_566
As5 Pr0 3.084738 1_565
As6 Cu5 2.439718 1_555
As6 Cu4 2.439726 1_555
As6 Cu3 2.439727 1_555
As6 Mn1 2.763250 1_555
As6 Mn1 2.763250 1_554
As6 Mn2 2.763251 1_555
As6 Mn2 2.763251 1_554
As6 Mn0 2.763256 1_554
As6 Mn0 2.763256 1_555
