# generated using pymatgen
data_SmCdIn
_symmetry_space_group_name_H-M   'P 1'
_cell_length_a   4.86707519
_cell_length_b   4.86707519
_cell_length_c   7.64239093
_cell_angle_alpha   90.00000000
_cell_angle_beta   90.00000000
_cell_angle_gamma   119.99998843
_symmetry_Int_Tables_number   1
_chemical_formula_structural   SmCdIn
_chemical_formula_sum   'Sm2 Cd2 In2'
_cell_volume   156.78194309
_cell_formula_units_Z   2
loop_
 _symmetry_equiv_pos_site_id
 _symmetry_equiv_pos_as_xyz
  1  'x, y, z'
loop_
 _atom_site_type_symbol
 _atom_site_label
 _atom_site_symmetry_multiplicity
 _atom_site_fract_x
 _atom_site_fract_y
 _atom_site_fract_z
 _atom_site_occupancy
  Sm  Sm0  1  0.00000000  0.00000000  0.26275920  1
  Sm  Sm1  1  0.00000000  0.00000000  0.73724080  1
  Cd  Cd0  1  0.33333300  0.66666700  0.47129504  1
  Cd  Cd1  1  0.66666700  0.33333300  0.52870496  1
  In  In0  1  0.66666700  0.33333300  0.94619783  1
  In  In1  1  0.33333300  0.66666700  0.05380217  1
loop_
_geom_bond_atom_site_label_1
_geom_bond_atom_site_label_2
_geom_bond_distance
_geom_bond_site_symmetry_2
Cd0 Cd1 2.844051 1_455
Cd0 Cd1 2.844051 1_565
Cd0 Cd1 2.844059 1_555
Cd0 In1 3.190644 1_555
Cd0 Sm0 3.230486 1_565
Cd0 Sm0 3.230491 1_555
Cd0 Sm0 3.230491 1_665
Cd0 Sm1 3.468000 1_565
Cd0 Sm1 3.468004 1_665
Cd0 Sm1 3.468004 1_555
Cd1 In0 3.190644 1_555
Cd1 Sm1 3.230486 1_655
Cd1 Sm1 3.230491 1_665
Cd1 Sm1 3.230491 1_555
Cd1 Sm0 3.468000 1_655
Cd1 Sm0 3.468004 1_555
Cd1 Sm0 3.468004 1_665
In0 In1 2.927865 1_546
In0 In1 2.927865 1_656
In0 In1 2.927873 1_556
In0 Sm1 3.232076 1_655
In0 Sm1 3.232080 1_665
In0 Sm1 3.232080 1_555
In0 Sm0 3.707973 1_656
In0 Sm0 3.707977 1_666
In0 Sm0 3.707977 1_556
In1 Sm0 3.232076 1_565
In1 Sm0 3.232080 1_555
In1 Sm0 3.232080 1_665
In1 Sm1 3.707973 1_564
In1 Sm1 3.707977 1_664
In1 Sm1 3.707977 1_554
