# generated using pymatgen
data_Rb2Li3GaO4
_symmetry_space_group_name_H-M   'P 1'
_cell_length_a   8.04280581
_cell_length_b   8.04280581
_cell_length_c   8.04280581
_cell_angle_alpha   143.86993669
_cell_angle_beta   103.93678903
_cell_angle_gamma   87.21823428
_symmetry_Int_Tables_number   1
_chemical_formula_structural   Rb2Li3GaO4
_chemical_formula_sum   'Rb4 Li6 Ga2 O8'
_cell_volume   287.87471961
_cell_formula_units_Z   2
loop_
 _symmetry_equiv_pos_site_id
 _symmetry_equiv_pos_as_xyz
  1  'x, y, z'
loop_
 _atom_site_type_symbol
 _atom_site_label
 _atom_site_symmetry_multiplicity
 _atom_site_fract_x
 _atom_site_fract_y
 _atom_site_fract_z
 _atom_site_occupancy
  Rb  Rb0  1  0.12808200  0.23716300  0.36524500  1
  Rb  Rb1  1  0.87191800  0.76283700  0.63475500  1
  Rb  Rb2  1  0.62808200  0.26283700  0.89091900  1
  Rb  Rb3  1  0.37191800  0.73716300  0.10908100  1
  Li  Li0  1  0.49004700  0.25000000  0.24004700  1
  Li  Li1  1  0.50995300  0.75000000  0.75995300  1
  Li  Li2  1  0.00995300  0.25000000  0.75995300  1
  Li  Li3  1  0.99004700  0.75000000  0.24004700  1
  Li  Li4  1  0.25000000  0.25000000  0.00000000  1
  Li  Li5  1  0.75000000  0.75000000  0.00000000  1
  Ga  Ga0  1  0.25000000  0.75000000  0.50000000  1
  Ga  Ga1  1  0.75000000  0.25000000  0.50000000  1
  O  O0  1  0.44762300  0.59592900  0.38497900  1
  O  O1  1  0.55237700  0.40407100  0.61502100  1
  O  O2  1  0.21095000  0.06264500  0.61502100  1
  O  O3  1  0.28905000  0.90407100  0.85169400  1
  O  O4  1  0.78905000  0.93735500  0.38497900  1
  O  O5  1  0.71095000  0.09592900  0.14830600  1
  O  O6  1  0.05237700  0.43735500  0.14830600  1
  O  O7  1  0.94762300  0.56264500  0.85169400  1
loop_
_geom_bond_atom_site_label_1
_geom_bond_atom_site_label_2
_geom_bond_distance
_geom_bond_site_symmetry_2
Li0 O0 2.019068 1_555
Li0 O3 2.019068 1_544
Li0 O1 2.043861 1_555
Li0 O5 2.043861 1_555
Li1 O5 2.019068 1_566
Li1 O1 2.019068 1_555
Li1 O3 2.043861 1_555
Li1 O0 2.043861 1_555
Li2 O2 2.019066 1_555
Li2 O6 2.019072 1_556
Li2 O4 2.043862 1_445
Li2 O7 2.043869 1_455
Li3 O4 2.019066 1_555
Li3 O7 2.019072 1_554
Li3 O2 2.043862 1_665
Li3 O6 2.043869 1_655
Li4 O6 1.999271 1_555
Li4 O0 1.999273 1_555
Li4 O3 1.999273 1_544
Li4 O2 1.999277 1_554
Li5 O7 1.999271 1_554
Li5 O5 1.999273 1_565
Li5 O1 1.999273 1_554
Li5 O4 1.999277 1_555
Ga0 O3 1.892884 1_555
Ga0 O0 1.892884 1_555
Ga0 O6 1.892885 1_555
Ga0 O2 1.892891 1_565
Ga1 O1 1.892884 1_555
Ga1 O5 1.892884 1_555
Ga1 O7 1.892885 1_555
Ga1 O4 1.892891 1_545
O0 Rb3 3.152568 1_555
O0 Rb2 3.176253 1_565
O0 Rb1 3.204556 1_555
O0 Rb2 3.205925 1_554
O1 Rb2 3.152568 1_555
O1 Rb3 3.176253 1_545
O1 Rb0 3.204556 1_555
O1 Rb3 3.205925 1_556
O2 Rb2 3.152568 1_555
O2 Rb3 3.176251 1_545
O2 Rb0 3.204548 1_555
O2 Rb3 3.205919 1_556
O3 Rb1 3.152568 1_455
O3 Rb0 3.176253 1_555
O3 Rb3 3.204556 1_556
O3 Rb0 3.205925 1_566
O4 Rb3 3.152568 1_555
O4 Rb2 3.176251 1_565
O4 Rb1 3.204548 1_555
O4 Rb2 3.205919 1_554
O5 Rb0 3.152568 1_655
O5 Rb1 3.176253 1_555
O5 Rb2 3.204556 1_554
O5 Rb1 3.205925 1_544
O6 Rb0 3.152561 1_555
O6 Rb1 3.176252 1_455
O6 Rb2 3.204556 1_454
O6 Rb1 3.205919 1_444
O7 Rb1 3.152561 1_555
O7 Rb0 3.176252 1_655
O7 Rb3 3.204556 1_656
O7 Rb0 3.205919 1_666
