# generated using pymatgen
data_YbUTe6
_symmetry_space_group_name_H-M   'P 1'
_cell_length_a   12.93140323
_cell_length_b   12.93140323
_cell_length_c   4.39134900
_cell_angle_alpha   90.00000000
_cell_angle_beta   90.00000000
_cell_angle_gamma   160.53546748
_symmetry_Int_Tables_number   1
_chemical_formula_structural   YbUTe6
_chemical_formula_sum   'Yb1 U1 Te6'
_cell_volume   244.69471723
_cell_formula_units_Z   1
loop_
 _symmetry_equiv_pos_site_id
 _symmetry_equiv_pos_as_xyz
  1  'x, y, z'
loop_
 _atom_site_type_symbol
 _atom_site_label
 _atom_site_symmetry_multiplicity
 _atom_site_fract_x
 _atom_site_fract_y
 _atom_site_fract_z
 _atom_site_occupancy
  Yb  Yb0  1  0.17011000  0.82989000  0.50000000  1
  U  U0  1  0.83024100  0.16975900  0.00000000  1
  Te  Te0  1  0.42519000  0.57481000  0.00000000  1
  Te  Te1  1  0.57065100  0.42934900  0.50000000  1
  Te  Te2  1  0.70933900  0.29066100  0.00000000  1
  Te  Te3  1  0.29960500  0.70039500  0.50000000  1
  Te  Te4  1  0.06977500  0.93022500  0.00000000  1
  Te  Te5  1  0.92508900  0.07491100  0.50000000  1
loop_
_geom_bond_atom_site_label_1
_geom_bond_atom_site_label_2
_geom_bond_distance
_geom_bond_site_symmetry_2
Te0 Te5 3.098308 1_565
Te0 Te5 3.098308 1_564
Te0 Te5 3.098308 1_455
Te0 Te5 3.098308 1_454
Te0 U0 3.261350 1_455
Te0 U0 3.261350 1_565
Te1 Te4 3.098387 1_656
Te1 Te4 3.098387 1_655
Te1 Te4 3.098387 1_545
Te1 Te4 3.098387 1_546
Te1 Yb0 3.347553 1_655
Te1 Yb0 3.347553 1_545
Te2 U0 3.081865 1_555
Te2 Yb0 3.255679 1_655
Te2 Yb0 3.255679 1_654
Te2 Yb0 3.255679 1_545
Te2 Yb0 3.255679 1_544
Te3 U0 3.195208 1_455
Te3 U0 3.195208 1_566
Te3 U0 3.195208 1_565
Te3 U0 3.195208 1_456
Te3 Yb0 3.300905 1_555
Te4 Yb0 3.370801 1_555
Te4 Yb0 3.370801 1_554
Te5 U0 3.265948 1_556
Te5 U0 3.265948 1_555
