# generated using pymatgen
data_LiTiP2O7
_symmetry_space_group_name_H-M   'P 1'
_cell_length_a   6.37719838
_cell_length_b   6.37719838
_cell_length_c   13.43653479
_cell_angle_alpha   74.14962060
_cell_angle_beta   74.14962060
_cell_angle_gamma   79.74996575
_symmetry_Int_Tables_number   1
_chemical_formula_structural   LiTiP2O7
_chemical_formula_sum   'Li4 Ti4 P8 O28'
_cell_volume   502.51885640
_cell_formula_units_Z   4
loop_
 _symmetry_equiv_pos_site_id
 _symmetry_equiv_pos_as_xyz
  1  'x, y, z'
loop_
 _atom_site_type_symbol
 _atom_site_label
 _atom_site_symmetry_multiplicity
 _atom_site_fract_x
 _atom_site_fract_y
 _atom_site_fract_z
 _atom_site_occupancy
  Li  Li0  1  0.23352300  0.96709100  0.37686300  1
  Li  Li1  1  0.96709100  0.23352300  0.87686300  1
  Li  Li2  1  0.03290900  0.76647700  0.12313700  1
  Li  Li3  1  0.76647700  0.03290900  0.62313700  1
  Ti  Ti0  1  0.12379900  0.59360500  0.64346300  1
  Ti  Ti1  1  0.40639500  0.87620100  0.85653700  1
  Ti  Ti2  1  0.59360500  0.12379900  0.14346300  1
  Ti  Ti3  1  0.87620100  0.40639500  0.35653700  1
  P  P0  1  0.90756200  0.75386500  0.86664800  1
  P  P1  1  0.58100900  0.66689200  0.07394300  1
  P  P2  1  0.33310800  0.41899100  0.42605700  1
  P  P3  1  0.75386500  0.90756200  0.36664800  1
  P  P4  1  0.24613500  0.09243800  0.63335200  1
  P  P5  1  0.66689200  0.58100900  0.57394300  1
  P  P6  1  0.41899100  0.33310800  0.92605700  1
  P  P7  1  0.09243800  0.24613500  0.13335200  1
  O  O0  1  0.06453800  0.88106900  0.88976800  1
  O  O1  1  0.66499400  0.81011300  0.12681300  1
  O  O2  1  0.11893100  0.93546200  0.61023200  1
  O  O3  1  0.73444900  0.91255100  0.81547400  1
  O  O4  1  0.55985800  0.46504100  0.35487700  1
  O  O5  1  0.01866000  0.57427600  0.80685900  1
  O  O6  1  0.78713200  0.61054000  0.98017800  1
  O  O7  1  0.21624700  0.61180900  0.47550300  1
  O  O8  1  0.38819100  0.78375300  0.02449700  1
  O  O9  1  0.53495900  0.44014200  0.14512300  1
  O  O10  1  0.38946000  0.21286800  0.51982200  1
  O  O11  1  0.81011300  0.66499400  0.62681300  1
  O  O12  1  0.42572400  0.98134000  0.69314100  1
  O  O13  1  0.08744900  0.26555100  0.68452600  1
  O  O14  1  0.91255100  0.73444900  0.31547400  1
  O  O15  1  0.57427600  0.01866000  0.30685900  1
  O  O16  1  0.18988700  0.33500600  0.37318700  1
  O  O17  1  0.61054000  0.78713200  0.48017800  1
  O  O18  1  0.46504100  0.55985800  0.85487700  1
  O  O19  1  0.61180900  0.21624700  0.97550300  1
  O  O20  1  0.78375300  0.38819100  0.52449700  1
  O  O21  1  0.21286800  0.38946000  0.01982200  1
  O  O22  1  0.98134000  0.42572400  0.19314100  1
  O  O23  1  0.44014200  0.53495900  0.64512300  1
  O  O24  1  0.26555100  0.08744900  0.18452600  1
  O  O25  1  0.88106900  0.06453800  0.38976800  1
  O  O26  1  0.33500600  0.18988700  0.87318700  1
  O  O27  1  0.93546200  0.11893100  0.11023200  1
loop_
_geom_bond_atom_site_label_1
_geom_bond_atom_site_label_2
_geom_bond_distance
_geom_bond_site_symmetry_2
Li0 O15 2.164224 1_565
Li0 O25 2.194797 1_465
Li0 O7 2.295845 1_555
Li0 O16 2.301453 1_565
Li0 O24 2.448179 1_565
Li1 O5 2.164224 1_655
Li1 O0 2.194797 1_645
Li1 O19 2.295845 1_555
Li1 O26 2.301453 1_655
Li1 O13 2.448179 1_655
Li2 O22 2.164224 1_455
Li2 O27 2.194797 1_465
Li2 O8 2.295845 1_555
Li2 O1 2.301453 1_455
Li2 O14 2.448179 1_455
Li3 O12 2.164224 1_545
Li3 O2 2.194797 1_645
Li3 O20 2.295845 1_555
Li3 O11 2.301453 1_545
Li3 O3 2.448179 1_545
O0 P0 1.534025 1_455
O0 Ti1 2.098779 1_555
O1 P1 1.536903 1_555
O1 Ti2 2.030709 1_565
O2 P4 1.534025 1_565
O2 Ti0 2.098779 1_555
O3 P0 1.533821 1_555
O3 Ti1 2.051120 1_555
O4 P2 1.527811 1_555
O4 Ti3 1.990404 1_555
O5 P0 1.536848 1_455
O5 Ti0 2.088622 1_555
O6 P0 1.612599 1_555
O6 P1 1.618293 1_556
O7 P2 1.535732 1_555
O7 Ti0 2.146777 1_555
O8 P1 1.535732 1_555
O8 Ti1 2.146777 1_554
O9 P1 1.527811 1_555
O9 Ti2 1.990404 1_555
O10 P4 1.612599 1_555
O10 P2 1.618293 1_555
O11 P5 1.536903 1_555
O11 Ti0 2.030709 1_655
O12 P4 1.536848 1_565
O12 Ti1 2.088622 1_555
O13 P4 1.533821 1_555
O13 Ti0 2.051120 1_555
O14 P3 1.533821 1_555
O14 Ti3 2.051120 1_555
O15 P3 1.536848 1_545
O15 Ti2 2.088622 1_555
O16 P2 1.536903 1_555
O16 Ti3 2.030709 1_455
O17 P3 1.612599 1_555
O17 P5 1.618293 1_555
O18 P6 1.527811 1_555
O18 Ti1 1.990404 1_555
O19 P6 1.535732 1_555
O19 Ti2 2.146777 1_556
O20 P5 1.535732 1_555
O20 Ti3 2.146777 1_555
O21 P7 1.612599 1_555
O21 P6 1.618293 1_554
O22 P7 1.536848 1_655
O22 Ti3 2.088622 1_555
O23 P5 1.527811 1_555
O23 Ti0 1.990404 1_555
O24 P7 1.533821 1_555
O24 Ti2 2.051120 1_555
O25 P3 1.534025 1_545
O25 Ti3 2.098779 1_555
O26 P6 1.536903 1_555
O26 Ti1 2.030709 1_545
O27 P7 1.534025 1_655
O27 Ti2 2.098779 1_555
