# generated using pymatgen
data_AgClO2
_symmetry_space_group_name_H-M   'P 1'
_cell_length_a   4.73906649
_cell_length_b   9.48995676
_cell_length_c   7.90090895
_cell_angle_alpha   29.87983969
_cell_angle_beta   53.14350643
_cell_angle_gamma   56.15666665
_symmetry_Int_Tables_number   1
_chemical_formula_structural   AgClO2
_chemical_formula_sum   'Ag2 Cl2 O4'
_cell_volume   141.03466555
_cell_formula_units_Z   2
loop_
 _symmetry_equiv_pos_site_id
 _symmetry_equiv_pos_as_xyz
  1  'x, y, z'
loop_
 _atom_site_type_symbol
 _atom_site_label
 _atom_site_symmetry_multiplicity
 _atom_site_fract_x
 _atom_site_fract_y
 _atom_site_fract_z
 _atom_site_occupancy
  Ag  Ag0  1  0.50000000  0.50000000  0.50000000  1
  Ag  Ag1  1  0.50000000  0.00000000  0.50000000  1
  Cl  Cl0  1  0.00000000  0.00000000  0.00000000  1
  Cl  Cl1  1  0.00000000  0.50000000  0.00000000  1
  O  O0  1  0.40331900  0.29797200  0.00073700  1
  O  O1  1  0.99926300  0.20202800  0.59668100  1
  O  O2  1  0.00073700  0.79797200  0.40331900  1
  O  O3  1  0.59668100  0.70202800  0.99926300  1
loop_
_geom_bond_atom_site_label_1
_geom_bond_atom_site_label_2
_geom_bond_distance
_geom_bond_site_symmetry_2
Ag0 O1 2.268888 1_555
Ag0 O2 2.268888 1_555
Ag0 O3 2.277733 1_554
Ag0 O0 2.277733 1_556
Ag1 O0 2.268889 1_555
Ag1 O3 2.268889 1_545
Ag1 O2 2.277733 1_645
Ag1 O1 2.277733 1_455
Cl0 O1 1.800385 1_454
Cl0 O2 1.800385 1_545
Cl1 O3 1.800384 1_454
Cl1 O0 1.800384 1_555
