# generated using pymatgen
data_AlH12(NF2)3
_symmetry_space_group_name_H-M   'P 1'
_cell_length_a   6.34836360
_cell_length_b   6.34836360
_cell_length_c   9.06347600
_cell_angle_alpha   90.00000000
_cell_angle_beta   90.00000000
_cell_angle_gamma   91.07751281
_symmetry_Int_Tables_number   1
_chemical_formula_structural   AlH12(NF2)3
_chemical_formula_sum   'Al2 H24 N6 F12'
_cell_volume   365.20908411
_cell_formula_units_Z   2
loop_
 _symmetry_equiv_pos_site_id
 _symmetry_equiv_pos_as_xyz
  1  'x, y, z'
loop_
 _atom_site_type_symbol
 _atom_site_label
 _atom_site_symmetry_multiplicity
 _atom_site_fract_x
 _atom_site_fract_y
 _atom_site_fract_z
 _atom_site_occupancy
  Al  Al0  1  0.50063200  0.50063200  0.50000000  1
  Al  Al1  1  0.00063200  0.00063200  0.00000000  1
  H  H0  1  0.14109300  0.50184800  0.69059500  1
  H  H1  1  0.50184800  0.14109300  0.30940500  1
  H  H2  1  0.64109300  0.00184800  0.80940500  1
  H  H3  1  0.00184800  0.64109300  0.19059500  1
  H  H4  1  0.87147000  0.49340900  0.68157900  1
  H  H5  1  0.49340900  0.87147000  0.31842100  1
  H  H6  1  0.37147000  0.99340900  0.81842100  1
  H  H7  1  0.99340900  0.37147000  0.18157900  1
  H  H8  1  0.00663500  0.62816900  0.82061500  1
  H  H9  1  0.62816900  0.00663500  0.17938500  1
  H  H10  1  0.50663500  0.12816900  0.67938500  1
  H  H11  1  0.12816900  0.50663500  0.32061500  1
  H  H12  1  0.99843900  0.36006400  0.81159900  1
  H  H13  1  0.36006400  0.99843900  0.18840100  1
  H  H14  1  0.49843900  0.86006400  0.68840100  1
  H  H15  1  0.86006400  0.49843900  0.31159900  1
  H  H16  1  0.36730600  0.49428000  0.06346800  1
  H  H17  1  0.49428000  0.36730600  0.93653200  1
  H  H18  1  0.86730600  0.99428000  0.43653200  1
  H  H19  1  0.99428000  0.86730600  0.56346800  1
  H  H20  1  0.63122600  0.49967800  0.06571700  1
  H  H21  1  0.49967800  0.63122600  0.93428300  1
  H  H22  1  0.13122600  0.99967800  0.43428300  1
  H  H23  1  0.99967800  0.13122600  0.56571700  1
  N  N0  1  0.00169500  0.49881300  0.75075000  1
  N  N1  1  0.49881300  0.00169500  0.24925000  1
  N  N2  1  0.50169500  0.99881300  0.74925000  1
  N  N3  1  0.99881300  0.50169500  0.25075000  1
  N  N4  1  0.49989400  0.49989400  0.00000000  1
  N  N5  1  0.99989400  0.99989400  0.50000000  1
  F  F0  1  0.29552700  0.29552700  0.50000000  1
  F  F1  1  0.79552700  0.79552700  0.00000000  1
  F  F2  1  0.70607800  0.70607800  0.50000000  1
  F  F3  1  0.20607800  0.20607800  0.00000000  1
  F  F4  1  0.43805800  0.56346800  0.69272900  1
  F  F5  1  0.56346800  0.43805800  0.30727100  1
  F  F6  1  0.93805800  0.06346800  0.80727100  1
  F  F7  1  0.06346800  0.93805800  0.19272900  1
  F  F8  1  0.69380500  0.30841400  0.56263600  1
  F  F9  1  0.30841400  0.69380500  0.43736400  1
  F  F10  1  0.19380500  0.80841400  0.93736400  1
  F  F11  1  0.80841400  0.19380500  0.06263600  1
loop_
_geom_bond_atom_site_label_1
_geom_bond_atom_site_label_2
_geom_bond_distance
_geom_bond_site_symmetry_2
Al0 F0 1.824025 1_555
Al0 F2 1.827057 1_555
Al0 F8 1.836168 1_555
Al0 F9 1.836168 1_555
Al0 F5 1.836894 1_555
Al0 F4 1.836894 1_555
Al1 F1 1.824025 1_445
Al1 F3 1.827057 1_555
Al1 F10 1.836168 1_544
Al1 F11 1.836168 1_455
Al1 F7 1.836894 1_545
Al1 F6 1.836894 1_454
H0 N0 1.039290 1_555
H1 N1 1.039290 1_555
H2 N2 1.039290 1_545
H3 N3 1.039290 1_455
H4 N0 1.037598 1_655
H5 N1 1.037598 1_565
H6 N2 1.037598 1_555
H7 N3 1.037598 1_555
H8 N0 1.036991 1_555
H9 N1 1.036991 1_555
H10 N2 1.036991 1_545
H11 N3 1.036991 1_455
H12 N0 1.039114 1_655
H13 N1 1.039114 1_565
H14 N2 1.039114 1_555
H15 N3 1.039114 1_555
H16 N4 1.019574 1_555
H17 N4 1.019574 1_556
H18 N5 1.019574 1_555
H19 N5 1.019574 1_555
H20 N4 1.024666 1_555
H21 N4 1.024666 1_556
H22 N5 1.024666 1_455
H23 N5 1.024666 1_545
