# generated using pymatgen
data_MgBi
_symmetry_space_group_name_H-M   'P 1'
_cell_length_a   12.39456985
_cell_length_b   12.39456985
_cell_length_c   17.52807098
_cell_angle_alpha   69.93119127
_cell_angle_beta   69.93119127
_cell_angle_gamma   31.62620717
_symmetry_Int_Tables_number   1
_chemical_formula_structural   MgBi
_chemical_formula_sum   'Mg24 Bi24'
_cell_volume   1319.16085452
_cell_formula_units_Z   24
loop_
 _symmetry_equiv_pos_site_id
 _symmetry_equiv_pos_as_xyz
  1  'x, y, z'
loop_
 _atom_site_type_symbol
 _atom_site_label
 _atom_site_symmetry_multiplicity
 _atom_site_fract_x
 _atom_site_fract_y
 _atom_site_fract_z
 _atom_site_occupancy
  Mg  Mg0_0  1  0.00956250  0.00956250  0.49935000  1
  Mg  Mg0_1  1  0.00956250  0.00956250  0.99935000  1
  Mg  Mg0_2  1  0.00956250  0.50956250  0.49935000  1
  Mg  Mg0_3  1  0.00956250  0.50956250  0.99935000  1
  Mg  Mg0_4  1  0.50956250  0.00956250  0.49935000  1
  Mg  Mg0_5  1  0.50956250  0.00956250  0.99935000  1
  Mg  Mg0_6  1  0.50956250  0.50956250  0.49935000  1
  Mg  Mg0_7  1  0.50956250  0.50956250  0.99935000  1
  Mg  Mg1_0  1  0.19756200  0.19756200  0.36297150  1
  Mg  Mg1_1  1  0.19756200  0.19756200  0.86297150  1
  Mg  Mg1_2  1  0.19756200  0.69756200  0.36297150  1
  Mg  Mg1_3  1  0.19756200  0.69756200  0.86297150  1
  Mg  Mg1_4  1  0.69756200  0.19756200  0.36297150  1
  Mg  Mg1_5  1  0.69756200  0.19756200  0.86297150  1
  Mg  Mg1_6  1  0.69756200  0.69756200  0.36297150  1
  Mg  Mg1_7  1  0.69756200  0.69756200  0.86297150  1
  Mg  Mg2_0  1  0.15671250  0.15671250  0.16459150  1
  Mg  Mg2_1  1  0.15671250  0.15671250  0.66459150  1
  Mg  Mg2_2  1  0.15671250  0.65671250  0.16459150  1
  Mg  Mg2_3  1  0.15671250  0.65671250  0.66459150  1
  Mg  Mg2_4  1  0.65671250  0.15671250  0.16459150  1
  Mg  Mg2_5  1  0.65671250  0.15671250  0.66459150  1
  Mg  Mg2_6  1  0.65671250  0.65671250  0.16459150  1
  Mg  Mg2_7  1  0.65671250  0.65671250  0.66459150  1
  Bi  Bi0_0  1  0.33601050  0.33601050  0.33504250  1
  Bi  Bi0_1  1  0.33601050  0.33601050  0.83504250  1
  Bi  Bi0_2  1  0.33601050  0.83601050  0.33504250  1
  Bi  Bi0_3  1  0.33601050  0.83601050  0.83504250  1
  Bi  Bi0_4  1  0.83601050  0.33601050  0.33504250  1
  Bi  Bi0_5  1  0.83601050  0.33601050  0.83504250  1
  Bi  Bi0_6  1  0.83601050  0.83601050  0.33504250  1
  Bi  Bi0_7  1  0.83601050  0.83601050  0.83504250  1
  Bi  Bi1_0  1  0.00846100  0.00846100  0.20021850  1
  Bi  Bi1_1  1  0.00846100  0.00846100  0.70021850  1
  Bi  Bi1_2  1  0.00846100  0.50846100  0.20021850  1
  Bi  Bi1_3  1  0.00846100  0.50846100  0.70021850  1
  Bi  Bi1_4  1  0.50846100  0.00846100  0.20021850  1
  Bi  Bi1_5  1  0.50846100  0.00846100  0.70021850  1
  Bi  Bi1_6  1  0.50846100  0.50846100  0.20021850  1
  Bi  Bi1_7  1  0.50846100  0.50846100  0.70021850  1
  Bi  Bi2_0  1  0.37502500  0.37502500  0.02115950  1
  Bi  Bi2_1  1  0.37502500  0.37502500  0.52115950  1
  Bi  Bi2_2  1  0.37502500  0.87502500  0.02115950  1
  Bi  Bi2_3  1  0.37502500  0.87502500  0.52115950  1
  Bi  Bi2_4  1  0.87502500  0.37502500  0.02115950  1
  Bi  Bi2_5  1  0.87502500  0.37502500  0.52115950  1
  Bi  Bi2_6  1  0.87502500  0.87502500  0.02115950  1
  Bi  Bi2_7  1  0.87502500  0.87502500  0.52115950  1
loop_
_geom_bond_atom_site_label_1
_geom_bond_atom_site_label_2
_geom_bond_distance
_geom_bond_site_symmetry_2
Bi0_0 Mg1_0 3.160807 1_555
Bi0_0 Mg0_4 3.274942 1_555
Bi0_0 Mg0_2 3.274942 1_555
Bi0_0 Mg2_4 3.320860 1_555
Bi0_0 Mg2_2 3.320860 1_555
Bi0_0 Mg1_4 3.331590 1_555
Bi0_0 Mg1_2 3.331590 1_555
Bi0_1 Mg1_1 3.160807 1_555
Bi0_1 Mg0_5 3.274942 1_555
Bi0_1 Mg0_3 3.274942 1_555
Bi0_1 Mg2_5 3.320860 1_555
Bi0_1 Mg2_3 3.320860 1_555
Bi0_1 Mg1_5 3.331590 1_555
Bi0_1 Mg1_3 3.331590 1_555
Bi0_2 Mg1_2 3.160807 1_555
Bi0_2 Mg0_6 3.274942 1_555
Bi0_2 Mg0_0 3.274942 1_565
Bi0_2 Mg2_6 3.320860 1_555
Bi0_2 Mg2_0 3.320860 1_565
Bi0_2 Mg1_6 3.331590 1_555
Bi0_2 Mg1_0 3.331590 1_565
Bi0_3 Mg1_3 3.160807 1_555
Bi0_3 Mg0_1 3.274942 1_565
Bi0_3 Mg0_7 3.274942 1_555
Bi0_3 Mg2_7 3.320860 1_555
Bi0_3 Mg2_1 3.320860 1_565
Bi0_3 Mg1_1 3.331590 1_565
Bi0_3 Mg1_7 3.331590 1_555
Bi0_4 Mg1_4 3.160807 1_555
Bi0_4 Mg0_6 3.274942 1_555
Bi0_4 Mg0_0 3.274942 1_655
Bi0_4 Mg2_6 3.320860 1_555
Bi0_4 Mg2_0 3.320860 1_655
Bi0_4 Mg1_0 3.331590 1_655
Bi0_4 Mg1_6 3.331590 1_555
Bi0_5 Mg1_5 3.160807 1_555
Bi0_5 Mg0_1 3.274942 1_655
Bi0_5 Mg0_7 3.274942 1_555
Bi0_5 Mg2_7 3.320860 1_555
Bi0_5 Mg2_1 3.320860 1_655
Bi0_5 Mg1_1 3.331590 1_655
Bi0_5 Mg1_7 3.331590 1_555
Bi0_6 Mg1_6 3.160807 1_555
Bi0_6 Mg0_4 3.274942 1_565
Bi0_6 Mg0_2 3.274942 1_655
Bi0_6 Mg2_4 3.320860 1_565
Bi0_6 Mg2_2 3.320860 1_655
Bi0_6 Mg1_4 3.331590 1_565
Bi0_6 Mg1_2 3.331590 1_655
Bi0_7 Mg1_7 3.160807 1_555
Bi0_7 Mg0_3 3.274942 1_655
Bi0_7 Mg0_5 3.274942 1_565
Bi0_7 Mg2_3 3.320860 1_655
Bi0_7 Mg2_5 3.320860 1_565
Bi0_7 Mg1_3 3.331590 1_655
Bi0_7 Mg1_5 3.331590 1_565
Bi1_0 Mg1_4 3.185002 1_455
Bi1_0 Mg1_2 3.185002 1_545
Bi1_0 Mg2_2 3.195659 1_545
Bi1_0 Mg2_4 3.195659 1_455
Bi1_0 Mg2_0 3.364205 1_555
Bi1_0 Bi1_6 3.377524 1_545
Bi1_0 Bi1_6 3.377524 1_455
Bi1_0 Mg0_1 3.511553 1_554
Bi1_1 Mg1_5 3.185002 1_455
Bi1_1 Mg1_3 3.185002 1_545
Bi1_1 Mg2_3 3.195659 1_545
Bi1_1 Mg2_5 3.195659 1_455
Bi1_1 Mg2_1 3.364205 1_555
Bi1_1 Bi1_7 3.377524 1_545
Bi1_1 Bi1_7 3.377524 1_455
Bi1_1 Mg0_0 3.511553 1_555
Bi1_2 Mg1_0 3.185002 1_555
Bi1_2 Mg1_6 3.185002 1_455
Bi1_2 Mg2_0 3.195659 1_555
Bi1_2 Mg2_6 3.195659 1_455
Bi1_2 Mg2_2 3.364205 1_555
Bi1_2 Bi1_4 3.377524 1_555
Bi1_2 Bi1_4 3.377524 1_465
Bi1_2 Mg0_3 3.511553 1_554
Bi1_3 Mg1_7 3.185002 1_455
Bi1_3 Mg1_1 3.185002 1_555
Bi1_3 Mg2_1 3.195659 1_555
Bi1_3 Mg2_7 3.195659 1_455
Bi1_3 Mg2_3 3.364205 1_555
Bi1_3 Bi1_5 3.377524 1_465
Bi1_3 Bi1_5 3.377524 1_555
Bi1_3 Mg0_2 3.511553 1_555
Bi1_4 Mg1_0 3.185002 1_555
Bi1_4 Mg1_6 3.185002 1_545
Bi1_4 Mg2_0 3.195659 1_555
Bi1_4 Mg2_6 3.195659 1_545
Bi1_4 Mg2_4 3.364205 1_555
Bi1_4 Mg0_5 3.511553 1_554
Bi1_5 Mg1_7 3.185002 1_545
Bi1_5 Mg1_1 3.185002 1_555
Bi1_5 Mg2_1 3.195659 1_555
Bi1_5 Mg2_7 3.195659 1_545
Bi1_5 Mg2_5 3.364205 1_555
Bi1_5 Mg0_4 3.511553 1_555
Bi1_6 Mg1_2 3.185002 1_555
Bi1_6 Mg1_4 3.185002 1_555
Bi1_6 Mg2_4 3.195659 1_555
Bi1_6 Mg2_2 3.195659 1_555
Bi1_6 Mg2_6 3.364205 1_555
Bi1_6 Mg0_7 3.511553 1_554
Bi1_7 Mg1_3 3.185002 1_555
Bi1_7 Mg1_5 3.185002 1_555
Bi1_7 Mg2_5 3.195659 1_555
Bi1_7 Mg2_3 3.195659 1_555
Bi1_7 Mg2_7 3.364205 1_555
Bi1_7 Mg0_6 3.511553 1_555
Bi2_0 Mg0_7 3.093204 1_554
Bi2_0 Mg1_5 3.179849 1_554
Bi2_0 Mg1_3 3.179849 1_554
Bi2_0 Mg2_4 3.331526 1_555
Bi2_0 Mg2_2 3.331526 1_555
Bi2_0 Mg0_3 3.366441 1_554
Bi2_0 Mg0_5 3.366441 1_554
Bi2_1 Mg0_6 3.093204 1_555
Bi2_1 Mg1_2 3.179849 1_555
Bi2_1 Mg1_4 3.179849 1_555
Bi2_1 Mg2_3 3.331526 1_555
Bi2_1 Mg2_5 3.331526 1_555
Bi2_1 Mg0_2 3.366441 1_555
Bi2_1 Mg0_4 3.366441 1_555
Bi2_2 Mg0_5 3.093204 1_564
Bi2_2 Mg1_1 3.179849 1_564
Bi2_2 Mg1_7 3.179849 1_554
Bi2_2 Mg2_6 3.331526 1_555
Bi2_2 Mg2_0 3.331526 1_565
Bi2_2 Mg0_1 3.366441 1_564
Bi2_2 Mg0_7 3.366441 1_554
Bi2_3 Mg0_4 3.093204 1_565
Bi2_3 Mg1_6 3.179849 1_555
Bi2_3 Mg1_0 3.179849 1_565
Bi2_3 Mg2_7 3.331526 1_555
Bi2_3 Mg2_1 3.331526 1_565
Bi2_3 Mg0_6 3.366441 1_555
Bi2_3 Mg0_0 3.366441 1_565
Bi2_4 Mg0_3 3.093204 1_654
Bi2_4 Mg1_1 3.179849 1_654
Bi2_4 Mg1_7 3.179849 1_554
Bi2_4 Mg2_6 3.331526 1_555
Bi2_4 Mg2_0 3.331526 1_655
Bi2_4 Mg0_1 3.366441 1_654
Bi2_4 Mg0_7 3.366441 1_554
Bi2_5 Mg0_2 3.093204 1_655
Bi2_5 Mg1_6 3.179849 1_555
Bi2_5 Mg1_0 3.179849 1_655
Bi2_5 Mg2_7 3.331526 1_555
Bi2_5 Mg2_1 3.331526 1_655
Bi2_5 Mg0_6 3.366441 1_555
Bi2_5 Mg0_0 3.366441 1_655
Bi2_6 Mg0_1 3.093204 1_664
Bi2_6 Mg1_5 3.179849 1_564
Bi2_6 Mg1_3 3.179849 1_654
Bi2_6 Mg2_4 3.331526 1_565
Bi2_6 Mg2_2 3.331526 1_655
Bi2_6 Mg0_5 3.366441 1_564
Bi2_6 Mg0_3 3.366441 1_654
Bi2_7 Mg0_0 3.093204 1_665
Bi2_7 Mg1_2 3.179849 1_655
Bi2_7 Mg1_4 3.179849 1_565
Bi2_7 Mg2_3 3.331526 1_655
Bi2_7 Mg2_5 3.331526 1_565
Bi2_7 Mg0_4 3.366441 1_565
Bi2_7 Mg0_2 3.366441 1_655
