# generated using pymatgen
data_Li4Mn3Co3(SbO8)2
_symmetry_space_group_name_H-M   'P 1'
_cell_length_a   5.96733739
_cell_length_b   19.38957832
_cell_length_c   5.99818725
_cell_angle_alpha   89.28382678
_cell_angle_beta   120.73546066
_cell_angle_gamma   90.45422947
_symmetry_Int_Tables_number   1
_chemical_formula_structural   Li4Mn3Co3(SbO8)2
_chemical_formula_sum   'Li8 Mn6 Co6 Sb4 O32'
_cell_volume   596.48357371
_cell_formula_units_Z   2
loop_
 _symmetry_equiv_pos_site_id
 _symmetry_equiv_pos_as_xyz
  1  'x, y, z'
loop_
 _atom_site_type_symbol
 _atom_site_label
 _atom_site_symmetry_multiplicity
 _atom_site_fract_x
 _atom_site_fract_y
 _atom_site_fract_z
 _atom_site_occupancy
  Li  Li0  1  0.65814000  0.45159900  0.34439800  1
  Li  Li1  1  0.65953400  0.95345700  0.32926000  1
  Li  Li2  1  0.00194800  0.49469900  0.99582300  1
  Li  Li3  1  0.99961500  0.99443900  0.00562300  1
  Li  Li4  1  0.00925500  0.24401200  0.99627900  1
  Li  Li5  1  0.00428100  0.74367700  0.00934100  1
  Li  Li6  1  0.33887400  0.20286600  0.66409600  1
  Li  Li7  1  0.33612400  0.70072300  0.67904300  1
  Mn  Mn0  1  0.82733300  0.60641200  0.66070500  1
  Mn  Mn1  1  0.66222500  0.35608300  0.82763000  1
  Mn  Mn2  1  0.16954600  0.35823100  0.82448800  1
  Mn  Mn3  1  0.83480600  0.10650900  0.65876400  1
  Mn  Mn4  1  0.66423800  0.85658600  0.84477100  1
  Mn  Mn5  1  0.15983200  0.85700600  0.82315900  1
  Co  Co0  1  0.16903200  0.35611100  0.33548300  1
  Co  Co1  1  0.18111800  0.85647500  0.34466800  1
  Co  Co2  1  0.83379200  0.10749800  0.16874000  1
  Co  Co3  1  0.82830000  0.60460700  0.17200000  1
  Co  Co4  1  0.34199900  0.10643200  0.16986900  1
  Co  Co5  1  0.34022500  0.60807900  0.17069500  1
  Sb  Sb0  1  0.66907800  0.24367900  0.31850900  1
  Sb  Sb1  1  0.66978900  0.74272200  0.34077100  1
  Sb  Sb2  1  0.32722100  0.49374500  0.66007200  1
  Sb  Sb3  1  0.33054300  0.99358300  0.66380700  1
  O  O0  1  0.49987500  0.17005500  0.03033500  1
  O  O1  1  0.51000500  0.67619200  0.04309100  1
  O  O2  1  0.65800600  0.05770100  0.33530800  1
  O  O3  1  0.65366700  0.55546000  0.34748300  1
  O  O4  1  0.01246100  0.14917900  0.99251900  1
  O  O5  1  0.00414000  0.64960100  0.98915000  1
  O  O6  1  0.99544800  0.40057900  0.97914700  1
  O  O7  1  0.00483300  0.89867100  0.00638400  1
  O  O8  1  0.17847400  0.04998900  0.32850500  1
  O  O9  1  0.15732300  0.54331200  0.32440800  1
  O  O10  1  0.85652700  0.29701800  0.65646500  1
  O  O11  1  0.85151700  0.79561100  0.67288800  1
  O  O12  1  0.33851200  0.30706400  0.68443300  1
  O  O13  1  0.33433400  0.80822400  0.67018000  1
  O  O14  1  0.45860200  0.42574800  0.96929900  1
  O  O15  1  0.44726900  0.92389400  0.96381000  1
  O  O16  1  0.82842600  0.29534500  0.14203600  1
  O  O17  1  0.82722100  0.79510400  0.16252200  1
  O  O18  1  0.33512000  0.29872200  0.15001900  1
  O  O19  1  0.33573200  0.79636600  0.19625300  1
  O  O20  1  0.96974500  0.17482800  0.44366800  1
  O  O21  1  0.96451300  0.66995300  0.50309700  1
  O  O22  1  0.54316100  0.17735000  0.49810700  1
  O  O23  1  0.52952000  0.67042600  0.50193700  1
  O  O24  1  0.48795100  0.42341200  0.53325200  1
  O  O25  1  0.51471300  0.92519900  0.55105500  1
  O  O26  1  0.02958800  0.42112200  0.52978800  1
  O  O27  1  0.03151400  0.92416700  0.47366800  1
  O  O28  1  0.66316000  0.04715000  0.85681700  1
  O  O29  1  0.66610800  0.54807700  0.82405200  1
  O  O30  1  0.14332100  0.04397800  0.81163600  1
  O  O31  1  0.15296700  0.54911600  0.82069000  1
loop_
_geom_bond_atom_site_label_1
_geom_bond_atom_site_label_2
_geom_bond_distance
_geom_bond_site_symmetry_2
Li0 O24 1.940339 1_555
Li0 O26 1.995947 1_655
Li0 O14 2.002883 1_554
Li0 O3 2.014651 1_555
Li1 O15 1.979864 1_554
Li1 O25 1.991571 1_555
Li1 O27 2.010576 1_655
Li1 O2 2.022202 1_565
Li2 O6 1.827954 1_455
Li2 O9 1.948679 1_556
Li2 O31 1.988411 1_555
Li2 O29 2.011143 1_455
Li3 O7 1.857318 1_655
Li3 O8 1.992781 1_665
Li3 O30 1.997705 1_664
Li3 O28 2.012527 1_564
Li4 O4 1.839563 1_555
Li4 O18 1.978836 1_556
Li4 O16 1.980531 1_456
Li4 O10 2.026117 1_455
Li5 O5 1.829585 1_554
Li5 O19 1.985614 1_555
Li5 O17 1.996690 1_455
Li5 O11 2.000269 1_454
Li6 O20 1.979331 1_455
Li6 O0 1.992746 1_556
Li6 O22 1.996153 1_555
Li6 O12 2.025641 1_555
Li7 O1 1.933139 1_556
Li7 O21 1.997449 1_455
Li7 O23 2.021123 1_555
Li7 O13 2.084385 1_555
Mn0 O5 1.896908 1_655
Mn0 O3 1.902571 1_555
Mn0 O21 1.956432 1_555
Mn0 O23 1.970099 1_555
Mn0 O31 2.008119 1_655
Mn0 O29 2.020770 1_555
Mn1 O12 1.915193 1_555
Mn1 O6 1.915589 1_555
Mn1 O16 1.994559 1_556
Mn1 O24 1.997635 1_555
Mn1 O10 2.230971 1_555
Mn1 O14 2.265664 1_555
Mn2 O12 1.899766 1_555
Mn2 O6 1.905726 1_455
Mn2 O26 1.939696 1_555
Mn2 O14 1.976040 1_555
Mn2 O10 1.995994 1_455
Mn2 O18 2.027317 1_556
Mn3 O4 1.916841 1_655
Mn3 O2 1.926316 1_555
Mn3 O30 1.995558 1_655
Mn3 O22 2.033400 1_555
Mn3 O28 2.230677 1_555
Mn3 O20 2.251667 1_555
Mn4 O7 1.927701 1_656
Mn4 O13 1.933797 1_555
Mn4 O25 2.005817 1_555
Mn4 O17 2.016547 1_556
Mn4 O15 2.210063 1_555
Mn4 O11 2.222336 1_555
Mn5 O7 1.946551 1_556
Mn5 O13 1.958304 1_555
Mn5 O15 1.961829 1_555
Mn5 O11 1.977756 1_455
Mn5 O27 2.232368 1_555
Mn5 O19 2.246138 1_556
Co0 O6 2.022328 1_454
Co0 O12 2.027299 1_555
Co0 O24 2.103236 1_555
Co0 O16 2.109803 1_455
Co0 O18 2.152542 1_555
Co0 O26 2.164333 1_555
Co1 O13 1.914842 1_555
Co1 O7 1.919261 1_555
Co1 O27 1.966835 1_555
Co1 O19 1.970948 1_555
Co1 O17 2.168810 1_455
Co1 O25 2.179719 1_555
Co2 O20 1.936872 1_555
Co2 O28 1.998768 1_554
Co2 O4 2.006004 1_654
Co2 O2 2.015418 1_555
Co2 O8 2.094571 1_655
Co2 O0 2.110258 1_555
Co3 O3 2.045077 1_555
Co3 O5 2.050104 1_654
Co3 O9 2.068409 1_655
Co3 O29 2.114149 1_554
Co3 O21 2.146331 1_555
Co3 O1 2.155423 1_555
Co4 O2 1.877645 1_555
Co4 O4 1.884457 1_554
Co4 O0 1.967634 1_555
Co4 O8 1.990338 1_555
Co4 O22 2.198602 1_555
Co4 O30 2.219793 1_554
Co5 O5 1.904609 1_554
Co5 O3 1.907806 1_555
Co5 O1 2.025489 1_555
Co5 O23 2.104590 1_555
Co5 O9 2.143894 1_555
Co5 O31 2.145933 1_554
O0 Sb0 2.073651 1_555
O1 Sb1 2.014756 1_555
O8 Sb3 2.039563 1_545
O9 Sb2 1.971257 1_555
O10 Sb0 2.036272 1_555
O11 Sb1 2.005339 1_555
O14 Sb2 2.064484 1_555
O15 Sb3 2.054774 1_555
O16 Sb0 2.003850 1_555
O17 Sb1 2.010391 1_555
O18 Sb0 2.019890 1_555
O19 Sb1 2.012742 1_555
O20 Sb0 2.049641 1_555
O21 Sb1 2.070408 1_555
O22 Sb0 2.038756 1_555
O23 Sb1 2.091592 1_555
O24 Sb2 2.037343 1_555
O25 Sb3 2.056347 1_555
O26 Sb2 2.077771 1_555
O27 Sb3 2.053416 1_555
O28 Sb3 2.001814 1_545
O29 Sb2 2.031198 1_555
O30 Sb3 2.010168 1_545
O31 Sb2 2.056605 1_555
