# generated using pymatgen
data_TiPt3
_symmetry_space_group_name_H-M   'P 1'
_cell_length_a   5.55542923
_cell_length_b   5.55542923
_cell_length_c   9.04789721
_cell_angle_alpha   90.00000000
_cell_angle_beta   90.00000000
_cell_angle_gamma   120.00000562
_symmetry_Int_Tables_number   1
_chemical_formula_structural   TiPt3
_chemical_formula_sum   'Ti4 Pt12'
_cell_volume   241.83185353
_cell_formula_units_Z   4
loop_
 _symmetry_equiv_pos_site_id
 _symmetry_equiv_pos_as_xyz
  1  'x, y, z'
loop_
 _atom_site_type_symbol
 _atom_site_label
 _atom_site_symmetry_multiplicity
 _atom_site_fract_x
 _atom_site_fract_y
 _atom_site_fract_z
 _atom_site_occupancy
  Ti  Ti0  1  0.00000000  -0.00000000  0.50000000  1
  Ti  Ti1  1  0.00000000  -0.00000000  -0.00000000  1
  Ti  Ti2  1  0.33333300  0.66666700  0.25000000  1
  Ti  Ti3  1  0.66666700  0.33333300  0.75000000  1
  Pt  Pt0  1  0.50000000  0.50000000  0.50000000  1
  Pt  Pt1  1  0.50000000  -0.00000000  0.50000000  1
  Pt  Pt2  1  0.00000000  0.50000000  0.50000000  1
  Pt  Pt3  1  0.50000000  0.50000000  -0.00000000  1
  Pt  Pt4  1  0.50000000  -0.00000000  -0.00000000  1
  Pt  Pt5  1  0.00000000  0.50000000  -0.00000000  1
  Pt  Pt6  1  0.83324874  0.66649949  0.25000000  1
  Pt  Pt7  1  0.33350051  0.16675126  0.25000000  1
  Pt  Pt8  1  0.83324874  0.16675126  0.25000000  1
  Pt  Pt9  1  0.16675126  0.33350051  0.75000000  1
  Pt  Pt10  1  0.66649949  0.83324874  0.75000000  1
  Pt  Pt11  1  0.16675126  0.83324874  0.75000000  1
loop_
_geom_bond_atom_site_label_1
_geom_bond_atom_site_label_2
_geom_bond_distance
_geom_bond_site_symmetry_2
Pt0 Pt10 2.772566 1_555
Pt0 Pt9 2.772566 1_555
Pt0 Pt6 2.772566 1_555
Pt0 Pt7 2.772566 1_555
Pt0 Ti2 2.772803 1_555
Pt0 Ti3 2.772803 1_555
Pt0 Ti0 2.777714 1_665
Pt0 Ti0 2.777714 1_555
Pt0 Pt1 2.777715 1_555
Pt0 Pt1 2.777715 1_565
Pt0 Pt2 2.777715 1_555
Pt0 Pt2 2.777715 1_655
Pt1 Pt11 2.772566 1_545
Pt1 Pt8 2.772566 1_555
Pt1 Pt7 2.772572 1_555
Pt1 Pt10 2.772572 1_545
Pt1 Ti2 2.772800 1_545
Pt1 Ti3 2.772800 1_555
Pt1 Pt2 2.777714 1_655
Pt1 Pt2 2.777714 1_545
Pt1 Ti0 2.777715 1_555
Pt1 Ti0 2.777715 1_655
Pt2 Pt8 2.772566 1_455
Pt2 Pt9 2.772572 1_555
Pt2 Pt6 2.772572 1_455
Pt2 Ti3 2.772800 1_455
Pt2 Ti2 2.772800 1_555
Pt2 Ti0 2.777715 1_555
Pt2 Ti0 2.777715 1_565
Pt3 Pt9 2.772566 1_554
Pt3 Pt6 2.772566 1_555
Pt3 Pt7 2.772566 1_555
Pt3 Ti2 2.772803 1_555
Pt3 Ti3 2.772803 1_554
Pt3 Ti1 2.777714 1_555
Pt3 Ti1 2.777714 1_665
Pt3 Pt4 2.777715 1_565
Pt3 Pt5 2.777715 1_555
Pt3 Pt5 2.777715 1_655
Pt3 Pt4 2.777715 1_555
Pt4 Pt8 2.772566 1_555
Pt4 Pt7 2.772572 1_555
Pt4 Ti2 2.772800 1_545
Pt4 Ti3 2.772800 1_554
Pt4 Pt5 2.777714 1_545
Pt4 Pt5 2.777714 1_655
Pt4 Ti1 2.777715 1_555
Pt4 Ti1 2.777715 1_655
Pt5 Pt8 2.772566 1_455
Pt5 Pt9 2.772572 1_554
Pt5 Pt6 2.772572 1_455
Pt5 Ti3 2.772800 1_454
Pt5 Ti2 2.772800 1_555
Pt5 Ti1 2.777715 1_555
Pt5 Ti1 2.777715 1_565
Pt6 Ti0 2.773267 1_665
Pt6 Ti1 2.773267 1_665
Pt6 Pt7 2.776316 1_555
Pt6 Pt8 2.776316 1_555
Pt6 Ti2 2.777712 1_555
Pt6 Ti2 2.777718 1_655
Pt6 Pt7 2.779113 1_665
Pt6 Pt8 2.779113 1_565
Pt7 Ti1 2.773267 1_555
Pt7 Ti0 2.773267 1_555
Pt7 Pt8 2.776316 1_555
Pt7 Ti2 2.777712 1_555
Pt7 Ti2 2.777718 1_545
Pt7 Pt8 2.779113 1_455
Pt8 Ti1 2.773272 1_655
Pt8 Ti0 2.773272 1_655
Pt8 Ti2 2.777714 1_545
Pt8 Ti2 2.777714 1_655
Pt9 Ti1 2.773267 1_556
Pt9 Ti0 2.773267 1_555
Pt9 Ti3 2.777712 1_555
Pt9 Ti3 2.777718 1_455
Pt10 Pt3 2.772566 1_556
Pt10 Pt4 2.772572 1_566
Pt10 Ti0 2.773267 1_665
Pt10 Ti1 2.773267 1_666
Pt10 Pt9 2.776316 1_555
Pt10 Pt11 2.776316 1_555
Pt10 Ti3 2.777712 1_555
Pt10 Ti3 2.777718 1_565
Pt10 Pt9 2.779113 1_665
Pt10 Pt11 2.779113 1_655
Pt11 Pt4 2.772566 1_566
Pt11 Pt5 2.772566 1_556
Pt11 Pt2 2.772566 1_555
Pt11 Ti1 2.773272 1_566
Pt11 Ti0 2.773272 1_565
Pt11 Pt9 2.776316 1_555
Pt11 Ti3 2.777714 1_455
Pt11 Ti3 2.777714 1_565
Pt11 Pt9 2.779113 1_565
