# generated using pymatgen
data_MgMn8(OF)8
_symmetry_space_group_name_H-M   'P 1'
_cell_length_a   4.87894303
_cell_length_b   4.89703634
_cell_length_c   12.57665641
_cell_angle_alpha   88.74944376
_cell_angle_beta   90.16318934
_cell_angle_gamma   89.12472385
_symmetry_Int_Tables_number   1
_chemical_formula_structural   MgMn8(OF)8
_chemical_formula_sum   'Mg1 Mn8 O8 F8'
_cell_volume   300.37787351
_cell_formula_units_Z   1
loop_
 _symmetry_equiv_pos_site_id
 _symmetry_equiv_pos_as_xyz
  1  'x, y, z'
loop_
 _atom_site_type_symbol
 _atom_site_label
 _atom_site_symmetry_multiplicity
 _atom_site_fract_x
 _atom_site_fract_y
 _atom_site_fract_z
 _atom_site_occupancy
  Mg  Mg0  1  0.50673000  0.00337600  0.93532800  1
  Mn  Mn0  1  0.99744400  0.90817900  0.02028200  1
  Mn  Mn1  1  0.03984000  0.03252900  0.25585700  1
  Mn  Mn2  1  0.97919500  0.95885300  0.49661900  1
  Mn  Mn3  1  0.04426300  0.01785200  0.74007200  1
  Mn  Mn4  1  0.47363000  0.52160300  0.61666300  1
  Mn  Mn5  1  0.54936500  0.45991200  0.13402000  1
  Mn  Mn6  1  0.47589900  0.52596400  0.37573400  1
  Mn  Mn7  1  0.47392800  0.52093200  0.86151500  1
  O  O0  1  0.19023300  0.81818200  0.37295700  1
  O  O1  1  0.17215800  0.79968500  0.61365200  1
  O  O2  1  0.19680500  0.81397800  0.87862300  1
  O  O3  1  0.33144700  0.31902500  0.25347400  1
  O  O4  1  0.31751200  0.33511400  0.74675600  1
  O  O5  1  0.66850800  0.66767300  0.99471100  1
  O  O6  1  0.65845000  0.68609600  0.49606000  1
  O  O7  1  0.82657300  0.16699100  0.12759100  1
  F  F0  1  0.26621400  0.78322400  0.13530000  1
  F  F1  1  0.29408900  0.27330600  0.00269000  1
  F  F2  1  0.27084400  0.29260900  0.49597300  1
  F  F3  1  0.74925300  0.70559800  0.25178800  1
  F  F4  1  0.68873400  0.75589100  0.75154900  1
  F  F5  1  0.78781000  0.19754000  0.38284200  1
  F  F6  1  0.78413400  0.21736100  0.61917500  1
  F  F7  1  0.78471700  0.21852600  0.87306200  1
loop_
_geom_bond_atom_site_label_1
_geom_bond_atom_site_label_2
_geom_bond_distance
_geom_bond_site_symmetry_2
Mg0 O2 1.928957 1_545
Mg0 O5 1.945958 1_545
Mn0 O5 2.034078 1_554
Mn0 O7 2.042429 1_565
Mn0 O2 2.089262 1_654
Mn1 O0 1.926645 1_545
Mn1 O7 2.010391 1_455
Mn1 O3 2.013161 1_555
Mn2 O1 1.892072 1_655
Mn2 O0 1.996933 1_655
Mn2 O6 2.072982 1_555
Mn3 O1 2.029316 1_545
Mn3 O4 2.065563 1_555
Mn3 O2 2.116830 1_545
Mn4 O6 1.933718 1_555
Mn4 O1 1.988857 1_555
Mn4 O4 2.013518 1_555
Mn5 O7 1.959538 1_555
Mn5 O3 1.962061 1_555
Mn5 O5 2.094933 1_554
Mn6 O6 1.940032 1_555
Mn6 O0 1.981951 1_555
Mn6 O3 1.992888 1_555
Mn7 O4 1.888319 1_555
Mn7 O2 1.972213 1_555
Mn7 O5 2.070779 1_555
F0 Mn0 2.027931 1_455
F0 Mn5 2.085641 1_555
F0 Mn1 2.249077 1_565
F1 Mg0 1.885034 1_554
F1 Mn5 2.281073 1_555
F1 Mn7 2.310885 1_554
F1 Mn0 2.324731 1_445
F2 Mn6 2.135804 1_555
F2 Mn4 2.154062 1_555
F2 Mn2 2.183271 1_445
F3 Mn1 2.156002 1_665
F3 Mn5 2.167434 1_555
F3 Mn6 2.229416 1_555
F4 Mn7 2.076195 1_555
F4 Mn3 2.176391 1_665
F4 Mn4 2.325332 1_555
F5 Mn2 2.042485 1_545
F5 Mn1 2.180069 1_655
F5 Mn6 2.197424 1_555
F6 Mn4 2.108195 1_555
F6 Mn3 2.182528 1_655
F6 Mn2 2.222777 1_545
F7 Mg0 1.891166 1_555
F7 Mn7 2.105735 1_555
F7 Mn3 2.326486 1_655
F7 Mn0 2.575491 1_546
