# generated using pymatgen
data_Mg14CrGa
_symmetry_space_group_name_H-M   'P 1'
_cell_length_a   6.25743433
_cell_length_b   6.26331453
_cell_length_c   10.26553322
_cell_angle_alpha   90.00000000
_cell_angle_beta   90.00000000
_cell_angle_gamma   120.03109556
_symmetry_Int_Tables_number   1
_chemical_formula_structural   Mg14CrGa
_chemical_formula_sum   'Mg14 Cr1 Ga1'
_cell_volume   348.31846634
_cell_formula_units_Z   1
loop_
 _symmetry_equiv_pos_site_id
 _symmetry_equiv_pos_as_xyz
  1  'x, y, z'
loop_
 _atom_site_type_symbol
 _atom_site_label
 _atom_site_symmetry_multiplicity
 _atom_site_fract_x
 _atom_site_fract_y
 _atom_site_fract_z
 _atom_site_occupancy
  Mg  Mg0  1  0.16794703  0.33397302  0.62500000  1
  Mg  Mg1  1  0.16744096  0.83371998  0.62500000  1
  Mg  Mg2  1  0.66875430  0.33319247  0.12500000  1
  Mg  Mg3  1  0.66572000  0.33317242  0.62500000  1
  Mg  Mg4  1  0.66875430  0.83556083  0.12500000  1
  Mg  Mg5  1  0.66572000  0.83254658  0.62500000  1
  Mg  Mg6  1  0.32912879  0.16447263  0.36745165  1
  Mg  Mg7  1  0.32912879  0.16447263  0.88254835  1
  Mg  Mg8  1  0.32912879  0.66465716  0.36745165  1
  Mg  Mg9  1  0.32912879  0.66465716  0.88254835  1
  Mg  Mg10  1  0.83703854  0.16851977  0.37253436  1
  Mg  Mg11  1  0.83703854  0.16851977  0.87746564  1
  Mg  Mg12  1  0.83702296  0.66851198  0.37243313  1
  Mg  Mg13  1  0.83702296  0.66851198  0.87756687  1
  Cr  Cr0  1  0.16509542  0.33254721  0.12500000  1
  Ga  Ga0  1  0.16592982  0.83296441  0.12500000  1
loop_
_geom_bond_atom_site_label_1
_geom_bond_atom_site_label_2
_geom_bond_distance
_geom_bond_site_symmetry_2
Mg0 Mg5 3.117294 1_555
Mg0 Mg3 3.117294 1_555
Mg0 Mg1 3.131658 1_555
Mg0 Mg1 3.131658 1_545
Mg0 Mg5 3.140146 1_445
Mg0 Mg3 3.140146 1_455
Mg0 Mg10 3.151273 1_455
Mg0 Mg11 3.151273 1_455
Mg0 Mg6 3.194702 1_555
Mg0 Mg7 3.194702 1_555
Mg0 Mg9 3.194708 1_555
Mg0 Mg8 3.194708 1_555
Mg1 Mg3 3.121633 1_565
Mg1 Mg5 3.121633 1_555
Mg1 Mg3 3.135814 1_455
Mg1 Mg5 3.135814 1_455
Mg1 Mg12 3.150617 1_455
Mg1 Mg13 3.150617 1_455
Mg1 Mg9 3.194886 1_555
Mg1 Mg8 3.194886 1_555
Mg1 Mg7 3.194892 1_565
Mg1 Mg6 3.194892 1_565
Mg2 Mg7 3.095130 1_554
Mg2 Mg6 3.095130 1_555
Mg2 Mg4 3.116823 1_545
Mg2 Mg4 3.146491 1_555
Mg3 Mg5 3.127737 1_555
Mg3 Mg5 3.135577 1_545
Mg3 Mg6 3.211701 1_555
Mg3 Mg7 3.211701 1_555
Mg4 Mg9 3.095130 1_554
Mg4 Mg8 3.095130 1_555
Mg5 Mg8 3.211701 1_555
Mg5 Mg9 3.211701 1_555
Mg6 Mg8 3.130501 1_545
Mg6 Mg8 3.132813 1_555
Mg7 Mg9 3.130501 1_545
Mg7 Mg9 3.132813 1_555
Mg10 Mg8 3.092426 1_655
Mg10 Mg6 3.092427 1_655
Mg10 Mg2 3.117179 1_555
Mg10 Mg4 3.117185 1_545
Mg10 Mg12 3.131657 1_545
Mg10 Mg12 3.131657 1_555
Mg10 Mg8 3.166032 1_545
Mg10 Mg6 3.166032 1_555
Mg10 Mg3 3.167995 1_555
Mg10 Mg5 3.168001 1_545
Mg11 Mg9 3.092426 1_655
Mg11 Mg7 3.092427 1_655
Mg11 Mg2 3.117179 1_556
Mg11 Mg4 3.117185 1_546
Mg11 Mg13 3.131657 1_545
Mg11 Mg13 3.131657 1_555
Mg11 Mg9 3.166032 1_545
Mg11 Mg7 3.166032 1_555
Mg11 Mg3 3.167995 1_555
Mg11 Mg5 3.168001 1_545
Mg12 Mg6 3.091897 1_665
Mg12 Mg8 3.091897 1_655
Mg12 Mg4 3.123752 1_555
Mg12 Mg2 3.123758 1_555
Mg12 Mg6 3.166513 1_555
Mg12 Mg8 3.166513 1_555
Mg12 Mg5 3.166883 1_555
Mg12 Mg3 3.166889 1_555
Mg13 Mg7 3.091897 1_665
Mg13 Mg9 3.091897 1_655
Mg13 Mg4 3.123752 1_556
Mg13 Mg2 3.123758 1_556
Mg13 Mg7 3.166513 1_555
Mg13 Mg9 3.166513 1_555
Mg13 Mg5 3.166883 1_555
Mg13 Mg3 3.166889 1_555
Cr0 Mg7 3.072113 1_554
Cr0 Mg6 3.072113 1_555
Cr0 Mg8 3.072120 1_555
Cr0 Mg9 3.072120 1_554
Cr0 Mg11 3.100893 1_454
Cr0 Mg10 3.100893 1_455
Cr0 Mg4 3.107846 1_445
Cr0 Mg2 3.107847 1_455
Cr0 Ga0 3.131661 1_555
Cr0 Ga0 3.131661 1_545
Cr0 Mg4 3.149591 1_555
Cr0 Mg2 3.149592 1_555
Ga0 Mg8 3.070220 1_555
Ga0 Mg9 3.070220 1_554
Ga0 Mg7 3.070226 1_564
Ga0 Mg6 3.070226 1_565
Ga0 Mg12 3.102684 1_455
Ga0 Mg13 3.102684 1_454
Ga0 Mg2 3.119213 1_455
Ga0 Mg4 3.119214 1_455
Ga0 Mg2 3.138284 1_565
Ga0 Mg4 3.138284 1_555
