# generated using pymatgen
data_TbZnPd
_symmetry_space_group_name_H-M   'P 1'
_cell_length_a   7.25322479
_cell_length_b   7.25322479
_cell_length_c   3.85975873
_cell_angle_alpha   90.00000000
_cell_angle_beta   90.00000000
_cell_angle_gamma   119.99999662
_symmetry_Int_Tables_number   1
_chemical_formula_structural   TbZnPd
_chemical_formula_sum   'Tb3 Zn3 Pd3'
_cell_volume   175.85433516
_cell_formula_units_Z   3
loop_
 _symmetry_equiv_pos_site_id
 _symmetry_equiv_pos_as_xyz
  1  'x, y, z'
loop_
 _atom_site_type_symbol
 _atom_site_label
 _atom_site_symmetry_multiplicity
 _atom_site_fract_x
 _atom_site_fract_y
 _atom_site_fract_z
 _atom_site_occupancy
  Tb  Tb0  1  -0.00000000  0.40444840  0.00000000  1
  Tb  Tb1  1  0.59555160  0.59555160  -0.00000000  1
  Tb  Tb2  1  0.40444840  -0.00000000  -0.00000000  1
  Zn  Zn0  1  0.00000000  0.75088562  0.50000000  1
  Zn  Zn1  1  0.24911438  0.24911438  0.50000000  1
  Zn  Zn2  1  0.75088562  0.00000000  0.50000000  1
  Pd  Pd0  1  -0.00000000  -0.00000000  0.00000000  1
  Pd  Pd1  1  0.33333300  0.66666700  0.50000000  1
  Pd  Pd2  1  0.66666700  0.33333300  0.50000000  1
loop_
_geom_bond_atom_site_label_1
_geom_bond_atom_site_label_2
_geom_bond_distance
_geom_bond_site_symmetry_2
Tb0 Zn0 3.168364 1_555
Tb0 Zn0 3.168364 1_554
Tb0 Zn1 3.208491 1_554
Tb0 Zn1 3.208491 1_555
Tb0 Zn2 3.208491 1_455
Tb0 Zn2 3.208491 1_454
Tb1 Zn1 3.168365 1_555
Tb1 Zn1 3.168365 1_554
Tb1 Zn2 3.208491 1_564
Tb1 Zn0 3.208491 1_654
Tb1 Zn0 3.208491 1_655
Tb1 Zn2 3.208491 1_565
Tb2 Zn2 3.168364 1_555
Tb2 Zn2 3.168364 1_554
Tb2 Zn1 3.208491 1_554
Tb2 Zn1 3.208491 1_555
Tb2 Zn0 3.208491 1_545
Tb2 Zn0 3.208491 1_544
Pd0 Zn2 2.643721 1_455
Pd0 Zn0 2.643721 1_544
Pd0 Zn0 2.643721 1_545
Pd0 Zn2 2.643721 1_454
Pd0 Zn1 2.643721 1_554
Pd0 Zn1 2.643721 1_555
Pd0 Tb2 2.933555 1_555
Pd0 Tb0 2.933555 1_555
Pd0 Tb1 2.933555 1_445
Pd1 Zn0 2.774076 1_555
Pd1 Zn2 2.774081 1_565
Pd1 Zn1 2.774084 1_555
Pd1 Tb2 2.930675 1_566
Pd1 Tb2 2.930675 1_565
Pd1 Tb0 2.930677 1_555
Pd1 Tb0 2.930677 1_556
Pd1 Tb1 2.930680 1_555
Pd1 Tb1 2.930680 1_556
Pd2 Zn2 2.774076 1_555
Pd2 Zn0 2.774081 1_655
Pd2 Zn1 2.774084 1_555
Pd2 Tb0 2.930675 1_656
Pd2 Tb0 2.930675 1_655
Pd2 Tb2 2.930677 1_555
Pd2 Tb2 2.930677 1_556
Pd2 Tb1 2.930680 1_555
Pd2 Tb1 2.930680 1_556
