# generated using pymatgen
data_Mn13Fe(SiO11)2
_symmetry_space_group_name_H-M   'P 1'
_cell_length_a   6.76829576
_cell_length_b   6.76829576
_cell_length_c   11.25387500
_cell_angle_alpha   90.00000000
_cell_angle_beta   90.00000000
_cell_angle_gamma   119.99999766
_symmetry_Int_Tables_number   1
_chemical_formula_structural   Mn13Fe(SiO11)2
_chemical_formula_sum   'Mn13 Fe1 Si2 O22'
_cell_volume   446.46907793
_cell_formula_units_Z   1
loop_
 _symmetry_equiv_pos_site_id
 _symmetry_equiv_pos_as_xyz
  1  'x, y, z'
loop_
 _atom_site_type_symbol
 _atom_site_label
 _atom_site_symmetry_multiplicity
 _atom_site_fract_x
 _atom_site_fract_y
 _atom_site_fract_z
 _atom_site_occupancy
  Mn  Mn0  1  0.00000000  0.00000000  0.00000000  1
  Mn  Mn1  1  0.50000000  0.00000000  0.50000000  1
  Mn  Mn2  1  0.00000000  0.50000000  0.50000000  1
  Mn  Mn3  1  0.50000000  0.50000000  0.50000000  1
  Mn  Mn4  1  0.83318500  0.16681500  0.23457500  1
  Mn  Mn5  1  0.16681500  0.83318500  0.76542500  1
  Mn  Mn6  1  0.83318500  0.66637100  0.23457500  1
  Mn  Mn7  1  0.16681500  0.33362900  0.76542500  1
  Mn  Mn8  1  0.33362900  0.16681500  0.23457500  1
  Mn  Mn9  1  0.66637100  0.83318500  0.76542500  1
  Mn  Mn10  1  0.50000000  0.00000000  0.00000000  1
  Mn  Mn11  1  0.00000000  0.50000000  0.00000000  1
  Mn  Mn12  1  0.50000000  0.50000000  0.00000000  1
  Fe  Fe0  1  0.00000000  0.00000000  0.50000000  1
  Si  Si0  1  0.33333300  0.66666700  0.26220300  1
  Si  Si1  1  0.66666700  0.33333300  0.73779700  1
  O  O0  1  0.84112900  0.15887100  0.40745000  1
  O  O1  1  0.15887100  0.84112900  0.59255000  1
  O  O2  1  0.84112900  0.68225800  0.40745000  1
  O  O3  1  0.15887100  0.31774200  0.59255000  1
  O  O4  1  0.31774200  0.15887100  0.40745000  1
  O  O5  1  0.68225800  0.84112900  0.59255000  1
  O  O6  1  0.46634600  0.53365400  0.21214400  1
  O  O7  1  0.53365400  0.46634600  0.78785600  1
  O  O8  1  0.46634600  0.93269300  0.21214400  1
  O  O9  1  0.53365400  0.06730700  0.78785600  1
  O  O10  1  0.06730700  0.53365400  0.21214400  1
  O  O11  1  0.93269300  0.46634600  0.78785600  1
  O  O12  1  0.00000000  0.00000000  0.19783600  1
  O  O13  1  0.00000000  0.00000000  0.80216400  1
  O  O14  1  0.33333300  0.66666700  0.40751000  1
  O  O15  1  0.66666700  0.33333300  0.59249000  1
  O  O16  1  0.80650600  0.19349400  0.05623000  1
  O  O17  1  0.19349400  0.80650600  0.94377000  1
  O  O18  1  0.80650600  0.61301200  0.05623000  1
  O  O19  1  0.19349400  0.38698800  0.94377000  1
  O  O20  1  0.38698800  0.19349400  0.05623000  1
  O  O21  1  0.61301200  0.80650600  0.94377000  1
loop_
_geom_bond_atom_site_label_1
_geom_bond_atom_site_label_2
_geom_bond_distance
_geom_bond_site_symmetry_2
Mn0 O12 2.226422 1_555
Mn0 O13 2.226422 1_554
Mn0 O17 2.354951 1_544
Mn0 O16 2.354951 1_455
Mn0 O21 2.354951 1_444
Mn0 O19 2.354951 1_554
Mn0 O18 2.354951 1_445
Mn0 O20 2.354951 1_555
Mn1 O14 2.213795 1_545
Mn1 O15 2.213795 1_555
Mn1 O5 2.255929 1_545
Mn1 O4 2.255929 1_555
Mn1 O0 2.255929 1_555
Mn1 O1 2.255929 1_545
Mn2 O14 2.213795 1_555
Mn2 O15 2.213795 1_455
Mn2 O2 2.255929 1_455
Mn2 O3 2.255929 1_555
Mn2 O1 2.255929 1_555
Mn2 O0 2.255929 1_455
Mn3 O14 2.213801 1_555
Mn3 O15 2.213801 1_555
Mn3 O2 2.255929 1_555
Mn3 O5 2.255929 1_555
Mn3 O4 2.255929 1_555
Mn3 O3 2.255929 1_555
Mn4 O0 1.947741 1_555
Mn4 O12 1.998807 1_655
Mn4 O16 2.031295 1_555
Mn4 O10 2.192029 1_655
Mn4 O8 2.192029 1_545
Mn5 O1 1.947741 1_555
Mn5 O13 1.998807 1_565
Mn5 O17 2.031295 1_555
Mn5 O9 2.192029 1_565
Mn5 O11 2.192029 1_455
Mn6 O2 1.947741 1_555
Mn6 O12 1.998801 1_665
Mn6 O18 2.031295 1_555
Mn6 O10 2.192029 1_655
Mn6 O6 2.192029 1_555
Mn7 O3 1.947741 1_555
Mn7 O13 1.998801 1_555
Mn7 O19 2.031295 1_555
Mn7 O11 2.192029 1_455
Mn7 O7 2.192029 1_555
Mn8 O4 1.947741 1_555
Mn8 O12 1.998801 1_555
Mn8 O20 2.031295 1_555
Mn8 O8 2.192029 1_545
Mn8 O6 2.192029 1_555
Mn9 O5 1.947741 1_555
Mn9 O13 1.998801 1_665
Mn9 O21 2.031295 1_555
Mn9 O9 2.192029 1_565
Mn9 O7 2.192029 1_555
Mn10 O21 1.924152 1_544
Mn10 O20 1.924152 1_555
Mn10 O17 1.924152 1_544
Mn10 O16 1.924152 1_555
Mn10 O9 2.419820 1_554
Mn10 O8 2.419820 1_545
Mn11 O19 1.924152 1_554
Mn11 O18 1.924152 1_455
Mn11 O17 1.924152 1_554
Mn11 O16 1.924152 1_455
Mn11 O10 2.419820 1_555
Mn11 O11 2.419820 1_454
Mn12 O21 1.924152 1_554
Mn12 O18 1.924152 1_555
Mn12 O19 1.924152 1_554
Mn12 O20 1.924152 1_555
Mn12 O7 2.419820 1_554
Mn12 O6 2.419820 1_555
Fe0 O0 2.133902 1_455
Fe0 O1 2.133902 1_545
Fe0 O4 2.133902 1_555
Fe0 O3 2.133902 1_555
Fe0 O2 2.133902 1_445
Fe0 O5 2.133902 1_445
O6 Si0 1.657962 1_555
O7 Si1 1.657962 1_555
O8 Si0 1.657962 1_555
O9 Si1 1.657962 1_555
O10 Si0 1.657962 1_555
O11 Si1 1.657962 1_555
O14 Si0 1.635267 1_555
O15 Si1 1.635267 1_555
