# generated using pymatgen
data_Li9Mn2Co5O16
_symmetry_space_group_name_H-M   'P 1'
_cell_length_a   3.01666300
_cell_length_b   6.42133243
_cell_length_c   15.49524031
_cell_angle_alpha   88.72092523
_cell_angle_beta   85.87731608
_cell_angle_gamma   76.65106055
_symmetry_Int_Tables_number   1
_chemical_formula_structural   Li9Mn2Co5O16
_chemical_formula_sum   'Li9 Mn2 Co5 O16'
_cell_volume   291.28779651
_cell_formula_units_Z   1
loop_
 _symmetry_equiv_pos_site_id
 _symmetry_equiv_pos_as_xyz
  1  'x, y, z'
loop_
 _atom_site_type_symbol
 _atom_site_label
 _atom_site_symmetry_multiplicity
 _atom_site_fract_x
 _atom_site_fract_y
 _atom_site_fract_z
 _atom_site_occupancy
  Li  Li0  1  0.92644800  0.13567600  0.81180800  1
  Li  Li1  1  0.19063700  0.62149700  0.56435800  1
  Li  Li2  1  0.43940500  0.12446300  0.31398700  1
  Li  Li3  1  0.55749300  0.87805800  0.68387800  1
  Li  Li4  1  0.82119000  0.37051600  0.43761900  1
  Li  Li5  1  0.06284800  0.87319600  0.18882100  1
  Li  Li6  1  0.69116900  0.62208900  0.06273400  1
  Li  Li7  1  0.30857200  0.37471700  0.93690300  1
  Li  Li8  1  0.87675800  0.24876200  0.62395600  1
  Mn  Mn0  1  0.00918100  0.00070800  0.00103800  1
  Mn  Mn1  1  0.62479300  0.74615600  0.87203900  1
  Co  Co0  1  0.24773500  0.48947800  0.74267900  1
  Co  Co1  1  0.50258900  0.00753600  0.50401500  1
  Co  Co2  1  0.74100100  0.50151900  0.25288100  1
  Co  Co3  1  0.12168400  0.75265500  0.37563500  1
  Co  Co4  1  0.37079900  0.25423400  0.12850600  1
  O  O0  1  0.44936300  0.04725000  0.90636000  1
  O  O1  1  0.69898000  0.55573600  0.66308300  1
  O  O2  1  0.95486800  0.04251400  0.41007400  1
  O  O3  1  0.08132000  0.78723100  0.77977600  1
  O  O4  1  0.35666100  0.28224500  0.52424100  1
  O  O5  1  0.57361200  0.79600100  0.28660700  1
  O  O6  1  0.18596300  0.54773500  0.16198800  1
  O  O7  1  0.87364300  0.29911000  0.03608100  1
  O  O8  1  0.39778500  0.21609100  0.72294700  1
  O  O9  1  0.67125900  0.71265600  0.46522400  1
  O  O10  1  0.86878200  0.20841700  0.21773900  1
  O  O11  1  0.05883500  0.94151700  0.58415900  1
  O  O12  1  0.29314200  0.45897200  0.34123700  1
  O  O13  1  0.56220100  0.95536400  0.09464500  1
  O  O14  1  0.18290300  0.69744600  0.96651700  1
  O  O15  1  0.79838500  0.45045600  0.83846500  1
loop_
_geom_bond_atom_site_label_1
_geom_bond_atom_site_label_2
_geom_bond_distance
_geom_bond_site_symmetry_2
Li0 O15 2.014769 1_555
Li0 O8 2.051839 1_655
Li0 O0 2.139459 1_555
Li0 O8 2.147014 1_555
Li0 O0 2.199747 1_655
Li0 O3 2.237072 1_645
Li1 O11 2.026916 1_555
Li1 O1 2.156944 1_455
Li1 O9 2.199074 1_555
Li1 O1 2.208975 1_555
Li1 O4 2.212416 1_555
Li1 O9 2.244884 1_455
Li2 O10 2.049734 1_555
Li2 O5 2.100816 1_545
Li2 O12 2.136098 1_555
Li2 O2 2.153487 1_455
Li2 O2 2.198120 1_555
Li2 O10 2.320069 1_455
Li3 O1 2.042521 1_555
Li3 O3 2.157057 1_555
Li3 O11 2.182052 1_655
Li3 O11 2.199890 1_555
Li3 O8 2.200917 1_565
Li3 O3 2.217807 1_655
Li4 O4 2.036896 1_555
Li4 O2 2.098595 1_555
Li4 O4 2.141766 1_655
Li4 O12 2.147058 1_655
Li4 O9 2.183944 1_555
Li4 O12 2.230900 1_555
Li5 O6 2.082461 1_555
Li5 O10 2.144876 1_465
Li5 O13 2.145553 1_455
Li5 O13 2.166480 1_555
Li5 O5 2.168526 1_455
Li5 O5 2.205708 1_555
Li6 O7 2.062342 1_555
Li6 O13 2.147296 1_555
Li6 O14 2.153756 1_654
Li6 O14 2.182141 1_554
Li6 O6 2.188479 1_655
Li6 O6 2.209566 1_555
Li7 O7 2.071176 1_456
Li7 O14 2.074509 1_555
Li7 O0 2.104558 1_555
Li7 O15 2.172807 1_555
Li7 O15 2.211478 1_455
Li7 O7 2.337603 1_556
Li8 O1 2.014748 1_555
Li8 O11 2.019805 1_645
Li8 O8 2.071593 1_555
Li8 O4 2.082477 1_655
Li8 O8 2.246618 1_655
Li8 O4 2.252372 1_555
Mn0 O7 1.945860 1_455
Mn0 O14 1.971772 1_544
Mn0 O13 1.971801 1_445
Mn0 O0 1.971907 1_554
Mn0 O13 2.253117 1_545
Mn0 O0 2.279729 1_454
Mn1 O15 1.922513 1_555
Mn1 O0 1.958057 1_565
Mn1 O3 1.969233 1_655
Mn1 O14 1.977240 1_555
Mn1 O3 2.218515 1_555
Mn1 O14 2.272972 1_655
Co0 O8 1.737044 1_555
Co0 O1 1.886217 1_555
Co0 O3 1.949984 1_555
Co0 O15 1.988505 1_455
Co0 O1 2.094633 1_455
Co0 O15 2.273928 1_555
Co1 O4 1.746416 1_555
Co1 O11 1.874413 1_545
Co1 O9 1.941022 1_545
Co1 O2 1.967789 1_555
Co1 O11 2.117843 1_645
Co1 O2 2.249278 1_455
Co2 O12 1.913678 1_555
Co2 O10 1.915200 1_555
Co2 O5 1.915489 1_555
Co2 O6 1.940854 1_655
Co2 O12 2.196458 1_655
Co2 O6 2.228484 1_555
Co3 O2 1.890926 1_465
Co3 O12 1.913851 1_555
Co3 O9 1.927014 1_455
Co3 O5 1.930495 1_555
Co3 O5 2.193715 1_455
Co3 O9 2.204546 1_555
Co4 O6 1.910196 1_555
Co4 O13 1.944609 1_545
Co4 O10 2.044097 1_455
Co4 O7 2.075129 1_555
Co4 O10 2.081235 1_555
Co4 O7 2.115227 1_455
