# generated using pymatgen
data_CaSiN2
_symmetry_space_group_name_H-M   'P 1'
_cell_length_a   6.15727433
_cell_length_b   6.15727433
_cell_length_c   6.84259500
_cell_angle_alpha   90.00000000
_cell_angle_beta   90.00000000
_cell_angle_gamma   127.53651426
_symmetry_Int_Tables_number   1
_chemical_formula_structural   CaSiN2
_chemical_formula_sum   'Ca4 Si4 N8'
_cell_volume   205.70837900
_cell_formula_units_Z   4
loop_
 _symmetry_equiv_pos_site_id
 _symmetry_equiv_pos_as_xyz
  1  'x, y, z'
loop_
 _atom_site_type_symbol
 _atom_site_label
 _atom_site_symmetry_multiplicity
 _atom_site_fract_x
 _atom_site_fract_y
 _atom_site_fract_z
 _atom_site_occupancy
  Ca  Ca0  1  0.82405300  0.17594700  0.57239600  1
  Ca  Ca1  1  0.17594700  0.82405300  0.42760400  1
  Ca  Ca2  1  0.67594700  0.32405300  0.07239600  1
  Ca  Ca3  1  0.32405300  0.67594700  0.92760400  1
  Si  Si0  1  0.56170500  0.43829500  0.64251600  1
  Si  Si1  1  0.43829500  0.56170500  0.35748400  1
  Si  Si2  1  0.93829500  0.06170500  0.14251600  1
  Si  Si3  1  0.06170500  0.93829500  0.85748400  1
  N  N0  1  0.90259700  0.09740300  0.88987700  1
  N  N1  1  0.09740300  0.90259700  0.11012300  1
  N  N2  1  0.59740300  0.40259700  0.38987700  1
  N  N3  1  0.40259700  0.59740300  0.61012300  1
  N  N4  1  0.38084400  0.11915600  0.75000000  1
  N  N5  1  0.11915600  0.38084400  0.25000000  1
  N  N6  1  0.61915600  0.88084400  0.25000000  1
  N  N7  1  0.88084400  0.61915600  0.75000000  1
loop_
_geom_bond_atom_site_label_1
_geom_bond_atom_site_label_2
_geom_bond_distance
_geom_bond_site_symmetry_2
Ca0 N0 2.339244 1_555
Ca0 N6 2.639405 1_545
Ca0 N5 2.639405 1_655
Ca0 N2 2.797859 1_555
Ca0 N4 2.807773 1_555
Ca0 N7 2.807773 1_555
Ca0 N3 2.868127 1_545
Ca0 N3 2.868127 1_655
Ca1 N1 2.339244 1_555
Ca1 N7 2.639405 1_455
Ca1 N4 2.639405 1_565
Ca1 N3 2.797859 1_555
Ca1 N5 2.807773 1_555
Ca1 N6 2.807773 1_555
Ca1 N2 2.868127 1_455
Ca1 N2 2.868127 1_565
Ca2 N2 2.339244 1_555
Ca2 N4 2.639405 1_554
Ca2 N7 2.639405 1_554
Ca2 N0 2.797859 1_554
Ca2 N5 2.807773 1_655
Ca2 N6 2.807773 1_545
Ca2 N1 2.868127 1_655
Ca2 N1 2.868127 1_545
Ca3 N3 2.339244 1_555
Ca3 N5 2.639405 1_556
Ca3 N6 2.639405 1_556
Ca3 N1 2.797859 1_556
Ca3 N4 2.807773 1_565
Ca3 N7 2.807773 1_455
Ca3 N0 2.868127 1_565
Ca3 N0 2.868127 1_455
N0 Si3 1.771479 1_645
N0 Si2 1.773111 1_556
N1 Si2 1.771479 1_465
N1 Si3 1.773111 1_554
N2 Si1 1.771479 1_555
N2 Si0 1.773111 1_555
N3 Si0 1.771479 1_555
N3 Si1 1.773111 1_555
N4 Si3 1.725076 1_545
N4 Si0 1.725076 1_555
N5 Si2 1.725076 1_455
N5 Si1 1.725076 1_555
N6 Si1 1.725076 1_555
N6 Si2 1.725076 1_565
N7 Si3 1.725076 1_655
N7 Si0 1.725076 1_555
