# generated using pymatgen
data_LaSi3N5
_symmetry_space_group_name_H-M   'P 1'
_cell_length_a   4.81194174
_cell_length_b   7.84758933
_cell_length_c   11.30545700
_cell_angle_alpha   90.00000000
_cell_angle_beta   90.00000000
_cell_angle_gamma   90.00000000
_symmetry_Int_Tables_number   1
_chemical_formula_structural   LaSi3N5
_chemical_formula_sum   'La4 Si12 N20'
_cell_volume   426.91828002
_cell_formula_units_Z   4
loop_
 _symmetry_equiv_pos_site_id
 _symmetry_equiv_pos_as_xyz
  1  'x, y, z'
loop_
 _atom_site_type_symbol
 _atom_site_label
 _atom_site_symmetry_multiplicity
 _atom_site_fract_x
 _atom_site_fract_y
 _atom_site_fract_z
 _atom_site_occupancy
  La  La0  1  0.99605552  0.94084769  0.66892540  1
  La  La1  1  0.49605552  0.55915231  0.33107460  1
  La  La2  1  0.00394448  0.44084769  0.83107460  1
  La  La3  1  0.50394448  0.05915231  0.16892540  1
  Si  Si0  1  0.48969244  0.66234694  0.65965640  1
  Si  Si1  1  0.98969244  0.83765306  0.34034360  1
  Si  Si2  1  0.51030756  0.16234694  0.84034360  1
  Si  Si3  1  0.01030756  0.33765306  0.15965640  1
  Si  Si4  1  0.48165507  0.79342300  0.91666814  1
  Si  Si5  1  0.98165507  0.70657700  0.08333186  1
  Si  Si6  1  0.51834493  0.29342300  0.58333186  1
  Si  Si7  1  0.01834493  0.20657700  0.41666814  1
  Si  Si8  1  0.98017935  0.53255145  0.54133854  1
  Si  Si9  1  0.48017935  0.96744855  0.45866146  1
  Si  Si10  1  0.01982065  0.03255145  0.95866146  1
  Si  Si11  1  0.51982065  0.46744855  0.04133854  1
  N  N0  1  0.45935384  0.84184469  0.57816106  1
  N  N1  1  0.95935384  0.65815531  0.42183894  1
  N  N2  1  0.54064616  0.34184469  0.92183894  1
  N  N3  1  0.04064616  0.15815531  0.07816106  1
  N  N4  1  0.34175119  0.70685418  0.79350083  1
  N  N5  1  0.84175119  0.79314582  0.20649917  1
  N  N6  1  0.65824881  0.20685418  0.70649917  1
  N  N7  1  0.15824881  0.29314582  0.29350083  1
  N  N8  1  0.31930550  0.48239544  0.59207391  1
  N  N9  1  0.81930550  0.01760456  0.40792609  1
  N  N10  1  0.68069450  0.98239544  0.90792609  1
  N  N11  1  0.18069450  0.51760456  0.09207391  1
  N  N12  1  0.19780546  0.84854560  0.00782822  1
  N  N13  1  0.69780546  0.65145440  0.99217178  1
  N  N14  1  0.80219454  0.34854560  0.49217178  1
  N  N15  1  0.30219454  0.15145440  0.50782822  1
  N  N16  1  0.83170638  0.61070686  0.66674299  1
  N  N17  1  0.33170638  0.88929314  0.33325701  1
  N  N18  1  0.16829362  0.11070686  0.83325701  1
  N  N19  1  0.66829362  0.38929314  0.16674299  1
loop_
_geom_bond_atom_site_label_1
_geom_bond_atom_site_label_2
_geom_bond_distance
_geom_bond_site_symmetry_2
La0 N18 2.432148 1_665
La0 N0 2.574226 1_655
La0 N6 2.679629 1_565
La0 N16 2.708935 1_555
La0 N4 2.850019 1_655
La0 N15 2.866835 1_665
La0 N0 2.885529 1_555
La0 N10 3.116084 1_555
La0 N9 3.129366 1_565
La1 N19 2.432148 1_555
La1 N1 2.574226 1_555
La1 N7 2.679629 1_555
La1 N17 2.708935 1_555
La1 N5 2.850019 1_555
La1 N14 2.866835 1_555
La1 N1 2.885529 1_455
La1 N11 3.116084 1_555
La1 N8 3.129366 1_555
La2 N16 2.432148 1_455
La2 N2 2.574226 1_455
La2 N4 2.679629 1_555
La2 N18 2.708935 1_555
La2 N6 2.850019 1_455
La2 N13 2.866835 1_455
La2 N2 2.885529 1_555
La2 N8 3.116084 1_555
La2 N11 3.129366 1_556
La3 N17 2.432148 1_545
La3 N3 2.574226 1_555
La3 N5 2.679629 1_545
La3 N19 2.708935 1_555
La3 N7 2.850019 1_555
La3 N12 2.866835 1_545
La3 N3 2.885529 1_655
La3 N9 3.116084 1_555
La3 N10 3.129366 1_544
N0 Si9 1.675356 1_555
N0 Si0 1.689499 1_555
N1 Si8 1.675356 1_555
N1 Si1 1.689499 1_555
N2 Si11 1.675356 1_556
N2 Si2 1.689499 1_555
N3 Si10 1.675356 1_554
N3 Si3 1.689499 1_555
N4 Si4 1.689286 1_555
N4 Si0 1.708351 1_555
N5 Si5 1.689286 1_555
N5 Si1 1.708351 1_555
N6 Si6 1.689286 1_555
N6 Si2 1.708351 1_555
N7 Si7 1.689286 1_555
N7 Si3 1.708351 1_555
N8 Si6 1.768137 1_555
N8 Si8 1.773944 1_455
N8 Si0 1.802849 1_555
N9 Si7 1.768137 1_655
N9 Si9 1.773944 1_545
N9 Si1 1.802849 1_545
N10 Si4 1.768137 1_555
N10 Si10 1.773944 1_665
N10 Si2 1.802849 1_565
N11 Si5 1.768137 1_455
N11 Si11 1.773944 1_555
N11 Si3 1.802849 1_555
N12 Si5 1.746911 1_455
N12 Si4 1.764899 1_554
N12 Si10 1.768510 1_564
N13 Si4 1.746911 1_555
N13 Si5 1.764899 1_556
N13 Si11 1.768510 1_556
N14 Si7 1.746911 1_655
N14 Si6 1.764899 1_555
N14 Si8 1.768510 1_555
N15 Si6 1.746911 1_555
N15 Si7 1.764899 1_555
N15 Si9 1.768510 1_545
N16 Si0 1.696804 1_555
N16 Si8 1.701950 1_555
N17 Si1 1.696804 1_455
N17 Si9 1.701950 1_555
N18 Si2 1.696804 1_555
N18 Si10 1.701950 1_555
N19 Si3 1.696804 1_655
N19 Si11 1.701950 1_555
