# generated using pymatgen
data_RbHCO3
_symmetry_space_group_name_H-M   'P 1'
_cell_length_a   5.79663999
_cell_length_b   5.79663999
_cell_length_c   11.29749532
_cell_angle_alpha   76.40069255
_cell_angle_beta   76.40069255
_cell_angle_gamma   72.69141529
_symmetry_Int_Tables_number   1
_chemical_formula_structural   RbHCO3
_chemical_formula_sum   'Rb4 H4 C4 O12'
_cell_volume   346.63132936
_cell_formula_units_Z   4
loop_
 _symmetry_equiv_pos_site_id
 _symmetry_equiv_pos_as_xyz
  1  'x, y, z'
loop_
 _atom_site_type_symbol
 _atom_site_label
 _atom_site_symmetry_multiplicity
 _atom_site_fract_x
 _atom_site_fract_y
 _atom_site_fract_z
 _atom_site_occupancy
  Rb  Rb0  1  0.97480600  0.30392900  0.86455600  1
  Rb  Rb1  1  0.69607100  0.02519400  0.63544400  1
  Rb  Rb2  1  0.02519400  0.69607100  0.13544400  1
  Rb  Rb3  1  0.30392900  0.97480600  0.36455600  1
  H  H0  1  0.37100100  0.57956900  0.64925400  1
  H  H1  1  0.42043100  0.62899900  0.85074600  1
  H  H2  1  0.62899900  0.42043100  0.35074600  1
  H  H3  1  0.57956900  0.37100100  0.14925400  1
  C  C0  1  0.08787000  0.45566000  0.54987900  1
  C  C1  1  0.54434000  0.91213000  0.95012100  1
  C  C2  1  0.91213000  0.54434000  0.45012100  1
  C  C3  1  0.45566000  0.08787000  0.04987900  1
  O  O0  1  0.16514900  0.22802100  0.58715700  1
  O  O1  1  0.77197900  0.83485100  0.91284300  1
  O  O2  1  0.83485100  0.77197900  0.41284300  1
  O  O3  1  0.22802100  0.16514900  0.08715700  1
  O  O4  1  0.13636200  0.62577100  0.58632300  1
  O  O5  1  0.37422900  0.86363800  0.91367700  1
  O  O6  1  0.86363800  0.37422900  0.41367700  1
  O  O7  1  0.62577100  0.13636200  0.08632300  1
  O  O8  1  0.52697700  0.55445200  0.68346200  1
  O  O9  1  0.44554800  0.47302300  0.81653800  1
  O  O10  1  0.47302300  0.44554800  0.31653800  1
  O  O11  1  0.55445200  0.52697700  0.18346200  1
loop_
_geom_bond_atom_site_label_1
_geom_bond_atom_site_label_2
_geom_bond_distance
_geom_bond_site_symmetry_2
H0 O8 1.023496 1_555
H0 O4 1.604856 1_555
H1 O9 1.023496 1_555
H1 O5 1.604856 1_555
H2 O10 1.023496 1_555
H2 O6 1.604856 1_555
H3 O11 1.023496 1_555
H3 O7 1.604856 1_555
C0 O0 1.262886 1_555
C0 O4 1.277163 1_555
C1 O1 1.262886 1_555
C1 O5 1.277163 1_555
C2 O2 1.262886 1_555
C2 O6 1.277163 1_555
C3 O3 1.262886 1_555
C3 O7 1.277163 1_555
O0 Rb3 3.034443 1_545
O0 Rb1 3.079960 1_555
O0 Rb0 3.156885 1_455
O0 Rb1 3.158538 1_455
O1 Rb2 3.034443 1_656
O1 Rb0 3.079960 1_555
O1 Rb1 3.156885 1_565
O1 Rb0 3.158538 1_565
O2 Rb1 3.034443 1_565
O2 Rb3 3.079960 1_555
O2 Rb2 3.156885 1_655
O2 Rb3 3.158538 1_655
O3 Rb0 3.034443 1_454
O3 Rb2 3.079960 1_555
O3 Rb3 3.156885 1_545
O3 Rb2 3.158538 1_545
O4 Rb1 2.933328 1_465
O4 Rb3 2.992527 1_555
O5 Rb0 2.933328 1_465
O5 Rb2 2.992527 1_556
O6 Rb3 2.933328 1_645
O6 Rb1 2.992527 1_555
O7 Rb2 2.933328 1_645
O7 Rb0 2.992527 1_554
O8 Rb1 3.057170 1_565
O8 Rb1 3.067641 1_555
O9 Rb0 3.057170 1_455
O9 Rb0 3.067641 1_555
O10 Rb3 3.057170 1_545
O10 Rb3 3.067641 1_555
O11 Rb2 3.057170 1_655
O11 Rb2 3.067641 1_555
