# generated using pymatgen
data_Tm2Ti12(CuO4)9
_symmetry_space_group_name_H-M   'P 1'
_cell_length_a   6.44198712
_cell_length_b   10.49992900
_cell_length_c   10.49992900
_cell_angle_alpha   60.00000000
_cell_angle_beta   90.00000000
_cell_angle_gamma   90.00000000
_symmetry_Int_Tables_number   1
_chemical_formula_structural   Tm2Ti12(CuO4)9
_chemical_formula_sum   'Tm2 Ti12 Cu9 O36'
_cell_volume   615.06810833
_cell_formula_units_Z   1
loop_
 _symmetry_equiv_pos_site_id
 _symmetry_equiv_pos_as_xyz
  1  'x, y, z'
loop_
 _atom_site_type_symbol
 _atom_site_label
 _atom_site_symmetry_multiplicity
 _atom_site_fract_x
 _atom_site_fract_y
 _atom_site_fract_z
 _atom_site_occupancy
  Tm  Tm0  1  0.00493200  0.00000000  0.00000000  1
  Tm  Tm1  1  0.66173500  0.33333300  0.33333300  1
  Ti  Ti0  1  0.83333300  0.16666700  0.16666700  1
  Ti  Ti1  1  0.49683000  0.50572400  0.50796200  1
  Ti  Ti2  1  0.16983700  0.82760900  0.82537100  1
  Ti  Ti3  1  0.17368800  0.33333300  0.33333300  1
  Ti  Ti4  1  0.83333300  0.66666700  0.66666700  1
  Ti  Ti5  1  0.49297900  0.00000000  0.00000000  1
  Ti  Ti6  1  0.83333300  0.16666700  0.66666700  1
  Ti  Ti7  1  0.49683000  0.50796200  0.98631400  1
  Ti  Ti8  1  0.16983700  0.82537100  0.34701900  1
  Ti  Ti9  1  0.16983700  0.34701900  0.82760900  1
  Ti  Ti10  1  0.83333300  0.66666700  0.16666700  1
  Ti  Ti11  1  0.49683000  0.98631400  0.50572400  1
  Cu  Cu0  1  0.33333300  0.16666700  0.16666700  1
  Cu  Cu1  1  0.99564200  0.49870300  0.49896100  1
  Cu  Cu2  1  0.67102500  0.83463000  0.83437200  1
  Cu  Cu3  1  0.67102500  0.33099600  0.83463000  1
  Cu  Cu4  1  0.33333300  0.66666700  0.16666700  1
  Cu  Cu5  1  0.99564200  0.00233700  0.49870300  1
  Cu  Cu6  1  0.99564200  0.49896100  0.00233700  1
  Cu  Cu7  1  0.67102500  0.83437200  0.33099600  1
  Cu  Cu8  1  0.33333300  0.16666700  0.66666700  1
  O  O0  1  0.24539800  0.44207700  0.62266000  1
  O  O1  1  0.91883000  0.78524700  0.95947600  1
  O  O2  1  0.58410600  0.11863400  0.29198600  1
  O  O3  1  0.35208700  0.34973500  0.17671500  1
  O  O4  1  0.00440900  0.68374200  0.50244800  1
  O  O5  1  0.68701100  0.01660600  0.84333800  1
  O  O6  1  0.97965600  0.31672700  0.48999500  1
  O  O7  1  0.66225700  0.64959200  0.83088600  1
  O  O8  1  0.31458000  0.98359900  0.15661800  1
  O  O9  1  0.08256000  0.21469900  0.04134700  1
  O  O10  1  0.74783700  0.54808600  0.37385700  1
  O  O11  1  0.42126800  0.89125700  0.71067400  1
  O  O12  1  0.42126800  0.39807000  0.89125700  1
  O  O13  1  0.08256000  0.74395400  0.21469900  1
  O  O14  1  0.74783700  0.07805500  0.54808600  1
  O  O15  1  0.66225700  0.51952300  0.64959200  1
  O  O16  1  0.31458000  0.85978400  0.98359900  1
  O  O17  1  0.97965600  0.19327700  0.31672700  1
  O  O18  1  0.68701100  0.14005600  0.01660600  1
  O  O19  1  0.35208700  0.47354900  0.34973500  1
  O  O20  1  0.00440900  0.81381100  0.68374200  1
  O  O21  1  0.91883000  0.25527800  0.78524700  1
  O  O22  1  0.58410600  0.58937900  0.11863400  1
  O  O23  1  0.24539800  0.93526400  0.44207700  1
  O  O24  1  0.00440900  0.50244800  0.81381100  1
  O  O25  1  0.68701100  0.84333800  0.14005600  1
  O  O26  1  0.35208700  0.17671500  0.47354900  1
  O  O27  1  0.58410600  0.29198600  0.58937900  1
  O  O28  1  0.24539800  0.62266000  0.93526400  1
  O  O29  1  0.91883000  0.95947600  0.25527800  1
  O  O30  1  0.74783700  0.37385700  0.07805500  1
  O  O31  1  0.42126800  0.71067400  0.39807000  1
  O  O32  1  0.08256000  0.04134700  0.74395400  1
  O  O33  1  0.31458000  0.15661800  0.85978400  1
  O  O34  1  0.97965600  0.48999500  0.19327700  1
  O  O35  1  0.66225700  0.83088600  0.51952300  1
loop_
_geom_bond_atom_site_label_1
_geom_bond_atom_site_label_2
_geom_bond_distance
_geom_bond_site_symmetry_2
Cu0 O3 1.980753 1_555
Cu0 O8 1.980758 1_545
Cu0 O2 1.982909 1_555
Cu0 O9 1.982915 1_555
Cu1 O6 1.962207 1_555
Cu1 O4 1.962272 1_655
Cu1 O0 1.963891 1_655
Cu1 O10 1.965095 1_555
Cu2 O5 1.962207 1_565
Cu2 O7 1.962257 1_555
Cu2 O11 1.963891 1_555
Cu2 O1 1.965095 1_555
Cu3 O18 1.962196 1_556
Cu3 O15 1.962273 1_555
Cu3 O12 1.963907 1_555
Cu3 O21 1.965078 1_555
Cu4 O16 1.980758 1_554
Cu4 O19 1.980764 1_555
Cu4 O13 1.982910 1_555
Cu4 O22 1.982920 1_555
Cu5 O17 1.962196 1_555
Cu5 O20 1.962272 1_645
Cu5 O23 1.963891 1_645
Cu5 O14 1.965078 1_555
Cu6 O34 1.962186 1_555
Cu6 O24 1.962272 1_654
Cu6 O28 1.963891 1_654
Cu6 O30 1.965093 1_555
Cu7 O25 1.962186 1_555
Cu7 O35 1.962288 1_555
Cu7 O31 1.963892 1_555
Cu7 O29 1.965093 1_555
Cu8 O33 1.980758 1_555
Cu8 O26 1.980774 1_555
Cu8 O27 1.982910 1_555
Cu8 O32 1.982914 1_555
O0 Ti1 1.927605 1_555
O0 Ti9 1.927737 1_555
O1 Ti10 1.969181 1_556
O1 Ti2 2.041786 1_655
O1 Tm0 2.555914 1_666
O2 Ti0 1.974803 1_555
O2 Ti11 2.040823 1_545
O2 Tm1 2.549360 1_555
O3 Ti3 1.942039 1_555
O3 Ti7 2.074841 1_554
O3 Tm1 2.535700 1_555
O4 Ti8 1.893042 1_555
O4 Ti4 1.977556 1_455
O5 Ti6 1.972160 1_555
O5 Ti5 2.002946 1_556
O5 Tm0 2.577575 1_656
O6 Ti6 1.972165 1_555
O6 Ti3 2.002946 1_655
O6 Tm1 2.577575 1_555
O7 Ti7 1.893037 1_555
O7 Ti4 1.977556 1_555
O8 Ti5 1.942043 1_565
O8 Ti8 2.074845 1_555
O8 Tm0 2.535703 1_565
O9 Ti0 1.974810 1_455
O9 Ti9 2.040824 1_554
O9 Tm0 2.549358 1_555
O10 Ti10 1.969172 1_555
O10 Ti1 2.041786 1_555
O10 Tm1 2.555914 1_555
O11 Ti2 1.927596 1_555
O11 Ti11 1.927748 1_555
O12 Ti9 1.927605 1_555
O12 Ti7 1.927739 1_555
O13 Ti10 1.974804 1_455
O13 Ti8 2.040816 1_555
O13 Tm0 2.549358 1_565
O14 Ti6 1.969196 1_555
O14 Ti11 2.041774 1_545
O14 Tm1 2.555920 1_555
O15 Ti1 1.893042 1_555
O15 Ti4 1.977556 1_555
O16 Ti5 1.942035 1_566
O16 Ti2 2.074856 1_555
O16 Tm0 2.535697 1_566
O17 Ti0 1.972154 1_555
O17 Ti3 2.002946 1_655
O17 Tm1 2.577575 1_555
O18 Ti0 1.972166 1_555
O18 Ti5 2.002946 1_555
O18 Tm0 2.577575 1_655
O19 Ti3 1.942039 1_555
O19 Ti1 2.074847 1_555
O19 Tm1 2.535700 1_555
O20 Ti2 1.893032 1_555
O20 Ti4 1.977556 1_455
O21 Ti6 1.969181 1_555
O21 Ti9 2.041774 1_655
O21 Tm0 2.555920 1_656
O22 Ti10 1.974815 1_555
O22 Ti7 2.040815 1_554
O22 Tm1 2.549360 1_555
O23 Ti11 1.927601 1_555
O23 Ti8 1.927755 1_555
O24 Ti9 1.893050 1_555
O24 Ti4 1.977556 1_455
O25 Ti10 1.972156 1_555
O25 Ti5 2.002946 1_565
O25 Tm0 2.577575 1_665
O26 Ti3 1.942039 1_555
O26 Ti11 2.074838 1_545
O26 Tm1 2.535700 1_555
O27 Ti6 1.974805 1_555
O27 Ti1 2.040824 1_555
O27 Tm1 2.549360 1_555
O28 Ti7 1.927606 1_555
O28 Ti2 1.927738 1_555
O29 Ti0 1.969181 1_565
O29 Ti8 2.041784 1_655
O29 Tm0 2.555924 1_665
O30 Ti0 1.969169 1_555
O30 Ti7 2.041784 1_554
O30 Tm1 2.555924 1_555
O31 Ti8 1.927595 1_555
O31 Ti1 1.927747 1_555
O32 Ti6 1.974809 1_455
O32 Ti2 2.040826 1_545
O32 Tm0 2.549358 1_556
O33 Ti5 1.942039 1_556
O33 Ti9 2.074838 1_555
O33 Tm0 2.535700 1_556
O34 Ti10 1.972172 1_555
O34 Ti3 2.002946 1_655
O34 Tm1 2.577575 1_555
O35 Ti11 1.893034 1_555
O35 Ti4 1.977556 1_555
