# generated using pymatgen
data_Ti3Fe(BiO3)5
_symmetry_space_group_name_H-M   'P 1'
_cell_length_a   5.53442800
_cell_length_b   5.48607100
_cell_length_c   20.96113527
_cell_angle_alpha   82.48065682
_cell_angle_beta   90.00000000
_cell_angle_gamma   90.00000000
_symmetry_Int_Tables_number   1
_chemical_formula_structural   Ti3Fe(BiO3)5
_chemical_formula_sum   'Ti6 Fe2 Bi10 O30'
_cell_volume   630.95473632
_cell_formula_units_Z   2
loop_
 _symmetry_equiv_pos_site_id
 _symmetry_equiv_pos_as_xyz
  1  'x, y, z'
loop_
 _atom_site_type_symbol
 _atom_site_label
 _atom_site_symmetry_multiplicity
 _atom_site_fract_x
 _atom_site_fract_y
 _atom_site_fract_z
 _atom_site_occupancy
  Ti  Ti0  1  0.28475100  0.09896900  0.30330000  1
  Ti  Ti1  1  0.28808100  0.40223400  0.69576600  1
  Ti  Ti2  1  0.78475100  0.90103100  0.69670000  1
  Ti  Ti3  1  0.78808100  0.59776600  0.30423400  1
  Ti  Ti4  1  0.29458700  0.30545300  0.90317100  1
  Ti  Ti5  1  0.79458700  0.69454700  0.09682900  1
  Fe  Fe0  1  0.29625100  0.20586000  0.09639500  1
  Fe  Fe1  1  0.79625100  0.79414000  0.90360500  1
  Bi  Bi0  1  0.22904800  0.50502900  0.43838200  1
  Bi  Bi1  1  0.22716000  0.94393800  0.56180700  1
  Bi  Bi2  1  0.72904800  0.49497100  0.56161800  1
  Bi  Bi3  1  0.72716000  0.05606200  0.43819300  1
  Bi  Bi4  1  0.24127600  0.65299200  0.20500500  1
  Bi  Bi5  1  0.23629200  0.85714900  0.79374500  1
  Bi  Bi6  1  0.74127600  0.34700800  0.79499500  1
  Bi  Bi7  1  0.73629200  0.14285100  0.20625500  1
  Bi  Bi8  1  0.25449000  0.76018100  0.00304000  1
  Bi  Bi9  1  0.75449000  0.23981900  0.99696000  1
  O  O0  1  0.08628000  0.81806600  0.29600900  1
  O  O1  1  0.08864500  0.11484700  0.70370400  1
  O  O2  1  0.58628000  0.18193400  0.70399100  1
  O  O3  1  0.58864500  0.88515300  0.29629600  1
  O  O4  1  0.53918400  0.38085200  0.27482700  1
  O  O5  1  0.53790600  0.65511500  0.72423200  1
  O  O6  1  0.03918400  0.61914800  0.72517300  1
  O  O7  1  0.03790600  0.34488500  0.27576800  1
  O  O8  1  0.61702200  0.39891500  0.10835800  1
  O  O9  1  0.61784100  0.49105800  0.89319000  1
  O  O10  1  0.11702200  0.60108500  0.89164200  1
  O  O11  1  0.11784100  0.50894200  0.10681000  1
  O  O12  1  0.29906800  0.11573100  0.38737000  1
  O  O13  1  0.29652700  0.50265400  0.61202700  1
  O  O14  1  0.79906800  0.88426900  0.61263000  1
  O  O15  1  0.79652700  0.49734600  0.38797300  1
  O  O16  1  0.03153500  0.99283300  0.07450000  1
  O  O17  1  0.03681500  0.07810400  0.92271900  1
  O  O18  1  0.53153500  0.00716700  0.92550000  1
  O  O19  1  0.53681500  0.92189600  0.07728100  1
  O  O20  1  0.33881600  0.33640200  0.99893100  1
  O  O21  1  0.83881600  0.66359800  0.00106900  1
  O  O22  1  0.33302900  0.08241100  0.19132700  1
  O  O23  1  0.33251000  0.27548000  0.81107600  1
  O  O24  1  0.83302900  0.91758900  0.80867300  1
  O  O25  1  0.83251000  0.72452000  0.18892400  1
  O  O26  1  0.99956200  0.74351000  0.49866400  1
  O  O27  1  0.99952300  0.24232000  0.50131700  1
  O  O28  1  0.49956200  0.25649000  0.50133600  1
  O  O29  1  0.49952300  0.75768000  0.49868300  1
loop_
_geom_bond_atom_site_label_1
_geom_bond_atom_site_label_2
_geom_bond_distance
_geom_bond_site_symmetry_2
Fe0 O16 1.965502 1_545
Fe0 O11 1.970351 1_555
Fe0 O22 2.026579 1_555
Fe0 O20 2.087853 1_554
Fe0 O8 2.098986 1_555
Fe0 O19 2.126816 1_545
Fe1 O18 1.965502 1_565
Fe1 O9 1.970351 1_555
Fe1 O24 2.026579 1_555
Fe1 O21 2.087853 1_556
Fe1 O10 2.098986 1_655
Fe1 O17 2.126816 1_665
Bi0 O27 2.221141 1_455
Bi0 O26 2.313893 1_455
Bi0 O28 2.317536 1_555
Bi0 O29 2.493614 1_555
Bi0 O12 2.540173 1_555
Bi0 O15 2.619154 1_455
Bi1 O26 2.219992 1_455
Bi1 O27 2.308948 1_465
Bi1 O29 2.328279 1_555
Bi1 O28 2.500157 1_565
Bi1 O13 2.539557 1_555
Bi1 O14 2.600786 1_455
Bi2 O29 2.221141 1_555
Bi2 O28 2.313893 1_555
Bi2 O26 2.317536 1_555
Bi2 O27 2.493614 1_555
Bi2 O14 2.540173 1_555
Bi2 O13 2.619154 1_555
Bi3 O28 2.219992 1_555
Bi3 O29 2.308948 1_545
Bi3 O27 2.328279 1_555
Bi3 O26 2.500157 1_545
Bi3 O15 2.539557 1_555
Bi3 O12 2.600786 1_555
Bi4 O25 2.313206 1_455
Bi4 O0 2.376306 1_555
Bi4 O7 2.380725 1_555
Bi4 O22 2.390228 1_565
Bi4 O11 2.398632 1_555
Bi4 O4 2.552933 1_555
Bi5 O24 2.283873 1_455
Bi5 O6 2.334951 1_555
Bi5 O1 2.351638 1_565
Bi5 O10 2.421884 1_555
Bi5 O23 2.429143 1_565
Bi5 O5 2.561377 1_555
Bi6 O23 2.313206 1_555
Bi6 O2 2.376306 1_555
Bi6 O5 2.380725 1_555
Bi6 O24 2.390228 1_545
Bi6 O9 2.398632 1_555
Bi6 O6 2.552933 1_655
Bi7 O22 2.283873 1_555
Bi7 O4 2.334951 1_555
Bi7 O3 2.351638 1_545
Bi7 O8 2.421884 1_555
Bi7 O25 2.429143 1_545
Bi7 O7 2.561377 1_655
Bi8 O21 2.362323 1_455
Bi8 O20 2.383843 1_554
Bi8 O16 2.428097 1_555
Bi8 O19 2.451843 1_555
Bi8 O18 2.500448 1_564
Bi8 O11 2.533432 1_555
Bi8 O17 2.561133 1_564
Bi8 O10 2.706730 1_554
Bi9 O20 2.362323 1_555
Bi9 O21 2.383843 1_556
Bi9 O18 2.428097 1_555
Bi9 O17 2.451843 1_655
Bi9 O16 2.500448 1_646
Bi9 O9 2.533432 1_555
Bi9 O19 2.561133 1_546
Bi9 O8 2.706730 1_556
O0 Ti0 1.914779 1_565
O0 Ti3 2.039497 1_455
O1 Ti1 1.913915 1_555
O1 Ti2 2.066711 1_445
O2 Ti2 1.914779 1_545
O2 Ti1 2.039497 1_555
O3 Ti3 1.913915 1_555
O3 Ti0 2.066711 1_565
O4 Ti3 1.971182 1_555
O4 Ti0 2.118715 1_555
O5 Ti2 1.953391 1_555
O5 Ti1 2.099769 1_555
O6 Ti1 1.971182 1_555
O6 Ti2 2.118715 1_455
O7 Ti0 1.953391 1_555
O7 Ti3 2.099769 1_455
O8 Ti5 1.884671 1_555
O9 Ti4 2.055589 1_555
O10 Ti4 1.884671 1_555
O11 Ti5 2.055589 1_455
O12 Ti0 1.778343 1_555
O13 Ti1 1.770186 1_555
O14 Ti2 1.778343 1_555
O15 Ti3 1.770186 1_555
O16 Ti5 2.101468 1_455
O17 Ti4 1.903950 1_555
O18 Ti4 2.101468 1_555
O19 Ti5 1.903950 1_555
O20 Ti4 2.051085 1_555
O21 Ti5 2.051085 1_555
O22 Ti0 2.375760 1_555
O23 Ti4 1.969942 1_555
O23 Ti1 2.438473 1_555
O24 Ti2 2.375760 1_555
O25 Ti5 1.969942 1_555
O25 Ti3 2.438473 1_555
