# generated using pymatgen
data_K2LiNd4Nb2O12
_symmetry_space_group_name_H-M   'P 1'
_cell_length_a   5.76406400
_cell_length_b   7.05787325
_cell_length_c   9.02090868
_cell_angle_alpha   105.86042179
_cell_angle_beta   90.01924892
_cell_angle_gamma   114.00598801
_symmetry_Int_Tables_number   1
_chemical_formula_structural   K2LiNd4Nb2O12
_chemical_formula_sum   'K2 Li1 Nd4 Nb2 O12'
_cell_volume   319.87515062
_cell_formula_units_Z   1
loop_
 _symmetry_equiv_pos_site_id
 _symmetry_equiv_pos_as_xyz
  1  'x, y, z'
loop_
 _atom_site_type_symbol
 _atom_site_label
 _atom_site_symmetry_multiplicity
 _atom_site_fract_x
 _atom_site_fract_y
 _atom_site_fract_z
 _atom_site_occupancy
  K  K0  1  0.11568600  0.23252000  0.49123400  1
  K  K1  1  0.88340300  0.76674800  0.51029100  1
  Li  Li0  1  0.66356900  0.31983800  0.00747500  1
  Nd  Nd0  1  0.13242500  0.26258600  0.92270000  1
  Nd  Nd1  1  0.57315700  0.14858700  0.22646400  1
  Nd  Nd2  1  0.41271200  0.82517500  0.79615100  1
  Nd  Nd3  1  0.88505000  0.77105500  0.06935100  1
  Nb  Nb0  1  0.66020200  0.32047700  0.69824500  1
  Nb  Nb1  1  0.33060000  0.66045100  0.28689600  1
  O  O0  1  0.99927100  0.53270500  0.83655200  1
  O  O1  1  0.21195300  0.89680600  0.28754600  1
  O  O2  1  0.26571500  0.01407600  0.00203200  1
  O  O3  1  0.77830000  0.09449900  0.71301800  1
  O  O4  1  0.68445600  0.89697100  0.28743900  1
  O  O5  1  0.74789600  0.01564000  0.00229300  1
  O  O6  1  0.31652500  0.09459400  0.71267700  1
  O  O7  1  0.98649800  0.46457000  0.14952100  1
  O  O8  1  0.67638600  0.35207000  0.49820000  1
  O  O9  1  0.31946500  0.63837300  0.48857300  1
  O  O10  1  0.48040100  0.46445100  0.14893000  1
  O  O11  1  0.53257900  0.53336400  0.83584100  1
loop_
_geom_bond_atom_site_label_1
_geom_bond_atom_site_label_2
_geom_bond_distance
_geom_bond_site_symmetry_2
K0 O9 2.623993 1_555
K0 O1 2.826497 1_545
K0 O4 2.827409 1_445
K0 O6 2.873421 1_555
K0 O3 2.874038 1_455
K0 O8 2.972752 1_455
K0 O8 2.985494 1_555
K1 O8 2.642993 1_555
K1 O3 2.809128 1_565
K1 O6 2.812043 1_665
K1 O1 2.839512 1_655
K1 O4 2.840270 1_555
K1 O9 2.988595 1_555
K1 O9 2.988855 1_655
Li0 O7 1.971294 1_555
Li0 O10 1.987607 1_555
Li0 O5 2.375352 1_555
Li0 O2 2.415321 1_555
Nd0 O6 2.432824 1_555
Nd0 O3 2.439731 1_455
Nd0 O2 2.441503 1_556
Nd0 O5 2.451072 1_456
Nd0 O10 2.510098 1_556
Nd0 O7 2.511751 1_456
Nd0 O11 2.611394 1_555
Nd0 O0 2.612969 1_455
Nd1 O1 2.306903 1_545
Nd1 O4 2.308360 1_545
Nd1 O5 2.391132 1_555
Nd1 O2 2.391386 1_555
Nd1 O8 2.409348 1_555
Nd1 O10 2.750780 1_555
Nd1 O7 2.766893 1_555
Nd2 O2 2.347668 1_566
Nd2 O5 2.348585 1_566
Nd2 O6 2.475963 1_565
Nd2 O3 2.477348 1_565
Nd2 O11 2.531424 1_555
Nd2 O0 2.546010 1_455
Nd2 O9 2.673692 1_555
Nd3 O2 2.373431 1_665
Nd3 O5 2.377338 1_565
Nd3 O4 2.424686 1_555
Nd3 O1 2.427845 1_655
Nd3 O0 2.577743 1_554
Nd3 O11 2.582939 1_554
Nd3 O10 2.716936 1_555
Nd3 O7 2.725454 1_555
Nb0 O8 1.875656 1_555
Nb0 O3 2.006101 1_555
Nb0 O6 2.006685 1_555
Nb0 O0 2.053026 1_555
Nb0 O11 2.054261 1_555
Nb1 O9 1.866864 1_555
Nb1 O4 2.042541 1_555
Nb1 O1 2.042896 1_555
Nb1 O7 2.052262 1_455
Nb1 O10 2.059064 1_555
