# generated using pymatgen
data_K2Ni3S2
_symmetry_space_group_name_H-M   'P 1'
_cell_length_a   11.96817000
_cell_length_b   7.92268325
_cell_length_c   12.34897864
_cell_angle_alpha   68.53028722
_cell_angle_beta   61.01495138
_cell_angle_gamma   40.94750138
_symmetry_Int_Tables_number   1
_chemical_formula_structural   K2Ni3S2
_chemical_formula_sum   'K8 Ni12 S8'
_cell_volume   671.27096810
_cell_formula_units_Z   4
loop_
 _symmetry_equiv_pos_site_id
 _symmetry_equiv_pos_as_xyz
  1  'x, y, z'
loop_
 _atom_site_type_symbol
 _atom_site_label
 _atom_site_symmetry_multiplicity
 _atom_site_fract_x
 _atom_site_fract_y
 _atom_site_fract_z
 _atom_site_occupancy
  K  K0  1  0.51878400  0.25641500  0.06509100  1
  K  K1  1  0.41612500  0.74358500  0.06509100  1
  K  K2  1  0.22480000  0.25641500  0.93490900  1
  K  K3  1  0.23121500  0.24358500  0.43490900  1
  K  K4  1  0.84029000  0.74358500  0.93490900  1
  K  K5  1  0.33387500  0.75641500  0.43490900  1
  K  K6  1  0.52520000  0.24358500  0.56509100  1
  K  K7  1  0.90971000  0.75641500  0.56509100  1
  Ni  Ni0  1  0.66194700  0.27871500  0.74418100  1
  Ni  Ni1  1  0.59387200  0.72128500  0.74418100  1
  Ni  Ni2  1  0.05933800  0.27871500  0.25581900  1
  Ni  Ni3  1  0.08805300  0.22128500  0.75581900  1
  Ni  Ni4  1  0.68484300  0.72128500  0.25581900  1
  Ni  Ni5  1  0.15612800  0.77871500  0.75581900  1
  Ni  Ni6  1  0.69066200  0.22128500  0.24418100  1
  Ni  Ni7  1  0.06515700  0.77871500  0.24418100  1
  Ni  Ni8  1  0.87500000  0.25000000  0.25000000  1
  Ni  Ni9  1  0.87500000  0.75000000  0.25000000  1
  Ni  Ni10  1  0.87500000  0.25000000  0.75000000  1
  Ni  Ni11  1  0.37500000  0.75000000  0.75000000  1
  S  S0  1  0.65660100  0.55231600  0.18237100  1
  S  S1  1  0.16102800  0.44768400  0.18237100  1
  S  S2  1  0.79108300  0.55231600  0.81762900  1
  S  S3  1  0.09339900  0.94768400  0.31762900  1
  S  S4  1  0.39128800  0.44768400  0.81762900  1
  S  S5  1  0.58897200  0.05231600  0.31762900  1
  S  S6  1  0.95891700  0.94768400  0.68237100  1
  S  S7  1  0.35871200  0.05231600  0.68237100  1
loop_
_geom_bond_atom_site_label_1
_geom_bond_atom_site_label_2
_geom_bond_distance
_geom_bond_site_symmetry_2
K0 S1 2.919242 1_555
K0 K4 3.011277 1_544
K0 K1 3.040257 1_555
K0 S5 3.137118 1_555
K0 S4 3.405817 1_554
K0 Ni4 3.459835 1_545
K0 Ni0 3.469253 1_554
K0 Ni6 3.506233 1_555
K0 Ni7 3.551714 1_555
K1 S0 2.919242 1_555
K1 K2 3.011277 1_564
K1 S3 3.137118 1_555
K1 S2 3.405817 1_554
K1 Ni2 3.459835 1_565
K1 Ni1 3.469253 1_554
K1 Ni7 3.506233 1_555
K1 Ni6 3.551714 1_555
K2 S4 2.919252 1_555
K2 K4 3.040250 1_455
K2 S7 3.137114 1_555
K2 S1 3.405824 1_556
K2 Ni1 3.459835 1_545
K2 Ni2 3.469253 1_556
K2 Ni3 3.506223 1_555
K2 Ni5 3.551718 1_555
K3 S5 2.919252 1_555
K3 K7 3.011277 1_455
K3 K5 3.040250 1_545
K3 S1 3.137114 1_555
K3 S7 3.405824 1_555
K3 Ni7 3.459835 1_555
K3 Ni3 3.469253 1_555
K3 Ni2 3.506223 1_555
K3 Ni4 3.551718 1_545
K4 S2 2.919242 1_555
K4 S6 3.137118 1_555
K4 S0 3.405817 1_556
K4 Ni0 3.459835 1_565
K4 Ni4 3.469253 1_556
K4 Ni5 3.506233 1_655
K4 Ni3 3.551714 1_655
K5 S3 2.919242 1_555
K5 K6 3.011277 1_555
K5 S0 3.137118 1_555
K5 S6 3.405817 1_455
K5 Ni6 3.459835 1_555
K5 Ni5 3.469253 1_555
K5 Ni4 3.506233 1_555
K5 Ni2 3.551714 1_565
K6 S7 2.919252 1_555
K6 K7 3.040250 1_545
K6 S4 3.137114 1_555
K6 S5 3.405824 1_555
K6 Ni5 3.459835 1_555
K6 Ni6 3.469253 1_555
K6 Ni0 3.506223 1_555
K6 Ni1 3.551718 1_545
K7 S6 2.919242 1_555
K7 S2 3.137118 1_555
K7 S3 3.405817 1_655
K7 Ni3 3.459835 1_655
K7 Ni7 3.469253 1_655
K7 Ni1 3.506233 1_555
K7 Ni0 3.551714 1_565
Ni0 S4 2.144403 1_555
Ni0 S6 2.201871 1_545
Ni1 S2 2.144403 1_555
Ni1 S7 2.201871 1_565
Ni2 S1 2.144403 1_555
Ni2 S3 2.201871 1_545
Ni3 S7 2.144403 1_555
Ni3 S2 2.201871 1_455
Ni4 S0 2.144403 1_555
Ni4 S5 2.201871 1_565
Ni5 S6 2.144403 1_455
Ni5 S4 2.201871 1_555
Ni6 S5 2.144403 1_555
Ni6 S0 2.201871 1_555
Ni7 S3 2.144403 1_555
Ni7 S1 2.201871 1_555
Ni8 S3 2.111975 1_645
Ni8 S0 2.111975 1_555
Ni9 S5 2.111975 1_565
Ni9 S1 2.111975 1_655
Ni10 S6 2.111975 1_545
Ni10 S2 2.111975 1_555
Ni11 S4 2.111975 1_555
Ni11 S7 2.111975 1_565
