# generated using pymatgen
data_CaZn(GeO3)2
_symmetry_space_group_name_H-M   'P 1'
_cell_length_a   6.88258194
_cell_length_b   6.88258194
_cell_length_c   5.51303472
_cell_angle_alpha   78.43994261
_cell_angle_beta   78.43994261
_cell_angle_gamma   82.89265486
_symmetry_Int_Tables_number   1
_chemical_formula_structural   CaZn(GeO3)2
_chemical_formula_sum   'Ca2 Zn2 Ge4 O12'
_cell_volume   249.71279796
_cell_formula_units_Z   2
loop_
 _symmetry_equiv_pos_site_id
 _symmetry_equiv_pos_as_xyz
  1  'x, y, z'
loop_
 _atom_site_type_symbol
 _atom_site_label
 _atom_site_symmetry_multiplicity
 _atom_site_fract_x
 _atom_site_fract_y
 _atom_site_fract_z
 _atom_site_occupancy
  Ca  Ca0  1  0.69687300  0.30312700  0.75000000  1
  Ca  Ca1  1  0.30312700  0.69687300  0.25000000  1
  Zn  Zn0  1  0.09341100  0.90658900  0.75000000  1
  Zn  Zn1  1  0.90658900  0.09341100  0.25000000  1
  Ge  Ge0  1  0.18618100  0.38241900  0.77445500  1
  Ge  Ge1  1  0.61758100  0.81381900  0.72554500  1
  Ge  Ge2  1  0.81381900  0.61758100  0.22554500  1
  Ge  Ge3  1  0.38241900  0.18618100  0.27445500  1
  O  O0  1  0.38839400  0.32862300  0.51633900  1
  O  O1  1  0.67137700  0.61160600  0.98366100  1
  O  O2  1  0.61160600  0.67137700  0.48366100  1
  O  O3  1  0.32862300  0.38839400  0.01633900  1
  O  O4  1  0.62431900  0.10318400  0.15481800  1
  O  O5  1  0.89681600  0.37568100  0.34518200  1
  O  O6  1  0.37568100  0.89681600  0.84518200  1
  O  O7  1  0.10318400  0.62431900  0.65481800  1
  O  O8  1  0.01579800  0.20113700  0.86576100  1
  O  O9  1  0.79886300  0.98420200  0.63423900  1
  O  O10  1  0.98420200  0.79886300  0.13423900  1
  O  O11  1  0.20113700  0.01579800  0.36576100  1
loop_
_geom_bond_atom_site_label_1
_geom_bond_atom_site_label_2
_geom_bond_distance
_geom_bond_site_symmetry_2
Ca0 O4 2.369890 1_556
Ca0 O5 2.369890 1_555
Ca0 O8 2.391400 1_655
Ca0 O9 2.391400 1_545
Ca0 O1 2.666693 1_555
Ca0 O0 2.666693 1_555
Ca0 O3 2.722114 1_556
Ca0 O2 2.722114 1_555
Ca1 O6 2.369890 1_554
Ca1 O7 2.369890 1_555
Ca1 O11 2.391400 1_565
Ca1 O10 2.391400 1_455
Ca1 O2 2.666693 1_555
Ca1 O3 2.666693 1_555
Ca1 O0 2.722114 1_555
Ca1 O1 2.722114 1_554
Ge0 O7 1.734579 1_555
Ge0 O8 1.749011 1_555
Ge0 O3 1.815764 1_556
Ge0 O0 1.840893 1_555
Ge1 O6 1.734579 1_555
Ge1 O9 1.749011 1_555
Ge1 O2 1.815764 1_555
Ge1 O1 1.840893 1_555
Ge2 O5 1.734579 1_555
Ge2 O10 1.749011 1_555
Ge2 O1 1.815764 1_554
Ge2 O2 1.840893 1_555
Ge3 O4 1.734579 1_555
Ge3 O11 1.749011 1_555
Ge3 O0 1.815764 1_555
Ge3 O3 1.840893 1_555
O4 Zn1 2.101485 1_555
O5 Zn1 2.101485 1_555
O6 Zn0 2.101485 1_555
O7 Zn0 2.101485 1_555
O8 Zn1 2.114772 1_456
O8 Zn0 2.217275 1_545
O9 Zn1 2.114772 1_565
O9 Zn0 2.217275 1_655
O10 Zn0 2.114772 1_654
O10 Zn1 2.217275 1_565
O11 Zn0 2.114772 1_545
O11 Zn1 2.217275 1_455
