# generated using pymatgen
data_Y2Ti2Fe22N
_symmetry_space_group_name_H-M   'P 1'
_cell_length_a   4.76916900
_cell_length_b   6.50731792
_cell_length_c   12.08532145
_cell_angle_alpha   90.24293188
_cell_angle_beta   90.00000000
_cell_angle_gamma   111.49664057
_symmetry_Int_Tables_number   1
_chemical_formula_structural   Y2Ti2Fe22N
_chemical_formula_sum   'Y2 Ti2 Fe22 N1'
_cell_volume   348.96861206
_cell_formula_units_Z   1
loop_
 _symmetry_equiv_pos_site_id
 _symmetry_equiv_pos_as_xyz
  1  'x, y, z'
loop_
 _atom_site_type_symbol
 _atom_site_label
 _atom_site_symmetry_multiplicity
 _atom_site_fract_x
 _atom_site_fract_y
 _atom_site_fract_z
 _atom_site_occupancy
  Y  Y0  1  0.00345200  0.00690400  0.00341900  1
  Y  Y1  1  0.50314500  0.00629000  0.50337600  1
  Ti  Ti0  1  0.31611300  0.63222500  0.31726200  1
  Ti  Ti1  1  0.81676000  0.63352100  0.81527400  1
  Fe  Fe0  1  0.38811400  0.77622800  0.11054700  1
  Fe  Fe1  1  0.88723000  0.77446000  0.60966100  1
  Fe  Fe2  1  0.11161200  0.22322400  0.38955200  1
  Fe  Fe3  1  0.60913200  0.21826400  0.88609100  1
  Fe  Fe4  1  0.88599600  0.77199300  0.38800900  1
  Fe  Fe5  1  0.38927200  0.77854400  0.88756900  1
  Fe  Fe6  1  0.61210400  0.22420800  0.11413300  1
  Fe  Fe7  1  0.11674700  0.23349500  0.61446200  1
  Fe  Fe8  1  0.25126300  0.00230100  0.25352200  1
  Fe  Fe9  1  0.75051600  0.00232400  0.74569400  1
  Fe  Fe10  1  0.75103800  0.00230100  0.25352200  1
  Fe  Fe11  1  0.25180800  0.00232400  0.74569400  1
  Fe  Fe12  1  0.99974900  0.49871100  0.00102900  1
  Fe  Fe13  1  0.50035400  0.49960500  0.50137300  1
  Fe  Fe14  1  0.49896300  0.49871100  0.00102900  1
  Fe  Fe15  1  0.99925100  0.49960500  0.50137300  1
  Fe  Fe16  1  0.67917200  0.35834300  0.32174200  1
  Fe  Fe17  1  0.17936300  0.35872700  0.81997100  1
  Fe  Fe18  1  0.82070000  0.64140000  0.17998500  1
  Fe  Fe19  1  0.32111600  0.64223200  0.67862600  1
  Fe  Fe20  1  0.17784400  0.35568700  0.17901100  1
  Fe  Fe21  1  0.67836400  0.35672900  0.67755700  1
  N  N0  1  0.50082300  0.00164600  0.00051500  1
loop_
_geom_bond_atom_site_label_1
_geom_bond_atom_site_label_2
_geom_bond_distance
_geom_bond_site_symmetry_2
Ti0 Y1 3.184678 1_565
Ti1 Y0 3.199076 1_666
Fe0 N0 1.909868 1_565
Fe0 Fe12 2.443756 1_455
Fe0 Fe14 2.443759 1_555
Fe0 Fe10 2.501592 1_565
Fe0 Fe8 2.501592 1_565
Fe0 Ti0 2.649742 1_555
Fe0 Fe18 2.657653 1_455
Fe0 Fe18 2.657653 1_555
Fe1 Fe13 2.424364 1_555
Fe1 Fe15 2.424364 1_555
Fe1 Fe11 2.452426 1_665
Fe1 Fe9 2.452426 1_565
Fe1 Ti1 2.631014 1_555
Fe1 Fe19 2.651026 1_555
Fe1 Fe19 2.651026 1_655
Fe1 Fe21 2.662548 1_555
Fe1 Fe4 2.678709 1_555
Fe1 Fe7 2.779643 1_665
Fe1 Y1 3.053330 1_665
Fe1 Y1 3.053330 1_565
Fe2 Fe8 2.427887 1_555
Fe2 Ti0 2.629706 1_555
Fe2 Fe20 2.671346 1_555
Fe2 Fe7 2.718538 1_555
Fe2 Fe4 2.732030 1_445
Fe2 Y1 3.052895 1_455
Fe2 Y1 3.052895 1_555
Fe3 N0 1.910227 1_556
Fe3 Fe9 2.445885 1_555
Fe3 Ti1 2.659604 1_555
Fe4 Fe8 2.455528 1_665
Fe4 Ti0 2.669604 1_555
Fe4 Ti0 2.669613 1_655
Fe4 Y1 3.102342 1_565
Fe4 Y1 3.102346 1_665
Fe5 N0 1.916004 1_566
Fe5 Fe9 2.492199 1_565
Fe5 Ti1 2.685816 1_555
Fe5 Ti1 2.685820 1_455
Fe6 N0 1.919486 1_555
Fe6 Fe8 2.466544 1_555
Fe7 Fe9 2.433831 1_455
Fe7 Y1 3.060089 1_455
Fe7 Y1 3.060093 1_555
Fe8 Ti0 2.655199 1_545
Fe8 Y1 3.246225 1_555
Fe8 Y0 3.249669 1_555
Fe9 Ti1 2.671951 1_545
Fe9 Y1 3.160933 1_555
Fe9 Y0 3.336194 1_656
Fe10 Fe8 2.383511 1_555
Fe10 Fe8 2.385658 1_655
Fe10 Fe2 2.427887 1_655
Fe10 Fe4 2.455526 1_545
Fe10 Fe6 2.466544 1_555
Fe10 Fe16 2.594401 1_555
Fe10 Fe20 2.613296 1_655
Fe10 Fe18 2.640033 1_545
Fe10 Ti0 2.655196 1_545
Fe10 Y1 3.246225 1_555
Fe10 Y0 3.249669 1_655
Fe11 Fe9 2.378423 1_555
Fe11 Fe9 2.390746 1_455
Fe11 Fe7 2.433833 1_555
Fe11 Fe3 2.445885 1_555
Fe11 Fe5 2.492199 1_545
Fe11 Fe21 2.590921 1_555
Fe11 Fe19 2.609314 1_545
Fe11 Fe17 2.621755 1_555
Fe11 Ti1 2.671953 1_445
Fe11 Y1 3.160933 1_555
Fe11 Y0 3.336194 1_556
Fe12 Fe14 2.380836 1_655
Fe12 Fe14 2.388333 1_555
Fe12 Fe6 2.465254 1_555
Fe12 Fe5 2.487788 1_654
Fe12 Fe3 2.493448 1_554
Fe12 Fe20 2.609719 1_655
Fe12 Fe18 2.613970 1_555
Fe12 Fe17 2.628023 1_654
Fe12 Ti1 2.673685 1_554
Fe12 Y0 3.207110 1_655
Fe12 Y0 3.300546 1_665
Fe13 Fe15 2.379324 1_555
Fe13 Fe15 2.389845 1_455
Fe13 Fe7 2.431422 1_555
Fe13 Fe4 2.456178 1_555
Fe13 Fe2 2.456367 1_555
Fe13 Fe21 2.591154 1_555
Fe13 Fe19 2.597222 1_555
Fe13 Fe16 2.615857 1_555
Fe13 Ti0 2.653240 1_555
Fe13 Y1 3.215253 1_555
Fe13 Y1 3.292292 1_565
Fe14 Fe6 2.465251 1_555
Fe14 Fe5 2.487790 1_554
Fe14 Fe3 2.493446 1_554
Fe14 Fe20 2.609719 1_555
Fe14 Fe18 2.613968 1_555
Fe14 Fe17 2.628028 1_554
Fe14 Ti1 2.673681 1_554
Fe14 Y0 3.207112 1_555
Fe14 Y0 3.300545 1_665
Fe15 Fe7 2.431420 1_655
Fe15 Fe4 2.456181 1_555
Fe15 Fe2 2.456367 1_655
Fe15 Fe21 2.591156 1_555
Fe15 Fe19 2.597222 1_655
Fe15 Fe16 2.615855 1_555
Fe15 Ti0 2.653242 1_655
Fe15 Y1 3.215252 1_555
Fe15 Y1 3.292292 1_665
Fe16 Fe18 2.428765 1_555
Fe16 Fe8 2.594403 1_555
Fe16 Fe4 2.625961 1_555
Fe16 Fe6 2.633665 1_555
Fe16 Fe2 2.652022 1_655
Fe16 Fe2 2.652026 1_555
Fe16 Ti0 2.905138 1_655
Fe16 Ti0 2.905139 1_555
Fe16 Fe20 2.943077 1_555
Fe16 Fe20 2.943077 1_655
Fe16 Y1 3.066706 1_555
Fe17 Fe19 2.427166 1_555
Fe17 Fe7 2.593500 1_555
Fe17 Fe9 2.621752 1_455
Fe17 Fe3 2.655980 1_455
Fe17 Fe3 2.655985 1_555
Fe17 Fe5 2.666360 1_555
Fe17 Ti1 2.908351 1_555
Fe17 Ti1 2.908351 1_455
Fe17 Fe21 2.940825 1_455
Fe17 Fe21 2.940825 1_555
Fe17 Y0 3.081538 1_556
Fe18 Fe4 2.632008 1_555
Fe18 Fe8 2.640032 1_665
Fe18 Fe6 2.644901 1_555
Fe18 Ti0 2.905608 1_555
Fe18 Ti0 2.905612 1_655
Fe18 Fe20 2.945967 1_555
Fe18 Fe20 2.945971 1_655
Fe18 Y0 3.081196 1_665
Fe19 Fe7 2.590035 1_555
Fe19 Fe9 2.609314 1_565
Fe19 Fe5 2.653020 1_555
Fe19 Ti1 2.901214 1_555
Fe19 Ti1 2.901218 1_455
Fe19 Fe21 2.945223 1_555
Fe19 Fe21 2.945227 1_455
Fe19 Y1 3.063818 1_565
Fe20 Ti0 2.359985 1_555
Fe20 Fe8 2.613294 1_555
Fe21 Ti1 2.356530 1_555
Fe21 Fe9 2.590924 1_555
Fe21 Fe7 2.611365 1_555
Fe21 Fe7 2.611365 1_655
Fe21 Y1 2.982021 1_555
N0 Y0 2.385053 1_655
N0 Y0 2.385053 1_555
