# generated using pymatgen
data_ZnH10C2S2(N4O3)2
_symmetry_space_group_name_H-M   'P 1'
_cell_length_a   7.04859098
_cell_length_b   7.04859098
_cell_length_c   14.49239101
_cell_angle_alpha   78.88154812
_cell_angle_beta   78.88154812
_cell_angle_gamma   66.98594296
_symmetry_Int_Tables_number   1
_chemical_formula_structural   ZnH10C2S2(N4O3)2
_chemical_formula_sum   'Zn2 H20 C4 S4 N16 O12'
_cell_volume   644.75235906
_cell_formula_units_Z   2
loop_
 _symmetry_equiv_pos_site_id
 _symmetry_equiv_pos_as_xyz
  1  'x, y, z'
loop_
 _atom_site_type_symbol
 _atom_site_label
 _atom_site_symmetry_multiplicity
 _atom_site_fract_x
 _atom_site_fract_y
 _atom_site_fract_z
 _atom_site_occupancy
  Zn  Zn0  1  0.33368700  0.66631300  0.25000000  1
  Zn  Zn1  1  0.66631300  0.33368700  0.75000000  1
  H  H0  1  0.73410700  0.52787100  0.16455100  1
  H  H1  1  0.47212900  0.26589300  0.33544900  1
  H  H2  1  0.26589300  0.47212900  0.83544900  1
  H  H3  1  0.52787100  0.73410700  0.66455100  1
  H  H4  1  0.68848400  0.73353300  0.01004000  1
  H  H5  1  0.26646700  0.31151600  0.48996000  1
  H  H6  1  0.31151600  0.26646700  0.98996000  1
  H  H7  1  0.73353300  0.68848400  0.51004000  1
  H  H8  1  0.47912500  0.81353900  0.89588600  1
  H  H9  1  0.18646100  0.52087500  0.60411400  1
  H  H10  1  0.52087500  0.18646100  0.10411400  1
  H  H11  1  0.81353900  0.47912500  0.39588600  1
  H  H12  1  0.64709900  0.77730800  0.17640200  1
  H  H13  1  0.22269200  0.35290100  0.32359800  1
  H  H14  1  0.35290100  0.22269200  0.82359800  1
  H  H15  1  0.77730800  0.64709900  0.67640200  1
  H  H16  1  0.21997500  0.81976800  0.92671400  1
  H  H17  1  0.18023200  0.78002500  0.57328600  1
  H  H18  1  0.78002500  0.18023200  0.07328600  1
  H  H19  1  0.81976800  0.21997500  0.42671400  1
  C  C0  1  0.38119000  0.74896800  0.03801600  1
  C  C1  1  0.25103200  0.61881000  0.46198400  1
  C  C2  1  0.61881000  0.25103200  0.96198400  1
  C  C3  1  0.74896800  0.38119000  0.53801600  1
  S  S0  1  0.17435200  0.72745000  0.11852700  1
  S  S1  1  0.27255000  0.82564800  0.38147300  1
  S  S2  1  0.82564800  0.27255000  0.88147300  1
  S  S3  1  0.72745000  0.17435200  0.61852700  1
  N  N0  1  0.60719300  0.66662100  0.15684300  1
  N  N1  1  0.33337900  0.39280700  0.34315700  1
  N  N2  1  0.39280700  0.33337900  0.84315700  1
  N  N3  1  0.66662100  0.60719300  0.65684300  1
  N  N4  1  0.56708700  0.72041100  0.06186200  1
  N  N5  1  0.27958900  0.43291300  0.43813800  1
  N  N6  1  0.43291300  0.27958900  0.93813800  1
  N  N7  1  0.72041100  0.56708700  0.56186200  1
  N  N8  1  0.35908300  0.79737700  0.94616600  1
  N  N9  1  0.20262300  0.64091700  0.55383400  1
  N  N10  1  0.64091700  0.20262300  0.05383400  1
  N  N11  1  0.79737700  0.35908300  0.44616600  1
  N  N12  1  0.88532900  0.74559500  0.83834800  1
  N  N13  1  0.25440500  0.11467100  0.66165200  1
  N  N14  1  0.11467100  0.25440500  0.16165200  1
  N  N15  1  0.74559500  0.88532900  0.33834800  1
  O  O0  1  0.70326600  0.83049600  0.81399300  1
  O  O1  1  0.16950400  0.29673400  0.68600700  1
  O  O2  1  0.29673400  0.16950400  0.18600700  1
  O  O3  1  0.83049600  0.70326600  0.31399300  1
  O  O4  1  0.91387200  0.73279500  0.92345800  1
  O  O5  1  0.26720500  0.08612800  0.57654200  1
  O  O6  1  0.08612800  0.26720500  0.07654200  1
  O  O7  1  0.73279500  0.91387200  0.42345800  1
  O  O8  1  0.03810000  0.67363200  0.77662700  1
  O  O9  1  0.32636800  0.96190000  0.72337300  1
  O  O10  1  0.96190000  0.32636800  0.22337300  1
  O  O11  1  0.67363200  0.03810000  0.27662700  1
loop_
_geom_bond_atom_site_label_1
_geom_bond_atom_site_label_2
_geom_bond_distance
_geom_bond_site_symmetry_2
H0 N0 1.039962 1_555
H1 N1 1.039962 1_555
H2 N2 1.039962 1_555
H3 N3 1.039962 1_555
H4 N4 1.044998 1_555
H5 N5 1.044998 1_555
H6 N6 1.044998 1_555
H7 N7 1.044998 1_555
H8 N8 1.032203 1_555
H9 N9 1.032203 1_555
H10 N10 1.032203 1_555
H11 N11 1.032203 1_555
H12 N0 1.027518 1_555
H13 N1 1.027518 1_555
H14 N2 1.027518 1_555
H15 N3 1.027518 1_555
H16 N8 1.016974 1_555
H17 N9 1.016974 1_555
H18 N10 1.016974 1_555
H19 N11 1.016974 1_555
C0 N8 1.332612 1_554
C0 N4 1.348499 1_555
C0 S0 1.720034 1_555
C1 N9 1.332612 1_555
C1 N5 1.348499 1_555
C1 S1 1.720034 1_555
C2 N10 1.332612 1_556
C2 N6 1.348499 1_555
C2 S2 1.720034 1_555
C3 N11 1.332612 1_555
C3 N7 1.348499 1_555
C3 S3 1.720034 1_555
S0 Zn0 2.282022 1_555
S1 Zn0 2.282022 1_555
S2 Zn1 2.282022 1_555
S3 Zn1 2.282022 1_555
N0 N4 1.408336 1_555
N0 Zn0 2.130156 1_555
N1 N5 1.408336 1_555
N1 Zn0 2.130156 1_555
N2 N6 1.408336 1_555
N2 Zn1 2.130156 1_555
N3 N7 1.408336 1_555
N3 Zn1 2.130156 1_555
N12 O8 1.262282 1_655
N12 O4 1.268307 1_555
N12 O0 1.273688 1_555
N13 O9 1.262282 1_545
N13 O5 1.268307 1_555
N13 O1 1.273688 1_555
N14 O10 1.262282 1_455
N14 O6 1.268307 1_555
N14 O2 1.273688 1_555
N15 O11 1.262282 1_565
N15 O7 1.268307 1_555
N15 O3 1.273688 1_555
