# generated using pymatgen
data_ZrTl2PbSe4
_symmetry_space_group_name_H-M   'P 1'
_cell_length_a   9.13047569
_cell_length_b   9.13047569
_cell_length_c   7.17638452
_cell_angle_alpha   73.44196247
_cell_angle_beta   73.44196247
_cell_angle_gamma   56.31444042
_symmetry_Int_Tables_number   1
_chemical_formula_structural   ZrTl2PbSe4
_chemical_formula_sum   'Zr2 Tl4 Pb2 Se8'
_cell_volume   471.08744419
_cell_formula_units_Z   2
loop_
 _symmetry_equiv_pos_site_id
 _symmetry_equiv_pos_as_xyz
  1  'x, y, z'
loop_
 _atom_site_type_symbol
 _atom_site_label
 _atom_site_symmetry_multiplicity
 _atom_site_fract_x
 _atom_site_fract_y
 _atom_site_fract_z
 _atom_site_occupancy
  Zr  Zr0  1  0.12481500  0.87518500  0.75000000  1
  Zr  Zr1  1  0.87518500  0.12481500  0.25000000  1
  Tl  Tl0  1  0.12583100  0.37762900  0.73063900  1
  Tl  Tl1  1  0.62237100  0.87416900  0.76936100  1
  Tl  Tl2  1  0.87416900  0.62237100  0.26936100  1
  Tl  Tl3  1  0.37762900  0.12583100  0.23063900  1
  Pb  Pb0  1  0.62330800  0.37669200  0.75000000  1
  Pb  Pb1  1  0.37669200  0.62330800  0.25000000  1
  Se  Se0  1  0.00472800  0.79704500  0.50340700  1
  Se  Se1  1  0.20295500  0.99527200  0.99659300  1
  Se  Se2  1  0.99527200  0.20295500  0.49659300  1
  Se  Se3  1  0.79704500  0.00472800  0.00340700  1
  Se  Se4  1  0.23574000  0.54812200  0.96673700  1
  Se  Se5  1  0.45187800  0.76426000  0.53326300  1
  Se  Se6  1  0.76426000  0.45187800  0.03326300  1
  Se  Se7  1  0.54812200  0.23574000  0.46673700  1
loop_
_geom_bond_atom_site_label_1
_geom_bond_atom_site_label_2
_geom_bond_distance
_geom_bond_site_symmetry_2
Pb0 Se4 3.081856 1_555
Pb0 Se5 3.081856 1_555
Pb0 Se3 3.083115 1_556
Pb0 Se2 3.083115 1_555
Pb0 Se7 3.086478 1_555
Pb0 Se6 3.086478 1_556
Pb1 Se7 3.081856 1_555
Pb1 Se6 3.081856 1_555
Pb1 Se0 3.083115 1_555
Pb1 Se1 3.083115 1_554
Pb1 Se4 3.086478 1_554
Pb1 Se5 3.086478 1_555
Se0 Zr0 2.745211 1_555
Se0 Zr1 2.803535 1_465
Se0 Tl1 3.250792 1_455
Se0 Tl0 3.364226 1_555
Se0 Tl2 3.400379 1_455
Se1 Zr0 2.745211 1_555
Se1 Zr1 2.803535 1_466
Se1 Tl0 3.250792 1_565
Se1 Tl1 3.364226 1_555
Se1 Tl3 3.400379 1_566
Se2 Zr1 2.745211 1_555
Se2 Zr0 2.803535 1_645
Se2 Tl3 3.250792 1_655
Se2 Tl2 3.364226 1_555
Se2 Tl0 3.400379 1_655
Se3 Zr1 2.745211 1_555
Se3 Zr0 2.803535 1_644
Se3 Tl2 3.250792 1_545
Se3 Tl3 3.364226 1_555
Se3 Tl1 3.400379 1_544
Se4 Zr0 2.694099 1_555
Se4 Tl2 3.216336 1_456
Se4 Tl0 3.241354 1_555
Se4 Tl3 3.439050 1_556
Se5 Zr0 2.694099 1_555
Se5 Tl3 3.216336 1_565
Se5 Tl1 3.241354 1_555
Se5 Tl2 3.439050 1_555
Se6 Zr1 2.694099 1_555
Se6 Tl0 3.216336 1_654
Se6 Tl2 3.241354 1_555
Se6 Tl1 3.439050 1_554
Se7 Zr1 2.694099 1_555
Se7 Tl1 3.216336 1_545
Se7 Tl3 3.241354 1_555
Se7 Tl0 3.439050 1_555
