# generated using pymatgen
data_DyMg2Mo3S8
_symmetry_space_group_name_H-M   'P 1'
_cell_length_a   7.48385029
_cell_length_b   7.48367702
_cell_length_c   7.48387003
_cell_angle_alpha   60.89952088
_cell_angle_beta   60.90222503
_cell_angle_gamma   60.89927702
_symmetry_Int_Tables_number   1
_chemical_formula_structural   DyMg2Mo3S8
_chemical_formula_sum   'Dy1 Mg2 Mo3 S8'
_cell_volume   302.39636894
_cell_formula_units_Z   1
loop_
 _symmetry_equiv_pos_site_id
 _symmetry_equiv_pos_as_xyz
  1  'x, y, z'
loop_
 _atom_site_type_symbol
 _atom_site_label
 _atom_site_symmetry_multiplicity
 _atom_site_fract_x
 _atom_site_fract_y
 _atom_site_fract_z
 _atom_site_occupancy
  Dy  Dy0  1  0.49999700  0.50002100  0.49998000  1
  Mg  Mg0  1  0.87636700  0.87638300  0.87636300  1
  Mg  Mg1  1  0.12363700  0.12361900  0.12363300  1
  Mo  Mo0  1  0.49999800  0.49999400  0.00000400  1
  Mo  Mo1  1  0.00000300  0.49999500  0.50000300  1
  Mo  Mo2  1  0.49999700  0.00000100  0.50000400  1
  S  S0  1  0.73855500  0.73853800  0.73856300  1
  S  S1  1  0.24706600  0.24705600  0.72520900  1
  S  S2  1  0.24706600  0.72520700  0.24704900  1
  S  S3  1  0.72521000  0.24706800  0.24705500  1
  S  S4  1  0.75293000  0.27478400  0.75295100  1
  S  S5  1  0.27478500  0.75293000  0.75294800  1
  S  S6  1  0.26144500  0.26144400  0.26145100  1
  S  S7  1  0.75294700  0.75295400  0.27478800  1
loop_
_geom_bond_atom_site_label_1
_geom_bond_atom_site_label_2
_geom_bond_distance
_geom_bond_site_symmetry_2
Dy0 S2 2.699139 1_555
Dy0 S5 2.699279 1_555
Dy0 S3 2.699284 1_555
Dy0 S7 2.699326 1_555
Dy0 S4 2.699349 1_555
Dy0 S1 2.699382 1_555
Mg0 S4 2.463343 1_565
Mg0 S5 2.463566 1_655
Mg0 S7 2.463626 1_556
Mg0 S0 2.509100 1_555
Mg1 S2 2.463413 1_545
Mg1 S1 2.463616 1_554
Mg1 S3 2.463622 1_455
Mg1 S6 2.509064 1_555
Mo0 S3 2.523017 1_555
Mo0 S5 2.523053 1_554
Mo0 S2 2.523079 1_555
Mo0 S4 2.523106 1_554
Mo0 S0 2.551021 1_554
Mo0 S6 2.551035 1_555
Mo1 S1 2.523055 1_555
Mo1 S7 2.523074 1_455
Mo1 S2 2.523185 1_555
Mo1 S4 2.523229 1_455
Mo1 S6 2.551024 1_555
Mo1 S0 2.551028 1_455
Mo2 S1 2.523081 1_555
Mo2 S7 2.523104 1_545
Mo2 S3 2.523199 1_555
Mo2 S5 2.523212 1_545
Mo2 S6 2.550951 1_555
Mo2 S0 2.551024 1_545
