# generated using pymatgen
data_Lu2Si5Ni3
_symmetry_space_group_name_H-M   'P 1'
_cell_length_a   7.80159672
_cell_length_b   7.80159672
_cell_length_c   7.80159672
_cell_angle_alpha   138.10462675
_cell_angle_beta   103.68180327
_cell_angle_gamma   91.09469963
_symmetry_Int_Tables_number   1
_chemical_formula_structural   Lu2Si5Ni3
_chemical_formula_sum   'Lu4 Si10 Ni6'
_cell_volume   293.82085970
_cell_formula_units_Z   2
loop_
 _symmetry_equiv_pos_site_id
 _symmetry_equiv_pos_as_xyz
  1  'x, y, z'
loop_
 _atom_site_type_symbol
 _atom_site_label
 _atom_site_symmetry_multiplicity
 _atom_site_fract_x
 _atom_site_fract_y
 _atom_site_fract_z
 _atom_site_occupancy
  Lu  Lu0  1  0.86648600  0.63018400  0.23630200  1
  Lu  Lu1  1  0.13351400  0.36981600  0.76369800  1
  Lu  Lu2  1  0.39388200  0.13018400  0.26369800  1
  Lu  Lu3  1  0.60611800  0.86981600  0.73630200  1
  Si  Si0  1  0.50000000  0.75000000  0.25000000  1
  Si  Si1  1  0.50000000  0.25000000  0.75000000  1
  Si  Si2  1  0.23622100  0.98622100  0.75000000  1
  Si  Si3  1  0.76377900  0.51377900  0.75000000  1
  Si  Si4  1  0.76377900  0.01377900  0.25000000  1
  Si  Si5  1  0.23622100  0.48622100  0.25000000  1
  Si  Si6  1  0.04268400  0.89115900  0.15152500  1
  Si  Si7  1  0.95731600  0.10884100  0.84847500  1
  Si  Si8  1  0.73963400  0.39115900  0.34847500  1
  Si  Si9  1  0.26036600  0.60884100  0.65152500  1
  Ni  Ni0  1  0.00000000  0.75000000  0.75000000  1
  Ni  Ni1  1  0.00000000  0.25000000  0.25000000  1
  Ni  Ni2  1  0.24866600  0.86611900  0.38254700  1
  Ni  Ni3  1  0.75133400  0.13388100  0.61745300  1
  Ni  Ni4  1  0.48357200  0.36611900  0.11745300  1
  Ni  Ni5  1  0.51642800  0.63388100  0.88254700  1
loop_
_geom_bond_atom_site_label_1
_geom_bond_atom_site_label_2
_geom_bond_distance
_geom_bond_site_symmetry_2
Lu0 Si8 2.826892 1_555
Lu0 Ni2 2.938431 1_655
Lu0 Si6 2.966534 1_655
Lu0 Si7 3.000564 1_554
Lu0 Si7 3.000564 1_565
Lu0 Ni3 3.015620 1_554
Lu0 Ni3 3.015620 1_565
Lu0 Si1 3.026223 1_554
Lu0 Si0 3.026223 1_555
Lu0 Si3 3.043922 1_554
Lu0 Si4 3.043922 1_565
Lu0 Ni4 3.104648 1_555
Lu0 Si2 3.122498 1_655
Lu0 Si5 3.122498 1_655
Lu0 Ni1 3.229718 1_655
Lu0 Ni0 3.229718 1_655
Lu1 Si9 2.826892 1_555
Lu1 Ni3 2.938431 1_455
Lu1 Si7 2.966534 1_455
Lu1 Si6 3.000564 1_556
Lu1 Si6 3.000564 1_545
Lu1 Ni2 3.015620 1_556
Lu1 Ni2 3.015620 1_545
Lu1 Si1 3.026223 1_555
Lu1 Si0 3.026223 1_556
Lu1 Si5 3.043922 1_556
Lu1 Si2 3.043922 1_545
Lu1 Ni5 3.104648 1_555
Lu1 Si4 3.122498 1_455
Lu1 Si3 3.122498 1_455
Lu1 Ni0 3.229718 1_555
Lu1 Ni1 3.229718 1_555
Lu2 Si6 2.826892 1_545
Lu2 Ni4 2.938431 1_555
Lu2 Si8 2.966534 1_555
Lu2 Si9 3.000564 1_544
Lu2 Si9 3.000564 1_555
Lu2 Ni5 3.015620 1_555
Lu2 Ni5 3.015620 1_544
Lu2 Si0 3.026223 1_545
Lu2 Si1 3.026223 1_555
Lu2 Si3 3.043922 1_555
Lu2 Si4 3.043922 1_555
Lu2 Ni2 3.104648 1_545
Lu2 Si5 3.122498 1_555
Lu2 Si2 3.122498 1_544
Lu2 Ni1 3.229718 1_555
Lu2 Ni0 3.229718 1_544
Lu3 Si7 2.826892 1_565
Lu3 Ni5 2.938431 1_555
Lu3 Si9 2.966534 1_555
Lu3 Si8 3.000564 1_555
Lu3 Si8 3.000564 1_566
Lu3 Ni4 3.015620 1_566
Lu3 Ni4 3.015620 1_555
Lu3 Si1 3.026223 1_565
Lu3 Si0 3.026223 1_555
Lu3 Si2 3.043922 1_555
Lu3 Si5 3.043922 1_555
Lu3 Ni3 3.104648 1_565
Lu3 Si4 3.122498 1_566
Lu3 Si3 3.122498 1_555
Lu3 Ni0 3.229718 1_655
Lu3 Ni1 3.229718 1_666
Si2 Si9 2.452780 1_555
Si2 Si7 2.452780 1_465
Si3 Si6 2.452780 1_656
Si3 Si8 2.452780 1_555
Si4 Si8 2.452780 1_555
Si4 Si6 2.452780 1_645
Si5 Si9 2.452780 1_555
Si5 Si7 2.452780 1_454
Ni0 Si8 2.343762 1_455
Ni0 Si7 2.343762 1_465
Ni0 Si9 2.343762 1_555
Ni0 Si6 2.343762 1_556
Ni0 Si2 2.581239 1_555
Ni0 Si3 2.581239 1_455
Ni0 Ni1 2.789191 1_555
Ni0 Ni1 2.789191 1_566
Ni1 Si7 2.343762 1_454
Ni1 Si8 2.343762 1_455
Ni1 Si9 2.343762 1_555
Ni1 Si6 2.343762 1_545
Ni1 Si5 2.581239 1_555
Ni1 Si4 2.581239 1_455
Ni2 Si6 2.243887 1_555
Ni2 Si2 2.289487 1_555
Ni2 Si5 2.289487 1_555
Ni2 Si0 2.316722 1_555
Ni2 Si1 2.316722 1_565
Ni3 Si7 2.243887 1_555
Ni3 Si4 2.289487 1_555
Ni3 Si3 2.289487 1_555
Ni3 Si0 2.316722 1_545
Ni3 Si1 2.316722 1_555
Ni4 Si8 2.243887 1_555
Ni4 Si2 2.289487 1_544
Ni4 Si5 2.289487 1_555
Ni4 Si1 2.316722 1_554
Ni4 Si0 2.316722 1_555
Ni5 Si9 2.243887 1_555
Ni5 Si3 2.289487 1_555
Ni5 Si4 2.289487 1_566
Ni5 Si1 2.316722 1_555
Ni5 Si0 2.316722 1_556
