# generated using pymatgen
data_Li2VOF3
_symmetry_space_group_name_H-M   'P 1'
_cell_length_a   7.84374800
_cell_length_b   7.84572304
_cell_length_c   10.96841462
_cell_angle_alpha   69.14288194
_cell_angle_beta   69.45266039
_cell_angle_gamma   79.86162390
_symmetry_Int_Tables_number   1
_chemical_formula_structural   Li2VOF3
_chemical_formula_sum   'Li16 V8 O8 F24'
_cell_volume   589.62913310
_cell_formula_units_Z   8
loop_
 _symmetry_equiv_pos_site_id
 _symmetry_equiv_pos_as_xyz
  1  'x, y, z'
loop_
 _atom_site_type_symbol
 _atom_site_label
 _atom_site_symmetry_multiplicity
 _atom_site_fract_x
 _atom_site_fract_y
 _atom_site_fract_z
 _atom_site_occupancy
  Li  Li0  1  0.21860200  0.20366700  0.06293300  1
  Li  Li1  1  0.58451300  0.11265700  0.04210700  1
  Li  Li2  1  0.07853800  0.60470100  0.03813100  1
  Li  Li3  1  0.71649400  0.73002800  0.04204200  1
  Li  Li4  1  0.44908600  0.96718100  0.31758400  1
  Li  Li5  1  0.08646000  0.60373500  0.53595300  1
  Li  Li6  1  0.84990900  0.83882500  0.28539600  1
  Li  Li7  1  0.35233400  0.33987900  0.28561600  1
  Li  Li8  1  0.21842200  0.20217000  0.56233300  1
  Li  Li9  1  0.71738300  0.70072800  0.56444400  1
  Li  Li10  1  0.94702100  0.47374200  0.31356800  1
  Li  Li11  1  0.35272700  0.33898000  0.78806600  1
  Li  Li12  1  0.58821300  0.10406000  0.53505500  1
  Li  Li13  1  0.45311800  0.97605800  0.80864300  1
  Li  Li14  1  0.95057000  0.47059900  0.81299100  1
  Li  Li15  1  0.85363100  0.84079300  0.77705000  1
  V  V0  1  0.00803500  0.98391400  0.49326900  1
  V  V1  1  0.23216700  0.76027800  0.24438100  1
  V  V2  1  0.73142700  0.26426100  0.24433200  1
  V  V3  1  0.23065500  0.75939300  0.74598200  1
  V  V4  1  0.50557900  0.48183900  0.49738700  1
  V  V5  1  0.00747300  0.98539400  0.99483000  1
  V  V6  1  0.50577200  0.48848100  0.99348700  1
  V  V7  1  0.73176100  0.25620400  0.74733400  1
  O  O0  1  0.03311600  0.83186200  0.38633800  1
  O  O1  1  0.07808800  0.78712000  0.13737500  1
  O  O2  1  0.57866500  0.29291900  0.13660700  1
  O  O3  1  0.08234300  0.78515700  0.63505100  1
  O  O4  1  0.53257100  0.33200200  0.38824900  1
  O  O5  1  0.03110000  0.83313500  0.88674600  1
  O  O6  1  0.53429000  0.33097100  0.88838700  1
  O  O7  1  0.57797900  0.28115900  0.64015000  1
  F  F0  1  0.35228900  0.00697000  0.15969200  1
  F  F1  1  0.24110200  0.41028800  0.10816000  1
  F  F2  1  0.39794700  0.71103800  0.37205300  1
  F  F3  1  0.45963400  0.66000400  0.11536200  1
  F  F4  1  0.96035300  0.15668300  0.11882300  1
  F  F5  1  0.75044600  0.60442100  0.40998000  1
  F  F6  1  0.25267900  0.10571900  0.40672500  1
  F  F7  1  0.84440100  0.51366000  0.15653200  1
  F  F8  1  0.15494900  0.49474100  0.35848500  1
  F  F9  1  0.65586700  0.99703100  0.35902200  1
  F  F10  1  0.74167500  0.91412700  0.10973300  1
  F  F11  1  0.45933800  0.64870400  0.62268600  1
  F  F12  1  0.89836400  0.21496200  0.37105300  1
  F  F13  1  0.25448700  0.10360700  0.90776400  1
  F  F14  1  0.85247000  0.50255300  0.65724100  1
  F  F15  1  0.35325300  0.00444900  0.65551000  1
  F  F16  1  0.15422800  0.49406900  0.86084600  1
  F  F17  1  0.24073000  0.40521800  0.61084600  1
  F  F18  1  0.74343100  0.90562500  0.61025200  1
  F  F19  1  0.40072600  0.71619400  0.86754500  1
  F  F20  1  0.90120900  0.21375900  0.86976900  1
  F  F21  1  0.95972100  0.14816500  0.62193000  1
  F  F22  1  0.75240300  0.60774500  0.90167300  1
  F  F23  1  0.65736300  0.98814300  0.86243000  1
loop_
_geom_bond_atom_site_label_1
_geom_bond_atom_site_label_2
_geom_bond_distance
_geom_bond_site_symmetry_2
Li1 O2 2.016014 1_555
Li1 O6 2.025846 1_554
Li2 O5 2.046336 1_554
Li2 O1 2.082837 1_555
Li3 O5 2.533042 1_654
Li5 O0 2.048999 1_555
Li5 O3 2.066252 1_555
Li6 O1 2.043873 1_655
Li6 O0 2.083270 1_655
Li7 O2 2.029873 1_555
Li7 O4 2.075226 1_555
Li11 O7 2.046799 1_555
Li11 O6 2.064506 1_555
Li12 O4 2.037047 1_555
Li12 O7 2.074161 1_555
Li15 O3 2.020327 1_655
Li15 O5 2.117493 1_655
O0 V0 1.894516 1_555
O0 V1 1.945506 1_555
O1 V1 1.900684 1_555
O1 V5 1.934907 1_554
O2 V2 1.895316 1_555
O2 V6 1.936861 1_554
O3 V3 1.900080 1_555
O3 V0 1.944041 1_555
O4 V4 1.896400 1_555
O4 V2 1.945345 1_555
O5 V5 1.908685 1_555
O5 V3 1.946640 1_555
O6 V6 1.908449 1_555
O6 V7 1.944492 1_555
O7 V7 1.903639 1_555
O7 V4 1.951235 1_555
F0 Li0 1.911209 1_555
F0 Li1 1.946784 1_555
F0 Li4 2.031680 1_545
F0 V1 2.060122 1_545
F1 Li0 1.907872 1_555
F1 Li2 1.926394 1_555
F1 V6 2.081861 1_554
F1 Li7 2.260894 1_555
F2 Li4 1.953730 1_555
F2 V4 2.087139 1_555
F2 V1 2.125388 1_555
F3 Li3 1.986321 1_555
F3 V1 2.081135 1_555
F3 V6 2.121046 1_554
F4 Li0 1.960916 1_655
F4 V2 2.095335 1_555
F4 V5 2.136820 1_644
F5 Li10 1.902052 1_555
F5 Li6 1.955859 1_555
F5 Li9 2.010656 1_555
F5 V4 2.057729 1_555
F6 Li4 1.902795 1_545
F6 Li7 1.946697 1_555
F6 Li8 2.020913 1_555
F6 V0 2.053680 1_545
F7 Li2 1.922656 1_655
F7 V2 2.052066 1_555
F7 Li10 2.052590 1_555
F7 Li3 2.057199 1_555
F8 Li10 1.909514 1_455
F8 Li7 1.916429 1_555
F8 V1 2.080609 1_555
F8 Li5 2.257965 1_555
F9 Li4 1.902395 1_555
F9 Li6 1.922302 1_555
F9 V2 2.089390 1_565
F9 Li12 2.234533 1_565
F10 Li1 1.907660 1_565
F10 Li3 1.908805 1_555
F10 V5 2.076482 1_654
F10 Li6 2.223330 1_555
F11 Li9 1.966969 1_555
F11 V3 2.094187 1_555
F11 V4 2.120944 1_555
F12 Li10 1.964104 1_555
F12 V0 2.086418 1_645
F12 V2 2.124267 1_555
F13 Li13 1.909877 1_545
F13 Li11 1.947320 1_555
F13 Li0 2.032123 1_556
F13 V5 2.056514 1_545
F14 Li9 1.904300 1_555
F14 Li5 1.953333 1_655
F14 Li14 2.030563 1_555
F14 V7 2.058171 1_555
F15 Li8 1.903052 1_555
F15 Li12 1.953320 1_555
F15 Li13 2.019916 1_545
F15 V3 2.056326 1_545
F16 Li14 1.903210 1_455
F16 Li11 1.922036 1_555
F16 V3 2.078846 1_555
F16 Li2 2.257688 1_556
F17 Li8 1.902289 1_555
F17 Li5 1.920433 1_555
F17 V4 2.077952 1_555
F17 Li11 2.266907 1_555
F18 Li9 1.908219 1_555
F18 Li12 1.926036 1_565
F18 V0 2.085551 1_655
F18 Li15 2.155372 1_555
F19 Li13 1.978311 1_555
F19 V6 2.074206 1_555
F19 V3 2.107094 1_555
F20 Li14 1.951962 1_555
F20 V5 2.076840 1_645
F20 V7 2.111754 1_555
F21 Li8 1.974531 1_655
F21 V7 2.092323 1_555
F21 V0 2.131530 1_645
F21 Li15 2.488738 1_545
F22 Li14 1.901358 1_555
F22 Li15 1.952331 1_555
F22 Li3 2.005618 1_556
F22 V6 2.056887 1_555
F23 Li13 1.918425 1_555
F23 Li15 1.927648 1_555
F23 V7 2.093266 1_565
F23 Li1 2.355568 1_566
F23 Li3 2.380574 1_556
