# generated using pymatgen
data_LiFePO4
_symmetry_space_group_name_H-M   'P 1'
_cell_length_a   10.23619605
_cell_length_b   5.97075510
_cell_length_c   4.65491719
_cell_angle_alpha   90.00002115
_cell_angle_beta   90.00000000
_cell_angle_gamma   90.00000000
_symmetry_Int_Tables_number   1
_chemical_formula_structural   LiFePO4
_chemical_formula_sum   'Li4 Fe4 P4 O16'
_cell_volume   284.49838986
_cell_formula_units_Z   4
loop_
 _symmetry_equiv_pos_site_id
 _symmetry_equiv_pos_as_xyz
  1  'x, y, z'
loop_
 _atom_site_type_symbol
 _atom_site_label
 _atom_site_symmetry_multiplicity
 _atom_site_fract_x
 _atom_site_fract_y
 _atom_site_fract_z
 _atom_site_occupancy
  Li  Li0  1  0.00000000  0.00000000  0.00000000  1
  Li  Li1  1  0.50000000  0.50000000  0.50000000  1
  Li  Li2  1  0.50000000  0.00000000  0.50000000  1
  Li  Li3  1  0.00000000  0.50000000  0.00000000  1
  Fe  Fe0  1  0.78115127  0.25000000  0.52986573  1
  Fe  Fe1  1  0.71884873  0.75000000  0.02986773  1
  Fe  Fe2  1  0.28115127  0.25000000  0.97013327  1
  Fe  Fe3  1  0.21884873  0.75000000  0.47013327  1
  P  P0  1  0.09386630  0.25000000  0.41862257  1
  P  P1  1  0.40613370  0.75000000  0.91862357  1
  P  P2  1  0.59386630  0.25000000  0.08137543  1
  P  P3  1  0.90613370  0.75000000  0.58137643  1
  O  O0  1  0.09423067  0.25000000  0.74478656  1
  O  O1  1  0.83415452  0.54555803  0.71373534  1
  O  O2  1  0.83415452  0.95444297  0.71373534  1
  O  O3  1  0.90577033  0.75000000  0.25521444  1
  O  O4  1  0.04430856  0.75000000  0.70986445  1
  O  O5  1  0.40576933  0.75000000  0.24478556  1
  O  O6  1  0.16584548  0.04555803  0.28626566  1
  O  O7  1  0.66584548  0.45444197  0.21373434  1
  O  O8  1  0.33415452  0.54555803  0.78626566  1
  O  O9  1  0.33415452  0.95444297  0.78626566  1
  O  O10  1  0.95569144  0.25000000  0.29013655  1
  O  O11  1  0.45569144  0.25000000  0.20986345  1
  O  O12  1  0.54430856  0.75000000  0.79013755  1
  O  O13  1  0.59423067  0.25000000  0.75521544  1
  O  O14  1  0.66584548  0.04555803  0.21373434  1
  O  O15  1  0.16584548  0.45444197  0.28626566  1
loop_
_geom_bond_atom_site_label_1
_geom_bond_atom_site_label_2
_geom_bond_distance
_geom_bond_site_symmetry_2
Li0 O4 2.063451 1_544
Li0 O10 2.063454 1_455
Li0 O3 2.137717 1_445
Li0 O0 2.137719 1_554
Li0 O2 2.175221 1_444
Li0 O6 2.175224 1_555
Li1 O11 2.063454 1_555
Li1 O12 2.063457 1_555
Li1 O5 2.137721 1_555
Li1 O13 2.137724 1_555
Li1 O7 2.175224 1_555
Li1 O8 2.175224 1_555
Li2 O11 2.063455 1_555
Li2 O12 2.063458 1_545
Li2 O5 2.137721 1_545
Li2 O13 2.137723 1_555
Li2 O9 2.175223 1_545
Li2 O14 2.175224 1_555
Li3 O4 2.063452 1_554
Li3 O10 2.063455 1_455
Li3 O3 2.137716 1_455
Li3 O0 2.137718 1_554
Li3 O1 2.175221 1_454
Li3 O15 2.175224 1_555
Fe0 O2 2.034966 1_545
Fe0 O1 2.034970 1_555
Fe0 O10 2.106493 1_555
Fe0 O13 2.182040 1_555
Fe0 O14 2.246917 1_555
Fe0 O7 2.246918 1_555
Fe1 O14 2.034965 1_565
Fe1 O7 2.034965 1_555
Fe1 O12 2.106496 1_554
Fe1 O3 2.182042 1_555
Fe1 O1 2.246920 1_554
Fe1 O2 2.246924 1_554
Fe2 O9 2.034961 1_545
Fe2 O8 2.034967 1_555
Fe2 O11 2.106496 1_556
Fe2 O0 2.182033 1_555
Fe2 O15 2.246920 1_556
Fe2 O6 2.246921 1_556
Fe3 O15 2.034967 1_555
Fe3 O6 2.034967 1_565
Fe3 O4 2.106498 1_555
Fe3 O5 2.182036 1_555
Fe3 O8 2.246921 1_555
Fe3 O9 2.246923 1_555
O0 P0 1.518271 1_555
O1 P3 1.553226 1_555
O2 P3 1.553230 1_555
O3 P3 1.518262 1_555
O4 P3 1.535646 1_455
O5 P1 1.518262 1_554
O6 P0 1.553222 1_555
O7 P2 1.553225 1_555
O8 P1 1.553224 1_555
O9 P1 1.553229 1_555
O10 P0 1.535643 1_655
O11 P2 1.535646 1_555
O12 P1 1.535643 1_555
O13 P2 1.518252 1_556
O14 P2 1.553226 1_555
O15 P0 1.553222 1_555
