# generated using pymatgen
data_Pr4Al
_symmetry_space_group_name_H-M   'P 1'
_cell_length_a   8.16217742
_cell_length_b   8.16217742
_cell_length_c   8.16217742
_cell_angle_alpha   60.00000000
_cell_angle_beta   60.00000000
_cell_angle_gamma   60.00000000
_symmetry_Int_Tables_number   1
_chemical_formula_structural   Pr4Al
_chemical_formula_sum   'Pr8 Al2'
_cell_volume   384.50597573
_cell_formula_units_Z   2
loop_
 _symmetry_equiv_pos_site_id
 _symmetry_equiv_pos_as_xyz
  1  'x, y, z'
loop_
 _atom_site_type_symbol
 _atom_site_label
 _atom_site_symmetry_multiplicity
 _atom_site_fract_x
 _atom_site_fract_y
 _atom_site_fract_z
 _atom_site_occupancy
  Pr  Pr0  1  0.60717900  0.60717900  0.60717900  1
  Pr  Pr1  1  0.17846200  0.60717900  0.60717900  1
  Pr  Pr2  1  0.60717900  0.17846200  0.60717900  1
  Pr  Pr3  1  0.57153800  0.14282100  0.14282100  1
  Pr  Pr4  1  0.14282100  0.14282100  0.14282100  1
  Pr  Pr5  1  0.60717900  0.60717900  0.17846200  1
  Pr  Pr6  1  0.14282100  0.57153800  0.14282100  1
  Pr  Pr7  1  0.14282100  0.14282100  0.57153800  1
  Al  Al0  1  0.00000000  0.00000000  0.00000000  1
  Al  Al1  1  0.75000000  0.75000000  0.75000000  1
loop_
_geom_bond_atom_site_label_1
_geom_bond_atom_site_label_2
_geom_bond_distance
_geom_bond_site_symmetry_2
Pr0 Pr1 3.499264 1_555
Pr0 Pr2 3.499264 1_555
Pr0 Pr5 3.499264 1_555
Pr0 Pr6 4.101774 1_655
Pr0 Pr6 4.101774 1_556
Pr0 Pr3 4.101774 1_565
Pr0 Pr7 4.101774 1_565
Pr0 Pr7 4.101774 1_655
Pr0 Pr3 4.101774 1_556
Pr1 Pr2 3.499264 1_555
Pr1 Pr5 3.499264 1_555
Pr1 Pr7 4.101765 1_555
Pr1 Pr6 4.101765 1_555
Pr1 Pr4 4.101774 1_556
Pr1 Pr4 4.101774 1_565
Pr1 Pr6 4.101781 1_556
Pr1 Pr7 4.101781 1_565
Pr2 Pr5 3.499264 1_555
Pr2 Pr7 4.101765 1_555
Pr2 Pr3 4.101765 1_555
Pr2 Pr4 4.101774 1_556
Pr2 Pr4 4.101774 1_655
Pr2 Pr7 4.101781 1_655
Pr2 Pr3 4.101781 1_556
Pr3 Pr4 3.499264 1_555
Pr3 Pr6 3.499264 1_555
Pr3 Pr7 3.499264 1_555
Pr3 Pr5 4.101765 1_555
Pr3 Pr5 4.101781 1_545
Pr4 Pr6 3.499264 1_555
Pr4 Pr7 3.499264 1_555
Pr4 Pr5 4.101774 1_545
Pr4 Pr5 4.101774 1_455
Pr5 Pr6 4.101765 1_555
Pr5 Pr6 4.101781 1_655
Pr6 Pr7 3.499264 1_555
Al0 Pr7 2.855438 1_554
Al0 Pr6 2.855438 1_545
Al0 Pr3 2.855438 1_455
Al0 Pr4 2.855445 1_555
Al1 Pr2 2.855438 1_565
Al1 Pr5 2.855438 1_556
Al1 Pr1 2.855438 1_655
Al1 Pr0 2.855445 1_555
