# generated using pymatgen
data_Ba2CdTe3
_symmetry_space_group_name_H-M   'P 1'
_cell_length_a   4.81932500
_cell_length_b   10.01114400
_cell_length_c   19.38172800
_cell_angle_alpha   90.00000000
_cell_angle_beta   90.00000000
_cell_angle_gamma   90.00000000
_symmetry_Int_Tables_number   1
_chemical_formula_structural   Ba2CdTe3
_chemical_formula_sum   'Ba8 Cd4 Te12'
_cell_volume   935.10938883
_cell_formula_units_Z   4
loop_
 _symmetry_equiv_pos_site_id
 _symmetry_equiv_pos_as_xyz
  1  'x, y, z'
loop_
 _atom_site_type_symbol
 _atom_site_label
 _atom_site_symmetry_multiplicity
 _atom_site_fract_x
 _atom_site_fract_y
 _atom_site_fract_z
 _atom_site_occupancy
  Ba  Ba0  1  0.25000000  0.25345000  0.53704900  1
  Ba  Ba1  1  0.75000000  0.74655000  0.46295100  1
  Ba  Ba2  1  0.25000000  0.75345000  0.96295100  1
  Ba  Ba3  1  0.75000000  0.24655000  0.03704900  1
  Ba  Ba4  1  0.25000000  0.42636300  0.28543900  1
  Ba  Ba5  1  0.75000000  0.57363700  0.71456100  1
  Ba  Ba6  1  0.25000000  0.92636300  0.21456100  1
  Ba  Ba7  1  0.75000000  0.07363700  0.78543900  1
  Cd  Cd0  1  0.75000000  0.13047700  0.36408200  1
  Cd  Cd1  1  0.25000000  0.36952300  0.86408200  1
  Cd  Cd2  1  0.75000000  0.63047700  0.13591800  1
  Cd  Cd3  1  0.25000000  0.86952300  0.63591800  1
  Te  Te0  1  0.25000000  0.11320800  0.92826700  1
  Te  Te1  1  0.75000000  0.88679200  0.07173300  1
  Te  Te2  1  0.25000000  0.61320800  0.57173300  1
  Te  Te3  1  0.75000000  0.38679200  0.42826700  1
  Te  Te4  1  0.25000000  0.98826100  0.40320000  1
  Te  Te5  1  0.75000000  0.51173900  0.90320000  1
  Te  Te6  1  0.25000000  0.48826100  0.09680000  1
  Te  Te7  1  0.75000000  0.01173900  0.59680000  1
  Te  Te8  1  0.75000000  0.19217300  0.22027700  1
  Te  Te9  1  0.25000000  0.80782700  0.77972300  1
  Te  Te10  1  0.75000000  0.69217300  0.27972300  1
  Te  Te11  1  0.25000000  0.30782700  0.72027700  1
loop_
_geom_bond_atom_site_label_1
_geom_bond_atom_site_label_2
_geom_bond_distance
_geom_bond_site_symmetry_2
Ba0 Te3 3.468966 1_455
Ba0 Te3 3.468966 1_555
Ba0 Te11 3.592757 1_555
Ba0 Te7 3.605977 1_455
Ba0 Te7 3.605977 1_555
Ba0 Te2 3.663788 1_555
Ba0 Te4 3.711901 1_545
Ba1 Te2 3.468966 1_555
Ba1 Te2 3.468966 1_655
Ba1 Te10 3.592757 1_555
Ba1 Te4 3.605977 1_555
Ba1 Te4 3.605977 1_655
Ba1 Te3 3.663788 1_555
Ba1 Te7 3.711901 1_565
Ba2 Te1 3.468966 1_456
Ba2 Te1 3.468966 1_556
Ba2 Te9 3.592757 1_555
Ba2 Te5 3.605977 1_555
Ba2 Te5 3.605977 1_455
Ba2 Te0 3.663788 1_565
Ba2 Te6 3.711901 1_556
Ba3 Te0 3.468966 1_654
Ba3 Te0 3.468966 1_554
Ba3 Te8 3.592757 1_555
Ba3 Te6 3.605977 1_555
Ba3 Te6 3.605977 1_655
Ba3 Te1 3.663788 1_545
Ba3 Te5 3.711901 1_554
Ba4 Te8 3.591413 1_455
Ba4 Te8 3.591413 1_555
Ba4 Te10 3.591657 1_555
Ba4 Te10 3.591657 1_455
Ba4 Te3 3.691427 1_455
Ba4 Te3 3.691427 1_555
Ba4 Te6 3.708291 1_555
Ba5 Te9 3.591413 1_655
Ba5 Te9 3.591413 1_555
Ba5 Te11 3.591657 1_555
Ba5 Te11 3.591657 1_655
Ba5 Te2 3.691427 1_655
Ba5 Te2 3.691427 1_555
Ba5 Te5 3.708291 1_555
Ba6 Te10 3.591413 1_455
Ba6 Te10 3.591413 1_555
Ba6 Te8 3.591657 1_565
Ba6 Te8 3.591657 1_465
Ba6 Te1 3.691427 1_555
Ba6 Te1 3.691427 1_455
Ba6 Te4 3.708291 1_555
Ba7 Te11 3.591413 1_555
Ba7 Te11 3.591413 1_655
Ba7 Te9 3.591657 1_645
Ba7 Te9 3.591657 1_545
Ba7 Te0 3.691427 1_555
Ba7 Te0 3.691427 1_655
Ba7 Te7 3.708291 1_555
Cd0 Te3 2.851660 1_555
Cd0 Te8 2.854805 1_555
Cd0 Te4 2.899716 1_545
Cd0 Te4 2.899716 1_645
Cd1 Te0 2.851660 1_555
Cd1 Te11 2.854805 1_555
Cd1 Te5 2.899716 1_555
Cd1 Te5 2.899716 1_455
Cd2 Te1 2.851660 1_555
Cd2 Te10 2.854805 1_555
Cd2 Te6 2.899716 1_555
Cd2 Te6 2.899716 1_655
Cd3 Te2 2.851660 1_555
Cd3 Te9 2.854805 1_555
Cd3 Te7 2.899716 1_465
Cd3 Te7 2.899716 1_565
