# generated using pymatgen
data_RbCr5S8
_symmetry_space_group_name_H-M   'P 1'
_cell_length_a   3.46684071
_cell_length_b   8.75302278
_cell_length_c   9.03126231
_cell_angle_alpha   104.43373141
_cell_angle_beta   101.06576963
_cell_angle_gamma   89.99999672
_symmetry_Int_Tables_number   1
_chemical_formula_structural   RbCr5S8
_chemical_formula_sum   'Rb1 Cr5 S8'
_cell_volume   260.14174950
_cell_formula_units_Z   1
loop_
 _symmetry_equiv_pos_site_id
 _symmetry_equiv_pos_as_xyz
  1  'x, y, z'
loop_
 _atom_site_type_symbol
 _atom_site_label
 _atom_site_symmetry_multiplicity
 _atom_site_fract_x
 _atom_site_fract_y
 _atom_site_fract_z
 _atom_site_occupancy
  Rb  Rb0  1  0.49892984  0.49918789  0.99785969  1
  Cr  Cr0  1  0.29487412  0.66532594  0.58974824  1
  Cr  Cr1  1  0.70519839  0.32731106  0.41039678  1
  Cr  Cr2  1  0.34063795  0.02062951  0.68127491  1
  Cr  Cr3  1  0.65371981  0.98929746  0.30744062  1
  Cr  Cr4  1  0.00629408  0.99812221  0.01258817  1
  S  S0  1  0.23760103  0.15464187  0.47520105  1
  S  S1  1  0.75853304  0.84637826  0.51706707  1
  S  S2  1  0.17179976  0.48301114  0.34359853  1
  S  S3  1  0.82860418  0.51369723  0.65720936  1
  S  S4  1  0.09004859  0.82711768  0.18009718  1
  S  S5  1  0.91433251  0.16349841  0.82866503  1
  S  S6  1  0.42580314  0.85089238  0.85160627  1
  S  S7  1  0.57362355  0.16088896  0.14724711  1
loop_
_geom_bond_atom_site_label_1
_geom_bond_atom_site_label_2
_geom_bond_distance
_geom_bond_site_symmetry_2
Rb0 S4 3.390826 1_656
Rb0 S4 3.390826 1_556
Rb0 S5 3.413057 1_455
Rb0 S5 3.413057 1_555
Rb0 S3 3.511672 1_555
Rb0 S3 3.511673 1_455
Rb0 S7 3.537388 1_556
Rb0 S2 3.554683 1_556
Rb0 S2 3.554684 1_656
Rb0 S6 3.631046 1_555
Cr0 S3 2.350927 1_555
Cr0 S3 2.350930 1_455
Cr0 S2 2.353282 1_555
Cr0 S6 2.471855 1_555
Cr0 S1 2.539638 1_555
Cr0 S1 2.539640 1_455
Cr1 S2 2.371179 1_555
Cr1 S2 2.371181 1_655
Cr1 S3 2.373658 1_555
Cr1 S7 2.415811 1_555
Cr1 S0 2.461684 1_555
Cr1 S0 2.461686 1_655
Cr2 S5 2.333525 1_555
Cr2 S5 2.333527 1_455
Cr2 S6 2.371901 1_545
Cr2 S0 2.408402 1_555
Cr2 S1 2.514302 1_545
Cr2 S1 2.514307 1_445
Cr3 S7 2.314102 1_565
Cr3 S4 2.340930 1_555
Cr3 S4 2.340933 1_655
Cr3 S1 2.489525 1_555
Cr3 S0 2.493414 1_565
Cr3 S0 2.493419 1_665
Cr4 S4 2.360844 1_555
Cr4 S7 2.365434 1_565
Cr4 S7 2.365434 1_465
Cr4 S6 2.401530 1_454
Cr4 S6 2.401530 1_554
Cr4 S5 2.439573 1_464
