# generated using pymatgen
data_MnPdAu2
_symmetry_space_group_name_H-M   'P 1'
_cell_length_a   10.58238101
_cell_length_b   10.58238101
_cell_length_c   10.58238101
_cell_angle_alpha   122.96426162
_cell_angle_beta   119.02898270
_cell_angle_gamma   88.31710788
_symmetry_Int_Tables_number   1
_chemical_formula_structural   MnPdAu2
_chemical_formula_sum   'Mn1 Pd1 Au2'
_cell_volume   823.71139924
_cell_formula_units_Z   1
loop_
 _symmetry_equiv_pos_site_id
 _symmetry_equiv_pos_as_xyz
  1  'x, y, z'
loop_
 _atom_site_type_symbol
 _atom_site_label
 _atom_site_symmetry_multiplicity
 _atom_site_fract_x
 _atom_site_fract_y
 _atom_site_fract_z
 _atom_site_occupancy
  Mn  Mn0  1  0.00000000  0.00000000  0.00000000  1
  Pd  Pd0  1  0.00000000  0.50000000  0.50000000  1
  Au  Au0  1  0.00000000  0.24136900  0.24136900  1
  Au  Au1  1  0.00000000  0.75863100  0.75863100  1
loop_
_geom_bond_atom_site_label_1
_geom_bond_atom_site_label_2
_geom_bond_distance
_geom_bond_site_symmetry_2
Au0 Mn0 2.438974 1_555
Au0 Pd0 2.613402 1_555
Au1 Mn0 2.438974 1_566
Au1 Pd0 2.613402 1_555
