# generated using pymatgen
data_Tb2Au
_symmetry_space_group_name_H-M   'P 1'
_cell_length_a   4.97480589
_cell_length_b   7.11026814
_cell_length_c   8.92548935
_cell_angle_alpha   90.00000000
_cell_angle_beta   90.00000000
_cell_angle_gamma   90.00000000
_symmetry_Int_Tables_number   1
_chemical_formula_structural   Tb2Au
_chemical_formula_sum   'Tb8 Au4'
_cell_volume   315.71422850
_cell_formula_units_Z   4
loop_
 _symmetry_equiv_pos_site_id
 _symmetry_equiv_pos_as_xyz
  1  'x, y, z'
loop_
 _atom_site_type_symbol
 _atom_site_label
 _atom_site_symmetry_multiplicity
 _atom_site_fract_x
 _atom_site_fract_y
 _atom_site_fract_z
 _atom_site_occupancy
  Tb  Tb0  1  0.75000000  0.64875559  0.58469405  1
  Tb  Tb1  1  0.75000000  0.14875559  0.91530595  1
  Tb  Tb2  1  0.25000000  0.35124441  0.41530595  1
  Tb  Tb3  1  0.25000000  0.85124441  0.08469405  1
  Tb  Tb4  1  0.75000000  0.00973260  0.32537722  1
  Tb  Tb5  1  0.75000000  0.50973360  0.17462378  1
  Tb  Tb6  1  0.25000000  0.99026640  0.67462378  1
  Tb  Tb7  1  0.25000000  0.49026740  0.82537722  1
  Au  Au0  1  0.75000000  0.24248418  0.59457831  1
  Au  Au1  1  0.75000000  0.74248318  0.90542069  1
  Au  Au2  1  0.25000000  0.75751682  0.40542069  1
  Au  Au3  1  0.25000000  0.25751582  0.09457831  1
loop_
_geom_bond_atom_site_label_1
_geom_bond_atom_site_label_2
_geom_bond_distance
_geom_bond_site_symmetry_2
Tb0 Tb4 3.456111 1_565
Tb0 Tb7 3.474463 1_655
Tb0 Tb7 3.474463 1_555
Tb0 Tb6 3.567599 1_655
Tb0 Tb6 3.567599 1_555
Tb0 Tb2 3.598302 1_655
Tb0 Tb2 3.598302 1_555
Tb0 Tb5 3.791210 1_555
Tb1 Tb5 3.456123 1_556
Tb1 Tb6 3.474459 1_545
Tb1 Tb6 3.474459 1_645
Tb1 Tb7 3.567602 1_555
Tb1 Tb7 3.567602 1_655
Tb1 Tb3 3.598302 1_546
Tb1 Tb3 3.598302 1_646
Tb1 Tb4 3.791220 1_556
Tb2 Tb6 3.456123 1_545
Tb2 Tb5 3.474459 1_455
Tb2 Tb5 3.474459 1_555
Tb2 Tb4 3.567602 1_555
Tb2 Tb4 3.567602 1_455
Tb2 Tb7 3.791220 1_555
Tb3 Tb7 3.456111 1_554
Tb3 Tb4 3.474463 1_565
Tb3 Tb4 3.474463 1_465
Tb3 Tb5 3.567599 1_555
Tb3 Tb5 3.567599 1_455
Tb3 Tb6 3.791210 1_554
Au0 Tb0 2.890046 1_555
Au0 Tb4 2.917532 1_555
Au0 Tb1 2.939202 1_555
Au0 Tb2 3.057039 1_555
Au0 Tb2 3.057039 1_655
Au0 Tb6 3.148596 1_545
Au0 Tb6 3.148596 1_645
Au1 Tb1 2.890053 1_565
Au1 Tb5 2.917539 1_556
Au1 Tb0 2.939192 1_555
Au1 Tb3 3.057046 1_556
Au1 Tb3 3.057046 1_656
Au1 Tb7 3.148584 1_555
Au1 Tb7 3.148584 1_655
Au2 Tb2 2.890053 1_555
Au2 Tb6 2.917539 1_555
Au2 Tb3 2.939192 1_555
Au2 Tb0 3.057046 1_555
Au2 Tb0 3.057046 1_455
Au2 Tb4 3.148584 1_565
Au2 Tb4 3.148584 1_465
Au3 Tb3 2.890046 1_545
Au3 Tb7 2.917532 1_554
Au3 Tb2 2.939202 1_555
Au3 Tb1 3.057039 1_554
Au3 Tb1 3.057039 1_454
Au3 Tb5 3.148596 1_555
Au3 Tb5 3.148596 1_455
