# generated using pymatgen
data_Sn3P3O13
_symmetry_space_group_name_H-M   'P 1'
_cell_length_a   6.62241400
_cell_length_b   7.75046300
_cell_length_c   11.05316271
_cell_angle_alpha   82.93365636
_cell_angle_beta   90.00000000
_cell_angle_gamma   90.00000000
_symmetry_Int_Tables_number   1
_chemical_formula_structural   Sn3P3O13
_chemical_formula_sum   'Sn6 P6 O26'
_cell_volume   563.01401608
_cell_formula_units_Z   2
loop_
 _symmetry_equiv_pos_site_id
 _symmetry_equiv_pos_as_xyz
  1  'x, y, z'
loop_
 _atom_site_type_symbol
 _atom_site_label
 _atom_site_symmetry_multiplicity
 _atom_site_fract_x
 _atom_site_fract_y
 _atom_site_fract_z
 _atom_site_occupancy
  Sn  Sn0  1  0.25000000  0.63737900  0.20248100  1
  Sn  Sn1  1  0.75000000  0.36262100  0.79751900  1
  Sn  Sn2  1  0.25000000  0.21812600  0.45071100  1
  Sn  Sn3  1  0.50000000  0.00000000  0.00000000  1
  Sn  Sn4  1  0.75000000  0.78187400  0.54928900  1
  Sn  Sn5  1  0.00000000  0.00000000  0.00000000  1
  P  P0  1  0.25000000  0.78138900  0.47946400  1
  P  P1  1  0.75000000  0.21861100  0.52053600  1
  P  P2  1  0.25000000  0.25131200  0.77188000  1
  P  P3  1  0.75000000  0.74868800  0.22812000  1
  P  P4  1  0.75000000  0.69153600  0.88067000  1
  P  P5  1  0.25000000  0.30846400  0.11933000  1
  O  O0  1  0.75000000  0.65170500  0.74276200  1
  O  O1  1  0.56610000  0.24943800  0.43449400  1
  O  O2  1  0.25000000  0.17722100  0.65124900  1
  O  O3  1  0.55534000  0.79001700  0.90763500  1
  O  O4  1  0.75000000  0.35630000  0.61349600  1
  O  O5  1  0.75000000  0.12534400  0.90874500  1
  O  O6  1  0.25000000  0.64370000  0.38650400  1
  O  O7  1  0.05534000  0.20998300  0.09236500  1
  O  O8  1  0.25000000  0.96424400  0.40326700  1
  O  O9  1  0.75000000  0.03575600  0.59673300  1
  O  O10  1  0.06235100  0.35702100  0.79725100  1
  O  O11  1  0.25000000  0.87465600  0.09125500  1
  O  O12  1  0.56235100  0.64297900  0.20274900  1
  O  O13  1  0.75000000  0.50189800  0.94629100  1
  O  O14  1  0.75000000  0.82277900  0.34875100  1
  O  O15  1  0.44466000  0.20998300  0.09236500  1
  O  O16  1  0.93390000  0.24943800  0.43449400  1
  O  O17  1  0.43390000  0.75056200  0.56550600  1
  O  O18  1  0.43764900  0.35702100  0.79725100  1
  O  O19  1  0.25000000  0.34829500  0.25723800  1
  O  O20  1  0.75000000  0.91618200  0.12149800  1
  O  O21  1  0.25000000  0.08381800  0.87850200  1
  O  O22  1  0.93764900  0.64297900  0.20274900  1
  O  O23  1  0.94466000  0.79001700  0.90763500  1
  O  O24  1  0.06610000  0.75056200  0.56550600  1
  O  O25  1  0.25000000  0.49810200  0.05370900  1
loop_
_geom_bond_atom_site_label_1
_geom_bond_atom_site_label_2
_geom_bond_distance
_geom_bond_site_symmetry_2
O0 P4 1.592052 1_555
O0 Sn1 2.247814 1_555
O0 Sn4 2.249475 1_555
O1 P1 1.545586 1_555
O1 Sn2 2.112443 1_555
O2 P2 1.515245 1_555
O2 Sn2 2.200190 1_555
O3 P4 1.545710 1_555
O3 Sn3 2.057678 1_566
O4 P1 1.569827 1_555
O4 Sn1 2.040642 1_555
O5 Sn1 2.082573 1_555
O5 Sn5 2.112128 1_656
O5 Sn3 2.112128 1_556
O6 P0 1.569827 1_555
O6 Sn0 2.040642 1_555
O7 P5 1.545710 1_555
O7 Sn5 2.057678 1_555
O8 P0 1.556967 1_555
O8 Sn2 2.097793 1_565
O9 P1 1.556967 1_555
O9 Sn4 2.097793 1_545
O10 P2 1.533195 1_555
O10 Sn1 2.068983 1_455
O11 Sn0 2.082573 1_555
O11 Sn5 2.112128 1_565
O11 Sn3 2.112128 1_565
O12 P3 1.533195 1_555
O12 Sn0 2.068983 1_555
O13 P4 1.556939 1_555
O13 Sn1 2.075096 1_555
O14 P3 1.515245 1_555
O14 Sn4 2.200190 1_555
O15 P5 1.545710 1_555
O15 Sn3 2.057678 1_555
O16 P1 1.545586 1_555
O16 Sn2 2.112443 1_655
O17 P0 1.545586 1_555
O17 Sn4 2.112443 1_555
O18 P2 1.533195 1_555
O18 Sn1 2.068983 1_555
O19 P5 1.592052 1_555
O19 Sn0 2.247814 1_555
O19 Sn2 2.249475 1_555
O20 P3 1.642463 1_555
O20 Sn5 2.179880 1_665
O20 Sn3 2.179880 1_565
O21 P2 1.642463 1_555
O21 Sn5 2.179880 1_556
O21 Sn3 2.179880 1_556
O22 P3 1.533195 1_555
O22 Sn0 2.068983 1_655
O23 P4 1.545710 1_555
O23 Sn5 2.057678 1_666
O24 P0 1.545586 1_555
O24 Sn4 2.112443 1_455
O25 P5 1.556939 1_555
O25 Sn0 2.075096 1_555
