# generated using pymatgen
data_EuTiNbBi2O9
_symmetry_space_group_name_H-M   'P 1'
_cell_length_a   5.48763900
_cell_length_b   5.46588600
_cell_length_c   12.95198251
_cell_angle_alpha   78.26126140
_cell_angle_beta   90.00000000
_cell_angle_gamma   90.00000000
_symmetry_Int_Tables_number   1
_chemical_formula_structural   EuTiNbBi2O9
_chemical_formula_sum   'Eu2 Ti2 Nb2 Bi4 O18'
_cell_volume   380.36711474
_cell_formula_units_Z   2
loop_
 _symmetry_equiv_pos_site_id
 _symmetry_equiv_pos_as_xyz
  1  'x, y, z'
loop_
 _atom_site_type_symbol
 _atom_site_label
 _atom_site_symmetry_multiplicity
 _atom_site_fract_x
 _atom_site_fract_y
 _atom_site_fract_z
 _atom_site_occupancy
  Eu  Eu0  1  0.97447600  0.24738600  0.00018800  1
  Eu  Eu1  1  0.47447600  0.75261400  0.99981200  1
  Ti  Ti0  1  0.00292500  0.66662300  0.17385200  1
  Ti  Ti1  1  0.50292500  0.33337700  0.82614800  1
  Nb  Nb0  1  0.00624900  0.82990600  0.82712200  1
  Nb  Nb1  1  0.50624900  0.17009400  0.17287800  1
  Bi  Bi0  1  0.98748500  0.02099100  0.39781300  1
  Bi  Bi1  1  0.98477700  0.42758600  0.60133400  1
  Bi  Bi2  1  0.48748500  0.97900900  0.60218700  1
  Bi  Bi3  1  0.48477700  0.57241400  0.39866600  1
  O  O0  1  0.24582600  0.25778500  0.49805400  1
  O  O1  1  0.24489200  0.75407700  0.50216200  1
  O  O2  1  0.74582600  0.74221500  0.50194600  1
  O  O3  1  0.74489200  0.24592300  0.49783800  1
  O  O4  1  0.03498500  0.68611300  0.99867800  1
  O  O5  1  0.53498500  0.31388700  0.00132200  1
  O  O6  1  0.32073200  0.47143000  0.16993800  1
  O  O7  1  0.32659100  0.63442600  0.83059400  1
  O  O8  1  0.82073200  0.52857000  0.83006200  1
  O  O9  1  0.82659100  0.36557400  0.16940600  1
  O  O10  1  0.23497100  0.97198500  0.12898300  1
  O  O11  1  0.23769100  0.10310900  0.87076400  1
  O  O12  1  0.73497100  0.02801500  0.87101700  1
  O  O13  1  0.73769100  0.89689100  0.12923600  1
  O  O14  1  0.01519800  0.66502100  0.31340500  1
  O  O15  1  0.01400200  0.97494000  0.68151600  1
  O  O16  1  0.51519800  0.33497900  0.68659500  1
  O  O17  1  0.51400200  0.02506000  0.31848400  1
loop_
_geom_bond_atom_site_label_1
_geom_bond_atom_site_label_2
_geom_bond_distance
_geom_bond_site_symmetry_2
Eu0 O4 2.417046 1_654
Eu0 O5 2.439495 1_555
Eu0 O11 2.460921 1_654
Eu0 O10 2.463820 1_645
Eu0 O9 2.540789 1_555
Eu0 O8 2.559537 1_554
Eu0 O12 2.603924 1_554
Eu0 O13 2.617122 1_545
Eu1 O5 2.417046 1_556
Eu1 O4 2.439495 1_555
Eu1 O13 2.460921 1_556
Eu1 O12 2.463820 1_565
Eu1 O7 2.540789 1_555
Eu1 O6 2.559537 1_556
Eu1 O10 2.603924 1_556
Eu1 O11 2.617122 1_565
Nb0 O15 1.891691 1_555
Nb0 O8 1.930075 1_455
Nb0 O12 1.990583 1_465
Nb0 O7 2.052898 1_555
Nb0 O11 2.122729 1_565
Nb0 O4 2.206634 1_555
Nb1 O17 1.891691 1_555
Nb1 O6 1.930075 1_555
Nb1 O10 1.990583 1_545
Nb1 O9 2.052898 1_555
Nb1 O13 2.122729 1_545
Nb1 O5 2.206634 1_555
Bi0 O2 2.250181 1_545
Bi0 O1 2.268938 1_645
Bi0 O3 2.368606 1_555
Bi0 O14 2.422719 1_645
Bi0 O0 2.460568 1_655
Bi0 O17 2.792502 1_555
Bi1 O3 2.248853 1_555
Bi1 O0 2.282134 1_655
Bi1 O2 2.330923 1_555
Bi1 O1 2.437079 1_655
Bi1 O15 2.485956 1_645
Bi1 O16 2.808658 1_555
Bi2 O0 2.250181 1_565
Bi2 O3 2.268938 1_565
Bi2 O1 2.368606 1_555
Bi2 O16 2.422719 1_565
Bi2 O2 2.460568 1_555
Bi2 O15 2.792502 1_555
Bi3 O1 2.248853 1_555
Bi3 O2 2.282134 1_555
Bi3 O0 2.330923 1_555
Bi3 O3 2.437079 1_555
Bi3 O17 2.485956 1_565
Bi3 O14 2.808658 1_555
O4 Ti0 2.256465 1_556
O5 Ti1 2.256465 1_554
O6 Ti0 2.050471 1_555
O7 Ti1 1.919870 1_555
O8 Ti1 2.050471 1_555
O9 Ti0 1.919870 1_655
O10 Ti0 2.085752 1_555
O11 Ti1 1.934066 1_555
O12 Ti1 2.085752 1_555
O13 Ti0 1.934066 1_655
O14 Ti0 1.806982 1_555
O16 Ti1 1.806982 1_555
