# generated using pymatgen
data_Te4H4Pb12C2Cl3O29
_symmetry_space_group_name_H-M   'P 1'
_cell_length_a   7.74692600
_cell_length_b   11.17728772
_cell_length_c   12.17314417
_cell_angle_alpha   117.21128435
_cell_angle_beta   99.57820930
_cell_angle_gamma   90.02051974
_symmetry_Int_Tables_number   1
_chemical_formula_structural   Te4H4Pb12C2Cl3O29
_chemical_formula_sum   'Te4 H4 Pb12 C2 Cl3 O29'
_cell_volume   920.82340925
_cell_formula_units_Z   1
loop_
 _symmetry_equiv_pos_site_id
 _symmetry_equiv_pos_as_xyz
  1  'x, y, z'
loop_
 _atom_site_type_symbol
 _atom_site_label
 _atom_site_symmetry_multiplicity
 _atom_site_fract_x
 _atom_site_fract_y
 _atom_site_fract_z
 _atom_site_occupancy
  Te  Te0  1  0.86233300  0.08696600  0.57614400  1
  Te  Te1  1  0.63716000  0.51016900  0.42312700  1
  Te  Te2  1  0.13897700  0.91426700  0.42285700  1
  Te  Te3  1  0.36238100  0.49035000  0.57710900  1
  H  H0  1  0.32110300  0.97125000  0.05854400  1
  H  H1  1  0.17169200  0.90673500  0.94280800  1
  H  H2  1  0.67233700  0.03175500  0.94326700  1
  H  H3  1  0.82980100  0.08729900  0.05733300  1
  Pb  Pb0  1  0.49390200  0.09476400  0.36787200  1
  Pb  Pb1  1  0.02400700  0.71576700  0.60940300  1
  Pb  Pb2  1  0.52144600  0.89488000  0.60956300  1
  Pb  Pb3  1  0.97782600  0.28434200  0.39054300  1
  Pb  Pb4  1  0.66134400  0.73411400  0.27639600  1
  Pb  Pb5  1  0.83851600  0.45566000  0.72151400  1
  Pb  Pb6  1  0.34014900  0.26329200  0.71794400  1
  Pb  Pb7  1  0.16092500  0.54356000  0.27726900  1
  Pb  Pb8  1  0.02108000  0.79808800  0.10744100  1
  Pb  Pb9  1  0.47851900  0.69038800  0.89351200  1
  Pb  Pb10  1  0.97776100  0.20274200  0.89257900  1
  Pb  Pb11  1  0.52164700  0.31087700  0.10623700  1
  C  C0  1  0.75027600  0.48518900  0.99976000  1
  C  C1  1  0.24888100  0.51580800  0.99967200  1
  Cl  Cl0  1  0.84320400  0.80639100  0.82759000  1
  Cl  Cl1  1  0.34318000  0.02104500  0.82708800  1
  Cl  Cl2  1  0.15941600  0.19306800  0.17197800  1
  O  O0  1  0.75056200  0.60105400  0.99956200  1
  O  O1  1  0.24851600  0.40045800  0.00070600  1
  O  O2  1  0.95661600  0.78118100  0.28690800  1
  O  O3  1  0.54239500  0.49253400  0.71325300  1
  O  O4  1  0.04276100  0.22008100  0.71235600  1
  O  O5  1  0.45686600  0.50832300  0.28727000  1
  O  O6  1  0.71373700  0.47629200  0.09673900  1
  O  O7  1  0.78651100  0.37918500  0.90322800  1
  O  O8  1  0.28877700  0.52508700  0.90392200  1
  O  O9  1  0.20915500  0.62165700  0.09541300  1
  O  O10  1  0.66656900  0.96032000  0.45333500  1
  O  O11  1  0.83444700  0.50543700  0.54428600  1
  O  O12  1  0.33337300  0.03748800  0.54565800  1
  O  O13  1  0.16576600  0.49599500  0.45595600  1
  O  O14  1  0.99243800  0.06844800  0.43994000  1
  O  O15  1  0.50713100  0.62730300  0.55863200  1
  O  O16  1  0.00599100  0.93164600  0.55748100  1
  O  O17  1  0.49286900  0.37350700  0.44189500  1
  O  O18  1  0.23515800  0.92016900  0.28946200  1
  O  O19  1  0.26717000  0.63148900  0.71001900  1
  O  O20  1  0.76456000  0.07905000  0.70822500  1
  O  O21  1  0.73312500  0.36973100  0.29062000  1
  O  O22  1  0.74601400  0.23184600  0.55980300  1
  O  O23  1  0.75502200  0.67010400  0.43740900  1
  O  O24  1  0.25349800  0.76718500  0.43702900  1
  O  O25  1  0.24053100  0.33295100  0.56373100  1
  O  O26  1  0.25266900  0.88511400  0.00103500  1
  O  O27  1  0.74601600  0.11431300  0.00517700  1
  O  O28  1  0.65389200  0.98329100  0.20340200  1
loop_
_geom_bond_atom_site_label_1
_geom_bond_atom_site_label_2
_geom_bond_distance
_geom_bond_site_symmetry_2
H0 O26 0.978669 1_555
H1 O26 0.981392 1_556
H2 O27 0.982720 1_556
H3 O27 0.976674 1_555
C0 O0 1.296162 1_555
C0 O7 1.303910 1_555
C0 O6 1.304700 1_556
C1 O1 1.295111 1_556
C1 O8 1.302027 1_555
C1 O9 1.308186 1_556
Cl0 Pb1 2.970007 1_655
Cl1 Pb2 2.951417 1_545
Cl2 Pb3 2.977063 1_455
O0 Pb9 2.716640 1_555
O0 Pb8 2.720744 1_656
O1 Pb11 2.720899 1_555
O1 Pb10 2.726451 1_454
O2 Te2 1.978997 1_655
O2 Pb4 2.316404 1_555
O2 Pb8 2.408009 1_655
O3 Te3 1.971259 1_555
O3 Pb5 2.324727 1_555
O3 Pb9 2.423769 1_555
O4 Te0 1.971761 1_455
O4 Pb6 2.337219 1_555
O4 Pb10 2.420878 1_455
O5 Te1 1.971396 1_555
O5 Pb7 2.318992 1_555
O5 Pb11 2.428944 1_555
O6 Pb11 2.428378 1_555
O6 Pb4 2.790089 1_555
O7 Pb10 2.435885 1_555
O7 Pb5 2.794924 1_555
O8 Pb9 2.421688 1_555
O9 Pb8 2.417053 1_555
O9 Pb7 2.800825 1_555
O10 Te0 1.961455 1_565
O10 Pb4 2.454386 1_555
O10 Pb0 2.469386 1_565
O10 Pb2 2.720086 1_555
O11 Te1 1.958376 1_555
O11 Pb5 2.457672 1_555
O11 Pb1 2.493499 1_655
O11 Pb3 2.703223 1_555
O12 Te2 1.940593 1_545
O12 Pb6 2.427670 1_555
O12 Pb2 2.455040 1_545
O13 Te3 1.958745 1_555
O13 Pb7 2.458852 1_555
O13 Pb3 2.497872 1_455
O13 Pb1 2.686557 1_555
O14 Te0 2.012519 1_555
O14 Te2 2.013467 1_645
O14 Pb3 2.738993 1_555
O15 Te1 2.007130 1_555
O15 Te3 2.012183 1_555
O15 Pb2 2.760898 1_555
O16 Te0 2.007209 1_465
O16 Te2 2.013862 1_555
O16 Pb1 2.758066 1_555
O17 Te3 2.006356 1_555
O17 Te1 2.009456 1_555
O17 Pb0 2.820253 1_555
O18 Te2 1.922749 1_555
O18 Pb8 2.352101 1_555
O18 Pb0 2.528691 1_565
O19 Te3 1.927207 1_555
O19 Pb9 2.353896 1_555
O19 Pb1 2.494940 1_555
O20 Te0 1.924068 1_555
O20 Pb10 2.367066 1_555
O20 Pb2 2.492089 1_545
O21 Te1 1.924276 1_555
O21 Pb11 2.362164 1_555
O21 Pb3 2.505943 1_555
O22 Te0 1.926114 1_555
O22 Pb5 2.381670 1_555
O22 Pb0 2.612728 1_555
O23 Te1 1.929078 1_555
O23 Pb4 2.385325 1_555
O23 Pb1 2.560546 1_655
O24 Te2 1.931065 1_555
O24 Pb7 2.373402 1_555
O24 Pb2 2.561766 1_555
O25 Te3 1.923105 1_555
O25 Pb6 2.362397 1_555
O25 Pb3 2.530915 1_455
O26 Pb9 2.769677 1_554
O26 Pb8 2.786964 1_555
O27 Pb11 2.757566 1_555
O27 Pb10 2.852272 1_554
O28 Pb0 2.375417 1_565
