# generated using pymatgen
data_NdLuO3
_symmetry_space_group_name_H-M   'P 1'
_cell_length_a   5.73166100
_cell_length_b   5.97958100
_cell_length_c   8.32714300
_cell_angle_alpha   90.00000000
_cell_angle_beta   90.00000000
_cell_angle_gamma   90.00000000
_symmetry_Int_Tables_number   1
_chemical_formula_structural   NdLuO3
_chemical_formula_sum   'Nd4 Lu4 O12'
_cell_volume   285.39559925
_cell_formula_units_Z   4
loop_
 _symmetry_equiv_pos_site_id
 _symmetry_equiv_pos_as_xyz
  1  'x, y, z'
loop_
 _atom_site_type_symbol
 _atom_site_label
 _atom_site_symmetry_multiplicity
 _atom_site_fract_x
 _atom_site_fract_y
 _atom_site_fract_z
 _atom_site_occupancy
  Nd  Nd0  1  0.01447300  0.44545000  0.25000000  1
  Nd  Nd1  1  0.98552700  0.55455000  0.75000000  1
  Nd  Nd2  1  0.51447300  0.05455000  0.75000000  1
  Nd  Nd3  1  0.48552700  0.94545000  0.25000000  1
  Lu  Lu0  1  0.00000000  0.00000000  0.00000000  1
  Lu  Lu1  1  0.50000000  0.50000000  0.00000000  1
  Lu  Lu2  1  0.00000000  0.00000000  0.50000000  1
  Lu  Lu3  1  0.50000000  0.50000000  0.50000000  1
  O  O0  1  0.31121900  0.19107700  0.06499900  1
  O  O1  1  0.68878100  0.80892300  0.93500100  1
  O  O2  1  0.81121900  0.30892300  0.93500100  1
  O  O3  1  0.68878100  0.80892300  0.56499900  1
  O  O4  1  0.18878100  0.69107700  0.06499900  1
  O  O5  1  0.31121900  0.19107700  0.43500100  1
  O  O6  1  0.18878100  0.69107700  0.43500100  1
  O  O7  1  0.81121900  0.30892300  0.56499900  1
  O  O8  1  0.62397000  0.55409700  0.25000000  1
  O  O9  1  0.37603000  0.44590300  0.75000000  1
  O  O10  1  0.12397000  0.94590300  0.75000000  1
  O  O11  1  0.87603000  0.05409700  0.25000000  1
loop_
_geom_bond_atom_site_label_1
_geom_bond_atom_site_label_2
_geom_bond_distance
_geom_bond_site_symmetry_2
Nd0 O8 2.330609 1_455
Nd0 O6 2.351297 1_555
Nd0 O4 2.351297 1_555
Nd0 O11 2.471002 1_455
Nd0 O5 2.753123 1_555
Nd0 O0 2.753123 1_555
Nd0 O7 2.983957 1_455
Nd0 O2 2.983957 1_454
Nd1 O9 2.330609 1_655
Nd1 O7 2.351297 1_555
Nd1 O2 2.351297 1_555
Nd1 O10 2.471002 1_655
Nd1 O3 2.753123 1_555
Nd1 O1 2.753123 1_555
Nd1 O4 2.983957 1_656
Nd1 O6 2.983957 1_655
Nd2 O10 2.330609 1_545
Nd2 O1 2.351297 1_545
Nd2 O3 2.351297 1_545
Nd2 O9 2.471002 1_555
Nd2 O2 2.753123 1_555
Nd2 O7 2.753123 1_555
Nd2 O0 2.983957 1_556
Nd2 O5 2.983957 1_555
Nd3 O11 2.330609 1_565
Nd3 O5 2.351297 1_565
Nd3 O0 2.351297 1_565
Nd3 O8 2.471002 1_555
Nd3 O6 2.753123 1_555
Nd3 O4 2.753123 1_555
Nd3 O3 2.983957 1_555
Nd3 O1 2.983957 1_554
Lu0 O0 2.186401 1_555
Lu0 O1 2.186401 1_444
Lu0 O2 2.208167 1_454
Lu0 O4 2.208167 1_545
Lu0 O11 2.223366 1_455
Lu0 O10 2.223366 1_544
Lu1 O2 2.186401 1_554
Lu1 O4 2.186401 1_555
Lu1 O1 2.208167 1_554
Lu1 O0 2.208167 1_555
Lu1 O9 2.223366 1_554
Lu1 O8 2.223366 1_555
Lu2 O5 2.186401 1_555
Lu2 O3 2.186401 1_445
Lu2 O7 2.208167 1_455
Lu2 O6 2.208167 1_545
Lu2 O11 2.223366 1_455
Lu2 O10 2.223366 1_545
Lu3 O7 2.186401 1_555
Lu3 O6 2.186401 1_555
Lu3 O3 2.208167 1_555
Lu3 O5 2.208167 1_555
Lu3 O8 2.223366 1_555
Lu3 O9 2.223366 1_555
