# generated using pymatgen
data_Na3Mg4ScSi8(O11F)2
_symmetry_space_group_name_H-M   'P 1'
_cell_length_a   10.72172830
_cell_length_b   9.93100307
_cell_length_c   10.37403029
_cell_angle_alpha   61.44758250
_cell_angle_beta   83.71012906
_cell_angle_gamma   76.79875822
_symmetry_Int_Tables_number   1
_chemical_formula_structural   Na3Mg4ScSi8(O11F)2
_chemical_formula_sum   'Na6 Mg8 Sc2 Si16 O44 F4'
_cell_volume   944.61941345
_cell_formula_units_Z   2
loop_
 _symmetry_equiv_pos_site_id
 _symmetry_equiv_pos_as_xyz
  1  'x, y, z'
loop_
 _atom_site_type_symbol
 _atom_site_label
 _atom_site_symmetry_multiplicity
 _atom_site_fract_x
 _atom_site_fract_y
 _atom_site_fract_z
 _atom_site_occupancy
  Na  Na0  1  0.99982200  0.50180100  0.99845000  1
  Na  Na1  1  0.24500800  0.27532600  0.44898400  1
  Na  Na2  1  0.25499200  0.72467400  0.55101600  1
  Na  Na3  1  0.50017800  0.49819900  0.00155000  1
  Na  Na4  1  0.75513700  0.27539800  0.44861300  1
  Na  Na5  1  0.74486300  0.72460200  0.55138700  1
  Mg  Mg0  1  0.00005600  0.00115600  0.99759000  1
  Mg  Mg1  1  0.24763000  0.08739900  0.82389900  1
  Mg  Mg2  1  0.25237000  0.91260100  0.17610100  1
  Mg  Mg3  1  0.49994400  0.99884400  0.00241000  1
  Mg  Mg4  1  0.50014600  0.81817200  0.36312400  1
  Mg  Mg5  1  0.75225900  0.08892200  0.82389400  1
  Mg  Mg6  1  0.74774100  0.91107800  0.17610600  1
  Mg  Mg7  1  0.99985400  0.18182800  0.63687600  1
  Sc  Sc0  1  0.50002900  0.18283300  0.63434500  1
  Sc  Sc1  1  0.99997100  0.81716700  0.36565500  1
  Si  Si0  1  0.10393500  0.11920100  0.34075700  1
  Si  Si1  1  0.10467800  0.45366200  0.66461500  1
  Si  Si2  1  0.14314000  0.63374600  0.16645900  1
  Si  Si3  1  0.14288100  0.80315900  0.83056700  1
  Si  Si4  1  0.35711900  0.19684100  0.16943300  1
  Si  Si5  1  0.35686000  0.36625400  0.83354100  1
  Si  Si6  1  0.39532200  0.54633800  0.33538500  1
  Si  Si7  1  0.39606500  0.88079900  0.65924300  1
  Si  Si8  1  0.60476200  0.11757600  0.33573000  1
  Si  Si9  1  0.60396700  0.45976800  0.65998700  1
  Si  Si10  1  0.64284400  0.63397700  0.16868900  1
  Si  Si11  1  0.64279400  0.80077800  0.83280400  1
  Si  Si12  1  0.85720600  0.19922200  0.16719600  1
  Si  Si13  1  0.85715600  0.36602300  0.83131100  1
  Si  Si14  1  0.89603300  0.54023200  0.34001300  1
  Si  Si15  1  0.89523800  0.88242400  0.66427000  1
  O  O0  1  0.03376700  0.52798000  0.24772900  1
  O  O1  1  0.10043900  0.11110400  0.49789800  1
  O  O2  1  0.03372000  0.77522600  0.75113200  1
  O  O3  1  0.10007300  0.60849600  0.50675100  1
  O  O4  1  0.13805300  0.28471100  0.66862900  1
  O  O5  1  0.10802400  0.80212700  0.16692400  1
  O  O6  1  0.14705500  0.65415100  0.99862200  1
  O  O7  1  0.21496600  0.22326000  0.23985100  1
  O  O8  1  0.13588900  0.95438000  0.33147300  1
  O  O9  1  0.10691700  0.96900300  0.83337500  1
  O  O10  1  0.21551300  0.46428700  0.76086100  1
  O  O11  1  0.28448700  0.53571300  0.23913900  1
  O  O12  1  0.35294500  0.34584900  0.00137800  1
  O  O13  1  0.39308300  0.03099700  0.16662500  1
  O  O14  1  0.36411100  0.04562000  0.66852700  1
  O  O15  1  0.28503400  0.77674000  0.76014900  1
  O  O16  1  0.39197600  0.19787300  0.83307600  1
  O  O17  1  0.36194700  0.71528900  0.33137100  1
  O  O18  1  0.39992700  0.39150400  0.49324900  1
  O  O19  1  0.46628000  0.22477400  0.24886800  1
  O  O20  1  0.39956100  0.88889600  0.50210200  1
  O  O21  1  0.46623300  0.47202000  0.75227100  1
  O  O22  1  0.53387300  0.52637600  0.24833500  1
  O  O23  1  0.60031900  0.11469900  0.49363200  1
  O  O24  1  0.53392000  0.77624900  0.75096100  1
  O  O25  1  0.60029000  0.60886700  0.50294100  1
  O  O26  1  0.63585400  0.28593400  0.66873400  1
  O  O27  1  0.60688200  0.80241300  0.16637900  1
  O  O28  1  0.64650300  0.65338300  0.00047000  1
  O  O29  1  0.71563500  0.22433800  0.23955000  1
  O  O30  1  0.63816900  0.95275500  0.33159700  1
  O  O31  1  0.60764900  0.96948100  0.83269600  1
  O  O32  1  0.71494600  0.46282300  0.76114800  1
  O  O33  1  0.78505400  0.53717700  0.23885200  1
  O  O34  1  0.85349700  0.34661700  0.99953000  1
  O  O35  1  0.89235100  0.03051900  0.16730400  1
  O  O36  1  0.86183100  0.04724500  0.66840300  1
  O  O37  1  0.78436500  0.77566200  0.76045000  1
  O  O38  1  0.89311800  0.19758700  0.83362100  1
  O  O39  1  0.86414600  0.71406600  0.33126600  1
  O  O40  1  0.89971000  0.39113300  0.49705900  1
  O  O41  1  0.96608000  0.22375100  0.24903900  1
  O  O42  1  0.89968100  0.88530100  0.50636800  1
  O  O43  1  0.96612700  0.47362400  0.75166500  1
  F  F0  1  0.14621100  0.10109400  0.00096600  1
  F  F1  1  0.35378900  0.89890600  0.99903400  1
  F  F2  1  0.64628500  0.10179500  0.99939100  1
  F  F3  1  0.85371500  0.89820500  0.00060900  1
loop_
_geom_bond_atom_site_label_1
_geom_bond_atom_site_label_2
_geom_bond_distance
_geom_bond_site_symmetry_2
Na0 O6 2.423875 1_655
Na0 O34 2.433206 1_555
Na0 O2 2.770346 1_655
Na0 O43 2.774323 1_555
Na0 O0 2.789217 1_656
Na0 O41 2.811045 1_556
Na1 O1 2.347564 1_555
Na1 O18 2.418648 1_555
Na1 O4 2.469289 1_555
Na1 O14 2.522305 1_555
Na1 O7 2.525791 1_555
Na1 O11 2.553805 1_555
Na2 O20 2.347564 1_555
Na2 O3 2.418648 1_555
Na2 O17 2.469289 1_555
Na2 O8 2.522305 1_555
Na2 O15 2.525791 1_555
Na2 O10 2.553805 1_555
Na3 O12 2.423875 1_555
Na3 O28 2.433206 1_555
Na3 O19 2.770346 1_555
Na3 O22 2.774323 1_555
Na3 O21 2.789217 1_554
Na3 O24 2.811045 1_554
Na4 O40 2.347972 1_555
Na4 O23 2.418251 1_555
Na4 O36 2.467880 1_555
Na4 O26 2.527549 1_555
Na4 O33 2.533147 1_555
Na4 O29 2.547737 1_555
Na5 O25 2.347972 1_555
Na5 O42 2.418251 1_555
Na5 O30 2.467880 1_555
Na5 O39 2.527549 1_555
Na5 O32 2.533147 1_555
Na5 O37 2.547737 1_555
Mg0 O9 2.059621 1_545
Mg0 O38 2.060889 1_455
Mg0 O35 2.099955 1_456
Mg0 O5 2.100981 1_546
Mg1 O4 2.039734 1_555
Mg1 O14 2.071567 1_555
Mg1 O9 2.082190 1_545
Mg1 O16 2.124987 1_555
Mg2 O17 2.039734 1_555
Mg2 O8 2.071567 1_555
Mg2 O13 2.082190 1_565
Mg2 O5 2.124987 1_555
Mg3 O13 2.059621 1_565
Mg3 O27 2.060889 1_555
Mg3 O31 2.099955 1_554
Mg3 O16 2.100981 1_564
Mg4 O20 2.004090 1_555
Mg4 O25 2.004280 1_555
Mg4 O30 2.112517 1_555
Mg4 O17 2.113796 1_555
Mg4 O27 2.282918 1_555
Mg4 O13 2.286105 1_565
Mg5 O36 2.038221 1_555
Mg5 O26 2.071467 1_555
Mg5 O38 2.082666 1_555
Mg5 O31 2.127143 1_545
Mg6 O30 2.038221 1_555
Mg6 O39 2.071467 1_555
Mg6 O27 2.082666 1_555
Mg6 O35 2.127143 1_565
Mg7 O1 2.004090 1_655
Mg7 O40 2.004280 1_555
Mg7 O36 2.112517 1_555
Mg7 O4 2.113796 1_655
Mg7 O38 2.282918 1_555
Mg7 O9 2.286105 1_645
O0 Si2 1.639709 1_555
O0 Si14 1.682741 1_455
O1 Si0 1.589986 1_555
O2 Si3 1.644384 1_555
O2 Si15 1.674530 1_455
O3 Si1 1.620084 1_555
O3 Sc1 2.004405 1_455
O4 Si1 1.614689 1_555
O5 Si2 1.630263 1_555
O5 Sc1 2.303651 1_455
O6 Si2 1.650760 1_556
O6 Si3 1.658898 1_555
O7 Si4 1.637700 1_555
O7 Si0 1.683933 1_555
O8 Si0 1.641105 1_565
O8 Sc1 2.106679 1_455
O9 Si3 1.617241 1_555
O10 Si5 1.639451 1_555
O10 Si1 1.684690 1_555
O11 Si2 1.639451 1_555
O11 Si6 1.684690 1_555
O12 Si5 1.650760 1_554
O12 Si4 1.658898 1_555
O13 Si4 1.617241 1_555
O14 Si7 1.641105 1_545
O14 Sc0 2.106679 1_555
O15 Si3 1.637700 1_555
O15 Si7 1.683933 1_555
O16 Si5 1.630263 1_555
O16 Sc0 2.303651 1_555
O17 Si6 1.614689 1_555
O18 Si6 1.620084 1_555
O18 Sc0 2.004405 1_555
O19 Si4 1.644384 1_555
O19 Si8 1.674530 1_555
O20 Si7 1.589986 1_555
O21 Si5 1.639709 1_555
O21 Si9 1.682741 1_555
O22 Si10 1.644486 1_555
O22 Si6 1.674583 1_555
O23 Si8 1.620239 1_555
O23 Sc0 2.003226 1_555
O24 Si11 1.639389 1_555
O24 Si7 1.682505 1_555
O25 Si9 1.590504 1_555
O26 Si9 1.640995 1_555
O26 Sc0 2.107235 1_555
O27 Si10 1.617534 1_555
O28 Si11 1.650569 1_554
O28 Si10 1.658627 1_555
O29 Si12 1.638900 1_555
O29 Si8 1.684436 1_555
O30 Si8 1.614098 1_565
O31 Si11 1.630605 1_555
O31 Sc0 2.300166 1_565
O32 Si13 1.638164 1_555
O32 Si9 1.684824 1_555
O33 Si10 1.638164 1_555
O33 Si14 1.684824 1_555
O34 Si12 1.650569 1_556
O34 Si13 1.658627 1_555
O35 Si12 1.630605 1_555
O35 Sc1 2.300166 1_545
O36 Si15 1.614098 1_545
O37 Si11 1.638900 1_555
O37 Si15 1.684436 1_555
O38 Si13 1.617534 1_555
O39 Si14 1.640995 1_555
O39 Sc1 2.107235 1_555
O40 Si14 1.590504 1_555
O41 Si12 1.639389 1_555
O41 Si0 1.682505 1_655
O42 Si15 1.620239 1_555
O42 Sc1 2.003226 1_555
O43 Si13 1.644486 1_555
O43 Si1 1.674583 1_655
F0 Mg0 2.048769 1_554
F0 Mg1 2.075742 1_554
F0 Mg2 2.080729 1_545
F1 Mg3 2.048769 1_556
F1 Mg2 2.075742 1_556
F1 Mg1 2.080729 1_565
F2 Mg3 2.049261 1_546
F2 Mg6 2.075604 1_546
F2 Mg5 2.079627 1_555
F3 Mg0 2.049261 1_664
F3 Mg5 2.075604 1_564
F3 Mg6 2.079627 1_555
