# generated using pymatgen
data_KMgNi2H3(SeO5)2
_symmetry_space_group_name_H-M   'P 1'
_cell_length_a   5.95330777
_cell_length_b   5.95317534
_cell_length_c   8.57515327
_cell_angle_alpha   62.08577679
_cell_angle_beta   62.06108936
_cell_angle_gamma   65.90519834
_symmetry_Int_Tables_number   1
_chemical_formula_structural   KMgNi2H3(SeO5)2
_chemical_formula_sum   'K1 Mg1 Ni2 H3 Se2 O10'
_cell_volume   230.20092052
_cell_formula_units_Z   1
loop_
 _symmetry_equiv_pos_site_id
 _symmetry_equiv_pos_as_xyz
  1  'x, y, z'
loop_
 _atom_site_type_symbol
 _atom_site_label
 _atom_site_symmetry_multiplicity
 _atom_site_fract_x
 _atom_site_fract_y
 _atom_site_fract_z
 _atom_site_occupancy
  K  K0  1  0.48326000  0.48400200  0.45376100  1
  Mg  Mg0  1  0.56532300  0.56554500  0.76687100  1
  Ni  Ni0  1  0.01699900  0.50980500  0.97707900  1
  Ni  Ni1  1  0.50930800  0.01728800  0.97729400  1
  H  H0  1  0.82392100  0.82420900  0.73232800  1
  H  H1  1  0.18376200  0.18337100  0.30741200  1
  H  H2  1  0.37702600  0.37379800  0.16804800  1
  Se  Se0  1  0.88994000  0.89008700  0.24813200  1
  Se  Se1  1  0.11414600  0.11437100  0.66559500  1
  O  O0  1  0.74962200  0.74991700  0.48034100  1
  O  O1  1  0.03878700  0.03890300  0.52773100  1
  O  O2  1  0.21708200  0.79038800  0.19082600  1
  O  O3  1  0.78998100  0.21726900  0.19083500  1
  O  O4  1  0.81217200  0.21618000  0.81756700  1
  O  O5  1  0.21595300  0.81245600  0.81746000  1
  O  O6  1  0.72105400  0.72134600  0.85889700  1
  O  O7  1  0.27761300  0.27680700  0.16832200  1
  O  O8  1  0.77864500  0.77864000  0.15413300  1
  O  O9  1  0.33078800  0.33100100  0.82003300  1
loop_
_geom_bond_atom_site_label_1
_geom_bond_atom_site_label_2
_geom_bond_distance
_geom_bond_site_symmetry_2
K0 O8 2.614489 1_555
K0 O9 2.615989 1_555
K0 O0 2.792609 1_555
K0 O2 2.838871 1_555
K0 O3 2.840052 1_555
K0 Se1 3.071758 1_555
Mg0 O5 1.982455 1_555
Mg0 O4 1.982631 1_555
Mg0 O0 2.092286 1_555
Mg0 O6 2.101320 1_555
Mg0 O9 2.122815 1_555
Ni0 O9 1.948735 1_555
Ni0 O6 2.093719 1_455
Ni0 O5 2.106384 1_555
Ni0 O3 2.197922 1_456
Ni0 O8 2.298269 1_456
Ni0 O7 2.349011 1_556
Ni1 O9 1.949424 1_555
Ni1 O6 2.094254 1_545
Ni1 O4 2.106999 1_555
Ni1 O2 2.195881 1_546
Ni1 O8 2.300064 1_546
Ni1 O7 2.342043 1_556
H0 O6 0.994522 1_555
H1 O7 1.025804 1_555
H1 O1 1.615761 1_555
H2 O7 0.979856 1_555
O0 Se0 1.677451 1_555
O1 Se1 1.720349 1_555
O2 Se0 1.679065 1_455
O3 Se0 1.679553 1_545
O4 Se1 1.718156 1_655
O5 Se1 1.718239 1_565
O8 Se0 1.699711 1_555
