# generated using pymatgen
data_Ca11(TiN5)2
_symmetry_space_group_name_H-M   'P 1'
_cell_length_a   15.21506700
_cell_length_b   15.21506700
_cell_length_c   3.63119600
_cell_angle_alpha   90.00000000
_cell_angle_beta   90.00000000
_cell_angle_gamma   90.00000000
_symmetry_Int_Tables_number   1
_chemical_formula_structural   Ca11(TiN5)2
_chemical_formula_sum   'Ca22 Ti4 N20'
_cell_volume   840.61556957
_cell_formula_units_Z   2
loop_
 _symmetry_equiv_pos_site_id
 _symmetry_equiv_pos_as_xyz
  1  'x, y, z'
loop_
 _atom_site_type_symbol
 _atom_site_label
 _atom_site_symmetry_multiplicity
 _atom_site_fract_x
 _atom_site_fract_y
 _atom_site_fract_z
 _atom_site_occupancy
  Ca  Ca0  1  0.50000000  0.50000000  0.50000000  1
  Ca  Ca1  1  0.00000000  0.00000000  0.00000000  1
  Ca  Ca2  1  0.97173300  0.80530100  0.50000000  1
  Ca  Ca3  1  0.02826700  0.19469900  0.50000000  1
  Ca  Ca4  1  0.52826700  0.30530100  0.00000000  1
  Ca  Ca5  1  0.47173300  0.69469900  0.00000000  1
  Ca  Ca6  1  0.80530100  0.97173300  0.50000000  1
  Ca  Ca7  1  0.19469900  0.02826700  0.50000000  1
  Ca  Ca8  1  0.30530100  0.52826700  0.00000000  1
  Ca  Ca9  1  0.69469900  0.47173300  0.00000000  1
  Ca  Ca10  1  0.65425600  0.65425600  0.50000000  1
  Ca  Ca11  1  0.34574400  0.34574400  0.50000000  1
  Ca  Ca12  1  0.84574400  0.15425600  0.00000000  1
  Ca  Ca13  1  0.15425600  0.84574400  0.00000000  1
  Ca  Ca14  1  0.36861900  0.91365200  0.50000000  1
  Ca  Ca15  1  0.63138100  0.08634800  0.50000000  1
  Ca  Ca16  1  0.13138100  0.41365200  0.00000000  1
  Ca  Ca17  1  0.86861900  0.58634800  0.00000000  1
  Ca  Ca18  1  0.91365200  0.36861900  0.50000000  1
  Ca  Ca19  1  0.08634800  0.63138100  0.50000000  1
  Ca  Ca20  1  0.41365200  0.13138100  0.00000000  1
  Ca  Ca21  1  0.58634800  0.86861900  0.00000000  1
  Ti  Ti0  1  0.30143000  0.69857000  0.50000000  1
  Ti  Ti1  1  0.69857000  0.30143000  0.50000000  1
  Ti  Ti2  1  0.19857000  0.19857000  0.00000000  1
  Ti  Ti3  1  0.80143000  0.80143000  0.00000000  1
  N  N0  1  0.08033100  0.91966900  0.50000000  1
  N  N1  1  0.91966900  0.08033100  0.50000000  1
  N  N2  1  0.41966900  0.41966900  0.00000000  1
  N  N3  1  0.58033100  0.58033100  0.00000000  1
  N  N4  1  0.50537600  0.18719500  0.50000000  1
  N  N5  1  0.49462400  0.81280500  0.50000000  1
  N  N6  1  0.99462400  0.68719500  0.00000000  1
  N  N7  1  0.00537600  0.31280500  0.00000000  1
  N  N8  1  0.18719500  0.50537600  0.50000000  1
  N  N9  1  0.81280500  0.49462400  0.50000000  1
  N  N10  1  0.68719500  0.99462400  0.00000000  1
  N  N11  1  0.31280500  0.00537600  0.00000000  1
  N  N12  1  0.21716800  0.78283200  0.50000000  1
  N  N13  1  0.78283200  0.21716800  0.50000000  1
  N  N14  1  0.28283200  0.28283200  0.00000000  1
  N  N15  1  0.71716800  0.71716800  0.00000000  1
  N  N16  1  0.38693700  0.61306300  0.50000000  1
  N  N17  1  0.61306300  0.38693700  0.50000000  1
  N  N18  1  0.11306300  0.11306300  0.00000000  1
  N  N19  1  0.88693700  0.88693700  0.00000000  1
loop_
_geom_bond_atom_site_label_1
_geom_bond_atom_site_label_2
_geom_bond_distance
_geom_bond_site_symmetry_2
Ca0 N16 2.432817 1_555
Ca0 N17 2.432817 1_555
Ca0 N2 2.506820 1_555
Ca0 N2 2.506820 1_556
Ca0 N3 2.506820 1_555
Ca0 N3 2.506820 1_556
Ca1 N18 2.432817 1_555
Ca1 N19 2.432817 1_445
Ca1 N0 2.506820 1_544
Ca1 N1 2.506820 1_454
Ca1 N1 2.506820 1_455
Ca1 N0 2.506820 1_545
Ca2 N0 2.399622 1_655
Ca2 N19 2.550247 1_556
Ca2 N19 2.550247 1_555
Ca2 N6 2.578154 1_556
Ca2 N6 2.578154 1_555
Ca3 N1 2.399622 1_455
Ca3 N18 2.550247 1_556
Ca3 N18 2.550247 1_555
Ca3 N7 2.578154 1_555
Ca3 N7 2.578154 1_556
Ca4 N2 2.399622 1_555
Ca4 N17 2.550247 1_555
Ca4 N17 2.550247 1_554
Ca4 N4 2.578154 1_555
Ca4 N4 2.578154 1_554
Ca5 N3 2.399622 1_555
Ca5 N16 2.550247 1_554
Ca5 N16 2.550247 1_555
Ca5 N5 2.578154 1_554
Ca5 N5 2.578154 1_555
Ca6 N1 2.399622 1_565
Ca6 N19 2.550247 1_556
Ca6 N19 2.550247 1_555
Ca6 N10 2.578154 1_556
Ca6 N10 2.578154 1_555
Ca7 N0 2.399622 1_545
Ca7 N18 2.550247 1_556
Ca7 N18 2.550247 1_555
Ca7 N11 2.578154 1_555
Ca7 N11 2.578154 1_556
Ca8 N2 2.399622 1_555
Ca8 N16 2.550247 1_554
Ca8 N16 2.550247 1_555
Ca8 N8 2.578154 1_555
Ca8 N8 2.578154 1_554
Ca9 N3 2.399622 1_555
Ca9 N17 2.550247 1_555
Ca9 N17 2.550247 1_554
Ca9 N9 2.578154 1_555
Ca9 N9 2.578154 1_554
Ca10 N15 2.264707 1_555
Ca10 N15 2.264707 1_556
Ca10 N3 2.413841 1_555
Ca10 N3 2.413841 1_556
Ca11 N14 2.264707 1_556
Ca11 N14 2.264707 1_555
Ca11 N2 2.413841 1_555
Ca11 N2 2.413841 1_556
Ca12 N13 2.264707 1_554
Ca12 N13 2.264707 1_555
Ca12 N1 2.413841 1_554
Ca12 N1 2.413841 1_555
Ca13 N12 2.264707 1_555
Ca13 N12 2.264707 1_554
Ca13 N0 2.413841 1_554
Ca13 N0 2.413841 1_555
Ca14 N11 2.442381 1_566
Ca14 N11 2.442381 1_565
Ca14 N5 2.455590 1_555
Ca14 N12 3.044963 1_555
Ca15 N10 2.442381 1_546
Ca15 N10 2.442381 1_545
Ca15 N4 2.455590 1_555
Ca15 N13 3.044963 1_555
Ca16 N8 2.442381 1_555
Ca16 N8 2.442381 1_554
Ca16 N7 2.455590 1_555
Ca16 N14 3.044963 1_555
Ca17 N9 2.442381 1_554
Ca17 N9 2.442381 1_555
Ca17 N6 2.455590 1_555
Ca17 N15 3.044963 1_555
Ca18 N7 2.442381 1_656
Ca18 N7 2.442381 1_655
Ca18 N9 2.455590 1_555
Ca18 N13 3.044963 1_555
Ca19 N6 2.442381 1_455
Ca19 N6 2.442381 1_456
Ca19 N8 2.455590 1_555
Ca19 N12 3.044963 1_555
Ca20 N4 2.442381 1_555
Ca20 N4 2.442381 1_554
Ca20 N11 2.455590 1_555
Ca20 N14 3.044963 1_555
Ca21 N5 2.442381 1_554
Ca21 N5 2.442381 1_555
Ca21 N10 2.455590 1_555
Ca21 N15 3.044963 1_555
N12 Ti0 1.813095 1_555
N13 Ti1 1.813095 1_555
N14 Ti2 1.813095 1_555
N15 Ti3 1.813095 1_555
N16 Ti0 1.839884 1_555
N17 Ti1 1.839884 1_555
N18 Ti2 1.839884 1_555
N19 Ti3 1.839884 1_555
