# generated using pymatgen
data_LuMoBrO4
_symmetry_space_group_name_H-M   'P 1'
_cell_length_a   6.93791200
_cell_length_b   7.20254013
_cell_length_c   10.77698893
_cell_angle_alpha   102.83320016
_cell_angle_beta   107.80925864
_cell_angle_gamma   95.42992557
_symmetry_Int_Tables_number   1
_chemical_formula_structural   LuMoBrO4
_chemical_formula_sum   'Lu4 Mo4 Br4 O16'
_cell_volume   492.19352441
_cell_formula_units_Z   4
loop_
 _symmetry_equiv_pos_site_id
 _symmetry_equiv_pos_as_xyz
  1  'x, y, z'
loop_
 _atom_site_type_symbol
 _atom_site_label
 _atom_site_symmetry_multiplicity
 _atom_site_fract_x
 _atom_site_fract_y
 _atom_site_fract_z
 _atom_site_occupancy
  Lu  Lu0  1  0.66433400  0.09911400  0.73004600  1
  Lu  Lu1  1  0.33566600  0.90088600  0.26995400  1
  Lu  Lu2  1  0.37927000  0.66549900  0.76762300  1
  Lu  Lu3  1  0.62073000  0.33450100  0.23237700  1
  Mo  Mo0  1  0.72752800  0.81613100  0.13396600  1
  Mo  Mo1  1  0.27247200  0.18386900  0.86603400  1
  Mo  Mo2  1  0.77203800  0.58535500  0.62700600  1
  Mo  Mo3  1  0.22796200  0.41464500  0.37299400  1
  Br  Br0  1  0.26546200  0.00705200  0.52100400  1
  Br  Br1  1  0.73453800  0.99294800  0.47899600  1
  Br  Br2  1  0.19012300  0.72106000  0.98477300  1
  Br  Br3  1  0.80987700  0.27894000  0.01522700  1
  O  O0  1  0.65487800  0.73331200  0.95530700  1
  O  O1  1  0.34512200  0.26668800  0.04469300  1
  O  O2  1  0.99925200  0.88770100  0.20514000  1
  O  O3  1  0.00074800  0.11229900  0.79486000  1
  O  O4  1  0.64814700  0.62642600  0.19997500  1
  O  O5  1  0.35185300  0.37357400  0.80002500  1
  O  O6  1  0.40754300  0.98729600  0.81419200  1
  O  O7  1  0.59245700  0.01270400  0.18580800  1
  O  O8  1  0.04141200  0.65496800  0.67047400  1
  O  O9  1  0.95858800  0.34503200  0.32952600  1
  O  O10  1  0.72781900  0.39183000  0.69864200  1
  O  O11  1  0.27218100  0.60817000  0.30135800  1
  O  O12  1  0.66921900  0.50047900  0.44626900  1
  O  O13  1  0.33078100  0.49952100  0.55373100  1
  O  O14  1  0.65402900  0.78174300  0.70400300  1
  O  O15  1  0.34597100  0.21825700  0.29599700  1
loop_
_geom_bond_atom_site_label_1
_geom_bond_atom_site_label_2
_geom_bond_distance
_geom_bond_site_symmetry_2
Lu0 O3 2.208134 1_655
Lu0 O14 2.231796 1_545
Lu0 O10 2.232907 1_555
Lu0 O6 2.384579 1_545
Lu1 O2 2.208134 1_455
Lu1 O15 2.231796 1_565
Lu1 O11 2.232907 1_555
Lu1 O7 2.384579 1_565
Lu2 O5 2.206842 1_555
Lu2 O6 2.235923 1_555
Lu2 O0 2.237096 1_555
Lu2 O8 2.241933 1_555
Lu2 O13 2.254159 1_555
Lu2 O14 2.357397 1_555
Lu3 O4 2.206842 1_555
Lu3 O7 2.235923 1_555
Lu3 O1 2.237096 1_555
Lu3 O9 2.241933 1_555
Lu3 O12 2.254159 1_555
Lu3 O15 2.357397 1_555
Mo0 O0 1.776603 1_554
Mo0 O2 1.778750 1_555
Mo0 O4 1.790343 1_555
Mo0 O7 1.847933 1_565
Mo1 O1 1.776603 1_556
Mo1 O3 1.778750 1_555
Mo1 O5 1.790343 1_555
Mo1 O6 1.847933 1_545
Mo2 O8 1.773805 1_655
Mo2 O10 1.781851 1_555
Mo2 O12 1.793067 1_555
Mo2 O14 1.863606 1_555
Mo3 O9 1.773805 1_455
Mo3 O11 1.781851 1_555
Mo3 O13 1.793067 1_555
Mo3 O15 1.863606 1_555
Br0 Lu1 2.845973 1_545
Br0 Lu0 2.889413 1_555
Br1 Lu0 2.845973 1_565
Br1 Lu1 2.889413 1_555
Br2 Lu1 2.868577 1_556
Br2 Lu2 2.986770 1_555
Br3 Lu0 2.868577 1_554
Br3 Lu3 2.986770 1_555
