# generated using pymatgen
data_Sr3CaI8
_symmetry_space_group_name_H-M   'P 1'
_cell_length_a   9.80667460
_cell_length_b   9.80667460
_cell_length_c   9.80667460
_cell_angle_alpha   131.79112826
_cell_angle_beta   131.79112826
_cell_angle_gamma   70.55911780
_symmetry_Int_Tables_number   1
_chemical_formula_structural   Sr3CaI8
_chemical_formula_sum   'Sr3 Ca1 I8'
_cell_volume   513.65580788
_cell_formula_units_Z   1
loop_
 _symmetry_equiv_pos_site_id
 _symmetry_equiv_pos_as_xyz
  1  'x, y, z'
loop_
 _atom_site_type_symbol
 _atom_site_label
 _atom_site_symmetry_multiplicity
 _atom_site_fract_x
 _atom_site_fract_y
 _atom_site_fract_z
 _atom_site_occupancy
  Sr  Sr0  1  0.75000000  0.25000000  0.50000000  1
  Sr  Sr1  1  0.50000000  0.50000000  0.00000000  1
  Sr  Sr2  1  0.25000000  0.75000000  0.50000000  1
  Ca  Ca0  1  0.00000000  0.00000000  0.00000000  1
  I  I0  1  0.63007000  0.12311800  0.00000000  1
  I  I1  1  0.12311800  0.12311800  0.49304800  1
  I  I2  1  0.87688200  0.36993000  0.00000000  1
  I  I3  1  0.36993000  0.36993000  0.49304800  1
  I  I4  1  0.12311800  0.63007000  0.00000000  1
  I  I5  1  0.63007000  0.63007000  0.50695200  1
  I  I6  1  0.36993000  0.87688200  0.00000000  1
  I  I7  1  0.87688200  0.87688200  0.50695200  1
loop_
_geom_bond_atom_site_label_1
_geom_bond_atom_site_label_2
_geom_bond_distance
_geom_bond_site_symmetry_2
Ca0 I3 3.420947 1_555
Ca0 I0 3.420947 1_455
Ca0 I6 3.420947 1_545
Ca0 I1 3.420947 1_555
Ca0 I4 3.420947 1_545
Ca0 I5 3.420947 1_444
Ca0 I2 3.420947 1_455
Ca0 I7 3.420947 1_444
I0 Sr0 3.482847 1_555
I0 Sr2 3.482847 1_544
I0 Sr1 3.485531 1_555
I1 Sr0 3.482847 1_455
I1 Sr2 3.482847 1_545
I1 Sr1 3.485531 1_556
I2 Sr0 3.482847 1_554
I2 Sr2 3.482847 1_655
I2 Sr1 3.485531 1_555
I3 Sr0 3.482847 1_555
I3 Sr2 3.482847 1_555
I3 Sr1 3.485531 1_556
I4 Sr2 3.482847 1_555
I4 Sr0 3.482847 1_454
I4 Sr1 3.485531 1_555
I5 Sr0 3.482847 1_555
I5 Sr2 3.482847 1_555
I5 Sr1 3.485531 1_555
I6 Sr2 3.482847 1_554
I6 Sr0 3.482847 1_565
I6 Sr1 3.485531 1_555
I7 Sr2 3.482847 1_655
I7 Sr0 3.482847 1_565
I7 Sr1 3.485531 1_555
