# generated using pymatgen
data_Ca2Bi3O8
_symmetry_space_group_name_H-M   'P 1'
_cell_length_a   6.97870181
_cell_length_b   6.97870181
_cell_length_c   10.42619500
_cell_angle_alpha   90.00000000
_cell_angle_beta   90.00000000
_cell_angle_gamma   119.99999821
_symmetry_Int_Tables_number   1
_chemical_formula_structural   Ca2Bi3O8
_chemical_formula_sum   'Ca4 Bi6 O16'
_cell_volume   439.74991767
_cell_formula_units_Z   2
loop_
 _symmetry_equiv_pos_site_id
 _symmetry_equiv_pos_as_xyz
  1  'x, y, z'
loop_
 _atom_site_type_symbol
 _atom_site_label
 _atom_site_symmetry_multiplicity
 _atom_site_fract_x
 _atom_site_fract_y
 _atom_site_fract_z
 _atom_site_occupancy
  Ca  Ca0  1  0.66666700  0.33333300  0.03026200  1
  Ca  Ca1  1  0.33333300  0.66666700  0.53026200  1
  Ca  Ca2  1  0.66666700  0.33333300  0.39668300  1
  Ca  Ca3  1  0.33333300  0.66666700  0.89668300  1
  Bi  Bi0  1  0.66909900  0.83455000  0.24375500  1
  Bi  Bi1  1  0.83455000  0.16545000  0.74375500  1
  Bi  Bi2  1  0.16545000  0.33090100  0.24375500  1
  Bi  Bi3  1  0.83455000  0.66909900  0.74375500  1
  Bi  Bi4  1  0.33090100  0.16545000  0.74375500  1
  Bi  Bi5  1  0.16545000  0.83455000  0.24375500  1
  O  O0  1  0.83196200  0.16803800  0.15306600  1
  O  O1  1  0.66392300  0.83196200  0.65306600  1
  O  O2  1  0.16803800  0.33607700  0.65306600  1
  O  O3  1  0.83196200  0.66392300  0.15306600  1
  O  O4  1  0.33607700  0.16803800  0.15306600  1
  O  O5  1  0.16803800  0.83196200  0.65306600  1
  O  O6  1  0.52219700  0.47780300  0.86807800  1
  O  O7  1  0.04439400  0.52219700  0.36807800  1
  O  O8  1  0.47780300  0.95560600  0.36807800  1
  O  O9  1  0.52219700  0.04439400  0.86807800  1
  O  O10  1  0.00000000  0.00000000  0.34702200  1
  O  O11  1  0.00000000  0.00000000  0.84702200  1
  O  O12  1  0.33333300  0.66666700  0.12483600  1
  O  O13  1  0.95560600  0.47780300  0.86807800  1
  O  O14  1  0.47780300  0.52219700  0.36807800  1
  O  O15  1  0.66666700  0.33333300  0.62483600  1
loop_
_geom_bond_atom_site_label_1
_geom_bond_atom_site_label_2
_geom_bond_distance
_geom_bond_site_symmetry_2
Ca0 O0 2.373049 1_555
Ca0 O3 2.373050 1_555
Ca0 O4 2.373050 1_555
Ca0 O13 2.430805 1_554
Ca0 O9 2.430805 1_554
Ca0 O6 2.430809 1_554
Ca1 O5 2.373049 1_555
Ca1 O1 2.373050 1_555
Ca1 O2 2.373050 1_555
Ca1 O8 2.430805 1_555
Ca1 O7 2.430805 1_555
Ca1 O14 2.430809 1_555
Ca2 O7 2.302280 1_655
Ca2 O8 2.302280 1_545
Ca2 O14 2.302286 1_555
Ca2 O15 2.378768 1_555
Ca3 O9 2.302280 1_565
Ca3 O13 2.302280 1_455
Ca3 O6 2.302286 1_555
Ca3 O12 2.378768 1_556
Bi0 O0 2.226448 1_565
Bi0 O3 2.226459 1_555
Bi0 O10 2.271289 1_665
Bi0 O8 2.303026 1_555
Bi0 O14 2.303031 1_555
Bi0 O12 2.378079 1_555
Bi1 O2 2.226449 1_655
Bi1 O1 2.226449 1_545
Bi1 O11 2.271284 1_655
Bi1 O9 2.303031 1_555
Bi1 O13 2.303031 1_555
Bi1 O15 2.378079 1_555
Bi2 O0 2.226448 1_455
Bi2 O4 2.226459 1_555
Bi2 O10 2.271289 1_555
Bi2 O7 2.303026 1_555
Bi2 O14 2.303031 1_555
Bi2 O12 2.378079 1_555
Bi3 O5 2.226448 1_655
Bi3 O1 2.226459 1_555
Bi3 O11 2.271289 1_665
Bi3 O13 2.303026 1_555
Bi3 O6 2.303031 1_555
Bi3 O15 2.378079 1_555
Bi4 O5 2.226448 1_545
Bi4 O2 2.226459 1_555
Bi4 O11 2.271289 1_555
Bi4 O9 2.303026 1_555
Bi4 O6 2.303031 1_555
Bi4 O15 2.378079 1_555
Bi5 O4 2.226449 1_565
Bi5 O3 2.226449 1_455
Bi5 O10 2.271284 1_565
Bi5 O7 2.303031 1_555
Bi5 O8 2.303031 1_555
Bi5 O12 2.378079 1_555
