# generated using pymatgen
data_Ti4ZnO8
_symmetry_space_group_name_H-M   'P 1'
_cell_length_a   7.47347880
_cell_length_b   7.47347880
_cell_length_c   9.64985067
_cell_angle_alpha   50.84341995
_cell_angle_beta   50.84341995
_cell_angle_gamma   22.85058836
_symmetry_Int_Tables_number   1
_chemical_formula_structural   Ti4ZnO8
_chemical_formula_sum   'Ti4 Zn1 O8'
_cell_volume   160.08222839
_cell_formula_units_Z   1
loop_
 _symmetry_equiv_pos_site_id
 _symmetry_equiv_pos_as_xyz
  1  'x, y, z'
loop_
 _atom_site_type_symbol
 _atom_site_label
 _atom_site_symmetry_multiplicity
 _atom_site_fract_x
 _atom_site_fract_y
 _atom_site_fract_z
 _atom_site_occupancy
  Ti  Ti0  1  0.37495400  0.37495400  0.42493200  1
  Ti  Ti1  1  0.85773500  0.85773500  0.79546800  1
  Ti  Ti2  1  0.16330300  0.16330300  0.15962500  1
  Ti  Ti3  1  0.64560200  0.64560200  0.51255100  1
  Zn  Zn0  1  0.66787700  0.66787700  0.79884900  1
  O  O0  1  0.14407300  0.14407300  0.37856800  1
  O  O1  1  0.54089600  0.54089600  0.24552500  1
  O  O2  1  0.46981000  0.46981000  0.71020200  1
  O  O3  1  0.85978400  0.85978400  0.58417200  1
  O  O4  1  0.82592500  0.82592500  0.35408700  1
  O  O5  1  0.21268000  0.21268000  0.90170700  1
  O  O6  1  0.16109900  0.16109900  0.65456900  1
  O  O7  1  0.78053800  0.78053800  0.04909900  1
loop_
_geom_bond_atom_site_label_1
_geom_bond_atom_site_label_2
_geom_bond_distance
_geom_bond_site_symmetry_2
O0 Ti2 1.943256 1_555
O0 Ti3 1.975120 1_545
O0 Ti3 1.975120 1_455
O1 Ti0 1.866800 1_555
O1 Ti2 2.044405 1_565
O1 Ti2 2.044405 1_655
O2 Ti1 1.955525 1_545
O2 Ti1 1.955525 1_455
O2 Ti3 1.985432 1_555
O3 Ti1 2.019767 1_555
O3 Ti0 2.040170 1_655
O3 Ti0 2.040170 1_565
O3 Zn0 2.166146 1_555
O4 Ti0 1.951331 1_565
O4 Ti0 1.951331 1_655
O4 Ti3 2.028008 1_555
O5 Ti2 2.097150 1_556
O5 Zn0 2.108819 1_455
O5 Zn0 2.108819 1_545
O5 Ti1 2.225293 1_455
O5 Ti1 2.225293 1_545
O6 Zn0 2.078001 1_545
O6 Zn0 2.078001 1_455
O6 Ti3 2.126554 1_545
O6 Ti3 2.126554 1_455
O6 Ti0 2.404515 1_555
O7 Ti1 1.924301 1_554
O7 Ti2 1.979655 1_655
O7 Ti2 1.979655 1_565
