# generated using pymatgen
data_MnH20C2S2(NO2)6
_symmetry_space_group_name_H-M   'P 1'
_cell_length_a   6.44438800
_cell_length_b   6.47715770
_cell_length_c   10.14355805
_cell_angle_alpha   89.63339980
_cell_angle_beta   95.97207107
_cell_angle_gamma   109.55765040
_symmetry_Int_Tables_number   1
_chemical_formula_structural   MnH20C2S2(NO2)6
_chemical_formula_sum   'Mn1 H20 C2 S2 N6 O12'
_cell_volume   396.62916762
_cell_formula_units_Z   1
loop_
 _symmetry_equiv_pos_site_id
 _symmetry_equiv_pos_as_xyz
  1  'x, y, z'
loop_
 _atom_site_type_symbol
 _atom_site_label
 _atom_site_symmetry_multiplicity
 _atom_site_fract_x
 _atom_site_fract_y
 _atom_site_fract_z
 _atom_site_occupancy
  Mn  Mn0  1  0.50000000  0.50000000  0.50000000  1
  H  H0  1  0.67583900  0.93131200  0.61201600  1
  H  H1  1  0.32416100  0.06868800  0.38798400  1
  H  H2  1  0.41402400  0.87092500  0.61125700  1
  H  H3  1  0.58597600  0.12907500  0.38874300  1
  H  H4  1  0.88300600  0.40853400  0.62847500  1
  H  H5  1  0.11699400  0.59146600  0.37152500  1
  H  H6  1  0.94581700  0.67037900  0.62228300  1
  H  H7  1  0.05418300  0.32962100  0.37771700  1
  H  H8  1  0.80833100  0.17155900  0.84385400  1
  H  H9  1  0.19166900  0.82844100  0.15614600  1
  H  H10  1  0.75966500  0.03569600  0.99374300  1
  H  H11  1  0.24033500  0.96430400  0.00625700  1
  H  H12  1  0.68302800  0.45606600  0.17126500  1
  H  H13  1  0.31697200  0.54393400  0.82873500  1
  H  H14  1  0.72420900  0.20348400  0.17930600  1
  H  H15  1  0.27579100  0.79651600  0.82069400  1
  H  H16  1  0.74648400  0.52144300  0.82824300  1
  H  H17  1  0.25351600  0.47855700  0.17175700  1
  H  H18  1  0.74671600  0.65117300  0.98187600  1
  H  H19  1  0.25328400  0.34882700  0.01812400  1
  C  C0  1  0.73051700  0.33467900  0.99425400  1
  C  C1  1  0.26948300  0.66532100  0.00574600  1
  S  S0  1  0.83830000  0.85893900  0.28369800  1
  S  S1  1  0.16170000  0.14106100  0.71630200  1
  N  N0  1  0.74641700  0.15880400  0.93354700  1
  N  N1  1  0.25358300  0.84119600  0.06645300  1
  N  N2  1  0.70145400  0.32683600  0.12312200  1
  N  N3  1  0.29854600  0.67316400  0.87687800  1
  N  N4  1  0.73782500  0.51546900  0.92799600  1
  N  N5  1  0.26217500  0.48453100  0.07200400  1
  O  O0  1  0.53223400  0.81145100  0.59531500  1
  O  O1  1  0.46776600  0.18854900  0.40468500  1
  O  O2  1  0.82124100  0.52991300  0.62160100  1
  O  O3  1  0.17875900  0.47008700  0.37839900  1
  O  O4  1  0.79455900  0.85542100  0.13691900  1
  O  O5  1  0.20544100  0.14457900  0.86308100  1
  O  O6  1  0.82431900  0.06592100  0.34122400  1
  O  O7  1  0.17568100  0.93407900  0.65877600  1
  O  O8  1  0.67075500  0.66320500  0.33440800  1
  O  O9  1  0.32924500  0.33679500  0.66559200  1
  O  O10  1  0.06541500  0.84612700  0.32243300  1
  O  O11  1  0.93458500  0.15387300  0.67756700  1
loop_
_geom_bond_atom_site_label_1
_geom_bond_atom_site_label_2
_geom_bond_distance
_geom_bond_site_symmetry_2
Mn0 O9 2.175507 1_555
Mn0 O8 2.175507 1_555
Mn0 O1 2.179471 1_555
Mn0 O0 2.179471 1_555
Mn0 O2 2.246747 1_555
Mn0 O3 2.246747 1_555
H0 O0 0.987883 1_555
H1 O1 0.987883 1_555
H2 O0 0.988826 1_555
H3 O1 0.988826 1_555
H4 O2 0.992183 1_555
H5 O3 0.992183 1_555
H6 O2 0.991079 1_555
H7 O3 0.991079 1_555
H8 N0 1.022878 1_555
H9 N1 1.022878 1_555
H10 N0 1.021985 1_555
H11 N1 1.021985 1_555
H12 N2 1.018362 1_555
H13 N3 1.018362 1_555
H14 N2 1.019742 1_555
H15 N3 1.019742 1_555
H16 N4 1.018948 1_555
H17 N5 1.018948 1_555
H18 N4 1.020047 1_555
H19 N5 1.020047 1_555
C0 N4 1.335953 1_555
C0 N0 1.337032 1_555
C0 N2 1.337948 1_556
C1 N5 1.335953 1_555
C1 N1 1.337032 1_555
C1 N3 1.337948 1_554
O4 S0 1.485089 1_555
O5 S1 1.485089 1_555
O6 S0 1.499263 1_545
O7 S1 1.499263 1_565
O8 S0 1.492802 1_555
O9 S1 1.492802 1_555
O10 S0 1.504884 1_455
O11 S1 1.504884 1_655
