# generated using pymatgen
data_TiCuNi2
_symmetry_space_group_name_H-M   'P 1'
_cell_length_a   4.23038700
_cell_length_b   4.42445700
_cell_length_c   5.17975100
_cell_angle_alpha   90.00000000
_cell_angle_beta   90.00000000
_cell_angle_gamma   90.00000000
_symmetry_Int_Tables_number   1
_chemical_formula_structural   TiCuNi2
_chemical_formula_sum   'Ti2 Cu2 Ni4'
_cell_volume   96.95025607
_cell_formula_units_Z   2
loop_
 _symmetry_equiv_pos_site_id
 _symmetry_equiv_pos_as_xyz
  1  'x, y, z'
loop_
 _atom_site_type_symbol
 _atom_site_label
 _atom_site_symmetry_multiplicity
 _atom_site_fract_x
 _atom_site_fract_y
 _atom_site_fract_z
 _atom_site_occupancy
  Ti  Ti0  1  0.50000000  0.66722400  0.50000000  1
  Ti  Ti1  1  0.00000000  0.33277600  0.00000000  1
  Cu  Cu0  1  0.00000000  0.31200800  0.50000000  1
  Cu  Cu1  1  0.50000000  0.68799200  0.00000000  1
  Ni  Ni0  1  0.50000000  0.17147600  0.74927100  1
  Ni  Ni1  1  0.50000000  0.17147600  0.25072900  1
  Ni  Ni2  1  0.00000000  0.82852400  0.75072900  1
  Ni  Ni3  1  0.00000000  0.82852400  0.24927100  1
loop_
_geom_bond_atom_site_label_1
_geom_bond_atom_site_label_2
_geom_bond_distance
_geom_bond_site_symmetry_2
Cu0 Ni3 2.502526 1_545
Cu0 Ni2 2.502526 1_545
Cu0 Ni1 2.554946 1_455
Cu0 Ni0 2.554946 1_455
Cu0 Ni0 2.554946 1_555
Cu0 Ni1 2.554946 1_555
Cu0 Ti1 2.591505 1_555
Cu0 Ti1 2.591505 1_556
Cu0 Ni2 2.628548 1_555
Cu0 Ni3 2.628548 1_555
Cu0 Ti0 2.635164 1_455
Cu0 Ti0 2.635164 1_555
Cu1 Ni0 2.502526 1_564
Cu1 Ni1 2.502526 1_565
Cu1 Ni3 2.554946 1_555
Cu1 Ni2 2.554946 1_654
Cu1 Ni2 2.554946 1_554
Cu1 Ni3 2.554946 1_655
Cu1 Ti0 2.591505 1_555
Cu1 Ti0 2.591505 1_554
Cu1 Ni1 2.628548 1_555
Cu1 Ni0 2.628548 1_554
Cu1 Ti1 2.635164 1_555
Cu1 Ti1 2.635164 1_655
Ni0 Ti0 2.545225 1_555
Ni0 Ti0 2.577721 1_545
Ni0 Ni1 2.582323 1_555
Ni0 Ti1 2.582638 1_656
Ni0 Ti1 2.582638 1_556
Ni0 Ni1 2.597428 1_556
Ni0 Ni2 2.603177 1_645
Ni0 Ni2 2.603177 1_545
Ni1 Ti0 2.545225 1_555
Ni1 Ti0 2.577721 1_545
Ni1 Ti1 2.582638 1_555
Ni1 Ti1 2.582638 1_655
Ni1 Ni3 2.603177 1_545
Ni1 Ni3 2.603177 1_645
Ni2 Ti1 2.545225 1_556
Ni2 Ti1 2.577721 1_566
Ni2 Ni3 2.582323 1_556
Ni2 Ti0 2.582638 1_455
Ni2 Ti0 2.582638 1_555
Ni2 Ni3 2.597428 1_555
Ni3 Ti1 2.545225 1_555
Ni3 Ti1 2.577721 1_565
Ni3 Ti0 2.582638 1_455
Ni3 Ti0 2.582638 1_555
