# generated using pymatgen
data_Mg14GaSi
_symmetry_space_group_name_H-M   'P 1'
_cell_length_a   6.22058207
_cell_length_b   6.44145635
_cell_length_c   10.13033346
_cell_angle_alpha   90.00000000
_cell_angle_beta   90.00000000
_cell_angle_gamma   121.18168668
_symmetry_Int_Tables_number   1
_chemical_formula_structural   Mg14GaSi
_chemical_formula_sum   'Mg14 Ga1 Si1'
_cell_volume   347.27536109
_cell_formula_units_Z   1
loop_
 _symmetry_equiv_pos_site_id
 _symmetry_equiv_pos_as_xyz
  1  'x, y, z'
loop_
 _atom_site_type_symbol
 _atom_site_label
 _atom_site_symmetry_multiplicity
 _atom_site_fract_x
 _atom_site_fract_y
 _atom_site_fract_z
 _atom_site_occupancy
  Mg  Mg0  1  0.16926016  0.33462958  0.62500000  1
  Mg  Mg1  1  0.16974656  0.83487278  0.62500000  1
  Mg  Mg2  1  0.67042299  0.33576249  0.12500000  1
  Mg  Mg3  1  0.66694336  0.33281695  0.62500000  1
  Mg  Mg4  1  0.67042299  0.83465950  0.12500000  1
  Mg  Mg5  1  0.66694336  0.83412540  0.62500000  1
  Mg  Mg6  1  0.32800250  0.16480296  0.36681348  1
  Mg  Mg7  1  0.32800250  0.16480296  0.88318652  1
  Mg  Mg8  1  0.32800250  0.66320054  0.36681348  1
  Mg  Mg9  1  0.32800250  0.66320054  0.88318652  1
  Mg  Mg10  1  0.83772763  0.16886431  0.37121487  1
  Mg  Mg11  1  0.83772763  0.16886431  0.87878513  1
  Mg  Mg12  1  0.83504218  0.66752159  0.37435765  1
  Mg  Mg13  1  0.83504218  0.66752159  0.87564235  1
  Ga  Ga0  1  0.16294100  0.83147000  0.12500000  1
  Si  Si0  1  0.16576999  0.33288450  0.12500000  1
loop_
_geom_bond_atom_site_label_1
_geom_bond_atom_site_label_2
_geom_bond_distance
_geom_bond_site_symmetry_2
Mg0 Mg5 3.101940 1_555
Mg0 Mg3 3.101941 1_555
Mg0 Mg10 3.118126 1_455
Mg0 Mg11 3.118126 1_455
Mg0 Mg5 3.118673 1_445
Mg0 Mg3 3.118674 1_455
Mg0 Mg6 3.182967 1_555
Mg0 Mg7 3.182967 1_555
Mg0 Mg9 3.182974 1_555
Mg0 Mg8 3.182974 1_555
Mg0 Mg1 3.220729 1_555
Mg0 Mg1 3.220729 1_545
Mg1 Mg3 3.095349 1_565
Mg1 Mg5 3.095349 1_555
Mg1 Mg12 3.101592 1_455
Mg1 Mg13 3.101592 1_455
Mg1 Mg3 3.125238 1_455
Mg1 Mg5 3.125239 1_455
Mg1 Mg8 3.187500 1_555
Mg1 Mg9 3.187500 1_555
Mg1 Mg6 3.187507 1_565
Mg1 Mg7 3.187507 1_565
Mg2 Mg7 3.053140 1_554
Mg2 Mg6 3.053140 1_555
Mg2 Si0 3.090986 1_655
Mg2 Si0 3.129677 1_555
Mg2 Mg4 3.213623 1_555
Mg2 Mg4 3.227833 1_545
Mg3 Mg6 3.177220 1_555
Mg3 Mg7 3.177220 1_555
Mg3 Mg5 3.212300 1_545
Mg3 Mg5 3.229157 1_555
Mg4 Mg8 3.053140 1_555
Mg4 Mg9 3.053140 1_554
Mg4 Si0 3.090985 1_665
Mg4 Si0 3.129677 1_555
Mg5 Mg8 3.177220 1_555
Mg5 Mg9 3.177220 1_555
Mg6 Si0 3.053339 1_555
Mg7 Si0 3.053339 1_556
Mg8 Si0 3.053346 1_555
Mg9 Si0 3.053346 1_556
Mg10 Si0 3.044514 1_655
Mg10 Mg2 3.101404 1_555
Mg10 Mg4 3.101410 1_545
Mg10 Mg3 3.164721 1_555
Mg10 Mg5 3.164727 1_545
Mg10 Mg12 3.220917 1_545
Mg10 Mg12 3.220917 1_555
Mg11 Si0 3.044514 1_656
Mg11 Mg2 3.101404 1_556
Mg11 Mg4 3.101410 1_546
Mg11 Mg3 3.164721 1_555
Mg11 Mg5 3.164727 1_545
Mg11 Mg13 3.220917 1_545
Mg11 Mg13 3.220917 1_555
Mg12 Mg6 3.081951 1_665
Mg12 Mg8 3.081951 1_655
Mg12 Mg4 3.119361 1_555
Mg12 Mg2 3.119367 1_555
Mg12 Mg5 3.139130 1_555
Mg12 Mg3 3.139137 1_555
Mg12 Mg6 3.140691 1_555
Mg12 Mg8 3.140691 1_555
Mg13 Mg7 3.081951 1_665
Mg13 Mg9 3.081951 1_655
Mg13 Mg4 3.119361 1_556
Mg13 Mg2 3.119367 1_556
Mg13 Mg5 3.139130 1_555
Mg13 Mg3 3.139137 1_555
Mg13 Mg7 3.140691 1_555
Mg13 Mg9 3.140691 1_555
Ga0 Mg8 3.063062 1_555
Ga0 Mg9 3.063062 1_554
Ga0 Mg6 3.063069 1_565
Ga0 Mg7 3.063069 1_564
Ga0 Mg12 3.070217 1_455
Ga0 Mg13 3.070217 1_454
Ga0 Mg2 3.074436 1_455
Ga0 Mg4 3.074436 1_455
Ga0 Mg2 3.146245 1_565
Ga0 Mg4 3.146245 1_555
