# generated using pymatgen
data_SrMg
_symmetry_space_group_name_H-M   'P 1'
_cell_length_a   8.14036671
_cell_length_b   8.14036671
_cell_length_c   22.21979200
_cell_angle_alpha   90.00000000
_cell_angle_beta   90.00000000
_cell_angle_gamma   119.99998955
_symmetry_Int_Tables_number   1
_chemical_formula_structural   SrMg
_chemical_formula_sum   'Sr16 Mg16'
_cell_volume   1275.14216349
_cell_formula_units_Z   16
loop_
 _symmetry_equiv_pos_site_id
 _symmetry_equiv_pos_as_xyz
  1  'x, y, z'
loop_
 _atom_site_type_symbol
 _atom_site_label
 _atom_site_symmetry_multiplicity
 _atom_site_fract_x
 _atom_site_fract_y
 _atom_site_fract_z
 _atom_site_occupancy
  Sr  Sr0_0  1  0.33333350  0.16666650  0.08068400  1
  Sr  Sr0_1  1  0.33333350  0.16666650  0.58068400  1
  Sr  Sr0_2  1  0.33333350  0.66666650  0.08068400  1
  Sr  Sr0_3  1  0.33333350  0.66666650  0.58068400  1
  Sr  Sr0_4  1  0.83333350  0.16666650  0.08068400  1
  Sr  Sr0_5  1  0.83333350  0.16666650  0.58068400  1
  Sr  Sr0_6  1  0.83333350  0.66666650  0.08068400  1
  Sr  Sr0_7  1  0.83333350  0.66666650  0.58068400  1
  Sr  Sr1_0  1  0.16666650  0.33333350  0.41931600  1
  Sr  Sr1_1  1  0.16666650  0.33333350  0.91931600  1
  Sr  Sr1_2  1  0.16666650  0.83333350  0.41931600  1
  Sr  Sr1_3  1  0.16666650  0.83333350  0.91931600  1
  Sr  Sr1_4  1  0.66666650  0.33333350  0.41931600  1
  Sr  Sr1_5  1  0.66666650  0.33333350  0.91931600  1
  Sr  Sr1_6  1  0.66666650  0.83333350  0.41931600  1
  Sr  Sr1_7  1  0.66666650  0.83333350  0.91931600  1
  Mg  Mg0_0  1  0.16666650  0.33333350  0.20424900  1
  Mg  Mg0_1  1  0.16666650  0.33333350  0.70424900  1
  Mg  Mg0_2  1  0.16666650  0.83333350  0.20424900  1
  Mg  Mg0_3  1  0.16666650  0.83333350  0.70424900  1
  Mg  Mg0_4  1  0.66666650  0.33333350  0.20424900  1
  Mg  Mg0_5  1  0.66666650  0.33333350  0.70424900  1
  Mg  Mg0_6  1  0.66666650  0.83333350  0.20424900  1
  Mg  Mg0_7  1  0.66666650  0.83333350  0.70424900  1
  Mg  Mg1_0  1  0.33333350  0.16666650  0.29575100  1
  Mg  Mg1_1  1  0.33333350  0.16666650  0.79575100  1
  Mg  Mg1_2  1  0.33333350  0.66666650  0.29575100  1
  Mg  Mg1_3  1  0.33333350  0.66666650  0.79575100  1
  Mg  Mg1_4  1  0.83333350  0.16666650  0.29575100  1
  Mg  Mg1_5  1  0.83333350  0.16666650  0.79575100  1
  Mg  Mg1_6  1  0.83333350  0.66666650  0.29575100  1
  Mg  Mg1_7  1  0.83333350  0.66666650  0.79575100  1
loop_
_geom_bond_atom_site_label_1
_geom_bond_atom_site_label_2
_geom_bond_distance
_geom_bond_site_symmetry_2
Sr0_0 Sr0_4 4.070183 1_555
Sr0_0 Sr0_2 4.070183 1_555
Sr0_0 Sr0_2 4.070183 1_545
Sr0_0 Sr0_4 4.070183 1_455
Sr0_0 Sr0_6 4.070184 1_555
Sr0_0 Sr0_6 4.070184 1_445
Sr0_0 Sr1_3 4.287002 1_544
Sr0_0 Sr1_5 4.287002 1_554
Sr0_0 Sr1_1 4.287006 1_554
Sr0_1 Sr0_5 4.070183 1_555
Sr0_1 Sr0_3 4.070183 1_545
Sr0_1 Sr0_5 4.070183 1_455
Sr0_1 Sr0_3 4.070183 1_555
Sr0_1 Sr0_7 4.070184 1_555
Sr0_1 Sr0_7 4.070184 1_445
Sr0_1 Sr1_4 4.287002 1_555
Sr0_1 Sr1_2 4.287002 1_545
Sr0_1 Sr1_0 4.287006 1_555
Sr0_2 Sr0_6 4.070183 1_555
Sr0_2 Sr0_6 4.070183 1_455
Sr0_2 Sr0_4 4.070184 1_565
Sr0_2 Sr0_4 4.070184 1_455
Sr0_2 Sr1_7 4.287002 1_554
Sr0_2 Sr1_1 4.287002 1_554
Sr0_2 Sr1_3 4.287006 1_554
Sr0_3 Sr0_7 4.070183 1_555
Sr0_3 Sr0_7 4.070183 1_455
Sr0_3 Sr0_5 4.070184 1_565
Sr0_3 Sr0_5 4.070184 1_455
Sr0_3 Sr1_0 4.287002 1_555
Sr0_3 Sr1_6 4.287002 1_555
Sr0_3 Sr1_2 4.287006 1_555
Sr0_4 Sr0_6 4.070183 1_545
Sr0_4 Sr0_6 4.070183 1_555
Sr0_4 Sr1_7 4.287002 1_544
Sr0_4 Sr1_1 4.287002 1_654
Sr0_4 Sr1_5 4.287006 1_554
Sr0_5 Sr0_7 4.070183 1_545
Sr0_5 Sr0_7 4.070183 1_555
Sr0_5 Sr1_6 4.287002 1_545
Sr0_5 Sr1_0 4.287002 1_655
Sr0_5 Sr1_4 4.287006 1_555
Sr0_6 Sr1_5 4.287002 1_554
Sr0_6 Sr1_3 4.287002 1_654
Sr0_6 Sr1_7 4.287006 1_554
Sr0_7 Sr1_4 4.287002 1_555
Sr0_7 Sr1_2 4.287002 1_655
Sr0_7 Sr1_6 4.287006 1_555
Sr1_0 Sr1_2 4.070183 1_545
Sr1_0 Sr1_4 4.070183 1_455
Sr1_0 Sr1_4 4.070183 1_555
Sr1_0 Sr1_2 4.070183 1_555
Sr1_0 Sr1_6 4.070184 1_555
Sr1_0 Sr1_6 4.070184 1_445
Sr1_1 Sr1_3 4.070183 1_555
Sr1_1 Sr1_5 4.070183 1_455
Sr1_1 Sr1_5 4.070183 1_555
Sr1_1 Sr1_3 4.070183 1_545
Sr1_1 Sr1_7 4.070184 1_555
Sr1_1 Sr1_7 4.070184 1_445
Sr1_2 Sr1_6 4.070183 1_455
Sr1_2 Sr1_6 4.070183 1_555
Sr1_2 Sr1_4 4.070184 1_455
Sr1_2 Sr1_4 4.070184 1_565
Sr1_3 Sr1_7 4.070183 1_455
Sr1_3 Sr1_7 4.070183 1_555
Sr1_3 Sr1_5 4.070184 1_455
Sr1_3 Sr1_5 4.070184 1_565
Sr1_4 Sr1_6 4.070183 1_555
Sr1_4 Sr1_6 4.070183 1_545
Sr1_5 Sr1_7 4.070183 1_555
Sr1_5 Sr1_7 4.070183 1_545
Mg0_0 Mg1_2 3.107385 1_555
Mg0_0 Mg1_4 3.107385 1_455
Mg0_0 Mg1_0 3.107390 1_555
Mg0_0 Sr0_2 3.613914 1_555
Mg0_0 Sr0_4 3.613914 1_455
Mg0_0 Sr0_0 3.613919 1_555
Mg0_1 Mg1_3 3.107385 1_555
Mg0_1 Mg1_5 3.107385 1_455
Mg0_1 Mg1_1 3.107390 1_555
Mg0_1 Sr0_3 3.613914 1_555
Mg0_1 Sr0_5 3.613914 1_455
Mg0_1 Sr0_1 3.613919 1_555
Mg0_2 Mg1_6 3.107385 1_455
Mg0_2 Mg1_0 3.107385 1_565
Mg0_2 Mg1_2 3.107390 1_555
Mg0_2 Sr0_0 3.613914 1_565
Mg0_2 Sr0_6 3.613914 1_455
Mg0_2 Sr0_2 3.613919 1_555
Mg0_3 Mg1_7 3.107385 1_455
Mg0_3 Mg1_1 3.107385 1_565
Mg0_3 Mg1_3 3.107390 1_555
Mg0_3 Sr0_7 3.613914 1_455
Mg0_3 Sr0_1 3.613914 1_565
Mg0_3 Sr0_3 3.613919 1_555
Mg0_4 Mg1_6 3.107385 1_555
Mg0_4 Mg1_0 3.107385 1_555
Mg0_4 Mg1_4 3.107390 1_555
Mg0_4 Sr0_0 3.613914 1_555
Mg0_4 Sr0_6 3.613914 1_555
Mg0_4 Sr0_4 3.613919 1_555
Mg0_5 Mg1_1 3.107385 1_555
Mg0_5 Mg1_7 3.107385 1_555
Mg0_5 Mg1_5 3.107390 1_555
Mg0_5 Sr0_1 3.613914 1_555
Mg0_5 Sr0_7 3.613914 1_555
Mg0_5 Sr0_5 3.613919 1_555
Mg0_6 Mg1_2 3.107385 1_555
Mg0_6 Mg1_4 3.107385 1_565
Mg0_6 Mg1_6 3.107390 1_555
Mg0_6 Sr0_2 3.613914 1_555
Mg0_6 Sr0_4 3.613914 1_565
Mg0_6 Sr0_6 3.613919 1_555
Mg0_7 Mg1_3 3.107385 1_555
Mg0_7 Mg1_5 3.107385 1_565
Mg0_7 Mg1_7 3.107390 1_555
Mg0_7 Sr0_3 3.613914 1_555
Mg0_7 Sr0_5 3.613914 1_565
Mg0_7 Sr0_7 3.613919 1_555
Mg1_0 Sr1_2 3.613914 1_545
Mg1_0 Sr1_4 3.613914 1_555
Mg1_0 Sr1_0 3.613919 1_555
Mg1_1 Sr1_5 3.613914 1_555
Mg1_1 Sr1_3 3.613914 1_545
Mg1_1 Sr1_1 3.613919 1_555
Mg1_2 Sr1_6 3.613914 1_555
Mg1_2 Sr1_0 3.613914 1_555
Mg1_2 Sr1_2 3.613919 1_555
Mg1_3 Sr1_7 3.613914 1_555
Mg1_3 Sr1_1 3.613914 1_555
Mg1_3 Sr1_3 3.613919 1_555
Mg1_4 Sr1_6 3.613914 1_545
Mg1_4 Sr1_0 3.613914 1_655
Mg1_4 Sr1_4 3.613919 1_555
Mg1_5 Sr1_7 3.613914 1_545
Mg1_5 Sr1_1 3.613914 1_655
Mg1_5 Sr1_5 3.613919 1_555
Mg1_6 Sr1_4 3.613914 1_555
Mg1_6 Sr1_2 3.613914 1_655
Mg1_6 Sr1_6 3.613919 1_555
Mg1_7 Sr1_5 3.613914 1_555
Mg1_7 Sr1_3 3.613914 1_655
Mg1_7 Sr1_7 3.613919 1_555
