# generated using pymatgen
data_Ce8Re13B12
_symmetry_space_group_name_H-M   'P 1'
_cell_length_a   7.84109840
_cell_length_b   7.84109840
_cell_length_c   7.84109825
_cell_angle_alpha   85.61180721
_cell_angle_beta   85.61180721
_cell_angle_gamma   85.61180931
_symmetry_Int_Tables_number   1
_chemical_formula_structural   Ce8Re13B12
_chemical_formula_sum   'Ce8 Re13 B12'
_cell_volume   478.05843894
_cell_formula_units_Z   1
loop_
 _symmetry_equiv_pos_site_id
 _symmetry_equiv_pos_as_xyz
  1  'x, y, z'
loop_
 _atom_site_type_symbol
 _atom_site_label
 _atom_site_symmetry_multiplicity
 _atom_site_fract_x
 _atom_site_fract_y
 _atom_site_fract_z
 _atom_site_occupancy
  Ce  Ce0  1  0.64472800  0.64472800  0.64472800  1
  Ce  Ce1  1  0.35527200  0.35527200  0.35527200  1
  Ce  Ce2  1  0.18395100  0.18395100  0.68540900  1
  Ce  Ce3  1  0.68540900  0.18395100  0.18395100  1
  Ce  Ce4  1  0.18395100  0.68540900  0.18395100  1
  Ce  Ce5  1  0.81604900  0.81604900  0.31459100  1
  Ce  Ce6  1  0.31459100  0.81604900  0.81604900  1
  Ce  Ce7  1  0.81604900  0.31459100  0.81604900  1
  Re  Re0  1  0.00000000  0.00000000  0.00000000  1
  Re  Re1  1  0.59468900  0.06692400  0.59468900  1
  Re  Re2  1  0.59468900  0.59468900  0.06692400  1
  Re  Re3  1  0.06692400  0.59468900  0.59468900  1
  Re  Re4  1  0.40531100  0.93307600  0.40531100  1
  Re  Re5  1  0.40531100  0.40531100  0.93307600  1
  Re  Re6  1  0.93307600  0.40531100  0.40531100  1
  Re  Re7  1  0.92258500  0.92258500  0.66956700  1
  Re  Re8  1  0.66956700  0.92258500  0.92258500  1
  Re  Re9  1  0.92258500  0.66956700  0.92258500  1
  Re  Re10  1  0.07741500  0.07741500  0.33043300  1
  Re  Re11  1  0.33043300  0.07741500  0.07741500  1
  Re  Re12  1  0.07741500  0.33043300  0.07741500  1
  B  B0  1  0.15281300  0.84718700  0.50000000  1
  B  B1  1  0.50000000  0.15281300  0.84718700  1
  B  B2  1  0.84718700  0.50000000  0.15281300  1
  B  B3  1  0.50000000  0.84718700  0.15281300  1
  B  B4  1  0.15281300  0.50000000  0.84718700  1
  B  B5  1  0.84718700  0.15281300  0.50000000  1
  B  B6  1  0.67149700  0.50000000  0.32850300  1
  B  B7  1  0.32850300  0.67149700  0.50000000  1
  B  B8  1  0.50000000  0.32850300  0.67149700  1
  B  B9  1  0.32850300  0.50000000  0.67149700  1
  B  B10  1  0.67149700  0.32850300  0.50000000  1
  B  B11  1  0.50000000  0.67149700  0.32850300  1
loop_
_geom_bond_atom_site_label_1
_geom_bond_atom_site_label_2
_geom_bond_distance
_geom_bond_site_symmetry_2
Ce0 Ce5 3.085783 1_555
Ce0 Ce7 3.085783 1_555
Ce0 Ce6 3.085783 1_555
Ce0 Re7 3.222994 1_555
Ce0 Re8 3.222994 1_555
Ce0 Re9 3.222994 1_555
Ce0 Re2 3.300484 1_556
Ce0 Re3 3.300484 1_655
Ce0 Re1 3.300484 1_565
Ce0 Re5 3.376488 1_555
Ce0 Re6 3.376488 1_555
Ce0 Re4 3.376488 1_555
Ce1 Ce2 3.085783 1_555
Ce1 Ce3 3.085783 1_555
Ce1 Ce4 3.085783 1_555
Ce1 Re10 3.222994 1_555
Ce1 Re11 3.222994 1_555
Ce1 Re12 3.222994 1_555
Ce1 Re5 3.300484 1_554
Ce1 Re4 3.300484 1_545
Ce1 Re6 3.300484 1_455
Ce1 Re2 3.376488 1_555
Ce1 Re3 3.376488 1_555
Ce1 Re1 3.376488 1_555
Ce2 Re7 3.022600 1_445
Ce2 Re0 3.078172 1_556
Ce2 Ce7 3.110727 1_455
Ce2 Ce6 3.110727 1_545
Ce2 Re10 3.156165 1_555
Ce2 Re3 3.319277 1_555
Ce2 Re1 3.319277 1_555
Ce2 Re4 3.355773 1_545
Ce2 Re6 3.355773 1_455
Ce2 Re12 3.386082 1_556
Ce2 Re11 3.386082 1_556
Ce3 Re8 3.022600 1_544
Ce3 Re0 3.078172 1_655
Ce3 Ce7 3.110727 1_554
Ce3 Ce5 3.110727 1_545
Ce3 Re11 3.156165 1_555
Ce3 Re1 3.319277 1_555
Ce3 Re2 3.319277 1_555
Ce3 Re4 3.355773 1_545
Ce3 Re5 3.355773 1_554
Ce3 Re12 3.386082 1_655
Ce3 Re10 3.386082 1_655
Ce4 Re9 3.022600 1_454
Ce4 Re0 3.078172 1_565
Ce4 Ce6 3.110727 1_554
Ce4 Ce5 3.110727 1_455
Ce4 Re12 3.156165 1_555
Ce4 Re3 3.319277 1_555
Ce4 Re2 3.319277 1_555
Ce4 Re6 3.355773 1_455
Ce4 Re5 3.355773 1_554
Ce4 Re11 3.386082 1_565
Ce4 Re10 3.386082 1_565
Ce5 Re10 3.022600 1_665
Ce5 Re0 3.078172 1_665
Ce5 Re7 3.156165 1_555
Ce5 Re4 3.319277 1_555
Ce5 Re6 3.319277 1_555
Ce5 Re3 3.355773 1_655
Ce5 Re1 3.355773 1_565
Ce5 Re9 3.386082 1_554
Ce5 Re8 3.386082 1_554
Ce6 Re11 3.022600 1_566
Ce6 Re0 3.078172 1_566
Ce6 Re8 3.156165 1_555
Ce6 Re4 3.319277 1_555
Ce6 Re5 3.319277 1_555
Ce6 Re1 3.355773 1_565
Ce6 Re2 3.355773 1_556
Ce6 Re9 3.386082 1_455
Ce6 Re7 3.386082 1_455
Ce7 Re12 3.022600 1_656
Ce7 Re0 3.078172 1_656
Ce7 Re9 3.156165 1_555
Ce7 Re6 3.319277 1_555
Ce7 Re5 3.319277 1_555
Ce7 Re3 3.355773 1_655
Ce7 Re2 3.355773 1_556
Ce7 Re8 3.386082 1_545
Ce7 Re7 3.386082 1_545
Re0 Re10 2.826259 1_555
Re0 Re7 2.826259 1_444
Re0 Re12 2.826259 1_555
Re0 Re8 2.826259 1_444
Re0 Re9 2.826259 1_444
Re0 Re11 2.826259 1_555
B0 B7 1.872209 1_555
B0 Re3 2.197098 1_555
B0 Re4 2.197098 1_555
B0 Re7 2.228429 1_455
B0 Re10 2.228429 1_565
B0 Ce6 2.855022 1_555
B0 Ce4 2.855022 1_555
B0 Ce2 3.144262 1_565
B0 Ce5 3.144262 1_455
B1 B8 1.872208 1_555
B1 Re1 2.197098 1_555
B1 Re5 2.197098 1_555
B1 Re11 2.228429 1_556
B1 Re8 2.228429 1_545
B1 Ce7 2.855022 1_555
B1 Ce2 2.855022 1_555
B1 Ce3 3.144262 1_556
B1 Ce6 3.144262 1_545
B2 B6 1.872208 1_555
B2 Re6 2.197098 1_555
B2 Re2 2.197098 1_555
B2 Re9 2.228429 1_554
B2 Re12 2.228429 1_655
B2 Ce3 2.855022 1_555
B2 Ce5 2.855022 1_555
B2 Ce7 3.144262 1_554
B2 Ce4 3.144262 1_655
B3 Re4 2.197098 1_555
B3 Re2 2.197098 1_555
B3 Re8 2.228429 1_554
B3 Re11 2.228429 1_565
B3 Ce4 2.855022 1_555
B3 Ce5 2.855022 1_555
B3 Ce6 3.144262 1_554
B3 Ce3 3.144262 1_565
B4 B9 1.872208 1_555
B4 Re3 2.197098 1_555
B4 Re5 2.197098 1_555
B4 Re12 2.228429 1_556
B4 Re9 2.228429 1_455
B4 Ce6 2.855022 1_555
B4 Ce2 2.855022 1_555
B4 Ce4 3.144262 1_556
B4 Ce7 3.144262 1_455
B5 Re1 2.197098 1_555
B5 Re6 2.197098 1_555
B5 Re7 2.228429 1_545
B5 Re10 2.228429 1_655
B5 Ce7 2.855022 1_555
B5 Ce3 2.855022 1_555
B5 Ce2 3.144262 1_655
B5 Ce5 3.144262 1_545
B6 Re2 2.237948 1_555
B6 Re6 2.237948 1_555
B6 Ce0 2.791875 1_555
B6 Ce1 2.791875 1_555
B6 Ce5 2.794187 1_555
B6 Ce3 2.794187 1_555
B7 B9 1.827527 1_555
B7 Re4 2.237948 1_555
B7 Re3 2.237948 1_555
B7 Ce0 2.791875 1_555
B7 Ce1 2.791875 1_555
B7 Ce6 2.794187 1_555
B7 Ce4 2.794187 1_555
B8 B9 1.827527 1_555
B8 Re5 2.237948 1_555
B8 Re1 2.237948 1_555
B8 Ce1 2.791875 1_555
B8 Ce0 2.791875 1_555
B8 Ce2 2.794187 1_555
B8 Ce7 2.794187 1_555
B9 Re5 2.237948 1_555
B9 Re3 2.237948 1_555
B9 Ce1 2.791875 1_555
B9 Ce0 2.791875 1_555
B9 Ce2 2.794187 1_555
B9 Ce6 2.794187 1_555
B10 B8 1.827527 1_555
B10 B6 1.827527 1_555
B10 B5 1.872209 1_555
B10 Re6 2.237948 1_555
B10 Re1 2.237948 1_555
B10 Ce0 2.791875 1_555
B10 Ce1 2.791875 1_555
B10 Ce7 2.794187 1_555
B10 Ce3 2.794187 1_555
B11 B7 1.827527 1_555
B11 B6 1.827527 1_555
B11 B3 1.872208 1_555
B11 Re2 2.237948 1_555
B11 Re4 2.237948 1_555
B11 Ce0 2.791875 1_555
B11 Ce1 2.791875 1_555
B11 Ce5 2.794187 1_555
B11 Ce4 2.794187 1_555
