# generated using pymatgen
data_Ca4Hg9
_symmetry_space_group_name_H-M   'P 1'
_cell_length_a   11.12538900
_cell_length_b   11.12538900
_cell_length_c   11.12538900
_cell_angle_alpha   90.00000000
_cell_angle_beta   90.00000000
_cell_angle_gamma   90.00000000
_symmetry_Int_Tables_number   1
_chemical_formula_structural   Ca4Hg9
_chemical_formula_sum   'Ca16 Hg36'
_cell_volume   1377.03701766
_cell_formula_units_Z   4
loop_
 _symmetry_equiv_pos_site_id
 _symmetry_equiv_pos_as_xyz
  1  'x, y, z'
loop_
 _atom_site_type_symbol
 _atom_site_label
 _atom_site_symmetry_multiplicity
 _atom_site_fract_x
 _atom_site_fract_y
 _atom_site_fract_z
 _atom_site_occupancy
  Ca  Ca0  1  0.80858800  0.46382600  0.19141200  1
  Ca  Ca1  1  0.46382600  0.19141200  0.80858800  1
  Ca  Ca2  1  0.53617400  0.80858800  0.80858800  1
  Ca  Ca3  1  0.86582400  0.13417600  0.86582400  1
  Ca  Ca4  1  0.19141200  0.80858800  0.46382600  1
  Ca  Ca5  1  0.13417600  0.86582400  0.86582400  1
  Ca  Ca6  1  0.80858800  0.19141200  0.46382600  1
  Ca  Ca7  1  0.53617400  0.19141200  0.19141200  1
  Ca  Ca8  1  0.19141200  0.53617400  0.19141200  1
  Ca  Ca9  1  0.13417600  0.13417600  0.13417600  1
  Ca  Ca10  1  0.19141200  0.19141200  0.53617400  1
  Ca  Ca11  1  0.80858800  0.80858800  0.53617400  1
  Ca  Ca12  1  0.80858800  0.53617400  0.80858800  1
  Ca  Ca13  1  0.19141200  0.46382600  0.80858800  1
  Ca  Ca14  1  0.46382600  0.80858800  0.19141200  1
  Ca  Ca15  1  0.86582400  0.86582400  0.13417600  1
  Hg  Hg0  1  0.84047900  0.84047900  0.84047900  1
  Hg  Hg1  1  0.00000000  0.00000000  0.36179900  1
  Hg  Hg2  1  0.32389700  0.97502900  0.67610300  1
  Hg  Hg3  1  0.32389700  0.02497100  0.32389700  1
  Hg  Hg4  1  0.84047900  0.15952100  0.15952100  1
  Hg  Hg5  1  0.60493200  0.60493200  0.60493200  1
  Hg  Hg6  1  0.63820100  0.00000000  0.00000000  1
  Hg  Hg7  1  0.60493200  0.39506800  0.39506800  1
  Hg  Hg8  1  0.67610300  0.67610300  0.02497100  1
  Hg  Hg9  1  0.15952100  0.84047900  0.15952100  1
  Hg  Hg10  1  0.50000000  0.50000000  0.85235100  1
  Hg  Hg11  1  0.31579800  0.68420200  0.68420200  1
  Hg  Hg12  1  0.68420200  0.31579800  0.68420200  1
  Hg  Hg13  1  0.50000000  0.14764900  0.50000000  1
  Hg  Hg14  1  0.97502900  0.67610300  0.32389700  1
  Hg  Hg15  1  0.00000000  0.00000000  0.63820100  1
  Hg  Hg16  1  0.31579800  0.31579800  0.31579800  1
  Hg  Hg17  1  0.02497100  0.32389700  0.32389700  1
  Hg  Hg18  1  0.39506800  0.39506800  0.60493200  1
  Hg  Hg19  1  0.32389700  0.67610300  0.97502900  1
  Hg  Hg20  1  0.50000000  0.50000000  0.14764900  1
  Hg  Hg21  1  0.68420200  0.68420200  0.31579800  1
  Hg  Hg22  1  0.67610300  0.32389700  0.97502900  1
  Hg  Hg23  1  0.50000000  0.85235100  0.50000000  1
  Hg  Hg24  1  0.15952100  0.15952100  0.84047900  1
  Hg  Hg25  1  0.00000000  0.36179900  0.00000000  1
  Hg  Hg26  1  0.97502900  0.32389700  0.67610300  1
  Hg  Hg27  1  0.14764900  0.50000000  0.50000000  1
  Hg  Hg28  1  0.39506800  0.60493200  0.39506800  1
  Hg  Hg29  1  0.67610300  0.97502900  0.32389700  1
  Hg  Hg30  1  0.67610300  0.02497100  0.67610300  1
  Hg  Hg31  1  0.85235100  0.50000000  0.50000000  1
  Hg  Hg32  1  0.00000000  0.63820100  0.00000000  1
  Hg  Hg33  1  0.02497100  0.67610300  0.67610300  1
  Hg  Hg34  1  0.32389700  0.32389700  0.02497100  1
  Hg  Hg35  1  0.36179900  0.00000000  0.00000000  1
loop_
_geom_bond_atom_site_label_1
_geom_bond_atom_site_label_2
_geom_bond_distance
_geom_bond_site_symmetry_2
Ca0 Hg21 3.137070 1_555
Ca0 Hg25 3.218424 1_655
Ca0 Hg17 3.223561 1_655
Ca0 Hg22 3.223561 1_554
Ca0 Hg7 3.294303 1_555
Ca0 Hg14 3.343478 1_555
Ca0 Hg8 3.343478 1_555
Ca0 Hg4 3.422492 1_555
Ca0 Hg31 3.490790 1_555
Ca0 Hg20 3.490790 1_555
Ca0 Hg32 3.582371 1_655
Ca1 Hg12 3.137070 1_555
Ca1 Hg35 3.218424 1_556
Ca1 Hg34 3.223561 1_556
Ca1 Hg2 3.223561 1_545
Ca1 Hg18 3.294303 1_555
Ca1 Hg22 3.343478 1_555
Ca1 Hg30 3.343478 1_555
Ca1 Hg24 3.422492 1_555
Ca1 Hg13 3.490790 1_555
Ca1 Hg10 3.490790 1_555
Ca1 Hg6 3.582371 1_556
Ca2 Hg11 3.137070 1_555
Ca2 Hg6 3.218424 1_566
Ca2 Hg8 3.223561 1_556
Ca2 Hg30 3.223561 1_565
Ca2 Hg5 3.294303 1_555
Ca2 Hg19 3.343478 1_555
Ca2 Hg2 3.343478 1_555
Ca2 Hg0 3.422492 1_555
Ca2 Hg10 3.490790 1_555
Ca2 Hg23 3.490790 1_555
Ca2 Hg35 3.582371 1_566
Ca3 Hg30 3.222790 1_555
Ca3 Hg22 3.222790 1_555
Ca3 Hg26 3.222790 1_555
Ca3 Hg0 3.291737 1_545
Ca3 Hg24 3.291737 1_655
Ca3 Hg4 3.291737 1_556
Ca3 Hg6 3.296921 1_556
Ca3 Hg15 3.296921 1_655
Ca3 Hg25 3.296921 1_656
Ca3 Hg12 3.499809 1_555
Ca4 Hg11 3.137070 1_555
Ca4 Hg1 3.218424 1_565
Ca4 Hg3 3.223561 1_565
Ca4 Hg14 3.223561 1_455
Ca4 Hg28 3.294303 1_555
Ca4 Hg2 3.343478 1_555
Ca4 Hg33 3.343478 1_555
Ca4 Hg9 3.422492 1_555
Ca4 Hg27 3.490790 1_555
Ca4 Hg23 3.490790 1_555
Ca4 Hg15 3.582371 1_565
Ca5 Hg33 3.222790 1_555
Ca5 Hg2 3.222790 1_555
Ca5 Hg19 3.222790 1_555
Ca5 Hg0 3.291737 1_455
Ca5 Hg24 3.291737 1_565
Ca5 Hg9 3.291737 1_556
Ca5 Hg15 3.296921 1_565
Ca5 Hg32 3.296921 1_556
Ca5 Hg35 3.296921 1_566
Ca5 Hg11 3.499809 1_555
Ca6 Hg12 3.137070 1_555
Ca6 Hg1 3.218424 1_655
Ca6 Hg17 3.223561 1_655
Ca6 Hg29 3.223561 1_545
Ca6 Hg7 3.294303 1_555
Ca6 Hg26 3.343478 1_555
Ca6 Hg30 3.343478 1_555
Ca6 Hg4 3.422492 1_555
Ca6 Hg13 3.490790 1_555
Ca6 Hg31 3.490790 1_555
Ca6 Hg15 3.582371 1_655
Ca7 Hg16 3.137070 1_555
Ca7 Hg6 3.218424 1_555
Ca7 Hg29 3.223561 1_545
Ca7 Hg22 3.223561 1_554
Ca7 Hg7 3.294303 1_555
Ca7 Hg3 3.343478 1_555
Ca7 Hg34 3.343478 1_555
Ca7 Hg4 3.422492 1_555
Ca7 Hg20 3.490790 1_555
Ca7 Hg13 3.490790 1_555
Ca7 Hg35 3.582371 1_555
Ca8 Hg16 3.137070 1_555
Ca8 Hg32 3.218424 1_555
Ca8 Hg19 3.223561 1_554
Ca8 Hg14 3.223561 1_455
Ca8 Hg28 3.294303 1_555
Ca8 Hg17 3.343478 1_555
Ca8 Hg34 3.343478 1_555
Ca8 Hg9 3.422492 1_555
Ca8 Hg27 3.490790 1_555
Ca8 Hg20 3.490790 1_555
Ca8 Hg25 3.582371 1_555
Ca9 Hg34 3.222790 1_555
Ca9 Hg3 3.222790 1_555
Ca9 Hg17 3.222790 1_555
Ca9 Hg9 3.291737 1_545
Ca9 Hg4 3.291737 1_455
Ca9 Hg24 3.291737 1_554
Ca9 Hg25 3.296921 1_555
Ca9 Hg35 3.296921 1_555
Ca9 Hg1 3.296921 1_555
Ca9 Hg16 3.499809 1_555
Ca10 Hg16 3.137070 1_555
Ca10 Hg15 3.218424 1_555
Ca10 Hg26 3.223561 1_455
Ca10 Hg2 3.223561 1_545
Ca10 Hg18 3.294303 1_555
Ca10 Hg17 3.343478 1_555
Ca10 Hg3 3.343478 1_555
Ca10 Hg24 3.422492 1_555
Ca10 Hg27 3.490790 1_555
Ca10 Hg13 3.490790 1_555
Ca10 Hg1 3.582371 1_555
Ca11 Hg21 3.137070 1_555
Ca11 Hg15 3.218424 1_665
Ca11 Hg30 3.223561 1_565
Ca11 Hg33 3.223561 1_655
Ca11 Hg5 3.294303 1_555
Ca11 Hg14 3.343478 1_555
Ca11 Hg29 3.343478 1_555
Ca11 Hg0 3.422492 1_555
Ca11 Hg31 3.490790 1_555
Ca11 Hg23 3.490790 1_555
Ca11 Hg1 3.582371 1_665
Ca12 Hg12 3.137070 1_555
Ca12 Hg32 3.218424 1_656
Ca12 Hg8 3.223561 1_556
Ca12 Hg33 3.223561 1_655
Ca12 Hg5 3.294303 1_555
Ca12 Hg22 3.343478 1_555
Ca12 Hg26 3.343478 1_555
Ca12 Hg0 3.422492 1_555
Ca12 Hg31 3.490790 1_555
Ca12 Hg10 3.490790 1_555
Ca12 Hg25 3.582371 1_656
Ca13 Hg11 3.137070 1_555
Ca13 Hg25 3.218424 1_556
Ca13 Hg34 3.223561 1_556
Ca13 Hg26 3.223561 1_455
Ca13 Hg18 3.294303 1_555
Ca13 Hg19 3.343478 1_555
Ca13 Hg33 3.343478 1_555
Ca13 Hg24 3.422492 1_555
Ca13 Hg27 3.490790 1_555
Ca13 Hg10 3.490790 1_555
Ca13 Hg32 3.582371 1_556
Ca14 Hg21 3.137070 1_555
Ca14 Hg35 3.218424 1_565
Ca14 Hg3 3.223561 1_565
Ca14 Hg19 3.223561 1_554
Ca14 Hg28 3.294303 1_555
Ca14 Hg29 3.343478 1_555
Ca14 Hg8 3.343478 1_555
Ca14 Hg9 3.422492 1_555
Ca14 Hg23 3.490790 1_555
Ca14 Hg20 3.490790 1_555
Ca14 Hg6 3.582371 1_565
Ca15 Hg8 3.222790 1_555
Ca15 Hg14 3.222790 1_555
Ca15 Hg29 3.222790 1_555
Ca15 Hg0 3.291737 1_554
Ca15 Hg4 3.291737 1_565
Ca15 Hg9 3.291737 1_655
Ca15 Hg6 3.296921 1_565
Ca15 Hg32 3.296921 1_655
Ca15 Hg1 3.296921 1_665
Ca15 Hg21 3.499809 1_555
Hg1 Hg15 3.075080 1_555
Hg2 Hg23 3.088662 1_555
Hg10 Hg22 3.088662 1_555
Hg10 Hg19 3.088662 1_555
Hg10 Hg18 3.209778 1_555
Hg10 Hg5 3.209778 1_555
Hg13 Hg3 3.088662 1_555
Hg13 Hg30 3.088662 1_555
Hg13 Hg7 3.209778 1_555
Hg13 Hg18 3.209778 1_555
Hg14 Hg31 3.088662 1_555
Hg17 Hg27 3.088662 1_555
Hg18 Hg27 3.209778 1_555
Hg20 Hg8 3.088662 1_555
Hg20 Hg34 3.088662 1_555
Hg20 Hg7 3.209778 1_555
Hg20 Hg28 3.209778 1_555
Hg23 Hg29 3.088662 1_555
Hg23 Hg5 3.209778 1_555
Hg23 Hg28 3.209778 1_555
Hg25 Hg32 3.075080 1_555
Hg26 Hg31 3.088662 1_555
Hg27 Hg33 3.088662 1_555
Hg27 Hg28 3.209778 1_555
Hg31 Hg5 3.209778 1_555
Hg31 Hg7 3.209778 1_555
Hg35 Hg6 3.075080 1_555
