# generated using pymatgen
data_Sm2ZrFe16
_symmetry_space_group_name_H-M   'P 1'
_cell_length_a   6.50503786
_cell_length_b   6.50503839
_cell_length_c   6.50503786
_cell_angle_alpha   83.26235310
_cell_angle_beta   83.26234314
_cell_angle_gamma   83.26235310
_symmetry_Int_Tables_number   1
_chemical_formula_structural   Sm2ZrFe16
_chemical_formula_sum   'Sm2 Zr1 Fe16'
_cell_volume   269.97435350
_cell_formula_units_Z   1
loop_
 _symmetry_equiv_pos_site_id
 _symmetry_equiv_pos_as_xyz
  1  'x, y, z'
loop_
 _atom_site_type_symbol
 _atom_site_label
 _atom_site_symmetry_multiplicity
 _atom_site_fract_x
 _atom_site_fract_y
 _atom_site_fract_z
 _atom_site_occupancy
  Sm  Sm0  1  0.65870900  0.65870900  0.65870900  1
  Sm  Sm1  1  0.35174900  0.35174900  0.35174900  1
  Zr  Zr0  1  0.09483200  0.09483200  0.09483200  1
  Fe  Fe0  1  0.34549000  0.34549000  0.83573000  1
  Fe  Fe1  1  0.34549000  0.83573000  0.34549000  1
  Fe  Fe2  1  0.83573000  0.34549000  0.34549000  1
  Fe  Fe3  1  0.65998400  0.65998400  0.15670000  1
  Fe  Fe4  1  0.65998400  0.15670000  0.65998400  1
  Fe  Fe5  1  0.15670000  0.65998400  0.65998400  1
  Fe  Fe6  1  0.69713400  0.99937100  0.30086100  1
  Fe  Fe7  1  0.99937100  0.30086100  0.69713400  1
  Fe  Fe8  1  0.30086100  0.69713400  0.99937100  1
  Fe  Fe9  1  0.99937100  0.69713400  0.30086100  1
  Fe  Fe10  1  0.69713400  0.30086100  0.99937100  1
  Fe  Fe11  1  0.30086100  0.99937100  0.69713400  1
  Fe  Fe12  1  0.99615400  0.51003700  0.99615400  1
  Fe  Fe13  1  0.51003700  0.99615400  0.99615400  1
  Fe  Fe14  1  0.99615400  0.99615400  0.51003700  1
  Fe  Fe15  1  0.89425400  0.89425400  0.89425400  1
loop_
_geom_bond_atom_site_label_1
_geom_bond_atom_site_label_2
_geom_bond_distance
_geom_bond_site_symmetry_2
Sm1 Zr0 3.216434 1_555
Fe0 Fe4 2.488287 1_555
Fe0 Fe5 2.488288 1_555
Fe0 Fe12 2.556101 1_455
Fe0 Fe13 2.556101 1_545
Fe0 Fe7 2.580222 1_455
Fe0 Fe11 2.580222 1_545
Fe0 Fe8 2.606320 1_555
Fe0 Fe10 2.606320 1_555
Fe0 Zr0 2.737197 1_556
Fe0 Sm0 3.082512 1_555
Fe0 Sm1 3.139337 1_555
Fe0 Sm1 3.366813 1_556
Fe1 Fe3 2.488287 1_555
Fe1 Fe5 2.488287 1_555
Fe1 Fe13 2.556101 1_554
Fe1 Fe14 2.556101 1_455
Fe1 Fe8 2.580222 1_554
Fe1 Fe9 2.580222 1_455
Fe1 Fe6 2.606320 1_555
Fe1 Fe11 2.606320 1_555
Fe1 Zr0 2.737197 1_565
Fe1 Sm0 3.082513 1_555
Fe1 Sm1 3.139337 1_555
Fe1 Sm1 3.366814 1_565
Fe2 Fe4 2.488287 1_555
Fe2 Fe3 2.488288 1_555
Fe2 Fe6 2.580222 1_545
Fe2 Fe9 2.606320 1_555
Fe2 Fe7 2.606320 1_555
Fe2 Zr0 2.737197 1_655
Fe2 Sm0 3.082512 1_555
Fe2 Sm1 3.139337 1_555
Fe2 Sm1 3.366813 1_655
Fe3 Fe9 2.544806 1_555
Fe3 Fe6 2.544806 1_555
Fe3 Fe8 2.633195 1_554
Fe3 Sm1 3.065943 1_555
Fe3 Sm0 3.241420 1_554
Fe3 Sm0 3.263664 1_555
Fe4 Fe7 2.544805 1_555
Fe4 Fe6 2.633195 1_545
Fe4 Sm1 3.065943 1_555
Fe4 Sm0 3.241420 1_545
Fe4 Sm0 3.263665 1_555
Fe5 Fe8 2.544806 1_555
Fe5 Fe9 2.633195 1_455
Fe5 Fe7 2.633195 1_455
Fe5 Sm1 3.065943 1_555
Fe5 Sm0 3.241420 1_455
Fe5 Sm0 3.263664 1_555
Fe6 Fe9 2.612241 1_555
Fe6 Zr0 2.871010 1_665
Fe6 Sm0 3.029020 1_555
Fe6 Sm1 3.034279 1_565
Fe7 Zr0 2.871011 1_656
Fe7 Sm0 3.029020 1_555
Fe7 Sm1 3.034279 1_655
Fe8 Fe9 2.605785 1_456
Fe8 Zr0 2.871011 1_566
Fe8 Sm0 3.029020 1_555
Fe8 Sm1 3.034279 1_556
Fe9 Zr0 2.871011 1_665
Fe9 Sm0 3.029020 1_555
Fe9 Sm1 3.034279 1_655
Fe10 Fe13 2.447921 1_545
Fe10 Fe12 2.498061 1_555
Fe10 Fe4 2.544805 1_555
Fe10 Fe2 2.580222 1_556
Fe10 Fe6 2.605785 1_546
Fe10 Fe7 2.612241 1_555
Fe10 Fe3 2.633195 1_556
Fe10 Zr0 2.871011 1_656
Fe10 Sm0 3.029020 1_555
Fe10 Sm1 3.034279 1_556
Fe11 Fe14 2.447921 1_455
Fe11 Fe13 2.498061 1_555
Fe11 Fe5 2.544806 1_555
Fe11 Fe7 2.605785 1_465
Fe11 Fe8 2.612241 1_555
Fe11 Fe4 2.633195 1_565
Fe11 Zr0 2.871010 1_566
Fe11 Sm0 3.029020 1_555
Fe11 Sm1 3.034279 1_565
Fe12 Fe8 2.447921 1_655
Fe12 Fe9 2.447921 1_556
Fe12 Fe3 2.454961 1_556
Fe12 Fe5 2.454961 1_655
Fe12 Fe7 2.498061 1_555
Fe12 Fe15 2.539905 1_555
Fe12 Fe2 2.556101 1_556
Fe12 Zr0 2.720685 1_656
Fe12 Sm0 3.272085 1_555
Fe12 Sm1 3.449550 1_656
Fe13 Fe6 2.447921 1_556
Fe13 Fe4 2.454961 1_565
Fe13 Fe3 2.454961 1_556
Fe13 Fe8 2.498061 1_555
Fe13 Fe15 2.539905 1_555
Fe13 Zr0 2.720685 1_566
Fe13 Sm0 3.272085 1_555
Fe13 Sm1 3.449550 1_566
Fe14 Fe7 2.447921 1_565
Fe14 Fe4 2.454961 1_565
Fe14 Fe5 2.454961 1_655
Fe14 Fe9 2.498061 1_555
Fe14 Fe6 2.498061 1_555
Fe14 Fe15 2.539905 1_555
Fe14 Fe2 2.556101 1_565
Fe14 Zr0 2.720685 1_665
Fe14 Sm0 3.272085 1_555
Fe14 Sm1 3.449550 1_665
Fe15 Zr0 2.511106 1_666
Fe15 Fe5 2.623612 1_655
Fe15 Fe3 2.623612 1_556
Fe15 Fe4 2.623613 1_565
Fe15 Sm0 2.948871 1_555
