# generated using pymatgen
data_Mg(AgO2)2
_symmetry_space_group_name_H-M   'P 1'
_cell_length_a   5.57779400
_cell_length_b   6.34398300
_cell_length_c   12.63499754
_cell_angle_alpha   60.50616066
_cell_angle_beta   90.00000000
_cell_angle_gamma   90.00000000
_symmetry_Int_Tables_number   1
_chemical_formula_structural   Mg(AgO2)2
_chemical_formula_sum   'Mg4 Ag8 O16'
_cell_volume   389.15519766
_cell_formula_units_Z   4
loop_
 _symmetry_equiv_pos_site_id
 _symmetry_equiv_pos_as_xyz
  1  'x, y, z'
loop_
 _atom_site_type_symbol
 _atom_site_label
 _atom_site_symmetry_multiplicity
 _atom_site_fract_x
 _atom_site_fract_y
 _atom_site_fract_z
 _atom_site_occupancy
  Mg  Mg0  1  0.13493500  0.00000000  0.25000000  1
  Mg  Mg1  1  0.86506500  0.00000000  0.75000000  1
  Mg  Mg2  1  0.42026500  0.50000000  0.75000000  1
  Mg  Mg3  1  0.57973500  0.50000000  0.25000000  1
  Ag  Ag0  1  0.46504200  0.78545700  0.96484000  1
  Ag  Ag1  1  0.46504200  0.21454300  0.53516000  1
  Ag  Ag2  1  0.53495800  0.21454300  0.03516000  1
  Ag  Ag3  1  0.53495800  0.78545700  0.46484000  1
  Ag  Ag4  1  0.00000000  0.50000000  0.00000000  1
  Ag  Ag5  1  0.00000000  0.50000000  0.50000000  1
  Ag  Ag6  1  0.00000000  0.00000000  0.00000000  1
  Ag  Ag7  1  0.00000000  0.00000000  0.50000000  1
  O  O0  1  0.10472700  0.85816400  0.88621700  1
  O  O1  1  0.10472700  0.14183600  0.61378300  1
  O  O2  1  0.89527300  0.14183600  0.11378300  1
  O  O3  1  0.89527300  0.85816400  0.38621700  1
  O  O4  1  0.77691000  0.65881600  0.08608500  1
  O  O5  1  0.77691000  0.34118400  0.41391500  1
  O  O6  1  0.22309000  0.34118400  0.91391500  1
  O  O7  1  0.22309000  0.65881600  0.58608500  1
  O  O8  1  0.35082700  0.31892500  0.18384900  1
  O  O9  1  0.35082700  0.68107500  0.31615100  1
  O  O10  1  0.64948900  0.18468100  0.81862400  1
  O  O11  1  0.64948900  0.81531900  0.68137600  1
  O  O12  1  0.64917300  0.68107500  0.81615100  1
  O  O13  1  0.64917300  0.31892500  0.68384900  1
  O  O14  1  0.35051100  0.81531900  0.18137600  1
  O  O15  1  0.35051100  0.18468100  0.31862400  1
loop_
_geom_bond_atom_site_label_1
_geom_bond_atom_site_label_2
_geom_bond_distance
_geom_bond_site_symmetry_2
Mg0 O2 2.008466 1_455
Mg0 O3 2.008466 1_445
Mg0 O15 2.137900 1_555
Mg0 O14 2.137900 1_545
Mg0 O8 2.139421 1_555
Mg0 O9 2.139421 1_545
Mg1 O0 2.008466 1_645
Mg1 O1 2.008466 1_655
Mg1 O10 2.137900 1_555
Mg1 O11 2.137900 1_545
Mg1 O13 2.139421 1_555
Mg1 O12 2.139421 1_545
Mg2 O6 2.111715 1_555
Mg2 O7 2.111715 1_555
Mg2 O12 2.143319 1_555
Mg2 O13 2.143319 1_555
Mg2 O11 2.163375 1_555
Mg2 O10 2.163375 1_555
Mg3 O4 2.111715 1_555
Mg3 O5 2.111715 1_555
Mg3 O9 2.143319 1_555
Mg3 O8 2.143319 1_555
Mg3 O14 2.163375 1_555
Mg3 O15 2.163375 1_555
Ag0 O0 2.188051 1_555
Ag0 O4 2.192344 1_556
Ag0 O12 2.499552 1_555
Ag0 O10 2.505737 1_565
Ag1 O1 2.188051 1_555
Ag1 O5 2.192344 1_555
Ag1 O13 2.499552 1_555
Ag1 O11 2.505737 1_545
Ag2 O2 2.188051 1_555
Ag2 O6 2.192344 1_554
Ag2 O8 2.499552 1_555
Ag2 O14 2.505737 1_545
Ag3 O3 2.188051 1_555
Ag3 O7 2.192344 1_555
Ag3 O9 2.499552 1_555
Ag3 O15 2.505737 1_565
Ag4 O0 2.086719 1_554
Ag4 O2 2.086719 1_455
Ag4 O4 2.196732 1_455
Ag4 O6 2.196732 1_554
Ag4 O8 2.813775 1_555
Ag4 O12 2.813775 1_454
Ag5 O3 2.086719 1_455
Ag5 O1 2.086719 1_555
Ag5 O7 2.196732 1_555
Ag5 O5 2.196732 1_455
Ag5 O13 2.813775 1_455
Ag5 O9 2.813775 1_555
Ag6 O2 2.119308 1_455
Ag6 O0 2.119308 1_544
Ag6 O6 2.257927 1_554
Ag6 O4 2.257927 1_445
Ag6 O14 2.793394 1_545
Ag6 O10 2.793394 1_454
Ag7 O1 2.119308 1_555
Ag7 O3 2.119308 1_445
Ag7 O5 2.257927 1_455
Ag7 O7 2.257927 1_545
Ag7 O11 2.793394 1_445
Ag7 O15 2.793394 1_555
O10 O13 1.482263 1_555
O11 O12 1.482263 1_555
O14 O9 1.482263 1_555
O15 O8 1.482263 1_555
