# generated using pymatgen
data_La6Mg23Si
_symmetry_space_group_name_H-M   'P 1'
_cell_length_a   10.35176156
_cell_length_b   10.35220004
_cell_length_c   10.35200833
_cell_angle_alpha   59.99631583
_cell_angle_beta   59.99814296
_cell_angle_gamma   59.99832115
_symmetry_Int_Tables_number   1
_chemical_formula_structural   La6Mg23Si
_chemical_formula_sum   'La6 Mg23 Si1'
_cell_volume   784.39141492
_cell_formula_units_Z   1
loop_
 _symmetry_equiv_pos_site_id
 _symmetry_equiv_pos_as_xyz
  1  'x, y, z'
loop_
 _atom_site_type_symbol
 _atom_site_label
 _atom_site_symmetry_multiplicity
 _atom_site_fract_x
 _atom_site_fract_y
 _atom_site_fract_z
 _atom_site_occupancy
  La  La0  1  0.70595986  0.29404363  0.29429462  1
  La  La1  1  0.29438635  0.70557999  0.70561494  1
  La  La2  1  0.29425569  0.70571086  0.29430647  1
  La  La3  1  0.70579335  0.29409758  0.70578886  1
  La  La4  1  0.29422941  0.29421129  0.70577235  1
  La  La5  1  0.70556208  0.70584729  0.29427647  1
  Mg  Mg0  1  0.12261624  0.12266457  0.12261179  1
  Mg  Mg1  1  0.87736313  0.87741687  0.87736997  1
  Mg  Mg2  1  0.12262822  0.12269420  0.63208833  1
  Mg  Mg3  1  0.12263283  0.63210437  0.12265760  1
  Mg  Mg4  1  0.87732503  0.87735589  0.36792532  1
  Mg  Mg5  1  0.87732929  0.36793698  0.87734467  1
  Mg  Mg6  1  0.63207536  0.12269666  0.12264062  1
  Mg  Mg7  1  0.36791406  0.87737615  0.87733151  1
  Mg  Mg8  1  0.49999356  0.00001770  -0.00000345  1
  Mg  Mg9  1  0.99998796  0.50001374  0.50000061  1
  Mg  Mg10  1  -0.00000693  0.50001710  0.00000602  1
  Mg  Mg11  1  0.49999724  0.00001552  0.50000109  1
  Mg  Mg12  1  -0.00000423  0.00001498  0.50000426  1
  Mg  Mg13  1  0.50000796  0.50000263  -0.00000037  1
  Mg  Mg14  1  0.32763689  0.32765853  0.32764416  1
  Mg  Mg15  1  0.67235970  0.67236120  0.67235532  1
  Mg  Mg16  1  0.32761699  0.32763187  0.01713003  1
  Mg  Mg17  1  0.32759684  0.01718283  0.32760479  1
  Mg  Mg18  1  0.67238895  0.67240459  0.98284752  1
  Mg  Mg19  1  0.67237952  0.98287592  0.67239475  1
  Mg  Mg20  1  0.01712752  0.32763964  0.32762243  1
  Mg  Mg21  1  0.98284141  0.67240705  0.67239110  1
  Mg  Mg22  1  -0.00004825  0.00007889  -0.00000452  1
  Si  Si0  1  0.50005497  0.49994248  0.49998272  1
loop_
_geom_bond_atom_site_label_1
_geom_bond_atom_site_label_2
_geom_bond_distance
_geom_bond_site_symmetry_2
La0 Si0 3.012838 1_555
La0 Mg0 3.569917 1_655
La0 Mg4 3.570248 1_545
La0 Mg6 3.571732 1_555
La0 Mg5 3.572100 1_554
La0 Mg19 3.600964 1_545
La0 Mg20 3.601031 1_655
La0 Mg14 3.603178 1_555
La0 Mg18 3.603737 1_554
La0 Mg12 3.714657 1_655
La0 Mg11 3.716507 1_555
La0 Mg10 3.716539 1_655
La0 Mg13 3.718328 1_555
La1 Si0 3.010516 1_555
La1 Mg1 3.573395 1_455
La1 Mg3 3.573532 1_556
La1 Mg7 3.573624 1_555
La1 Mg2 3.574165 1_565
La1 Mg16 3.601491 1_556
La1 Mg15 3.601602 1_555
La1 Mg21 3.601675 1_455
La1 Mg17 3.602213 1_565
La1 Mg10 3.716830 1_556
La1 Mg12 3.717146 1_565
La1 Mg13 3.717196 1_556
La1 Mg11 3.717547 1_565
La2 Si0 3.011875 1_555
La2 Mg3 3.572021 1_555
La2 Mg4 3.572289 1_455
La2 Mg0 3.572540 1_565
La2 Mg7 3.572636 1_554
La2 Mg14 3.601576 1_555
La2 Mg21 3.601920 1_455
La2 Mg18 3.602399 1_554
La2 Mg17 3.602545 1_565
La2 Mg9 3.716613 1_455
La2 Mg12 3.716986 1_565
La2 Mg13 3.717107 1_555
La2 Mg8 3.717158 1_565
La3 Si0 3.012380 1_555
La3 Mg1 3.570262 1_545
La3 Mg2 3.571324 1_655
La3 Mg6 3.571461 1_556
La3 Mg5 3.572146 1_555
La3 Mg19 3.601009 1_545
La3 Mg20 3.602090 1_655
La3 Mg16 3.602176 1_556
La3 Mg15 3.603130 1_555
La3 Mg8 3.715759 1_556
La3 Mg12 3.715831 1_655
La3 Mg9 3.717452 1_555
La3 Mg13 3.717668 1_556
La4 Si0 3.012489 1_555
La4 Mg2 3.571253 1_555
La4 Mg0 3.571383 1_556
La4 Mg7 3.571435 1_545
La4 Mg5 3.571857 1_455
La4 Mg14 3.601717 1_555
La4 Mg19 3.602023 1_545
La4 Mg16 3.602351 1_556
La4 Mg21 3.602545 1_455
La4 Mg8 3.716547 1_556
La4 Mg11 3.716619 1_555
La4 Mg9 3.716767 1_455
La4 Mg10 3.717070 1_556
La5 Si0 3.011430 1_555
La5 Mg6 3.571851 1_565
La5 Mg1 3.572186 1_554
La5 Mg4 3.572348 1_555
La5 Mg3 3.573338 1_655
La5 Mg17 3.600893 1_565
La5 Mg15 3.601899 1_555
La5 Mg18 3.601905 1_554
La5 Mg20 3.603352 1_655
La5 Mg8 3.715759 1_565
La5 Mg11 3.716308 1_565
La5 Mg10 3.717728 1_655
La5 Mg9 3.717949 1_555
Mg0 Mg22 3.109398 1_555
Mg0 Mg16 3.172778 1_555
Mg0 Mg17 3.172792 1_555
Mg0 Mg20 3.173022 1_555
Mg0 Mg10 3.189982 1_555
Mg0 Mg8 3.190108 1_555
Mg0 Mg12 3.190251 1_555
Mg1 Mg22 3.109480 1_666
Mg1 Mg19 3.172741 1_555
Mg1 Mg18 3.172950 1_555
Mg1 Mg21 3.173082 1_555
Mg1 Mg12 3.190028 1_665
Mg1 Mg8 3.190047 1_566
Mg1 Mg10 3.190380 1_656
Mg2 Mg22 3.109574 1_556
Mg2 Mg20 3.172617 1_555
Mg2 Mg9 3.189692 1_455
Mg3 Mg9 3.189825 1_455
Mg4 Mg9 3.189879 1_555
Mg5 Mg9 3.189832 1_555
Mg6 Mg8 3.190515 1_555
Mg7 Mg8 3.190357 1_566
Mg10 Mg18 2.991676 1_454
Mg10 Mg20 2.991715 1_555
Mg10 Mg16 2.991736 1_555
Mg10 Mg21 2.991760 1_454
Mg10 Mg3 3.190301 1_555
Mg10 Mg5 3.190524 1_454
Mg11 Mg14 2.991746 1_555
Mg11 Mg15 2.991807 1_545
Mg11 Mg19 2.992005 1_545
Mg11 Mg17 2.992037 1_555
Mg11 Mg4 3.189686 1_545
Mg11 Mg7 3.189721 1_545
Mg11 Mg6 3.189972 1_555
Mg11 Mg2 3.190034 1_555
Mg12 Mg17 2.991676 1_555
Mg12 Mg19 2.991714 1_445
Mg12 Mg21 2.991760 1_445
Mg12 Mg20 2.991833 1_555
Mg12 Mg2 3.190443 1_555
Mg12 Mg4 3.190551 1_445
Mg13 Mg15 2.991698 1_554
Mg13 Mg14 2.991716 1_555
Mg13 Mg16 2.991956 1_555
Mg13 Mg18 2.992025 1_554
Mg13 Mg6 3.189578 1_555
Mg13 Mg5 3.189631 1_554
Mg13 Mg3 3.190088 1_555
Mg13 Mg7 3.190149 1_554
Mg14 Mg9 2.991792 1_455
Mg14 Mg2 3.172550 1_555
Mg14 Mg6 3.172599 1_555
Mg14 Mg3 3.172657 1_555
Mg14 Mg17 3.214518 1_555
Mg14 Mg20 3.214529 1_555
Mg14 Mg16 3.214686 1_555
Mg15 Mg9 2.991645 1_555
Mg15 Mg5 3.172418 1_555
Mg15 Mg4 3.172435 1_555
Mg15 Mg7 3.172758 1_555
Mg15 Mg21 3.214455 1_555
Mg15 Mg18 3.214594 1_555
Mg15 Mg19 3.214817 1_555
Mg16 Mg8 2.991814 1_555
Mg16 Mg6 3.172597 1_555
Mg16 Mg3 3.172969 1_555
Mg16 Mg17 3.213755 1_555
Mg16 Mg20 3.214076 1_555
Mg17 Mg8 2.991810 1_555
Mg17 Mg6 3.172789 1_555
Mg17 Mg2 3.172937 1_555
Mg17 Mg20 3.213826 1_555
Mg18 Mg8 2.991857 1_566
Mg18 Mg7 3.172767 1_555
Mg18 Mg5 3.172797 1_555
Mg18 Mg21 3.213698 1_555
Mg18 Mg19 3.213757 1_555
Mg19 Mg8 2.991673 1_566
Mg19 Mg7 3.172603 1_555
Mg19 Mg4 3.172861 1_555
Mg19 Mg21 3.213850 1_555
Mg20 Mg9 2.991895 1_455
Mg20 Mg3 3.172675 1_555
Mg21 Mg9 2.992138 1_555
Mg21 Mg4 3.172699 1_555
Mg21 Mg5 3.172757 1_555
Mg22 Mg5 3.109222 1_454
Mg22 Mg6 3.109302 1_455
Mg22 Mg4 3.109766 1_445
Mg22 Mg7 3.110029 1_544
Mg22 Mg3 3.110206 1_545
