# generated using pymatgen
data_Sr2HfFeO6
_symmetry_space_group_name_H-M   'P 1'
_cell_length_a   5.70706800
_cell_length_b   5.70706500
_cell_length_c   8.00281400
_cell_angle_alpha   90.00025939
_cell_angle_beta   90.00027659
_cell_angle_gamma   89.99629544
_symmetry_Int_Tables_number   1
_chemical_formula_structural   Sr2HfFeO6
_chemical_formula_sum   'Sr4 Hf2 Fe2 O12'
_cell_volume   260.65651770
_cell_formula_units_Z   2
loop_
 _symmetry_equiv_pos_site_id
 _symmetry_equiv_pos_as_xyz
  1  'x, y, z'
loop_
 _atom_site_type_symbol
 _atom_site_label
 _atom_site_symmetry_multiplicity
 _atom_site_fract_x
 _atom_site_fract_y
 _atom_site_fract_z
 _atom_site_occupancy
  Sr  Sr0  1  0.00000000  0.49999700  0.75015100  1
  Sr  Sr1  1  0.49999900  0.00000200  0.24985300  1
  Sr  Sr2  1  0.00000000  0.49999700  0.24985300  1
  Sr  Sr3  1  0.49999800  0.00000200  0.75015100  1
  Hf  Hf0  1  0.50000000  0.49999600  0.99999100  1
  Hf  Hf1  1  0.00000300  0.00000500  0.49999800  1
  Fe  Fe0  1  0.50000500  0.50000500  0.50000000  1
  Fe  Fe1  1  0.00000000  0.99999700  0.00000100  1
  O  O0  1  0.50000100  0.50000300  0.74322000  1
  O  O1  1  0.00000000  0.99999900  0.24315700  1
  O  O2  1  0.49999900  0.50000000  0.25677100  1
  O  O3  1  0.99999800  0.99999700  0.75684200  1
  O  O4  1  0.75430700  0.75430800  0.00000400  1
  O  O5  1  0.25456500  0.25456500  0.50000100  1
  O  O6  1  0.24569000  0.24569000  0.00000200  1
  O  O7  1  0.74543800  0.74543900  0.50000000  1
  O  O8  1  0.75432000  0.24567800  0.00000300  1
  O  O9  1  0.25457800  0.74542200  0.50000000  1
  O  O10  1  0.24567900  0.75431900  0.00000300  1
  O  O11  1  0.74542100  0.25457900  0.50000000  1
loop_
_geom_bond_atom_site_label_1
_geom_bond_atom_site_label_2
_geom_bond_distance
_geom_bond_site_symmetry_2
Hf0 O8 2.052545 1_556
Hf0 O10 2.052569 1_556
Hf0 O6 2.052589 1_556
Hf0 O4 2.052601 1_556
Hf0 O0 2.054891 1_555
Hf0 O2 2.054963 1_556
Hf1 O5 2.054631 1_555
Hf1 O11 2.054635 1_455
Hf1 O9 2.054643 1_545
Hf1 O7 2.054667 1_445
Hf1 O1 2.055451 1_545
Hf1 O3 2.055475 1_445
Fe0 O0 1.946444 1_555
Fe0 O2 1.946516 1_555
Fe0 O11 1.980732 1_555
Fe0 O9 1.980740 1_555
Fe0 O7 1.980960 1_555
Fe0 O5 1.981013 1_555
Fe1 O1 1.945932 1_555
Fe1 O3 1.945956 1_454
Fe1 O10 1.982810 1_555
Fe1 O8 1.982826 1_465
Fe1 O4 1.983039 1_455
Fe1 O6 1.983043 1_565
O0 Sr3 2.854066 1_565
O0 Sr0 2.854067 1_655
O0 Sr3 2.854078 1_555
O0 Sr0 2.854079 1_555
O1 Sr2 2.854024 1_565
O1 Sr1 2.854031 1_565
O1 Sr1 2.854043 1_465
O1 Sr2 2.854047 1_555
O2 Sr1 2.854058 1_555
O2 Sr2 2.854065 1_555
O2 Sr2 2.854077 1_655
O2 Sr1 2.854081 1_565
O3 Sr0 2.854035 1_655
O3 Sr0 2.854035 1_665
O3 Sr3 2.854036 1_565
O3 Sr3 2.854037 1_665
O4 Sr1 2.840825 1_565
O4 Sr2 2.840830 1_655
O4 Sr3 2.840850 1_564
O4 Sr0 2.840853 1_654
O5 Sr2 2.842521 1_555
O5 Sr1 2.842521 1_555
O5 Sr3 2.842529 1_555
O5 Sr0 2.842533 1_555
O6 Sr3 2.840819 1_554
O6 Sr1 2.840821 1_555
O6 Sr0 2.840822 1_554
O6 Sr2 2.840822 1_555
O7 Sr1 2.842529 1_565
O7 Sr2 2.842536 1_655
O7 Sr3 2.842555 1_565
O7 Sr0 2.842557 1_655
O8 Sr2 2.840906 1_655
O8 Sr3 2.840915 1_554
O8 Sr1 2.840919 1_555
O8 Sr0 2.840936 1_654
O9 Sr2 2.842617 1_555
O9 Sr1 2.842630 1_565
O9 Sr3 2.842631 1_565
O9 Sr0 2.842658 1_555
O10 Sr1 2.840917 1_565
O10 Sr0 2.840923 1_554
O10 Sr2 2.840931 1_555
O10 Sr3 2.840945 1_564
O11 Sr1 2.842606 1_555
O11 Sr2 2.842619 1_655
O11 Sr0 2.842623 1_655
O11 Sr3 2.842650 1_555
