# generated using pymatgen
data_EuCuSn
_symmetry_space_group_name_H-M   'P 1'
_cell_length_a   5.96853191
_cell_length_b   5.96853191
_cell_length_c   7.56126948
_cell_angle_alpha   51.89710493
_cell_angle_beta   51.89710493
_cell_angle_gamma   44.83462557
_symmetry_Int_Tables_number   1
_chemical_formula_structural   EuCuSn
_chemical_formula_sum   'Eu2 Cu2 Sn2'
_cell_volume   141.40870846
_cell_formula_units_Z   2
loop_
 _symmetry_equiv_pos_site_id
 _symmetry_equiv_pos_as_xyz
  1  'x, y, z'
loop_
 _atom_site_type_symbol
 _atom_site_label
 _atom_site_symmetry_multiplicity
 _atom_site_fract_x
 _atom_site_fract_y
 _atom_site_fract_z
 _atom_site_occupancy
  Eu  Eu0  1  0.54623100  0.54623100  0.69363100  1
  Eu  Eu1  1  0.45376900  0.45376900  0.30636900  1
  Cu  Cu0  1  0.15433500  0.15433500  0.29594900  1
  Cu  Cu1  1  0.84566500  0.84566500  0.70405100  1
  Sn  Sn0  1  0.82767100  0.82767100  0.10666400  1
  Sn  Sn1  1  0.17232900  0.17232900  0.89333600  1
loop_
_geom_bond_atom_site_label_1
_geom_bond_atom_site_label_2
_geom_bond_distance
_geom_bond_site_symmetry_2
Eu0 Sn0 3.270339 1_546
Eu0 Sn0 3.270339 1_456
Eu0 Sn0 3.307758 1_555
Eu0 Sn1 3.314560 1_555
Eu0 Sn1 3.493165 1_655
Eu0 Sn1 3.493165 1_565
Eu1 Sn1 3.270339 1_654
Eu1 Sn1 3.270339 1_564
Eu1 Sn1 3.307758 1_555
Eu1 Sn0 3.314560 1_555
Eu1 Sn0 3.493165 1_545
Eu1 Sn0 3.493165 1_455
Cu0 Cu1 2.663049 1_445
Cu0 Sn0 2.689404 1_455
Cu0 Sn0 2.689404 1_545
Cu0 Sn1 2.915472 1_554
Cu0 Eu1 3.138865 1_545
Cu0 Eu1 3.138865 1_455
Cu0 Eu0 3.294951 1_455
Cu0 Eu0 3.294951 1_545
Cu0 Eu1 3.357357 1_555
Cu0 Eu0 3.626210 1_554
Cu1 Sn1 2.689404 1_655
Cu1 Sn1 2.689404 1_565
Cu1 Sn0 2.915472 1_556
Cu1 Eu0 3.138865 1_655
Cu1 Eu0 3.138865 1_565
Cu1 Eu1 3.294951 1_565
Cu1 Eu1 3.294951 1_655
Cu1 Eu0 3.357357 1_555
Cu1 Eu1 3.626210 1_556
Sn0 Sn1 2.979378 1_664
