# generated using pymatgen
data_Te3MoWSe
_symmetry_space_group_name_H-M   'P 1'
_cell_length_a   3.49702123
_cell_length_b   3.49702123
_cell_length_c   39.64070800
_cell_angle_alpha   90.00000000
_cell_angle_beta   90.00000000
_cell_angle_gamma   119.99998542
_symmetry_Int_Tables_number   1
_chemical_formula_structural   Te3MoWSe
_chemical_formula_sum   'Te6 Mo2 W2 Se2'
_cell_volume   419.82532773
_cell_formula_units_Z   2
loop_
 _symmetry_equiv_pos_site_id
 _symmetry_equiv_pos_as_xyz
  1  'x, y, z'
loop_
 _atom_site_type_symbol
 _atom_site_label
 _atom_site_symmetry_multiplicity
 _atom_site_fract_x
 _atom_site_fract_y
 _atom_site_fract_z
 _atom_site_occupancy
  Te  Te0  1  0.00000000  0.00000000  0.32833700  1
  Te  Te1  1  0.33333300  0.66666700  0.04767100  1
  Te  Te2  1  0.33333300  0.66666700  0.42342000  1
  Te  Te3  1  0.33333300  0.66666700  0.14017900  1
  Te  Te4  1  0.33333300  0.66666700  0.51591700  1
  Te  Te5  1  0.00000000  0.00000000  0.23526300  1
  Mo  Mo0  1  0.00000000  0.00000000  0.09390300  1
  Mo  Mo1  1  0.00000000  0.00000000  0.46968300  1
  W  W0  1  0.33333300  0.66666700  0.28179700  1
  W  W1  1  0.33333300  0.66666700  0.65754000  1
  Se  Se0  1  0.00000000  0.00000000  0.69846700  1
  Se  Se1  1  0.00000000  0.00000000  0.61657200  1
loop_
_geom_bond_atom_site_label_1
_geom_bond_atom_site_label_2
_geom_bond_distance
_geom_bond_site_symmetry_2
Te0 W0 2.734950 1_545
Te0 W0 2.734953 1_445
Te0 W0 2.734953 1_555
Te5 W0 2.734790 1_545
Te5 W0 2.734793 1_445
Te5 W0 2.734793 1_555
Mo0 Te1 2.726729 1_545
Mo0 Te1 2.726732 1_445
Mo0 Te1 2.726732 1_555
Mo0 Te3 2.727902 1_545
Mo0 Te3 2.727905 1_555
Mo0 Te3 2.727905 1_445
Mo1 Te4 2.726783 1_545
Mo1 Te4 2.726785 1_445
Mo1 Te4 2.726785 1_555
Mo1 Te2 2.727556 1_545
Mo1 Te2 2.727558 1_555
Mo1 Te2 2.727558 1_445
Se0 W1 2.590073 1_545
Se0 W1 2.590076 1_445
Se0 W1 2.590076 1_555
Se1 W1 2.591091 1_545
Se1 W1 2.591094 1_445
Se1 W1 2.591094 1_555
