# generated using pymatgen
data_Co6WN4
_symmetry_space_group_name_H-M   'P 1'
_cell_length_a   6.50154500
_cell_length_b   6.50154500
_cell_length_c   5.24168900
_cell_angle_alpha   90.00000000
_cell_angle_beta   90.00000000
_cell_angle_gamma   90.00000000
_symmetry_Int_Tables_number   1
_chemical_formula_structural   Co6WN4
_chemical_formula_sum   'Co12 W2 N8'
_cell_volume   221.56665209
_cell_formula_units_Z   2
loop_
 _symmetry_equiv_pos_site_id
 _symmetry_equiv_pos_as_xyz
  1  'x, y, z'
loop_
 _atom_site_type_symbol
 _atom_site_label
 _atom_site_symmetry_multiplicity
 _atom_site_fract_x
 _atom_site_fract_y
 _atom_site_fract_z
 _atom_site_occupancy
  Co  Co0  1  0.00000000  0.50000000  0.21352600  1
  Co  Co1  1  0.50000000  0.00000000  0.28647400  1
  Co  Co2  1  0.50000000  0.00000000  0.78647400  1
  Co  Co3  1  0.00000000  0.50000000  0.71352600  1
  Co  Co4  1  0.20819700  0.20819700  0.50000000  1
  Co  Co5  1  0.79180300  0.79180300  0.50000000  1
  Co  Co6  1  0.70819700  0.70819700  0.00000000  1
  Co  Co7  1  0.29180300  0.29180300  0.00000000  1
  Co  Co8  1  0.79180300  0.20819700  0.50000000  1
  Co  Co9  1  0.20819700  0.79180300  0.50000000  1
  Co  Co10  1  0.29180300  0.70819700  0.00000000  1
  Co  Co11  1  0.70819700  0.29180300  0.00000000  1
  W  W0  1  0.50000000  0.50000000  0.50000000  1
  W  W1  1  0.00000000  0.00000000  0.00000000  1
  N  N0  1  0.27911400  0.50000000  0.24354000  1
  N  N1  1  0.72088600  0.50000000  0.24354000  1
  N  N2  1  0.77911400  0.00000000  0.25646000  1
  N  N3  1  0.22088600  0.00000000  0.25646000  1
  N  N4  1  0.50000000  0.27911400  0.75646000  1
  N  N5  1  0.50000000  0.72088600  0.75646000  1
  N  N6  1  0.00000000  0.77911400  0.74354000  1
  N  N7  1  0.00000000  0.22088600  0.74354000  1
loop_
_geom_bond_atom_site_label_1
_geom_bond_atom_site_label_2
_geom_bond_distance
_geom_bond_site_symmetry_2
Co0 N0 1.821479 1_555
Co0 N1 1.821479 1_455
Co1 N2 1.821479 1_555
Co1 N3 1.821479 1_555
Co2 N4 1.821479 1_555
Co2 N5 1.821479 1_545
Co3 N6 1.821479 1_555
Co3 N7 1.821479 1_555
Co4 N3 1.862432 1_555
Co4 N7 1.862432 1_555
Co4 N4 2.370430 1_555
Co4 N0 2.370430 1_555
Co5 N2 1.862432 1_565
Co5 N6 1.862432 1_655
Co5 N5 2.370430 1_555
Co5 N1 2.370430 1_555
Co6 N5 1.862432 1_554
Co6 N1 1.862432 1_555
Co6 N6 2.370430 1_654
Co6 N2 2.370430 1_565
Co7 N4 1.862432 1_554
Co7 N0 1.862432 1_555
Co7 N3 2.370430 1_555
Co7 N7 2.370430 1_554
Co8 N2 1.862432 1_555
Co8 N7 1.862432 1_655
Co8 N4 2.370430 1_555
Co8 N1 2.370430 1_555
Co9 N6 1.862432 1_555
Co9 N3 1.862432 1_565
Co9 N0 2.370430 1_555
Co9 N5 2.370430 1_555
Co10 N5 1.862432 1_554
Co10 N0 1.862432 1_555
Co10 N6 2.370430 1_554
Co10 N3 2.370430 1_565
Co11 N4 1.862432 1_554
Co11 N1 1.862432 1_555
Co11 N2 2.370430 1_555
Co11 N7 2.370430 1_654
N0 W0 1.967100 1_555
N1 W0 1.967100 1_555
N2 W1 1.967100 1_655
N3 W1 1.967100 1_555
N4 W0 1.967100 1_555
N5 W0 1.967100 1_555
N6 W1 1.967100 1_566
N7 W1 1.967100 1_556
