# generated using pymatgen
data_Mg2Si3
_symmetry_space_group_name_H-M   'P 1'
_cell_length_a   3.52720300
_cell_length_b   6.10275235
_cell_length_c   9.13555484
_cell_angle_alpha   99.27575279
_cell_angle_beta   100.03635049
_cell_angle_gamma   106.05257688
_symmetry_Int_Tables_number   1
_chemical_formula_structural   Mg2Si3
_chemical_formula_sum   'Mg4 Si6'
_cell_volume   181.47704251
_cell_formula_units_Z   2
loop_
 _symmetry_equiv_pos_site_id
 _symmetry_equiv_pos_as_xyz
  1  'x, y, z'
loop_
 _atom_site_type_symbol
 _atom_site_label
 _atom_site_symmetry_multiplicity
 _atom_site_fract_x
 _atom_site_fract_y
 _atom_site_fract_z
 _atom_site_occupancy
  Mg  Mg0  1  0.41648200  0.71380200  0.59026100  1
  Mg  Mg1  1  0.58351800  0.28619800  0.40973900  1
  Mg  Mg2  1  0.74229500  0.09179100  0.88348800  1
  Mg  Mg3  1  0.25770500  0.90820900  0.11651200  1
  Si  Si0  1  0.51660800  0.61456100  0.90146800  1
  Si  Si1  1  0.48339200  0.38543900  0.09853200  1
  Si  Si2  1  0.84888600  0.43931500  0.71966200  1
  Si  Si3  1  0.15111400  0.56068500  0.28033800  1
  Si  Si4  1  0.14150000  0.11505000  0.63252700  1
  Si  Si5  1  0.85850000  0.88495000  0.36747300  1
loop_
_geom_bond_atom_site_label_1
_geom_bond_atom_site_label_2
_geom_bond_distance
_geom_bond_site_symmetry_2
Mg0 Si3 2.739589 1_555
Mg0 Si2 2.796465 1_455
Mg0 Si2 2.820032 1_555
Mg0 Si4 2.867973 1_565
Mg0 Si5 2.924862 1_555
Mg0 Si4 2.927948 1_665
Mg0 Si0 2.982929 1_555
Mg0 Si5 3.087524 1_455
Mg1 Si2 2.739589 1_555
Mg1 Si3 2.796465 1_655
Mg1 Si3 2.820032 1_555
Mg1 Si5 2.867973 1_545
Mg1 Si4 2.924862 1_555
Mg1 Si5 2.927948 1_445
Mg1 Si1 2.982929 1_555
Mg1 Si4 3.087524 1_655
Mg2 Si2 2.767257 1_555
Mg2 Si0 2.839095 1_545
Mg2 Si1 2.881021 1_556
Mg2 Si4 2.888778 1_555
Mg2 Si4 2.894603 1_655
Mg2 Si1 2.896274 1_656
Mg3 Si3 2.767257 1_555
Mg3 Si1 2.839095 1_565
Mg3 Si0 2.881021 1_554
Mg3 Si5 2.888778 1_555
Mg3 Si5 2.894603 1_455
Mg3 Si0 2.896274 1_454
Si0 Si1 2.450380 1_556
Si0 Si2 2.464760 1_555
Si0 Si2 2.473912 1_455
Si1 Si3 2.464760 1_555
Si1 Si3 2.473912 1_655
Si2 Si4 2.554032 1_655
Si2 Si4 2.616196 1_555
Si3 Si5 2.554032 1_455
Si3 Si5 2.616196 1_555
Si4 Si5 2.473408 1_445
