# generated using pymatgen
data_V2ZnS4
_symmetry_space_group_name_H-M   'P 1'
_cell_length_a   7.12438791
_cell_length_b   7.12438791
_cell_length_c   7.12438791
_cell_angle_alpha   60.00000000
_cell_angle_beta   60.00000000
_cell_angle_gamma   60.00000000
_symmetry_Int_Tables_number   1
_chemical_formula_structural   V2ZnS4
_chemical_formula_sum   'V4 Zn2 S8'
_cell_volume   255.69820268
_cell_formula_units_Z   2
loop_
 _symmetry_equiv_pos_site_id
 _symmetry_equiv_pos_as_xyz
  1  'x, y, z'
loop_
 _atom_site_type_symbol
 _atom_site_label
 _atom_site_symmetry_multiplicity
 _atom_site_fract_x
 _atom_site_fract_y
 _atom_site_fract_z
 _atom_site_occupancy
  V  V0  1  0.12500000  0.12500000  0.62500000  1
  V  V1  1  0.62500000  0.12500000  0.12500000  1
  V  V2  1  0.12500000  0.12500000  0.12500000  1
  V  V3  1  0.12500000  0.62500000  0.12500000  1
  Zn  Zn0  1  0.75000000  0.75000000  0.75000000  1
  Zn  Zn1  1  0.50000000  0.50000000  0.50000000  1
  S  S0  1  0.90032900  0.36655700  0.36655700  1
  S  S1  1  0.36655700  0.36655700  0.90032900  1
  S  S2  1  0.36655700  0.36655700  0.36655700  1
  S  S3  1  0.34967100  0.88344300  0.88344300  1
  S  S4  1  0.88344300  0.34967100  0.88344300  1
  S  S5  1  0.88344300  0.88344300  0.34967100  1
  S  S6  1  0.36655700  0.90032900  0.36655700  1
  S  S7  1  0.88344300  0.88344300  0.88344300  1
loop_
_geom_bond_atom_site_label_1
_geom_bond_atom_site_label_2
_geom_bond_distance
_geom_bond_site_symmetry_2
S0 Zn1 2.328729 1_555
S0 V0 2.436756 1_655
S0 V3 2.436756 1_655
S0 V2 2.436756 1_655
S1 Zn1 2.328729 1_555
S1 V3 2.436756 1_556
S1 V1 2.436756 1_556
S1 V2 2.436756 1_556
S2 Zn1 2.328729 1_555
S2 V1 2.436756 1_555
S2 V0 2.436756 1_555
S2 V3 2.436756 1_555
S3 Zn0 2.328729 1_555
S3 V2 2.436756 1_566
S3 V3 2.436756 1_556
S3 V0 2.436756 1_565
S4 Zn0 2.328729 1_555
S4 V0 2.436756 1_655
S4 V2 2.436756 1_656
S4 V1 2.436756 1_556
S5 Zn0 2.328729 1_555
S5 V1 2.436756 1_565
S5 V3 2.436756 1_655
S5 V2 2.436756 1_665
S6 Zn1 2.328729 1_555
S6 V0 2.436756 1_565
S6 V1 2.436756 1_565
S6 V2 2.436756 1_565
S7 Zn0 2.328729 1_555
S7 V3 2.436756 1_656
S7 V1 2.436756 1_566
S7 V0 2.436756 1_665
