# generated using pymatgen
data_Na12Ca3Fe2(SiO3)12
_symmetry_space_group_name_H-M   'P 1'
_cell_length_a   10.38100300
_cell_length_b   7.49746300
_cell_length_c   10.58532197
_cell_angle_alpha   89.97550186
_cell_angle_beta   90.00000000
_cell_angle_gamma   90.00000000
_symmetry_Int_Tables_number   1
_chemical_formula_structural   Na12Ca3Fe2(SiO3)12
_chemical_formula_sum   'Na12 Ca3 Fe2 Si12 O36'
_cell_volume   823.86808651
_cell_formula_units_Z   1
loop_
 _symmetry_equiv_pos_site_id
 _symmetry_equiv_pos_as_xyz
  1  'x, y, z'
loop_
 _atom_site_type_symbol
 _atom_site_label
 _atom_site_symmetry_multiplicity
 _atom_site_fract_x
 _atom_site_fract_y
 _atom_site_fract_z
 _atom_site_occupancy
  Na  Na0  1  0.23078900  0.48907800  0.25416500  1
  Na  Na1  1  0.25433900  0.51766400  0.73445100  1
  Na  Na2  1  0.20529200  0.94796200  0.23547500  1
  Na  Na3  1  0.24027400  0.01616300  0.76746200  1
  Na  Na4  1  0.74566100  0.51766400  0.73445100  1
  Na  Na5  1  0.76921100  0.48907800  0.25416500  1
  Na  Na6  1  0.75972600  0.01616300  0.76746200  1
  Na  Na7  1  0.79470800  0.94796200  0.23547500  1
  Na  Na8  1  0.00000000  0.56653700  0.43274500  1
  Na  Na9  1  0.50000000  0.00077800  0.00472100  1
  Na  Na10  1  0.50000000  0.00339400  0.49982600  1
  Na  Na11  1  0.00000000  0.55374500  0.02390700  1
  Ca  Ca0  1  0.00000000  0.26680500  0.76299900  1
  Ca  Ca1  1  0.50000000  0.24170300  0.26064200  1
  Ca  Ca2  1  0.50000000  0.75653000  0.73645000  1
  Fe  Fe0  1  0.50000000  0.49881200  0.49940300  1
  Fe  Fe1  1  0.00000000  0.99703900  0.00297800  1
  Si  Si0  1  0.00000000  0.23868200  0.28087100  1
  Si  Si1  1  0.00000000  0.75577700  0.72198200  1
  Si  Si2  1  0.50000000  0.74631300  0.22246300  1
  Si  Si3  1  0.50000000  0.25305000  0.77974600  1
  Si  Si4  1  0.23576300  0.78321800  0.51078700  1
  Si  Si5  1  0.23193500  0.21297300  0.49535800  1
  Si  Si6  1  0.26720400  0.28241200  0.99316000  1
  Si  Si7  1  0.27139400  0.71584300  0.00455100  1
  Si  Si8  1  0.76806500  0.21297300  0.49535800  1
  Si  Si9  1  0.76423700  0.78321800  0.51078700  1
  Si  Si10  1  0.72860600  0.71584300  0.00455100  1
  Si  Si11  1  0.73279600  0.28241200  0.99316000  1
  O  O0  1  0.13931700  0.81798200  0.03956700  1
  O  O1  1  0.13603600  0.18708700  0.94301700  1
  O  O2  1  0.36452700  0.31231500  0.44745600  1
  O  O3  1  0.36759000  0.68477600  0.56085500  1
  O  O4  1  0.86396400  0.18708700  0.94301700  1
  O  O5  1  0.86068300  0.81798200  0.03956700  1
  O  O6  1  0.63241000  0.68477600  0.56085500  1
  O  O7  1  0.63547300  0.31231500  0.44745600  1
  O  O8  1  0.17879500  0.71708300  0.38049800  1
  O  O9  1  0.17060100  0.27898600  0.62672700  1
  O  O10  1  0.33183200  0.21268800  0.12240500  1
  O  O11  1  0.33902700  0.77707300  0.87471400  1
  O  O12  1  0.82939900  0.27898600  0.62672700  1
  O  O13  1  0.82120500  0.71708300  0.38049800  1
  O  O14  1  0.66097300  0.77707300  0.87471400  1
  O  O15  1  0.66816800  0.21268800  0.12240500  1
  O  O16  1  0.27199400  0.99913500  0.51013500  1
  O  O17  1  0.23535500  0.49961300  0.00143400  1
  O  O18  1  0.72800600  0.99913500  0.51013500  1
  O  O19  1  0.76464500  0.49961300  0.00143400  1
  O  O20  1  0.00000000  0.43429700  0.22227300  1
  O  O21  1  0.00000000  0.56851400  0.79680500  1
  O  O22  1  0.50000000  0.93773300  0.29023800  1
  O  O23  1  0.50000000  0.06094300  0.71237100  1
  O  O24  1  0.37174200  0.74052400  0.12629400  1
  O  O25  1  0.37146100  0.25908500  0.87376500  1
  O  O26  1  0.12973000  0.22313900  0.37505200  1
  O  O27  1  0.13054600  0.75855800  0.62969400  1
  O  O28  1  0.62853900  0.25908500  0.87376500  1
  O  O29  1  0.62825800  0.74052400  0.12629400  1
  O  O30  1  0.86945400  0.75855800  0.62969400  1
  O  O31  1  0.87027000  0.22313900  0.37505200  1
  O  O32  1  0.50000000  0.56558300  0.30871300  1
  O  O33  1  0.50000000  0.43254500  0.69322700  1
  O  O34  1  0.00000000  0.07012600  0.18518900  1
  O  O35  1  0.00000000  0.94067800  0.80330700  1
loop_
_geom_bond_atom_site_label_1
_geom_bond_atom_site_label_2
_geom_bond_distance
_geom_bond_site_symmetry_2
Na0 O8 2.236927 1_555
Na0 O20 2.454126 1_555
Na0 O26 2.590632 1_555
Na0 O17 2.676791 1_555
Na0 O10 2.709628 1_555
Na0 O24 2.743171 1_555
Na0 O2 2.804963 1_555
Na0 O32 2.910830 1_555
Na1 O9 2.293448 1_555
Na1 O27 2.478177 1_555
Na1 O3 2.515286 1_555
Na1 O11 2.600473 1_555
Na1 O33 2.664861 1_555
Na1 O25 2.721953 1_555
Na1 O21 2.748157 1_555
Na1 O17 2.836137 1_556
Na2 O8 2.329453 1_555
Na2 O34 2.379826 1_565
Na2 O0 2.391845 1_555
Na2 O24 2.596487 1_555
Na2 O26 2.656561 1_565
Na2 O10 2.663719 1_565
Na3 O11 2.356142 1_545
Na3 O1 2.503697 1_555
Na3 O25 2.537659 1_555
Na3 O9 2.573478 1_555
Na3 O35 2.585641 1_545
Na3 O27 2.675232 1_545
Na3 O16 2.746743 1_545
Na3 O23 2.778886 1_555
Na4 O12 2.293448 1_555
Na4 O30 2.478177 1_555
Na4 O6 2.515286 1_555
Na4 O14 2.600473 1_555
Na4 O33 2.664861 1_555
Na4 O28 2.721953 1_555
Na4 O21 2.748157 1_655
Na4 O19 2.836137 1_556
Na5 O13 2.236927 1_555
Na5 O20 2.454126 1_655
Na5 O31 2.590632 1_555
Na5 O19 2.676791 1_555
Na5 O15 2.709628 1_555
Na5 O29 2.743171 1_555
Na5 O7 2.804963 1_555
Na5 O32 2.910830 1_555
Na6 O14 2.356142 1_545
Na6 O4 2.503697 1_555
Na6 O28 2.537659 1_555
Na6 O12 2.573478 1_555
Na6 O35 2.585641 1_645
Na6 O30 2.675232 1_545
Na6 O18 2.746743 1_545
Na6 O23 2.778886 1_555
Na7 O13 2.329453 1_555
Na7 O34 2.379826 1_665
Na7 O5 2.391845 1_555
Na7 O29 2.596487 1_555
Na7 O31 2.656561 1_565
Na7 O15 2.663719 1_565
Na8 O8 2.241501 1_555
Na8 O13 2.241501 1_455
Na8 O20 2.438953 1_555
Na9 O10 2.669347 1_555
Na9 O15 2.669347 1_555
Na9 O24 2.689618 1_545
Na9 O29 2.689618 1_545
Na9 O28 2.729545 1_554
Na9 O25 2.729545 1_554
Na9 O11 2.738854 1_544
Na9 O14 2.738854 1_544
Na10 O22 2.272725 1_545
Na10 O23 2.291038 1_555
Na10 O16 2.369660 1_545
Na10 O18 2.369660 1_545
Na10 O7 2.765583 1_555
Na10 O2 2.765583 1_555
Na10 O6 2.830528 1_545
Na10 O3 2.830528 1_545
Na11 O20 2.282420 1_555
Na11 O21 2.406449 1_554
Na11 O0 2.458492 1_555
Na11 O5 2.458492 1_455
Na11 O19 2.488115 1_455
Na11 O17 2.488115 1_555
Ca0 O12 2.285926 1_455
Ca0 O9 2.285926 1_555
Ca0 O21 2.290333 1_555
Ca0 O1 2.445741 1_555
Ca0 O4 2.445741 1_455
Ca0 O35 2.481893 1_545
Ca1 O15 2.288328 1_555
Ca1 O10 2.288328 1_555
Ca1 O22 2.300303 1_545
Ca1 O32 2.481233 1_555
Ca1 O7 2.483834 1_555
Ca1 O2 2.483834 1_555
Ca2 O11 2.226745 1_555
Ca2 O14 2.226745 1_555
Ca2 O23 2.296405 1_565
Ca2 O6 2.373716 1_555
Ca2 O3 2.373716 1_555
Ca2 O33 2.471971 1_555
Fe0 O7 2.058141 1_555
Fe0 O2 2.058141 1_555
Fe0 O6 2.063311 1_555
Fe0 O3 2.063311 1_555
Fe0 O32 2.079460 1_555
Fe0 O33 2.110782 1_555
Fe1 O34 2.005317 1_565
Fe1 O0 2.010830 1_555
Fe1 O5 2.010830 1_455
Fe1 O4 2.103957 1_464
Fe1 O1 2.103957 1_564
Fe1 O35 2.155586 1_554
O0 Si7 1.613674 1_555
O1 Si6 1.626944 1_555
O2 Si5 1.645027 1_555
O3 Si4 1.642581 1_555
O4 Si11 1.626944 1_555
O5 Si10 1.613674 1_555
O6 Si9 1.642581 1_555
O7 Si8 1.645027 1_555
O8 Si4 1.580582 1_555
O9 Si5 1.607689 1_555
O10 Si6 1.610735 1_554
O11 Si7 1.609978 1_556
O12 Si8 1.607689 1_555
O13 Si9 1.580582 1_555
O14 Si10 1.609978 1_556
O15 Si11 1.610735 1_554
O16 Si4 1.661960 1_555
O16 Si5 1.663602 1_565
O17 Si6 1.664024 1_554
O17 Si7 1.664126 1_555
O18 Si9 1.661960 1_555
O18 Si8 1.663602 1_565
O19 Si11 1.664024 1_554
O19 Si10 1.664126 1_555
O20 Si0 1.592147 1_555
O21 Si1 1.611695 1_555
O22 Si2 1.604764 1_555
O23 Si3 1.607489 1_555
O24 Si7 1.667432 1_555
O24 Si2 1.676590 1_555
O25 Si3 1.665256 1_555
O25 Si6 1.673144 1_555
O26 Si5 1.659269 1_555
O26 Si0 1.679594 1_555
O27 Si1 1.670721 1_555
O27 Si4 1.676681 1_555
O28 Si3 1.665256 1_555
O28 Si11 1.673144 1_555
O29 Si10 1.667432 1_555
O29 Si2 1.676590 1_555
O30 Si1 1.670721 1_655
O30 Si9 1.676681 1_555
O31 Si8 1.659269 1_555
O31 Si0 1.679594 1_655
O32 Si2 1.633570 1_555
O33 Si3 1.627500 1_555
O34 Si0 1.619862 1_555
O35 Si1 1.632140 1_555
