# generated using pymatgen
data_Y5(SiSb)2
_symmetry_space_group_name_H-M   'P 1'
_cell_length_a   8.52894566
_cell_length_b   8.52899699
_cell_length_c   7.89433817
_cell_angle_alpha   90.00227086
_cell_angle_beta   90.00389041
_cell_angle_gamma   124.97486901
_symmetry_Int_Tables_number   1
_chemical_formula_structural   Y5(SiSb)2
_chemical_formula_sum   'Y10 Si4 Sb4'
_cell_volume   470.55118552
_cell_formula_units_Z   2
loop_
 _symmetry_equiv_pos_site_id
 _symmetry_equiv_pos_as_xyz
  1  'x, y, z'
loop_
 _atom_site_type_symbol
 _atom_site_label
 _atom_site_symmetry_multiplicity
 _atom_site_fract_x
 _atom_site_fract_y
 _atom_site_fract_z
 _atom_site_occupancy
  Y  Y0  1  0.03854067  0.29042171  0.33561024  1
  Y  Y1  1  0.96140061  0.70947922  0.66443207  1
  Y  Y2  1  0.46137262  0.20948333  0.83551862  1
  Y  Y3  1  0.79058266  0.53865023  0.16448727  1
  Y  Y4  1  0.53865788  0.79056058  0.16446819  1
  Y  Y5  1  0.20946636  0.46136597  0.83549525  1
  Y  Y6  1  0.70947877  0.96137540  0.66446360  1
  Y  Y7  1  0.29043364  0.03854522  0.33558937  1
  Y  Y8  1  0.00001511  0.00000902  -0.00001665  1
  Y  Y9  1  0.50001355  0.49999627  0.50001083  1
  Si  Si0  1  0.36568442  0.36567866  0.13293601  1
  Si  Si1  1  0.63433070  0.63432038  0.86707319  1
  Si  Si2  1  0.13429390  0.13428860  0.63289906  1
  Si  Si3  1  0.86567304  0.86566096  0.36712241  1
  Sb  Sb0  1  0.79531228  0.20492949  -0.00007561  1
  Sb  Sb1  1  0.20492281  0.79537338  -0.00008483  1
  Sb  Sb2  1  0.70468573  0.29509831  0.50004902  1
  Sb  Sb3  1  0.29513525  0.70476328  0.50002198  1
loop_
_geom_bond_atom_site_label_1
_geom_bond_atom_site_label_2
_geom_bond_distance
_geom_bond_site_symmetry_2
Si0 Y7 2.950193 1_555
Si0 Y0 2.950355 1_555
Si0 Y2 3.033137 1_554
Si0 Y5 3.033342 1_554
Si0 Y4 3.039957 1_555
Si0 Y3 3.040073 1_555
Si0 Y8 3.066493 1_555
Si0 Y9 3.084948 1_555
Si1 Y6 2.949741 1_555
Si1 Y1 2.949968 1_555
Si1 Y4 3.033159 1_556
Si1 Y3 3.033274 1_556
Si1 Y2 3.039647 1_555
Si1 Y5 3.039855 1_555
Si1 Y8 3.066504 1_666
Si1 Y9 3.084848 1_555
Si2 Y2 2.949605 1_555
Si2 Y5 2.949605 1_555
Si2 Y0 3.032322 1_555
Si2 Y7 3.032484 1_555
Si2 Y1 3.039567 1_445
Si2 Y6 3.039582 1_445
Si2 Y9 3.066875 1_555
Si2 Y8 3.085130 1_556
Si3 Y3 2.949533 1_555
Si3 Y4 2.949570 1_555
Si3 Y1 3.032581 1_555
Si3 Y6 3.032824 1_555
Si3 Y7 3.039186 1_665
Si3 Y0 3.039218 1_665
Si3 Y9 3.066494 1_555
Si3 Y8 3.085714 1_665
Sb0 Y8 3.098565 1_655
Sb0 Y3 3.149938 1_555
Sb0 Y2 3.150284 1_554
Sb0 Y5 3.176411 1_654
Sb0 Y4 3.178190 1_545
Sb0 Y6 3.181207 1_544
Sb0 Y0 3.181621 1_655
Sb1 Y8 3.097961 1_565
Sb1 Y4 3.150345 1_555
Sb1 Y5 3.150859 1_554
Sb1 Y2 3.176041 1_564
Sb1 Y3 3.178137 1_455
Sb1 Y1 3.181098 1_454
Sb1 Y7 3.181309 1_565
Sb2 Y9 3.098163 1_555
Sb2 Y6 3.149851 1_545
Sb2 Y0 3.150446 1_655
Sb2 Y7 3.176894 1_555
Sb2 Y1 3.177536 1_555
Sb2 Y2 3.180707 1_555
Sb2 Y3 3.182002 1_555
Sb3 Y9 3.098732 1_555
Sb3 Y1 3.149596 1_455
Sb3 Y7 3.149954 1_565
Sb3 Y0 3.177335 1_555
Sb3 Y6 3.177421 1_555
Sb3 Y5 3.181014 1_555
Sb3 Y4 3.181967 1_555
