# generated using pymatgen
data_Y2MnCrO6
_symmetry_space_group_name_H-M   'P 1'
_cell_length_a   5.33484700
_cell_length_b   5.71640278
_cell_length_c   7.62403439
_cell_angle_alpha   90.43748763
_cell_angle_beta   90.00028544
_cell_angle_gamma   89.99639960
_symmetry_Int_Tables_number   1
_chemical_formula_structural   Y2MnCrO6
_chemical_formula_sum   'Y4 Mn2 Cr2 O12'
_cell_volume   232.49679822
_cell_formula_units_Z   2
loop_
 _symmetry_equiv_pos_site_id
 _symmetry_equiv_pos_as_xyz
  1  'x, y, z'
loop_
 _atom_site_type_symbol
 _atom_site_label
 _atom_site_symmetry_multiplicity
 _atom_site_fract_x
 _atom_site_fract_y
 _atom_site_fract_z
 _atom_site_occupancy
  Y  Y0  1  0.51901300  0.07331300  0.25016800  1
  Y  Y1  1  0.48098400  0.92669500  0.74982900  1
  Y  Y2  1  0.01903900  0.42671200  0.74982600  1
  Y  Y3  1  0.98096300  0.57327700  0.25017700  1
  Mn  Mn0  1  0.49999900  0.50000000  0.50000000  1
  Mn  Mn1  1  0.99999900  0.00000000  0.50000000  1
  Cr  Cr0  1  0.99999900  0.99999000  0.99999800  1
  Cr  Cr1  1  0.50000200  0.50001500  0.00000300  1
  O  O0  1  0.80766800  0.30298900  0.05784600  1
  O  O1  1  0.19233400  0.69701000  0.94215500  1
  O  O2  1  0.30770100  0.19704400  0.94212000  1
  O  O3  1  0.69230200  0.80295800  0.05788200  1
  O  O4  1  0.20360600  0.67950300  0.55671200  1
  O  O5  1  0.79639300  0.32049700  0.44328500  1
  O  O6  1  0.70358800  0.82039000  0.44326800  1
  O  O7  1  0.29641200  0.17960800  0.55672800  1
  O  O8  1  0.38472900  0.45885200  0.24962600  1
  O  O9  1  0.61527100  0.54115100  0.75037600  1
  O  O10  1  0.88497000  0.04080700  0.75036800  1
  O  O11  1  0.11502900  0.95918900  0.24963200  1
loop_
_geom_bond_atom_site_label_1
_geom_bond_atom_site_label_2
_geom_bond_distance
_geom_bond_site_symmetry_2
Mn0 O4 1.932126 1_555
Mn0 O5 1.932135 1_555
Mn0 O8 2.017519 1_555
Mn0 O9 2.017539 1_555
Mn0 O7 2.175634 1_555
Mn0 O6 2.175636 1_555
Mn1 O7 1.932659 1_655
Mn1 O6 1.932663 1_545
Mn1 O10 2.016869 1_555
Mn1 O11 2.016873 1_645
Mn1 O4 2.176051 1_645
Mn1 O5 2.176054 1_555
Cr0 O10 2.014919 1_565
Cr0 O11 2.014938 1_656
Cr0 O3 2.041015 1_556
Cr0 O2 2.041096 1_665
Cr0 O1 2.057936 1_655
Cr0 O0 2.058025 1_566
Cr1 O8 2.015524 1_555
Cr1 O9 2.015527 1_554
Cr1 O1 2.040596 1_554
Cr1 O0 2.040677 1_555
Cr1 O3 2.057829 1_555
Cr1 O2 2.057972 1_554
O0 Y3 2.314666 1_555
O0 Y0 2.504948 1_555
O0 Y2 2.704074 1_654
O1 Y2 2.314694 1_555
O1 Y1 2.504977 1_555
O1 Y3 2.704103 1_456
O2 Y1 2.314608 1_545
O2 Y2 2.504711 1_555
O2 Y0 2.704094 1_556
O3 Y0 2.314619 1_565
O3 Y3 2.504751 1_555
O3 Y1 2.704150 1_554
O4 Y2 2.293048 1_555
O4 Y1 2.514488 1_555
O4 Y3 2.686938 1_455
O5 Y3 2.292985 1_555
O5 Y0 2.514469 1_555
O5 Y2 2.686971 1_655
O6 Y0 2.293392 1_565
O6 Y3 2.514016 1_555
O6 Y1 2.687094 1_555
O7 Y1 2.293354 1_545
O7 Y2 2.514012 1_555
O7 Y0 2.687067 1_555
O8 Y3 2.251108 1_455
O8 Y0 2.317396 1_555
O9 Y2 2.251142 1_655
O9 Y1 2.317428 1_555
O10 Y1 2.251791 1_545
O10 Y2 2.319117 1_655
O11 Y0 2.251801 1_565
O11 Y3 2.319150 1_455
