# generated using pymatgen
data_Li7Mn2(CoO4)3
_symmetry_space_group_name_H-M   'P 1'
_cell_length_a   2.89528900
_cell_length_b   5.18208008
_cell_length_c   14.49347624
_cell_angle_alpha   90.18067566
_cell_angle_beta   91.19390493
_cell_angle_gamma   90.45176309
_symmetry_Int_Tables_number   1
_chemical_formula_structural   Li7Mn2(CoO4)3
_chemical_formula_sum   'Li7 Mn2 Co3 O12'
_cell_volume   217.39943891
_cell_formula_units_Z   1
loop_
 _symmetry_equiv_pos_site_id
 _symmetry_equiv_pos_as_xyz
  1  'x, y, z'
loop_
 _atom_site_type_symbol
 _atom_site_label
 _atom_site_symmetry_multiplicity
 _atom_site_fract_x
 _atom_site_fract_y
 _atom_site_fract_z
 _atom_site_occupancy
  Li  Li0  1  0.01056800  0.66738200  0.82743100  1
  Li  Li1  1  0.48461600  0.83303800  0.67663000  1
  Li  Li2  1  0.98678800  0.00173400  0.50415600  1
  Li  Li3  1  0.50471700  0.15886700  0.32873900  1
  Li  Li4  1  0.00928900  0.33729000  0.16584100  1
  Li  Li5  1  0.51214100  0.49647300  0.99273300  1
  Li  Li6  1  0.49880500  0.17524600  0.83566000  1
  Mn  Mn0  1  0.01212900  0.01345800  0.99552800  1
  Mn  Mn1  1  0.48627100  0.49767100  0.50117400  1
  Co  Co0  1  0.99414500  0.31092000  0.67951400  1
  Co  Co1  1  0.98921600  0.66418300  0.33144500  1
  Co  Co2  1  0.51114800  0.83134200  0.16542500  1
  O  O0  1  0.50405800  0.85333000  0.92786500  1
  O  O1  1  0.99467400  0.01626600  0.74184900  1
  O  O2  1  0.48968600  0.20640400  0.58041200  1
  O  O3  1  0.97906500  0.35028100  0.42513500  1
  O  O4  1  0.51097400  0.51002800  0.25212100  1
  O  O5  1  0.03327700  0.69695100  0.08634900  1
  O  O6  1  0.49988500  0.49728400  0.74273300  1
  O  O7  1  0.99486400  0.64680800  0.57154400  1
  O  O8  1  0.47365600  0.80077900  0.41721600  1
  O  O9  1  0.99195900  0.98265400  0.24754500  1
  O  O10  1  0.52196300  0.14589500  0.07703400  1
  O  O11  1  0.00610500  0.30571500  0.92592000  1
loop_
_geom_bond_atom_site_label_1
_geom_bond_atom_site_label_2
_geom_bond_distance
_geom_bond_site_symmetry_2
Li0 O6 2.089753 1_455
Li0 O6 2.091965 1_555
Li0 O1 2.195997 1_465
Li0 O0 2.229716 1_555
Li0 O0 2.302259 1_455
Li0 O11 2.359579 1_555
Li1 O1 1.969446 1_465
Li1 O1 1.972294 1_565
Li1 O6 1.989237 1_555
Li1 O7 2.267346 1_455
Li1 O7 2.353825 1_555
Li1 O2 2.388694 1_565
Li2 O7 2.085276 1_545
Li2 O2 2.089890 1_655
Li2 O2 2.121515 1_555
Li2 O3 2.141765 1_555
Li2 O8 2.179020 1_645
Li2 O8 2.183739 1_545
Li3 O9 2.071587 1_545
Li3 O9 2.078867 1_445
Li3 O4 2.134944 1_555
Li3 O3 2.170671 1_555
Li3 O8 2.261209 1_545
Li3 O3 2.314245 1_455
Li4 O4 2.090835 1_555
Li4 O10 2.127294 1_455
Li4 O4 2.129574 1_455
Li4 O9 2.190175 1_445
Li4 O5 2.195621 1_555
Li4 O10 2.222261 1_555
Li5 O11 1.993355 1_555
Li5 O11 2.008541 1_655
Li5 O0 2.077246 1_555
Li5 O10 2.192599 1_556
Li5 O5 2.221423 1_556
Li5 O5 2.253428 1_656
Li6 O11 2.055348 1_655
Li6 O11 2.071418 1_555
Li6 O1 2.132858 1_455
Li6 O0 2.140702 1_545
Li6 O6 2.147842 1_555
Li6 O1 2.163674 1_555
Mn0 O11 1.822398 1_555
Mn0 O0 1.931233 1_445
Mn0 O0 1.936635 1_545
Mn0 O10 1.987877 1_556
Mn0 O10 1.990137 1_456
Mn0 O5 2.106753 1_546
Mn1 O2 1.899444 1_555
Mn1 O7 1.928812 1_555
Mn1 O7 1.932508 1_455
Mn1 O3 1.965707 1_455
Mn1 O3 1.977633 1_555
Mn1 O8 1.990061 1_555
Co0 O1 1.776624 1_555
Co0 O6 1.957676 1_655
Co0 O6 1.972538 1_555
Co0 O2 2.093994 1_555
Co0 O2 2.123224 1_655
Co0 O7 2.344298 1_555
Co1 O4 1.946175 1_555
Co1 O8 1.979850 1_655
Co1 O9 2.053097 1_555
Co1 O4 2.080279 1_655
Co1 O8 2.088775 1_555
Co1 O3 2.122644 1_555
Co2 O5 1.904335 1_555
Co2 O9 1.969055 1_555
Co2 O5 2.041462 1_655
Co2 O10 2.076835 1_565
Co2 O4 2.089149 1_555
Co2 O9 2.092436 1_455
