# generated using pymatgen
data_Ag3CN(ClO5)2
_symmetry_space_group_name_H-M   'P 1'
_cell_length_a   4.86581100
_cell_length_b   21.80293300
_cell_length_c   5.22039452
_cell_angle_alpha   90.00000000
_cell_angle_beta   90.85887709
_cell_angle_gamma   90.00000000
_symmetry_Int_Tables_number   1
_chemical_formula_structural   Ag3CN(ClO5)2
_chemical_formula_sum   'Ag6 C2 N2 Cl4 O20'
_cell_volume   553.76395631
_cell_formula_units_Z   2
loop_
 _symmetry_equiv_pos_site_id
 _symmetry_equiv_pos_as_xyz
  1  'x, y, z'
loop_
 _atom_site_type_symbol
 _atom_site_label
 _atom_site_symmetry_multiplicity
 _atom_site_fract_x
 _atom_site_fract_y
 _atom_site_fract_z
 _atom_site_occupancy
  Ag  Ag0  1  0.26736300  0.24134900  0.92821700  1
  Ag  Ag1  1  0.73263700  0.74134900  0.07178300  1
  Ag  Ag2  1  0.14930000  0.13388700  0.62011500  1
  Ag  Ag3  1  0.85070000  0.63388700  0.37988500  1
  Ag  Ag4  1  0.29301200  0.36573600  0.34391100  1
  Ag  Ag5  1  0.70698800  0.86573600  0.65608900  1
  C  C0  1  0.24205700  0.23185600  0.53290400  1
  C  C1  1  0.75794300  0.73185600  0.46709600  1
  N  N0  1  0.24906400  0.25708700  0.33278300  1
  N  N1  1  0.75093600  0.75708700  0.66721700  1
  Cl  Cl0  1  0.79319900  0.37917100  0.84716100  1
  Cl  Cl1  1  0.20680100  0.87917100  0.15283900  1
  Cl  Cl2  1  0.65648600  0.10590700  0.13917700  1
  Cl  Cl3  1  0.34351400  0.60590700  0.86082300  1
  O  O0  1  0.69213200  0.43822600  0.92351900  1
  O  O1  1  0.30786800  0.93822600  0.07648100  1
  O  O2  1  0.74047800  0.36831100  0.57019600  1
  O  O3  1  0.25952200  0.86831100  0.42980400  1
  O  O4  1  0.66386500  0.33003400  0.99677200  1
  O  O5  1  0.33613500  0.83003400  0.00322800  1
  O  O6  1  0.09540600  0.37491000  0.88728300  1
  O  O7  1  0.90459400  0.87491000  0.11271700  1
  O  O8  1  0.78155400  0.04804300  0.08109300  1
  O  O9  1  0.21844600  0.54804300  0.91890700  1
  O  O10  1  0.77257000  0.15535500  0.98173700  1
  O  O11  1  0.22743000  0.65535500  0.01826300  1
  O  O12  1  0.70185300  0.12139600  0.41496100  1
  O  O13  1  0.29814700  0.62139600  0.58503900  1
  O  O14  1  0.35646700  0.10406200  0.09522700  1
  O  O15  1  0.64353300  0.60406200  0.90477300  1
  O  O16  1  0.05690800  0.00616500  0.60783800  1
  O  O17  1  0.94309200  0.50616500  0.39216200  1
  O  O18  1  0.17158700  0.48152600  0.40030000  1
  O  O19  1  0.82841300  0.98152600  0.59970000  1
loop_
_geom_bond_atom_site_label_1
_geom_bond_atom_site_label_2
_geom_bond_distance
_geom_bond_site_symmetry_2
Ag0 C0 2.075861 1_555
Ag0 N0 2.142855 1_556
Ag0 O4 2.751068 1_555
Ag1 C1 2.075861 1_555
Ag1 N1 2.142855 1_554
Ag1 O5 2.751068 1_555
Ag2 C0 2.231521 1_555
Ag2 O12 2.427229 1_455
Ag2 O10 2.692007 1_455
Ag2 O14 2.741493 1_556
Ag2 O16 2.821344 1_555
Ag3 C1 2.231521 1_555
Ag3 O13 2.427229 1_655
Ag3 O11 2.692007 1_655
Ag3 O15 2.741493 1_554
Ag3 O17 2.821344 1_555
Ag4 N0 2.379130 1_555
Ag4 O2 2.462129 1_555
Ag4 O6 2.564800 1_554
Ag4 O18 2.610433 1_555
Ag4 O4 2.691516 1_554
Ag5 N1 2.379130 1_555
Ag5 O3 2.462129 1_555
Ag5 O7 2.564800 1_556
Ag5 O19 2.610433 1_555
Ag5 O5 2.691516 1_556
C0 N0 1.181639 1_555
C1 N1 1.181639 1_555
Cl0 O0 1.436822 1_555
Cl0 O4 1.472592 1_555
Cl0 O2 1.483672 1_555
Cl0 O6 1.485121 1_655
Cl1 O1 1.436822 1_555
Cl1 O5 1.472592 1_555
Cl1 O3 1.483672 1_555
Cl1 O7 1.485121 1_455
Cl2 O8 1.435083 1_555
Cl2 O10 1.473366 1_554
Cl2 O14 1.474903 1_555
Cl2 O12 1.491974 1_555
Cl3 O9 1.435083 1_555
Cl3 O11 1.473366 1_556
Cl3 O15 1.474903 1_555
Cl3 O13 1.491974 1_555
O16 O19 1.234951 1_445
O17 O18 1.234951 1_655
