# generated using pymatgen
data_ZrBRh3
_symmetry_space_group_name_H-M   'P 1'
_cell_length_a   4.75843000
_cell_length_b   4.75843000
_cell_length_c   4.75843000
_cell_angle_alpha   90.00000000
_cell_angle_beta   90.00000000
_cell_angle_gamma   90.00000000
_symmetry_Int_Tables_number   1
_chemical_formula_structural   ZrBRh3
_chemical_formula_sum   'Zr1 B1 Rh3'
_cell_volume   107.74349390
_cell_formula_units_Z   1
loop_
 _symmetry_equiv_pos_site_id
 _symmetry_equiv_pos_as_xyz
  1  'x, y, z'
loop_
 _atom_site_type_symbol
 _atom_site_label
 _atom_site_symmetry_multiplicity
 _atom_site_fract_x
 _atom_site_fract_y
 _atom_site_fract_z
 _atom_site_occupancy
  Zr  Zr0  1  0.00000000  0.00000000  0.00000000  1
  B  B0  1  0.50000000  0.50000000  0.50000000  1
  Rh  Rh0  1  0.50000000  0.00000000  0.00000000  1
  Rh  Rh1  1  0.00000000  0.50000000  0.00000000  1
  Rh  Rh2  1  0.00000000  0.00000000  0.50000000  1
loop_
_geom_bond_atom_site_label_1
_geom_bond_atom_site_label_2
_geom_bond_distance
_geom_bond_site_symmetry_2
Rh0 Zr0 2.379215 1_555
Rh0 Zr0 2.379215 1_655
Rh1 Zr0 2.379215 1_555
Rh1 Zr0 2.379215 1_565
Rh2 Zr0 2.379215 1_555
Rh2 Zr0 2.379215 1_556
