# generated using pymatgen
data_KNaMg14O15
_symmetry_space_group_name_H-M   'P 1'
_cell_length_a   8.74771706
_cell_length_b   8.65397638
_cell_length_c   4.43319747
_cell_angle_alpha   90.00000000
_cell_angle_beta   90.00000000
_cell_angle_gamma   90.00000000
_symmetry_Int_Tables_number   1
_chemical_formula_structural   KNaMg14O15
_chemical_formula_sum   'K1 Na1 Mg14 O15'
_cell_volume   335.60429469
_cell_formula_units_Z   1
loop_
 _symmetry_equiv_pos_site_id
 _symmetry_equiv_pos_as_xyz
  1  'x, y, z'
loop_
 _atom_site_type_symbol
 _atom_site_label
 _atom_site_symmetry_multiplicity
 _atom_site_fract_x
 _atom_site_fract_y
 _atom_site_fract_z
 _atom_site_occupancy
  K  K0  1  0.98798920  0.00000000  0.00000000  1
  Na  Na0  1  0.50215868  0.50000000  0.00000000  1
  Mg  Mg0  1  0.97773649  0.50000000  0.00000000  1
  Mg  Mg1  1  0.49751688  0.00000000  0.00000000  1
  Mg  Mg2  1  0.00905829  0.25189957  0.50000000  1
  Mg  Mg3  1  0.00905829  0.74810043  0.50000000  1
  Mg  Mg4  1  0.49545563  0.25213149  0.50000000  1
  Mg  Mg5  1  0.49545563  0.74786851  0.50000000  1
  Mg  Mg6  1  0.25265884  0.00000000  0.50000000  1
  Mg  Mg7  1  0.24812566  0.50000000  0.50000000  1
  Mg  Mg8  1  0.74188191  0.00000000  0.50000000  1
  Mg  Mg9  1  0.74360217  0.50000000  0.50000000  1
  Mg  Mg10  1  0.25648281  0.22537636  0.00000000  1
  Mg  Mg11  1  0.25648281  0.77462364  0.00000000  1
  Mg  Mg12  1  0.73075839  0.25022628  0.00000000  1
  Mg  Mg13  1  0.73075839  0.74977372  -0.00000000  1
  O  O0  1  0.27083259  0.00000000  0.00000000  1
  O  O1  1  0.72074432  0.00000000  0.00000000  1
  O  O2  1  0.75417960  0.50000000  0.00000000  1
  O  O3  1  0.25483703  0.25923785  0.50000000  1
  O  O4  1  0.25483703  0.74076215  0.50000000  1
  O  O5  1  0.75076383  0.25128583  0.50000000  1
  O  O6  1  0.75076383  0.74871417  0.50000000  1
  O  O7  1  0.01714149  0.00000000  0.50000000  1
  O  O8  1  0.00785944  0.50000000  0.50000000  1
  O  O9  1  0.49599638  0.00000000  0.50000000  1
  O  O10  1  0.48461800  0.50000000  0.50000000  1
  O  O11  1  0.03388022  0.28376175  -0.00000000  1
  O  O12  1  0.03388022  0.71623825  -0.00000000  1
  O  O13  1  0.49224298  0.24331484  -0.00000000  1
  O  O14  1  0.49224298  0.75668516  0.00000000  1
loop_
_geom_bond_atom_site_label_1
_geom_bond_atom_site_label_2
_geom_bond_distance
_geom_bond_site_symmetry_2
K0 O7 2.231220 1_655
K0 O7 2.231220 1_654
K0 O1 2.337783 1_555
K0 O0 2.474234 1_655
K0 O11 2.488264 1_655
K0 O12 2.488264 1_645
Na0 O2 2.204608 1_555
Na0 O10 2.221903 1_555
Na0 O10 2.221903 1_554
Na0 O14 2.223040 1_555
Na0 O13 2.223040 1_555
Mg0 O12 1.934696 1_655
Mg0 O11 1.934696 1_655
Mg0 O2 1.955612 1_555
Mg0 O8 2.232207 1_654
Mg0 O8 2.232207 1_655
Mg1 O1 1.952730 1_555
Mg1 O0 1.982970 1_555
Mg1 O13 2.106146 1_555
Mg1 O14 2.106146 1_545
Mg1 O9 2.216639 1_555
Mg1 O9 2.216639 1_554
Mg2 O8 2.147081 1_555
Mg2 O3 2.150941 1_555
Mg2 O7 2.181079 1_555
Mg2 O11 2.244212 1_556
Mg2 O11 2.244212 1_555
Mg2 O5 2.259493 1_455
Mg3 O8 2.147081 1_555
Mg3 O4 2.150941 1_555
Mg3 O7 2.181079 1_565
Mg3 O12 2.244212 1_556
Mg3 O12 2.244212 1_555
Mg3 O6 2.259493 1_455
Mg4 O3 2.105762 1_555
Mg4 O10 2.147142 1_555
Mg4 O9 2.181945 1_555
Mg4 O13 2.218090 1_555
Mg4 O13 2.218090 1_556
Mg4 O5 2.233376 1_555
Mg5 O4 2.105762 1_555
Mg5 O10 2.147142 1_555
Mg5 O9 2.181945 1_565
Mg5 O14 2.218090 1_555
Mg5 O14 2.218090 1_556
Mg5 O6 2.233376 1_555
Mg6 O7 2.060239 1_555
Mg6 O9 2.128648 1_555
Mg6 O0 2.222293 1_555
Mg6 O0 2.222293 1_556
Mg6 O3 2.243519 1_555
Mg6 O4 2.243519 1_545
Mg7 O10 2.068768 1_555
Mg7 O3 2.084377 1_555
Mg7 O4 2.084377 1_555
Mg7 O8 2.101781 1_555
Mg8 O9 2.150937 1_555
Mg8 O6 2.176009 1_545
Mg8 O5 2.176009 1_555
Mg8 O1 2.224298 1_556
Mg8 O1 2.224298 1_555
Mg8 O7 2.407893 1_655
Mg9 O5 2.153278 1_555
Mg9 O6 2.153278 1_555
Mg9 O2 2.218529 1_555
Mg9 O2 2.218529 1_556
Mg9 O10 2.265520 1_555
Mg9 O8 2.311648 1_655
Mg10 O0 1.954437 1_555
Mg10 O11 2.011749 1_555
Mg10 O13 2.068198 1_555
Mg10 O3 2.235931 1_554
Mg10 O3 2.235931 1_555
Mg11 O0 1.954437 1_565
Mg11 O12 2.011749 1_555
Mg11 O14 2.068198 1_555
Mg11 O4 2.235931 1_554
Mg11 O4 2.235931 1_555
Mg12 O13 2.087322 1_555
Mg12 O1 2.167223 1_555
Mg12 O2 2.171224 1_555
Mg12 O5 2.223515 1_555
Mg12 O5 2.223515 1_554
Mg12 O11 2.667458 1_655
Mg13 O14 2.087322 1_555
Mg13 O1 2.167223 1_565
Mg13 O2 2.171224 1_555
Mg13 O6 2.223515 1_555
Mg13 O6 2.223515 1_554
Mg13 O12 2.667458 1_655
