# generated using pymatgen
data_Ca2AgPd2
_symmetry_space_group_name_H-M   'P 1'
_cell_length_a   5.58449848
_cell_length_b   5.58449848
_cell_length_c   5.58449848
_cell_angle_alpha   132.61784561
_cell_angle_beta   117.59160585
_cell_angle_gamma   81.93644862
_symmetry_Int_Tables_number   1
_chemical_formula_structural   Ca2AgPd2
_chemical_formula_sum   'Ca2 Ag1 Pd2'
_cell_volume   109.50201078
_cell_formula_units_Z   1
loop_
 _symmetry_equiv_pos_site_id
 _symmetry_equiv_pos_as_xyz
  1  'x, y, z'
loop_
 _atom_site_type_symbol
 _atom_site_label
 _atom_site_symmetry_multiplicity
 _atom_site_fract_x
 _atom_site_fract_y
 _atom_site_fract_z
 _atom_site_occupancy
  Ca  Ca0  1  0.70220919  0.20220919  0.50000000  1
  Ca  Ca1  1  0.29779081  0.79779081  0.50000000  1
  Ag  Ag0  1  0.00000000  0.00000000  0.00000000  1
  Pd  Pd0  1  0.73119158  0.50000000  0.23119158  1
  Pd  Pd1  1  0.26880842  0.50000000  0.76880842  1
loop_
_geom_bond_atom_site_label_1
_geom_bond_atom_site_label_2
_geom_bond_distance
_geom_bond_site_symmetry_2
Ca0 Pd1 2.954079 1_655
Ca0 Pd0 2.954079 1_555
Ca0 Pd1 3.119744 1_544
Ca0 Pd0 3.119744 1_556
Ca0 Pd0 3.119744 1_545
Ca0 Pd1 3.119744 1_555
Ca1 Pd0 2.954079 1_455
Ca1 Pd1 2.954079 1_555
Ca1 Pd0 3.119744 1_555
Ca1 Pd1 3.119744 1_565
Ca1 Pd1 3.119744 1_554
Ca1 Pd0 3.119744 1_566
Ag0 Pd0 2.730291 1_455
Ag0 Pd1 2.730291 1_544
Ag0 Pd0 2.730291 1_444
Ag0 Pd1 2.730291 1_555
Ag0 Ca1 3.358439 1_444
Ag0 Ca0 3.358439 1_555
Ag0 Ca0 3.358439 1_454
Ag0 Ca1 3.358439 1_545
Ag0 Ca1 3.367802 1_555
Ag0 Ca0 3.367802 1_455
Ag0 Ca1 3.367802 1_544
Ag0 Ca0 3.367802 1_444
Pd0 Pd1 2.675600 1_554
