# generated using pymatgen
data_Li9Co7O16
_symmetry_space_group_name_H-M   'P 1'
_cell_length_a   4.95371000
_cell_length_b   5.80800735
_cell_length_c   9.73957193
_cell_angle_alpha   98.52674311
_cell_angle_beta   94.61596929
_cell_angle_gamma   89.59049202
_symmetry_Int_Tables_number   1
_chemical_formula_structural   Li9Co7O16
_chemical_formula_sum   'Li9 Co7 O16'
_cell_volume   276.21958768
_cell_formula_units_Z   1
loop_
 _symmetry_equiv_pos_site_id
 _symmetry_equiv_pos_as_xyz
  1  'x, y, z'
loop_
 _atom_site_type_symbol
 _atom_site_label
 _atom_site_symmetry_multiplicity
 _atom_site_fract_x
 _atom_site_fract_y
 _atom_site_fract_z
 _atom_site_occupancy
  Li  Li0  1  0.86981100  0.06058600  0.24511900  1
  Li  Li1  1  0.13018900  0.93941400  0.75488100  1
  Li  Li2  1  0.37354700  0.81415100  0.24466000  1
  Li  Li3  1  0.87144800  0.56335700  0.24684300  1
  Li  Li4  1  0.12855200  0.43664300  0.75315700  1
  Li  Li5  1  0.37601300  0.30838800  0.24477800  1
  Li  Li6  1  0.62645300  0.18584900  0.75534000  1
  Li  Li7  1  0.62398700  0.69161200  0.75522200  1
  Li  Li8  1  0.50000000  0.00000000  0.00000000  1
  Co  Co0  1  0.00068900  0.24605200  0.00003500  1
  Co  Co1  1  0.99931100  0.75394800  0.99996500  1
  Co  Co2  1  0.24972400  0.12267500  0.50104300  1
  Co  Co3  1  0.75027600  0.87732500  0.49895700  1
  Co  Co4  1  0.25070900  0.62720600  0.49879100  1
  Co  Co5  1  0.50000000  0.50000000  0.00000000  1
  Co  Co6  1  0.74929100  0.37279400  0.50120900  1
  O  O0  1  0.69349800  0.29798000  0.10723600  1
  O  O1  1  0.94126500  0.15245000  0.62111800  1
  O  O2  1  0.15427200  0.02624000  0.10848300  1
  O  O3  1  0.69154400  0.75625000  0.10652400  1
  O  O4  1  0.94286100  0.65846000  0.61715500  1
  O  O5  1  0.18519100  0.52590700  0.10678200  1
  O  O6  1  0.44783000  0.40517300  0.61846900  1
  O  O7  1  0.43762400  0.90861800  0.62172700  1
  O  O8  1  0.05873500  0.84755000  0.37888200  1
  O  O9  1  0.30650200  0.70202000  0.89276400  1
  O  O10  1  0.55217000  0.59482700  0.38153100  1
  O  O11  1  0.05713900  0.34154000  0.38284500  1
  O  O12  1  0.30845600  0.24375000  0.89347600  1
  O  O13  1  0.56237600  0.09138200  0.37827300  1
  O  O14  1  0.84572800  0.97376000  0.89151700  1
  O  O15  1  0.81480900  0.47409300  0.89321800  1
loop_
_geom_bond_atom_site_label_1
_geom_bond_atom_site_label_2
_geom_bond_distance
_geom_bond_site_symmetry_2
Li0 O2 2.003875 1_655
Li0 O13 2.068433 1_555
Li0 O8 2.090288 1_645
Li0 O11 2.120231 1_655
Li0 O0 2.193263 1_555
Li0 O3 2.202092 1_545
Li1 O14 2.003875 1_455
Li1 O7 2.068433 1_555
Li1 O1 2.090288 1_465
Li1 O4 2.120231 1_455
Li1 O9 2.193263 1_555
Li1 O12 2.202092 1_565
Li2 O13 2.089332 1_565
Li2 O8 2.104086 1_555
Li2 O10 2.116664 1_555
Li2 O3 2.145690 1_555
Li2 O5 2.151880 1_555
Li2 O2 2.165597 1_565
Li3 O3 2.039804 1_555
Li3 O0 2.050988 1_555
Li3 O8 2.106991 1_655
Li3 O10 2.124720 1_555
Li3 O11 2.133884 1_655
Li3 O5 2.138248 1_655
Li4 O12 2.039804 1_555
Li4 O9 2.050988 1_555
Li4 O1 2.106991 1_455
Li4 O6 2.124720 1_555
Li4 O4 2.133884 1_455
Li4 O15 2.138248 1_455
Li5 O13 2.099384 1_555
Li5 O10 2.116548 1_555
Li5 O5 2.139618 1_555
Li5 O0 2.141352 1_555
Li5 O11 2.145053 1_555
Li5 O2 2.190906 1_555
Li6 O7 2.089332 1_545
Li6 O1 2.104086 1_555
Li6 O6 2.116664 1_555
Li6 O12 2.145690 1_555
Li6 O15 2.151880 1_555
Li6 O14 2.165597 1_545
Li7 O7 2.099384 1_555
Li7 O6 2.116548 1_555
Li7 O15 2.139618 1_555
Li7 O9 2.141352 1_555
Li7 O4 2.145053 1_555
Li7 O14 2.190906 1_555
Li8 O3 2.058845 1_545
Li8 O12 2.058845 1_554
Li8 O14 2.076650 1_544
Li8 O2 2.076650 1_555
Li8 O9 2.081202 1_544
Li8 O0 2.081202 1_555
Co0 O2 1.892353 1_555
Co0 O14 1.896970 1_444
Co0 O12 1.911001 1_554
Co0 O0 1.911166 1_455
Co0 O15 1.980250 1_454
Co0 O5 1.981250 1_555
Co1 O14 1.892353 1_555
Co1 O2 1.896970 1_666
Co1 O3 1.911001 1_556
Co1 O9 1.911166 1_655
Co1 O5 1.980250 1_656
Co1 O15 1.981250 1_555
Co2 O1 1.989043 1_455
Co2 O7 2.008568 1_545
Co2 O11 2.022650 1_555
Co2 O13 2.022658 1_555
Co2 O8 2.034881 1_545
Co2 O6 2.061320 1_555
Co3 O8 1.989043 1_655
Co3 O13 2.008568 1_565
Co3 O4 2.022650 1_555
Co3 O7 2.022658 1_555
Co3 O1 2.034881 1_565
Co3 O10 2.061320 1_555
Co4 O10 1.943340 1_555
Co4 O4 1.975974 1_455
Co4 O8 2.037918 1_555
Co4 O6 2.054191 1_555
Co4 O7 2.055537 1_555
Co4 O11 2.059207 1_555
Co5 O0 1.890113 1_555
Co5 O9 1.890113 1_554
Co5 O3 1.896210 1_555
Co5 O12 1.896210 1_554
Co5 O5 1.935847 1_555
Co5 O15 1.935847 1_554
Co6 O6 1.943340 1_555
Co6 O11 1.975974 1_655
Co6 O1 2.037918 1_555
Co6 O10 2.054191 1_555
Co6 O13 2.055537 1_555
Co6 O4 2.059207 1_555
