# generated using pymatgen
data_MgU(PbO3)2
_symmetry_space_group_name_H-M   'P 1'
_cell_length_a   5.84456200
_cell_length_b   5.87400700
_cell_length_c   10.27199057
_cell_angle_alpha   55.95925300
_cell_angle_beta   90.00000000
_cell_angle_gamma   90.00000000
_symmetry_Int_Tables_number   1
_chemical_formula_structural   MgU(PbO3)2
_chemical_formula_sum   'Mg2 U2 Pb4 O12'
_cell_volume   292.21786868
_cell_formula_units_Z   2
loop_
 _symmetry_equiv_pos_site_id
 _symmetry_equiv_pos_as_xyz
  1  'x, y, z'
loop_
 _atom_site_type_symbol
 _atom_site_label
 _atom_site_symmetry_multiplicity
 _atom_site_fract_x
 _atom_site_fract_y
 _atom_site_fract_z
 _atom_site_occupancy
  Mg  Mg0  1  0.00000000  0.50000000  0.00000000  1
  Mg  Mg1  1  0.50000000  0.50000000  0.50000000  1
  U  U0  1  0.00000000  0.00000000  0.50000000  1
  U  U1  1  0.50000000  0.00000000  0.00000000  1
  Pb  Pb0  1  0.97245300  0.28156400  0.73874200  1
  Pb  Pb1  1  0.52754700  0.28156400  0.23874200  1
  Pb  Pb2  1  0.02754700  0.71843600  0.26125800  1
  Pb  Pb3  1  0.47245300  0.71843600  0.76125800  1
  O  O0  1  0.51877600  0.30349300  0.74939800  1
  O  O1  1  0.98122400  0.30349300  0.24939800  1
  O  O2  1  0.48122400  0.69650700  0.25060200  1
  O  O3  1  0.01877600  0.69650700  0.75060200  1
  O  O4  1  0.69481000  0.71265500  0.98612100  1
  O  O5  1  0.80519000  0.71265500  0.48612100  1
  O  O6  1  0.30519000  0.28734500  0.01387900  1
  O  O7  1  0.19481000  0.28734500  0.51387900  1
  O  O8  1  0.78909000  0.17612300  0.02175100  1
  O  O9  1  0.71091000  0.17612300  0.52175100  1
  O  O10  1  0.21091000  0.82387700  0.97824900  1
  O  O11  1  0.28909000  0.82387700  0.47824900  1
loop_
_geom_bond_atom_site_label_1
_geom_bond_atom_site_label_2
_geom_bond_distance
_geom_bond_site_symmetry_2
Mg0 O4 2.136091 1_454
Mg0 O6 2.136091 1_555
Mg0 O1 2.143988 1_455
Mg0 O3 2.143988 1_554
Mg0 O10 2.170914 1_554
Mg0 O8 2.170914 1_455
Mg1 O5 2.136091 1_555
Mg1 O7 2.136091 1_555
Mg1 O2 2.143988 1_555
Mg1 O0 2.143988 1_555
Mg1 O11 2.170914 1_555
Mg1 O9 2.170914 1_555
O0 U1 2.163056 1_556
O0 Pb3 2.522180 1_555
O0 Pb0 2.659895 1_555
O1 U0 2.163056 1_655
O1 Pb2 2.522180 1_655
O1 Pb1 2.659895 1_555
O2 U1 2.163056 1_565
O2 Pb1 2.522180 1_555
O2 Pb2 2.659895 1_555
O3 U0 2.163056 1_565
O3 Pb0 2.522180 1_455
O3 Pb3 2.659895 1_555
O4 U1 2.105940 1_566
O4 Pb1 2.597090 1_556
O4 Pb3 2.633890 1_555
O5 U0 2.105940 1_665
O5 Pb0 2.597090 1_555
O5 Pb2 2.633890 1_655
O6 U1 2.105940 1_555
O6 Pb3 2.597090 1_554
O6 Pb1 2.633890 1_555
O7 U0 2.105940 1_555
O7 Pb2 2.597090 1_555
O7 Pb0 2.633890 1_455
O8 U1 2.057609 1_555
O8 Pb2 2.796030 1_645
O8 Pb0 2.822645 1_554
O9 U0 2.057609 1_655
O9 Pb3 2.796030 1_545
O9 Pb1 2.822645 1_555
O10 U1 2.057609 1_566
O10 Pb0 2.796030 1_465
O10 Pb2 2.822645 1_556
O11 U0 2.057609 1_565
O11 Pb1 2.796030 1_565
O11 Pb3 2.822645 1_555
