# generated using pymatgen
data_Ce4ThO10
_symmetry_space_group_name_H-M   'P 1'
_cell_length_a   13.94370191
_cell_length_b   13.94370191
_cell_length_c   13.94370191
_cell_angle_alpha   164.05125349
_cell_angle_beta   164.05125349
_cell_angle_gamma   22.62897446
_symmetry_Int_Tables_number   1
_chemical_formula_structural   Ce4ThO10
_chemical_formula_sum   'Ce4 Th1 O10'
_cell_volume   204.65036065
_cell_formula_units_Z   1
loop_
 _symmetry_equiv_pos_site_id
 _symmetry_equiv_pos_as_xyz
  1  'x, y, z'
loop_
 _atom_site_type_symbol
 _atom_site_label
 _atom_site_symmetry_multiplicity
 _atom_site_fract_x
 _atom_site_fract_y
 _atom_site_fract_z
 _atom_site_occupancy
  Ce  Ce0  1  0.39847534  0.39847534  0.00000000  1
  Ce  Ce1  1  0.79950079  0.79950079  0.00000000  1
  Ce  Ce2  1  0.20049921  0.20049921  -0.00000000  1
  Ce  Ce3  1  0.60152466  0.60152466  0.00000000  1
  Th  Th0  1  -0.00000000  -0.00000000  0.00000000  1
  O  O0  1  0.15099109  0.65099109  0.50000000  1
  O  O1  1  0.55166337  0.05166337  0.50000000  1
  O  O2  1  0.94833663  0.44833663  0.50000000  1
  O  O3  1  0.34900891  0.84900891  0.50000000  1
  O  O4  1  0.75000000  0.25000000  0.50000000  1
  O  O5  1  0.05166337  0.55166337  0.50000000  1
  O  O6  1  0.44833663  0.94833663  0.50000000  1
  O  O7  1  0.84900891  0.34900891  0.50000000  1
  O  O8  1  0.25000000  0.75000000  0.50000000  1
  O  O9  1  0.65099109  0.15099109  0.50000000  1
loop_
_geom_bond_atom_site_label_1
_geom_bond_atom_site_label_2
_geom_bond_distance
_geom_bond_site_symmetry_2
Ce0 O7 2.360443 1_555
Ce0 O3 2.360443 1_555
Ce0 O7 2.360443 1_454
Ce0 O3 2.360443 1_544
Ce0 O6 2.366648 1_544
Ce0 O2 2.366648 1_555
Ce0 O6 2.366648 1_555
Ce0 O2 2.366648 1_454
Ce1 O4 2.360982 1_554
Ce1 O4 2.360982 1_565
Ce1 O8 2.360982 1_554
Ce1 O8 2.360982 1_655
Ce1 O3 2.361097 1_554
Ce1 O7 2.361097 1_554
Ce1 O3 2.361097 1_655
Ce1 O7 2.361097 1_565
Ce2 O8 2.360982 1_555
Ce2 O4 2.360982 1_454
Ce2 O8 2.360982 1_544
Ce2 O4 2.360982 1_555
Ce2 O0 2.361097 1_555
Ce2 O9 2.361097 1_555
Ce2 O9 2.361097 1_454
Ce2 O0 2.361097 1_544
Ce3 O0 2.360443 1_554
Ce3 O9 2.360443 1_554
Ce3 O0 2.360443 1_655
Ce3 O9 2.360443 1_565
Ce3 O1 2.366648 1_554
Ce3 O5 2.366648 1_554
Ce3 O1 2.366648 1_565
Ce3 O5 2.366648 1_655
O1 Th0 2.395377 1_656
O1 Th0 2.395377 1_555
O2 Th0 2.395377 1_655
O2 Th0 2.395377 1_666
O5 Th0 2.395377 1_555
O5 Th0 2.395377 1_566
O6 Th0 2.395377 1_565
O6 Th0 2.395377 1_666
