# generated using pymatgen
data_SrEu(WO3)2
_symmetry_space_group_name_H-M   'P 1'
_cell_length_a   5.80650588
_cell_length_b   5.79463621
_cell_length_c   8.07870510
_cell_angle_alpha   90.00000000
_cell_angle_beta   90.00000000
_cell_angle_gamma   90.00000000
_symmetry_Int_Tables_number   1
_chemical_formula_structural   SrEu(WO3)2
_chemical_formula_sum   'Sr2 Eu2 W4 O12'
_cell_volume   271.82087198
_cell_formula_units_Z   2
loop_
 _symmetry_equiv_pos_site_id
 _symmetry_equiv_pos_as_xyz
  1  'x, y, z'
loop_
 _atom_site_type_symbol
 _atom_site_label
 _atom_site_symmetry_multiplicity
 _atom_site_fract_x
 _atom_site_fract_y
 _atom_site_fract_z
 _atom_site_occupancy
  Sr  Sr0  1  0.74518118  0.98394253  0.50000000  1
  Sr  Sr1  1  0.25481882  0.48394253  0.50000000  1
  Eu  Eu0  1  0.24397934  0.52053805  0.00000000  1
  Eu  Eu1  1  0.75602066  0.02053805  0.00000000  1
  W  W0  1  0.74891560  0.49993105  0.75073463  1
  W  W1  1  0.25108440  -0.00006895  0.75073463  1
  W  W2  1  0.74891560  0.49993105  0.24926537  1
  W  W3  1  0.25108440  -0.00006895  0.24926537  1
  O  O0  1  0.33186636  0.97048688  0.00000000  1
  O  O1  1  0.82618917  0.52472728  0.50000000  1
  O  O2  1  0.17381083  0.02472728  0.50000000  1
  O  O3  1  0.66813364  0.47048688  0.00000000  1
  O  O4  1  0.52608378  0.21314899  0.71343710  1
  O  O5  1  0.02684669  0.28707259  0.78928436  1
  O  O6  1  0.97315331  0.78707259  0.21071564  1
  O  O7  1  0.47391622  0.71314899  0.28656290  1
  O  O8  1  0.97315331  0.78707259  0.78928436  1
  O  O9  1  0.47391622  0.71314899  0.71343710  1
  O  O10  1  0.52608378  0.21314899  0.28656290  1
  O  O11  1  0.02684669  0.28707259  0.21071564  1
loop_
_geom_bond_atom_site_label_1
_geom_bond_atom_site_label_2
_geom_bond_distance
_geom_bond_site_symmetry_2
Eu0 O3 2.479873 1_555
Eu0 O5 2.513489 1_554
Eu0 O11 2.513489 1_555
Eu0 O0 2.656762 1_555
Eu0 O8 2.784990 1_454
Eu0 O6 2.784990 1_455
Eu0 O7 2.896164 1_555
Eu0 O9 2.896164 1_554
Eu1 O0 2.479873 1_545
Eu1 O6 2.513489 1_545
Eu1 O8 2.513489 1_544
Eu1 O3 2.656762 1_555
Eu1 O5 2.784990 1_654
Eu1 O11 2.784990 1_655
Eu1 O10 2.896164 1_555
Eu1 O4 2.896164 1_554
O0 W1 2.074677 1_564
O0 W3 2.074677 1_565
O1 W2 2.079680 1_555
O1 W0 2.079680 1_555
O1 Sr1 2.500036 1_655
O1 Sr0 2.702239 1_555
O1 Sr0 3.168757 1_545
O2 W3 2.079680 1_555
O2 W1 2.079680 1_555
O2 Sr0 2.500036 1_445
O2 Sr1 2.702239 1_555
O2 Sr1 3.168757 1_545
O3 W0 2.074677 1_554
O3 W2 2.074677 1_555
O4 W1 2.041329 1_555
O4 W0 2.127551 1_555
O4 Sr0 2.521050 1_545
O4 Sr1 2.813605 1_555
O5 W0 2.054930 1_455
O5 W1 2.135601 1_555
O5 Sr1 2.918118 1_555
O6 W3 2.054930 1_665
O6 W2 2.135601 1_555
O6 Sr0 2.918118 1_555
O7 W2 2.041329 1_555
O7 W3 2.127551 1_565
O7 Sr1 2.521050 1_555
O7 Sr0 2.813605 1_555
O8 W1 2.054930 1_665
O8 W0 2.135601 1_555
O8 Sr0 2.918118 1_555
O9 W0 2.041329 1_555
O9 W1 2.127551 1_565
O9 Sr1 2.521050 1_555
O9 Sr0 2.813605 1_555
O10 W3 2.041329 1_555
O10 W2 2.127551 1_555
O10 Sr0 2.521050 1_545
O10 Sr1 2.813605 1_555
O11 W2 2.054930 1_455
O11 W3 2.135601 1_555
O11 Sr1 2.918118 1_555
