# generated using pymatgen
data_Ca(CoSi)2
_symmetry_space_group_name_H-M   'P 1'
_cell_length_a   5.64579297
_cell_length_b   5.64579297
_cell_length_c   5.64579297
_cell_angle_alpha   139.91239988
_cell_angle_beta   139.91239988
_cell_angle_gamma   57.98633103
_symmetry_Int_Tables_number   1
_chemical_formula_structural   Ca(CoSi)2
_chemical_formula_sum   'Ca1 Co2 Si2'
_cell_volume   73.96194600
_cell_formula_units_Z   1
loop_
 _symmetry_equiv_pos_site_id
 _symmetry_equiv_pos_as_xyz
  1  'x, y, z'
loop_
 _atom_site_type_symbol
 _atom_site_label
 _atom_site_symmetry_multiplicity
 _atom_site_fract_x
 _atom_site_fract_y
 _atom_site_fract_z
 _atom_site_occupancy
  Ca  Ca0  1  0.00000000  0.00000000  -0.00000000  1
  Co  Co0  1  0.25000000  0.75000000  0.50000000  1
  Co  Co1  1  0.75000000  0.25000000  0.50000000  1
  Si  Si0  1  0.63375456  0.63375456  0.00000000  1
  Si  Si1  1  0.36624544  0.36624544  -0.00000000  1
loop_
_geom_bond_atom_site_label_1
_geom_bond_atom_site_label_2
_geom_bond_distance
_geom_bond_site_symmetry_2
Ca0 Si1 3.038716 1_556
Ca0 Si1 3.038716 1_545
Ca0 Si0 3.038716 1_444
Ca0 Si0 3.038716 1_455
Ca0 Si1 3.038716 1_444
Ca0 Si1 3.038716 1_455
Ca0 Si0 3.038716 1_545
Ca0 Si0 3.038716 1_556
Ca0 Co0 3.137023 1_544
Ca0 Co1 3.137023 1_444
Ca0 Co0 3.137023 1_545
Ca0 Co0 3.137023 1_555
Ca0 Co1 3.137023 1_455
Ca0 Co1 3.137023 1_454
Ca0 Co0 3.137023 1_444
Ca0 Co1 3.137023 1_555
Co0 Si1 2.249993 1_555
Co0 Si0 2.249993 1_455
Co0 Si0 2.249993 1_556
Co0 Si1 2.249993 1_566
Co1 Si1 2.249993 1_555
Co1 Si0 2.249993 1_545
Co1 Si0 2.249993 1_556
Co1 Si1 2.249993 1_656
Si0 Si1 2.642053 1_555
