# generated using pymatgen
data_Nd3Ga5O12
_symmetry_space_group_name_H-M   'P 1'
_cell_length_a   10.96113631
_cell_length_b   10.96113631
_cell_length_c   10.96113631
_cell_angle_alpha   109.47122063
_cell_angle_beta   109.47122063
_cell_angle_gamma   109.47122063
_symmetry_Int_Tables_number   1
_chemical_formula_structural   Nd3Ga5O12
_chemical_formula_sum   'Nd12 Ga20 O48'
_cell_volume   1013.78262833
_cell_formula_units_Z   4
loop_
 _symmetry_equiv_pos_site_id
 _symmetry_equiv_pos_as_xyz
  1  'x, y, z'
loop_
 _atom_site_type_symbol
 _atom_site_label
 _atom_site_symmetry_multiplicity
 _atom_site_fract_x
 _atom_site_fract_y
 _atom_site_fract_z
 _atom_site_occupancy
  Nd  Nd0  1  0.87500000  0.62500000  0.25000000  1
  Nd  Nd1  1  0.62500000  0.25000000  0.87500000  1
  Nd  Nd2  1  0.87500000  0.75000000  0.62500000  1
  Nd  Nd3  1  0.75000000  0.62500000  0.87500000  1
  Nd  Nd4  1  0.25000000  0.87500000  0.62500000  1
  Nd  Nd5  1  0.62500000  0.87500000  0.75000000  1
  Nd  Nd6  1  0.12500000  0.37500000  0.75000000  1
  Nd  Nd7  1  0.37500000  0.75000000  0.12500000  1
  Nd  Nd8  1  0.12500000  0.25000000  0.37500000  1
  Nd  Nd9  1  0.25000000  0.37500000  0.12500000  1
  Nd  Nd10  1  0.75000000  0.12500000  0.37500000  1
  Nd  Nd11  1  0.37500000  0.12500000  0.25000000  1
  Ga  Ga0  1  0.12500000  0.87500000  0.25000000  1
  Ga  Ga1  1  0.87500000  0.12500000  0.75000000  1
  Ga  Ga2  1  0.25000000  0.62500000  0.37500000  1
  Ga  Ga3  1  0.37500000  0.25000000  0.62500000  1
  Ga  Ga4  1  0.75000000  0.87500000  0.12500000  1
  Ga  Ga5  1  0.12500000  0.75000000  0.87500000  1
  Ga  Ga6  1  0.37500000  0.62500000  0.75000000  1
  Ga  Ga7  1  0.62500000  0.75000000  0.37500000  1
  Ga  Ga8  1  0.87500000  0.25000000  0.12500000  1
  Ga  Ga9  1  0.25000000  0.12500000  0.87500000  1
  Ga  Ga10  1  0.75000000  0.37500000  0.62500000  1
  Ga  Ga11  1  0.62500000  0.37500000  0.25000000  1
  Ga  Ga12  1  0.50000000  0.50000000  0.50000000  1
  Ga  Ga13  1  0.50000000  0.00000000  0.50000000  1
  Ga  Ga14  1  0.00000000  0.50000000  0.50000000  1
  Ga  Ga15  1  0.50000000  0.50000000  0.00000000  1
  Ga  Ga16  1  0.00000000  0.00000000  0.50000000  1
  Ga  Ga17  1  0.00000000  0.50000000  0.00000000  1
  Ga  Ga18  1  0.50000000  0.00000000  0.00000000  1
  Ga  Ga19  1  0.00000000  0.00000000  0.00000000  1
  O  O0  1  0.47701600  0.38052300  0.29856400  1
  O  O1  1  0.32154800  0.90350600  0.02298400  1
  O  O2  1  0.59649400  0.91804200  0.11947700  1
  O  O3  1  0.58195800  0.17845200  0.20143600  1
  O  O4  1  0.11947700  0.02298400  0.20143600  1
  O  O5  1  0.17845200  0.20143600  0.58195800  1
  O  O6  1  0.17845200  0.47701600  0.59649400  1
  O  O7  1  0.20143600  0.58195800  0.17845200  1
  O  O8  1  0.38052300  0.58195800  0.90350600  1
  O  O9  1  0.91804200  0.29856400  0.32154800  1
  O  O10  1  0.29856400  0.32154800  0.91804200  1
  O  O11  1  0.20143600  0.11947700  0.02298400  1
  O  O12  1  0.47701600  0.59649400  0.17845200  1
  O  O13  1  0.90350600  0.38052300  0.58195800  1
  O  O14  1  0.02298400  0.20143600  0.11947700  1
  O  O15  1  0.59649400  0.17845200  0.47701600  1
  O  O16  1  0.58195800  0.90350600  0.38052300  1
  O  O17  1  0.02298400  0.32154800  0.90350600  1
  O  O18  1  0.91804200  0.11947700  0.59649400  1
  O  O19  1  0.61947700  0.41804200  0.09649400  1
  O  O20  1  0.11947700  0.59649400  0.91804200  1
  O  O21  1  0.29856400  0.47701600  0.38052300  1
  O  O22  1  0.90350600  0.02298400  0.32154800  1
  O  O23  1  0.32154800  0.91804200  0.29856400  1
  O  O24  1  0.52298400  0.61947700  0.70143600  1
  O  O25  1  0.67845200  0.09649400  0.97701600  1
  O  O26  1  0.40350600  0.08195800  0.88052300  1
  O  O27  1  0.41804200  0.82154800  0.79856400  1
  O  O28  1  0.88052300  0.97701600  0.79856400  1
  O  O29  1  0.82154800  0.79856400  0.41804200  1
  O  O30  1  0.82154800  0.52298400  0.40350600  1
  O  O31  1  0.79856400  0.41804200  0.82154800  1
  O  O32  1  0.67845200  0.08195800  0.70143600  1
  O  O33  1  0.09649400  0.97701600  0.67845200  1
  O  O34  1  0.70143600  0.52298400  0.61947700  1
  O  O35  1  0.61947700  0.70143600  0.52298400  1
  O  O36  1  0.88052300  0.40350600  0.08195800  1
  O  O37  1  0.08195800  0.88052300  0.40350600  1
  O  O38  1  0.97701600  0.67845200  0.09649400  1
  O  O39  1  0.41804200  0.09649400  0.61947700  1
  O  O40  1  0.40350600  0.82154800  0.52298400  1
  O  O41  1  0.97701600  0.79856400  0.88052300  1
  O  O42  1  0.09649400  0.61947700  0.41804200  1
  O  O43  1  0.52298400  0.40350600  0.82154800  1
  O  O44  1  0.79856400  0.88052300  0.97701600  1
  O  O45  1  0.70143600  0.67845200  0.08195800  1
  O  O46  1  0.08195800  0.70143600  0.67845200  1
  O  O47  1  0.38052300  0.29856400  0.47701600  1
loop_
_geom_bond_atom_site_label_1
_geom_bond_atom_site_label_2
_geom_bond_distance
_geom_bond_site_symmetry_2
Nd0 O38 2.428908 1_555
Nd0 O30 2.428908 1_555
Nd0 O37 2.428915 1_655
Nd0 O19 2.428915 1_555
Nd0 O29 2.545927 1_555
Nd0 O45 2.545927 1_555
Nd0 O36 2.545934 1_555
Nd0 O42 2.545934 1_655
Nd1 O25 2.428908 1_555
Nd1 O43 2.428908 1_555
Nd1 O36 2.428915 1_556
Nd1 O39 2.428915 1_555
Nd1 O31 2.545927 1_555
Nd1 O32 2.545927 1_555
Nd1 O26 2.545934 1_555
Nd1 O19 2.545934 1_556
Nd2 O46 2.428908 1_655
Nd2 O29 2.428908 1_555
Nd2 O41 2.428918 1_555
Nd2 O35 2.428918 1_555
Nd2 O34 2.545921 1_555
Nd2 O28 2.545921 1_555
Nd2 O30 2.545927 1_555
Nd2 O33 2.545927 1_655
Nd3 O45 2.428908 1_556
Nd3 O31 2.428908 1_555
Nd3 O44 2.428918 1_555
Nd3 O34 2.428918 1_555
Nd3 O24 2.545921 1_555
Nd3 O41 2.545921 1_555
Nd3 O43 2.545927 1_555
Nd3 O38 2.545927 1_556
Nd4 O33 2.428908 1_555
Nd4 O40 2.428908 1_555
Nd4 O26 2.428915 1_565
Nd4 O42 2.428915 1_555
Nd4 O27 2.545927 1_555
Nd4 O46 2.545927 1_555
Nd4 O37 2.545934 1_555
Nd4 O39 2.545934 1_565
Nd5 O32 2.428908 1_565
Nd5 O27 2.428908 1_555
Nd5 O28 2.428918 1_555
Nd5 O24 2.428918 1_555
Nd5 O35 2.545921 1_555
Nd5 O44 2.545921 1_555
Nd5 O40 2.545927 1_555
Nd5 O25 2.545927 1_565
Nd6 O17 2.428908 1_555
Nd6 O6 2.428908 1_555
Nd6 O8 2.428915 1_555
Nd6 O18 2.428915 1_455
Nd6 O10 2.545927 1_555
Nd6 O5 2.545927 1_555
Nd6 O20 2.545934 1_555
Nd6 O13 2.545934 1_455
Nd7 O1 2.428908 1_555
Nd7 O12 2.428908 1_555
Nd7 O16 2.428915 1_555
Nd7 O20 2.428915 1_554
Nd7 O23 2.545927 1_555
Nd7 O7 2.545927 1_555
Nd7 O2 2.545934 1_555
Nd7 O8 2.545934 1_554
Nd8 O5 2.428908 1_555
Nd8 O9 2.428908 1_455
Nd8 O14 2.428918 1_555
Nd8 O47 2.428918 1_555
Nd8 O21 2.545921 1_555
Nd8 O4 2.545921 1_555
Nd8 O6 2.545927 1_555
Nd8 O22 2.545927 1_455
Nd9 O7 2.428908 1_555
Nd9 O10 2.428908 1_554
Nd9 O21 2.428918 1_555
Nd9 O11 2.428918 1_555
Nd9 O0 2.545921 1_555
Nd9 O14 2.545921 1_555
Nd9 O12 2.545927 1_555
Nd9 O17 2.545927 1_554
Nd10 O22 2.428908 1_555
Nd10 O15 2.428908 1_555
Nd10 O13 2.428915 1_555
Nd10 O2 2.428915 1_545
Nd10 O9 2.545927 1_555
Nd10 O3 2.545927 1_555
Nd10 O18 2.545934 1_555
Nd10 O16 2.545934 1_545
Nd11 O3 2.428908 1_555
Nd11 O23 2.428908 1_545
Nd11 O0 2.428918 1_555
Nd11 O4 2.428918 1_555
Nd11 O47 2.545921 1_555
Nd11 O11 2.545921 1_555
Nd11 O15 2.545927 1_555
Nd11 O1 2.545927 1_545
Ga0 O37 1.880890 1_555
Ga0 O23 1.880892 1_555
Ga0 O38 1.880892 1_455
Ga0 O4 1.880895 1_565
Ga1 O18 1.880890 1_555
Ga1 O17 1.880892 1_655
Ga1 O32 1.880892 1_555
Ga1 O28 1.880895 1_545
Ga2 O42 1.880890 1_555
Ga2 O7 1.880892 1_555
Ga2 O40 1.880892 1_555
Ga2 O21 1.880895 1_555
Ga3 O39 1.880890 1_555
Ga3 O5 1.880892 1_555
Ga3 O43 1.880892 1_555
Ga3 O47 1.880895 1_555
Ga4 O2 1.880890 1_555
Ga4 O22 1.880892 1_565
Ga4 O45 1.880892 1_555
Ga4 O44 1.880895 1_554
Ga5 O20 1.880890 1_555
Ga5 O1 1.880892 1_556
Ga5 O46 1.880892 1_555
Ga5 O41 1.880895 1_455
Ga6 O8 1.880890 1_555
Ga6 O6 1.880892 1_555
Ga6 O27 1.880892 1_555
Ga6 O24 1.880895 1_555
Ga7 O16 1.880890 1_555
Ga7 O12 1.880892 1_555
Ga7 O29 1.880892 1_555
Ga7 O35 1.880895 1_555
Ga8 O36 1.880890 1_555
Ga8 O9 1.880892 1_555
Ga8 O25 1.880892 1_554
Ga8 O14 1.880895 1_655
Ga9 O26 1.880890 1_555
Ga9 O10 1.880892 1_555
Ga9 O33 1.880892 1_545
Ga9 O11 1.880895 1_556
Ga10 O13 1.880890 1_555
Ga10 O15 1.880892 1_555
Ga10 O31 1.880892 1_555
Ga10 O34 1.880895 1_555
Ga11 O19 1.880890 1_555
Ga11 O30 1.880892 1_555
Ga11 O3 1.880892 1_555
Ga11 O0 1.880895 1_555
Ga12 O34 2.033508 1_555
Ga12 O24 2.033508 1_555
Ga12 O35 2.033508 1_555
Ga12 O21 2.033508 1_555
Ga12 O47 2.033508 1_555
Ga12 O0 2.033508 1_555
Ga13 O39 2.033504 1_555
Ga13 O16 2.033504 1_545
Ga13 O32 2.033510 1_555
Ga13 O23 2.033510 1_545
Ga13 O15 2.033510 1_555
Ga13 O40 2.033510 1_545
Ga14 O42 2.033504 1_555
Ga14 O13 2.033504 1_455
Ga14 O46 2.033510 1_555
Ga14 O9 2.033510 1_455
Ga14 O6 2.033510 1_555
Ga14 O30 2.033510 1_455
Ga15 O19 2.033504 1_555
Ga15 O8 2.033504 1_554
Ga15 O45 2.033510 1_555
Ga15 O10 2.033510 1_554
Ga15 O12 2.033510 1_555
Ga15 O43 2.033510 1_554
Ga16 O37 2.033504 1_545
Ga16 O18 2.033504 1_455
Ga16 O33 2.033510 1_545
Ga16 O22 2.033510 1_455
Ga16 O5 2.033510 1_555
Ga16 O29 2.033510 1_445
Ga17 O36 2.033504 1_455
Ga17 O20 2.033504 1_554
Ga17 O38 2.033510 1_455
Ga17 O17 2.033510 1_554
Ga17 O7 2.033510 1_555
Ga17 O31 2.033510 1_454
Ga18 O26 2.033504 1_554
Ga18 O2 2.033504 1_545
Ga18 O25 2.033510 1_554
Ga18 O1 2.033510 1_545
Ga18 O3 2.033510 1_555
Ga18 O27 2.033510 1_544
Ga19 O11 2.033508 1_555
Ga19 O14 2.033508 1_555
Ga19 O4 2.033508 1_555
Ga19 O28 2.033508 1_444
Ga19 O44 2.033508 1_444
Ga19 O41 2.033508 1_444
