# generated using pymatgen
data_Ba2In2O5
_symmetry_space_group_name_H-M   'P 1'
_cell_length_a   6.10870574
_cell_length_b   6.10870574
_cell_length_c   6.10870574
_cell_angle_alpha   120.48395874
_cell_angle_beta   120.48395874
_cell_angle_gamma   89.16378306
_symmetry_Int_Tables_number   1
_chemical_formula_structural   Ba2In2O5
_chemical_formula_sum   'Ba2 In2 O5'
_cell_volume   159.99039642
_cell_formula_units_Z   1
loop_
 _symmetry_equiv_pos_site_id
 _symmetry_equiv_pos_as_xyz
  1  'x, y, z'
loop_
 _atom_site_type_symbol
 _atom_site_label
 _atom_site_symmetry_multiplicity
 _atom_site_fract_x
 _atom_site_fract_y
 _atom_site_fract_z
 _atom_site_occupancy
  Ba  Ba0  1  0.00000000  0.50000000  0.50000000  1
  Ba  Ba1  1  0.50000000  0.00000000  0.50000000  1
  In  In0  1  0.73123200  0.73123200  0.00000000  1
  In  In1  1  0.26876800  0.26876800  0.00000000  1
  O  O0  1  0.00000000  0.00000000  0.50000000  1
  O  O1  1  0.50000000  0.50000000  0.00000000  1
  O  O2  1  0.50000000  0.00000000  0.00000000  1
  O  O3  1  0.50000000  0.50000000  0.50000000  1
  O  O4  1  0.00000000  0.50000000  0.00000000  1
loop_
_geom_bond_atom_site_label_1
_geom_bond_atom_site_label_2
_geom_bond_distance
_geom_bond_site_symmetry_2
Ba0 O1 3.031983 1_455
Ba0 O1 3.031983 1_556
Ba0 O3 3.054353 1_555
Ba0 O4 3.054353 1_555
Ba0 O2 3.054353 1_455
Ba0 O4 3.054353 1_556
Ba0 O0 3.054353 1_565
Ba0 O2 3.054353 1_566
Ba0 O3 3.054353 1_455
Ba0 O0 3.054353 1_555
Ba1 O1 3.031983 1_556
Ba1 O1 3.031983 1_545
Ba1 O2 3.054353 1_555
Ba1 O0 3.054353 1_655
Ba1 O3 3.054353 1_545
Ba1 O4 3.054353 1_656
Ba1 O2 3.054353 1_556
Ba1 O4 3.054353 1_545
Ba1 O3 3.054353 1_555
Ba1 O0 3.054353 1_555
In0 O1 2.012141 1_555
In0 O2 2.150147 1_565
In0 O3 2.150147 1_554
In0 O0 2.150147 1_665
In0 O4 2.150147 1_655
In1 O1 2.012141 1_555
In1 O3 2.150147 1_555
In1 O2 2.150147 1_555
In1 O0 2.150147 1_554
In1 O4 2.150147 1_555
