# generated using pymatgen
data_Cs3AlTe3
_symmetry_space_group_name_H-M   'P 1'
_cell_length_a   14.61562874
_cell_length_b   9.21029305
_cell_length_c   12.05183710
_cell_angle_alpha   53.51036695
_cell_angle_beta   90.00000000
_cell_angle_gamma   90.00000000
_symmetry_Int_Tables_number   1
_chemical_formula_structural   Cs3AlTe3
_chemical_formula_sum   'Cs12 Al4 Te12'
_cell_volume   1304.31071470
_cell_formula_units_Z   4
loop_
 _symmetry_equiv_pos_site_id
 _symmetry_equiv_pos_as_xyz
  1  'x, y, z'
loop_
 _atom_site_type_symbol
 _atom_site_label
 _atom_site_symmetry_multiplicity
 _atom_site_fract_x
 _atom_site_fract_y
 _atom_site_fract_z
 _atom_site_occupancy
  Cs  Cs0  1  0.58059982  0.64718645  0.11199124  1
  Cs  Cs1  1  0.08059982  0.35281355  0.38800876  1
  Cs  Cs2  1  0.41940018  0.35281355  0.88800876  1
  Cs  Cs3  1  0.91940018  0.64718645  0.61199124  1
  Cs  Cs4  1  0.31042320  0.87487789  0.91175882  1
  Cs  Cs5  1  0.81042320  0.12512211  0.58824118  1
  Cs  Cs6  1  0.68957680  0.12512211  0.08824118  1
  Cs  Cs7  1  0.18957680  0.87487789  0.41175882  1
  Cs  Cs8  1  0.87528641  0.62416449  0.01471619  1
  Cs  Cs9  1  0.37528641  0.37583551  0.48528381  1
  Cs  Cs10  1  0.12471359  0.37583551  0.98528381  1
  Cs  Cs11  1  0.62471359  0.62416449  0.51471619  1
  Al  Al0  1  0.55894134  0.93280351  0.65866147  1
  Al  Al1  1  0.05894134  0.06719649  0.84133853  1
  Al  Al2  1  0.44105866  0.06719649  0.34133853  1
  Al  Al3  1  0.94105866  0.93280351  0.15866147  1
  Te  Te0  1  0.10687332  0.85854382  0.11105167  1
  Te  Te1  1  0.60687332  0.14145618  0.38894833  1
  Te  Te2  1  0.89312668  0.14145618  0.88894833  1
  Te  Te3  1  0.39312668  0.85854382  0.61105167  1
  Te  Te4  1  0.83468279  0.64960564  0.30622246  1
  Te  Te5  1  0.33468279  0.35039436  0.19377754  1
  Te  Te6  1  0.16531721  0.35039436  0.69377754  1
  Te  Te7  1  0.66531721  0.64960564  0.80622246  1
  Te  Te8  1  0.05780626  0.88643198  0.73833250  1
  Te  Te9  1  0.55780626  0.11356802  0.76166750  1
  Te  Te10  1  0.94219374  0.11356802  0.26166750  1
  Te  Te11  1  0.44219374  0.88643198  0.23833250  1
loop_
_geom_bond_atom_site_label_1
_geom_bond_atom_site_label_2
_geom_bond_distance
_geom_bond_site_symmetry_2
Cs0 Te1 3.807035 1_555
Cs0 Te9 3.849430 1_564
Cs0 Te7 3.875017 1_554
Cs0 Te11 3.905962 1_555
Cs0 Te5 4.261189 1_555
Cs0 Te4 4.396905 1_555
Cs1 Te0 3.807035 1_555
Cs1 Te8 3.849430 1_545
Cs1 Te6 3.875017 1_555
Cs1 Te10 3.905962 1_455
Cs1 Te4 4.261189 1_455
Cs1 Te5 4.396905 1_555
Cs2 Te3 3.807035 1_555
Cs2 Te11 3.849430 1_546
Cs2 Te5 3.875017 1_556
Cs2 Te9 3.905962 1_555
Cs2 Te7 4.261189 1_555
Cs2 Te6 4.396905 1_555
Cs3 Te2 3.807035 1_555
Cs3 Te10 3.849430 1_565
Cs3 Te4 3.875017 1_555
Cs3 Te8 3.905962 1_655
Cs3 Te6 4.261189 1_655
Cs3 Te7 4.396905 1_555
Cs4 Te0 3.769936 1_556
Cs4 Te3 3.907186 1_555
Cs4 Te5 3.935156 1_556
Cs4 Te9 4.055659 1_565
Cs4 Te6 4.110520 1_565
Cs4 Te8 4.212759 1_555
Cs4 Te11 4.439506 1_556
Cs5 Te1 3.769936 1_555
Cs5 Te2 3.907186 1_555
Cs5 Te4 3.935156 1_555
Cs5 Te8 4.055659 1_645
Cs5 Te7 4.110520 1_545
Cs5 Te9 4.212759 1_555
Cs5 Te10 4.439506 1_555
Cs6 Te2 3.769936 1_554
Cs6 Te1 3.907186 1_555
Cs6 Te7 3.935156 1_554
Cs6 Te11 4.055659 1_545
Cs6 Te4 4.110520 1_545
Cs6 Te10 4.212759 1_555
Cs6 Te9 4.439506 1_554
Cs7 Te3 3.769936 1_555
Cs7 Te0 3.907186 1_555
Cs7 Te6 3.935156 1_555
Cs7 Te10 4.055659 1_465
Cs7 Te5 4.110520 1_565
Cs7 Te11 4.212759 1_555
Cs7 Te8 4.439506 1_555
Cs8 Te4 3.705220 1_555
Cs8 Te8 3.804829 1_654
Cs8 Te7 3.884094 1_554
Cs8 Te10 3.909382 1_555
Cs8 Te2 4.059065 1_564
Cs9 Te5 3.705220 1_555
Cs9 Te9 3.804829 1_555
Cs9 Te6 3.884094 1_555
Cs9 Te11 3.909382 1_555
Cs9 Te3 4.059065 1_545
Cs10 Te6 3.705220 1_555
Cs10 Te10 3.804829 1_456
Cs10 Te5 3.884094 1_556
Cs10 Te8 3.909382 1_555
Cs10 Te0 4.059065 1_546
Cs11 Te7 3.705220 1_555
Cs11 Te11 3.804829 1_555
Cs11 Te4 3.884094 1_555
Cs11 Te9 3.909382 1_555
Cs11 Te1 4.059065 1_565
Al0 Te9 2.602198 1_565
Al0 Te7 2.620371 1_555
Al0 Te3 2.671527 1_555
Al0 Te1 2.705612 1_565
Al0 Cs5 3.947106 1_565
Al1 Te8 2.602198 1_545
Al1 Te6 2.620371 1_555
Al1 Te2 2.671527 1_455
Al1 Te0 2.705612 1_546
Al1 Cs4 3.947106 1_545
Al2 Te11 2.602198 1_545
Al2 Te5 2.620371 1_555
Al2 Te1 2.671527 1_555
Al2 Te3 2.705612 1_545
Al2 Cs7 3.947106 1_545
Al3 Te10 2.602198 1_565
Al3 Te4 2.620371 1_555
Al3 Te0 2.671527 1_655
Al3 Te2 2.705612 1_564
Al3 Cs6 3.947106 1_565
