# generated using pymatgen
data_V3GaN
_symmetry_space_group_name_H-M   'P 1'
_cell_length_a   5.27532274
_cell_length_b   5.27532268
_cell_length_c   7.82878079
_cell_angle_alpha   89.98759937
_cell_angle_beta   90.01240143
_cell_angle_gamma   147.24578645
_symmetry_Int_Tables_number   1
_chemical_formula_structural   V3GaN
_chemical_formula_sum   'V6 Ga2 N2'
_cell_volume   117.87415883
_cell_formula_units_Z   2
loop_
 _symmetry_equiv_pos_site_id
 _symmetry_equiv_pos_as_xyz
  1  'x, y, z'
loop_
 _atom_site_type_symbol
 _atom_site_label
 _atom_site_symmetry_multiplicity
 _atom_site_fract_x
 _atom_site_fract_y
 _atom_site_fract_z
 _atom_site_occupancy
  V  V0  1  0.96451518  0.03548522  0.24995612  1
  V  V1  1  0.03547491  0.96452543  0.75004623  1
  V  V2  1  0.62723207  0.37276781  0.45538515  1
  V  V3  1  0.37274672  0.62725316  0.54465238  1
  V  V4  1  0.62732489  0.37267487  0.04453710  1
  V  V5  1  0.37269011  0.62730992  0.95542933  1
  Ga  Ga0  1  0.25746742  0.74253245  0.24998785  1
  Ga  Ga1  1  0.74255585  0.25744422  0.75001801  1
  N  N0  1  -0.00000724  0.00000710  0.50001481  1
  N  N1  1  0.00000208  -0.00000219  -0.00002798  1
loop_
_geom_bond_atom_site_label_1
_geom_bond_atom_site_label_2
_geom_bond_distance
_geom_bond_site_symmetry_2
Ga0 V4 2.556166 1_565
Ga0 V4 2.556167 1_455
Ga0 V2 2.556762 1_565
Ga0 V2 2.556762 1_455
Ga0 V0 2.570023 1_455
Ga0 V0 2.570024 1_565
Ga0 V5 2.584449 1_554
Ga0 V3 2.584979 1_555
Ga1 V5 2.555929 1_655
Ga1 V5 2.555930 1_545
Ga1 V3 2.556374 1_655
Ga1 V3 2.556374 1_545
Ga1 V1 2.570300 1_545
Ga1 V1 2.570300 1_655
Ga1 V4 2.584211 1_556
Ga1 V2 2.584960 1_555
N0 V1 1.990040 1_545
N0 V0 1.990243 1_455
N0 V2 1.998403 1_445
N0 V2 1.998403 1_555
N0 V3 1.998458 1_555
N0 V3 1.998458 1_445
N1 V1 1.989369 1_544
N1 V0 1.989845 1_455
N1 V5 1.998657 1_444
N1 V5 1.998657 1_554
N1 V4 1.998758 1_555
N1 V4 1.998759 1_445
