# generated using pymatgen
data_TiNF
_symmetry_space_group_name_H-M   'P 1'
_cell_length_a   3.06200400
_cell_length_b   3.96438700
_cell_length_c   7.87082600
_cell_angle_alpha   90.00000000
_cell_angle_beta   90.00000000
_cell_angle_gamma   90.00000000
_symmetry_Int_Tables_number   1
_chemical_formula_structural   TiNF
_chemical_formula_sum   'Ti2 N2 F2'
_cell_volume   95.54371165
_cell_formula_units_Z   2
loop_
 _symmetry_equiv_pos_site_id
 _symmetry_equiv_pos_as_xyz
  1  'x, y, z'
loop_
 _atom_site_type_symbol
 _atom_site_label
 _atom_site_symmetry_multiplicity
 _atom_site_fract_x
 _atom_site_fract_y
 _atom_site_fract_z
 _atom_site_occupancy
  Ti  Ti0  1  0.50000000  0.00000000  0.89591400  1
  Ti  Ti1  1  0.00000000  0.50000000  0.10408600  1
  N  N0  1  0.50000000  0.50000000  0.93931600  1
  N  N1  1  0.00000000  0.00000000  0.06068400  1
  F  F0  1  0.00000000  0.00000000  0.72462400  1
  F  F1  1  0.50000000  0.50000000  0.27537600  1
loop_
_geom_bond_atom_site_label_1
_geom_bond_atom_site_label_2
_geom_bond_distance
_geom_bond_site_symmetry_2
N0 Ti1 2.006453 1_656
N0 Ti1 2.006453 1_556
N0 Ti0 2.011414 1_565
N0 Ti0 2.011414 1_555
N1 Ti0 2.006453 1_554
N1 Ti0 2.006453 1_454
N1 Ti1 2.011414 1_555
N1 Ti1 2.011414 1_545
F0 Ti0 2.039998 1_455
F0 Ti0 2.039998 1_555
F1 Ti1 2.039998 1_555
F1 Ti1 2.039998 1_655
