# generated using pymatgen
data_TaSi4Mo
_symmetry_space_group_name_H-M   'P 1'
_cell_length_a   13.12593500
_cell_length_b   4.71636200
_cell_length_c   4.73417891
_cell_angle_alpha   60.28332063
_cell_angle_beta   90.00000000
_cell_angle_gamma   90.00000000
_symmetry_Int_Tables_number   1
_chemical_formula_structural   TaSi4Mo
_chemical_formula_sum   'Ta3 Si12 Mo3'
_cell_volume   254.53381799
_cell_formula_units_Z   3
loop_
 _symmetry_equiv_pos_site_id
 _symmetry_equiv_pos_as_xyz
  1  'x, y, z'
loop_
 _atom_site_type_symbol
 _atom_site_label
 _atom_site_symmetry_multiplicity
 _atom_site_fract_x
 _atom_site_fract_y
 _atom_site_fract_z
 _atom_site_occupancy
  Ta  Ta0  1  0.24954600  0.00000000  0.50000000  1
  Ta  Ta1  1  0.58350400  0.50000000  0.50000000  1
  Ta  Ta2  1  0.08355300  0.50000000  0.50000000  1
  Si  Si0  1  0.91588100  0.84244000  0.32403900  1
  Si  Si1  1  0.41660400  0.83833100  0.32015600  1
  Si  Si2  1  0.75092900  0.32359100  0.84083000  1
  Si  Si3  1  0.25103200  0.32023600  0.84184200  1
  Si  Si4  1  0.58337000  0.83966100  0.83572500  1
  Si  Si5  1  0.08217900  0.83622100  0.84353000  1
  Si  Si6  1  0.91588100  0.15756000  0.67596100  1
  Si  Si7  1  0.41660400  0.16166900  0.67984400  1
  Si  Si8  1  0.75092900  0.67640900  0.15917000  1
  Si  Si9  1  0.25103200  0.67976400  0.15815800  1
  Si  Si10  1  0.58337000  0.16033900  0.16427500  1
  Si  Si11  1  0.08217900  0.16377900  0.15647000  1
  Mo  Mo0  1  0.91637400  0.50000000  0.00000000  1
  Mo  Mo1  1  0.41653800  0.50000000  0.00000000  1
  Mo  Mo2  1  0.75049300  0.00000000  0.50000000  1
loop_
_geom_bond_atom_site_label_1
_geom_bond_atom_site_label_2
_geom_bond_distance
_geom_bond_site_symmetry_2
Si0 Si11 2.549301 1_665
Si0 Si8 2.552689 1_555
Si0 Ta2 2.610034 1_655
Si0 Si6 2.664846 1_564
Si0 Si6 2.727546 1_565
Si0 Si6 2.806086 1_555
Si1 Si9 2.537574 1_555
Si1 Si10 2.555673 1_565
Si1 Ta1 2.592960 1_555
Si1 Ta0 2.599665 1_565
Si1 Si7 2.632785 1_564
Si1 Si7 2.774308 1_555
Si1 Si7 2.792792 1_565
Si2 Si6 2.552689 1_555
Si2 Ta1 2.606587 1_555
Si2 Si8 2.650929 1_546
Si2 Si8 2.743453 1_556
Si2 Si8 2.803433 1_555
Si3 Si7 2.537574 1_555
Si3 Ta2 2.609624 1_555
Si3 Si9 2.623438 1_546
Si3 Ta0 2.706263 1_555
Si3 Ta0 2.706352 1_556
Si3 Si9 2.763195 1_556
Si3 Ta0 2.784602 1_565
Si3 Si9 2.812497 1_555
Si4 Si7 2.555673 1_565
Si4 Si8 2.570193 1_556
Si4 Ta1 2.705199 1_565
Si4 Ta1 2.731556 1_556
Si4 Ta1 2.759841 1_555
Si5 Si6 2.549301 1_465
Si5 Si9 2.566255 1_556
Si5 Ta0 2.611952 1_565
Si5 Ta2 2.699563 1_556
Si5 Ta2 2.719984 1_565
Si5 Ta2 2.777890 1_555
Si6 Ta2 2.610034 1_655
Si7 Ta1 2.592960 1_555
Si7 Ta0 2.599665 1_555
Si8 Ta1 2.606587 1_555
Si9 Ta2 2.609624 1_555
Si9 Ta0 2.706263 1_565
Si9 Ta0 2.706352 1_564
Si9 Ta0 2.784602 1_555
Si10 Si2 2.570193 1_554
Si10 Si4 2.653121 1_544
Si10 Ta1 2.705199 1_545
Si10 Ta1 2.731556 1_554
Si10 Ta1 2.759841 1_555
Si10 Si4 2.761442 1_545
Si10 Si4 2.782764 1_554
Si11 Si3 2.566255 1_554
Si11 Ta0 2.611952 1_555
Si11 Si5 2.617380 1_544
Si11 Ta2 2.699563 1_554
Si11 Ta2 2.719984 1_545
Si11 Si5 2.755880 1_554
Si11 Ta2 2.777890 1_555
Si11 Si5 2.825704 1_545
Mo0 Si8 2.568573 1_555
Mo0 Si2 2.568573 1_554
Mo0 Si5 2.575888 1_654
Mo0 Si11 2.575888 1_655
Mo0 Si0 2.693441 1_545
Mo0 Si6 2.693441 1_564
Mo0 Si0 2.723636 1_555
Mo0 Si6 2.723636 1_554
Mo0 Si6 2.779420 1_555
Mo0 Si0 2.779420 1_554
Mo1 Si9 2.574534 1_555
Mo1 Si3 2.574534 1_554
Mo1 Si4 2.594471 1_554
Mo1 Si10 2.594471 1_555
Mo1 Si1 2.690969 1_555
Mo1 Si7 2.690969 1_554
Mo1 Si7 2.710443 1_564
Mo1 Si1 2.710443 1_545
Mo1 Si1 2.795229 1_554
Mo1 Si7 2.795229 1_555
Mo2 Si6 2.563701 1_555
Mo2 Si0 2.563701 1_545
Mo2 Si4 2.592002 1_545
Mo2 Si10 2.592002 1_555
Mo2 Si2 2.710312 1_554
Mo2 Si8 2.710312 1_546
Mo2 Si2 2.715550 1_555
Mo2 Si8 2.715550 1_545
Mo2 Si8 2.770831 1_555
Mo2 Si2 2.770831 1_545
