# generated using pymatgen
data_Li4Zn(PS4)2
_symmetry_space_group_name_H-M   'P 1'
_cell_length_a   9.56214885
_cell_length_b   11.50389286
_cell_length_c   22.95510412
_cell_angle_alpha   90.14683763
_cell_angle_beta   90.12437352
_cell_angle_gamma   89.94082360
_symmetry_Int_Tables_number   1
_chemical_formula_structural   Li4Zn(PS4)2
_chemical_formula_sum   'Li32 Zn8 P16 S64'
_cell_volume   2525.09031698
_cell_formula_units_Z   8
loop_
 _symmetry_equiv_pos_site_id
 _symmetry_equiv_pos_as_xyz
  1  'x, y, z'
loop_
 _atom_site_type_symbol
 _atom_site_label
 _atom_site_symmetry_multiplicity
 _atom_site_fract_x
 _atom_site_fract_y
 _atom_site_fract_z
 _atom_site_occupancy
  Li  Li0  1  0.74815541  0.24144962  0.00175594  1
  Li  Li1  1  0.74917201  0.75035097  0.74777324  1
  Li  Li2  1  0.74268117  0.25299314  0.74487411  1
  Li  Li3  1  0.25314995  0.50970228  0.87152985  1
  Li  Li4  1  0.24874218  0.99169531  0.87350511  1
  Li  Li5  1  0.24898478  0.99597376  0.62983247  1
  Li  Li6  1  0.74800572  0.25535198  0.24626534  1
  Li  Li7  1  0.25151140  0.50163397  0.37409427  1
  Li  Li8  1  0.99156306  0.75111750  0.87613876  1
  Li  Li9  1  0.99998466  0.74778395  0.62431271  1
  Li  Li10  1  0.99893648  0.25352224  0.62364210  1
  Li  Li11  1  0.49063773  0.50279742  0.74846551  1
  Li  Li12  1  0.50108401  0.00051560  0.74999732  1
  Li  Li13  1  0.01587316  0.25019350  0.12520981  1
  Li  Li14  1  0.49927372  0.50237591  0.24900384  1
  Li  Li15  1  0.49994945  0.99645980  0.00060750  1
  Li  Li16  1  0.00261664  0.00090766  0.00447085  1
  Li  Li17  1  0.00103138  0.50424703  0.00035241  1
  Li  Li18  1  0.99750595  0.99676568  0.74964708  1
  Li  Li19  1  0.00063902  0.49846950  0.74715747  1
  Li  Li20  1  0.50973340  0.75271951  0.87732607  1
  Li  Li21  1  0.50058048  0.24866842  0.87457792  1
  Li  Li22  1  0.99722380  0.00079290  0.49858826  1
  Li  Li23  1  0.99984471  0.50122601  0.50381694  1
  Li  Li24  1  0.49630477  0.74646946  0.62433645  1
  Li  Li25  1  0.49436747  0.25304212  0.62410041  1
  Li  Li26  1  0.00527618  0.99718914  0.25064230  1
  Li  Li27  1  0.00071312  0.49990546  0.24756468  1
  Li  Li28  1  0.51085221  0.75042215  0.37316524  1
  Li  Li29  1  0.50826444  0.24731404  0.37583820  1
  Li  Li30  1  0.50140982  0.75131538  0.12593644  1
  Li  Li31  1  0.48405720  0.25073100  0.12538979  1
  Zn  Zn0  1  0.00040198  0.24854832  0.87403617  1
  Zn  Zn1  1  0.99363594  0.75036391  0.37354444  1
  Zn  Zn2  1  0.00137718  0.25003437  0.37708610  1
  Zn  Zn3  1  0.50757649  0.50048775  0.50205319  1
  Zn  Zn4  1  0.50624333  0.99672556  0.49912130  1
  Zn  Zn5  1  0.99834791  0.74985570  0.12503359  1
  Zn  Zn6  1  0.49197652  0.00143538  0.25045897  1
  Zn  Zn7  1  0.50011971  0.50095729  0.00057479  1
  P  P0  1  0.75387385  0.00398210  0.87680967  1
  P  P1  1  0.74661517  0.49247900  0.87292375  1
  P  P2  1  0.74916677  0.00442085  0.62494008  1
  P  P3  1  0.74853096  0.50523486  0.62569554  1
  P  P4  1  0.24621630  0.75204335  0.75144991  1
  P  P5  1  0.25188091  0.24274428  0.75127736  1
  P  P6  1  0.74813124  0.00002911  0.37396179  1
  P  P7  1  0.75421395  0.49375042  0.37569088  1
  P  P8  1  0.25692305  0.75451781  0.49821116  1
  P  P9  1  0.24792191  0.25362880  0.49870525  1
  P  P10  1  0.74964387  0.99689935  0.12405299  1
  P  P11  1  0.74983905  0.50333661  0.12660395  1
  P  P12  1  0.24591871  0.75091622  0.25323963  1
  P  P13  1  0.25298648  0.24554036  0.25077348  1
  P  P14  1  0.24979032  0.74349871  0.99750574  1
  P  P15  1  0.25000925  0.25628580  0.99885235  1
  S  S0  1  0.63268839  0.89469474  0.07248642  1
  S  S1  1  0.63214096  0.39408215  0.06986813  1
  S  S2  1  0.63629248  0.89951724  0.82268651  1
  S  S3  1  0.62539092  0.39082757  0.81996034  1
  S  S4  1  0.12983120  0.64069148  0.94400164  1
  S  S5  1  0.13285038  0.14562071  0.94333494  1
  S  S6  1  0.62738641  0.89636995  0.57211532  1
  S  S7  1  0.62972581  0.39614320  0.57243574  1
  S  S8  1  0.12978030  0.64786504  0.69944142  1
  S  S9  1  0.12521676  0.14306395  0.69845777  1
  S  S10  1  0.63878607  0.89700020  0.31673872  1
  S  S11  1  0.63462279  0.39286247  0.32088423  1
  S  S12  1  0.13096186  0.64895865  0.44419815  1
  S  S13  1  0.14088885  0.14437633  0.44268962  1
  S  S14  1  0.13520508  0.64699452  0.19602711  1
  S  S15  1  0.13129444  0.14345960  0.20031537  1
  S  S16  1  0.86868176  0.59929072  0.82314531  1
  S  S17  1  0.86739656  0.11398956  0.82025528  1
  S  S18  1  0.86276313  0.60773906  0.57282812  1
  S  S19  1  0.86936466  0.10477665  0.57299621  1
  S  S20  1  0.36468898  0.35016212  0.70063540  1
  S  S21  1  0.37009344  0.85560742  0.69877239  1
  S  S22  1  0.86612081  0.60567514  0.32268801  1
  S  S23  1  0.86860766  0.11186834  0.32240407  1
  S  S24  1  0.37546181  0.35983446  0.44641970  1
  S  S25  1  0.37220898  0.86037256  0.44429333  1
  S  S26  1  0.86713288  0.60854191  0.07276018  1
  S  S27  1  0.86663007  0.11066593  0.07500371  1
  S  S28  1  0.36310750  0.35671981  0.20068548  1
  S  S29  1  0.36017643  0.86002814  0.20019225  1
  S  S30  1  0.37013946  0.36416950  0.94393888  1
  S  S31  1  0.36566295  0.85489902  0.94698820  1
  S  S32  1  0.62889812  0.10728268  0.92846468  1
  S  S33  1  0.63746321  0.59877094  0.92946999  1
  S  S34  1  0.62556499  0.10858268  0.67747379  1
  S  S35  1  0.62786793  0.60800190  0.67957538  1
  S  S36  1  0.12615879  0.85699112  0.80503661  1
  S  S37  1  0.12899240  0.35358692  0.80464470  1
  S  S38  1  0.64021206  0.10484837  0.43093998  1
  S  S39  1  0.63751960  0.60033316  0.42953928  1
  S  S40  1  0.13640264  0.85599283  0.55154395  1
  S  S41  1  0.14264297  0.35672967  0.55369374  1
  S  S42  1  0.62922817  0.10446437  0.18069439  1
  S  S43  1  0.63275149  0.60512426  0.17837905  1
  S  S44  1  0.13160106  0.85694444  0.30812813  1
  S  S45  1  0.13172408  0.35426126  0.30708225  1
  S  S46  1  0.13683306  0.84796031  0.05409831  1
  S  S47  1  0.12986721  0.35787572  0.04967869  1
  S  S48  1  0.87611880  0.90413097  0.92776644  1
  S  S49  1  0.86968019  0.38706567  0.92766419  1
  S  S50  1  0.86370777  0.89291630  0.67714710  1
  S  S51  1  0.86312465  0.39297706  0.67742401  1
  S  S52  1  0.37369412  0.65052544  0.80414033  1
  S  S53  1  0.36666023  0.13787641  0.80580662  1
  S  S54  1  0.86144751  0.88906884  0.42611262  1
  S  S55  1  0.86986891  0.38776915  0.42999885  1
  S  S56  1  0.36333064  0.63897418  0.55033017  1
  S  S57  1  0.37009394  0.14041225  0.54926867  1
  S  S58  1  0.86993642  0.89256442  0.17777738  1
  S  S59  1  0.86810584  0.39035565  0.17598125  1
  S  S60  1  0.36571642  0.64240835  0.30429339  1
  S  S61  1  0.36805049  0.13926870  0.30629628  1
  S  S62  1  0.36852757  0.63914638  0.05170152  1
  S  S63  1  0.36744159  0.14809117  0.04767482  1
loop_
_geom_bond_atom_site_label_1
_geom_bond_atom_site_label_2
_geom_bond_distance
_geom_bond_site_symmetry_2
Li0 S27 2.524936 1_555
Li0 S32 2.548553 1_554
Li0 S1 2.597646 1_555
Li0 S49 2.660138 1_554
Li1 S35 2.541794 1_555
Li1 S50 2.557870 1_555
Li1 S2 2.656303 1_555
Li1 S16 2.705925 1_555
Li2 S51 2.518200 1_555
Li2 S34 2.528025 1_555
Li2 S3 2.594927 1_555
Li2 S17 2.640974 1_555
Li3 S52 2.523989 1_555
Li3 S4 2.533920 1_555
Li3 S30 2.611405 1_555
Li3 S37 2.640933 1_555
Li4 S36 2.495758 1_555
Li4 S53 2.557193 1_565
Li4 S31 2.563898 1_555
Li4 S5 2.630996 1_565
Li5 S21 2.540513 1_555
Li5 S9 2.595332 1_565
Li5 S40 2.638570 1_555
Li5 S57 2.747938 1_565
Li6 S59 2.521594 1_555
Li6 S42 2.559649 1_555
Li6 S11 2.569530 1_555
Li6 S23 2.666695 1_555
Li7 S60 2.531218 1_555
Li7 S45 2.556463 1_555
Li7 S12 2.604000 1_555
Li7 S24 2.612178 1_555
Li8 S48 2.390093 1_555
Li8 S4 2.405465 1_655
Li8 S36 2.413781 1_655
Li8 S16 2.428621 1_555
Li9 S18 2.387848 1_555
Li9 S8 2.415319 1_655
Li9 S50 2.438956 1_555
Li9 S40 2.462708 1_655
Li10 S51 2.403510 1_555
Li10 S19 2.408870 1_555
Li10 S41 2.428749 1_655
Li10 S9 2.453822 1_655
Li11 S35 2.389457 1_555
Li11 S20 2.393293 1_555
Li11 S52 2.400635 1_555
Li11 S3 2.451765 1_555
Li12 S21 2.391307 1_545
Li12 S34 2.399194 1_555
Li12 S53 2.404787 1_555
Li12 S2 2.408974 1_545
Li13 S15 2.387025 1_555
Li13 S47 2.398093 1_555
Li13 S27 2.435012 1_455
Li13 S59 2.438745 1_455
Li14 S43 2.382515 1_555
Li14 S28 2.392053 1_555
Li14 S60 2.414363 1_555
Li14 S11 2.445974 1_555
Li15 S0 2.387838 1_555
Li15 S31 2.408938 1_554
Li15 S63 2.409826 1_565
Li15 S32 2.431282 1_564
Li16 S48 2.405478 1_444
Li16 S27 2.429370 1_455
Li16 S46 2.457633 1_545
Li16 S5 2.513080 1_554
Li17 S47 2.373715 1_555
Li17 S4 2.382264 1_554
Li17 S26 2.416059 1_455
Li17 S49 2.482284 1_454
Li18 S36 2.390636 1_655
Li18 S9 2.392731 1_665
Li18 S50 2.411956 1_555
Li18 S17 2.446941 1_565
Li19 S8 2.387098 1_555
Li19 S51 2.397577 1_455
Li19 S16 2.444611 1_455
Li19 S37 2.454732 1_555
Li20 S31 2.415216 1_555
Li20 S52 2.424904 1_555
Li20 S2 2.431299 1_555
Li20 S33 2.461910 1_555
Li21 S32 2.383418 1_555
Li21 S3 2.385739 1_555
Li21 S53 2.395981 1_555
Li21 S30 2.418810 1_555
Li22 S19 2.416338 1_555
Li22 S40 2.454057 1_645
Li22 S54 2.467483 1_545
Li22 S13 2.507034 1_655
Li23 S18 2.392673 1_555
Li23 S41 2.436546 1_655
Li23 S55 2.470307 1_555
Li23 S12 2.521297 1_655
Li24 S35 2.393149 1_555
Li24 S21 2.438694 1_555
Li24 S6 2.450168 1_555
Li24 S56 2.452564 1_555
Li25 S7 2.410993 1_555
Li25 S34 2.415808 1_555
Li25 S20 2.422602 1_555
Li25 S57 2.454495 1_555
Li26 S15 2.374504 1_565
Li26 S44 2.409011 1_555
Li26 S58 2.429937 1_455
Li26 S23 2.481234 1_465
Li27 S59 2.424839 1_455
Li27 S14 2.436809 1_555
Li27 S22 2.471089 1_455
Li27 S45 2.498629 1_555
Li28 S60 2.439964 1_555
Li28 S25 2.453293 1_555
Li28 S10 2.457626 1_555
Li28 S39 2.474502 1_555
Li29 S61 2.423798 1_555
Li29 S11 2.424119 1_555
Li29 S38 2.424301 1_555
Li29 S24 2.430633 1_555
Li30 S0 2.413115 1_555
Li30 S43 2.419565 1_555
Li30 S62 2.483179 1_555
Li30 S29 2.507779 1_555
Li31 S63 2.409027 1_555
Li31 S28 2.409696 1_555
Li31 S42 2.523564 1_555
Li31 S1 2.524355 1_555
P0 S48 2.013023 1_545
P0 S2 2.059361 1_545
P0 S32 2.059684 1_555
P0 S17 2.117218 1_555
P1 S3 2.044173 1_555
P1 S16 2.047894 1_555
P1 S33 2.065070 1_555
P1 S49 2.105409 1_555
P2 S19 2.022707 1_555
P2 S50 2.068934 1_545
P2 S34 2.069497 1_555
P2 S6 2.088207 1_545
P3 S18 2.017959 1_555
P3 S35 2.062643 1_555
P3 S51 2.068259 1_555
P3 S7 2.085499 1_555
P4 S8 2.022588 1_555
P4 S36 2.069852 1_555
P4 S21 2.073946 1_555
P4 S52 2.076191 1_555
P5 S20 2.014330 1_555
P5 S53 2.055679 1_555
P5 S9 2.059461 1_555
P5 S37 2.121944 1_555
P6 S10 2.052332 1_545
P6 S38 2.055441 1_555
P6 S54 2.058135 1_545
P6 S23 2.097601 1_555
P7 S11 2.055848 1_555
P7 S55 2.064612 1_555
P7 S39 2.066835 1_555
P7 S22 2.073581 1_555
P8 S40 2.045889 1_555
P8 S56 2.057545 1_555
P8 S25 2.060688 1_555
P8 S12 2.109848 1_555
P9 S41 2.002215 1_555
P9 S13 2.066194 1_555
P9 S57 2.099285 1_555
P9 S24 2.106546 1_555
P10 S0 2.006017 1_555
P10 S27 2.061060 1_565
P10 S58 2.069586 1_555
P10 S42 2.131397 1_565
P11 S43 2.008266 1_555
P11 S59 2.062003 1_555
P11 S26 2.065637 1_555
P11 S1 2.128535 1_555
P12 S60 2.059746 1_555
P12 S14 2.064783 1_555
P12 S44 2.065321 1_555
P12 S29 2.066029 1_555
P13 S15 2.016106 1_555
P13 S28 2.020442 1_555
P13 S61 2.080558 1_555
P13 S45 2.138870 1_555
P14 S4 2.052364 1_555
P14 S31 2.056907 1_555
P14 S62 2.067997 1_556
P14 S46 2.072150 1_556
P15 S47 2.010694 1_556
P15 S63 2.016164 1_556
P15 S30 2.113298 1_555
P15 S5 2.118568 1_555
S1 Zn7 2.373503 1_555
S5 Zn0 2.352519 1_555
S6 Zn4 2.341154 1_555
S7 Zn3 2.326859 1_555
S10 Zn6 2.392809 1_565
S12 Zn1 2.390166 1_455
S13 Zn2 2.349932 1_555
S14 Zn5 2.401250 1_455
S17 Zn0 2.350580 1_655
S22 Zn1 2.368154 1_555
S23 Zn2 2.387626 1_655
S24 Zn3 2.414868 1_555
S25 Zn4 2.382053 1_555
S26 Zn5 2.375831 1_555
S29 Zn6 2.356763 1_565
S30 Zn7 2.386991 1_556
S33 Zn7 2.382608 1_556
S37 Zn0 2.351758 1_555
S38 Zn4 2.379012 1_545
S39 Zn3 2.378172 1_555
S42 Zn6 2.390387 1_555
S44 Zn1 2.349467 1_455
S45 Zn2 2.365391 1_555
S46 Zn5 2.387586 1_455
S49 Zn0 2.368464 1_655
S54 Zn1 2.364853 1_555
S55 Zn2 2.357934 1_655
S56 Zn3 2.379434 1_555
S57 Zn4 2.396786 1_545
S58 Zn5 2.379265 1_555
S61 Zn6 2.356607 1_555
S62 Zn7 2.341071 1_555
