# generated using pymatgen
data_YFe10Mo2N
_symmetry_space_group_name_H-M   'P 1'
_cell_length_a   4.71339200
_cell_length_b   6.40918898
_cell_length_c   6.40918898
_cell_angle_alpha   98.01168579
_cell_angle_beta   111.57419782
_cell_angle_gamma   68.42580218
_symmetry_Int_Tables_number   1
_chemical_formula_structural   YFe10Mo2N
_chemical_formula_sum   'Y1 Fe10 Mo2 N1'
_cell_volume   167.43511925
_cell_formula_units_Z   1
loop_
 _symmetry_equiv_pos_site_id
 _symmetry_equiv_pos_as_xyz
  1  'x, y, z'
loop_
 _atom_site_type_symbol
 _atom_site_label
 _atom_site_symmetry_multiplicity
 _atom_site_fract_x
 _atom_site_fract_y
 _atom_site_fract_z
 _atom_site_occupancy
  Y  Y0  1  0.00000000  0.00000000  0.00000000  1
  Fe  Fe0  1  0.71545800  0.78454200  0.21545800  1
  Fe  Fe1  1  0.28454200  0.21545800  0.78454200  1
  Fe  Fe2  1  0.50000000  0.78000000  0.78000000  1
  Fe  Fe3  1  0.50000000  0.22000000  0.22000000  1
  Fe  Fe4  1  0.50000000  0.00000000  0.50000000  1
  Fe  Fe5  1  0.00000000  0.00000000  0.50000000  1
  Fe  Fe6  1  0.50000000  0.50000000  0.00000000  1
  Fe  Fe7  1  0.00000000  0.50000000  0.00000000  1
  Fe  Fe8  1  0.63579200  0.36420800  0.63579200  1
  Fe  Fe9  1  0.36420800  0.63579200  0.36420800  1
  Mo  Mo0  1  0.00000000  0.35513700  0.35513700  1
  Mo  Mo1  1  0.00000000  0.64486300  0.64486300  1
  N  N0  1  0.50000000  0.00000000  0.00000000  1
loop_
_geom_bond_atom_site_label_1
_geom_bond_atom_site_label_2
_geom_bond_distance
_geom_bond_site_symmetry_2
Fe0 N0 1.820458 1_565
Fe0 Fe6 2.427498 1_555
Fe0 Fe7 2.427498 1_655
Fe0 Fe4 2.427498 1_565
Fe0 Fe5 2.427498 1_665
Fe0 Fe9 2.670885 1_555
Fe0 Fe9 2.670885 1_655
Fe0 Mo0 2.695139 1_655
Fe0 Mo1 2.695139 1_655
Fe1 N0 1.820458 1_556
Fe1 Fe5 2.427498 1_555
Fe1 Fe4 2.427498 1_555
Fe1 Fe7 2.427498 1_556
Fe1 Fe6 2.427498 1_556
Fe1 Fe8 2.670885 1_455
Fe1 Fe8 2.670885 1_555
Fe1 Mo0 2.695139 1_555
Fe1 Mo1 2.695139 1_555
Fe2 N0 1.849898 1_566
Fe2 Fe5 2.431871 1_565
Fe2 Fe6 2.431871 1_556
Fe2 Fe7 2.431871 1_656
Fe2 Fe4 2.431871 1_565
Fe2 Mo1 2.616339 1_555
Fe2 Mo1 2.616339 1_655
Fe2 Fe9 2.619095 1_555
Fe2 Fe8 2.619095 1_555
Fe3 N0 1.849898 1_555
Fe3 Fe5 2.431871 1_655
Fe3 Fe6 2.431871 1_555
Fe3 Fe7 2.431871 1_555
Fe3 Fe4 2.431871 1_555
Fe3 Mo0 2.616339 1_555
Fe3 Mo0 2.616339 1_655
Fe3 Fe9 2.619095 1_555
Fe3 Fe8 2.619095 1_555
Fe4 Fe5 2.356696 1_655
Fe4 Fe5 2.356696 1_555
Fe4 Mo0 2.575252 1_555
Fe4 Mo1 2.575252 1_645
Fe4 Fe9 2.595908 1_545
Fe4 Fe8 2.595908 1_555
Fe4 Y0 3.204594 1_656
Fe4 Y0 3.204594 1_555
Fe5 Mo1 2.575252 1_545
Fe5 Mo0 2.575252 1_555
Fe5 Fe9 2.595908 1_545
Fe5 Fe8 2.595908 1_455
Fe5 Y0 3.204594 1_556
Fe5 Y0 3.204594 1_555
Fe6 Fe7 2.356696 1_555
Fe6 Fe7 2.356696 1_655
Fe6 Mo1 2.575252 1_554
Fe6 Mo0 2.575252 1_655
Fe6 Fe8 2.595908 1_554
Fe6 Fe9 2.595908 1_555
Fe6 Y0 3.204594 1_655
Fe6 Y0 3.204594 1_565
Fe7 Mo1 2.575252 1_554
Fe7 Mo0 2.575252 1_555
Fe7 Fe8 2.595908 1_454
Fe7 Fe9 2.595908 1_555
Fe7 Y0 3.204594 1_555
Fe7 Y0 3.204594 1_565
Fe8 Fe9 2.294680 1_555
Fe8 Mo1 2.890358 1_555
Fe8 Mo1 2.890358 1_655
Fe8 Mo0 2.890358 1_655
Fe8 Mo0 2.890358 1_555
Fe8 Y0 3.077283 1_656
Fe9 Mo0 2.890358 1_555
Fe9 Mo1 2.890358 1_555
Fe9 Mo1 2.890358 1_655
Fe9 Mo0 2.890358 1_655
Fe9 Y0 3.077283 1_565
Mo0 Mo1 2.436198 1_555
Mo0 Y0 2.986214 1_555
Mo1 Y0 2.986214 1_566
N0 Y0 2.356696 1_655
N0 Y0 2.356696 1_555
