# generated using pymatgen
data_NaTl3Cu4(TeO6)2
_symmetry_space_group_name_H-M   'P 1'
_cell_length_a   8.10981085
_cell_length_b   8.10981085
_cell_length_c   5.31502658
_cell_angle_alpha   78.14022989
_cell_angle_beta   78.14022989
_cell_angle_gamma   71.59985890
_symmetry_Int_Tables_number   1
_chemical_formula_structural   NaTl3Cu4(TeO6)2
_chemical_formula_sum   'Na1 Tl3 Cu4 Te2 O12'
_cell_volume   320.86755703
_cell_formula_units_Z   1
loop_
 _symmetry_equiv_pos_site_id
 _symmetry_equiv_pos_as_xyz
  1  'x, y, z'
loop_
 _atom_site_type_symbol
 _atom_site_label
 _atom_site_symmetry_multiplicity
 _atom_site_fract_x
 _atom_site_fract_y
 _atom_site_fract_z
 _atom_site_occupancy
  Na  Na0  1  0.00000000  0.00000000  0.00000000  1
  Tl  Tl0  1  0.74886000  0.25114000  0.50000000  1
  Tl  Tl1  1  0.25114000  0.74886000  0.50000000  1
  Tl  Tl2  1  0.50000000  0.50000000  0.00000000  1
  Cu  Cu0  1  0.07314000  0.40056300  0.74390200  1
  Cu  Cu1  1  0.40056300  0.07314000  0.74390200  1
  Cu  Cu2  1  0.92686000  0.59943700  0.25609800  1
  Cu  Cu3  1  0.59943700  0.92686000  0.25609800  1
  Te  Te0  1  0.21380200  0.21380200  0.23947500  1
  Te  Te1  1  0.78619800  0.78619800  0.76052500  1
  O  O0  1  0.99141600  0.29274400  0.09795500  1
  O  O1  1  0.29274400  0.99141600  0.09795500  1
  O  O2  1  0.00858400  0.70725600  0.90204500  1
  O  O3  1  0.70725600  0.00858400  0.90204500  1
  O  O4  1  0.15996400  0.44839000  0.35396200  1
  O  O5  1  0.44839000  0.15996400  0.35396200  1
  O  O6  1  0.84003600  0.55161000  0.64603800  1
  O  O7  1  0.55161000  0.84003600  0.64603800  1
  O  O8  1  0.30509800  0.30509800  0.86864300  1
  O  O9  1  0.69490200  0.69490200  0.13135700  1
  O  O10  1  0.11371100  0.11371100  0.56941000  1
  O  O11  1  0.88628900  0.88628900  0.43059000  1
loop_
_geom_bond_atom_site_label_1
_geom_bond_atom_site_label_2
_geom_bond_distance
_geom_bond_site_symmetry_2
Na0 O11 2.395911 1_445
Na0 O10 2.395911 1_554
Na0 O3 2.510193 1_454
Na0 O0 2.510193 1_455
Na0 O1 2.510193 1_545
Na0 O2 2.510193 1_544
Cu0 O0 1.980373 1_456
Cu0 O8 1.989943 1_555
Cu0 O6 2.006285 1_455
Cu0 O4 2.045440 1_555
Cu0 O2 2.650140 1_555
Cu1 O1 1.980373 1_546
Cu1 O8 1.989943 1_555
Cu1 O7 2.006285 1_545
Cu1 O5 2.045440 1_555
Cu1 O3 2.650140 1_555
Cu2 O2 1.980373 1_654
Cu2 O9 1.989943 1_555
Cu2 O4 2.006285 1_655
Cu2 O6 2.045440 1_555
Cu2 O0 2.650140 1_555
Cu3 O3 1.980373 1_564
Cu3 O9 1.989943 1_555
Cu3 O5 2.006285 1_565
Cu3 O7 2.045440 1_555
Cu3 O1 2.650140 1_555
O0 Te0 1.964442 1_655
O0 Tl0 2.635224 1_555
O1 Te0 1.964442 1_565
O1 Tl1 2.635224 1_555
O2 Te1 1.964442 1_455
O2 Tl1 2.635224 1_555
O3 Te1 1.964442 1_545
O3 Tl0 2.635224 1_555
O4 Te0 2.005622 1_555
O5 Te0 2.005622 1_555
O6 Te1 2.005622 1_555
O7 Te1 2.005622 1_555
O8 Te0 2.031639 1_556
O8 Tl2 2.822861 1_556
O9 Te1 2.031639 1_554
O9 Tl2 2.822861 1_555
O10 Te0 1.907545 1_555
O11 Te1 1.907545 1_555
