# generated using pymatgen
data_Zr4CoP
_symmetry_space_group_name_H-M   'P 1'
_cell_length_a   6.41810000
_cell_length_b   6.41810000
_cell_length_c   5.46287200
_cell_angle_alpha   90.00000000
_cell_angle_beta   90.00000000
_cell_angle_gamma   90.00000000
_symmetry_Int_Tables_number   1
_chemical_formula_structural   Zr4CoP
_chemical_formula_sum   'Zr8 Co2 P2'
_cell_volume   225.02666500
_cell_formula_units_Z   2
loop_
 _symmetry_equiv_pos_site_id
 _symmetry_equiv_pos_as_xyz
  1  'x, y, z'
loop_
 _atom_site_type_symbol
 _atom_site_label
 _atom_site_symmetry_multiplicity
 _atom_site_fract_x
 _atom_site_fract_y
 _atom_site_fract_z
 _atom_site_occupancy
  Zr  Zr0  1  0.16086500  0.66709200  0.50000000  1
  Zr  Zr1  1  0.83913500  0.33290800  0.50000000  1
  Zr  Zr2  1  0.66709200  0.83913500  0.50000000  1
  Zr  Zr3  1  0.33290800  0.16086500  0.50000000  1
  Zr  Zr4  1  0.16086500  0.33290800  0.00000000  1
  Zr  Zr5  1  0.83913500  0.66709200  0.00000000  1
  Zr  Zr6  1  0.66709200  0.16086500  0.00000000  1
  Zr  Zr7  1  0.33290800  0.83913500  0.00000000  1
  Co  Co0  1  0.00000000  0.00000000  0.25000000  1
  Co  Co1  1  0.00000000  0.00000000  0.75000000  1
  P  P0  1  0.50000000  0.50000000  0.25000000  1
  P  P1  1  0.50000000  0.50000000  0.75000000  1
loop_
_geom_bond_atom_site_label_1
_geom_bond_atom_site_label_2
_geom_bond_distance
_geom_bond_site_symmetry_2
Co0 Zr4 2.737946 1_555
Co0 Zr0 2.737946 1_545
Co0 Zr6 2.737946 1_455
Co0 Zr3 2.737946 1_555
Co0 Zr2 2.737946 1_445
Co0 Zr5 2.737946 1_445
Co0 Zr1 2.737946 1_455
Co0 Zr7 2.737946 1_545
Co1 Zr4 2.737946 1_556
Co1 Zr0 2.737946 1_545
Co1 Zr6 2.737946 1_456
Co1 Zr3 2.737946 1_555
Co1 Zr7 2.737946 1_546
Co1 Zr2 2.737946 1_445
Co1 Zr1 2.737946 1_455
Co1 Zr5 2.737946 1_446
P0 Zr0 2.784395 1_555
P0 Zr2 2.784395 1_555
P0 Zr1 2.784395 1_555
P0 Zr3 2.784395 1_555
P0 Zr6 2.784395 1_555
P0 Zr7 2.784395 1_555
P0 Zr4 2.784395 1_555
P0 Zr5 2.784395 1_555
P1 Zr0 2.784395 1_555
P1 Zr2 2.784395 1_555
P1 Zr6 2.784395 1_556
P1 Zr1 2.784395 1_555
P1 Zr3 2.784395 1_555
P1 Zr7 2.784395 1_556
P1 Zr4 2.784395 1_556
P1 Zr5 2.784395 1_556
