# generated using pymatgen
data_Li9Mn2Co5O16
_symmetry_space_group_name_H-M   'P 1'
_cell_length_a   6.48185700
_cell_length_b   6.48590176
_cell_length_c   7.82905360
_cell_angle_alpha   65.74251700
_cell_angle_beta   77.65290667
_cell_angle_gamma   71.96760675
_symmetry_Int_Tables_number   1
_chemical_formula_structural   Li9Mn2Co5O16
_chemical_formula_sum   'Li9 Mn2 Co5 O16'
_cell_volume   283.91015279
_cell_formula_units_Z   1
loop_
 _symmetry_equiv_pos_site_id
 _symmetry_equiv_pos_as_xyz
  1  'x, y, z'
loop_
 _atom_site_type_symbol
 _atom_site_label
 _atom_site_symmetry_multiplicity
 _atom_site_fract_x
 _atom_site_fract_y
 _atom_site_fract_z
 _atom_site_occupancy
  Li  Li0  1  0.94325900  0.55664800  0.30783400  1
  Li  Li1  1  0.44535900  0.05591700  0.81244500  1
  Li  Li2  1  0.06020700  0.44045700  0.68762100  1
  Li  Li3  1  0.55802000  0.93640400  0.18519200  1
  Li  Li4  1  0.19242300  0.32414000  0.06286900  1
  Li  Li5  1  0.67793600  0.81234700  0.56873900  1
  Li  Li6  1  0.32347600  0.19651400  0.42203000  1
  Li  Li7  1  0.80015700  0.68038900  0.95131900  1
  Li  Li8  1  0.37723400  0.61918900  0.12612500  1
  Mn  Mn0  1  0.99868400  0.99668000  0.00055800  1
  Mn  Mn1  1  0.13077100  0.87771700  0.37020900  1
  Co  Co0  1  0.50462000  0.49948900  0.49171200  1
  Co  Co1  1  0.62123800  0.37577300  0.88092600  1
  Co  Co2  1  0.25114900  0.74594300  0.76055300  1
  Co  Co3  1  0.74736100  0.25420400  0.24635000  1
  Co  Co4  1  0.87199900  0.12669000  0.62271300  1
  O  O0  1  0.08501000  0.67928800  0.02249600  1
  O  O1  1  0.60500400  0.15502100  0.53815500  1
  O  O2  1  0.21950700  0.54823600  0.41752000  1
  O  O3  1  0.72714000  0.04258000  0.90866900  1
  O  O4  1  0.35471200  0.42647100  0.78245200  1
  O  O5  1  0.86442400  0.92290600  0.26283400  1
  O  O6  1  0.49079700  0.27992200  0.15791800  1
  O  O7  1  0.98766100  0.80837300  0.63215200  1
  O  O8  1  0.77532300  0.44757600  0.59588300  1
  O  O9  1  0.25404200  0.96590400  0.10865600  1
  O  O10  1  0.89911200  0.33041900  0.96095800  1
  O  O11  1  0.39089400  0.84498800  0.46278700  1
  O  O12  1  0.02203000  0.20459500  0.34214700  1
  O  O13  1  0.52614700  0.70616400  0.83508200  1
  O  O14  1  0.13774000  0.07140500  0.74125700  1
  O  O15  1  0.65655900  0.56765000  0.23384300  1
loop_
_geom_bond_atom_site_label_1
_geom_bond_atom_site_label_2
_geom_bond_distance
_geom_bond_site_symmetry_2
Li0 O15 2.034315 1_555
Li0 O12 2.092735 1_655
Li0 O2 2.122564 1_655
Li0 O0 2.140550 1_655
Li0 O5 2.160116 1_555
Li0 O8 2.210683 1_555
Li1 O3 2.085202 1_555
Li1 O1 2.103023 1_555
Li1 O13 2.103679 1_545
Li1 O14 2.145174 1_555
Li1 O4 2.213055 1_555
Li1 O9 2.315713 1_546
Li2 O2 2.079657 1_555
Li2 O8 2.101186 1_455
Li2 O10 2.104753 1_455
Li2 O7 2.155254 1_455
Li2 O4 2.155705 1_555
Li2 O14 2.162867 1_555
Li3 O6 2.060918 1_565
Li3 O9 2.110739 1_555
Li3 O11 2.140166 1_555
Li3 O3 2.142472 1_564
Li3 O15 2.164030 1_555
Li3 O5 2.164845 1_555
Li4 O0 2.096075 1_555
Li4 O6 2.114985 1_555
Li4 O9 2.118707 1_545
Li4 O4 2.148063 1_554
Li4 O12 2.169364 1_555
Li4 O10 2.197022 1_454
Li5 O13 2.037779 1_555
Li5 O1 2.044796 1_565
Li5 O11 2.113404 1_555
Li5 O7 2.158999 1_555
Li5 O8 2.181883 1_555
Li5 O5 2.366131 1_555
Li6 O6 2.056580 1_555
Li6 O11 2.082314 1_545
Li6 O1 2.105563 1_555
Li6 O12 2.154994 1_555
Li6 O2 2.156766 1_555
Li6 O14 2.450661 1_555
Li7 O0 2.036731 1_656
Li7 O13 2.095951 1_555
Li7 O15 2.122604 1_556
Li7 O10 2.132603 1_555
Li7 O3 2.142117 1_565
Li7 O7 2.455919 1_555
Li8 O6 2.017747 1_555
Li8 O15 2.036586 1_555
Li8 O0 2.082848 1_555
Li8 O9 2.096552 1_555
Li8 O13 2.186828 1_554
Li8 O2 2.211947 1_555
Mn0 O0 1.902043 1_655
Mn0 O3 1.935276 1_564
Mn0 O9 1.936869 1_655
Mn0 O14 1.961634 1_664
Mn0 O10 1.966567 1_564
Mn0 O5 1.972030 1_555
Mn1 O11 1.894172 1_555
Mn1 O2 1.927295 1_555
Mn1 O9 1.944107 1_555
Mn1 O12 1.948906 1_565
Mn1 O5 1.969284 1_455
Mn1 O7 1.988783 1_455
Co0 O2 1.949134 1_555
Co0 O8 1.969247 1_555
Co0 O15 1.981685 1_555
Co0 O1 2.020109 1_555
Co0 O11 2.061050 1_555
Co0 O4 2.191545 1_555
Co1 O4 1.922669 1_555
Co1 O10 1.930390 1_555
Co1 O13 1.935357 1_555
Co1 O3 1.987012 1_555
Co1 O6 2.058553 1_556
Co1 O8 2.162250 1_555
Co2 O13 1.902817 1_555
Co2 O4 1.915630 1_555
Co2 O14 1.960593 1_565
Co2 O7 2.015698 1_455
Co2 O0 2.041445 1_556
Co2 O11 2.212336 1_555
Co3 O6 1.870437 1_555
Co3 O15 1.899814 1_555
Co3 O12 1.963120 1_655
Co3 O5 2.003547 1_545
Co3 O10 2.158189 1_554
Co3 O1 2.177811 1_555
Co4 O8 1.912586 1_555
Co4 O1 1.913170 1_555
Co4 O7 1.941659 1_545
Co4 O14 1.996186 1_655
Co4 O12 2.122412 1_655
Co4 O3 2.146139 1_555
