# generated using pymatgen
data_Ba2Mn3Tl2Zn2O10
_symmetry_space_group_name_H-M   'P 1'
_cell_length_a   3.62798800
_cell_length_b   3.94951000
_cell_length_c   20.06759233
_cell_angle_alpha   95.28772361
_cell_angle_beta   93.18746015
_cell_angle_gamma   90.00206000
_symmetry_Int_Tables_number   1
_chemical_formula_structural   Ba2Mn3Tl2Zn2O10
_chemical_formula_sum   'Ba2 Mn3 Tl2 Zn2 O10'
_cell_volume   285.87355969
_cell_formula_units_Z   1
loop_
 _symmetry_equiv_pos_site_id
 _symmetry_equiv_pos_as_xyz
  1  'x, y, z'
loop_
 _atom_site_type_symbol
 _atom_site_label
 _atom_site_symmetry_multiplicity
 _atom_site_fract_x
 _atom_site_fract_y
 _atom_site_fract_z
 _atom_site_occupancy
  Ba  Ba0  1  0.18769900  0.13503700  0.29364400  1
  Ba  Ba1  1  0.91473500  0.86398600  0.69234000  1
  Mn  Mn0  1  0.42159200  0.42315500  0.81947000  1
  Mn  Mn1  1  0.62629200  0.56747400  0.15826300  1
  Mn  Mn2  1  0.66193500  0.49478200  0.99027400  1
  Tl  Tl0  1  0.78855700  0.70728100  0.43155400  1
  Tl  Tl1  1  0.29676800  0.27062100  0.55265900  1
  Zn  Zn0  1  0.95237800  0.95565700  0.89362800  1
  Zn  Zn1  1  0.11602600  0.03219200  0.07711500  1
  O  O0  1  0.40555000  0.92626200  0.82647700  1
  O  O1  1  0.43199900  0.37889300  0.72156800  1
  O  O2  1  0.93963500  0.44903300  0.87941700  1
  O  O3  1  0.72792000  0.75661800  0.53562800  1
  O  O4  1  0.18341500  0.51856800  0.04690300  1
  O  O5  1  0.13727500  0.58377400  0.19463600  1
  O  O6  1  0.69326800  0.65306900  0.32635900  1
  O  O7  1  0.63328300  0.05681200  0.13533400  1
  O  O8  1  0.17656400  0.20876300  0.43397000  1
  O  O9  1  0.69498200  0.99102500  0.98172200  1
loop_
_geom_bond_atom_site_label_1
_geom_bond_atom_site_label_2
_geom_bond_distance
_geom_bond_site_symmetry_2
Ba0 O6 2.741427 1_545
Ba0 O6 2.756727 1_555
Ba0 O6 2.762824 1_445
Ba0 O6 2.778191 1_455
Ba0 O5 2.780412 1_555
Ba0 O8 2.806746 1_555
Ba0 O5 2.807770 1_545
Ba1 O1 2.720845 1_555
Ba1 O1 2.727926 1_565
Ba1 O1 2.760674 1_655
Ba1 O1 2.767468 1_665
Ba1 O3 3.169591 1_555
Mn0 O1 1.958778 1_555
Mn0 O0 1.980114 1_555
Mn0 O0 1.981481 1_545
Mn0 O2 2.171606 1_555
Mn0 O2 2.174000 1_455
Mn1 O5 1.953075 1_655
Mn1 O5 1.954452 1_555
Mn1 O7 2.027402 1_555
Mn1 O7 2.027974 1_565
Mn1 O4 2.670971 1_555
Mn2 O9 1.985366 1_545
Mn2 O9 1.987302 1_555
Mn2 O4 2.124594 1_556
Mn2 O4 2.149614 1_656
Mn2 O2 2.484321 1_555
O0 Zn0 2.179455 1_455
O0 Zn0 2.332176 1_555
O2 Zn0 1.995115 1_555
O2 Zn0 1.995356 1_545
O3 Tl0 2.103413 1_555
O3 Tl1 2.535352 1_555
O3 Tl1 2.572259 1_565
O3 Tl1 2.846580 1_655
O3 Tl1 2.879322 1_665
O4 Zn1 2.081407 1_565
O4 Zn1 2.085305 1_555
O6 Tl0 2.111220 1_555
O7 Zn1 2.152042 1_555
O7 Zn1 2.156012 1_655
O8 Tl1 2.387485 1_555
O8 Tl0 2.422954 1_455
O8 Tl0 2.425128 1_445
O9 Zn0 2.038349 1_555
O9 Zn1 2.375252 1_666
