# generated using pymatgen
data_LaTb3
_symmetry_space_group_name_H-M   'P 1'
_cell_length_a   6.24941142
_cell_length_b   6.24941142
_cell_length_c   6.24941142
_cell_angle_alpha   131.48450546
_cell_angle_beta   131.48450546
_cell_angle_gamma   71.04442320
_symmetry_Int_Tables_number   1
_chemical_formula_structural   LaTb3
_chemical_formula_sum   'La1 Tb3'
_cell_volume   134.11988927
_cell_formula_units_Z   1
loop_
 _symmetry_equiv_pos_site_id
 _symmetry_equiv_pos_as_xyz
  1  'x, y, z'
loop_
 _atom_site_type_symbol
 _atom_site_label
 _atom_site_symmetry_multiplicity
 _atom_site_fract_x
 _atom_site_fract_y
 _atom_site_fract_z
 _atom_site_occupancy
  La  La0  1  0.00000000  -0.00000000  -0.00000000  1
  Tb  Tb0  1  0.75000000  0.25000000  0.50000000  1
  Tb  Tb1  1  0.25000000  0.75000000  0.50000000  1
  Tb  Tb2  1  0.50000000  0.50000000  -0.00000000  1
loop_
_geom_bond_atom_site_label_1
_geom_bond_atom_site_label_2
_geom_bond_distance
_geom_bond_site_symmetry_2
La0 Tb1 3.613844 1_555
La0 Tb1 3.613844 1_545
La0 Tb0 3.613844 1_555
La0 Tb1 3.613844 1_544
La0 Tb0 3.613844 1_444
La0 Tb0 3.613844 1_455
La0 Tb0 3.613844 1_454
La0 Tb1 3.613844 1_444
La0 Tb2 3.631024 1_455
La0 Tb2 3.631024 1_545
La0 Tb2 3.631024 1_556
La0 Tb2 3.631024 1_444
Tb0 Tb2 3.613844 1_556
Tb0 Tb2 3.613844 1_555
Tb0 Tb2 3.613844 1_656
Tb0 Tb2 3.613844 1_545
Tb0 Tb1 3.631024 1_656
Tb0 Tb1 3.631024 1_544
Tb0 Tb1 3.631024 1_645
Tb0 Tb1 3.631024 1_555
Tb1 Tb2 3.613844 1_566
Tb1 Tb2 3.613844 1_455
Tb1 Tb2 3.613844 1_556
Tb1 Tb2 3.613844 1_555
