# generated using pymatgen
data_CrN
_symmetry_space_group_name_H-M   'P 1'
_cell_length_a   2.98127816
_cell_length_b   4.97369009
_cell_length_c   5.09671658
_cell_angle_alpha   97.67378142
_cell_angle_beta   107.00339936
_cell_angle_gamma   89.99976868
_symmetry_Int_Tables_number   1
_chemical_formula_structural   CrN
_chemical_formula_sum   'Cr4 N4'
_cell_volume   71.56231406
_cell_formula_units_Z   4
loop_
 _symmetry_equiv_pos_site_id
 _symmetry_equiv_pos_as_xyz
  1  'x, y, z'
loop_
 _atom_site_type_symbol
 _atom_site_label
 _atom_site_symmetry_multiplicity
 _atom_site_fract_x
 _atom_site_fract_y
 _atom_site_fract_z
 _atom_site_occupancy
  Cr  Cr0  1  0.74876300  0.26168200  0.49762300  1
  Cr  Cr1  1  0.00123100  0.98831800  0.00236300  1
  Cr  Cr2  1  0.50123600  0.48838200  0.00238400  1
  Cr  Cr3  1  0.24876100  0.76163500  0.49761400  1
  N  N0  1  0.37500300  0.12499900  0.75000500  1
  N  N1  1  0.12502300  0.37496600  0.25003900  1
  N  N2  1  0.87499800  0.62499400  0.74999500  1
  N  N3  1  0.62498600  0.87502400  0.24997700  1
loop_
_geom_bond_atom_site_label_1
_geom_bond_atom_site_label_2
_geom_bond_distance
_geom_bond_site_symmetry_2
Cr0 N2 2.039001 1_555
Cr0 N1 2.045770 1_555
Cr0 N1 2.045922 1_655
Cr0 N0 2.104812 1_555
Cr0 N0 2.105091 1_655
Cr0 N3 2.122970 1_545
Cr1 N2 2.039040 1_454
Cr1 N3 2.045880 1_555
Cr1 N3 2.046032 1_455
Cr1 N0 2.104734 1_564
Cr1 N0 2.105013 1_464
Cr1 N1 2.122993 1_565
Cr2 N0 2.039301 1_554
Cr2 N1 2.046248 1_655
Cr2 N1 2.046349 1_555
Cr2 N2 2.104702 1_554
Cr2 N2 2.104958 1_454
Cr2 N3 2.122790 1_555
Cr3 N0 2.039253 1_565
Cr3 N3 2.046138 1_455
Cr3 N3 2.046253 1_555
Cr3 N2 2.104729 1_455
Cr3 N2 2.104998 1_555
Cr3 N1 2.122862 1_555
