# generated using pymatgen
data_Ca
_symmetry_space_group_name_H-M   'P 1'
_cell_length_a   7.25997671
_cell_length_b   7.25131200
_cell_length_c   44.43563073
_cell_angle_alpha   90.00000000
_cell_angle_beta   90.97518482
_cell_angle_gamma   90.00000000
_symmetry_Int_Tables_number   1
_chemical_formula_structural   Ca
_chemical_formula_sum   Ca8
_cell_volume   2338.94635067
_cell_formula_units_Z   8
loop_
 _symmetry_equiv_pos_site_id
 _symmetry_equiv_pos_as_xyz
  1  'x, y, z'
loop_
 _atom_site_type_symbol
 _atom_site_label
 _atom_site_symmetry_multiplicity
 _atom_site_fract_x
 _atom_site_fract_y
 _atom_site_fract_z
 _atom_site_occupancy
  Ca  Ca0_0  1  0.00000000  0.25000000  0.12500000  1
  Ca  Ca0_1  1  0.00000000  0.25000000  0.62500000  1
  Ca  Ca0_2  1  0.00000000  0.75000000  0.12500000  1
  Ca  Ca0_3  1  0.00000000  0.75000000  0.62500000  1
  Ca  Ca0_4  1  0.50000000  0.25000000  0.12500000  1
  Ca  Ca0_5  1  0.50000000  0.25000000  0.62500000  1
  Ca  Ca0_6  1  0.50000000  0.75000000  0.12500000  1
  Ca  Ca0_7  1  0.50000000  0.75000000  0.62500000  1
loop_
_geom_bond_atom_site_label_1
_geom_bond_atom_site_label_2
_geom_bond_distance
_geom_bond_site_symmetry_2
Ca0_0 Ca0_2 3.625656 1_545
Ca0_0 Ca0_2 3.625656 1_555
Ca0_0 Ca0_4 3.629988 1_455
Ca0_0 Ca0_4 3.629988 1_555
Ca0_1 Ca0_3 3.625656 1_555
Ca0_1 Ca0_3 3.625656 1_545
Ca0_1 Ca0_5 3.629988 1_555
Ca0_1 Ca0_5 3.629988 1_455
Ca0_2 Ca0_6 3.629988 1_555
Ca0_2 Ca0_6 3.629988 1_455
Ca0_3 Ca0_7 3.629988 1_555
Ca0_3 Ca0_7 3.629988 1_455
Ca0_4 Ca0_6 3.625656 1_555
Ca0_4 Ca0_6 3.625656 1_545
Ca0_5 Ca0_7 3.625656 1_555
Ca0_5 Ca0_7 3.625656 1_545
