# generated using pymatgen
data_Sr2Gd2TlNi2O9
_symmetry_space_group_name_H-M   'P 1'
_cell_length_a   15.03263501
_cell_length_b   15.02858627
_cell_length_c   3.81128455
_cell_angle_alpha   82.77658194
_cell_angle_beta   82.65583348
_cell_angle_gamma   14.56758458
_symmetry_Int_Tables_number   1
_chemical_formula_structural   Sr2Gd2TlNi2O9
_chemical_formula_sum   'Sr2 Gd2 Tl1 Ni2 O9'
_cell_volume   214.78725920
_cell_formula_units_Z   1
loop_
 _symmetry_equiv_pos_site_id
 _symmetry_equiv_pos_as_xyz
  1  'x, y, z'
loop_
 _atom_site_type_symbol
 _atom_site_label
 _atom_site_symmetry_multiplicity
 _atom_site_fract_x
 _atom_site_fract_y
 _atom_site_fract_z
 _atom_site_occupancy
  Sr  Sr0  1  0.59177400  0.57859300  0.42140700  1
  Sr  Sr1  1  0.42140700  0.40822600  0.59177400  1
  Gd  Gd0  1  0.70406500  0.70262500  0.29737500  1
  Gd  Gd1  1  0.29737500  0.29593500  0.70406500  1
  Tl  Tl0  1  0.04358400  0.95641600  0.04358400  1
  Ni  Ni0  1  0.15010000  0.14677800  0.85322200  1
  Ni  Ni1  1  0.85322200  0.84990000  0.15010000  1
  O  O0  1  0.65327900  0.64910700  0.85019100  1
  O  O1  1  0.15257600  0.14980900  0.35089300  1
  O  O2  1  0.35089300  0.34672100  0.15257600  1
  O  O3  1  0.85019100  0.84742400  0.65327900  1
  O  O4  1  0.22130700  0.22050500  0.77949500  1
  O  O5  1  0.77949500  0.77869300  0.22130700  1
  O  O6  1  0.47922900  0.52077100  0.47922900  1
  O  O7  1  0.07108300  0.07158000  0.92842000  1
  O  O8  1  0.92842000  0.92891700  0.07108300  1
loop_
_geom_bond_atom_site_label_1
_geom_bond_atom_site_label_2
_geom_bond_distance
_geom_bond_site_symmetry_2
Gd0 O5 2.240206 1_555
Gd0 O0 2.449597 1_554
Gd0 O1 2.449608 1_565
Gd0 O0 2.453600 1_555
Gd0 O1 2.453607 1_655
Gd0 O4 2.733463 1_654
Gd0 O4 2.733463 1_565
Gd0 O4 2.753939 1_655
Gd0 O4 2.757331 1_564
Gd1 O4 2.240206 1_555
Gd1 O2 2.449600 1_555
Gd1 O3 2.449608 1_455
Gd1 O2 2.453597 1_556
Gd1 O3 2.453607 1_545
Gd1 O5 2.733463 1_456
Gd1 O5 2.733463 1_545
Gd1 O5 2.753939 1_546
Gd1 O5 2.757331 1_455
Ni0 O0 1.905773 1_455
Ni0 O1 1.905774 1_555
Ni0 O1 1.908989 1_556
Ni0 O0 1.908992 1_545
Ni0 O4 2.143155 1_555
Ni0 O7 2.280406 1_555
Ni1 O3 1.905770 1_554
Ni1 O2 1.905773 1_565
Ni1 O2 1.908992 1_655
Ni1 O3 1.908993 1_555
Ni1 O5 2.143155 1_555
Ni1 O8 2.280406 1_555
O0 Sr0 2.714213 1_555
O0 Sr0 2.742136 1_556
O1 Sr0 2.714201 1_455
O1 Sr0 2.742127 1_545
O2 Sr1 2.714211 1_554
O2 Sr1 2.742138 1_555
O3 Sr1 2.714201 1_565
O3 Sr1 2.742127 1_655
O6 Tl0 2.357930 1_555
O6 Sr0 2.523571 1_555
O6 Sr1 2.523571 1_555
O6 Tl0 2.706181 1_645
O6 Tl0 2.706181 1_556
O7 Tl0 2.122861 1_546
O7 Sr0 2.700489 1_455
O7 Sr0 2.715010 1_456
O7 Sr0 2.715010 1_545
O7 Sr0 2.773687 1_546
O8 Tl0 2.122861 1_655
O8 Sr1 2.700489 1_564
O8 Sr1 2.715010 1_565
O8 Sr1 2.715010 1_654
O8 Sr1 2.773687 1_655
