# generated using pymatgen
data_Sc5P12Ir19
_symmetry_space_group_name_H-M   'P 1'
_cell_length_a   12.56928381
_cell_length_b   12.56901184
_cell_length_c   3.89603157
_cell_angle_alpha   89.99999811
_cell_angle_beta   90.00000666
_cell_angle_gamma   119.99981708
_symmetry_Int_Tables_number   1
_chemical_formula_structural   Sc5P12Ir19
_chemical_formula_sum   'Sc5 P12 Ir19'
_cell_volume   533.04707873
_cell_formula_units_Z   1
loop_
 _symmetry_equiv_pos_site_id
 _symmetry_equiv_pos_as_xyz
  1  'x, y, z'
loop_
 _atom_site_type_symbol
 _atom_site_label
 _atom_site_symmetry_multiplicity
 _atom_site_fract_x
 _atom_site_fract_y
 _atom_site_fract_z
 _atom_site_occupancy
  Sc  Sc0  1  0.33335693  0.66670833  0.00000038  1
  Sc  Sc1  1  0.66663596  0.33330732  0.00000005  1
  Sc  Sc2  1  0.82113449  -0.00001490  0.49999859  1
  Sc  Sc3  1  0.00002057  0.82117208  0.50000014  1
  Sc  Sc4  1  0.17885850  0.17882310  0.49999487  1
  P  P0  1  0.17639699  -0.00000114  -0.00000028  1
  P  P1  1  0.00000128  0.17638739  -0.00000050  1
  P  P2  1  0.82360572  0.82360607  -0.00000017  1
  P  P3  1  0.17101605  0.48395069  0.49999996  1
  P  P4  1  0.51605719  0.68707349  0.49999996  1
  P  P5  1  0.31293658  0.82899373  0.50000021  1
  P  P6  1  0.68705464  0.51605746  0.50000014  1
  P  P7  1  0.82897712  0.31292956  0.50000019  1
  P  P8  1  0.48394377  0.17101024  0.50000010  1
  P  P9  1  0.64696265  -0.00001022  -0.00000012  1
  P  P10  1  -0.00000175  0.64698734  0.00000030  1
  P  P11  1  0.35303687  0.35302749  -0.00000092  1
  Ir  Ir0  1  0.46614254  0.00000123  -0.00000026  1
  Ir  Ir1  1  0.00001758  0.46618052  0.00000034  1
  Ir  Ir2  1  0.53386635  0.53382677  0.00000087  1
  Ir  Ir3  1  0.35887182  0.49541186  0.50000083  1
  Ir  Ir4  1  0.50461580  0.86347463  0.49999999  1
  Ir  Ir5  1  0.13655762  0.64115962  0.50000059  1
  Ir  Ir6  1  0.86343277  0.50459178  0.50000036  1
  Ir  Ir7  1  0.64113237  0.13652614  0.49999983  1
  Ir  Ir8  1  0.49539377  0.35884491  0.50000081  1
  Ir  Ir9  1  0.18081878  0.37157747  0.00000029  1
  Ir  Ir10  1  0.62840472  0.80921979  0.00000023  1
  Ir  Ir11  1  0.19077992  0.81919773  0.00000035  1
  Ir  Ir12  1  0.80922384  0.62842747  0.00000037  1
  Ir  Ir13  1  0.81917352  0.19076221  0.00000038  1
  Ir  Ir14  1  0.37158649  0.18080676  0.00000015  1
  Ir  Ir15  1  0.28498260  -0.00000142  0.50000047  1
  Ir  Ir16  1  0.00000412  0.28499512  0.50000003  1
  Ir  Ir17  1  0.71500690  0.71500240  0.49999996  1
  Ir  Ir18  1  -0.00000703  -0.00001201  -0.00000050  1
loop_
_geom_bond_atom_site_label_1
_geom_bond_atom_site_label_2
_geom_bond_distance
_geom_bond_site_symmetry_2
P0 Sc4 2.962771 1_555
P0 Sc4 2.962796 1_554
P0 Sc3 2.962881 1_544
P0 Sc3 2.962883 1_545
P1 Sc2 2.963194 1_455
P1 Sc2 2.963198 1_454
P1 Sc4 2.963240 1_555
P1 Sc4 2.963264 1_554
P2 Sc2 2.962982 1_565
P2 Sc2 2.962988 1_564
P2 Sc3 2.963180 1_654
P2 Sc3 2.963181 1_655
P3 Sc0 2.923668 1_555
P3 Sc0 2.923670 1_556
P4 Sc0 2.923350 1_555
P4 Sc0 2.923353 1_556
P5 Sc0 2.923155 1_555
P5 Sc0 2.923156 1_556
P6 Sc1 2.923572 1_556
P6 Sc1 2.923573 1_555
P7 Sc1 2.923472 1_556
P7 Sc1 2.923472 1_555
P8 Sc1 2.923150 1_556
P8 Sc1 2.923150 1_555
P9 Sc2 2.930450 1_555
P9 Sc2 2.930457 1_554
P10 Sc3 2.930412 1_555
P10 Sc3 2.930413 1_554
P11 Sc4 2.930591 1_555
P11 Sc4 2.930613 1_554
Ir0 P9 2.272851 1_555
Ir0 Ir7 2.793362 1_554
Ir0 Ir7 2.793362 1_555
Ir0 Ir4 2.793404 1_544
Ir0 Ir4 2.793405 1_545
Ir0 P8 2.825576 1_554
Ir0 P8 2.825578 1_555
Ir0 P5 2.825578 1_544
Ir0 P5 2.825581 1_545
Ir0 Ir15 2.996604 1_554
Ir0 Ir15 2.996608 1_555
Ir0 Ir14 3.045967 1_555
Ir0 Ir11 3.046020 1_545
Ir1 P10 2.272685 1_555
Ir1 Ir5 2.793324 1_554
Ir1 Ir5 2.793325 1_555
Ir1 Ir6 2.793564 1_454
Ir1 Ir6 2.793565 1_455
Ir1 P3 2.825633 1_555
Ir1 P3 2.825635 1_554
Ir1 P7 2.825931 1_455
Ir1 P7 2.825931 1_454
Ir1 Ir16 2.996760 1_555
Ir1 Ir16 2.996761 1_554
Ir1 Ir9 3.046394 1_555
Ir1 Ir13 3.046596 1_455
Ir2 P11 2.272689 1_555
Ir2 Ir8 2.793243 1_555
Ir2 Ir8 2.793243 1_554
Ir2 Ir3 2.793550 1_554
Ir2 Ir3 2.793550 1_555
Ir2 P6 2.825260 1_555
Ir2 P6 2.825265 1_554
Ir2 P4 2.825972 1_555
Ir2 P4 2.825977 1_554
Ir3 P4 2.224239 1_555
Ir3 P3 2.292582 1_555
Ir3 P11 2.621382 1_556
Ir3 P11 2.621392 1_555
Ir3 Ir9 2.782561 1_556
Ir3 Ir9 2.782563 1_555
Ir3 Ir8 2.972625 1_555
Ir3 Sc0 3.037041 1_556
Ir3 Sc0 3.037043 1_555
Ir3 Sc4 3.456902 1_555
Ir4 P5 2.224469 1_555
Ir4 P4 2.292478 1_555
Ir4 P9 2.621101 1_566
Ir4 P9 2.621102 1_565
Ir4 Ir7 2.972194 1_565
Ir4 Sc0 3.036654 1_555
Ir4 Sc0 3.036656 1_556
Ir4 Sc2 3.456243 1_565
Ir5 P3 2.224372 1_555
Ir5 P5 2.292321 1_555
Ir5 P10 2.621463 1_556
Ir5 P10 2.621464 1_555
Ir5 Ir6 2.973057 1_455
Ir5 Sc0 3.036837 1_556
Ir5 Sc0 3.036838 1_555
Ir5 Sc3 3.456511 1_555
Ir6 P7 2.224314 1_555
Ir6 P6 2.292402 1_555
Ir6 P10 2.621515 1_656
Ir6 P10 2.621516 1_655
Ir6 Sc1 3.036939 1_556
Ir6 Sc1 3.036940 1_555
Ir6 Sc3 3.456785 1_655
Ir7 P8 2.224363 1_555
Ir7 P7 2.292539 1_555
Ir7 P9 2.621257 1_555
Ir7 P9 2.621257 1_556
Ir7 Sc1 3.036791 1_555
Ir7 Sc1 3.036792 1_556
Ir7 Sc2 3.456448 1_555
Ir8 P6 2.224370 1_555
Ir8 P8 2.292328 1_555
Ir8 P11 2.621247 1_556
Ir8 P11 2.621256 1_555
Ir8 Sc1 3.036684 1_556
Ir8 Sc1 3.036688 1_555
Ir8 Sc4 3.456423 1_555
Ir9 P11 2.290154 1_555
Ir9 P1 2.368223 1_555
Ir9 P3 2.445179 1_555
Ir9 P3 2.445181 1_554
Ir9 Sc4 3.099230 1_555
Ir9 Sc4 3.099257 1_554
Ir9 Sc0 3.213139 1_555
Ir10 P9 2.290088 1_565
Ir10 P2 2.368309 1_555
Ir10 P4 2.444978 1_555
Ir10 P4 2.444979 1_554
Ir10 Ir17 2.769671 1_555
Ir10 Ir17 2.769673 1_554
Ir10 Ir4 2.782403 1_555
Ir10 Ir4 2.782404 1_554
Ir10 Ir2 3.046361 1_555
Ir10 Sc2 3.099005 1_565
Ir10 Sc2 3.099013 1_564
Ir10 Sc0 3.212314 1_555
Ir11 P10 2.290201 1_555
Ir11 P0 2.368064 1_565
Ir11 P5 2.445075 1_555
Ir11 P5 2.445076 1_554
Ir11 Ir15 2.769516 1_564
Ir11 Ir15 2.769516 1_565
Ir11 Ir5 2.782396 1_554
Ir11 Ir5 2.782398 1_555
Ir11 Sc3 3.099014 1_555
Ir11 Sc3 3.099014 1_554
Ir11 Sc0 3.212457 1_555
Ir12 P10 2.290187 1_655
Ir12 P2 2.367998 1_555
Ir12 P6 2.445153 1_555
Ir12 P6 2.445154 1_554
Ir12 Ir17 2.769461 1_555
Ir12 Ir17 2.769463 1_554
Ir12 Ir6 2.782487 1_555
Ir12 Ir6 2.782487 1_554
Ir12 Ir2 3.045876 1_555
Ir12 Sc3 3.099232 1_655
Ir12 Sc3 3.099233 1_654
Ir12 Sc1 3.213020 1_555
Ir13 P9 2.290127 1_555
Ir13 P1 2.368388 1_655
Ir13 P7 2.445110 1_555
Ir13 P7 2.445112 1_554
Ir13 Ir16 2.769778 1_655
Ir13 Ir16 2.769780 1_654
Ir13 Ir7 2.782430 1_555
Ir13 Ir7 2.782433 1_554
Ir13 Sc2 3.099077 1_555
Ir13 Sc2 3.099085 1_554
Ir13 Sc1 3.212647 1_555
Ir14 P11 2.290140 1_555
Ir14 P0 2.368174 1_555
Ir14 P8 2.445050 1_555
Ir14 P8 2.445051 1_554
Ir14 Ir15 2.769570 1_554
Ir14 Ir15 2.769572 1_555
Ir14 Ir8 2.782388 1_554
Ir14 Ir8 2.782392 1_555
Ir14 Sc4 3.098901 1_555
Ir14 Sc4 3.098927 1_554
Ir14 Sc1 3.212322 1_555
Ir15 P5 2.344869 1_545
Ir15 P8 2.344955 1_555
Ir15 P0 2.378562 1_556
Ir15 P0 2.378566 1_555
Ir15 Sc4 3.135179 1_555
Ir15 Sc3 3.135363 1_545
Ir16 P3 2.344899 1_555
Ir16 P7 2.345037 1_455
Ir16 P1 2.378694 1_556
Ir16 P1 2.378697 1_555
Ir16 Ir9 2.769657 1_555
Ir16 Ir9 2.769658 1_556
Ir16 Sc2 3.135861 1_455
Ir16 Sc4 3.136023 1_555
Ir17 P6 2.344699 1_555
Ir17 P4 2.344927 1_555
Ir17 P2 2.378669 1_556
Ir17 P2 2.378670 1_555
Ir17 Ir2 2.996585 1_555
Ir17 Ir2 2.996590 1_556
Ir17 Sc2 3.135551 1_565
Ir17 Sc3 3.135912 1_655
Ir18 P2 2.217010 1_445
Ir18 P1 2.217114 1_555
Ir18 P0 2.217204 1_555
Ir18 Sc3 2.974385 1_544
Ir18 Sc3 2.974389 1_545
Ir18 Sc4 2.974594 1_555
Ir18 Sc4 2.974618 1_554
Ir18 Sc2 2.974681 1_455
Ir18 Sc2 2.974685 1_454
