# generated using pymatgen
data_Rb2Gd4Cu4S9
_symmetry_space_group_name_H-M   'P 1'
_cell_length_a   4.08157700
_cell_length_b   7.32255852
_cell_length_c   15.44879496
_cell_angle_alpha   82.13047497
_cell_angle_beta   82.40902790
_cell_angle_gamma   73.81743370
_symmetry_Int_Tables_number   1
_chemical_formula_structural   Rb2Gd4Cu4S9
_chemical_formula_sum   'Rb2 Gd4 Cu4 S9'
_cell_volume   437.10998749
_cell_formula_units_Z   1
loop_
 _symmetry_equiv_pos_site_id
 _symmetry_equiv_pos_as_xyz
  1  'x, y, z'
loop_
 _atom_site_type_symbol
 _atom_site_label
 _atom_site_symmetry_multiplicity
 _atom_site_fract_x
 _atom_site_fract_y
 _atom_site_fract_z
 _atom_site_occupancy
  Rb  Rb0  1  0.97266200  0.28491600  0.76976000  1
  Rb  Rb1  1  0.02733800  0.71508400  0.23024000  1
  Gd  Gd0  1  0.76695000  0.86250600  0.60359300  1
  Gd  Gd1  1  0.23305000  0.13749400  0.39640700  1
  Gd  Gd2  1  0.34634400  0.25354000  0.05377300  1
  Gd  Gd3  1  0.65365600  0.74646000  0.94622700  1
  Cu  Cu0  1  0.75105500  0.26961500  0.22827400  1
  Cu  Cu1  1  0.24894500  0.73038500  0.77172600  1
  Cu  Cu2  1  0.56626300  0.32643900  0.54103600  1
  Cu  Cu3  1  0.43373800  0.67356100  0.45896400  1
  S  S0  1  0.85885100  0.85626000  0.42603800  1
  S  S1  1  0.14114900  0.14374000  0.57396200  1
  S  S2  1  0.70523300  0.48842800  0.10110600  1
  S  S3  1  0.29476700  0.51157200  0.89889400  1
  S  S4  1  0.60840800  0.40664300  0.37654100  1
  S  S5  1  0.39159200  0.59335700  0.62345900  1
  S  S6  1  0.34200600  0.09363100  0.22235700  1
  S  S7  1  0.65799400  0.90636900  0.77764300  1
  S  S8  1  0.00000000  0.00000000  0.00000000  1
loop_
_geom_bond_atom_site_label_1
_geom_bond_atom_site_label_2
_geom_bond_distance
_geom_bond_site_symmetry_2
Rb0 S1 3.256027 1_655
Rb0 S7 3.346432 1_645
Rb0 S7 3.346432 1_545
Rb0 S3 3.358390 1_555
Rb0 S3 3.358390 1_655
Rb0 S5 3.587062 1_555
Rb0 S5 3.587062 1_655
Rb0 S8 3.867805 1_656
Rb1 S0 3.256027 1_455
Rb1 S6 3.346432 1_465
Rb1 S6 3.346432 1_565
Rb1 S2 3.358390 1_555
Rb1 S2 3.358390 1_455
Rb1 S4 3.587062 1_555
Rb1 S4 3.587062 1_455
Rb1 S8 3.867805 1_565
Gd0 S7 2.715118 1_555
Gd0 S0 2.723941 1_555
Gd0 S5 2.778281 1_555
Gd0 S5 2.778283 1_655
Gd0 S1 2.844907 1_565
Gd0 S1 2.844910 1_665
Gd1 S6 2.715118 1_555
Gd1 S1 2.723941 1_555
Gd1 S4 2.778281 1_555
Gd1 S4 2.778283 1_455
Gd1 S0 2.844907 1_545
Gd1 S0 2.844910 1_445
Gd2 S6 2.705310 1_555
Gd2 S2 2.769574 1_555
Gd2 S2 2.769576 1_455
Gd2 S3 2.830676 1_554
Gd2 S8 2.886303 1_655
Gd2 S8 2.886306 1_555
Gd3 S7 2.705310 1_555
Gd3 S3 2.769574 1_555
Gd3 S3 2.769576 1_655
Gd3 S2 2.830676 1_556
Gd3 S8 2.886303 1_566
Gd3 S8 2.886306 1_666
Cu0 S2 2.351581 1_555
Cu0 S6 2.393375 1_555
Cu0 S6 2.393378 1_655
Cu0 S4 2.558081 1_555
Cu1 S3 2.351581 1_555
Cu1 S7 2.393375 1_555
Cu1 S7 2.393378 1_455
Cu1 S5 2.558081 1_555
Cu2 S5 2.369554 1_555
Cu2 S1 2.435888 1_655
Cu2 S1 2.435892 1_555
Cu2 S4 2.522813 1_555
Cu3 S4 2.369554 1_555
Cu3 S0 2.435889 1_555
Cu3 S0 2.435892 1_455
Cu3 S5 2.522813 1_555
