# generated using pymatgen
data_K4Mo2S4ClO20
_symmetry_space_group_name_H-M   'P 1'
_cell_length_a   11.95544800
_cell_length_b   11.95544800
_cell_length_c   8.01111900
_cell_angle_alpha   90.00000000
_cell_angle_beta   90.00000000
_cell_angle_gamma   90.00000000
_symmetry_Int_Tables_number   1
_chemical_formula_structural   K4Mo2S4ClO20
_chemical_formula_sum   'K8 Mo4 S8 Cl2 O40'
_cell_volume   1145.05116415
_cell_formula_units_Z   2
loop_
 _symmetry_equiv_pos_site_id
 _symmetry_equiv_pos_as_xyz
  1  'x, y, z'
loop_
 _atom_site_type_symbol
 _atom_site_label
 _atom_site_symmetry_multiplicity
 _atom_site_fract_x
 _atom_site_fract_y
 _atom_site_fract_z
 _atom_site_occupancy
  K  K0  1  0.83339800  0.66660200  0.75000000  1
  K  K1  1  0.16660200  0.33339800  0.75000000  1
  K  K2  1  0.33339800  0.83339800  0.25000000  1
  K  K3  1  0.66660200  0.16660200  0.25000000  1
  K  K4  1  0.33339800  0.83339800  0.75000000  1
  K  K5  1  0.66660200  0.16660200  0.75000000  1
  K  K6  1  0.16660200  0.33339800  0.25000000  1
  K  K7  1  0.83339800  0.66660200  0.25000000  1
  Mo  Mo0  1  0.50000000  0.50000000  0.14170200  1
  Mo  Mo1  1  0.00000000  0.00000000  0.64170200  1
  Mo  Mo2  1  0.50000000  0.50000000  0.85829800  1
  Mo  Mo3  1  0.00000000  0.00000000  0.35829800  1
  S  S0  1  0.76979000  0.90795700  0.50000000  1
  S  S1  1  0.23021000  0.09204300  0.50000000  1
  S  S2  1  0.26979000  0.59204300  0.00000000  1
  S  S3  1  0.73021000  0.40795700  0.00000000  1
  S  S4  1  0.09204300  0.76979000  0.50000000  1
  S  S5  1  0.90795700  0.23021000  0.50000000  1
  S  S6  1  0.40795700  0.26979000  0.00000000  1
  S  S7  1  0.59204300  0.73021000  0.00000000  1
  Cl  Cl0  1  0.50000000  0.50000000  0.50000000  1
  Cl  Cl1  1  0.00000000  0.00000000  0.00000000  1
  O  O0  1  0.84910200  0.91985800  0.34665300  1
  O  O1  1  0.15089800  0.08014200  0.34665300  1
  O  O2  1  0.34910200  0.58014200  0.84665300  1
  O  O3  1  0.65089800  0.41985800  0.84665300  1
  O  O4  1  0.08014200  0.84910200  0.34665300  1
  O  O5  1  0.91985800  0.15089800  0.34665300  1
  O  O6  1  0.41985800  0.34910200  0.84665300  1
  O  O7  1  0.58014200  0.65089800  0.84665300  1
  O  O8  1  0.15089800  0.08014200  0.65334700  1
  O  O9  1  0.84910200  0.91985800  0.65334700  1
  O  O10  1  0.65089800  0.41985800  0.15334700  1
  O  O11  1  0.34910200  0.58014200  0.15334700  1
  O  O12  1  0.91985800  0.15089800  0.65334700  1
  O  O13  1  0.08014200  0.84910200  0.65334700  1
  O  O14  1  0.58014200  0.65089800  0.15334700  1
  O  O15  1  0.41985800  0.34910200  0.15334700  1
  O  O16  1  0.97898300  0.72612700  0.00000000  1
  O  O17  1  0.02101700  0.27387300  0.00000000  1
  O  O18  1  0.47898300  0.77387300  0.50000000  1
  O  O19  1  0.52101700  0.22612700  0.50000000  1
  O  O20  1  0.27387300  0.97898300  0.00000000  1
  O  O21  1  0.72612700  0.02101700  0.00000000  1
  O  O22  1  0.22612700  0.47898300  0.50000000  1
  O  O23  1  0.77387300  0.52101700  0.50000000  1
  O  O24  1  0.72314400  0.79612200  0.50000000  1
  O  O25  1  0.27685600  0.20387800  0.50000000  1
  O  O26  1  0.22314400  0.70387800  0.00000000  1
  O  O27  1  0.77685600  0.29612200  0.00000000  1
  O  O28  1  0.20387800  0.72314400  0.50000000  1
  O  O29  1  0.79612200  0.27685600  0.50000000  1
  O  O30  1  0.29612200  0.22314400  0.00000000  1
  O  O31  1  0.70387800  0.77685600  0.00000000  1
  O  O32  1  0.69025600  0.99940500  0.50000000  1
  O  O33  1  0.30974400  0.00059500  0.50000000  1
  O  O34  1  0.19025600  0.50059500  0.00000000  1
  O  O35  1  0.80974400  0.49940500  0.00000000  1
  O  O36  1  0.00059500  0.69025600  0.50000000  1
  O  O37  1  0.99940500  0.30974400  0.50000000  1
  O  O38  1  0.49940500  0.19025600  0.00000000  1
  O  O39  1  0.50059500  0.80974400  0.00000000  1
loop_
_geom_bond_atom_site_label_1
_geom_bond_atom_site_label_2
_geom_bond_distance
_geom_bond_site_symmetry_2
K0 O16 2.747185 1_556
K0 O23 2.747185 1_555
K0 O36 2.843723 1_655
K0 O35 2.843723 1_556
K0 O24 2.854184 1_555
K0 O31 2.854184 1_556
K0 O9 3.130862 1_555
K0 O7 3.130862 1_555
K1 O22 2.747185 1_555
K1 O17 2.747185 1_556
K1 O37 2.843723 1_455
K1 O34 2.843723 1_556
K1 O30 2.854184 1_556
K1 O25 2.854184 1_555
K1 O8 3.130862 1_555
K1 O6 3.130862 1_555
K2 O18 2.747185 1_555
K2 O20 2.747185 1_555
K2 O39 2.843723 1_555
K2 O33 2.843723 1_565
K2 O26 2.854184 1_555
K2 O28 2.854184 1_555
K2 O11 3.130862 1_555
K2 O4 3.130862 1_555
K3 O21 2.747185 1_555
K3 O19 2.747185 1_555
K3 O32 2.843723 1_545
K3 O38 2.843723 1_555
K3 O29 2.854184 1_555
K3 O27 2.854184 1_555
K3 O5 3.130862 1_555
K3 O10 3.130862 1_555
K4 O18 2.747185 1_555
K4 O20 2.747185 1_556
K4 O33 2.843723 1_565
K4 O39 2.843723 1_556
K4 O26 2.854184 1_556
K4 O28 2.854184 1_555
K4 O2 3.130862 1_555
K4 O13 3.130862 1_555
K5 O21 2.747185 1_556
K5 O19 2.747185 1_555
K5 O32 2.843723 1_545
K5 O38 2.843723 1_556
K5 O29 2.854184 1_555
K5 O27 2.854184 1_556
K5 O12 3.130862 1_555
K5 O3 3.130862 1_555
K6 O22 2.747185 1_555
K6 O17 2.747185 1_555
K6 O37 2.843723 1_455
K6 O34 2.843723 1_555
K6 O30 2.854184 1_555
K6 O25 2.854184 1_555
K6 O15 3.130862 1_555
K6 O1 3.130862 1_555
K7 O16 2.747185 1_555
K7 O23 2.747185 1_555
K7 O36 2.843723 1_655
K7 O35 2.843723 1_555
K7 O31 2.854184 1_555
K7 O24 2.854184 1_555
K7 O0 3.130862 1_555
K7 O14 3.130862 1_555
Mo0 O14 2.044830 1_555
Mo0 O11 2.044830 1_555
Mo0 O15 2.044830 1_555
Mo0 O10 2.044830 1_555
Mo1 O9 2.044830 1_445
Mo1 O13 2.044830 1_545
Mo1 O8 2.044830 1_555
Mo1 O12 2.044830 1_455
Mo2 O2 2.044830 1_555
Mo2 O3 2.044830 1_555
Mo2 O7 2.044830 1_555
Mo2 O6 2.044830 1_555
Mo3 O0 2.044830 1_445
Mo3 O4 2.044830 1_545
Mo3 O1 2.044830 1_555
Mo3 O5 2.044830 1_455
Cl0 Mo2 2.870368 1_555
Cl0 Mo0 2.870368 1_555
Cl1 Mo3 2.870368 1_555
Cl1 Mo1 2.870368 1_554
O0 S0 1.558369 1_555
O1 S1 1.558369 1_555
O2 S2 1.558369 1_556
O3 S3 1.558369 1_556
O4 S4 1.558369 1_555
O5 S5 1.558369 1_555
O6 S6 1.558369 1_556
O7 S7 1.558369 1_556
O8 S1 1.558369 1_555
O9 S0 1.558369 1_555
O10 S3 1.558369 1_555
O11 S2 1.558369 1_555
O12 S5 1.558369 1_555
O13 S4 1.558369 1_555
O14 S7 1.558369 1_555
O15 S6 1.558369 1_555
O24 S0 1.448679 1_555
O25 S1 1.448679 1_555
O26 S2 1.448679 1_555
O27 S3 1.448679 1_555
O28 S4 1.448679 1_555
O29 S5 1.448679 1_555
O30 S6 1.448679 1_555
O31 S7 1.448679 1_555
O32 S0 1.448949 1_555
O33 S1 1.448949 1_555
O34 S2 1.448949 1_555
O35 S3 1.448949 1_555
O36 S4 1.448949 1_555
O37 S5 1.448949 1_555
O38 S6 1.448949 1_555
O39 S7 1.448949 1_555
