# generated using pymatgen
data_K2Th(NO3)6
_symmetry_space_group_name_H-M   'P 1'
_cell_length_a   13.92749433
_cell_length_b   13.92749433
_cell_length_c   6.77078500
_cell_angle_alpha   90.00000000
_cell_angle_beta   90.00000000
_cell_angle_gamma   120.00000158
_symmetry_Int_Tables_number   1
_chemical_formula_structural   K2Th(NO3)6
_chemical_formula_sum   'K6 Th3 N18 O54'
_cell_volume   1137.40629891
_cell_formula_units_Z   3
loop_
 _symmetry_equiv_pos_site_id
 _symmetry_equiv_pos_as_xyz
  1  'x, y, z'
loop_
 _atom_site_type_symbol
 _atom_site_label
 _atom_site_symmetry_multiplicity
 _atom_site_fract_x
 _atom_site_fract_y
 _atom_site_fract_z
 _atom_site_occupancy
  K  K0  1  0.32503400  0.31783200  0.21919800  1
  K  K1  1  0.67496600  0.68216800  0.78080200  1
  K  K2  1  0.68216800  0.00720200  0.21919800  1
  K  K3  1  0.31783200  0.99279800  0.78080200  1
  K  K4  1  0.99279800  0.67496600  0.21919800  1
  K  K5  1  0.00720200  0.32503400  0.78080200  1
  Th  Th0  1  0.00000000  0.00000000  0.00000000  1
  Th  Th1  1  0.33333300  0.66666700  0.49423200  1
  Th  Th2  1  0.66666700  0.33333300  0.50576800  1
  N  N0  1  0.17888700  0.00642500  0.27202700  1
  N  N1  1  0.82111300  0.99357500  0.72797300  1
  N  N2  1  0.99357500  0.17246100  0.27202700  1
  N  N3  1  0.00642500  0.82753900  0.72797300  1
  N  N4  1  0.82753900  0.82111300  0.27202700  1
  N  N5  1  0.17246100  0.17888700  0.72797300  1
  N  N6  1  0.19851000  0.47043600  0.22250300  1
  N  N7  1  0.80149000  0.52956400  0.77749700  1
  N  N8  1  0.52956400  0.72807400  0.22250300  1
  N  N9  1  0.47043600  0.27192600  0.77749700  1
  N  N10  1  0.27192600  0.80149000  0.22250300  1
  N  N11  1  0.72807400  0.19851000  0.77749700  1
  N  N12  1  0.52043200  0.13566000  0.24390700  1
  N  N13  1  0.47956800  0.86434000  0.75609300  1
  N  N14  1  0.86434000  0.38477200  0.24390700  1
  N  N15  1  0.13566000  0.61522800  0.75609300  1
  N  N16  1  0.61522800  0.47956800  0.24390700  1
  N  N17  1  0.38477200  0.52043200  0.75609300  1
  O  O0  1  0.57762400  0.12717500  0.38723300  1
  O  O1  1  0.42237600  0.87282500  0.61276700  1
  O  O2  1  0.87282500  0.45044800  0.38723300  1
  O  O3  1  0.12717500  0.54955200  0.61276700  1
  O  O4  1  0.54955200  0.42237600  0.38723300  1
  O  O5  1  0.45044800  0.57762400  0.61276700  1
  O  O6  1  0.20280600  0.07159100  0.12054700  1
  O  O7  1  0.79719400  0.92840900  0.87945300  1
  O  O8  1  0.92840900  0.13121500  0.12054700  1
  O  O9  1  0.07159100  0.86878500  0.87945300  1
  O  O10  1  0.86878500  0.79719400  0.12054700  1
  O  O11  1  0.13121500  0.20280600  0.87945300  1
  O  O12  1  0.06562400  0.14117700  0.29094500  1
  O  O13  1  0.93437600  0.85882300  0.70905500  1
  O  O14  1  0.85882300  0.92444700  0.29094500  1
  O  O15  1  0.14117700  0.07555300  0.70905500  1
  O  O16  1  0.07555300  0.93437600  0.29094500  1
  O  O17  1  0.92444700  0.06562400  0.70905500  1
  O  O18  1  0.53032500  0.23187400  0.22325100  1
  O  O19  1  0.46967500  0.76812600  0.77674900  1
  O  O20  1  0.76812600  0.29845200  0.22325100  1
  O  O21  1  0.23187400  0.70154800  0.77674900  1
  O  O22  1  0.70154800  0.46967500  0.22325100  1
  O  O23  1  0.29845200  0.53032500  0.77674900  1
  O  O24  1  0.20153800  0.56250800  0.19770800  1
  O  O25  1  0.79846200  0.43749200  0.80229200  1
  O  O26  1  0.43749200  0.63903000  0.19770800  1
  O  O27  1  0.56250800  0.36097000  0.80229200  1
  O  O28  1  0.36097000  0.79846200  0.19770800  1
  O  O29  1  0.63903000  0.20153800  0.80229200  1
  O  O30  1  0.24928800  0.46338100  0.37755100  1
  O  O31  1  0.75071200  0.53661900  0.62244900  1
  O  O32  1  0.53661900  0.78590700  0.37755100  1
  O  O33  1  0.46338100  0.21409300  0.62244900  1
  O  O34  1  0.21409300  0.75071200  0.37755100  1
  O  O35  1  0.78590700  0.24928800  0.62244900  1
  O  O36  1  0.15201100  0.39168100  0.10700800  1
  O  O37  1  0.84798900  0.60831900  0.89299200  1
  O  O38  1  0.60831900  0.76033000  0.10700800  1
  O  O39  1  0.39168100  0.23967000  0.89299200  1
  O  O40  1  0.23967000  0.84798900  0.10700800  1
  O  O41  1  0.76033000  0.15201100  0.89299200  1
  O  O42  1  0.25026500  0.01388900  0.38685800  1
  O  O43  1  0.74973500  0.98611100  0.61314200  1
  O  O44  1  0.98611100  0.23637600  0.38685800  1
  O  O45  1  0.01388900  0.76362400  0.61314200  1
  O  O46  1  0.76362400  0.74973500  0.38685800  1
  O  O47  1  0.23637600  0.25026500  0.61314200  1
  O  O48  1  0.46176100  0.05706000  0.13645300  1
  O  O49  1  0.53823900  0.94294000  0.86354700  1
  O  O50  1  0.94294000  0.40470200  0.13645300  1
  O  O51  1  0.05706000  0.59529800  0.86354700  1
  O  O52  1  0.59529800  0.53823900  0.13645300  1
  O  O53  1  0.40470200  0.46176100  0.86354700  1
loop_
_geom_bond_atom_site_label_1
_geom_bond_atom_site_label_2
_geom_bond_distance
_geom_bond_site_symmetry_2
K0 O39 2.816975 1_554
K0 O47 2.891852 1_555
K0 O30 2.917238 1_555
K0 O4 2.939293 1_555
K0 O53 2.970501 1_554
K0 O6 3.044259 1_555
K0 O36 3.149674 1_555
K0 O12 3.233190 1_555
K0 O11 3.289430 1_554
K1 O38 2.816975 1_556
K1 O46 2.891852 1_555
K1 O31 2.917238 1_555
K1 O5 2.939293 1_555
K1 O52 2.970501 1_556
K1 O7 3.044259 1_555
K1 O37 3.149674 1_555
K1 O13 3.233190 1_555
K1 O10 3.289430 1_556
K2 O41 2.816975 1_554
K2 O43 2.891852 1_545
K2 O32 2.917238 1_545
K2 O0 2.939282 1_555
K2 O49 2.970501 1_544
K2 O8 3.044259 1_555
K2 O38 3.149674 1_545
K2 O14 3.233190 1_545
K2 O7 3.289430 1_544
K3 O40 2.816975 1_556
K3 O42 2.891852 1_565
K3 O33 2.917238 1_565
K3 O1 2.939282 1_555
K3 O48 2.970501 1_566
K3 O9 3.044259 1_555
K3 O39 3.149674 1_565
K3 O15 3.233190 1_565
K3 O6 3.289430 1_566
K4 O37 2.816975 1_554
K4 O45 2.891852 1_655
K4 O34 2.917238 1_655
K4 O2 2.939292 1_555
K4 O51 2.970508 1_654
K4 O10 3.044259 1_555
K4 O40 3.149674 1_655
K4 O16 3.233190 1_655
K4 O9 3.289430 1_654
K5 O36 2.816975 1_556
K5 O44 2.891852 1_455
K5 O35 2.917238 1_455
K5 O3 2.939292 1_555
K5 O50 2.970508 1_456
K5 O11 3.044259 1_555
K5 O41 3.149674 1_455
K5 O17 3.233190 1_455
K5 O8 3.289430 1_456
N0 O42 1.224839 1_555
N0 O16 1.284689 1_545
N0 O6 1.297805 1_555
N1 O43 1.224839 1_555
N1 O17 1.284689 1_565
N1 O7 1.297805 1_555
N2 O44 1.224850 1_555
N2 O12 1.284679 1_655
N2 O8 1.297803 1_555
N3 O45 1.224850 1_555
N3 O13 1.284679 1_455
N3 O9 1.297803 1_555
N4 O46 1.224844 1_555
N4 O14 1.284692 1_555
N4 O10 1.297797 1_555
N5 O47 1.224844 1_555
N5 O15 1.284692 1_555
N5 O11 1.297797 1_555
N6 O36 1.234372 1_555
N6 O24 1.272894 1_555
N6 O30 1.296674 1_555
N7 O37 1.234372 1_555
N7 O25 1.272894 1_555
N7 O31 1.296674 1_555
N8 O38 1.234372 1_555
N8 O26 1.272894 1_555
N8 O32 1.296674 1_555
N9 O39 1.234372 1_555
N9 O27 1.272894 1_555
N9 O33 1.296674 1_555
N10 O40 1.234372 1_555
N10 O28 1.272894 1_555
N10 O34 1.296674 1_555
N11 O41 1.234372 1_555
N11 O29 1.272894 1_555
N11 O35 1.296674 1_555
N12 O48 1.225108 1_555
N12 O18 1.284353 1_555
N12 O0 1.297809 1_555
N13 O49 1.225108 1_555
N13 O19 1.284353 1_555
N13 O1 1.297809 1_555
N14 O50 1.225105 1_555
N14 O20 1.284348 1_555
N14 O2 1.297800 1_555
N15 O51 1.225105 1_555
N15 O21 1.284348 1_555
N15 O3 1.297800 1_555
N16 O52 1.225116 1_555
N16 O22 1.284340 1_555
N16 O4 1.297803 1_555
N17 O53 1.225116 1_555
N17 O23 1.284340 1_555
N17 O5 1.297803 1_555
O0 Th2 2.620202 1_555
O1 Th1 2.620202 1_555
O2 Th2 2.620202 1_555
O3 Th1 2.620202 1_555
O4 Th2 2.620202 1_555
O5 Th1 2.620202 1_555
O6 Th0 2.611946 1_555
O7 Th0 2.611946 1_666
O8 Th0 2.611946 1_655
O9 Th0 2.611946 1_566
O10 Th0 2.611946 1_665
O11 Th0 2.611946 1_556
O12 Th0 2.604797 1_555
O13 Th0 2.604797 1_666
O14 Th0 2.604797 1_665
O15 Th0 2.604797 1_556
O16 Th0 2.604797 1_565
O17 Th0 2.604797 1_656
O18 Th2 2.564830 1_555
O19 Th1 2.564830 1_555
O20 Th2 2.564818 1_555
O21 Th1 2.564818 1_555
O22 Th2 2.564836 1_555
O23 Th1 2.564836 1_555
O24 Th1 2.615689 1_555
O25 Th2 2.615689 1_555
O26 Th1 2.615695 1_555
O27 Th2 2.615695 1_555
O28 Th1 2.615686 1_555
O29 Th2 2.615686 1_555
O30 Th1 2.587712 1_555
O31 Th2 2.587712 1_555
O32 Th1 2.587710 1_555
O33 Th2 2.587710 1_555
O34 Th1 2.587700 1_555
O35 Th2 2.587700 1_555
