# generated using pymatgen
data_SrCaI4
_symmetry_space_group_name_H-M   'P 1'
_cell_length_a   4.66211058
_cell_length_b   7.28073555
_cell_length_c   8.10935299
_cell_angle_alpha   89.77421704
_cell_angle_beta   90.00000000
_cell_angle_gamma   90.00000000
_symmetry_Int_Tables_number   1
_chemical_formula_structural   SrCaI4
_chemical_formula_sum   'Sr1 Ca1 I4'
_cell_volume   275.25845031
_cell_formula_units_Z   1
loop_
 _symmetry_equiv_pos_site_id
 _symmetry_equiv_pos_as_xyz
  1  'x, y, z'
loop_
 _atom_site_type_symbol
 _atom_site_label
 _atom_site_symmetry_multiplicity
 _atom_site_fract_x
 _atom_site_fract_y
 _atom_site_fract_z
 _atom_site_occupancy
  Sr  Sr0  1  -0.00000000  0.00000000  0.00000000  1
  Ca  Ca0  1  0.50000000  0.00000000  0.50000000  1
  I  I0  1  -0.00000000  0.23905891  0.65546612  1
  I  I1  1  0.50000000  0.24908800  0.17843747  1
  I  I2  1  0.50000000  0.75091200  0.82156253  1
  I  I3  1  0.00000000  0.76094109  0.34453388  1
loop_
_geom_bond_atom_site_label_1
_geom_bond_atom_site_label_2
_geom_bond_distance
_geom_bond_site_symmetry_2
Ca0 I2 3.170423 1_545
Ca0 I1 3.170423 1_555
Ca0 I0 3.173323 1_655
Ca0 I0 3.173323 1_555
Ca0 I3 3.173323 1_645
Ca0 I3 3.173323 1_545
I0 Sr0 3.285915 1_556
I1 Sr0 3.292004 1_555
I1 Sr0 3.292004 1_655
I2 Sr0 3.292004 1_666
I2 Sr0 3.292004 1_566
I3 Sr0 3.285915 1_565
