# generated using pymatgen
data_SrReO2
_symmetry_space_group_name_H-M   'P 1'
_cell_length_a   7.53892859
_cell_length_b   7.53892859
_cell_length_c   7.53892859
_cell_angle_alpha   131.10175255
_cell_angle_beta   131.10175255
_cell_angle_gamma   71.65146541
_symmetry_Int_Tables_number   1
_chemical_formula_structural   SrReO2
_chemical_formula_sum   'Sr4 Re4 O8'
_cell_volume   238.04698854
_cell_formula_units_Z   4
loop_
 _symmetry_equiv_pos_site_id
 _symmetry_equiv_pos_as_xyz
  1  'x, y, z'
loop_
 _atom_site_type_symbol
 _atom_site_label
 _atom_site_symmetry_multiplicity
 _atom_site_fract_x
 _atom_site_fract_y
 _atom_site_fract_z
 _atom_site_occupancy
  Sr  Sr0  1  0.87500000  0.62500000  0.25000000  1
  Sr  Sr1  1  0.37500000  0.62500000  0.75000000  1
  Sr  Sr2  1  0.37500000  0.62500000  0.25000000  1
  Sr  Sr3  1  0.37500000  0.12500000  0.75000000  1
  Re  Re0  1  0.37500000  0.12500000  0.25000000  1
  Re  Re1  1  0.87500000  0.12500000  0.75000000  1
  Re  Re2  1  0.87500000  0.12500000  0.25000000  1
  Re  Re3  1  0.87500000  0.62500000  0.75000000  1
  O  O0  1  0.17450200  0.37318300  0.19868200  1
  O  O1  1  0.17450200  0.97582000  0.80131800  1
  O  O2  1  0.12318300  0.42450200  0.69868200  1
  O  O3  1  0.57549800  0.87681700  0.30131800  1
  O  O4  1  0.72582000  0.42450200  0.30131800  1
  O  O5  1  0.57549800  0.27418000  0.69868200  1
  O  O6  1  0.62681700  0.82549800  0.80131800  1
  O  O7  1  0.02418000  0.82549800  0.19868200  1
loop_
_geom_bond_atom_site_label_1
_geom_bond_atom_site_label_2
_geom_bond_distance
_geom_bond_site_symmetry_2
O0 Re0 2.082663 1_555
O0 Re1 2.082668 1_454
O0 Sr2 2.471956 1_555
O0 Sr1 2.517146 1_555
O0 Sr0 2.517150 1_455
O1 Re1 2.082669 1_465
O1 Re0 2.082669 1_566
O1 Sr3 2.471949 1_565
O1 Sr0 2.517147 1_455
O1 Sr1 2.517147 1_555
O2 Re3 2.082663 1_455
O2 Re2 2.082668 1_455
O2 Sr1 2.471956 1_555
O2 Sr2 2.517146 1_556
O2 Sr3 2.517150 1_555
O3 Re0 2.082663 1_565
O3 Re1 2.082668 1_565
O3 Sr2 2.471956 1_555
O3 Sr1 2.517146 1_554
O3 Sr0 2.517150 1_555
O4 Re2 2.082669 1_555
O4 Re3 2.082669 1_555
O4 Sr0 2.471949 1_555
O4 Sr3 2.517147 1_554
O4 Sr2 2.517147 1_555
O5 Re0 2.082669 1_555
O5 Re1 2.082669 1_555
O5 Sr3 2.471949 1_555
O5 Sr1 2.517147 1_555
O5 Sr0 2.517147 1_556
O6 Re3 2.082663 1_555
O6 Re2 2.082668 1_566
O6 Sr1 2.471956 1_555
O6 Sr2 2.517146 1_555
O6 Sr3 2.517150 1_565
O7 Re3 2.082669 1_454
O7 Re2 2.082669 1_465
O7 Sr0 2.471949 1_455
O7 Sr2 2.517147 1_555
O7 Sr3 2.517147 1_565
