# generated using pymatgen
data_Ho2(Ga3Ir)3
_symmetry_space_group_name_H-M   'P 1'
_cell_length_a   7.48936061
_cell_length_b   7.48936061
_cell_length_c   9.43827251
_cell_angle_alpha   90.00000000
_cell_angle_beta   90.00000000
_cell_angle_gamma   119.84242295
_symmetry_Int_Tables_number   1
_chemical_formula_structural   Ho2(Ga3Ir)3
_chemical_formula_sum   'Ho4 Ga18 Ir6'
_cell_volume   459.19805018
_cell_formula_units_Z   2
loop_
 _symmetry_equiv_pos_site_id
 _symmetry_equiv_pos_as_xyz
  1  'x, y, z'
loop_
 _atom_site_type_symbol
 _atom_site_label
 _atom_site_symmetry_multiplicity
 _atom_site_fract_x
 _atom_site_fract_y
 _atom_site_fract_z
 _atom_site_occupancy
  Ho  Ho0  1  0.99760045  0.66915582  0.25000000  1
  Ho  Ho1  1  0.00239955  0.33084418  0.75000000  1
  Ho  Ho2  1  0.66915582  0.99760045  0.25000000  1
  Ho  Ho3  1  0.33084418  0.00239955  0.75000000  1
  Ga  Ga0  1  0.12965648  0.12965648  0.25000000  1
  Ga  Ga1  1  0.87034352  0.87034352  0.75000000  1
  Ga  Ga2  1  1.00040571  0.33450513  0.07966971  1
  Ga  Ga3  1  -0.00040571  0.66549487  0.92033029  1
  Ga  Ga4  1  -0.00040571  0.66549487  0.57966971  1
  Ga  Ga5  1  0.33450513  1.00040571  0.42033029  1
  Ga  Ga6  1  1.00040571  0.33450513  0.42033029  1
  Ga  Ga7  1  0.66549487  -0.00040571  0.57966971  1
  Ga  Ga8  1  0.66549487  -0.00040571  0.92033029  1
  Ga  Ga9  1  0.33450513  1.00040571  0.07966971  1
  Ga  Ga10  1  0.33325869  0.33325869  0.56716232  1
  Ga  Ga11  1  0.66674131  0.66674131  0.43283768  1
  Ga  Ga12  1  0.66674131  0.66674131  0.06716232  1
  Ga  Ga13  1  0.33325869  0.33325869  0.93283768  1
  Ga  Ga14  1  0.33849402  0.54497690  0.25000000  1
  Ga  Ga15  1  0.66150598  0.45502310  0.75000000  1
  Ga  Ga16  1  0.54497690  0.33849402  0.25000000  1
  Ga  Ga17  1  0.45502310  0.66150598  0.75000000  1
  Ir  Ir0  1  0.67145678  0.32854322  -0.00000000  1
  Ir  Ir1  1  0.32854322  0.67145678  -0.00000000  1
  Ir  Ir2  1  0.32854322  0.67145678  0.50000000  1
  Ir  Ir3  1  0.67145678  0.32854322  0.50000000  1
  Ir  Ir4  1  0.00000000  -0.00000000  -0.00000000  1
  Ir  Ir5  1  0.00000000  -0.00000000  0.50000000  1
loop_
_geom_bond_atom_site_label_1
_geom_bond_atom_site_label_2
_geom_bond_distance
_geom_bond_site_symmetry_2
Ga0 Ir4 2.552447 1_555
Ga0 Ir5 2.552447 1_555
Ga0 Ga14 2.698074 1_555
Ga0 Ga16 2.698074 1_555
Ga0 Ga2 2.711685 1_455
Ga0 Ga6 2.711685 1_455
Ga0 Ga5 2.711685 1_545
Ga0 Ga9 2.711685 1_545
Ga0 Ho2 3.078644 1_445
Ga0 Ho0 3.078644 1_445
Ga1 Ir4 2.552447 1_666
Ga1 Ir5 2.552447 1_665
Ga1 Ga15 2.698074 1_555
Ga1 Ga17 2.698074 1_555
Ga1 Ga7 2.711685 1_565
Ga1 Ga4 2.711685 1_655
Ga1 Ga8 2.711685 1_565
Ga1 Ga3 2.711685 1_655
Ga1 Ho1 3.078644 1_665
Ga1 Ho3 3.078644 1_665
Ga2 Ir0 2.554867 1_555
Ga2 Ir1 2.607887 1_655
Ga2 Ir4 2.614198 1_655
Ga2 Ga3 2.902010 1_654
Ga2 Ga8 2.929690 1_554
Ga2 Ho2 2.979223 1_545
Ga2 Ho0 2.986459 1_555
Ga2 Ho1 3.111735 1_654
Ga3 Ir1 2.554867 1_556
Ga3 Ir0 2.607887 1_456
Ga3 Ir4 2.614198 1_566
Ga3 Ga9 2.929690 1_556
Ga3 Ho3 2.979223 1_565
Ga3 Ho1 2.986459 1_555
Ga3 Ho0 3.111735 1_456
Ga4 Ir2 2.554867 1_555
Ga4 Ir3 2.607887 1_455
Ga4 Ir5 2.614198 1_565
Ga4 Ga6 2.902010 1_455
Ga4 Ga5 2.929690 1_555
Ga4 Ho3 2.979223 1_565
Ga4 Ho1 2.986459 1_555
Ga4 Ho0 3.111735 1_455
Ga5 Ir2 2.554867 1_555
Ga5 Ir3 2.607887 1_565
Ga5 Ir5 2.614198 1_565
Ga5 Ga7 2.902010 1_565
Ga5 Ho0 2.979223 1_455
Ga5 Ho2 2.986459 1_555
Ga5 Ho3 3.111735 1_565
Ga6 Ir3 2.554867 1_555
Ga6 Ir2 2.607887 1_655
Ga6 Ir5 2.614198 1_655
Ga6 Ga7 2.929690 1_555
Ga6 Ho2 2.979223 1_545
Ga6 Ho0 2.986459 1_555
Ga6 Ho1 3.111735 1_655
Ga7 Ir3 2.554867 1_555
Ga7 Ir2 2.607887 1_545
Ga7 Ir5 2.614198 1_655
Ga7 Ho1 2.979223 1_655
Ga7 Ho3 2.986459 1_555
Ga7 Ho2 3.111735 1_545
Ga8 Ir0 2.554867 1_556
Ga8 Ir1 2.607887 1_546
Ga8 Ir4 2.614198 1_656
Ga8 Ga9 2.902010 1_546
Ga8 Ho1 2.979223 1_655
Ga8 Ho3 2.986459 1_555
Ga8 Ho2 3.111735 1_546
Ga9 Ir1 2.554867 1_555
Ga9 Ir0 2.607887 1_565
Ga9 Ir4 2.614198 1_565
Ga9 Ho0 2.979223 1_455
Ga9 Ho2 2.986459 1_555
Ga9 Ho3 3.111735 1_564
Ga10 Ir5 2.580894 1_555
Ga10 Ir3 2.628234 1_555
Ga10 Ir2 2.628234 1_555
Ga10 Ga15 2.760785 1_555
Ga10 Ga17 2.760785 1_555
Ga10 Ga11 2.806225 1_555
Ga10 Ga6 2.856244 1_455
Ga10 Ga5 2.856244 1_545
Ga10 Ho3 3.012272 1_555
Ga10 Ho1 3.012272 1_555
Ga11 Ir5 2.580894 1_665
Ga11 Ir3 2.628234 1_555
Ga11 Ir2 2.628234 1_555
Ga11 Ga16 2.760785 1_555
Ga11 Ga14 2.760785 1_555
Ga11 Ga4 2.856244 1_655
Ga11 Ga7 2.856244 1_565
Ga11 Ho0 3.012272 1_555
Ga11 Ho2 3.012272 1_555
Ga12 Ir4 2.580894 1_665
Ga12 Ir0 2.628234 1_555
Ga12 Ir1 2.628234 1_555
Ga12 Ga16 2.760785 1_555
Ga12 Ga14 2.760785 1_555
Ga12 Ga13 2.806225 1_554
Ga12 Ga8 2.856244 1_564
Ga12 Ga3 2.856244 1_654
Ga12 Ho0 3.012272 1_555
Ga12 Ho2 3.012272 1_555
Ga13 Ir4 2.580894 1_556
Ga13 Ir0 2.628234 1_556
Ga13 Ir1 2.628234 1_556
Ga13 Ga17 2.760785 1_555
Ga13 Ga15 2.760785 1_555
Ga13 Ga9 2.856244 1_546
Ga13 Ga2 2.856244 1_456
Ga13 Ho3 3.012272 1_555
Ga13 Ho1 3.012272 1_555
Ga14 Ir1 2.557472 1_555
Ga14 Ir2 2.557472 1_555
Ga14 Ga16 2.676357 1_555
Ga14 Ga2 2.740121 1_455
Ga14 Ga6 2.740121 1_455
Ga14 Ho2 3.044529 1_555
Ga14 Ho0 3.121894 1_455
Ga15 Ir0 2.557472 1_556
Ga15 Ir3 2.557472 1_555
Ga15 Ga17 2.676357 1_555
Ga15 Ga4 2.740121 1_655
Ga15 Ga3 2.740121 1_655
Ga15 Ho3 3.044529 1_555
Ga15 Ho1 3.121894 1_655
Ga16 Ir3 2.557472 1_555
Ga16 Ir0 2.557472 1_555
Ga16 Ga5 2.740121 1_545
Ga16 Ga9 2.740121 1_545
Ga16 Ho0 3.044529 1_555
Ga16 Ho2 3.121894 1_545
Ga17 Ir2 2.557472 1_555
Ga17 Ir1 2.557472 1_556
Ga17 Ga7 2.740121 1_565
Ga17 Ga8 2.740121 1_565
Ga17 Ho1 3.044529 1_555
Ga17 Ho3 3.121894 1_565
