# generated using pymatgen
data_BaSnHgS4
_symmetry_space_group_name_H-M   'P 1'
_cell_length_a   6.73526500
_cell_length_b   11.02901600
_cell_length_c   11.13522000
_cell_angle_alpha   90.00000000
_cell_angle_beta   90.00000000
_cell_angle_gamma   90.00000000
_symmetry_Int_Tables_number   1
_chemical_formula_structural   BaSnHgS4
_chemical_formula_sum   'Ba4 Sn4 Hg4 S16'
_cell_volume   827.16139391
_cell_formula_units_Z   4
loop_
 _symmetry_equiv_pos_site_id
 _symmetry_equiv_pos_as_xyz
  1  'x, y, z'
loop_
 _atom_site_type_symbol
 _atom_site_label
 _atom_site_symmetry_multiplicity
 _atom_site_fract_x
 _atom_site_fract_y
 _atom_site_fract_z
 _atom_site_occupancy
  Ba  Ba0  1  0.04809300  0.00000000  0.50000000  1
  Ba  Ba1  1  0.54809300  0.50000000  0.00000000  1
  Ba  Ba2  1  0.05504900  0.00000000  0.00000000  1
  Ba  Ba3  1  0.55504900  0.50000000  0.50000000  1
  Sn  Sn0  1  0.03535000  0.28900100  0.24818500  1
  Sn  Sn1  1  0.03535000  0.71099900  0.75181500  1
  Sn  Sn2  1  0.53535000  0.21099900  0.74818500  1
  Sn  Sn3  1  0.53535000  0.78900100  0.25181500  1
  Hg  Hg0  1  0.49995300  0.17510900  0.25605400  1
  Hg  Hg1  1  0.49995300  0.82489100  0.74394600  1
  Hg  Hg2  1  0.99995300  0.32489100  0.75605400  1
  Hg  Hg3  1  0.99995300  0.67510900  0.24394600  1
  S  S0  1  0.26674700  0.26583700  0.08184600  1
  S  S1  1  0.26674700  0.73416300  0.91815400  1
  S  S2  1  0.76674700  0.23416300  0.58184600  1
  S  S3  1  0.76674700  0.76583700  0.41815400  1
  S  S4  1  0.26355200  0.26738100  0.41750300  1
  S  S5  1  0.26355200  0.73261900  0.58249700  1
  S  S6  1  0.76355200  0.23261900  0.91750300  1
  S  S7  1  0.76355200  0.76738100  0.08249700  1
  S  S8  1  0.84442500  0.09885500  0.24821500  1
  S  S9  1  0.84442500  0.90114500  0.75178500  1
  S  S10  1  0.34442500  0.40114500  0.74821500  1
  S  S11  1  0.34442500  0.59885500  0.25178500  1
  S  S12  1  0.79800300  0.44812500  0.24834900  1
  S  S13  1  0.79800300  0.55187500  0.75165100  1
  S  S14  1  0.29800300  0.05187500  0.74834900  1
  S  S15  1  0.29800300  0.94812500  0.25165100  1
loop_
_geom_bond_atom_site_label_1
_geom_bond_atom_site_label_2
_geom_bond_distance
_geom_bond_site_symmetry_2
Ba0 S14 3.287565 1_555
Ba0 S15 3.287565 1_545
Ba0 S9 3.306213 1_445
Ba0 S8 3.306213 1_455
Ba0 S2 3.330339 1_455
Ba0 S3 3.330339 1_445
Ba0 S5 3.412634 1_545
Ba0 S4 3.412634 1_555
Ba1 S12 3.287565 1_555
Ba1 S13 3.287565 1_554
Ba1 S11 3.306213 1_555
Ba1 S10 3.306213 1_554
Ba1 S0 3.330339 1_555
Ba1 S1 3.330339 1_554
Ba1 S7 3.412634 1_555
Ba1 S6 3.412634 1_554
Ba2 S8 3.292483 1_455
Ba2 S9 3.292483 1_444
Ba2 S15 3.295037 1_545
Ba2 S14 3.295037 1_554
Ba2 S7 3.358652 1_445
Ba2 S6 3.358652 1_454
Ba2 S0 3.385230 1_555
Ba2 S1 3.385230 1_544
Ba3 S10 3.292483 1_555
Ba3 S11 3.292483 1_555
Ba3 S13 3.295037 1_555
Ba3 S12 3.295037 1_555
Ba3 S5 3.358652 1_555
Ba3 S4 3.358652 1_555
Ba3 S3 3.385230 1_555
Ba3 S2 3.385230 1_555
Hg0 S8 2.469377 1_555
Hg0 S4 2.608218 1_555
Hg0 S0 2.689124 1_555
Hg0 S15 2.849487 1_545
Hg1 S9 2.469377 1_555
Hg1 S5 2.608218 1_555
Hg1 S1 2.689124 1_555
Hg1 S14 2.849487 1_565
Hg2 S10 2.469377 1_655
Hg2 S6 2.608218 1_555
Hg2 S2 2.689124 1_555
Hg2 S13 2.849487 1_555
Hg3 S11 2.469377 1_655
Hg3 S7 2.608218 1_555
Hg3 S3 2.689124 1_555
Hg3 S12 2.849487 1_555
S0 Sn0 2.434128 1_555
S1 Sn1 2.434128 1_555
S2 Sn2 2.434128 1_555
S3 Sn3 2.434128 1_555
S4 Sn0 2.444164 1_555
S5 Sn1 2.444164 1_555
S6 Sn2 2.444164 1_555
S7 Sn3 2.444164 1_555
S8 Sn0 2.459988 1_655
S9 Sn1 2.459988 1_655
S10 Sn2 2.459988 1_555
S11 Sn3 2.459988 1_555
S12 Sn0 2.373914 1_655
S13 Sn1 2.373914 1_655
S14 Sn2 2.373914 1_555
S15 Sn3 2.373914 1_555
