# generated using pymatgen
data_HfMg14Ga
_symmetry_space_group_name_H-M   'P 1'
_cell_length_a   6.35547312
_cell_length_b   6.35547261
_cell_length_c   10.13978689
_cell_angle_alpha   90.00000000
_cell_angle_beta   90.00000000
_cell_angle_gamma   120.00000264
_symmetry_Int_Tables_number   1
_chemical_formula_structural   HfMg14Ga
_chemical_formula_sum   'Hf1 Mg14 Ga1'
_cell_volume   354.69509721
_cell_formula_units_Z   1
loop_
 _symmetry_equiv_pos_site_id
 _symmetry_equiv_pos_as_xyz
  1  'x, y, z'
loop_
 _atom_site_type_symbol
 _atom_site_label
 _atom_site_symmetry_multiplicity
 _atom_site_fract_x
 _atom_site_fract_y
 _atom_site_fract_z
 _atom_site_occupancy
  Hf  Hf0  1  0.16666700  0.33333300  0.62500000  1
  Mg  Mg0  1  0.16489804  0.83244852  0.12500000  1
  Mg  Mg1  1  0.17176185  0.83588043  0.62500000  1
  Mg  Mg2  1  0.66755148  0.33510196  0.12500000  1
  Mg  Mg3  1  0.66411957  0.32823815  0.62500000  1
  Mg  Mg4  1  0.66755148  0.83244852  0.12500000  1
  Mg  Mg5  1  0.66411957  0.83588043  0.62500000  1
  Mg  Mg6  1  0.32877741  0.17122259  0.37441290  1
  Mg  Mg7  1  0.32877741  0.17122259  0.87558710  1
  Mg  Mg8  1  0.32877741  0.65755582  0.37441290  1
  Mg  Mg9  1  0.32877741  0.65755582  0.87558710  1
  Mg  Mg10  1  0.84244418  0.17122259  0.37441290  1
  Mg  Mg11  1  0.84244418  0.17122259  0.87558710  1
  Mg  Mg12  1  0.83333300  0.66666700  0.38031908  1
  Mg  Mg13  1  0.83333300  0.66666700  0.86968092  1
  Ga  Ga0  1  0.16666700  0.33333300  0.12500000  1
loop_
_geom_bond_atom_site_label_1
_geom_bond_atom_site_label_2
_geom_bond_distance
_geom_bond_site_symmetry_2
Hf0 Mg7 3.104940 1_555
Hf0 Mg6 3.104940 1_555
Hf0 Mg8 3.104946 1_555
Hf0 Mg9 3.104946 1_555
Hf0 Mg11 3.104947 1_455
Hf0 Mg10 3.104947 1_455
Hf0 Mg1 3.177860 1_545
Hf0 Mg5 3.177860 1_555
Hf0 Mg5 3.177860 1_445
Hf0 Mg1 3.177860 1_555
Hf0 Mg3 3.177860 1_555
Hf0 Mg3 3.177860 1_455
Mg0 Mg8 3.142256 1_555
Mg0 Mg9 3.142256 1_554
Mg0 Mg6 3.142263 1_565
Mg0 Mg7 3.142263 1_564
Mg0 Mg2 3.160872 1_455
Mg0 Mg4 3.160873 1_455
Mg0 Mg12 3.167442 1_455
Mg0 Mg13 3.167442 1_454
Mg0 Mg2 3.194600 1_565
Mg0 Mg4 3.194600 1_555
Mg1 Mg13 3.102438 1_455
Mg1 Mg12 3.102438 1_455
Mg1 Mg3 3.129166 1_565
Mg1 Mg5 3.129166 1_555
Mg1 Mg9 3.141244 1_555
Mg1 Mg8 3.141244 1_555
Mg1 Mg7 3.141250 1_565
Mg1 Mg6 3.141250 1_565
Mg1 Mg3 3.226307 1_455
Mg1 Mg5 3.226307 1_455
Mg2 Mg6 3.142263 1_555
Mg2 Mg7 3.142263 1_554
Mg2 Mg4 3.160872 1_555
Mg2 Mg4 3.194600 1_545
Mg3 Mg5 3.129166 1_545
Mg3 Mg7 3.141250 1_555
Mg3 Mg6 3.141250 1_555
Mg3 Mg5 3.226307 1_555
Mg4 Mg9 3.142263 1_554
Mg4 Mg8 3.142263 1_555
Mg5 Mg9 3.141250 1_555
Mg5 Mg8 3.141250 1_555
Mg6 Mg8 3.090878 1_555
Mg6 Mg8 3.264595 1_545
Mg7 Mg9 3.090878 1_555
Mg7 Mg9 3.264595 1_545
Mg10 Mg8 3.090878 1_655
Mg10 Mg6 3.090878 1_655
Mg10 Mg3 3.141244 1_555
Mg10 Mg5 3.141250 1_545
Mg10 Mg2 3.142256 1_555
Mg10 Mg4 3.142263 1_545
Mg10 Mg12 3.178696 1_545
Mg10 Mg12 3.178696 1_555
Mg10 Mg8 3.264595 1_545
Mg10 Mg6 3.264595 1_555
Mg11 Mg9 3.090878 1_655
Mg11 Mg7 3.090878 1_655
Mg11 Mg3 3.141244 1_555
Mg11 Mg5 3.141250 1_545
Mg11 Mg2 3.142256 1_556
Mg11 Mg4 3.142263 1_546
Mg11 Mg13 3.178696 1_545
Mg11 Mg13 3.178696 1_555
Mg11 Mg9 3.264595 1_545
Mg11 Mg7 3.264595 1_555
Mg12 Mg5 3.102431 1_555
Mg12 Mg3 3.102438 1_555
Mg12 Mg4 3.167436 1_555
Mg12 Mg2 3.167442 1_555
Mg12 Mg6 3.178696 1_665
Mg12 Mg6 3.178696 1_555
Mg12 Mg8 3.178696 1_655
Mg12 Mg8 3.178696 1_555
Mg13 Mg5 3.102431 1_555
Mg13 Mg3 3.102438 1_555
Mg13 Mg4 3.167436 1_556
Mg13 Mg2 3.167442 1_556
Mg13 Mg7 3.178696 1_665
Mg13 Mg7 3.178696 1_555
Mg13 Mg9 3.178696 1_555
Mg13 Mg9 3.178696 1_655
Ga0 Mg7 3.095205 1_554
Ga0 Mg6 3.095205 1_555
Ga0 Mg8 3.095211 1_555
Ga0 Mg9 3.095211 1_554
Ga0 Mg10 3.095211 1_455
Ga0 Mg11 3.095211 1_454
Ga0 Mg4 3.177751 1_445
Ga0 Mg0 3.177751 1_545
Ga0 Mg0 3.177751 1_555
Ga0 Mg4 3.177751 1_555
Ga0 Mg2 3.177751 1_455
Ga0 Mg2 3.177751 1_555
