# generated using pymatgen
data_Nd2CuTe4
_symmetry_space_group_name_H-M   'P 1'
_cell_length_a   8.38843500
_cell_length_b   6.52644200
_cell_length_c   7.68443869
_cell_angle_alpha   89.87030140
_cell_angle_beta   90.00000000
_cell_angle_gamma   90.00000000
_symmetry_Int_Tables_number   1
_chemical_formula_structural   Nd2CuTe4
_chemical_formula_sum   'Nd4 Cu2 Te8'
_cell_volume   420.69607832
_cell_formula_units_Z   2
loop_
 _symmetry_equiv_pos_site_id
 _symmetry_equiv_pos_as_xyz
  1  'x, y, z'
loop_
 _atom_site_type_symbol
 _atom_site_label
 _atom_site_symmetry_multiplicity
 _atom_site_fract_x
 _atom_site_fract_y
 _atom_site_fract_z
 _atom_site_occupancy
  Nd  Nd0  1  0.05486300  0.49983400  0.22642900  1
  Nd  Nd1  1  0.94199400  0.00544800  0.76350400  1
  Nd  Nd2  1  0.44199400  0.99455200  0.23649600  1
  Nd  Nd3  1  0.55486300  0.50016600  0.77357100  1
  Cu  Cu0  1  0.20266600  0.68418900  0.58735800  1
  Cu  Cu1  1  0.70266600  0.31581100  0.41264200  1
  Te  Te0  1  0.41274100  0.51450200  0.38240600  1
  Te  Te1  1  0.59134600  0.01953200  0.61607500  1
  Te  Te2  1  0.09134600  0.98046800  0.38392500  1
  Te  Te3  1  0.91274100  0.48549800  0.61759400  1
  Te  Te4  1  0.24910100  0.74914700  0.91787000  1
  Te  Te5  1  0.74910100  0.25085300  0.08213000  1
  Te  Te6  1  0.74929000  0.75312300  0.07300300  1
  Te  Te7  1  0.24929000  0.24687700  0.92699700  1
loop_
_geom_bond_atom_site_label_1
_geom_bond_atom_site_label_2
_geom_bond_distance
_geom_bond_site_symmetry_2
Nd0 Te5 3.233689 1_455
Nd0 Te0 3.233966 1_555
Nd0 Te3 3.234828 1_455
Nd0 Te6 3.268679 1_455
Nd0 Te7 3.270643 1_554
Nd0 Te4 3.302574 1_554
Nd0 Te2 3.378653 1_555
Nd0 Te2 3.609613 1_545
Nd1 Te1 3.153288 1_555
Nd1 Te2 3.179047 1_645
Nd1 Te7 3.273352 1_655
Nd1 Te4 3.291306 1_645
Nd1 Te6 3.311137 1_546
Nd1 Te3 3.334260 1_555
Nd1 Te5 3.346052 1_556
Nd1 Te3 3.584681 1_545
Nd2 Te2 3.153288 1_555
Nd2 Te1 3.179047 1_565
Nd2 Te6 3.273352 1_555
Nd2 Te5 3.291306 1_565
Nd2 Te7 3.311137 1_564
Nd2 Te0 3.334260 1_555
Nd2 Te4 3.346052 1_554
Nd2 Te0 3.584681 1_565
Nd3 Te4 3.233689 1_555
Nd3 Te3 3.233966 1_555
Nd3 Te0 3.234828 1_555
Nd3 Te7 3.268679 1_555
Nd3 Te6 3.270643 1_556
Nd3 Te5 3.302574 1_556
Nd3 Te1 3.378653 1_555
Nd3 Te1 3.609613 1_565
Cu0 Te4 2.605169 1_555
Cu0 Te0 2.611539 1_555
Cu0 Te2 2.653507 1_555
Cu0 Te3 2.765660 1_455
Cu0 Nd0 3.269932 1_555
Cu0 Nd1 3.320007 1_465
Cu0 Nd3 3.494370 1_555
Cu1 Te5 2.605169 1_555
Cu1 Te3 2.611539 1_555
Cu1 Te1 2.653507 1_555
Cu1 Te0 2.765660 1_555
Cu1 Nd3 3.269932 1_555
Cu1 Nd2 3.320007 1_545
Cu1 Nd0 3.494370 1_655
