# generated using pymatgen
data_Mg14VNi
_symmetry_space_group_name_H-M   'P 1'
_cell_length_a   6.27724427
_cell_length_b   6.26100730
_cell_length_c   9.86879373
_cell_angle_alpha   90.00000000
_cell_angle_beta   90.00000000
_cell_angle_gamma   119.91447668
_symmetry_Int_Tables_number   1
_chemical_formula_structural   Mg14VNi
_chemical_formula_sum   'Mg14 V1 Ni1'
_cell_volume   336.18750535
_cell_formula_units_Z   1
loop_
 _symmetry_equiv_pos_site_id
 _symmetry_equiv_pos_as_xyz
  1  'x, y, z'
loop_
 _atom_site_type_symbol
 _atom_site_label
 _atom_site_symmetry_multiplicity
 _atom_site_fract_x
 _atom_site_fract_y
 _atom_site_fract_z
 _atom_site_occupancy
  Mg  Mg0  1  0.16906815  0.33453357  0.62500000  1
  Mg  Mg1  1  0.17148172  0.83574036  0.62500000  1
  Mg  Mg2  1  0.67000698  0.34035102  0.12500000  1
  Mg  Mg3  1  0.66433645  0.33073978  0.62500000  1
  Mg  Mg4  1  0.67000698  0.82965495  0.12500000  1
  Mg  Mg5  1  0.66433645  0.83359567  0.62500000  1
  Mg  Mg6  1  0.32348449  0.16571633  0.35537407  1
  Mg  Mg7  1  0.32348449  0.16571633  0.89462593  1
  Mg  Mg8  1  0.32348449  0.65776916  0.35537407  1
  Mg  Mg9  1  0.32348449  0.65776916  0.89462593  1
  Mg  Mg10  1  0.84752419  0.17376259  0.36060622  1
  Mg  Mg11  1  0.84752419  0.17376259  0.88939378  1
  Mg  Mg12  1  0.84109177  0.67054638  0.37389779  1
  Mg  Mg13  1  0.84109177  0.67054638  0.87610221  1
  V  V0  1  0.15565517  0.82782709  0.12500000  1
  Ni  Ni0  1  0.16393824  0.33196862  0.12500000  1
loop_
_geom_bond_atom_site_label_1
_geom_bond_atom_site_label_2
_geom_bond_distance
_geom_bond_site_symmetry_2
Mg0 Mg5 3.120834 1_555
Mg0 Mg3 3.120834 1_555
Mg0 Mg1 3.130531 1_545
Mg0 Mg1 3.130531 1_555
Mg0 Mg11 3.141484 1_455
Mg0 Mg10 3.141484 1_455
Mg0 Mg5 3.156545 1_445
Mg0 Mg3 3.156546 1_455
Mg0 Mg7 3.187305 1_555
Mg0 Mg6 3.187305 1_555
Mg0 Mg8 3.187311 1_555
Mg0 Mg9 3.187311 1_555
Mg1 Mg12 3.061426 1_455
Mg1 Mg13 3.061426 1_455
Mg1 Mg3 3.100488 1_565
Mg1 Mg5 3.100488 1_555
Mg1 Mg3 3.176799 1_455
Mg1 Mg5 3.176799 1_455
Mg1 Mg9 3.208237 1_555
Mg1 Mg8 3.208237 1_555
Mg1 Mg7 3.208243 1_565
Mg1 Mg6 3.208243 1_565
Mg2 Mg6 2.953590 1_555
Mg2 Mg7 2.953590 1_554
Mg2 V0 3.054256 1_655
Mg2 Mg4 3.063535 1_555
Mg2 Ni0 3.127031 1_655
Mg2 Ni0 3.150872 1_555
Mg2 Mg4 3.197472 1_545
Mg2 V0 3.223020 1_545
Mg3 Mg5 3.112623 1_545
Mg3 Mg5 3.148384 1_555
Mg3 Mg6 3.243579 1_555
Mg3 Mg7 3.243579 1_555
Mg4 Mg9 2.953590 1_554
Mg4 Mg8 2.953590 1_555
Mg4 V0 3.054256 1_655
Mg4 Ni0 3.127031 1_665
Mg4 Ni0 3.150872 1_555
Mg4 V0 3.223020 1_555
Mg5 Mg8 3.243579 1_555
Mg5 Mg9 3.243579 1_555
Mg6 Ni0 2.880132 1_555
Mg6 V0 2.920829 1_545
Mg7 Ni0 2.880132 1_556
Mg7 V0 2.920829 1_546
Mg8 Ni0 2.880139 1_555
Mg8 V0 2.920822 1_555
Mg9 Ni0 2.880139 1_556
Mg9 V0 2.920822 1_556
Mg10 Ni0 2.893127 1_655
Mg10 Mg2 2.982472 1_555
Mg10 Mg4 2.982479 1_545
Mg10 Mg12 3.133446 1_545
Mg10 Mg12 3.133446 1_555
Mg10 Mg3 3.197451 1_555
Mg10 Mg5 3.197457 1_545
Mg11 Ni0 2.893127 1_656
Mg11 Mg2 2.982472 1_556
Mg11 Mg4 2.982479 1_546
Mg11 Mg13 3.133446 1_545
Mg11 Mg13 3.133446 1_555
Mg11 Mg3 3.197451 1_555
Mg11 Mg5 3.197457 1_545
Mg12 V0 2.993795 1_655
Mg12 Mg4 3.040774 1_555
Mg12 Mg2 3.040780 1_555
Mg12 Mg6 3.074216 1_665
Mg12 Mg8 3.074216 1_655
Mg12 Mg5 3.089307 1_555
Mg12 Mg3 3.089313 1_555
Mg12 Mg6 3.215202 1_555
Mg12 Mg8 3.215202 1_555
Mg13 V0 2.993795 1_656
Mg13 Mg4 3.040774 1_556
Mg13 Mg2 3.040780 1_556
Mg13 Mg7 3.074216 1_665
Mg13 Mg9 3.074216 1_655
Mg13 Mg5 3.089307 1_555
Mg13 Mg3 3.089313 1_555
Mg13 Mg7 3.215202 1_555
Mg13 Mg9 3.215202 1_555
Ni0 V0 3.130828 1_545
Ni0 V0 3.130828 1_555
