# generated using pymatgen
data_C3NClO
_symmetry_space_group_name_H-M   'P 1'
_cell_length_a   11.72304100
_cell_length_b   7.52871500
_cell_length_c   6.14808800
_cell_angle_alpha   90.00000000
_cell_angle_beta   90.00000000
_cell_angle_gamma   90.00000000
_symmetry_Int_Tables_number   1
_chemical_formula_structural   C3NClO
_chemical_formula_sum   'C12 N4 Cl4 O4'
_cell_volume   542.62677089
_cell_formula_units_Z   4
loop_
 _symmetry_equiv_pos_site_id
 _symmetry_equiv_pos_as_xyz
  1  'x, y, z'
loop_
 _atom_site_type_symbol
 _atom_site_label
 _atom_site_symmetry_multiplicity
 _atom_site_fract_x
 _atom_site_fract_y
 _atom_site_fract_z
 _atom_site_occupancy
  C  C0  1  0.13295400  0.25000000  0.61477000  1
  C  C1  1  0.63295400  0.25000000  0.88523000  1
  C  C2  1  0.86704600  0.75000000  0.38523000  1
  C  C3  1  0.36704600  0.75000000  0.11477000  1
  C  C4  1  0.16318700  0.35454400  0.42381000  1
  C  C5  1  0.66318700  0.14545600  0.07619000  1
  C  C6  1  0.83681300  0.85454400  0.57619000  1
  C  C7  1  0.33681300  0.64545600  0.92381000  1
  C  C8  1  0.83681300  0.64545600  0.57619000  1
  C  C9  1  0.33681300  0.85454400  0.92381000  1
  C  C10  1  0.16318700  0.14545600  0.42381000  1
  C  C11  1  0.66318700  0.35454400  0.07619000  1
  N  N0  1  0.20941500  0.25000000  0.25445200  1
  N  N1  1  0.70941500  0.25000000  0.24554800  1
  N  N2  1  0.79058500  0.75000000  0.74554800  1
  N  N3  1  0.29058500  0.75000000  0.75445200  1
  Cl  Cl0  1  0.12498100  0.75000000  0.77309300  1
  Cl  Cl1  1  0.62498100  0.75000000  0.72690700  1
  Cl  Cl2  1  0.87501900  0.25000000  0.22690700  1
  Cl  Cl3  1  0.37501900  0.25000000  0.27309300  1
  O  O0  1  0.09046600  0.25000000  0.79092800  1
  O  O1  1  0.59046600  0.25000000  0.70907200  1
  O  O2  1  0.90953400  0.75000000  0.20907200  1
  O  O3  1  0.40953400  0.75000000  0.29092800  1
loop_
_geom_bond_atom_site_label_1
_geom_bond_atom_site_label_2
_geom_bond_distance
_geom_bond_site_symmetry_2
C0 O0 1.192081 1_555
C1 O1 1.192081 1_555
C2 O2 1.192081 1_555
C3 O3 1.192081 1_555
C4 N0 1.413274 1_555
C5 N1 1.413274 1_555
C6 N2 1.413274 1_555
C7 N3 1.413274 1_555
C8 N2 1.413274 1_555
C9 N3 1.413274 1_555
C10 N0 1.413274 1_555
C11 N1 1.413274 1_555
Cl0 N3 1.944762 1_555
Cl1 N2 1.944762 1_555
Cl2 N1 1.944762 1_555
Cl3 N0 1.944762 1_555
