# generated using pymatgen
data_ErCrTeO6
_symmetry_space_group_name_H-M   'P 1'
_cell_length_a   5.38479366
_cell_length_b   5.38479366
_cell_length_c   8.62318900
_cell_angle_alpha   90.00000000
_cell_angle_beta   90.00000000
_cell_angle_gamma   119.99999576
_symmetry_Int_Tables_number   1
_chemical_formula_structural   ErCrTeO6
_chemical_formula_sum   'Er2 Cr2 Te2 O12'
_cell_volume   216.53927921
_cell_formula_units_Z   2
loop_
 _symmetry_equiv_pos_site_id
 _symmetry_equiv_pos_as_xyz
  1  'x, y, z'
loop_
 _atom_site_type_symbol
 _atom_site_label
 _atom_site_symmetry_multiplicity
 _atom_site_fract_x
 _atom_site_fract_y
 _atom_site_fract_z
 _atom_site_occupancy
  Er  Er0  1  0.33333300  0.66666700  0.75000000  1
  Er  Er1  1  0.66666700  0.33333300  0.25000000  1
  Cr  Cr0  1  0.00000000  0.00000000  0.00000000  1
  Cr  Cr1  1  0.00000000  0.00000000  0.50000000  1
  Te  Te0  1  0.66666700  0.33333300  0.75000000  1
  Te  Te1  1  0.33333300  0.66666700  0.25000000  1
  O  O0  1  0.96104800  0.31391100  0.87602800  1
  O  O1  1  0.03895200  0.68608900  0.12397200  1
  O  O2  1  0.35286300  0.03895200  0.87602800  1
  O  O3  1  0.35286300  0.31391100  0.62397200  1
  O  O4  1  0.64713700  0.96104800  0.12397200  1
  O  O5  1  0.64713700  0.68608900  0.37602800  1
  O  O6  1  0.68608900  0.64713700  0.87602800  1
  O  O7  1  0.68608900  0.03895200  0.62397200  1
  O  O8  1  0.31391100  0.35286300  0.12397200  1
  O  O9  1  0.31391100  0.96104800  0.37602800  1
  O  O10  1  0.96104800  0.64713700  0.62397200  1
  O  O11  1  0.03895200  0.35286300  0.37602800  1
loop_
_geom_bond_atom_site_label_1
_geom_bond_atom_site_label_2
_geom_bond_distance
_geom_bond_site_symmetry_2
Er0 O10 2.236074 1_455
Er0 O2 2.236074 1_565
Er0 O0 2.236076 1_455
Er0 O7 2.236076 1_565
Er0 O6 2.236078 1_555
Er0 O3 2.236078 1_555
Er1 O4 2.236074 1_545
Er1 O11 2.236074 1_655
Er1 O9 2.236076 1_545
Er1 O1 2.236076 1_655
Er1 O5 2.236078 1_555
Er1 O8 2.236078 1_555
Cr0 O0 2.097295 1_454
Cr0 O1 2.097295 1_545
Cr0 O2 2.097295 1_554
Cr0 O4 2.097295 1_445
Cr0 O8 2.097295 1_555
Cr0 O6 2.097295 1_444
Cr1 O9 2.097295 1_545
Cr1 O7 2.097295 1_455
Cr1 O11 2.097295 1_555
Cr1 O10 2.097295 1_445
Cr1 O3 2.097295 1_555
Cr1 O5 2.097295 1_445
O0 Te0 1.967378 1_555
O1 Te1 1.967378 1_555
O2 Te0 1.967380 1_555
O3 Te0 1.967382 1_555
O4 Te1 1.967380 1_555
O5 Te1 1.967382 1_555
O6 Te0 1.967382 1_555
O7 Te0 1.967378 1_555
O8 Te1 1.967382 1_555
O9 Te1 1.967378 1_555
O10 Te0 1.967380 1_555
O11 Te1 1.967380 1_555
