# generated using pymatgen
data_Li3MnCo3O8
_symmetry_space_group_name_H-M   'P 1'
_cell_length_a   5.72208272
_cell_length_b   5.91194097
_cell_length_c   10.22456702
_cell_angle_alpha   106.81765160
_cell_angle_beta   90.84512878
_cell_angle_gamma   119.07174265
_symmetry_Int_Tables_number   1
_chemical_formula_structural   Li3MnCo3O8
_chemical_formula_sum   'Li6 Mn2 Co6 O16'
_cell_volume   284.34486145
_cell_formula_units_Z   2
loop_
 _symmetry_equiv_pos_site_id
 _symmetry_equiv_pos_as_xyz
  1  'x, y, z'
loop_
 _atom_site_type_symbol
 _atom_site_label
 _atom_site_symmetry_multiplicity
 _atom_site_fract_x
 _atom_site_fract_y
 _atom_site_fract_z
 _atom_site_occupancy
  Li  Li0  1  0.74914700  0.49782700  0.24309500  1
  Li  Li1  1  0.25200600  0.50332700  0.75590500  1
  Li  Li2  1  0.99934400  0.50003500  0.00149800  1
  Li  Li3  1  0.49990700  0.49927500  0.49819600  1
  Li  Li4  1  0.00106400  0.49795000  0.49775900  1
  Li  Li5  1  0.49989200  0.50358500  0.00243400  1
  Mn  Mn0  1  0.99478200  0.99694200  0.99974300  1
  Mn  Mn1  1  0.50372900  0.00225900  0.50061600  1
  Co  Co0  1  0.49649900  0.99902500  0.99974800  1
  Co  Co1  1  0.74862900  0.99759000  0.75075500  1
  Co  Co2  1  0.25464400  0.00077000  0.75451400  1
  Co  Co3  1  0.00289000  0.00053100  0.50012500  1
  Co  Co4  1  0.25296500  0.00107700  0.24815600  1
  Co  Co5  1  0.74713900  0.00032000  0.24789600  1
  O  O0  1  0.88544500  0.77090000  0.12009200  1
  O  O1  1  0.39357900  0.77950800  0.62084300  1
  O  O2  1  0.10571200  0.22009000  0.87845100  1
  O  O3  1  0.61429500  0.22885800  0.38130800  1
  O  O4  1  0.10448100  0.20850700  0.38049900  1
  O  O5  1  0.59621300  0.20986200  0.87640200  1
  O  O6  1  0.90844200  0.79722200  0.62082200  1
  O  O7  1  0.39258000  0.78609700  0.12131000  1
  O  O8  1  0.13825700  0.78521000  0.38999800  1
  O  O9  1  0.63250400  0.78097400  0.89001600  1
  O  O10  1  0.64704000  0.78512400  0.39029300  1
  O  O11  1  0.13503000  0.77986000  0.88625800  1
  O  O12  1  0.35848300  0.21669000  0.61096000  1
  O  O13  1  0.85574200  0.21692200  0.11224000  1
  O  O14  1  0.86949000  0.21727400  0.60814700  1
  O  O15  1  0.36007000  0.21638900  0.11192000  1
loop_
_geom_bond_atom_site_label_1
_geom_bond_atom_site_label_2
_geom_bond_distance
_geom_bond_site_symmetry_2
Li0 O15 2.131793 1_555
Li0 O13 2.154704 1_555
Li0 O0 2.185503 1_555
Li0 O8 2.201931 1_655
Li0 O10 2.236620 1_555
Li0 O3 2.293695 1_555
Li1 O9 2.109836 1_555
Li1 O11 2.173940 1_555
Li1 O14 2.181741 1_455
Li1 O2 2.226521 1_555
Li1 O12 2.239624 1_555
Li1 O1 2.298157 1_555
Li2 O0 2.091251 1_555
Li2 O7 2.108466 1_655
Li2 O2 2.118728 1_654
Li2 O13 2.132192 1_555
Li2 O11 2.152812 1_654
Li2 O5 2.167396 1_554
Li3 O3 2.084932 1_555
Li3 O4 2.113185 1_555
Li3 O1 2.118332 1_555
Li3 O10 2.122602 1_555
Li3 O12 2.145569 1_555
Li3 O6 2.184809 1_555
Li4 O3 2.061821 1_455
Li4 O1 2.114307 1_555
Li4 O14 2.118694 1_455
Li4 O8 2.127681 1_555
Li4 O4 2.129215 1_555
Li4 O6 2.153415 1_455
Li5 O0 2.060402 1_555
Li5 O7 2.118473 1_555
Li5 O9 2.119772 1_554
Li5 O2 2.125071 1_554
Li5 O15 2.140612 1_555
Li5 O5 2.153107 1_554
Mn0 O9 1.927822 1_555
Mn0 O15 1.949502 1_666
Mn0 O11 1.950413 1_655
Mn0 O13 1.953009 1_566
Mn0 O2 1.958940 1_665
Mn0 O0 1.962948 1_556
Mn1 O14 1.934663 1_555
Mn1 O8 1.944670 1_545
Mn1 O12 1.947983 1_555
Mn1 O1 1.948213 1_545
Mn1 O10 1.950668 1_545
Mn1 O3 1.956460 1_555
Co0 O7 1.919061 1_556
Co0 O9 1.920940 1_555
Co0 O13 1.925469 1_566
Co0 O5 1.925991 1_565
Co0 O15 1.929933 1_566
Co0 O11 1.938608 1_555
Co1 O2 1.981272 1_665
Co1 O1 1.984450 1_555
Co1 O5 2.037077 1_565
Co1 O6 2.045063 1_555
Co1 O9 2.089275 1_555
Co1 O14 2.131622 1_565
Co2 O5 1.894730 1_555
Co2 O6 1.972963 1_445
Co2 O11 2.040854 1_545
Co2 O2 2.041605 1_555
Co2 O1 2.054071 1_545
Co2 O12 2.123607 1_555
Co3 O6 1.872544 1_445
Co3 O4 1.882109 1_555
Co3 O14 1.897608 1_455
Co3 O10 1.901058 1_445
Co3 O12 1.903813 1_555
Co3 O8 1.908618 1_545
Co4 O7 1.999766 1_545
Co4 O3 2.022879 1_555
Co4 O0 2.023728 1_445
Co4 O4 2.035436 1_555
Co4 O15 2.056525 1_555
Co4 O8 2.108983 1_545
Co5 O7 1.967802 1_545
Co5 O4 2.010208 1_655
Co5 O0 2.054637 1_545
Co5 O3 2.055776 1_555
Co5 O13 2.056612 1_555
Co5 O10 2.110615 1_545
