# generated using pymatgen
data_Li4TiNi3O8
_symmetry_space_group_name_H-M   'P 1'
_cell_length_a   5.83027279
_cell_length_b   5.86530258
_cell_length_c   8.40610493
_cell_angle_alpha   89.40820528
_cell_angle_beta   90.11699336
_cell_angle_gamma   91.41040678
_symmetry_Int_Tables_number   1
_chemical_formula_structural   Li4TiNi3O8
_chemical_formula_sum   'Li8 Ti2 Ni6 O16'
_cell_volume   287.35492632
_cell_formula_units_Z   2
loop_
 _symmetry_equiv_pos_site_id
 _symmetry_equiv_pos_as_xyz
  1  'x, y, z'
loop_
 _atom_site_type_symbol
 _atom_site_label
 _atom_site_symmetry_multiplicity
 _atom_site_fract_x
 _atom_site_fract_y
 _atom_site_fract_z
 _atom_site_occupancy
  Li  Li0  1  0.99545100  0.00110100  0.49968000  1
  Li  Li1  1  0.50536800  0.49866600  0.00000000  1
  Li  Li2  1  0.24856300  0.75025700  0.75024500  1
  Li  Li3  1  0.75061900  0.25087000  0.25011300  1
  Li  Li4  1  0.25201900  0.24850900  0.25002300  1
  Li  Li5  1  0.74932700  0.75058200  0.74983000  1
  Li  Li6  1  0.00006800  0.49958400  0.00096900  1
  Li  Li7  1  0.50052900  0.00103600  0.49860000  1
  Ti  Ti0  1  0.99734900  0.00035400  0.00036100  1
  Ti  Ti1  1  0.50033400  0.50067000  0.50007200  1
  Ni  Ni0  1  0.75073200  0.24982400  0.74933000  1
  Ni  Ni1  1  0.74987500  0.75019000  0.25045300  1
  Ni  Ni2  1  0.50342400  0.99983300  0.99992400  1
  Ni  Ni3  1  0.24980500  0.75020200  0.24957600  1
  Ni  Ni4  1  0.25071700  0.24928300  0.75006600  1
  Ni  Ni5  1  0.99545400  0.49990000  0.50045700  1
  O  O0  1  0.98608300  0.51938600  0.27077600  1
  O  O1  1  0.50736600  0.01784000  0.76952900  1
  O  O2  1  0.51350700  0.98126600  0.23001600  1
  O  O3  1  0.99395800  0.48140000  0.73017800  1
  O  O4  1  0.26871900  0.25671800  0.49493000  1
  O  O5  1  0.77025400  0.75342000  0.00100400  1
  O  O6  1  0.23140200  0.24291300  0.00503900  1
  O  O7  1  0.72938300  0.74674900  0.49912200  1
  O  O8  1  0.24623500  0.72389100  0.50562700  1
  O  O9  1  0.74786400  0.22793100  0.00066100  1
  O  O10  1  0.25287100  0.77589100  0.99441000  1
  O  O11  1  0.75197900  0.27195200  0.49899000  1
  O  O12  1  0.98042000  0.01792900  0.76058800  1
  O  O13  1  0.51268000  0.51672200  0.26091800  1
  O  O14  1  0.52056500  0.48148900  0.73899700  1
  O  O15  1  0.98708000  0.98364100  0.23951700  1
loop_
_geom_bond_atom_site_label_1
_geom_bond_atom_site_label_2
_geom_bond_distance
_geom_bond_site_symmetry_2
Li0 O7 2.125607 1_545
Li0 O11 2.156281 1_555
Li0 O4 2.160837 1_655
Li0 O15 2.190798 1_545
Li0 O12 2.198481 1_555
Li0 O8 2.213373 1_645
Li1 O5 2.122353 1_555
Li1 O9 2.151924 1_555
Li1 O6 2.164340 1_555
Li1 O13 2.197228 1_555
Li1 O14 2.199436 1_554
Li1 O10 2.220190 1_554
Li2 O10 2.059581 1_555
Li2 O8 2.063676 1_555
Li2 O3 2.146599 1_455
Li2 O1 2.157290 1_565
Li2 O12 2.245137 1_465
Li2 O14 2.266199 1_555
Li3 O0 2.072062 1_555
Li3 O2 2.082579 1_545
Li3 O11 2.096999 1_555
Li3 O9 2.102621 1_555
Li3 O13 2.115198 1_555
Li3 O15 2.115418 1_545
Li4 O4 2.061819 1_555
Li4 O6 2.063174 1_555
Li4 O13 2.162746 1_555
Li4 O15 2.165964 1_445
Li4 O2 2.221169 1_545
Li4 O0 2.255376 1_455
Li5 O14 2.043791 1_555
Li5 O12 2.044692 1_565
Li5 O7 2.110767 1_555
Li5 O5 2.114882 1_556
Li5 O1 2.142400 1_565
Li5 O3 2.161352 1_555
Li6 O5 2.027335 1_455
Li6 O6 2.045816 1_555
Li6 O9 2.141393 1_455
Li6 O10 2.163972 1_554
Li6 O0 2.273927 1_455
Li6 O3 2.280060 1_454
Li7 O7 2.025491 1_545
Li7 O4 2.043319 1_555
Li7 O11 2.135317 1_555
Li7 O8 2.173411 1_545
Li7 O2 2.263432 1_545
Li7 O1 2.280831 1_555
Ni0 O12 1.933576 1_555
Ni0 O14 1.934291 1_555
Ni0 O3 1.945078 1_555
Ni0 O1 1.947983 1_555
Ni0 O11 2.107061 1_555
Ni0 O9 2.115364 1_556
Ni1 O13 1.923569 1_555
Ni1 O15 1.923702 1_555
Ni1 O0 1.960710 1_555
Ni1 O2 1.962584 1_555
Ni1 O7 2.093854 1_555
Ni1 O5 2.100364 1_555
Ni2 O9 1.930609 1_566
Ni2 O2 1.936971 1_556
Ni2 O1 1.938665 1_565
Ni2 O10 1.941092 1_555
Ni2 O5 2.149295 1_556
Ni2 O6 2.159331 1_566
Ni3 O2 2.030120 1_555
Ni3 O0 2.030354 1_455
Ni3 O15 2.080490 1_455
Ni3 O13 2.081687 1_555
Ni3 O10 2.148765 1_554
Ni3 O8 2.156433 1_555
Ni4 O1 2.050109 1_555
Ni4 O3 2.053533 1_455
Ni4 O12 2.055593 1_455
Ni4 O14 2.057017 1_555
Ni4 O6 2.146407 1_556
Ni4 O4 2.147421 1_555
Ni5 O11 1.926025 1_555
Ni5 O3 1.933011 1_555
Ni5 O0 1.933664 1_555
Ni5 O8 1.942177 1_655
Ni5 O7 2.147781 1_555
Ni5 O4 2.165282 1_655
O4 Ti1 1.943875 1_555
O5 Ti0 1.938101 1_565
O6 Ti0 1.947576 1_455
O7 Ti1 1.942041 1_555
O8 Ti1 2.002026 1_555
O9 Ti0 1.998285 1_555
O10 Ti0 2.013306 1_466
O11 Ti1 2.012326 1_555
O12 Ti0 2.019464 1_556
O13 Ti1 2.012937 1_555
O14 Ti1 2.013796 1_555
O15 Ti0 2.012688 1_565
