# generated using pymatgen
data_Zr2SiS2
_symmetry_space_group_name_H-M   'P 1'
_cell_length_a   5.54499000
_cell_length_b   5.54499000
_cell_length_c   42.30597400
_cell_angle_alpha   90.00000000
_cell_angle_beta   90.00000000
_cell_angle_gamma   90.00000000
_symmetry_Int_Tables_number   1
_chemical_formula_structural   Zr2SiS2
_chemical_formula_sum   'Zr16 Si8 S16'
_cell_volume   1300.77814850
_cell_formula_units_Z   8
loop_
 _symmetry_equiv_pos_site_id
 _symmetry_equiv_pos_as_xyz
  1  'x, y, z'
loop_
 _atom_site_type_symbol
 _atom_site_label
 _atom_site_symmetry_multiplicity
 _atom_site_fract_x
 _atom_site_fract_y
 _atom_site_fract_z
 _atom_site_occupancy
  Zr  Zr0_0  1  0.25000000  0.25000000  0.13352350  1
  Zr  Zr0_1  1  0.25000000  0.25000000  0.63352350  1
  Zr  Zr0_2  1  0.25000000  0.75000000  0.13352350  1
  Zr  Zr0_3  1  0.25000000  0.75000000  0.63352350  1
  Zr  Zr0_4  1  0.75000000  0.25000000  0.13352350  1
  Zr  Zr0_5  1  0.75000000  0.25000000  0.63352350  1
  Zr  Zr0_6  1  0.75000000  0.75000000  0.13352350  1
  Zr  Zr0_7  1  0.75000000  0.75000000  0.63352350  1
  Zr  Zr1_0  1  0.25000000  0.25000000  0.36647650  1
  Zr  Zr1_1  1  0.25000000  0.25000000  0.86647650  1
  Zr  Zr1_2  1  0.25000000  0.75000000  0.36647650  1
  Zr  Zr1_3  1  0.25000000  0.75000000  0.86647650  1
  Zr  Zr1_4  1  0.75000000  0.25000000  0.36647650  1
  Zr  Zr1_5  1  0.75000000  0.25000000  0.86647650  1
  Zr  Zr1_6  1  0.75000000  0.75000000  0.36647650  1
  Zr  Zr1_7  1  0.75000000  0.75000000  0.86647650  1
  Si  Si0_0  1  0.25000000  0.25000000  0.00000000  1
  Si  Si0_1  1  0.25000000  0.25000000  0.50000000  1
  Si  Si0_2  1  0.25000000  0.75000000  0.00000000  1
  Si  Si0_3  1  0.25000000  0.75000000  0.50000000  1
  Si  Si0_4  1  0.75000000  0.25000000  0.00000000  1
  Si  Si0_5  1  0.75000000  0.25000000  0.50000000  1
  Si  Si0_6  1  0.75000000  0.75000000  0.00000000  1
  Si  Si0_7  1  0.75000000  0.75000000  0.50000000  1
  S  S0_0  1  0.25000000  0.25000000  0.30964550  1
  S  S0_1  1  0.25000000  0.25000000  0.80964550  1
  S  S0_2  1  0.25000000  0.75000000  0.30964550  1
  S  S0_3  1  0.25000000  0.75000000  0.80964550  1
  S  S0_4  1  0.75000000  0.25000000  0.30964550  1
  S  S0_5  1  0.75000000  0.25000000  0.80964550  1
  S  S0_6  1  0.75000000  0.75000000  0.30964550  1
  S  S0_7  1  0.75000000  0.75000000  0.80964550  1
  S  S1_0  1  0.25000000  0.25000000  0.19035450  1
  S  S1_1  1  0.25000000  0.25000000  0.69035450  1
  S  S1_2  1  0.25000000  0.75000000  0.19035450  1
  S  S1_3  1  0.25000000  0.75000000  0.69035450  1
  S  S1_4  1  0.75000000  0.25000000  0.19035450  1
  S  S1_5  1  0.75000000  0.25000000  0.69035450  1
  S  S1_6  1  0.75000000  0.75000000  0.19035450  1
  S  S1_7  1  0.75000000  0.75000000  0.69035450  1
loop_
_geom_bond_atom_site_label_1
_geom_bond_atom_site_label_2
_geom_bond_distance
_geom_bond_site_symmetry_2
Si0_0 Si0_4 2.772495 1_455
Si0_0 Si0_2 2.772495 1_545
Si0_0 Si0_4 2.772495 1_555
Si0_0 Si0_2 2.772495 1_555
Si0_1 Si0_3 2.772495 1_545
Si0_1 Si0_5 2.772495 1_455
Si0_1 Si0_5 2.772495 1_555
Si0_1 Si0_3 2.772495 1_555
Si0_2 Si0_6 2.772495 1_455
Si0_2 Si0_6 2.772495 1_555
Si0_3 Si0_7 2.772495 1_455
Si0_3 Si0_7 2.772495 1_555
Si0_4 Si0_6 2.772495 1_545
Si0_4 Si0_6 2.772495 1_555
Si0_5 Si0_7 2.772495 1_545
Si0_5 Si0_7 2.772495 1_555
S0_0 Zr1_0 2.404291 1_555
S0_1 Zr1_1 2.404291 1_555
S0_2 Zr1_2 2.404291 1_555
S0_3 Zr1_3 2.404291 1_555
S0_4 Zr1_4 2.404291 1_555
S0_5 Zr1_5 2.404291 1_555
S0_6 Zr1_6 2.404291 1_555
S0_7 Zr1_7 2.404291 1_555
S1_0 Zr0_0 2.404291 1_555
S1_1 Zr0_1 2.404291 1_555
S1_2 Zr0_2 2.404291 1_555
S1_3 Zr0_3 2.404291 1_555
S1_4 Zr0_4 2.404291 1_555
S1_5 Zr0_5 2.404291 1_555
S1_6 Zr0_6 2.404291 1_555
S1_7 Zr0_7 2.404291 1_555
