# generated using pymatgen
data_MnO
_symmetry_space_group_name_H-M   'P 1'
_cell_length_a   3.14478862
_cell_length_b   3.14511635
_cell_length_c   5.44764358
_cell_angle_alpha   89.99985751
_cell_angle_beta   73.23282568
_cell_angle_gamma   59.99649104
_symmetry_Int_Tables_number   1
_chemical_formula_structural   MnO
_chemical_formula_sum   'Mn2 O2'
_cell_volume   43.99570228
_cell_formula_units_Z   2
loop_
 _symmetry_equiv_pos_site_id
 _symmetry_equiv_pos_as_xyz
  1  'x, y, z'
loop_
 _atom_site_type_symbol
 _atom_site_label
 _atom_site_symmetry_multiplicity
 _atom_site_fract_x
 _atom_site_fract_y
 _atom_site_fract_z
 _atom_site_occupancy
  Mn  Mn0  1  -0.00000000  0.00000000  0.00000000  1
  Mn  Mn1  1  -0.00000000  0.50000000  0.50000000  1
  O  O0  1  0.49999900  0.75000100  0.25000100  1
  O  O1  1  0.50000100  0.24999900  0.74999900  1
loop_
_geom_bond_atom_site_label_1
_geom_bond_atom_site_label_2
_geom_bond_distance
_geom_bond_site_symmetry_2
Mn0 O0 2.223633 1_545
Mn0 O1 2.223633 1_454
Mn0 O1 2.224047 1_554
Mn0 O0 2.224047 1_445
Mn0 O0 2.224052 1_455
Mn0 O1 2.224052 1_544
Mn1 O1 2.223629 1_555
Mn1 O0 2.223629 1_455
Mn1 O0 2.224043 1_555
Mn1 O1 2.224043 1_455
Mn1 O1 2.224043 1_465
Mn1 O0 2.224043 1_545
