# generated using pymatgen
data_ZnCd4(GaS2)10
_symmetry_space_group_name_H-M   'P 1'
_cell_length_a   5.52991794
_cell_length_b   6.45626317
_cell_length_c   24.39136450
_cell_angle_alpha   93.03351204
_cell_angle_beta   90.03217495
_cell_angle_gamma   115.35248905
_symmetry_Int_Tables_number   1
_chemical_formula_structural   ZnCd4(GaS2)10
_chemical_formula_sum   'Zn1 Cd4 Ga10 S20'
_cell_volume   785.60274932
_cell_formula_units_Z   1
loop_
 _symmetry_equiv_pos_site_id
 _symmetry_equiv_pos_as_xyz
  1  'x, y, z'
loop_
 _atom_site_type_symbol
 _atom_site_label
 _atom_site_symmetry_multiplicity
 _atom_site_fract_x
 _atom_site_fract_y
 _atom_site_fract_z
 _atom_site_occupancy
  Zn  Zn0  1  0.19380866  0.39497455  0.79950241  1
  Cd  Cd0  1  0.01217836  0.01790926  0.99701041  1
  Cd  Cd1  1  0.80170266  0.60232770  0.19919269  1
  Cd  Cd2  1  0.59870063  0.19848191  0.40138200  1
  Cd  Cd3  1  0.39405665  0.78833342  0.60328481  1
  Ga  Ga0  1  0.60770801  0.21863365  0.89664944  1
  Ga  Ga1  1  0.19953268  0.39829559  0.29967130  1
  Ga  Ga2  1  0.40281264  0.80350341  0.09699810  1
  Ga  Ga3  1  0.79318836  0.58795401  0.70463890  1
  Ga  Ga4  1  -0.00368181  0.99117073  0.50195816  1
  Ga  Ga5  1  0.31031762  0.61466891  0.94561624  1
  Ga  Ga6  1  0.10258918  0.20309770  0.14832161  1
  Ga  Ga7  1  0.89987077  0.79826931  0.35043742  1
  Ga  Ga8  1  0.69729108  0.39057658  0.55270962  1
  Ga  Ga9  1  0.48990702  0.99309510  0.75290614  1
  S  S0  1  0.47743160  0.49392711  0.11726510  1
  S  S1  1  0.07149184  0.68080016  0.52121915  1
  S  S2  1  0.27509980  0.08876417  0.31942076  1
  S  S3  1  0.68452817  0.90875531  0.91586589  1
  S  S4  1  0.87996007  0.28368194  0.72586707  1
  S  S5  1  0.11425734  0.68604096  0.02242584  1
  S  S6  1  0.70748955  0.87107884  0.42759538  1
  S  S7  1  0.91007384  0.27546443  0.22551264  1
  S  S8  1  0.29833513  0.09647682  0.82581530  1
  S  S9  1  0.50584747  0.46302197  0.62993789  1
  S  S10  1  0.00469191  0.51332408  0.87424775  1
  S  S11  1  0.58658512  0.70841980  0.28124713  1
  S  S12  1  0.78988614  0.11512651  0.07924684  1
  S  S13  1  0.17501859  0.89999339  0.68402474  1
  S  S14  1  0.38317847  0.30209484  0.48370231  1
  S  S15  1  0.44838244  0.34601806  0.97079791  1
  S  S16  1  0.03144277  0.52290443  0.37324547  1
  S  S17  1  0.23373823  0.92711291  0.17073660  1
  S  S18  1  0.59481959  0.70089061  0.77584457  1
  S  S19  1  0.82775842  0.11481082  0.57570544  1
loop_
_geom_bond_atom_site_label_1
_geom_bond_atom_site_label_2
_geom_bond_distance
_geom_bond_site_symmetry_2
Cd0 S3 2.540027 1_445
Cd0 S12 2.541408 1_456
Cd0 S5 2.543573 1_546
Cd0 S15 2.546360 1_555
Cd1 S11 2.538763 1_555
Cd1 S7 2.539823 1_555
Cd1 S17 2.540145 1_655
Cd1 S0 2.543987 1_555
Cd2 S14 2.538286 1_555
Cd2 S16 2.538959 1_655
Cd2 S2 2.541885 1_555
Cd2 S6 2.543716 1_545
Cd3 S1 2.541445 1_555
Cd3 S13 2.542722 1_555
Cd3 S19 2.543650 1_565
Cd3 S9 2.544015 1_555
Ga0 S15 2.277830 1_555
Ga0 S3 2.286840 1_545
Ga0 S8 2.287125 1_555
Ga0 S10 2.296140 1_655
Ga1 S2 2.284110 1_555
Ga1 S11 2.284383 1_555
Ga1 S7 2.284909 1_455
Ga1 S16 2.284997 1_555
Ga2 S0 2.284753 1_555
Ga2 S12 2.285226 1_565
Ga2 S17 2.287993 1_555
Ga2 S5 2.290030 1_555
Ga3 S13 2.288100 1_655
Ga3 S9 2.288876 1_555
Ga3 S4 2.296099 1_555
Ga3 S18 2.303160 1_555
Ga4 S1 2.285094 1_555
Ga4 S14 2.285305 1_565
Ga4 S19 2.286665 1_465
Ga4 S6 2.286809 1_455
Ga5 S3 2.279608 1_555
Ga5 S15 2.283611 1_555
Ga5 S5 2.288347 1_556
Ga5 S10 2.289965 1_555
Ga6 S12 2.281625 1_455
Ga6 S17 2.282352 1_545
Ga6 S0 2.283718 1_555
Ga6 S7 2.287285 1_455
Ga7 S16 2.282870 1_655
Ga7 S2 2.283570 1_665
Ga7 S11 2.284400 1_555
Ga7 S6 2.287250 1_555
Ga8 S19 2.282605 1_555
Ga8 S1 2.283985 1_655
Ga8 S9 2.284933 1_555
Ga8 S14 2.285136 1_555
Ga9 S13 2.282479 1_555
Ga9 S8 2.283056 1_565
Ga9 S18 2.292889 1_555
Ga9 S4 2.296586 1_565
S4 Zn0 2.355052 1_655
S8 Zn0 2.354677 1_555
S10 Zn0 2.353806 1_555
S18 Zn0 2.350054 1_555
