# generated using pymatgen
data_SrEuBiSbO6
_symmetry_space_group_name_H-M   'P 1'
_cell_length_a   5.92204332
_cell_length_b   6.11626807
_cell_length_c   8.49412596
_cell_angle_alpha   90.02462963
_cell_angle_beta   90.26284355
_cell_angle_gamma   90.08631279
_symmetry_Int_Tables_number   1
_chemical_formula_structural   SrEuBiSbO6
_chemical_formula_sum   'Sr2 Eu2 Bi2 Sb2 O12'
_cell_volume   307.66045956
_cell_formula_units_Z   2
loop_
 _symmetry_equiv_pos_site_id
 _symmetry_equiv_pos_as_xyz
  1  'x, y, z'
loop_
 _atom_site_type_symbol
 _atom_site_label
 _atom_site_symmetry_multiplicity
 _atom_site_fract_x
 _atom_site_fract_y
 _atom_site_fract_z
 _atom_site_occupancy
  Sr  Sr0  1  0.51381663  0.55330478  0.24912099  1
  Sr  Sr1  1  0.48618337  0.44669522  0.75087901  1
  Eu  Eu0  1  0.98342161  0.05483058  0.25111469  1
  Eu  Eu1  1  0.01657839  0.94516942  0.74888531  1
  Bi  Bi0  1  -0.00000000  0.50000000  0.00000000  1
  Bi  Bi1  1  0.50000000  -0.00000000  0.50000000  1
  Sb  Sb0  1  0.50000000  -0.00000000  0.00000000  1
  Sb  Sb1  1  -0.00000000  0.50000000  0.50000000  1
  O  O0  1  0.21879685  0.18339327  0.94398810  1
  O  O1  1  0.27908295  0.68509664  0.55182311  1
  O  O2  1  0.78120315  0.81660673  0.05601190  1
  O  O3  1  0.72091705  0.31490336  0.44817689  1
  O  O4  1  0.32256656  0.72191299  0.94299843  1
  O  O5  1  0.17476880  0.21728718  0.55752062  1
  O  O6  1  0.67743344  0.27808701  0.05700157  1
  O  O7  1  0.82523120  0.78271282  0.44247938  1
  O  O8  1  0.39050903  0.96639611  0.22932087  1
  O  O9  1  0.10079130  0.45934390  0.27040096  1
  O  O10  1  0.60949097  0.03360389  0.77067913  1
  O  O11  1  0.89920870  0.54065610  0.72959904  1
loop_
_geom_bond_atom_site_label_1
_geom_bond_atom_site_label_2
_geom_bond_distance
_geom_bond_site_symmetry_2
Eu0 O8 2.479248 1_645
Eu0 O2 2.505583 1_545
Eu0 O7 2.510265 1_545
Eu0 O9 2.573832 1_655
Eu0 O3 2.788870 1_555
Eu0 O6 2.801568 1_555
Eu0 O5 3.002079 1_655
Eu0 O0 3.065744 1_654
Eu1 O10 2.479248 1_465
Eu1 O0 2.505583 1_565
Eu1 O5 2.510265 1_565
Eu1 O11 2.573832 1_455
Eu1 O1 2.788870 1_555
Eu1 O4 2.801568 1_555
Eu1 O7 3.002079 1_455
Eu1 O2 3.065744 1_456
Bi0 O2 2.380657 1_455
Bi0 O0 2.380657 1_554
Bi0 O11 2.383664 1_454
Bi0 O9 2.383664 1_555
Bi0 O4 2.393103 1_554
Bi0 O6 2.393103 1_455
Bi1 O3 2.369260 1_555
Bi1 O1 2.369260 1_545
Bi1 O5 2.393808 1_555
Bi1 O7 2.393808 1_545
Bi1 O10 2.394668 1_555
Bi1 O8 2.394668 1_545
O0 Sb0 2.063144 1_556
O0 Sr1 2.794609 1_555
O1 Sb1 2.047983 1_555
O1 Sr1 2.545121 1_555
O1 Sr0 3.037688 1_555
O2 Sb0 2.063144 1_565
O2 Sr0 2.794609 1_555
O3 Sb1 2.047983 1_655
O3 Sr0 2.545121 1_555
O3 Sr1 3.037688 1_555
O4 Sb0 2.054432 1_566
O4 Sr1 2.540175 1_555
O4 Sr0 3.014352 1_556
O5 Sb1 2.073969 1_555
O5 Sr1 2.833691 1_555
O6 Sb0 2.054432 1_555
O6 Sr0 2.540175 1_555
O6 Sr1 3.014352 1_554
O7 Sb1 2.073969 1_655
O7 Sr0 2.833691 1_555
O8 Sb0 2.066022 1_565
O8 Sr0 2.636269 1_555
O9 Sb1 2.057248 1_555
O9 Sr0 2.519036 1_555
O10 Sb0 2.066022 1_556
O10 Sr1 2.636269 1_555
O11 Sb1 2.057248 1_655
O11 Sr1 2.519036 1_555
