# generated using pymatgen
data_LaZrNO2
_symmetry_space_group_name_H-M   'P 1'
_cell_length_a   5.80212100
_cell_length_b   5.88270300
_cell_length_c   8.42615800
_cell_angle_alpha   90.00000000
_cell_angle_beta   90.00000000
_cell_angle_gamma   90.00000000
_symmetry_Int_Tables_number   1
_chemical_formula_structural   LaZrNO2
_chemical_formula_sum   'La4 Zr4 N4 O8'
_cell_volume   287.60292765
_cell_formula_units_Z   4
loop_
 _symmetry_equiv_pos_site_id
 _symmetry_equiv_pos_as_xyz
  1  'x, y, z'
loop_
 _atom_site_type_symbol
 _atom_site_label
 _atom_site_symmetry_multiplicity
 _atom_site_fract_x
 _atom_site_fract_y
 _atom_site_fract_z
 _atom_site_occupancy
  La  La0  1  0.49258600  0.54041400  0.25000000  1
  La  La1  1  0.00741400  0.04041400  0.25000000  1
  La  La2  1  0.50741400  0.45958600  0.75000000  1
  La  La3  1  0.99258600  0.95958600  0.75000000  1
  Zr  Zr0  1  0.50000000  0.00000000  0.00000000  1
  Zr  Zr1  1  0.00000000  0.50000000  0.50000000  1
  Zr  Zr2  1  0.50000000  0.00000000  0.50000000  1
  Zr  Zr3  1  0.00000000  0.50000000  0.00000000  1
  N  N0  1  0.40727500  0.96619900  0.25000000  1
  N  N1  1  0.09272500  0.46619900  0.25000000  1
  N  N2  1  0.59272500  0.03380100  0.75000000  1
  N  N3  1  0.90727500  0.53380100  0.75000000  1
  O  O0  1  0.80852700  0.80854000  0.04504500  1
  O  O1  1  0.69147300  0.30854000  0.45495500  1
  O  O2  1  0.19147300  0.19146000  0.54504500  1
  O  O3  1  0.30852700  0.69146000  0.95495500  1
  O  O4  1  0.19147300  0.19146000  0.95495500  1
  O  O5  1  0.30852700  0.69146000  0.54504500  1
  O  O6  1  0.80852700  0.80854000  0.45495500  1
  O  O7  1  0.69147300  0.30854000  0.04504500  1
loop_
_geom_bond_atom_site_label_1
_geom_bond_atom_site_label_2
_geom_bond_distance
_geom_bond_site_symmetry_2
La0 N1 2.360763 1_555
La0 O1 2.484901 1_555
La0 O7 2.484901 1_555
La0 N0 2.553207 1_555
La0 O5 2.847927 1_555
La0 O3 2.847927 1_554
La0 O0 2.971653 1_555
La0 O6 2.971653 1_555
La1 N0 2.360763 1_545
La1 O6 2.484901 1_445
La1 O0 2.484901 1_445
La1 N1 2.553207 1_555
La1 O2 2.847927 1_555
La1 O4 2.847927 1_554
La1 O1 2.971653 1_455
La1 O7 2.971653 1_455
La2 N3 2.360763 1_555
La2 O5 2.484901 1_555
La2 O3 2.484901 1_555
La2 N2 2.553207 1_555
La2 O7 2.847927 1_556
La2 O1 2.847927 1_555
La2 O2 2.971653 1_555
La2 O4 2.971653 1_555
La3 N2 2.360763 1_565
La3 O2 2.484901 1_665
La3 O4 2.484901 1_665
La3 N3 2.553207 1_555
La3 O6 2.847927 1_555
La3 O0 2.847927 1_556
La3 O5 2.971653 1_655
La3 O3 2.971653 1_655
N0 Zr0 2.183230 1_565
N0 Zr2 2.183230 1_565
N1 Zr1 2.183230 1_555
N1 Zr3 2.183230 1_555
N2 Zr2 2.183230 1_555
N2 Zr0 2.183230 1_556
N3 Zr3 2.183230 1_656
N3 Zr1 2.183230 1_655
O0 Zr0 2.148748 1_565
O0 Zr3 2.161637 1_655
O1 Zr1 2.148748 1_655
O1 Zr2 2.161637 1_555
O2 Zr2 2.148748 1_555
O2 Zr1 2.161637 1_555
O3 Zr3 2.148748 1_556
O3 Zr0 2.161637 1_566
O4 Zr0 2.148748 1_556
O4 Zr3 2.161637 1_556
O5 Zr1 2.148748 1_555
O5 Zr2 2.161637 1_565
O6 Zr2 2.148748 1_565
O6 Zr1 2.161637 1_655
O7 Zr3 2.148748 1_655
O7 Zr0 2.161637 1_555
