# generated using pymatgen
data_Sn(CO)4
_symmetry_space_group_name_H-M   'P 1'
_cell_length_a   12.49342707
_cell_length_b   12.49342707
_cell_length_c   12.49342707
_cell_angle_alpha   157.55649835
_cell_angle_beta   116.49177289
_cell_angle_gamma   68.26429176
_symmetry_Int_Tables_number   1
_chemical_formula_structural   Sn(CO)4
_chemical_formula_sum   'Sn4 C16 O16'
_cell_volume   661.25997351
_cell_formula_units_Z   4
loop_
 _symmetry_equiv_pos_site_id
 _symmetry_equiv_pos_as_xyz
  1  'x, y, z'
loop_
 _atom_site_type_symbol
 _atom_site_label
 _atom_site_symmetry_multiplicity
 _atom_site_fract_x
 _atom_site_fract_y
 _atom_site_fract_z
 _atom_site_occupancy
  Sn  Sn0  1  0.77669600  0.93569600  0.88234700  1
  Sn  Sn1  1  0.22330400  0.10565100  0.15900000  1
  Sn  Sn2  1  0.05334900  0.43569600  0.65900000  1
  Sn  Sn3  1  0.94665100  0.60565100  0.38234700  1
  C  C0  1  0.68815900  0.24379000  0.31603900  1
  C  C1  1  0.31184100  0.62788100  0.55563200  1
  C  C2  1  0.92775100  0.74379000  0.05563200  1
  C  C3  1  0.07224900  0.12788100  0.81603900  1
  C  C4  1  0.61510700  0.50860900  0.28453800  1
  C  C5  1  0.38489300  0.66943100  0.89350200  1
  C  C6  1  0.22407100  0.00860900  0.39350200  1
  C  C7  1  0.77592900  0.16943100  0.78453800  1
  C  C8  1  0.66751700  0.38323700  0.53162600  1
  C  C9  1  0.33248300  0.86410900  0.71571900  1
  C  C10  1  0.85161100  0.88323700  0.21571900  1
  C  C11  1  0.14838900  0.36410900  0.03162600  1
  C  C12  1  0.54437700  0.33322800  0.01829200  1
  C  C13  1  0.45562300  0.47391500  0.78885100  1
  C  C14  1  0.31493600  0.83322800  0.28885100  1
  C  C15  1  0.68506400  0.97391500  0.51829200  1
  O  O0  1  0.65914900  0.03043200  0.04751200  1
  O  O1  1  0.34085100  0.38836300  0.37128300  1
  O  O2  1  0.98292000  0.53043200  0.87128300  1
  O  O3  1  0.01708000  0.88836300  0.54751200  1
  O  O4  1  0.77198800  0.46697000  0.54331100  1
  O  O5  1  0.22801200  0.77132300  0.69498200  1
  O  O6  1  0.92365900  0.96697000  0.19498200  1
  O  O7  1  0.07634100  0.27132300  0.04331100  1
  O  O8  1  0.70604300  0.35914700  0.16552500  1
  O  O9  1  0.29395700  0.45948200  0.65310400  1
  O  O10  1  0.19362200  0.85914700  0.15310400  1
  O  O11  1  0.80637800  0.95948200  0.66552500  1
  O  O12  1  0.61296300  0.71600900  0.53789200  1
  O  O13  1  0.38703700  0.92492900  0.10304600  1
  O  O14  1  0.17811800  0.21600900  0.60304600  1
  O  O15  1  0.82188200  0.42492900  0.03789200  1
loop_
_geom_bond_atom_site_label_1
_geom_bond_atom_site_label_2
_geom_bond_distance
_geom_bond_site_symmetry_2
C0 O0 1.261700 1_555
C0 O4 1.344868 1_555
C0 C8 1.403260 1_555
C1 O1 1.261704 1_555
C1 O5 1.344865 1_555
C1 C9 1.403264 1_555
C2 O2 1.261701 1_554
C2 O6 1.344875 1_555
C3 O3 1.261701 1_545
C3 O7 1.344875 1_556
C4 O12 1.263728 1_555
C4 O8 1.338595 1_555
C5 O13 1.263728 1_556
C5 O9 1.338595 1_555
C6 O14 1.263720 1_555
C6 O10 1.338595 1_545
C7 O15 1.263725 1_556
C7 O11 1.338595 1_545
C8 O4 1.837988 1_555
C9 O5 1.837997 1_555
C10 C2 1.403246 1_555
C10 O6 1.837977 1_555
C11 C3 1.403253 1_554
C11 O7 1.837988 1_555
C12 C4 1.409044 1_555
C12 O8 1.907013 1_555
C13 C5 1.409044 1_555
C13 O9 1.907013 1_555
C14 C6 1.409044 1_565
C14 O10 1.907013 1_555
C15 C7 1.409044 1_565
C15 O11 1.907013 1_555
O0 Sn0 2.171866 1_544
O1 Sn1 2.171866 1_555
O2 Sn2 2.171866 1_655
O3 Sn3 2.171866 1_455
O4 Sn0 2.533600 1_555
O5 Sn1 2.533600 1_566
O6 Sn2 2.533600 1_665
O7 Sn3 2.533600 1_455
O8 Sn0 2.452150 1_544
O9 Sn1 2.452150 1_555
O10 Sn2 2.452150 1_554
O11 Sn3 2.452150 1_555
O12 Sn0 2.169859 1_555
O13 Sn1 2.169859 1_565
O14 Sn2 2.169864 1_555
O15 Sn3 2.169862 1_555
