# generated using pymatgen
data_Sr2CoO4
_symmetry_space_group_name_H-M   'P 1'
_cell_length_a   5.51777107
_cell_length_b   6.79846381
_cell_length_c   10.34585301
_cell_angle_alpha   77.14449479
_cell_angle_beta   90.05695511
_cell_angle_gamma   89.99959996
_symmetry_Int_Tables_number   1
_chemical_formula_structural   Sr2CoO4
_chemical_formula_sum   'Sr8 Co4 O16'
_cell_volume   378.36929232
_cell_formula_units_Z   4
loop_
 _symmetry_equiv_pos_site_id
 _symmetry_equiv_pos_as_xyz
  1  'x, y, z'
loop_
 _atom_site_type_symbol
 _atom_site_label
 _atom_site_symmetry_multiplicity
 _atom_site_fract_x
 _atom_site_fract_y
 _atom_site_fract_z
 _atom_site_occupancy
  Sr  Sr0  1  0.99745000  0.46476100  0.81965000  1
  Sr  Sr1  1  0.50306200  0.21384100  0.06735800  1
  Sr  Sr2  1  0.00113200  0.95820900  0.32279700  1
  Sr  Sr3  1  0.49482700  0.71128300  0.57346400  1
  Sr  Sr4  1  0.50243300  0.79185100  0.92710100  1
  Sr  Sr5  1  0.00241000  0.53605000  0.18264900  1
  Sr  Sr6  1  0.49591300  0.28503600  0.43062500  1
  Sr  Sr7  1  0.99550500  0.03847400  0.67671600  1
  Co  Co0  1  0.49877600  0.24906700  0.75128400  1
  Co  Co1  1  0.99789500  0.50107800  0.49868100  1
  Co  Co2  1  0.99785800  0.99808900  0.00126600  1
  Co  Co3  1  0.49692200  0.75140800  0.24869200  1
  O  O0  1  0.00781600  0.76987900  0.92525600  1
  O  O1  1  0.50703100  0.52002400  0.17312000  1
  O  O2  1  0.99715500  0.25901700  0.41908400  1
  O  O3  1  0.49771200  0.01225400  0.66895900  1
  O  O4  1  0.49904300  0.49123400  0.83075400  1
  O  O5  1  0.00786300  0.23074600  0.07689500  1
  O  O6  1  0.50602800  0.97965400  0.32448300  1
  O  O7  1  0.99676100  0.73791100  0.58090800  1
  O  O8  1  0.26501300  0.13656200  0.86434100  1
  O  O9  1  0.75058700  0.87011600  0.13009600  1
  O  O10  1  0.26013300  0.62803700  0.36965300  1
  O  O11  1  0.72301100  0.36718800  0.63314500  1
  O  O12  1  0.22266900  0.38268200  0.61687600  1
  O  O13  1  0.76289800  0.12277900  0.88042700  1
  O  O14  1  0.25018200  0.87977500  0.11954800  1
  O  O15  1  0.76191600  0.61299400  0.38617200  1
loop_
_geom_bond_atom_site_label_1
_geom_bond_atom_site_label_2
_geom_bond_distance
_geom_bond_site_symmetry_2
Co0 O8 1.794929 1_555
Co0 O11 1.798856 1_555
Co0 O3 1.981824 1_555
Co0 O4 1.997208 1_555
Co0 O13 2.032695 1_555
Co0 O12 2.124509 1_555
Co1 O15 1.797800 1_555
Co1 O12 1.800111 1_655
Co1 O7 1.981335 1_555
Co1 O2 1.997333 1_555
Co1 O10 2.027764 1_655
Co1 O11 2.122519 1_555
Co2 O13 1.867491 1_564
Co2 O0 1.889842 1_654
Co2 O14 1.908270 1_655
Co2 O5 1.915126 1_665
Co2 O9 1.970433 1_555
Co2 O8 2.115827 1_664
Co3 O10 1.874260 1_555
Co3 O6 1.888536 1_555
Co3 O1 1.906906 1_555
Co3 O9 1.917977 1_555
Co3 O14 1.969224 1_555
Co3 O15 2.108739 1_555
O0 Sr0 2.551129 1_455
O0 Sr4 2.733549 1_555
O0 Sr5 2.781312 1_556
O0 Sr4 2.792896 1_455
O0 Sr7 2.803777 1_465
O1 Sr1 2.558159 1_555
O1 Sr5 2.738110 1_655
O1 Sr6 2.785653 1_555
O1 Sr5 2.789211 1_555
O1 Sr4 2.793027 1_554
O2 Sr2 2.466083 1_645
O2 Sr5 2.735256 1_655
O2 Sr7 2.752149 1_555
O2 Sr6 2.761880 1_655
O2 Sr6 2.775771 1_555
O3 Sr3 2.462229 1_545
O3 Sr6 2.735765 1_555
O3 Sr7 2.754733 1_555
O3 Sr4 2.756383 1_545
O3 Sr7 2.779174 1_455
O4 Sr4 2.465212 1_555
O4 Sr1 2.737640 1_556
O4 Sr3 2.748097 1_555
O4 Sr0 2.760152 1_555
O4 Sr0 2.777443 1_455
O5 Sr5 2.552784 1_555
O5 Sr1 2.737609 1_555
O5 Sr0 2.780845 1_454
O5 Sr1 2.790299 1_455
O5 Sr2 2.794510 1_545
O6 Sr6 2.556157 1_565
O6 Sr2 2.736037 1_655
O6 Sr1 2.779729 1_565
O6 Sr2 2.789954 1_555
O6 Sr3 2.806600 1_555
O7 Sr7 2.461544 1_565
O7 Sr0 2.740118 1_555
O7 Sr2 2.755907 1_655
O7 Sr3 2.756447 1_655
O7 Sr3 2.777577 1_555
O8 Sr1 2.626496 1_556
O8 Sr0 2.628953 1_455
O8 Sr4 2.636464 1_545
O8 Sr7 2.644696 1_455
O9 Sr2 2.601990 1_655
O9 Sr5 2.614070 1_655
O9 Sr4 2.657099 1_554
O9 Sr1 2.659054 1_565
O10 Sr5 2.586387 1_555
O10 Sr2 2.613471 1_555
O10 Sr6 2.621430 1_555
O10 Sr3 2.639902 1_555
O11 Sr6 2.605318 1_555
O11 Sr3 2.606640 1_555
O11 Sr7 2.647327 1_555
O11 Sr0 2.649538 1_555
O12 Sr0 2.604390 1_455
O12 Sr7 2.605246 1_455
O12 Sr6 2.646103 1_555
O12 Sr3 2.646209 1_555
O13 Sr1 2.591771 1_556
O13 Sr0 2.612829 1_555
O13 Sr4 2.622649 1_545
O13 Sr7 2.638277 1_555
O14 Sr4 2.606506 1_554
O14 Sr1 2.617712 1_565
O14 Sr5 2.660621 1_555
O14 Sr2 2.664423 1_555
O15 Sr6 2.623365 1_555
O15 Sr3 2.637215 1_555
O15 Sr5 2.638910 1_655
O15 Sr2 2.645230 1_655
