# generated using pymatgen
data_Na5CuS4(NO6)2
_symmetry_space_group_name_H-M   'P 1'
_cell_length_a   11.39338700
_cell_length_b   11.39338700
_cell_length_c   5.50696600
_cell_angle_alpha   90.00000000
_cell_angle_beta   90.00000000
_cell_angle_gamma   90.00000000
_symmetry_Int_Tables_number   1
_chemical_formula_structural   Na5CuS4(NO6)2
_chemical_formula_sum   'Na10 Cu2 S8 N4 O24'
_cell_volume   714.85522168
_cell_formula_units_Z   2
loop_
 _symmetry_equiv_pos_site_id
 _symmetry_equiv_pos_as_xyz
  1  'x, y, z'
loop_
 _atom_site_type_symbol
 _atom_site_label
 _atom_site_symmetry_multiplicity
 _atom_site_fract_x
 _atom_site_fract_y
 _atom_site_fract_z
 _atom_site_occupancy
  Na  Na0  1  0.50993400  0.23301700  0.74289500  1
  Na  Na1  1  0.49006600  0.76698300  0.74289500  1
  Na  Na2  1  0.23301700  0.49006600  0.25710500  1
  Na  Na3  1  0.76698300  0.50993400  0.25710500  1
  Na  Na4  1  0.80289900  0.27208700  0.78186200  1
  Na  Na5  1  0.19710100  0.72791300  0.78186200  1
  Na  Na6  1  0.27208700  0.19710100  0.21813800  1
  Na  Na7  1  0.72791300  0.80289900  0.21813800  1
  Na  Na8  1  0.00000000  0.50000000  0.78967400  1
  Na  Na9  1  0.50000000  0.00000000  0.21032600  1
  Cu  Cu0  1  0.00000000  0.00000000  0.50000000  1
  Cu  Cu1  1  0.00000000  0.00000000  0.00000000  1
  S  S0  1  0.86217300  0.90566400  0.75053600  1
  S  S1  1  0.13782700  0.09433600  0.75053600  1
  S  S2  1  0.90566400  0.13782700  0.24946400  1
  S  S3  1  0.09433600  0.86217300  0.24946400  1
  S  S4  1  0.69387200  0.97609000  0.72281300  1
  S  S5  1  0.30612800  0.02391000  0.72281300  1
  S  S6  1  0.97609000  0.30612800  0.27718700  1
  S  S7  1  0.02391000  0.69387200  0.27718700  1
  N  N0  1  0.29970500  0.39327300  0.74425000  1
  N  N1  1  0.70029500  0.60672700  0.74425000  1
  N  N2  1  0.39327300  0.70029500  0.25575000  1
  N  N3  1  0.60672700  0.29970500  0.25575000  1
  O  O0  1  0.69139900  0.10391100  0.76443300  1
  O  O1  1  0.30860100  0.89608900  0.76443300  1
  O  O2  1  0.10391100  0.30860100  0.23556700  1
  O  O3  1  0.89608900  0.69139900  0.23556700  1
  O  O4  1  0.64973200  0.94480400  0.47820800  1
  O  O5  1  0.35026800  0.05519600  0.47820800  1
  O  O6  1  0.94480400  0.35026800  0.52179200  1
  O  O7  1  0.05519600  0.64973200  0.52179200  1
  O  O8  1  0.62261500  0.91376000  0.91061700  1
  O  O9  1  0.37738500  0.08624000  0.91061700  1
  O  O10  1  0.91376000  0.37738500  0.08938300  1
  O  O11  1  0.08624000  0.62261500  0.08938300  1
  O  O12  1  0.34615400  0.35235400  0.55244800  1
  O  O13  1  0.65384600  0.64764600  0.55244800  1
  O  O14  1  0.35235400  0.65384600  0.44755200  1
  O  O15  1  0.64764600  0.34615400  0.44755200  1
  O  O16  1  0.34068800  0.36389600  0.94986900  1
  O  O17  1  0.65931200  0.63610400  0.94986900  1
  O  O18  1  0.36389600  0.65931200  0.05013100  1
  O  O19  1  0.63610400  0.34068800  0.05013100  1
  O  O20  1  0.21503600  0.46414800  0.72934400  1
  O  O21  1  0.78496400  0.53585200  0.72934400  1
  O  O22  1  0.46414800  0.78496400  0.27065600  1
  O  O23  1  0.53585200  0.21503600  0.27065600  1
loop_
_geom_bond_atom_site_label_1
_geom_bond_atom_site_label_2
_geom_bond_distance
_geom_bond_site_symmetry_2
Na0 O9 2.435222 1_555
Na0 O12 2.535862 1_555
Na0 O19 2.536524 1_556
Na0 O0 2.540145 1_555
Na0 O15 2.601664 1_555
Na0 O23 2.625321 1_555
Na0 O16 2.690905 1_555
Na1 O8 2.435222 1_555
Na1 O13 2.535862 1_555
Na1 O18 2.536524 1_556
Na1 O1 2.540145 1_555
Na1 O14 2.601664 1_555
Na1 O22 2.625321 1_555
Na1 O17 2.690905 1_555
Na2 O11 2.435222 1_555
Na2 O14 2.535862 1_555
Na2 O16 2.536524 1_554
Na2 O2 2.540145 1_555
Na2 O12 2.601664 1_555
Na2 O20 2.625321 1_555
Na2 O18 2.690905 1_555
Na3 O10 2.435222 1_555
Na3 O15 2.535862 1_555
Na3 O17 2.536524 1_554
Na3 O3 2.540145 1_555
Na3 O13 2.601664 1_555
Na3 O21 2.625321 1_555
Na3 O19 2.690905 1_555
Na4 O0 2.300967 1_555
Na4 O6 2.336362 1_555
Na4 O10 2.429532 1_556
Na4 O19 2.530775 1_556
Na4 O15 2.688938 1_555
Na4 S2 3.215860 1_556
Na5 O1 2.300967 1_555
Na5 O7 2.336362 1_555
Na5 O11 2.429532 1_556
Na5 O18 2.530775 1_556
Na5 O14 2.688938 1_555
Na5 S3 3.215860 1_556
Na6 O2 2.300967 1_555
Na6 O5 2.336362 1_555
Na6 O9 2.429532 1_554
Na6 O16 2.530775 1_554
Na6 O12 2.688938 1_555
Na6 S1 3.215860 1_554
Na7 O3 2.300967 1_555
Na7 O4 2.336362 1_555
Na7 O8 2.429532 1_554
Na7 O17 2.530775 1_554
Na7 O13 2.688938 1_555
Na7 S0 3.215860 1_554
Na8 O6 2.341372 1_455
Na8 O7 2.341372 1_555
Na8 O10 2.375111 1_456
Na8 O11 2.375111 1_556
Na8 O21 2.505928 1_455
Na8 O20 2.505928 1_555
Na9 O4 2.341372 1_545
Na9 O5 2.341372 1_555
Na9 O9 2.375111 1_554
Na9 O8 2.375111 1_544
Na9 O23 2.505928 1_555
Na9 O22 2.505928 1_545
Cu0 S2 2.350459 1_455
Cu0 S1 2.350459 1_555
Cu0 S0 2.350459 1_445
Cu0 S3 2.350459 1_545
Cu1 S1 2.346998 1_554
Cu1 S2 2.346998 1_455
Cu1 S0 2.346998 1_444
Cu1 S3 2.346998 1_545
S0 S4 2.084230 1_555
S1 S5 2.084230 1_555
S2 S6 2.084230 1_555
S3 S7 2.084230 1_555
N0 O20 1.260709 1_555
N0 O16 1.269741 1_555
N0 O12 1.270067 1_555
N1 O21 1.260709 1_555
N1 O17 1.269741 1_555
N1 O13 1.270067 1_555
N2 O22 1.260709 1_555
N2 O18 1.269741 1_555
N2 O14 1.270067 1_555
N3 O23 1.260709 1_555
N3 O19 1.269741 1_555
N3 O15 1.270067 1_555
O0 S4 1.474509 1_545
O1 S5 1.474509 1_565
O2 S6 1.474509 1_455
O3 S7 1.474509 1_655
O4 S4 1.481373 1_555
O5 S5 1.481373 1_555
O6 S6 1.481373 1_555
O7 S7 1.481373 1_555
O8 S4 1.494342 1_555
O9 S5 1.494342 1_555
O10 S6 1.494342 1_555
O11 S7 1.494342 1_555
