# generated using pymatgen
data_Sm2MnCoO6
_symmetry_space_group_name_H-M   'P 1'
_cell_length_a   5.38803227
_cell_length_b   5.64731900
_cell_length_c   7.70694552
_cell_angle_alpha   90.00000000
_cell_angle_beta   90.08559630
_cell_angle_gamma   90.00000000
_symmetry_Int_Tables_number   1
_chemical_formula_structural   Sm2MnCoO6
_chemical_formula_sum   'Sm4 Mn2 Co2 O12'
_cell_volume   234.50619090
_cell_formula_units_Z   2
loop_
 _symmetry_equiv_pos_site_id
 _symmetry_equiv_pos_as_xyz
  1  'x, y, z'
loop_
 _atom_site_type_symbol
 _atom_site_label
 _atom_site_symmetry_multiplicity
 _atom_site_fract_x
 _atom_site_fract_y
 _atom_site_fract_z
 _atom_site_occupancy
  Sm  Sm0  1  0.51644900  0.56519000  0.24950800  1
  Sm  Sm1  1  0.01644900  0.93481000  0.74950800  1
  Sm  Sm2  1  0.48355100  0.43481000  0.75049200  1
  Sm  Sm3  1  0.98355100  0.06519000  0.25049200  1
  Mn  Mn0  1  0.50000000  0.00000000  0.50000000  1
  Mn  Mn1  1  0.00000000  0.50000000  0.00000000  1
  Co  Co0  1  0.00000000  0.50000000  0.50000000  1
  Co  Co1  1  0.50000000  0.00000000  0.00000000  1
  O  O0  1  0.40433600  0.97282000  0.25691600  1
  O  O1  1  0.90433600  0.52718000  0.75691600  1
  O  O2  1  0.59566400  0.02718000  0.74308400  1
  O  O3  1  0.09566400  0.47282000  0.24308400  1
  O  O4  1  0.81034600  0.78883900  0.05092300  1
  O  O5  1  0.31034600  0.71116100  0.55092300  1
  O  O6  1  0.18965400  0.21116100  0.94907700  1
  O  O7  1  0.68965400  0.28883900  0.44907700  1
  O  O8  1  0.79206600  0.80634900  0.45202600  1
  O  O9  1  0.29206600  0.69365100  0.95202600  1
  O  O10  1  0.20793400  0.19365100  0.54797400  1
  O  O11  1  0.70793400  0.30634900  0.04797400  1
loop_
_geom_bond_atom_site_label_1
_geom_bond_atom_site_label_2
_geom_bond_distance
_geom_bond_site_symmetry_2
Mn0 O2 1.948362 1_555
Mn0 O0 1.948362 1_545
Mn0 O8 1.952135 1_545
Mn0 O10 1.952135 1_555
Mn0 O7 1.964721 1_555
Mn0 O5 1.964721 1_545
Mn1 O3 1.948362 1_555
Mn1 O1 1.948362 1_454
Mn1 O11 1.952135 1_455
Mn1 O9 1.952135 1_554
Mn1 O4 1.964721 1_455
Mn1 O6 1.964721 1_554
Co0 O1 2.052520 1_455
Co0 O3 2.052520 1_555
Co0 O5 2.090504 1_555
Co0 O7 2.090504 1_455
Co0 O10 2.093737 1_555
Co0 O8 2.093737 1_455
Co1 O0 2.052520 1_545
Co1 O2 2.052520 1_554
Co1 O4 2.090504 1_545
Co1 O6 2.090504 1_554
Co1 O11 2.093737 1_555
Co1 O9 2.093737 1_544
O0 Sm3 2.326894 1_465
O0 Sm0 2.380660 1_555
O1 Sm2 2.326894 1_555
O1 Sm1 2.380660 1_655
O2 Sm1 2.326894 1_645
O2 Sm2 2.380660 1_555
O3 Sm0 2.326894 1_555
O3 Sm3 2.380660 1_455
O4 Sm3 2.380734 1_565
O4 Sm0 2.540156 1_555
O4 Sm1 2.704943 1_654
O5 Sm2 2.380734 1_555
O5 Sm1 2.540156 1_555
O5 Sm0 2.704943 1_555
O6 Sm1 2.380734 1_545
O6 Sm2 2.540156 1_555
O6 Sm3 2.704943 1_456
O7 Sm0 2.380734 1_555
O7 Sm3 2.540156 1_555
O7 Sm2 2.704943 1_555
O8 Sm3 2.370327 1_565
O8 Sm0 2.547402 1_555
O8 Sm1 2.689985 1_655
O9 Sm2 2.370327 1_555
O9 Sm1 2.547402 1_555
O9 Sm0 2.689985 1_556
O10 Sm1 2.370327 1_545
O10 Sm2 2.547402 1_555
O10 Sm3 2.689985 1_455
O11 Sm0 2.370327 1_555
O11 Sm3 2.547402 1_555
O11 Sm2 2.689985 1_554
