# generated using pymatgen
data_CeCdCu
_symmetry_space_group_name_H-M   'P 1'
_cell_length_a   7.52072620
_cell_length_b   7.52072620
_cell_length_c   4.07549000
_cell_angle_alpha   90.00000000
_cell_angle_beta   90.00000000
_cell_angle_gamma   120.00000175
_symmetry_Int_Tables_number   1
_chemical_formula_structural   CeCdCu
_chemical_formula_sum   'Ce3 Cd3 Cu3'
_cell_volume   199.63193289
_cell_formula_units_Z   3
loop_
 _symmetry_equiv_pos_site_id
 _symmetry_equiv_pos_as_xyz
  1  'x, y, z'
loop_
 _atom_site_type_symbol
 _atom_site_label
 _atom_site_symmetry_multiplicity
 _atom_site_fract_x
 _atom_site_fract_y
 _atom_site_fract_z
 _atom_site_occupancy
  Ce  Ce0  1  0.41119600  0.41119600  0.50000000  1
  Ce  Ce1  1  0.58880400  0.00000000  0.50000000  1
  Ce  Ce2  1  0.00000000  0.58880400  0.50000000  1
  Cd  Cd0  1  0.75037500  0.75037500  0.00000000  1
  Cd  Cd1  1  0.24962500  0.00000000  0.00000000  1
  Cd  Cd2  1  0.00000000  0.24962500  0.00000000  1
  Cu  Cu0  1  0.66666700  0.33333300  0.00000000  1
  Cu  Cu1  1  0.33333300  0.66666700  0.00000000  1
  Cu  Cu2  1  0.00000000  0.00000000  0.50000000  1
loop_
_geom_bond_atom_site_label_1
_geom_bond_atom_site_label_2
_geom_bond_distance
_geom_bond_site_symmetry_2
Ce0 Cu0 3.051544 1_556
Ce0 Cu1 3.051544 1_555
Ce0 Cu0 3.051544 1_555
Ce0 Cu1 3.051544 1_556
Ce0 Cu2 3.092492 1_555
Ce1 Cu0 3.051538 1_555
Ce1 Cu0 3.051538 1_556
Ce1 Cu1 3.051540 1_546
Ce1 Cu1 3.051540 1_545
Ce1 Cu2 3.092493 1_655
Ce2 Cu1 3.051538 1_555
Ce2 Cu1 3.051538 1_556
Ce2 Cu0 3.051540 1_456
Ce2 Cu0 3.051540 1_455
Ce2 Cu2 3.092493 1_565
Cd0 Cu2 2.770720 1_665
Cd0 Cu2 2.770720 1_664
Cd0 Cu1 2.873875 1_555
Cd0 Cu0 2.873875 1_555
Cd0 Cd1 3.251685 1_665
Cd0 Cd2 3.251685 1_665
Cd0 Ce0 3.264867 1_554
Cd0 Ce0 3.264867 1_555
Cd0 Ce2 3.381520 1_654
Cd0 Ce1 3.381520 1_565
Cd0 Ce1 3.381520 1_564
Cd0 Ce2 3.381520 1_655
Cd1 Cu2 2.770720 1_554
Cd1 Cu2 2.770720 1_555
Cd1 Cu1 2.873868 1_545
Cd1 Cu0 2.873873 1_555
Cd1 Cd2 3.251685 1_555
Cd1 Ce1 3.264867 1_555
Cd1 Ce1 3.264867 1_554
Cd1 Ce2 3.381519 1_544
Cd1 Ce2 3.381519 1_545
Cd1 Ce0 3.381520 1_555
Cd1 Ce0 3.381520 1_554
Cd2 Cu2 2.770720 1_554
Cd2 Cu2 2.770720 1_555
Cd2 Cu0 2.873868 1_455
Cd2 Cu1 2.873873 1_555
Cd2 Ce2 3.264867 1_554
Cd2 Ce2 3.264867 1_555
Cd2 Ce1 3.381519 1_455
Cd2 Ce1 3.381519 1_454
Cd2 Ce0 3.381520 1_555
Cd2 Ce0 3.381520 1_554
