# generated using pymatgen
data_Sm2Ge6Au
_symmetry_space_group_name_H-M   'P 1'
_cell_length_a   4.18121500
_cell_length_b   4.17555600
_cell_length_c   11.34338670
_cell_angle_alpha   90.00000000
_cell_angle_beta   100.62043067
_cell_angle_gamma   90.00000000
_symmetry_Int_Tables_number   1
_chemical_formula_structural   Sm2Ge6Au
_chemical_formula_sum   'Sm2 Ge6 Au1'
_cell_volume   194.65048648
_cell_formula_units_Z   1
loop_
 _symmetry_equiv_pos_site_id
 _symmetry_equiv_pos_as_xyz
  1  'x, y, z'
loop_
 _atom_site_type_symbol
 _atom_site_label
 _atom_site_symmetry_multiplicity
 _atom_site_fract_x
 _atom_site_fract_y
 _atom_site_fract_z
 _atom_site_occupancy
  Sm  Sm0  1  0.77837500  0.50000000  0.55675100  1
  Sm  Sm1  1  0.11885000  0.50000000  0.23770100  1
  Ge  Ge0  1  0.49086600  0.50000000  0.98173200  1
  Ge  Ge1  1  0.37819900  0.50000000  0.75639900  1
  Ge  Ge2  1  0.99146600  0.00000000  0.98293100  1
  Ge  Ge3  1  0.87843500  0.00000000  0.75687000  1
  Ge  Ge4  1  0.67215700  0.00000000  0.34431300  1
  Ge  Ge5  1  0.23833900  0.00000000  0.47667800  1
  Au  Au0  1  0.56031200  0.00000000  0.12062500  1
loop_
_geom_bond_atom_site_label_1
_geom_bond_atom_site_label_2
_geom_bond_distance
_geom_bond_site_symmetry_2
Ge0 Ge1 2.512254 1_555
Ge0 Sm1 3.537641 1_656
Ge0 Sm1 3.537643 1_556
Ge1 Ge3 2.954569 1_455
Ge1 Ge3 2.954569 1_465
Ge1 Ge3 2.954572 1_555
Ge1 Ge3 2.954572 1_565
Ge1 Sm0 3.053723 1_555
Ge1 Sm0 3.053723 1_455
Ge2 Ge3 2.520370 1_555
Ge2 Sm1 3.525190 1_656
Ge2 Sm1 3.525190 1_646
Ge3 Sm0 3.055619 1_555
Ge3 Sm0 3.055619 1_545
Ge4 Ge5 2.558996 1_655
Ge4 Ge5 2.558999 1_555
Ge4 Sm0 3.157300 1_555
Ge4 Sm0 3.157300 1_545
Ge4 Sm1 3.184693 1_645
Ge4 Sm1 3.184693 1_655
Ge4 Sm1 3.184698 1_555
Ge4 Sm1 3.184698 1_545
Ge5 Sm0 3.086492 1_555
Ge5 Sm0 3.086492 1_545
Ge5 Sm0 3.086495 1_455
Ge5 Sm0 3.086495 1_445
Ge5 Sm1 3.384921 1_555
Ge5 Sm1 3.384921 1_545
Au0 Ge4 2.493913 1_555
Au0 Ge2 2.593711 1_454
Au0 Ge2 2.593718 1_554
Au0 Ge0 2.599376 1_544
Au0 Ge0 2.599376 1_554
Au0 Sm1 3.230052 1_555
Au0 Sm1 3.230052 1_545
Au0 Sm1 3.230052 1_655
Au0 Sm1 3.230052 1_645
