# generated using pymatgen
data_Sr3Ca5Mn8O21
_symmetry_space_group_name_H-M   'P 1'
_cell_length_a   11.12358686
_cell_length_b   15.64602906
_cell_length_c   11.04954106
_cell_angle_alpha   90.18698943
_cell_angle_beta   91.18093501
_cell_angle_gamma   90.37675374
_symmetry_Int_Tables_number   1
_chemical_formula_structural   Sr3Ca5Mn8O21
_chemical_formula_sum   'Sr12 Ca20 Mn32 O84'
_cell_volume   1922.60057622
_cell_formula_units_Z   4
loop_
 _symmetry_equiv_pos_site_id
 _symmetry_equiv_pos_as_xyz
  1  'x, y, z'
loop_
 _atom_site_type_symbol
 _atom_site_label
 _atom_site_symmetry_multiplicity
 _atom_site_fract_x
 _atom_site_fract_y
 _atom_site_fract_z
 _atom_site_occupancy
  Sr  Sr0  1  0.99826035  0.11420192  0.50100569  1
  Sr  Sr1  1  0.99800003  0.11477676  0.00092867  1
  Sr  Sr2  1  0.00262780  0.62325970  0.50555445  1
  Sr  Sr3  1  0.50831398  0.38599322  0.98950307  1
  Sr  Sr4  1  0.50326185  0.38124408  0.50956587  1
  Sr  Sr5  1  0.51285576  0.86500558  0.99212339  1
  Sr  Sr6  1  0.23520168  0.38491757  0.24519577  1
  Sr  Sr7  1  0.24154463  0.39404160  0.76391903  1
  Sr  Sr8  1  0.23748390  0.88075799  0.26070177  1
  Sr  Sr9  1  0.23235772  0.11636748  0.24627366  1
  Sr  Sr10  1  0.22840966  0.11330037  0.75037823  1
  Sr  Sr11  1  0.23847712  0.62337684  0.26268384  1
  Ca  Ca0  1  0.01217417  0.61912302  0.98802606  1
  Ca  Ca1  1  0.54386104  0.12623362  0.48012271  1
  Ca  Ca2  1  0.54407012  0.12929858  0.98708469  1
  Ca  Ca3  1  0.52904618  0.63075479  0.51175895  1
  Ca  Ca4  1  0.53392934  0.62267710  0.97416642  1
  Ca  Ca5  1  0.49143414  0.86622222  0.51231918  1
  Ca  Ca6  1  0.96340356  0.38668638  0.00084851  1
  Ca  Ca7  1  0.96016581  0.38719593  0.49892569  1
  Ca  Ca8  1  0.96072663  0.88128049  0.99877150  1
  Ca  Ca9  1  0.96863270  0.87175710  0.51063591  1
  Ca  Ca10  1  0.21540851  0.87068950  0.73338853  1
  Ca  Ca11  1  0.77172390  0.38174488  0.25651872  1
  Ca  Ca12  1  0.74907251  0.39019658  0.75395645  1
  Ca  Ca13  1  0.77301762  0.87301353  0.25838687  1
  Ca  Ca14  1  0.74331675  0.86545681  0.75276838  1
  Ca  Ca15  1  0.27233959  0.62647795  0.73900404  1
  Ca  Ca16  1  0.77900620  0.11791141  0.25058342  1
  Ca  Ca17  1  0.77830569  0.11955484  0.75178437  1
  Ca  Ca18  1  0.77557900  0.62016731  0.24844331  1
  Ca  Ca19  1  0.76861913  0.62298265  0.75529028  1
  Mn  Mn0  1  0.99513177  0.99460505  0.25390506  1
  Mn  Mn1  1  0.99082760  0.99137069  0.75224442  1
  Mn  Mn2  1  0.99980657  0.50091466  0.24699698  1
  Mn  Mn3  1  0.99795273  0.50084022  0.75222720  1
  Mn  Mn4  1  0.51320051  0.98653518  0.23507365  1
  Mn  Mn5  1  0.50879316  0.99011432  0.73260540  1
  Mn  Mn6  1  0.50924082  0.49119896  0.24099056  1
  Mn  Mn7  1  0.50037572  0.50419283  0.74706620  1
  Mn  Mn8  1  0.24367461  0.99406229  0.01286453  1
  Mn  Mn9  1  0.24231935  0.99760708  0.51576112  1
  Mn  Mn10  1  0.25254933  0.51146444  0.00440771  1
  Mn  Mn11  1  0.23724340  0.49578969  0.51136680  1
  Mn  Mn12  1  0.74540220  0.00119407  0.99637442  1
  Mn  Mn13  1  0.74359211  0.99729921  0.49660050  1
  Mn  Mn14  1  0.75216707  0.50423786  0.99963030  1
  Mn  Mn15  1  0.74400350  0.50384931  0.50180012  1
  Mn  Mn16  1  0.26651956  0.24004676  0.96271719  1
  Mn  Mn17  1  0.26681297  0.24413465  0.46435460  1
  Mn  Mn18  1  0.25809753  0.75135462  0.96882057  1
  Mn  Mn19  1  0.24872127  0.75040626  0.50224370  1
  Mn  Mn20  1  0.75502946  0.24985629  0.00401829  1
  Mn  Mn21  1  0.75391982  0.24906375  0.50554922  1
  Mn  Mn22  1  0.75614698  0.74678697  -0.00005755  1
  Mn  Mn23  1  0.74951776  0.74733163  0.50482920  1
  Mn  Mn24  1  0.98973210  0.25238043  0.25994099  1
  Mn  Mn25  1  0.98858599  0.25666887  0.76197052  1
  Mn  Mn26  1  0.99267061  0.74996998  0.26169616  1
  Mn  Mn27  1  0.99579768  0.74909804  0.74943680  1
  Mn  Mn28  1  0.52383683  0.25549965  0.25751279  1
  Mn  Mn29  1  0.52308474  0.25255384  0.75497752  1
  Mn  Mn30  1  0.52319463  0.75292765  0.26732430  1
  Mn  Mn31  1  0.50384536  0.74768872  0.74775940  1
  O  O0  1  0.09861374  0.77053205  0.60782942  1
  O  O1  1  0.58910739  0.25457570  0.10082186  1
  O  O2  1  0.58889795  0.24666525  0.59859736  1
  O  O3  1  0.59832340  0.74980413  0.11338553  1
  O  O4  1  0.60139831  0.76124278  0.60354274  1
  O  O5  1  0.40611438  0.20270795  0.35443752  1
  O  O6  1  0.40576585  0.20741250  0.86192825  1
  O  O7  1  0.40394466  0.71375710  0.37035238  1
  O  O8  1  0.40909736  0.73064772  0.89752633  1
  O  O9  1  0.89742619  0.24378562  0.41202174  1
  O  O10  1  0.89875891  0.24251482  0.91345912  1
  O  O11  1  0.88419575  0.73721761  0.39982948  1
  O  O12  1  0.89908607  0.73465511  0.90180178  1
  O  O13  1  0.14964443  0.24823067  0.32350039  1
  O  O14  1  0.15071303  0.25018379  0.83116652  1
  O  O15  1  0.14635660  0.74785380  0.34857795  1
  O  O16  1  0.14505715  0.73772128  0.84269634  1
  O  O17  1  0.65650654  0.21999258  0.35220107  1
  O  O18  1  0.65741438  0.22189727  0.85629766  1
  O  O19  1  0.65289367  0.71526434  0.35905846  1
  O  O20  1  0.65040557  0.72987054  0.85612689  1
  O  O21  1  0.35484330  0.76317201  0.64767028  1
  O  O22  1  0.85462251  0.27131178  0.14754389  1
  O  O23  1  0.85485498  0.27736494  0.64850587  1
  O  O24  1  0.86674407  0.77153302  0.13848293  1
  O  O25  1  0.85207015  0.76942409  0.64470558  1
  O  O26  1  0.36478802  0.51326217  0.15507346  1
  O  O27  1  0.36326569  0.49559660  0.63274442  1
  O  O28  1  0.36271508  0.00448267  0.15478872  1
  O  O29  1  0.35181350  0.99322891  0.66356735  1
  O  O30  1  0.86058536  0.48482931  0.13818339  1
  O  O31  1  0.85923136  0.48257416  0.63869625  1
  O  O32  1  0.85529029  0.98225310  0.13806852  1
  O  O33  1  0.84642037  0.97720242  0.63908119  1
  O  O34  1  0.14405958  0.00724409  0.36998877  1
  O  O35  1  0.14718758  0.99609894  0.86773580  1
  O  O36  1  0.13922372  0.50464561  0.36237008  1
  O  O37  1  0.14549988  0.52401005  0.85915669  1
  O  O38  1  0.63193675  0.02556731  0.34672361  1
  O  O39  1  0.62417792  0.02981790  0.84772862  1
  O  O40  1  0.61312754  0.52394166  0.37018364  1
  O  O41  1  0.64164166  0.51652707  0.85910074  1
  O  O42  1  0.39060755  0.51592087  0.89231274  1
  O  O43  1  0.87919444  0.00995854  0.38456214  1
  O  O44  1  0.88017185  0.01077337  0.88639397  1
  O  O45  1  0.87472213  0.51219018  0.38211088  1
  O  O46  1  0.88922057  0.51388586  0.89316880  1
  O  O47  1  0.11189669  0.48418531  0.10413917  1
  O  O48  1  0.09867860  0.47675298  0.61650218  1
  O  O49  1  0.10156543  0.97929430  0.12148914  1
  O  O50  1  0.09746820  0.97883720  0.61999449  1
  O  O51  1  0.61555037  0.49935078  0.10850809  1
  O  O52  1  0.61261598  0.49201741  0.61709021  1
  O  O53  1  0.60017904  0.99932739  0.08910379  1
  O  O54  1  0.58983049  0.99614587  0.58134743  1
  O  O55  1  0.99326946  0.37670572  0.27755878  1
  O  O56  1  0.00166646  0.37975018  0.79107106  1
  O  O57  1  0.99318156  0.87260289  0.28822551  1
  O  O58  1  0.99600018  0.86951263  0.78900329  1
  O  O59  1  0.47144961  0.37469825  0.27826018  1
  O  O60  1  0.49410593  0.37407765  0.76013854  1
  O  O61  1  0.48149622  0.87399413  0.29062280  1
  O  O62  1  0.51959934  0.87187269  0.77239022  1
  O  O63  1  0.49323031  0.62686437  0.72191907  1
  O  O64  1  0.99491107  0.12769936  0.22873923  1
  O  O65  1  0.99476788  0.13108951  0.73008089  1
  O  O66  1  0.99949798  0.62790345  0.21890246  1
  O  O67  1  0.98370592  0.62435516  0.72678954  1
  O  O68  1  0.23909911  0.12590637  0.01659133  1
  O  O69  1  0.24322932  0.12629101  0.52733986  1
  O  O70  1  0.22715613  0.64920700  0.04359866  1
  O  O71  1  0.23753954  0.62342582  0.52158650  1
  O  O72  1  0.75440881  0.12606762  0.03693497  1
  O  O73  1  0.75491800  0.12278755  0.53692138  1
  O  O74  1  0.75239537  0.62599013  0.03371040  1
  O  O75  1  0.74868590  0.62636284  0.54229694  1
  O  O76  1  0.27360205  0.36891738  0.48965680  1
  O  O77  1  0.28235969  0.35379488  0.00694036  1
  O  O78  1  0.28198770  0.87918026  0.48156203  1
  O  O79  1  0.27890969  0.86959352  0.00561323  1
  O  O80  1  0.73900981  0.37623650  0.46897736  1
  O  O81  1  0.74553090  0.37635278  0.97033740  1
  O  O82  1  0.73783710  0.87264796  0.46509596  1
  O  O83  1  0.74421115  0.87373009  0.96914450  1
loop_
_geom_bond_atom_site_label_1
_geom_bond_atom_site_label_2
_geom_bond_distance
_geom_bond_site_symmetry_2
Ca0 O46 2.362260 1_455
Ca0 O12 2.397783 1_455
Ca0 O70 2.498009 1_556
Ca0 O37 2.558104 1_555
Ca0 O66 2.561162 1_456
Ca0 O47 2.706236 1_556
Ca0 O16 2.878889 1_555
Ca0 O67 2.898848 1_455
Ca0 O74 2.946255 1_456
Ca1 O2 2.336588 1_555
Ca1 O5 2.378091 1_555
Ca1 O54 2.379104 1_545
Ca1 O38 2.382834 1_555
Ca1 O17 2.404641 1_555
Ca1 O73 2.418612 1_555
Ca2 O1 2.370103 1_556
Ca2 O39 2.376312 1_555
Ca2 O6 2.391869 1_555
Ca2 O72 2.393506 1_556
Ca2 O53 2.407940 1_546
Ca2 O18 2.416981 1_555
Ca3 O63 2.365091 1_555
Ca3 O4 2.403270 1_555
Ca3 O7 2.451881 1_555
Ca3 O75 2.460913 1_555
Ca3 O40 2.485687 1_555
Ca3 O19 2.565049 1_555
Ca3 O52 2.632308 1_555
Ca4 O8 2.343241 1_555
Ca4 O41 2.426025 1_555
Ca4 O42 2.458716 1_555
Ca4 O20 2.499603 1_555
Ca4 O74 2.504654 1_556
Ca4 O51 2.595614 1_556
Ca4 O3 2.598382 1_556
Ca4 O63 2.815564 1_555
Ca5 O4 2.279579 1_555
Ca5 O78 2.357663 1_555
Ca5 O54 2.416231 1_555
Ca5 O61 2.453308 1_555
Ca5 O21 2.687382 1_555
Ca5 O82 2.801874 1_555
Ca6 O56 2.367579 1_654
Ca6 O81 2.444195 1_554
Ca6 O30 2.459302 1_555
Ca6 O46 2.460472 1_554
Ca6 O47 2.497162 1_655
Ca6 O10 2.544318 1_554
Ca6 O22 2.724217 1_555
Ca7 O48 2.429482 1_655
Ca7 O31 2.439497 1_555
Ca7 O80 2.480175 1_555
Ca7 O55 2.486114 1_555
Ca7 O9 2.526162 1_555
Ca7 O45 2.526726 1_555
Ca7 O23 2.669984 1_555
Ca8 O58 2.365565 1_555
Ca8 O83 2.425935 1_555
Ca8 O32 2.514619 1_556
Ca8 O44 2.538523 1_565
Ca8 O24 2.546518 1_556
Ca8 O49 2.551857 1_656
Ca8 O12 2.610381 1_555
Ca9 O0 2.393615 1_655
Ca9 O57 2.478313 1_555
Ca9 O50 2.490918 1_655
Ca9 O25 2.550807 1_555
Ca9 O33 2.584175 1_555
Ca9 O11 2.592696 1_555
Ca9 O82 2.606064 1_555
Ca9 O43 2.756223 1_565
Ca10 O0 2.439896 1_555
Ca10 O50 2.475770 1_555
Ca10 O21 2.493406 1_555
Ca10 O58 2.529000 1_455
Ca10 O16 2.536395 1_555
Ca10 O29 2.567675 1_555
Ca10 O35 2.583914 1_555
Ca10 O79 3.075706 1_556
Ca11 O30 2.309575 1_555
Ca11 O22 2.310585 1_555
Ca11 O80 2.384755 1_555
Ca11 O55 2.472347 1_555
Ca11 O45 2.699846 1_555
Ca11 O51 3.003832 1_555
Ca12 O31 2.294681 1_555
Ca12 O81 2.402513 1_555
Ca12 O23 2.434985 1_555
Ca12 O41 2.599609 1_555
Ca12 O52 2.661185 1_555
Ca12 O56 2.837001 1_655
Ca12 O60 2.847923 1_555
Ca12 O46 2.895463 1_555
Ca12 O18 3.046926 1_555
Ca13 O82 2.325277 1_555
Ca13 O24 2.329862 1_555
Ca13 O32 2.360225 1_555
Ca13 O57 2.464416 1_555
Ca13 O43 2.794447 1_565
Ca13 O11 2.909085 1_555
Ca14 O25 2.284407 1_555
Ca14 O83 2.393749 1_555
Ca14 O33 2.448984 1_555
Ca14 O62 2.505055 1_555
Ca14 O20 2.628376 1_555
Ca14 O4 2.776842 1_555
Ca14 O58 2.831206 1_555
Ca15 O71 2.425728 1_555
Ca15 O63 2.468184 1_555
Ca15 O37 2.526843 1_555
Ca15 O16 2.536336 1_555
Ca15 O21 2.541907 1_555
Ca15 O27 2.579808 1_555
Ca15 O42 2.747661 1_555
Ca15 O8 2.806702 1_555
Ca16 O72 2.374855 1_555
Ca16 O17 2.397590 1_555
Ca16 O64 2.422575 1_555
Ca16 O38 2.437798 1_555
Ca16 O43 2.501900 1_555
Ca16 O32 2.611646 1_545
Ca16 O22 2.791959 1_555
Ca16 O9 2.939716 1_555
Ca17 O73 2.383750 1_555
Ca17 O18 2.405458 1_555
Ca17 O65 2.430252 1_555
Ca17 O39 2.467289 1_555
Ca17 O44 2.522984 1_555
Ca17 O33 2.669929 1_545
Ca17 O23 2.855627 1_555
Ca17 O10 2.921086 1_555
Ca18 O19 2.377752 1_555
Ca18 O74 2.383487 1_555
Ca18 O45 2.495079 1_555
Ca18 O66 2.520912 1_555
Ca18 O30 2.630440 1_555
Ca18 O40 2.723823 1_555
Ca18 O11 2.734845 1_555
Ca18 O24 2.855051 1_555
Ca18 O51 2.992653 1_555
Ca19 O75 2.360144 1_555
Ca19 O20 2.417546 1_555
Ca19 O67 2.419565 1_555
Ca19 O41 2.476551 1_555
Ca19 O46 2.645217 1_555
Ca19 O31 2.750624 1_555
Ca19 O12 2.762446 1_555
Ca19 O25 2.764333 1_555
Mn0 O49 1.916421 1_655
Mn0 O57 1.947436 1_555
Mn0 O43 1.970711 1_565
Mn0 O32 2.001915 1_555
Mn0 O34 2.082105 1_665
Mn0 O64 2.101791 1_565
Mn1 O50 1.911446 1_655
Mn1 O58 1.951646 1_555
Mn1 O44 1.970181 1_565
Mn1 O33 2.025746 1_555
Mn1 O35 2.136652 1_655
Mn1 O65 2.200764 1_565
Mn2 O30 1.955350 1_555
Mn2 O55 1.974709 1_555
Mn2 O36 1.987572 1_655
Mn2 O66 2.011990 1_555
Mn2 O47 2.048794 1_655
Mn2 O45 2.069566 1_555
Mn3 O48 1.928114 1_655
Mn3 O56 1.944469 1_655
Mn3 O67 1.960735 1_555
Mn3 O31 1.987089 1_555
Mn3 O46 2.002162 1_555
Mn3 O37 2.032381 1_655
Mn4 O38 1.885914 1_565
Mn4 O61 1.899846 1_555
Mn4 O28 1.901180 1_565
Mn4 O53 1.908264 1_555
Mn5 O39 1.889031 1_565
Mn5 O29 1.892059 1_555
Mn5 O62 1.906908 1_555
Mn5 O54 1.917507 1_555
Mn6 O26 1.883849 1_555
Mn6 O40 1.885500 1_555
Mn6 O51 1.904779 1_555
Mn6 O59 1.915924 1_555
Mn7 O52 1.932079 1_555
Mn7 O63 1.942138 1_555
Mn7 O27 1.963836 1_555
Mn7 O41 1.988273 1_555
Mn7 O60 2.042209 1_555
Mn7 O42 2.045013 1_555
Mn8 O35 1.911633 1_554
Mn8 O79 1.990699 1_555
Mn8 O49 2.016934 1_555
Mn8 O28 2.036937 1_565
Mn8 O68 2.064096 1_565
Mn9 O34 1.934679 1_565
Mn9 O78 1.945207 1_555
Mn9 O69 2.016982 1_565
Mn9 O29 2.018734 1_555
Mn9 O50 2.020242 1_555
Mn10 O47 1.977309 1_555
Mn10 O37 1.989651 1_554
Mn10 O42 1.993722 1_554
Mn10 O26 2.060245 1_555
Mn10 O70 2.217843 1_555
Mn10 O77 2.491420 1_555
Mn11 O27 1.920006 1_555
Mn11 O36 1.961621 1_555
Mn11 O48 1.970788 1_555
Mn11 O71 1.999798 1_555
Mn11 O76 2.042787 1_555
Mn12 O53 1.930808 1_546
Mn12 O44 1.954469 1_555
Mn12 O32 1.990514 1_546
Mn12 O72 2.004494 1_556
Mn12 O83 2.015819 1_545
Mn12 O39 2.153610 1_555
Mn13 O33 1.954352 1_555
Mn13 O54 1.966805 1_555
Mn13 O43 1.980321 1_565
Mn13 O82 1.980390 1_555
Mn13 O73 2.014450 1_565
Mn13 O38 2.099522 1_565
Mn14 O74 1.940572 1_556
Mn14 O46 1.950083 1_555
Mn14 O30 1.955044 1_556
Mn14 O51 1.958825 1_556
Mn14 O41 1.971296 1_555
Mn14 O81 2.026483 1_555
Mn15 O52 1.966674 1_555
Mn15 O75 1.967076 1_555
Mn15 O45 1.989536 1_555
Mn15 O31 1.992671 1_555
Mn15 O80 2.028337 1_555
Mn15 O40 2.062750 1_555
Mn16 O77 1.850358 1_556
Mn16 O68 1.908899 1_556
Mn16 O14 1.929886 1_555
Mn16 O6 1.994471 1_555
Mn17 O76 1.972101 1_555
Mn17 O69 1.990543 1_555
Mn17 O13 2.010777 1_555
Mn17 O5 2.093298 1_555
Mn18 O70 1.835357 1_556
Mn18 O16 1.868437 1_555
Mn18 O8 1.899166 1_555
Mn18 O79 1.904426 1_556
Mn19 O21 1.982954 1_555
Mn19 O71 2.002224 1_555
Mn19 O15 2.024944 1_555
Mn19 O78 2.060404 1_555
Mn19 O0 2.081612 1_555
Mn19 O7 2.354828 1_555
Mn20 O10 1.907406 1_554
Mn20 O22 1.942743 1_555
Mn20 O72 1.971816 1_555
Mn20 O18 1.987624 1_554
Mn20 O81 2.018095 1_554
Mn20 O1 2.153750 1_555
Mn21 O9 1.921504 1_555
Mn21 O23 1.966624 1_555
Mn21 O73 2.007078 1_555
Mn21 O80 2.038806 1_555
Mn21 O17 2.040816 1_555
Mn21 O2 2.122539 1_555
Mn22 O74 1.928013 1_555
Mn22 O12 1.952884 1_554
Mn22 O20 1.973549 1_554
Mn22 O24 1.979647 1_555
Mn22 O83 2.020957 1_554
Mn22 O3 2.178736 1_555
Mn23 O11 1.920671 1_555
Mn23 O25 1.930863 1_555
Mn23 O75 1.938754 1_555
Mn23 O19 1.979284 1_555
Mn23 O4 2.007232 1_555
Mn23 O82 2.015095 1_555
Mn24 O13 1.900498 1_655
Mn24 O55 1.954339 1_555
Mn24 O22 1.954527 1_555
Mn24 O64 1.981304 1_555
Mn24 O9 1.991719 1_555
Mn25 O14 1.947649 1_655
Mn25 O23 1.954909 1_555
Mn25 O56 1.955341 1_655
Mn25 O10 1.979334 1_555
Mn25 O65 1.996912 1_555
Mn26 O57 1.939989 1_555
Mn26 O15 1.943845 1_655
Mn26 O24 1.964710 1_555
Mn26 O66 1.968350 1_555
Mn26 O11 1.974872 1_555
Mn27 O58 1.932657 1_555
Mn27 O16 1.945437 1_655
Mn27 O67 1.970263 1_555
Mn27 O25 1.982222 1_555
Mn27 O0 1.985169 1_655
Mn27 O12 2.028963 1_555
Mn28 O17 1.879389 1_555
Mn28 O1 1.891231 1_555
Mn28 O5 1.895617 1_555
Mn28 O59 1.971626 1_555
Mn29 O2 1.892659 1_555
Mn29 O6 1.911890 1_555
Mn29 O18 1.913147 1_555
Mn29 O60 1.931440 1_555
Mn30 O19 1.846867 1_555
Mn30 O7 1.867421 1_555
Mn30 O3 1.911181 1_555
Mn30 O61 1.970467 1_555
Mn31 O63 1.913455 1_555
Mn31 O4 1.957622 1_555
Mn31 O62 1.967252 1_555
Mn31 O21 1.990065 1_555
Mn31 O8 1.997873 1_555
Mn31 O20 2.024105 1_555
O0 Sr2 2.761790 1_555
O1 Sr3 2.558063 1_554
O2 Sr4 2.511994 1_555
O3 Sr5 2.435929 1_554
O5 Sr9 2.617043 1_555
O6 Sr10 2.725665 1_555
O7 Sr11 2.582116 1_555
O8 Sr5 2.597650 1_555
O9 Sr0 2.516528 1_555
O10 Sr1 2.478865 1_556
O11 Sr2 2.502066 1_655
O13 Sr9 2.424261 1_555
O13 Sr6 2.499451 1_555
O14 Sr10 2.484811 1_555
O14 Sr7 2.578964 1_555
O15 Sr11 2.407925 1_555
O15 Sr8 2.514034 1_555
O26 Sr11 2.538405 1_555
O26 Sr6 2.671331 1_555
O27 Sr7 2.554682 1_555
O27 Sr4 2.754410 1_555
O28 Sr9 2.504228 1_555
O28 Sr8 2.665319 1_545
O29 Sr10 2.531820 1_565
O32 Sr1 3.031808 1_565
O34 Sr9 2.407683 1_555
O34 Sr8 2.553004 1_545
O34 Sr0 2.764630 1_455
O35 Sr10 2.429495 1_565
O35 Sr1 2.913950 1_466
O36 Sr11 2.433036 1_555
O36 Sr6 2.528379 1_555
O36 Sr2 2.893604 1_555
O37 Sr7 2.538667 1_555
O40 Sr4 2.985689 1_555
O41 Sr3 2.917924 1_555
O42 Sr3 2.644121 1_555
O42 Sr7 2.870922 1_555
O43 Sr0 2.440779 1_555
O44 Sr1 2.420236 1_556
O45 Sr2 2.603212 1_655
O47 Sr6 2.584279 1_555
O47 Sr11 3.102804 1_555
O48 Sr7 2.605300 1_555
O48 Sr2 2.809873 1_555
O49 Sr8 2.641804 1_555
O49 Sr1 2.753620 1_465
O49 Sr9 2.911065 1_565
O50 Sr0 2.724176 1_465
O50 Sr10 2.911447 1_565
O51 Sr3 2.487958 1_554
O52 Sr4 2.407143 1_555
O53 Sr5 2.534582 1_554
O55 Sr6 2.724356 1_655
O56 Sr7 2.699158 1_555
O57 Sr8 2.742889 1_655
O59 Sr4 2.574582 1_555
O59 Sr6 2.651672 1_555
O60 Sr3 2.542203 1_555
O60 Sr4 2.775287 1_555
O60 Sr7 2.829887 1_555
O61 Sr8 2.730367 1_555
O62 Sr5 2.433356 1_555
O64 Sr1 2.525609 1_555
O64 Sr9 2.651511 1_655
O64 Sr0 3.015991 1_555
O65 Sr0 2.545191 1_555
O65 Sr10 2.620710 1_655
O65 Sr1 3.003934 1_556
O66 Sr11 2.693570 1_655
O67 Sr2 2.457923 1_655
O68 Sr9 2.545373 1_555
O68 Sr1 2.688367 1_455
O68 Sr10 2.947396 1_554
O69 Sr10 2.482273 1_555
O69 Sr0 2.739688 1_455
O69 Sr9 3.108848 1_555
O70 Sr11 2.456401 1_555
O71 Sr2 2.615397 1_555
O71 Sr11 2.860987 1_555
O72 Sr1 2.753496 1_555
O73 Sr0 2.747950 1_555
O75 Sr2 2.862746 1_655
O76 Sr4 2.565513 1_555
O76 Sr6 2.738571 1_555
O76 Sr7 3.082864 1_555
O77 Sr3 2.571410 1_554
O77 Sr6 2.737673 1_555
O77 Sr7 2.788887 1_554
O78 Sr8 2.480324 1_555
O79 Sr5 2.611094 1_554
O79 Sr8 2.870332 1_555
O80 Sr4 2.671145 1_555
O81 Sr3 2.656767 1_555
O83 Sr5 2.593946 1_555
