# generated using pymatgen
data_La3Gd(BrO)4
_symmetry_space_group_name_H-M   'P 1'
_cell_length_a   4.10789400
_cell_length_b   4.10789400
_cell_length_c   15.34292700
_cell_angle_alpha   90.00000000
_cell_angle_beta   90.00000000
_cell_angle_gamma   90.00000000
_symmetry_Int_Tables_number   1
_chemical_formula_structural   La3Gd(BrO)4
_chemical_formula_sum   'La3 Gd1 Br4 O4'
_cell_volume   258.90871891
_cell_formula_units_Z   1
loop_
 _symmetry_equiv_pos_site_id
 _symmetry_equiv_pos_as_xyz
  1  'x, y, z'
loop_
 _atom_site_type_symbol
 _atom_site_label
 _atom_site_symmetry_multiplicity
 _atom_site_fract_x
 _atom_site_fract_y
 _atom_site_fract_z
 _atom_site_occupancy
  La  La0  1  0.50000000  0.50000000  0.57918600  1
  La  La1  1  0.00000000  0.00000000  0.41979600  1
  La  La2  1  0.00000000  0.00000000  0.92282800  1
  Gd  Gd0  1  0.50000000  0.50000000  0.07412700  1
  Br  Br0  1  0.50000000  0.50000000  0.31902500  1
  Br  Br1  1  0.50000000  0.50000000  0.82158100  1
  Br  Br2  1  0.00000000  0.00000000  0.17696900  1
  Br  Br3  1  0.00000000  0.00000000  0.68127200  1
  O  O0  1  0.50000000  0.00000000  0.00257800  1
  O  O1  1  0.50000000  0.00000000  0.50003000  1
  O  O2  1  0.00000000  0.50000000  0.00257800  1
  O  O3  1  0.00000000  0.50000000  0.50003000  1
loop_
_geom_bond_atom_site_label_1
_geom_bond_atom_site_label_2
_geom_bond_distance
_geom_bond_site_symmetry_2
La0 O1 2.386142 1_555
La0 O1 2.386142 1_565
La0 O3 2.386142 1_555
La0 O3 2.386142 1_655
La1 O3 2.394602 1_555
La1 O1 2.394602 1_455
La1 O1 2.394602 1_555
La1 O3 2.394602 1_545
La2 O0 2.390793 1_456
La2 O2 2.390793 1_556
La2 O2 2.390793 1_546
La2 O0 2.390793 1_556
Gd0 O0 2.328905 1_555
Gd0 O2 2.328905 1_655
Gd0 O0 2.328905 1_565
Gd0 O2 2.328905 1_555
Br0 La1 3.290576 1_565
Br0 La1 3.290576 1_555
Br0 La1 3.290576 1_655
Br0 La1 3.290576 1_665
Br0 Gd0 3.757452 1_555
Br1 La2 3.294014 1_565
Br1 La2 3.294014 1_655
Br1 La2 3.294014 1_665
Br1 La2 3.294014 1_555
Br1 La0 3.719049 1_555
Br2 Gd0 3.305625 1_555
Br2 Gd0 3.305625 1_445
Br2 Gd0 3.305625 1_545
Br2 Gd0 3.305625 1_455
Br2 La1 3.725677 1_555
Br3 La0 3.300104 1_445
Br3 La0 3.300104 1_455
Br3 La0 3.300104 1_545
Br3 La0 3.300104 1_555
Br3 La2 3.706176 1_555
