# generated using pymatgen
data_Mg(BiO2)2
_symmetry_space_group_name_H-M   'P 1'
_cell_length_a   3.36026700
_cell_length_b   10.67186200
_cell_length_c   11.61922100
_cell_angle_alpha   90.00000000
_cell_angle_beta   90.00000000
_cell_angle_gamma   90.00000000
_symmetry_Int_Tables_number   1
_chemical_formula_structural   Mg(BiO2)2
_chemical_formula_sum   'Mg4 Bi8 O16'
_cell_volume   416.66881714
_cell_formula_units_Z   4
loop_
 _symmetry_equiv_pos_site_id
 _symmetry_equiv_pos_as_xyz
  1  'x, y, z'
loop_
 _atom_site_type_symbol
 _atom_site_label
 _atom_site_symmetry_multiplicity
 _atom_site_fract_x
 _atom_site_fract_y
 _atom_site_fract_z
 _atom_site_occupancy
  Mg  Mg0  1  0.25000000  0.21817800  0.85736400  1
  Mg  Mg1  1  0.75000000  0.78182200  0.14263600  1
  Mg  Mg2  1  0.25000000  0.71817800  0.64263600  1
  Mg  Mg3  1  0.75000000  0.28182200  0.35736400  1
  Bi  Bi0  1  0.75000000  0.41753100  0.62162600  1
  Bi  Bi1  1  0.25000000  0.08246900  0.12162600  1
  Bi  Bi2  1  0.75000000  0.91753100  0.87837400  1
  Bi  Bi3  1  0.25000000  0.58246900  0.37837400  1
  Bi  Bi4  1  0.25000000  0.60044900  0.89754400  1
  Bi  Bi5  1  0.75000000  0.39955100  0.10245600  1
  Bi  Bi6  1  0.25000000  0.10044900  0.60245600  1
  Bi  Bi7  1  0.75000000  0.89955100  0.39754400  1
  O  O0  1  0.75000000  0.96518400  0.58991300  1
  O  O1  1  0.25000000  0.03481600  0.41008700  1
  O  O2  1  0.75000000  0.46518400  0.91008700  1
  O  O3  1  0.25000000  0.53481600  0.08991300  1
  O  O4  1  0.75000000  0.96728600  0.20137700  1
  O  O5  1  0.25000000  0.03271400  0.79862300  1
  O  O6  1  0.75000000  0.46728600  0.29862300  1
  O  O7  1  0.25000000  0.53271400  0.70137700  1
  O  O8  1  0.75000000  0.69308100  0.52281800  1
  O  O9  1  0.25000000  0.30691900  0.47718200  1
  O  O10  1  0.75000000  0.19308100  0.97718200  1
  O  O11  1  0.25000000  0.80691900  0.02281800  1
  O  O12  1  0.25000000  0.74088200  0.26305600  1
  O  O13  1  0.75000000  0.25911800  0.73694400  1
  O  O14  1  0.75000000  0.75911800  0.76305600  1
  O  O15  1  0.25000000  0.24088200  0.23694400  1
loop_
_geom_bond_atom_site_label_1
_geom_bond_atom_site_label_2
_geom_bond_distance
_geom_bond_site_symmetry_2
Mg0 O5 2.093623 1_555
Mg0 O10 2.198359 1_455
Mg0 O10 2.198359 1_555
Mg0 O13 2.229677 1_455
Mg0 O13 2.229677 1_555
Mg1 O4 2.093623 1_555
Mg1 O11 2.198359 1_655
Mg1 O11 2.198359 1_555
Mg1 O12 2.229677 1_555
Mg1 O12 2.229677 1_655
Mg2 O7 2.093623 1_555
Mg2 O8 2.198359 1_555
Mg2 O8 2.198359 1_455
Mg2 O14 2.229677 1_555
Mg2 O14 2.229677 1_455
Mg3 O6 2.093623 1_555
Mg3 O9 2.198359 1_555
Mg3 O9 2.198359 1_655
Mg3 O15 2.229677 1_555
Mg3 O15 2.229677 1_655
Bi0 O13 2.157161 1_555
Bi0 O7 2.278704 1_655
Bi0 O7 2.278704 1_555
Bi0 O9 2.651991 1_555
Bi0 O9 2.651991 1_655
Bi1 O15 2.157161 1_555
Bi1 O4 2.278704 1_445
Bi1 O4 2.278704 1_545
Bi1 O10 2.651991 1_554
Bi1 O10 2.651991 1_454
Bi2 O14 2.157161 1_555
Bi2 O5 2.278704 1_565
Bi2 O5 2.278704 1_665
Bi2 O11 2.651991 1_656
Bi2 O11 2.651991 1_556
Bi3 O12 2.157161 1_555
Bi3 O6 2.278704 1_455
Bi3 O6 2.278704 1_555
Bi3 O8 2.651991 1_555
Bi3 O8 2.651991 1_455
Bi4 O2 2.219880 1_555
Bi4 O2 2.219880 1_455
Bi4 O3 2.342353 1_556
Bi4 O7 2.391186 1_555
Bi4 O11 2.640793 1_556
Bi5 O3 2.219880 1_555
Bi5 O3 2.219880 1_655
Bi5 O2 2.342353 1_554
Bi5 O6 2.391186 1_555
Bi5 O10 2.640793 1_554
Bi6 O0 2.219880 1_445
Bi6 O0 2.219880 1_545
Bi6 O1 2.342353 1_555
Bi6 O5 2.391186 1_555
Bi6 O9 2.640793 1_555
Bi7 O1 2.219880 1_565
Bi7 O1 2.219880 1_665
Bi7 O0 2.342353 1_555
Bi7 O4 2.391186 1_555
Bi7 O8 2.640793 1_555
