# generated using pymatgen
data_CaTiO2
_symmetry_space_group_name_H-M   'P 1'
_cell_length_a   3.02736843
_cell_length_b   8.33859761
_cell_length_c   8.38385360
_cell_angle_alpha   86.93629371
_cell_angle_beta   89.25788510
_cell_angle_gamma   100.08376608
_symmetry_Int_Tables_number   1
_chemical_formula_structural   CaTiO2
_chemical_formula_sum   'Ca4 Ti4 O8'
_cell_volume   208.02138775
_cell_formula_units_Z   4
loop_
 _symmetry_equiv_pos_site_id
 _symmetry_equiv_pos_as_xyz
  1  'x, y, z'
loop_
 _atom_site_type_symbol
 _atom_site_label
 _atom_site_symmetry_multiplicity
 _atom_site_fract_x
 _atom_site_fract_y
 _atom_site_fract_z
 _atom_site_occupancy
  Ca  Ca0  1  0.27529200  0.03203500  0.33789300  1
  Ca  Ca1  1  0.72079100  0.94790200  0.69031300  1
  Ca  Ca2  1  0.13905200  0.72892200  0.08372500  1
  Ca  Ca3  1  0.85696400  0.25100600  0.94448200  1
  Ti  Ti0  1  0.40663100  0.32596900  0.60715200  1
  Ti  Ti1  1  0.96593700  0.38773500  0.29163000  1
  Ti  Ti2  1  0.03003600  0.59218900  0.73655700  1
  Ti  Ti3  1  0.58936100  0.65392500  0.42102200  1
  O  O0  1  0.14267300  0.77953700  0.55401200  1
  O  O1  1  0.44921300  0.43618300  0.81801400  1
  O  O2  1  0.54676500  0.54372900  0.21020000  1
  O  O3  1  0.85334000  0.20034500  0.47417900  1
  O  O4  1  0.30327800  0.12511200  0.77485700  1
  O  O5  1  0.35924800  0.24827300  0.16709400  1
  O  O6  1  0.69277300  0.85478700  0.25336100  1
  O  O7  1  0.63692300  0.73168900  0.86112900  1
loop_
_geom_bond_atom_site_label_1
_geom_bond_atom_site_label_2
_geom_bond_distance
_geom_bond_site_symmetry_2
Ca0 O5 2.218205 1_555
Ca0 O6 2.242097 1_545
Ca0 O6 2.242387 1_445
Ca0 O3 2.380846 1_455
Ca0 O3 2.387637 1_555
Ca0 O0 2.674810 1_545
Ca1 O7 2.218142 1_555
Ca1 O4 2.241952 1_565
Ca1 O4 2.242188 1_665
Ca1 O0 2.381100 1_655
Ca1 O0 2.388060 1_555
Ca1 O3 2.674557 1_565
Ca2 O2 2.351648 1_455
Ca2 O6 2.353605 1_555
Ca2 O6 2.357085 1_455
Ca2 O2 2.357725 1_555
Ca2 O7 2.380211 1_554
Ca2 O7 2.423889 1_454
Ca3 O1 2.351484 1_655
Ca3 O4 2.353564 1_555
Ca3 O4 2.357236 1_655
Ca3 O1 2.357677 1_555
Ca3 O5 2.380064 1_556
Ca3 O5 2.424271 1_656
O0 Ti2 2.107937 1_555
O0 Ti3 2.169095 1_455
O0 Ti3 2.179615 1_555
O1 Ti0 2.030902 1_555
O1 Ti2 2.067506 1_555
O1 Ti2 2.079287 1_655
O2 Ti3 2.030529 1_555
O2 Ti1 2.067354 1_555
O2 Ti1 2.079188 1_455
O3 Ti1 2.108193 1_555
O3 Ti0 2.169010 1_655
O3 Ti0 2.179646 1_555
O4 Ti0 2.105547 1_555
O5 Ti1 2.107779 1_455
O5 Ti1 2.290718 1_555
O6 Ti3 2.105347 1_555
O7 Ti2 2.107757 1_655
O7 Ti2 2.291422 1_555
