# generated using pymatgen
data_Cs(SeO3)3
_symmetry_space_group_name_H-M   'P 1'
_cell_length_a   9.70596200
_cell_length_b   9.98203783
_cell_length_c   11.29973810
_cell_angle_alpha   106.63329280
_cell_angle_beta   90.00000000
_cell_angle_gamma   90.00000000
_symmetry_Int_Tables_number   1
_chemical_formula_structural   Cs(SeO3)3
_chemical_formula_sum   'Cs4 Se12 O36'
_cell_volume   1048.96883223
_cell_formula_units_Z   4
loop_
 _symmetry_equiv_pos_site_id
 _symmetry_equiv_pos_as_xyz
  1  'x, y, z'
loop_
 _atom_site_type_symbol
 _atom_site_label
 _atom_site_symmetry_multiplicity
 _atom_site_fract_x
 _atom_site_fract_y
 _atom_site_fract_z
 _atom_site_occupancy
  Cs  Cs0  1  0.76654600  0.22191100  0.51420200  1
  Cs  Cs1  1  0.26654600  0.77808900  0.98579800  1
  Cs  Cs2  1  0.23345400  0.77808900  0.48579800  1
  Cs  Cs3  1  0.73345400  0.22191100  0.01420200  1
  Se  Se0  1  0.73576400  0.78146300  0.96632300  1
  Se  Se1  1  0.23576400  0.21853700  0.53367700  1
  Se  Se2  1  0.26423600  0.21853700  0.03367700  1
  Se  Se3  1  0.76423600  0.78146300  0.46632300  1
  Se  Se4  1  0.95236800  0.47065500  0.28644700  1
  Se  Se5  1  0.45236800  0.52934500  0.21355300  1
  Se  Se6  1  0.04763200  0.52934500  0.71355300  1
  Se  Se7  1  0.54763200  0.47065500  0.78644700  1
  Se  Se8  1  0.46077400  0.08718100  0.30043700  1
  Se  Se9  1  0.96077400  0.91281900  0.19956300  1
  Se  Se10  1  0.53922600  0.91281900  0.69956300  1
  Se  Se11  1  0.03922600  0.08718100  0.80043700  1
  O  O0  1  0.68297600  0.60827400  0.91986500  1
  O  O1  1  0.18297600  0.39172600  0.58013500  1
  O  O2  1  0.31702400  0.39172600  0.08013500  1
  O  O3  1  0.81702400  0.60827400  0.41986500  1
  O  O4  1  0.88177600  0.76509300  0.05925100  1
  O  O5  1  0.38177600  0.23490700  0.44074900  1
  O  O6  1  0.11822400  0.23490700  0.94074900  1
  O  O7  1  0.61822400  0.76509300  0.55925100  1
  O  O8  1  0.62130400  0.88721300  0.05244900  1
  O  O9  1  0.12130400  0.11278700  0.44755100  1
  O  O10  1  0.37869600  0.11278700  0.94755100  1
  O  O11  1  0.87869600  0.88721300  0.55244900  1
  O  O12  1  0.10105600  0.50268700  0.35713000  1
  O  O13  1  0.60105600  0.49731300  0.14287000  1
  O  O14  1  0.89894400  0.49731300  0.64287000  1
  O  O15  1  0.39894400  0.50268700  0.85713000  1
  O  O16  1  0.87320300  0.32835000  0.29335700  1
  O  O17  1  0.37320300  0.67165000  0.20664300  1
  O  O18  1  0.12679700  0.67165000  0.70664300  1
  O  O19  1  0.62679700  0.32835000  0.79335700  1
  O  O20  1  0.93184900  0.51602900  0.16012000  1
  O  O21  1  0.43184900  0.48397100  0.33988000  1
  O  O22  1  0.06815100  0.48397100  0.83988000  1
  O  O23  1  0.56815100  0.51602900  0.66012000  1
  O  O24  1  0.33041500  0.04095200  0.20429200  1
  O  O25  1  0.83041500  0.95904800  0.29570800  1
  O  O26  1  0.66958500  0.95904800  0.79570800  1
  O  O27  1  0.16958500  0.04095200  0.70429200  1
  O  O28  1  0.57712300  0.18854100  0.26519400  1
  O  O29  1  0.07712300  0.81145900  0.23480600  1
  O  O30  1  0.42287700  0.81145900  0.73480600  1
  O  O31  1  0.92287700  0.18854100  0.76519400  1
  O  O32  1  0.51609500  0.97163900  0.36674900  1
  O  O33  1  0.01609500  0.02836100  0.13325100  1
  O  O34  1  0.48390500  0.02836100  0.63325100  1
  O  O35  1  0.98390500  0.97163900  0.86674900  1
loop_
_geom_bond_atom_site_label_1
_geom_bond_atom_site_label_2
_geom_bond_distance
_geom_bond_site_symmetry_2
Cs0 O14 3.005732 1_555
Cs0 O25 3.107418 1_545
Cs0 O16 3.153711 1_555
Cs0 O28 3.297217 1_555
Cs0 O31 3.316299 1_555
Cs0 O19 3.316640 1_555
Cs0 O23 3.503544 1_555
Cs0 O32 3.541668 1_545
Cs0 O9 3.624939 1_655
Cs0 O11 3.655182 1_545
Cs1 O15 3.005732 1_555
Cs1 O24 3.107418 1_566
Cs1 O17 3.153711 1_556
Cs1 O29 3.297217 1_556
Cs1 O30 3.316299 1_555
Cs1 O18 3.316640 1_555
Cs1 O22 3.503544 1_555
Cs1 O33 3.541668 1_566
Cs1 O8 3.624939 1_556
Cs1 O10 3.655182 1_565
Cs2 O12 3.005732 1_555
Cs2 O27 3.107418 1_565
Cs2 O18 3.153711 1_555
Cs2 O30 3.297217 1_555
Cs2 O29 3.316299 1_555
Cs2 O17 3.316640 1_555
Cs2 O21 3.503544 1_555
Cs2 O34 3.541668 1_565
Cs2 O11 3.624939 1_455
Cs2 O9 3.655182 1_565
Cs3 O13 3.005732 1_555
Cs3 O26 3.107418 1_544
Cs3 O19 3.153711 1_554
Cs3 O31 3.297217 1_554
Cs3 O28 3.316299 1_555
Cs3 O16 3.316640 1_555
Cs3 O20 3.503544 1_555
Cs3 O35 3.541668 1_544
Cs3 O10 3.624939 1_554
Cs3 O8 3.655182 1_545
O0 Se0 1.734132 1_555
O0 Se7 2.167938 1_555
O1 Se1 1.734132 1_555
O1 Se6 2.167938 1_555
O2 Se2 1.734132 1_555
O2 Se5 2.167938 1_555
O3 Se3 1.734132 1_555
O3 Se4 2.167938 1_555
O4 Se0 1.798884 1_554
O4 Se9 1.984359 1_555
O5 Se1 1.798884 1_555
O5 Se8 1.984359 1_555
O6 Se2 1.798884 1_556
O6 Se11 1.984359 1_555
O7 Se3 1.798884 1_555
O7 Se10 1.984359 1_555
O8 Se0 1.645444 1_554
O9 Se1 1.645444 1_555
O10 Se2 1.645444 1_556
O11 Se3 1.645444 1_555
O12 Se4 1.636052 1_455
O13 Se5 1.636052 1_555
O14 Se6 1.636052 1_655
O15 Se7 1.636052 1_555
O16 Se4 1.636396 1_555
O17 Se5 1.636396 1_555
O18 Se6 1.636396 1_555
O19 Se7 1.636396 1_555
O20 Se4 1.628676 1_555
O21 Se5 1.628676 1_555
O22 Se6 1.628676 1_555
O23 Se7 1.628676 1_555
O24 Se8 1.645330 1_555
O25 Se9 1.645330 1_555
O26 Se10 1.645330 1_555
O27 Se11 1.645330 1_555
O28 Se8 1.639583 1_555
O29 Se9 1.639583 1_455
O30 Se10 1.639583 1_555
O31 Se11 1.639583 1_655
O32 Se8 1.635459 1_565
O33 Se9 1.635459 1_445
O34 Se10 1.635459 1_545
O35 Se11 1.635459 1_665
