# generated using pymatgen
data_Ba3NaB24
_symmetry_space_group_name_H-M   'P 1'
_cell_length_a   4.25600100
_cell_length_b   4.25600100
_cell_length_c   16.96837700
_cell_angle_alpha   90.00000000
_cell_angle_beta   90.00000000
_cell_angle_gamma   90.00000000
_symmetry_Int_Tables_number   1
_chemical_formula_structural   Ba3NaB24
_chemical_formula_sum   'Ba3 Na1 B24'
_cell_volume   307.35745209
_cell_formula_units_Z   1
loop_
 _symmetry_equiv_pos_site_id
 _symmetry_equiv_pos_as_xyz
  1  'x, y, z'
loop_
 _atom_site_type_symbol
 _atom_site_label
 _atom_site_symmetry_multiplicity
 _atom_site_fract_x
 _atom_site_fract_y
 _atom_site_fract_z
 _atom_site_occupancy
  Ba  Ba0  1  0.00000000  0.00000000  0.24556700  1
  Ba  Ba1  1  0.00000000  0.00000000  0.50000000  1
  Ba  Ba2  1  0.00000000  0.00000000  0.75443300  1
  Na  Na0  1  0.00000000  0.00000000  0.00000000  1
  B  B0  1  0.20222400  0.50000000  0.12288100  1
  B  B1  1  0.20449100  0.50000000  0.37474600  1
  B  B2  1  0.20449100  0.50000000  0.62525400  1
  B  B3  1  0.20222400  0.50000000  0.87711900  1
  B  B4  1  0.50000000  0.50000000  0.19767200  1
  B  B5  1  0.50000000  0.50000000  0.44884700  1
  B  B6  1  0.50000000  0.50000000  0.69976700  1
  B  B7  1  0.50000000  0.50000000  0.95087400  1
  B  B8  1  0.50000000  0.20222400  0.12288100  1
  B  B9  1  0.50000000  0.20449100  0.37474600  1
  B  B10  1  0.50000000  0.20449100  0.62525400  1
  B  B11  1  0.50000000  0.20222400  0.87711900  1
  B  B12  1  0.50000000  0.50000000  0.04912600  1
  B  B13  1  0.50000000  0.50000000  0.30023300  1
  B  B14  1  0.50000000  0.50000000  0.55115300  1
  B  B15  1  0.50000000  0.50000000  0.80232800  1
  B  B16  1  0.50000000  0.79777600  0.12288100  1
  B  B17  1  0.50000000  0.79550900  0.37474600  1
  B  B18  1  0.50000000  0.79550900  0.62525400  1
  B  B19  1  0.50000000  0.79777600  0.87711900  1
  B  B20  1  0.79777600  0.50000000  0.12288100  1
  B  B21  1  0.79550900  0.50000000  0.37474600  1
  B  B22  1  0.79550900  0.50000000  0.62525400  1
  B  B23  1  0.79777600  0.50000000  0.87711900  1
loop_
_geom_bond_atom_site_label_1
_geom_bond_atom_site_label_2
_geom_bond_distance
_geom_bond_site_symmetry_2
B0 B20 1.721331 1_455
B0 B12 1.781122 1_555
B0 B16 1.792282 1_555
B0 B8 1.792282 1_555
B0 B4 1.793518 1_555
B0 Ba0 3.098863 1_555
B0 Ba0 3.098863 1_565
B0 Na0 3.101086 1_565
B0 Na0 3.101086 1_555
B1 B21 1.740628 1_455
B1 B5 1.778416 1_555
B1 B9 1.778637 1_555
B1 B17 1.778637 1_555
B1 B13 1.783366 1_555
B1 Ba1 3.130970 1_565
B1 Ba1 3.130970 1_555
B1 Ba0 3.176557 1_555
B1 Ba0 3.176557 1_565
B2 B22 1.740628 1_455
B2 B6 1.783366 1_555
B2 Ba1 3.130970 1_565
B2 Ba1 3.130970 1_555
B2 Ba2 3.176557 1_555
B2 Ba2 3.176557 1_565
B3 B7 1.781122 1_555
B3 Ba2 3.098863 1_565
B3 Ba2 3.098863 1_555
B3 Na0 3.101086 1_566
B3 Na0 3.101086 1_556
B4 B8 1.793518 1_555
B4 Ba0 3.117251 1_655
B4 Ba0 3.117251 1_555
B4 Ba0 3.117251 1_565
B4 Ba0 3.117251 1_665
B5 B9 1.778416 1_555
B5 Ba1 3.132119 1_655
B5 Ba1 3.132119 1_565
B5 Ba1 3.132119 1_665
B5 Ba1 3.132119 1_555
B6 Ba2 3.149159 1_655
B6 Ba2 3.149159 1_665
B6 Ba2 3.149159 1_555
B6 Ba2 3.149159 1_565
B7 Na0 3.122762 1_556
B7 Na0 3.122762 1_566
B7 Na0 3.122762 1_666
B7 Na0 3.122762 1_656
B8 Ba0 3.098863 1_555
B8 Ba0 3.098863 1_655
B8 Na0 3.101086 1_655
B8 Na0 3.101086 1_555
B9 Ba1 3.130970 1_655
B9 Ba1 3.130970 1_555
B9 Ba0 3.176557 1_655
B9 Ba0 3.176557 1_555
B10 B18 1.740628 1_545
B10 B14 1.778416 1_555
B10 B22 1.778637 1_555
B10 B2 1.778637 1_555
B10 B6 1.783366 1_555
B10 Ba1 3.130970 1_655
B10 Ba1 3.130970 1_555
B10 Ba2 3.176557 1_555
B10 Ba2 3.176557 1_655
B11 B19 1.721331 1_545
B11 B7 1.781122 1_555
B11 B3 1.792282 1_555
B11 B23 1.792282 1_555
B11 B15 1.793518 1_555
B11 Ba2 3.098863 1_655
B11 Ba2 3.098863 1_555
B11 Na0 3.101086 1_556
B11 Na0 3.101086 1_656
B12 B7 1.667177 1_554
B12 B16 1.781122 1_555
B12 B20 1.781122 1_555
B12 B8 1.781122 1_555
B12 Na0 3.122762 1_555
B12 Na0 3.122762 1_565
B12 Na0 3.122762 1_655
B12 Na0 3.122762 1_665
B13 B4 1.740294 1_555
B13 B9 1.783366 1_555
B13 B17 1.783366 1_555
B13 B21 1.783366 1_555
B13 Ba0 3.149159 1_555
B13 Ba0 3.149159 1_655
B13 Ba0 3.149159 1_565
B13 Ba0 3.149159 1_665
B14 B5 1.735967 1_555
B14 B18 1.778416 1_555
B14 B22 1.778416 1_555
B14 B2 1.778416 1_555
B14 Ba1 3.132119 1_655
B14 Ba1 3.132119 1_565
B14 Ba1 3.132119 1_665
B14 Ba1 3.132119 1_555
B15 B6 1.740294 1_555
B15 B19 1.793518 1_555
B15 B3 1.793518 1_555
B15 B23 1.793518 1_555
B15 Ba2 3.117251 1_565
B15 Ba2 3.117251 1_665
B15 Ba2 3.117251 1_555
B15 Ba2 3.117251 1_655
B16 B8 1.721331 1_565
B16 B20 1.792282 1_555
B16 B4 1.793518 1_555
B16 Ba0 3.098863 1_665
B16 Ba0 3.098863 1_565
B16 Na0 3.101086 1_565
B16 Na0 3.101086 1_665
B17 B9 1.740628 1_565
B17 B5 1.778416 1_555
B17 B21 1.778637 1_555
B17 Ba1 3.130970 1_565
B17 Ba1 3.130970 1_665
B17 Ba0 3.176557 1_565
B17 Ba0 3.176557 1_665
B18 B22 1.778637 1_555
B18 B2 1.778637 1_555
B18 B6 1.783366 1_555
B18 Ba1 3.130970 1_565
B18 Ba1 3.130970 1_665
B18 Ba2 3.176557 1_565
B18 Ba2 3.176557 1_665
B19 B7 1.781122 1_555
B19 B3 1.792282 1_555
B19 B23 1.792282 1_555
B19 Ba2 3.098863 1_565
B19 Ba2 3.098863 1_665
B19 Na0 3.101086 1_566
B19 Na0 3.101086 1_666
B20 B8 1.792282 1_555
B20 B4 1.793518 1_555
B20 Ba0 3.098863 1_665
B20 Ba0 3.098863 1_655
B20 Na0 3.101086 1_655
B20 Na0 3.101086 1_665
B21 B5 1.778416 1_555
B21 B9 1.778637 1_555
B21 Ba1 3.130970 1_655
B21 Ba1 3.130970 1_665
B21 Ba0 3.176557 1_655
B21 Ba0 3.176557 1_665
B22 B6 1.783366 1_555
B22 Ba1 3.130970 1_655
B22 Ba1 3.130970 1_665
B22 Ba2 3.176557 1_655
B22 Ba2 3.176557 1_665
B23 B3 1.721331 1_655
B23 B7 1.781122 1_555
B23 Ba2 3.098863 1_655
B23 Ba2 3.098863 1_665
B23 Na0 3.101086 1_666
B23 Na0 3.101086 1_656
