# generated using pymatgen
data_La2(B2Rh3)3
_symmetry_space_group_name_H-M   'P 1'
_cell_length_a   5.65721251
_cell_length_b   5.65733196
_cell_length_c   8.51673690
_cell_angle_alpha   89.99984552
_cell_angle_beta   90.00027579
_cell_angle_gamma   119.99933276
_symmetry_Int_Tables_number   1
_chemical_formula_structural   La2(B2Rh3)3
_chemical_formula_sum   'La2 B6 Rh9'
_cell_volume   236.05920421
_cell_formula_units_Z   1
loop_
 _symmetry_equiv_pos_site_id
 _symmetry_equiv_pos_as_xyz
  1  'x, y, z'
loop_
 _atom_site_type_symbol
 _atom_site_label
 _atom_site_symmetry_multiplicity
 _atom_site_fract_x
 _atom_site_fract_y
 _atom_site_fract_z
 _atom_site_occupancy
  La  La0  1  -0.00000557  0.00000071  0.28642463  1
  La  La1  1  0.99999899  -0.00000055  0.71368180  1
  B  B0  1  0.33332607  0.66667149  0.99999745  1
  B  B1  1  0.66665424  0.33332831  0.99999746  1
  B  B2  1  0.33332908  0.66666576  0.33398248  1
  B  B3  1  0.66666321  0.33333428  0.33398252  1
  B  B4  1  0.66665972  0.33332790  0.66598862  1
  B  B5  1  0.33333175  0.66667188  0.66598868  1
  Rh  Rh0  1  0.49998173  0.00000026  0.16310755  1
  Rh  Rh1  1  0.49998063  0.49999938  0.16310595  1
  Rh  Rh2  1  -0.00001870  0.50000125  0.16310600  1
  Rh  Rh3  1  0.49999357  -0.00000018  0.83689155  1
  Rh  Rh4  1  0.49999610  0.50000365  0.83688619  1
  Rh  Rh5  1  0.99999184  0.49999532  0.83688622  1
  Rh  Rh6  1  0.50000220  0.00000020  0.49999253  1
  Rh  Rh7  1  0.50001027  0.50000623  0.49998972  1
  Rh  Rh8  1  0.00000386  0.49999412  0.49998965  1
loop_
_geom_bond_atom_site_label_1
_geom_bond_atom_site_label_2
_geom_bond_distance
_geom_bond_site_symmetry_2
La0 Rh0 3.017232 1_555
La0 Rh1 3.017315 1_555
La0 Rh2 3.017319 1_545
La0 Rh0 3.017355 1_455
La0 Rh2 3.017389 1_555
La0 Rh1 3.017391 1_445
La1 Rh3 3.016941 1_655
La1 Rh3 3.017009 1_555
La1 Rh4 3.017013 1_545
La1 Rh5 3.017015 1_555
La1 Rh4 3.017015 1_655
La1 Rh5 3.017016 1_545
B0 Rh1 2.143982 1_556
B0 Rh3 2.144004 1_565
B0 Rh5 2.144025 1_455
B0 Rh0 2.144030 1_566
B0 Rh4 2.144049 1_555
B0 Rh2 2.144058 1_556
B1 Rh2 2.143984 1_656
B1 Rh3 2.144005 1_555
B1 Rh4 2.144023 1_555
B1 Rh0 2.144026 1_556
B1 Rh5 2.144046 1_555
B1 Rh1 2.144059 1_556
B2 Rh8 2.160063 1_555
B2 Rh7 2.160112 1_555
B2 Rh6 2.160135 1_565
B2 Rh1 2.187406 1_555
B2 Rh0 2.187478 1_565
B2 Rh2 2.187505 1_555
B3 Rh7 2.160063 1_555
B3 Rh8 2.160111 1_655
B3 Rh6 2.160133 1_555
B3 Rh2 2.187406 1_655
B3 Rh0 2.187477 1_555
B3 Rh1 2.187506 1_555
B4 Rh7 2.160018 1_555
B4 Rh6 2.160032 1_555
B4 Rh8 2.160087 1_655
B4 Rh5 2.187568 1_555
B4 Rh4 2.187604 1_555
B4 Rh3 2.187613 1_555
B5 Rh8 2.160019 1_555
B5 Rh6 2.160034 1_565
B5 Rh7 2.160088 1_555
B5 Rh4 2.187569 1_555
B5 Rh5 2.187605 1_455
B5 Rh3 2.187613 1_565
