# generated using pymatgen
data_SrTl3O5
_symmetry_space_group_name_H-M   'P 1'
_cell_length_a   6.06000061
_cell_length_b   6.06000061
_cell_length_c   14.05792200
_cell_angle_alpha   90.00000000
_cell_angle_beta   90.00000000
_cell_angle_gamma   146.18706431
_symmetry_Int_Tables_number   1
_chemical_formula_structural   SrTl3O5
_chemical_formula_sum   'Sr2 Tl6 O10'
_cell_volume   287.28869246
_cell_formula_units_Z   2
loop_
 _symmetry_equiv_pos_site_id
 _symmetry_equiv_pos_as_xyz
  1  'x, y, z'
loop_
 _atom_site_type_symbol
 _atom_site_label
 _atom_site_symmetry_multiplicity
 _atom_site_fract_x
 _atom_site_fract_y
 _atom_site_fract_z
 _atom_site_occupancy
  Sr  Sr0  1  0.46941500  0.53058500  0.25000000  1
  Sr  Sr1  1  0.53058500  0.46941500  0.75000000  1
  Tl  Tl0  1  0.00000000  0.00000000  0.00000000  1
  Tl  Tl1  1  0.00000000  0.00000000  0.50000000  1
  Tl  Tl2  1  0.72553800  0.27446200  0.11071600  1
  Tl  Tl3  1  0.27446200  0.72553800  0.88928400  1
  Tl  Tl4  1  0.27446200  0.72553800  0.61071600  1
  Tl  Tl5  1  0.72553800  0.27446200  0.38928400  1
  O  O0  1  0.91733100  0.08266900  0.64182400  1
  O  O1  1  0.08266900  0.91733100  0.35817600  1
  O  O2  1  0.08266900  0.91733100  0.14182400  1
  O  O3  1  0.91733100  0.08266900  0.85817600  1
  O  O4  1  0.81707600  0.18292400  0.25000000  1
  O  O5  1  0.18292400  0.81707600  0.75000000  1
  O  O6  1  0.64478000  0.35522000  0.54353700  1
  O  O7  1  0.35522000  0.64478000  0.45646300  1
  O  O8  1  0.35522000  0.64478000  0.04353700  1
  O  O9  1  0.64478000  0.35522000  0.95646300  1
loop_
_geom_bond_atom_site_label_1
_geom_bond_atom_site_label_2
_geom_bond_distance
_geom_bond_site_symmetry_2
O0 Tl1 2.212248 1_655
O0 Tl4 2.457997 1_655
O0 Tl4 2.457997 1_545
O0 Sr1 2.672667 1_655
O0 Sr1 2.672667 1_545
O1 Tl1 2.212248 1_565
O1 Tl5 2.457997 1_455
O1 Tl5 2.457997 1_565
O1 Sr0 2.672667 1_565
O1 Sr0 2.672667 1_455
O2 Tl0 2.212248 1_565
O2 Tl2 2.457997 1_565
O2 Tl2 2.457997 1_455
O2 Sr0 2.672667 1_565
O2 Sr0 2.672667 1_455
O3 Tl0 2.212248 1_656
O3 Tl3 2.457997 1_655
O3 Tl3 2.457997 1_545
O3 Sr1 2.672667 1_655
O3 Sr1 2.672667 1_545
O4 Tl2 2.227263 1_555
O4 Tl5 2.227263 1_555
O4 Sr0 2.495283 1_545
O4 Sr0 2.495283 1_655
O5 Tl3 2.227263 1_555
O5 Tl4 2.227263 1_555
O5 Sr1 2.495283 1_455
O5 Sr1 2.495283 1_565
O6 Tl5 2.362053 1_555
O6 Tl4 2.501817 1_655
O6 Tl4 2.501817 1_545
O6 Tl1 2.509785 1_665
O6 Tl1 2.509785 1_555
O7 Tl4 2.362053 1_555
O7 Tl5 2.501817 1_565
O7 Tl5 2.501817 1_455
O7 Tl1 2.509785 1_665
O7 Tl1 2.509785 1_555
O8 Tl3 2.362053 1_554
O8 Tl2 2.501817 1_565
O8 Tl2 2.501817 1_455
O8 Tl0 2.509785 1_555
O8 Tl0 2.509785 1_665
O9 Tl2 2.362053 1_556
O9 Tl3 2.501817 1_655
O9 Tl3 2.501817 1_545
O9 Tl0 2.509785 1_666
O9 Tl0 2.509785 1_556
