# generated using pymatgen
data_CsV3(SeO6)2
_symmetry_space_group_name_H-M   'P 1'
_cell_length_a   7.19180403
_cell_length_b   7.19180403
_cell_length_c   12.29113500
_cell_angle_alpha   90.00000000
_cell_angle_beta   90.00000000
_cell_angle_gamma   120.00000029
_symmetry_Int_Tables_number   1
_chemical_formula_structural   CsV3(SeO6)2
_chemical_formula_sum   'Cs2 V6 Se4 O24'
_cell_volume   550.55195476
_cell_formula_units_Z   2
loop_
 _symmetry_equiv_pos_site_id
 _symmetry_equiv_pos_as_xyz
  1  'x, y, z'
loop_
 _atom_site_type_symbol
 _atom_site_label
 _atom_site_symmetry_multiplicity
 _atom_site_fract_x
 _atom_site_fract_y
 _atom_site_fract_z
 _atom_site_occupancy
  Cs  Cs0  1  0.66666700  0.33333300  0.47207300  1
  Cs  Cs1  1  0.33333300  0.66666700  0.97207300  1
  V  V0  1  0.87323900  0.66716100  0.79428000  1
  V  V1  1  0.79392300  0.12676100  0.79428000  1
  V  V2  1  0.66716100  0.79392300  0.29428000  1
  V  V3  1  0.12676100  0.33283900  0.29428000  1
  V  V4  1  0.33283900  0.20607700  0.79428000  1
  V  V5  1  0.20607700  0.87323900  0.29428000  1
  Se  Se0  1  0.00000000  0.00000000  0.58277000  1
  Se  Se1  1  0.66666700  0.33333300  0.00880800  1
  Se  Se2  1  0.33333300  0.66666700  0.50880800  1
  Se  Se3  1  0.00000000  0.00000000  0.08277000  1
  O  O0  1  0.24943100  0.12340400  0.32336600  1
  O  O1  1  0.12602700  0.24943100  0.82336600  1
  O  O2  1  0.12340400  0.87397300  0.82336600  1
  O  O3  1  0.87659600  0.12602700  0.32336600  1
  O  O4  1  0.87397300  0.75056900  0.32336600  1
  O  O5  1  0.75056900  0.87659600  0.82336600  1
  O  O6  1  0.45735000  0.91640700  0.27043500  1
  O  O7  1  0.54094300  0.45735000  0.77043500  1
  O  O8  1  0.91640700  0.45905700  0.77043500  1
  O  O9  1  0.08359300  0.54094300  0.27043500  1
  O  O10  1  0.45905700  0.54265000  0.27043500  1
  O  O11  1  0.54265000  0.08359300  0.77043500  1
  O  O12  1  0.79886400  0.21173300  0.95063500  1
  O  O13  1  0.58713100  0.79886400  0.45063500  1
  O  O14  1  0.21173300  0.41286900  0.45063500  1
  O  O15  1  0.78826700  0.58713100  0.95063500  1
  O  O16  1  0.41286900  0.20113600  0.95063500  1
  O  O17  1  0.20113600  0.78826700  0.45063500  1
  O  O18  1  0.87835100  0.13164800  0.64259500  1
  O  O19  1  0.74670300  0.87835100  0.14259500  1
  O  O20  1  0.13164800  0.25329700  0.14259500  1
  O  O21  1  0.86835200  0.74670300  0.64259500  1
  O  O22  1  0.25329700  0.12164900  0.64259500  1
  O  O23  1  0.12164900  0.86835200  0.14259500  1
loop_
_geom_bond_atom_site_label_1
_geom_bond_atom_site_label_2
_geom_bond_distance
_geom_bond_site_symmetry_2
Cs0 O3 3.177088 1_555
Cs0 O0 3.177093 1_555
Cs0 O4 3.177093 1_555
Cs0 O18 3.320028 1_555
Cs0 O22 3.320033 1_555
Cs0 O21 3.320033 1_555
Cs1 O2 3.177088 1_555
Cs1 O5 3.177093 1_555
Cs1 O1 3.177093 1_555
Cs1 O23 3.320028 1_556
Cs1 O19 3.320033 1_556
Cs1 O20 3.320033 1_556
O0 V5 1.703220 1_545
O0 V3 2.122172 1_555
O1 V4 1.703227 1_555
O1 V1 2.122165 1_455
O2 V0 1.703222 1_455
O2 V4 2.122166 1_565
O3 V3 1.703222 1_655
O3 V2 2.122166 1_545
O4 V2 1.703227 1_555
O4 V5 2.122165 1_655
O5 V1 1.703220 1_565
O5 V0 2.122172 1_555
O6 V5 1.699084 1_555
O6 V2 2.113733 1_555
O7 V4 1.699081 1_555
O7 V0 2.113738 1_555
O8 V0 1.699077 1_555
O8 V1 2.113739 1_555
O9 V3 1.699077 1_555
O9 V5 2.113739 1_555
O10 V2 1.699081 1_555
O10 V3 2.113738 1_555
O11 V1 1.699084 1_555
O11 V4 2.113733 1_555
O12 Se1 1.735330 1_556
O12 V1 2.011525 1_555
O13 Se2 1.735336 1_555
O13 V2 2.011523 1_555
O14 Se2 1.735336 1_555
O14 V3 2.011524 1_555
O15 Se1 1.735336 1_556
O15 V0 2.011524 1_555
O16 Se1 1.735336 1_556
O16 V4 2.011523 1_555
O17 Se2 1.735330 1_555
O17 V5 2.011525 1_555
O18 Se0 1.740926 1_655
O18 V1 1.955630 1_555
O19 Se3 1.740926 1_665
O19 V2 1.955631 1_555
O20 Se3 1.740926 1_555
O20 V3 1.955632 1_555
O21 Se0 1.740926 1_665
O21 V0 1.955632 1_555
O22 Se0 1.740926 1_555
O22 V4 1.955631 1_555
O23 Se3 1.740926 1_565
O23 V5 1.955630 1_555
