# generated using pymatgen
data_Tm(Al5Fe)2
_symmetry_space_group_name_H-M   'P 1'
_cell_length_a   6.68995190
_cell_length_b   6.68995190
_cell_length_c   8.85412943
_cell_angle_alpha   90.00000000
_cell_angle_beta   90.00000000
_cell_angle_gamma   97.37607622
_symmetry_Int_Tables_number   1
_chemical_formula_structural   Tm(Al5Fe)2
_chemical_formula_sum   'Tm2 Al20 Fe4'
_cell_volume   392.99140696
_cell_formula_units_Z   2
loop_
 _symmetry_equiv_pos_site_id
 _symmetry_equiv_pos_as_xyz
  1  'x, y, z'
loop_
 _atom_site_type_symbol
 _atom_site_label
 _atom_site_symmetry_multiplicity
 _atom_site_fract_x
 _atom_site_fract_y
 _atom_site_fract_z
 _atom_site_occupancy
  Tm  Tm0  1  0.87362542  0.12637458  0.75000000  1
  Tm  Tm1  1  0.12637458  0.87362542  0.25000000  1
  Al  Al0  1  0.62580846  0.37419154  0.54889863  1
  Al  Al1  1  0.37419154  0.62580846  0.45110137  1
  Al  Al2  1  0.37419154  0.62580846  0.04889863  1
  Al  Al3  1  0.62580846  0.37419154  0.95110137  1
  Al  Al4  1  0.22748509  0.22748509  0.50000000  1
  Al  Al5  1  0.77251491  0.77251491  0.50000000  1
  Al  Al6  1  0.77251491  0.77251491  0.00000000  1
  Al  Al7  1  0.22748509  0.22748509  0.00000000  1
  Al  Al8  1  0.84229305  0.15770695  0.09675619  1
  Al  Al9  1  0.15770695  0.84229305  0.90324381  1
  Al  Al10  1  0.15770695  0.84229305  0.59675619  1
  Al  Al11  1  0.84229305  0.15770695  0.40324381  1
  Al  Al12  1  0.86610276  0.58501730  0.75000000  1
  Al  Al13  1  0.13389724  0.41498270  0.25000000  1
  Al  Al14  1  0.41498270  0.13389724  0.75000000  1
  Al  Al15  1  0.58501730  0.86610276  0.25000000  1
  Al  Al16  1  0.21916377  0.47831582  0.75000000  1
  Al  Al17  1  0.78083623  0.52168418  0.25000000  1
  Al  Al18  1  0.52168418  0.78083623  0.75000000  1
  Al  Al19  1  0.47831582  0.21916377  0.25000000  1
  Fe  Fe0  1  -0.00000000  0.50000000  0.50000000  1
  Fe  Fe1  1  -0.00000000  0.50000000  0.00000000  1
  Fe  Fe2  1  0.50000000  -0.00000000  0.00000000  1
  Fe  Fe3  1  0.50000000  -0.00000000  0.50000000  1
loop_
_geom_bond_atom_site_label_1
_geom_bond_atom_site_label_2
_geom_bond_distance
_geom_bond_site_symmetry_2
Al0 Al11 2.529175 1_555
Al0 Fe0 2.573223 1_655
Al0 Fe3 2.573223 1_555
Al0 Al1 2.672896 1_555
Al0 Al12 2.676154 1_555
Al0 Al14 2.676154 1_555
Al0 Al4 2.753208 1_555
Al0 Al5 2.753208 1_555
Al0 Al17 2.964858 1_555
Al0 Al19 2.964858 1_555
Al0 Tm0 3.061592 1_555
Al1 Al10 2.529175 1_555
Al1 Fe0 2.573223 1_555
Al1 Fe3 2.573223 1_565
Al1 Al15 2.676154 1_555
Al1 Al13 2.676154 1_555
Al1 Al4 2.753208 1_555
Al1 Al5 2.753208 1_555
Al1 Al18 2.964858 1_555
Al1 Al16 2.964858 1_555
Al1 Tm1 3.061592 1_555
Al2 Al9 2.529175 1_554
Al2 Fe2 2.573223 1_565
Al2 Fe1 2.573223 1_555
Al2 Al3 2.672896 1_554
Al2 Al6 2.753208 1_555
Al2 Al7 2.753208 1_555
Al2 Tm1 3.061592 1_555
Al3 Al8 2.529175 1_556
Al3 Fe1 2.573223 1_656
Al3 Fe2 2.573223 1_556
Al3 Al7 2.753208 1_556
Al3 Al6 2.753208 1_556
Al3 Tm0 3.061592 1_555
Al4 Fe0 2.520358 1_555
Al4 Fe3 2.520358 1_555
Al4 Tm1 3.248115 1_545
Al4 Tm0 3.248115 1_455
Al5 Fe0 2.520358 1_655
Al5 Fe3 2.520358 1_565
Al5 Tm0 3.248115 1_565
Al5 Tm1 3.248115 1_655
Al6 Fe2 2.520358 1_565
Al6 Fe1 2.520358 1_655
Al6 Al8 2.698789 1_565
Al6 Al9 2.698789 1_654
Al6 Tm0 3.248115 1_564
Al6 Tm1 3.248115 1_655
Al7 Fe2 2.520358 1_555
Al7 Fe1 2.520358 1_555
Al7 Al9 2.698789 1_544
Al7 Al8 2.698789 1_455
Al7 Tm1 3.248115 1_545
Al7 Tm0 3.248115 1_454
Al8 Fe1 2.543712 1_655
Al8 Fe2 2.543712 1_555
Al8 Tm0 3.086330 1_554
Al8 Tm1 3.161036 1_645
Al9 Fe2 2.543712 1_566
Al9 Fe1 2.543712 1_556
Al9 Tm1 3.086330 1_556
Al9 Tm0 3.161036 1_465
Al10 Fe3 2.543712 1_565
Al10 Fe0 2.543712 1_555
Al10 Al5 2.698789 1_455
Al10 Al4 2.698789 1_565
Al10 Al9 2.713681 1_555
Al10 Al14 2.783340 1_565
Al10 Al12 2.783340 1_455
Al10 Al16 2.862915 1_555
Al10 Al18 2.862915 1_555
Al10 Tm1 3.086330 1_555
Al10 Tm0 3.161036 1_465
Al11 Fe3 2.543712 1_555
Al11 Fe0 2.543712 1_655
Al11 Al5 2.698789 1_545
Al11 Al4 2.698789 1_655
Al11 Al8 2.713681 1_555
Al11 Al15 2.783340 1_545
Al11 Al13 2.783340 1_655
Al11 Al17 2.862915 1_555
Al11 Al19 2.862915 1_555
Al11 Tm0 3.086330 1_555
Al11 Tm1 3.161036 1_645
Al12 Fe1 2.481215 1_656
Al12 Fe0 2.481215 1_655
Al12 Al16 2.553688 1_655
Al12 Al5 2.658339 1_555
Al12 Al6 2.658339 1_556
Al12 Al3 2.676154 1_555
Al12 Al9 2.783340 1_655
Al12 Al18 2.792895 1_555
Al12 Tm0 3.075164 1_555
Al13 Fe0 2.481215 1_555
Al13 Fe1 2.481215 1_555
Al13 Al17 2.553688 1_455
Al13 Al7 2.658339 1_555
Al13 Al4 2.658339 1_555
Al13 Al2 2.676154 1_555
Al13 Al8 2.783340 1_455
Al13 Al19 2.792895 1_555
Al13 Tm1 3.075164 1_555
Al14 Fe2 2.481215 1_556
Al14 Fe3 2.481215 1_555
Al14 Al18 2.553688 1_545
Al14 Al4 2.658339 1_555
Al14 Al7 2.658339 1_556
Al14 Al3 2.676154 1_555
Al14 Al9 2.783340 1_545
Al14 Al16 2.792895 1_555
Al14 Tm0 3.075164 1_555
Al15 Fe3 2.481215 1_565
Al15 Fe2 2.481215 1_565
Al15 Al19 2.553688 1_565
Al15 Al5 2.658339 1_555
Al15 Al6 2.658339 1_555
Al15 Al2 2.676154 1_555
Al15 Al8 2.783340 1_565
Al15 Al17 2.792895 1_555
Al15 Tm1 3.075164 1_555
Al16 Fe0 2.669290 1_555
Al16 Fe1 2.669290 1_556
Al16 Al18 2.672120 1_555
Al16 Al4 2.782561 1_555
Al16 Al7 2.782561 1_556
Al16 Al9 2.862915 1_555
Al16 Al2 2.964858 1_556
Al16 Tm0 3.080537 1_455
Al17 Fe1 2.669290 1_655
Al17 Fe0 2.669290 1_655
Al17 Al19 2.672120 1_555
Al17 Al6 2.782561 1_555
Al17 Al5 2.782561 1_555
Al17 Al8 2.862915 1_555
Al17 Al3 2.964858 1_554
Al17 Tm1 3.080537 1_655
Al18 Fe3 2.669290 1_565
Al18 Fe2 2.669290 1_566
Al18 Al6 2.782561 1_556
Al18 Al5 2.782561 1_555
Al18 Al9 2.862915 1_555
Al18 Al2 2.964858 1_556
Al18 Tm0 3.080537 1_565
Al19 Fe3 2.669290 1_555
Al19 Fe2 2.669290 1_555
Al19 Al7 2.782561 1_555
Al19 Al4 2.782561 1_555
Al19 Al8 2.862915 1_555
Al19 Al3 2.964858 1_554
Al19 Tm1 3.080537 1_545
