# generated using pymatgen
data_V7S8
_symmetry_space_group_name_H-M   'P 1'
_cell_length_a   6.38502084
_cell_length_b   6.38508810
_cell_length_c   18.03187714
_cell_angle_alpha   89.99689266
_cell_angle_beta   89.98952740
_cell_angle_gamma   119.98040961
_symmetry_Int_Tables_number   1
_chemical_formula_structural   V7S8
_chemical_formula_sum   'V21 S24'
_cell_volume   636.77568120
_cell_formula_units_Z   3
loop_
 _symmetry_equiv_pos_site_id
 _symmetry_equiv_pos_as_xyz
  1  'x, y, z'
loop_
 _atom_site_type_symbol
 _atom_site_label
 _atom_site_symmetry_multiplicity
 _atom_site_fract_x
 _atom_site_fract_y
 _atom_site_fract_z
 _atom_site_occupancy
  V  V0  1  0.50045800  0.50001900  0.49794100  1
  V  V1  1  0.99978600  0.49998800  0.83337700  1
  V  V2  1  0.49964900  0.99943000  0.16454700  1
  V  V3  1  0.00082700  0.50081100  0.50005000  1
  V  V4  1  0.50040700  0.50002700  0.16871200  1
  V  V5  1  0.49968800  0.99946100  0.83547100  1
  V  V6  1  0.49907700  0.50068800  0.66574700  1
  V  V7  1  0.99993400  0.49985900  0.99992100  1
  V  V8  1  0.50124400  0.00095300  0.33242800  1
  V  V9  1  0.99977000  0.49987600  0.33334700  1
  V  V10  1  0.49859300  0.49939300  0.00090000  1
  V  V11  1  0.50109100  0.00137900  0.66765600  1
  V  V12  1  0.00021700  0.00059200  0.50211200  1
  V  V13  1  0.00031800  0.00060500  0.83116400  1
  V  V14  1  0.99981900  0.00120900  0.16663300  1
  V  V15  1  0.99982900  0.99851500  0.99898100  1
  V  V16  1  0.00032800  0.99892000  0.33435200  1
  V  V17  1  0.00012300  0.50006100  0.66677200  1
  V  V18  1  0.49848600  0.99854400  0.50004100  1
  V  V19  1  0.50071500  0.49998600  0.83337500  1
  V  V20  1  0.99992400  0.49932700  0.16660700  1
  S  S0  1  0.33337500  0.66690000  0.58258100  1
  S  S1  1  0.33606400  0.67224600  0.91821900  1
  S  S2  1  0.33531500  0.66430200  0.25123700  1
  S  S3  1  0.66384000  0.33581700  0.41508000  1
  S  S4  1  0.66470900  0.32908300  0.08219500  1
  S  S5  1  0.66682000  0.33333300  0.75068400  1
  S  S6  1  0.16382800  0.32775200  0.74841700  1
  S  S7  1  0.17192000  0.83612200  0.08175600  1
  S  S8  1  0.66413500  0.82893800  0.41547100  1
  S  S9  1  0.82806000  0.66399000  0.25159000  1
  S  S10  1  0.33566500  0.16452300  0.91785700  1
  S  S11  1  0.83542200  0.16356400  0.58495900  1
  S  S12  1  0.16673400  0.33342700  0.08405700  1
  S  S13  1  0.16687600  0.83320400  0.41746600  1
  S  S14  1  0.67125100  0.83574900  0.74876300  1
  S  S15  1  0.83342100  0.66660700  0.91599300  1
  S  S16  1  0.32889400  0.16408500  0.58455100  1
  S  S17  1  0.83342800  0.16679700  0.24927600  1
  S  S18  1  0.17109900  0.33586700  0.41554000  1
  S  S19  1  0.16443000  0.83545600  0.74879700  1
  S  S20  1  0.66452800  0.83581100  0.08217200  1
  S  S21  1  0.83552600  0.67087500  0.58447800  1
  S  S22  1  0.33557500  0.17121700  0.25125200  1
  S  S23  1  0.82880300  0.16469200  0.91777900  1
loop_
_geom_bond_atom_site_label_1
_geom_bond_atom_site_label_2
_geom_bond_distance
_geom_bond_site_symmetry_2
S0 V18 2.361930 1_555
S0 V3 2.366168 1_555
S0 V6 2.370064 1_555
S0 V17 2.387551 1_555
S0 V0 2.395522 1_555
S0 V11 2.403436 1_565
S1 V5 2.345341 1_555
S1 V7 2.371896 1_455
S1 V10 2.379676 1_556
S1 V1 2.408654 1_455
S1 V19 2.410563 1_555
S2 V4 2.351674 1_555
S2 V8 2.368813 1_565
S2 V9 2.373865 1_455
S2 V20 2.402342 1_455
S2 V2 2.424554 1_555
S3 V0 2.347900 1_555
S3 V9 2.371334 1_555
S3 V8 2.377626 1_555
S3 V3 2.413094 1_655
S3 V18 2.413734 1_545
S4 V2 2.351245 1_545
S4 V10 2.368439 1_555
S4 V7 2.374328 1_554
S4 V20 2.399100 1_555
S4 V4 2.422740 1_555
S5 V19 2.368105 1_555
S5 V11 2.369198 1_555
S5 V1 2.369804 1_555
S5 V17 2.384573 1_655
S5 V5 2.397139 1_545
S5 V6 2.403943 1_555
S6 V13 2.345039 1_555
S6 V17 2.370685 1_555
S6 V6 2.379057 1_555
S6 V1 2.409209 1_455
S6 V19 2.412561 1_555
S7 V2 2.348487 1_555
S7 V7 2.374421 1_454
S7 V15 2.376855 1_454
S7 V20 2.410457 1_455
S7 V14 2.412098 1_465
S8 V0 2.349449 1_555
S8 V16 2.365522 1_655
S8 V8 2.381675 1_565
S8 V18 2.400262 1_555
S8 V12 2.428529 1_665
S9 V4 2.349160 1_555
S9 V9 2.371089 1_555
S9 V16 2.379175 1_655
S9 V20 2.410495 1_555
S9 V14 2.413456 1_565
S10 V5 2.348883 1_545
S10 V15 2.364021 1_445
S10 V10 2.382053 1_556
S10 V19 2.400487 1_555
S10 V13 2.426017 1_555
S11 V12 2.348525 1_655
S11 V17 2.375151 1_655
S11 V11 2.375364 1_555
S11 V18 2.412278 1_545
S11 V3 2.413024 1_655
S12 V14 2.364807 1_455
S12 V20 2.366299 1_455
S12 V10 2.369771 1_555
S12 V7 2.386792 1_454
S12 V4 2.395241 1_555
S12 V15 2.405290 1_444
S13 V18 2.362638 1_555
S13 V3 2.365644 1_555
S13 V16 2.370971 1_555
S13 V9 2.387548 1_455
S13 V12 2.395947 1_565
S13 V8 2.402039 1_565
S14 V13 2.349750 1_665
S14 V11 2.363589 1_565
S14 V6 2.382601 1_555
S14 V19 2.403261 1_555
S14 V5 2.425111 1_555
S15 V19 2.367836 1_555
S15 V1 2.368225 1_555
S15 V15 2.368548 1_555
S15 V7 2.384533 1_555
S15 V13 2.398158 1_665
S15 V10 2.402488 1_556
S16 V12 2.348516 1_555
S16 V6 2.368652 1_555
S16 V11 2.382389 1_555
S16 V18 2.399051 1_545
S16 V0 2.427062 1_555
S17 V14 2.364215 1_555
S17 V20 2.367198 1_555
S17 V8 2.371106 1_555
S17 V9 2.385932 1_555
S17 V2 2.396546 1_545
S17 V16 2.404175 1_645
S18 V0 2.351001 1_555
S18 V16 2.370074 1_545
S18 V9 2.373877 1_455
S18 V3 2.399430 1_555
S18 V12 2.423812 1_555
S19 V13 2.349420 1_565
S19 V11 2.367814 1_565
S19 V17 2.372751 1_555
S19 V1 2.401650 1_455
S19 V5 2.425412 1_555
S20 V2 2.346244 1_555
S20 V10 2.368699 1_555
S20 V15 2.385130 1_554
S20 V14 2.399960 1_565
S20 V4 2.425619 1_555
S21 V12 2.351678 1_665
S21 V6 2.368310 1_555
S21 V17 2.375291 1_655
S21 V3 2.399121 1_655
S21 V0 2.423012 1_555
S22 V4 2.349778 1_555
S22 V8 2.364977 1_555
S22 V16 2.383858 1_545
S22 V14 2.403760 1_455
S22 V2 2.427557 1_545
S23 V5 2.348899 1_545
S23 V15 2.370795 1_545
S23 V7 2.373107 1_555
S23 V1 2.398897 1_555
S23 V13 2.425400 1_655
