# generated using pymatgen
data_Ce2Si3Rh
_symmetry_space_group_name_H-M   'P 1'
_cell_length_a   8.22375101
_cell_length_b   8.22375101
_cell_length_c   8.18404500
_cell_angle_alpha   90.00000000
_cell_angle_beta   90.00000000
_cell_angle_gamma   119.99999201
_symmetry_Int_Tables_number   1
_chemical_formula_structural   Ce2Si3Rh
_chemical_formula_sum   'Ce8 Si12 Rh4'
_cell_volume   479.33438096
_cell_formula_units_Z   4
loop_
 _symmetry_equiv_pos_site_id
 _symmetry_equiv_pos_as_xyz
  1  'x, y, z'
loop_
 _atom_site_type_symbol
 _atom_site_label
 _atom_site_symmetry_multiplicity
 _atom_site_fract_x
 _atom_site_fract_y
 _atom_site_fract_z
 _atom_site_occupancy
  Ce  Ce0  1  0.00000000  0.00000000  0.25000000  1
  Ce  Ce1  1  0.00000000  0.00000000  0.75000000  1
  Ce  Ce2  1  0.50442800  0.49557200  0.25000000  1
  Ce  Ce3  1  0.50442800  0.00885600  0.25000000  1
  Ce  Ce4  1  0.99114400  0.49557200  0.25000000  1
  Ce  Ce5  1  0.49557200  0.50442800  0.75000000  1
  Ce  Ce6  1  0.49557200  0.99114400  0.75000000  1
  Ce  Ce7  1  0.00885600  0.50442800  0.75000000  1
  Si  Si0  1  0.16551300  0.83448700  0.50079200  1
  Si  Si1  1  0.16551300  0.33102700  0.50079200  1
  Si  Si2  1  0.66897300  0.83448700  0.50079200  1
  Si  Si3  1  0.83448700  0.16551300  0.49920800  1
  Si  Si4  1  0.83448700  0.66897300  0.49920800  1
  Si  Si5  1  0.33102700  0.16551300  0.49920800  1
  Si  Si6  1  0.83448700  0.16551300  0.00079200  1
  Si  Si7  1  0.83448700  0.66897300  0.00079200  1
  Si  Si8  1  0.33102700  0.16551300  0.00079200  1
  Si  Si9  1  0.16551300  0.83448700  0.99920800  1
  Si  Si10  1  0.16551300  0.33102700  0.99920800  1
  Si  Si11  1  0.66897300  0.83448700  0.99920800  1
  Rh  Rh0  1  0.33333300  0.66666700  0.47481700  1
  Rh  Rh1  1  0.66666700  0.33333300  0.52518300  1
  Rh  Rh2  1  0.66666700  0.33333300  0.97481700  1
  Rh  Rh3  1  0.33333300  0.66666700  0.02518300  1
loop_
_geom_bond_atom_site_label_1
_geom_bond_atom_site_label_2
_geom_bond_distance
_geom_bond_site_symmetry_2
Ce0 Si6 3.117333 1_455
Ce0 Si3 3.117333 1_455
Ce0 Si4 3.117339 1_445
Ce0 Si8 3.117339 1_555
Ce0 Si5 3.117339 1_555
Ce0 Si7 3.117339 1_445
Ce0 Si9 3.125830 1_544
Ce0 Si0 3.125830 1_545
Ce0 Si11 3.125836 1_444
Ce0 Si2 3.125836 1_445
Ce0 Si10 3.125836 1_554
Ce0 Si1 3.125836 1_555
Ce1 Si9 3.117333 1_545
Ce1 Si0 3.117333 1_545
Ce1 Si11 3.117339 1_445
Ce1 Si2 3.117339 1_445
Ce1 Si10 3.117339 1_555
Ce1 Si1 3.117339 1_555
Ce1 Si6 3.125830 1_456
Ce1 Si3 3.125830 1_455
Ce1 Si7 3.125836 1_446
Ce1 Si8 3.125836 1_556
Ce1 Si4 3.125836 1_445
Ce1 Si5 3.125836 1_555
Ce2 Rh3 3.053618 1_555
Ce2 Rh0 3.053618 1_555
Ce2 Si7 3.112890 1_555
Ce2 Si4 3.112890 1_555
Ce2 Si8 3.112890 1_555
Ce2 Si5 3.112890 1_555
Ce2 Si1 3.168679 1_555
Ce2 Si10 3.168679 1_554
Ce2 Si2 3.168679 1_555
Ce2 Si11 3.168679 1_554
Ce2 Rh2 3.226821 1_554
Ce2 Rh1 3.226821 1_555
Ce3 Rh3 3.053613 1_545
Ce3 Rh0 3.053613 1_545
Ce3 Si8 3.112884 1_555
Ce3 Si5 3.112884 1_555
Ce3 Si3 3.112890 1_555
Ce3 Si6 3.112890 1_555
Ce3 Si11 3.168673 1_544
Ce3 Si2 3.168673 1_545
Ce3 Si9 3.168679 1_544
Ce3 Si0 3.168679 1_545
Ce3 Rh1 3.226816 1_555
Ce3 Rh2 3.226816 1_554
Ce4 Rh0 3.053613 1_655
Ce4 Rh3 3.053613 1_655
Ce4 Si4 3.112884 1_555
Ce4 Si7 3.112884 1_555
Ce4 Si3 3.112890 1_555
Ce4 Si6 3.112890 1_555
Ce4 Si10 3.168673 1_654
Ce4 Si1 3.168673 1_655
Ce4 Si9 3.168679 1_654
Ce4 Si0 3.168679 1_655
Ce4 Rh2 3.226816 1_554
Ce4 Rh1 3.226816 1_555
Ce5 Rh1 3.053618 1_555
Ce5 Rh2 3.053618 1_555
Ce5 Si11 3.112890 1_555
Ce5 Si2 3.112890 1_555
Ce5 Si1 3.112890 1_555
Ce5 Si10 3.112890 1_555
Ce5 Si7 3.168679 1_556
Ce5 Si8 3.168679 1_556
Ce5 Si5 3.168679 1_555
Ce5 Si4 3.168679 1_555
Ce5 Rh3 3.226821 1_556
Ce5 Rh0 3.226821 1_555
Ce6 Rh2 3.053613 1_565
Ce6 Rh1 3.053613 1_565
Ce6 Si11 3.112884 1_555
Ce6 Si2 3.112884 1_555
Ce6 Si9 3.112890 1_555
Ce6 Si0 3.112890 1_555
Ce6 Si8 3.168673 1_566
Ce6 Si5 3.168673 1_565
Ce6 Si6 3.168679 1_566
Ce6 Si3 3.168679 1_565
Ce6 Rh3 3.226816 1_556
Ce6 Rh0 3.226816 1_555
Ce7 Rh1 3.053613 1_455
Ce7 Rh2 3.053613 1_455
Ce7 Si10 3.112884 1_555
Ce7 Si1 3.112884 1_555
Ce7 Si9 3.112890 1_555
Ce7 Si0 3.112890 1_555
Ce7 Si7 3.168673 1_456
Ce7 Si4 3.168673 1_455
Ce7 Si6 3.168679 1_456
Ce7 Si3 3.168679 1_455
Ce7 Rh3 3.226816 1_556
Ce7 Rh0 3.226816 1_555
Si0 Si5 2.357595 1_565
Si0 Si4 2.357595 1_455
Si1 Si3 2.357595 1_455
Si1 Si5 2.357609 1_555
Si2 Si3 2.357595 1_565
Si2 Si4 2.357609 1_555
Si7 Si9 2.357595 1_654
Si8 Si9 2.357595 1_544
Si10 Si6 2.357595 1_456
Si10 Si8 2.357609 1_556
Si11 Si6 2.357595 1_566
Si11 Si7 2.357609 1_556
Rh0 Si0 2.399854 1_555
Rh0 Si1 2.399854 1_555
Rh0 Si2 2.399854 1_555
Rh1 Si3 2.399854 1_555
Rh1 Si5 2.399854 1_555
Rh1 Si4 2.399854 1_555
Rh2 Si6 2.399854 1_556
Rh2 Si8 2.399854 1_556
Rh2 Si7 2.399854 1_556
Rh3 Si9 2.399854 1_554
Rh3 Si11 2.399854 1_554
Rh3 Si10 2.399854 1_554
