# generated using pymatgen
data_Y5Si3H
_symmetry_space_group_name_H-M   'P 1'
_cell_length_a   8.47479272
_cell_length_b   8.47479272
_cell_length_c   6.24801400
_cell_angle_alpha   90.00000000
_cell_angle_beta   90.00000000
_cell_angle_gamma   120.00000565
_symmetry_Int_Tables_number   1
_chemical_formula_structural   Y5Si3H
_chemical_formula_sum   'Y10 Si6 H2'
_cell_volume   388.62503224
_cell_formula_units_Z   2
loop_
 _symmetry_equiv_pos_site_id
 _symmetry_equiv_pos_as_xyz
  1  'x, y, z'
loop_
 _atom_site_type_symbol
 _atom_site_label
 _atom_site_symmetry_multiplicity
 _atom_site_fract_x
 _atom_site_fract_y
 _atom_site_fract_z
 _atom_site_occupancy
  Y  Y0  1  0.66666700  0.33333300  0.00000000  1
  Y  Y1  1  0.33333300  0.66666700  0.00000000  1
  Y  Y2  1  0.33333300  0.66666700  0.50000000  1
  Y  Y3  1  0.66666700  0.33333300  0.50000000  1
  Y  Y4  1  0.74991800  0.74991800  0.75000000  1
  Y  Y5  1  0.25008200  0.00000000  0.75000000  1
  Y  Y6  1  0.00000000  0.25008200  0.75000000  1
  Y  Y7  1  0.25008200  0.25008200  0.25000000  1
  Y  Y8  1  0.74991800  0.00000000  0.25000000  1
  Y  Y9  1  0.00000000  0.74991800  0.25000000  1
  Si  Si0  1  0.38883300  0.38883300  0.75000000  1
  Si  Si1  1  0.61116700  0.00000000  0.75000000  1
  Si  Si2  1  0.00000000  0.61116700  0.75000000  1
  Si  Si3  1  0.61116700  0.61116700  0.25000000  1
  Si  Si4  1  0.38883300  0.00000000  0.25000000  1
  Si  Si5  1  0.00000000  0.38883300  0.25000000  1
  H  H0  1  0.00000000  0.00000000  0.50000000  1
  H  H1  1  0.00000000  0.00000000  0.00000000  1
loop_
_geom_bond_atom_site_label_1
_geom_bond_atom_site_label_2
_geom_bond_distance
_geom_bond_site_symmetry_2
Si0 Y5 2.892525 1_555
Si0 Y6 2.892525 1_555
Si0 Y1 3.051662 1_556
Si0 Y0 3.051662 1_556
Si0 Y2 3.051662 1_555
Si0 Y3 3.051662 1_555
Si0 Y4 3.060120 1_555
Si0 Y7 3.337983 1_555
Si0 Y7 3.337983 1_556
Si1 Y6 2.892525 1_655
Si1 Y4 2.892525 1_545
Si1 Y0 3.051655 1_556
Si1 Y3 3.051655 1_555
Si1 Y1 3.051657 1_546
Si1 Y2 3.051657 1_545
Si1 Y5 3.060121 1_555
Si1 Y8 3.337983 1_556
Si1 Y8 3.337983 1_555
Si2 Y5 2.892525 1_565
Si2 Y4 2.892525 1_455
Si2 Y1 3.051655 1_556
Si2 Y2 3.051655 1_555
Si2 Y3 3.051657 1_455
Si2 Y0 3.051657 1_456
Si2 Y6 3.060121 1_555
Si2 Y9 3.337983 1_555
Si2 Y9 3.337983 1_556
Si3 Y9 2.892525 1_655
Si3 Y8 2.892525 1_565
Si3 Y1 3.051662 1_555
Si3 Y2 3.051662 1_555
Si3 Y3 3.051662 1_555
Si3 Y0 3.051662 1_555
Si3 Y7 3.060120 1_555
Si3 Y4 3.337983 1_554
Si3 Y4 3.337983 1_555
Si4 Y9 2.892525 1_545
Si4 Y7 2.892525 1_555
Si4 Y1 3.051655 1_545
Si4 Y2 3.051655 1_545
Si4 Y3 3.051657 1_555
Si4 Y0 3.051657 1_555
Si4 Y8 3.060121 1_555
Si4 Y5 3.337983 1_554
Si4 Y5 3.337983 1_555
Si5 Y8 2.892525 1_455
Si5 Y7 2.892525 1_555
Si5 Y3 3.051655 1_455
Si5 Y0 3.051655 1_455
Si5 Y2 3.051657 1_555
Si5 Y1 3.051657 1_555
Si5 Y9 3.060121 1_555
Si5 Y6 3.337983 1_554
Si5 Y6 3.337983 1_555
H0 Y7 2.632809 1_555
H0 Y4 2.632809 1_445
H0 Y6 2.632809 1_555
H0 Y5 2.632809 1_555
H0 Y9 2.632809 1_545
H0 Y8 2.632809 1_455
H1 Y7 2.632809 1_555
H1 Y4 2.632809 1_444
H1 Y6 2.632809 1_554
H1 Y5 2.632809 1_554
H1 Y9 2.632809 1_545
H1 Y8 2.632809 1_455
