# generated using pymatgen
data_ZnGaAsSe
_symmetry_space_group_name_H-M   'P 1'
_cell_length_a   7.04173437
_cell_length_b   7.04173437
_cell_length_c   7.04173488
_cell_angle_alpha   33.48949652
_cell_angle_beta   33.48949652
_cell_angle_gamma   33.48950506
_symmetry_Int_Tables_number   1
_chemical_formula_structural   ZnGaAsSe
_chemical_formula_sum   'Zn1 Ga1 As1 Se1'
_cell_volume   94.68298356
_cell_formula_units_Z   1
loop_
 _symmetry_equiv_pos_site_id
 _symmetry_equiv_pos_as_xyz
  1  'x, y, z'
loop_
 _atom_site_type_symbol
 _atom_site_label
 _atom_site_symmetry_multiplicity
 _atom_site_fract_x
 _atom_site_fract_y
 _atom_site_fract_z
 _atom_site_occupancy
  Zn  Zn0  1  0.00187300  0.00187300  0.00187300  1
  Ga  Ga0  1  0.49839800  0.49839800  0.49839800  1
  As  As0  1  0.12545600  0.12545600  0.12545600  1
  Se  Se0  1  0.62427400  0.62427400  0.62427400  1
loop_
_geom_bond_atom_site_label_1
_geom_bond_atom_site_label_2
_geom_bond_distance
_geom_bond_site_symmetry_2
Ga0 Se0 2.507691 1_555
As0 Zn0 2.462010 1_555
As0 Ga0 2.471962 1_554
As0 Ga0 2.471963 1_545
As0 Ga0 2.471963 1_455
Se0 Zn0 2.503122 1_665
Se0 Zn0 2.503123 1_566
Se0 Zn0 2.503123 1_656
