# generated using pymatgen
data_SrInPd
_symmetry_space_group_name_H-M   'P 1'
_cell_length_a   4.59651928
_cell_length_b   7.62533349
_cell_length_c   8.55309727
_cell_angle_alpha   90.00007748
_cell_angle_beta   90.00000000
_cell_angle_gamma   90.00000000
_symmetry_Int_Tables_number   1
_chemical_formula_structural   SrInPd
_chemical_formula_sum   'Sr4 In4 Pd4'
_cell_volume   299.78599434
_cell_formula_units_Z   4
loop_
 _symmetry_equiv_pos_site_id
 _symmetry_equiv_pos_as_xyz
  1  'x, y, z'
loop_
 _atom_site_type_symbol
 _atom_site_label
 _atom_site_symmetry_multiplicity
 _atom_site_fract_x
 _atom_site_fract_y
 _atom_site_fract_z
 _atom_site_occupancy
  Sr  Sr0  1  0.25000000  0.03136238  0.32064420  1
  Sr  Sr1  1  0.25000000  0.53136365  0.17935636  1
  Sr  Sr2  1  0.75000000  0.96863762  0.67935580  1
  Sr  Sr3  1  0.75000000  0.46863635  0.82064364  1
  In  In0  1  0.25000000  0.14423160  0.93626177  1
  In  In1  1  0.25000000  0.64422973  0.56373597  1
  In  In2  1  0.75000000  0.85576840  0.06373823  1
  In  In3  1  0.75000000  0.35577027  0.43626403  1
  Pd  Pd0  1  0.25000000  0.27904817  0.62230020  1
  Pd  Pd1  1  0.25000000  0.77904800  0.87770347  1
  Pd  Pd2  1  0.75000000  0.72095183  0.37769980  1
  Pd  Pd3  1  0.75000000  0.22095200  0.12229653  1
loop_
_geom_bond_atom_site_label_1
_geom_bond_atom_site_label_2
_geom_bond_distance
_geom_bond_site_symmetry_2
In0 Pd1 2.829330 1_545
In0 Pd3 2.855884 1_556
In0 Pd3 2.855884 1_456
In0 Pd0 2.875397 1_555
In0 Sr0 3.398450 1_556
In0 Sr2 3.450090 1_545
In0 Sr2 3.450090 1_445
In0 Sr3 3.518391 1_455
In0 Sr3 3.518391 1_555
In0 Sr1 3.610744 1_556
In1 Pd0 2.829325 1_555
In1 Pd2 2.855894 1_555
In1 Pd2 2.855894 1_455
In1 Pd1 2.875446 1_555
In1 Sr1 3.398418 1_555
In1 Sr3 3.450100 1_455
In1 Sr3 3.450100 1_555
In1 Sr2 3.518410 1_455
In1 Sr2 3.518410 1_555
In1 Sr0 3.610739 1_565
In2 Pd3 2.829330 1_565
In2 Pd1 2.855884 1_654
In2 Pd1 2.855884 1_554
In2 Pd2 2.875397 1_555
In2 Sr2 3.398450 1_554
In2 Sr0 3.450090 1_665
In2 Sr0 3.450090 1_565
In2 Sr1 3.518391 1_555
In2 Sr1 3.518391 1_655
In2 Sr3 3.610744 1_554
In3 Pd2 2.829325 1_555
In3 Pd0 2.855894 1_655
In3 Pd0 2.855894 1_555
In3 Pd3 2.875446 1_555
In3 Sr3 3.398418 1_555
In3 Sr1 3.450100 1_555
In3 Sr1 3.450100 1_655
In3 Sr0 3.518410 1_555
In3 Sr0 3.518410 1_655
In3 Sr2 3.610739 1_545
Pd0 Sr0 3.197500 1_555
Pd0 Sr3 3.201548 1_555
Pd0 Sr3 3.201548 1_455
Pd0 Sr2 3.335080 1_445
Pd0 Sr2 3.335080 1_545
Pd1 Sr1 3.197476 1_556
Pd1 Sr2 3.201574 1_455
Pd1 Sr2 3.201574 1_555
Pd1 Sr3 3.335090 1_555
Pd1 Sr3 3.335090 1_455
Pd2 Sr2 3.197500 1_555
Pd2 Sr1 3.201548 1_655
Pd2 Sr1 3.201548 1_555
Pd2 Sr0 3.335080 1_565
Pd2 Sr0 3.335080 1_665
Pd3 Sr3 3.197476 1_554
Pd3 Sr0 3.201574 1_655
Pd3 Sr0 3.201574 1_555
Pd3 Sr1 3.335090 1_655
Pd3 Sr1 3.335090 1_555
