# generated using pymatgen
data_KFe11O17
_symmetry_space_group_name_H-M   'P 1'
_cell_length_a   5.99081740
_cell_length_b   5.99081740
_cell_length_c   24.05905939
_cell_angle_alpha   89.89804699
_cell_angle_beta   89.89804699
_cell_angle_gamma   120.00688433
_symmetry_Int_Tables_number   1
_chemical_formula_structural   KFe11O17
_chemical_formula_sum   'K2 Fe22 O34'
_cell_volume   747.73646027
_cell_formula_units_Z   2
loop_
 _symmetry_equiv_pos_site_id
 _symmetry_equiv_pos_as_xyz
  1  'x, y, z'
loop_
 _atom_site_type_symbol
 _atom_site_label
 _atom_site_symmetry_multiplicity
 _atom_site_fract_x
 _atom_site_fract_y
 _atom_site_fract_z
 _atom_site_occupancy
  K  K0  1  0.66620500  0.33379500  0.50000000  1
  K  K1  1  0.33362000  0.66638000  0.00000000  1
  Fe  Fe0  1  0.83212700  0.16887100  0.35523100  1
  Fe  Fe1  1  0.83112900  0.16787300  0.64476900  1
  Fe  Fe2  1  0.66546100  0.33545300  0.92433200  1
  Fe  Fe3  1  0.66745800  0.33607000  0.77542100  1
  Fe  Fe4  1  0.00012100  0.00084100  0.74960500  1
  Fe  Fe5  1  0.66454700  0.33453900  0.07566800  1
  Fe  Fe6  1  0.99915900  0.99987900  0.25039500  1
  Fe  Fe7  1  0.33594400  0.16864400  0.35507400  1
  Fe  Fe8  1  0.33554100  0.16941200  0.64315200  1
  Fe  Fe9  1  0.66393000  0.33254200  0.22457900  1
  Fe  Fe10  1  0.83058800  0.66445900  0.35684800  1
  Fe  Fe11  1  0.83135600  0.66405600  0.64492600  1
  Fe  Fe12  1  0.16573600  0.33389000  0.85158200  1
  Fe  Fe13  1  0.17116700  0.33748600  0.14151200  1
  Fe  Fe14  1  0.66251400  0.82883300  0.85848800  1
  Fe  Fe15  1  0.33270100  0.66629500  0.42423900  1
  Fe  Fe16  1  0.66611000  0.83426400  0.14841800  1
  Fe  Fe17  1  0.33370500  0.66729900  0.57576100  1
  Fe  Fe18  1  0.33226300  0.66577500  0.72473400  1
  Fe  Fe19  1  0.33422500  0.66773700  0.27526600  1
  Fe  Fe20  1  0.16495400  0.83020200  0.85684600  1
  Fe  Fe21  1  0.16979800  0.83504600  0.14315400  1
  O  O0  1  0.85009300  0.16389100  0.80121500  1
  O  O1  1  0.83610900  0.14990700  0.19878500  1
  O  O2  1  0.50342100  0.00839500  0.39622300  1
  O  O3  1  0.50402900  0.00895000  0.60309200  1
  O  O4  1  0.66611200  0.33388800  0.00000000  1
  O  O5  1  0.00457100  0.01056800  0.89162600  1
  O  O6  1  0.31251700  0.16398700  0.80112900  1
  O  O7  1  0.98943200  0.99542900  0.10837400  1
  O  O8  1  0.00010200  0.00072500  0.39268500  1
  O  O9  1  0.31213500  0.15699600  0.19812000  1
  O  O10  1  0.99927500  0.99989800  0.60731500  1
  O  O11  1  0.99160500  0.49657900  0.60377700  1
  O  O12  1  0.99105000  0.49597100  0.39690800  1
  O  O13  1  0.66700800  0.33416600  0.30378300  1
  O  O14  1  0.66583400  0.33299200  0.69621700  1
  O  O15  1  0.15600300  0.31477600  0.29940900  1
  O  O16  1  0.15666000  0.31438100  0.69847400  1
  O  O17  1  0.50380600  0.49583700  0.39598400  1
  O  O18  1  0.50416300  0.49619400  0.60401600  1
  O  O19  1  0.50563600  0.51519500  0.10314600  1
  O  O20  1  0.48480500  0.49436400  0.89685400  1
  O  O21  1  0.84300400  0.68786500  0.80188000  1
  O  O22  1  0.83601300  0.68748300  0.19887100  1
  O  O23  1  0.33063800  0.66215900  0.80544100  1
  O  O24  1  0.33784100  0.66936200  0.19455900  1
  O  O25  1  0.00693000  0.50433400  0.10243000  1
  O  O26  1  0.00736900  0.49660900  0.89552300  1
  O  O27  1  0.68561900  0.84334000  0.30152600  1
  O  O28  1  0.68522400  0.84399700  0.70059100  1
  O  O29  1  0.33429100  0.66570900  0.50000000  1
  O  O30  1  0.49566600  0.99307000  0.89757000  1
  O  O31  1  0.50339100  0.99263100  0.10447700  1
  O  O32  1  0.15666000  0.84329900  0.29955500  1
  O  O33  1  0.15670100  0.84334000  0.70044500  1
loop_
_geom_bond_atom_site_label_1
_geom_bond_atom_site_label_2
_geom_bond_distance
_geom_bond_site_symmetry_2
K0 O3 2.994356 1_555
K0 O12 2.994356 1_555
K0 O18 3.015997 1_555
K0 O17 3.015997 1_555
K0 O11 3.018218 1_555
K0 O2 3.018218 1_555
K1 O25 2.986620 1_555
K1 O30 2.986620 1_554
K1 O20 2.995876 1_554
K1 O19 2.995876 1_555
K1 O31 3.034982 1_555
K1 O26 3.034982 1_554
Fe0 O8 1.962973 1_655
Fe0 O2 1.967453 1_555
Fe0 O12 1.973882 1_555
Fe0 O13 2.114472 1_555
Fe0 O27 2.131686 1_545
Fe0 O15 2.150037 1_655
Fe1 O10 1.962973 1_545
Fe1 O11 1.967453 1_555
Fe1 O3 1.973882 1_555
Fe1 O14 2.114472 1_555
Fe1 O16 2.131686 1_655
Fe1 O28 2.150037 1_545
Fe2 O4 1.820530 1_556
Fe2 O20 1.882961 1_555
Fe2 O30 1.891205 1_545
Fe2 O26 1.903336 1_655
Fe3 O14 1.905691 1_555
Fe3 O21 1.934742 1_555
Fe3 O6 1.940961 1_555
Fe3 O0 1.942984 1_555
Fe4 O33 2.013558 1_545
Fe4 O28 2.017727 1_445
Fe4 O16 2.036367 1_555
Fe4 O6 2.043888 1_555
Fe4 O0 2.045049 1_455
Fe4 O21 2.050729 1_445
Fe5 O4 1.820530 1_555
Fe5 O19 1.882961 1_555
Fe5 O25 1.891205 1_655
Fe5 O31 1.903336 1_545
Fe6 O32 2.013558 1_655
Fe6 O15 2.017727 1_665
Fe6 O27 2.036367 1_555
Fe6 O22 2.043888 1_555
Fe6 O1 2.045049 1_565
Fe6 O9 2.050729 1_665
Fe7 O8 1.960788 1_555
Fe7 O17 1.964954 1_555
Fe7 O2 1.967735 1_555
Fe7 O13 2.111766 1_555
Fe7 O32 2.158059 1_545
Fe7 O15 2.160314 1_555
Fe8 O18 1.936906 1_555
Fe8 O10 1.948338 1_445
Fe8 O3 1.960158 1_555
Fe8 O14 2.139998 1_555
Fe8 O16 2.145732 1_555
Fe8 O33 2.180747 1_545
Fe9 O13 1.905691 1_555
Fe9 O9 1.934742 1_555
Fe9 O22 1.940961 1_555
Fe9 O1 1.942984 1_555
Fe10 O17 1.936906 1_555
Fe10 O8 1.948338 1_665
Fe10 O12 1.960158 1_555
Fe10 O13 2.139998 1_555
Fe10 O27 2.145732 1_555
Fe10 O32 2.180747 1_655
Fe11 O10 1.960788 1_555
Fe11 O18 1.964954 1_555
Fe11 O11 1.967735 1_555
Fe11 O14 2.111766 1_555
Fe11 O33 2.158059 1_655
Fe11 O28 2.160314 1_555
Fe12 O5 1.931765 1_555
Fe12 O26 1.973112 1_555
Fe12 O20 1.984307 1_555
Fe12 O23 2.030005 1_555
Fe12 O0 2.041490 1_455
Fe12 O6 2.044146 1_555
Fe13 O7 1.948746 1_445
Fe13 O25 1.958302 1_555
Fe13 O19 1.963842 1_555
Fe13 O24 2.146333 1_555
Fe13 O9 2.156257 1_555
Fe13 O1 2.217918 1_455
Fe14 O5 1.948746 1_665
Fe14 O30 1.958302 1_555
Fe14 O20 1.963842 1_555
Fe14 O23 2.146333 1_555
Fe14 O21 2.156257 1_555
Fe14 O0 2.217918 1_565
Fe15 O29 1.822787 1_555
Fe15 O12 1.892375 1_455
Fe15 O2 1.896506 1_565
Fe15 O17 1.898066 1_555
Fe16 O7 1.931765 1_555
Fe16 O31 1.973112 1_555
Fe16 O19 1.984307 1_555
Fe16 O24 2.030005 1_555
Fe16 O1 2.041490 1_565
Fe16 O22 2.044146 1_555
Fe17 O29 1.822787 1_555
Fe17 O3 1.892375 1_565
Fe17 O11 1.896506 1_455
Fe17 O18 1.898066 1_555
Fe18 O28 1.919341 1_555
Fe18 O33 1.923096 1_555
Fe18 O16 1.931191 1_555
Fe18 O23 1.941770 1_555
Fe19 O15 1.919341 1_555
Fe19 O32 1.923096 1_555
Fe19 O27 1.931191 1_555
Fe19 O24 1.941770 1_555
Fe20 O5 1.956968 1_565
Fe20 O26 1.963233 1_555
Fe20 O30 1.978401 1_555
Fe20 O23 2.127858 1_555
Fe20 O21 2.136370 1_455
Fe20 O6 2.189785 1_565
Fe21 O7 1.956968 1_455
Fe21 O31 1.963233 1_555
Fe21 O25 1.978401 1_555
Fe21 O24 2.127858 1_555
Fe21 O9 2.136370 1_565
Fe21 O22 2.189785 1_455
