# generated using pymatgen
data_Tl2NiP4(HO2)8
_symmetry_space_group_name_H-M   'P 1'
_cell_length_a   7.06322528
_cell_length_b   7.45435284
_cell_length_c   7.72314762
_cell_angle_alpha   82.25250014
_cell_angle_beta   73.08388938
_cell_angle_gamma   86.65682448
_symmetry_Int_Tables_number   1
_chemical_formula_structural   Tl2NiP4(HO2)8
_chemical_formula_sum   'Tl2 Ni1 P4 H8 O16'
_cell_volume   385.41350539
_cell_formula_units_Z   1
loop_
 _symmetry_equiv_pos_site_id
 _symmetry_equiv_pos_as_xyz
  1  'x, y, z'
loop_
 _atom_site_type_symbol
 _atom_site_label
 _atom_site_symmetry_multiplicity
 _atom_site_fract_x
 _atom_site_fract_y
 _atom_site_fract_z
 _atom_site_occupancy
  Tl  Tl0  1  0.89682000  0.28798700  0.20551800  1
  Tl  Tl1  1  0.10318000  0.71201300  0.79448200  1
  Ni  Ni0  1  0.50000000  0.50000000  0.00000000  1
  P  P0  1  0.24607900  0.79854800  0.25115100  1
  P  P1  1  0.75392100  0.20145200  0.74884900  1
  P  P2  1  0.65421900  0.73556600  0.26410500  1
  P  P3  1  0.34578100  0.26443400  0.73589500  1
  H  H0  1  0.93205100  0.73298800  0.41336500  1
  H  H1  1  0.06794900  0.26701200  0.58663500  1
  H  H2  1  0.73191300  0.96565700  0.04366200  1
  H  H3  1  0.26808700  0.03434300  0.95633800  1
  H  H4  1  0.37943000  0.31519500  0.33969500  1
  H  H5  1  0.62057000  0.68480500  0.66030500  1
  H  H6  1  0.39111100  0.17896100  0.19442800  1
  H  H7  1  0.60888900  0.82103900  0.80557200  1
  O  O0  1  0.26813700  0.99044500  0.15088300  1
  O  O1  1  0.73186300  0.00955500  0.84911700  1
  O  O2  1  0.06231500  0.78324600  0.42475100  1
  O  O3  1  0.93768500  0.21675400  0.57524900  1
  O  O4  1  0.25339900  0.64883700  0.13468300  1
  O  O5  1  0.74660100  0.35116300  0.86531700  1
  O  O6  1  0.41884800  0.76514200  0.35439600  1
  O  O7  1  0.58115200  0.23485800  0.64560400  1
  O  O8  1  0.73569900  0.66891700  0.42290900  1
  O  O9  1  0.26430100  0.33108300  0.57709100  1
  O  O10  1  0.74045400  0.92814500  0.17627900  1
  O  O11  1  0.25954600  0.07185500  0.82372100  1
  O  O12  1  0.68663000  0.61095000  0.11766000  1
  O  O13  1  0.31337000  0.38905000  0.88234000  1
  O  O14  1  0.45076000  0.28903800  0.21458800  1
  O  O15  1  0.54924000  0.71096200  0.78541200  1
loop_
_geom_bond_atom_site_label_1
_geom_bond_atom_site_label_2
_geom_bond_distance
_geom_bond_site_symmetry_2
Ni0 O13 2.067445 1_554
Ni0 O12 2.067445 1_555
Ni0 O15 2.089567 1_554
Ni0 O14 2.089567 1_555
Ni0 O5 2.092413 1_554
Ni0 O4 2.092413 1_555
H0 O2 1.044420 1_655
H0 O8 1.471478 1_555
H1 O3 1.044420 1_455
H1 O9 1.471478 1_555
H2 O10 1.042895 1_555
H2 O1 1.494095 1_564
H3 O11 1.042895 1_555
H3 O0 1.494095 1_546
H4 O14 0.990697 1_555
H5 O15 0.990697 1_555
H6 O14 0.993980 1_555
H7 O15 0.993980 1_555
O0 P0 1.525551 1_555
O1 P1 1.525551 1_555
O2 P0 1.568001 1_555
O3 P1 1.568001 1_555
O4 P0 1.514623 1_555
O5 P1 1.514623 1_555
O6 P2 1.619497 1_555
O6 P0 1.632252 1_555
O7 P3 1.619497 1_555
O7 P1 1.632252 1_555
O8 P2 1.515056 1_555
O9 P3 1.515056 1_555
O10 P2 1.578263 1_555
O11 P3 1.578263 1_555
O12 P2 1.517336 1_555
O13 P3 1.517336 1_555
