# generated using pymatgen
data_LiFe8(O7F)2
_symmetry_space_group_name_H-M   'P 1'
_cell_length_a   7.25709522
_cell_length_b   7.33781311
_cell_length_c   5.61566760
_cell_angle_alpha   109.86592501
_cell_angle_beta   109.42098376
_cell_angle_gamma   79.45579967
_symmetry_Int_Tables_number   1
_chemical_formula_structural   LiFe8(O7F)2
_chemical_formula_sum   'Li1 Fe8 O14 F2'
_cell_volume   264.41534338
_cell_formula_units_Z   1
loop_
 _symmetry_equiv_pos_site_id
 _symmetry_equiv_pos_as_xyz
  1  'x, y, z'
loop_
 _atom_site_type_symbol
 _atom_site_label
 _atom_site_symmetry_multiplicity
 _atom_site_fract_x
 _atom_site_fract_y
 _atom_site_fract_z
 _atom_site_occupancy
  Li  Li0  1  0.74497896  0.73824326  0.97283886  1
  Fe  Fe0  1  0.75349661  0.23774313  0.50375853  1
  Fe  Fe1  1  0.49621027  0.01644699  0.98429864  1
  Fe  Fe2  1  0.24875579  0.26256166  0.52546194  1
  Fe  Fe3  1  0.74806438  0.76572141  0.48285694  1
  Fe  Fe4  1  0.50469488  0.49448239  0.01284295  1
  Fe  Fe5  1  0.99188303  0.00270444  0.00115994  1
  Fe  Fe6  1  0.24790280  0.75560301  0.50404999  1
  Fe  Fe7  1  0.02727359  0.48097387  0.03221408  1
  O  O0  1  0.98298799  0.18263913  0.35142996  1
  O  O1  1  0.93498293  0.22699000  0.84868776  1
  O  O2  1  0.57185112  0.27188176  0.16571833  1
  O  O3  1  0.31514669  0.03028132  0.65654635  1
  O  O4  1  0.52670000  0.32429391  0.67296800  1
  O  O5  1  0.77654052  0.56368976  0.16408503  1
  O  O6  1  0.72026249  0.93270252  0.81469762  1
  O  O7  1  0.23704587  0.43591282  0.87085436  1
  O  O8  1  0.48531894  0.68058247  0.34341973  1
  O  O9  1  0.67824246  0.96816008  0.29920874  1
  O  O10  1  0.19291811  0.48077893  0.37618436  1
  O  O11  1  0.43908503  0.74663093  0.84743859  1
  O  O12  1  0.06035397  0.76759724  0.15725828  1
  O  O13  1  0.01599249  0.82473700  0.65424119  1
  F  F0  1  0.82024086  0.53102176  0.67820215  1
  F  F1  1  0.27536421  0.07391521  0.16290967  1
loop_
_geom_bond_atom_site_label_1
_geom_bond_atom_site_label_2
_geom_bond_distance
_geom_bond_site_symmetry_2
Li0 O5 1.873603 1_556
Li0 O6 1.875774 1_555
Li0 O11 2.089860 1_555
Li0 O9 2.151669 1_556
Li0 O12 2.193096 1_656
Fe0 O1 1.965240 1_555
Fe0 O2 1.985518 1_555
Fe0 O9 1.991151 1_545
Fe0 O0 2.033426 1_555
Fe0 O4 2.064593 1_555
Fe1 O2 1.886592 1_556
Fe1 O3 1.895879 1_555
Fe1 O9 1.923274 1_546
Fe1 O11 1.933063 1_545
Fe1 O6 2.048143 1_545
Fe2 O7 1.944367 1_555
Fe2 O0 1.946762 1_455
Fe2 O10 1.969724 1_555
Fe2 O4 1.981961 1_555
Fe2 O3 1.998854 1_555
Fe3 O6 1.903259 1_555
Fe3 O13 1.916993 1_655
Fe3 O8 1.936439 1_555
Fe3 O5 1.942989 1_555
Fe3 O9 1.986233 1_555
Fe4 O7 1.906803 1_554
Fe4 O8 1.926446 1_555
Fe4 O4 1.933301 1_554
Fe4 O5 1.957162 1_555
Fe4 O2 2.006488 1_555
Fe4 O11 2.250396 1_554
Fe5 O6 1.969322 1_544
Fe5 O0 1.976027 1_555
Fe5 O13 1.986290 1_644
Fe5 O1 2.021402 1_554
Fe5 O12 2.101417 1_645
Fe6 O10 1.965033 1_555
Fe6 O11 1.980275 1_555
Fe6 O3 1.985668 1_565
Fe6 O12 1.990681 1_555
Fe6 O13 2.035164 1_555
Fe6 O8 2.105760 1_555
Fe7 O10 1.906121 1_555
Fe7 O1 1.917410 1_454
Fe7 O7 1.943563 1_554
Fe7 O12 2.010739 1_555
Fe7 O5 2.100984 1_455
F0 Li0 1.983725 1_555
F0 Fe0 2.111547 1_555
F0 Fe7 2.156934 1_656
F0 Fe3 2.239508 1_555
F1 Fe5 2.039251 1_455
F1 Fe1 2.070445 1_554
F1 Fe2 2.084902 1_555
