# generated using pymatgen
data_SrCeMg6
_symmetry_space_group_name_H-M   'P 1'
_cell_length_a   6.81270556
_cell_length_b   6.81270556
_cell_length_c   5.43597500
_cell_angle_alpha   90.00000000
_cell_angle_beta   90.00000000
_cell_angle_gamma   117.44827671
_symmetry_Int_Tables_number   1
_chemical_formula_structural   SrCeMg6
_chemical_formula_sum   'Sr1 Ce1 Mg6'
_cell_volume   223.89762121
_cell_formula_units_Z   1
loop_
 _symmetry_equiv_pos_site_id
 _symmetry_equiv_pos_as_xyz
  1  'x, y, z'
loop_
 _atom_site_type_symbol
 _atom_site_label
 _atom_site_symmetry_multiplicity
 _atom_site_fract_x
 _atom_site_fract_y
 _atom_site_fract_z
 _atom_site_occupancy
  Sr  Sr0  1  0.65513800  0.34486200  0.50000000  1
  Ce  Ce0  1  0.84872000  0.15128000  0.00000000  1
  Mg  Mg0  1  0.84247900  0.67291800  0.00000000  1
  Mg  Mg1  1  0.32708200  0.15752100  0.00000000  1
  Mg  Mg2  1  0.34062800  0.65937200  0.00000000  1
  Mg  Mg3  1  0.66570400  0.84120200  0.50000000  1
  Mg  Mg4  1  0.15879800  0.33429600  0.50000000  1
  Mg  Mg5  1  0.16145300  0.83854700  0.50000000  1
loop_
_geom_bond_atom_site_label_1
_geom_bond_atom_site_label_2
_geom_bond_distance
_geom_bond_site_symmetry_2
Ce0 Mg1 3.239561 1_655
Ce0 Mg0 3.239561 1_545
Ce0 Mg4 3.313065 1_655
Ce0 Mg4 3.313065 1_654
Ce0 Mg3 3.313065 1_544
Ce0 Mg3 3.313065 1_545
Ce0 Sr0 3.531210 1_555
Ce0 Sr0 3.531210 1_554
Ce0 Mg2 3.538133 1_655
Ce0 Mg2 3.538133 1_545
Ce0 Mg1 3.573564 1_555
Ce0 Mg0 3.573564 1_555
Mg0 Mg5 3.335029 1_654
Mg0 Mg5 3.335029 1_655
Mg0 Sr0 3.373680 1_554
Mg0 Sr0 3.373680 1_555
Mg0 Mg2 3.377418 1_555
Mg0 Mg3 3.380103 1_555
Mg0 Mg3 3.380103 1_554
Mg0 Mg1 3.427963 1_665
Mg0 Mg2 3.437257 1_655
Mg1 Mg5 3.335029 1_544
Mg1 Mg5 3.335029 1_545
Mg1 Sr0 3.373680 1_554
Mg1 Sr0 3.373680 1_555
Mg1 Mg2 3.377418 1_555
Mg1 Mg4 3.380103 1_555
Mg1 Mg4 3.380103 1_554
Mg1 Mg2 3.437257 1_545
Mg2 Mg3 3.361175 1_555
Mg2 Mg3 3.361175 1_554
Mg2 Mg4 3.361175 1_554
Mg2 Mg4 3.361175 1_555
Mg2 Mg5 3.426537 1_555
Mg2 Mg5 3.426537 1_554
Mg3 Sr0 3.348847 1_555
Mg3 Mg5 3.385768 1_655
Mg3 Mg5 3.427014 1_555
Mg3 Sr0 3.465057 1_565
Mg4 Sr0 3.348847 1_555
Mg4 Mg5 3.385768 1_545
Mg4 Mg5 3.427014 1_555
Mg4 Sr0 3.465057 1_455
Mg5 Sr0 3.537642 1_455
Mg5 Sr0 3.537642 1_565
