# generated using pymatgen
data_MnZn(CrS2)4
_symmetry_space_group_name_H-M   'P 1'
_cell_length_a   7.13487996
_cell_length_b   7.13487996
_cell_length_c   7.13487996
_cell_angle_alpha   60.00000000
_cell_angle_beta   60.00000000
_cell_angle_gamma   60.00000000
_symmetry_Int_Tables_number   1
_chemical_formula_structural   MnZn(CrS2)4
_chemical_formula_sum   'Mn1 Zn1 Cr4 S8'
_cell_volume   256.82956358
_cell_formula_units_Z   1
loop_
 _symmetry_equiv_pos_site_id
 _symmetry_equiv_pos_as_xyz
  1  'x, y, z'
loop_
 _atom_site_type_symbol
 _atom_site_label
 _atom_site_symmetry_multiplicity
 _atom_site_fract_x
 _atom_site_fract_y
 _atom_site_fract_z
 _atom_site_occupancy
  Mn  Mn0  1  0.75000000  0.75000000  0.75000000  1
  Zn  Zn0  1  0.50000000  0.50000000  0.50000000  1
  Cr  Cr0  1  0.62420200  0.12526600  0.12526600  1
  Cr  Cr1  1  0.12526600  0.62420200  0.12526600  1
  Cr  Cr2  1  0.12526600  0.12526600  0.62420200  1
  Cr  Cr3  1  0.12526600  0.12526600  0.12526600  1
  S  S0  1  0.34295300  0.88568200  0.88568200  1
  S  S1  1  0.88568200  0.34295300  0.88568200  1
  S  S2  1  0.88568200  0.88568200  0.34295300  1
  S  S3  1  0.88568200  0.88568200  0.88568200  1
  S  S4  1  0.90621300  0.36459600  0.36459600  1
  S  S5  1  0.36459600  0.90621300  0.36459600  1
  S  S6  1  0.36459600  0.36459600  0.90621300  1
  S  S7  1  0.36459600  0.36459600  0.36459600  1
loop_
_geom_bond_atom_site_label_1
_geom_bond_atom_site_label_2
_geom_bond_distance
_geom_bond_site_symmetry_2
Mn0 S3 2.371289 1_555
Mn0 S1 2.371295 1_555
Mn0 S0 2.371295 1_555
Mn0 S2 2.371295 1_555
Cr0 S6 2.419223 1_554
Cr0 S5 2.419223 1_545
Cr0 S7 2.419227 1_555
Cr0 S1 2.422499 1_554
Cr0 S2 2.422499 1_545
Cr0 S3 2.422504 1_544
Cr1 S6 2.419223 1_554
Cr1 S4 2.419223 1_455
Cr1 S7 2.419227 1_555
Cr1 S0 2.422499 1_554
Cr1 S2 2.422499 1_455
Cr1 S3 2.422504 1_454
Cr2 S4 2.419223 1_455
Cr2 S5 2.419223 1_545
Cr2 S7 2.419227 1_555
Cr2 S0 2.422499 1_545
Cr2 S1 2.422499 1_455
Cr2 S3 2.422504 1_445
Cr3 S6 2.419228 1_554
Cr3 S5 2.419228 1_545
Cr3 S4 2.419228 1_455
Cr3 S1 2.422504 1_454
Cr3 S0 2.422504 1_544
Cr3 S2 2.422504 1_445
S4 Zn0 2.366437 1_555
S5 Zn0 2.366437 1_555
S6 Zn0 2.366437 1_555
S7 Zn0 2.366431 1_555
