# generated using pymatgen
data_Ac3Zn
_symmetry_space_group_name_H-M   'P 1'
_cell_length_a   7.66695319
_cell_length_b   7.66695319
_cell_length_c   5.79785300
_cell_angle_alpha   90.00000000
_cell_angle_beta   90.00000000
_cell_angle_gamma   119.99999302
_symmetry_Int_Tables_number   1
_chemical_formula_structural   Ac3Zn
_chemical_formula_sum   'Ac6 Zn2'
_cell_volume   295.15047452
_cell_formula_units_Z   2
loop_
 _symmetry_equiv_pos_site_id
 _symmetry_equiv_pos_as_xyz
  1  'x, y, z'
loop_
 _atom_site_type_symbol
 _atom_site_label
 _atom_site_symmetry_multiplicity
 _atom_site_fract_x
 _atom_site_fract_y
 _atom_site_fract_z
 _atom_site_occupancy
  Ac  Ac0  1  0.17604600  0.35209100  0.25000000  1
  Ac  Ac1  1  0.64790900  0.82395400  0.25000000  1
  Ac  Ac2  1  0.17604600  0.82395400  0.25000000  1
  Ac  Ac3  1  0.82395400  0.64790900  0.75000000  1
  Ac  Ac4  1  0.35209100  0.17604600  0.75000000  1
  Ac  Ac5  1  0.82395400  0.17604600  0.75000000  1
  Zn  Zn0  1  0.33333300  0.66666700  0.75000000  1
  Zn  Zn1  1  0.66666700  0.33333300  0.25000000  1
loop_
_geom_bond_atom_site_label_1
_geom_bond_atom_site_label_2
_geom_bond_distance
_geom_bond_site_symmetry_2
Ac0 Zn0 3.573024 1_554
Ac0 Zn0 3.573024 1_555
Ac0 Ac2 3.617752 1_555
Ac0 Ac1 3.617752 1_555
Ac0 Ac4 3.724121 1_555
Ac0 Ac4 3.724121 1_554
Ac0 Ac5 3.724130 1_454
Ac0 Ac5 3.724130 1_455
Ac0 Zn1 3.835499 1_555
Ac0 Zn1 3.835499 1_455
Ac0 Ac2 4.049202 1_545
Ac0 Ac1 4.049202 1_445
Ac1 Zn0 3.573024 1_554
Ac1 Zn0 3.573024 1_555
Ac1 Ac2 3.617752 1_555
Ac1 Ac3 3.724121 1_555
Ac1 Ac3 3.724121 1_554
Ac1 Ac5 3.724130 1_565
Ac1 Ac5 3.724130 1_564
Ac1 Zn1 3.835499 1_555
Ac1 Zn1 3.835499 1_565
Ac1 Ac2 4.049202 1_655
Ac2 Zn0 3.573016 1_554
Ac2 Zn0 3.573016 1_555
Ac2 Ac3 3.724130 1_455
Ac2 Ac3 3.724130 1_454
Ac2 Ac4 3.724130 1_565
Ac2 Ac4 3.724130 1_564
Ac2 Zn1 3.835500 1_455
Ac2 Zn1 3.835500 1_565
Ac3 Zn1 3.573024 1_556
Ac3 Zn1 3.573024 1_555
Ac3 Ac5 3.617752 1_555
Ac3 Ac4 3.617752 1_555
Ac3 Zn0 3.835499 1_555
Ac3 Zn0 3.835499 1_655
Ac3 Ac5 4.049202 1_565
Ac3 Ac4 4.049202 1_665
Ac4 Zn1 3.573024 1_556
Ac4 Zn1 3.573024 1_555
Ac4 Ac5 3.617752 1_555
Ac4 Zn0 3.835499 1_555
Ac4 Zn0 3.835499 1_545
Ac4 Ac5 4.049202 1_455
Ac5 Zn1 3.573016 1_556
Ac5 Zn1 3.573016 1_555
Ac5 Zn0 3.835500 1_545
Ac5 Zn0 3.835500 1_655
