# generated using pymatgen
data_Ba3InIr2O9
_symmetry_space_group_name_H-M   'P 1'
_cell_length_a   5.90307756
_cell_length_b   5.90307756
_cell_length_c   14.79761200
_cell_angle_alpha   90.00000000
_cell_angle_beta   90.00000000
_cell_angle_gamma   119.99999506
_symmetry_Int_Tables_number   1
_chemical_formula_structural   Ba3InIr2O9
_chemical_formula_sum   'Ba6 In2 Ir4 O18'
_cell_volume   446.55943309
_cell_formula_units_Z   2
loop_
 _symmetry_equiv_pos_site_id
 _symmetry_equiv_pos_as_xyz
  1  'x, y, z'
loop_
 _atom_site_type_symbol
 _atom_site_label
 _atom_site_symmetry_multiplicity
 _atom_site_fract_x
 _atom_site_fract_y
 _atom_site_fract_z
 _atom_site_occupancy
  Ba  Ba0  1  0.33333300  0.66666700  0.08754600  1
  Ba  Ba1  1  0.66666700  0.33333300  0.91245400  1
  Ba  Ba2  1  0.66666700  0.33333300  0.58754600  1
  Ba  Ba3  1  0.33333300  0.66666700  0.41245400  1
  Ba  Ba4  1  0.00000000  0.00000000  0.25000000  1
  Ba  Ba5  1  0.00000000  0.00000000  0.75000000  1
  In  In0  1  0.00000000  0.00000000  0.00000000  1
  In  In1  1  0.00000000  0.00000000  0.50000000  1
  Ir  Ir0  1  0.33333300  0.66666700  0.65950100  1
  Ir  Ir1  1  0.66666700  0.33333300  0.34049900  1
  Ir  Ir2  1  0.66666700  0.33333300  0.15950100  1
  Ir  Ir3  1  0.33333300  0.66666700  0.84049900  1
  O  O0  1  0.51624700  0.03249400  0.25000000  1
  O  O1  1  0.48375300  0.96750600  0.75000000  1
  O  O2  1  0.96750600  0.48375300  0.25000000  1
  O  O3  1  0.03249400  0.51624700  0.75000000  1
  O  O4  1  0.51624700  0.48375300  0.25000000  1
  O  O5  1  0.48375300  0.51624700  0.75000000  1
  O  O6  1  0.17129400  0.34258800  0.58401600  1
  O  O7  1  0.82870600  0.65741200  0.41598400  1
  O  O8  1  0.65741200  0.82870600  0.58401600  1
  O  O9  1  0.82870600  0.65741200  0.08401600  1
  O  O10  1  0.34258800  0.17129400  0.41598400  1
  O  O11  1  0.17129400  0.34258800  0.91598400  1
  O  O12  1  0.17129400  0.82870600  0.58401600  1
  O  O13  1  0.34258800  0.17129400  0.08401600  1
  O  O14  1  0.82870600  0.17129400  0.41598400  1
  O  O15  1  0.65741200  0.82870600  0.91598400  1
  O  O16  1  0.82870600  0.17129400  0.08401600  1
  O  O17  1  0.17129400  0.82870600  0.91598400  1
loop_
_geom_bond_atom_site_label_1
_geom_bond_atom_site_label_2
_geom_bond_distance
_geom_bond_site_symmetry_2
Ba0 O9 2.952377 1_455
Ba0 O13 2.952377 1_565
Ba0 O16 2.952380 1_455
Ba0 O16 2.952380 1_565
Ba0 O13 2.952383 1_555
Ba0 O9 2.952383 1_555
Ba0 O17 3.031481 1_554
Ba0 O11 3.031484 1_554
Ba0 O15 3.031484 1_554
Ba0 O0 3.045732 1_565
Ba0 O2 3.045732 1_455
Ba0 O4 3.045735 1_555
Ba1 O15 2.952377 1_545
Ba1 O11 2.952377 1_655
Ba1 O17 2.952380 1_545
Ba1 O17 2.952380 1_655
Ba1 O11 2.952383 1_555
Ba1 O15 2.952383 1_555
Ba1 O16 3.031481 1_556
Ba1 O9 3.031484 1_556
Ba1 O13 3.031484 1_556
Ba1 O3 3.045732 1_655
Ba1 O1 3.045732 1_545
Ba1 O5 3.045735 1_555
Ba2 O8 2.952377 1_545
Ba2 O6 2.952377 1_655
Ba2 O12 2.952380 1_545
Ba2 O12 2.952380 1_655
Ba2 O6 2.952383 1_555
Ba2 O8 2.952383 1_555
Ba2 O14 3.031481 1_555
Ba2 O7 3.031484 1_555
Ba2 O10 3.031484 1_555
Ba2 O3 3.045732 1_655
Ba2 O1 3.045732 1_545
Ba2 O5 3.045735 1_555
Ba3 O7 2.952377 1_455
Ba3 O10 2.952377 1_565
Ba3 O14 2.952380 1_455
Ba3 O14 2.952380 1_565
Ba3 O10 2.952383 1_555
Ba3 O7 2.952383 1_555
Ba3 O12 3.031481 1_555
Ba3 O6 3.031484 1_555
Ba3 O8 3.031484 1_555
Ba3 O0 3.045732 1_565
Ba3 O2 3.045732 1_455
Ba3 O4 3.045735 1_555
Ba4 O2 2.956210 1_455
Ba4 O0 2.956210 1_455
Ba4 O2 2.956210 1_445
Ba4 O0 2.956210 1_555
Ba4 O4 2.956210 1_555
Ba4 O4 2.956210 1_445
Ba4 O16 3.016637 1_455
Ba4 O14 3.016637 1_455
Ba4 O7 3.016637 1_445
Ba4 O13 3.016637 1_555
Ba4 O10 3.016637 1_555
Ba4 O9 3.016637 1_445
Ba5 O3 2.956210 1_545
Ba5 O1 2.956210 1_545
Ba5 O1 2.956210 1_445
Ba5 O3 2.956210 1_555
Ba5 O5 2.956210 1_555
Ba5 O5 2.956210 1_445
Ba5 O12 3.016637 1_545
Ba5 O17 3.016637 1_545
Ba5 O6 3.016637 1_555
Ba5 O15 3.016637 1_445
Ba5 O8 3.016637 1_445
Ba5 O11 3.016637 1_555
In0 O17 2.147785 1_544
In0 O16 2.147785 1_455
In0 O15 2.147785 1_444
In0 O9 2.147785 1_445
In0 O11 2.147785 1_554
In0 O13 2.147785 1_555
In1 O14 2.147785 1_455
In1 O12 2.147785 1_545
In1 O7 2.147785 1_445
In1 O8 2.147785 1_445
In1 O10 2.147785 1_555
In1 O6 2.147785 1_555
Ir0 O12 1.998131 1_555
Ir0 O6 1.998135 1_555
Ir0 O8 1.998135 1_555
Ir0 O3 2.039283 1_555
Ir0 O1 2.039283 1_555
Ir0 O5 2.039287 1_555
Ir1 O14 1.998131 1_555
Ir1 O10 1.998135 1_555
Ir1 O7 1.998135 1_555
Ir1 O0 2.039283 1_555
Ir1 O2 2.039283 1_555
Ir1 O4 2.039287 1_555
Ir2 O16 1.998131 1_555
Ir2 O13 1.998135 1_555
Ir2 O9 1.998135 1_555
Ir2 O0 2.039283 1_555
Ir2 O2 2.039283 1_555
Ir2 O4 2.039287 1_555
Ir3 O17 1.998131 1_555
Ir3 O11 1.998135 1_555
Ir3 O15 1.998135 1_555
Ir3 O3 2.039283 1_555
Ir3 O1 2.039283 1_555
Ir3 O5 2.039287 1_555
