# generated using pymatgen
data_BaMgMoF7
_symmetry_space_group_name_H-M   'P 1'
_cell_length_a   10.22487500
_cell_length_b   5.74529500
_cell_length_c   9.93765073
_cell_angle_alpha   87.18487011
_cell_angle_beta   90.00000000
_cell_angle_gamma   90.00000000
_symmetry_Int_Tables_number   1
_chemical_formula_structural   BaMgMoF7
_chemical_formula_sum   'Ba4 Mg4 Mo4 F28'
_cell_volume   583.08201705
_cell_formula_units_Z   4
loop_
 _symmetry_equiv_pos_site_id
 _symmetry_equiv_pos_as_xyz
  1  'x, y, z'
loop_
 _atom_site_type_symbol
 _atom_site_label
 _atom_site_symmetry_multiplicity
 _atom_site_fract_x
 _atom_site_fract_y
 _atom_site_fract_z
 _atom_site_occupancy
  Ba  Ba0  1  0.32776600  0.73198600  0.49660500  1
  Ba  Ba1  1  0.82776600  0.26801400  0.00339500  1
  Ba  Ba2  1  0.67223400  0.26801400  0.50339500  1
  Ba  Ba3  1  0.17223400  0.73198600  0.99660500  1
  Mg  Mg0  1  0.39261500  0.31129600  0.80988700  1
  Mg  Mg1  1  0.89261500  0.68870400  0.69011300  1
  Mg  Mg2  1  0.10738500  0.31129600  0.30988700  1
  Mg  Mg3  1  0.60738500  0.68870400  0.19011300  1
  Mo  Mo0  1  0.61126600  0.80658900  0.81477600  1
  Mo  Mo1  1  0.38873400  0.19341100  0.18522400  1
  Mo  Mo2  1  0.88873400  0.80658900  0.31477600  1
  Mo  Mo3  1  0.11126600  0.19341100  0.68522400  1
  F  F0  1  0.45336000  0.86836500  0.12395700  1
  F  F1  1  0.05901200  0.62437100  0.37430200  1
  F  F2  1  0.71762300  0.51465600  0.75004200  1
  F  F3  1  0.28237700  0.48534400  0.24995800  1
  F  F4  1  0.45894600  0.10462600  0.37598100  1
  F  F5  1  0.80424700  0.73914300  0.50792800  1
  F  F6  1  0.78681200  0.97287200  0.75041600  1
  F  F7  1  0.95894600  0.89537400  0.12401900  1
  F  F8  1  0.44098800  0.62437100  0.87430200  1
  F  F9  1  0.21762300  0.48534400  0.74995800  1
  F  F10  1  0.04664000  0.86836500  0.62395700  1
  F  F11  1  0.54664000  0.13163500  0.87604300  1
  F  F12  1  0.28681200  0.02712800  0.74958400  1
  F  F13  1  0.95875000  0.60497200  0.86875900  1
  F  F14  1  0.54105400  0.89537400  0.62401900  1
  F  F15  1  0.04105400  0.10462600  0.87598100  1
  F  F16  1  0.21318800  0.02712800  0.24958400  1
  F  F17  1  0.95336000  0.13163500  0.37604300  1
  F  F18  1  0.45875000  0.39502800  0.63124100  1
  F  F19  1  0.94098800  0.37562900  0.62569800  1
  F  F20  1  0.04125000  0.39502800  0.13124100  1
  F  F21  1  0.71318800  0.97287200  0.25041600  1
  F  F22  1  0.54125000  0.60497200  0.36875900  1
  F  F23  1  0.30424700  0.26085700  0.99207200  1
  F  F24  1  0.19575300  0.26085700  0.49207200  1
  F  F25  1  0.69575300  0.73914300  0.00792800  1
  F  F26  1  0.55901200  0.37562900  0.12569800  1
  F  F27  1  0.78237700  0.51465600  0.25004200  1
loop_
_geom_bond_atom_site_label_1
_geom_bond_atom_site_label_2
_geom_bond_distance
_geom_bond_site_symmetry_2
Ba0 F22 2.646232 1_555
Ba0 F18 2.660307 1_555
Ba0 F14 2.712427 1_555
Ba0 F4 2.750907 1_565
Ba0 F3 2.927863 1_555
Ba0 F24 3.026986 1_555
Ba0 F9 3.043820 1_555
Ba0 F1 3.079718 1_555
Ba0 F12 3.128849 1_565
Ba0 F16 3.140868 1_565
Ba0 F10 3.252023 1_555
Ba0 F24 3.323130 1_565
Ba1 F20 2.646232 1_655
Ba1 F13 2.660307 1_554
Ba1 F15 2.712427 1_654
Ba1 F7 2.750907 1_545
Ba1 F27 2.927863 1_555
Ba1 F25 3.026986 1_555
Ba1 F2 3.043820 1_554
Ba1 F26 3.079718 1_555
Ba1 F6 3.128849 1_544
Ba1 F21 3.140868 1_545
Ba1 F11 3.252023 1_554
Ba1 F25 3.323130 1_545
Ba2 F18 2.646232 1_555
Ba2 F22 2.660307 1_555
Ba2 F4 2.712427 1_555
Ba2 F14 2.750907 1_545
Ba2 F2 2.927863 1_555
Ba2 F5 3.026986 1_555
Ba2 F27 3.043820 1_555
Ba2 F19 3.079718 1_555
Ba2 F21 3.128849 1_545
Ba2 F6 3.140868 1_545
Ba2 F17 3.252023 1_555
Ba2 F5 3.323130 1_545
Ba3 F13 2.646232 1_455
Ba3 F20 2.660307 1_556
Ba3 F7 2.712427 1_456
Ba3 F15 2.750907 1_565
Ba3 F9 2.927863 1_555
Ba3 F23 3.026986 1_555
Ba3 F3 3.043820 1_556
Ba3 F8 3.079718 1_555
Ba3 F16 3.128849 1_566
Ba3 F12 3.140868 1_565
Ba3 F0 3.252023 1_556
Ba3 F23 3.323130 1_565
F0 Mg3 1.977695 1_555
F0 Mo1 2.099174 1_565
F1 Mg2 2.000715 1_555
F1 Mo2 2.101528 1_455
F2 Mg1 2.120753 1_555
F2 Mo0 2.124992 1_555
F3 Mg2 2.120753 1_555
F3 Mo1 2.124992 1_555
F4 Mo1 2.067413 1_555
F5 Mg1 2.031434 1_555
F5 Mo2 2.123148 1_555
F6 Mg1 2.071484 1_555
F6 Mo0 2.117435 1_555
F7 Mo2 2.067413 1_555
F8 Mg0 2.000715 1_555
F8 Mo0 2.101528 1_555
F9 Mg0 2.120753 1_555
F9 Mo3 2.124992 1_555
F10 Mg1 1.977695 1_455
F10 Mo3 2.099174 1_565
F11 Mg0 1.977695 1_555
F11 Mo0 2.099174 1_545
F12 Mg0 2.071484 1_555
F12 Mo3 2.117435 1_555
F13 Mg1 1.938189 1_555
F14 Mo0 2.067413 1_555
F15 Mo3 2.067413 1_555
F16 Mg2 2.071484 1_555
F16 Mo1 2.117435 1_555
F17 Mg2 1.977695 1_655
F17 Mo2 2.099174 1_545
F18 Mg0 1.938189 1_555
F19 Mg1 2.000715 1_555
F19 Mo3 2.101528 1_655
F20 Mg2 1.938189 1_555
F21 Mg3 2.071484 1_555
F21 Mo2 2.117435 1_555
F22 Mg3 1.938189 1_555
F23 Mg0 2.031434 1_555
F23 Mo1 2.123148 1_556
F24 Mg2 2.031434 1_555
F24 Mo3 2.123148 1_555
F25 Mg3 2.031434 1_555
F25 Mo0 2.123148 1_554
F26 Mg3 2.000715 1_555
F26 Mo1 2.101528 1_555
F27 Mg3 2.120753 1_555
F27 Mo2 2.124992 1_555
