# generated using pymatgen
data_MnSi2Ni
_symmetry_space_group_name_H-M   'P 1'
_cell_length_a   4.50264800
_cell_length_b   4.50908900
_cell_length_c   4.51983842
_cell_angle_alpha   89.11973383
_cell_angle_beta   90.00000000
_cell_angle_gamma   90.00000000
_symmetry_Int_Tables_number   1
_chemical_formula_structural   MnSi2Ni
_chemical_formula_sum   'Mn2 Si4 Ni2'
_cell_volume   91.75472889
_cell_formula_units_Z   2
loop_
 _symmetry_equiv_pos_site_id
 _symmetry_equiv_pos_as_xyz
  1  'x, y, z'
loop_
 _atom_site_type_symbol
 _atom_site_label
 _atom_site_symmetry_multiplicity
 _atom_site_fract_x
 _atom_site_fract_y
 _atom_site_fract_z
 _atom_site_occupancy
  Mn  Mn0  1  0.35641900  0.63766100  0.60939400  1
  Mn  Mn1  1  0.85641900  0.36233900  0.39060600  1
  Si  Si0  1  0.66072700  0.34598000  0.90532900  1
  Si  Si1  1  0.16072700  0.65402000  0.09467100  1
  Si  Si2  1  0.34366500  0.15178200  0.41345800  1
  Si  Si3  1  0.84366500  0.84821800  0.58654200  1
  Ni  Ni0  1  0.63918800  0.85833700  0.10553200  1
  Ni  Ni1  1  0.13918800  0.14166300  0.89446800  1
loop_
_geom_bond_atom_site_label_1
_geom_bond_atom_site_label_2
_geom_bond_distance
_geom_bond_site_symmetry_2
Mn0 Si0 2.311337 1_555
Mn0 Si1 2.365945 1_556
Mn0 Si2 2.376366 1_555
Mn0 Si3 2.392120 1_555
Mn0 Si2 2.469541 1_565
Mn0 Si1 2.487770 1_555
Mn0 Si3 2.497876 1_455
Mn0 Ni1 2.744139 1_555
Mn0 Ni0 2.776398 1_556
Mn0 Ni0 2.779926 1_555
Mn0 Ni1 2.805628 1_565
Mn1 Si1 2.311337 1_655
Mn1 Si0 2.365945 1_554
Mn1 Si3 2.376366 1_555
Mn1 Si2 2.392120 1_655
Mn1 Si3 2.469541 1_545
Mn1 Si0 2.487770 1_555
Mn1 Si2 2.497876 1_555
Mn1 Ni0 2.744139 1_555
Mn1 Ni1 2.776398 1_654
Mn1 Ni1 2.779926 1_655
Mn1 Ni0 2.805628 1_545
Ni0 Si1 2.343875 1_555
Ni0 Si2 2.348402 1_565
Ni0 Si3 2.360796 1_555
Ni0 Si0 2.366838 1_564
Ni0 Si0 2.495951 1_554
Ni0 Si3 2.521028 1_554
Ni0 Si1 2.523313 1_655
Ni0 Ni1 2.751944 1_664
Ni0 Ni1 2.751944 1_564
Ni1 Si0 2.343875 1_455
Ni1 Si3 2.348402 1_445
Ni1 Si2 2.360796 1_555
Ni1 Si1 2.366838 1_546
Ni1 Si1 2.495951 1_556
Ni1 Si2 2.521028 1_556
Ni1 Si0 2.523313 1_555
