# generated using pymatgen
data_Cs3Er5(PS4)6
_symmetry_space_group_name_H-M   'P 1'
_cell_length_a   10.39362307
_cell_length_b   10.39362307
_cell_length_c   20.86577793
_cell_angle_alpha   79.67882168
_cell_angle_beta   79.67882168
_cell_angle_gamma   77.98851011
_symmetry_Int_Tables_number   1
_chemical_formula_structural   Cs3Er5(PS4)6
_chemical_formula_sum   'Cs6 Er10 P12 S48'
_cell_volume   2145.34375411
_cell_formula_units_Z   2
loop_
 _symmetry_equiv_pos_site_id
 _symmetry_equiv_pos_as_xyz
  1  'x, y, z'
loop_
 _atom_site_type_symbol
 _atom_site_label
 _atom_site_symmetry_multiplicity
 _atom_site_fract_x
 _atom_site_fract_y
 _atom_site_fract_z
 _atom_site_occupancy
  Cs  Cs0  1  0.20009300  0.43658400  0.79089300  1
  Cs  Cs1  1  0.56317000  0.80018000  0.70944100  1
  Cs  Cs2  1  0.80018000  0.56317000  0.20944100  1
  Cs  Cs3  1  0.43658400  0.20009300  0.29089300  1
  Cs  Cs4  1  0.98777400  0.49880800  0.52896700  1
  Cs  Cs5  1  0.49880800  0.98777400  0.02896700  1
  Er  Er0  1  0.94478300  0.05420200  0.75041700  1
  Er  Er1  1  0.05420200  0.94478300  0.25041700  1
  Er  Er2  1  0.71062900  0.48979500  0.92735600  1
  Er  Er3  1  0.51057200  0.28952500  0.57222800  1
  Er  Er4  1  0.28952500  0.51057200  0.07222800  1
  Er  Er5  1  0.48979500  0.71062900  0.42735600  1
  Er  Er6  1  0.06939900  0.82713900  0.93273900  1
  Er  Er7  1  0.17269300  0.93096600  0.56686400  1
  Er  Er8  1  0.93096600  0.17269300  0.06686400  1
  Er  Er9  1  0.82713900  0.06939900  0.43273900  1
  P  P0  1  0.34988500  0.61083400  0.59436400  1
  P  P1  1  0.38894000  0.65062800  0.90547800  1
  P  P2  1  0.65062800  0.38894000  0.40547800  1
  P  P3  1  0.61083400  0.34988500  0.09436400  1
  P  P4  1  0.85168900  0.75506500  0.83860200  1
  P  P5  1  0.24570300  0.14794800  0.66124100  1
  P  P6  1  0.14794800  0.24570300  0.16124100  1
  P  P7  1  0.75506500  0.85168900  0.33860200  1
  P  P8  1  0.91296600  0.17282700  0.89854400  1
  P  P9  1  0.82734900  0.08685000  0.60132300  1
  P  P10  1  0.08685000  0.82734900  0.10132300  1
  P  P11  1  0.17282700  0.91296600  0.39854400  1
  S  S0  1  0.04310600  0.78809600  0.80668700  1
  S  S1  1  0.21166600  0.95718700  0.69336100  1
  S  S2  1  0.95718700  0.21166600  0.19336100  1
  S  S3  1  0.78809600  0.04310600  0.30668700  1
  S  S4  1  0.22278600  0.56499900  0.94213400  1
  S  S5  1  0.43485500  0.77723700  0.55801700  1
  S  S6  1  0.77723700  0.43485500  0.05801700  1
  S  S7  1  0.56499900  0.22278600  0.44213400  1
  S  S8  1  0.47238600  0.48393700  0.65228400  1
  S  S9  1  0.51612400  0.52766000  0.84784700  1
  S  S10  1  0.52766000  0.51612400  0.34784700  1
  S  S11  1  0.48393700  0.47238600  0.15228400  1
  S  S12  1  0.33386600  0.52334000  0.51476700  1
  S  S13  1  0.47659500  0.66588700  0.98531100  1
  S  S14  1  0.66588700  0.47659500  0.48531100  1
  S  S15  1  0.52334000  0.33386600  0.01476700  1
  S  S16  1  0.82455200  0.59518800  0.80251000  1
  S  S17  1  0.40465700  0.17558100  0.69751900  1
  S  S18  1  0.17558100  0.40465700  0.19751900  1
  S  S19  1  0.59518800  0.82455200  0.30251000  1
  S  S20  1  0.83677600  0.70067600  0.93991500  1
  S  S21  1  0.29898700  0.16349900  0.56001800  1
  S  S22  1  0.16349900  0.29898700  0.06001800  1
  S  S23  1  0.70067600  0.83677600  0.43991500  1
  S  S24  1  0.77970300  0.25646600  0.83683400  1
  S  S25  1  0.74360200  0.22054600  0.66307900  1
  S  S26  1  0.22054600  0.74360200  0.16307900  1
  S  S27  1  0.25646600  0.77970300  0.33683400  1
  S  S28  1  0.16438700  0.67717500  0.63962900  1
  S  S29  1  0.32253400  0.83540500  0.86038900  1
  S  S30  1  0.83540500  0.32253400  0.36038900  1
  S  S31  1  0.67717500  0.16438700  0.13962900  1
  S  S32  1  0.06713200  0.26935600  0.68485600  1
  S  S33  1  0.73082700  0.93289600  0.81526600  1
  S  S34  1  0.93289600  0.73082700  0.31526600  1
  S  S35  1  0.26935600  0.06713200  0.18485600  1
  S  S36  1  0.96592600  0.31875300  0.93706400  1
  S  S37  1  0.68120400  0.03400600  0.56301600  1
  S  S38  1  0.03400600  0.68120400  0.06301600  1
  S  S39  1  0.31875300  0.96592600  0.43706400  1
  S  S40  1  0.92728900  0.91654800  0.64981100  1
  S  S41  1  0.08333500  0.07268300  0.85021200  1
  S  S42  1  0.07268300  0.08333500  0.35021200  1
  S  S43  1  0.91654800  0.92728900  0.14981100  1
  S  S44  1  0.96103100  0.15678100  0.52356800  1
  S  S45  1  0.84352200  0.03895400  0.97646900  1
  S  S46  1  0.03895400  0.84352200  0.47646900  1
  S  S47  1  0.15678100  0.96103100  0.02356800  1
loop_
_geom_bond_atom_site_label_1
_geom_bond_atom_site_label_2
_geom_bond_distance
_geom_bond_site_symmetry_2
Cs0 S32 3.646852 1_555
Cs0 S28 3.682115 1_555
Cs0 S17 3.699259 1_555
Cs0 S4 3.701744 1_555
Cs0 S8 3.708524 1_555
Cs0 S0 3.725112 1_555
Cs0 S36 3.737377 1_455
Cs0 S16 3.890694 1_455
Cs0 S9 4.024133 1_555
Cs0 S41 4.123680 1_555
Cs1 S33 3.644962 1_555
Cs1 S29 3.676824 1_555
Cs1 S16 3.699983 1_555
Cs1 S5 3.705501 1_555
Cs1 S9 3.706956 1_555
Cs1 S1 3.726195 1_555
Cs1 S37 3.739415 1_565
Cs1 S17 3.888906 1_565
Cs1 S8 4.026818 1_555
Cs1 S40 4.124574 1_555
Cs2 S34 3.644962 1_555
Cs2 S30 3.676824 1_555
Cs2 S19 3.699983 1_555
Cs2 S6 3.705501 1_555
Cs2 S10 3.706956 1_555
Cs2 S2 3.726195 1_555
Cs2 S38 3.739415 1_655
Cs2 S18 3.888906 1_655
Cs2 S11 4.026818 1_555
Cs2 S43 4.124574 1_555
Cs3 S35 3.646852 1_555
Cs3 S31 3.682115 1_555
Cs3 S18 3.699259 1_555
Cs3 S7 3.701744 1_555
Cs3 S11 3.708524 1_555
Cs3 S3 3.725112 1_555
Cs3 S39 3.737377 1_545
Cs3 S19 3.890694 1_545
Cs3 S10 4.024133 1_555
Cs3 S42 4.123680 1_555
Cs4 S12 3.614561 1_655
Cs4 S44 3.645991 1_555
Cs4 S46 3.673917 1_655
Cs4 S14 3.683042 1_555
Cs4 S32 3.783002 1_655
Cs4 S28 4.075209 1_655
Cs5 S15 3.614561 1_565
Cs5 S47 3.645991 1_555
Cs5 S45 3.673917 1_564
Cs5 S13 3.683042 1_554
Cs5 S35 3.783002 1_565
Cs5 S31 4.075209 1_565
Er0 S41 2.789193 1_655
Er0 S40 2.794285 1_545
Er0 S33 2.800568 1_545
Er0 S32 2.820151 1_655
Er0 S0 2.857003 1_645
Er0 S1 2.865511 1_645
Er0 S24 3.059931 1_555
Er0 S25 3.068264 1_555
Er1 S42 2.789193 1_565
Er1 S43 2.794285 1_455
Er1 S34 2.800568 1_455
Er1 S35 2.820151 1_565
Er1 S3 2.857003 1_465
Er1 S2 2.865511 1_465
Er1 S27 3.059931 1_555
Er1 S26 3.068264 1_555
Er2 S9 2.762397 1_555
Er2 S16 2.792863 1_555
Er2 S20 2.849002 1_555
Er2 S6 2.862208 1_556
Er2 S36 2.888333 1_555
Er2 S13 2.935138 1_555
Er2 S15 2.953661 1_556
Er2 S24 3.224146 1_555
Er3 S8 2.769296 1_555
Er3 S17 2.801942 1_555
Er3 S7 2.851474 1_555
Er3 S21 2.852392 1_555
Er3 S37 2.887163 1_555
Er3 S12 2.933217 1_555
Er3 S14 2.944354 1_555
Er3 S25 3.226345 1_555
Er4 S11 2.769296 1_555
Er4 S18 2.801942 1_555
Er4 S4 2.851474 1_554
Er4 S22 2.852392 1_555
Er4 S38 2.887163 1_555
Er4 S15 2.933217 1_555
Er4 S13 2.944354 1_554
Er4 S26 3.226345 1_555
Er5 S10 2.762397 1_555
Er5 S19 2.792863 1_555
Er5 S23 2.849002 1_555
Er5 S5 2.862208 1_555
Er5 S39 2.888333 1_555
Er5 S14 2.935138 1_555
Er5 S12 2.953661 1_555
Er5 S27 3.224146 1_555
Er6 S29 2.798726 1_555
Er6 S0 2.800595 1_555
Er6 S41 2.826505 1_565
Er6 S4 2.848879 1_555
Er6 S38 2.867363 1_556
Er6 S47 2.905380 1_556
Er6 S20 2.952677 1_455
Er6 S45 2.998652 1_465
Er7 S28 2.807742 1_555
Er7 S1 2.809256 1_555
Er7 S40 2.829841 1_455
Er7 S5 2.850442 1_555
Er7 S39 2.859299 1_555
Er7 S46 2.897483 1_555
Er7 S21 2.951985 1_565
Er7 S44 2.994621 1_465
Er8 S31 2.807742 1_555
Er8 S2 2.809256 1_555
Er8 S43 2.829841 1_545
Er8 S6 2.850442 1_555
Er8 S36 2.859299 1_554
Er8 S45 2.897483 1_554
Er8 S22 2.951985 1_655
Er8 S47 2.994621 1_645
Er9 S30 2.798726 1_555
Er9 S3 2.800595 1_555
Er9 S42 2.826505 1_655
Er9 S7 2.848879 1_555
Er9 S37 2.867363 1_555
Er9 S44 2.905380 1_555
Er9 S23 2.952677 1_545
Er9 S46 2.998652 1_645
P0 S8 2.025466 1_555
P0 S28 2.027858 1_555
P0 S5 2.066910 1_555
P0 S12 2.077604 1_555
P1 S29 2.020735 1_555
P1 S9 2.026052 1_555
P1 S4 2.069277 1_555
P1 S13 2.080529 1_555
P2 S30 2.020735 1_555
P2 S10 2.026052 1_555
P2 S7 2.069277 1_555
P2 S14 2.080529 1_555
P3 S11 2.025466 1_555
P3 S31 2.027858 1_555
P3 S6 2.066910 1_555
P3 S15 2.077604 1_555
P4 S16 2.031638 1_555
P4 S33 2.040016 1_555
P4 S0 2.060854 1_655
P4 S20 2.074444 1_555
P5 S17 2.026937 1_555
P5 S32 2.049428 1_555
P5 S1 2.058214 1_545
P5 S21 2.071128 1_555
P6 S18 2.026937 1_555
P6 S35 2.049428 1_555
P6 S2 2.058214 1_455
P6 S22 2.071128 1_555
P7 S19 2.031638 1_555
P7 S34 2.040016 1_555
P7 S3 2.060854 1_565
P7 S23 2.074444 1_555
P8 S24 2.017169 1_555
P8 S36 2.047492 1_555
P8 S41 2.050634 1_655
P8 S45 2.070644 1_555
P9 S25 2.021223 1_555
P9 S37 2.046327 1_555
P9 S40 2.050682 1_545
P9 S44 2.069078 1_555
P10 S26 2.021223 1_555
P10 S38 2.046327 1_555
P10 S43 2.050682 1_455
P10 S47 2.069078 1_555
P11 S27 2.017169 1_555
P11 S39 2.047492 1_555
P11 S42 2.050634 1_565
P11 S46 2.070644 1_555
