# generated using pymatgen
data_Nd2Ge3Pt
_symmetry_space_group_name_H-M   'P 1'
_cell_length_a   4.18993066
_cell_length_b   4.39156207
_cell_length_c   7.24276115
_cell_angle_alpha   90.00000000
_cell_angle_beta   90.00000000
_cell_angle_gamma   90.00000000
_symmetry_Int_Tables_number   1
_chemical_formula_structural   Nd2Ge3Pt
_chemical_formula_sum   'Nd2 Ge3 Pt1'
_cell_volume   133.26927177
_cell_formula_units_Z   1
loop_
 _symmetry_equiv_pos_site_id
 _symmetry_equiv_pos_as_xyz
  1  'x, y, z'
loop_
 _atom_site_type_symbol
 _atom_site_label
 _atom_site_symmetry_multiplicity
 _atom_site_fract_x
 _atom_site_fract_y
 _atom_site_fract_z
 _atom_site_occupancy
  Nd  Nd0  1  0.00000000  0.50000000  0.00267324  1
  Nd  Nd1  1  0.00000000  0.00000000  0.49955091  1
  Ge  Ge0  1  0.50000000  0.00000000  0.83170848  1
  Ge  Ge1  1  0.50000000  -0.00000000  0.17481952  1
  Ge  Ge2  1  0.50000000  0.50000000  0.66343895  1
  Pt  Pt0  1  0.50000000  0.50000000  0.32780990  1
loop_
_geom_bond_atom_site_label_1
_geom_bond_atom_site_label_2
_geom_bond_distance
_geom_bond_site_symmetry_2
Nd0 Pt0 3.151884 1_455
Nd0 Pt0 3.151884 1_555
Nd1 Pt0 3.279873 1_455
Nd1 Pt0 3.279873 1_555
Nd1 Pt0 3.279873 1_445
Nd1 Pt0 3.279873 1_545
Ge0 Ge1 2.485071 1_556
Ge0 Ge2 2.511329 1_545
Ge0 Ge2 2.511329 1_555
Ge0 Nd1 3.190056 1_655
Ge0 Nd1 3.190056 1_555
Ge0 Nd0 3.277745 1_646
Ge0 Nd0 3.277745 1_556
Ge0 Nd0 3.277745 1_656
Ge0 Nd0 3.277745 1_546
Ge1 Pt0 2.459528 1_555
Ge1 Pt0 2.459528 1_545
Ge1 Nd1 3.149692 1_655
Ge1 Nd1 3.149692 1_555
Ge1 Nd0 3.280988 1_655
Ge1 Nd0 3.280988 1_645
Ge1 Nd0 3.280988 1_555
Ge1 Nd0 3.280988 1_545
Ge2 Pt0 2.430881 1_555
Ge2 Nd0 3.228884 1_556
Ge2 Nd0 3.228884 1_656
Ge2 Nd1 3.258728 1_555
Ge2 Nd1 3.258728 1_665
Ge2 Nd1 3.258728 1_565
Ge2 Nd1 3.258728 1_655
