# generated using pymatgen
data_YbNi4B
_symmetry_space_group_name_H-M   'P 1'
_cell_length_a   4.94932596
_cell_length_b   4.94932596
_cell_length_c   6.85658300
_cell_angle_alpha   90.00000000
_cell_angle_beta   90.00000000
_cell_angle_gamma   119.99999945
_symmetry_Int_Tables_number   1
_chemical_formula_structural   YbNi4B
_chemical_formula_sum   'Yb2 Ni8 B2'
_cell_volume   145.45561329
_cell_formula_units_Z   2
loop_
 _symmetry_equiv_pos_site_id
 _symmetry_equiv_pos_as_xyz
  1  'x, y, z'
loop_
 _atom_site_type_symbol
 _atom_site_label
 _atom_site_symmetry_multiplicity
 _atom_site_fract_x
 _atom_site_fract_y
 _atom_site_fract_z
 _atom_site_occupancy
  Yb  Yb0  1  0.00000000  0.00000000  0.00000000  1
  Yb  Yb1  1  0.00000000  0.00000000  0.50000000  1
  Ni  Ni0  1  0.66666700  0.33333300  0.50000000  1
  Ni  Ni1  1  0.33333300  0.66666700  0.50000000  1
  Ni  Ni2  1  0.50000000  0.50000000  0.79386600  1
  Ni  Ni3  1  0.50000000  0.00000000  0.79386600  1
  Ni  Ni4  1  0.00000000  0.50000000  0.79386600  1
  Ni  Ni5  1  0.50000000  0.50000000  0.20613400  1
  Ni  Ni6  1  0.50000000  0.00000000  0.20613400  1
  Ni  Ni7  1  0.00000000  0.50000000  0.20613400  1
  B  B0  1  0.66666700  0.33333300  0.00000000  1
  B  B1  1  0.33333300  0.66666700  0.00000000  1
loop_
_geom_bond_atom_site_label_1
_geom_bond_atom_site_label_2
_geom_bond_distance
_geom_bond_site_symmetry_2
Ni0 Ni6 2.470062 1_555
Ni0 Ni7 2.470062 1_655
Ni0 Ni3 2.470062 1_555
Ni0 Ni4 2.470062 1_655
Ni0 Ni5 2.470064 1_555
Ni0 Ni2 2.470064 1_555
Ni0 Yb1 2.857492 1_655
Ni0 Yb1 2.857496 1_555
Ni0 Yb1 2.857496 1_665
Ni1 Ni6 2.470062 1_565
Ni1 Ni7 2.470062 1_555
Ni1 Ni4 2.470062 1_555
Ni1 Ni3 2.470062 1_565
Ni1 Ni5 2.470064 1_555
Ni1 Ni2 2.470064 1_555
Ni1 Yb1 2.857492 1_565
Ni1 Yb1 2.857496 1_555
Ni1 Yb1 2.857496 1_665
Ni2 Yb0 2.849840 1_556
Ni2 Yb0 2.849840 1_666
Ni3 Yb0 2.849840 1_556
Ni3 Yb0 2.849840 1_656
Ni4 Yb0 2.849840 1_556
Ni4 Yb0 2.849840 1_566
Ni5 Yb0 2.849840 1_555
Ni5 Yb0 2.849840 1_665
Ni6 Yb0 2.849840 1_555
Ni6 Yb0 2.849840 1_655
Ni7 Yb0 2.849840 1_555
Ni7 Yb0 2.849840 1_565
B0 Ni4 2.009712 1_654
B0 Ni7 2.009712 1_655
B0 Ni3 2.009712 1_554
B0 Ni6 2.009712 1_555
B0 Ni5 2.009715 1_555
B0 Ni2 2.009715 1_554
B0 Yb0 2.857492 1_655
B0 Yb0 2.857496 1_555
B0 Yb0 2.857496 1_665
B1 Ni6 2.009712 1_565
B1 Ni4 2.009712 1_554
B1 Ni3 2.009712 1_564
B1 Ni7 2.009712 1_555
B1 Ni5 2.009715 1_555
B1 Ni2 2.009715 1_554
B1 Yb0 2.857492 1_565
B1 Yb0 2.857496 1_555
B1 Yb0 2.857496 1_665
