# generated using pymatgen
data_Li2V3O6
_symmetry_space_group_name_H-M   'P 1'
_cell_length_a   5.17938955
_cell_length_b   6.64076644
_cell_length_c   6.76086696
_cell_angle_alpha   96.80625280
_cell_angle_beta   82.71880845
_cell_angle_gamma   96.35292350
_symmetry_Int_Tables_number   1
_chemical_formula_structural   Li2V3O6
_chemical_formula_sum   'Li4 V6 O12'
_cell_volume   227.95785857
_cell_formula_units_Z   2
loop_
 _symmetry_equiv_pos_site_id
 _symmetry_equiv_pos_as_xyz
  1  'x, y, z'
loop_
 _atom_site_type_symbol
 _atom_site_label
 _atom_site_symmetry_multiplicity
 _atom_site_fract_x
 _atom_site_fract_y
 _atom_site_fract_z
 _atom_site_occupancy
  Li  Li0  1  0.99607700  0.67587100  0.67556700  1
  Li  Li1  1  0.49625200  0.17579500  0.17543700  1
  Li  Li2  1  0.99856800  0.33251300  0.33206600  1
  Li  Li3  1  0.49860100  0.83258500  0.83210300  1
  V  V0  1  0.24871300  0.74935600  0.24894100  1
  V  V1  1  0.25249300  0.08569700  0.58338300  1
  V  V2  1  0.25234200  0.41263200  0.91428400  1
  V  V3  1  0.74870400  0.24885400  0.74926700  1
  V  V4  1  0.75255200  0.58562600  0.08332900  1
  V  V5  1  0.75220300  0.91287600  0.41405800  1
  O  O0  1  0.38769000  0.13522600  0.85507500  1
  O  O1  1  0.88783200  0.63536300  0.35488100  1
  O  O2  1  0.62077000  0.84851500  0.13421100  1
  O  O3  1  0.12092700  0.34844900  0.63451700  1
  O  O4  1  0.86543400  0.31955800  0.03711300  1
  O  O5  1  0.36551200  0.81975800  0.53689100  1
  O  O6  1  0.38233800  0.46882100  0.18491800  1
  O  O7  1  0.88228000  0.96865900  0.68481600  1
  O  O8  1  0.62908900  0.53480800  0.81460700  1
  O  O9  1  0.12893200  0.03502100  0.31456300  1
  O  O10  1  0.11631900  0.68696200  0.96989100  1
  O  O11  1  0.61637300  0.18705600  0.47008200  1
loop_
_geom_bond_atom_site_label_1
_geom_bond_atom_site_label_2
_geom_bond_distance
_geom_bond_site_symmetry_2
Li0 O7 2.084994 1_555
Li0 O10 2.149921 1_655
Li0 O8 2.176210 1_555
Li0 O5 2.192333 1_655
Li0 O1 2.285586 1_555
Li0 O3 2.312042 1_655
Li1 O6 2.086561 1_555
Li1 O11 2.151627 1_555
Li1 O9 2.177015 1_555
Li1 O4 2.190126 1_555
Li1 O0 2.284042 1_554
Li1 O2 2.310474 1_545
Li2 O1 2.134669 1_555
Li2 O9 2.142975 1_655
Li2 O4 2.180419 1_555
Li2 O3 2.203750 1_655
Li2 O11 2.246014 1_555
Li2 O6 2.252564 1_655
Li3 O0 2.133585 1_565
Li3 O8 2.145041 1_555
Li3 O5 2.182071 1_555
Li3 O2 2.201137 1_556
Li3 O10 2.246241 1_555
Li3 O7 2.251997 1_555
O0 V3 2.013464 1_555
O0 V2 2.021189 1_555
O0 V1 2.025952 1_555
O1 V0 2.013899 1_655
O1 V5 2.022453 1_555
O1 V4 2.025285 1_555
O2 V4 1.921931 1_555
O2 V0 2.051848 1_555
O2 V5 2.072726 1_555
O3 V1 1.920649 1_555
O3 V3 2.053383 1_455
O3 V2 2.072111 1_555
O4 V4 1.900744 1_555
O4 V3 2.095730 1_554
O4 V2 2.124423 1_654
O5 V1 1.900242 1_565
O5 V0 2.096363 1_555
O5 V5 2.123531 1_555
O6 V2 2.008803 1_554
O6 V0 2.038449 1_555
O6 V4 2.052666 1_555
O7 V5 2.009656 1_555
O7 V3 2.036432 1_565
O7 V1 2.052874 1_665
O8 V4 1.981147 1_556
O8 V3 2.043806 1_555
O8 V2 2.089492 1_555
O9 V1 1.981957 1_555
O9 V0 2.042464 1_545
O9 V5 2.089038 1_445
O10 V2 2.002763 1_555
O10 V4 2.016512 1_456
O10 V0 2.069055 1_556
O11 V5 2.001514 1_545
O11 V1 2.016773 1_555
O11 V3 2.069549 1_555
