# generated using pymatgen
data_EuGePt
_symmetry_space_group_name_H-M   'P 1'
_cell_length_a   6.54267047
_cell_length_b   6.54267243
_cell_length_c   6.54240185
_cell_angle_alpha   89.99576552
_cell_angle_beta   89.99911096
_cell_angle_gamma   90.00053724
_symmetry_Int_Tables_number   1
_chemical_formula_structural   EuGePt
_chemical_formula_sum   'Eu4 Ge4 Pt4'
_cell_volume   280.05764956
_cell_formula_units_Z   4
loop_
 _symmetry_equiv_pos_site_id
 _symmetry_equiv_pos_as_xyz
  1  'x, y, z'
loop_
 _atom_site_type_symbol
 _atom_site_label
 _atom_site_symmetry_multiplicity
 _atom_site_fract_x
 _atom_site_fract_y
 _atom_site_fract_z
 _atom_site_occupancy
  Eu  Eu0  1  0.12540945  0.12547011  0.12541140  1
  Eu  Eu1  1  0.62547613  0.37454578  0.87455935  1
  Eu  Eu2  1  0.37458286  0.87455478  0.62545781  1
  Eu  Eu3  1  0.87454625  0.62540483  0.37456576  1
  Ge  Ge0  1  0.32831505  0.67166107  0.17166601  1
  Ge  Ge1  1  0.17166233  0.32831911  0.67169179  1
  Ge  Ge2  1  0.67172637  0.17167025  0.32834937  1
  Ge  Ge3  1  0.82830812  0.82834484  0.82831262  1
  Pt  Pt0  1  0.42187024  0.42187096  0.42185412  1
  Pt  Pt1  1  0.07811864  0.57812261  0.92184345  1
  Pt  Pt2  1  0.92183712  0.07817296  0.57816992  1
  Pt  Pt3  1  0.57814844  0.92186171  0.07811740  1
loop_
_geom_bond_atom_site_label_1
_geom_bond_atom_site_label_2
_geom_bond_distance
_geom_bond_site_symmetry_2
Eu0 Pt1 3.261864 1_554
Eu0 Pt2 3.262464 1_455
Eu0 Pt3 3.262609 1_545
Eu0 Ge1 3.265554 1_554
Eu0 Ge2 3.265718 1_455
Eu0 Ge0 3.266436 1_545
Eu0 Pt0 3.359313 1_555
Eu0 Ge3 3.366948 1_444
Eu1 Pt1 3.261931 1_655
Eu1 Pt3 3.262038 1_546
Eu1 Pt0 3.262295 1_555
Eu1 Ge2 3.266053 1_556
Eu1 Ge3 3.266149 1_555
Eu1 Ge1 3.266356 1_555
Eu1 Pt2 3.358616 1_555
Eu1 Ge0 3.367152 1_556
Eu2 Pt3 3.261944 1_556
Eu2 Pt0 3.262318 1_555
Eu2 Pt2 3.262661 1_465
Eu2 Ge3 3.265773 1_555
Eu2 Ge1 3.266234 1_565
Eu2 Ge0 3.266299 1_555
Eu2 Pt1 3.359029 1_555
Eu2 Ge2 3.366906 1_565
Eu3 Pt0 3.261991 1_555
Eu3 Pt1 3.262284 1_654
Eu3 Pt2 3.262821 1_565
Eu3 Ge2 3.265760 1_555
Eu3 Ge3 3.266130 1_555
Eu3 Ge0 3.266137 1_655
Eu3 Pt3 3.359164 1_555
Eu3 Ge1 3.366812 1_655
Ge0 Pt0 2.392584 1_555
Ge0 Pt1 2.392854 1_554
Ge0 Pt3 2.392886 1_555
Ge1 Pt1 2.392614 1_555
Ge1 Pt2 2.392636 1_455
Ge1 Pt0 2.392899 1_555
Ge2 Pt2 2.392339 1_555
Ge2 Pt0 2.392998 1_555
Ge2 Pt3 2.393058 1_545
Ge3 Pt2 2.392486 1_565
Ge3 Pt3 2.392548 1_556
Ge3 Pt1 2.392885 1_655
