# generated using pymatgen
data_Al2O3
_symmetry_space_group_name_H-M   'P 1'
_cell_length_a   10.21316291
_cell_length_b   10.41810302
_cell_length_c   10.24584830
_cell_angle_alpha   89.22225533
_cell_angle_beta   92.67886696
_cell_angle_gamma   85.29800559
_symmetry_Int_Tables_number   1
_chemical_formula_structural   Al2O3
_chemical_formula_sum   'Al40 O60'
_cell_volume   1085.15434522
_cell_formula_units_Z   20
loop_
 _symmetry_equiv_pos_site_id
 _symmetry_equiv_pos_as_xyz
  1  'x, y, z'
loop_
 _atom_site_type_symbol
 _atom_site_label
 _atom_site_symmetry_multiplicity
 _atom_site_fract_x
 _atom_site_fract_y
 _atom_site_fract_z
 _atom_site_occupancy
  Al  Al0  1  0.62640200  0.60899400  0.73819100  1
  Al  Al1  1  0.83329900  0.70727300  0.55275100  1
  Al  Al2  1  0.25127000  0.01903200  0.59411400  1
  Al  Al3  1  0.64674400  0.56448200  0.10892800  1
  Al  Al4  1  0.94180100  0.42693100  0.31943100  1
  Al  Al5  1  0.15286200  0.74949500  0.55225300  1
  Al  Al6  1  0.29198400  0.48771000  0.65245700  1
  Al  Al7  1  0.96165100  0.23906400  0.50534200  1
  Al  Al8  1  0.37834500  0.42514500  0.17331900  1
  Al  Al9  1  0.82896500  0.21565100  0.73403800  1
  Al  Al10  1  0.57643200  0.59851300  0.42870700  1
  Al  Al11  1  0.20650200  0.64619300  0.84814300  1
  Al  Al12  1  0.67928500  0.28686300  0.32918100  1
  Al  Al13  1  0.89060600  0.96033800  0.55259900  1
  Al  Al14  1  0.78700000  0.79952700  0.07645200  1
  Al  Al15  1  0.97085800  0.76596200  0.79392400  1
  Al  Al16  1  0.52715700  0.01998300  0.19309200  1
  Al  Al17  1  0.11025600  0.17124300  0.75322500  1
  Al  Al18  1  0.45567500  0.80615500  0.92452800  1
  Al  Al19  1  0.52329900  0.07837400  0.49458200  1
  Al  Al20  1  0.63242600  0.32924500  0.83575800  1
  Al  Al21  1  0.15476300  0.39007000  0.91939500  1
  Al  Al22  1  0.92930400  0.48526100  0.62608000  1
  Al  Al23  1  0.99691200  0.81723700  0.30578700  1
  Al  Al24  1  0.24800600  0.92963600  0.21877800  1
  Al  Al25  1  0.54773300  0.36732600  0.55124900  1
  Al  Al26  1  0.86863400  0.02938600  0.91225400  1
  Al  Al27  1  0.87867200  0.31896800  0.04592100  1
  Al  Al28  1  0.62451600  0.94652600  0.79568400  1
  Al  Al29  1  0.47228100  0.83700800  0.51017300  1
  Al  Al30  1  0.79911200  0.06476100  0.28906800  1
  Al  Al31  1  0.44391500  0.71350900  0.21571500  1
  Al  Al32  1  0.69448300  0.82822500  0.35037700  1
  Al  Al33  1  0.44363600  0.46496600  0.92895600  1
  Al  Al34  1  0.39379800  0.15124500  0.94072800  1
  Al  Al35  1  0.16865300  0.92296400  0.90299500  1
  Al  Al36  1  0.04780200  0.07552100  0.16229400  1
  Al  Al37  1  0.23119600  0.22367000  0.38408700  1
  Al  Al38  1  0.97669300  0.59838500  0.07906700  1
  Al  Al39  1  0.21566700  0.54420300  0.33453600  1
  O  O0  1  0.18421500  0.09268000  0.27842300  1
  O  O1  1  0.29348700  0.36620400  0.30635300  1
  O  O2  1  0.96856600  0.32208400  0.67584400  1
  O  O3  1  0.85229000  0.83938500  0.66926300  1
  O  O4  1  0.59174000  0.21768600  0.46329700  1
  O  O5  1  0.97047300  0.13769200  0.83326300  1
  O  O6  1  0.07082900  0.31163600  0.39119800  1
  O  O7  1  0.12277600  0.14796800  0.57660900  1
  O  O8  1  0.79111300  0.30936500  0.90020100  1
  O  O9  1  0.23316800  0.58836600  0.50606900  1
  O  O10  1  0.47828400  0.98381500  0.90009700  1
  O  O11  1  0.99832300  0.90304800  0.88825100  1
  O  O12  1  0.87564100  0.12076200  0.59362800  1
  O  O13  1  0.81239200  0.40143800  0.18881200  1
  O  O14  1  0.13247300  0.75602500  0.72520200  1
  O  O15  1  0.72489200  0.08848400  0.80382800  1
  O  O16  1  0.64942100  0.14647200  0.22400400  1
  O  O17  1  0.01554600  0.41406300  0.02084100  1
  O  O18  1  0.67809900  0.31757000  0.67410600  1
  O  O19  1  0.03607900  0.87932800  0.49100100  1
  O  O20  1  0.76313200  0.96971500  0.42785600  1
  O  O21  1  0.91086200  0.14790100  0.07252200  1
  O  O22  1  0.04361600  0.64794100  0.92355100  1
  O  O23  1  0.75883500  0.89375400  0.93412300  1
  O  O24  1  0.54948900  0.54534700  0.59456100  1
  O  O25  1  0.41313400  0.13618700  0.11028500  1
  O  O26  1  0.65371000  0.74375800  0.50388500  1
  O  O27  1  0.79744900  0.59319300  0.69435600  1
  O  O28  1  0.17268100  0.80148600  0.29389300  1
  O  O29  1  0.16229200  0.98609300  0.06499600  1
  O  O30  1  0.68547800  0.89879300  0.18505200  1
  O  O31  1  0.33177900  0.58704800  0.21908500  1
  O  O32  1  0.58614000  0.43254200  0.38036700  1
  O  O33  1  0.99633200  0.62842000  0.57292400  1
  O  O34  1  0.86223500  0.43733000  0.46887400  1
  O  O35  1  0.84783200  0.21248000  0.35942300  1
  O  O36  1  0.95078100  0.76372300  0.14037900  1
  O  O37  1  0.43670300  0.71426700  0.39621900  1
  O  O38  1  0.29150100  0.44391300  0.01254500  1
  O  O39  1  0.52359800  0.95348500  0.37306000  1
  O  O40  1  0.40764500  0.88220600  0.17078800  1
  O  O41  1  0.47935900  0.28720200  0.88534000  1
  O  O42  1  0.22067700  0.23136800  0.88083900  1
  O  O43  1  0.60140400  0.49843200  0.86773100  1
  O  O44  1  0.30158800  0.85686300  0.55926100  1
  O  O45  1  0.28349900  0.78486900  0.92583900  1
  O  O46  1  0.36253100  0.57093300  0.79626000  1
  O  O47  1  0.85688200  0.74254400  0.37700700  1
  O  O48  1  0.53234500  0.43823700  0.10074700  1
  O  O49  1  0.62517600  0.65539300  0.26338400  1
  O  O50  1  0.21948800  0.01745000  0.76876800  1
  O  O51  1  0.54140800  0.96413900  0.62646600  1
  O  O52  1  0.15392200  0.47747600  0.76525000  1
  O  O53  1  0.57034700  0.76853400  0.79478000  1
  O  O54  1  0.38383600  0.35611400  0.59804500  1
  O  O55  1  0.04996600  0.54076700  0.25242700  1
  O  O56  1  0.51136700  0.68597300  0.04548200  1
  O  O57  1  0.78984800  0.62558400  0.04612000  1
  O  O58  1  0.34682400  0.11558800  0.48814900  1
  O  O59  1  0.94865000  0.98098000  0.25334700  1
loop_
_geom_bond_atom_site_label_1
_geom_bond_atom_site_label_2
_geom_bond_distance
_geom_bond_site_symmetry_2
Al0 O43 1.786590 1_555
Al0 O24 1.796161 1_555
Al0 O27 1.819006 1_555
Al0 O53 1.824199 1_555
Al1 O33 1.796954 1_555
Al1 O3 1.850345 1_555
Al1 O47 1.863452 1_555
Al1 O26 1.885214 1_555
Al1 O27 1.930227 1_555
Al2 O44 1.771213 1_545
Al2 O7 1.800333 1_555
Al2 O50 1.833641 1_555
Al2 O58 1.836676 1_555
Al3 O57 1.784594 1_555
Al3 O48 1.829683 1_555
Al3 O49 1.867897 1_555
Al3 O56 1.882282 1_555
Al3 O13 2.403960 1_555
Al4 O34 1.767187 1_555
Al4 O6 1.829195 1_655
Al4 O55 1.833507 1_655
Al4 O13 1.873572 1_555
Al5 O14 1.795397 1_555
Al5 O19 1.813422 1_555
Al5 O9 1.883247 1_555
Al5 O44 1.958098 1_555
Al5 O33 2.132287 1_455
Al6 O54 1.711492 1_555
Al6 O46 1.865366 1_555
Al6 O9 1.865452 1_555
Al6 O52 1.873175 1_555
Al7 O12 1.824940 1_555
Al7 O6 1.849004 1_655
Al7 O35 1.888063 1_555
Al7 O7 1.937699 1_655
Al7 O2 1.960701 1_555
Al7 O34 2.244285 1_555
Al8 O1 1.777926 1_555
Al8 O48 1.785220 1_555
Al8 O31 1.789384 1_555
Al8 O38 1.834299 1_555
Al9 O12 1.816477 1_555
Al9 O5 1.851956 1_555
Al9 O18 1.871963 1_555
Al9 O15 1.916374 1_555
Al9 O2 1.984574 1_555
Al9 O8 2.011433 1_555
Al10 O32 1.801296 1_555
Al10 O37 1.806705 1_555
Al10 O24 1.820256 1_555
Al10 O49 1.888952 1_555
Al10 O26 1.917431 1_555
Al11 O14 1.788190 1_555
Al11 O46 1.822745 1_555
Al11 O22 1.865566 1_555
Al11 O45 1.870389 1_555
Al11 O52 2.062013 1_555
Al12 O32 1.820706 1_555
Al12 O35 1.839745 1_555
Al12 O4 1.844093 1_555
Al12 O16 1.865136 1_555
Al12 O13 2.396561 1_555
Al13 O12 1.725273 1_565
Al13 O20 1.777153 1_555
Al13 O19 1.792920 1_655
Al13 O3 1.803736 1_555
Al14 O23 1.746032 1_554
Al14 O36 1.776177 1_555
Al14 O30 1.829197 1_555
Al14 O57 1.840878 1_555
Al15 O11 1.769244 1_555
Al15 O14 1.820324 1_655
Al15 O3 1.833016 1_555
Al15 O22 1.881903 1_655
Al16 O25 1.786116 1_555
Al16 O16 1.907941 1_555
Al16 O39 1.963935 1_545
Al16 O40 1.967853 1_545
Al16 O30 1.973828 1_545
Al17 O5 1.736736 1_455
Al17 O42 1.836840 1_555
Al17 O7 1.837985 1_555
Al17 O50 1.876299 1_555
Al17 O2 2.162946 1_455
Al18 O56 1.789479 1_556
Al18 O45 1.790978 1_555
Al18 O53 1.837638 1_555
Al18 O10 1.898586 1_555
Al19 O4 1.694831 1_555
Al19 O51 1.781399 1_545
Al19 O58 1.810200 1_555
Al19 O39 1.812963 1_545
Al20 O8 1.716607 1_555
Al20 O18 1.744699 1_555
Al20 O41 1.753363 1_555
Al20 O43 1.802306 1_555
Al21 O38 1.787233 1_556
Al21 O42 1.789692 1_555
Al21 O17 1.803167 1_556
Al21 O52 1.811634 1_555
Al22 O2 1.776611 1_555
Al22 O33 1.780407 1_555
Al22 O34 1.813207 1_555
Al22 O27 1.851590 1_555
Al23 O28 1.799185 1_655
Al23 O59 1.803944 1_555
Al23 O36 1.843648 1_555
Al23 O47 1.856859 1_555
Al23 O19 2.045584 1_655
Al24 O40 1.758878 1_555
Al24 O28 1.778319 1_555
Al24 O29 1.832045 1_555
Al24 O0 1.888693 1_565
Al25 O54 1.775120 1_555
Al25 O18 1.827140 1_555
Al25 O4 1.845416 1_555
Al25 O24 1.914157 1_555
Al25 O32 1.938167 1_555
Al26 O5 1.804516 1_555
Al26 O11 1.816778 1_545
Al26 O15 1.857204 1_555
Al26 O23 1.891840 1_545
Al26 O21 2.117325 1_556
Al27 O8 1.712525 1_554
Al27 O21 1.800267 1_555
Al27 O17 1.804281 1_655
Al27 O13 1.836102 1_555
Al28 O15 1.867905 1_565
Al28 O51 1.894305 1_555
Al28 O10 1.895103 1_555
Al28 O23 1.967074 1_555
Al28 O53 1.978107 1_555
Al29 O37 1.790926 1_555
Al29 O44 1.833182 1_555
Al29 O51 1.946761 1_555
Al29 O39 1.961526 1_555
Al29 O26 2.024635 1_555
Al30 O59 1.752336 1_545
Al30 O16 1.783905 1_555
Al30 O20 1.791058 1_545
Al30 O35 1.804914 1_555
Al30 O30 2.394949 1_545
Al31 O40 1.814742 1_555
Al31 O31 1.816155 1_555
Al31 O37 1.854417 1_555
Al31 O56 1.921600 1_555
Al31 O49 1.938024 1_555
Al32 O47 1.824987 1_555
Al32 O30 1.832697 1_555
Al32 O20 1.855741 1_555
Al32 O26 1.872237 1_555
Al32 O39 2.115587 1_555
Al32 O49 2.175116 1_555
Al33 O43 1.814397 1_555
Al33 O38 1.836026 1_556
Al33 O46 1.859416 1_555
Al33 O41 1.920812 1_555
Al33 O48 1.947499 1_556
Al34 O25 1.742733 1_556
Al34 O41 1.821908 1_555
Al34 O10 1.940870 1_545
Al34 O42 1.960161 1_555
Al35 O11 1.768494 1_455
Al35 O45 1.785758 1_555
Al35 O29 1.795701 1_556
Al35 O50 1.801020 1_565
Al36 O21 1.748914 1_455
Al36 O59 1.758633 1_445
Al36 O29 1.784564 1_545
Al36 O0 1.811175 1_555
Al37 O6 1.815109 1_555
Al37 O0 1.833988 1_555
Al37 O1 1.847765 1_555
Al37 O58 1.852291 1_555
Al38 O36 1.844418 1_555
Al38 O22 1.846601 1_654
Al38 O57 1.919456 1_555
Al38 O55 1.961751 1_655
Al38 O17 2.032034 1_655
Al39 O31 1.791184 1_555
Al39 O9 1.827161 1_555
Al39 O55 1.857600 1_555
Al39 O1 1.987025 1_555
