# generated using pymatgen
data_Nd6Al43Cr4
_symmetry_space_group_name_H-M   'P 1'
_cell_length_a   11.07182996
_cell_length_b   11.07182996
_cell_length_c   17.82837300
_cell_angle_alpha   90.00000000
_cell_angle_beta   90.00000000
_cell_angle_gamma   119.99999976
_symmetry_Int_Tables_number   1
_chemical_formula_structural   Nd6Al43Cr4
_chemical_formula_sum   'Nd12 Al86 Cr8'
_cell_volume   1892.69728459
_cell_formula_units_Z   2
loop_
 _symmetry_equiv_pos_site_id
 _symmetry_equiv_pos_as_xyz
  1  'x, y, z'
loop_
 _atom_site_type_symbol
 _atom_site_label
 _atom_site_symmetry_multiplicity
 _atom_site_fract_x
 _atom_site_fract_y
 _atom_site_fract_z
 _atom_site_occupancy
  Nd  Nd0  1  0.47119600  0.47119600  0.90505600  1
  Nd  Nd1  1  0.52880400  0.00000000  0.90505600  1
  Nd  Nd2  1  0.00000000  0.52880400  0.90505600  1
  Nd  Nd3  1  0.52880400  0.52880400  0.09494400  1
  Nd  Nd4  1  0.47119600  0.00000000  0.09494400  1
  Nd  Nd5  1  0.00000000  0.47119600  0.09494400  1
  Nd  Nd6  1  0.52880400  0.52880400  0.40505600  1
  Nd  Nd7  1  0.47119600  0.00000000  0.40505600  1
  Nd  Nd8  1  0.00000000  0.47119600  0.40505600  1
  Nd  Nd9  1  0.47119600  0.47119600  0.59494400  1
  Nd  Nd10  1  0.52880400  0.00000000  0.59494400  1
  Nd  Nd11  1  0.00000000  0.52880400  0.59494400  1
  Al  Al0  1  0.84233600  0.23094200  0.83305800  1
  Al  Al1  1  0.76905800  0.61139400  0.83305800  1
  Al  Al2  1  0.38860600  0.15766400  0.83305800  1
  Al  Al3  1  0.23094200  0.84233600  0.83305800  1
  Al  Al4  1  0.61139400  0.76905800  0.83305800  1
  Al  Al5  1  0.15766400  0.38860600  0.83305800  1
  Al  Al6  1  0.15766400  0.76905800  0.16694200  1
  Al  Al7  1  0.23094200  0.38860600  0.16694200  1
  Al  Al8  1  0.61139400  0.84233600  0.16694200  1
  Al  Al9  1  0.76905800  0.15766400  0.16694200  1
  Al  Al10  1  0.38860600  0.23094200  0.16694200  1
  Al  Al11  1  0.84233600  0.61139400  0.16694200  1
  Al  Al12  1  0.15766400  0.76905800  0.33305800  1
  Al  Al13  1  0.23094200  0.38860600  0.33305800  1
  Al  Al14  1  0.61139400  0.84233600  0.33305800  1
  Al  Al15  1  0.76905800  0.15766400  0.33305800  1
  Al  Al16  1  0.38860600  0.23094200  0.33305800  1
  Al  Al17  1  0.84233600  0.61139400  0.33305800  1
  Al  Al18  1  0.84233600  0.23094200  0.66694200  1
  Al  Al19  1  0.76905800  0.61139400  0.66694200  1
  Al  Al20  1  0.38860600  0.15766400  0.66694200  1
  Al  Al21  1  0.23094200  0.84233600  0.66694200  1
  Al  Al22  1  0.61139400  0.76905800  0.66694200  1
  Al  Al23  1  0.15766400  0.38860600  0.66694200  1
  Al  Al24  1  0.84478900  0.84478900  0.38448600  1
  Al  Al25  1  0.15521100  0.00000000  0.38448600  1
  Al  Al26  1  0.00000000  0.15521100  0.38448600  1
  Al  Al27  1  0.15521100  0.15521100  0.61551400  1
  Al  Al28  1  0.84478900  0.00000000  0.61551400  1
  Al  Al29  1  0.00000000  0.84478900  0.61551400  1
  Al  Al30  1  0.15521100  0.15521100  0.88448600  1
  Al  Al31  1  0.84478900  0.00000000  0.88448600  1
  Al  Al32  1  0.00000000  0.84478900  0.88448600  1
  Al  Al33  1  0.84478900  0.84478900  0.11551400  1
  Al  Al34  1  0.15521100  0.00000000  0.11551400  1
  Al  Al35  1  0.00000000  0.15521100  0.11551400  1
  Al  Al36  1  0.75122000  0.75122000  0.96861700  1
  Al  Al37  1  0.24878000  0.00000000  0.96861700  1
  Al  Al38  1  0.00000000  0.24878000  0.96861700  1
  Al  Al39  1  0.24878000  0.24878000  0.03138300  1
  Al  Al40  1  0.75122000  0.00000000  0.03138300  1
  Al  Al41  1  0.00000000  0.75122000  0.03138300  1
  Al  Al42  1  0.24878000  0.24878000  0.46861700  1
  Al  Al43  1  0.75122000  0.00000000  0.46861700  1
  Al  Al44  1  0.00000000  0.75122000  0.46861700  1
  Al  Al45  1  0.75122000  0.75122000  0.53138300  1
  Al  Al46  1  0.24878000  0.00000000  0.53138300  1
  Al  Al47  1  0.00000000  0.24878000  0.53138300  1
  Al  Al48  1  0.85690800  0.45472000  0.75000000  1
  Al  Al49  1  0.54528000  0.40218700  0.75000000  1
  Al  Al50  1  0.59781300  0.14309200  0.75000000  1
  Al  Al51  1  0.45472000  0.85690800  0.75000000  1
  Al  Al52  1  0.40218700  0.54528000  0.75000000  1
  Al  Al53  1  0.14309200  0.59781300  0.75000000  1
  Al  Al54  1  0.14309200  0.54528000  0.25000000  1
  Al  Al55  1  0.45472000  0.59781300  0.25000000  1
  Al  Al56  1  0.40218700  0.85690800  0.25000000  1
  Al  Al57  1  0.54528000  0.14309200  0.25000000  1
  Al  Al58  1  0.59781300  0.45472000  0.25000000  1
  Al  Al59  1  0.85690800  0.40218700  0.25000000  1
  Al  Al60  1  0.75267100  0.24732900  0.00000000  1
  Al  Al61  1  0.75267100  0.50534200  0.00000000  1
  Al  Al62  1  0.49465800  0.24732900  0.00000000  1
  Al  Al63  1  0.24732900  0.75267100  0.00000000  1
  Al  Al64  1  0.50534200  0.75267100  0.00000000  1
  Al  Al65  1  0.24732900  0.49465800  0.00000000  1
  Al  Al66  1  0.24732900  0.75267100  0.50000000  1
  Al  Al67  1  0.24732900  0.49465800  0.50000000  1
  Al  Al68  1  0.50534200  0.75267100  0.50000000  1
  Al  Al69  1  0.75267100  0.24732900  0.50000000  1
  Al  Al70  1  0.49465800  0.24732900  0.50000000  1
  Al  Al71  1  0.75267100  0.50534200  0.50000000  1
  Al  Al72  1  0.66666700  0.33333300  0.86962300  1
  Al  Al73  1  0.33333300  0.66666700  0.86962300  1
  Al  Al74  1  0.33333300  0.66666700  0.13037700  1
  Al  Al75  1  0.66666700  0.33333300  0.13037700  1
  Al  Al76  1  0.33333300  0.66666700  0.36962300  1
  Al  Al77  1  0.66666700  0.33333300  0.36962300  1
  Al  Al78  1  0.66666700  0.33333300  0.63037700  1
  Al  Al79  1  0.33333300  0.66666700  0.63037700  1
  Al  Al80  1  0.85601400  0.85601400  0.75000000  1
  Al  Al81  1  0.14398600  0.00000000  0.75000000  1
  Al  Al82  1  0.00000000  0.14398600  0.75000000  1
  Al  Al83  1  0.14398600  0.14398600  0.25000000  1
  Al  Al84  1  0.85601400  0.00000000  0.25000000  1
  Al  Al85  1  0.00000000  0.85601400  0.25000000  1
  Cr  Cr0  1  0.26538600  0.26538600  0.75000000  1
  Cr  Cr1  1  0.73461400  0.00000000  0.75000000  1
  Cr  Cr2  1  0.00000000  0.73461400  0.75000000  1
  Cr  Cr3  1  0.73461400  0.73461400  0.25000000  1
  Cr  Cr4  1  0.26538600  0.00000000  0.25000000  1
  Cr  Cr5  1  0.00000000  0.26538600  0.25000000  1
  Cr  Cr6  1  0.00000000  0.00000000  0.00000000  1
  Cr  Cr7  1  0.00000000  0.00000000  0.50000000  1
loop_
_geom_bond_atom_site_label_1
_geom_bond_atom_site_label_2
_geom_bond_distance
_geom_bond_site_symmetry_2
Nd0 Nd3 3.444955 1_556
Nd1 Nd4 3.444955 1_556
Nd2 Nd5 3.444955 1_556
Nd6 Nd9 3.444955 1_555
Nd10 Nd7 3.444955 1_555
Nd11 Nd8 3.444955 1_555
Al0 Cr1 2.665257 1_555
Al0 Al31 2.729257 1_555
Al0 Al72 2.774529 1_555
Al0 Al50 2.799120 1_555
Al0 Al82 2.801338 1_655
Al0 Al48 2.820938 1_555
Al0 Al38 2.929568 1_655
Al0 Al18 2.961578 1_555
Al0 Al5 3.023518 1_655
Al0 Nd2 3.132729 1_655
Al0 Nd1 3.370452 1_555
Al1 Cr2 2.665257 1_655
Al1 Al32 2.729257 1_655
Al1 Al72 2.774539 1_555
Al1 Al48 2.799128 1_555
Al1 Al80 2.801338 1_555
Al1 Al49 2.820942 1_555
Al1 Al36 2.929568 1_555
Al1 Al19 2.961578 1_555
Al1 Al4 3.023518 1_555
Al1 Nd0 3.132729 1_555
Al1 Nd2 3.370452 1_655
Al2 Cr0 2.665257 1_555
Al2 Al30 2.729257 1_555
Al2 Al72 2.774538 1_555
Al2 Al49 2.799121 1_555
Al2 Al81 2.801338 1_555
Al2 Al50 2.820947 1_555
Al2 Al37 2.929568 1_555
Al2 Al20 2.961578 1_555
Al2 Al3 3.023518 1_545
Al2 Nd1 3.132729 1_555
Al2 Nd0 3.370452 1_555
Al3 Cr2 2.665257 1_555
Al3 Al32 2.729257 1_555
Al3 Al73 2.774529 1_555
Al3 Al53 2.799120 1_555
Al3 Al81 2.801338 1_565
Al3 Al51 2.820938 1_555
Al3 Al37 2.929568 1_565
Al3 Nd1 3.132729 1_565
Al3 Nd2 3.370452 1_555
Al4 Cr1 2.665257 1_565
Al4 Al73 2.774539 1_555
Al4 Al51 2.799128 1_555
Al4 Al80 2.801338 1_555
Al4 Al52 2.820942 1_555
Al4 Nd0 3.132729 1_555
Al4 Nd1 3.370452 1_565
Al5 Cr0 2.665257 1_555
Al5 Al73 2.774538 1_555
Al5 Al52 2.799121 1_555
Al5 Al82 2.801338 1_555
Al5 Al53 2.820947 1_555
Al5 Nd2 3.132729 1_555
Al5 Nd0 3.370452 1_555
Al6 Cr4 2.665257 1_565
Al6 Al74 2.774529 1_555
Al6 Al85 2.801338 1_555
Al6 Nd5 3.132729 1_555
Al6 Nd4 3.370452 1_565
Al7 Cr5 2.665257 1_555
Al7 Al74 2.774539 1_555
Al7 Al83 2.801338 1_555
Al7 Nd3 3.132729 1_555
Al7 Nd5 3.370452 1_555
Al8 Cr3 2.665257 1_555
Al8 Al84 2.801338 1_565
Al8 Al9 3.023518 1_565
Al8 Nd4 3.132729 1_565
Al8 Nd3 3.370452 1_555
Al9 Cr5 2.665257 1_655
Al9 Nd4 3.132729 1_555
Al9 Nd5 3.370452 1_655
Al10 Cr4 2.665257 1_555
Al10 Al34 2.729257 1_555
Al10 Al75 2.774539 1_555
Al10 Al57 2.799128 1_555
Al10 Al83 2.801338 1_555
Al10 Al58 2.820942 1_555
Al10 Al39 2.929568 1_555
Al10 Al16 2.961578 1_555
Al10 Al7 3.023518 1_555
Al10 Nd3 3.132729 1_555
Al10 Nd4 3.370452 1_555
Al11 Cr3 2.665257 1_555
Al11 Al33 2.729257 1_555
Al11 Al75 2.774538 1_555
Al11 Al58 2.799121 1_555
Al11 Al85 2.801338 1_655
Al11 Al59 2.820947 1_555
Al11 Al41 2.929568 1_655
Al11 Al17 2.961578 1_555
Al11 Al6 3.023518 1_655
Al11 Nd5 3.132729 1_655
Al11 Nd3 3.370452 1_555
Al12 Cr4 2.665257 1_565
Al12 Al25 2.729257 1_565
Al12 Al76 2.774529 1_555
Al12 Al56 2.799120 1_555
Al12 Al85 2.801338 1_555
Al12 Al54 2.820938 1_555
Al12 Al44 2.929568 1_555
Al12 Al6 2.961578 1_555
Al12 Al17 3.023518 1_455
Al12 Nd8 3.132729 1_555
Al12 Nd7 3.370452 1_565
Al13 Cr5 2.665257 1_555
Al13 Al26 2.729257 1_555
Al13 Al76 2.774539 1_555
Al13 Al54 2.799128 1_555
Al13 Al83 2.801338 1_555
Al13 Al55 2.820942 1_555
Al13 Al42 2.929568 1_555
Al13 Al7 2.961578 1_555
Al13 Al16 3.023518 1_555
Al13 Nd6 3.132729 1_555
Al13 Nd8 3.370452 1_555
Al14 Cr3 2.665257 1_555
Al14 Al24 2.729257 1_555
Al14 Al76 2.774538 1_555
Al14 Al55 2.799121 1_555
Al14 Al84 2.801338 1_565
Al14 Al56 2.820947 1_555
Al14 Al43 2.929568 1_565
Al14 Al8 2.961578 1_555
Al14 Al15 3.023518 1_565
Al14 Nd7 3.132729 1_565
Al14 Nd6 3.370452 1_555
Al15 Cr5 2.665257 1_655
Al15 Al26 2.729257 1_655
Al15 Al77 2.774529 1_555
Al15 Al59 2.799120 1_555
Al15 Al84 2.801338 1_555
Al15 Al57 2.820938 1_555
Al15 Al43 2.929568 1_555
Al15 Al9 2.961578 1_555
Al15 Nd7 3.132729 1_555
Al15 Nd8 3.370452 1_655
Al16 Cr4 2.665257 1_555
Al16 Al25 2.729257 1_555
Al16 Al77 2.774539 1_555
Al16 Al57 2.799128 1_555
Al16 Al83 2.801338 1_555
Al16 Al58 2.820942 1_555
Al16 Al42 2.929568 1_555
Al16 Nd6 3.132729 1_555
Al16 Nd7 3.370452 1_555
Al17 Cr3 2.665257 1_555
Al17 Al24 2.729257 1_555
Al17 Al77 2.774538 1_555
Al17 Al58 2.799121 1_555
Al17 Al85 2.801338 1_655
Al17 Al59 2.820947 1_555
Al17 Al44 2.929568 1_655
Al17 Nd8 3.132729 1_655
Al17 Nd6 3.370452 1_555
Al18 Cr1 2.665257 1_555
Al18 Al28 2.729257 1_555
Al18 Al78 2.774529 1_555
Al18 Al50 2.799120 1_555
Al18 Al82 2.801338 1_655
Al18 Al48 2.820938 1_555
Al18 Al47 2.929568 1_655
Al18 Al23 3.023518 1_655
Al18 Nd11 3.132729 1_655
Al18 Nd10 3.370452 1_555
Al19 Cr2 2.665257 1_655
Al19 Al29 2.729257 1_655
Al19 Al78 2.774539 1_555
Al19 Al48 2.799128 1_555
Al19 Al80 2.801338 1_555
Al19 Al49 2.820942 1_555
Al19 Al45 2.929568 1_555
Al19 Al22 3.023518 1_555
Al19 Nd9 3.132729 1_555
Al19 Nd11 3.370452 1_655
Al20 Cr0 2.665257 1_555
Al20 Al27 2.729257 1_555
Al20 Al78 2.774538 1_555
Al20 Al49 2.799121 1_555
Al20 Al81 2.801338 1_555
Al20 Al50 2.820947 1_555
Al20 Al46 2.929568 1_555
Al20 Al21 3.023518 1_545
Al20 Nd10 3.132729 1_555
Al20 Nd9 3.370452 1_555
Al21 Cr2 2.665257 1_555
Al21 Al29 2.729257 1_555
Al21 Al79 2.774529 1_555
Al21 Al53 2.799120 1_555
Al21 Al81 2.801338 1_565
Al21 Al51 2.820938 1_555
Al21 Al46 2.929568 1_565
Al21 Al3 2.961578 1_555
Al21 Nd10 3.132729 1_565
Al21 Nd11 3.370452 1_555
Al22 Cr1 2.665257 1_565
Al22 Al28 2.729257 1_565
Al22 Al79 2.774539 1_555
Al22 Al51 2.799128 1_555
Al22 Al80 2.801338 1_555
Al22 Al52 2.820942 1_555
Al22 Al45 2.929568 1_555
Al22 Al4 2.961578 1_555
Al22 Nd9 3.132729 1_555
Al22 Nd10 3.370452 1_565
Al23 Cr0 2.665257 1_555
Al23 Al27 2.729257 1_555
Al23 Al79 2.774538 1_555
Al23 Al52 2.799121 1_555
Al23 Al82 2.801338 1_555
Al23 Al53 2.820947 1_555
Al23 Al47 2.929568 1_555
Al23 Al5 2.961578 1_555
Al23 Nd11 3.132729 1_555
Al23 Nd9 3.370452 1_555
Al24 Cr7 2.682234 1_665
Al24 Cr3 2.690132 1_555
Al24 Al45 2.816394 1_555
Al24 Al44 2.838389 1_655
Al24 Al43 2.838389 1_565
Al24 Al85 2.916130 1_655
Al24 Al84 2.916130 1_565
Al24 Al26 2.976477 1_665
Al24 Al25 2.976477 1_665
Al24 Nd6 3.517701 1_555
Al25 Cr7 2.682234 1_555
Al25 Cr4 2.690132 1_555
Al25 Al46 2.816394 1_555
Al25 Al42 2.838389 1_555
Al25 Al44 2.838389 1_545
Al25 Al83 2.916130 1_555
Al25 Al85 2.916130 1_545
Al25 Al26 2.976477 1_555
Al25 Nd7 3.517701 1_555
Al26 Cr7 2.682234 1_555
Al26 Cr5 2.690132 1_555
Al26 Al47 2.816394 1_555
Al26 Al42 2.838389 1_555
Al26 Al43 2.838389 1_455
Al26 Al83 2.916130 1_555
Al26 Al84 2.916130 1_455
Al26 Nd8 3.517701 1_555
Al27 Cr7 2.682234 1_555
Al27 Cr0 2.690132 1_555
Al27 Al42 2.816394 1_555
Al27 Al46 2.838389 1_555
Al27 Al47 2.838389 1_555
Al27 Al82 2.916130 1_555
Al27 Al81 2.916130 1_555
Al27 Al29 2.976477 1_545
Al27 Al28 2.976477 1_455
Al27 Nd9 3.517701 1_555
Al28 Cr7 2.682234 1_655
Al28 Cr1 2.690132 1_555
Al28 Al43 2.816394 1_555
Al28 Al45 2.838389 1_545
Al28 Al47 2.838389 1_655
Al28 Al80 2.916130 1_545
Al28 Al82 2.916130 1_655
Al28 Al29 2.976477 1_645
Al28 Nd10 3.517701 1_555
Al29 Cr7 2.682234 1_565
Al29 Cr2 2.690132 1_555
Al29 Al44 2.816394 1_555
Al29 Al45 2.838389 1_455
Al29 Al46 2.838389 1_565
Al29 Al80 2.916130 1_455
Al29 Al81 2.916130 1_565
Al29 Nd11 3.517701 1_555
Al30 Cr6 2.682234 1_556
Al30 Cr0 2.690132 1_555
Al30 Al5 2.729257 1_555
Al30 Al39 2.816394 1_556
Al30 Al38 2.838389 1_555
Al30 Al37 2.838389 1_555
Al30 Al82 2.916130 1_555
Al30 Al81 2.916130 1_555
Al30 Al32 2.976477 1_545
Al30 Al31 2.976477 1_455
Al30 Nd0 3.517701 1_555
Al31 Cr6 2.682234 1_656
Al31 Cr1 2.690132 1_555
Al31 Al4 2.729257 1_545
Al31 Al40 2.816394 1_556
Al31 Al36 2.838389 1_545
Al31 Al38 2.838389 1_655
Al31 Al80 2.916130 1_545
Al31 Al82 2.916130 1_655
Al31 Al32 2.976477 1_645
Al31 Nd1 3.517701 1_555
Al32 Cr6 2.682234 1_566
Al32 Cr2 2.690132 1_555
Al32 Al41 2.816394 1_556
Al32 Al36 2.838389 1_455
Al32 Al37 2.838389 1_565
Al32 Al80 2.916130 1_455
Al32 Al81 2.916130 1_565
Al32 Nd2 3.517701 1_555
Al33 Cr6 2.682234 1_665
Al33 Cr3 2.690132 1_555
Al33 Al8 2.729257 1_555
Al33 Al36 2.816394 1_554
Al33 Al41 2.838389 1_655
Al33 Al40 2.838389 1_565
Al33 Al85 2.916130 1_655
Al33 Al84 2.916130 1_565
Al33 Al35 2.976477 1_665
Al33 Al34 2.976477 1_665
Al33 Nd3 3.517701 1_555
Al34 Cr6 2.682234 1_555
Al34 Cr4 2.690132 1_555
Al34 Al6 2.729257 1_545
Al34 Al37 2.816394 1_554
Al34 Al39 2.838389 1_555
Al34 Al41 2.838389 1_545
Al34 Al83 2.916130 1_555
Al34 Al85 2.916130 1_545
Al34 Al35 2.976477 1_555
Al34 Nd4 3.517701 1_555
Al35 Cr6 2.682234 1_555
Al35 Cr5 2.690132 1_555
Al35 Al9 2.729257 1_455
Al35 Al7 2.729257 1_555
Al35 Al38 2.816394 1_554
Al35 Al39 2.838389 1_555
Al35 Al40 2.838389 1_455
Al35 Al83 2.916130 1_555
Al35 Al84 2.916130 1_455
Al35 Nd5 3.517701 1_555
Al36 Al64 2.787125 1_556
Al36 Al61 2.787125 1_556
Al36 Cr6 2.810702 1_666
Al36 Al4 2.929568 1_555
Al36 Al40 2.973078 1_566
Al36 Al41 2.973078 1_656
Al36 Nd0 3.300979 1_555
Al36 Nd3 3.337153 1_556
Al37 Al63 2.787125 1_546
Al37 Al62 2.787125 1_556
Al37 Cr6 2.810702 1_556
Al37 Al39 2.973078 1_556
Al37 Al41 2.973078 1_546
Al37 Nd1 3.300979 1_555
Al37 Nd4 3.337153 1_556
Al38 Al60 2.787125 1_456
Al38 Al65 2.787125 1_556
Al38 Cr6 2.810702 1_556
Al38 Al5 2.929568 1_555
Al38 Al39 2.973078 1_556
Al38 Al40 2.973078 1_456
Al38 Nd2 3.300979 1_555
Al38 Nd5 3.337153 1_556
Al39 Al62 2.787125 1_555
Al39 Al65 2.787125 1_555
Al39 Cr6 2.810702 1_555
Al39 Al7 2.929568 1_555
Al39 Nd3 3.300979 1_555
Al39 Nd0 3.337153 1_554
Al40 Al60 2.787125 1_555
Al40 Al64 2.787125 1_545
Al40 Cr6 2.810702 1_655
Al40 Al9 2.929568 1_555
Al40 Al8 2.929568 1_545
Al40 Nd4 3.300979 1_555
Al40 Nd1 3.337153 1_554
Al41 Al63 2.787125 1_555
Al41 Al61 2.787125 1_455
Al41 Cr6 2.810702 1_565
Al41 Al6 2.929568 1_555
Al41 Nd5 3.300979 1_555
Al41 Nd2 3.337153 1_554
Al42 Al67 2.787125 1_555
Al42 Al70 2.787125 1_555
Al42 Cr7 2.810702 1_555
Al42 Al46 2.973078 1_555
Al42 Al47 2.973078 1_555
Al42 Nd6 3.300979 1_555
Al42 Nd9 3.337153 1_555
Al43 Al69 2.787125 1_555
Al43 Al68 2.787125 1_545
Al43 Cr7 2.810702 1_655
Al43 Al45 2.973078 1_545
Al43 Al47 2.973078 1_655
Al43 Nd7 3.300979 1_555
Al43 Nd10 3.337153 1_555
Al44 Al66 2.787125 1_555
Al44 Al71 2.787125 1_455
Al44 Cr7 2.810702 1_565
Al44 Al45 2.973078 1_455
Al44 Al46 2.973078 1_565
Al44 Nd8 3.300979 1_555
Al44 Nd11 3.337153 1_555
Al45 Al71 2.787125 1_555
Al45 Al68 2.787125 1_555
Al45 Cr7 2.810702 1_665
Al45 Nd9 3.300979 1_555
Al45 Nd6 3.337153 1_555
Al46 Al66 2.787125 1_545
Al46 Al70 2.787125 1_555
Al46 Cr7 2.810702 1_555
Al46 Nd10 3.300979 1_555
Al46 Nd7 3.337153 1_555
Al47 Al69 2.787125 1_455
Al47 Al67 2.787125 1_555
Al47 Cr7 2.810702 1_555
Al47 Nd11 3.300979 1_555
Al47 Nd8 3.337153 1_555
Al48 Cr2 2.683986 1_655
Al48 Al53 2.744071 1_655
Al48 Al72 2.821407 1_555
Al48 Al78 2.821407 1_555
Al48 Nd2 3.086285 1_655
Al48 Nd11 3.086285 1_655
Al49 Cr0 2.683986 1_555
Al49 Al52 2.744090 1_555
Al49 Al72 2.821407 1_555
Al49 Al78 2.821407 1_555
Al49 Nd0 3.086290 1_555
Al49 Nd9 3.086290 1_555
Al50 Cr1 2.683976 1_555
Al50 Al51 2.744071 1_545
Al50 Al72 2.821407 1_555
Al50 Al78 2.821407 1_555
Al50 Nd1 3.086285 1_555
Al50 Nd10 3.086285 1_555
Al51 Cr1 2.683986 1_565
Al51 Al73 2.821407 1_555
Al51 Al79 2.821407 1_555
Al51 Nd1 3.086285 1_565
Al51 Nd10 3.086285 1_565
Al52 Cr0 2.683986 1_555
Al52 Al73 2.821407 1_555
Al52 Al79 2.821407 1_555
Al52 Nd0 3.086290 1_555
Al52 Nd9 3.086290 1_555
Al53 Cr2 2.683976 1_555
Al53 Al73 2.821407 1_555
Al53 Al79 2.821407 1_555
Al53 Nd2 3.086285 1_555
Al53 Nd11 3.086285 1_555
Al54 Cr5 2.683986 1_555
Al54 Al59 2.744071 1_455
Al54 Al7 2.799128 1_555
Al54 Al6 2.820938 1_555
Al54 Al76 2.821407 1_555
Al54 Al74 2.821407 1_555
Al54 Nd8 3.086285 1_555
Al54 Nd5 3.086285 1_555
Al55 Cr3 2.683986 1_555
Al55 Al58 2.744090 1_555
Al55 Al8 2.799121 1_555
Al55 Al7 2.820942 1_555
Al55 Al76 2.821407 1_555
Al55 Al74 2.821407 1_555
Al55 Nd6 3.086290 1_555
Al55 Nd3 3.086290 1_555
Al56 Cr4 2.683976 1_565
Al56 Al57 2.744071 1_565
Al56 Al6 2.799120 1_555
Al56 Al8 2.820947 1_555
Al56 Al76 2.821407 1_555
Al56 Al74 2.821407 1_555
Al56 Nd7 3.086285 1_565
Al56 Nd4 3.086285 1_565
Al57 Cr4 2.683986 1_555
Al57 Al9 2.820938 1_555
Al57 Al77 2.821407 1_555
Al57 Al75 2.821407 1_555
Al57 Nd7 3.086285 1_555
Al57 Nd4 3.086285 1_555
Al58 Cr3 2.683986 1_555
Al58 Al77 2.821407 1_555
Al58 Al75 2.821407 1_555
Al58 Nd6 3.086290 1_555
Al58 Nd3 3.086290 1_555
Al59 Cr5 2.683976 1_655
Al59 Al9 2.799120 1_555
Al59 Al77 2.821407 1_555
Al59 Al75 2.821407 1_555
Al59 Nd8 3.086285 1_655
Al59 Nd5 3.086285 1_655
Al60 Al75 2.850098 1_555
Al60 Al72 2.850098 1_554
Al60 Al61 2.856676 1_555
Al60 Al62 2.856676 1_555
Al60 Nd5 3.117709 1_655
Al60 Nd1 3.117709 1_554
Al60 Nd2 3.397377 1_654
Al60 Nd4 3.397377 1_555
Al61 Al75 2.850104 1_555
Al61 Al72 2.850104 1_554
Al61 Al62 2.856676 1_555
Al61 Nd3 3.117709 1_555
Al61 Nd2 3.117709 1_654
Al61 Nd5 3.397377 1_655
Al61 Nd0 3.397377 1_554
Al62 Al75 2.850104 1_555
Al62 Al72 2.850104 1_554
Al62 Nd0 3.117709 1_554
Al62 Nd4 3.117709 1_555
Al62 Nd1 3.397377 1_554
Al62 Nd3 3.397377 1_555
Al63 Al74 2.850098 1_555
Al63 Al73 2.850098 1_554
Al63 Al64 2.856676 1_555
Al63 Al65 2.856676 1_555
Al63 Nd4 3.117709 1_565
Al63 Nd2 3.117709 1_554
Al63 Nd1 3.397377 1_564
Al63 Nd5 3.397377 1_555
Al64 Al74 2.850104 1_555
Al64 Al73 2.850104 1_554
Al64 Al65 2.856676 1_555
Al64 Nd3 3.117709 1_555
Al64 Nd1 3.117709 1_564
Al64 Nd4 3.397377 1_565
Al64 Nd0 3.397377 1_554
Al65 Al74 2.850104 1_555
Al65 Al73 2.850104 1_554
Al65 Nd0 3.117709 1_554
Al65 Nd5 3.117709 1_555
Al65 Nd2 3.397377 1_554
Al65 Nd3 3.397377 1_555
Al66 Al79 2.850098 1_555
Al66 Al76 2.850098 1_555
Al66 Al68 2.856676 1_555
Al66 Al67 2.856676 1_555
Al66 Nd11 3.117709 1_555
Al66 Nd7 3.117709 1_565
Al66 Nd10 3.397377 1_565
Al66 Nd8 3.397377 1_555
Al67 Al79 2.850104 1_555
Al67 Al76 2.850104 1_555
Al67 Al68 2.856676 1_555
Al67 Nd9 3.117709 1_555
Al67 Nd8 3.117709 1_555
Al67 Nd11 3.397377 1_555
Al67 Nd6 3.397377 1_555
Al68 Al79 2.850104 1_555
Al68 Al76 2.850104 1_555
Al68 Nd6 3.117709 1_555
Al68 Nd10 3.117709 1_565
Al68 Nd7 3.397377 1_565
Al68 Nd9 3.397377 1_555
Al69 Al78 2.850098 1_555
Al69 Al77 2.850098 1_555
Al69 Al71 2.856676 1_555
Al69 Al70 2.856676 1_555
Al69 Nd10 3.117709 1_555
Al69 Nd8 3.117709 1_655
Al69 Nd11 3.397377 1_655
Al69 Nd7 3.397377 1_555
Al70 Al78 2.850104 1_555
Al70 Al77 2.850104 1_555
Al70 Al71 2.856676 1_555
Al70 Nd9 3.117709 1_555
Al70 Nd7 3.117709 1_555
Al70 Nd10 3.397377 1_555
Al70 Nd6 3.397377 1_555
Al71 Al78 2.850104 1_555
Al71 Al77 2.850104 1_555
Al71 Nd6 3.117709 1_555
Al71 Nd11 3.117709 1_655
Al71 Nd8 3.397377 1_655
Al71 Nd9 3.397377 1_555
Al72 Nd1 3.273560 1_555
Al72 Nd2 3.273561 1_655
Al72 Nd0 3.273570 1_555
Al73 Nd2 3.273560 1_555
Al73 Nd1 3.273561 1_565
Al73 Nd0 3.273570 1_555
Al74 Al8 2.774538 1_555
Al74 Nd4 3.273560 1_565
Al74 Nd5 3.273561 1_555
Al74 Nd3 3.273570 1_555
Al75 Al9 2.774529 1_555
Al75 Nd5 3.273560 1_655
Al75 Nd4 3.273561 1_555
Al75 Nd3 3.273570 1_555
Al76 Nd7 3.273560 1_565
Al76 Nd8 3.273561 1_555
Al76 Nd6 3.273570 1_555
Al77 Nd8 3.273560 1_655
Al77 Nd7 3.273561 1_555
Al77 Nd6 3.273570 1_555
Al78 Nd10 3.273560 1_555
Al78 Nd11 3.273561 1_655
Al78 Nd9 3.273570 1_555
Al79 Nd11 3.273560 1_555
Al79 Nd10 3.273561 1_565
Al79 Nd9 3.273570 1_555
Al80 Cr1 2.547720 1_565
Al80 Cr2 2.547720 1_655
Al80 Al81 2.761216 1_665
Al80 Al82 2.761216 1_665
Al81 Cr0 2.547720 1_555
Al81 Cr2 2.547720 1_545
Al81 Al82 2.761215 1_555
Al82 Cr0 2.547720 1_555
Al82 Cr1 2.547720 1_455
Al83 Cr4 2.547720 1_555
Al83 Cr5 2.547720 1_555
Al83 Al85 2.761216 1_545
Al83 Al84 2.761216 1_455
Al84 Cr3 2.547720 1_545
Al84 Cr5 2.547720 1_655
Al84 Al85 2.761215 1_645
Al84 Al9 2.801338 1_555
Al85 Cr3 2.547720 1_455
Al85 Cr4 2.547720 1_565
Cr0 Nd9 3.582503 1_555
Cr0 Nd0 3.582503 1_555
Cr1 Nd1 3.582503 1_555
Cr1 Nd10 3.582503 1_555
Cr2 Nd11 3.582503 1_555
Cr2 Nd2 3.582503 1_555
Cr3 Nd6 3.582503 1_555
Cr3 Nd3 3.582503 1_555
Cr4 Nd7 3.582503 1_555
Cr4 Nd4 3.582503 1_555
Cr5 Nd8 3.582503 1_555
Cr5 Nd5 3.582503 1_555
