# generated using pymatgen
data_Mn26As18CO57
_symmetry_space_group_name_H-M   'P 1'
_cell_length_a   13.67992202
_cell_length_b   13.67992202
_cell_length_c   9.00143500
_cell_angle_alpha   90.00000000
_cell_angle_beta   90.00000000
_cell_angle_gamma   120.00000011
_symmetry_Int_Tables_number   1
_chemical_formula_structural   Mn26As18CO57
_chemical_formula_sum   'Mn26 As18 C1 O57'
_cell_volume   1458.84659040
_cell_formula_units_Z   1
loop_
 _symmetry_equiv_pos_site_id
 _symmetry_equiv_pos_as_xyz
  1  'x, y, z'
loop_
 _atom_site_type_symbol
 _atom_site_label
 _atom_site_symmetry_multiplicity
 _atom_site_fract_x
 _atom_site_fract_y
 _atom_site_fract_z
 _atom_site_occupancy
  Mn  Mn0  1  0.98824500  0.74841600  0.34897700  1
  Mn  Mn1  1  0.25158400  0.23982900  0.34897700  1
  Mn  Mn2  1  0.76017100  0.01175500  0.34897700  1
  Mn  Mn3  1  0.34505100  0.91852700  0.65016000  1
  Mn  Mn4  1  0.08147300  0.42652400  0.65016000  1
  Mn  Mn5  1  0.57347600  0.65494900  0.65016000  1
  Mn  Mn6  1  0.49212800  0.49449900  0.30412700  1
  Mn  Mn7  1  0.50550100  0.99762900  0.30412700  1
  Mn  Mn8  1  0.00237100  0.50787200  0.30412700  1
  Mn  Mn9  1  0.84105400  0.17252700  0.69654600  1
  Mn  Mn10  1  0.82747300  0.66852700  0.69654600  1
  Mn  Mn11  1  0.33147300  0.15894600  0.69654600  1
  Mn  Mn12  1  0.00000000  0.00000000  0.29752300  1
  Mn  Mn13  1  0.33333300  0.66666700  0.70118000  1
  Mn  Mn14  1  0.66021800  0.57756100  0.00312900  1
  Mn  Mn15  1  0.42243900  0.08265700  0.00312900  1
  Mn  Mn16  1  0.91734300  0.33978200  0.00312900  1
  Mn  Mn17  1  0.66770600  0.08752700  0.99649700  1
  Mn  Mn18  1  0.91247300  0.58017800  0.99649700  1
  Mn  Mn19  1  0.41982200  0.33229400  0.99649700  1
  Mn  Mn20  1  0.74702100  0.74309400  0.30922600  1
  Mn  Mn21  1  0.25690600  0.00392700  0.30922600  1
  Mn  Mn22  1  0.99607300  0.25297900  0.30922600  1
  Mn  Mn23  1  0.58635800  0.92350600  0.69028200  1
  Mn  Mn24  1  0.07649400  0.66285200  0.69028200  1
  Mn  Mn25  1  0.33714800  0.41364200  0.69028200  1
  As  As0  1  0.76156000  0.52381500  0.34754300  1
  As  As1  1  0.47618500  0.23774500  0.34754300  1
  As  As2  1  0.76225500  0.23844000  0.34754300  1
  As  As3  1  0.57222200  0.14315300  0.65265900  1
  As  As4  1  0.85684700  0.42906900  0.65265900  1
  As  As5  1  0.57093100  0.42777800  0.65265900  1
  As  As6  1  0.25137300  0.50252800  0.37730800  1
  As  As7  1  0.49747200  0.74884500  0.37730800  1
  As  As8  1  0.25115500  0.74862700  0.37730800  1
  As  As9  1  0.08140200  0.16389400  0.62242100  1
  As  As10  1  0.83610600  0.91750800  0.62242100  1
  As  As11  1  0.08249200  0.91859800  0.62242100  1
  As  As12  1  0.86181100  0.81770900  0.01224800  1
  As  As13  1  0.18229100  0.04410200  0.01224800  1
  As  As14  1  0.95589800  0.13818900  0.01224800  1
  As  As15  1  0.47084800  0.84465900  0.98678900  1
  As  As16  1  0.15534100  0.62618800  0.98678900  1
  As  As17  1  0.37381200  0.52915200  0.98678900  1
  C  C0  1  0.66666700  0.33333300  0.99982000  1
  O  O0  1  0.10027500  0.42028000  0.37418600  1
  O  O1  1  0.57972000  0.67999500  0.37418600  1
  O  O2  1  0.32000500  0.89972500  0.37418600  1
  O  O3  1  0.23236300  0.24590900  0.62713200  1
  O  O4  1  0.75409100  0.98645400  0.62713200  1
  O  O5  1  0.01354600  0.76763700  0.62713200  1
  O  O6  1  0.72068300  0.75367900  0.07632800  1
  O  O7  1  0.24632100  0.96700500  0.07632800  1
  O  O8  1  0.03299500  0.27931700  0.07632800  1
  O  O9  1  0.61225100  0.91287100  0.92274600  1
  O  O10  1  0.08712900  0.69938000  0.92274600  1
  O  O11  1  0.30062000  0.38774900  0.92274600  1
  O  O12  1  0.67169100  0.55584400  0.23878300  1
  O  O13  1  0.44415600  0.11584700  0.23878300  1
  O  O14  1  0.88415300  0.32830900  0.23878300  1
  O  O15  1  0.66260900  0.11102900  0.76035600  1
  O  O16  1  0.88897100  0.55157900  0.76035600  1
  O  O17  1  0.44842100  0.33739100  0.76035600  1
  O  O18  1  0.92324900  0.82892100  0.19704000  1
  O  O19  1  0.17107900  0.09432800  0.19704000  1
  O  O20  1  0.90567200  0.07675100  0.19704000  1
  O  O21  1  0.40964400  0.83698700  0.80256100  1
  O  O22  1  0.16301300  0.57265700  0.80256100  1
  O  O23  1  0.42734300  0.59035600  0.80256100  1
  O  O24  1  0.84127200  0.68180000  0.94206800  1
  O  O25  1  0.31820000  0.15947200  0.94206800  1
  O  O26  1  0.84052800  0.15872800  0.94206800  1
  O  O27  1  0.48662900  0.97665300  0.06221700  1
  O  O28  1  0.02334700  0.50997600  0.06221700  1
  O  O29  1  0.49002400  0.51337100  0.06221700  1
  O  O30  1  0.25867700  0.50008900  0.58023300  1
  O  O31  1  0.49991100  0.75858800  0.58023300  1
  O  O32  1  0.24141200  0.74132300  0.58023300  1
  O  O33  1  0.07453300  0.16664100  0.41948400  1
  O  O34  1  0.83335900  0.90789300  0.41948400  1
  O  O35  1  0.09210700  0.92546700  0.41948400  1
  O  O36  1  0.81533400  0.65382500  0.45491000  1
  O  O37  1  0.34617500  0.16150900  0.45491000  1
  O  O38  1  0.83849100  0.18466600  0.45491000  1
  O  O39  1  0.51860200  0.01329000  0.54492700  1
  O  O40  1  0.98671000  0.50531200  0.54492700  1
  O  O41  1  0.49468800  0.48139800  0.54492700  1
  O  O42  1  0.30240800  0.41075000  0.32863800  1
  O  O43  1  0.58925000  0.89165800  0.32863800  1
  O  O44  1  0.10834200  0.69759200  0.32863800  1
  O  O45  1  0.03027700  0.25555800  0.67175700  1
  O  O46  1  0.74444200  0.77472000  0.67175700  1
  O  O47  1  0.22528000  0.96972300  0.67175700  1
  O  O48  1  0.88915900  0.57954000  0.23590300  1
  O  O49  1  0.42046000  0.30961900  0.23590300  1
  O  O50  1  0.69038100  0.11084100  0.23590300  1
  O  O51  1  0.44416700  0.08673300  0.76318800  1
  O  O52  1  0.91326700  0.35743500  0.76318800  1
  O  O53  1  0.64256500  0.55583300  0.76318800  1
  O  O54  1  0.60949600  0.38608000  0.99985800  1
  O  O55  1  0.61392000  0.22341600  0.99985800  1
  O  O56  1  0.77658400  0.39050400  0.99985800  1
loop_
_geom_bond_atom_site_label_1
_geom_bond_atom_site_label_2
_geom_bond_distance
_geom_bond_site_symmetry_2
Mn0 O44 2.087669 1_655
Mn0 O35 2.201485 1_655
Mn0 O18 2.202979 1_555
Mn0 O48 2.253649 1_555
Mn0 O36 2.262302 1_555
Mn0 O5 2.523274 1_655
Mn1 O42 2.087669 1_555
Mn1 O33 2.201487 1_555
Mn1 O19 2.202979 1_555
Mn1 O49 2.253649 1_555
Mn1 O37 2.262302 1_555
Mn1 O3 2.523274 1_555
Mn2 O43 2.087669 1_545
Mn2 O34 2.201475 1_545
Mn2 O20 2.202979 1_555
Mn2 O50 2.253649 1_555
Mn2 O38 2.262302 1_555
Mn2 O4 2.523274 1_545
Mn3 O47 2.088144 1_555
Mn3 O32 2.201328 1_555
Mn3 O21 2.211925 1_555
Mn3 O51 2.246868 1_565
Mn3 O39 2.266431 1_565
Mn3 O2 2.503295 1_555
Mn4 O45 2.088131 1_555
Mn4 O30 2.201328 1_555
Mn4 O22 2.211925 1_555
Mn4 O52 2.246870 1_455
Mn4 O40 2.266431 1_455
Mn4 O0 2.503295 1_555
Mn5 O46 2.088134 1_555
Mn5 O31 2.201328 1_555
Mn5 O23 2.211925 1_555
Mn5 O53 2.246858 1_555
Mn5 O41 2.266431 1_555
Mn5 O1 2.503295 1_555
Mn6 O41 2.176666 1_555
Mn6 O29 2.194670 1_555
Mn6 O12 2.241149 1_555
Mn6 O42 2.263555 1_555
Mn6 O1 2.287383 1_555
Mn6 O49 2.292446 1_555
Mn7 O39 2.176666 1_565
Mn7 O27 2.194670 1_555
Mn7 O13 2.241149 1_565
Mn7 O43 2.263555 1_555
Mn7 O2 2.287383 1_555
Mn7 O50 2.292446 1_565
Mn8 O40 2.176666 1_455
Mn8 O28 2.194670 1_555
Mn8 O14 2.241149 1_455
Mn8 O44 2.263555 1_555
Mn8 O0 2.287383 1_555
Mn8 O48 2.292446 1_455
Mn9 O38 2.183016 1_555
Mn9 O26 2.217803 1_555
Mn9 O15 2.223294 1_555
Mn9 O45 2.258396 1_655
Mn9 O52 2.288100 1_555
Mn9 O4 2.292782 1_545
Mn10 O36 2.183016 1_555
Mn10 O24 2.217803 1_555
Mn10 O16 2.223306 1_555
Mn10 O46 2.258408 1_555
Mn10 O53 2.288098 1_555
Mn10 O5 2.292782 1_655
Mn11 O37 2.183016 1_555
Mn11 O25 2.217803 1_555
Mn11 O17 2.223296 1_555
Mn11 O47 2.258397 1_545
Mn11 O51 2.288087 1_555
Mn11 O3 2.292782 1_555
Mn12 O19 2.222719 1_555
Mn12 O18 2.222719 1_445
Mn12 O20 2.222719 1_455
Mn12 O35 2.262117 1_545
Mn12 O34 2.262127 1_445
Mn12 O33 2.262128 1_555
Mn13 O21 2.217881 1_555
Mn13 O22 2.217882 1_555
Mn13 O23 2.217892 1_555
Mn13 O32 2.256938 1_555
Mn13 O31 2.256948 1_555
Mn13 O30 2.256948 1_555
Mn14 O29 2.104809 1_555
Mn14 O12 2.158498 1_555
Mn14 O53 2.177081 1_554
Mn14 O6 2.220386 1_555
Mn14 O24 2.222208 1_554
Mn14 O54 2.350799 1_554
Mn15 O27 2.104809 1_545
Mn15 O13 2.158498 1_555
Mn15 O51 2.177080 1_554
Mn15 O7 2.220383 1_545
Mn15 O25 2.222208 1_554
Mn15 O55 2.350799 1_554
Mn16 O28 2.104809 1_655
Mn16 O14 2.158498 1_555
Mn16 O52 2.177082 1_554
Mn16 O8 2.220373 1_655
Mn16 O26 2.222208 1_554
Mn16 O56 2.350799 1_554
Mn17 O26 2.115511 1_555
Mn17 O15 2.156120 1_555
Mn17 O50 2.177848 1_556
Mn17 O9 2.216377 1_545
Mn17 O27 2.242641 1_546
Mn17 O55 2.316418 1_555
Mn18 O24 2.115523 1_555
Mn18 O16 2.156120 1_555
Mn18 O48 2.177849 1_556
Mn18 O10 2.216379 1_655
Mn18 O28 2.242630 1_656
Mn18 O56 2.316408 1_555
Mn19 O25 2.115512 1_555
Mn19 O17 2.156120 1_555
Mn19 O49 2.177847 1_556
Mn19 O11 2.216389 1_555
Mn19 O29 2.242643 1_556
Mn19 O54 2.316405 1_555
Mn20 O1 2.085532 1_555
Mn20 O6 2.144276 1_555
Mn20 O34 2.190841 1_555
Mn20 O36 2.285943 1_555
Mn20 O18 2.319409 1_555
Mn20 O12 2.320758 1_555
Mn21 O2 2.085532 1_545
Mn21 O7 2.144273 1_545
Mn21 O35 2.190842 1_545
Mn21 O37 2.285943 1_555
Mn21 O19 2.319409 1_555
Mn21 O13 2.320758 1_555
Mn22 O0 2.085532 1_655
Mn22 O8 2.144274 1_655
Mn22 O33 2.190831 1_655
Mn22 O38 2.285943 1_555
Mn22 O20 2.319409 1_555
Mn22 O14 2.320758 1_555
Mn23 O4 2.086580 1_555
Mn23 O9 2.139337 1_555
Mn23 O31 2.191264 1_555
Mn23 O39 2.284311 1_565
Mn23 O15 2.321814 1_565
Mn23 O21 2.324883 1_555
Mn24 O5 2.086580 1_555
Mn24 O10 2.139337 1_555
Mn24 O32 2.191264 1_555
Mn24 O40 2.284311 1_455
Mn24 O16 2.321815 1_455
Mn24 O22 2.324883 1_555
Mn25 O3 2.086580 1_555
Mn25 O11 2.139337 1_555
Mn25 O30 2.191264 1_555
Mn25 O41 2.284311 1_555
Mn25 O17 2.321826 1_555
Mn25 O23 2.324883 1_555
As0 O12 1.788996 1_555
As0 O48 1.818587 1_555
As0 O36 1.824832 1_555
As1 O13 1.788996 1_555
As1 O49 1.818587 1_555
As1 O37 1.824832 1_555
As2 O14 1.788996 1_555
As2 O50 1.818587 1_555
As2 O38 1.824832 1_555
As3 O15 1.790304 1_555
As3 O51 1.817210 1_555
As3 O39 1.825199 1_555
As4 O16 1.790293 1_555
As4 O52 1.817200 1_555
As4 O40 1.825199 1_555
As5 O17 1.790296 1_555
As5 O53 1.817209 1_555
As5 O41 1.825199 1_555
As6 O42 1.769807 1_555
As6 O0 1.792647 1_555
As6 O30 1.830562 1_555
As7 O43 1.769807 1_555
As7 O1 1.792647 1_555
As7 O31 1.830562 1_555
As8 O44 1.769807 1_555
As8 O2 1.792647 1_555
As8 O32 1.830562 1_555
As9 O45 1.770810 1_555
As9 O3 1.791194 1_555
As9 O33 1.830490 1_555
As10 O46 1.770799 1_555
As10 O4 1.791194 1_555
As10 O34 1.830489 1_555
As11 O47 1.770797 1_555
As11 O5 1.791194 1_555
As11 O35 1.830490 1_555
As12 O6 1.770924 1_555
As12 O18 1.835178 1_555
As12 O24 1.847253 1_554
As13 O7 1.770913 1_545
As13 O19 1.835178 1_555
As13 O25 1.847253 1_554
As14 O8 1.770923 1_655
As14 O20 1.835178 1_555
As14 O26 1.847253 1_554
As15 O9 1.771966 1_555
As15 O21 1.836891 1_555
As15 O27 1.837992 1_556
As16 O10 1.771977 1_555
As16 O22 1.836885 1_555
As16 O28 1.837987 1_556
As17 O11 1.771966 1_555
As17 O23 1.836889 1_555
As17 O29 1.837980 1_556
C0 O55 1.302556 1_555
C0 O56 1.302556 1_555
C0 O54 1.302568 1_555
