# generated using pymatgen
data_CaU2(BO5)2
_symmetry_space_group_name_H-M   'P 1'
_cell_length_a   6.69236985
_cell_length_b   8.37220367
_cell_length_c   9.37019813
_cell_angle_alpha   63.31708506
_cell_angle_beta   95.48301053
_cell_angle_gamma   89.71801079
_symmetry_Int_Tables_number   1
_chemical_formula_structural   CaU2(BO5)2
_chemical_formula_sum   'Ca2 U4 B4 O20'
_cell_volume   466.27823268
_cell_formula_units_Z   2
loop_
 _symmetry_equiv_pos_site_id
 _symmetry_equiv_pos_as_xyz
  1  'x, y, z'
loop_
 _atom_site_type_symbol
 _atom_site_label
 _atom_site_symmetry_multiplicity
 _atom_site_fract_x
 _atom_site_fract_y
 _atom_site_fract_z
 _atom_site_occupancy
  Ca  Ca0  1  0.41728500  0.65401000  0.67819000  1
  Ca  Ca1  1  0.58364100  0.33230900  0.32151500  1
  U  U0  1  0.00017000  0.49633200  0.00007300  1
  U  U1  1  0.55518100  0.87467400  0.24048500  1
  U  U2  1  0.44658100  0.11430000  0.75915600  1
  U  U3  1  0.00146300  0.99556900  0.00067400  1
  B  B0  1  0.84182900  0.69405300  0.60665200  1
  B  B1  1  0.15910600  0.29713600  0.39318800  1
  B  B2  1  0.07697000  0.80497300  0.39277100  1
  B  B3  1  0.92373500  0.19500800  0.60708400  1
  O  O0  1  0.67308300  0.74454100  0.49997200  1
  O  O1  1  0.32793100  0.24830500  0.49966900  1
  O  O2  1  0.07203700  0.12911300  0.73425600  1
  O  O3  1  0.92800600  0.87062800  0.26617300  1
  O  O4  1  0.23226200  0.54553700  0.89705400  1
  O  O5  1  0.76755100  0.45156200  0.10233300  1
  O  O6  1  0.55587200  0.64826000  0.24989200  1
  O  O7  1  0.44306700  0.89700000  0.75045300  1
  O  O8  1  0.56219300  0.09456000  0.24271300  1
  O  O9  1  0.44187100  0.33668700  0.75675200  1
  O  O10  1  0.81168800  0.61794800  0.76534800  1
  O  O11  1  0.18861400  0.36937200  0.23449800  1
  O  O12  1  0.31186600  0.99051100  0.02074600  1
  O  O13  1  0.69208100  0.99353600  0.97791500  1
  O  O14  1  0.03481000  0.71984800  0.55509700  1
  O  O15  1  0.96636800  0.27436800  0.44486100  1
  O  O16  1  0.27654400  0.81499200  0.37500300  1
  O  O17  1  0.72382200  0.18907300  0.62357700  1
  O  O18  1  0.98796600  0.23030400  0.99332900  1
  O  O19  1  0.01450800  0.75939100  0.01077200  1
loop_
_geom_bond_atom_site_label_1
_geom_bond_atom_site_label_2
_geom_bond_distance
_geom_bond_site_symmetry_2
Ca0 O4 2.321087 1_555
Ca0 O0 2.390835 1_555
Ca0 O9 2.417254 1_555
Ca0 O7 2.417677 1_555
Ca0 O16 2.609955 1_555
Ca0 O14 2.652732 1_555
Ca0 O10 2.661542 1_555
Ca1 O5 2.320186 1_555
Ca1 O1 2.390240 1_555
Ca1 O8 2.414622 1_555
Ca1 O6 2.420541 1_555
Ca1 O17 2.600462 1_555
Ca1 O15 2.655215 1_555
Ca1 O11 2.665117 1_555
B0 O0 1.361372 1_555
B0 O10 1.365845 1_555
B0 O14 1.405794 1_655
B1 O1 1.361198 1_555
B1 O11 1.365811 1_555
B1 O15 1.404787 1_455
B2 O16 1.360036 1_555
B2 O3 1.373383 1_455
B2 O14 1.418268 1_555
B3 O17 1.359991 1_555
B3 O2 1.373882 1_655
B3 O15 1.418148 1_555
O0 U1 2.228743 1_555
O1 U2 2.230132 1_555
O2 U3 2.330000 1_546
O2 U2 2.492386 1_555
O3 U3 2.329493 1_655
O3 U1 2.482257 1_555
O4 U0 1.857359 1_556
O5 U0 1.857531 1_655
O6 U1 1.857634 1_555
O7 U2 1.857493 1_565
O8 U1 1.851173 1_545
O9 U2 1.851939 1_555
O10 U0 2.216124 1_656
O11 U0 2.214917 1_555
O12 U3 2.066347 1_555
O12 U1 2.319894 1_555
O12 U2 2.458671 1_564
O13 U3 2.062028 1_656
O13 U2 2.324243 1_565
O13 U1 2.474627 1_556
O16 U1 2.282191 1_555
O17 U2 2.279462 1_555
O18 U3 1.936670 1_646
O18 U0 2.257980 1_656
O19 U3 1.937808 1_555
O19 U0 2.251286 1_555
