# generated using pymatgen
data_Fe5NiN4
_symmetry_space_group_name_H-M   'P 1'
_cell_length_a   7.04030600
_cell_length_b   5.68410900
_cell_length_c   4.65727700
_cell_angle_alpha   90.00000000
_cell_angle_beta   90.00000000
_cell_angle_gamma   90.00000000
_symmetry_Int_Tables_number   1
_chemical_formula_structural   Fe5NiN4
_chemical_formula_sum   'Fe10 Ni2 N8'
_cell_volume   186.37429016
_cell_formula_units_Z   2
loop_
 _symmetry_equiv_pos_site_id
 _symmetry_equiv_pos_as_xyz
  1  'x, y, z'
loop_
 _atom_site_type_symbol
 _atom_site_label
 _atom_site_symmetry_multiplicity
 _atom_site_fract_x
 _atom_site_fract_y
 _atom_site_fract_z
 _atom_site_occupancy
  Fe  Fe0  1  0.55898300  0.48793900  0.25229300  1
  Fe  Fe1  1  0.94101700  0.48793900  0.25229300  1
  Fe  Fe2  1  0.55898300  0.01206100  0.25229300  1
  Fe  Fe3  1  0.94101700  0.01206100  0.25229300  1
  Fe  Fe4  1  0.44101600  0.51206100  0.74770700  1
  Fe  Fe5  1  0.05898400  0.51206100  0.74770700  1
  Fe  Fe6  1  0.44101600  0.98793900  0.74770700  1
  Fe  Fe7  1  0.05898400  0.98793900  0.74770700  1
  Fe  Fe8  1  0.75000000  0.75000000  0.71176600  1
  Fe  Fe9  1  0.25000000  0.25000000  0.28823400  1
  Ni  Ni0  1  0.75000000  0.25000000  0.74812100  1
  Ni  Ni1  1  0.25000000  0.75000000  0.25187900  1
  N  N0  1  0.75000000  0.98270000  0.99278300  1
  N  N1  1  0.75000000  0.51730000  0.99278300  1
  N  N2  1  0.25000000  0.01730000  0.00721700  1
  N  N3  1  0.25000000  0.48270000  0.00721700  1
  N  N4  1  0.52383600  0.75000000  0.48821000  1
  N  N5  1  0.97616400  0.75000000  0.48821000  1
  N  N6  1  0.47616400  0.25000000  0.51179000  1
  N  N7  1  0.02383600  0.25000000  0.51179000  1
loop_
_geom_bond_atom_site_label_1
_geom_bond_atom_site_label_2
_geom_bond_distance
_geom_bond_site_symmetry_2
Fe0 N1 1.815799 1_554
Fe0 N4 1.867431 1_555
Fe0 N6 1.905188 1_555
Fe1 N1 1.815799 1_554
Fe1 N5 1.867431 1_555
Fe1 N7 1.905188 1_655
Fe2 N0 1.815799 1_544
Fe2 N4 1.867431 1_545
Fe2 N6 1.905188 1_555
Fe3 N0 1.815799 1_544
Fe3 N5 1.867431 1_545
Fe3 N7 1.905188 1_655
Fe4 N3 1.815794 1_556
Fe4 N6 1.867432 1_555
Fe4 N4 1.905190 1_555
Fe5 N3 1.815794 1_556
Fe5 N7 1.867432 1_555
Fe5 N5 1.905190 1_455
Fe6 N2 1.815794 1_566
Fe6 N6 1.867432 1_565
Fe6 N4 1.905190 1_555
Fe7 N2 1.815794 1_566
Fe7 N7 1.867432 1_565
Fe7 N5 1.905190 1_455
Fe8 N1 1.860754 1_555
Fe8 N0 1.860754 1_555
Fe8 N5 1.902452 1_555
Fe8 N4 1.902452 1_555
Fe9 N2 1.860754 1_555
Fe9 N3 1.860754 1_555
Fe9 N6 1.902452 1_555
Fe9 N7 1.902452 1_555
N0 Ni0 1.899165 1_565
N1 Ni0 1.899165 1_555
N2 Ni1 1.899165 1_545
N3 Ni1 1.899165 1_555
N4 Ni1 2.219957 1_555
N5 Ni1 2.219957 1_655
N6 Ni0 2.219957 1_555
N7 Ni0 2.219957 1_455
