# generated using pymatgen
data_Sr6Ti3FeO14
_symmetry_space_group_name_H-M   'P 1'
_cell_length_a   7.88738601
_cell_length_b   20.41959700
_cell_length_c   8.80683190
_cell_angle_alpha   90.00014895
_cell_angle_beta   63.39245160
_cell_angle_gamma   90.00021611
_symmetry_Int_Tables_number   1
_chemical_formula_structural   Sr6Ti3FeO14
_chemical_formula_sum   'Sr24 Ti12 Fe4 O56'
_cell_volume   1268.18832786
_cell_formula_units_Z   4
loop_
 _symmetry_equiv_pos_site_id
 _symmetry_equiv_pos_as_xyz
  1  'x, y, z'
loop_
 _atom_site_type_symbol
 _atom_site_label
 _atom_site_symmetry_multiplicity
 _atom_site_fract_x
 _atom_site_fract_y
 _atom_site_fract_z
 _atom_site_occupancy
  Sr  Sr0  1  0.37489600  0.18556800  0.75014400  1
  Sr  Sr1  1  0.12504900  0.18549500  0.24988600  1
  Sr  Sr2  1  0.87492900  0.18569800  0.75012800  1
  Sr  Sr3  1  0.62506000  0.18573500  0.24982800  1
  Sr  Sr4  1  0.74993100  0.68312900  0.50036600  1
  Sr  Sr5  1  0.50161800  0.68323200  0.99972100  1
  Sr  Sr6  1  0.24973300  0.68313400  0.50035900  1
  Sr  Sr7  1  0.99867300  0.68323500  0.99973500  1
  Sr  Sr8  1  0.74999700  0.31889300  0.50004800  1
  Sr  Sr9  1  0.50113200  0.31821400  0.00003400  1
  Sr  Sr10  1  0.25008300  0.31886600  0.49998600  1
  Sr  Sr11  1  0.99884800  0.31818700  0.99992700  1
  Sr  Sr12  1  0.37502100  0.81556500  0.74994100  1
  Sr  Sr13  1  0.12501500  0.81563100  0.24999000  1
  Sr  Sr14  1  0.87504100  0.81528200  0.74992600  1
  Sr  Sr15  1  0.62488100  0.81530900  0.25022100  1
  Sr  Sr16  1  0.37501600  0.00039700  0.74991100  1
  Sr  Sr17  1  0.12496500  0.00037700  0.25005100  1
  Sr  Sr18  1  0.87501000  0.00039800  0.74998200  1
  Sr  Sr19  1  0.62493300  0.00041800  0.25009400  1
  Sr  Sr20  1  0.74987500  0.49648900  0.49994600  1
  Sr  Sr21  1  0.49925300  0.49703300  0.00007500  1
  Sr  Sr22  1  0.25020500  0.49648000  0.49992300  1
  Sr  Sr23  1  0.00070300  0.49706000  0.00010900  1
  Ti  Ti0  1  0.74997400  0.90224200  0.50005100  1
  Ti  Ti1  1  0.50005000  0.90224600  0.00003300  1
  Ti  Ti2  1  0.24998000  0.90224800  0.50004700  1
  Ti  Ti3  1  0.99992800  0.90224100  0.00004200  1
  Ti  Ti4  1  0.74994300  0.09879100  0.49995900  1
  Ti  Ti5  1  0.49989300  0.09868900  0.99999700  1
  Ti  Ti6  1  0.25006900  0.09878800  0.49994300  1
  Ti  Ti7  1  0.00001500  0.09867700  0.00002600  1
  Ti  Ti8  1  0.37508500  0.59724800  0.74983700  1
  Ti  Ti9  1  0.12490600  0.59745100  0.25024100  1
  Ti  Ti10  1  0.87474200  0.59592800  0.75056100  1
  Ti  Ti11  1  0.62521400  0.59614500  0.24961100  1
  Fe  Fe0  1  0.37532100  0.40279000  0.74953300  1
  Fe  Fe1  1  0.12464300  0.40274900  0.25059600  1
  Fe  Fe2  1  0.87517900  0.40221500  0.74999000  1
  Fe  Fe3  1  0.62502000  0.40224200  0.24975800  1
  O  O0  1  0.37439000  0.30765600  0.75130400  1
  O  O1  1  0.12562100  0.30764200  0.24900500  1
  O  O2  1  0.87367300  0.30579100  0.75260100  1
  O  O3  1  0.62631200  0.30594200  0.24717200  1
  O  O4  1  0.74999600  0.80563200  0.49995100  1
  O  O5  1  0.49961700  0.80558300  0.00005400  1
  O  O6  1  0.25003600  0.80563100  0.49994900  1
  O  O7  1  0.00031000  0.80558500  0.00005100  1
  O  O8  1  0.74993600  0.19484200  0.49983400  1
  O  O9  1  0.49865300  0.19453700  0.00017700  1
  O  O10  1  0.25018300  0.19482400  0.49983300  1
  O  O11  1  0.00118900  0.19453700  0.00022000  1
  O  O12  1  0.37520200  0.69273000  0.74962100  1
  O  O13  1  0.12494000  0.69274700  0.25017700  1
  O  O14  1  0.87554700  0.69317600  0.74895200  1
  O  O15  1  0.62435200  0.69304300  0.25133200  1
  O  O16  1  0.75003500  0.00020900  0.50001100  1
  O  O17  1  0.49999700  0.00011500  0.00000100  1
  O  O18  1  0.24992900  0.00020400  0.49999800  1
  O  O19  1  0.99998700  0.00011900  0.00000900  1
  O  O20  1  0.37434400  0.49810100  0.75126900  1
  O  O21  1  0.12562400  0.49802100  0.24845500  1
  O  O22  1  0.87400200  0.49981900  0.75200000  1
  O  O23  1  0.62607900  0.49964500  0.24797600  1
  O  O24  1  0.61620100  0.40438300  0.75067800  1
  O  O25  1  0.36678600  0.40429400  0.24951200  1
  O  O26  1  0.13329400  0.40435800  0.75026600  1
  O  O27  1  0.88394900  0.40419400  0.24915000  1
  O  O28  1  0.50149600  0.40438300  0.49704100  1
  O  O29  1  0.24989500  0.40387900  0.99999400  1
  O  O30  1  0.99877100  0.40446500  0.50268300  1
  O  O31  1  0.75001100  0.40400400  0.00005500  1
  O  O32  1  0.49997600  0.90348900  0.50003100  1
  O  O33  1  0.24998600  0.90345200  0.00000800  1
  O  O34  1  0.00001500  0.90347900  0.49995500  1
  O  O35  1  0.74996800  0.90342800  0.00005600  1
  O  O36  1  0.62490400  0.90346500  0.74999200  1
  O  O37  1  0.37485700  0.90347000  0.25001700  1
  O  O38  1  0.12508700  0.90346800  0.74999600  1
  O  O39  1  0.87511700  0.90347400  0.25002000  1
  O  O40  1  0.49992900  0.09709300  0.50010800  1
  O  O41  1  0.25001800  0.09685100  0.99996200  1
  O  O42  1  0.00003900  0.09711200  0.49987400  1
  O  O43  1  0.74996000  0.09701100  0.00006600  1
  O  O44  1  0.62472400  0.09703600  0.74996400  1
  O  O45  1  0.37461300  0.09696100  0.25004300  1
  O  O46  1  0.12527300  0.09703900  0.74996800  1
  O  O47  1  0.87530900  0.09696100  0.25004800  1
  O  O48  1  0.62458400  0.59568600  0.75007900  1
  O  O49  1  0.37464300  0.59556900  0.24991300  1
  O  O50  1  0.12534200  0.59569600  0.75010400  1
  O  O51  1  0.87543200  0.59559900  0.24993400  1
  O  O52  1  0.49960600  0.59518100  0.50079700  1
  O  O53  1  0.25000700  0.59575400  0.99998500  1
  O  O54  1  0.00045900  0.59539200  0.49914900  1
  O  O55  1  0.74997000  0.59673300  0.00005100  1
loop_
_geom_bond_atom_site_label_1
_geom_bond_atom_site_label_2
_geom_bond_distance
_geom_bond_site_symmetry_2
Fe0 O24 1.904729 1_555
Fe0 O26 1.906347 1_555
Fe0 O0 1.942648 1_555
Fe0 O20 1.946260 1_555
Fe0 O29 1.972292 1_555
Fe0 O28 1.988425 1_555
Fe1 O27 1.904413 1_455
Fe1 O25 1.905880 1_555
Fe1 O1 1.942088 1_555
Fe1 O21 1.945489 1_555
Fe1 O29 1.973412 1_554
Fe1 O30 1.985280 1_455
Fe2 O30 1.947874 1_555
Fe2 O2 1.969047 1_555
Fe2 O31 1.969387 1_556
Fe2 O22 1.993098 1_555
Fe2 O26 2.037412 1_655
Fe2 O24 2.040433 1_555
Fe3 O28 1.947634 1_555
Fe3 O3 1.966513 1_555
Fe3 O31 1.966527 1_555
Fe3 O23 1.988980 1_555
Fe3 O25 2.038193 1_555
Fe3 O27 2.040270 1_555
O0 Sr0 2.493005 1_555
O0 Sr11 2.793686 1_455
O0 Sr9 2.793869 1_556
O0 Sr8 2.802439 1_555
O0 Sr10 2.802910 1_555
O1 Sr1 2.494202 1_555
O1 Sr9 2.794525 1_555
O1 Sr11 2.796917 1_454
O1 Sr10 2.800984 1_555
O1 Sr8 2.801966 1_455
O2 Sr2 2.452328 1_555
O2 Sr11 2.776604 1_555
O2 Sr9 2.776933 1_556
O2 Sr8 2.813121 1_555
O2 Sr10 2.814000 1_655
O3 Sr3 2.454668 1_555
O3 Sr9 2.774841 1_555
O3 Sr11 2.776060 1_554
O3 Sr10 2.813268 1_555
O3 Sr8 2.815569 1_555
O4 Ti0 1.972737 1_555
O4 Sr4 2.501464 1_555
O4 Sr15 2.791783 1_555
O4 Sr12 2.793358 1_555
O4 Sr14 2.793394 1_555
O4 Sr13 2.793620 1_655
O5 Ti1 1.973822 1_555
O5 Sr5 2.498401 1_554
O5 Sr13 2.791305 1_555
O5 Sr12 2.792533 1_554
O5 Sr14 2.795896 1_554
O5 Sr15 2.796323 1_555
O6 Ti2 1.972880 1_555
O6 Sr6 2.501342 1_555
O6 Sr15 2.791536 1_555
O6 Sr14 2.793021 1_455
O6 Sr12 2.793617 1_555
O6 Sr13 2.793642 1_555
O7 Ti3 1.973679 1_455
O7 Sr7 2.498379 1_454
O7 Sr13 2.791784 1_555
O7 Sr12 2.792291 1_554
O7 Sr14 2.795961 1_454
O7 Sr15 2.796077 1_455
O8 Ti4 1.961323 1_555
O8 Sr8 2.533072 1_555
O8 Sr3 2.791951 1_555
O8 Sr1 2.793167 1_655
O8 Sr0 2.793661 1_555
O8 Sr2 2.795055 1_555
O9 Ti5 1.957199 1_554
O9 Sr9 2.525506 1_555
O9 Sr1 2.783688 1_555
O9 Sr0 2.785766 1_554
O9 Sr3 2.797127 1_555
O9 Sr2 2.799243 1_554
O10 Ti6 1.961017 1_555
O10 Sr10 2.532888 1_555
O10 Sr3 2.791656 1_555
O10 Sr1 2.793202 1_555
O10 Sr0 2.793792 1_555
O10 Sr2 2.794607 1_455
O11 Ti7 1.957449 1_555
O11 Sr11 2.524961 1_454
O11 Sr1 2.783376 1_555
O11 Sr0 2.785185 1_554
O11 Sr3 2.797163 1_455
O11 Sr2 2.800026 1_454
O12 Ti8 1.949705 1_555
O12 Sr12 2.508242 1_555
O12 Sr4 2.789476 1_555
O12 Sr6 2.789739 1_555
O12 Sr7 2.801729 1_455
O12 Sr5 2.801865 1_555
O13 Ti9 1.945906 1_555
O13 Sr13 2.509242 1_555
O13 Sr4 2.793638 1_455
O13 Sr6 2.793664 1_555
O13 Sr5 2.803528 1_554
O13 Sr7 2.803900 1_454
O14 Ti10 1.985805 1_555
O14 Sr14 2.493367 1_555
O14 Sr6 2.785276 1_655
O14 Sr4 2.785593 1_555
O14 Sr5 2.789732 1_555
O14 Sr7 2.789898 1_555
O15 Ti11 1.978665 1_555
O15 Sr15 2.496638 1_555
O15 Sr6 2.788684 1_555
O15 Sr4 2.788919 1_555
O15 Sr7 2.794029 1_554
O15 Sr5 2.794446 1_554
O16 Ti0 2.000447 1_545
O16 Ti4 2.013005 1_555
O16 Sr17 2.785652 1_655
O16 Sr16 2.785983 1_555
O16 Sr18 2.786014 1_555
O16 Sr19 2.786273 1_555
O17 Ti1 1.998446 1_545
O17 Ti5 2.012842 1_554
O17 Sr18 2.786283 1_554
O17 Sr17 2.786474 1_555
O17 Sr19 2.786820 1_555
O17 Sr16 2.787045 1_554
O18 Ti2 2.000222 1_545
O18 Ti6 2.013046 1_555
O18 Sr18 2.785658 1_455
O18 Sr17 2.785752 1_555
O18 Sr19 2.785911 1_555
O18 Sr16 2.786155 1_555
O19 Ti3 1.998629 1_545
O19 Ti7 2.012515 1_655
O19 Sr18 2.786497 1_554
O19 Sr16 2.786591 1_654
O19 Sr17 2.786627 1_655
O19 Sr19 2.786695 1_555
O20 Ti8 2.024573 1_555
O20 Sr23 2.775433 1_556
O20 Sr21 2.775997 1_556
O20 Sr20 2.792989 1_555
O20 Sr22 2.793042 1_555
O21 Ti9 2.030370 1_555
O21 Sr23 2.772207 1_555
O21 Sr21 2.774088 1_555
O21 Sr20 2.794653 1_455
O21 Sr22 2.796504 1_555
O22 Ti10 1.962540 1_555
O22 Sr21 2.780035 1_556
O22 Sr23 2.780700 1_656
O22 Sr22 2.799475 1_655
O22 Sr20 2.799526 1_555
O23 Ti11 1.970533 1_555
O23 Sr23 2.778686 1_655
O23 Sr21 2.779608 1_555
O23 Sr20 2.796900 1_555
O23 Sr22 2.797197 1_555
O24 Sr8 2.635622 1_555
O24 Sr9 2.637602 1_556
O24 Sr21 2.727528 1_556
O24 Sr20 2.727531 1_555
O25 Sr10 2.633886 1_555
O25 Sr9 2.637092 1_555
O25 Sr22 2.726896 1_555
O25 Sr21 2.729010 1_555
O26 Sr10 2.633569 1_555
O26 Sr11 2.639409 1_455
O26 Sr22 2.725540 1_555
O26 Sr23 2.730772 1_556
O27 Sr11 2.634637 1_554
O27 Sr8 2.634657 1_555
O27 Sr23 2.728580 1_655
O27 Sr20 2.730627 1_555
O28 Sr10 2.633653 1_555
O28 Sr8 2.633682 1_555
O28 Sr22 2.724086 1_555
O28 Sr20 2.724101 1_555
O29 Sr11 2.642654 1_455
O29 Sr9 2.643343 1_556
O29 Sr23 2.735264 1_556
O29 Sr21 2.736367 1_556
O30 Sr10 2.634892 1_655
O30 Sr8 2.635271 1_555
O30 Sr22 2.724077 1_655
O30 Sr20 2.725418 1_555
O31 Sr11 2.630752 1_554
O31 Sr9 2.631061 1_555
O31 Sr21 2.742270 1_555
O31 Sr23 2.742477 1_655
O32 Ti2 1.971915 1_555
O32 Ti0 1.972074 1_555
O32 Sr12 2.663779 1_555
O32 Sr15 2.666721 1_555
O32 Sr16 2.790546 1_565
O32 Sr19 2.791169 1_565
O33 Ti3 1.972325 1_455
O33 Ti1 1.972604 1_555
O33 Sr13 2.662781 1_555
O33 Sr12 2.664180 1_554
O33 Sr17 2.791697 1_565
O33 Sr16 2.792289 1_564
O34 Ti0 1.971953 1_455
O34 Ti2 1.972094 1_555
O34 Sr13 2.663050 1_555
O34 Sr14 2.667893 1_455
O34 Sr17 2.790537 1_565
O34 Sr18 2.791522 1_465
O35 Ti1 1.971438 1_555
O35 Ti3 1.971625 1_555
O35 Sr15 2.667946 1_555
O35 Sr14 2.668112 1_554
O35 Sr18 2.792524 1_564
O35 Sr19 2.792611 1_565
O36 Ti0 1.968231 1_555
O36 Ti1 1.969017 1_556
O36 Sr12 2.665879 1_555
O36 Sr14 2.670922 1_555
O36 Sr16 2.793504 1_565
O36 Sr18 2.794468 1_565
O37 Ti1 1.968570 1_555
O37 Ti2 1.968931 1_555
O37 Sr13 2.664731 1_555
O37 Sr15 2.670748 1_555
O37 Sr17 2.792844 1_565
O37 Sr19 2.794760 1_565
O38 Ti2 1.968293 1_555
O38 Ti3 1.969058 1_456
O38 Sr12 2.665918 1_555
O38 Sr14 2.670819 1_455
O38 Sr16 2.793216 1_565
O38 Sr18 2.794340 1_465
O39 Ti3 1.968525 1_555
O39 Ti0 1.968942 1_555
O39 Sr13 2.664957 1_655
O39 Sr15 2.670848 1_555
O39 Sr17 2.792712 1_665
O39 Sr19 2.794893 1_565
O40 Ti4 1.971674 1_555
O40 Ti6 1.971697 1_555
O40 Sr0 2.672103 1_555
O40 Sr3 2.675827 1_555
O40 Sr16 2.787053 1_555
O40 Sr19 2.787919 1_555
O41 Ti5 1.971356 1_555
O41 Ti7 1.971970 1_556
O41 Sr1 2.673788 1_556
O41 Sr0 2.674186 1_555
O41 Sr16 2.784932 1_555
O41 Sr17 2.785435 1_556
O42 Ti4 1.972567 1_455
O42 Ti6 1.972652 1_555
O42 Sr1 2.670557 1_555
O42 Sr2 2.674900 1_455
O42 Sr17 2.787725 1_555
O42 Sr18 2.789009 1_455
O43 Ti7 1.972416 1_655
O43 Ti5 1.972945 1_554
O43 Sr3 2.673956 1_555
O43 Sr2 2.674467 1_554
O43 Sr19 2.786815 1_555
O43 Sr18 2.787412 1_554
O44 Ti4 1.968903 1_555
O44 Ti5 1.969086 1_555
O44 Sr0 2.673604 1_555
O44 Sr2 2.678579 1_555
O44 Sr16 2.788176 1_555
O44 Sr18 2.791297 1_555
O45 Ti6 1.968106 1_555
O45 Ti5 1.969216 1_554
O45 Sr1 2.673077 1_555
O45 Sr3 2.680431 1_555
O45 Sr17 2.786877 1_555
O45 Sr19 2.790208 1_555
O46 Ti6 1.969058 1_555
O46 Ti7 1.969278 1_556
O46 Sr0 2.673396 1_555
O46 Sr2 2.678414 1_455
O46 Sr16 2.788118 1_555
O46 Sr18 2.791112 1_455
O47 Ti4 1.968193 1_555
O47 Ti7 1.969023 1_655
O47 Sr1 2.673162 1_655
O47 Sr3 2.680554 1_555
O47 Sr17 2.786962 1_655
O47 Sr19 2.790239 1_555
O48 Ti8 1.969109 1_555
O48 Ti10 1.975004 1_555
O48 Sr4 2.656023 1_555
O48 Sr5 2.657059 1_555
O48 Sr21 2.816568 1_556
O48 Sr20 2.825272 1_555
O49 Ti9 1.968855 1_555
O49 Ti11 1.975195 1_555
O49 Sr5 2.661873 1_554
O49 Sr6 2.661967 1_555
O49 Sr21 2.813987 1_555
O49 Sr22 2.823022 1_555
O50 Ti8 1.969022 1_555
O50 Ti10 1.974785 1_455
O50 Sr6 2.656141 1_555
O50 Sr7 2.656897 1_455
O50 Sr23 2.816370 1_556
O50 Sr22 2.825813 1_555
O51 Ti9 1.969273 1_655
O51 Ti11 1.974873 1_555
O51 Sr4 2.661405 1_555
O51 Sr7 2.661544 1_554
O51 Sr23 2.813959 1_655
O51 Sr20 2.823339 1_555
O52 Ti8 1.961432 1_555
O52 Ti11 1.977973 1_555
O52 Sr6 2.667690 1_555
O52 Sr4 2.667713 1_555
O52 Sr20 2.818620 1_555
O52 Sr22 2.818712 1_555
O53 Ti8 1.969938 1_555
O53 Ti9 1.970857 1_556
O53 Sr7 2.669211 1_455
O53 Sr5 2.669277 1_555
O53 Sr23 2.815317 1_556
O53 Sr21 2.815992 1_556
O54 Ti9 1.960389 1_555
O54 Ti10 1.979685 1_455
O54 Sr6 2.663553 1_555
O54 Sr4 2.663730 1_455
O54 Sr22 2.823429 1_555
O54 Sr20 2.823575 1_455
O55 Ti10 1.964590 1_554
O55 Ti11 1.965109 1_555
O55 Sr5 2.638550 1_554
O55 Sr7 2.638745 1_554
O55 Sr23 2.838014 1_655
O55 Sr21 2.838085 1_555
