# generated using pymatgen
data_Hf6Be15Cu8
_symmetry_space_group_name_H-M   'P 1'
_cell_length_a   7.79495329
_cell_length_b   7.79495291
_cell_length_c   7.79495085
_cell_angle_alpha   60.00253010
_cell_angle_beta   60.00252680
_cell_angle_gamma   60.00253349
_symmetry_Int_Tables_number   1
_chemical_formula_structural   Hf6Be15Cu8
_chemical_formula_sum   'Hf6 Be15 Cu8'
_cell_volume   334.92711498
_cell_formula_units_Z   1
loop_
 _symmetry_equiv_pos_site_id
 _symmetry_equiv_pos_as_xyz
  1  'x, y, z'
loop_
 _atom_site_type_symbol
 _atom_site_label
 _atom_site_symmetry_multiplicity
 _atom_site_fract_x
 _atom_site_fract_y
 _atom_site_fract_z
 _atom_site_occupancy
  Hf  Hf0  1  0.70330064  0.29669903  0.29669872  1
  Hf  Hf1  1  0.29669910  0.70330167  0.70330156  1
  Hf  Hf2  1  0.29669838  0.70330131  0.29669820  1
  Hf  Hf3  1  0.70330098  0.29669998  0.70330087  1
  Hf  Hf4  1  0.29669861  0.29669877  0.70330075  1
  Hf  Hf5  1  0.70330155  0.70330124  0.29669928  1
  Be  Be0  1  0.32426200  0.32426157  0.32426154  1
  Be  Be1  1  0.67573863  0.67573826  0.67573832  1
  Be  Be2  1  0.32426141  0.32426092  0.02721819  1
  Be  Be3  1  0.32426129  0.02721815  0.32426095  1
  Be  Be4  1  0.67573976  0.67573884  0.97278193  1
  Be  Be5  1  0.67573955  0.97278200  0.67573903  1
  Be  Be6  1  0.02721828  0.32426085  0.32426133  1
  Be  Be7  1  0.97278211  0.67573927  0.67573927  1
  Be  Be8  1  0.50000044  0.00000003  -0.00000006  1
  Be  Be9  1  0.00000017  0.50000021  0.49999991  1
  Be  Be10  1  0.00000022  0.50000005  0.00000002  1
  Be  Be11  1  0.50000030  0.00000004  0.49999979  1
  Be  Be12  1  0.00000017  0.00000000  0.50000010  1
  Be  Be13  1  0.50000027  0.49999991  0.00000012  1
  Be  Be14  1  0.00000022  0.00000006  0.00000022  1
  Cu  Cu0  1  0.12267301  0.12267360  0.12267376  1
  Cu  Cu1  1  0.87732704  0.87732750  0.87732673  1
  Cu  Cu2  1  0.12267634  0.12267679  0.63197086  1
  Cu  Cu3  1  0.12267636  0.63197095  0.12267691  1
  Cu  Cu4  1  0.87732267  0.87732302  0.36802985  1
  Cu  Cu5  1  0.87732320  0.36802878  0.87732292  1
  Cu  Cu6  1  0.63197225  0.12267626  0.12267645  1
  Cu  Cu7  1  0.36803004  0.87732293  0.87732248  1
loop_
_geom_bond_atom_site_label_1
_geom_bond_atom_site_label_2
_geom_bond_distance
_geom_bond_site_symmetry_2
Hf0 Hf3 3.169449 1_555
Hf0 Hf5 3.169451 1_555
Hf0 Hf4 3.169564 1_555
Hf0 Hf2 3.169567 1_555
Hf1 Hf4 3.169456 1_555
Hf1 Hf2 3.169457 1_555
Hf1 Hf3 3.169563 1_555
Hf1 Hf5 3.169567 1_555
Hf2 Hf5 3.169457 1_555
Hf2 Hf4 3.169568 1_555
Hf3 Hf4 3.169452 1_555
Hf3 Hf5 3.169560 1_555
Be0 Be13 2.256950 1_555
Be0 Be11 2.256950 1_555
Be0 Be9 2.256953 1_555
Be0 Be2 2.315443 1_555
Be0 Be3 2.315445 1_555
Be0 Be6 2.315446 1_555
Be0 Cu3 2.371279 1_555
Be0 Cu2 2.371279 1_555
Be0 Cu6 2.371282 1_555
Be0 Hf0 2.756553 1_555
Be0 Hf4 2.756553 1_555
Be0 Hf2 2.756556 1_555
Be1 Be9 2.256950 1_655
Be1 Be13 2.256952 1_556
Be1 Be11 2.256952 1_565
Be1 Be4 2.315447 1_555
Be1 Be7 2.315448 1_555
Be1 Be5 2.315448 1_555
Be1 Cu4 2.371270 1_555
Be1 Cu7 2.371271 1_555
Be1 Cu5 2.371275 1_555
Be1 Hf3 2.756551 1_555
Be1 Hf5 2.756553 1_555
Be1 Hf1 2.756555 1_555
Be2 Be8 2.256924 1_555
Be2 Be3 2.315523 1_555
Be2 Be6 2.315525 1_555
Be2 Cu3 2.371244 1_555
Be2 Cu0 2.371245 1_555
Be2 Cu6 2.371248 1_555
Be2 Hf4 2.756550 1_554
Be2 Hf3 2.756657 1_554
Be2 Hf1 2.756660 1_554
Be3 Be8 2.256924 1_555
Be3 Be6 2.315524 1_555
Be3 Cu2 2.371242 1_555
Be3 Cu0 2.371244 1_555
Be3 Cu6 2.371248 1_555
Be3 Hf2 2.756549 1_545
Be3 Hf1 2.756659 1_545
Be3 Hf5 2.756660 1_545
Be4 Be8 2.256925 1_566
Be4 Be7 2.315521 1_555
Be4 Be5 2.315525 1_555
Be4 Cu7 2.371245 1_555
Be4 Cu5 2.371245 1_555
Be4 Cu1 2.371248 1_555
Be4 Hf5 2.756545 1_556
Be4 Hf0 2.756657 1_556
Be4 Hf2 2.756662 1_556
Be5 Be8 2.256923 1_566
Be5 Be7 2.315522 1_555
Be5 Cu4 2.371239 1_555
Be5 Cu7 2.371242 1_555
Be5 Cu1 2.371244 1_555
Be5 Hf3 2.756547 1_565
Be5 Hf0 2.756660 1_565
Be5 Hf4 2.756662 1_565
Be6 Be9 2.256840 1_555
Be6 Cu2 2.371238 1_555
Be6 Cu0 2.371241 1_555
Be6 Cu3 2.371242 1_555
Be6 Hf0 2.756550 1_455
Be6 Hf3 2.756657 1_455
Be6 Hf5 2.756660 1_455
Be7 Be9 2.256843 1_655
Be7 Cu4 2.371242 1_555
Be7 Cu1 2.371246 1_555
Be7 Cu5 2.371248 1_555
Be7 Hf1 2.756546 1_655
Be7 Hf4 2.756659 1_655
Be7 Hf2 2.756660 1_655
Be8 Cu6 2.401820 1_555
Be8 Cu7 2.401823 1_544
Be8 Cu1 2.401955 1_544
Be8 Cu0 2.401961 1_555
Be8 Hf5 2.803676 1_545
Be8 Hf2 2.803676 1_545
Be8 Hf3 2.803677 1_554
Be8 Hf4 2.803678 1_554
Be9 Cu4 2.401932 1_455
Be9 Cu3 2.401933 1_555
Be9 Cu5 2.401933 1_455
Be9 Cu2 2.401936 1_555
Be9 Hf2 2.803630 1_555
Be9 Hf4 2.803630 1_555
Be9 Hf5 2.803631 1_455
Be9 Hf3 2.803632 1_455
Be10 Be4 2.256921 1_454
Be10 Be7 2.256922 1_454
Be10 Be6 2.256926 1_555
Be10 Be2 2.256926 1_555
Be10 Cu3 2.401816 1_555
Be10 Cu5 2.401825 1_454
Be10 Cu0 2.401954 1_555
Be10 Cu1 2.401961 1_454
Be10 Hf1 2.803675 1_554
Be10 Hf5 2.803675 1_455
Be10 Hf4 2.803675 1_554
Be10 Hf0 2.803677 1_455
Be11 Be3 2.256839 1_555
Be11 Be5 2.256844 1_545
Be11 Cu4 2.401930 1_545
Be11 Cu7 2.401931 1_545
Be11 Cu6 2.401935 1_555
Be11 Cu2 2.401940 1_555
Be11 Hf5 2.803631 1_545
Be11 Hf1 2.803631 1_545
Be11 Hf0 2.803631 1_555
Be11 Hf4 2.803632 1_555
Be12 Be5 2.256921 1_445
Be12 Be7 2.256922 1_445
Be12 Be6 2.256923 1_555
Be12 Be3 2.256925 1_555
Be12 Cu2 2.401815 1_555
Be12 Cu4 2.401821 1_445
Be12 Cu0 2.401953 1_555
Be12 Cu1 2.401955 1_445
Be12 Hf1 2.803675 1_545
Be12 Hf2 2.803675 1_545
Be12 Hf3 2.803678 1_455
Be12 Hf0 2.803678 1_455
Be13 Be2 2.256840 1_555
Be13 Be4 2.256843 1_554
Be13 Cu5 2.401933 1_554
Be13 Cu7 2.401934 1_554
Be13 Cu6 2.401938 1_555
Be13 Cu3 2.401939 1_555
Be13 Hf0 2.803629 1_555
Be13 Hf2 2.803630 1_555
Be13 Hf3 2.803631 1_554
Be13 Hf1 2.803632 1_554
Be14 Cu1 2.342233 1_444
Be14 Cu0 2.342237 1_555
Be14 Cu6 2.342408 1_455
Be14 Cu5 2.342413 1_454
Be14 Cu3 2.342415 1_545
Be14 Cu2 2.342416 1_554
Be14 Cu4 2.342418 1_445
Be14 Cu7 2.342420 1_544
Cu0 Cu5 2.704727 1_454
Cu0 Cu4 2.704728 1_445
Cu0 Cu7 2.704734 1_544
Cu0 Hf2 2.708940 1_545
Cu0 Hf0 2.708941 1_455
Cu0 Hf4 2.708944 1_554
Cu1 Cu6 2.704715 1_566
Cu1 Cu2 2.704716 1_665
Cu1 Cu3 2.704721 1_656
Cu1 Hf1 2.708940 1_655
Cu1 Hf5 2.708943 1_556
Cu1 Hf3 2.708943 1_565
Cu2 Cu5 2.704745 1_455
Cu2 Cu7 2.704753 1_545
Cu2 Hf4 2.708797 1_555
Cu2 Hf1 2.708928 1_545
Cu2 Hf3 2.708930 1_455
Cu3 Cu4 2.704751 1_455
Cu3 Cu7 2.704755 1_554
Cu3 Hf2 2.708793 1_555
Cu3 Hf5 2.708926 1_455
Cu3 Hf1 2.708928 1_554
Cu4 Cu6 2.704744 1_565
Cu4 Hf5 2.708792 1_555
Cu4 Hf2 2.708931 1_655
Cu4 Hf0 2.708933 1_565
Cu5 Cu6 2.704742 1_556
Cu5 Hf3 2.708791 1_555
Cu5 Hf4 2.708930 1_655
Cu5 Hf0 2.708932 1_556
Cu6 Hf0 2.708794 1_555
Cu6 Hf5 2.708929 1_545
Cu6 Hf3 2.708932 1_554
Cu7 Hf1 2.708789 1_555
Cu7 Hf2 2.708930 1_556
Cu7 Hf4 2.708932 1_565
