# generated using pymatgen
data_BaEu(FeO3)4
_symmetry_space_group_name_H-M   'P 1'
_cell_length_a   5.45806431
_cell_length_b   5.45806431
_cell_length_c   7.70602424
_cell_angle_alpha   90.00000000
_cell_angle_beta   90.00000000
_cell_angle_gamma   90.00000000
_symmetry_Int_Tables_number   1
_chemical_formula_structural   BaEu(FeO3)4
_chemical_formula_sum   'Ba1 Eu1 Fe4 O12'
_cell_volume   229.56605321
_cell_formula_units_Z   1
loop_
 _symmetry_equiv_pos_site_id
 _symmetry_equiv_pos_as_xyz
  1  'x, y, z'
loop_
 _atom_site_type_symbol
 _atom_site_label
 _atom_site_symmetry_multiplicity
 _atom_site_fract_x
 _atom_site_fract_y
 _atom_site_fract_z
 _atom_site_occupancy
  Ba  Ba0  1  0.50000000  0.50000000  -0.00000000  1
  Eu  Eu0  1  0.00000000  -0.00000000  0.50000000  1
  Fe  Fe0  1  -0.00000000  0.50000000  0.74953561  1
  Fe  Fe1  1  0.00000000  0.50000000  0.25046439  1
  Fe  Fe2  1  0.50000000  -0.00000000  0.25046439  1
  Fe  Fe3  1  0.50000000  -0.00000000  0.74953561  1
  O  O0  1  0.24144610  0.24144610  0.26190533  1
  O  O1  1  0.24144610  0.24144610  0.73809467  1
  O  O2  1  0.75855390  0.75855390  0.73809467  1
  O  O3  1  0.75855390  0.75855390  0.26190533  1
  O  O4  1  0.75855390  0.24144610  0.73809467  1
  O  O5  1  0.75855390  0.24144610  0.26190533  1
  O  O6  1  0.24144610  0.75855390  0.73809467  1
  O  O7  1  0.24144610  0.75855390  0.26190533  1
  O  O8  1  0.00000000  0.50000000  0.50000000  1
  O  O9  1  -0.00000000  0.50000000  -0.00000000  1
  O  O10  1  0.50000000  -0.00000000  0.50000000  1
  O  O11  1  0.50000000  -0.00000000  -0.00000000  1
loop_
_geom_bond_atom_site_label_1
_geom_bond_atom_site_label_2
_geom_bond_distance
_geom_bond_site_symmetry_2
Ba0 O9 2.729032 1_555
Ba0 O9 2.729032 1_655
Ba0 O11 2.729032 1_555
Ba0 O11 2.729032 1_565
Ba0 O6 2.838366 1_554
Ba0 O4 2.838366 1_554
Ba0 O1 2.838366 1_554
Ba0 O2 2.838366 1_554
Ba0 O7 2.838366 1_555
Ba0 O3 2.838366 1_555
Ba0 O0 2.838366 1_555
Ba0 O5 2.838366 1_555
Eu0 O4 2.615282 1_455
Eu0 O3 2.615282 1_445
Eu0 O1 2.615282 1_555
Eu0 O0 2.615282 1_555
Eu0 O6 2.615282 1_545
Eu0 O5 2.615282 1_455
Eu0 O7 2.615282 1_545
Eu0 O2 2.615282 1_445
Eu0 O10 2.729032 1_455
Eu0 O8 2.729032 1_545
Eu0 O10 2.729032 1_555
Eu0 O8 2.729032 1_555
Fe0 O8 1.922927 1_555
Fe0 O9 1.930085 1_556
Fe0 O6 1.932858 1_555
Fe0 O4 1.932858 1_455
Fe0 O1 1.932858 1_555
Fe0 O2 1.932858 1_455
Fe1 O8 1.922927 1_555
Fe1 O9 1.930085 1_555
Fe1 O3 1.932858 1_455
Fe1 O5 1.932858 1_455
Fe1 O7 1.932858 1_555
Fe1 O0 1.932858 1_555
Fe2 O10 1.922927 1_555
Fe2 O11 1.930085 1_555
Fe2 O7 1.932858 1_545
Fe2 O0 1.932858 1_555
Fe2 O5 1.932858 1_555
Fe2 O3 1.932858 1_545
Fe3 O10 1.922927 1_555
Fe3 O11 1.930085 1_556
Fe3 O2 1.932858 1_545
Fe3 O1 1.932858 1_555
Fe3 O4 1.932858 1_555
Fe3 O6 1.932858 1_545
