# generated using pymatgen
data_SrRhO3
_symmetry_space_group_name_H-M   'P 1'
_cell_length_a   5.56299551
_cell_length_b   5.57434186
_cell_length_c   7.85386216
_cell_angle_alpha   90.00008343
_cell_angle_beta   89.99901072
_cell_angle_gamma   89.99939644
_symmetry_Int_Tables_number   1
_chemical_formula_structural   SrRhO3
_chemical_formula_sum   'Sr4 Rh4 O12'
_cell_volume   243.54856980
_cell_formula_units_Z   4
loop_
 _symmetry_equiv_pos_site_id
 _symmetry_equiv_pos_as_xyz
  1  'x, y, z'
loop_
 _atom_site_type_symbol
 _atom_site_label
 _atom_site_symmetry_multiplicity
 _atom_site_fract_x
 _atom_site_fract_y
 _atom_site_fract_z
 _atom_site_occupancy
  Sr  Sr0  1  0.00565146  0.46451671  0.25000175  1
  Sr  Sr1  1  0.99434943  0.53549682  0.74999807  1
  Sr  Sr2  1  0.50564189  0.03548577  0.74999965  1
  Sr  Sr3  1  0.49436111  0.96451460  0.25000002  1
  Rh  Rh0  1  0.00000765  -0.00001250  -0.00001715  1
  Rh  Rh1  1  0.49998383  0.50000463  -0.00001829  1
  Rh  Rh2  1  0.00000770  -0.00000799  0.50001933  1
  Rh  Rh3  1  0.49998816  0.50000360  0.50001939  1
  O  O0  1  0.29113217  0.20906125  0.03504872  1
  O  O1  1  0.70888181  0.79093558  0.96507725  1
  O  O2  1  0.79108514  0.29096414  0.96507541  1
  O  O3  1  0.70892823  0.79097081  0.53492695  1
  O  O4  1  0.20891171  0.70902718  0.03504676  1
  O  O5  1  0.29107700  0.20901950  0.46494841  1
  O  O6  1  0.20887785  0.70907340  0.46494543  1
  O  O7  1  0.79111683  0.29091776  0.53493189  1
  O  O8  1  0.56881268  0.50973945  0.24997623  1
  O  O9  1  0.43125836  0.49027666  0.75002227  1
  O  O10  1  0.06873674  0.99027270  0.74996622  1
  O  O11  1  0.93119024  0.00973993  0.25003169  1
loop_
_geom_bond_atom_site_label_1
_geom_bond_atom_site_label_2
_geom_bond_distance
_geom_bond_site_symmetry_2
O0 Rh1 2.013963 1_555
O0 Rh0 2.014207 1_555
O0 Sr3 2.446732 1_545
O0 Sr2 2.715145 1_554
O0 Sr0 2.720262 1_555
O1 Rh1 2.013882 1_556
O1 Rh0 2.013971 1_666
O1 Sr2 2.447456 1_565
O1 Sr3 2.714361 1_556
O1 Sr1 2.720786 1_555
O2 Rh1 2.013798 1_556
O2 Rh0 2.014155 1_656
O2 Sr1 2.447449 1_555
O2 Sr0 2.714486 1_656
O2 Sr2 2.720857 1_555
O3 Rh2 2.013659 1_665
O3 Rh3 2.014188 1_555
O3 Sr2 2.447410 1_565
O3 Sr3 2.714468 1_555
O3 Sr1 2.720735 1_555
O4 Rh1 2.013779 1_555
O4 Rh0 2.014190 1_565
O4 Sr0 2.446707 1_555
O4 Sr1 2.715224 1_454
O4 Sr3 2.720306 1_555
O5 Rh2 2.013809 1_555
O5 Rh3 2.014346 1_555
O5 Sr3 2.446699 1_545
O5 Sr2 2.715247 1_555
O5 Sr0 2.720210 1_555
O6 Rh2 2.013899 1_565
O6 Rh3 2.014120 1_555
O6 Sr0 2.446726 1_555
O6 Sr1 2.715227 1_455
O6 Sr3 2.720212 1_555
O7 Rh2 2.013824 1_655
O7 Rh3 2.014081 1_555
O7 Sr1 2.447476 1_555
O7 Sr0 2.714493 1_655
O7 Sr2 2.720754 1_555
O8 Rh1 2.001151 1_555
O8 Rh3 2.001509 1_555
O8 Sr0 2.443170 1_655
O8 Sr3 2.568678 1_555
O9 Rh1 2.000770 1_556
O9 Rh3 2.001096 1_555
O9 Sr1 2.443556 1_455
O9 Sr2 2.568704 1_555
O10 Rh2 2.000676 1_565
O10 Rh0 2.001199 1_566
O10 Sr2 2.443537 1_565
O10 Sr1 2.568633 1_455
O11 Rh2 2.001088 1_655
O11 Rh0 2.001547 1_655
O11 Sr3 2.443123 1_545
O11 Sr0 2.568705 1_655
