# generated using pymatgen
data_La3GaCuSe7
_symmetry_space_group_name_H-M   'P 1'
_cell_length_a   10.62726298
_cell_length_b   10.62726298
_cell_length_c   6.37597700
_cell_angle_alpha   90.00000000
_cell_angle_beta   90.00000000
_cell_angle_gamma   120.00000612
_symmetry_Int_Tables_number   1
_chemical_formula_structural   La3GaCuSe7
_chemical_formula_sum   'La6 Ga2 Cu2 Se14'
_cell_volume   623.62024032
_cell_formula_units_Z   2
loop_
 _symmetry_equiv_pos_site_id
 _symmetry_equiv_pos_as_xyz
  1  'x, y, z'
loop_
 _atom_site_type_symbol
 _atom_site_label
 _atom_site_symmetry_multiplicity
 _atom_site_fract_x
 _atom_site_fract_y
 _atom_site_fract_z
 _atom_site_occupancy
  La  La0  1  0.14744900  0.77836300  0.07362000  1
  La  La1  1  0.22163700  0.36908600  0.07362000  1
  La  La2  1  0.63091400  0.85255100  0.07362000  1
  La  La3  1  0.85255100  0.22163700  0.57362000  1
  La  La4  1  0.77836300  0.63091400  0.57362000  1
  La  La5  1  0.36908600  0.14744900  0.57362000  1
  Ga  Ga0  1  0.33333300  0.66666700  0.48800200  1
  Ga  Ga1  1  0.66666700  0.33333300  0.98800200  1
  Cu  Cu0  1  0.00000000  0.00000000  0.13600200  1
  Cu  Cu1  1  0.00000000  0.00000000  0.63600200  1
  Se  Se0  1  0.25480100  0.10354000  0.11163800  1
  Se  Se1  1  0.89646000  0.15126100  0.11163800  1
  Se  Se2  1  0.84873900  0.74519900  0.11163800  1
  Se  Se3  1  0.74519900  0.89646000  0.61163800  1
  Se  Se4  1  0.10354000  0.84873900  0.61163800  1
  Se  Se5  1  0.15126100  0.25480100  0.61163800  1
  Se  Se6  1  0.33333300  0.66666700  0.86374700  1
  Se  Se7  1  0.66666700  0.33333300  0.36374700  1
  Se  Se8  1  0.42980300  0.90979600  0.34124400  1
  Se  Se9  1  0.09020400  0.52000800  0.34124400  1
  Se  Se10  1  0.47999200  0.57019700  0.34124400  1
  Se  Se11  1  0.57019700  0.09020400  0.84124400  1
  Se  Se12  1  0.90979600  0.47999200  0.84124400  1
  Se  Se13  1  0.52000800  0.42980300  0.84124400  1
loop_
_geom_bond_atom_site_label_1
_geom_bond_atom_site_label_2
_geom_bond_distance
_geom_bond_site_symmetry_2
La0 Se2 3.023477 1_455
La0 Se9 3.024867 1_555
La0 Se0 3.059404 1_565
La0 Se6 3.073581 1_554
La0 Se8 3.110519 1_555
La0 Se4 3.130908 1_554
La0 Se12 3.258822 1_454
La0 Se4 3.590777 1_555
La1 Se0 3.023477 1_555
La1 Se10 3.024870 1_555
La1 Se1 3.059404 1_455
La1 Se6 3.073590 1_554
La1 Se9 3.110527 1_555
La1 Se5 3.130908 1_554
La1 Se13 3.258825 1_554
La1 Se5 3.590777 1_555
La2 Se1 3.023477 1_565
La2 Se8 3.024876 1_555
La2 Se2 3.059404 1_555
La2 Se6 3.073589 1_554
La2 Se10 3.110519 1_555
La2 Se3 3.130908 1_554
La2 Se11 3.258816 1_564
La2 Se3 3.590777 1_555
La3 Se5 3.023477 1_655
La3 Se12 3.024867 1_555
La3 Se3 3.059404 1_545
La3 Se7 3.073581 1_555
La3 Se11 3.110519 1_555
La3 Se1 3.130908 1_555
La3 Se9 3.258822 1_655
La3 Se1 3.590777 1_556
La4 Se3 3.023477 1_555
La4 Se13 3.024870 1_555
La4 Se4 3.059404 1_655
La4 Se7 3.073590 1_555
La4 Se12 3.110527 1_555
La4 Se2 3.130908 1_555
La4 Se10 3.258825 1_555
La4 Se2 3.590777 1_556
La5 Se4 3.023477 1_545
La5 Se11 3.024876 1_555
La5 Se5 3.059404 1_555
La5 Se7 3.073589 1_555
La5 Se13 3.110519 1_555
La5 Se0 3.130908 1_555
La5 Se8 3.258816 1_545
La5 Se0 3.590777 1_556
Ga0 Se6 2.395741 1_555
Ga0 Se9 2.440021 1_555
Ga0 Se8 2.440021 1_555
Ga0 Se10 2.440021 1_555
Ga1 Se7 2.395741 1_556
Ga1 Se12 2.440021 1_555
Ga1 Se11 2.440021 1_555
Ga1 Se13 2.440021 1_555
Cu0 Se2 2.363835 1_445
Cu0 Se0 2.363835 1_555
Cu0 Se1 2.363835 1_455
Cu1 Se5 2.363835 1_555
Cu1 Se3 2.363835 1_445
Cu1 Se4 2.363835 1_545
