# generated using pymatgen
data_YbRu3C
_symmetry_space_group_name_H-M   'P 1'
_cell_length_a   4.10822903
_cell_length_b   4.10822903
_cell_length_c   4.10822903
_cell_angle_alpha   90.00000000
_cell_angle_beta   90.00000000
_cell_angle_gamma   90.00000000
_symmetry_Int_Tables_number   1
_chemical_formula_structural   YbRu3C
_chemical_formula_sum   'Yb1 Ru3 C1'
_cell_volume   69.33682334
_cell_formula_units_Z   1
loop_
 _symmetry_equiv_pos_site_id
 _symmetry_equiv_pos_as_xyz
  1  'x, y, z'
loop_
 _atom_site_type_symbol
 _atom_site_label
 _atom_site_symmetry_multiplicity
 _atom_site_fract_x
 _atom_site_fract_y
 _atom_site_fract_z
 _atom_site_occupancy
  Yb  Yb0  1  0.50000000  0.50000000  0.50000000  1
  Ru  Ru0  1  0.50000000  0.00000000  0.00000000  1
  Ru  Ru1  1  0.00000000  0.50000000  0.00000000  1
  Ru  Ru2  1  0.00000000  0.00000000  0.50000000  1
  C  C0  1  0.00000000  0.00000000  0.00000000  1
loop_
_geom_bond_atom_site_label_1
_geom_bond_atom_site_label_2
_geom_bond_distance
_geom_bond_site_symmetry_2
Ru0 Yb0 2.904957 1_555
Ru0 Yb0 2.904957 1_554
Ru0 Yb0 2.904957 1_544
Ru0 Yb0 2.904957 1_545
Ru1 Yb0 2.904957 1_555
Ru1 Yb0 2.904957 1_554
Ru1 Yb0 2.904957 1_455
Ru1 Yb0 2.904957 1_454
Ru2 Yb0 2.904957 1_555
Ru2 Yb0 2.904957 1_445
Ru2 Yb0 2.904957 1_455
Ru2 Yb0 2.904957 1_545
C0 Ru0 2.054115 1_555
C0 Ru1 2.054115 1_545
C0 Ru1 2.054115 1_555
C0 Ru0 2.054115 1_455
C0 Ru2 2.054115 1_555
C0 Ru2 2.054115 1_554
