# generated using pymatgen
data_Ba6CaEu2Cu6(HgO7)3
_symmetry_space_group_name_H-M   'P 1'
_cell_length_a   5.45618583
_cell_length_b   8.62736253
_cell_length_c   13.39713519
_cell_angle_alpha   97.36267045
_cell_angle_beta   78.25053798
_cell_angle_gamma   71.56588683
_symmetry_Int_Tables_number   1
_chemical_formula_structural   Ba6CaEu2Cu6(HgO7)3
_chemical_formula_sum   'Ba6 Ca1 Eu2 Cu6 Hg3 O21'
_cell_volume   573.01817579
_cell_formula_units_Z   1
loop_
 _symmetry_equiv_pos_site_id
 _symmetry_equiv_pos_as_xyz
  1  'x, y, z'
loop_
 _atom_site_type_symbol
 _atom_site_label
 _atom_site_symmetry_multiplicity
 _atom_site_fract_x
 _atom_site_fract_y
 _atom_site_fract_z
 _atom_site_occupancy
  Ba  Ba0  1  0.30157100  0.59945500  0.79740400  1
  Ba  Ba1  1  0.96870700  0.26535300  0.79723500  1
  Ba  Ba2  1  0.63659100  0.93179900  0.79501700  1
  Ba  Ba3  1  0.69796000  0.40131400  0.20276500  1
  Ba  Ba4  1  0.36509600  0.06721200  0.20259600  1
  Ba  Ba5  1  0.03007500  0.73486700  0.20498300  1
  Ca  Ca0  1  0.83333300  0.83333300  0.50000000  1
  Eu  Eu0  1  0.16786200  0.16429100  0.49998600  1
  Eu  Eu1  1  0.49880500  0.50237600  0.50001400  1
  Cu  Cu0  1  0.24473300  0.87762200  0.63291200  1
  Cu  Cu1  1  0.91073600  0.54607800  0.63245100  1
  Cu  Cu2  1  0.57914500  0.20924500  0.63246600  1
  Cu  Cu3  1  0.42193300  0.78904400  0.36708800  1
  Cu  Cu4  1  0.08752200  0.45742200  0.36753400  1
  Cu  Cu5  1  0.75593100  0.12058900  0.36754900  1
  Hg  Hg0  1  0.66648400  0.66673000  0.00030200  1
  Hg  Hg1  1  0.33333300  0.33333300  0.00000000  1
  Hg  Hg2  1  0.00018300  0.99993700  0.99969800  1
  O  O0  1  0.10874500  0.94540100  0.83710900  1
  O  O1  1  0.77567800  0.61243100  0.83621500  1
  O  O2  1  0.44224600  0.27895200  0.83655600  1
  O  O3  1  0.55792200  0.72126600  0.16289100  1
  O  O4  1  0.22442000  0.38771400  0.16344400  1
  O  O5  1  0.89098900  0.05423600  0.16378500  1
  O  O6  1  0.08980000  0.70526300  0.61880300  1
  O  O7  1  0.75509800  0.37262000  0.61747500  1
  O  O8  1  0.41866400  0.04075200  0.61882100  1
  O  O9  1  0.58613500  0.70526300  0.61880300  1
  O  O10  1  0.25480800  0.37262000  0.61747500  1
  O  O11  1  0.92176200  0.04075200  0.61882100  1
  O  O12  1  0.24800200  0.62591400  0.38117900  1
  O  O13  1  0.91156900  0.29404700  0.38252500  1
  O  O14  1  0.57686700  0.96140400  0.38119700  1
  O  O15  1  0.74490400  0.62591400  0.38117900  1
  O  O16  1  0.41185900  0.29404700  0.38252500  1
  O  O17  1  0.08053200  0.96140400  0.38119700  1
  O  O18  1  0.83333300  0.33333300  0.00000000  1
  O  O19  1  0.49961500  0.00157200  0.99919800  1
  O  O20  1  0.16705200  0.66509500  0.00080200  1
loop_
_geom_bond_atom_site_label_1
_geom_bond_atom_site_label_2
_geom_bond_distance
_geom_bond_site_symmetry_2
Ba0 O20 2.609952 1_556
Ba0 O0 2.770740 1_555
Ba0 O1 2.773172 1_455
Ba0 O1 2.773178 1_555
Ba0 O2 2.775513 1_555
Ba0 O9 2.985350 1_555
Ba0 O6 2.985350 1_555
Ba0 O10 3.010445 1_555
Ba0 O7 3.010445 1_555
Ba1 O18 2.601786 1_556
Ba1 O2 2.774356 1_655
Ba1 O2 2.774366 1_555
Ba1 O0 2.774701 1_645
Ba1 O1 2.780097 1_555
Ba1 O8 2.984911 1_655
Ba1 O11 2.984918 1_555
Ba1 O10 3.007780 1_655
Ba1 O7 3.007782 1_555
Ba2 O19 2.619999 1_565
Ba2 O1 2.776726 1_555
Ba2 O2 2.779965 1_565
Ba2 O0 2.781040 1_555
Ba2 O0 2.781051 1_655
Ba2 O8 2.978992 1_565
Ba2 O11 2.978995 1_565
Ba2 O9 2.981799 1_555
Ba2 O6 2.981807 1_655
Ba3 O18 2.601786 1_555
Ba3 O4 2.774358 1_655
Ba3 O4 2.774364 1_555
Ba3 O3 2.774701 1_555
Ba3 O5 2.780097 1_555
Ba3 O15 2.984911 1_555
Ba3 O12 2.984911 1_555
Ba3 O16 3.007780 1_555
Ba3 O13 3.007782 1_555
Ba4 O19 2.609952 1_554
Ba4 O3 2.770740 1_545
Ba4 O5 2.773172 1_555
Ba4 O5 2.773178 1_455
Ba4 O4 2.775505 1_555
Ba4 O17 2.985350 1_545
Ba4 O14 2.985350 1_545
Ba4 O16 3.010445 1_555
Ba4 O13 3.010445 1_455
Ba5 O20 2.619999 1_555
Ba5 O5 2.776734 1_465
Ba5 O4 2.779965 1_555
Ba5 O3 2.781043 1_455
Ba5 O3 2.781048 1_555
Ba5 O12 2.978992 1_555
Ba5 O15 2.978995 1_455
Ba5 O17 2.981806 1_555
Ba5 O14 2.981807 1_455
Ca0 O9 2.468226 1_555
Ca0 O14 2.468233 1_555
Ca0 O6 2.468233 1_655
Ca0 O17 2.468236 1_655
Ca0 O11 2.469370 1_565
Ca0 O15 2.469370 1_555
Ca0 O8 2.469371 1_565
Ca0 O12 2.469371 1_655
Eu0 O8 2.437814 1_555
Eu0 O11 2.437820 1_455
Eu0 O14 2.438414 1_545
Eu0 O17 2.438416 1_545
Eu0 O16 2.458184 1_555
Eu0 O13 2.458187 1_455
Eu0 O10 2.459926 1_555
Eu0 O7 2.459926 1_455
Eu1 O15 2.437811 1_555
Eu1 O12 2.437814 1_555
Eu1 O6 2.438414 1_555
Eu1 O9 2.438416 1_555
Eu1 O10 2.458184 1_555
Eu1 O7 2.458187 1_555
Eu1 O16 2.459926 1_555
Eu1 O13 2.459926 1_555
Cu0 O6 1.936370 1_555
Cu0 O9 1.936374 1_555
Cu0 O8 1.938238 1_565
Cu0 O11 1.938242 1_465
Cu0 O0 2.620156 1_555
Cu1 O6 1.927234 1_655
Cu1 O9 1.927234 1_555
Cu1 O7 1.948582 1_555
Cu1 O10 1.948582 1_655
Cu1 O1 2.614623 1_555
Cu2 O11 1.927497 1_555
Cu2 O8 1.927505 1_555
Cu2 O7 1.948969 1_555
Cu2 O10 1.948969 1_555
Cu2 O2 2.618830 1_555
Cu3 O17 1.936374 1_555
Cu3 O14 1.936382 1_555
Cu3 O12 1.938238 1_555
Cu3 O15 1.938242 1_555
Cu3 O3 2.620156 1_555
Cu4 O12 1.927494 1_555
Cu4 O15 1.927498 1_455
Cu4 O13 1.948969 1_455
Cu4 O16 1.948969 1_555
Cu4 O4 2.618830 1_555
Cu5 O14 1.927234 1_545
Cu5 O17 1.927234 1_645
Cu5 O13 1.948582 1_555
Cu5 O16 1.948582 1_555
Cu5 O5 2.614623 1_555
Hg0 O3 2.086267 1_555
Hg0 O1 2.105485 1_554
Hg1 O4 2.097234 1_555
Hg1 O2 2.097234 1_554
Hg2 O0 2.086267 1_555
Hg2 O5 2.105485 1_466
