# generated using pymatgen
data_Pr2Ni22C3
_symmetry_space_group_name_H-M   'P 1'
_cell_length_a   9.40645237
_cell_length_b   9.40645237
_cell_length_c   14.62370376
_cell_angle_alpha   90.00000000
_cell_angle_beta   90.00000000
_cell_angle_gamma   105.79510273
_symmetry_Int_Tables_number   1
_chemical_formula_structural   Pr2Ni22C3
_chemical_formula_sum   'Pr8 Ni88 C12'
_cell_volume   1245.06802090
_cell_formula_units_Z   4
loop_
 _symmetry_equiv_pos_site_id
 _symmetry_equiv_pos_as_xyz
  1  'x, y, z'
loop_
 _atom_site_type_symbol
 _atom_site_label
 _atom_site_symmetry_multiplicity
 _atom_site_fract_x
 _atom_site_fract_y
 _atom_site_fract_z
 _atom_site_occupancy
  Pr  Pr0  1  0.81432360  0.68567640  0.25000000  1
  Pr  Pr1  1  0.68567640  0.81432360  0.75000000  1
  Pr  Pr2  1  0.18567640  0.31432360  0.75000000  1
  Pr  Pr3  1  0.31432360  0.18567640  0.25000000  1
  Pr  Pr4  1  0.70730641  0.29269359  0.52799699  1
  Pr  Pr5  1  0.29269359  0.70730641  0.47200301  1
  Pr  Pr6  1  0.79269359  0.20730641  0.02799699  1
  Pr  Pr7  1  0.20730641  0.79269359  0.97200301  1
  Ni  Ni0  1  0.92957898  0.43027629  0.18165003  1
  Ni  Ni1  1  0.43027629  0.92957898  0.81834997  1
  Ni  Ni2  1  0.93027629  0.42957898  0.68165003  1
  Ni  Ni3  1  0.42957898  0.93027629  0.31834997  1
  Ni  Ni4  1  0.07042102  0.56972371  0.81834997  1
  Ni  Ni5  1  0.56972371  0.07042102  0.18165003  1
  Ni  Ni6  1  0.06972371  0.57042102  0.31834997  1
  Ni  Ni7  1  0.57042102  0.06972371  0.68165003  1
  Ni  Ni8  1  0.56036132  0.43963868  0.34228865  1
  Ni  Ni9  1  0.43963868  0.56036132  0.65771135  1
  Ni  Ni10  1  0.93963868  0.06036132  0.84228865  1
  Ni  Ni11  1  0.06036132  0.93963868  0.15771135  1
  Ni  Ni12  1  0.00761109  0.76893397  0.42214559  1
  Ni  Ni13  1  0.76893397  0.00761109  0.57785441  1
  Ni  Ni14  1  0.26893397  0.50761109  0.92214559  1
  Ni  Ni15  1  0.50761109  0.26893397  0.07785441  1
  Ni  Ni16  1  0.99238891  0.23106603  0.57785441  1
  Ni  Ni17  1  0.23106603  0.99238891  0.42214559  1
  Ni  Ni18  1  0.73106603  0.49238891  0.07785441  1
  Ni  Ni19  1  0.49238891  0.73106603  0.92214559  1
  Ni  Ni20  1  0.75304648  0.59921618  0.45051271  1
  Ni  Ni21  1  0.59921618  0.75304648  0.54948729  1
  Ni  Ni22  1  0.09921618  0.25304648  0.95051271  1
  Ni  Ni23  1  0.25304648  0.09921618  0.04948729  1
  Ni  Ni24  1  0.24695352  0.40078382  0.54948729  1
  Ni  Ni25  1  0.40078382  0.24695352  0.45051271  1
  Ni  Ni26  1  0.90078382  0.74695352  0.04948729  1
  Ni  Ni27  1  0.74695352  0.90078382  0.95051271  1
  Ni  Ni28  1  0.13910802  0.21196020  0.42789636  1
  Ni  Ni29  1  0.21196020  0.13910802  0.57210364  1
  Ni  Ni30  1  0.71196020  0.63910802  0.92789636  1
  Ni  Ni31  1  0.63910802  0.71196020  0.07210364  1
  Ni  Ni32  1  0.86089198  0.78803980  0.57210364  1
  Ni  Ni33  1  0.78803980  0.86089198  0.42789636  1
  Ni  Ni34  1  0.28803980  0.36089198  0.07210364  1
  Ni  Ni35  1  0.36089198  0.28803980  0.92789636  1
  Ni  Ni36  1  0.82246524  0.39552233  0.34329799  1
  Ni  Ni37  1  0.39552233  0.82246524  0.65670201  1
  Ni  Ni38  1  0.89552233  0.32246524  0.84329799  1
  Ni  Ni39  1  0.32246524  0.89552233  0.15670201  1
  Ni  Ni40  1  0.17753476  0.60447767  0.65670201  1
  Ni  Ni41  1  0.60447767  0.17753476  0.34329799  1
  Ni  Ni42  1  0.10447767  0.67753476  0.15670201  1
  Ni  Ni43  1  0.67753476  0.10447767  0.84329799  1
  Ni  Ni44  1  0.94821840  0.79720645  0.86879852  1
  Ni  Ni45  1  0.79720645  0.94821840  0.13120148  1
  Ni  Ni46  1  0.29720645  0.44821840  0.36879852  1
  Ni  Ni47  1  0.44821840  0.29720645  0.63120148  1
  Ni  Ni48  1  0.05178160  0.20279355  0.13120148  1
  Ni  Ni49  1  0.20279355  0.05178160  0.86879852  1
  Ni  Ni50  1  0.70279355  0.55178160  0.63120148  1
  Ni  Ni51  1  0.55178160  0.70279355  0.36879852  1
  Ni  Ni52  1  0.04557374  0.29453678  0.29933038  1
  Ni  Ni53  1  0.29453678  0.04557374  0.70066962  1
  Ni  Ni54  1  0.79453678  0.54557374  0.79933038  1
  Ni  Ni55  1  0.54557374  0.79453678  0.20066962  1
  Ni  Ni56  1  0.95442626  0.70546322  0.70066962  1
  Ni  Ni57  1  0.70546322  0.95442626  0.29933038  1
  Ni  Ni58  1  0.20546322  0.45442626  0.20066962  1
  Ni  Ni59  1  0.45442626  0.20546322  0.79933038  1
  Ni  Ni60  1  0.82025679  0.17974321  0.23417965  1
  Ni  Ni61  1  0.17974321  0.82025679  0.76582035  1
  Ni  Ni62  1  0.67974321  0.32025679  0.73417965  1
  Ni  Ni63  1  0.32025679  0.67974321  0.26582035  1
  Ni  Ni64  1  0.85725206  0.14274794  0.41233310  1
  Ni  Ni65  1  0.14274794  0.85725206  0.58766690  1
  Ni  Ni66  1  0.64274794  0.35725206  0.91233310  1
  Ni  Ni67  1  0.35725206  0.64274794  0.08766690  1
  Ni  Ni68  1  0.99729764  0.00270236  0.32488450  1
  Ni  Ni69  1  0.00270236  0.99729764  0.67511550  1
  Ni  Ni70  1  0.50270236  0.49729764  0.82488450  1
  Ni  Ni71  1  0.49729764  0.50270236  0.17511550  1
  Ni  Ni72  1  0.65875554  0.34124446  0.21176073  1
  Ni  Ni73  1  0.34124446  0.65875554  0.78823927  1
  Ni  Ni74  1  0.84124446  0.15875554  0.71176073  1
  Ni  Ni75  1  0.15875554  0.84124446  0.28823927  1
  Ni  Ni76  1  0.00000000  -0.00000000  0.50000000  1
  Ni  Ni77  1  0.50000000  0.50000000  -0.00000000  1
  Ni  Ni78  1  0.09000641  0.46802104  0.04837309  1
  Ni  Ni79  1  0.46802104  0.09000641  0.95162691  1
  Ni  Ni80  1  0.96802104  0.59000641  0.54837309  1
  Ni  Ni81  1  0.59000641  0.96802104  0.45162691  1
  Ni  Ni82  1  0.90999359  0.53197896  0.95162691  1
  Ni  Ni83  1  0.53197896  0.90999359  0.04837309  1
  Ni  Ni84  1  0.03197896  0.40999359  0.45162691  1
  Ni  Ni85  1  0.40999359  0.03197896  0.54837309  1
  Ni  Ni86  1  0.50000000  0.50000000  0.50000000  1
  Ni  Ni87  1  0.00000000  -0.00000000  -0.00000000  1
  C  C0  1  0.94578589  0.05421411  0.21154978  1
  C  C1  1  0.05421411  0.94578589  0.78845022  1
  C  C2  1  0.55421411  0.44578589  0.71154978  1
  C  C3  1  0.44578589  0.55421411  0.28845022  1
  C  C4  1  0.93248892  0.55719563  0.41660570  1
  C  C5  1  0.55719563  0.93248892  0.58339430  1
  C  C6  1  0.05719563  0.43248892  0.91660570  1
  C  C7  1  0.43248892  0.05719563  0.08339430  1
  C  C8  1  0.06751108  0.44280437  0.58339430  1
  C  C9  1  0.44280437  0.06751108  0.41660570  1
  C  C10  1  0.94280437  0.56751108  0.08339430  1
  C  C11  1  0.56751108  0.94280437  0.91660570  1
loop_
_geom_bond_atom_site_label_1
_geom_bond_atom_site_label_2
_geom_bond_distance
_geom_bond_site_symmetry_2
Ni0 Ni72 2.494695 1_555
Ni0 Ni52 2.557495 1_655
Ni0 Ni58 2.557838 1_655
Ni0 Pr0 3.060050 1_555
Ni0 Pr6 3.104119 1_555
Ni1 Ni73 2.494695 1_555
Ni1 Ni53 2.557495 1_565
Ni1 Ni59 2.557838 1_565
Ni1 Pr1 3.060050 1_555
Ni1 Pr7 3.104119 1_555
Ni2 Ni74 2.494695 1_555
Ni2 Ni54 2.557495 1_555
Ni2 Ni56 2.557838 1_555
Ni2 Pr2 3.060050 1_655
Ni2 Pr4 3.104119 1_555
Ni3 Ni75 2.494695 1_555
Ni3 Ni55 2.557495 1_555
Ni3 Ni57 2.557838 1_555
Ni3 Pr3 3.060050 1_565
Ni3 Pr5 3.104119 1_555
Ni4 Ni73 2.494695 1_555
Ni4 Ni56 2.557495 1_455
Ni4 Ni54 2.557838 1_455
Ni4 Pr2 3.060050 1_555
Ni4 Pr7 3.104119 1_555
Ni5 Ni72 2.494695 1_555
Ni5 Ni57 2.557495 1_545
Ni5 Ni55 2.557838 1_545
Ni5 Pr3 3.060050 1_555
Ni5 Pr6 3.104119 1_555
Ni6 Ni75 2.494695 1_555
Ni6 Pr0 3.060050 1_455
Ni6 Pr5 3.104119 1_555
Ni7 Ni74 2.494695 1_555
Ni7 Pr1 3.060050 1_545
Ni7 Pr4 3.104119 1_555
Ni8 Ni86 2.477780 1_555
Ni8 Pr0 3.142383 1_555
Ni8 Pr3 3.142383 1_555
Ni9 Pr1 3.142383 1_555
Ni9 Pr2 3.142383 1_555
Ni10 Ni74 2.413114 1_555
Ni10 Ni87 2.477780 1_656
Ni10 Pr1 3.142383 1_545
Ni10 Pr2 3.142383 1_655
Ni11 Ni75 2.413114 1_555
Ni11 Ni87 2.477780 1_565
Ni11 Pr0 3.142383 1_455
Ni11 Pr3 3.142383 1_565
Ni12 Ni75 2.406677 1_555
Ni12 Ni33 2.448206 1_455
Ni12 Ni76 2.471886 1_565
Ni12 Ni32 2.623169 1_455
Ni12 Ni65 2.755013 1_555
Ni12 Pr5 2.984120 1_555
Ni12 Pr0 3.079151 1_455
Ni13 Ni74 2.406677 1_555
Ni13 Ni32 2.448206 1_545
Ni13 Ni76 2.471886 1_655
Ni13 Ni33 2.623169 1_545
Ni13 Ni64 2.755013 1_555
Ni13 Pr4 2.984120 1_555
Ni13 Pr1 3.079151 1_545
Ni14 Ni73 2.406677 1_555
Ni14 Ni35 2.448206 1_555
Ni14 Ni77 2.471886 1_556
Ni14 Ni34 2.623169 1_556
Ni14 Ni67 2.755013 1_556
Ni14 Pr7 2.984120 1_555
Ni14 Pr2 3.079151 1_555
Ni15 Ni72 2.406677 1_555
Ni15 Ni34 2.448206 1_555
Ni15 Ni77 2.471886 1_555
Ni15 Ni35 2.623169 1_554
Ni15 Ni66 2.755013 1_554
Ni15 Pr6 2.984120 1_555
Ni15 Pr3 3.079151 1_555
Ni16 Ni74 2.406677 1_555
Ni16 Ni29 2.448206 1_655
Ni16 Ni76 2.471886 1_655
Ni16 Ni28 2.623169 1_655
Ni16 Ni64 2.755013 1_555
Ni16 Pr4 2.984120 1_555
Ni16 Pr2 3.079151 1_655
Ni17 Ni75 2.406677 1_555
Ni17 Ni28 2.448206 1_565
Ni17 Ni76 2.471886 1_565
Ni17 Ni29 2.623169 1_565
Ni17 Ni65 2.755013 1_555
Ni17 Pr5 2.984120 1_555
Ni17 Pr3 3.079151 1_565
Ni18 Ni72 2.406677 1_555
Ni18 Ni31 2.448206 1_555
Ni18 Ni77 2.471886 1_555
Ni18 Ni30 2.623169 1_554
Ni18 Ni66 2.755013 1_554
Ni18 Pr6 2.984120 1_555
Ni18 Pr0 3.079151 1_555
Ni19 Ni73 2.406677 1_555
Ni19 Ni30 2.448206 1_555
Ni19 Ni77 2.471886 1_556
Ni19 Ni31 2.623169 1_556
Ni19 Ni67 2.755013 1_556
Ni19 Pr7 2.984120 1_555
Ni19 Pr1 3.079151 1_555
Ni20 Ni33 2.415646 1_555
Ni20 Ni86 2.418897 1_555
Ni20 Ni32 2.522819 1_555
Ni20 Pr4 3.017791 1_555
Ni20 Pr0 3.055567 1_555
Ni21 Ni32 2.415646 1_555
Ni21 Ni86 2.418897 1_555
Ni21 Ni33 2.522819 1_555
Ni21 Pr5 3.017791 1_555
Ni21 Pr1 3.055567 1_555
Ni22 Ni35 2.415646 1_555
Ni22 Ni87 2.418897 1_556
Ni22 Ni34 2.522819 1_556
Ni22 Pr6 3.017791 1_456
Ni22 Pr2 3.055567 1_555
Ni23 Ni34 2.415646 1_555
Ni23 Ni87 2.418897 1_555
Ni23 Ni35 2.522819 1_554
Ni23 Pr7 3.017791 1_544
Ni23 Pr3 3.055567 1_555
Ni24 Ni29 2.415646 1_555
Ni24 Ni86 2.418897 1_555
Ni24 Ni28 2.522819 1_555
Ni24 Pr5 3.017791 1_555
Ni24 Pr2 3.055567 1_555
Ni25 Ni28 2.415646 1_555
Ni25 Ni86 2.418897 1_555
Ni25 Ni29 2.522819 1_555
Ni25 Pr4 3.017791 1_555
Ni25 Pr3 3.055567 1_555
Ni26 Ni31 2.415646 1_555
Ni26 Ni87 2.418897 1_665
Ni26 Ni30 2.522819 1_554
Ni26 Pr7 3.017791 1_654
Ni26 Pr0 3.055567 1_555
Ni27 Ni30 2.415646 1_555
Ni27 Ni87 2.418897 1_666
Ni27 Ni31 2.522819 1_556
Ni27 Pr6 3.017791 1_566
Ni27 Pr1 3.055567 1_555
Ni28 Ni52 2.298760 1_555
Ni28 Ni76 2.319256 1_555
Ni28 Ni84 2.372298 1_555
Ni28 Ni29 2.375310 1_555
Ni28 Ni46 2.469440 1_555
Ni28 Ni68 2.548284 1_455
Ni28 Ni64 2.562262 1_455
Ni28 Pr3 3.125252 1_555
Ni29 Ni53 2.298760 1_555
Ni29 Ni76 2.319256 1_555
Ni29 Ni85 2.372298 1_555
Ni29 Ni47 2.469440 1_555
Ni29 Ni69 2.548284 1_545
Ni29 Ni65 2.562262 1_545
Ni29 Pr2 3.125252 1_555
Ni30 Ni54 2.298760 1_555
Ni30 Ni77 2.319256 1_556
Ni30 Ni82 2.372298 1_555
Ni30 Ni31 2.375310 1_556
Ni30 Ni44 2.469440 1_555
Ni30 Ni70 2.548284 1_555
Ni30 Ni66 2.562262 1_555
Ni30 Pr1 3.125252 1_555
Ni31 Ni55 2.298760 1_555
Ni31 Ni77 2.319256 1_555
Ni31 Ni83 2.372298 1_555
Ni31 Ni45 2.469440 1_555
Ni31 Ni71 2.548284 1_555
Ni31 Ni67 2.562262 1_555
Ni31 Pr0 3.125252 1_555
Ni32 Ni56 2.298760 1_555
Ni32 Ni76 2.319256 1_665
Ni32 Ni80 2.372298 1_555
Ni32 Ni33 2.375310 1_555
Ni32 Ni50 2.469440 1_555
Ni32 Ni69 2.548284 1_655
Ni32 Ni65 2.562262 1_655
Ni32 Pr1 3.125252 1_555
Ni33 Ni57 2.298760 1_555
Ni33 Ni76 2.319256 1_665
Ni33 Ni81 2.372298 1_555
Ni33 Ni51 2.469440 1_555
Ni33 Ni68 2.548284 1_565
Ni33 Ni64 2.562262 1_565
Ni33 Pr0 3.125252 1_555
Ni34 Ni58 2.298760 1_555
Ni34 Ni77 2.319256 1_555
Ni34 Ni78 2.372298 1_555
Ni34 Ni35 2.375310 1_554
Ni34 Ni48 2.469440 1_555
Ni34 Ni71 2.548284 1_555
Ni34 Ni67 2.562262 1_555
Ni34 Pr3 3.125252 1_555
Ni35 Ni59 2.298760 1_555
Ni35 Ni77 2.319256 1_556
Ni35 Ni79 2.372298 1_555
Ni35 Ni49 2.469440 1_555
Ni35 Ni70 2.548284 1_555
Ni35 Ni66 2.562262 1_555
Ni35 Pr2 3.125252 1_555
Ni36 Ni72 2.429840 1_555
Ni36 Ni52 2.608716 1_655
Ni36 Ni64 2.683902 1_555
Ni36 Pr4 2.972187 1_555
Ni36 Pr0 3.070884 1_555
Ni37 Ni73 2.429840 1_555
Ni37 Ni53 2.608716 1_565
Ni37 Ni65 2.683902 1_555
Ni37 Pr5 2.972187 1_555
Ni37 Pr1 3.070884 1_555
Ni38 Ni74 2.429840 1_555
Ni38 Ni54 2.608716 1_555
Ni38 Ni66 2.683902 1_555
Ni38 Pr6 2.972187 1_556
Ni38 Pr2 3.070884 1_655
Ni39 Ni75 2.429840 1_555
Ni39 Ni55 2.608716 1_555
Ni39 Ni67 2.683902 1_555
Ni39 Pr7 2.972187 1_554
Ni39 Pr3 3.070884 1_565
Ni40 Ni73 2.429840 1_555
Ni40 Ni56 2.608716 1_455
Ni40 Ni65 2.683902 1_555
Ni40 Pr5 2.972187 1_555
Ni40 Pr2 3.070884 1_555
Ni41 Ni72 2.429840 1_555
Ni41 Ni57 2.608716 1_545
Ni41 Ni64 2.683902 1_555
Ni41 Pr4 2.972187 1_555
Ni41 Pr3 3.070884 1_555
Ni42 Ni75 2.429840 1_555
Ni42 Ni58 2.608716 1_555
Ni42 Ni67 2.683902 1_555
Ni42 Pr7 2.972187 1_554
Ni42 Pr0 3.070884 1_455
Ni43 Ni74 2.429840 1_555
Ni43 Ni59 2.608716 1_555
Ni43 Ni66 2.683902 1_555
Ni43 Pr6 2.972187 1_556
Ni43 Pr1 3.070884 1_545
Ni44 Ni56 2.611632 1_555
Ni44 Ni54 2.619460 1_555
Ni44 Ni87 2.655460 1_666
Ni44 Pr7 2.876692 1_655
Ni44 Pr1 3.059311 1_555
Ni45 Ni57 2.611632 1_555
Ni45 Ni55 2.619460 1_555
Ni45 Ni87 2.655460 1_665
Ni45 Pr6 2.876692 1_565
Ni45 Pr0 3.059311 1_555
Ni46 Ni58 2.611632 1_555
Ni46 Ni52 2.619460 1_555
Ni46 Ni86 2.655460 1_555
Ni46 Pr5 2.876692 1_555
Ni46 Pr3 3.059311 1_555
Ni47 Ni59 2.611632 1_555
Ni47 Ni53 2.619460 1_555
Ni47 Ni86 2.655460 1_555
Ni47 Pr4 2.876692 1_555
Ni47 Pr2 3.059311 1_555
Ni48 Ni52 2.611632 1_555
Ni48 Ni58 2.619460 1_555
Ni48 Ni87 2.655460 1_555
Ni48 Pr6 2.876692 1_455
Ni48 Pr3 3.059311 1_555
Ni49 Ni53 2.611632 1_555
Ni49 Ni59 2.619460 1_555
Ni49 Ni87 2.655460 1_556
Ni49 Pr7 2.876692 1_545
Ni49 Pr2 3.059311 1_555
Ni50 Ni54 2.611632 1_555
Ni50 Ni56 2.619460 1_555
Ni50 Ni86 2.655460 1_555
Ni50 Pr4 2.876692 1_555
Ni50 Pr1 3.059311 1_555
Ni51 Ni55 2.611632 1_555
Ni51 Ni57 2.619460 1_555
Ni51 Ni86 2.655460 1_555
Ni51 Pr5 2.876692 1_555
Ni51 Pr0 3.059311 1_555
Ni52 Ni60 2.306470 1_455
Ni52 Ni58 2.318232 1_555
Ni52 Ni84 2.496315 1_555
Ni52 Ni64 2.555483 1_455
Ni52 Ni6 2.557838 1_555
Ni52 Ni68 2.683831 1_455
Ni52 Pr3 3.060866 1_555
Ni53 Ni61 2.306470 1_545
Ni53 Ni59 2.318232 1_555
Ni53 Ni85 2.496315 1_555
Ni53 Ni65 2.555483 1_545
Ni53 Ni7 2.557838 1_555
Ni53 Ni69 2.683831 1_545
Ni53 Pr2 3.060866 1_555
Ni54 Ni62 2.306470 1_555
Ni54 Ni56 2.318232 1_555
Ni54 Ni82 2.496315 1_555
Ni54 Ni66 2.555483 1_555
Ni54 Ni70 2.683831 1_555
Ni54 Pr1 3.060866 1_555
Ni55 Ni63 2.306470 1_555
Ni55 Ni57 2.318232 1_555
Ni55 Ni83 2.496315 1_555
Ni55 Ni67 2.555483 1_555
Ni55 Ni71 2.683831 1_555
Ni55 Pr0 3.060866 1_555
Ni56 Ni61 2.306470 1_655
Ni56 Ni80 2.496315 1_555
Ni56 Ni65 2.555483 1_655
Ni56 Ni69 2.683831 1_655
Ni56 Pr1 3.060866 1_555
Ni57 Ni60 2.306470 1_565
Ni57 Ni81 2.496315 1_555
Ni57 Ni64 2.555483 1_565
Ni57 Ni68 2.683831 1_565
Ni57 Pr0 3.060866 1_555
Ni58 Ni63 2.306470 1_555
Ni58 Ni78 2.496315 1_555
Ni58 Ni67 2.555483 1_555
Ni58 Ni6 2.557495 1_555
Ni58 Ni71 2.683831 1_555
Ni58 Pr3 3.060866 1_555
Ni59 Ni62 2.306470 1_555
Ni59 Ni79 2.496315 1_555
Ni59 Ni66 2.555483 1_555
Ni59 Ni7 2.557495 1_555
Ni59 Ni70 2.683831 1_555
Ni59 Pr2 3.060866 1_555
Ni60 Ni72 2.445304 1_555
Ni60 Ni64 2.663742 1_555
Ni60 Pr6 3.043385 1_555
Ni61 Ni73 2.445304 1_555
Ni61 Ni65 2.663742 1_555
Ni61 Pr7 3.043385 1_555
Ni62 Ni74 2.445304 1_555
Ni62 Ni66 2.663742 1_555
Ni62 Pr4 3.043385 1_555
Ni63 Ni75 2.445304 1_555
Ni63 Ni67 2.663742 1_555
Ni63 Pr5 3.043385 1_555
Ni64 Ni68 2.459845 1_555
Ni64 Ni76 2.496210 1_655
Ni64 Ni84 2.664881 1_655
Ni64 Ni81 2.664881 1_545
Ni64 Pr4 2.814736 1_555
Ni65 Ni69 2.459845 1_555
Ni65 Ni76 2.496210 1_565
Ni65 Ni80 2.664881 1_455
Ni65 Ni85 2.664881 1_565
Ni65 Pr5 2.814736 1_555
Ni66 Ni70 2.459845 1_555
Ni66 Ni77 2.496210 1_556
Ni66 Ni82 2.664881 1_555
Ni66 Ni79 2.664881 1_555
Ni66 Pr6 2.814736 1_556
Ni67 Ni71 2.459845 1_555
Ni67 Ni77 2.496210 1_555
Ni67 Ni83 2.664881 1_555
Ni67 Ni78 2.664881 1_555
Ni67 Pr7 2.814736 1_554
Ni68 Ni75 2.481140 1_645
Ni68 Ni76 2.561158 1_655
Ni68 Pr0 3.203160 1_545
Ni68 Pr3 3.203160 1_655
Ni69 Ni74 2.481140 1_465
Ni69 Ni76 2.561158 1_565
Ni69 Pr1 3.203160 1_455
Ni69 Pr2 3.203160 1_565
Ni70 Ni73 2.481140 1_555
Ni70 Ni77 2.561158 1_556
Ni70 Pr1 3.203160 1_555
Ni70 Pr2 3.203160 1_555
Ni71 Ni72 2.481140 1_555
Ni71 Ni77 2.561158 1_555
Ni71 Pr0 3.203160 1_555
Ni71 Pr3 3.203160 1_555
Ni72 Ni8 2.413114 1_555
Ni72 Pr0 3.220233 1_555
Ni72 Pr3 3.220233 1_555
Ni72 Pr6 3.355643 1_555
Ni73 Ni9 2.413114 1_555
Ni73 Pr1 3.220233 1_555
Ni73 Pr2 3.220233 1_555
Ni73 Pr7 3.355643 1_555
Ni74 Pr1 3.220233 1_545
Ni74 Pr2 3.220233 1_655
Ni74 Pr4 3.355643 1_555
Ni75 Pr0 3.220233 1_455
Ni75 Pr3 3.220233 1_565
Ni75 Pr5 3.355643 1_555
Ni78 Pr7 3.155513 1_554
Ni78 Pr6 3.192272 1_455
Ni79 Pr6 3.155513 1_556
Ni79 Pr7 3.192272 1_545
Ni80 Pr5 3.155513 1_655
Ni80 Pr4 3.192272 1_555
Ni81 Pr4 3.155513 1_565
Ni81 Pr5 3.192272 1_555
Ni82 Pr6 3.155513 1_556
Ni82 Pr7 3.192272 1_655
Ni83 Pr7 3.155513 1_554
Ni83 Pr6 3.192272 1_565
Ni84 Pr4 3.155513 1_455
Ni84 Pr5 3.192272 1_555
Ni85 Pr5 3.155513 1_545
Ni85 Pr4 3.192272 1_555
Ni86 Ni9 2.477780 1_555
Ni86 Pr5 3.137334 1_555
Ni86 Pr4 3.137334 1_555
Ni87 Pr7 3.137334 1_544
Ni87 Pr6 3.137334 1_455
C0 Ni68 1.828733 1_555
C0 Ni45 1.889285 1_545
C0 Ni48 1.889285 1_655
C0 Ni11 1.890844 1_645
C0 Ni60 1.912339 1_555
C0 Ni52 2.546366 1_655
C0 Ni57 2.546366 1_545
C1 Ni69 1.828733 1_555
C1 Ni49 1.889285 1_565
C1 Ni44 1.889285 1_455
C1 Ni10 1.890844 1_465
C1 Ni61 1.912339 1_555
C1 Ni53 2.546366 1_565
C1 Ni56 2.546366 1_455
C2 Ni70 1.828733 1_555
C2 Ni47 1.889285 1_555
C2 Ni50 1.889285 1_555
C2 Ni9 1.890844 1_555
C2 Ni62 1.912339 1_555
C2 Ni59 2.546366 1_555
C2 Ni54 2.546366 1_555
C3 Ni71 1.828733 1_555
C3 Ni51 1.889285 1_555
C3 Ni46 1.889285 1_555
C3 Ni8 1.890844 1_555
C3 Ni63 1.912339 1_555
C3 Ni58 2.546366 1_555
C3 Ni55 2.546366 1_555
C4 Ni20 1.901149 1_555
C4 Ni6 1.912859 1_655
C4 Ni36 1.917357 1_555
C4 Ni12 1.925254 1_655
C4 Ni84 1.939276 1_655
C4 Ni80 1.965669 1_555
C4 Pr0 3.059961 1_555
C5 Ni21 1.901149 1_555
C5 Ni7 1.912859 1_565
C5 Ni37 1.917357 1_555
C5 Ni13 1.925254 1_565
C5 Ni85 1.939276 1_565
C5 Ni81 1.965669 1_555
C5 Pr1 3.059961 1_555
C6 Ni22 1.901149 1_555
C6 Ni4 1.912859 1_555
C6 Ni38 1.917357 1_455
C6 Ni14 1.925254 1_555
C6 Ni82 1.939276 1_455
C6 Ni78 1.965669 1_556
C6 Pr2 3.059961 1_555
C7 Ni23 1.901149 1_555
C7 Ni5 1.912859 1_555
C7 Ni39 1.917357 1_545
C7 Ni15 1.925254 1_555
C7 Ni83 1.939276 1_545
C7 Ni79 1.965669 1_554
C7 Pr3 3.059961 1_555
C8 Ni24 1.901149 1_555
C8 Ni2 1.912859 1_455
C8 Ni40 1.917357 1_555
C8 Ni16 1.925254 1_455
C8 Ni80 1.939276 1_455
C8 Ni84 1.965669 1_555
C8 Pr2 3.059961 1_555
C9 Ni25 1.901149 1_555
C9 Ni3 1.912859 1_545
C9 Ni41 1.917357 1_555
C9 Ni17 1.925254 1_545
C9 Ni81 1.939276 1_545
C9 Ni85 1.965669 1_555
C9 Pr3 3.059961 1_555
C10 Ni26 1.901149 1_555
C10 Ni0 1.912859 1_555
C10 Ni42 1.917357 1_655
C10 Ni18 1.925254 1_555
C10 Ni78 1.939276 1_655
C10 Ni82 1.965669 1_554
C10 Pr0 3.059961 1_555
C11 Ni27 1.901149 1_555
C11 Ni1 1.912859 1_555
C11 Ni43 1.917357 1_565
C11 Ni19 1.925254 1_555
C11 Ni79 1.939276 1_565
C11 Ni83 1.965669 1_556
C11 Pr1 3.059961 1_555
