# generated using pymatgen
data_Na2Nb2(P2O7)3
_symmetry_space_group_name_H-M   'P 1'
_cell_length_a   9.22194900
_cell_length_b   9.22194916
_cell_length_c   12.82054900
_cell_angle_alpha   90.00000000
_cell_angle_beta   90.00000000
_cell_angle_gamma   120.00000302
_symmetry_Int_Tables_number   1
_chemical_formula_structural   Na2Nb2(P2O7)3
_chemical_formula_sum   'Na4 Nb4 P12 O42'
_cell_volume   944.24062381
_cell_formula_units_Z   2
loop_
 _symmetry_equiv_pos_site_id
 _symmetry_equiv_pos_as_xyz
  1  'x, y, z'
loop_
 _atom_site_type_symbol
 _atom_site_label
 _atom_site_symmetry_multiplicity
 _atom_site_fract_x
 _atom_site_fract_y
 _atom_site_fract_z
 _atom_site_occupancy
  Na  Na0  1  0.00000000  0.00000000  0.50000000  1
  Na  Na1  1  0.00000000  0.00000000  0.00000000  1
  Na  Na2  1  0.00000000  0.00000000  0.75000000  1
  Na  Na3  1  0.00000000  0.00000000  0.25000000  1
  Nb  Nb0  1  0.66666700  0.33333300  0.52559200  1
  Nb  Nb1  1  0.33333300  0.66666700  0.02559200  1
  Nb  Nb2  1  0.33333300  0.66666700  0.47440800  1
  Nb  Nb3  1  0.66666700  0.33333300  0.97440800  1
  P  P0  1  0.33912300  0.97790600  0.63466900  1
  P  P1  1  0.02209400  0.36121800  0.63466900  1
  P  P2  1  0.63878200  0.66087700  0.63466900  1
  P  P3  1  0.66087700  0.02209400  0.13466900  1
  P  P4  1  0.97790600  0.63878200  0.13466900  1
  P  P5  1  0.36121800  0.33912300  0.13466900  1
  P  P6  1  0.66087700  0.02209400  0.36533100  1
  P  P7  1  0.97790600  0.63878200  0.36533100  1
  P  P8  1  0.36121800  0.33912300  0.36533100  1
  P  P9  1  0.33912300  0.97790600  0.86533100  1
  P  P10  1  0.02209400  0.36121800  0.86533100  1
  P  P11  1  0.63878200  0.66087700  0.86533100  1
  O  O0  1  0.38052100  0.93772800  0.75000000  1
  O  O1  1  0.06227200  0.44279400  0.75000000  1
  O  O2  1  0.55720600  0.61947900  0.75000000  1
  O  O3  1  0.61947900  0.06227200  0.25000000  1
  O  O4  1  0.93772800  0.55720600  0.25000000  1
  O  O5  1  0.44279400  0.38052100  0.25000000  1
  O  O6  1  0.48434200  0.16031900  0.61265000  1
  O  O7  1  0.83968100  0.32402300  0.61265000  1
  O  O8  1  0.67597700  0.51565800  0.61265000  1
  O  O9  1  0.51565800  0.83968100  0.11265000  1
  O  O10  1  0.16031900  0.67597700  0.11265000  1
  O  O11  1  0.32402300  0.48434200  0.11265000  1
  O  O12  1  0.51565800  0.83968100  0.38735000  1
  O  O13  1  0.16031900  0.67597700  0.38735000  1
  O  O14  1  0.32402300  0.48434200  0.38735000  1
  O  O15  1  0.48434200  0.16031900  0.88735000  1
  O  O16  1  0.83968100  0.32402300  0.88735000  1
  O  O17  1  0.67597700  0.51565800  0.88735000  1
  O  O18  1  0.36852000  0.85695300  0.56602800  1
  O  O19  1  0.14304700  0.51156700  0.56602800  1
  O  O20  1  0.48843300  0.63148000  0.56602800  1
  O  O21  1  0.63148000  0.14304700  0.06602800  1
  O  O22  1  0.85695300  0.48843300  0.06602800  1
  O  O23  1  0.51156700  0.36852000  0.06602800  1
  O  O24  1  0.63148000  0.14304700  0.43397200  1
  O  O25  1  0.85695300  0.48843300  0.43397200  1
  O  O26  1  0.51156700  0.36852000  0.43397200  1
  O  O27  1  0.36852000  0.85695300  0.93397200  1
  O  O28  1  0.14304700  0.51156700  0.93397200  1
  O  O29  1  0.48843300  0.63148000  0.93397200  1
  O  O30  1  0.16982900  0.95759500  0.62639200  1
  O  O31  1  0.04240500  0.21223300  0.62639200  1
  O  O32  1  0.78776700  0.83017100  0.62639200  1
  O  O33  1  0.83017100  0.04240500  0.12639200  1
  O  O34  1  0.95759500  0.78776700  0.12639200  1
  O  O35  1  0.21223300  0.16982900  0.12639200  1
  O  O36  1  0.83017100  0.04240500  0.37360800  1
  O  O37  1  0.95759500  0.78776700  0.37360800  1
  O  O38  1  0.21223300  0.16982900  0.37360800  1
  O  O39  1  0.16982900  0.95759500  0.87360800  1
  O  O40  1  0.04240500  0.21223300  0.87360800  1
  O  O41  1  0.78776700  0.83017100  0.87360800  1
loop_
_geom_bond_atom_site_label_1
_geom_bond_atom_site_label_2
_geom_bond_distance
_geom_bond_site_symmetry_2
Na0 O31 2.417423 1_555
Na0 O37 2.417423 1_445
Na0 O38 2.417425 1_555
Na0 O32 2.417425 1_445
Na0 O30 2.417429 1_545
Na0 O36 2.417429 1_455
Na1 O34 2.417423 1_445
Na1 O40 2.417423 1_554
Na1 O35 2.417425 1_555
Na1 O41 2.417425 1_444
Na1 O33 2.417429 1_455
Na1 O39 2.417429 1_544
Na2 O40 2.393644 1_555
Na2 O31 2.393644 1_555
Na2 O41 2.393646 1_445
Na2 O32 2.393646 1_445
Na2 O39 2.393651 1_545
Na2 O30 2.393651 1_545
Na3 O34 2.393644 1_445
Na3 O37 2.393644 1_445
Na3 O38 2.393646 1_555
Na3 O35 2.393646 1_555
Na3 O33 2.393651 1_455
Na3 O36 2.393651 1_455
Nb0 O7 1.983888 1_555
Nb0 O6 1.983892 1_555
Nb0 O8 1.983895 1_555
Nb0 O24 1.998738 1_555
Nb0 O25 1.998740 1_555
Nb0 O26 1.998745 1_555
Nb1 O10 1.983888 1_555
Nb1 O9 1.983892 1_555
Nb1 O11 1.983895 1_555
Nb1 O27 1.998738 1_554
Nb1 O28 1.998740 1_554
Nb1 O29 1.998745 1_554
Nb2 O13 1.983888 1_555
Nb2 O12 1.983892 1_555
Nb2 O14 1.983895 1_555
Nb2 O18 1.998738 1_555
Nb2 O19 1.998740 1_555
Nb2 O20 1.998745 1_555
Nb3 O16 1.983888 1_555
Nb3 O15 1.983892 1_555
Nb3 O17 1.983895 1_555
Nb3 O21 1.998738 1_556
Nb3 O22 1.998740 1_556
Nb3 O23 1.998745 1_556
O0 P9 1.615786 1_555
O0 P0 1.615786 1_555
O1 P10 1.615786 1_555
O1 P1 1.615786 1_555
O2 P11 1.615786 1_555
O2 P2 1.615786 1_555
O3 P6 1.615786 1_555
O3 P3 1.615786 1_555
O4 P7 1.615786 1_555
O4 P4 1.615786 1_555
O5 P8 1.615786 1_555
O5 P5 1.615786 1_555
O6 P0 1.565296 1_545
O7 P1 1.565293 1_655
O8 P2 1.565302 1_555
O9 P3 1.565296 1_565
O10 P4 1.565293 1_455
O11 P5 1.565302 1_555
O12 P6 1.565296 1_565
O13 P7 1.565293 1_455
O14 P8 1.565302 1_555
O15 P9 1.565296 1_545
O16 P10 1.565293 1_655
O17 P11 1.565302 1_555
O18 P0 1.547410 1_555
O19 P1 1.547405 1_555
O20 P2 1.547402 1_555
O21 P3 1.547410 1_555
O22 P4 1.547405 1_555
O23 P5 1.547402 1_555
O24 P6 1.547410 1_555
O25 P7 1.547405 1_555
O26 P8 1.547402 1_555
O27 P9 1.547410 1_555
O28 P10 1.547405 1_555
O29 P11 1.547402 1_555
O30 P0 1.480313 1_555
O31 P1 1.480331 1_555
O32 P2 1.480320 1_555
O33 P3 1.480313 1_555
O34 P4 1.480331 1_555
O35 P5 1.480320 1_555
O36 P6 1.480313 1_555
O37 P7 1.480331 1_555
O38 P8 1.480320 1_555
O39 P9 1.480313 1_555
O40 P10 1.480331 1_555
O41 P11 1.480320 1_555
