# generated using pymatgen
data_Na(SiO2)3
_symmetry_space_group_name_H-M   'P 1'
_cell_length_a   12.01560890
_cell_length_b   12.01560890
_cell_length_c   12.01560890
_cell_angle_alpha   90.00000000
_cell_angle_beta   90.00000000
_cell_angle_gamma   90.00000000
_symmetry_Int_Tables_number   1
_chemical_formula_structural   Na(SiO2)3
_chemical_formula_sum   'Na8 Si24 O48'
_cell_volume   1734.75181956
_cell_formula_units_Z   8
loop_
 _symmetry_equiv_pos_site_id
 _symmetry_equiv_pos_as_xyz
  1  'x, y, z'
loop_
 _atom_site_type_symbol
 _atom_site_label
 _atom_site_symmetry_multiplicity
 _atom_site_fract_x
 _atom_site_fract_y
 _atom_site_fract_z
 _atom_site_occupancy
  Na  Na0  1  0.21383553  0.21383553  0.21383553  1
  Na  Na1  1  0.78616447  0.78616447  0.78616447  1
  Na  Na2  1  0.78616447  0.78616447  0.21383553  1
  Na  Na3  1  0.78616447  0.21383553  0.78616447  1
  Na  Na4  1  0.21383553  0.21383553  0.78616447  1
  Na  Na5  1  0.21383553  0.78616447  0.21383553  1
  Na  Na6  1  0.21383553  0.78616447  0.78616447  1
  Na  Na7  1  0.78616447  0.21383553  0.21383553  1
  Si  Si0  1  0.00000000  0.18168505  0.37517120  1
  Si  Si1  1  0.00000000  0.81831495  0.62482880  1
  Si  Si2  1  0.00000000  0.81831495  0.37517120  1
  Si  Si3  1  0.00000000  0.18168505  0.62482880  1
  Si  Si4  1  0.37517120  0.00000000  0.18168505  1
  Si  Si5  1  0.18168505  0.00000000  0.62482880  1
  Si  Si6  1  0.62482880  0.00000000  0.81831495  1
  Si  Si7  1  0.81831495  0.00000000  0.37517120  1
  Si  Si8  1  0.37517120  0.00000000  0.81831495  1
  Si  Si9  1  0.81831495  0.00000000  0.62482880  1
  Si  Si10  1  0.62482880  0.00000000  0.18168505  1
  Si  Si11  1  0.18168505  0.00000000  0.37517120  1
  Si  Si12  1  0.18168505  0.37517120  0.00000000  1
  Si  Si13  1  0.00000000  0.37517120  0.81831495  1
  Si  Si14  1  0.81831495  0.62482880  0.00000000  1
  Si  Si15  1  0.00000000  0.62482880  0.18168505  1
  Si  Si16  1  0.18168505  0.62482880  0.00000000  1
  Si  Si17  1  0.00000000  0.62482880  0.81831495  1
  Si  Si18  1  0.81831495  0.37517120  0.00000000  1
  Si  Si19  1  0.00000000  0.37517120  0.18168505  1
  Si  Si20  1  0.62482880  0.18168505  0.00000000  1
  Si  Si21  1  0.37517120  0.81831495  0.00000000  1
  Si  Si22  1  0.62482880  0.81831495  0.00000000  1
  Si  Si23  1  0.37517120  0.18168505  0.00000000  1
  O  O0  1  0.23605171  0.50000000  0.00000000  1
  O  O1  1  0.76394829  0.50000000  0.00000000  1
  O  O2  1  0.00000000  0.23605171  0.50000000  1
  O  O3  1  0.50000000  0.23605171  0.00000000  1
  O  O4  1  0.00000000  0.76394829  0.50000000  1
  O  O5  1  0.50000000  0.76394829  0.00000000  1
  O  O6  1  0.50000000  0.00000000  0.23605171  1
  O  O7  1  0.23605171  0.00000000  0.50000000  1
  O  O8  1  0.50000000  0.00000000  0.76394829  1
  O  O9  1  0.76394829  0.00000000  0.50000000  1
  O  O10  1  0.00000000  0.50000000  0.23605171  1
  O  O11  1  0.00000000  0.50000000  0.76394829  1
  O  O12  1  0.11651001  0.11651001  0.33945221  1
  O  O13  1  0.88348999  0.88348999  0.66054779  1
  O  O14  1  0.88348999  0.88348999  0.33945221  1
  O  O15  1  0.88348999  0.11651001  0.66054779  1
  O  O16  1  0.33945221  0.11651001  0.11651001  1
  O  O17  1  0.11651001  0.11651001  0.66054779  1
  O  O18  1  0.11651001  0.88348999  0.33945221  1
  O  O19  1  0.66054779  0.88348999  0.88348999  1
  O  O20  1  0.11651001  0.88348999  0.66054779  1
  O  O21  1  0.33945221  0.88348999  0.88348999  1
  O  O22  1  0.88348999  0.11651001  0.33945221  1
  O  O23  1  0.66054779  0.11651001  0.11651001  1
  O  O24  1  0.66054779  0.88348999  0.11651001  1
  O  O25  1  0.33945221  0.11651001  0.88348999  1
  O  O26  1  0.66054779  0.11651001  0.88348999  1
  O  O27  1  0.33945221  0.88348999  0.11651001  1
  O  O28  1  0.11651001  0.33945221  0.11651001  1
  O  O29  1  0.11651001  0.33945221  0.88348999  1
  O  O30  1  0.88348999  0.66054779  0.88348999  1
  O  O31  1  0.88348999  0.66054779  0.11651001  1
  O  O32  1  0.11651001  0.66054779  0.88348999  1
  O  O33  1  0.88348999  0.33945221  0.11651001  1
  O  O34  1  0.11651001  0.66054779  0.11651001  1
  O  O35  1  0.88348999  0.33945221  0.88348999  1
  O  O36  1  0.00000000  0.28902159  0.28902159  1
  O  O37  1  0.00000000  0.71097841  0.71097841  1
  O  O38  1  0.00000000  0.71097841  0.28902159  1
  O  O39  1  0.00000000  0.28902159  0.71097841  1
  O  O40  1  0.28902159  0.00000000  0.28902159  1
  O  O41  1  0.28902159  0.00000000  0.71097841  1
  O  O42  1  0.71097841  0.00000000  0.71097841  1
  O  O43  1  0.71097841  0.00000000  0.28902159  1
  O  O44  1  0.28902159  0.28902159  0.00000000  1
  O  O45  1  0.71097841  0.71097841  0.00000000  1
  O  O46  1  0.28902159  0.71097841  0.00000000  1
  O  O47  1  0.71097841  0.28902159  0.00000000  1
loop_
_geom_bond_atom_site_label_1
_geom_bond_atom_site_label_2
_geom_bond_distance
_geom_bond_site_symmetry_2
Na0 O28 2.239036 1_555
Na0 O12 2.239036 1_555
Na0 O16 2.239036 1_555
Na1 O19 2.239036 1_555
Na1 O30 2.239036 1_555
Na1 O13 2.239036 1_555
Na2 O14 2.239036 1_555
Na2 O31 2.239036 1_555
Na2 O24 2.239036 1_555
Na3 O35 2.239036 1_555
Na3 O15 2.239036 1_555
Na3 O26 2.239036 1_555
Na4 O29 2.239036 1_555
Na4 O25 2.239036 1_555
Na4 O17 2.239036 1_555
Na5 O18 2.239036 1_555
Na5 O27 2.239036 1_555
Na5 O34 2.239036 1_555
Na6 O21 2.239036 1_555
Na6 O20 2.239036 1_555
Na6 O32 2.239036 1_555
Na7 O33 2.239036 1_555
Na7 O22 2.239036 1_555
Na7 O23 2.239036 1_555
O0 Si16 1.635975 1_555
O0 Si12 1.635975 1_555
O1 Si14 1.635975 1_555
O1 Si18 1.635975 1_555
O2 Si3 1.635975 1_555
O2 Si0 1.635975 1_555
O3 Si20 1.635975 1_555
O3 Si23 1.635975 1_555
O4 Si1 1.635975 1_555
O4 Si2 1.635975 1_555
O5 Si22 1.635975 1_555
O5 Si21 1.635975 1_555
O6 Si10 1.635975 1_555
O6 Si4 1.635975 1_555
O7 Si5 1.635975 1_555
O7 Si11 1.635975 1_555
O8 Si6 1.635975 1_555
O8 Si8 1.635975 1_555
O9 Si9 1.635975 1_555
O9 Si7 1.635975 1_555
O10 Si15 1.635975 1_555
O10 Si19 1.635975 1_555
O11 Si17 1.635975 1_555
O11 Si13 1.635975 1_555
O12 Si11 1.660513 1_555
O12 Si0 1.660513 1_555
O13 Si9 1.660513 1_565
O13 Si1 1.660513 1_655
O14 Si2 1.660513 1_655
O14 Si7 1.660513 1_565
O15 Si9 1.660513 1_555
O15 Si3 1.660513 1_655
O16 Si23 1.660513 1_555
O16 Si4 1.660513 1_555
O17 Si5 1.660513 1_555
O17 Si3 1.660513 1_555
O18 Si2 1.660513 1_555
O18 Si11 1.660513 1_565
O19 Si22 1.660513 1_556
O19 Si6 1.660513 1_565
O20 Si1 1.660513 1_555
O20 Si5 1.660513 1_565
O21 Si21 1.660513 1_556
O21 Si8 1.660513 1_565
O22 Si7 1.660513 1_555
O22 Si0 1.660513 1_655
O23 Si10 1.660513 1_555
O23 Si20 1.660513 1_555
O24 Si22 1.660513 1_555
O24 Si10 1.660513 1_565
O25 Si8 1.660513 1_555
O25 Si23 1.660513 1_556
O26 Si6 1.660513 1_555
O26 Si20 1.660513 1_556
O27 Si21 1.660513 1_555
O27 Si4 1.660513 1_565
O28 Si12 1.660513 1_555
O28 Si19 1.660513 1_555
O29 Si13 1.660513 1_555
O29 Si12 1.660513 1_556
O30 Si17 1.660513 1_655
O30 Si14 1.660513 1_556
O31 Si14 1.660513 1_555
O31 Si15 1.660513 1_655
O32 Si17 1.660513 1_555
O32 Si16 1.660513 1_556
O33 Si18 1.660513 1_555
O33 Si19 1.660513 1_655
O34 Si16 1.660513 1_555
O34 Si15 1.660513 1_555
O35 Si18 1.660513 1_556
O35 Si13 1.660513 1_655
O36 Si0 1.653746 1_555
O36 Si19 1.653746 1_555
O37 Si17 1.653746 1_555
O37 Si1 1.653746 1_555
O38 Si15 1.653746 1_555
O38 Si2 1.653746 1_555
O39 Si3 1.653746 1_555
O39 Si13 1.653746 1_555
O40 Si4 1.653746 1_555
O40 Si11 1.653746 1_555
O41 Si5 1.653746 1_555
O41 Si8 1.653746 1_555
O42 Si9 1.653746 1_555
O42 Si6 1.653746 1_555
O43 Si10 1.653746 1_555
O43 Si7 1.653746 1_555
O44 Si23 1.653746 1_555
O44 Si12 1.653746 1_555
O45 Si14 1.653746 1_555
O45 Si22 1.653746 1_555
O46 Si16 1.653746 1_555
O46 Si21 1.653746 1_555
O47 Si20 1.653746 1_555
O47 Si18 1.653746 1_555
