# generated using pymatgen
data_LaYFe2(AsO)2
_symmetry_space_group_name_H-M   'P 1'
_cell_length_a   4.11392300
_cell_length_b   4.11392300
_cell_length_c   8.98068700
_cell_angle_alpha   90.00000000
_cell_angle_beta   90.00000000
_cell_angle_gamma   90.00000000
_symmetry_Int_Tables_number   1
_chemical_formula_structural   LaYFe2(AsO)2
_chemical_formula_sum   'La1 Y1 Fe2 As2 O2'
_cell_volume   151.99240184
_cell_formula_units_Z   1
loop_
 _symmetry_equiv_pos_site_id
 _symmetry_equiv_pos_as_xyz
  1  'x, y, z'
loop_
 _atom_site_type_symbol
 _atom_site_label
 _atom_site_symmetry_multiplicity
 _atom_site_fract_x
 _atom_site_fract_y
 _atom_site_fract_z
 _atom_site_occupancy
  La  La0  1  0.00000000  0.00000000  0.12928800  1
  Y  Y0  1  0.50000000  0.50000000  0.87953300  1
  Fe  Fe0  1  0.50000000  0.00000000  0.50170300  1
  Fe  Fe1  1  0.00000000  0.50000000  0.50170300  1
  As  As0  1  0.50000000  0.50000000  0.32517600  1
  As  As1  1  0.00000000  0.00000000  0.67792900  1
  O  O0  1  0.50000000  0.00000000  0.99233400  1
  O  O1  1  0.00000000  0.50000000  0.99233400  1
loop_
_geom_bond_atom_site_label_1
_geom_bond_atom_site_label_2
_geom_bond_distance
_geom_bond_site_symmetry_2
La0 O0 2.396632 1_454
La0 O0 2.396632 1_554
La0 O1 2.396632 1_554
La0 O1 2.396632 1_544
As0 Fe0 2.596993 1_565
As0 Fe1 2.596993 1_555
As0 Fe1 2.596993 1_655
As0 Fe0 2.596993 1_555
As0 La0 3.399558 1_565
As0 La0 3.399558 1_655
As0 La0 3.399558 1_665
As0 La0 3.399558 1_555
As1 Fe1 2.595344 1_545
As1 Fe0 2.595344 1_455
As1 Fe0 2.595344 1_555
As1 Fe1 2.595344 1_555
As1 Y0 3.426404 1_455
As1 Y0 3.426404 1_445
As1 Y0 3.426404 1_545
As1 Y0 3.426404 1_555
O0 Y0 2.292885 1_555
O0 Y0 2.292885 1_545
O1 Y0 2.292885 1_555
O1 Y0 2.292885 1_455
