# generated using pymatgen
data_Rb3(MoCl4)2
_symmetry_space_group_name_H-M   'P 1'
_cell_length_a   7.36621471
_cell_length_b   7.36621471
_cell_length_c   17.59728400
_cell_angle_alpha   90.00000000
_cell_angle_beta   90.00000000
_cell_angle_gamma   120.68060920
_symmetry_Int_Tables_number   1
_chemical_formula_structural   Rb3(MoCl4)2
_chemical_formula_sum   'Rb6 Mo4 Cl16'
_cell_volume   821.19343705
_cell_formula_units_Z   2
loop_
 _symmetry_equiv_pos_site_id
 _symmetry_equiv_pos_as_xyz
  1  'x, y, z'
loop_
 _atom_site_type_symbol
 _atom_site_label
 _atom_site_symmetry_multiplicity
 _atom_site_fract_x
 _atom_site_fract_y
 _atom_site_fract_z
 _atom_site_occupancy
  Rb  Rb0  1  0.00243800  0.00017800  0.25000000  1
  Rb  Rb1  1  0.00017800  0.00243800  0.75000000  1
  Rb  Rb2  1  0.33608300  0.66962500  0.93468800  1
  Rb  Rb3  1  0.33608300  0.66962500  0.56531200  1
  Rb  Rb4  1  0.66962500  0.33608300  0.43468800  1
  Rb  Rb5  1  0.66962500  0.33608300  0.06531200  1
  Mo  Mo0  1  0.32592900  0.64895700  0.32594000  1
  Mo  Mo1  1  0.32592900  0.64895700  0.17406000  1
  Mo  Mo2  1  0.64895700  0.32592900  0.82594000  1
  Mo  Mo3  1  0.64895700  0.32592900  0.67406000  1
  Cl  Cl0  1  0.18415800  0.35106000  0.41494700  1
  Cl  Cl1  1  0.18425400  0.83345700  0.39281300  1
  Cl  Cl2  1  0.65263900  0.85670400  0.39306600  1
  Cl  Cl3  1  0.18415800  0.35106000  0.08505300  1
  Cl  Cl4  1  0.18425400  0.83345700  0.10718700  1
  Cl  Cl5  1  0.65263900  0.85670400  0.10693400  1
  Cl  Cl6  1  0.85670400  0.65263900  0.89306600  1
  Cl  Cl7  1  0.35106000  0.18415800  0.91494700  1
  Cl  Cl8  1  0.83345700  0.18425400  0.89281300  1
  Cl  Cl9  1  0.85670400  0.65263900  0.60693400  1
  Cl  Cl10  1  0.35106000  0.18415800  0.58505300  1
  Cl  Cl11  1  0.83345700  0.18425400  0.60718700  1
  Cl  Cl12  1  0.48972000  0.48140800  0.25000000  1
  Cl  Cl13  1  0.99254700  0.45691500  0.25000000  1
  Cl  Cl14  1  0.45691500  0.99254700  0.75000000  1
  Cl  Cl15  1  0.48140800  0.48972000  0.75000000  1
loop_
_geom_bond_atom_site_label_1
_geom_bond_atom_site_label_2
_geom_bond_distance
_geom_bond_site_symmetry_2
Cl0 Mo0 2.453671 1_555
Cl0 Rb3 3.328731 1_555
Cl0 Rb4 3.650154 1_555
Cl0 Rb0 3.656063 1_555
Cl0 Rb4 3.751193 1_455
Cl1 Mo0 2.401752 1_555
Cl1 Rb0 3.360988 1_565
Cl1 Rb3 3.646777 1_555
Cl1 Rb4 3.677674 1_565
Cl1 Rb4 3.763406 1_455
Cl2 Mo0 2.402204 1_555
Cl2 Rb0 3.363843 1_665
Cl2 Rb4 3.545512 1_565
Cl2 Rb3 3.639299 1_555
Cl2 Rb4 3.968510 1_555
Cl3 Mo1 2.453671 1_555
Cl3 Rb2 3.328731 1_554
Cl3 Rb5 3.650154 1_555
Cl3 Rb0 3.656063 1_555
Cl3 Rb5 3.751193 1_455
Cl4 Mo1 2.401752 1_555
Cl4 Rb0 3.360988 1_565
Cl4 Rb2 3.646777 1_554
Cl4 Rb5 3.677674 1_565
Cl4 Rb5 3.763406 1_455
Cl5 Mo1 2.402204 1_555
Cl5 Rb0 3.363843 1_665
Cl5 Rb5 3.545512 1_565
Cl5 Rb2 3.639299 1_554
Cl5 Rb5 3.968510 1_555
Cl6 Mo2 2.402204 1_555
Cl6 Rb1 3.363843 1_665
Cl6 Rb2 3.545512 1_655
Cl6 Rb5 3.639299 1_556
Cl6 Rb2 3.968510 1_555
Cl7 Mo2 2.453671 1_555
Cl7 Rb5 3.328731 1_556
Cl7 Rb2 3.650154 1_555
Cl7 Rb1 3.656063 1_555
Cl7 Rb2 3.751193 1_545
Cl8 Mo2 2.401752 1_555
Cl8 Rb1 3.360988 1_655
Cl8 Rb5 3.646777 1_556
Cl8 Rb2 3.677674 1_655
Cl8 Rb2 3.763406 1_545
Cl9 Mo3 2.402204 1_555
Cl9 Rb1 3.363843 1_665
Cl9 Rb3 3.545512 1_655
Cl9 Rb4 3.639299 1_555
Cl9 Rb3 3.968510 1_555
Cl10 Mo3 2.453671 1_555
Cl10 Rb4 3.328731 1_555
Cl10 Rb3 3.650154 1_555
Cl10 Rb1 3.656063 1_555
Cl10 Rb3 3.751193 1_545
Cl11 Mo3 2.401752 1_555
Cl11 Rb1 3.360988 1_655
Cl11 Rb4 3.646777 1_555
Cl11 Rb3 3.677674 1_655
Cl11 Rb3 3.763406 1_545
Cl12 Mo0 2.506863 1_555
Cl12 Mo1 2.506863 1_555
Cl12 Rb0 3.530587 1_555
Cl12 Rb0 3.760131 1_665
Cl12 Rb5 3.861663 1_555
Cl12 Rb4 3.861663 1_555
Cl13 Mo0 2.504500 1_655
Cl13 Mo1 2.504500 1_655
Cl13 Rb0 3.402176 1_655
Cl13 Rb4 3.853883 1_555
Cl13 Rb5 3.853883 1_555
Cl14 Mo3 2.504500 1_565
Cl14 Mo2 2.504500 1_565
Cl14 Rb1 3.402176 1_565
Cl14 Rb2 3.853883 1_555
Cl14 Rb3 3.853883 1_555
Cl15 Mo3 2.506863 1_555
Cl15 Mo2 2.506863 1_555
Cl15 Rb1 3.530587 1_555
Cl15 Rb1 3.760131 1_665
Cl15 Rb2 3.861663 1_555
Cl15 Rb3 3.861663 1_555
