# generated using pymatgen
data_MgH12SO9
_symmetry_space_group_name_H-M   'P 1'
_cell_length_a   8.51818335
_cell_length_b   5.37891007
_cell_length_c   9.35037169
_cell_angle_alpha   68.10950726
_cell_angle_beta   114.47989303
_cell_angle_gamma   88.20133608
_symmetry_Int_Tables_number   1
_chemical_formula_structural   MgH12SO9
_chemical_formula_sum   'Mg1 H12 S1 O9'
_cell_volume   352.92215797
_cell_formula_units_Z   1
loop_
 _symmetry_equiv_pos_site_id
 _symmetry_equiv_pos_as_xyz
  1  'x, y, z'
loop_
 _atom_site_type_symbol
 _atom_site_label
 _atom_site_symmetry_multiplicity
 _atom_site_fract_x
 _atom_site_fract_y
 _atom_site_fract_z
 _atom_site_occupancy
  Mg  Mg0  1  0.14039300  0.96727100  0.90890600  1
  H  H0  1  0.76630600  0.39458300  0.75309000  1
  H  H1  1  0.41325700  0.36583000  0.61032000  1
  H  H2  1  0.03315400  0.95705300  0.51756300  1
  H  H3  1  0.50956300  0.28403400  0.81207600  1
  H  H4  1  0.24317300  0.20284600  0.69056900  1
  H  H5  1  0.67433700  0.78781700  0.38955700  1
  H  H6  1  0.43601000  0.69010300  0.37839000  1
  H  H7  1  0.46113300  0.66773100  0.05793600  1
  H  H8  1  0.04206000  0.36369900  0.59160600  1
  H  H9  1  0.30964900  0.60464500  0.19102900  1
  H  H10  1  0.65667400  0.77899100  0.46369200  1
  H  H11  1  0.08905400  0.86943600  0.40280400  1
  S  S0  1  0.95653400  0.45474600  0.97297900  1
  O  O0  1  0.96064700  0.74521400  0.86918100  1
  O  O1  1  0.34101100  0.62630900  0.40665600  1
  O  O2  1  0.07755000  0.26927500  0.95583400  1
  O  O3  1  0.75707400  0.42475000  0.84689400  1
  O  O4  1  0.43151800  0.22604100  0.72516100  1
  O  O5  1  0.00498200  0.84733900  0.45022400  1
  O  O6  1  0.23808800  0.54846800  0.26424600  1
  O  O7  1  0.37663200  0.76352400  0.07448600  1
  O  O8  1  0.11592200  0.17765600  0.66680000  1
loop_
_geom_bond_atom_site_label_1
_geom_bond_atom_site_label_2
_geom_bond_distance
_geom_bond_site_symmetry_2
Mg0 O7 1.913607 1_556
Mg0 O2 1.946671 1_565
Mg0 O0 1.970588 1_455
Mg0 O8 2.032891 1_565
H0 O3 0.981993 1_555
H1 O4 0.997397 1_555
H2 O5 0.981351 1_555
H3 O4 0.976743 1_555
H4 O8 1.036687 1_555
H4 O4 1.518797 1_555
H6 O1 0.984626 1_555
H7 O7 0.967488 1_555
H8 O8 0.980221 1_555
H9 O6 1.065235 1_555
H9 O7 1.447362 1_555
H10 H5 0.753490 1_555
H11 O5 0.976107 1_555
O0 S0 1.511684 1_555
O2 S0 1.508392 1_455
O3 S0 1.673820 1_555
