# generated using pymatgen
data_PH9(NO2)2
_symmetry_space_group_name_H-M   'P 1'
_cell_length_a   11.25086200
_cell_length_b   15.77901300
_cell_length_c   6.42341703
_cell_angle_alpha   90.00000000
_cell_angle_beta   91.27206315
_cell_angle_gamma   90.00000000
_symmetry_Int_Tables_number   1
_chemical_formula_structural   PH9(NO2)2
_chemical_formula_sum   'P8 H72 N16 O32'
_cell_volume   1140.05212104
_cell_formula_units_Z   8
loop_
 _symmetry_equiv_pos_site_id
 _symmetry_equiv_pos_as_xyz
  1  'x, y, z'
loop_
 _atom_site_type_symbol
 _atom_site_label
 _atom_site_symmetry_multiplicity
 _atom_site_fract_x
 _atom_site_fract_y
 _atom_site_fract_z
 _atom_site_occupancy
  P  P0  1  0.13711100  0.11063900  0.30017400  1
  P  P1  1  0.86288900  0.61063900  0.19982600  1
  P  P2  1  0.86288900  0.88936100  0.69982600  1
  P  P3  1  0.13711100  0.38936100  0.80017400  1
  P  P4  1  0.63589000  0.13183900  0.81695100  1
  P  P5  1  0.36411000  0.63183900  0.68304900  1
  P  P6  1  0.36411000  0.86816100  0.18304900  1
  P  P7  1  0.63589000  0.36816100  0.31695100  1
  H  H0  1  0.19708900  0.99128600  0.13903000  1
  H  H1  1  0.80291100  0.49128600  0.36097000  1
  H  H2  1  0.80291100  0.00871400  0.86097000  1
  H  H3  1  0.19708900  0.50871400  0.63903000  1
  H  H4  1  0.63914600  0.24452700  0.03669500  1
  H  H5  1  0.36085400  0.74452700  0.46330500  1
  H  H6  1  0.36085400  0.75547300  0.96330500  1
  H  H7  1  0.63914600  0.25547300  0.53669500  1
  H  H8  1  0.00446900  0.76538900  0.22283200  1
  H  H9  1  0.99553100  0.26538900  0.27716800  1
  H  H10  1  0.99553100  0.23461100  0.77716800  1
  H  H11  1  0.00446900  0.73461100  0.72283200  1
  H  H12  1  0.12031000  0.83434500  0.23640500  1
  H  H13  1  0.87969000  0.33434500  0.26359500  1
  H  H14  1  0.87969000  0.16565500  0.76359500  1
  H  H15  1  0.12031000  0.66565500  0.73640500  1
  H  H16  1  0.97863100  0.86696200  0.29799200  1
  H  H17  1  0.02136900  0.36696200  0.20200800  1
  H  H18  1  0.02136900  0.13303800  0.70200800  1
  H  H19  1  0.97863100  0.63303800  0.79799200  1
  H  H20  1  0.01205900  0.84409000  0.04433700  1
  H  H21  1  0.98794100  0.34409000  0.45566300  1
  H  H22  1  0.98794100  0.15591000  0.95566300  1
  H  H23  1  0.01205900  0.65591000  0.54433700  1
  H  H24  1  0.50256500  0.09667600  0.44823000  1
  H  H25  1  0.49743500  0.59667600  0.05177000  1
  H  H26  1  0.49743500  0.90332400  0.55177000  1
  H  H27  1  0.50256500  0.40332400  0.94823000  1
  H  H28  1  0.52741800  0.12120700  0.19111200  1
  H  H29  1  0.47258200  0.62120700  0.30888800  1
  H  H30  1  0.47258200  0.87879300  0.80888800  1
  H  H31  1  0.52741800  0.37879300  0.69111200  1
  H  H32  1  0.47969200  0.02200500  0.26185600  1
  H  H33  1  0.52030800  0.52200500  0.23814400  1
  H  H34  1  0.52030800  0.97799500  0.73814400  1
  H  H35  1  0.47969200  0.47799500  0.76185600  1
  H  H36  1  0.38676500  0.10823800  0.27062400  1
  H  H37  1  0.61323500  0.60823800  0.22937600  1
  H  H38  1  0.61323500  0.89176200  0.72937600  1
  H  H39  1  0.38676500  0.39176200  0.77062400  1
  H  H40  1  0.24296400  0.14085600  0.69138300  1
  H  H41  1  0.75703600  0.64085600  0.80861700  1
  H  H42  1  0.75703600  0.85914400  0.30861700  1
  H  H43  1  0.24296400  0.35914400  0.19138300  1
  H  H44  1  0.27822100  0.15844700  0.95220800  1
  H  H45  1  0.72177900  0.65844700  0.54779200  1
  H  H46  1  0.72177900  0.84155300  0.04779200  1
  H  H47  1  0.27822100  0.34155300  0.45220800  1
  H  H48  1  0.38806700  0.15277300  0.77332700  1
  H  H49  1  0.61193300  0.65277300  0.72667300  1
  H  H50  1  0.61193300  0.84722700  0.22667300  1
  H  H51  1  0.38806700  0.34722700  0.27332700  1
  H  H52  1  0.28983100  0.23758500  0.77582200  1
  H  H53  1  0.71016900  0.73758500  0.72417800  1
  H  H54  1  0.71016900  0.76241500  0.22417800  1
  H  H55  1  0.28983100  0.26241500  0.27582200  1
  H  H56  1  0.76680700  0.07576700  0.19667900  1
  H  H57  1  0.23319300  0.57576700  0.30332100  1
  H  H58  1  0.23319300  0.92423300  0.80332100  1
  H  H59  1  0.76680700  0.42423300  0.69667900  1
  H  H60  1  0.77392200  0.11205800  0.45180900  1
  H  H61  1  0.22607800  0.61205800  0.04819100  1
  H  H62  1  0.22607800  0.88794200  0.54819100  1
  H  H63  1  0.77392200  0.38794200  0.95180900  1
  H  H64  1  0.83295300  0.01545500  0.38857500  1
  H  H65  1  0.16704700  0.51545500  0.11142500  1
  H  H66  1  0.16704700  0.98454500  0.61142500  1
  H  H67  1  0.83295300  0.48454500  0.88857500  1
  H  H68  1  0.89878900  0.10718400  0.30622200  1
  H  H69  1  0.10121100  0.60718400  0.19377800  1
  H  H70  1  0.10121100  0.89281600  0.69377800  1
  H  H71  1  0.89878900  0.39281600  0.80622200  1
  N  N0  1  0.02948200  0.82911000  0.20044100  1
  N  N1  1  0.97051800  0.32911000  0.29955900  1
  N  N2  1  0.97051800  0.17089000  0.79955900  1
  N  N3  1  0.02948200  0.67089000  0.70044100  1
  N  N4  1  0.47522800  0.08704400  0.29163900  1
  N  N5  1  0.52477200  0.58704400  0.20836100  1
  N  N6  1  0.52477200  0.91295600  0.70836100  1
  N  N7  1  0.47522800  0.41295600  0.79163900  1
  N  N8  1  0.30093900  0.17239700  0.79842000  1
  N  N9  1  0.69906100  0.67239700  0.70158000  1
  N  N10  1  0.69906100  0.82760300  0.20158000  1
  N  N11  1  0.30093900  0.32760300  0.29842000  1
  N  N12  1  0.81712600  0.07734000  0.33685600  1
  N  N13  1  0.18287400  0.57734000  0.16314400  1
  N  N14  1  0.18287400  0.92266000  0.66314400  1
  N  N15  1  0.81712600  0.42266000  0.83685600  1
  O  O0  1  0.12179700  0.02192300  0.18344100  1
  O  O1  1  0.87820300  0.52192300  0.31655900  1
  O  O2  1  0.87820300  0.97807700  0.81655900  1
  O  O3  1  0.12179700  0.47807700  0.68344100  1
  O  O4  1  0.25204200  0.15365400  0.22335000  1
  O  O5  1  0.74795800  0.65365400  0.27665000  1
  O  O6  1  0.74795800  0.84634600  0.77665000  1
  O  O7  1  0.25204200  0.34634600  0.72335000  1
  O  O8  1  0.14254200  0.09359300  0.53739800  1
  O  O9  1  0.85745800  0.59359300  0.96260200  1
  O  O10  1  0.85745800  0.90640700  0.46260200  1
  O  O11  1  0.14254200  0.40640700  0.03739800  1
  O  O12  1  0.02433500  0.16143200  0.23834300  1
  O  O13  1  0.97566500  0.66143200  0.26165700  1
  O  O14  1  0.97566500  0.83856800  0.76165700  1
  O  O15  1  0.02433500  0.33856800  0.73834300  1
  O  O16  1  0.58121800  0.20256100  0.97125300  1
  O  O17  1  0.41878200  0.70256100  0.52874700  1
  O  O18  1  0.41878200  0.79743900  0.02874700  1
  O  O19  1  0.58121800  0.29743900  0.47125300  1
  O  O20  1  0.52435800  0.09309600  0.70983700  1
  O  O21  1  0.47564200  0.59309600  0.79016300  1
  O  O22  1  0.47564200  0.90690400  0.29016300  1
  O  O23  1  0.52435800  0.40690400  0.20983700  1
  O  O24  1  0.70188700  0.06573200  0.95291100  1
  O  O25  1  0.29811300  0.56573200  0.54708900  1
  O  O26  1  0.29811300  0.93426800  0.04708900  1
  O  O27  1  0.70188700  0.43426800  0.45291100  1
  O  O28  1  0.71803200  0.17708900  0.66281500  1
  O  O29  1  0.28196800  0.67708900  0.83718500  1
  O  O30  1  0.28196800  0.82291100  0.33718500  1
  O  O31  1  0.71803200  0.32291100  0.16281500  1
loop_
_geom_bond_atom_site_label_1
_geom_bond_atom_site_label_2
_geom_bond_distance
_geom_bond_site_symmetry_2
H0 O0 1.021461 1_565
H0 O26 1.574769 1_555
H1 O1 1.021461 1_555
H1 O27 1.574769 1_555
H2 O2 1.021461 1_545
H2 O24 1.574769 1_555
H3 O3 1.021461 1_555
H3 O25 1.574769 1_555
H4 O16 1.013800 1_554
H5 O17 1.013800 1_555
H6 O18 1.013800 1_556
H7 O19 1.013800 1_555
H8 N0 1.054807 1_555
H8 O13 1.691602 1_455
H9 N1 1.054807 1_555
H9 O12 1.691602 1_655
H10 N2 1.054807 1_555
H10 O15 1.691602 1_655
H11 N3 1.054807 1_555
H11 O14 1.691602 1_455
H12 N0 1.045932 1_555
H13 N1 1.045932 1_555
H14 N2 1.045932 1_555
H15 N3 1.045932 1_555
H16 N0 1.045277 1_655
H17 N1 1.045277 1_455
H18 N2 1.045277 1_455
H19 N3 1.045277 1_655
H20 N0 1.044518 1_555
H21 N1 1.044518 1_555
H22 N2 1.044518 1_555
H23 N3 1.044518 1_555
H24 N4 1.056263 1_555
H24 O20 1.693752 1_555
H25 N5 1.056263 1_555
H25 O21 1.693752 1_554
H26 N6 1.056263 1_555
H26 O22 1.693752 1_555
H27 N7 1.056263 1_555
H27 O23 1.693752 1_556
H28 N4 1.034004 1_555
H29 N5 1.034004 1_555
H30 N6 1.034004 1_555
H31 N7 1.034004 1_555
H32 N4 1.045342 1_555
H33 N5 1.045342 1_555
H34 N6 1.045342 1_555
H35 N7 1.045342 1_555
H36 N4 1.055787 1_555
H37 N5 1.055787 1_555
H38 N6 1.055787 1_555
H39 N7 1.055787 1_555
H40 N8 1.061108 1_555
H40 O8 1.661749 1_555
H41 N9 1.061108 1_555
H41 O9 1.661749 1_555
H42 N10 1.061108 1_555
H42 O10 1.661749 1_555
H43 N11 1.061108 1_555
H43 O11 1.661749 1_555
H44 N8 1.049204 1_555
H45 N9 1.049204 1_555
H46 N10 1.049204 1_555
H47 N11 1.049204 1_555
H48 N8 1.043933 1_555
H49 N9 1.043933 1_555
H50 N10 1.043933 1_555
H51 N11 1.043933 1_555
H52 N8 1.045900 1_555
H53 N9 1.045900 1_555
H54 N10 1.045900 1_555
H55 N11 1.045900 1_555
H56 N12 1.053203 1_555
H56 O24 1.720346 1_554
H57 N13 1.053203 1_555
H57 O25 1.720346 1_555
H58 N14 1.053203 1_555
H58 O26 1.720346 1_556
H59 N15 1.053203 1_555
H59 O27 1.720346 1_555
H60 N12 1.047633 1_555
H61 N13 1.047633 1_555
H62 N14 1.047633 1_555
H63 N15 1.047633 1_555
H64 N12 1.045451 1_555
H65 N13 1.045451 1_555
H66 N14 1.045451 1_555
H67 N15 1.045451 1_555
H68 N12 1.054826 1_555
H68 O12 1.716192 1_655
H69 N13 1.054826 1_555
H69 O13 1.716192 1_455
H70 N14 1.054826 1_555
H70 O14 1.716192 1_455
H71 N15 1.054826 1_555
H71 O15 1.716192 1_655
O0 P0 1.595547 1_555
O1 P1 1.595547 1_555
O2 P2 1.595547 1_555
O3 P3 1.595547 1_555
O4 P0 1.550666 1_555
O5 P1 1.550666 1_555
O6 P2 1.550666 1_555
O7 P3 1.550666 1_555
O8 P0 1.547216 1_555
O9 P1 1.547216 1_556
O10 P2 1.547216 1_555
O11 P3 1.547216 1_554
O12 P0 1.545197 1_555
O13 P1 1.545197 1_555
O14 P2 1.545197 1_555
O15 P3 1.545197 1_555
O16 P4 1.622677 1_555
O17 P5 1.622677 1_555
O18 P6 1.622677 1_555
O19 P7 1.622677 1_555
O20 P4 1.543821 1_555
O21 P5 1.543821 1_555
O22 P6 1.543821 1_555
O23 P7 1.543821 1_555
O24 P4 1.540557 1_555
O25 P5 1.540557 1_555
O26 P6 1.540557 1_555
O27 P7 1.540557 1_555
O28 P4 1.544269 1_555
O29 P5 1.544269 1_555
O30 P6 1.544269 1_555
O31 P7 1.544269 1_555
