# generated using pymatgen
data_Li4IO3
_symmetry_space_group_name_H-M   'P 1'
_cell_length_a   5.52721400
_cell_length_b   4.19018200
_cell_length_c   10.24975000
_cell_angle_alpha   90.00000000
_cell_angle_beta   90.00000000
_cell_angle_gamma   90.00000000
_symmetry_Int_Tables_number   1
_chemical_formula_structural   Li4IO3
_chemical_formula_sum   'Li8 I2 O6'
_cell_volume   237.38454427
_cell_formula_units_Z   2
loop_
 _symmetry_equiv_pos_site_id
 _symmetry_equiv_pos_as_xyz
  1  'x, y, z'
loop_
 _atom_site_type_symbol
 _atom_site_label
 _atom_site_symmetry_multiplicity
 _atom_site_fract_x
 _atom_site_fract_y
 _atom_site_fract_z
 _atom_site_occupancy
  Li  Li0  1  0.46282000  0.84319800  0.89722900  1
  Li  Li1  1  0.46282000  0.84319800  0.60277100  1
  Li  Li2  1  0.03718000  0.84319800  0.89722900  1
  Li  Li3  1  0.03718000  0.84319800  0.60277100  1
  Li  Li4  1  0.53718000  0.15680200  0.10277100  1
  Li  Li5  1  0.53718000  0.15680200  0.39722900  1
  Li  Li6  1  0.96282000  0.15680200  0.10277100  1
  Li  Li7  1  0.96282000  0.15680200  0.39722900  1
  I  I0  1  0.75000000  0.24422000  0.75000000  1
  I  I1  1  0.25000000  0.75578000  0.25000000  1
  O  O0  1  0.75000000  0.13085300  0.95319300  1
  O  O1  1  0.75000000  0.13085300  0.54680700  1
  O  O2  1  0.25000000  0.86914700  0.04680700  1
  O  O3  1  0.25000000  0.86914700  0.45319300  1
  O  O4  1  0.25000000  0.81140700  0.75000000  1
  O  O5  1  0.75000000  0.18859300  0.25000000  1
loop_
_geom_bond_atom_site_label_1
_geom_bond_atom_site_label_2
_geom_bond_distance
_geom_bond_site_symmetry_2
Li0 O4 1.917992 1_555
Li0 O2 1.935463 1_556
Li0 O0 2.073979 1_565
Li1 O4 1.917992 1_555
Li1 O3 1.935463 1_555
Li1 O1 2.073979 1_565
Li2 O4 1.917992 1_555
Li2 O2 1.935463 1_556
Li2 O0 2.073979 1_465
Li3 O4 1.917992 1_555
Li3 O3 1.935463 1_555
Li3 O1 2.073979 1_465
Li4 O5 1.917992 1_555
Li4 O0 1.935463 1_554
Li4 O2 2.073979 1_545
Li5 O5 1.917992 1_555
Li5 O1 1.935463 1_555
Li5 O3 2.073979 1_545
Li6 O5 1.917992 1_555
Li6 O0 1.935463 1_554
Li6 O2 2.073979 1_645
Li7 O5 1.917992 1_555
Li7 O1 1.935463 1_555
Li7 O3 2.073979 1_645
I0 O1 2.136164 1_555
I0 O0 2.136164 1_555
I1 O2 2.136164 1_555
I1 O3 2.136164 1_555
