# generated using pymatgen
data_Mg11Cu2O13
_symmetry_space_group_name_H-M   'P 1'
_cell_length_a   19.64379805
_cell_length_b   19.64379805
_cell_length_c   19.64379805
_cell_angle_alpha   171.16170127
_cell_angle_beta   167.56728967
_cell_angle_gamma   15.27435577
_symmetry_Int_Tables_number   1
_chemical_formula_structural   Mg11Cu2O13
_chemical_formula_sum   'Mg11 Cu2 O13'
_cell_volume   250.73384859
_cell_formula_units_Z   1
loop_
 _symmetry_equiv_pos_site_id
 _symmetry_equiv_pos_as_xyz
  1  'x, y, z'
loop_
 _atom_site_type_symbol
 _atom_site_label
 _atom_site_symmetry_multiplicity
 _atom_site_fract_x
 _atom_site_fract_y
 _atom_site_fract_z
 _atom_site_occupancy
  Mg  Mg0  1  0.57692900  0.07692900  0.50000000  1
  Mg  Mg1  1  0.50000000  0.00000000  0.50000000  1
  Mg  Mg2  1  0.42307100  0.92307100  0.50000000  1
  Mg  Mg3  1  0.80801900  0.30801900  0.50000000  1
  Mg  Mg4  1  0.88427500  0.38427500  0.50000000  1
  Mg  Mg5  1  0.73082100  0.23082100  0.50000000  1
  Mg  Mg6  1  0.11572500  0.61572500  0.50000000  1
  Mg  Mg7  1  0.26917900  0.76917900  0.50000000  1
  Mg  Mg8  1  0.96147100  0.46147100  0.50000000  1
  Mg  Mg9  1  0.03852900  0.53852900  0.50000000  1
  Mg  Mg10  1  0.19198100  0.69198100  0.50000000  1
  Cu  Cu0  1  0.65383600  0.15383600  0.50000000  1
  Cu  Cu1  1  0.34616400  0.84616400  0.50000000  1
  O  O0  1  0.84614300  0.84614300  0.00000000  1
  O  O1  1  0.61398600  0.61398600  0.00000000  1
  O  O2  1  0.53839200  0.53839200  0.00000000  1
  O  O3  1  0.46160800  0.46160800  0.00000000  1
  O  O4  1  0.69370700  0.69370700  0.00000000  1
  O  O5  1  0.76938100  0.76938100  0.00000000  1
  O  O6  1  0.15385700  0.15385700  0.00000000  1
  O  O7  1  0.07699100  0.07699100  0.00000000  1
  O  O8  1  0.92300900  0.92300900  0.00000000  1
  O  O9  1  0.00000000  0.00000000  0.00000000  1
  O  O10  1  0.38601400  0.38601400  0.00000000  1
  O  O11  1  0.23061900  0.23061900  0.00000000  1
  O  O12  1  0.30629300  0.30629300  0.00000000  1
loop_
_geom_bond_atom_site_label_1
_geom_bond_atom_site_label_2
_geom_bond_distance
_geom_bond_site_symmetry_2
Mg0 O1 2.091204 1_556
Mg0 O1 2.091204 1_545
Mg0 O7 2.127093 1_555
Mg0 O7 2.127093 1_656
Mg0 O2 2.131378 1_545
Mg0 O2 2.131378 1_556
Mg1 O9 2.127092 1_656
Mg1 O9 2.127092 1_555
Mg1 O2 2.127406 1_556
Mg1 O2 2.127406 1_545
Mg1 O3 2.127406 1_556
Mg1 O3 2.127406 1_545
Mg2 O10 2.091204 1_555
Mg2 O10 2.091204 1_566
Mg2 O8 2.127093 1_455
Mg2 O8 2.127093 1_556
Mg2 O3 2.131378 1_555
Mg2 O3 2.131378 1_566
Mg3 O0 2.120086 1_556
Mg3 O0 2.120086 1_545
Mg3 O12 2.128154 1_555
Mg3 O12 2.128154 1_656
Mg3 O5 2.134148 1_556
Mg3 O5 2.134148 1_545
Mg4 O0 2.120304 1_556
Mg4 O0 2.120304 1_545
Mg4 O10 2.128170 1_555
Mg4 O10 2.128170 1_656
Mg4 O8 2.136785 1_556
Mg4 O8 2.136785 1_545
Mg5 O4 2.092736 1_556
Mg5 O4 2.092736 1_545
Mg5 O11 2.127107 1_555
Mg5 O11 2.127107 1_656
Mg5 O5 2.132008 1_556
Mg5 O5 2.132008 1_545
Mg6 O6 2.120304 1_566
Mg6 O6 2.120304 1_555
Mg6 O1 2.128170 1_556
Mg6 O1 2.128170 1_455
Mg6 O7 2.136785 1_555
Mg6 O7 2.136785 1_566
Mg7 O12 2.092736 1_566
Mg7 O12 2.092736 1_555
Mg7 O5 2.127107 1_455
Mg7 O5 2.127107 1_556
Mg7 O11 2.132008 1_555
Mg7 O11 2.132008 1_566
Mg8 O3 2.127099 1_656
Mg8 O3 2.127099 1_555
Mg8 O8 2.129322 1_545
Mg8 O8 2.129322 1_556
Mg8 O9 2.131158 1_655
Mg8 O9 2.131158 1_666
Mg9 O2 2.127099 1_556
Mg9 O2 2.127099 1_455
Mg9 O7 2.129322 1_555
Mg9 O7 2.129322 1_566
Mg9 O9 2.131158 1_555
Mg9 O9 2.131158 1_566
Mg10 O6 2.120086 1_555
Mg10 O6 2.120086 1_566
Mg10 O4 2.128154 1_455
Mg10 O4 2.128154 1_556
Mg10 O11 2.134148 1_566
Mg10 O11 2.134148 1_555
Cu0 O6 2.127092 1_555
Cu0 O6 2.127092 1_656
Cu0 O1 2.167678 1_545
Cu0 O1 2.167678 1_556
Cu0 O4 2.168263 1_545
Cu0 O4 2.168263 1_556
Cu1 O0 2.127092 1_455
Cu1 O0 2.127092 1_556
Cu1 O10 2.167678 1_566
Cu1 O10 2.167678 1_555
Cu1 O12 2.168263 1_555
Cu1 O12 2.168263 1_566
