# generated using pymatgen
data_Ba2MgMo4(P2O7)4
_symmetry_space_group_name_H-M   'P 1'
_cell_length_a   7.90360130
_cell_length_b   7.96835203
_cell_length_c   10.39484585
_cell_angle_alpha   78.41974049
_cell_angle_beta   79.39717203
_cell_angle_gamma   88.65785856
_symmetry_Int_Tables_number   1
_chemical_formula_structural   Ba2MgMo4(P2O7)4
_chemical_formula_sum   'Ba2 Mg1 Mo4 P8 O28'
_cell_volume   630.31588234
_cell_formula_units_Z   1
loop_
 _symmetry_equiv_pos_site_id
 _symmetry_equiv_pos_as_xyz
  1  'x, y, z'
loop_
 _atom_site_type_symbol
 _atom_site_label
 _atom_site_symmetry_multiplicity
 _atom_site_fract_x
 _atom_site_fract_y
 _atom_site_fract_z
 _atom_site_occupancy
  Ba  Ba0  1  0.00517586  0.50805958  0.05228299  1
  Ba  Ba1  1  0.48806288  0.98646066  0.54113977  1
  Mg  Mg0  1  0.82660946  0.38907398  0.75576670  1
  Mo  Mo0  1  0.99286791  0.99127482  0.48766672  1
  Mo  Mo1  1  0.02352638  0.01302934  0.00241851  1
  Mo  Mo2  1  0.46610211  0.54693182  0.24833740  1
  Mo  Mo3  1  0.46659371  0.45136981  0.76921818  1
  P  P0  1  0.81919612  0.71762058  0.31530378  1
  P  P1  1  0.27273258  0.19381373  0.19472682  1
  P  P2  1  0.16437350  0.26208306  0.66309797  1
  P  P3  1  0.77537303  0.80228992  0.80659487  1
  P  P4  1  0.72521965  0.35800392  0.46186216  1
  P  P5  1  0.63892761  0.26262491  0.05797348  1
  P  P6  1  0.24649515  0.63716472  0.53248022  1
  P  P7  1  0.38746443  0.76098962  0.94630312  1
  O  O0  1  0.95963576  0.74859987  0.19262908  1
  O  O1  1  0.21295539  0.05644153  0.31921828  1
  O  O2  1  0.01790707  0.23861093  0.78522795  1
  O  O3  1  0.80379053  0.92430764  0.66882096  1
  O  O4  1  0.63481135  0.72708069  0.28996923  1
  O  O5  1  0.27049484  0.37820928  0.21944704  1
  O  O6  1  0.34476694  0.23346080  0.69216302  1
  O  O7  1  0.81780388  0.61407863  0.80101860  1
  O  O8  1  0.83286767  0.82259321  0.42153455  1
  O  O9  1  0.17590367  0.19229647  0.08019584  1
  O  O10  1  0.14192256  0.15947824  0.55867787  1
  O  O11  1  0.85714574  0.85329102  0.91392586  1
  O  O12  1  0.85122719  0.51127097  0.37714353  1
  O  O13  1  0.47641884  0.14929328  0.14665131  1
  O  O14  1  0.41588882  0.74194968  0.08865022  1
  O  O15  1  0.27753165  0.64496616  0.38400129  1
  O  O16  1  0.62140736  0.29281989  0.90826897  1
  O  O17  1  0.70353437  0.37044229  0.61067866  1
  O  O18  1  0.33306363  0.58816516  0.91666607  1
  O  O19  1  0.40849087  0.62965606  0.59624509  1
  O  O20  1  0.64389899  0.43412943  0.10523603  1
  O  O21  1  0.12993258  0.46682010  0.60441266  1
  O  O22  1  0.25895975  0.89750843  0.90742726  1
  O  O23  1  0.14545579  0.79157099  0.57059714  1
  O  O24  1  0.80277525  0.16742059  0.07951595  1
  O  O25  1  0.81226360  0.19104788  0.43549139  1
  O  O26  1  0.56470169  0.81999398  0.84001792  1
  O  O27  1  0.55239082  0.36537428  0.41349456  1
loop_
_geom_bond_atom_site_label_1
_geom_bond_atom_site_label_2
_geom_bond_distance
_geom_bond_site_symmetry_2
Ba0 O0 2.613184 1_455
Ba0 O18 2.735398 1_554
Ba0 O9 2.815621 1_555
Ba0 O20 2.858931 1_455
Ba0 O5 3.000791 1_555
Ba0 O24 3.120099 1_455
Ba0 O11 3.144023 1_454
Ba0 O7 3.194918 1_454
Ba0 O12 3.377220 1_455
Ba1 O6 2.846520 1_565
Ba1 O19 2.846832 1_555
Ba1 O25 2.978370 1_565
Ba1 O3 3.021714 1_555
Ba1 O10 3.026383 1_565
Ba1 O27 3.057868 1_565
Ba1 O23 3.088480 1_555
Ba1 O8 3.148916 1_555
Ba1 O26 3.283128 1_555
Ba1 O1 3.410689 1_565
Mg0 O2 1.937853 1_655
Mg0 O7 1.939422 1_555
Mg0 O17 1.969610 1_555
Mg0 O16 2.087008 1_555
Mo0 O23 2.114652 1_655
Mo0 O10 2.126101 1_665
Mo0 O8 2.156122 1_555
Mo0 O3 2.159230 1_555
Mo0 O25 2.167382 1_565
Mo0 O1 2.217620 1_665
Mo1 O22 2.212089 1_544
Mo1 O24 2.231720 1_455
Mo1 O9 2.246582 1_555
Mo1 O11 2.277977 1_444
Mo1 O0 2.571748 1_445
Mo1 O2 2.594985 1_554
Mo2 O15 2.105814 1_555
Mo2 O14 2.122640 1_555
Mo2 O4 2.139467 1_555
Mo2 O20 2.168806 1_555
Mo2 O5 2.172130 1_555
Mo2 O27 2.211997 1_555
Mo3 O18 2.161652 1_555
Mo3 O19 2.170206 1_555
Mo3 O16 2.242272 1_555
Mo3 O6 2.346102 1_555
Mo3 O17 2.423439 1_555
O0 P0 1.511511 1_555
O1 P1 1.525310 1_555
O2 P2 1.536467 1_555
O3 P3 1.542601 1_555
O4 P0 1.525413 1_555
O5 P1 1.540767 1_555
O6 P2 1.513838 1_555
O7 P3 1.539225 1_555
O8 P0 1.532869 1_555
O9 P1 1.531239 1_555
O10 P2 1.520548 1_555
O11 P3 1.512387 1_555
O12 P4 1.600417 1_555
O12 P0 1.672409 1_555
O13 P5 1.612252 1_555
O13 P1 1.647904 1_555
O14 P7 1.514441 1_554
O15 P6 1.506332 1_555
O16 P5 1.557595 1_556
O17 P4 1.547697 1_555
O18 P7 1.556620 1_555
O19 P6 1.541105 1_555
O20 P5 1.545865 1_555
O21 P6 1.627227 1_555
O21 P2 1.657859 1_555
O22 P7 1.516909 1_555
O23 P6 1.530281 1_555
O24 P5 1.514969 1_555
O25 P4 1.533767 1_555
O26 P7 1.629947 1_555
O26 P3 1.645852 1_555
O27 P4 1.535977 1_555
