# generated using pymatgen
data_LiNdGdFeO6
_symmetry_space_group_name_H-M   'P 1'
_cell_length_a   7.83618317
_cell_length_b   7.94299753
_cell_length_c   7.85265804
_cell_angle_alpha   90.00000000
_cell_angle_beta   90.00000000
_cell_angle_gamma   90.00000000
_symmetry_Int_Tables_number   1
_chemical_formula_structural   LiNdGdFeO6
_chemical_formula_sum   'Li4 Nd4 Gd4 Fe4 O24'
_cell_volume   488.77129479
_cell_formula_units_Z   4
loop_
 _symmetry_equiv_pos_site_id
 _symmetry_equiv_pos_as_xyz
  1  'x, y, z'
loop_
 _atom_site_type_symbol
 _atom_site_label
 _atom_site_symmetry_multiplicity
 _atom_site_fract_x
 _atom_site_fract_y
 _atom_site_fract_z
 _atom_site_occupancy
  Li  Li0  1  0.25000000  0.25000000  0.25000000  1
  Li  Li1  1  0.75000000  0.75000000  0.25000000  1
  Li  Li2  1  0.75000000  0.25000000  0.75000000  1
  Li  Li3  1  0.25000000  0.75000000  0.75000000  1
  Nd  Nd0  1  0.50000000  -0.00000000  0.50000000  1
  Nd  Nd1  1  0.50000000  0.50000000  0.00000000  1
  Nd  Nd2  1  -0.00000000  0.50000000  0.00000000  1
  Nd  Nd3  1  -0.00000000  -0.00000000  0.50000000  1
  Gd  Gd0  1  -0.00000000  0.50000000  0.50000000  1
  Gd  Gd1  1  0.50000000  -0.00000000  0.00000000  1
  Gd  Gd2  1  -0.00000000  -0.00000000  0.00000000  1
  Gd  Gd3  1  0.50000000  0.50000000  0.50000000  1
  Fe  Fe0  1  0.75000000  0.75000000  0.75000000  1
  Fe  Fe1  1  0.25000000  0.25000000  0.75000000  1
  Fe  Fe2  1  0.25000000  0.75000000  0.25000000  1
  Fe  Fe3  1  0.75000000  0.25000000  0.25000000  1
  O  O0  1  0.98629253  0.20755724  0.27747451  1
  O  O1  1  0.01370747  0.79244276  0.27747451  1
  O  O2  1  0.01370747  0.20755724  0.72252549  1
  O  O3  1  0.98629253  0.79244276  0.72252549  1
  O  O4  1  0.28115837  0.98734729  0.20456525  1
  O  O5  1  0.28115837  0.01265271  0.79543475  1
  O  O6  1  0.71884163  0.01265271  0.20456525  1
  O  O7  1  0.71884163  0.98734729  0.79543475  1
  O  O8  1  0.20735853  0.27881224  0.98834457  1
  O  O9  1  0.79264147  0.27881224  0.01165543  1
  O  O10  1  0.20735853  0.72118776  0.01165543  1
  O  O11  1  0.79264147  0.72118776  0.98834457  1
  O  O12  1  0.51370747  0.29244276  0.22252549  1
  O  O13  1  0.48629253  0.70755724  0.22252549  1
  O  O14  1  0.48629253  0.29244276  0.77747451  1
  O  O15  1  0.51370747  0.70755724  0.77747451  1
  O  O16  1  0.21884163  0.51265271  0.29543475  1
  O  O17  1  0.21884163  0.48734729  0.70456525  1
  O  O18  1  0.78115837  0.48734729  0.29543475  1
  O  O19  1  0.78115837  0.51265271  0.70456525  1
  O  O20  1  0.29264147  0.22118776  0.51165543  1
  O  O21  1  0.70735853  0.22118776  0.48834457  1
  O  O22  1  0.29264147  0.77881224  0.48834457  1
  O  O23  1  0.70735853  0.77881224  0.51165543  1
loop_
_geom_bond_atom_site_label_1
_geom_bond_atom_site_label_2
_geom_bond_distance
_geom_bond_site_symmetry_2
Li0 O20 2.094226 1_555
Li0 O8 2.094226 1_554
Li0 O0 2.104865 1_455
Li0 O12 2.104865 1_555
Li0 O4 2.130575 1_545
Li0 O16 2.130575 1_555
Li1 O11 2.094226 1_554
Li1 O23 2.094226 1_555
Li1 O1 2.104865 1_655
Li1 O13 2.104865 1_555
Li1 O18 2.130575 1_555
Li1 O6 2.130575 1_565
Li2 O21 2.094226 1_555
Li2 O9 2.094226 1_556
Li2 O2 2.104865 1_655
Li2 O14 2.104865 1_555
Li2 O7 2.130575 1_545
Li2 O19 2.130575 1_555
Li3 O22 2.094226 1_555
Li3 O10 2.094226 1_556
Li3 O3 2.104865 1_455
Li3 O15 2.104865 1_555
Li3 O5 2.130575 1_565
Li3 O17 2.130575 1_555
Nd0 O23 2.394859 1_545
Nd0 O22 2.394859 1_545
Nd0 O20 2.394859 1_555
Nd0 O21 2.394859 1_555
Nd1 O12 2.404781 1_555
Nd1 O14 2.404781 1_554
Nd1 O13 2.404781 1_555
Nd1 O15 2.404781 1_554
Nd2 O11 2.394859 1_454
Nd2 O9 2.394859 1_455
Nd2 O8 2.394859 1_554
Nd2 O10 2.394859 1_555
Nd3 O0 2.404781 1_455
Nd3 O3 2.404781 1_445
Nd3 O2 2.404781 1_555
Nd3 O1 2.404781 1_545
Gd0 O16 2.351889 1_555
Gd0 O18 2.351889 1_455
Gd0 O19 2.351889 1_455
Gd0 O17 2.351889 1_555
Gd1 O6 2.351889 1_555
Gd1 O4 2.351889 1_545
Gd1 O5 2.351889 1_554
Gd1 O7 2.351889 1_544
Gd2 O6 2.728496 1_455
Gd2 O4 2.728496 1_545
Gd2 O7 2.728496 1_444
Gd2 O5 2.728496 1_554
Gd2 O3 2.734441 1_444
Gd2 O1 2.734441 1_545
Gd2 O0 2.734441 1_455
Gd2 O2 2.734441 1_554
Gd2 O9 2.748300 1_455
Gd2 O11 2.748300 1_444
Gd2 O8 2.748300 1_554
Gd2 O10 2.748300 1_545
Gd3 O16 2.728496 1_555
Gd3 O18 2.728496 1_555
Gd3 O19 2.728496 1_555
Gd3 O17 2.728496 1_555
Gd3 O14 2.734441 1_555
Gd3 O15 2.734441 1_555
Gd3 O12 2.734441 1_555
Gd3 O13 2.734441 1_555
Gd3 O20 2.748300 1_555
Gd3 O21 2.748300 1_555
Gd3 O22 2.748300 1_555
Gd3 O23 2.748300 1_555
Fe0 O15 1.894397 1_555
Fe0 O3 1.894397 1_555
Fe0 O23 1.914957 1_555
Fe0 O11 1.914957 1_555
Fe0 O7 1.934185 1_555
Fe0 O19 1.934185 1_555
Fe1 O2 1.894397 1_555
Fe1 O14 1.894397 1_555
Fe1 O8 1.914957 1_555
Fe1 O20 1.914957 1_555
Fe1 O17 1.934185 1_555
Fe1 O5 1.934185 1_555
Fe2 O13 1.894397 1_555
Fe2 O1 1.894397 1_555
Fe2 O10 1.914957 1_555
Fe2 O22 1.914957 1_555
Fe2 O4 1.934185 1_555
Fe2 O16 1.934185 1_555
Fe3 O12 1.894397 1_555
Fe3 O0 1.894397 1_555
Fe3 O21 1.914957 1_555
Fe3 O9 1.914957 1_555
Fe3 O18 1.934185 1_555
Fe3 O6 1.934185 1_555
