# generated using pymatgen
data_MgSi
_symmetry_space_group_name_H-M   'P 1'
_cell_length_a   5.71214700
_cell_length_b   5.94675770
_cell_length_c   13.76685429
_cell_angle_alpha   102.17101790
_cell_angle_beta   95.67046981
_cell_angle_gamma   91.00274410
_symmetry_Int_Tables_number   1
_chemical_formula_structural   MgSi
_chemical_formula_sum   'Mg12 Si12'
_cell_volume   454.54128222
_cell_formula_units_Z   12
loop_
 _symmetry_equiv_pos_site_id
 _symmetry_equiv_pos_as_xyz
  1  'x, y, z'
loop_
 _atom_site_type_symbol
 _atom_site_label
 _atom_site_symmetry_multiplicity
 _atom_site_fract_x
 _atom_site_fract_y
 _atom_site_fract_z
 _atom_site_occupancy
  Mg  Mg0  1  0.23605300  0.13579600  0.97177900  1
  Mg  Mg1  1  0.15031500  0.73914000  0.63966300  1
  Mg  Mg2  1  0.79075500  0.36533100  0.29083000  1
  Mg  Mg3  1  0.70313300  0.39303600  0.93479600  1
  Mg  Mg4  1  0.63729400  0.02120600  0.61225900  1
  Mg  Mg5  1  0.32311000  0.64537200  0.29308500  1
  Mg  Mg6  1  0.69599300  0.85996200  0.86730000  1
  Mg  Mg7  1  0.63526200  0.48864200  0.53506600  1
  Mg  Mg8  1  0.30014500  0.09063500  0.19082100  1
  Mg  Mg9  1  0.20256400  0.58873400  0.88007600  1
  Mg  Mg10  1  0.13901500  0.20755400  0.58118000  1
  Mg  Mg11  1  0.76613200  0.83121300  0.22194400  1
  Si  Si0  1  0.98091200  0.78755700  0.04166100  1
  Si  Si1  1  0.86927600  0.47042600  0.71969600  1
  Si  Si2  1  0.10640100  0.06308900  0.36998700  1
  Si  Si3  1  0.38227900  0.59262800  0.08380100  1
  Si  Si4  1  0.46430100  0.47324000  0.72692100  1
  Si  Si5  1  0.53600300  0.08977700  0.39697400  1
  Si  Si6  1  0.38148500  0.12076800  0.77999100  1
  Si  Si7  1  0.85374500  0.80178500  0.44053200  1
  Si  Si8  1  0.99853900  0.44847800  0.12502400  1
  Si  Si9  1  0.96991400  0.13189200  0.78558900  1
  Si  Si10  1  0.17098500  0.47614800  0.44243500  1
  Si  Si11  1  0.70638800  0.12002800  0.08101200  1
loop_
_geom_bond_atom_site_label_1
_geom_bond_atom_site_label_2
_geom_bond_distance
_geom_bond_site_symmetry_2
Mg0 Si6 2.829474 1_555
Mg0 Si9 2.843502 1_455
Mg0 Si0 2.889583 1_446
Mg0 Si3 2.890629 1_556
Mg0 Si8 2.957845 1_456
Mg0 Si11 2.959396 1_556
Mg1 Si1 2.710489 1_455
Mg1 Si4 2.763075 1_555
Mg1 Si10 2.848068 1_555
Mg1 Si6 2.858062 1_565
Mg1 Si9 3.011250 1_465
Mg1 Si7 3.171575 1_455
Mg2 Si8 2.802559 1_555
Mg2 Si10 2.825206 1_655
Mg2 Si2 2.867045 1_655
Mg2 Si5 2.878274 1_555
Mg2 Si11 2.937246 1_555
Mg2 Si7 2.945962 1_555
Mg3 Si11 2.838961 1_556
Mg3 Si0 2.852956 1_556
Mg3 Si6 2.864651 1_555
Mg3 Si9 2.882644 1_555
Mg3 Si8 2.925329 1_556
Mg3 Si3 2.961117 1_556
Mg3 Si4 3.178876 1_555
Mg4 Si6 2.817520 1_555
Mg4 Si9 2.852222 1_555
Mg4 Si7 2.855487 1_545
Mg4 Si1 2.983739 1_555
Mg4 Si4 3.050622 1_555
Mg4 Si5 3.076382 1_555
Mg5 Si10 2.681452 1_555
Mg5 Si2 2.842785 1_565
Mg5 Si8 2.845241 1_455
Mg5 Si3 2.885986 1_555
Mg5 Si5 2.908376 1_565
Mg6 Si9 2.711999 1_565
Mg6 Si6 2.744906 1_565
Mg6 Si0 2.878265 1_556
Mg6 Si4 2.879098 1_555
Mg6 Si1 2.994644 1_555
Mg6 Si11 3.015821 1_566
Mg7 Si5 2.720352 1_555
Mg7 Si1 2.776495 1_555
Mg7 Si10 2.819536 1_555
Mg7 Si7 2.824981 1_555
Mg7 Si4 2.923488 1_555
Mg8 Si2 2.835302 1_555
Mg8 Si0 2.893910 1_445
Mg8 Si11 2.913953 1_555
Mg8 Si8 2.991610 1_455
Mg8 Si5 3.020026 1_555
Mg8 Si3 3.083317 1_545
Mg9 Si4 2.683442 1_555
Mg9 Si0 2.729359 1_456
Mg9 Si1 2.731631 1_455
Mg9 Si3 2.885006 1_556
Mg9 Si9 2.980042 1_455
Mg9 Si6 3.073833 1_555
Mg10 Si10 2.752850 1_555
Mg10 Si4 2.792534 1_555
Mg10 Si1 2.803940 1_455
Mg10 Si2 2.839056 1_555
Mg10 Si7 3.081533 1_445
Mg10 Si6 3.089878 1_555
Mg10 Si9 3.179668 1_455
Mg11 Si2 2.787722 1_665
Mg11 Si8 2.810386 1_555
Mg11 Si0 2.841431 1_555
Mg11 Si11 2.850513 1_565
Mg11 Si3 2.892536 1_555
Mg11 Si5 3.005478 1_565
Mg11 Si7 3.043731 1_555
Si0 Si8 2.520562 1_555
Si0 Si11 2.546814 1_565
Si0 Si3 2.655251 1_655
Si1 Si4 2.325413 1_555
Si1 Si9 2.431823 1_555
Si2 Si5 2.442628 1_555
Si2 Si7 2.505098 1_445
Si3 Si8 2.499373 1_455
Si4 Si6 2.414619 1_555
Si5 Si7 2.629371 1_545
Si6 Si9 2.361440 1_455
Si10 Si2 2.455018 1_555
Si10 Si7 2.677550 1_455
Si11 Si8 2.480759 1_555
