# generated using pymatgen
data_MgMn2O4
_symmetry_space_group_name_H-M   'P 1'
_cell_length_a   6.02613863
_cell_length_b   8.57419267
_cell_length_c   6.06991486
_cell_angle_alpha   90.04709274
_cell_angle_beta   88.13687634
_cell_angle_gamma   89.60521454
_symmetry_Int_Tables_number   1
_chemical_formula_structural   MgMn2O4
_chemical_formula_sum   'Mg4 Mn8 O16'
_cell_volume   313.45467952
_cell_formula_units_Z   4
loop_
 _symmetry_equiv_pos_site_id
 _symmetry_equiv_pos_as_xyz
  1  'x, y, z'
loop_
 _atom_site_type_symbol
 _atom_site_label
 _atom_site_symmetry_multiplicity
 _atom_site_fract_x
 _atom_site_fract_y
 _atom_site_fract_z
 _atom_site_occupancy
  Mg  Mg0  1  0.98555700  0.00701300  0.99039500  1
  Mg  Mg1  1  0.48279300  0.50197800  0.49648500  1
  Mg  Mg2  1  0.74601600  0.62387700  0.00032900  1
  Mg  Mg3  1  0.25013400  0.12670700  0.49736500  1
  Mn  Mn0  1  0.50016700  0.87926500  0.75511700  1
  Mn  Mn1  1  0.50111400  0.87405200  0.25041200  1
  Mn  Mn2  1  0.25269100  0.62037100  0.99998000  1
  Mn  Mn3  1  0.51519100  0.24441500  0.00527800  1
  Mn  Mn4  1  0.01655700  0.74558300  0.50565200  1
  Mn  Mn5  1  0.99991400  0.37169900  0.24790200  1
  Mn  Mn6  1  0.00104200  0.37509000  0.74956400  1
  Mn  Mn7  1  0.74848400  0.12852300  0.49964900  1
  O  O0  1  0.22912700  0.36778100  0.02605600  1
  O  O1  1  0.74806500  0.89990100  0.52547500  1
  O  O2  1  0.26164600  0.87886200  0.97865500  1
  O  O3  1  0.75566700  0.35904700  0.47065700  1
  O  O4  1  0.79264800  0.38038700  0.00915900  1
  O  O5  1  0.29268100  0.88585100  0.50470400  1
  O  O6  1  0.00525100  0.60193000  0.22757500  1
  O  O7  1  0.50986900  0.13485200  0.71266400  1
  O  O8  1  0.01062400  0.60170200  0.77516100  1
  O  O9  1  0.52387500  0.10468300  0.27859300  1
  O  O10  1  0.48646300  0.64501800  0.23370000  1
  O  O11  1  0.97836100  0.14623800  0.72131800  1
  O  O12  1  0.49035500  0.61724400  0.77999100  1
  O  O13  1  0.99092800  0.14031700  0.27019600  1
  O  O14  1  0.71648100  0.86857900  0.99880200  1
  O  O15  1  0.20830200  0.36903200  0.48916500  1
loop_
_geom_bond_atom_site_label_1
_geom_bond_atom_site_label_2
_geom_bond_distance
_geom_bond_site_symmetry_2
Mg0 O2 1.986821 1_645
Mg0 O14 2.015427 1_545
Mg0 O11 2.025237 1_555
Mg0 O13 2.047629 1_556
Mg1 O12 1.985727 1_555
Mg1 O10 2.012526 1_555
Mg1 O15 2.016966 1_555
Mg1 O3 2.045873 1_555
Mg2 O8 2.073759 1_654
Mg2 O12 2.073795 1_554
Mg2 O10 2.082659 1_555
Mg2 O14 2.104489 1_554
Mg2 O4 2.105596 1_555
Mg2 O6 2.124846 1_655
Mg3 O7 2.072905 1_555
Mg3 O5 2.079939 1_545
Mg3 O9 2.091194 1_555
Mg3 O15 2.092081 1_555
Mg3 O11 2.099816 1_455
Mg3 O13 2.119589 1_455
Mn0 O2 1.944309 1_555
Mn0 O5 1.999910 1_555
Mn0 O14 2.004853 1_555
Mn0 O1 2.018557 1_555
Mn0 O7 2.207713 1_565
Mn0 O12 2.252864 1_555
Mn1 O5 1.960179 1_555
Mn1 O10 1.969052 1_555
Mn1 O14 1.972111 1_554
Mn1 O9 1.990775 1_565
Mn1 O2 2.226928 1_554
Mn1 O1 2.284040 1_555
Mn2 O12 1.926143 1_555
Mn2 O6 2.006629 1_556
Mn2 O8 2.036672 1_555
Mn2 O10 2.043373 1_556
Mn2 O0 2.176936 1_556
Mn2 O2 2.221159 1_555
Mn3 O7 2.009872 1_554
Mn3 O0 2.016677 1_555
Mn3 O4 2.045655 1_555
Mn3 O9 2.049020 1_555
Mn4 O8 2.049264 1_555
Mn4 O5 2.059665 1_555
Mn4 O1 2.083414 1_455
Mn4 O6 2.091885 1_555
Mn5 O0 1.897543 1_655
Mn5 O4 1.944790 1_555
Mn5 O15 1.959932 1_655
Mn5 O3 1.969614 1_555
Mn5 O6 1.978416 1_655
Mn5 O13 1.989624 1_555
Mn6 O8 1.950491 1_555
Mn6 O11 1.975615 1_455
Mn6 O15 1.982812 1_555
Mn6 O4 1.983039 1_456
Mn6 O0 2.204249 1_556
Mn6 O3 2.288365 1_455
Mn7 O7 1.902709 1_555
Mn7 O9 1.948248 1_555
Mn7 O1 1.966648 1_545
Mn7 O11 1.968809 1_555
Mn7 O3 1.985164 1_555
Mn7 O13 1.988589 1_555
