# generated using pymatgen
data_Tm12Al7Si
_symmetry_space_group_name_H-M   'P 1'
_cell_length_a   11.02935380
_cell_length_b   11.02936466
_cell_length_c   11.02940691
_cell_angle_alpha   117.42211329
_cell_angle_beta   117.42197191
_cell_angle_gamma   94.52638086
_symmetry_Int_Tables_number   1
_chemical_formula_structural   Tm12Al7Si
_chemical_formula_sum   'Tm24 Al14 Si2'
_cell_volume   982.36988547
_cell_formula_units_Z   2
loop_
 _symmetry_equiv_pos_site_id
 _symmetry_equiv_pos_as_xyz
  1  'x, y, z'
loop_
 _atom_site_type_symbol
 _atom_site_label
 _atom_site_symmetry_multiplicity
 _atom_site_fract_x
 _atom_site_fract_y
 _atom_site_fract_z
 _atom_site_occupancy
  Tm  Tm0  1  0.14727759  0.64727657  0.50000129  1
  Tm  Tm1  1  0.85272415  0.35272340  0.49999945  1
  Tm  Tm2  1  0.64727666  0.14727663  0.49999994  1
  Tm  Tm3  1  0.35272351  0.85272322  0.49999873  1
  Tm  Tm4  1  0.83795422  0.70077241  0.26489616  1
  Tm  Tm5  1  0.16204749  0.29922792  0.73510404  1
  Tm  Tm6  1  0.43587678  0.57305722  0.73510416  1
  Tm  Tm7  1  0.70077258  0.43587589  0.86281877  1
  Tm  Tm8  1  0.06411844  0.79922438  0.13718598  1
  Tm  Tm9  1  0.56412453  0.42694311  0.26489611  1
  Tm  Tm10  1  0.29922883  0.56412437  0.13718106  1
  Tm  Tm11  1  0.93588161  0.20077513  0.86281363  1
  Tm  Tm12  1  0.57305828  0.83795368  0.13718160  1
  Tm  Tm13  1  0.66203779  0.92693148  0.86281322  1
  Tm  Tm14  1  0.42694329  0.16204629  0.86281833  1
  Tm  Tm15  1  0.33796182  0.07306846  0.13718665  1
  Tm  Tm16  1  0.92693212  0.06411806  0.26489350  1
  Tm  Tm17  1  0.07306822  0.93588154  0.73510642  1
  Tm  Tm18  1  0.79922406  0.66203778  0.73510572  1
  Tm  Tm19  1  0.20077568  0.33796194  0.26489387  1
  Tm  Tm20  1  0.17082477  0.67080746  0.84163298  1
  Tm  Tm21  1  0.82917624  0.32919168  0.15836689  1
  Tm  Tm22  1  0.67080828  0.82917505  0.49998298  1
  Tm  Tm23  1  0.32919181  0.17082453  0.50001557  1
  Al  Al0  1  0.61880461  0.11880265  0.73760688  1
  Al  Al1  1  0.38119341  0.88119228  0.26239839  1
  Al  Al2  1  0.11879174  0.38119898  0.49999006  1
  Al  Al3  1  0.88119725  0.61880451  0.50000116  1
  Al  Al4  1  0.50000045  0.50000047  0.99999989  1
  Al  Al5  1  0.00000041  0.00000003  0.00000082  1
  Al  Al6  1  0.38092896  0.88093406  0.85639529  1
  Al  Al7  1  0.61907113  0.11906716  0.14360689  1
  Al  Al8  1  0.02454282  0.52453700  0.14360907  1
  Al  Al9  1  0.88093464  0.02454175  0.50000581  1
  Al  Al10  1  0.47546373  0.61907139  0.50000469  1
  Al  Al11  1  0.97545911  0.47546330  0.85639259  1
  Al  Al12  1  0.11906717  0.97545986  0.49999593  1
  Al  Al13  1  0.52453573  0.38092901  0.49999461  1
  Si  Si0  1  0.75000399  0.75000331  -0.00000013  1
  Si  Si1  1  0.24999712  0.24999701  -0.00000002  1
loop_
_geom_bond_atom_site_label_1
_geom_bond_atom_site_label_2
_geom_bond_distance
_geom_bond_site_symmetry_2
Al0 Tm3 2.926701 1_545
Al0 Tm2 2.926711 1_555
Al0 Tm7 2.976055 1_555
Al0 Tm14 2.976056 1_555
Al0 Tm11 2.976106 1_555
Al0 Tm13 2.976121 1_545
Al0 Tm23 3.371002 1_555
Al0 Tm22 3.371125 1_545
Al0 Tm21 3.408518 1_556
Al1 Tm3 2.926599 1_555
Al1 Tm2 2.926743 1_565
Al1 Tm10 2.975987 1_555
Al1 Tm8 2.976071 1_555
Al1 Tm12 2.976134 1_555
Al1 Tm15 2.976216 1_565
Al1 Tm22 3.370954 1_555
Al1 Tm23 3.371111 1_565
Al1 Tm20 3.408562 1_554
Al2 Tm0 2.926616 1_555
Al2 Tm1 2.926616 1_455
Al2 Tm16 2.976112 1_455
Al2 Tm19 2.976115 1_555
Al2 Tm6 2.976142 1_555
Al2 Tm5 2.976156 1_555
Al2 Tm20 3.370983 1_555
Al2 Tm21 3.371008 1_455
Al2 Tm23 3.408623 1_555
Al3 Tm0 2.926701 1_655
Al3 Tm1 2.926704 1_555
Al3 Tm9 2.976052 1_555
Al3 Tm4 2.976068 1_555
Al3 Tm17 2.976108 1_655
Al3 Tm18 2.976126 1_555
Al3 Tm21 3.371001 1_555
Al3 Tm20 3.371141 1_655
Al3 Tm22 3.408501 1_555
Al4 Tm12 3.168672 1_556
Al4 Tm10 3.168673 1_556
Al4 Tm5 3.168673 1_555
Al4 Tm7 3.168678 1_555
Al4 Tm4 3.168679 1_556
Al4 Tm14 3.168683 1_555
Al4 Tm6 3.168683 1_555
Al4 Tm9 3.168692 1_556
Al5 Tm15 3.168741 1_555
Al5 Tm19 3.168745 1_555
Al5 Tm8 3.168747 1_545
Al5 Tm16 3.168748 1_455
Al5 Tm13 3.168750 1_444
Al5 Tm18 3.168751 1_444
Al5 Tm11 3.168757 1_454
Al5 Tm17 3.168761 1_544
Al6 Al7 2.723211 1_566
Al6 Tm0 3.004083 1_555
Al6 Tm20 3.037235 1_555
Al6 Tm13 3.064585 1_555
Al6 Tm14 3.064609 1_565
Al6 Tm15 3.125993 1_566
Al6 Tm12 3.126040 1_556
Al6 Tm17 3.251767 1_555
Al6 Tm6 3.251923 1_555
Al6 Tm3 3.657451 1_555
Al7 Tm1 3.004076 1_555
Al7 Tm21 3.037242 1_555
Al7 Tm15 3.064578 1_555
Al7 Tm12 3.064609 1_545
Al7 Tm13 3.126011 1_544
Al7 Tm14 3.126045 1_554
Al7 Tm16 3.251778 1_555
Al7 Tm9 3.251908 1_555
Al7 Tm2 3.657419 1_555
Al8 Tm0 3.004083 1_555
Al8 Tm21 3.037244 1_455
Al8 Tm8 3.064577 1_555
Al8 Tm10 3.064599 1_555
Al8 Tm11 3.126015 1_454
Al8 Tm7 3.126061 1_454
Al8 Tm19 3.251766 1_555
Al8 Tm4 3.251915 1_455
Al8 Tm3 3.657377 1_555
Al9 Tm2 3.004072 1_555
Al9 Tm22 3.037247 1_545
Al9 Tm16 3.064589 1_555
Al9 Tm5 3.064592 1_655
Al9 Tm17 3.126013 1_645
Al9 Tm4 3.126049 1_545
Al9 Tm11 3.251778 1_555
Al9 Tm12 3.251925 1_545
Al9 Tm1 3.657395 1_555
Al10 Al13 2.723217 1_555
Al10 Tm3 3.004068 1_555
Al10 Tm22 3.037245 1_555
Al10 Tm19 3.064571 1_555
Al10 Tm6 3.064611 1_555
Al10 Tm18 3.126005 1_555
Al10 Tm9 3.126051 1_555
Al10 Tm13 3.251770 1_555
Al10 Tm10 3.251933 1_555
Al10 Tm0 3.657387 1_555
Al11 Al8 2.723238 1_656
Al11 Tm1 3.004091 1_555
Al11 Tm20 3.037242 1_655
Al11 Tm11 3.064575 1_555
Al11 Tm7 3.064593 1_555
Al11 Tm8 3.126007 1_656
Al11 Tm10 3.126051 1_656
Al11 Tm18 3.251781 1_555
Al11 Tm5 3.251919 1_655
Al11 Tm2 3.657392 1_555
Al12 Al9 2.723215 1_465
Al12 Tm3 3.004072 1_555
Al12 Tm23 3.037243 1_565
Al12 Tm17 3.064590 1_555
Al12 Tm4 3.064598 1_455
Al12 Tm16 3.126015 1_465
Al12 Tm5 3.126035 1_565
Al12 Tm8 3.251790 1_555
Al12 Tm14 3.251915 1_565
Al12 Tm0 3.657409 1_555
Al13 Tm2 3.004076 1_555
Al13 Tm23 3.037241 1_555
Al13 Tm18 3.064569 1_555
Al13 Tm9 3.064610 1_555
Al13 Tm19 3.126000 1_555
Al13 Tm6 3.126043 1_555
Al13 Tm15 3.251769 1_555
Al13 Tm7 3.251939 1_555
Al13 Tm1 3.657406 1_555
Si0 Tm8 2.950416 1_655
Si0 Tm16 2.950420 1_565
Si0 Tm18 2.950427 1_554
Si0 Tm13 2.950429 1_554
Si0 Tm6 2.950538 1_554
Si0 Tm7 2.950538 1_554
Si0 Tm12 2.950541 1_555
Si0 Tm4 2.950552 1_555
Si1 Tm11 2.950426 1_454
Si1 Tm17 2.950426 1_544
Si1 Tm15 2.950431 1_555
Si1 Tm19 2.950436 1_555
Si1 Tm10 2.950537 1_555
Si1 Tm9 2.950540 1_555
Si1 Tm14 2.950546 1_554
Si1 Tm5 2.950549 1_554
