# generated using pymatgen
data_Nb4Cr7Si8
_symmetry_space_group_name_H-M   'P 1'
_cell_length_a   4.85469600
_cell_length_b   13.23100900
_cell_length_c   15.80994100
_cell_angle_alpha   90.00000000
_cell_angle_beta   90.00000000
_cell_angle_gamma   90.00000000
_symmetry_Int_Tables_number   1
_chemical_formula_structural   Nb4Cr7Si8
_chemical_formula_sum   'Nb16 Cr28 Si32'
_cell_volume   1015.51245374
_cell_formula_units_Z   4
loop_
 _symmetry_equiv_pos_site_id
 _symmetry_equiv_pos_as_xyz
  1  'x, y, z'
loop_
 _atom_site_type_symbol
 _atom_site_label
 _atom_site_symmetry_multiplicity
 _atom_site_fract_x
 _atom_site_fract_y
 _atom_site_fract_z
 _atom_site_occupancy
  Nb  Nb0  1  0.25000000  0.56452400  0.30464900  1
  Nb  Nb1  1  0.25000000  0.06452400  0.19535100  1
  Nb  Nb2  1  0.75000000  0.43547600  0.69535100  1
  Nb  Nb3  1  0.75000000  0.93547600  0.80464900  1
  Nb  Nb4  1  0.25000000  0.74720600  0.02672400  1
  Nb  Nb5  1  0.25000000  0.24720600  0.47327600  1
  Nb  Nb6  1  0.75000000  0.25279400  0.97327600  1
  Nb  Nb7  1  0.75000000  0.75279400  0.52672400  1
  Nb  Nb8  1  0.25000000  0.86603600  0.45788100  1
  Nb  Nb9  1  0.25000000  0.36603600  0.04211900  1
  Nb  Nb10  1  0.75000000  0.13396400  0.54211900  1
  Nb  Nb11  1  0.75000000  0.63396400  0.95788100  1
  Nb  Nb12  1  0.25000000  0.62109700  0.50546700  1
  Nb  Nb13  1  0.25000000  0.12109700  0.99453300  1
  Nb  Nb14  1  0.75000000  0.37890300  0.49453300  1
  Nb  Nb15  1  0.75000000  0.87890300  0.00546700  1
  Cr  Cr0  1  0.25000000  0.81242400  0.74961800  1
  Cr  Cr1  1  0.25000000  0.31242400  0.75038200  1
  Cr  Cr2  1  0.75000000  0.18757600  0.25038200  1
  Cr  Cr3  1  0.75000000  0.68757600  0.24961800  1
  Cr  Cr4  1  0.01134700  0.55910800  0.12289900  1
  Cr  Cr5  1  0.48865300  0.05910800  0.37710100  1
  Cr  Cr6  1  0.51134700  0.44089200  0.87710100  1
  Cr  Cr7  1  0.98865300  0.94089200  0.62289900  1
  Cr  Cr8  1  0.98865300  0.44089200  0.87710100  1
  Cr  Cr9  1  0.51134700  0.94089200  0.62289900  1
  Cr  Cr10  1  0.48865300  0.55910800  0.12289900  1
  Cr  Cr11  1  0.01134700  0.05910800  0.37710100  1
  Cr  Cr12  1  0.99008600  0.86374500  0.17601900  1
  Cr  Cr13  1  0.50991400  0.36374500  0.32398100  1
  Cr  Cr14  1  0.49008600  0.13625500  0.82398100  1
  Cr  Cr15  1  0.00991400  0.63625500  0.67601900  1
  Cr  Cr16  1  0.00991400  0.13625500  0.82398100  1
  Cr  Cr17  1  0.49008600  0.63625500  0.67601900  1
  Cr  Cr18  1  0.50991400  0.86374500  0.17601900  1
  Cr  Cr19  1  0.99008600  0.36374500  0.32398100  1
  Cr  Cr20  1  0.25000000  0.63460200  0.84450300  1
  Cr  Cr21  1  0.25000000  0.13460200  0.65549700  1
  Cr  Cr22  1  0.75000000  0.36539800  0.15549700  1
  Cr  Cr23  1  0.75000000  0.86539800  0.34450300  1
  Cr  Cr24  1  0.25000000  0.95245500  0.90467100  1
  Cr  Cr25  1  0.25000000  0.45245500  0.59532900  1
  Cr  Cr26  1  0.75000000  0.04754500  0.09532900  1
  Cr  Cr27  1  0.75000000  0.54754500  0.40467100  1
  Si  Si0  1  0.25000000  0.94468800  0.06194500  1
  Si  Si1  1  0.25000000  0.44468800  0.43805500  1
  Si  Si2  1  0.75000000  0.05531200  0.93805500  1
  Si  Si3  1  0.75000000  0.55531200  0.56194500  1
  Si  Si4  1  0.99716900  0.71491800  0.37821600  1
  Si  Si5  1  0.50283100  0.21491800  0.12178400  1
  Si  Si6  1  0.49716900  0.28508200  0.62178400  1
  Si  Si7  1  0.00283100  0.78508200  0.87821600  1
  Si  Si8  1  0.00283100  0.28508200  0.62178400  1
  Si  Si9  1  0.49716900  0.78508200  0.87821600  1
  Si  Si10  1  0.50283100  0.71491800  0.37821600  1
  Si  Si11  1  0.99716900  0.21491800  0.12178400  1
  Si  Si12  1  0.25000000  0.54942400  0.98163000  1
  Si  Si13  1  0.25000000  0.04942400  0.51837000  1
  Si  Si14  1  0.75000000  0.45057600  0.01837000  1
  Si  Si15  1  0.75000000  0.95057600  0.48163000  1
  Si  Si16  1  0.25000000  0.77882600  0.60494100  1
  Si  Si17  1  0.25000000  0.27882600  0.89505900  1
  Si  Si18  1  0.75000000  0.22117400  0.39505900  1
  Si  Si19  1  0.75000000  0.72117400  0.10494100  1
  Si  Si20  1  0.25000000  0.91039700  0.30180300  1
  Si  Si21  1  0.25000000  0.41039700  0.19819700  1
  Si  Si22  1  0.75000000  0.08960300  0.69819700  1
  Si  Si23  1  0.75000000  0.58960300  0.80180300  1
  Si  Si24  1  0.25000000  0.99610400  0.75207000  1
  Si  Si25  1  0.25000000  0.49610400  0.74793000  1
  Si  Si26  1  0.75000000  0.00389600  0.24793000  1
  Si  Si27  1  0.75000000  0.50389600  0.25207000  1
  Si  Si28  1  0.25000000  0.70856900  0.19467000  1
  Si  Si29  1  0.25000000  0.20856900  0.30533000  1
  Si  Si30  1  0.75000000  0.29143100  0.80533000  1
  Si  Si31  1  0.75000000  0.79143100  0.69467000  1
loop_
_geom_bond_atom_site_label_1
_geom_bond_atom_site_label_2
_geom_bond_distance
_geom_bond_site_symmetry_2
Nb0 Si28 2.579844 1_555
Nb0 Si4 2.611301 1_455
Nb0 Si10 2.611301 1_555
Nb0 Si1 2.638645 1_555
Nb0 Si21 2.644060 1_555
Nb0 Si27 2.688216 1_555
Nb0 Si27 2.688216 1_455
Nb1 Si29 2.579844 1_555
Nb1 Si11 2.611301 1_455
Nb1 Si5 2.611301 1_555
Nb1 Si0 2.638645 1_545
Nb1 Si20 2.644060 1_545
Nb1 Si26 2.688216 1_555
Nb1 Si26 2.688216 1_455
Nb2 Si30 2.579844 1_555
Nb2 Si8 2.611301 1_655
Nb2 Si6 2.611301 1_555
Nb2 Si3 2.638645 1_555
Nb2 Si23 2.644060 1_555
Nb2 Si25 2.688216 1_555
Nb2 Si25 2.688216 1_655
Nb3 Si31 2.579844 1_555
Nb3 Si7 2.611301 1_655
Nb3 Si9 2.611301 1_555
Nb3 Si2 2.638645 1_565
Nb3 Si22 2.644060 1_565
Nb3 Si24 2.688216 1_655
Nb3 Si24 2.688216 1_555
Nb4 Si0 2.671563 1_555
Nb4 Si9 2.683956 1_554
Nb4 Si7 2.683956 1_554
Nb4 Si28 2.703980 1_555
Nb4 Si12 2.712233 1_554
Nb4 Si19 2.745878 1_555
Nb4 Si19 2.745878 1_455
Nb5 Si1 2.671563 1_555
Nb5 Si6 2.683956 1_555
Nb5 Si8 2.683956 1_555
Nb5 Si29 2.703980 1_555
Nb5 Si13 2.712233 1_555
Nb5 Si18 2.745878 1_555
Nb5 Si18 2.745878 1_455
Nb6 Si2 2.671563 1_555
Nb6 Si11 2.683956 1_556
Nb6 Si5 2.683956 1_556
Nb6 Si30 2.703980 1_555
Nb6 Si14 2.712233 1_556
Nb6 Si17 2.745878 1_555
Nb6 Si17 2.745878 1_655
Nb7 Si3 2.671563 1_555
Nb7 Si10 2.683956 1_555
Nb7 Si4 2.683956 1_555
Nb7 Si31 2.703980 1_555
Nb7 Si15 2.712233 1_555
Nb7 Si16 2.745878 1_655
Nb7 Si16 2.745878 1_555
Nb8 Si20 2.536429 1_555
Nb8 Si16 2.595593 1_555
Nb8 Si13 2.608068 1_565
Nb8 Si4 2.662831 1_455
Nb8 Si10 2.662831 1_555
Nb8 Si15 2.698916 1_555
Nb8 Si15 2.698916 1_455
Nb9 Si21 2.536429 1_555
Nb9 Si17 2.595593 1_554
Nb9 Si12 2.608068 1_554
Nb9 Si5 2.662831 1_555
Nb9 Si11 2.662831 1_455
Nb9 Si14 2.698916 1_455
Nb9 Si14 2.698916 1_555
Nb10 Si22 2.536429 1_555
Nb10 Si18 2.595593 1_555
Nb10 Si15 2.608068 1_545
Nb10 Si8 2.662831 1_655
Nb10 Si6 2.662831 1_555
Nb10 Si13 2.698916 1_555
Nb10 Si13 2.698916 1_655
Nb11 Si23 2.536429 1_555
Nb11 Si19 2.595593 1_556
Nb11 Si14 2.608068 1_556
Nb11 Si7 2.662831 1_655
Nb11 Si9 2.662831 1_555
Nb11 Si12 2.698916 1_555
Nb11 Si12 2.698916 1_655
Nb12 Si1 2.565885 1_555
Nb12 Si16 2.613145 1_555
Nb12 Si4 2.663636 1_455
Nb12 Si10 2.663636 1_555
Nb12 Si3 2.728903 1_455
Nb12 Si3 2.728903 1_555
Nb13 Si0 2.565885 1_546
Nb13 Si17 2.613145 1_555
Nb13 Si5 2.663636 1_556
Nb13 Si11 2.663636 1_456
Nb13 Si2 2.728903 1_455
Nb13 Si2 2.728903 1_555
Nb14 Si3 2.565885 1_555
Nb14 Si18 2.613145 1_555
Nb14 Si8 2.663636 1_655
Nb14 Si6 2.663636 1_555
Nb14 Si1 2.728903 1_655
Nb14 Si1 2.728903 1_555
Nb15 Si2 2.565885 1_564
Nb15 Si19 2.613145 1_555
Nb15 Si7 2.663636 1_654
Nb15 Si9 2.663636 1_554
Nb15 Si0 2.728903 1_555
Nb15 Si0 2.728903 1_655
Cr0 Si16 2.330131 1_555
Cr0 Si9 2.388370 1_555
Cr0 Si7 2.388370 1_555
Cr0 Si24 2.430581 1_555
Cr0 Si31 2.593039 1_555
Cr0 Si31 2.593039 1_455
Cr0 Cr17 2.854035 1_555
Cr0 Cr15 2.854035 1_555
Cr1 Si17 2.330131 1_555
Cr1 Si6 2.388370 1_555
Cr1 Si8 2.388370 1_555
Cr1 Si25 2.430581 1_555
Cr1 Si30 2.593039 1_455
Cr1 Si30 2.593039 1_555
Cr1 Cr14 2.854035 1_555
Cr1 Cr16 2.854035 1_555
Cr2 Si18 2.330131 1_555
Cr2 Si11 2.388370 1_555
Cr2 Si5 2.388370 1_555
Cr2 Si26 2.430581 1_555
Cr2 Si29 2.593039 1_655
Cr2 Si29 2.593039 1_555
Cr3 Si19 2.330131 1_555
Cr3 Si4 2.388370 1_555
Cr3 Si10 2.388370 1_555
Cr3 Si27 2.430581 1_555
Cr3 Si28 2.593039 1_655
Cr3 Si28 2.593039 1_555
Cr4 Si19 2.507662 1_455
Cr4 Si27 2.512752 1_455
Cr4 Si12 2.519338 1_554
Cr4 Si14 2.530394 1_455
Cr4 Si28 2.557429 1_555
Cr4 Si21 2.575063 1_555
Cr5 Si18 2.507662 1_555
Cr5 Si26 2.512752 1_555
Cr5 Si13 2.519338 1_555
Cr5 Si15 2.530394 1_545
Cr5 Si29 2.557429 1_555
Cr5 Si20 2.575063 1_545
Cr6 Cr8 2.317176 1_555
Cr6 Si17 2.507662 1_555
Cr6 Si25 2.512752 1_555
Cr6 Si14 2.519338 1_556
Cr6 Si12 2.530394 1_555
Cr6 Cr8 2.537520 1_455
Cr6 Si30 2.557429 1_555
Cr6 Si23 2.575063 1_555
Cr7 Cr9 2.317176 1_555
Cr7 Si16 2.507662 1_655
Cr7 Si24 2.512752 1_655
Cr7 Si15 2.519338 1_555
Cr7 Si13 2.530394 1_665
Cr7 Cr9 2.537520 1_655
Cr7 Si31 2.557429 1_555
Cr7 Si22 2.575063 1_565
Cr8 Si17 2.507662 1_655
Cr8 Si25 2.512752 1_655
Cr8 Si14 2.519338 1_556
Cr8 Si12 2.530394 1_655
Cr8 Si30 2.557429 1_555
Cr8 Si23 2.575063 1_555
Cr9 Si16 2.507662 1_555
Cr9 Si24 2.512752 1_555
Cr9 Si15 2.519338 1_555
Cr9 Si13 2.530394 1_565
Cr9 Si31 2.557429 1_555
Cr9 Si22 2.575063 1_565
Cr10 Cr4 2.317176 1_555
Cr10 Si19 2.507662 1_555
Cr10 Si27 2.512752 1_555
Cr10 Si12 2.519338 1_554
Cr10 Si14 2.530394 1_555
Cr10 Cr4 2.537520 1_655
Cr10 Si28 2.557429 1_555
Cr10 Si21 2.575063 1_555
Cr11 Cr5 2.317176 1_555
Cr11 Si18 2.507662 1_455
Cr11 Si26 2.512752 1_455
Cr11 Si13 2.519338 1_555
Cr11 Si15 2.530394 1_445
Cr11 Cr5 2.537520 1_455
Cr11 Si29 2.557429 1_555
Cr11 Si20 2.575063 1_545
Cr12 Cr18 2.331089 1_555
Cr12 Si28 2.427851 1_655
Cr12 Si20 2.434713 1_655
Cr12 Si0 2.447799 1_655
Cr12 Si26 2.467717 1_565
Cr12 Si19 2.485886 1_555
Cr12 Cr18 2.523607 1_655
Cr12 Cr3 2.854035 1_555
Cr12 Cr23 2.907643 1_555
Cr12 Nb15 2.944381 1_555
Cr12 Nb1 2.956789 1_665
Cr12 Cr26 2.983263 1_565
Cr12 Nb4 3.088838 1_655
Cr13 Cr19 2.331089 1_555
Cr13 Si29 2.427851 1_555
Cr13 Si21 2.434713 1_555
Cr13 Si1 2.447799 1_555
Cr13 Si27 2.467717 1_555
Cr13 Si18 2.485886 1_555
Cr13 Cr19 2.523607 1_455
Cr13 Cr2 2.854035 1_555
Cr13 Cr22 2.907643 1_555
Cr13 Nb14 2.944381 1_555
Cr13 Nb0 2.956789 1_555
Cr13 Cr27 2.983263 1_555
Cr13 Nb5 3.088838 1_555
Cr14 Cr16 2.331089 1_555
Cr14 Si30 2.427851 1_555
Cr14 Si22 2.434713 1_555
Cr14 Si2 2.447799 1_555
Cr14 Si24 2.467717 1_545
Cr14 Si17 2.485886 1_555
Cr14 Cr16 2.523607 1_655
Cr14 Cr21 2.907643 1_555
Cr14 Nb13 2.944381 1_555
Cr14 Nb3 2.956789 1_545
Cr14 Cr24 2.983263 1_545
Cr14 Nb6 3.088838 1_555
Cr15 Cr17 2.331089 1_555
Cr15 Si31 2.427851 1_455
Cr15 Si23 2.434713 1_455
Cr15 Si3 2.447799 1_455
Cr15 Si25 2.467717 1_555
Cr15 Si16 2.485886 1_555
Cr15 Cr17 2.523607 1_455
Cr15 Cr20 2.907643 1_555
Cr15 Nb12 2.944381 1_555
Cr15 Nb2 2.956789 1_455
Cr15 Cr25 2.983263 1_555
Cr15 Nb7 3.088838 1_455
Cr16 Si30 2.427851 1_455
Cr16 Si22 2.434713 1_455
Cr16 Si2 2.447799 1_455
Cr16 Si24 2.467717 1_545
Cr16 Si17 2.485886 1_555
Cr16 Cr21 2.907643 1_555
Cr16 Nb13 2.944381 1_555
Cr16 Nb3 2.956789 1_445
Cr16 Cr24 2.983263 1_545
Cr16 Nb6 3.088838 1_455
Cr17 Si31 2.427851 1_555
Cr17 Si23 2.434713 1_555
Cr17 Si3 2.447799 1_555
Cr17 Si25 2.467717 1_555
Cr17 Si16 2.485886 1_555
Cr17 Cr20 2.907643 1_555
Cr17 Nb12 2.944381 1_555
Cr17 Nb2 2.956789 1_555
Cr17 Cr25 2.983263 1_555
Cr17 Nb7 3.088838 1_555
Cr18 Si28 2.427851 1_555
Cr18 Si20 2.434713 1_555
Cr18 Si0 2.447799 1_555
Cr18 Si26 2.467717 1_565
Cr18 Si19 2.485886 1_555
Cr18 Cr3 2.854035 1_555
Cr18 Cr23 2.907643 1_555
Cr18 Nb15 2.944381 1_555
Cr18 Nb1 2.956789 1_565
Cr18 Cr26 2.983263 1_565
Cr18 Nb4 3.088838 1_555
Cr19 Si29 2.427851 1_655
Cr19 Si21 2.434713 1_655
Cr19 Si1 2.447799 1_655
Cr19 Si27 2.467717 1_555
Cr19 Si18 2.485886 1_555
Cr19 Cr2 2.854035 1_555
Cr19 Cr22 2.907643 1_555
Cr19 Nb14 2.944381 1_555
Cr19 Nb0 2.956789 1_655
Cr19 Cr27 2.983263 1_555
Cr19 Nb5 3.088838 1_655
Cr20 Si9 2.384955 1_555
Cr20 Si7 2.384955 1_555
Cr20 Si25 2.385183 1_555
Cr20 Si12 2.443400 1_555
Cr20 Si23 2.588868 1_455
Cr20 Si23 2.588868 1_555
Cr21 Si6 2.384955 1_555
Cr21 Si8 2.384955 1_555
Cr21 Si24 2.385183 1_545
Cr21 Si13 2.443400 1_555
Cr21 Si22 2.588868 1_455
Cr21 Si22 2.588868 1_555
Cr22 Si5 2.384955 1_555
Cr22 Si11 2.384955 1_555
Cr22 Si27 2.385183 1_555
Cr22 Si14 2.443400 1_555
Cr22 Si21 2.588868 1_655
Cr22 Si21 2.588868 1_555
Cr23 Si4 2.384955 1_555
Cr23 Si10 2.384955 1_555
Cr23 Si26 2.385183 1_565
Cr23 Si15 2.443400 1_555
Cr23 Si20 2.588868 1_655
Cr23 Si20 2.588868 1_555
Cr24 Si24 2.480772 1_555
Cr24 Si0 2.488615 1_556
Cr24 Si9 2.553202 1_555
Cr24 Si7 2.553202 1_555
Cr24 Nb13 2.645211 1_565
Cr24 Si2 2.832427 1_565
Cr24 Si2 2.832427 1_465
Cr25 Si25 2.480772 1_555
Cr25 Si1 2.488615 1_555
Cr25 Si6 2.553202 1_555
Cr25 Si8 2.553202 1_555
Cr25 Nb12 2.645211 1_555
Cr25 Si3 2.832427 1_555
Cr25 Si3 2.832427 1_455
Cr26 Si26 2.480772 1_555
Cr26 Si2 2.488615 1_554
Cr26 Si5 2.553202 1_555
Cr26 Si11 2.553202 1_555
Cr26 Nb15 2.645211 1_545
Cr26 Si0 2.832427 1_545
Cr26 Si0 2.832427 1_645
Cr27 Si27 2.480772 1_555
Cr27 Si3 2.488615 1_555
Cr27 Si4 2.553202 1_555
Cr27 Si10 2.553202 1_555
Cr27 Nb14 2.645211 1_555
Cr27 Si1 2.832427 1_655
Cr27 Si1 2.832427 1_555
Si6 Si8 2.399861 1_555
Si6 Si8 2.454835 1_655
Si7 Si9 2.399861 1_555
Si7 Si9 2.454835 1_455
Si10 Si4 2.399861 1_555
Si10 Si4 2.454835 1_455
Si11 Si5 2.399861 1_555
Si11 Si5 2.454835 1_655
