# generated using pymatgen
data_Gd(Ni2B)6
_symmetry_space_group_name_H-M   'P 1'
_cell_length_a   6.02248918
_cell_length_b   6.02248918
_cell_length_c   6.02248930
_cell_angle_alpha   104.41718854
_cell_angle_beta   104.41718854
_cell_angle_gamma   104.41719989
_symmetry_Int_Tables_number   1
_chemical_formula_structural   Gd(Ni2B)6
_chemical_formula_sum   'Gd1 Ni12 B6'
_cell_volume   193.30917759
_cell_formula_units_Z   1
loop_
 _symmetry_equiv_pos_site_id
 _symmetry_equiv_pos_as_xyz
  1  'x, y, z'
loop_
 _atom_site_type_symbol
 _atom_site_label
 _atom_site_symmetry_multiplicity
 _atom_site_fract_x
 _atom_site_fract_y
 _atom_site_fract_z
 _atom_site_occupancy
  Gd  Gd0  1  0.00000000  0.00000000  0.00000000  1
  Ni  Ni0  1  0.86876200  0.13123800  0.50000000  1
  Ni  Ni1  1  0.13123800  0.50000000  0.86876200  1
  Ni  Ni2  1  0.50000000  0.86876200  0.13123800  1
  Ni  Ni3  1  0.86876200  0.50000000  0.13123800  1
  Ni  Ni4  1  0.50000000  0.13123800  0.86876200  1
  Ni  Ni5  1  0.13123800  0.86876200  0.50000000  1
  Ni  Ni6  1  0.81223600  0.54690500  0.54690500  1
  Ni  Ni7  1  0.54690500  0.54690500  0.81223600  1
  Ni  Ni8  1  0.54690500  0.81223600  0.54690500  1
  Ni  Ni9  1  0.18776400  0.45309500  0.45309500  1
  Ni  Ni10  1  0.45309500  0.45309500  0.18776400  1
  Ni  Ni11  1  0.45309500  0.18776400  0.45309500  1
  B  B0  1  0.33311000  0.76610700  0.76610700  1
  B  B1  1  0.76610700  0.76610700  0.33311000  1
  B  B2  1  0.76610700  0.33311000  0.76610700  1
  B  B3  1  0.66689000  0.23389300  0.23389300  1
  B  B4  1  0.23389300  0.23389300  0.66689000  1
  B  B5  1  0.23389300  0.66689000  0.23389300  1
loop_
_geom_bond_atom_site_label_1
_geom_bond_atom_site_label_2
_geom_bond_distance
_geom_bond_site_symmetry_2
Gd0 Ni10 3.064308 1_555
Gd0 Ni7 3.064308 1_444
Gd0 Ni8 3.064308 1_444
Gd0 Ni6 3.064308 1_444
Gd0 Ni9 3.064308 1_555
Gd0 Ni11 3.064308 1_555
Gd0 Ni3 3.260072 1_445
Gd0 Ni4 3.260072 1_554
Gd0 Ni2 3.260072 1_445
Gd0 Ni1 3.260072 1_554
Gd0 Ni0 3.260072 1_454
Gd0 Ni5 3.260072 1_545
Gd0 Ni5 3.260072 1_544
Gd0 Ni0 3.260072 1_455
Gd0 Ni2 3.260072 1_545
Gd0 Ni3 3.260072 1_455
Gd0 Ni4 3.260072 1_454
Gd0 Ni1 3.260072 1_544
B0 Ni4 2.034950 1_565
B0 Ni2 2.034950 1_556
B0 Ni1 2.079942 1_555
B0 Ni5 2.079942 1_555
B0 Ni8 2.080563 1_555
B0 Ni7 2.080563 1_555
B0 Ni9 2.112001 1_555
B0 Gd0 3.133588 1_566
B1 Ni0 2.034950 1_565
B1 Ni5 2.034950 1_655
B1 Ni2 2.079942 1_555
B1 Ni3 2.079942 1_555
B1 Ni8 2.080563 1_555
B1 Ni6 2.080563 1_555
B1 Ni10 2.112001 1_555
B1 Gd0 3.133588 1_665
B2 Ni1 2.034950 1_655
B2 Ni3 2.034950 1_556
B2 Ni4 2.079942 1_555
B2 Ni0 2.079942 1_555
B2 Ni6 2.080563 1_555
B2 Ni7 2.080563 1_555
B2 Ni11 2.112001 1_555
B2 Gd0 3.133588 1_656
B3 Ni2 2.034950 1_545
B3 Ni4 2.034950 1_554
B3 Ni3 2.079942 1_555
B3 Ni0 2.079942 1_555
B3 Ni11 2.080563 1_555
B3 Ni10 2.080563 1_555
B3 Ni6 2.112001 1_555
B3 Gd0 3.133588 1_655
B4 Ni0 2.034950 1_455
B4 Ni5 2.034950 1_545
B4 Ni4 2.079942 1_555
B4 Ni1 2.079942 1_555
B4 Ni11 2.080563 1_555
B4 Ni9 2.080563 1_555
B4 Ni7 2.112001 1_555
B4 Gd0 3.133588 1_556
B5 Ni3 2.034950 1_455
B5 Ni1 2.034950 1_554
B5 Ni2 2.079942 1_555
B5 Ni5 2.079942 1_555
B5 Ni9 2.080563 1_555
B5 Ni10 2.080563 1_555
B5 Ni8 2.112001 1_555
B5 Gd0 3.133588 1_565
