# generated using pymatgen
data_SrGd2(FeO3)3
_symmetry_space_group_name_H-M   'P 1'
_cell_length_a   5.51478397
_cell_length_b   5.51478397
_cell_length_c   6.72895500
_cell_angle_alpha   90.00000000
_cell_angle_beta   90.00000000
_cell_angle_gamma   119.99999958
_symmetry_Int_Tables_number   1
_chemical_formula_structural   SrGd2(FeO3)3
_chemical_formula_sum   'Sr1 Gd2 Fe3 O9'
_cell_volume   177.22919538
_cell_formula_units_Z   1
loop_
 _symmetry_equiv_pos_site_id
 _symmetry_equiv_pos_as_xyz
  1  'x, y, z'
loop_
 _atom_site_type_symbol
 _atom_site_label
 _atom_site_symmetry_multiplicity
 _atom_site_fract_x
 _atom_site_fract_y
 _atom_site_fract_z
 _atom_site_occupancy
  Sr  Sr0  1  0.00000000  0.00000000  0.50000000  1
  Gd  Gd0  1  0.66666700  0.33333300  0.85090600  1
  Gd  Gd1  1  0.33333300  0.66666700  0.14909400  1
  Fe  Fe0  1  0.66666700  0.33333300  0.33858200  1
  Fe  Fe1  1  0.33333300  0.66666700  0.66141800  1
  Fe  Fe2  1  0.00000000  0.00000000  0.00000000  1
  O  O0  1  0.82726000  0.17274000  0.15438900  1
  O  O1  1  0.50000000  0.50000000  0.50000000  1
  O  O2  1  0.17274000  0.82726000  0.84561100  1
  O  O3  1  0.00000000  0.50000000  0.50000000  1
  O  O4  1  0.65452000  0.82726000  0.84561100  1
  O  O5  1  0.34548000  0.17274000  0.15438900  1
  O  O6  1  0.82726000  0.65452000  0.15438900  1
  O  O7  1  0.50000000  0.00000000  0.50000000  1
  O  O8  1  0.17274000  0.34548000  0.84561100  1
loop_
_geom_bond_atom_site_label_1
_geom_bond_atom_site_label_2
_geom_bond_distance
_geom_bond_site_symmetry_2
Gd0 O0 2.554079 1_556
Gd0 O5 2.554082 1_556
Gd0 O6 2.554082 1_556
Gd0 O4 2.758230 1_545
Gd0 O8 2.758230 1_655
Gd0 O2 2.758232 1_545
Gd0 O2 2.758232 1_655
Gd0 O4 2.758235 1_555
Gd0 O8 2.758235 1_555
Gd0 O3 2.847773 1_655
Gd0 O7 2.847773 1_555
Gd0 O1 2.847775 1_555
Gd1 O2 2.554079 1_554
Gd1 O8 2.554082 1_554
Gd1 O4 2.554082 1_554
Gd1 O6 2.758230 1_455
Gd1 O5 2.758230 1_565
Gd1 O0 2.758232 1_455
Gd1 O0 2.758232 1_565
Gd1 O6 2.758235 1_555
Gd1 O5 2.758235 1_555
Gd1 O7 2.847773 1_565
Gd1 O3 2.847773 1_555
Gd1 O1 2.847775 1_555
Fe0 O3 1.927219 1_655
Fe0 O7 1.927219 1_555
Fe0 O1 1.927223 1_555
Fe0 O0 1.972113 1_555
Fe0 O5 1.972117 1_555
Fe0 O6 1.972117 1_555
Fe1 O7 1.927219 1_565
Fe1 O3 1.927219 1_555
Fe1 O1 1.927223 1_555
Fe1 O2 1.972113 1_555
Fe1 O8 1.972117 1_555
Fe1 O4 1.972117 1_555
Fe2 O0 1.949805 1_455
Fe2 O2 1.949805 1_544
Fe2 O4 1.949805 1_444
Fe2 O6 1.949805 1_445
Fe2 O5 1.949805 1_555
Fe2 O8 1.949805 1_554
O0 Sr0 2.851473 1_655
O1 Sr0 2.757392 1_555
O1 Sr0 2.757392 1_665
O2 Sr0 2.851473 1_565
O3 Sr0 2.757392 1_555
O3 Sr0 2.757392 1_565
O4 Sr0 2.851473 1_665
O5 Sr0 2.851473 1_555
O6 Sr0 2.851473 1_665
O7 Sr0 2.757392 1_655
O7 Sr0 2.757392 1_555
O8 Sr0 2.851473 1_555
