# generated using pymatgen
data_Nd(GeIr)2
_symmetry_space_group_name_H-M   'P 1'
_cell_length_a   4.26672632
_cell_length_b   4.26672632
_cell_length_c   10.05425804
_cell_angle_alpha   90.00000000
_cell_angle_beta   90.00000000
_cell_angle_gamma   90.00000000
_symmetry_Int_Tables_number   1
_chemical_formula_structural   Nd(GeIr)2
_chemical_formula_sum   'Nd2 Ge4 Ir4'
_cell_volume   183.03729999
_cell_formula_units_Z   2
loop_
 _symmetry_equiv_pos_site_id
 _symmetry_equiv_pos_as_xyz
  1  'x, y, z'
loop_
 _atom_site_type_symbol
 _atom_site_label
 _atom_site_symmetry_multiplicity
 _atom_site_fract_x
 _atom_site_fract_y
 _atom_site_fract_z
 _atom_site_occupancy
  Nd  Nd0  1  0.00000000  0.50000000  0.25566320  1
  Nd  Nd1  1  0.50000000  0.00000000  0.74433680  1
  Ge  Ge0  1  0.00000000  0.00000000  0.50000000  1
  Ge  Ge1  1  0.50000000  0.50000000  0.50000000  1
  Ge  Ge2  1  0.00000000  0.50000000  0.86902052  1
  Ge  Ge3  1  0.50000000  -0.00000000  0.13097948  1
  Ir  Ir0  1  -0.00000000  -0.00000000  -0.00000000  1
  Ir  Ir1  1  0.50000000  0.50000000  -0.00000000  1
  Ir  Ir2  1  -0.00000000  0.50000000  0.62674760  1
  Ir  Ir3  1  0.50000000  0.00000000  0.37325240  1
loop_
_geom_bond_atom_site_label_1
_geom_bond_atom_site_label_2
_geom_bond_distance
_geom_bond_site_symmetry_2
Ge0 Ir2 2.484998 1_555
Ge0 Ir2 2.484998 1_545
Ge0 Ir3 2.484998 1_555
Ge0 Ir3 2.484998 1_455
Ge0 Nd1 3.253651 1_555
Ge0 Nd1 3.253651 1_455
Ge0 Nd0 3.253651 1_555
Ge0 Nd0 3.253651 1_545
Ge1 Ir2 2.484998 1_555
Ge1 Ir2 2.484998 1_655
Ge1 Ir3 2.484998 1_555
Ge1 Ir3 2.484998 1_565
Ge1 Nd1 3.253651 1_555
Ge1 Nd0 3.253651 1_655
Ge1 Nd1 3.253651 1_565
Ge1 Nd0 3.253651 1_555
Ge2 Ir2 2.435874 1_555
Ge2 Ir1 2.507084 1_456
Ge2 Ir1 2.507084 1_556
Ge2 Ir0 2.507084 1_556
Ge2 Ir0 2.507084 1_566
Ge2 Nd1 3.267108 1_455
Ge2 Nd1 3.267108 1_565
Ge2 Nd1 3.267108 1_555
Ge2 Nd1 3.267108 1_465
Ge3 Ir3 2.435874 1_555
Ge3 Ir0 2.507084 1_555
Ge3 Ir1 2.507084 1_545
Ge3 Ir1 2.507084 1_555
Ge3 Ir0 2.507084 1_655
Ge3 Nd0 3.267108 1_645
Ge3 Nd0 3.267108 1_555
Ge3 Nd0 3.267108 1_545
Ge3 Nd0 3.267108 1_655
Ir0 Nd1 3.340468 1_554
Ir0 Nd0 3.340468 1_555
Ir0 Nd0 3.340468 1_545
Ir0 Nd1 3.340468 1_454
Ir1 Nd1 3.340468 1_564
Ir1 Nd1 3.340468 1_554
Ir1 Nd0 3.340468 1_555
Ir1 Nd0 3.340468 1_655
Ir2 Nd1 3.240408 1_555
Ir2 Nd1 3.240408 1_465
Ir2 Nd1 3.240408 1_455
Ir2 Nd1 3.240408 1_565
Ir3 Nd0 3.240408 1_655
Ir3 Nd0 3.240408 1_555
Ir3 Nd0 3.240408 1_645
Ir3 Nd0 3.240408 1_545
