# generated using pymatgen
data_Sr2CuSe2(ClO3)2
_symmetry_space_group_name_H-M   'P 1'
_cell_length_a   6.61791800
_cell_length_b   5.26864600
_cell_length_c   13.52829680
_cell_angle_alpha   68.53860658
_cell_angle_beta   90.00000000
_cell_angle_gamma   90.00000000
_symmetry_Int_Tables_number   1
_chemical_formula_structural   Sr2CuSe2(ClO3)2
_chemical_formula_sum   'Sr4 Cu2 Se4 Cl4 O12'
_cell_volume   438.99197688
_cell_formula_units_Z   2
loop_
 _symmetry_equiv_pos_site_id
 _symmetry_equiv_pos_as_xyz
  1  'x, y, z'
loop_
 _atom_site_type_symbol
 _atom_site_label
 _atom_site_symmetry_multiplicity
 _atom_site_fract_x
 _atom_site_fract_y
 _atom_site_fract_z
 _atom_site_occupancy
  Sr  Sr0  1  0.78268200  0.78118600  0.73192700  1
  Sr  Sr1  1  0.71731800  0.78118600  0.23192700  1
  Sr  Sr2  1  0.21731800  0.21881400  0.26807300  1
  Sr  Sr3  1  0.28268200  0.21881400  0.76807300  1
  Cu  Cu0  1  0.00000000  0.50000000  0.50000000  1
  Cu  Cu1  1  0.50000000  0.50000000  0.00000000  1
  Se  Se0  1  0.25418200  0.92213700  0.57345300  1
  Se  Se1  1  0.24581800  0.92213700  0.07345300  1
  Se  Se2  1  0.74581800  0.07786300  0.42654700  1
  Se  Se3  1  0.75418200  0.07786300  0.92654700  1
  Cl  Cl0  1  0.64384200  0.41744000  0.61493600  1
  Cl  Cl1  1  0.85615800  0.41744000  0.11493600  1
  Cl  Cl2  1  0.35615800  0.58256000  0.38506400  1
  Cl  Cl3  1  0.14384200  0.58256000  0.88506400  1
  O  O0  1  0.07046100  0.12408800  0.60417700  1
  O  O1  1  0.42953900  0.12408800  0.10417700  1
  O  O2  1  0.92953900  0.87591200  0.39582300  1
  O  O3  1  0.57046100  0.87591200  0.89582300  1
  O  O4  1  0.40580900  0.85758500  0.68077700  1
  O  O5  1  0.09419100  0.85758500  0.18077700  1
  O  O6  1  0.59419100  0.14241500  0.31922300  1
  O  O7  1  0.90580900  0.14241500  0.81922300  1
  O  O8  1  0.10922400  0.62197000  0.61361500  1
  O  O9  1  0.39077600  0.62197000  0.11361500  1
  O  O10  1  0.89077600  0.37803000  0.38638500  1
  O  O11  1  0.60922400  0.37803000  0.88638500  1
loop_
_geom_bond_atom_site_label_1
_geom_bond_atom_site_label_2
_geom_bond_distance
_geom_bond_site_symmetry_2
Cu0 O10 2.005150 1_455
Cu0 O8 2.005150 1_555
Cu0 O2 2.020827 1_455
Cu0 O0 2.020827 1_555
Cu1 O11 2.005150 1_554
Cu1 O9 2.005150 1_555
Cu1 O1 2.020827 1_555
Cu1 O3 2.020827 1_554
Cl0 Cu0 2.769031 1_655
Cl0 Sr0 3.039972 1_555
Cl0 Sr3 3.084363 1_555
Cl0 Sr0 3.271712 1_545
Cl1 Cu1 2.769031 1_555
Cl1 Sr1 3.039972 1_555
Cl1 Sr2 3.084363 1_655
Cl1 Sr1 3.271712 1_545
Cl2 Cu0 2.769031 1_555
Cl2 Sr2 3.039972 1_555
Cl2 Sr1 3.084363 1_555
Cl2 Sr2 3.271712 1_565
Cl3 Cu1 2.769031 1_556
Cl3 Sr3 3.039972 1_555
Cl3 Sr0 3.084363 1_455
Cl3 Sr3 3.271712 1_565
O0 Se0 1.762606 1_545
O0 Sr0 2.755559 1_445
O0 Sr3 2.819122 1_555
O1 Se1 1.762606 1_545
O1 Sr1 2.755559 1_545
O1 Sr2 2.819122 1_555
O2 Se2 1.762606 1_565
O2 Sr2 2.755559 1_665
O2 Sr1 2.819122 1_555
O3 Se3 1.762606 1_565
O3 Sr3 2.755559 1_565
O3 Sr0 2.819122 1_555
O4 Se0 1.693901 1_555
O4 Sr0 2.580240 1_555
O4 Sr3 2.706558 1_565
O4 Sr3 3.236763 1_555
O5 Se1 1.693901 1_555
O5 Sr1 2.580240 1_455
O5 Sr2 2.706558 1_565
O5 Sr2 3.236763 1_555
O6 Se2 1.693901 1_555
O6 Sr2 2.580240 1_555
O6 Sr1 2.706558 1_545
O6 Sr1 3.236763 1_555
O7 Se3 1.693901 1_555
O7 Sr3 2.580240 1_655
O7 Sr0 2.706558 1_545
O7 Sr0 3.236763 1_555
O8 Se0 1.757213 1_555
O8 Sr3 2.635894 1_555
O8 Sr0 2.986299 1_455
O9 Se1 1.757213 1_555
O9 Sr2 2.635894 1_555
O9 Sr1 2.986299 1_555
O10 Se2 1.757213 1_555
O10 Sr1 2.635894 1_555
O10 Sr2 2.986299 1_655
O11 Se3 1.757213 1_555
O11 Sr0 2.635894 1_555
O11 Sr3 2.986299 1_555
