# generated using pymatgen
data_K6Na14Tl18Cd
_symmetry_space_group_name_H-M   'P 1'
_cell_length_a   10.85613586
_cell_length_b   10.85613586
_cell_length_c   10.85613586
_cell_angle_alpha   90.00000000
_cell_angle_beta   90.00000000
_cell_angle_gamma   90.00000000
_symmetry_Int_Tables_number   1
_chemical_formula_structural   K6Na14Tl18Cd
_chemical_formula_sum   'K6 Na14 Tl18 Cd1'
_cell_volume   1279.45733704
_cell_formula_units_Z   1
loop_
 _symmetry_equiv_pos_site_id
 _symmetry_equiv_pos_as_xyz
  1  'x, y, z'
loop_
 _atom_site_type_symbol
 _atom_site_label
 _atom_site_symmetry_multiplicity
 _atom_site_fract_x
 _atom_site_fract_y
 _atom_site_fract_z
 _atom_site_occupancy
  K  K0  1  0.18755931  -0.00000000  0.50000000  1
  K  K1  1  0.81244069  -0.00000000  0.50000000  1
  K  K2  1  0.50000000  0.18755931  -0.00000000  1
  K  K3  1  0.50000000  0.81244069  -0.00000000  1
  K  K4  1  0.00000000  0.50000000  0.18755931  1
  K  K5  1  0.00000000  0.50000000  0.81244069  1
  Na  Na0  1  0.28106222  0.28106222  0.28106222  1
  Na  Na1  1  0.71893778  0.71893778  0.71893778  1
  Na  Na2  1  0.71893778  0.71893778  0.28106222  1
  Na  Na3  1  0.71893778  0.28106222  0.71893778  1
  Na  Na4  1  0.28106222  0.28106222  0.71893778  1
  Na  Na5  1  0.28106222  0.71893778  0.28106222  1
  Na  Na6  1  0.28106222  0.71893778  0.71893778  1
  Na  Na7  1  0.71893778  0.28106222  0.28106222  1
  Na  Na8  1  0.33015889  0.50000000  -0.00000000  1
  Na  Na9  1  0.66984111  0.50000000  -0.00000000  1
  Na  Na10  1  0.00000000  0.33015889  0.50000000  1
  Na  Na11  1  0.00000000  0.66984111  0.50000000  1
  Na  Na12  1  0.50000000  -0.00000000  0.33015889  1
  Na  Na13  1  0.50000000  -0.00000000  0.66984111  1
  Tl  Tl0  1  0.00000000  0.15495497  0.25389994  1
  Tl  Tl1  1  0.00000000  0.84504503  0.74610006  1
  Tl  Tl2  1  0.00000000  0.84504503  0.25389994  1
  Tl  Tl3  1  0.00000000  0.15495497  0.74610006  1
  Tl  Tl4  1  0.25389994  -0.00000000  0.15495497  1
  Tl  Tl5  1  0.74610006  -0.00000000  0.84504503  1
  Tl  Tl6  1  0.25389994  -0.00000000  0.84504503  1
  Tl  Tl7  1  0.74610006  -0.00000000  0.15495497  1
  Tl  Tl8  1  0.15495497  0.25389994  -0.00000000  1
  Tl  Tl9  1  0.84504503  0.74610006  -0.00000000  1
  Tl  Tl10  1  0.15495497  0.74610006  -0.00000000  1
  Tl  Tl11  1  0.84504503  0.25389994  -0.00000000  1
  Tl  Tl12  1  0.27983124  0.50000000  0.50000000  1
  Tl  Tl13  1  0.72016876  0.50000000  0.50000000  1
  Tl  Tl14  1  0.50000000  0.27983124  0.50000000  1
  Tl  Tl15  1  0.50000000  0.72016876  0.50000000  1
  Tl  Tl16  1  0.50000000  0.50000000  0.27983124  1
  Tl  Tl17  1  0.50000000  0.50000000  0.72016876  1
  Cd  Cd0  1  0.00000000  -0.00000000  -0.00000000  1
loop_
_geom_bond_atom_site_label_1
_geom_bond_atom_site_label_2
_geom_bond_distance
_geom_bond_site_symmetry_2
K0 Tl2 3.756831 1_545
K0 Tl0 3.756831 1_555
K0 Tl3 3.756831 1_555
K0 Tl1 3.756831 1_545
K0 Tl4 3.814463 1_555
K0 Tl6 3.814463 1_555
K0 Na12 3.860653 1_555
K0 Na13 3.860653 1_555
K0 Na6 3.998722 1_545
K0 Na5 3.998722 1_545
K0 Na0 3.998722 1_555
K0 Na4 3.998722 1_555
K0 K1 4.072339 1_455
K0 Na10 4.122236 1_555
K0 Na11 4.122236 1_545
K1 Tl2 3.756831 1_645
K1 Tl0 3.756831 1_655
K1 Tl1 3.756831 1_645
K1 Tl3 3.756831 1_655
K1 Tl7 3.814463 1_555
K1 Tl5 3.814463 1_555
K1 Na12 3.860653 1_555
K1 Na13 3.860653 1_555
K1 Na7 3.998722 1_555
K1 Na3 3.998722 1_555
K1 Na2 3.998722 1_545
K1 Na1 3.998722 1_545
K1 Na11 4.122236 1_645
K1 Na10 4.122236 1_655
K2 Tl4 3.756831 1_555
K2 Tl6 3.756831 1_554
K2 Tl5 3.756831 1_554
K2 Tl7 3.756831 1_555
K2 Tl11 3.814463 1_555
K2 Tl8 3.814463 1_555
K2 Na8 3.860653 1_555
K2 Na9 3.860653 1_555
K2 Na4 3.998722 1_554
K2 Na7 3.998722 1_555
K2 Na3 3.998722 1_554
K2 Na0 3.998722 1_555
K2 K3 4.072339 1_545
K2 Na12 4.122236 1_555
K2 Na13 4.122236 1_554
K3 Tl4 3.756831 1_565
K3 Tl6 3.756831 1_564
K3 Tl5 3.756831 1_564
K3 Tl7 3.756831 1_565
K3 Tl10 3.814463 1_555
K3 Tl9 3.814463 1_555
K3 Na8 3.860653 1_555
K3 Na9 3.860653 1_555
K3 Na6 3.998722 1_554
K3 Na5 3.998722 1_555
K3 Na2 3.998722 1_555
K3 Na1 3.998722 1_554
K3 Na12 4.122236 1_565
K3 Na13 4.122236 1_564
K4 Tl11 3.756831 1_455
K4 Tl8 3.756831 1_555
K4 Tl10 3.756831 1_555
K4 Tl9 3.756831 1_455
K4 Tl2 3.814463 1_555
K4 Tl0 3.814463 1_555
K4 Na11 3.860653 1_555
K4 Na10 3.860653 1_555
K4 Na2 3.998722 1_455
K4 Na5 3.998722 1_555
K4 Na7 3.998722 1_455
K4 Na0 3.998722 1_555
K4 K5 4.072339 1_554
K4 Na8 4.122236 1_555
K4 Na9 4.122236 1_455
K5 Tl8 3.756831 1_556
K5 Tl11 3.756831 1_456
K5 Tl10 3.756831 1_556
K5 Tl9 3.756831 1_456
K5 Tl1 3.814463 1_555
K5 Tl3 3.814463 1_555
K5 Na11 3.860653 1_555
K5 Na10 3.860653 1_555
K5 Na6 3.998722 1_555
K5 Na4 3.998722 1_555
K5 Na3 3.998722 1_455
K5 Na1 3.998722 1_455
K5 Na9 4.122236 1_456
K5 Na8 4.122236 1_556
Na0 Tl0 3.357282 1_555
Na0 Tl4 3.357282 1_555
Na0 Tl8 3.357282 1_555
Na0 Tl16 3.361355 1_555
Na0 Tl14 3.361355 1_555
Na0 Tl12 3.361355 1_555
Na0 Na8 3.904290 1_555
Na0 Na10 3.904290 1_555
Na0 Na12 3.904290 1_555
Na1 Tl1 3.357282 1_655
Na1 Tl9 3.357282 1_556
Na1 Tl5 3.357282 1_565
Na1 Tl17 3.361355 1_555
Na1 Tl15 3.361355 1_555
Na1 Tl13 3.361355 1_555
Na1 Na11 3.904290 1_655
Na1 Na13 3.904290 1_565
Na1 Na9 3.904290 1_556
Na2 Tl9 3.357282 1_555
Na2 Tl2 3.357282 1_655
Na2 Tl7 3.357282 1_565
Na2 Tl16 3.361355 1_555
Na2 Tl15 3.361355 1_555
Na2 Tl13 3.361355 1_555
Na2 Na9 3.904290 1_555
Na3 Tl5 3.357282 1_555
Na3 Tl3 3.357282 1_655
Na3 Tl11 3.357282 1_556
Na3 Tl17 3.361355 1_555
Na3 Tl14 3.361355 1_555
Na3 Tl13 3.361355 1_555
Na3 Na9 3.904290 1_556
Na4 Tl8 3.357282 1_556
Na4 Tl6 3.357282 1_555
Na4 Tl3 3.357282 1_555
Na4 Tl17 3.361355 1_555
Na4 Tl14 3.361355 1_555
Na4 Tl12 3.361355 1_555
Na4 Na8 3.904290 1_556
Na5 Tl2 3.357282 1_555
Na5 Tl4 3.357282 1_565
Na5 Tl10 3.357282 1_555
Na5 Tl16 3.361355 1_555
Na5 Tl12 3.361355 1_555
Na5 Tl15 3.361355 1_555
Na5 Na8 3.904290 1_555
Na6 Tl6 3.357282 1_565
Na6 Tl1 3.357282 1_555
Na6 Tl10 3.357282 1_556
Na6 Tl17 3.361355 1_555
Na6 Tl12 3.361355 1_555
Na6 Tl15 3.361355 1_555
Na6 Na8 3.904290 1_556
Na7 Tl0 3.357282 1_655
Na7 Tl7 3.357282 1_555
Na7 Tl11 3.357282 1_555
Na7 Tl16 3.361355 1_555
Na7 Tl14 3.361355 1_555
Na7 Tl13 3.361355 1_555
Na7 Na9 3.904290 1_555
Na8 Tl10 3.279589 1_555
Na8 Tl8 3.279589 1_555
Na8 Tl17 3.553648 1_554
Na8 Tl16 3.553648 1_555
Na8 Na9 3.687636 1_555
Na9 Tl11 3.279589 1_555
Na9 Tl9 3.279589 1_555
Na9 Tl17 3.553648 1_554
Na9 Tl16 3.553648 1_555
Na10 Tl0 3.279589 1_555
Na10 Tl3 3.279589 1_555
Na10 Tl13 3.553648 1_455
Na10 Tl12 3.553648 1_555
Na10 Na11 3.687636 1_555
Na10 Na4 3.904290 1_555
Na10 Na3 3.904290 1_455
Na10 Na7 3.904290 1_455
Na11 Tl2 3.279589 1_555
Na11 Tl1 3.279589 1_555
Na11 Tl13 3.553648 1_455
Na11 Tl12 3.553648 1_555
Na11 Na6 3.904290 1_555
Na11 Na2 3.904290 1_455
Na11 Na5 3.904290 1_555
Na12 Tl4 3.279589 1_555
Na12 Tl7 3.279589 1_555
Na12 Tl14 3.553648 1_555
Na12 Tl15 3.553648 1_545
Na12 Na13 3.687636 1_555
Na12 Na7 3.904290 1_555
Na12 Na2 3.904290 1_545
Na12 Na5 3.904290 1_545
Na13 Tl6 3.279589 1_555
Na13 Tl5 3.279589 1_555
Na13 Tl14 3.553648 1_555
Na13 Tl15 3.553648 1_545
Na13 Na3 3.904290 1_555
Na13 Na6 3.904290 1_545
Na13 Na4 3.904290 1_555
Tl0 Tl2 3.364424 1_545
Tl0 Tl7 3.403123 1_455
Tl0 Tl4 3.403123 1_555
Tl0 Tl8 3.403123 1_555
Tl0 Tl11 3.403123 1_455
Tl1 Tl3 3.364424 1_565
Tl1 Tl10 3.403123 1_556
Tl1 Tl9 3.403123 1_456
Tl1 Tl5 3.403123 1_465
Tl1 Tl6 3.403123 1_565
Tl2 Tl9 3.403123 1_455
Tl2 Tl7 3.403123 1_465
Tl2 Tl4 3.403123 1_565
Tl3 Tl5 3.403123 1_455
Tl3 Tl8 3.403123 1_556
Tl3 Tl6 3.403123 1_555
Tl4 Tl6 3.364424 1_554
Tl4 Tl8 3.403123 1_555
Tl5 Tl7 3.364424 1_556
Tl5 Tl9 3.403123 1_546
Tl6 Tl8 3.403123 1_556
Tl7 Tl9 3.403123 1_545
Tl10 Tl9 3.364424 1_455
Tl10 Tl2 3.403123 1_555
Tl10 Tl4 3.403123 1_565
Tl10 Tl6 3.403123 1_564
Tl11 Tl8 3.364424 1_655
Tl11 Tl5 3.403123 1_554
Tl11 Tl7 3.403123 1_555
Tl11 Tl3 3.403123 1_654
Tl12 Tl17 3.380228 1_555
Tl12 Tl15 3.380228 1_555
Tl12 Tl16 3.380228 1_555
Tl12 Tl14 3.380228 1_555
Tl13 Tl16 3.380228 1_555
Tl13 Tl17 3.380228 1_555
Tl13 Tl14 3.380228 1_555
Tl13 Tl15 3.380228 1_555
Tl14 Tl17 3.380228 1_555
Tl14 Tl16 3.380228 1_555
Tl15 Tl16 3.380228 1_555
Tl15 Tl17 3.380228 1_555
Cd0 Tl7 3.229152 1_455
Cd0 Tl4 3.229152 1_555
Cd0 Tl9 3.229152 1_445
Cd0 Tl1 3.229152 1_544
Cd0 Tl10 3.229152 1_545
Cd0 Tl5 3.229152 1_454
Cd0 Tl3 3.229152 1_554
Cd0 Tl2 3.229152 1_545
Cd0 Tl0 3.229152 1_555
Cd0 Tl11 3.229152 1_455
Cd0 Tl8 3.229152 1_555
Cd0 Tl6 3.229152 1_554
