# generated using pymatgen
data_TbAl3Cu2
_symmetry_space_group_name_H-M   'P 1'
_cell_length_a   5.31329354
_cell_length_b   5.31329354
_cell_length_c   4.02791989
_cell_angle_alpha   90.00000000
_cell_angle_beta   90.00000000
_cell_angle_gamma   120.00000847
_symmetry_Int_Tables_number   1
_chemical_formula_structural   TbAl3Cu2
_chemical_formula_sum   'Tb1 Al3 Cu2'
_cell_volume   98.47795889
_cell_formula_units_Z   1
loop_
 _symmetry_equiv_pos_site_id
 _symmetry_equiv_pos_as_xyz
  1  'x, y, z'
loop_
 _atom_site_type_symbol
 _atom_site_label
 _atom_site_symmetry_multiplicity
 _atom_site_fract_x
 _atom_site_fract_y
 _atom_site_fract_z
 _atom_site_occupancy
  Tb  Tb0  1  -0.00000000  0.00000000  -0.00000000  1
  Al  Al0  1  0.50000000  0.00000000  0.50000000  1
  Al  Al1  1  -0.00000000  0.50000000  0.50000000  1
  Al  Al2  1  0.50000000  0.50000000  0.50000000  1
  Cu  Cu0  1  0.33333300  0.66666700  0.00000000  1
  Cu  Cu1  1  0.66666700  0.33333300  0.00000000  1
loop_
_geom_bond_atom_site_label_1
_geom_bond_atom_site_label_2
_geom_bond_distance
_geom_bond_site_symmetry_2
Al0 Cu0 2.531525 1_546
Al0 Cu0 2.531525 1_545
Al0 Cu1 2.531525 1_555
Al0 Cu1 2.531525 1_556
Al0 Tb0 3.333738 1_656
Al0 Tb0 3.333738 1_655
Al0 Tb0 3.333738 1_555
Al0 Tb0 3.333738 1_556
Al1 Cu0 2.531525 1_555
Al1 Cu1 2.531525 1_455
Al1 Cu1 2.531525 1_456
Al1 Cu0 2.531525 1_556
Al1 Tb0 3.333738 1_565
Al1 Tb0 3.333738 1_566
Al1 Tb0 3.333738 1_555
Al1 Tb0 3.333738 1_556
Al2 Cu1 2.531528 1_555
Al2 Cu1 2.531528 1_556
Al2 Cu0 2.531528 1_556
Al2 Cu0 2.531528 1_555
Al2 Tb0 3.333737 1_556
Al2 Tb0 3.333737 1_665
Al2 Tb0 3.333737 1_666
Al2 Tb0 3.333737 1_555
Cu0 Tb0 3.067629 1_565
Cu0 Tb0 3.067633 1_555
Cu0 Tb0 3.067633 1_665
Cu1 Tb0 3.067629 1_655
Cu1 Tb0 3.067633 1_555
Cu1 Tb0 3.067633 1_665
