# generated using pymatgen
data_Y2Mn3Co
_symmetry_space_group_name_H-M   'P 1'
_cell_length_a   5.12056270
_cell_length_b   5.12056270
_cell_length_c   5.12056273
_cell_angle_alpha   61.35491437
_cell_angle_beta   61.35491437
_cell_angle_gamma   61.35490127
_symmetry_Int_Tables_number   1
_chemical_formula_structural   Y2Mn3Co
_chemical_formula_sum   'Y2 Mn3 Co1'
_cell_volume   97.82793860
_cell_formula_units_Z   1
loop_
 _symmetry_equiv_pos_site_id
 _symmetry_equiv_pos_as_xyz
  1  'x, y, z'
loop_
 _atom_site_type_symbol
 _atom_site_label
 _atom_site_symmetry_multiplicity
 _atom_site_fract_x
 _atom_site_fract_y
 _atom_site_fract_z
 _atom_site_occupancy
  Y  Y0  1  0.62546700  0.62546700  0.62546700  1
  Y  Y1  1  0.37453300  0.37453300  0.37453300  1
  Mn  Mn0  1  0.00000000  0.50000000  0.00000000  1
  Mn  Mn1  1  0.50000000  0.00000000  0.00000000  1
  Mn  Mn2  1  0.00000000  0.00000000  0.50000000  1
  Co  Co0  1  0.00000000  0.00000000  0.00000000  1
loop_
_geom_bond_atom_site_label_1
_geom_bond_atom_site_label_2
_geom_bond_distance
_geom_bond_site_symmetry_2
Y0 Y1 3.114792 1_555
Y0 Y1 3.185369 1_565
Y0 Y1 3.185369 1_655
Y0 Y1 3.185370 1_556
Mn0 Mn1 2.612534 1_555
Mn0 Mn1 2.612534 1_465
Mn0 Mn2 2.612535 1_555
Mn0 Mn2 2.612535 1_564
Mn0 Y1 2.988738 1_555
Mn0 Y0 2.988738 1_454
Mn0 Y0 3.041516 1_455
Mn0 Y1 3.041516 1_554
Mn0 Y1 3.041516 1_455
Mn0 Y0 3.041516 1_554
Mn1 Mn2 2.612535 1_555
Mn1 Mn2 2.612535 1_654
Mn1 Y0 2.988738 1_544
Mn1 Y1 2.988738 1_555
Mn1 Y0 3.041516 1_545
Mn1 Y1 3.041516 1_554
Mn1 Y1 3.041516 1_545
Mn1 Y0 3.041516 1_554
Mn2 Y0 2.988738 1_445
Mn2 Y1 2.988738 1_555
Mn2 Y1 3.041515 1_455
Mn2 Y1 3.041515 1_545
Mn2 Y0 3.041515 1_545
Mn2 Y0 3.041515 1_455
Co0 Mn0 2.560281 1_555
Co0 Mn1 2.560281 1_455
Co0 Mn1 2.560281 1_555
Co0 Mn0 2.560281 1_545
Co0 Mn2 2.560281 1_554
Co0 Mn2 2.560281 1_555
Co0 Y1 3.059735 1_545
Co0 Y0 3.059735 1_454
Co0 Y0 3.059735 1_544
Co0 Y1 3.059735 1_455
Co0 Y0 3.059736 1_445
Co0 Y1 3.059736 1_554
