# generated using pymatgen
data_Mg149Ti
_symmetry_space_group_name_H-M   'P 1'
_cell_length_a   15.90448776
_cell_length_b   15.90449586
_cell_length_c   15.58381769
_cell_angle_alpha   90.00000000
_cell_angle_beta   90.00000000
_cell_angle_gamma   120.00037663
_symmetry_Int_Tables_number   1
_chemical_formula_structural   Mg149Ti
_chemical_formula_sum   'Mg149 Ti1'
_cell_volume   3413.83428734
_cell_formula_units_Z   1
loop_
 _symmetry_equiv_pos_site_id
 _symmetry_equiv_pos_as_xyz
  1  'x, y, z'
loop_
 _atom_site_type_symbol
 _atom_site_label
 _atom_site_symmetry_multiplicity
 _atom_site_fract_x
 _atom_site_fract_y
 _atom_site_fract_z
 _atom_site_occupancy
  Mg  Mg0  1  0.60168048  0.00020148  0.00000000  1
  Mg  Mg1  1  0.39852221  0.00019769  0.00000000  1
  Mg  Mg2  1  0.00040636  0.19641983  0.00000000  1
  Mg  Mg3  1  0.19601018  0.19641745  0.00000000  1
  Mg  Mg4  1  0.59977792  0.19955914  0.00000000  1
  Mg  Mg5  1  0.40009012  0.20004388  0.00000000  1
  Mg  Mg6  1  0.79995576  0.20004224  0.00000000  1
  Mg  Mg7  1  0.99980024  0.39832030  0.00000000  1
  Mg  Mg8  1  0.39852003  0.39831999  0.00000000  1
  Mg  Mg9  1  0.19988151  0.39976313  0.00000000  1
  Mg  Mg10  1  0.80044143  0.40022159  0.00000000  1
  Mg  Mg11  1  0.59978058  0.40022202  0.00000000  1
  Mg  Mg12  1  0.19988162  0.59994172  0.00000000  1
  Mg  Mg13  1  0.40005973  0.59994077  0.00000000  1
  Mg  Mg14  1  0.79995643  0.59991073  0.00000000  1
  Mg  Mg15  1  0.60167768  0.60147615  0.00000000  1
  Mg  Mg16  1  0.99979959  0.60147842  0.00000000  1
  Mg  Mg17  1  0.40005906  0.80012062  0.00000000  1
  Mg  Mg18  1  0.60023543  0.80011664  0.00000000  1
  Mg  Mg19  1  0.19988131  0.80011722  0.00000000  1
  Mg  Mg20  1  0.00040783  0.80398599  0.00000000  1
  Mg  Mg21  1  0.80358235  0.80398814  0.00000000  1
  Mg  Mg22  1  0.19600909  0.99958738  0.00000000  1
  Mg  Mg23  1  0.80357722  0.99959104  0.00000000  1
  Mg  Mg24  1  0.06537437  0.13074783  0.16294452  1
  Mg  Mg25  1  0.06537365  0.93462425  0.16294442  1
  Mg  Mg26  1  0.86925062  0.93462347  0.16294309  1
  Mg  Mg27  1  0.26647705  0.13323726  0.16590522  1
  Mg  Mg28  1  0.86676105  0.13324001  0.16590300  1
  Mg  Mg29  1  0.86676128  0.73352121  0.16590511  1
  Mg  Mg30  1  0.06665005  0.53332358  0.16648570  1
  Mg  Mg31  1  0.46667703  0.53332551  0.16648854  1
  Mg  Mg32  1  0.46667441  0.93334936  0.16648799  1
  Mg  Mg33  1  0.66666705  0.33333368  0.16631207  1
  Mg  Mg34  1  0.26621612  0.33330315  0.16654716  1
  Mg  Mg35  1  0.06708372  0.33330329  0.16654540  1
  Mg  Mg36  1  0.06708445  0.73378087  0.16654483  1
  Mg  Mg37  1  0.66669536  0.73377937  0.16654458  1
  Mg  Mg38  1  0.66669664  0.93291636  0.16654345  1
  Mg  Mg39  1  0.26622084  0.93291743  0.16654409  1
  Mg  Mg40  1  0.66697495  0.13326839  0.16665753  1
  Mg  Mg41  1  0.46629210  0.13326980  0.16665730  1
  Mg  Mg42  1  0.46629348  0.33302476  0.16665843  1
  Mg  Mg43  1  0.86673124  0.33302377  0.16665687  1
  Mg  Mg44  1  0.66697454  0.53370627  0.16666013  1
  Mg  Mg45  1  0.86673392  0.53370857  0.16665754  1
  Mg  Mg46  1  0.26672693  0.53345116  0.16674288  1
  Mg  Mg47  1  0.46655145  0.73327477  0.16674108  1
  Mg  Mg48  1  0.26672673  0.73327496  0.16674119  1
  Mg  Mg49  1  0.19937261  0.19963783  0.33201423  1
  Mg  Mg50  1  0.00026460  0.19963627  0.33201458  1
  Mg  Mg51  1  0.80036574  0.80062830  0.33201294  1
  Mg  Mg52  1  0.00026038  0.80062701  0.33201408  1
  Mg  Mg53  1  0.80036619  0.99973711  0.33201208  1
  Mg  Mg54  1  0.19936957  0.99973557  0.33201288  1
  Mg  Mg55  1  0.60018410  0.99998560  0.33310820  1
  Mg  Mg56  1  0.39979932  0.99998342  0.33310582  1
  Mg  Mg57  1  0.00001535  0.39981556  0.33310736  1
  Mg  Mg58  1  0.39979839  0.39981498  0.33310755  1
  Mg  Mg59  1  0.60018518  0.60020169  0.33310540  1
  Mg  Mg60  1  0.00001602  0.60020181  0.33310582  1
  Mg  Mg61  1  0.59991647  0.19983199  0.33313511  1
  Mg  Mg62  1  0.59991773  0.40008374  0.33313594  1
  Mg  Mg63  1  0.80016848  0.40008570  0.33313435  1
  Mg  Mg64  1  -0.00000038  -0.00000139  0.33341419  1
  Mg  Mg65  1  0.39986138  0.19993104  0.33338628  1
  Mg  Mg66  1  0.80006888  0.19992903  0.33338350  1
  Mg  Mg67  1  0.80006721  0.60013935  0.33338238  1
  Mg  Mg68  1  0.20012723  0.40025527  0.33360198  1
  Mg  Mg69  1  0.59974661  0.79987387  0.33360247  1
  Mg  Mg70  1  0.20012692  0.79987266  0.33360138  1
  Mg  Mg71  1  0.19989678  0.59994794  0.33347942  1
  Mg  Mg72  1  0.40005008  0.59995079  0.33348086  1
  Mg  Mg73  1  0.40005134  0.80010270  0.33347872  1
  Mg  Mg74  1  0.86687130  0.13312811  0.50000000  1
  Mg  Mg75  1  0.26625645  0.13312745  0.50000000  1
  Mg  Mg76  1  0.06661349  0.13322415  0.50000000  1
  Mg  Mg77  1  0.66707464  0.13386867  0.50000000  1
  Mg  Mg78  1  0.46679748  0.13387119  0.50000000  1
  Mg  Mg79  1  0.06640553  0.33283342  0.50000000  1
  Mg  Mg80  1  0.26642864  0.33283303  0.50000000  1
  Mg  Mg81  1  0.86613177  0.33292650  0.50000000  1
  Mg  Mg82  1  0.46679681  0.33292812  0.50000000  1
  Mg  Mg83  1  0.66666658  0.33333221  0.50000000  1
  Mg  Mg84  1  0.46706388  0.53293752  0.50000000  1
  Mg  Mg85  1  0.06587386  0.53293508  0.50000000  1
  Mg  Mg86  1  0.26647289  0.53294161  0.50000000  1
  Mg  Mg87  1  0.66707429  0.53320458  0.50000000  1
  Mg  Mg88  1  0.86613434  0.53320648  0.50000000  1
  Mg  Mg89  1  0.46705686  0.73352930  0.50000000  1
  Mg  Mg90  1  0.26646876  0.73352739  0.50000000  1
  Mg  Mg91  1  0.06640515  0.73357107  0.50000000  1
  Mg  Mg92  1  0.66716829  0.73357335  0.50000000  1
  Mg  Mg93  1  0.86687364  0.73374470  0.50000000  1
  Mg  Mg94  1  0.86677969  0.93339019  0.50000000  1
  Mg  Mg95  1  0.06661562  0.93338682  0.50000000  1
  Mg  Mg96  1  0.66716717  0.93359515  0.50000000  1
  Mg  Mg97  1  0.26642945  0.93359780  0.50000000  1
  Mg  Mg98  1  0.46706517  0.93412709  0.50000000  1
  Mg  Mg99  1  0.19989678  0.59994794  0.66652058  1
  Mg  Mg100  1  0.40005008  0.59995079  0.66651914  1
  Mg  Mg101  1  0.40005134  0.80010270  0.66652128  1
  Mg  Mg102  1  0.20012723  0.40025527  0.66639802  1
  Mg  Mg103  1  0.59974661  0.79987387  0.66639753  1
  Mg  Mg104  1  0.20012692  0.79987266  0.66639862  1
  Mg  Mg105  1  0.39986138  0.19993104  0.66661372  1
  Mg  Mg106  1  0.80006888  0.19992903  0.66661650  1
  Mg  Mg107  1  0.80006721  0.60013935  0.66661762  1
  Mg  Mg108  1  -0.00000038  -0.00000139  0.66658581  1
  Mg  Mg109  1  0.59991647  0.19983199  0.66686489  1
  Mg  Mg110  1  0.59991773  0.40008374  0.66686406  1
  Mg  Mg111  1  0.80016848  0.40008570  0.66686565  1
  Mg  Mg112  1  0.60018410  0.99998560  0.66689180  1
  Mg  Mg113  1  0.39979932  0.99998342  0.66689418  1
  Mg  Mg114  1  0.00001535  0.39981556  0.66689264  1
  Mg  Mg115  1  0.39979839  0.39981498  0.66689245  1
  Mg  Mg116  1  0.60018518  0.60020169  0.66689460  1
  Mg  Mg117  1  0.00001602  0.60020181  0.66689418  1
  Mg  Mg118  1  0.19937261  0.19963783  0.66798577  1
  Mg  Mg119  1  0.00026460  0.19963627  0.66798542  1
  Mg  Mg120  1  0.80036574  0.80062830  0.66798706  1
  Mg  Mg121  1  0.00026038  0.80062701  0.66798592  1
  Mg  Mg122  1  0.80036619  0.99973711  0.66798792  1
  Mg  Mg123  1  0.19936957  0.99973557  0.66798712  1
  Mg  Mg124  1  0.26672693  0.53345116  0.83325712  1
  Mg  Mg125  1  0.46655145  0.73327477  0.83325892  1
  Mg  Mg126  1  0.26672673  0.73327496  0.83325881  1
  Mg  Mg127  1  0.66697495  0.13326839  0.83334247  1
  Mg  Mg128  1  0.46629210  0.13326980  0.83334270  1
  Mg  Mg129  1  0.46629348  0.33302476  0.83334157  1
  Mg  Mg130  1  0.86673124  0.33302377  0.83334313  1
  Mg  Mg131  1  0.66697454  0.53370627  0.83333987  1
  Mg  Mg132  1  0.86673392  0.53370857  0.83334246  1
  Mg  Mg133  1  0.26621612  0.33330315  0.83345284  1
  Mg  Mg134  1  0.06708372  0.33330329  0.83345460  1
  Mg  Mg135  1  0.06708445  0.73378087  0.83345517  1
  Mg  Mg136  1  0.66669536  0.73377937  0.83345542  1
  Mg  Mg137  1  0.66669664  0.93291636  0.83345655  1
  Mg  Mg138  1  0.26622084  0.93291743  0.83345591  1
  Mg  Mg139  1  0.66666705  0.33333368  0.83368793  1
  Mg  Mg140  1  0.06665005  0.53332358  0.83351430  1
  Mg  Mg141  1  0.46667703  0.53332551  0.83351146  1
  Mg  Mg142  1  0.46667441  0.93334936  0.83351201  1
  Mg  Mg143  1  0.26647705  0.13323726  0.83409478  1
  Mg  Mg144  1  0.86676105  0.13324001  0.83409700  1
  Mg  Mg145  1  0.86676128  0.73352121  0.83409489  1
  Mg  Mg146  1  0.06537437  0.13074783  0.83705548  1
  Mg  Mg147  1  0.06537365  0.93462425  0.83705558  1
  Mg  Mg148  1  0.86925062  0.93462347  0.83705691  1
  Ti  Ti0  1  0.00000065  0.00000163  0.00000000  1
loop_
_geom_bond_atom_site_label_1
_geom_bond_atom_site_label_2
_geom_bond_distance
_geom_bond_site_symmetry_2
Mg0 Mg6 3.165972 1_555
Mg0 Mg18 3.170819 1_545
Mg0 Mg38 3.171284 1_545
Mg0 Mg137 3.171284 1_544
Mg0 Mg127 3.178812 1_554
Mg0 Mg40 3.178812 1_555
Mg0 Mg4 3.185921 1_555
Mg0 Mg32 3.192094 1_545
Mg0 Mg142 3.192094 1_544
Mg0 Mg17 3.194488 1_545
Mg0 Mg23 3.215930 1_545
Mg0 Mg1 3.231098 1_555
Mg1 Mg5 3.166058 1_555
Mg1 Mg19 3.170774 1_545
Mg1 Mg39 3.171287 1_545
Mg1 Mg138 3.171287 1_544
Mg1 Mg41 3.178850 1_555
Mg1 Mg128 3.178850 1_554
Mg1 Mg4 3.185895 1_555
Mg1 Mg32 3.192056 1_545
Mg1 Mg142 3.192056 1_544
Mg1 Mg17 3.194417 1_545
Mg1 Mg22 3.216025 1_545
Mg2 Mg3 3.110997 1_555
Mg2 Mg24 3.112218 1_555
Mg2 Ti0 3.120711 1_555
Mg2 Mg23 3.130447 1_445
Mg2 Mg28 3.174294 1_455
Mg2 Mg9 3.203736 1_555
Mg2 Mg35 3.208057 1_555
Mg2 Mg7 3.215956 1_455
Mg2 Mg6 3.217258 1_455
Mg3 Ti0 3.120650 1_555
Mg3 Mg9 3.203768 1_555
Mg3 Mg34 3.208097 1_555
Mg3 Mg8 3.215979 1_555
Mg3 Mg5 3.217336 1_555
Mg4 Mg5 3.179794 1_555
Mg4 Mg6 3.179891 1_555
Mg4 Mg41 3.182086 1_555
Mg4 Mg40 3.182111 1_555
Mg5 Mg8 3.166041 1_555
Mg6 Mg7 3.166024 1_555
Mg7 Mg9 3.170779 1_655
Mg8 Mg9 3.170783 1_555
Mg10 Mg14 3.179819 1_555
Mg10 Mg6 3.179896 1_555
Mg10 Mg33 3.179990 1_555
Mg10 Mg139 3.179990 1_554
Mg10 Mg132 3.182099 1_554
Mg10 Mg45 3.182099 1_555
Mg10 Mg130 3.182101 1_554
Mg10 Mg43 3.182101 1_555
Mg10 Mg16 3.185878 1_555
Mg10 Mg7 3.185927 1_555
Mg10 Mg11 3.191411 1_555
Mg10 Mg4 3.191425 1_555
Mg11 Mg14 3.179810 1_555
Mg11 Mg5 3.179842 1_555
Mg11 Mg33 3.180000 1_555
Mg11 Mg139 3.180000 1_554
Mg11 Mg44 3.182110 1_555
Mg11 Mg131 3.182110 1_554
Mg11 Mg42 3.182111 1_555
Mg11 Mg129 3.182111 1_554
Mg11 Mg15 3.185866 1_555
Mg11 Mg8 3.185928 1_555
Mg11 Mg4 3.191421 1_555
Mg12 Mg30 3.177872 1_555
Mg12 Mg140 3.177872 1_554
Mg12 Mg126 3.181934 1_554
Mg12 Mg48 3.181934 1_555
Mg12 Mg46 3.181982 1_555
Mg12 Mg124 3.181982 1_554
Mg12 Mg19 3.183693 1_555
Mg12 Mg17 3.183714 1_555
Mg12 Mg13 3.183738 1_555
Mg12 Mg9 3.183739 1_555
Mg12 Mg7 3.194492 1_455
Mg12 Mg16 3.194493 1_455
Mg13 Mg31 3.177923 1_555
Mg13 Mg141 3.177923 1_554
Mg13 Mg47 3.181938 1_555
Mg13 Mg46 3.181951 1_555
Mg13 Mg18 3.183676 1_555
Mg13 Mg9 3.183710 1_555
Mg13 Mg17 3.183765 1_555
Mg13 Mg15 3.194490 1_555
Mg13 Mg8 3.194503 1_555
Mg14 Mg16 3.166010 1_555
Mg14 Mg15 3.166044 1_555
Mg14 Mg145 3.173514 1_554
Mg14 Mg29 3.173514 1_555
Mg14 Mg45 3.178067 1_555
Mg14 Mg44 3.178112 1_555
Mg14 Mg20 3.217264 1_655
Mg14 Mg21 3.217301 1_555
Mg15 Mg18 3.170808 1_555
Mg15 Mg37 3.171308 1_555
Mg15 Mg44 3.178850 1_555
Mg15 Mg31 3.192058 1_555
Mg15 Mg21 3.216013 1_555
Mg15 Mg8 3.231089 1_555
Mg16 Mg19 3.170768 1_655
Mg16 Mg36 3.171305 1_655
Mg16 Mg45 3.178802 1_555
Mg16 Mg30 3.192066 1_655
Mg16 Mg20 3.215955 1_655
Mg16 Mg7 3.231133 1_555
Mg17 Mg32 3.177879 1_555
Mg17 Mg48 3.181926 1_555
Mg17 Mg47 3.181978 1_555
Mg17 Mg19 3.183698 1_555
Mg17 Mg18 3.183734 1_555
Mg18 Mg38 3.175177 1_555
Mg18 Mg37 3.175178 1_555
Mg18 Mg47 3.184721 1_555
Mg18 Mg23 3.203718 1_555
Mg18 Mg21 3.203785 1_555
Mg19 Mg36 3.175172 1_555
Mg19 Mg39 3.175190 1_555
Mg19 Mg48 3.184758 1_555
Mg19 Mg22 3.203710 1_555
Mg19 Mg20 3.203732 1_555
Mg20 Mg22 3.110922 1_555
Mg20 Mg25 3.112197 1_555
Mg20 Ti0 3.120773 1_565
Mg20 Mg21 3.130426 1_455
Mg20 Mg29 3.174330 1_455
Mg20 Mg36 3.208042 1_555
Mg21 Mg23 3.111006 1_555
Mg21 Mg26 3.112157 1_555
Mg21 Ti0 3.120701 1_665
Mg21 Mg29 3.174331 1_555
Mg21 Mg37 3.208075 1_555
Mg22 Mg25 3.112174 1_555
Mg22 Ti0 3.120713 1_565
Mg22 Mg3 3.130474 1_565
Mg22 Mg27 3.174359 1_565
Mg22 Mg39 3.208033 1_555
Mg22 Mg5 3.217351 1_565
Mg23 Mg26 3.112207 1_555
Mg23 Ti0 3.120754 1_665
Mg23 Mg28 3.174323 1_565
Mg23 Mg38 3.208009 1_555
Mg23 Mg6 3.217261 1_565
Mg24 Mg3 3.112178 1_555
Mg24 Ti0 3.113053 1_555
Mg24 Mg26 3.119236 1_445
Mg24 Mg25 3.119241 1_545
Mg24 Mg27 3.179158 1_555
Mg24 Mg28 3.179181 1_455
Mg24 Mg34 3.208473 1_555
Mg24 Mg35 3.208526 1_555
Mg24 Mg64 3.209450 1_555
Mg24 Mg49 3.217020 1_555
Mg24 Mg50 3.217031 1_555
Mg25 Ti0 3.113091 1_565
Mg25 Mg26 3.119230 1_455
Mg25 Mg29 3.179137 1_455
Mg25 Mg27 3.179145 1_565
Mg25 Mg36 3.208495 1_555
Mg25 Mg39 3.208521 1_555
Mg25 Mg64 3.209451 1_565
Mg25 Mg54 3.216985 1_555
Mg25 Mg52 3.217012 1_555
Mg26 Ti0 3.113065 1_665
Mg26 Mg29 3.179154 1_555
Mg26 Mg28 3.179213 1_565
Mg26 Mg37 3.208490 1_555
Mg26 Mg38 3.208519 1_555
Mg26 Mg64 3.209467 1_665
Mg26 Mg51 3.216998 1_555
Mg26 Mg53 3.217015 1_555
Mg27 Mg5 3.173535 1_555
Mg27 Mg3 3.174342 1_555
Mg27 Mg54 3.175223 1_545
Mg27 Mg49 3.175272 1_555
Mg27 Mg41 3.177719 1_555
Mg27 Mg42 3.177752 1_555
Mg27 Mg39 3.183966 1_545
Mg27 Mg34 3.184040 1_555
Mg27 Mg65 3.191759 1_555
Mg28 Mg6 3.173469 1_555
Mg28 Mg53 3.175251 1_545
Mg28 Mg50 3.175287 1_655
Mg28 Mg43 3.177719 1_555
Mg28 Mg40 3.177743 1_555
Mg28 Mg35 3.183967 1_655
Mg28 Mg38 3.183984 1_545
Mg28 Mg66 3.191734 1_555
Mg29 Mg52 3.175218 1_655
Mg29 Mg51 3.175238 1_555
Mg29 Mg45 3.177723 1_555
Mg29 Mg44 3.177735 1_555
Mg29 Mg36 3.183990 1_655
Mg29 Mg37 3.184017 1_555
Mg29 Mg67 3.191692 1_555
Mg30 Mg48 3.181106 1_555
Mg30 Mg46 3.181109 1_555
Mg30 Mg57 3.181803 1_555
Mg30 Mg60 3.181823 1_555
Mg30 Mg43 3.182624 1_455
Mg30 Mg45 3.182631 1_455
Mg30 Mg71 3.184459 1_555
Mg30 Mg35 3.184676 1_555
Mg30 Mg36 3.184723 1_555
Mg30 Mg7 3.192043 1_455
Mg31 Mg47 3.181094 1_555
Mg31 Mg46 3.181106 1_555
Mg31 Mg59 3.181742 1_555
Mg31 Mg58 3.181789 1_555
Mg31 Mg44 3.182607 1_555
Mg31 Mg42 3.182638 1_555
Mg31 Mg72 3.184492 1_555
Mg31 Mg37 3.184641 1_555
Mg31 Mg34 3.184729 1_555
Mg31 Mg8 3.192097 1_555
Mg32 Mg48 3.181059 1_555
Mg32 Mg47 3.181111 1_555
Mg32 Mg56 3.181769 1_555
Mg32 Mg55 3.181797 1_555
Mg32 Mg40 3.182632 1_565
Mg32 Mg41 3.182680 1_565
Mg32 Mg73 3.184421 1_555
Mg32 Mg39 3.184682 1_555
Mg32 Mg38 3.184700 1_555
Mg33 Mg4 3.179992 1_555
Mg33 Mg63 3.184301 1_555
Mg33 Mg62 3.184311 1_555
Mg33 Mg61 3.184313 1_555
Mg33 Mg41 3.184377 1_555
Mg33 Mg44 3.184387 1_555
Mg33 Mg42 3.184390 1_555
Mg33 Mg43 3.184390 1_555
Mg33 Mg40 3.184393 1_555
Mg33 Mg45 3.184401 1_555
Mg34 Mg35 3.167100 1_555
Mg34 Mg49 3.168394 1_555
Mg34 Mg8 3.171346 1_555
Mg34 Mg9 3.175190 1_555
Mg34 Mg46 3.179200 1_555
Mg34 Mg58 3.181617 1_555
Mg34 Mg68 3.183619 1_555
Mg34 Mg42 3.184345 1_555
Mg35 Mg50 3.168434 1_555
Mg35 Mg7 3.171303 1_455
Mg35 Mg9 3.175186 1_555
Mg35 Mg46 3.179228 1_555
Mg35 Mg57 3.181630 1_555
Mg35 Mg68 3.183655 1_555
Mg35 Mg43 3.184284 1_455
Mg36 Mg39 3.167146 1_555
Mg36 Mg52 3.168466 1_555
Mg36 Mg48 3.179240 1_555
Mg36 Mg60 3.181599 1_555
Mg36 Mg70 3.183647 1_555
Mg36 Mg45 3.184245 1_455
Mg37 Mg38 3.167163 1_555
Mg37 Mg51 3.168450 1_555
Mg37 Mg47 3.179183 1_555
Mg37 Mg59 3.181586 1_555
Mg37 Mg69 3.183676 1_555
Mg37 Mg44 3.184285 1_555
Mg38 Mg53 3.168447 1_555
Mg38 Mg47 3.179194 1_555
Mg38 Mg55 3.181675 1_555
Mg38 Mg69 3.183679 1_555
Mg38 Mg40 3.184288 1_565
Mg39 Mg54 3.168454 1_555
Mg39 Mg48 3.179245 1_555
Mg39 Mg56 3.181603 1_555
Mg39 Mg70 3.183675 1_555
Mg39 Mg41 3.184252 1_565
Mg40 Mg43 3.176997 1_555
Mg40 Mg55 3.177836 1_545
Mg40 Mg6 3.178070 1_555
Mg40 Mg66 3.179837 1_555
Mg40 Mg61 3.180887 1_555
Mg40 Mg41 3.191769 1_555
Mg41 Mg42 3.176991 1_555
Mg41 Mg56 3.177837 1_545
Mg41 Mg5 3.178036 1_555
Mg41 Mg65 3.179866 1_555
Mg41 Mg61 3.180902 1_555
Mg42 Mg58 3.177842 1_555
Mg42 Mg5 3.178083 1_555
Mg42 Mg8 3.178844 1_555
Mg42 Mg65 3.179860 1_555
Mg42 Mg62 3.180897 1_555
Mg42 Mg44 3.191716 1_555
Mg43 Mg57 3.177843 1_655
Mg43 Mg6 3.178068 1_555
Mg43 Mg7 3.178820 1_555
Mg43 Mg66 3.179853 1_555
Mg43 Mg63 3.180906 1_555
Mg43 Mg45 3.191769 1_555
Mg44 Mg45 3.177052 1_555
Mg44 Mg59 3.177788 1_555
Mg44 Mg67 3.179780 1_555
Mg44 Mg62 3.180862 1_555
Mg45 Mg60 3.177799 1_655
Mg45 Mg67 3.179857 1_555
Mg45 Mg63 3.180878 1_555
Mg46 Mg47 3.178082 1_555
Mg46 Mg48 3.178098 1_555
Mg46 Mg72 3.181812 1_555
Mg46 Mg71 3.181830 1_555
Mg46 Mg68 3.182342 1_555
Mg46 Mg9 3.184777 1_555
Mg47 Mg48 3.178111 1_555
Mg47 Mg72 3.181842 1_555
Mg47 Mg73 3.181853 1_555
Mg47 Mg69 3.182365 1_555
Mg48 Mg73 3.181818 1_555
Mg48 Mg71 3.181846 1_555
Mg48 Mg70 3.182374 1_555
Mg49 Mg50 3.166699 1_555
Mg49 Mg64 3.173102 1_555
Mg49 Mg54 3.179320 1_545
Mg49 Mg68 3.184831 1_555
Mg49 Mg58 3.185722 1_555
Mg49 Mg65 3.186414 1_555
Mg49 Mg76 3.193255 1_555
Mg49 Mg80 3.196707 1_555
Mg49 Mg75 3.198280 1_555
Mg50 Mg64 3.173106 1_555
Mg50 Mg53 3.179270 1_445
Mg50 Mg68 3.184823 1_555
Mg50 Mg57 3.185780 1_555
Mg50 Mg66 3.186412 1_455
Mg50 Mg76 3.193272 1_555
Mg50 Mg79 3.196718 1_555
Mg50 Mg74 3.198262 1_455
Mg51 Mg53 3.166722 1_555
Mg51 Mg64 3.173039 1_665
Mg51 Mg52 3.179232 1_655
Mg51 Mg69 3.184858 1_555
Mg51 Mg59 3.185756 1_555
Mg51 Mg67 3.186376 1_555
Mg51 Mg94 3.193294 1_555
Mg51 Mg92 3.196741 1_555
Mg51 Mg93 3.198275 1_555
Mg52 Mg54 3.166707 1_555
Mg52 Mg64 3.173055 1_565
Mg52 Mg70 3.184887 1_555
Mg52 Mg60 3.185766 1_555
Mg52 Mg67 3.186368 1_455
Mg52 Mg95 3.193263 1_555
Mg52 Mg91 3.196759 1_555
Mg52 Mg93 3.198217 1_455
Mg53 Mg64 3.173065 1_665
Mg53 Mg69 3.184833 1_555
Mg53 Mg55 3.185817 1_555
Mg53 Mg66 3.186390 1_565
Mg53 Mg94 3.193299 1_555
Mg53 Mg96 3.196765 1_555
Mg53 Mg74 3.198276 1_565
Mg54 Mg64 3.173046 1_565
Mg54 Mg70 3.184855 1_555
Mg54 Mg56 3.185809 1_555
Mg54 Mg65 3.186420 1_565
Mg54 Mg95 3.193232 1_555
Mg54 Mg97 3.196750 1_555
Mg54 Mg75 3.198273 1_565
Mg55 Mg69 3.179212 1_555
Mg55 Mg66 3.179517 1_565
Mg55 Mg61 3.180587 1_565
Mg55 Mg73 3.181012 1_555
Mg55 Mg98 3.182167 1_555
Mg55 Mg96 3.184179 1_555
Mg55 Mg56 3.187000 1_555
Mg55 Mg77 3.188224 1_565
Mg56 Mg70 3.179171 1_555
Mg56 Mg65 3.179576 1_565
Mg56 Mg61 3.180610 1_565
Mg56 Mg73 3.181013 1_555
Mg56 Mg98 3.182229 1_555
Mg56 Mg97 3.184174 1_555
Mg56 Mg78 3.188291 1_565
Mg57 Mg68 3.179195 1_555
Mg57 Mg66 3.179555 1_455
Mg57 Mg63 3.180613 1_455
Mg57 Mg71 3.180997 1_555
Mg57 Mg85 3.182182 1_555
Mg57 Mg79 3.184180 1_555
Mg57 Mg60 3.187037 1_555
Mg57 Mg81 3.188238 1_455
Mg58 Mg68 3.179184 1_555
Mg58 Mg65 3.179557 1_555
Mg58 Mg62 3.180661 1_555
Mg58 Mg72 3.181065 1_555
Mg58 Mg84 3.182204 1_555
Mg58 Mg80 3.184151 1_555
Mg58 Mg59 3.187031 1_555
Mg58 Mg82 3.188255 1_555
Mg59 Mg69 3.179188 1_555
Mg59 Mg67 3.179520 1_555
Mg59 Mg62 3.180650 1_555
Mg59 Mg72 3.181058 1_555
Mg59 Mg84 3.182221 1_555
Mg59 Mg92 3.184194 1_555
Mg59 Mg87 3.188290 1_555
Mg60 Mg70 3.179160 1_555
Mg60 Mg67 3.179590 1_455
Mg60 Mg63 3.180593 1_455
Mg60 Mg71 3.181027 1_555
Mg60 Mg85 3.182248 1_555
Mg60 Mg91 3.184169 1_555
Mg60 Mg88 3.188242 1_455
Mg61 Mg78 3.181819 1_555
Mg61 Mg77 3.181845 1_555
Mg61 Mg66 3.182552 1_555
Mg61 Mg65 3.182564 1_555
Mg61 Mg83 3.184834 1_555
Mg61 Mg62 3.184893 1_555
Mg61 Mg63 3.184902 1_555
Mg62 Mg87 3.181823 1_555
Mg62 Mg82 3.181824 1_555
Mg62 Mg67 3.182514 1_555
Mg62 Mg65 3.182545 1_555
Mg62 Mg83 3.184831 1_555
Mg62 Mg63 3.184870 1_555
Mg63 Mg88 3.181843 1_555
Mg63 Mg81 3.181863 1_555
Mg63 Mg67 3.182560 1_555
Mg63 Mg66 3.182602 1_555
Mg63 Mg83 3.184857 1_555
Mg64 Mg94 3.179054 1_445
Mg64 Mg76 3.179099 1_555
Mg64 Mg95 3.179122 1_545
Mg65 Mg78 3.177643 1_555
Mg65 Mg82 3.177646 1_555
Mg65 Mg75 3.182472 1_555
Mg66 Mg77 3.177659 1_555
Mg66 Mg81 3.177685 1_555
Mg66 Mg74 3.182501 1_555
Mg67 Mg87 3.177663 1_555
Mg67 Mg88 3.177725 1_555
Mg67 Mg93 3.182526 1_555
Mg68 Mg86 3.172425 1_555
Mg68 Mg71 3.177846 1_555
Mg68 Mg72 3.177848 1_555
Mg68 Mg79 3.180674 1_555
Mg68 Mg80 3.180696 1_555
Mg69 Mg89 3.172445 1_555
Mg69 Mg72 3.177857 1_555
Mg69 Mg73 3.177873 1_555
Mg69 Mg96 3.180665 1_555
Mg69 Mg92 3.180678 1_555
Mg70 Mg90 3.172445 1_555
Mg70 Mg73 3.177868 1_555
Mg70 Mg71 3.177874 1_555
Mg70 Mg91 3.180682 1_555
Mg70 Mg97 3.180709 1_555
Mg71 Mg90 3.181087 1_555
Mg71 Mg86 3.181117 1_555
Mg71 Mg72 3.183313 1_555
Mg71 Mg73 3.183340 1_555
Mg71 Mg85 3.184622 1_555
Mg72 Mg86 3.181051 1_555
Mg72 Mg89 3.181062 1_555
Mg72 Mg73 3.183305 1_555
Mg72 Mg84 3.184643 1_555
Mg73 Mg89 3.181098 1_555
Mg73 Mg90 3.181121 1_555
Mg73 Mg98 3.184643 1_555
Mg74 Mg96 3.174814 1_545
Mg74 Mg79 3.174834 1_655
Mg74 Mg94 3.176003 1_545
Mg74 Mg76 3.176034 1_655
Mg74 Mg77 3.183569 1_555
Mg74 Mg81 3.183590 1_555
Mg75 Mg97 3.174795 1_545
Mg75 Mg80 3.174848 1_555
Mg75 Mg95 3.175962 1_545
Mg75 Mg76 3.175988 1_555
Mg75 Mg78 3.183604 1_555
Mg75 Mg82 3.183608 1_555
Mg76 Mg80 3.176301 1_555
Mg76 Mg79 3.176340 1_555
Mg76 Mg94 3.178238 1_445
Mg76 Mg95 3.178329 1_545
Mg77 Mg81 3.165890 1_555
Mg77 Mg83 3.175617 1_555
Mg77 Mg98 3.178903 1_545
Mg77 Mg78 3.185326 1_555
Mg77 Mg96 3.185985 1_545
Mg78 Mg82 3.165905 1_555
Mg78 Mg83 3.175558 1_555
Mg78 Mg98 3.178960 1_545
Mg78 Mg97 3.185981 1_545
Mg79 Mg80 3.181268 1_555
Mg79 Mg86 3.182276 1_555
Mg79 Mg81 3.185992 1_455
Mg79 Mg85 3.186752 1_555
Mg80 Mg86 3.182274 1_555
Mg80 Mg82 3.185997 1_555
Mg80 Mg84 3.186771 1_555
Mg81 Mg83 3.175623 1_555
Mg81 Mg85 3.178900 1_655
Mg81 Mg88 3.185332 1_555
Mg82 Mg83 3.175618 1_555
Mg82 Mg84 3.178927 1_555
Mg82 Mg87 3.185285 1_555
Mg83 Mg87 3.175632 1_555
Mg83 Mg88 3.175653 1_555
Mg84 Mg87 3.178941 1_555
Mg84 Mg92 3.186775 1_555
Mg84 Mg86 3.190329 1_555
Mg84 Mg89 3.190367 1_555
Mg85 Mg88 3.178915 1_455
Mg85 Mg99 3.184622 1_555
Mg85 Mg91 3.186798 1_555
Mg85 Mg90 3.190321 1_555
Mg85 Mg86 3.190373 1_555
Mg86 Mg99 3.181117 1_555
Mg86 Mg89 3.190198 1_555
Mg86 Mg90 3.190249 1_555
Mg87 Mg88 3.165933 1_555
Mg87 Mg93 3.183596 1_555
Mg87 Mg92 3.186017 1_555
Mg88 Mg93 3.183596 1_555
Mg88 Mg91 3.185933 1_655
Mg89 Mg96 3.182281 1_555
Mg89 Mg92 3.182320 1_555
Mg89 Mg90 3.190236 1_555
Mg89 Mg98 3.190341 1_555
Mg90 Mg99 3.181087 1_555
Mg90 Mg91 3.182257 1_555
Mg90 Mg97 3.182332 1_555
Mg90 Mg98 3.190392 1_555
Mg91 Mg93 3.174828 1_455
Mg91 Mg95 3.176296 1_555
Mg91 Mg97 3.181286 1_555
Mg92 Mg93 3.174850 1_555
Mg92 Mg94 3.176335 1_555
Mg92 Mg96 3.181255 1_555
Mg93 Mg95 3.175983 1_655
Mg93 Mg94 3.176008 1_555
Mg94 Mg96 3.176366 1_555
Mg94 Mg95 3.178315 1_655
Mg95 Mg97 3.176260 1_555
Mg96 Mg98 3.186758 1_555
Mg97 Mg98 3.186808 1_555
Mg100 Mg102 3.177848 1_555
Mg100 Mg103 3.177857 1_555
Mg100 Mg86 3.181051 1_555
Mg100 Mg116 3.181058 1_555
Mg100 Mg89 3.181062 1_555
Mg100 Mg115 3.181065 1_555
Mg100 Mg124 3.181812 1_555
Mg100 Mg125 3.181842 1_555
Mg100 Mg101 3.183305 1_555
Mg100 Mg99 3.183313 1_555
Mg100 Mg141 3.184492 1_555
Mg100 Mg84 3.184643 1_555
Mg101 Mg104 3.177868 1_555
Mg101 Mg103 3.177873 1_555
Mg101 Mg112 3.181012 1_555
Mg101 Mg113 3.181013 1_555
Mg101 Mg89 3.181098 1_555
Mg101 Mg90 3.181121 1_555
Mg101 Mg126 3.181818 1_555
Mg101 Mg125 3.181853 1_555
Mg101 Mg99 3.183340 1_555
Mg101 Mg142 3.184421 1_555
Mg101 Mg98 3.184643 1_555
Mg102 Mg86 3.172425 1_555
Mg102 Mg99 3.177846 1_555
Mg102 Mg115 3.179184 1_555
Mg102 Mg114 3.179195 1_555
Mg102 Mg79 3.180674 1_555
Mg102 Mg80 3.180696 1_555
Mg102 Mg124 3.182342 1_555
Mg102 Mg133 3.183619 1_555
Mg102 Mg134 3.183655 1_555
Mg102 Mg119 3.184823 1_555
Mg102 Mg118 3.184831 1_555
Mg103 Mg89 3.172445 1_555
Mg103 Mg116 3.179188 1_555
Mg103 Mg112 3.179212 1_555
Mg103 Mg96 3.180665 1_555
Mg103 Mg92 3.180678 1_555
Mg103 Mg125 3.182365 1_555
Mg103 Mg136 3.183676 1_555
Mg103 Mg137 3.183679 1_555
Mg103 Mg122 3.184833 1_555
Mg103 Mg120 3.184858 1_555
Mg104 Mg90 3.172445 1_555
Mg104 Mg99 3.177874 1_555
Mg104 Mg117 3.179160 1_555
Mg104 Mg113 3.179171 1_555
Mg104 Mg91 3.180682 1_555
Mg104 Mg97 3.180709 1_555
Mg104 Mg126 3.182374 1_555
Mg104 Mg135 3.183647 1_555
Mg104 Mg138 3.183675 1_555
Mg104 Mg123 3.184855 1_555
Mg104 Mg121 3.184887 1_555
Mg105 Mg78 3.177643 1_555
Mg105 Mg82 3.177646 1_555
Mg105 Mg115 3.179557 1_555
Mg105 Mg113 3.179576 1_545
Mg105 Mg129 3.179860 1_555
Mg105 Mg128 3.179866 1_555
Mg105 Mg75 3.182472 1_555
Mg105 Mg110 3.182545 1_555
Mg105 Mg109 3.182564 1_555
Mg105 Mg118 3.186414 1_555
Mg105 Mg123 3.186420 1_545
Mg105 Mg143 3.191759 1_555
Mg106 Mg77 3.177659 1_555
Mg106 Mg81 3.177685 1_555
Mg106 Mg112 3.179517 1_545
Mg106 Mg114 3.179555 1_655
Mg106 Mg127 3.179837 1_555
Mg106 Mg130 3.179853 1_555
Mg106 Mg74 3.182501 1_555
Mg106 Mg109 3.182552 1_555
Mg106 Mg111 3.182602 1_555
Mg106 Mg122 3.186390 1_545
Mg106 Mg119 3.186412 1_655
Mg106 Mg144 3.191734 1_555
Mg107 Mg87 3.177663 1_555
Mg107 Mg88 3.177725 1_555
Mg107 Mg116 3.179520 1_555
Mg107 Mg117 3.179590 1_655
Mg107 Mg131 3.179780 1_555
Mg107 Mg132 3.179857 1_555
Mg107 Mg110 3.182514 1_555
Mg107 Mg93 3.182526 1_555
Mg107 Mg111 3.182560 1_555
Mg107 Mg121 3.186368 1_655
Mg107 Mg120 3.186376 1_555
Mg107 Mg145 3.191692 1_555
Mg108 Mg120 3.173039 1_445
Mg108 Mg123 3.173046 1_545
Mg108 Mg121 3.173055 1_545
Mg108 Mg122 3.173065 1_445
Mg108 Mg118 3.173102 1_555
Mg108 Mg119 3.173106 1_555
Mg108 Mg94 3.179054 1_445
Mg108 Mg76 3.179099 1_555
Mg108 Mg95 3.179122 1_545
Mg108 Mg146 3.209450 1_555
Mg108 Mg147 3.209451 1_545
Mg108 Mg148 3.209467 1_445
Mg109 Mg112 3.180587 1_545
Mg109 Mg113 3.180610 1_545
Mg109 Mg127 3.180887 1_555
Mg109 Mg128 3.180902 1_555
Mg109 Mg78 3.181819 1_555
Mg109 Mg77 3.181845 1_555
Mg109 Mg139 3.184313 1_555
Mg109 Mg83 3.184834 1_555
Mg109 Mg110 3.184893 1_555
Mg109 Mg111 3.184902 1_555
Mg110 Mg116 3.180650 1_555
Mg110 Mg115 3.180661 1_555
Mg110 Mg131 3.180862 1_555
Mg110 Mg129 3.180897 1_555
Mg110 Mg87 3.181823 1_555
Mg110 Mg82 3.181824 1_555
Mg110 Mg139 3.184311 1_555
Mg110 Mg83 3.184831 1_555
Mg110 Mg111 3.184870 1_555
Mg111 Mg117 3.180593 1_655
Mg111 Mg114 3.180613 1_655
Mg111 Mg132 3.180878 1_555
Mg111 Mg130 3.180906 1_555
Mg111 Mg88 3.181843 1_555
Mg111 Mg81 3.181863 1_555
Mg111 Mg139 3.184301 1_555
Mg111 Mg83 3.184857 1_555
Mg112 Mg127 3.177836 1_565
Mg112 Mg137 3.181675 1_555
Mg112 Mg142 3.181797 1_555
Mg112 Mg98 3.182167 1_555
Mg112 Mg96 3.184179 1_555
Mg112 Mg122 3.185817 1_555
Mg112 Mg113 3.187000 1_555
Mg112 Mg77 3.188224 1_565
Mg113 Mg128 3.177837 1_565
Mg113 Mg138 3.181603 1_555
Mg113 Mg142 3.181769 1_555
Mg113 Mg98 3.182229 1_555
Mg113 Mg97 3.184174 1_555
Mg113 Mg123 3.185809 1_555
Mg113 Mg78 3.188291 1_565
Mg114 Mg130 3.177843 1_455
Mg114 Mg99 3.180997 1_555
Mg114 Mg134 3.181630 1_555
Mg114 Mg140 3.181803 1_555
Mg114 Mg85 3.182182 1_555
Mg114 Mg79 3.184180 1_555
Mg114 Mg119 3.185780 1_555
Mg114 Mg117 3.187037 1_555
Mg114 Mg81 3.188238 1_455
Mg115 Mg129 3.177842 1_555
Mg115 Mg133 3.181617 1_555
Mg115 Mg141 3.181789 1_555
Mg115 Mg84 3.182204 1_555
Mg115 Mg80 3.184151 1_555
Mg115 Mg118 3.185722 1_555
Mg115 Mg116 3.187031 1_555
Mg115 Mg82 3.188255 1_555
Mg116 Mg131 3.177788 1_555
Mg116 Mg136 3.181586 1_555
Mg116 Mg141 3.181742 1_555
Mg116 Mg84 3.182221 1_555
Mg116 Mg92 3.184194 1_555
Mg116 Mg120 3.185756 1_555
Mg116 Mg87 3.188290 1_555
Mg117 Mg132 3.177799 1_455
Mg117 Mg99 3.181027 1_555
Mg117 Mg135 3.181599 1_555
Mg117 Mg140 3.181823 1_555
Mg117 Mg85 3.182248 1_555
Mg117 Mg91 3.184169 1_555
Mg117 Mg121 3.185766 1_555
Mg117 Mg88 3.188242 1_455
Mg118 Mg119 3.166699 1_555
Mg118 Mg133 3.168394 1_555
Mg118 Mg143 3.175272 1_555
Mg118 Mg123 3.179320 1_545
Mg118 Mg76 3.193255 1_555
Mg118 Mg80 3.196707 1_555
Mg118 Mg75 3.198280 1_555
Mg118 Mg146 3.217020 1_555
Mg119 Mg134 3.168434 1_555
Mg119 Mg144 3.175287 1_455
Mg119 Mg122 3.179270 1_445
Mg119 Mg76 3.193272 1_555
Mg119 Mg79 3.196718 1_555
Mg119 Mg74 3.198262 1_455
Mg119 Mg146 3.217031 1_555
Mg120 Mg122 3.166722 1_555
Mg120 Mg136 3.168450 1_555
Mg120 Mg145 3.175238 1_555
Mg120 Mg121 3.179232 1_655
Mg120 Mg94 3.193294 1_555
Mg120 Mg92 3.196741 1_555
Mg120 Mg93 3.198275 1_555
Mg120 Mg148 3.216998 1_555
Mg121 Mg123 3.166707 1_555
Mg121 Mg135 3.168466 1_555
Mg121 Mg145 3.175218 1_455
Mg121 Mg95 3.193263 1_555
Mg121 Mg91 3.196759 1_555
Mg121 Mg93 3.198217 1_455
Mg121 Mg147 3.217012 1_555
Mg122 Mg137 3.168447 1_555
Mg122 Mg144 3.175251 1_565
Mg122 Mg94 3.193299 1_555
Mg122 Mg96 3.196765 1_555
Mg122 Mg74 3.198276 1_565
Mg122 Mg148 3.217015 1_555
Mg123 Mg138 3.168454 1_555
Mg123 Mg143 3.175223 1_565
Mg123 Mg95 3.193232 1_555
Mg123 Mg97 3.196750 1_555
Mg123 Mg75 3.198273 1_565
Mg123 Mg147 3.216985 1_555
Mg124 Mg125 3.178082 1_555
Mg124 Mg126 3.178098 1_555
Mg124 Mg133 3.179200 1_555
Mg124 Mg134 3.179228 1_555
Mg124 Mg141 3.181106 1_555
Mg124 Mg140 3.181109 1_555
Mg124 Mg99 3.181830 1_555
Mg124 Mg13 3.181951 1_556
Mg124 Mg9 3.184777 1_556
Mg125 Mg126 3.178111 1_555
Mg125 Mg136 3.179183 1_555
Mg125 Mg137 3.179194 1_555
Mg125 Mg141 3.181094 1_555
Mg125 Mg142 3.181111 1_555
Mg125 Mg13 3.181938 1_556
Mg125 Mg17 3.181978 1_556
Mg125 Mg18 3.184721 1_556
Mg126 Mg135 3.179240 1_555
Mg126 Mg138 3.179245 1_555
Mg126 Mg142 3.181059 1_555
Mg126 Mg140 3.181106 1_555
Mg126 Mg99 3.181846 1_555
Mg126 Mg17 3.181926 1_556
Mg126 Mg19 3.184758 1_556
Mg127 Mg130 3.176997 1_555
Mg127 Mg144 3.177743 1_555
Mg127 Mg6 3.178070 1_556
Mg127 Mg4 3.182111 1_556
Mg127 Mg142 3.182632 1_545
Mg127 Mg137 3.184288 1_545
Mg127 Mg139 3.184393 1_555
Mg127 Mg128 3.191769 1_555
Mg128 Mg129 3.176991 1_555
Mg128 Mg143 3.177719 1_555
Mg128 Mg5 3.178036 1_556
Mg128 Mg4 3.182086 1_556
Mg128 Mg142 3.182680 1_545
Mg128 Mg138 3.184252 1_545
Mg128 Mg139 3.184377 1_555
Mg129 Mg143 3.177752 1_555
Mg129 Mg5 3.178083 1_556
Mg129 Mg8 3.178844 1_556
Mg129 Mg141 3.182638 1_555
Mg129 Mg133 3.184345 1_555
Mg129 Mg139 3.184390 1_555
Mg129 Mg131 3.191716 1_555
Mg130 Mg144 3.177719 1_555
Mg130 Mg6 3.178068 1_556
Mg130 Mg7 3.178820 1_556
Mg130 Mg140 3.182624 1_655
Mg130 Mg134 3.184284 1_655
Mg130 Mg139 3.184390 1_555
Mg130 Mg132 3.191769 1_555
Mg131 Mg132 3.177052 1_555
Mg131 Mg145 3.177735 1_555
Mg131 Mg14 3.178112 1_556
Mg131 Mg15 3.178850 1_556
Mg131 Mg141 3.182607 1_555
Mg131 Mg136 3.184285 1_555
Mg131 Mg139 3.184387 1_555
Mg132 Mg145 3.177723 1_555
Mg132 Mg14 3.178067 1_556
Mg132 Mg16 3.178802 1_556
Mg132 Mg140 3.182631 1_655
Mg132 Mg135 3.184245 1_655
Mg132 Mg139 3.184401 1_555
Mg133 Mg134 3.167100 1_555
Mg133 Mg8 3.171346 1_556
Mg133 Mg9 3.175190 1_556
Mg133 Mg143 3.184040 1_555
Mg133 Mg141 3.184729 1_555
Mg133 Mg3 3.208097 1_556
Mg133 Mg146 3.208473 1_555
Mg134 Mg7 3.171303 1_456
Mg134 Mg9 3.175186 1_556
Mg134 Mg144 3.183967 1_455
Mg134 Mg140 3.184676 1_555
Mg134 Mg2 3.208057 1_556
Mg134 Mg146 3.208526 1_555
Mg135 Mg138 3.167146 1_555
Mg135 Mg16 3.171305 1_456
Mg135 Mg19 3.175172 1_556
Mg135 Mg145 3.183990 1_455
Mg135 Mg140 3.184723 1_555
Mg135 Mg20 3.208042 1_556
Mg135 Mg147 3.208495 1_555
Mg136 Mg137 3.167163 1_555
Mg136 Mg15 3.171308 1_556
Mg136 Mg18 3.175178 1_556
Mg136 Mg145 3.184017 1_555
Mg136 Mg141 3.184641 1_555
Mg136 Mg21 3.208075 1_556
Mg136 Mg148 3.208490 1_555
Mg137 Mg18 3.175177 1_556
Mg137 Mg144 3.183984 1_565
Mg137 Mg142 3.184700 1_555
Mg137 Mg23 3.208009 1_556
Mg137 Mg148 3.208519 1_555
Mg138 Mg19 3.175190 1_556
Mg138 Mg143 3.183966 1_565
Mg138 Mg142 3.184682 1_555
Mg138 Mg22 3.208033 1_556
Mg138 Mg147 3.208521 1_555
Mg139 Mg4 3.179992 1_556
Mg140 Mg99 3.184459 1_555
Mg140 Mg7 3.192043 1_456
Mg140 Mg16 3.192066 1_456
Mg141 Mg15 3.192058 1_556
Mg141 Mg8 3.192097 1_556
Mg142 Mg17 3.177879 1_556
Mg143 Mg5 3.173535 1_556
Mg143 Mg3 3.174342 1_556
Mg143 Mg22 3.174359 1_546
Mg143 Mg147 3.179145 1_545
Mg143 Mg146 3.179158 1_555
Mg144 Mg6 3.173469 1_556
Mg144 Mg2 3.174294 1_656
Mg144 Mg23 3.174323 1_546
Mg144 Mg146 3.179181 1_655
Mg144 Mg148 3.179213 1_545
Mg145 Mg20 3.174330 1_656
Mg145 Mg21 3.174331 1_556
Mg145 Mg147 3.179137 1_655
Mg145 Mg148 3.179154 1_555
Mg146 Mg3 3.112178 1_556
Mg146 Mg2 3.112218 1_556
Mg146 Ti0 3.113053 1_556
Mg146 Mg148 3.119236 1_445
Mg146 Mg147 3.119241 1_545
Mg147 Mg22 3.112174 1_556
Mg147 Mg20 3.112197 1_556
Mg147 Ti0 3.113091 1_566
Mg147 Mg148 3.119230 1_455
Mg148 Mg21 3.112157 1_556
Mg148 Mg23 3.112207 1_556
Mg148 Ti0 3.113065 1_666
