# generated using pymatgen
data_AgH8C2S2BrN4
_symmetry_space_group_name_H-M   'P 1'
_cell_length_a   6.21599800
_cell_length_b   8.59012000
_cell_length_c   38.57459081
_cell_angle_alpha   90.00000000
_cell_angle_beta   92.70107797
_cell_angle_gamma   90.00000000
_symmetry_Int_Tables_number   1
_chemical_formula_structural   AgH8C2S2BrN4
_chemical_formula_sum   'Ag8 H64 C16 S16 Br8 N32'
_cell_volume   2057.44697050
_cell_formula_units_Z   8
loop_
 _symmetry_equiv_pos_site_id
 _symmetry_equiv_pos_as_xyz
  1  'x, y, z'
loop_
 _atom_site_type_symbol
 _atom_site_label
 _atom_site_symmetry_multiplicity
 _atom_site_fract_x
 _atom_site_fract_y
 _atom_site_fract_z
 _atom_site_occupancy
  Ag  Ag0  1  0.71008000  0.80984400  0.59170500  1
  Ag  Ag1  1  0.28992000  0.30984400  0.90829500  1
  Ag  Ag2  1  0.28992000  0.19015600  0.40829500  1
  Ag  Ag3  1  0.71008000  0.69015600  0.09170500  1
  Ag  Ag4  1  0.37852400  0.74887000  0.65666200  1
  Ag  Ag5  1  0.62147600  0.24887000  0.84333800  1
  Ag  Ag6  1  0.62147600  0.25113000  0.34333800  1
  Ag  Ag7  1  0.37852400  0.75113000  0.15666200  1
  H  H0  1  0.35284600  0.99068300  0.78716100  1
  H  H1  1  0.64715400  0.49068300  0.71283900  1
  H  H2  1  0.64715400  0.00931700  0.21283900  1
  H  H3  1  0.35284600  0.50931700  0.28716100  1
  H  H4  1  0.61838900  0.98817000  0.77375900  1
  H  H5  1  0.38161100  0.48817000  0.72624100  1
  H  H6  1  0.38161100  0.01183000  0.22624100  1
  H  H7  1  0.61838900  0.51183000  0.27375900  1
  H  H8  1  0.07827500  0.89687600  0.75284300  1
  H  H9  1  0.92172500  0.39687600  0.74715700  1
  H  H10  1  0.92172500  0.10312400  0.24715700  1
  H  H11  1  0.07827500  0.60312400  0.25284300  1
  H  H12  1  0.12265000  0.82167200  0.71141300  1
  H  H13  1  0.87735000  0.32167200  0.78858700  1
  H  H14  1  0.87735000  0.17832800  0.28858700  1
  H  H15  1  0.12265000  0.67832800  0.21141300  1
  H  H16  1  0.01869300  0.46130900  0.57971600  1
  H  H17  1  0.98130700  0.96130900  0.92028400  1
  H  H18  1  0.98130700  0.53869100  0.42028400  1
  H  H19  1  0.01869300  0.03869100  0.07971600  1
  H  H20  1  0.11325600  0.49466800  0.62272000  1
  H  H21  1  0.88674400  0.99466800  0.87728000  1
  H  H22  1  0.88674400  0.50533200  0.37728000  1
  H  H23  1  0.11325600  0.00533200  0.12272000  1
  H  H24  1  0.26290900  0.46012800  0.53472500  1
  H  H25  1  0.73709100  0.96012800  0.96527500  1
  H  H26  1  0.73709100  0.53987200  0.46527500  1
  H  H27  1  0.26290900  0.03987200  0.03472500  1
  H  H28  1  0.52748900  0.52403900  0.54462500  1
  H  H29  1  0.47251100  0.02403900  0.95537500  1
  H  H30  1  0.47251100  0.47596100  0.45537500  1
  H  H31  1  0.52748900  0.97596100  0.04462500  1
  H  H32  1  0.85419000  0.27338200  0.64971500  1
  H  H33  1  0.14581000  0.77338200  0.85028500  1
  H  H34  1  0.14581000  0.72661800  0.35028500  1
  H  H35  1  0.85419000  0.22661800  0.14971500  1
  H  H36  1  0.74493700  0.12666600  0.62186900  1
  H  H37  1  0.25506300  0.62666600  0.87813100  1
  H  H38  1  0.25506300  0.87333400  0.37813100  1
  H  H39  1  0.74493700  0.37333400  0.12186900  1
  H  H40  1  0.18639500  0.24919500  0.67506500  1
  H  H41  1  0.81360500  0.74919500  0.82493500  1
  H  H42  1  0.81360500  0.75080500  0.32493500  1
  H  H43  1  0.18639500  0.25080500  0.17506500  1
  H  H44  1  0.33619000  0.07471500  0.67074200  1
  H  H45  1  0.66381000  0.57471500  0.82925800  1
  H  H46  1  0.66381000  0.92528500  0.32925800  1
  H  H47  1  0.33619000  0.42528500  0.17074200  1
  H  H48  1  0.76768500  0.23111700  0.49331600  1
  H  H49  1  0.23231500  0.73111700  0.00668400  1
  H  H50  1  0.23231500  0.76888300  0.50668400  1
  H  H51  1  0.76768500  0.26888300  0.99331600  1
  H  H52  1  0.49756600  0.19363100  0.50234200  1
  H  H53  1  0.50243400  0.69363100  0.99765800  1
  H  H54  1  0.50243400  0.80636900  0.49765800  1
  H  H55  1  0.49756600  0.30636900  0.00234200  1
  H  H56  1  0.03951400  0.15636000  0.53001600  1
  H  H57  1  0.96048600  0.65636000  0.96998400  1
  H  H58  1  0.96048600  0.84364000  0.46998400  1
  H  H59  1  0.03951400  0.34364000  0.03001600  1
  H  H60  1  0.99108200  0.06009400  0.56898600  1
  H  H61  1  0.00891800  0.56009400  0.93101400  1
  H  H62  1  0.00891800  0.93990600  0.43101400  1
  H  H63  1  0.99108200  0.43990600  0.06898600  1
  C  C0  1  0.39066100  0.90511100  0.73810200  1
  C  C1  1  0.60933900  0.40511100  0.76189800  1
  C  C2  1  0.60933900  0.09488900  0.26189800  1
  C  C3  1  0.39066100  0.59488900  0.23810200  1
  C  C4  1  0.34050000  0.50967400  0.58631700  1
  C  C5  1  0.65950000  0.00967400  0.91368300  1
  C  C6  1  0.65950000  0.49032600  0.41368300  1
  C  C7  1  0.34050000  0.99032600  0.08631700  1
  C  C8  1  0.04283200  0.08033000  0.64452400  1
  C  C9  1  0.95716800  0.58033000  0.85547600  1
  C  C10  1  0.95716800  0.91967000  0.35547600  1
  C  C11  1  0.04283200  0.41967000  0.14452400  1
  C  C12  1  0.72130000  0.12489900  0.54003900  1
  C  C13  1  0.27870000  0.62489900  0.95996100  1
  C  C14  1  0.27870000  0.87510100  0.45996100  1
  C  C15  1  0.72130000  0.37510100  0.04003900  1
  S  S0  1  0.57232100  0.87544400  0.70655700  1
  S  S1  1  0.42767900  0.37544400  0.79344300  1
  S  S2  1  0.42767900  0.12455600  0.29344300  1
  S  S3  1  0.57232100  0.62455600  0.20655700  1
  S  S4  1  0.54905600  0.56040700  0.61602300  1
  S  S5  1  0.45094400  0.06040700  0.88397700  1
  S  S6  1  0.45094400  0.43959300  0.38397700  1
  S  S7  1  0.54905600  0.93959300  0.11602300  1
  S  S8  1  0.06753600  0.89996800  0.62531100  1
  S  S9  1  0.93246400  0.39996800  0.87468900  1
  S  S10  1  0.93246400  0.10003200  0.37468900  1
  S  S11  1  0.06753600  0.60003200  0.12531100  1
  S  S12  1  0.53337100  0.05598200  0.56756800  1
  S  S13  1  0.46662900  0.55598200  0.93243200  1
  S  S14  1  0.46662900  0.94401800  0.43243200  1
  S  S15  1  0.53337100  0.44401800  0.06756800  1
  Br  Br0  1  0.84882600  0.67520200  0.52589600  1
  Br  Br1  1  0.15117400  0.17520200  0.97410400  1
  Br  Br2  1  0.15117400  0.32479800  0.47410400  1
  Br  Br3  1  0.84882600  0.82479800  0.02589600  1
  Br  Br4  1  0.03876100  0.50927900  0.68579100  1
  Br  Br5  1  0.96123900  0.00927900  0.81420900  1
  Br  Br6  1  0.96123900  0.49072100  0.31420900  1
  Br  Br7  1  0.03876100  0.99072100  0.18579100  1
  N  N0  1  0.46005400  0.96192300  0.76896000  1
  N  N1  1  0.53994600  0.46192300  0.73104000  1
  N  N2  1  0.53994600  0.03807700  0.23104000  1
  N  N3  1  0.46005400  0.53807700  0.26896000  1
  N  N4  1  0.18002700  0.87561500  0.73337900  1
  N  N5  1  0.81997300  0.37561500  0.76662100  1
  N  N6  1  0.81997300  0.12438500  0.26662100  1
  N  N7  1  0.18002700  0.62438500  0.23337900  1
  N  N8  1  0.14473100  0.47927800  0.59716200  1
  N  N9  1  0.85526900  0.97927800  0.90283800  1
  N  N10  1  0.85526900  0.52072200  0.40283800  1
  N  N11  1  0.14473100  0.02072200  0.09716200  1
  N  N12  1  0.37919400  0.49448100  0.55285200  1
  N  N13  1  0.62080600  0.99448100  0.94714800  1
  N  N14  1  0.62080600  0.50551900  0.44714800  1
  N  N15  1  0.37919400  0.00551900  0.05285200  1
  N  N16  1  0.86290800  0.16434400  0.63934000  1
  N  N17  1  0.13709200  0.66434400  0.86066000  1
  N  N18  1  0.13709200  0.83565600  0.36066000  1
  N  N19  1  0.86290800  0.33565600  0.13934000  1
  N  N20  1  0.20367200  0.14083700  0.66427800  1
  N  N21  1  0.79632800  0.64083700  0.83572200  1
  N  N22  1  0.79632800  0.85916300  0.33572200  1
  N  N23  1  0.20367200  0.35916300  0.16427800  1
  N  N24  1  0.65718100  0.18858000  0.50968600  1
  N  N25  1  0.34281900  0.68858000  0.99031400  1
  N  N26  1  0.34281900  0.81142000  0.49031400  1
  N  N27  1  0.65718100  0.31142000  0.00968600  1
  N  N28  1  0.93391300  0.12203700  0.54800000  1
  N  N29  1  0.06608700  0.62203700  0.95200000  1
  N  N30  1  0.06608700  0.87796300  0.45200000  1
  N  N31  1  0.93391300  0.37796300  0.04800000  1
loop_
_geom_bond_atom_site_label_1
_geom_bond_atom_site_label_2
_geom_bond_distance
_geom_bond_site_symmetry_2
Ag0 S12 2.539200 1_565
Ag0 S4 2.561529 1_555
Ag0 S8 2.635414 1_655
Ag0 Br0 2.955017 1_555
Ag1 S13 2.539200 1_555
Ag1 S5 2.561529 1_555
Ag1 S9 2.635414 1_455
Ag1 Br1 2.955017 1_555
Ag2 S14 2.539200 1_545
Ag2 S6 2.561529 1_555
Ag2 S10 2.635414 1_455
Ag2 Br2 2.955017 1_555
Ag3 S15 2.539200 1_555
Ag3 S7 2.561529 1_555
Ag3 S11 2.635414 1_655
Ag3 Br3 2.955017 1_555
Ag4 S0 2.473705 1_555
Ag4 S4 2.521636 1_555
Ag4 S8 2.581423 1_555
Ag5 S1 2.473705 1_555
Ag5 S5 2.521636 1_555
Ag5 S9 2.581423 1_555
Ag6 S2 2.473705 1_555
Ag6 S6 2.521636 1_555
Ag6 S10 2.581423 1_555
Ag7 S3 2.473705 1_555
Ag7 S7 2.521636 1_555
Ag7 S11 2.581423 1_555
H0 N0 1.020866 1_555
H1 N1 1.020866 1_555
H2 N2 1.020866 1_555
H3 N3 1.020866 1_555
H4 N0 1.018136 1_555
H5 N1 1.018136 1_555
H6 N2 1.018136 1_555
H7 N3 1.018136 1_555
H8 N4 1.020726 1_555
H9 N5 1.020726 1_555
H10 N6 1.020726 1_555
H11 N7 1.020726 1_555
H12 N4 1.015581 1_555
H13 N5 1.015581 1_555
H14 N6 1.015581 1_555
H15 N7 1.015581 1_555
H16 N8 1.020207 1_555
H17 N9 1.020207 1_555
H18 N10 1.020207 1_555
H19 N11 1.020207 1_555
H20 N8 1.022699 1_555
H21 N9 1.022699 1_555
H22 N10 1.022699 1_555
H23 N11 1.022699 1_555
H24 N12 1.025116 1_555
H25 N13 1.025116 1_555
H26 N14 1.025116 1_555
H27 N15 1.025116 1_555
H28 N12 1.021015 1_555
H29 N13 1.021015 1_545
H30 N14 1.021015 1_555
H31 N15 1.021015 1_565
H32 N16 1.021010 1_555
H33 N17 1.021010 1_555
H34 N18 1.021010 1_555
H35 N19 1.021010 1_555
H36 N16 1.024747 1_555
H37 N17 1.024747 1_555
H38 N18 1.024747 1_555
H39 N19 1.024747 1_555
H40 N20 1.027274 1_555
H41 N21 1.027274 1_555
H42 N22 1.027274 1_555
H43 N23 1.027274 1_555
H44 N20 1.021748 1_555
H45 N21 1.021748 1_555
H46 N22 1.021748 1_555
H47 N23 1.021748 1_555
H48 N24 1.022237 1_555
H49 N25 1.022237 1_554
H50 N26 1.022237 1_555
H51 N27 1.022237 1_556
H52 N24 1.019824 1_555
H53 N25 1.019824 1_555
H54 N26 1.019824 1_555
H55 N27 1.019824 1_555
H56 N28 1.020777 1_455
H57 N29 1.020777 1_655
H58 N30 1.020777 1_655
H59 N31 1.020777 1_455
H60 N28 1.018641 1_555
H61 N29 1.018641 1_555
H62 N30 1.018641 1_555
H63 N31 1.018641 1_555
C0 N4 1.337601 1_555
C0 N0 1.338928 1_555
C0 S0 1.717622 1_555
C1 N5 1.337601 1_555
C1 N1 1.338928 1_555
C1 S1 1.717622 1_555
C2 N6 1.337601 1_555
C2 N2 1.338928 1_555
C2 S2 1.717622 1_555
C3 N7 1.337601 1_555
C3 N3 1.338928 1_555
C3 S3 1.717622 1_555
C4 N12 1.330626 1_555
C4 N8 1.331169 1_555
C4 S4 1.744592 1_555
C5 N13 1.330626 1_545
C5 N9 1.331169 1_545
C5 S5 1.744592 1_555
C6 N14 1.330626 1_555
C6 N10 1.331169 1_555
C6 S6 1.744592 1_555
C7 N15 1.330626 1_565
C7 N11 1.331169 1_565
C7 S7 1.744592 1_555
C8 N20 1.333626 1_555
C8 N16 1.338126 1_455
C8 S8 1.727430 1_545
C9 N21 1.333626 1_555
C9 N17 1.338126 1_655
C9 S9 1.727430 1_555
C10 N22 1.333626 1_555
C10 N18 1.338126 1_655
C10 S10 1.727430 1_565
C11 N23 1.333626 1_555
C11 N19 1.338126 1_455
C11 S11 1.727430 1_555
C12 N24 1.336042 1_555
C12 N28 1.342866 1_555
C12 S12 1.720370 1_555
C13 N25 1.336042 1_555
C13 N29 1.342866 1_555
C13 S13 1.720370 1_555
C14 N26 1.336042 1_555
C14 N30 1.342866 1_555
C14 S14 1.720370 1_555
C15 N27 1.336042 1_555
C15 N31 1.342866 1_555
C15 S15 1.720370 1_555
