# generated using pymatgen
data_Co3(TeO4)2
_symmetry_space_group_name_H-M   'P 1'
_cell_length_a   13.01880264
_cell_length_b   13.01880264
_cell_length_c   5.00828500
_cell_angle_alpha   90.00000000
_cell_angle_beta   90.00000000
_cell_angle_gamma   120.00000326
_symmetry_Int_Tables_number   1
_chemical_formula_structural   Co3(TeO4)2
_chemical_formula_sum   'Co12 Te8 O32'
_cell_volume   735.12592506
_cell_formula_units_Z   4
loop_
 _symmetry_equiv_pos_site_id
 _symmetry_equiv_pos_as_xyz
  1  'x, y, z'
loop_
 _atom_site_type_symbol
 _atom_site_label
 _atom_site_symmetry_multiplicity
 _atom_site_fract_x
 _atom_site_fract_y
 _atom_site_fract_z
 _atom_site_occupancy
  Co  Co0  1  0.56712900  0.92777800  0.44159800  1
  Co  Co1  1  0.07222200  0.63935100  0.44159800  1
  Co  Co2  1  0.36064900  0.43287100  0.44159800  1
  Co  Co3  1  0.07222200  0.43287100  0.44159800  1
  Co  Co4  1  0.36064900  0.92777800  0.44159800  1
  Co  Co5  1  0.56712900  0.63935100  0.44159800  1
  Co  Co6  1  0.43287100  0.07222200  0.94159800  1
  Co  Co7  1  0.92777800  0.36064900  0.94159800  1
  Co  Co8  1  0.63935100  0.56712900  0.94159800  1
  Co  Co9  1  0.92777800  0.56712900  0.94159800  1
  Co  Co10  1  0.63935100  0.07222200  0.94159800  1
  Co  Co11  1  0.43287100  0.36064900  0.94159800  1
  Te  Te0  1  0.86024000  0.72047900  0.50186600  1
  Te  Te1  1  0.27952100  0.13976000  0.50186600  1
  Te  Te2  1  0.86024000  0.13976000  0.50186600  1
  Te  Te3  1  0.13976000  0.27952100  0.00186600  1
  Te  Te4  1  0.72047900  0.86024000  0.00186600  1
  Te  Te5  1  0.13976000  0.86024000  0.00186600  1
  Te  Te6  1  0.33333300  0.66666700  0.37343300  1
  Te  Te7  1  0.66666700  0.33333300  0.87343300  1
  O  O0  1  0.79416700  0.58833400  0.74423700  1
  O  O1  1  0.41166600  0.20583300  0.74423700  1
  O  O2  1  0.79416700  0.20583300  0.74423700  1
  O  O3  1  0.20583300  0.41166600  0.24423700  1
  O  O4  1  0.58833400  0.79416700  0.24423700  1
  O  O5  1  0.20583300  0.79416700  0.24423700  1
  O  O6  1  0.67280800  0.72672300  0.76564600  1
  O  O7  1  0.27327700  0.94608500  0.76564600  1
  O  O8  1  0.05391500  0.32719200  0.76564600  1
  O  O9  1  0.27327700  0.32719200  0.76564600  1
  O  O10  1  0.05391500  0.72672300  0.76564600  1
  O  O11  1  0.67280800  0.94608500  0.76564600  1
  O  O12  1  0.32719200  0.27327700  0.26564600  1
  O  O13  1  0.72672300  0.05391500  0.26564600  1
  O  O14  1  0.94608500  0.67280800  0.26564600  1
  O  O15  1  0.72672300  0.67280800  0.26564600  1
  O  O16  1  0.94608500  0.27327700  0.26564600  1
  O  O17  1  0.32719200  0.05391500  0.26564600  1
  O  O18  1  0.59641600  0.19283300  0.08533900  1
  O  O19  1  0.80716700  0.40358400  0.08533900  1
  O  O20  1  0.59641600  0.40358400  0.08533900  1
  O  O21  1  0.40358400  0.80716700  0.58533900  1
  O  O22  1  0.19283300  0.59641600  0.58533900  1
  O  O23  1  0.40358400  0.59641600  0.58533900  1
  O  O24  1  0.52174200  0.04348400  0.66661400  1
  O  O25  1  0.95651600  0.47825800  0.66661400  1
  O  O26  1  0.52174200  0.47825800  0.66661400  1
  O  O27  1  0.47825800  0.95651600  0.16661400  1
  O  O28  1  0.04348400  0.52174200  0.16661400  1
  O  O29  1  0.47825800  0.52174200  0.16661400  1
  O  O30  1  0.00000000  0.00000000  0.64213800  1
  O  O31  1  0.00000000  0.00000000  0.14213800  1
loop_
_geom_bond_atom_site_label_1
_geom_bond_atom_site_label_2
_geom_bond_distance
_geom_bond_site_symmetry_2
Co0 O27 1.951450 1_555
Co0 O21 2.043014 1_555
Co0 O11 2.062922 1_555
Co0 O13 2.092416 1_565
Co0 O4 2.135212 1_555
Co0 O24 2.185939 1_565
Co1 O28 1.951450 1_555
Co1 O22 2.043022 1_555
Co1 O10 2.062922 1_555
Co1 O14 2.092416 1_455
Co1 O5 2.135212 1_555
Co1 O25 2.185939 1_455
Co2 O29 1.951450 1_555
Co2 O23 2.043010 1_555
Co2 O9 2.062922 1_555
Co2 O12 2.092416 1_555
Co2 O3 2.135212 1_555
Co2 O26 2.185939 1_555
Co3 O28 1.951450 1_555
Co3 O22 2.043014 1_555
Co3 O8 2.062922 1_555
Co3 O16 2.092416 1_455
Co3 O3 2.135212 1_555
Co3 O25 2.185939 1_455
Co4 O27 1.951450 1_555
Co4 O21 2.043022 1_555
Co4 O7 2.062922 1_555
Co4 O17 2.092416 1_565
Co4 O5 2.135212 1_555
Co4 O24 2.185939 1_565
Co5 O29 1.951450 1_555
Co5 O23 2.043010 1_555
Co5 O6 2.062922 1_555
Co5 O15 2.092416 1_555
Co5 O4 2.135212 1_555
Co5 O26 2.185939 1_555
Co6 O24 1.951450 1_555
Co6 O18 2.043014 1_556
Co6 O17 2.062922 1_556
Co6 O7 2.092416 1_545
Co6 O1 2.135212 1_555
Co6 O27 2.185939 1_546
Co7 O25 1.951450 1_555
Co7 O19 2.043022 1_556
Co7 O16 2.062922 1_556
Co7 O8 2.092416 1_655
Co7 O2 2.135212 1_555
Co7 O28 2.185939 1_656
Co8 O26 1.951450 1_555
Co8 O20 2.043010 1_556
Co8 O15 2.062922 1_556
Co8 O6 2.092416 1_555
Co8 O0 2.135212 1_555
Co8 O29 2.185939 1_556
Co9 O25 1.951450 1_555
Co9 O19 2.043014 1_556
Co9 O14 2.062922 1_556
Co9 O10 2.092416 1_655
Co9 O0 2.135212 1_555
Co9 O28 2.185939 1_656
Co10 O24 1.951450 1_555
Co10 O18 2.043022 1_556
Co10 O13 2.062922 1_556
Co10 O11 2.092416 1_545
Co10 O2 2.135212 1_555
Co10 O27 2.185939 1_546
Co11 O26 1.951450 1_555
Co11 O20 2.043010 1_556
Co11 O12 2.062922 1_556
Co11 O9 2.092416 1_555
Co11 O1 2.135212 1_555
Co11 O29 2.185939 1_556
O0 Te0 1.921774 1_555
O1 Te1 1.921774 1_555
O2 Te2 1.921783 1_555
O3 Te3 1.921774 1_555
O4 Te4 1.921774 1_555
O5 Te5 1.921783 1_555
O6 Te4 1.930663 1_556
O7 Te5 1.930662 1_556
O8 Te3 1.930654 1_556
O9 Te3 1.930663 1_556
O10 Te5 1.930662 1_556
O11 Te4 1.930654 1_556
O12 Te1 1.930663 1_555
O13 Te2 1.930662 1_555
O14 Te0 1.930654 1_555
O15 Te0 1.930663 1_555
O16 Te2 1.930662 1_555
O17 Te1 1.930654 1_555
O18 Te7 1.906737 1_554
O19 Te7 1.906737 1_554
O20 Te7 1.906756 1_554
O21 Te6 1.906737 1_555
O22 Te6 1.906737 1_555
O23 Te6 1.906756 1_555
