# generated using pymatgen
data_Li(FeN)2
_symmetry_space_group_name_H-M   'P 1'
_cell_length_a   4.96166209
_cell_length_b   5.96837600
_cell_length_c   5.94878644
_cell_angle_alpha   90.00000000
_cell_angle_beta   87.29727464
_cell_angle_gamma   90.00000000
_symmetry_Int_Tables_number   1
_chemical_formula_structural   Li(FeN)2
_chemical_formula_sum   'Li4 Fe8 N8'
_cell_volume   175.96584253
_cell_formula_units_Z   4
loop_
 _symmetry_equiv_pos_site_id
 _symmetry_equiv_pos_as_xyz
  1  'x, y, z'
loop_
 _atom_site_type_symbol
 _atom_site_label
 _atom_site_symmetry_multiplicity
 _atom_site_fract_x
 _atom_site_fract_y
 _atom_site_fract_z
 _atom_site_occupancy
  Li  Li0  1  0.36824800  0.46448200  0.86120600  1
  Li  Li1  1  0.63175200  0.96448200  0.63879400  1
  Li  Li2  1  0.63175200  0.53551800  0.13879400  1
  Li  Li3  1  0.36824800  0.03551800  0.36120600  1
  Fe  Fe0  1  0.10098600  0.16305800  0.76506900  1
  Fe  Fe1  1  0.89901400  0.66305800  0.73493100  1
  Fe  Fe2  1  0.89901400  0.83694200  0.23493100  1
  Fe  Fe3  1  0.10098600  0.33694200  0.26506900  1
  Fe  Fe4  1  0.68236100  0.36703300  0.52371500  1
  Fe  Fe5  1  0.31763900  0.86703300  0.97628500  1
  Fe  Fe6  1  0.31763900  0.63296700  0.47628500  1
  Fe  Fe7  1  0.68236100  0.13296700  0.02371500  1
  N  N0  1  0.19898600  0.85390700  0.68462000  1
  N  N1  1  0.80101400  0.35390700  0.81538000  1
  N  N2  1  0.80101400  0.14609300  0.31538000  1
  N  N3  1  0.19898600  0.64609300  0.18462000  1
  N  N4  1  0.29914200  0.32089900  0.53556200  1
  N  N5  1  0.70085800  0.82089900  0.96443800  1
  N  N6  1  0.70085800  0.67910100  0.46443800  1
  N  N7  1  0.29914200  0.17910100  0.03556200  1
loop_
_geom_bond_atom_site_label_1
_geom_bond_atom_site_label_2
_geom_bond_distance
_geom_bond_site_symmetry_2
Li0 N7 2.015173 1_556
Li0 N4 2.160388 1_555
Li0 N1 2.250619 1_555
Li0 N3 2.330082 1_556
Li1 N6 2.015173 1_555
Li1 N5 2.160388 1_555
Li1 N0 2.250619 1_555
Li1 N2 2.330082 1_565
Li2 N5 2.015173 1_554
Li2 N6 2.160388 1_555
Li2 N3 2.250619 1_555
Li2 N1 2.330082 1_554
Li3 N4 2.015173 1_555
Li3 N7 2.160388 1_555
Li3 N2 2.250619 1_555
Li3 N0 2.330082 1_545
Fe0 N1 1.886858 1_455
Fe0 N4 1.895135 1_555
Fe0 N7 1.927235 1_556
Fe0 N0 1.961638 1_545
Fe1 N0 1.886858 1_655
Fe1 N5 1.895135 1_555
Fe1 N6 1.927235 1_555
Fe1 N1 1.961638 1_555
Fe2 N3 1.886858 1_655
Fe2 N6 1.895135 1_555
Fe2 N5 1.927235 1_554
Fe2 N2 1.961638 1_565
Fe3 N2 1.886858 1_455
Fe3 N7 1.895135 1_555
Fe3 N4 1.927235 1_555
Fe3 N3 1.961638 1_555
Fe4 N1 1.859963 1_555
Fe4 N2 1.884831 1_555
Fe4 N6 1.897042 1_555
Fe4 N4 1.919239 1_555
Fe5 N0 1.859963 1_555
Fe5 N3 1.884831 1_556
Fe5 N7 1.897042 1_566
Fe5 N5 1.919239 1_555
Fe6 N3 1.859963 1_555
Fe6 N0 1.884831 1_555
Fe6 N4 1.897042 1_555
Fe6 N6 1.919239 1_555
Fe7 N2 1.859963 1_555
Fe7 N1 1.884831 1_554
Fe7 N5 1.897042 1_544
Fe7 N7 1.919239 1_555
