# generated using pymatgen
data_Te4Mo(WSe)2
_symmetry_space_group_name_H-M   'P 1'
_cell_length_a   3.47326589
_cell_length_b   3.47326589
_cell_length_c   30.51798267
_cell_angle_alpha   90.00000000
_cell_angle_beta   90.00000000
_cell_angle_gamma   119.99999327
_symmetry_Int_Tables_number   1
_chemical_formula_structural   Te4Mo(WSe)2
_chemical_formula_sum   'Te4 Mo1 W2 Se2'
_cell_volume   318.83247092
_cell_formula_units_Z   1
loop_
 _symmetry_equiv_pos_site_id
 _symmetry_equiv_pos_as_xyz
  1  'x, y, z'
loop_
 _atom_site_type_symbol
 _atom_site_label
 _atom_site_symmetry_multiplicity
 _atom_site_fract_x
 _atom_site_fract_y
 _atom_site_fract_z
 _atom_site_occupancy
  Te  Te0  1  0.33333300  0.66666700  0.05658592  1
  Te  Te1  1  0.33333300  0.66666700  0.51713391  1
  Te  Te2  1  0.33333300  0.66666700  0.17609128  1
  Te  Te3  1  0.33333300  0.66666700  0.63705265  1
  Mo  Mo0  1  0.00000000  -0.00000000  0.11631949  1
  W  W0  1  0.00000000  -0.00000000  0.57713969  1
  W  W1  1  0.33333300  0.66666700  0.34751897  1
  Se  Se0  1  0.00000000  -0.00000000  0.40024698  1
  Se  Se1  1  0.00000000  -0.00000000  0.29475111  1
loop_
_geom_bond_atom_site_label_1
_geom_bond_atom_site_label_2
_geom_bond_distance
_geom_bond_site_symmetry_2
Te1 W0 2.715636 1_565
Te1 W0 2.715639 1_555
Te1 W0 2.715639 1_665
Te3 W0 2.713727 1_565
Te3 W0 2.713729 1_665
Te3 W0 2.713729 1_555
Mo0 Te0 2.710041 1_545
Mo0 Te0 2.710044 1_445
Mo0 Te0 2.710044 1_555
Mo0 Te2 2.710826 1_545
Mo0 Te2 2.710828 1_555
Mo0 Te2 2.710828 1_445
Se0 W1 2.571100 1_545
Se0 W1 2.571103 1_445
Se0 W1 2.571103 1_555
Se1 W1 2.571861 1_545
Se1 W1 2.571864 1_445
Se1 W1 2.571864 1_555
