# generated using pymatgen
data_Cs2In(IO3)6
_symmetry_space_group_name_H-M   'P 1'
_cell_length_a   8.00380800
_cell_length_b   8.03230871
_cell_length_c   8.06659846
_cell_angle_alpha   97.34530647
_cell_angle_beta   98.48307902
_cell_angle_gamma   97.91953078
_symmetry_Int_Tables_number   1
_chemical_formula_structural   Cs2In(IO3)6
_chemical_formula_sum   'Cs2 In1 I6 O18'
_cell_volume   502.18332260
_cell_formula_units_Z   1
loop_
 _symmetry_equiv_pos_site_id
 _symmetry_equiv_pos_as_xyz
  1  'x, y, z'
loop_
 _atom_site_type_symbol
 _atom_site_label
 _atom_site_symmetry_multiplicity
 _atom_site_fract_x
 _atom_site_fract_y
 _atom_site_fract_z
 _atom_site_occupancy
  Cs  Cs0  1  0.16924900  0.65814200  0.15491000  1
  Cs  Cs1  1  0.83075100  0.34185800  0.84509000  1
  In  In0  1  0.50000000  0.00000000  0.50000000  1
  I  I0  1  0.70595000  0.83854200  0.13327500  1
  I  I1  1  0.29405000  0.16145800  0.86672500  1
  I  I2  1  0.33559600  0.61791700  0.68211700  1
  I  I3  1  0.66440400  0.38208300  0.31788300  1
  I  I4  1  0.13156200  0.19480800  0.33442800  1
  I  I5  1  0.86843800  0.80519200  0.66557200  1
  O  O0  1  0.54923300  0.83890300  0.28014500  1
  O  O1  1  0.45076700  0.16109700  0.71985500  1
  O  O2  1  0.90238500  0.90356900  0.28991900  1
  O  O3  1  0.09761500  0.09643100  0.71008100  1
  O  O4  1  0.69466200  0.60950600  0.09640300  1
  O  O5  1  0.30533800  0.39049400  0.90359700  1
  O  O6  1  0.33596700  0.76911000  0.52701800  1
  O  O7  1  0.66403300  0.23089000  0.47298200  1
  O  O8  1  0.38117100  0.77331400  0.87706600  1
  O  O9  1  0.61882900  0.22668600  0.12293400  1
  O  O10  1  0.10238000  0.56730400  0.65762800  1
  O  O11  1  0.89762000  0.43269600  0.34237200  1
  O  O12  1  0.28101100  0.03805500  0.32094000  1
  O  O13  1  0.71898900  0.96194500  0.67906000  1
  O  O14  1  0.07834000  0.19506500  0.10848600  1
  O  O15  1  0.92166000  0.80493500  0.89151400  1
  O  O16  1  0.29588300  0.38735300  0.39586100  1
  O  O17  1  0.70411700  0.61264700  0.60413900  1
loop_
_geom_bond_atom_site_label_1
_geom_bond_atom_site_label_2
_geom_bond_distance
_geom_bond_site_symmetry_2
Cs0 O6 3.064530 1_555
Cs0 O12 3.123351 1_565
Cs0 O15 3.142262 1_454
Cs0 O0 3.143233 1_555
Cs0 O8 3.158390 1_554
Cs0 O5 3.178092 1_554
Cs0 O16 3.262397 1_555
Cs0 O11 3.298136 1_455
Cs0 O2 3.306371 1_455
Cs1 O7 3.064530 1_555
Cs1 O13 3.123351 1_545
Cs1 O14 3.142262 1_656
Cs1 O1 3.143233 1_555
Cs1 O9 3.158390 1_556
Cs1 O4 3.178092 1_556
Cs1 O17 3.262397 1_555
Cs1 O10 3.298136 1_655
Cs1 O3 3.306371 1_655
In0 O7 2.174271 1_555
In0 O6 2.174271 1_545
In0 O1 2.175961 1_555
In0 O0 2.175961 1_545
In0 O12 2.182993 1_555
In0 O13 2.182993 1_545
I0 O4 1.813129 1_555
I0 O2 1.833080 1_555
I0 O0 1.848116 1_555
I1 O5 1.813129 1_555
I1 O3 1.833080 1_555
I1 O1 1.848116 1_555
I2 O10 1.830332 1_555
I2 O8 1.835057 1_555
I2 O6 1.851691 1_555
I3 O11 1.830332 1_555
I3 O9 1.835057 1_555
I3 O7 1.851691 1_555
I4 O14 1.809811 1_555
I4 O16 1.848905 1_555
I4 O12 1.856430 1_555
I5 O15 1.809811 1_555
I5 O17 1.848905 1_555
I5 O13 1.856430 1_555
