# generated using pymatgen
data_CsPr2Ti2NbO10
_symmetry_space_group_name_H-M   'P 1'
_cell_length_a   3.88493467
_cell_length_b   3.88493467
_cell_length_c   15.73486686
_cell_angle_alpha   89.58126926
_cell_angle_beta   90.41873074
_cell_angle_gamma   90.14946904
_symmetry_Int_Tables_number   1
_chemical_formula_structural   CsPr2Ti2NbO10
_chemical_formula_sum   'Cs1 Pr2 Ti2 Nb1 O10'
_cell_volume   237.46843951
_cell_formula_units_Z   1
loop_
 _symmetry_equiv_pos_site_id
 _symmetry_equiv_pos_as_xyz
  1  'x, y, z'
loop_
 _atom_site_type_symbol
 _atom_site_label
 _atom_site_symmetry_multiplicity
 _atom_site_fract_x
 _atom_site_fract_y
 _atom_site_fract_z
 _atom_site_occupancy
  Cs  Cs0  1  0.49990000  0.50010000  0.51303800  1
  Pr  Pr0  1  0.51038600  0.48961400  0.84559100  1
  Pr  Pr1  1  0.50834700  0.49165300  0.12767800  1
  Ti  Ti0  1  0.99093000  0.00907000  0.99862700  1
  Ti  Ti1  1  0.00026900  0.99973100  0.71618000  1
  Nb  Nb0  1  0.99920400  0.00079600  0.27892400  1
  O  O0  1  0.98189400  0.01810600  0.87927000  1
  O  O1  1  0.97730400  0.02269600  0.12725200  1
  O  O2  1  0.49869500  0.99843500  0.75164800  1
  O  O3  1  0.00156500  0.50130500  0.75164800  1
  O  O4  1  0.49399600  0.00915700  0.24613100  1
  O  O5  1  0.99084300  0.50600400  0.24613100  1
  O  O6  1  0.99813400  0.00186600  0.60798700  1
  O  O7  1  0.00318400  0.99681600  0.39266000  1
  O  O8  1  0.47758200  0.03823400  0.00861800  1
  O  O9  1  0.96176600  0.52241800  0.00861800  1
loop_
_geom_bond_atom_site_label_1
_geom_bond_atom_site_label_2
_geom_bond_distance
_geom_bond_site_symmetry_2
Cs0 O6 3.108090 1_555
Cs0 O6 3.123961 1_565
Cs0 O6 3.123961 1_455
Cs0 O6 3.152267 1_465
Cs0 O7 3.308757 1_555
Cs0 O7 3.333983 1_655
Cs0 O7 3.333983 1_545
Cs0 O7 3.370720 1_645
Nb0 O7 1.789529 1_645
Nb0 O5 1.994045 1_545
Nb0 O4 1.994045 1_655
Nb0 O5 2.026026 1_555
Nb0 O4 2.026026 1_555
Nb0 O1 2.388336 1_555
O0 Ti0 1.878211 1_555
O0 Pr0 2.642117 1_555
O0 Pr0 2.798890 1_545
O0 Pr0 2.798890 1_655
O0 Pr0 2.960665 1_645
O1 Ti0 2.026058 1_554
O1 Pr1 2.579946 1_555
O1 Pr1 2.748792 1_545
O1 Pr1 2.748792 1_655
O1 Pr1 2.921359 1_645
O2 Ti1 2.011258 1_555
O2 Ti1 2.030827 1_655
O2 Pr0 2.422415 1_565
O2 Pr0 2.459948 1_555
O3 Ti1 2.011258 1_555
O3 Ti1 2.030827 1_545
O3 Pr0 2.422415 1_455
O3 Pr0 2.459948 1_555
O4 Pr1 2.634491 1_555
O4 Pr1 2.752431 1_545
O5 Pr1 2.634491 1_555
O5 Pr1 2.752431 1_655
O6 Ti1 1.702322 1_645
O8 Ti0 1.899147 1_454
O8 Ti0 2.005218 1_554
O8 Pr1 2.582759 1_555
O8 Pr1 2.823607 1_545
O8 Pr0 3.099911 1_554
O9 Ti0 1.899147 1_564
O9 Ti0 2.005218 1_554
O9 Pr1 2.582759 1_555
O9 Pr1 2.823607 1_655
O9 Pr0 3.099911 1_554
