# generated using pymatgen
data_Mg(BC)2
_symmetry_space_group_name_H-M   'P 1'
_cell_length_a   2.76529629
_cell_length_b   4.61477370
_cell_length_c   7.17887141
_cell_angle_alpha   90.00000000
_cell_angle_beta   90.00000000
_cell_angle_gamma   90.00000000
_symmetry_Int_Tables_number   1
_chemical_formula_structural   Mg(BC)2
_chemical_formula_sum   'Mg2 B4 C4'
_cell_volume   91.61113295
_cell_formula_units_Z   2
loop_
 _symmetry_equiv_pos_site_id
 _symmetry_equiv_pos_as_xyz
  1  'x, y, z'
loop_
 _atom_site_type_symbol
 _atom_site_label
 _atom_site_symmetry_multiplicity
 _atom_site_fract_x
 _atom_site_fract_y
 _atom_site_fract_z
 _atom_site_occupancy
  Mg  Mg0  1  0.50000000  0.50000000  0.50000000  1
  Mg  Mg1  1  -0.00000000  -0.00000000  -0.00000000  1
  B  B0  1  0.50000000  0.88345094  0.72962569  1
  B  B1  1  0.50000000  0.11654906  0.27037431  1
  B  B2  1  -0.00000000  0.61654906  0.22962569  1
  B  B3  1  -0.00000000  0.38345094  0.77037431  1
  C  C0  1  0.50000000  0.78547600  0.22034042  1
  C  C1  1  0.50000000  0.21452400  0.77965958  1
  C  C2  1  -0.00000000  0.71452400  0.72034042  1
  C  C3  1  -0.00000000  0.28547600  0.27965958  1
loop_
_geom_bond_atom_site_label_1
_geom_bond_atom_site_label_2
_geom_bond_distance
_geom_bond_site_symmetry_2
B0 C1 1.569481 1_565
B0 C2 1.588670 1_555
B0 C2 1.588670 1_655
B0 Mg0 2.418402 1_555
B0 Mg1 2.443033 1_566
B0 Mg1 2.443033 1_666
B1 C0 1.569481 1_545
B1 C3 1.588670 1_555
B1 C3 1.588670 1_655
B1 Mg0 2.418402 1_555
B1 Mg1 2.443033 1_655
B1 Mg1 2.443033 1_555
B2 C3 1.569481 1_555
B2 C0 1.588670 1_555
B2 C0 1.588670 1_455
B2 Mg1 2.418402 1_565
B2 Mg0 2.443033 1_455
B2 Mg0 2.443033 1_555
B3 C2 1.569481 1_555
B3 C1 1.588670 1_555
B3 C1 1.588670 1_455
B3 Mg1 2.418402 1_556
B3 Mg0 2.443033 1_455
B3 Mg0 2.443033 1_555
C0 Mg1 2.322467 1_565
C0 Mg1 2.322467 1_665
C0 Mg0 2.401287 1_555
C1 Mg1 2.322467 1_656
C1 Mg1 2.322467 1_556
C1 Mg0 2.401287 1_555
C2 Mg0 2.322467 1_455
C2 Mg0 2.322467 1_555
C2 Mg1 2.401287 1_566
C3 Mg0 2.322467 1_455
C3 Mg0 2.322467 1_555
C3 Mg1 2.401287 1_555
