# generated using pymatgen
data_Y5Ru2
_symmetry_space_group_name_H-M   'P 1'
_cell_length_a   6.35856600
_cell_length_b   7.31397399
_cell_length_c   8.53199101
_cell_angle_alpha   96.59010088
_cell_angle_beta   111.87795993
_cell_angle_gamma   90.00000000
_symmetry_Int_Tables_number   1
_chemical_formula_structural   Y5Ru2
_chemical_formula_sum   'Y10 Ru4'
_cell_volume   365.38822038
_cell_formula_units_Z   2
loop_
 _symmetry_equiv_pos_site_id
 _symmetry_equiv_pos_as_xyz
  1  'x, y, z'
loop_
 _atom_site_type_symbol
 _atom_site_label
 _atom_site_symmetry_multiplicity
 _atom_site_fract_x
 _atom_site_fract_y
 _atom_site_fract_z
 _atom_site_occupancy
  Y  Y0  1  0.97855800  0.91537400  0.18707500  1
  Y  Y1  1  0.79148300  0.58462600  0.81292500  1
  Y  Y2  1  0.02144200  0.08462600  0.81292500  1
  Y  Y3  1  0.20851700  0.41537400  0.18707500  1
  Y  Y4  1  0.64108200  0.81484100  0.43484300  1
  Y  Y5  1  0.20623900  0.68515900  0.56515700  1
  Y  Y6  1  0.35891800  0.18515900  0.56515700  1
  Y  Y7  1  0.79376100  0.31484100  0.43484300  1
  Y  Y8  1  0.42033900  0.75000000  0.00000000  1
  Y  Y9  1  0.57966100  0.25000000  0.00000000  1
  Ru  Ru0  1  0.82273400  0.57593800  0.21981200  1
  Ru  Ru1  1  0.60292200  0.92406200  0.78018800  1
  Ru  Ru2  1  0.17726600  0.42406200  0.78018800  1
  Ru  Ru3  1  0.39707800  0.07593800  0.21981200  1
loop_
_geom_bond_atom_site_label_1
_geom_bond_atom_site_label_2
_geom_bond_distance
_geom_bond_site_symmetry_2
Ru0 Y0 2.754737 1_555
Ru0 Y3 2.812439 1_655
Ru0 Y7 2.846525 1_555
Ru0 Y9 2.898732 1_555
Ru0 Y4 2.932009 1_555
Ru0 Y8 2.942199 1_555
Ru0 Y5 3.061262 1_655
Ru0 Y1 3.410535 1_554
Ru1 Y1 2.754737 1_555
Ru1 Y2 2.812439 1_665
Ru1 Y6 2.846525 1_565
Ru1 Y9 2.898732 1_566
Ru1 Y5 2.932009 1_555
Ru1 Y8 2.942199 1_556
Ru1 Y4 3.061262 1_555
Ru1 Y0 3.410535 1_556
Ru2 Y2 2.754737 1_555
Ru2 Y1 2.812439 1_455
Ru2 Y5 2.846525 1_555
Ru2 Y8 2.898732 1_556
Ru2 Y6 2.932009 1_555
Ru2 Y9 2.942199 1_556
Ru2 Y7 3.061262 1_455
Ru2 Y3 3.410535 1_556
Ru3 Y3 2.754737 1_555
Ru3 Y0 2.812439 1_445
Ru3 Y4 2.846525 1_545
Ru3 Y8 2.898732 1_545
Ru3 Y7 2.932009 1_555
Ru3 Y9 2.942199 1_555
Ru3 Y6 3.061262 1_555
Ru3 Y2 3.410535 1_554
