# generated using pymatgen
data_K2CoP4(HO2)8
_symmetry_space_group_name_H-M   'P 1'
_cell_length_a   6.80062468
_cell_length_b   7.31247713
_cell_length_c   7.46962569
_cell_angle_alpha   80.11169487
_cell_angle_beta   72.52648377
_cell_angle_gamma   83.34489674
_symmetry_Int_Tables_number   1
_chemical_formula_structural   K2CoP4(HO2)8
_chemical_formula_sum   'K2 Co1 P4 H8 O16'
_cell_volume   348.23688298
_cell_formula_units_Z   1
loop_
 _symmetry_equiv_pos_site_id
 _symmetry_equiv_pos_as_xyz
  1  'x, y, z'
loop_
 _atom_site_type_symbol
 _atom_site_label
 _atom_site_symmetry_multiplicity
 _atom_site_fract_x
 _atom_site_fract_y
 _atom_site_fract_z
 _atom_site_occupancy
  K  K0  1  0.10733312  0.73733422  0.30674350  1
  K  K1  1  0.89266688  0.26266578  0.69325650  1
  Co  Co0  1  0.50000000  0.50000000  0.50000000  1
  P  P0  1  0.67910608  0.72605110  0.75839303  1
  P  P1  1  0.32089392  0.27394890  0.24160697  1
  P  P2  1  0.24916472  0.81218559  0.76356924  1
  P  P3  1  0.75083528  0.18781441  0.23643076  1
  H  H0  1  0.75356136  0.95547385  0.52891321  1
  H  H1  1  0.24643864  0.04452615  0.47108679  1
  H  H2  1  0.94389636  0.72741816  0.93519833  1
  H  H3  1  0.05610364  0.27258184  0.06480167  1
  H  H4  1  0.37339214  0.32289909  0.85572667  1
  H  H5  1  0.62660786  0.67710091  0.14427333  1
  H  H6  1  0.38571623  0.18332309  0.71085621  1
  H  H7  1  0.61428377  0.81667691  0.28914379  1
  O  O0  1  0.43787408  0.76921884  0.85513414  1
  O  O1  1  0.56212592  0.23078116  0.14486586  1
  O  O2  1  0.70735626  0.60432070  0.60942321  1
  O  O3  1  0.29264374  0.39567930  0.39057679  1
  O  O4  1  0.76370744  0.64829702  0.92124750  1
  O  O5  1  0.23629256  0.35170298  0.07875250  1
  O  O6  1  0.76972904  0.91782464  0.66413803  1
  O  O7  1  0.23027096  0.08217536  0.33586197  1
  O  O8  1  0.25550348  0.67341355  0.63609460  1
  O  O9  1  0.74449652  0.32658645  0.36390540  1
  O  O10  1  0.06648997  0.79021132  0.94721503  1
  O  O11  1  0.93351003  0.20978868  0.05278497  1
  O  O12  1  0.25795812  0.01199844  0.66781383  1
  O  O13  1  0.74204188  0.98800156  0.33218617  1
  O  O14  1  0.44900748  0.29094583  0.72873101  1
  O  O15  1  0.55099252  0.70905417  0.27126899  1
loop_
_geom_bond_atom_site_label_1
_geom_bond_atom_site_label_2
_geom_bond_distance
_geom_bond_site_symmetry_2
K0 O3 2.725590 1_555
K0 O10 2.739565 1_554
K0 O7 2.809130 1_565
K0 O8 2.875874 1_555
K0 O13 2.889287 1_455
K0 O15 2.934335 1_555
K0 O2 3.101842 1_455
K1 O2 2.725590 1_555
K1 O11 2.739565 1_556
K1 O6 2.809130 1_545
K1 O9 2.875874 1_555
K1 O12 2.889287 1_655
K1 O14 2.934335 1_555
K1 O3 3.101842 1_655
Co0 O14 2.060655 1_555
Co0 O15 2.060655 1_555
Co0 O8 2.084489 1_555
Co0 O9 2.084489 1_555
Co0 O3 2.096227 1_555
Co0 O2 2.096227 1_555
H0 O6 1.035525 1_555
H0 O13 1.472020 1_555
H1 O7 1.035525 1_555
H1 O12 1.472020 1_555
H2 O10 1.030438 1_655
H2 O4 1.452214 1_555
H3 O11 1.030438 1_455
H3 O5 1.452214 1_555
H4 O14 0.987029 1_555
H4 O5 1.682611 1_556
H5 O15 0.987029 1_555
H5 O4 1.682611 1_554
H6 O14 0.985675 1_555
H7 O15 0.985675 1_555
O0 P0 1.599861 1_555
O0 P2 1.604159 1_555
O1 P1 1.599861 1_555
O1 P3 1.604159 1_555
O2 P0 1.496551 1_555
O3 P1 1.496551 1_555
O4 P0 1.496998 1_555
O5 P1 1.496998 1_555
O6 P0 1.562917 1_555
O7 P1 1.562917 1_555
O8 P2 1.495108 1_555
O9 P3 1.495108 1_555
O10 P2 1.548563 1_555
O11 P3 1.548563 1_555
O12 P2 1.511849 1_545
O13 P3 1.511849 1_565
