# generated using pymatgen
data_Pr2FeAs2RuO2
_symmetry_space_group_name_H-M   'P 1'
_cell_length_a   4.05074300
_cell_length_b   4.05074300
_cell_length_c   8.97259900
_cell_angle_alpha   90.00000000
_cell_angle_beta   90.00000000
_cell_angle_gamma   90.00000000
_symmetry_Int_Tables_number   1
_chemical_formula_structural   Pr2FeAs2RuO2
_chemical_formula_sum   'Pr2 Fe1 As2 Ru1 O2'
_cell_volume   147.22705984
_cell_formula_units_Z   1
loop_
 _symmetry_equiv_pos_site_id
 _symmetry_equiv_pos_as_xyz
  1  'x, y, z'
loop_
 _atom_site_type_symbol
 _atom_site_label
 _atom_site_symmetry_multiplicity
 _atom_site_fract_x
 _atom_site_fract_y
 _atom_site_fract_z
 _atom_site_occupancy
  Pr  Pr0  1  0.50000000  0.00000000  0.86504500  1
  Pr  Pr1  1  0.00000000  0.50000000  0.13495500  1
  Fe  Fe0  1  0.50000000  0.50000000  0.50000000  1
  As  As0  1  0.50000000  0.00000000  0.33064400  1
  As  As1  1  0.00000000  0.50000000  0.66935600  1
  Ru  Ru0  1  0.00000000  0.00000000  0.50000000  1
  O  O0  1  0.50000000  0.50000000  0.00000000  1
  O  O1  1  0.00000000  0.00000000  0.00000000  1
loop_
_geom_bond_atom_site_label_1
_geom_bond_atom_site_label_2
_geom_bond_distance
_geom_bond_site_symmetry_2
Fe0 Ru0 2.864308 1_555
Fe0 Ru0 2.864308 1_565
Fe0 Ru0 2.864308 1_665
Fe0 Ru0 2.864308 1_655
As0 Fe0 2.532035 1_555
As0 Ru0 2.532035 1_655
As0 Fe0 2.532035 1_545
As0 Ru0 2.532035 1_555
As0 Pr1 3.359647 1_655
As0 Pr1 3.359647 1_545
As0 Pr1 3.359647 1_555
As0 Pr1 3.359647 1_645
As1 Fe0 2.532035 1_455
As1 Fe0 2.532035 1_555
As1 Ru0 2.532035 1_565
As1 Ru0 2.532035 1_555
As1 Pr0 3.359647 1_465
As1 Pr0 3.359647 1_455
As1 Pr0 3.359647 1_555
As1 Pr0 3.359647 1_565
O0 Pr1 2.359746 1_555
O0 Pr1 2.359746 1_655
O0 Pr0 2.359746 1_564
O0 Pr0 2.359746 1_554
O1 Pr1 2.359746 1_545
O1 Pr1 2.359746 1_555
O1 Pr0 2.359746 1_454
O1 Pr0 2.359746 1_554
