# generated using pymatgen
data_Nb6PbS8
_symmetry_space_group_name_H-M   'P 1'
_cell_length_a   19.36088727
_cell_length_b   19.36088727
_cell_length_c   6.84175400
_cell_angle_alpha   90.00000000
_cell_angle_beta   90.00000000
_cell_angle_gamma   119.99999749
_symmetry_Int_Tables_number   1
_chemical_formula_structural   Nb6PbS8
_chemical_formula_sum   'Nb48 Pb8 S64'
_cell_volume   2221.00026198
_cell_formula_units_Z   8
loop_
 _symmetry_equiv_pos_site_id
 _symmetry_equiv_pos_as_xyz
  1  'x, y, z'
loop_
 _atom_site_type_symbol
 _atom_site_label
 _atom_site_symmetry_multiplicity
 _atom_site_fract_x
 _atom_site_fract_y
 _atom_site_fract_z
 _atom_site_occupancy
  Nb  Nb0_0  1  0.31253100  0.25639550  0.12564350  1
  Nb  Nb0_1  1  0.31253100  0.25639550  0.62564350  1
  Nb  Nb0_2  1  0.31253100  0.75639550  0.12564350  1
  Nb  Nb0_3  1  0.31253100  0.75639550  0.62564350  1
  Nb  Nb0_4  1  0.81253100  0.25639550  0.12564350  1
  Nb  Nb0_5  1  0.81253100  0.25639550  0.62564350  1
  Nb  Nb0_6  1  0.81253100  0.75639550  0.12564350  1
  Nb  Nb0_7  1  0.81253100  0.75639550  0.62564350  1
  Nb  Nb1_0  1  0.44386450  0.18746900  0.12564350  1
  Nb  Nb1_1  1  0.44386450  0.18746900  0.62564350  1
  Nb  Nb1_2  1  0.44386450  0.68746900  0.12564350  1
  Nb  Nb1_3  1  0.44386450  0.68746900  0.62564350  1
  Nb  Nb1_4  1  0.94386450  0.18746900  0.12564350  1
  Nb  Nb1_5  1  0.94386450  0.18746900  0.62564350  1
  Nb  Nb1_6  1  0.94386450  0.68746900  0.12564350  1
  Nb  Nb1_7  1  0.94386450  0.68746900  0.62564350  1
  Nb  Nb2_0  1  0.24360450  0.05613550  0.12564350  1
  Nb  Nb2_1  1  0.24360450  0.05613550  0.62564350  1
  Nb  Nb2_2  1  0.24360450  0.55613550  0.12564350  1
  Nb  Nb2_3  1  0.24360450  0.55613550  0.62564350  1
  Nb  Nb2_4  1  0.74360450  0.05613550  0.12564350  1
  Nb  Nb2_5  1  0.74360450  0.05613550  0.62564350  1
  Nb  Nb2_6  1  0.74360450  0.55613550  0.12564350  1
  Nb  Nb2_7  1  0.74360450  0.55613550  0.62564350  1
  Nb  Nb3_0  1  0.18746900  0.24360450  0.37435650  1
  Nb  Nb3_1  1  0.18746900  0.24360450  0.87435650  1
  Nb  Nb3_2  1  0.18746900  0.74360450  0.37435650  1
  Nb  Nb3_3  1  0.18746900  0.74360450  0.87435650  1
  Nb  Nb3_4  1  0.68746900  0.24360450  0.37435650  1
  Nb  Nb3_5  1  0.68746900  0.24360450  0.87435650  1
  Nb  Nb3_6  1  0.68746900  0.74360450  0.37435650  1
  Nb  Nb3_7  1  0.68746900  0.74360450  0.87435650  1
  Nb  Nb4_0  1  0.05613550  0.31253100  0.37435650  1
  Nb  Nb4_1  1  0.05613550  0.31253100  0.87435650  1
  Nb  Nb4_2  1  0.05613550  0.81253100  0.37435650  1
  Nb  Nb4_3  1  0.05613550  0.81253100  0.87435650  1
  Nb  Nb4_4  1  0.55613550  0.31253100  0.37435650  1
  Nb  Nb4_5  1  0.55613550  0.31253100  0.87435650  1
  Nb  Nb4_6  1  0.55613550  0.81253100  0.37435650  1
  Nb  Nb4_7  1  0.55613550  0.81253100  0.87435650  1
  Nb  Nb5_0  1  0.25639550  0.44386450  0.37435650  1
  Nb  Nb5_1  1  0.25639550  0.44386450  0.87435650  1
  Nb  Nb5_2  1  0.25639550  0.94386450  0.37435650  1
  Nb  Nb5_3  1  0.25639550  0.94386450  0.87435650  1
  Nb  Nb5_4  1  0.75639550  0.44386450  0.37435650  1
  Nb  Nb5_5  1  0.75639550  0.44386450  0.87435650  1
  Nb  Nb5_6  1  0.75639550  0.94386450  0.37435650  1
  Nb  Nb5_7  1  0.75639550  0.94386450  0.87435650  1
  Pb  Pb0_0  1  0.00000000  0.00000000  0.25000000  1
  Pb  Pb0_1  1  0.00000000  0.00000000  0.75000000  1
  Pb  Pb0_2  1  0.00000000  0.50000000  0.25000000  1
  Pb  Pb0_3  1  0.00000000  0.50000000  0.75000000  1
  Pb  Pb0_4  1  0.50000000  0.00000000  0.25000000  1
  Pb  Pb0_5  1  0.50000000  0.00000000  0.75000000  1
  Pb  Pb0_6  1  0.50000000  0.50000000  0.25000000  1
  Pb  Pb0_7  1  0.50000000  0.50000000  0.75000000  1
  S  S0_0  1  0.16666650  0.33333350  0.12472850  1
  S  S0_1  1  0.16666650  0.33333350  0.62472850  1
  S  S0_2  1  0.16666650  0.83333350  0.12472850  1
  S  S0_3  1  0.16666650  0.83333350  0.62472850  1
  S  S0_4  1  0.66666650  0.33333350  0.12472850  1
  S  S0_5  1  0.66666650  0.33333350  0.62472850  1
  S  S0_6  1  0.66666650  0.83333350  0.12472850  1
  S  S0_7  1  0.66666650  0.83333350  0.62472850  1
  S  S1_0  1  0.33333350  0.16666650  0.37527150  1
  S  S1_1  1  0.33333350  0.16666650  0.87527150  1
  S  S1_2  1  0.33333350  0.66666650  0.37527150  1
  S  S1_3  1  0.33333350  0.66666650  0.87527150  1
  S  S1_4  1  0.83333350  0.16666650  0.37527150  1
  S  S1_5  1  0.83333350  0.16666650  0.87527150  1
  S  S1_6  1  0.83333350  0.66666650  0.37527150  1
  S  S1_7  1  0.83333350  0.66666650  0.87527150  1
  S  S2_0  1  0.47265250  0.32935300  0.12379600  1
  S  S2_1  1  0.47265250  0.32935300  0.62379600  1
  S  S2_2  1  0.47265250  0.82935300  0.12379600  1
  S  S2_3  1  0.47265250  0.82935300  0.62379600  1
  S  S2_4  1  0.97265250  0.32935300  0.12379600  1
  S  S2_5  1  0.97265250  0.32935300  0.62379600  1
  S  S2_6  1  0.97265250  0.82935300  0.12379600  1
  S  S2_7  1  0.97265250  0.82935300  0.62379600  1
  S  S3_0  1  0.35670050  0.02734750  0.12379600  1
  S  S3_1  1  0.35670050  0.02734750  0.62379600  1
  S  S3_2  1  0.35670050  0.52734750  0.12379600  1
  S  S3_3  1  0.35670050  0.52734750  0.62379600  1
  S  S3_4  1  0.85670050  0.02734750  0.12379600  1
  S  S3_5  1  0.85670050  0.02734750  0.62379600  1
  S  S3_6  1  0.85670050  0.52734750  0.12379600  1
  S  S3_7  1  0.85670050  0.52734750  0.62379600  1
  S  S4_0  1  0.17064700  0.14329950  0.12379600  1
  S  S4_1  1  0.17064700  0.14329950  0.62379600  1
  S  S4_2  1  0.17064700  0.64329950  0.12379600  1
  S  S4_3  1  0.17064700  0.64329950  0.62379600  1
  S  S4_4  1  0.67064700  0.14329950  0.12379600  1
  S  S4_5  1  0.67064700  0.14329950  0.62379600  1
  S  S4_6  1  0.67064700  0.64329950  0.12379600  1
  S  S4_7  1  0.67064700  0.64329950  0.62379600  1
  S  S5_0  1  0.02734750  0.17064700  0.37620400  1
  S  S5_1  1  0.02734750  0.17064700  0.87620400  1
  S  S5_2  1  0.02734750  0.67064700  0.37620400  1
  S  S5_3  1  0.02734750  0.67064700  0.87620400  1
  S  S5_4  1  0.52734750  0.17064700  0.37620400  1
  S  S5_5  1  0.52734750  0.17064700  0.87620400  1
  S  S5_6  1  0.52734750  0.67064700  0.37620400  1
  S  S5_7  1  0.52734750  0.67064700  0.87620400  1
  S  S6_0  1  0.14329950  0.47265250  0.37620400  1
  S  S6_1  1  0.14329950  0.47265250  0.87620400  1
  S  S6_2  1  0.14329950  0.97265250  0.37620400  1
  S  S6_3  1  0.14329950  0.97265250  0.87620400  1
  S  S6_4  1  0.64329950  0.47265250  0.37620400  1
  S  S6_5  1  0.64329950  0.47265250  0.87620400  1
  S  S6_6  1  0.64329950  0.97265250  0.37620400  1
  S  S6_7  1  0.64329950  0.97265250  0.87620400  1
  S  S7_0  1  0.32935300  0.35670050  0.37620400  1
  S  S7_1  1  0.32935300  0.35670050  0.87620400  1
  S  S7_2  1  0.32935300  0.85670050  0.37620400  1
  S  S7_3  1  0.32935300  0.85670050  0.87620400  1
  S  S7_4  1  0.82935300  0.35670050  0.37620400  1
  S  S7_5  1  0.82935300  0.35670050  0.87620400  1
  S  S7_6  1  0.82935300  0.85670050  0.37620400  1
  S  S7_7  1  0.82935300  0.85670050  0.87620400  1
loop_
_geom_bond_atom_site_label_1
_geom_bond_atom_site_label_2
_geom_bond_distance
_geom_bond_site_symmetry_2
Nb0_0 S7_1 2.481416 1_554
Nb0_0 S7_0 2.486697 1_555
Nb0_0 S4_0 2.515104 1_555
Nb0_0 S1_0 2.607061 1_555
Nb0_0 S1_1 2.610399 1_554
Nb0_0 S2_0 2.688310 1_555
Nb0_1 S7_0 2.481416 1_555
Nb0_1 S7_1 2.486697 1_555
Nb0_1 S4_1 2.515104 1_555
Nb0_1 S1_1 2.607061 1_555
Nb0_1 S1_0 2.610399 1_555
Nb0_1 S2_1 2.688310 1_555
Nb0_2 S7_3 2.481416 1_554
Nb0_2 S7_2 2.486697 1_555
Nb0_2 S4_2 2.515104 1_555
Nb0_2 S1_2 2.607061 1_555
Nb0_2 S1_3 2.610399 1_554
Nb0_2 S2_2 2.688310 1_555
Nb0_3 S7_2 2.481416 1_555
Nb0_3 S7_3 2.486697 1_555
Nb0_3 S4_3 2.515104 1_555
Nb0_3 S1_3 2.607061 1_555
Nb0_3 S1_2 2.610399 1_555
Nb0_3 S2_3 2.688310 1_555
Nb0_4 S7_5 2.481416 1_554
Nb0_4 S7_4 2.486697 1_555
Nb0_4 S4_4 2.515104 1_555
Nb0_4 S1_4 2.607061 1_555
Nb0_4 S1_5 2.610399 1_554
Nb0_4 S2_4 2.688310 1_555
Nb0_5 S7_4 2.481416 1_555
Nb0_5 S7_5 2.486697 1_555
Nb0_5 S4_5 2.515104 1_555
Nb0_5 S1_5 2.607061 1_555
Nb0_5 S1_4 2.610399 1_555
Nb0_5 S2_5 2.688310 1_555
Nb0_6 S7_7 2.481416 1_554
Nb0_6 S7_6 2.486697 1_555
Nb0_6 S4_6 2.515104 1_555
Nb0_6 S1_6 2.607061 1_555
Nb0_6 S1_7 2.610399 1_554
Nb0_6 S2_6 2.688310 1_555
Nb0_7 S7_6 2.481416 1_555
Nb0_7 S7_7 2.486697 1_555
Nb0_7 S4_7 2.515104 1_555
Nb0_7 S1_7 2.607061 1_555
Nb0_7 S1_6 2.610399 1_555
Nb0_7 S2_7 2.688310 1_555
Nb1_0 S5_5 2.481416 1_554
Nb1_0 S5_4 2.486697 1_555
Nb1_0 S2_0 2.515104 1_555
Nb1_0 S1_0 2.607054 1_555
Nb1_0 S1_1 2.610392 1_554
Nb1_0 S3_0 2.688310 1_555
Nb1_1 S5_4 2.481416 1_555
Nb1_1 S5_5 2.486697 1_555
Nb1_1 S2_1 2.515104 1_555
Nb1_1 S1_1 2.607054 1_555
Nb1_1 S1_0 2.610392 1_555
Nb1_1 S3_1 2.688310 1_555
Nb1_2 S5_7 2.481416 1_554
Nb1_2 S5_6 2.486697 1_555
Nb1_2 S2_2 2.515104 1_555
Nb1_2 S1_2 2.607054 1_555
Nb1_2 S1_3 2.610392 1_554
Nb1_2 S3_2 2.688310 1_555
Nb1_3 S5_6 2.481416 1_555
Nb1_3 S5_7 2.486697 1_555
Nb1_3 S2_3 2.515104 1_555
Nb1_3 S1_3 2.607054 1_555
Nb1_3 S1_2 2.610392 1_555
Nb1_3 S3_3 2.688310 1_555
Nb1_4 S5_1 2.481416 1_654
Nb1_4 S5_0 2.486697 1_655
Nb1_4 S2_4 2.515104 1_555
Nb1_4 S1_4 2.607054 1_555
Nb1_4 S1_5 2.610392 1_554
Nb1_4 S3_4 2.688310 1_555
Nb1_5 S5_0 2.481416 1_655
Nb1_5 S5_1 2.486697 1_655
Nb1_5 S2_5 2.515104 1_555
Nb1_5 S1_5 2.607054 1_555
Nb1_5 S1_4 2.610392 1_555
Nb1_5 S3_5 2.688310 1_555
Nb1_6 S5_3 2.481416 1_654
Nb1_6 S5_2 2.486697 1_655
Nb1_6 S2_6 2.515104 1_555
Nb1_6 S1_6 2.607054 1_555
Nb1_6 S1_7 2.610392 1_554
Nb1_6 S3_6 2.688310 1_555
Nb1_7 S5_2 2.481416 1_655
Nb1_7 S5_3 2.486697 1_655
Nb1_7 S2_7 2.515104 1_555
Nb1_7 S1_7 2.607054 1_555
Nb1_7 S1_6 2.610392 1_555
Nb1_7 S3_7 2.688310 1_555
Nb2_0 S6_3 2.481416 1_544
Nb2_0 S6_2 2.486697 1_545
Nb2_0 S3_0 2.515104 1_555
Nb2_0 S1_0 2.607057 1_555
Nb2_0 S1_1 2.610394 1_554
Nb2_0 S4_0 2.688310 1_555
Nb2_1 S6_2 2.481416 1_545
Nb2_1 S6_3 2.486697 1_545
Nb2_1 S3_1 2.515104 1_555
Nb2_1 S1_1 2.607057 1_555
Nb2_1 S1_0 2.610394 1_555
Nb2_1 S4_1 2.688310 1_555
Nb2_2 S6_1 2.481416 1_554
Nb2_2 S6_0 2.486697 1_555
Nb2_2 S3_2 2.515104 1_555
Nb2_2 S1_2 2.607057 1_555
Nb2_2 S1_3 2.610394 1_554
Nb2_2 S4_2 2.688310 1_555
Nb2_3 S6_0 2.481416 1_555
Nb2_3 S6_1 2.486697 1_555
Nb2_3 S3_3 2.515104 1_555
Nb2_3 S1_3 2.607057 1_555
Nb2_3 S1_2 2.610394 1_555
Nb2_3 S4_3 2.688310 1_555
Nb2_4 S6_7 2.481416 1_544
Nb2_4 S6_6 2.486697 1_545
Nb2_4 S3_4 2.515104 1_555
Nb2_4 S1_4 2.607057 1_555
Nb2_4 S1_5 2.610394 1_554
Nb2_4 S4_4 2.688310 1_555
Nb2_5 S6_6 2.481416 1_545
Nb2_5 S6_7 2.486697 1_545
Nb2_5 S3_5 2.515104 1_555
Nb2_5 S1_5 2.607057 1_555
Nb2_5 S1_4 2.610394 1_555
Nb2_5 S4_5 2.688310 1_555
Nb2_6 S6_5 2.481416 1_554
Nb2_6 S6_4 2.486697 1_555
Nb2_6 S3_6 2.515104 1_555
Nb2_6 S1_6 2.607057 1_555
Nb2_6 S1_7 2.610394 1_554
Nb2_6 S4_6 2.688310 1_555
Nb2_7 S6_4 2.481416 1_555
Nb2_7 S6_5 2.486697 1_555
Nb2_7 S3_7 2.515104 1_555
Nb2_7 S1_7 2.607057 1_555
Nb2_7 S1_6 2.610394 1_555
Nb2_7 S4_7 2.688310 1_555
Nb3_0 S4_1 2.481416 1_555
Nb3_0 S4_0 2.486697 1_555
Nb3_0 S7_0 2.515104 1_555
Nb3_0 S0_0 2.607061 1_555
Nb3_0 S0_1 2.610399 1_555
Nb3_0 S5_0 2.688310 1_555
Nb3_1 S4_0 2.481416 1_556
Nb3_1 S4_1 2.486697 1_555
Nb3_1 S7_1 2.515104 1_555
Nb3_1 S0_1 2.607061 1_555
Nb3_1 S0_0 2.610399 1_556
Nb3_1 S5_1 2.688310 1_555
Nb3_2 S4_3 2.481416 1_555
Nb3_2 S4_2 2.486697 1_555
Nb3_2 S7_2 2.515104 1_555
Nb3_2 S0_2 2.607061 1_555
Nb3_2 S0_3 2.610399 1_555
Nb3_2 S5_2 2.688310 1_555
Nb3_3 S4_2 2.481416 1_556
Nb3_3 S4_3 2.486697 1_555
Nb3_3 S7_3 2.515104 1_555
Nb3_3 S0_3 2.607061 1_555
Nb3_3 S0_2 2.610399 1_556
Nb3_3 S5_3 2.688310 1_555
Nb3_4 S4_5 2.481416 1_555
Nb3_4 S4_4 2.486697 1_555
Nb3_4 S7_4 2.515104 1_555
Nb3_4 S0_4 2.607061 1_555
Nb3_4 S0_5 2.610399 1_555
Nb3_4 S5_4 2.688310 1_555
Nb3_5 S4_4 2.481416 1_556
Nb3_5 S4_5 2.486697 1_555
Nb3_5 S7_5 2.515104 1_555
Nb3_5 S0_5 2.607061 1_555
Nb3_5 S0_4 2.610399 1_556
Nb3_5 S5_5 2.688310 1_555
Nb3_6 S4_7 2.481416 1_555
Nb3_6 S4_6 2.486697 1_555
Nb3_6 S7_6 2.515104 1_555
Nb3_6 S0_6 2.607061 1_555
Nb3_6 S0_7 2.610399 1_555
Nb3_6 S5_6 2.688310 1_555
Nb3_7 S4_6 2.481416 1_556
Nb3_7 S4_7 2.486697 1_555
Nb3_7 S7_7 2.515104 1_555
Nb3_7 S0_7 2.607061 1_555
Nb3_7 S0_6 2.610399 1_556
Nb3_7 S5_7 2.688310 1_555
Nb4_0 S2_5 2.481416 1_455
Nb4_0 S2_4 2.486697 1_455
Nb4_0 S5_0 2.515104 1_555
Nb4_0 S0_0 2.607054 1_555
Nb4_0 S0_1 2.610392 1_555
Nb4_0 S6_0 2.688310 1_555
Nb4_1 S2_4 2.481416 1_456
Nb4_1 S2_5 2.486697 1_455
Nb4_1 S5_1 2.515104 1_555
Nb4_1 S0_1 2.607054 1_555
Nb4_1 S0_0 2.610392 1_556
Nb4_1 S6_1 2.688310 1_555
Nb4_2 S2_7 2.481416 1_455
Nb4_2 S2_6 2.486697 1_455
Nb4_2 S5_2 2.515104 1_555
Nb4_2 S0_2 2.607054 1_555
Nb4_2 S0_3 2.610392 1_555
Nb4_2 S6_2 2.688310 1_555
Nb4_3 S2_6 2.481416 1_456
Nb4_3 S2_7 2.486697 1_455
Nb4_3 S5_3 2.515104 1_555
Nb4_3 S0_3 2.607054 1_555
Nb4_3 S0_2 2.610392 1_556
Nb4_3 S6_3 2.688310 1_555
Nb4_4 S2_1 2.481416 1_555
Nb4_4 S2_0 2.486697 1_555
Nb4_4 S5_4 2.515104 1_555
Nb4_4 S0_4 2.607054 1_555
Nb4_4 S0_5 2.610392 1_555
Nb4_4 S6_4 2.688310 1_555
Nb4_5 S2_0 2.481416 1_556
Nb4_5 S2_1 2.486697 1_555
Nb4_5 S5_5 2.515104 1_555
Nb4_5 S0_5 2.607054 1_555
Nb4_5 S0_4 2.610392 1_556
Nb4_5 S6_5 2.688310 1_555
Nb4_6 S2_3 2.481416 1_555
Nb4_6 S2_2 2.486697 1_555
Nb4_6 S5_6 2.515104 1_555
Nb4_6 S0_6 2.607054 1_555
Nb4_6 S0_7 2.610392 1_555
Nb4_6 S6_6 2.688310 1_555
Nb4_7 S2_2 2.481416 1_556
Nb4_7 S2_3 2.486697 1_555
Nb4_7 S5_7 2.515104 1_555
Nb4_7 S0_7 2.607054 1_555
Nb4_7 S0_6 2.610392 1_556
Nb4_7 S6_7 2.688310 1_555
Nb5_0 S3_3 2.481416 1_555
Nb5_0 S3_2 2.486697 1_555
Nb5_0 S6_0 2.515104 1_555
Nb5_0 S0_0 2.607057 1_555
Nb5_0 S0_1 2.610394 1_555
Nb5_0 S7_0 2.688310 1_555
Nb5_1 S3_2 2.481416 1_556
Nb5_1 S3_3 2.486697 1_555
Nb5_1 S6_1 2.515104 1_555
Nb5_1 S0_1 2.607057 1_555
Nb5_1 S0_0 2.610394 1_556
Nb5_1 S7_1 2.688310 1_555
Nb5_2 S3_1 2.481416 1_565
Nb5_2 S3_0 2.486697 1_565
Nb5_2 S6_2 2.515104 1_555
Nb5_2 S0_2 2.607057 1_555
Nb5_2 S0_3 2.610394 1_555
Nb5_2 S7_2 2.688310 1_555
Nb5_3 S3_0 2.481416 1_566
Nb5_3 S3_1 2.486697 1_565
Nb5_3 S6_3 2.515104 1_555
Nb5_3 S0_3 2.607057 1_555
Nb5_3 S0_2 2.610394 1_556
Nb5_3 S7_3 2.688310 1_555
Nb5_4 S3_7 2.481416 1_555
Nb5_4 S3_6 2.486697 1_555
Nb5_4 S6_4 2.515104 1_555
Nb5_4 S0_4 2.607057 1_555
Nb5_4 S0_5 2.610394 1_555
Nb5_4 S7_4 2.688310 1_555
Nb5_5 S3_6 2.481416 1_556
Nb5_5 S3_7 2.486697 1_555
Nb5_5 S6_5 2.515104 1_555
Nb5_5 S0_5 2.607057 1_555
Nb5_5 S0_4 2.610394 1_556
Nb5_5 S7_5 2.688310 1_555
Nb5_6 S3_5 2.481416 1_565
Nb5_6 S3_4 2.486697 1_565
Nb5_6 S6_6 2.515104 1_555
Nb5_6 S0_6 2.607057 1_555
Nb5_6 S0_7 2.610394 1_555
Nb5_6 S7_6 2.688310 1_555
Nb5_7 S3_4 2.481416 1_566
Nb5_7 S3_5 2.486697 1_565
Nb5_7 S6_7 2.515104 1_555
Nb5_7 S0_7 2.607057 1_555
Nb5_7 S0_6 2.610394 1_556
Nb5_7 S7_7 2.688310 1_555
Pb0_0 S6_2 3.192521 1_545
Pb0_0 S3_4 3.192521 1_455
Pb0_0 S5_0 3.192521 1_555
Pb0_0 S2_6 3.192521 1_445
Pb0_0 S4_0 3.192522 1_555
Pb0_0 S7_6 3.192522 1_445
Pb0_0 Pb0_1 3.420877 1_555
Pb0_0 Pb0_1 3.420877 1_554
Pb0_1 S3_5 3.192521 1_455
Pb0_1 S6_3 3.192521 1_545
Pb0_1 S2_7 3.192521 1_445
Pb0_1 S5_1 3.192521 1_555
Pb0_1 S4_1 3.192522 1_555
Pb0_1 S7_7 3.192522 1_445
Pb0_2 S3_6 3.192521 1_455
Pb0_2 S6_0 3.192521 1_555
Pb0_2 S2_4 3.192521 1_455
Pb0_2 S5_2 3.192521 1_555
Pb0_2 S7_4 3.192522 1_455
Pb0_2 S4_2 3.192522 1_555
Pb0_2 Pb0_3 3.420877 1_555
Pb0_2 Pb0_3 3.420877 1_554
Pb0_3 S3_7 3.192521 1_455
Pb0_3 S6_1 3.192521 1_555
Pb0_3 S2_5 3.192521 1_455
Pb0_3 S5_3 3.192521 1_555
Pb0_3 S7_5 3.192522 1_455
Pb0_3 S4_3 3.192522 1_555
Pb0_4 S6_6 3.192521 1_545
Pb0_4 S3_0 3.192521 1_555
Pb0_4 S5_4 3.192521 1_555
Pb0_4 S2_2 3.192521 1_545
Pb0_4 S7_2 3.192522 1_545
Pb0_4 S4_4 3.192522 1_555
Pb0_4 Pb0_5 3.420877 1_555
Pb0_4 Pb0_5 3.420877 1_554
Pb0_5 S6_7 3.192521 1_545
Pb0_5 S3_1 3.192521 1_555
Pb0_5 S2_3 3.192521 1_545
Pb0_5 S5_5 3.192521 1_555
Pb0_5 S7_3 3.192522 1_545
Pb0_5 S4_5 3.192522 1_555
Pb0_6 S3_2 3.192521 1_555
Pb0_6 S6_4 3.192521 1_555
Pb0_6 S5_6 3.192521 1_555
Pb0_6 S2_0 3.192521 1_555
Pb0_6 S4_6 3.192522 1_555
Pb0_6 S7_0 3.192522 1_555
Pb0_6 Pb0_7 3.420877 1_555
Pb0_6 Pb0_7 3.420877 1_554
Pb0_7 S3_3 3.192521 1_555
Pb0_7 S6_5 3.192521 1_555
Pb0_7 S5_7 3.192521 1_555
Pb0_7 S2_1 3.192521 1_555
Pb0_7 S4_7 3.192522 1_555
Pb0_7 S7_1 3.192522 1_555
