# generated using pymatgen
data_DyInCo2
_symmetry_space_group_name_H-M   'P 1'
_cell_length_a   4.01588500
_cell_length_b   5.00968900
_cell_length_c   7.13538400
_cell_angle_alpha   90.00000000
_cell_angle_beta   90.00000000
_cell_angle_gamma   90.00000000
_symmetry_Int_Tables_number   1
_chemical_formula_structural   DyInCo2
_chemical_formula_sum   'Dy2 In2 Co4'
_cell_volume   143.55204502
_cell_formula_units_Z   2
loop_
 _symmetry_equiv_pos_site_id
 _symmetry_equiv_pos_as_xyz
  1  'x, y, z'
loop_
 _atom_site_type_symbol
 _atom_site_label
 _atom_site_symmetry_multiplicity
 _atom_site_fract_x
 _atom_site_fract_y
 _atom_site_fract_z
 _atom_site_occupancy
  Dy  Dy0  1  0.50000000  0.75000000  0.72043200  1
  Dy  Dy1  1  0.50000000  0.25000000  0.27956800  1
  In  In0  1  0.00000000  0.75000000  0.35184800  1
  In  In1  1  0.00000000  0.25000000  0.64815200  1
  Co  Co0  1  0.00000000  0.00000000  0.00000000  1
  Co  Co1  1  0.00000000  0.50000000  0.00000000  1
  Co  Co2  1  0.50000000  0.75000000  0.09124800  1
  Co  Co3  1  0.50000000  0.25000000  0.90875200  1
loop_
_geom_bond_atom_site_label_1
_geom_bond_atom_site_label_2
_geom_bond_distance
_geom_bond_site_symmetry_2
Dy0 In1 3.251472 1_555
Dy0 In1 3.251472 1_565
Dy0 In1 3.251472 1_665
Dy0 In1 3.251472 1_655
Dy0 In0 3.308878 1_655
Dy0 In0 3.308878 1_555
Dy1 In0 3.251472 1_545
Dy1 In0 3.251472 1_655
Dy1 In0 3.251472 1_645
Dy1 In0 3.251472 1_555
Dy1 In1 3.308878 1_555
Dy1 In1 3.308878 1_655
In0 In1 3.277845 1_565
In0 In1 3.277845 1_555
Co0 Co2 2.454447 1_445
Co0 Co2 2.454447 1_545
Co0 Co3 2.454447 1_554
Co0 Co3 2.454447 1_454
Co0 Co1 2.504844 1_555
Co0 Co1 2.504844 1_545
Co0 In0 2.805624 1_545
Co0 In1 2.805624 1_554
Co0 Dy1 3.095113 1_555
Co0 Dy1 3.095113 1_455
Co0 Dy0 3.095113 1_444
Co0 Dy0 3.095113 1_544
Co1 Co2 2.454447 1_455
Co1 Co3 2.454447 1_454
Co1 Co3 2.454447 1_554
Co1 Co2 2.454447 1_555
Co1 In0 2.805624 1_555
Co1 In1 2.805624 1_554
Co1 Dy1 3.095113 1_555
Co1 Dy1 3.095113 1_455
Co1 Dy0 3.095113 1_554
Co1 Dy0 3.095113 1_454
Co2 Dy0 2.645915 1_554
Co2 In0 2.736696 1_655
Co2 In0 2.736696 1_555
Co2 Dy1 2.842511 1_565
Co2 Dy1 2.842511 1_555
Co3 Dy1 2.645915 1_556
Co3 In1 2.736696 1_555
Co3 In1 2.736696 1_655
Co3 Dy0 2.842511 1_555
Co3 Dy0 2.842511 1_545
