# generated using pymatgen
data_K4BaNb5O15
_symmetry_space_group_name_H-M   'P 1'
_cell_length_a   9.11866043
_cell_length_b   9.11866043
_cell_length_c   7.06692390
_cell_angle_alpha   75.03899594
_cell_angle_beta   75.03899594
_cell_angle_gamma   36.85808709
_symmetry_Int_Tables_number   1
_chemical_formula_structural   K4BaNb5O15
_chemical_formula_sum   'K4 Ba1 Nb5 O15'
_cell_volume   339.17098995
_cell_formula_units_Z   1
loop_
 _symmetry_equiv_pos_site_id
 _symmetry_equiv_pos_as_xyz
  1  'x, y, z'
loop_
 _atom_site_type_symbol
 _atom_site_label
 _atom_site_symmetry_multiplicity
 _atom_site_fract_x
 _atom_site_fract_y
 _atom_site_fract_z
 _atom_site_occupancy
  K  K0  1  0.60017700  0.60017700  0.59913200  1
  K  K1  1  0.20040700  0.20040700  0.20040100  1
  K  K2  1  0.79959300  0.79959300  0.79959900  1
  K  K3  1  0.39982300  0.39982300  0.40086800  1
  Ba  Ba0  1  0.00000000  0.00000000  0.00000000  1
  Nb  Nb0  1  0.20162000  0.20162000  0.69645100  1
  Nb  Nb1  1  0.79838000  0.79838000  0.30354900  1
  Nb  Nb2  1  0.39787400  0.39787400  0.90008500  1
  Nb  Nb3  1  0.00000000  0.00000000  0.50000000  1
  Nb  Nb4  1  0.60212600  0.60212600  0.09991500  1
  O  O0  1  0.39801600  0.90056600  0.90072400  1
  O  O1  1  0.00000000  0.50000000  0.50000000  1
  O  O2  1  0.60198400  0.09943400  0.09927600  1
  O  O3  1  0.19872400  0.70169400  0.70161200  1
  O  O4  1  0.80127600  0.29830600  0.29838800  1
  O  O5  1  0.29996300  0.29996300  0.79966600  1
  O  O6  1  0.90055400  0.90055400  0.39776400  1
  O  O7  1  0.50000000  0.50000000  0.00000000  1
  O  O8  1  0.09944600  0.09944600  0.60223600  1
  O  O9  1  0.70003700  0.70003700  0.20033400  1
  O  O10  1  0.50000000  0.00000000  0.50000000  1
  O  O11  1  0.09943400  0.60198400  0.09927600  1
  O  O12  1  0.70169400  0.19872400  0.70161200  1
  O  O13  1  0.29830600  0.80127600  0.29838800  1
  O  O14  1  0.90056600  0.39801600  0.90072400  1
loop_
_geom_bond_atom_site_label_1
_geom_bond_atom_site_label_2
_geom_bond_distance
_geom_bond_site_symmetry_2
K0 O9 2.877122 1_555
K0 O10 2.880908 1_565
K0 O1 2.880908 1_655
K0 O8 2.882767 1_655
K0 O8 2.882767 1_565
K0 O12 2.887341 1_555
K0 O3 2.887341 1_555
K0 O0 2.889475 1_555
K0 O14 2.889475 1_555
K0 O7 2.890895 1_556
K0 O13 2.896142 1_555
K0 O4 2.896142 1_555
K1 O10 2.878397 1_555
K1 O1 2.878397 1_555
K1 O9 2.882689 1_455
K1 O9 2.882689 1_545
K1 O5 2.886566 1_554
K1 O13 2.888134 1_545
K1 O4 2.888134 1_455
K1 O14 2.888410 1_454
K1 O0 2.888410 1_544
K1 O2 2.891496 1_555
K1 O11 2.891496 1_555
K1 O8 2.901006 1_555
K2 O10 2.878397 1_565
K2 O1 2.878397 1_655
K2 O5 2.882689 1_655
K2 O5 2.882689 1_565
K2 O9 2.886566 1_556
K2 O12 2.888134 1_565
K2 O3 2.888134 1_655
K2 O11 2.888410 1_656
K2 O2 2.888410 1_566
K2 O0 2.891496 1_555
K2 O14 2.891496 1_555
K2 O6 2.901006 1_555
K3 O5 2.877122 1_555
K3 O1 2.880908 1_555
K3 O10 2.880908 1_555
K3 O6 2.882767 1_455
K3 O6 2.882767 1_545
K3 O4 2.887341 1_555
K3 O13 2.887341 1_555
K3 O11 2.889475 1_555
K3 O2 2.889475 1_555
K3 O7 2.890895 1_555
K3 O12 2.896142 1_555
K3 O3 2.896142 1_555
Ba0 O8 2.868767 1_554
Ba0 O6 2.868767 1_445
Ba0 O3 2.868837 1_544
Ba0 O13 2.868837 1_545
Ba0 O4 2.868837 1_455
Ba0 O12 2.868837 1_454
Ba0 O14 2.869558 1_454
Ba0 O0 2.869558 1_544
Ba0 O11 2.869558 1_545
Ba0 O2 2.869558 1_455
Ba0 O7 2.882682 1_455
Ba0 O7 2.882682 1_545
Nb0 O1 2.018188 1_555
Nb0 O10 2.018188 1_555
Nb0 O5 2.025517 1_555
Nb0 O8 2.051601 1_555
Nb0 O14 2.061233 1_455
Nb0 O0 2.061233 1_545
Nb1 O10 2.018188 1_565
Nb1 O1 2.018188 1_655
Nb1 O9 2.025517 1_555
Nb1 O6 2.051601 1_555
Nb1 O11 2.061233 1_655
Nb1 O2 2.061233 1_565
Nb2 O5 2.006918 1_555
Nb2 O2 2.030024 1_556
Nb2 O11 2.030024 1_556
Nb2 O12 2.048955 1_555
Nb2 O3 2.048955 1_555
Nb2 O7 2.073602 1_556
Nb3 O12 2.038872 1_455
Nb3 O3 2.038872 1_545
Nb3 O4 2.038872 1_455
Nb3 O13 2.038872 1_545
Nb3 O8 2.039383 1_555
Nb3 O6 2.039383 1_445
Nb4 O9 2.006918 1_555
Nb4 O0 2.030024 1_554
Nb4 O14 2.030024 1_554
Nb4 O4 2.048955 1_555
Nb4 O13 2.048955 1_555
Nb4 O7 2.073602 1_555
