# generated using pymatgen
data_NaEuNiGeO6
_symmetry_space_group_name_H-M   'P 1'
_cell_length_a   7.61336677
_cell_length_b   7.55295257
_cell_length_c   7.59209114
_cell_angle_alpha   90.00000000
_cell_angle_beta   90.00000000
_cell_angle_gamma   90.00000000
_symmetry_Int_Tables_number   1
_chemical_formula_structural   NaEuNiGeO6
_chemical_formula_sum   'Na4 Eu4 Ni4 Ge4 O24'
_cell_volume   436.57103932
_cell_formula_units_Z   4
loop_
 _symmetry_equiv_pos_site_id
 _symmetry_equiv_pos_as_xyz
  1  'x, y, z'
loop_
 _atom_site_type_symbol
 _atom_site_label
 _atom_site_symmetry_multiplicity
 _atom_site_fract_x
 _atom_site_fract_y
 _atom_site_fract_z
 _atom_site_occupancy
  Na  Na0  1  0.00000000  0.50000000  0.50000000  1
  Na  Na1  1  0.50000000  -0.00000000  0.50000000  1
  Na  Na2  1  0.50000000  -0.00000000  -0.00000000  1
  Na  Na3  1  0.00000000  0.50000000  -0.00000000  1
  Eu  Eu0  1  0.50000000  0.50000000  -0.00000000  1
  Eu  Eu1  1  0.00000000  -0.00000000  0.50000000  1
  Eu  Eu2  1  0.00000000  -0.00000000  -0.00000000  1
  Eu  Eu3  1  0.50000000  0.50000000  0.50000000  1
  Ni  Ni0  1  0.25000000  0.25000000  0.25000000  1
  Ni  Ni1  1  0.75000000  0.75000000  0.25000000  1
  Ni  Ni2  1  0.75000000  0.25000000  0.75000000  1
  Ni  Ni3  1  0.25000000  0.75000000  0.75000000  1
  Ge  Ge0  1  0.75000000  0.75000000  0.75000000  1
  Ge  Ge1  1  0.25000000  0.25000000  0.75000000  1
  Ge  Ge2  1  0.25000000  0.75000000  0.25000000  1
  Ge  Ge3  1  0.75000000  0.25000000  0.25000000  1
  O  O0  1  -0.00061093  0.20713202  0.26383195  1
  O  O1  1  0.00061093  0.79286798  0.26383195  1
  O  O2  1  0.00061093  0.20713202  0.73616805  1
  O  O3  1  -0.00061093  0.79286798  0.73616805  1
  O  O4  1  0.26181342  -0.00639598  0.19485588  1
  O  O5  1  0.26181342  0.00639598  0.80514412  1
  O  O6  1  0.73818658  0.00639598  0.19485588  1
  O  O7  1  0.73818658  -0.00639598  0.80514412  1
  O  O8  1  0.22768423  0.29771379  -0.00853903  1
  O  O9  1  0.77231577  0.29771379  0.00853903  1
  O  O10  1  0.22768423  0.70228621  0.00853903  1
  O  O11  1  0.77231577  0.70228621  -0.00853903  1
  O  O12  1  0.50061093  0.29286798  0.23616805  1
  O  O13  1  0.49938907  0.70713202  0.23616805  1
  O  O14  1  0.49938907  0.29286798  0.76383195  1
  O  O15  1  0.50061093  0.70713202  0.76383195  1
  O  O16  1  0.23818658  0.50639598  0.30514412  1
  O  O17  1  0.23818658  0.49360402  0.69485588  1
  O  O18  1  0.76181342  0.49360402  0.30514412  1
  O  O19  1  0.76181342  0.50639598  0.69485588  1
  O  O20  1  0.27231577  0.20228621  0.50853903  1
  O  O21  1  0.72768423  0.20228621  0.49146097  1
  O  O22  1  0.27231577  0.79771379  0.49146097  1
  O  O23  1  0.72768423  0.79771379  0.50853903  1
loop_
_geom_bond_atom_site_label_1
_geom_bond_atom_site_label_2
_geom_bond_distance
_geom_bond_site_symmetry_2
Na0 O17 2.340785 1_555
Na0 O16 2.340785 1_555
Na0 O18 2.340785 1_455
Na0 O19 2.340785 1_455
Na0 O3 2.847442 1_555
Na0 O2 2.847442 1_555
Na0 O1 2.847442 1_555
Na0 O0 2.847442 1_555
Na1 O20 2.311575 1_555
Na1 O22 2.311575 1_545
Na1 O23 2.311575 1_545
Na1 O21 2.311575 1_555
Na1 O13 2.984158 1_545
Na1 O12 2.984158 1_555
Na1 O14 2.984158 1_555
Na1 O15 2.984158 1_545
Na2 O4 2.340785 1_555
Na2 O5 2.340785 1_554
Na2 O7 2.340785 1_554
Na2 O6 2.340785 1_555
Na2 O15 2.847442 1_544
Na2 O14 2.847442 1_554
Na2 O13 2.847442 1_545
Na2 O12 2.847442 1_555
Na3 O9 2.311575 1_455
Na3 O11 2.311575 1_455
Na3 O8 2.311575 1_555
Na3 O10 2.311575 1_555
Na3 O0 2.984158 1_555
Na3 O1 2.984158 1_555
Na3 O2 2.984158 1_554
Na3 O3 2.984158 1_554
Eu0 O14 2.379587 1_554
Eu0 O15 2.379587 1_554
Eu0 O12 2.379587 1_555
Eu0 O13 2.379587 1_555
Eu0 O8 2.576214 1_555
Eu0 O10 2.576214 1_555
Eu0 O11 2.576214 1_555
Eu0 O9 2.576214 1_555
Eu1 O3 2.379587 1_545
Eu1 O1 2.379587 1_545
Eu1 O0 2.379587 1_555
Eu1 O2 2.379587 1_555
Eu1 O23 2.576214 1_445
Eu1 O21 2.576214 1_455
Eu1 O20 2.576214 1_555
Eu1 O22 2.576214 1_545
Eu2 O6 2.482745 1_455
Eu2 O7 2.482745 1_454
Eu2 O5 2.482745 1_554
Eu2 O4 2.482745 1_555
Eu2 O1 2.541595 1_545
Eu2 O2 2.541595 1_554
Eu2 O0 2.541595 1_555
Eu2 O3 2.541595 1_544
Eu2 O11 2.839949 1_445
Eu2 O10 2.839949 1_545
Eu2 O9 2.839949 1_455
Eu2 O8 2.839949 1_555
Eu3 O18 2.482745 1_555
Eu3 O19 2.482745 1_555
Eu3 O16 2.482745 1_555
Eu3 O17 2.482745 1_555
Eu3 O12 2.541595 1_555
Eu3 O13 2.541595 1_555
Eu3 O14 2.541595 1_555
Eu3 O15 2.541595 1_555
Eu3 O22 2.839949 1_555
Eu3 O20 2.839949 1_555
Eu3 O23 2.839949 1_555
Eu3 O21 2.839949 1_555
Ni0 O12 1.938117 1_555
Ni0 O0 1.938117 1_555
Ni0 O16 1.983325 1_555
Ni0 O4 1.983325 1_555
Ni0 O20 2.002880 1_555
Ni0 O8 2.002880 1_555
Ni1 O1 1.938117 1_655
Ni1 O13 1.938117 1_555
Ni1 O6 1.983325 1_565
Ni1 O18 1.983325 1_555
Ni1 O23 2.002880 1_555
Ni1 O11 2.002880 1_555
Ni2 O2 1.938117 1_655
Ni2 O14 1.938117 1_555
Ni2 O19 1.983325 1_555
Ni2 O7 1.983325 1_555
Ni2 O9 2.002880 1_556
Ni2 O21 2.002880 1_555
Ni3 O15 1.938117 1_555
Ni3 O3 1.938117 1_555
Ni3 O5 1.983325 1_565
Ni3 O17 1.983325 1_555
Ni3 O10 2.002880 1_556
Ni3 O22 2.002880 1_555
Ge0 O23 1.875990 1_555
Ge0 O11 1.875990 1_556
Ge0 O19 1.889102 1_555
Ge0 O7 1.889102 1_565
Ge0 O15 1.928960 1_555
Ge0 O3 1.928960 1_655
Ge1 O20 1.875990 1_555
Ge1 O8 1.875990 1_556
Ge1 O5 1.889102 1_555
Ge1 O17 1.889102 1_555
Ge1 O14 1.928960 1_555
Ge1 O2 1.928960 1_555
Ge2 O10 1.875990 1_555
Ge2 O22 1.875990 1_555
Ge2 O16 1.889102 1_555
Ge2 O4 1.889102 1_565
Ge2 O1 1.928960 1_555
Ge2 O13 1.928960 1_555
Ge3 O21 1.875990 1_555
Ge3 O9 1.875990 1_555
Ge3 O6 1.889102 1_555
Ge3 O18 1.889102 1_555
Ge3 O12 1.928960 1_555
Ge3 O0 1.928960 1_655
