# generated using pymatgen
data_CsCeSiS4
_symmetry_space_group_name_H-M   'P 1'
_cell_length_a   6.53722196
_cell_length_b   6.72329681
_cell_length_c   18.00561078
_cell_angle_alpha   90.00000000
_cell_angle_beta   90.00000000
_cell_angle_gamma   90.00000000
_symmetry_Int_Tables_number   1
_chemical_formula_structural   CsCeSiS4
_chemical_formula_sum   'Cs4 Ce4 Si4 S16'
_cell_volume   791.37690713
_cell_formula_units_Z   4
loop_
 _symmetry_equiv_pos_site_id
 _symmetry_equiv_pos_as_xyz
  1  'x, y, z'
loop_
 _atom_site_type_symbol
 _atom_site_label
 _atom_site_symmetry_multiplicity
 _atom_site_fract_x
 _atom_site_fract_y
 _atom_site_fract_z
 _atom_site_occupancy
  Cs  Cs0  1  0.48917550  0.75000000  0.21712352  1
  Cs  Cs1  1  0.01082450  0.75000000  0.71712352  1
  Cs  Cs2  1  0.51082450  0.25000000  0.78287648  1
  Cs  Cs3  1  0.98917550  0.25000000  0.28287648  1
  Ce  Ce0  1  0.28705868  0.75000000  0.47684211  1
  Ce  Ce1  1  0.21294132  0.75000000  0.97684211  1
  Ce  Ce2  1  0.71294132  0.25000000  0.52315789  1
  Ce  Ce3  1  0.78705868  0.25000000  0.02315789  1
  Si  Si0  1  0.78492447  0.75000000  0.41455254  1
  Si  Si1  1  0.71507553  0.75000000  0.91455254  1
  Si  Si2  1  0.21507553  0.25000000  0.58544746  1
  Si  Si3  1  0.28492447  0.25000000  0.08544746  1
  S  S0  1  0.04255345  0.75000000  0.34467659  1
  S  S1  1  0.45744655  0.75000000  0.84467659  1
  S  S2  1  0.95744655  0.25000000  0.65532341  1
  S  S3  1  0.54255345  0.25000000  0.15532341  1
  S  S4  1  0.62822360  0.75000000  0.02837847  1
  S  S5  1  0.87177640  0.75000000  0.52837847  1
  S  S6  1  0.37177640  0.25000000  0.97162153  1
  S  S7  1  0.12822360  0.25000000  0.47162153  1
  S  S8  1  0.59040103  0.50139495  0.39689438  1
  S  S9  1  0.90959897  -0.00139495  0.89689438  1
  S  S10  1  0.40959897  0.00139495  0.60310562  1
  S  S11  1  0.09040103  0.49860505  0.10310562  1
  S  S12  1  0.40959897  0.49860505  0.60310562  1
  S  S13  1  0.09040103  0.00139495  0.10310562  1
  S  S14  1  0.59040103  -0.00139495  0.39689438  1
  S  S15  1  0.90959897  0.50139495  0.89689438  1
loop_
_geom_bond_atom_site_label_1
_geom_bond_atom_site_label_2
_geom_bond_distance
_geom_bond_site_symmetry_2
Cs0 S4 3.517934 1_555
Cs0 S3 3.558181 1_555
Cs0 S3 3.558181 1_565
Cs0 S14 3.702572 1_565
Cs0 S8 3.702572 1_555
Cs0 S0 3.714721 1_555
Cs0 S13 3.723875 1_565
Cs0 S11 3.723875 1_555
Cs1 S5 3.517934 1_455
Cs1 S2 3.558181 1_455
Cs1 S2 3.558181 1_465
Cs1 S15 3.702572 1_455
Cs1 S9 3.702572 1_465
Cs1 S1 3.714721 1_555
Cs1 S10 3.723875 1_565
Cs1 S12 3.723875 1_555
Cs2 S6 3.517934 1_555
Cs2 S1 3.558181 1_555
Cs2 S1 3.558181 1_545
Cs2 S12 3.702572 1_555
Cs2 S10 3.702572 1_555
Cs2 S2 3.714721 1_555
Cs2 S9 3.723875 1_555
Cs2 S15 3.723875 1_555
Cs3 S7 3.517934 1_655
Cs3 S0 3.558181 1_645
Cs3 S0 3.558181 1_655
Cs3 S11 3.702572 1_655
Cs3 S13 3.702572 1_655
Cs3 S3 3.714721 1_555
Cs3 S14 3.723875 1_555
Cs3 S8 3.723875 1_555
Ce0 S0 2.866689 1_555
Ce0 S5 2.869003 1_455
Ce0 S10 2.943992 1_565
Ce0 S12 2.943992 1_555
Ce0 S14 2.966187 1_565
Ce0 S8 2.966187 1_555
Ce0 S7 3.519612 1_565
Ce0 S7 3.519612 1_555
Ce1 S1 2.866689 1_555
Ce1 S4 2.869003 1_556
Ce1 S13 2.943992 1_566
Ce1 S11 2.943992 1_556
Ce1 S9 2.966187 1_465
Ce1 S15 2.966187 1_455
Ce1 S6 3.519612 1_555
Ce1 S6 3.519612 1_565
Ce2 S2 2.866689 1_555
Ce2 S7 2.869003 1_655
Ce2 S8 2.943992 1_555
Ce2 S14 2.943992 1_555
Ce2 S12 2.966187 1_555
Ce2 S10 2.966187 1_555
Ce2 S5 3.519612 1_555
Ce2 S5 3.519612 1_545
Ce3 S3 2.866689 1_555
Ce3 S6 2.869003 1_554
Ce3 S15 2.943992 1_554
Ce3 S9 2.943992 1_554
Ce3 S11 2.966187 1_655
Ce3 S13 2.966187 1_655
Ce3 S4 3.519612 1_545
Ce3 S4 3.519612 1_555
S0 Si0 2.102242 1_455
S1 Si1 2.102242 1_555
S2 Si2 2.102242 1_655
S3 Si3 2.102242 1_555
S4 Si1 2.126696 1_554
S5 Si0 2.126696 1_555
S6 Si3 2.126696 1_556
S7 Si2 2.126696 1_555
S8 Si0 2.124122 1_555
S9 Si1 2.124122 1_545
S10 Si2 2.124122 1_555
S11 Si3 2.124122 1_555
S12 Si2 2.124122 1_555
S13 Si3 2.124122 1_555
S14 Si0 2.124122 1_545
S15 Si1 2.124122 1_555
