# generated using pymatgen
data_HfGa3
_symmetry_space_group_name_H-M   'P 1'
_cell_length_a   3.85710887
_cell_length_b   3.85710849
_cell_length_c   5.26311834
_cell_angle_alpha   111.49550424
_cell_angle_beta   111.49551884
_cell_angle_gamma   89.99998656
_symmetry_Int_Tables_number   1
_chemical_formula_structural   HfGa3
_chemical_formula_sum   'Hf1 Ga3'
_cell_volume   66.96723356
_cell_formula_units_Z   1
loop_
 _symmetry_equiv_pos_site_id
 _symmetry_equiv_pos_as_xyz
  1  'x, y, z'
loop_
 _atom_site_type_symbol
 _atom_site_label
 _atom_site_symmetry_multiplicity
 _atom_site_fract_x
 _atom_site_fract_y
 _atom_site_fract_z
 _atom_site_occupancy
  Hf  Hf0  1  -0.00000000  0.00000000  -0.00000000  1
  Ga  Ga0  1  0.50000000  0.50000000  -0.00000000  1
  Ga  Ga1  1  0.25000000  0.75000000  0.50000000  1
  Ga  Ga2  1  0.75000000  0.25000000  0.50000000  1
loop_
_geom_bond_atom_site_label_1
_geom_bond_atom_site_label_2
_geom_bond_distance
_geom_bond_site_symmetry_2
Ga0 Hf0 2.727387 1_655
Ga0 Hf0 2.727387 1_565
Ga0 Hf0 2.727388 1_665
Ga0 Hf0 2.727388 1_555
Ga0 Ga2 2.963910 1_454
Ga0 Ga1 2.963910 1_655
Ga0 Ga1 2.963910 1_544
Ga0 Ga2 2.963910 1_565
Ga0 Ga1 2.963910 1_554
Ga0 Ga2 2.963910 1_555
Ga0 Ga1 2.963911 1_555
Ga0 Ga2 2.963911 1_554
Ga1 Ga2 2.727387 1_465
Ga1 Ga2 2.727387 1_555
Ga1 Ga2 2.727388 1_455
Ga1 Ga2 2.727388 1_565
Ga1 Hf0 2.963910 1_666
Ga1 Hf0 2.963910 1_555
Ga1 Hf0 2.963910 1_565
Ga1 Hf0 2.963911 1_566
Ga2 Hf0 2.963910 1_555
Ga2 Hf0 2.963910 1_666
Ga2 Hf0 2.963910 1_656
Ga2 Hf0 2.963911 1_655
