# generated using pymatgen
data_K3Li3P6O19
_symmetry_space_group_name_H-M   'P 1'
_cell_length_a   9.82835149
_cell_length_b   9.82835149
_cell_length_c   9.82835165
_cell_angle_alpha   101.87415038
_cell_angle_beta   101.87415038
_cell_angle_gamma   101.87414641
_symmetry_Int_Tables_number   1
_chemical_formula_structural   K3Li3P6O19
_chemical_formula_sum   'K6 Li6 P12 O38'
_cell_volume   878.14808979
_cell_formula_units_Z   2
loop_
 _symmetry_equiv_pos_site_id
 _symmetry_equiv_pos_as_xyz
  1  'x, y, z'
loop_
 _atom_site_type_symbol
 _atom_site_label
 _atom_site_symmetry_multiplicity
 _atom_site_fract_x
 _atom_site_fract_y
 _atom_site_fract_z
 _atom_site_occupancy
  K  K0  1  0.52958200  0.94104100  0.78437400  1
  K  K1  1  0.78437400  0.52958200  0.94104100  1
  K  K2  1  0.94104100  0.78437400  0.52958200  1
  K  K3  1  0.47041800  0.05895900  0.21562600  1
  K  K4  1  0.21562600  0.47041800  0.05895900  1
  K  K5  1  0.05895900  0.21562600  0.47041800  1
  Li  Li0  1  0.01822200  0.48364900  0.72921500  1
  Li  Li1  1  0.72921500  0.01822200  0.48364900  1
  Li  Li2  1  0.48364900  0.72921500  0.01822200  1
  Li  Li3  1  0.98177800  0.51635100  0.27078500  1
  Li  Li4  1  0.27078500  0.98177800  0.51635100  1
  Li  Li5  1  0.51635100  0.27078500  0.98177800  1
  P  P0  1  0.19640400  0.07441500  0.83235100  1
  P  P1  1  0.83235100  0.19640400  0.07441500  1
  P  P2  1  0.07441500  0.83235100  0.19640400  1
  P  P3  1  0.80359600  0.92558500  0.16764900  1
  P  P4  1  0.16764900  0.80359600  0.92558500  1
  P  P5  1  0.92558500  0.16764900  0.80359600  1
  P  P6  1  0.26863500  0.64233500  0.50276200  1
  P  P7  1  0.50276200  0.26863500  0.64233500  1
  P  P8  1  0.64233500  0.50276200  0.26863500  1
  P  P9  1  0.73136500  0.35766500  0.49723800  1
  P  P10  1  0.49723800  0.73136500  0.35766500  1
  P  P11  1  0.35766500  0.49723800  0.73136500  1
  O  O0  1  0.08735600  0.16482400  0.88522400  1
  O  O1  1  0.88522400  0.08735600  0.16482400  1
  O  O2  1  0.16482400  0.88522400  0.08735600  1
  O  O3  1  0.91264400  0.83517600  0.11477600  1
  O  O4  1  0.11477600  0.91264400  0.83517600  1
  O  O5  1  0.83517600  0.11477600  0.91264400  1
  O  O6  1  0.19327300  0.07023200  0.67851700  1
  O  O7  1  0.67851700  0.19327300  0.07023200  1
  O  O8  1  0.07023200  0.67851700  0.19327300  1
  O  O9  1  0.80672700  0.92976800  0.32148300  1
  O  O10  1  0.32148300  0.80672700  0.92976800  1
  O  O11  1  0.92976800  0.32148300  0.80672700  1
  O  O12  1  0.94843000  0.33462200  0.12907700  1
  O  O13  1  0.12907700  0.94843000  0.33462200  1
  O  O14  1  0.33462200  0.12907700  0.94843000  1
  O  O15  1  0.05157000  0.66537800  0.87092300  1
  O  O16  1  0.87092300  0.05157000  0.66537800  1
  O  O17  1  0.66537800  0.87092300  0.05157000  1
  O  O18  1  0.37433600  0.61342500  0.63725800  1
  O  O19  1  0.63725800  0.37433600  0.61342500  1
  O  O20  1  0.61342500  0.63725800  0.37433600  1
  O  O21  1  0.62566400  0.38657500  0.36274200  1
  O  O22  1  0.36274200  0.62566400  0.38657500  1
  O  O23  1  0.38657500  0.36274200  0.62566400  1
  O  O24  1  0.13310400  0.52290700  0.44082600  1
  O  O25  1  0.44082600  0.13310400  0.52290700  1
  O  O26  1  0.52290700  0.44082600  0.13310400  1
  O  O27  1  0.86689600  0.47709300  0.55917400  1
  O  O28  1  0.55917400  0.86689600  0.47709300  1
  O  O29  1  0.47709300  0.55917400  0.86689600  1
  O  O30  1  0.44830200  0.73846500  0.20532000  1
  O  O31  1  0.20532000  0.44830200  0.73846500  1
  O  O32  1  0.73846500  0.20532000  0.44830200  1
  O  O33  1  0.55169800  0.26153500  0.79468000  1
  O  O34  1  0.79468000  0.55169800  0.26153500  1
  O  O35  1  0.26153500  0.79468000  0.55169800  1
  O  O36  1  0.74448800  0.74448800  0.74448800  1
  O  O37  1  0.25551200  0.25551200  0.25551200  1
loop_
_geom_bond_atom_site_label_1
_geom_bond_atom_site_label_2
_geom_bond_distance
_geom_bond_site_symmetry_2
K0 O17 2.972120 1_556
K0 O10 2.972490 1_555
K0 O35 2.974333 1_555
K0 O5 2.995211 1_565
K0 O28 3.046215 1_555
K0 O33 3.091509 1_565
K0 O18 3.152935 1_555
K0 O36 3.170962 1_555
K0 O7 3.182711 1_566
K0 O14 3.345036 1_565
K1 O15 2.972120 1_655
K1 O11 2.972490 1_555
K1 O33 2.974333 1_555
K1 O3 2.995211 1_556
K1 O29 3.046215 1_555
K1 O34 3.091509 1_556
K1 O19 3.152935 1_555
K1 O36 3.170962 1_555
K1 O8 3.182711 1_656
K1 O12 3.345036 1_556
K2 O16 2.972120 1_565
K2 O9 2.972490 1_555
K2 O34 2.974333 1_555
K2 O4 2.995211 1_655
K2 O27 3.046215 1_555
K2 O35 3.091509 1_655
K2 O20 3.152935 1_555
K2 O36 3.170962 1_555
K2 O6 3.182711 1_665
K2 O13 3.345036 1_655
K3 O14 2.972120 1_554
K3 O7 2.972490 1_555
K3 O32 2.974333 1_555
K3 O2 2.995211 1_545
K3 O25 3.046215 1_555
K3 O30 3.091509 1_545
K3 O21 3.152935 1_555
K3 O37 3.170962 1_555
K3 O10 3.182711 1_544
K3 O17 3.345036 1_545
K4 O12 2.972120 1_455
K4 O8 2.972490 1_555
K4 O30 2.974333 1_555
K4 O0 2.995211 1_554
K4 O26 3.046215 1_555
K4 O31 3.091509 1_554
K4 O22 3.152935 1_555
K4 O37 3.170962 1_555
K4 O11 3.182711 1_454
K4 O15 3.345036 1_554
K5 O13 2.972120 1_545
K5 O6 2.972490 1_555
K5 O31 2.974333 1_555
K5 O1 2.995211 1_455
K5 O24 3.046215 1_555
K5 O32 3.091509 1_455
K5 O23 3.152935 1_555
K5 O37 3.170962 1_555
K5 O9 3.182711 1_445
K5 O16 3.345036 1_455
Li0 O31 1.928075 1_555
Li0 O15 1.945472 1_555
Li0 O27 1.975480 1_455
Li0 O11 2.019513 1_455
Li1 O32 1.928075 1_555
Li1 O16 1.945472 1_555
Li1 O28 1.975480 1_545
Li1 O9 2.019513 1_545
Li2 O30 1.928075 1_555
Li2 O17 1.945472 1_555
Li2 O29 1.975480 1_554
Li2 O10 2.019513 1_554
Li3 O34 1.928075 1_555
Li3 O12 1.945472 1_555
Li3 O24 1.975480 1_655
Li3 O8 2.019513 1_655
Li4 O35 1.928075 1_555
Li4 O13 1.945472 1_555
Li4 O25 1.975480 1_565
Li4 O6 2.019513 1_565
Li5 O33 1.928075 1_555
Li5 O14 1.945472 1_555
Li5 O26 1.975480 1_556
Li5 O7 2.019513 1_556
O0 P0 1.624611 1_555
O0 P5 1.635460 1_455
O1 P1 1.624611 1_555
O1 P3 1.635460 1_545
O2 P2 1.624611 1_555
O2 P4 1.635460 1_554
O3 P3 1.624611 1_555
O3 P2 1.635460 1_655
O4 P4 1.624611 1_555
O4 P0 1.635460 1_565
O5 P5 1.624611 1_555
O5 P1 1.635460 1_556
O6 P0 1.497777 1_555
O7 P1 1.497777 1_555
O8 P2 1.497777 1_555
O9 P3 1.497777 1_555
O10 P4 1.497777 1_555
O11 P5 1.497777 1_555
O12 P1 1.498414 1_555
O13 P2 1.498414 1_555
O14 P0 1.498414 1_555
O15 P4 1.498414 1_555
O16 P5 1.498414 1_555
O17 P3 1.498414 1_555
O18 P11 1.614413 1_555
O18 P6 1.618098 1_555
O19 P9 1.614413 1_555
O19 P7 1.618098 1_555
O20 P10 1.614413 1_555
O20 P8 1.618098 1_555
O21 P8 1.614413 1_555
O21 P9 1.618098 1_555
O22 P6 1.614413 1_555
O22 P10 1.618098 1_555
O23 P7 1.614413 1_555
O23 P11 1.618098 1_555
O24 P6 1.500499 1_555
O25 P7 1.500499 1_555
O26 P8 1.500499 1_555
O27 P9 1.500499 1_555
O28 P10 1.500499 1_555
O29 P11 1.500499 1_555
O30 P10 1.496179 1_555
O31 P11 1.496179 1_555
O32 P9 1.496179 1_555
O33 P7 1.496179 1_555
O34 P8 1.496179 1_555
O35 P6 1.496179 1_555
