# generated using pymatgen
data_Zr2NiP2
_symmetry_space_group_name_H-M   'P 1'
_cell_length_a   3.75697710
_cell_length_b   3.75697710
_cell_length_c   13.11513916
_cell_angle_alpha   90.00000000
_cell_angle_beta   90.00000000
_cell_angle_gamma   120.00002610
_symmetry_Int_Tables_number   1
_chemical_formula_structural   Zr2NiP2
_chemical_formula_sum   'Zr4 Ni2 P4'
_cell_volume   160.31734683
_cell_formula_units_Z   2
loop_
 _symmetry_equiv_pos_site_id
 _symmetry_equiv_pos_as_xyz
  1  'x, y, z'
loop_
 _atom_site_type_symbol
 _atom_site_label
 _atom_site_symmetry_multiplicity
 _atom_site_fract_x
 _atom_site_fract_y
 _atom_site_fract_z
 _atom_site_occupancy
  Zr  Zr0  1  0.33333300  0.66666700  0.39002099  1
  Zr  Zr1  1  0.66666700  0.33333300  0.60997901  1
  Zr  Zr2  1  0.66666700  0.33333300  0.89002099  1
  Zr  Zr3  1  0.33333300  0.66666700  0.10997901  1
  Ni  Ni0  1  0.00000000  0.00000000  0.25000000  1
  Ni  Ni1  1  -0.00000000  0.00000000  0.75000000  1
  P  P0  1  -0.00000000  0.00000000  0.50000000  1
  P  P1  1  -0.00000000  0.00000000  0.00000000  1
  P  P2  1  0.33333300  0.66666700  0.75000000  1
  P  P3  1  0.66666700  0.33333300  0.25000000  1
loop_
_geom_bond_atom_site_label_1
_geom_bond_atom_site_label_2
_geom_bond_distance
_geom_bond_site_symmetry_2
Ni0 P3 2.169090 1_455
Ni0 P3 2.169092 1_445
Ni0 P3 2.169092 1_555
Ni0 Zr0 2.842059 1_545
Ni0 Zr3 2.842059 1_545
Ni0 Zr0 2.842060 1_445
Ni0 Zr3 2.842060 1_445
Ni0 Zr3 2.842060 1_555
Ni0 Zr0 2.842060 1_555
Ni1 P2 2.169090 1_545
Ni1 P2 2.169092 1_555
Ni1 P2 2.169092 1_445
Ni1 Zr1 2.842059 1_455
Ni1 Zr2 2.842059 1_455
Ni1 Zr1 2.842060 1_555
Ni1 Zr2 2.842060 1_445
Ni1 Zr1 2.842060 1_445
Ni1 Zr2 2.842060 1_555
P0 Zr0 2.604888 1_545
P0 Zr1 2.604888 1_455
P0 Zr1 2.604890 1_555
P0 Zr0 2.604890 1_445
P0 Zr1 2.604890 1_445
P0 Zr0 2.604890 1_555
P1 Zr2 2.604888 1_454
P1 Zr3 2.604888 1_545
P1 Zr3 2.604890 1_445
P1 Zr2 2.604890 1_554
P1 Zr3 2.604890 1_555
P1 Zr2 2.604890 1_444
P2 Zr1 2.842058 1_455
P2 Zr2 2.842058 1_565
P2 Zr2 2.842058 1_455
P2 Zr1 2.842058 1_565
P2 Zr2 2.842063 1_555
P2 Zr1 2.842063 1_555
P3 Zr0 2.842058 1_655
P3 Zr3 2.842058 1_655
P3 Zr3 2.842058 1_545
P3 Zr0 2.842058 1_545
P3 Zr0 2.842063 1_555
P3 Zr3 2.842063 1_555
