# generated using pymatgen
data_KNaEuTaO5
_symmetry_space_group_name_H-M   'P 1'
_cell_length_a   5.76287200
_cell_length_b   5.76287200
_cell_length_c   8.41620300
_cell_angle_alpha   90.00000000
_cell_angle_beta   90.00000000
_cell_angle_gamma   90.00000000
_symmetry_Int_Tables_number   1
_chemical_formula_structural   KNaEuTaO5
_chemical_formula_sum   'K2 Na2 Eu2 Ta2 O10'
_cell_volume   279.50793985
_cell_formula_units_Z   2
loop_
 _symmetry_equiv_pos_site_id
 _symmetry_equiv_pos_as_xyz
  1  'x, y, z'
loop_
 _atom_site_type_symbol
 _atom_site_label
 _atom_site_symmetry_multiplicity
 _atom_site_fract_x
 _atom_site_fract_y
 _atom_site_fract_z
 _atom_site_occupancy
  K  K0  1  0.00000000  0.00000000  0.00000000  1
  K  K1  1  0.50000000  0.50000000  0.00000000  1
  Na  Na0  1  0.00000000  0.50000000  0.24177000  1
  Na  Na1  1  0.50000000  0.00000000  0.75823000  1
  Eu  Eu0  1  0.00000000  0.00000000  0.50000000  1
  Eu  Eu1  1  0.50000000  0.50000000  0.50000000  1
  Ta  Ta0  1  0.00000000  0.50000000  0.73809400  1
  Ta  Ta1  1  0.50000000  0.00000000  0.26190600  1
  O  O0  1  0.76995000  0.26995000  0.66776900  1
  O  O1  1  0.23005000  0.26995000  0.66776900  1
  O  O2  1  0.76995000  0.73005000  0.66776900  1
  O  O3  1  0.23005000  0.73005000  0.66776900  1
  O  O4  1  0.73005000  0.23005000  0.33223100  1
  O  O5  1  0.26995000  0.23005000  0.33223100  1
  O  O6  1  0.73005000  0.76995000  0.33223100  1
  O  O7  1  0.26995000  0.76995000  0.33223100  1
  O  O8  1  0.00000000  0.50000000  0.95994000  1
  O  O9  1  0.50000000  0.00000000  0.04006000  1
loop_
_geom_bond_atom_site_label_1
_geom_bond_atom_site_label_2
_geom_bond_distance
_geom_bond_site_symmetry_2
K0 O9 2.901094 1_555
K0 O8 2.901094 1_554
K0 O9 2.901094 1_455
K0 O8 2.901094 1_544
K1 O9 2.901094 1_555
K1 O8 2.901094 1_554
K1 O9 2.901094 1_565
K1 O8 2.901094 1_654
Na0 O4 2.328081 1_455
Na0 O7 2.328081 1_555
Na0 O5 2.328081 1_555
Na0 O6 2.328081 1_455
Na0 O8 2.371938 1_554
Na1 O1 2.328081 1_555
Na1 O3 2.328081 1_545
Na1 O0 2.328081 1_555
Na1 O2 2.328081 1_545
Na1 O9 2.371938 1_556
Eu0 O1 2.484241 1_555
Eu0 O3 2.484241 1_545
Eu0 O7 2.484241 1_545
Eu0 O0 2.484241 1_455
Eu0 O2 2.484241 1_445
Eu0 O6 2.484241 1_445
Eu0 O4 2.484241 1_455
Eu0 O5 2.484241 1_555
Eu1 O1 2.484241 1_555
Eu1 O5 2.484241 1_555
Eu1 O2 2.484241 1_555
Eu1 O3 2.484241 1_555
Eu1 O0 2.484241 1_555
Eu1 O6 2.484241 1_555
Eu1 O7 2.484241 1_555
Eu1 O4 2.484241 1_555
O0 Ta0 1.966095 1_655
O1 Ta0 1.966095 1_555
O2 Ta0 1.966095 1_655
O3 Ta0 1.966095 1_555
O4 Ta1 1.966095 1_555
O5 Ta1 1.966095 1_555
O6 Ta1 1.966095 1_565
O7 Ta1 1.966095 1_565
O8 Ta0 1.867101 1_555
O9 Ta1 1.867101 1_555
