# generated using pymatgen
data_Li4Mn3CoO8
_symmetry_space_group_name_H-M   'P 1'
_cell_length_a   3.09388200
_cell_length_b   5.06925242
_cell_length_c   10.01591756
_cell_angle_alpha   77.24177167
_cell_angle_beta   84.36796190
_cell_angle_gamma   85.13295307
_symmetry_Int_Tables_number   1
_chemical_formula_structural   Li4Mn3CoO8
_chemical_formula_sum   'Li4 Mn3 Co1 O8'
_cell_volume   152.14511631
_cell_formula_units_Z   1
loop_
 _symmetry_equiv_pos_site_id
 _symmetry_equiv_pos_as_xyz
  1  'x, y, z'
loop_
 _atom_site_type_symbol
 _atom_site_label
 _atom_site_symmetry_multiplicity
 _atom_site_fract_x
 _atom_site_fract_y
 _atom_site_fract_z
 _atom_site_occupancy
  Li  Li0  1  0.00064200  0.75148300  0.75091900  1
  Li  Li1  1  0.50055500  0.75269200  0.24737800  1
  Li  Li2  1  0.49944500  0.24730800  0.75262200  1
  Li  Li3  1  0.99935800  0.24851700  0.24908100  1
  Mn  Mn0  1  0.50000000  0.00000000  0.50000000  1
  Mn  Mn1  1  0.50000000  0.50000000  0.00000000  1
  Mn  Mn2  1  0.00000000  0.50000000  0.50000000  1
  Co  Co0  1  0.00000000  0.00000000  0.00000000  1
  O  O0  1  0.47778300  0.86782900  0.88654500  1
  O  O1  1  0.97631600  0.86512900  0.38362000  1
  O  O2  1  0.97859000  0.35796300  0.88590900  1
  O  O3  1  0.47595200  0.36522900  0.38283300  1
  O  O4  1  0.52404800  0.63477100  0.61716700  1
  O  O5  1  0.02141000  0.64203700  0.11409100  1
  O  O6  1  0.02368400  0.13487100  0.61638000  1
  O  O7  1  0.52221700  0.13217100  0.11345500  1
loop_
_geom_bond_atom_site_label_1
_geom_bond_atom_site_label_2
_geom_bond_distance
_geom_bond_site_symmetry_2
Li0 O6 2.108560 1_565
Li0 O4 2.128076 1_555
Li0 O0 2.137905 1_455
Li0 O2 2.150780 1_455
Li0 O4 2.281392 1_455
Li0 O0 2.295119 1_555
Li1 O7 2.090174 1_565
Li1 O5 2.109213 1_655
Li1 O3 2.128957 1_555
Li1 O1 2.137727 1_455
Li1 O5 2.270398 1_555
Li1 O1 2.287736 1_555
Li2 O0 2.090174 1_545
Li2 O2 2.109213 1_455
Li2 O4 2.128957 1_555
Li2 O6 2.137727 1_655
Li2 O2 2.270398 1_555
Li2 O6 2.287736 1_555
Li3 O1 2.108560 1_545
Li3 O3 2.128076 1_555
Li3 O7 2.137905 1_655
Li3 O5 2.150780 1_655
Li3 O3 2.281392 1_655
Li3 O7 2.295119 1_555
Mn0 O1 1.960035 1_545
Mn0 O6 1.960035 1_555
Mn0 O4 1.960782 1_545
Mn0 O3 1.960782 1_555
Mn0 O1 2.315587 1_445
Mn0 O6 2.315587 1_655
Mn1 O0 1.957182 1_554
Mn1 O7 1.957182 1_555
Mn1 O5 1.966498 1_555
Mn1 O2 1.966498 1_554
Mn1 O5 2.312776 1_655
Mn1 O2 2.312776 1_454
Mn2 O1 1.957263 1_455
Mn2 O6 1.957263 1_555
Mn2 O3 1.963802 1_555
Mn2 O4 1.963802 1_455
Mn2 O4 2.321253 1_555
Mn2 O3 2.321253 1_455
Co0 O5 1.918751 1_545
Co0 O2 1.918751 1_454
Co0 O7 1.940056 1_455
Co0 O0 1.940056 1_544
Co0 O0 2.287130 1_444
Co0 O7 2.287130 1_555
