# generated using pymatgen
data_Mg14NbMo
_symmetry_space_group_name_H-M   'P 1'
_cell_length_a   6.32679835
_cell_length_b   6.08608987
_cell_length_c   10.03356223
_cell_angle_alpha   90.00000000
_cell_angle_beta   90.00000000
_cell_angle_gamma   118.74924061
_symmetry_Int_Tables_number   1
_chemical_formula_structural   Mg14NbMo
_chemical_formula_sum   'Mg14 Nb1 Mo1'
_cell_volume   338.72318197
_cell_formula_units_Z   1
loop_
 _symmetry_equiv_pos_site_id
 _symmetry_equiv_pos_as_xyz
  1  'x, y, z'
loop_
 _atom_site_type_symbol
 _atom_site_label
 _atom_site_symmetry_multiplicity
 _atom_site_fract_x
 _atom_site_fract_y
 _atom_site_fract_z
 _atom_site_occupancy
  Mg  Mg0  1  0.16679540  0.33339720  0.62500000  1
  Mg  Mg1  1  0.16517051  0.83258476  0.62500000  1
  Mg  Mg2  1  0.66048191  0.32849579  0.12500000  1
  Mg  Mg3  1  0.66359236  0.33269761  0.62500000  1
  Mg  Mg4  1  0.66048191  0.83198513  0.12500000  1
  Mg  Mg5  1  0.66359236  0.83089375  0.62500000  1
  Mg  Mg6  1  0.32789135  0.16194895  0.36354217  1
  Mg  Mg7  1  0.32789135  0.16194895  0.88645783  1
  Mg  Mg8  1  0.32789135  0.66594340  0.36354217  1
  Mg  Mg9  1  0.32789135  0.66594340  0.88645783  1
  Mg  Mg10  1  0.84731456  0.17365778  0.37160188  1
  Mg  Mg11  1  0.84731456  0.17365778  0.87839812  1
  Mg  Mg12  1  0.85037836  0.67518968  0.36474810  1
  Mg  Mg13  1  0.85037836  0.67518968  0.88525190  1
  Nb  Nb0  1  0.15602912  0.32801406  0.12500000  1
  Mo  Mo0  1  0.15690518  0.82845209  0.12500000  1
loop_
_geom_bond_atom_site_label_1
_geom_bond_atom_site_label_2
_geom_bond_distance
_geom_bond_site_symmetry_2
Mg0 Mg1 3.043058 1_545
Mg0 Mg1 3.043058 1_555
Mg0 Mg10 3.099143 1_455
Mg0 Mg11 3.099143 1_455
Mg0 Mg5 3.145184 1_555
Mg0 Mg3 3.145184 1_555
Mg0 Mg7 3.167432 1_555
Mg0 Mg6 3.167432 1_555
Mg0 Mg9 3.167438 1_555
Mg0 Mg8 3.167438 1_555
Mg0 Mg5 3.181618 1_445
Mg0 Mg3 3.181618 1_455
Mg1 Mg13 3.141273 1_455
Mg1 Mg12 3.141273 1_455
Mg1 Mg8 3.158297 1_555
Mg1 Mg9 3.158297 1_555
Mg1 Mg6 3.158302 1_565
Mg1 Mg7 3.158302 1_565
Mg1 Mg3 3.158377 1_565
Mg1 Mg5 3.158377 1_555
Mg1 Mg3 3.168446 1_455
Mg1 Mg5 3.168447 1_455
Mg2 Mg4 3.021808 1_545
Mg2 Mg7 3.021916 1_554
Mg2 Mg6 3.021916 1_555
Mg2 Mg4 3.064281 1_555
Mg2 Nb0 3.136638 1_655
Mg2 Mo0 3.151168 1_655
Mg2 Mo0 3.175742 1_545
Mg2 Nb0 3.190162 1_555
Mg3 Mg5 3.032066 1_555
Mg3 Mg5 3.054023 1_545
Mg3 Mg7 3.217099 1_555
Mg3 Mg6 3.217099 1_555
Mg4 Mg8 3.021916 1_555
Mg4 Mg9 3.021916 1_554
Mg4 Nb0 3.136638 1_665
Mg4 Mo0 3.151168 1_655
Mg4 Mo0 3.175742 1_555
Mg4 Nb0 3.190162 1_555
Mg5 Mg8 3.217099 1_555
Mg5 Mg9 3.217099 1_555
Mg6 Mo0 2.984335 1_545
Mg6 Nb0 2.998239 1_555
Mg6 Mg8 3.018734 1_545
Mg6 Mg8 3.067356 1_555
Mg7 Mo0 2.984335 1_546
Mg7 Nb0 2.998239 1_556
Mg7 Mg9 3.018734 1_545
Mg7 Mg9 3.067356 1_555
Mg8 Mo0 2.984328 1_555
Mg8 Nb0 2.998245 1_555
Mg9 Mo0 2.984328 1_556
Mg9 Nb0 2.998245 1_556
Mg10 Nb0 3.009069 1_655
Mg10 Mg12 3.043869 1_555
Mg10 Mg12 3.043869 1_545
Mg10 Mg8 3.076485 1_655
Mg10 Mg6 3.076485 1_655
Mg10 Mg2 3.078792 1_555
Mg10 Mg4 3.078798 1_545
Mg10 Mg3 3.136005 1_555
Mg10 Mg5 3.136011 1_545
Mg10 Mg8 3.253616 1_545
Mg10 Mg6 3.253616 1_555
Mg11 Nb0 3.009069 1_656
Mg11 Mg13 3.043869 1_555
Mg11 Mg13 3.043869 1_545
Mg11 Mg9 3.076485 1_655
Mg11 Mg7 3.076485 1_655
Mg11 Mg2 3.078792 1_556
Mg11 Mg4 3.078798 1_546
Mg11 Mg3 3.136005 1_555
Mg11 Mg5 3.136011 1_545
Mg11 Mg9 3.253616 1_545
Mg11 Mg7 3.253616 1_555
Mg12 Mo0 2.945761 1_655
Mg12 Mg4 3.040316 1_555
Mg12 Mg2 3.040322 1_555
Mg12 Mg6 3.048618 1_665
Mg12 Mg8 3.048618 1_655
Mg12 Mg5 3.192250 1_555
Mg12 Mg3 3.192255 1_555
Mg12 Mg6 3.278997 1_555
Mg12 Mg8 3.278997 1_555
Mg13 Mo0 2.945761 1_656
Mg13 Mg4 3.040316 1_556
Mg13 Mg2 3.040322 1_556
Mg13 Mg7 3.048618 1_665
Mg13 Mg9 3.048618 1_655
Mg13 Mg5 3.192250 1_555
Mg13 Mg3 3.192255 1_555
Mg13 Mg7 3.278997 1_555
Mg13 Mg9 3.278997 1_555
Mo0 Nb0 3.043049 1_555
Mo0 Nb0 3.043049 1_565
