# generated using pymatgen
data_Sr2VMoO6
_symmetry_space_group_name_H-M   'P 1'
_cell_length_a   5.67268159
_cell_length_b   5.70570084
_cell_length_c   7.91512601
_cell_angle_alpha   89.99458537
_cell_angle_beta   89.99836085
_cell_angle_gamma   89.93323985
_symmetry_Int_Tables_number   1
_chemical_formula_structural   Sr2VMoO6
_chemical_formula_sum   'Sr4 V2 Mo2 O12'
_cell_volume   256.18573310
_cell_formula_units_Z   2
loop_
 _symmetry_equiv_pos_site_id
 _symmetry_equiv_pos_as_xyz
  1  'x, y, z'
loop_
 _atom_site_type_symbol
 _atom_site_label
 _atom_site_symmetry_multiplicity
 _atom_site_fract_x
 _atom_site_fract_y
 _atom_site_fract_z
 _atom_site_occupancy
  Sr  Sr0  1  0.49985900  0.00296000  0.23052600  1
  Sr  Sr1  1  0.99999000  0.49699900  0.23051400  1
  Sr  Sr2  1  0.50007900  0.99699300  0.76949900  1
  Sr  Sr3  1  0.00008600  0.50303900  0.76948400  1
  V  V0  1  0.49994500  0.49997500  0.99982500  1
  V  V1  1  0.00004300  0.99985100  0.00013600  1
  Mo  Mo0  1  0.00000300  0.00006600  0.49994700  1
  Mo  Mo1  1  0.50000200  0.50000200  0.50000000  1
  O  O0  1  0.00321600  0.95237100  0.23822300  1
  O  O1  1  0.49692000  0.54761400  0.23822300  1
  O  O2  1  0.99677300  0.04765500  0.76182600  1
  O  O3  1  0.50308600  0.45238900  0.76171700  1
  O  O4  1  0.25006500  0.24998000  0.02030900  1
  O  O5  1  0.74995100  0.75000400  0.97968400  1
  O  O6  1  0.24997300  0.74994800  0.97713100  1
  O  O7  1  0.75001600  0.25004000  0.02286600  1
  O  O8  1  0.24947100  0.25055100  0.46704600  1
  O  O9  1  0.75050000  0.74950800  0.53300700  1
  O  O10  1  0.25053400  0.75062600  0.53808200  1
  O  O11  1  0.74948700  0.24942900  0.46195500  1
loop_
_geom_bond_atom_site_label_1
_geom_bond_atom_site_label_2
_geom_bond_distance
_geom_bond_site_symmetry_2
Mo0 O8 2.029208 1_555
Mo0 O9 2.029802 1_445
Mo0 O11 2.032120 1_455
Mo0 O10 2.032654 1_545
Mo0 O0 2.089478 1_545
Mo0 O2 2.090617 1_455
Mo1 O8 2.029375 1_555
Mo1 O9 2.029518 1_555
Mo1 O11 2.032973 1_555
Mo1 O10 2.033153 1_555
Mo1 O3 2.089306 1_555
Mo1 O1 2.089776 1_555
O0 V1 1.903919 1_555
O0 Sr1 2.599024 1_455
O0 Sr0 2.833033 1_565
O0 Sr0 2.870249 1_465
O0 Sr1 3.108110 1_465
O1 V0 1.906526 1_554
O1 Sr0 2.598849 1_565
O1 Sr1 2.834674 1_455
O1 Sr1 2.868644 1_555
O1 Sr0 3.108261 1_555
O2 V1 1.905934 1_646
O2 Sr3 2.599087 1_655
O2 Sr2 2.833360 1_545
O2 Sr2 2.869999 1_645
O2 Sr3 3.108036 1_645
O3 V0 1.904217 1_555
O3 Sr2 2.599153 1_545
O3 Sr3 2.835100 1_655
O3 Sr3 2.868279 1_555
O3 Sr2 3.107991 1_555
O4 V0 2.018620 1_554
O4 V1 2.019559 1_545
O4 Sr0 2.599605 1_555
O4 Sr1 2.600528 1_455
O4 Sr2 2.834014 1_544
O4 Sr3 2.834072 1_554
O5 V1 2.018876 1_656
O5 V0 2.019044 1_555
O5 Sr2 2.599588 1_555
O5 Sr3 2.600521 1_655
O5 Sr1 2.834113 1_556
O5 Sr0 2.834322 1_566
O6 V1 2.017838 1_556
O6 V0 2.018050 1_555
O6 Sr3 2.588545 1_555
O6 Sr2 2.589353 1_555
O6 Sr1 2.849602 1_456
O6 Sr0 2.849826 1_566
O7 V0 2.018537 1_554
O7 V1 2.019181 1_645
O7 Sr1 2.588976 1_555
O7 Sr0 2.589761 1_555
O7 Sr2 2.849916 1_544
O7 Sr3 2.849987 1_654
O8 Sr1 2.735000 1_455
O8 Sr0 2.741076 1_555
O8 Sr3 3.130953 1_555
O8 Sr2 3.136842 1_545
O9 Sr3 2.735071 1_655
O9 Sr2 2.740710 1_555
O9 Sr1 3.131610 1_555
O9 Sr0 3.136818 1_565
O10 Sr2 2.709290 1_555
O10 Sr3 2.715278 1_555
O10 Sr0 3.162774 1_565
O10 Sr1 3.169586 1_455
O11 Sr0 2.709903 1_555
O11 Sr1 2.715599 1_555
O11 Sr2 3.163177 1_545
O11 Sr3 3.169445 1_655
