# generated using pymatgen
data_Zn22Ni3
_symmetry_space_group_name_H-M   'P 1'
_cell_length_a   7.32525847
_cell_length_b   7.57096820
_cell_length_c   7.54817976
_cell_angle_alpha   108.49101158
_cell_angle_beta   119.02426019
_cell_angle_gamma   90.00122691
_symmetry_Int_Tables_number   1
_chemical_formula_structural   Zn22Ni3
_chemical_formula_sum   'Zn22 Ni3'
_cell_volume   341.11641290
_cell_formula_units_Z   1
loop_
 _symmetry_equiv_pos_site_id
 _symmetry_equiv_pos_as_xyz
  1  'x, y, z'
loop_
 _atom_site_type_symbol
 _atom_site_label
 _atom_site_symmetry_multiplicity
 _atom_site_fract_x
 _atom_site_fract_y
 _atom_site_fract_z
 _atom_site_occupancy
  Zn  Zn0  1  0.65540843  0.31124807  0.91458666  1
  Zn  Zn1  1  0.34459146  0.68875181  0.08541324  1
  Zn  Zn2  1  0.74082405  0.68875164  0.08541384  1
  Zn  Zn3  1  0.25917597  0.31124826  0.91458607  1
  Zn  Zn4  1  0.32365182  -0.00000030  0.00000048  1
  Zn  Zn5  1  0.67634821  0.00000029  -0.00000043  1
  Zn  Zn6  1  0.16946720  0.78320683  0.33893322  1
  Zn  Zn7  1  0.83053278  0.21679312  0.66106673  1
  Zn  Zn8  1  0.02142663  0.17513885  0.04285589  1
  Zn  Zn9  1  0.97857338  0.82486113  0.95714411  1
  Zn  Zn10  1  0.64949183  0.27404244  0.29898063  1
  Zn  Zn11  1  0.35050817  0.72595742  0.70101936  1
  Zn  Zn12  1  0.31466876  0.37649931  0.62933500  1
  Zn  Zn13  1  0.68533125  0.62350059  0.37066501  1
  Zn  Zn14  1  0.33701208  0.46197097  0.31376968  1
  Zn  Zn15  1  0.66298792  0.53802897  0.68623031  1
  Zn  Zn16  1  0.02324372  0.53802722  0.68623317  1
  Zn  Zn17  1  0.97675628  0.46197271  0.31376682  1
  Zn  Zn18  1  0.38169054  0.09821791  0.38365333  1
  Zn  Zn19  1  0.61830949  0.90178207  0.61634672  1
  Zn  Zn20  1  0.99803804  0.90178265  0.61634666  1
  Zn  Zn21  1  0.00196197  0.09821732  0.38365339  1
  Ni  Ni0  1  0.34259681  0.05359828  0.68518869  1
  Ni  Ni1  1  0.65740320  0.94640141  0.31481135  1
  Ni  Ni2  1  -0.00000001  0.50000002  0.00000005  1
loop_
_geom_bond_atom_site_label_1
_geom_bond_atom_site_label_2
_geom_bond_distance
_geom_bond_site_symmetry_2
Zn0 Zn12 2.563180 1_555
Zn0 Zn17 2.618862 1_556
Zn0 Zn5 2.619111 1_556
Zn0 Zn8 2.702224 1_656
Zn0 Zn15 2.809296 1_555
Zn0 Zn10 3.023280 1_556
Zn1 Zn13 2.563181 1_555
Zn1 Zn16 2.618862 1_554
Zn1 Zn4 2.619112 1_565
Zn1 Zn9 2.702224 1_454
Zn1 Zn14 2.809296 1_555
Zn1 Zn11 3.023280 1_554
Zn2 Zn5 2.619134 1_565
Zn2 Zn9 2.702110 1_554
Zn3 Zn4 2.619134 1_556
Zn3 Zn8 2.702110 1_556
Zn4 Zn5 2.583596 1_555
Zn4 Zn9 2.680832 1_444
Zn4 Zn8 2.680871 1_555
Zn5 Zn8 2.680832 1_655
Zn5 Zn9 2.680871 1_544
Zn6 Zn9 2.650629 1_454
Zn7 Zn8 2.650629 1_656
Zn8 Zn9 2.502897 1_444
Zn10 Zn13 2.513103 1_555
Zn10 Zn7 2.578896 1_555
Zn10 Zn5 2.626243 1_555
Zn10 Zn4 2.626329 1_555
Zn10 Zn17 2.724589 1_555
Zn10 Zn14 2.724640 1_555
Zn10 Zn18 2.790154 1_555
Zn10 Zn21 2.790235 1_655
Zn10 Zn15 2.926141 1_555
Zn10 Zn16 2.926241 1_655
Zn10 Zn3 3.023457 1_554
Zn11 Zn12 2.513102 1_555
Zn11 Zn6 2.578896 1_555
Zn11 Zn4 2.626244 1_566
Zn11 Zn5 2.626329 1_566
Zn11 Zn16 2.724589 1_555
Zn11 Zn15 2.724640 1_555
Zn11 Zn19 2.790154 1_555
Zn11 Zn20 2.790236 1_455
Zn11 Zn14 2.926141 1_555
Zn11 Zn17 2.926240 1_455
Zn11 Zn2 3.023456 1_556
Zn12 Zn18 2.554228 1_555
Zn12 Zn21 2.554303 1_555
Zn12 Zn3 2.563052 1_555
Zn12 Zn15 2.606480 1_555
Zn12 Zn16 2.606497 1_555
Zn12 Zn14 2.734079 1_555
Zn12 Zn17 2.734246 1_455
Zn13 Zn19 2.554228 1_555
Zn13 Zn20 2.554303 1_555
Zn13 Zn2 2.563053 1_555
Zn13 Zn14 2.606480 1_555
Zn13 Zn17 2.606497 1_555
Zn13 Zn15 2.734078 1_555
Zn13 Zn16 2.734246 1_655
Zn14 Zn15 2.529077 1_555
Zn14 Zn8 2.614851 1_555
Zn14 Zn3 2.618782 1_554
Zn14 Zn17 2.638956 1_455
Zn14 Zn6 2.718571 1_555
Zn14 Zn18 2.953584 1_555
Zn15 Zn9 2.614851 1_555
Zn15 Zn2 2.618782 1_556
Zn15 Zn16 2.638956 1_655
Zn15 Zn7 2.718571 1_555
Zn15 Zn19 2.953584 1_555
Zn16 Zn17 2.529003 1_455
Zn16 Zn9 2.614778 1_455
Zn16 Zn7 2.718517 1_455
Zn16 Zn3 2.809344 1_555
Zn16 Zn20 2.953607 1_455
Zn17 Zn8 2.614778 1_655
Zn17 Zn6 2.718518 1_655
Zn17 Zn2 2.809344 1_555
Zn17 Zn21 2.953607 1_655
Zn18 Zn4 2.561094 1_555
Zn18 Zn8 2.878151 1_555
Zn19 Zn5 2.561094 1_566
Zn19 Zn9 2.878151 1_555
Zn20 Zn4 2.561204 1_666
Zn20 Zn9 2.878001 1_555
Zn21 Zn5 2.561204 1_455
Zn21 Zn8 2.878002 1_555
Ni0 Zn6 2.453512 1_545
Ni0 Zn3 2.461913 1_555
Ni0 Zn0 2.461944 1_555
Ni0 Zn19 2.511933 1_545
Ni0 Zn20 2.511964 1_445
Ni0 Zn11 2.520339 1_545
Ni0 Zn18 2.548858 1_555
Ni0 Zn21 2.549020 1_555
Ni0 Zn4 2.600415 1_556
Ni0 Zn5 2.600525 1_556
Ni0 Zn12 2.601175 1_555
Ni1 Zn7 2.453512 1_565
Ni1 Zn2 2.461913 1_555
Ni1 Zn1 2.461944 1_555
Ni1 Zn18 2.511933 1_565
Ni1 Zn21 2.511965 1_665
Ni1 Zn10 2.520341 1_565
Ni1 Zn19 2.548857 1_555
Ni1 Zn20 2.549019 1_555
Ni1 Zn5 2.600416 1_565
Ni1 Zn4 2.600526 1_565
Ni1 Zn13 2.601173 1_555
Ni2 Zn6 2.474294 1_555
Ni2 Zn7 2.474295 1_454
Ni2 Zn17 2.558292 1_455
Ni2 Zn16 2.558292 1_554
Ni2 Zn14 2.558451 1_555
Ni2 Zn15 2.558451 1_454
Ni2 Zn9 2.575635 1_454
Ni2 Zn8 2.575636 1_555
Ni2 Zn2 2.581794 1_455
Ni2 Zn3 2.581796 1_554
Ni2 Zn1 2.581815 1_555
Ni2 Zn0 2.581815 1_454
