# generated using pymatgen
data_CuPb2(SCl)2
_symmetry_space_group_name_H-M   'P 1'
_cell_length_a   8.70350449
_cell_length_b   8.70350449
_cell_length_c   8.70350449
_cell_angle_alpha   150.03551603
_cell_angle_beta   150.03551603
_cell_angle_gamma   42.88927174
_symmetry_Int_Tables_number   1
_chemical_formula_structural   CuPb2(SCl)2
_chemical_formula_sum   'Cu1 Pb2 S2 Cl2'
_cell_volume   164.04862010
_cell_formula_units_Z   1
loop_
 _symmetry_equiv_pos_site_id
 _symmetry_equiv_pos_as_xyz
  1  'x, y, z'
loop_
 _atom_site_type_symbol
 _atom_site_label
 _atom_site_symmetry_multiplicity
 _atom_site_fract_x
 _atom_site_fract_y
 _atom_site_fract_z
 _atom_site_occupancy
  Cu  Cu0  1  0.00000000  0.00000000  0.00000000  1
  Pb  Pb0  1  0.33664500  0.33664500  0.00000000  1
  Pb  Pb1  1  0.66335500  0.66335500  0.00000000  1
  S  S0  1  0.16861700  0.16861700  0.00000000  1
  S  S1  1  0.83138300  0.83138300  0.00000000  1
  Cl  Cl0  1  0.50000000  0.00000000  0.50000000  1
  Cl  Cl1  1  0.00000000  0.50000000  0.50000000  1
loop_
_geom_bond_atom_site_label_1
_geom_bond_atom_site_label_2
_geom_bond_distance
_geom_bond_site_symmetry_2
Cu0 S0 2.731923 1_555
Cu0 S1 2.731923 1_445
Pb0 S0 2.722380 1_555
Pb0 S1 3.183161 1_545
Pb0 S1 3.183161 1_455
Pb0 S1 3.183161 1_556
Pb0 S1 3.183161 1_444
Pb1 S1 2.722380 1_555
Pb1 S0 3.183161 1_666
Pb1 S0 3.183161 1_554
Pb1 S0 3.183161 1_565
Pb1 S0 3.183161 1_655
Cl0 Cu0 2.250027 1_555
Cl0 Cu0 2.250027 1_656
Cl1 Cu0 2.250027 1_555
Cl1 Cu0 2.250027 1_566
