# generated using pymatgen
data_Mn2HgO4
_symmetry_space_group_name_H-M   'P 1'
_cell_length_a   5.86611955
_cell_length_b   6.50223511
_cell_length_c   5.86610689
_cell_angle_alpha   63.06193968
_cell_angle_beta   90.24425473
_cell_angle_gamma   116.93770408
_symmetry_Int_Tables_number   1
_chemical_formula_structural   Mn2HgO4
_chemical_formula_sum   'Mn4 Hg2 O8'
_cell_volume   172.05067019
_cell_formula_units_Z   2
loop_
 _symmetry_equiv_pos_site_id
 _symmetry_equiv_pos_as_xyz
  1  'x, y, z'
loop_
 _atom_site_type_symbol
 _atom_site_label
 _atom_site_symmetry_multiplicity
 _atom_site_fract_x
 _atom_site_fract_y
 _atom_site_fract_z
 _atom_site_occupancy
  Mn  Mn0  1  0.87507473  0.25001971  0.37499424  1
  Mn  Mn1  1  0.37501309  0.74999801  0.87504372  1
  Mn  Mn2  1  0.37504570  0.24997938  0.37502360  1
  Mn  Mn3  1  0.37501553  0.75000766  0.37504761  1
  Hg  Hg0  1  0.99994661  0.99999918  -0.00001734  1
  Hg  Hg1  1  0.74992050  0.50000191  0.74995172  1
  O  O0  1  0.14461376  0.29111006  0.14062242  1
  O  O1  1  0.60351403  0.20888784  0.18174933  1
  O  O2  1  0.56820402  0.70886097  0.14652562  1
  O  O3  1  0.14061355  0.70888759  0.14458953  1
  O  O4  1  0.60541191  0.20885306  0.60935341  1
  O  O5  1  0.14654018  0.29113452  0.56822264  1
  O  O6  1  0.18173690  0.79111236  0.60350089  1
  O  O7  1  0.60934548  0.79114875  0.60539362  1
loop_
_geom_bond_atom_site_label_1
_geom_bond_atom_site_label_2
_geom_bond_distance
_geom_bond_site_symmetry_2
Mn0 O0 1.940253 1_655
Mn0 O4 1.940480 1_555
Mn0 O5 1.940523 1_655
Mn0 O1 1.941011 1_555
Mn0 O3 2.304044 1_655
Mn0 O7 2.304161 1_545
Mn1 O3 1.940316 1_556
Mn1 O7 1.940377 1_555
Mn1 O2 1.940456 1_556
Mn1 O6 1.941043 1_555
Mn1 O4 2.304064 1_565
Mn1 O0 2.304158 1_556
Mn2 O1 1.940331 1_555
Mn2 O5 1.940505 1_555
Mn2 O4 1.940550 1_555
Mn2 O0 1.941114 1_555
Mn2 O6 2.304058 1_545
Mn2 O2 2.304216 1_555
Mn3 O6 1.940341 1_555
Mn3 O7 1.940475 1_555
Mn3 O2 1.940498 1_555
Mn3 O3 1.941226 1_555
Mn3 O1 2.304134 1_565
Mn3 O5 2.304164 1_555
Hg0 O2 2.221956 1_555
Hg0 O0 2.222005 1_665
Hg0 O5 2.222020 1_664
Hg0 O3 2.222125 1_655
Hg1 O7 2.221914 1_555
Hg1 O4 2.222036 1_555
Hg1 O1 2.222158 1_556
Hg1 O6 2.222251 1_655
