# generated using pymatgen
data_Ba2DyNbO6
_symmetry_space_group_name_H-M   'P 1'
_cell_length_a   8.55906961
_cell_length_b   8.55906961
_cell_length_c   8.55906961
_cell_angle_alpha   90.00000000
_cell_angle_beta   90.00000000
_cell_angle_gamma   90.00000000
_symmetry_Int_Tables_number   1
_chemical_formula_structural   Ba2DyNbO6
_chemical_formula_sum   'Ba8 Dy4 Nb4 O24'
_cell_volume   627.01751915
_cell_formula_units_Z   4
loop_
 _symmetry_equiv_pos_site_id
 _symmetry_equiv_pos_as_xyz
  1  'x, y, z'
loop_
 _atom_site_type_symbol
 _atom_site_label
 _atom_site_symmetry_multiplicity
 _atom_site_fract_x
 _atom_site_fract_y
 _atom_site_fract_z
 _atom_site_occupancy
  Ba  Ba0  1  0.50000000  0.50000000  0.50000000  1
  Ba  Ba1  1  -0.00000000  0.00000000  -0.00000000  1
  Ba  Ba2  1  -0.00000000  0.00000000  0.50000000  1
  Ba  Ba3  1  -0.00000000  0.50000000  -0.00000000  1
  Ba  Ba4  1  0.50000000  0.00000000  -0.00000000  1
  Ba  Ba5  1  0.50000000  0.50000000  -0.00000000  1
  Ba  Ba6  1  0.50000000  0.00000000  0.50000000  1
  Ba  Ba7  1  -0.00000000  0.50000000  0.50000000  1
  Dy  Dy0  1  0.75000000  0.75000000  0.75000000  1
  Dy  Dy1  1  0.75000000  0.25000000  0.25000000  1
  Dy  Dy2  1  0.25000000  0.75000000  0.25000000  1
  Dy  Dy3  1  0.25000000  0.25000000  0.75000000  1
  Nb  Nb0  1  0.25000000  0.25000000  0.25000000  1
  Nb  Nb1  1  0.25000000  0.75000000  0.75000000  1
  Nb  Nb2  1  0.75000000  0.25000000  0.75000000  1
  Nb  Nb3  1  0.75000000  0.75000000  0.25000000  1
  O  O0  1  0.23364594  0.26783451  0.48662720  1
  O  O1  1  0.23364594  0.73216549  0.51337280  1
  O  O2  1  0.76635406  0.26783451  0.51337280  1
  O  O3  1  0.76635406  0.73216549  0.48662720  1
  O  O4  1  0.26783451  0.48662720  0.23364594  1
  O  O5  1  0.73216549  0.51337280  0.23364594  1
  O  O6  1  0.26783451  0.51337280  0.76635406  1
  O  O7  1  0.73216549  0.48662720  0.76635406  1
  O  O8  1  0.48662720  0.23364594  0.26783451  1
  O  O9  1  0.51337280  0.23364594  0.73216549  1
  O  O10  1  0.51337280  0.76635406  0.26783451  1
  O  O11  1  0.48662720  0.76635406  0.73216549  1
  O  O12  1  0.26635406  0.23216549  0.01337280  1
  O  O13  1  0.26635406  0.76783451  0.98662720  1
  O  O14  1  0.73364594  0.23216549  0.98662720  1
  O  O15  1  0.73364594  0.76783451  0.01337280  1
  O  O16  1  0.23216549  0.01337280  0.26635406  1
  O  O17  1  0.76783451  0.98662720  0.26635406  1
  O  O18  1  0.23216549  0.98662720  0.73364594  1
  O  O19  1  0.76783451  0.01337280  0.73364594  1
  O  O20  1  0.01337280  0.26635406  0.23216549  1
  O  O21  1  0.98662720  0.26635406  0.76783451  1
  O  O22  1  0.98662720  0.73364594  0.23216549  1
  O  O23  1  0.01337280  0.73364594  0.76783451  1
loop_
_geom_bond_atom_site_label_1
_geom_bond_atom_site_label_2
_geom_bond_distance
_geom_bond_site_symmetry_2
Ba0 O6 3.026380 1_555
Ba0 O7 3.026380 1_555
Ba0 O10 3.026380 1_555
Ba0 O3 3.026380 1_555
Ba0 O2 3.026380 1_555
Ba0 O11 3.026380 1_555
Ba0 O0 3.026380 1_555
Ba0 O4 3.026380 1_555
Ba0 O1 3.026380 1_555
Ba0 O8 3.026380 1_555
Ba0 O5 3.026380 1_555
Ba0 O9 3.026380 1_555
Ba1 O23 3.026380 1_544
Ba1 O19 3.026380 1_454
Ba1 O22 3.026380 1_445
Ba1 O15 3.026380 1_445
Ba1 O18 3.026380 1_544
Ba1 O12 3.026380 1_555
Ba1 O20 3.026380 1_555
Ba1 O13 3.026380 1_544
Ba1 O17 3.026380 1_445
Ba1 O14 3.026380 1_454
Ba1 O16 3.026380 1_555
Ba1 O21 3.026380 1_454
Ba2 O17 2.821510 1_445
Ba2 O16 2.821510 1_555
Ba2 O19 2.821510 1_455
Ba2 O18 2.821510 1_545
Ba2 O1 3.044246 1_545
Ba2 O0 3.044246 1_555
Ba2 O3 3.044246 1_445
Ba2 O2 3.044246 1_455
Ba2 O21 3.235041 1_455
Ba2 O23 3.235041 1_545
Ba2 O20 3.235041 1_555
Ba2 O22 3.235041 1_445
Ba3 O20 2.821510 1_555
Ba3 O21 2.821510 1_454
Ba3 O22 2.821510 1_455
Ba3 O23 2.821510 1_554
Ba3 O5 3.044246 1_455
Ba3 O4 3.044246 1_555
Ba3 O6 3.044246 1_554
Ba3 O7 3.044246 1_454
Ba3 O15 3.235041 1_455
Ba3 O14 3.235041 1_454
Ba3 O12 3.235041 1_555
Ba3 O13 3.235041 1_554
Ba4 O13 2.821510 1_544
Ba4 O15 2.821510 1_545
Ba4 O12 2.821510 1_555
Ba4 O14 2.821510 1_554
Ba4 O8 3.044246 1_555
Ba4 O9 3.044246 1_554
Ba4 O11 3.044246 1_544
Ba4 O10 3.044246 1_545
Ba4 O17 3.235041 1_545
Ba4 O19 3.235041 1_554
Ba4 O16 3.235041 1_555
Ba4 O18 3.235041 1_544
Ba5 O4 2.821510 1_555
Ba5 O5 2.821510 1_555
Ba5 O6 2.821510 1_554
Ba5 O7 2.821510 1_554
Ba5 O13 3.044246 1_554
Ba5 O12 3.044246 1_555
Ba5 O15 3.044246 1_555
Ba5 O14 3.044246 1_554
Ba5 O11 3.235041 1_554
Ba5 O8 3.235041 1_555
Ba5 O9 3.235041 1_554
Ba5 O10 3.235041 1_555
Ba6 O8 2.821510 1_555
Ba6 O9 2.821510 1_555
Ba6 O10 2.821510 1_545
Ba6 O11 2.821510 1_545
Ba6 O17 3.044246 1_545
Ba6 O16 3.044246 1_555
Ba6 O19 3.044246 1_555
Ba6 O18 3.044246 1_545
Ba6 O2 3.235041 1_555
Ba6 O3 3.235041 1_545
Ba6 O0 3.235041 1_555
Ba6 O1 3.235041 1_545
Ba7 O0 2.821510 1_555
Ba7 O1 2.821510 1_555
Ba7 O3 2.821510 1_455
Ba7 O2 2.821510 1_455
Ba7 O20 3.044246 1_555
Ba7 O21 3.044246 1_455
Ba7 O23 3.044246 1_555
Ba7 O22 3.044246 1_455
Ba7 O4 3.235041 1_555
Ba7 O5 3.235041 1_455
Ba7 O6 3.235041 1_555
Ba7 O7 3.235041 1_455
Dy0 O19 2.263720 1_565
Dy0 O23 2.263720 1_655
Dy0 O15 2.263720 1_556
Dy0 O11 2.263720 1_555
Dy0 O7 2.263720 1_555
Dy0 O3 2.263720 1_555
Dy1 O17 2.263720 1_545
Dy1 O20 2.263720 1_655
Dy1 O2 2.263720 1_555
Dy1 O14 2.263720 1_554
Dy1 O5 2.263720 1_555
Dy1 O8 2.263720 1_555
Dy2 O13 2.263720 1_554
Dy2 O10 2.263720 1_555
Dy2 O22 2.263720 1_455
Dy2 O1 2.263720 1_555
Dy2 O16 2.263720 1_565
Dy2 O4 2.263720 1_555
Dy3 O6 2.263720 1_555
Dy3 O21 2.263720 1_455
Dy3 O9 2.263720 1_555
Dy3 O18 2.263720 1_545
Dy3 O12 2.263720 1_556
Dy3 O0 2.263720 1_555
Nb0 O8 2.035871 1_555
Nb0 O12 2.035871 1_555
Nb0 O16 2.035871 1_555
Nb0 O0 2.035871 1_555
Nb0 O20 2.035871 1_555
Nb0 O4 2.035871 1_555
Nb1 O23 2.035871 1_555
Nb1 O11 2.035871 1_555
Nb1 O1 2.035871 1_555
Nb1 O6 2.035871 1_555
Nb1 O18 2.035871 1_555
Nb1 O13 2.035871 1_555
Nb2 O7 2.035871 1_555
Nb2 O19 2.035871 1_555
Nb2 O21 2.035871 1_555
Nb2 O14 2.035871 1_555
Nb2 O9 2.035871 1_555
Nb2 O2 2.035871 1_555
Nb3 O15 2.035871 1_555
Nb3 O3 2.035871 1_555
Nb3 O5 2.035871 1_555
Nb3 O22 2.035871 1_555
Nb3 O10 2.035871 1_555
Nb3 O17 2.035871 1_555
