# generated using pymatgen
data_Tm5Tl3
_symmetry_space_group_name_H-M   'P 1'
_cell_length_a   6.52183370
_cell_length_b   8.82768568
_cell_length_c   8.82799059
_cell_angle_alpha   119.99894882
_cell_angle_beta   89.99997563
_cell_angle_gamma   89.99996532
_symmetry_Int_Tables_number   1
_chemical_formula_structural   Tm5Tl3
_chemical_formula_sum   'Tm10 Tl6'
_cell_volume   440.16314413
_cell_formula_units_Z   2
loop_
 _symmetry_equiv_pos_site_id
 _symmetry_equiv_pos_as_xyz
  1  'x, y, z'
loop_
 _atom_site_type_symbol
 _atom_site_label
 _atom_site_symmetry_multiplicity
 _atom_site_fract_x
 _atom_site_fract_y
 _atom_site_fract_z
 _atom_site_occupancy
  Tm  Tm0  1  0.50000070  0.33333242  0.66666436  1
  Tm  Tm1  1  0.49999954  0.66666783  0.33333487  1
  Tm  Tm2  1  -0.00000033  0.66666822  0.33333625  1
  Tm  Tm3  1  -0.00000036  0.33333210  0.66666505  1
  Tm  Tm4  1  0.74999866  0.23590774  -0.00000004  1
  Tm  Tm5  1  0.74999924  0.76406675  0.76406974  1
  Tm  Tm6  1  0.75000026  0.99999654  0.23592973  1
  Tm  Tm7  1  0.24999894  0.76409184  -0.00000004  1
  Tm  Tm8  1  0.24999942  0.23593350  0.23593055  1
  Tm  Tm9  1  0.25000047  0.00000334  0.76406977  1
  Tl  Tl0  1  0.74999996  0.59852346  0.99999933  1
  Tl  Tl1  1  0.75000009  0.40147219  0.40147538  1
  Tl  Tl2  1  0.74999956  0.99999635  0.59852439  1
  Tl  Tl3  1  0.25000007  0.40147637  0.00000062  1
  Tl  Tl4  1  0.25000013  0.59852781  0.59852467  1
  Tl  Tl5  1  0.24999966  0.00000353  0.40147539  1
loop_
_geom_bond_atom_site_label_1
_geom_bond_atom_site_label_2
_geom_bond_distance
_geom_bond_site_symmetry_2
Tl0 Tm6 3.084991 1_556
Tl0 Tm5 3.084993 1_555
Tl0 Tm3 3.147927 1_655
Tl0 Tm0 3.147931 1_555
Tl0 Tm1 3.147939 1_556
Tl0 Tm2 3.147947 1_656
Tl0 Tm4 3.201060 1_556
Tl0 Tm7 3.573481 1_656
Tl0 Tm7 3.573491 1_556
Tl1 Tm6 3.084985 1_545
Tl1 Tm4 3.085083 1_555
Tl1 Tm2 3.147857 1_655
Tl1 Tm0 3.147863 1_555
Tl1 Tm1 3.147863 1_555
Tl1 Tm3 3.147871 1_655
Tl1 Tm5 3.200976 1_555
Tl1 Tm8 3.573406 1_655
Tl1 Tm8 3.573416 1_555
Tl2 Tm5 3.084984 1_555
Tl2 Tm4 3.085084 1_566
Tl2 Tm2 3.147856 1_655
Tl2 Tm0 3.147857 1_565
Tl2 Tm3 3.147859 1_665
Tl2 Tm1 3.147863 1_555
Tl2 Tm6 3.200983 1_555
Tl2 Tm9 3.573406 1_565
Tl2 Tm9 3.573418 1_665
Tl3 Tm9 3.084991 1_554
Tl3 Tm8 3.084993 1_555
Tl3 Tm1 3.147930 1_555
Tl3 Tm2 3.147938 1_555
Tl3 Tm3 3.147941 1_554
Tl3 Tm0 3.147946 1_554
Tl3 Tm7 3.201058 1_555
Tl3 Tm4 3.573478 1_555
Tl3 Tm4 3.573496 1_455
Tl4 Tm9 3.084985 1_565
Tl4 Tm7 3.085083 1_556
Tl4 Tm0 3.147858 1_555
Tl4 Tm3 3.147864 1_555
Tl4 Tm2 3.147866 1_555
Tl4 Tm1 3.147870 1_555
Tl4 Tm8 3.200974 1_555
Tl4 Tm5 3.573408 1_555
Tl4 Tm5 3.573416 1_455
Tl5 Tm8 3.084983 1_555
Tl5 Tm7 3.085083 1_545
Tl5 Tm1 3.147856 1_545
Tl5 Tm2 3.147859 1_545
Tl5 Tm3 3.147861 1_555
Tl5 Tm0 3.147867 1_555
Tl5 Tm9 3.200981 1_555
Tl5 Tm6 3.573410 1_445
Tl5 Tm6 3.573416 1_545
