# generated using pymatgen
data_Zr2N2O
_symmetry_space_group_name_H-M   'P 1'
_cell_length_a   8.86510800
_cell_length_b   8.87993602
_cell_length_c   8.88031519
_cell_angle_alpha   109.49253680
_cell_angle_beta   109.35391917
_cell_angle_gamma   109.51957377
_symmetry_Int_Tables_number   1
_chemical_formula_structural   Zr2N2O
_chemical_formula_sum   'Zr16 N16 O8'
_cell_volume   538.46144133
_cell_formula_units_Z   8
loop_
 _symmetry_equiv_pos_site_id
 _symmetry_equiv_pos_as_xyz
  1  'x, y, z'
loop_
 _atom_site_type_symbol
 _atom_site_label
 _atom_site_symmetry_multiplicity
 _atom_site_fract_x
 _atom_site_fract_y
 _atom_site_fract_z
 _atom_site_occupancy
  Zr  Zr0  1  0.00353700  0.00139000  0.49892600  1
  Zr  Zr1  1  0.75245600  0.78318400  0.95582300  1
  Zr  Zr2  1  0.96815300  0.24648400  0.78009300  1
  Zr  Zr3  1  0.53157300  0.74768800  0.70839600  1
  Zr  Zr4  1  0.71214400  0.45997100  0.75685000  1
  Zr  Zr5  1  0.21992400  0.96837000  0.75014100  1
  Zr  Zr6  1  0.74958800  0.28805900  0.46445900  1
  Zr  Zr7  1  0.00106200  0.48987400  0.01042500  1
  Zr  Zr8  1  0.49413300  0.49791300  0.49074900  1
  Zr  Zr9  1  0.49462200  0.01105200  0.99797500  1
  Zr  Zr10  1  0.25796100  0.71353900  0.53221200  1
  Zr  Zr11  1  0.28175900  0.53400000  0.25458900  1
  Zr  Zr12  1  0.78579200  0.03659900  0.24629500  1
  Zr  Zr13  1  0.04594900  0.75691000  0.21339300  1
  Zr  Zr14  1  0.46920400  0.25846000  0.28211200  1
  Zr  Zr15  1  0.23824500  0.20703600  0.04644200  1
  N  N0  1  0.76955500  0.72546600  0.74036000  1
  N  N1  1  0.98433500  0.95066300  0.27828800  1
  N  N2  1  0.27317700  0.73951900  0.77379500  1
  N  N3  1  0.53603600  0.77244000  0.45592900  1
  N  N4  1  0.74130500  0.22659300  0.72630000  1
  N  N5  1  0.54944300  0.53819100  0.22550900  1
  N  N6  1  0.26437000  0.77748100  0.27234200  1
  N  N7  1  0.04796300  0.27571500  0.98322400  1
  N  N8  1  0.27003500  0.00671400  0.95760200  1
  N  N9  1  0.46502400  0.22840300  0.54509000  1
  N  N10  1  0.22746100  0.45679600  0.53438500  1
  N  N11  1  0.72807800  0.25754700  0.22778400  1
  N  N12  1  0.51389400  0.24247600  0.02976700  1
  N  N13  1  0.01113200  0.04221800  0.73012000  1
  N  N14  1  0.03112000  0.49138200  0.23851000  1
  N  N15  1  0.22392500  0.26982400  0.26596400  1
  O  O0  1  0.96481500  0.51460800  0.76043400  1
  O  O1  1  0.49304900  0.76485000  0.96475800  1
  O  O2  1  0.76925400  0.54303200  0.46970500  1
  O  O3  1  0.72488300  0.98456300  0.04754900  1
  O  O4  1  0.23532500  0.96417900  0.48898300  1
  O  O5  1  0.95120300  0.72521800  0.01183200  1
  O  O6  1  0.45780100  0.46810100  0.77021000  1
  O  O7  1  0.76071200  0.03349200  0.51268000  1
loop_
_geom_bond_atom_site_label_1
_geom_bond_atom_site_label_2
_geom_bond_distance
_geom_bond_site_symmetry_2
Zr1 Zr3 2.243913 1_555
Zr3 Zr8 2.233199 1_555
Zr10 Zr3 2.258285 1_555
Zr14 Zr15 2.162843 1_555
Zr14 Zr8 2.188212 1_555
Zr14 Zr6 2.341193 1_555
N0 Zr1 1.880526 1_555
N0 Zr3 2.118764 1_555
N0 Zr8 2.254928 1_555
N0 Zr4 2.305778 1_555
N1 Zr0 1.791524 1_665
N1 Zr13 1.940507 1_655
N1 Zr12 2.114671 1_565
N1 Zr1 2.418853 1_554
N2 O1 1.996816 1_555
N2 Zr10 2.032479 1_555
N2 Zr9 2.161932 1_565
N2 Zr5 2.292820 1_555
N2 Zr3 2.527595 1_555
N3 Zr11 2.091397 1_555
N3 Zr3 2.336285 1_555
N3 Zr8 2.480004 1_555
N3 Zr10 2.700217 1_555
N4 Zr2 1.836635 1_555
N4 Zr4 2.112933 1_555
N4 Zr7 2.397780 1_656
N5 Zr11 2.460285 1_555
N5 Zr14 2.611198 1_555
N5 Zr8 2.669616 1_555
N5 Zr15 2.708736 1_555
N6 Zr13 1.756341 1_555
N6 Zr11 2.175922 1_555
N6 Zr7 2.415465 1_555
N7 Zr2 1.593980 1_455
N7 Zr15 1.954719 1_556
N7 Zr7 2.033752 1_556
N7 Zr11 2.277638 1_556
N8 Zr5 1.626421 1_545
N8 Zr15 1.847141 1_556
N8 Zr9 1.886920 1_555
N8 Zr14 2.471845 1_556
N9 Zr4 2.059722 1_555
N9 Zr14 2.448079 1_555
N9 Zr8 2.543145 1_555
N9 Zr6 2.777521 1_555
N10 Zr10 2.211815 1_555
N10 Zr8 2.448900 1_555
N10 Zr3 2.499948 1_555
N11 Zr6 1.961356 1_555
N11 Zr9 2.105078 1_554
N11 Zr12 2.229031 1_555
N11 Zr14 2.498655 1_555
N12 Zr9 1.917878 1_554
N12 Zr14 2.369072 1_555
N13 Zr2 1.915447 1_455
N13 Zr0 1.935564 1_555
N13 Zr5 2.135070 1_545
N13 Zr15 2.371701 1_556
N14 Zr7 1.948200 1_555
N14 Zr11 2.071801 1_555
N14 Zr10 2.275310 1_555
N14 Zr13 2.406214 1_555
N15 Zr15 1.900841 1_555
N15 Zr14 2.169905 1_555
N15 Zr8 2.171476 1_555
N15 Zr11 2.272639 1_555
O0 Zr4 2.114240 1_555
O0 Zr7 2.231510 1_656
O0 Zr6 2.275547 1_555
O0 Zr2 2.453815 1_555
O1 O3 1.983092 1_556
O1 Zr9 2.100821 1_565
O1 Zr1 2.280495 1_555
O1 Zr3 2.375126 1_555
O1 Zr12 2.509396 1_566
O2 Zr6 2.195303 1_555
O2 Zr8 2.417253 1_555
O2 Zr14 2.449086 1_555
O3 Zr12 1.509105 1_565
O3 Zr1 1.836573 1_554
O3 Zr9 2.051912 1_564
O3 Zr3 2.524767 1_554
O4 Zr13 2.097917 1_555
O4 Zr0 2.212195 1_565
O4 Zr5 2.356739 1_555
O4 Zr10 2.441073 1_555
O5 Zr13 1.580479 1_655
O5 Zr1 1.952626 1_554
O5 Zr4 2.256245 1_554
O5 Zr7 2.272988 1_655
O6 Zr4 2.320276 1_555
O6 Zr1 2.559881 1_555
O6 Zr3 2.637294 1_555
O6 Zr8 2.691455 1_555
O7 Zr2 2.093344 1_555
O7 Zr0 2.300277 1_655
O7 Zr12 2.456469 1_555
O7 Zr6 2.463763 1_555
