# generated using pymatgen
data_SmCo2Cu3
_symmetry_space_group_name_H-M   'P 1'
_cell_length_a   4.94680543
_cell_length_b   4.94680543
_cell_length_c   4.11776000
_cell_angle_alpha   90.00000000
_cell_angle_beta   90.00000000
_cell_angle_gamma   119.99999231
_symmetry_Int_Tables_number   1
_chemical_formula_structural   SmCo2Cu3
_chemical_formula_sum   'Sm1 Co2 Cu3'
_cell_volume   87.26525312
_cell_formula_units_Z   1
loop_
 _symmetry_equiv_pos_site_id
 _symmetry_equiv_pos_as_xyz
  1  'x, y, z'
loop_
 _atom_site_type_symbol
 _atom_site_label
 _atom_site_symmetry_multiplicity
 _atom_site_fract_x
 _atom_site_fract_y
 _atom_site_fract_z
 _atom_site_occupancy
  Sm  Sm0  1  0.00000000  0.00000000  0.00000000  1
  Co  Co0  1  0.66666700  0.33333300  0.00000000  1
  Co  Co1  1  0.33333300  0.66666700  0.00000000  1
  Cu  Cu0  1  0.50000000  0.50000000  0.50000000  1
  Cu  Cu1  1  0.50000000  0.00000000  0.50000000  1
  Cu  Cu2  1  0.00000000  0.50000000  0.50000000  1
loop_
_geom_bond_atom_site_label_1
_geom_bond_atom_site_label_2
_geom_bond_distance
_geom_bond_site_symmetry_2
Co0 Cu2 2.505638 1_655
Co0 Cu1 2.505638 1_555
Co0 Cu1 2.505638 1_554
Co0 Cu2 2.505638 1_654
Co0 Cu0 2.505641 1_554
Co0 Cu0 2.505641 1_555
Co0 Sm0 2.856036 1_655
Co0 Co1 2.856037 1_545
Co0 Co1 2.856037 1_655
Co0 Sm0 2.856041 1_665
Co0 Sm0 2.856041 1_555
Co0 Co1 2.856045 1_555
Co1 Cu1 2.505638 1_565
Co1 Cu2 2.505638 1_554
Co1 Cu1 2.505638 1_564
Co1 Cu2 2.505638 1_555
Co1 Cu0 2.505641 1_554
Co1 Cu0 2.505641 1_555
Co1 Sm0 2.856036 1_565
Co1 Sm0 2.856041 1_665
Co1 Sm0 2.856041 1_555
Cu0 Cu1 2.473403 1_565
Cu0 Cu1 2.473403 1_555
Cu0 Cu2 2.473403 1_655
Cu0 Cu2 2.473403 1_555
Cu0 Sm0 3.218184 1_556
Cu0 Sm0 3.218184 1_555
Cu0 Sm0 3.218184 1_665
Cu0 Sm0 3.218184 1_666
Cu1 Cu2 2.473403 1_655
Cu1 Cu2 2.473403 1_545
Cu1 Sm0 3.218184 1_656
Cu1 Sm0 3.218184 1_655
Cu1 Sm0 3.218184 1_556
Cu1 Sm0 3.218184 1_555
Cu2 Sm0 3.218184 1_566
Cu2 Sm0 3.218184 1_556
Cu2 Sm0 3.218184 1_555
Cu2 Sm0 3.218184 1_565
