# generated using pymatgen
data_Zn(FeO2)2
_symmetry_space_group_name_H-M   'P 1'
_cell_length_a   2.92111000
_cell_length_b   9.05179800
_cell_length_c   10.41372275
_cell_angle_alpha   88.32705953
_cell_angle_beta   90.00000000
_cell_angle_gamma   90.00000000
_symmetry_Int_Tables_number   1
_chemical_formula_structural   Zn(FeO2)2
_chemical_formula_sum   'Zn4 Fe8 O16'
_cell_volume   275.23497663
_cell_formula_units_Z   4
loop_
 _symmetry_equiv_pos_site_id
 _symmetry_equiv_pos_as_xyz
  1  'x, y, z'
loop_
 _atom_site_type_symbol
 _atom_site_label
 _atom_site_symmetry_multiplicity
 _atom_site_fract_x
 _atom_site_fract_y
 _atom_site_fract_z
 _atom_site_occupancy
  Zn  Zn0  1  0.00000000  0.75471300  0.35410600  1
  Zn  Zn1  1  0.50000000  0.24307200  0.65252700  1
  Zn  Zn2  1  0.00000000  0.24910300  0.15234800  1
  Zn  Zn3  1  0.50000000  0.75423000  0.84452900  1
  Fe  Fe0  1  0.50000000  0.59024900  0.10146400  1
  Fe  Fe1  1  0.00000000  0.91568000  0.60155400  1
  Fe  Fe2  1  0.50000000  0.08685000  0.40121600  1
  Fe  Fe3  1  0.00000000  0.40663600  0.89686200  1
  Fe  Fe4  1  0.00000000  0.43225200  0.38304200  1
  Fe  Fe5  1  0.50000000  0.56534000  0.61813500  1
  Fe  Fe6  1  0.00000000  0.94147100  0.12051000  1
  Fe  Fe7  1  0.50000000  0.05760800  0.87808400  1
  O  O0  1  0.50000000  0.09101500  0.06528600  1
  O  O1  1  0.00000000  0.91889700  0.92832400  1
  O  O2  1  0.50000000  0.59422200  0.42647500  1
  O  O3  1  0.00000000  0.40557100  0.57287600  1
  O  O4  1  0.50000000  0.95999300  0.71494500  1
  O  O5  1  0.00000000  0.04519300  0.28632000  1
  O  O6  1  0.50000000  0.46158600  0.78232400  1
  O  O7  1  0.00000000  0.52568500  0.21283600  1
  O  O8  1  0.50000000  0.37640000  0.03352800  1
  O  O9  1  0.00000000  0.62874600  0.96201800  1
  O  O10  1  0.50000000  0.88438400  0.46960800  1
  O  O11  1  0.00000000  0.11691800  0.53248600  1
  O  O12  1  0.00000000  0.19707000  0.82231400  1
  O  O13  1  0.50000000  0.79728400  0.18240800  1
  O  O14  1  0.50000000  0.29021900  0.33113800  1
  O  O15  1  0.00000000  0.70961600  0.67273700  1
loop_
_geom_bond_atom_site_label_1
_geom_bond_atom_site_label_2
_geom_bond_distance
_geom_bond_site_symmetry_2
Fe0 O7 1.944305 1_655
Fe0 O7 1.944305 1_555
Fe0 O13 2.077206 1_555
Fe0 O8 2.080258 1_555
Fe0 O9 2.081790 1_554
Fe0 O9 2.081790 1_654
Fe1 O4 1.927721 1_455
Fe1 O4 1.927721 1_555
Fe1 O11 1.938796 1_565
Fe1 O15 1.986937 1_555
Fe1 O10 2.030815 1_455
Fe1 O10 2.030815 1_555
Fe2 O5 1.932187 1_655
Fe2 O5 1.932187 1_555
Fe2 O10 1.946730 1_545
Fe2 O14 1.960326 1_555
Fe2 O11 2.024286 1_655
Fe2 O11 2.024286 1_555
Fe3 O6 1.941308 1_555
Fe3 O6 1.941308 1_455
Fe3 O8 2.052045 1_456
Fe3 O8 2.052045 1_556
Fe3 O12 2.070526 1_555
Fe3 O9 2.140590 1_555
Fe4 O7 1.941500 1_555
Fe4 O3 1.984565 1_555
Fe4 O14 2.029497 1_555
Fe4 O14 2.029497 1_455
Fe4 O2 2.127445 1_455
Fe4 O2 2.127445 1_555
Fe5 O6 1.926588 1_555
Fe5 O2 2.005361 1_555
Fe5 O15 2.050712 1_555
Fe5 O15 2.050712 1_655
Fe5 O3 2.118169 1_555
Fe5 O3 2.118169 1_655
Fe6 O5 1.989378 1_565
Fe6 O1 2.017702 1_554
Fe6 O13 2.050126 1_455
Fe6 O13 2.050126 1_555
Fe6 O0 2.061757 1_565
Fe6 O0 2.061757 1_465
Fe7 O4 1.937676 1_545
Fe7 O0 1.981488 1_556
Fe7 O1 1.986222 1_645
Fe7 O1 1.986222 1_545
Fe7 O12 2.005323 1_555
Fe7 O12 2.005323 1_655
O0 Zn2 2.253591 1_555
O0 Zn2 2.253591 1_655
O1 Zn3 2.278665 1_455
O1 Zn3 2.278665 1_555
O2 Zn0 2.178918 1_655
O2 Zn0 2.178918 1_555
O3 Zn1 2.216656 1_455
O3 Zn1 2.216656 1_555
O4 Zn3 2.267877 1_555
O5 Zn2 2.280983 1_555
O6 Zn1 2.428040 1_555
O8 Zn2 2.215569 1_655
O8 Zn2 2.215569 1_555
O9 Zn3 2.199817 1_455
O9 Zn3 2.199817 1_555
O10 Zn0 2.245016 1_555
O10 Zn0 2.245016 1_655
O11 Zn1 2.254603 1_455
O11 Zn1 2.254603 1_555
O12 Zn1 2.321606 1_555
O12 Zn1 2.321606 1_455
O13 Zn0 2.332055 1_555
O13 Zn0 2.332055 1_655
O14 Zn2 2.403903 1_655
O14 Zn2 2.403903 1_555
O15 Zn3 2.353506 1_555
O15 Zn3 2.353506 1_455
