# generated using pymatgen
data_Pr6Si3Ni2
_symmetry_space_group_name_H-M   'P 1'
_cell_length_a   4.57110200
_cell_length_b   11.95640800
_cell_length_c   12.04422044
_cell_angle_alpha   60.27275818
_cell_angle_beta   90.00000000
_cell_angle_gamma   90.00000000
_symmetry_Int_Tables_number   1
_chemical_formula_structural   Pr6Si3Ni2
_chemical_formula_sum   'Pr12 Si6 Ni4'
_cell_volume   571.63402584
_cell_formula_units_Z   2
loop_
 _symmetry_equiv_pos_site_id
 _symmetry_equiv_pos_as_xyz
  1  'x, y, z'
loop_
 _atom_site_type_symbol
 _atom_site_label
 _atom_site_symmetry_multiplicity
 _atom_site_fract_x
 _atom_site_fract_y
 _atom_site_fract_z
 _atom_site_occupancy
  Pr  Pr0  1  0.00000000  0.76332300  0.22497300  1
  Pr  Pr1  1  0.00000000  0.23438400  0.00184200  1
  Pr  Pr2  1  0.00000000  0.00351000  0.76447300  1
  Pr  Pr3  1  0.50000000  0.23718400  0.76994800  1
  Pr  Pr4  1  0.50000000  0.76728600  0.99129100  1
  Pr  Pr5  1  0.50000000  0.98961400  0.23600100  1
  Pr  Pr6  1  0.00000000  0.14017600  0.37392000  1
  Pr  Pr7  1  0.00000000  0.37828600  0.48677400  1
  Pr  Pr8  1  0.00000000  0.48642000  0.13812300  1
  Pr  Pr9  1  0.50000000  0.86512500  0.61909700  1
  Pr  Pr10  1  0.50000000  0.61735700  0.51915600  1
  Pr  Pr11  1  0.50000000  0.52321900  0.86401600  1
  Si  Si0  1  0.50000000  0.33376500  0.33390000  1
  Si  Si1  1  0.00000000  0.66338600  0.67207900  1
  Si  Si2  1  0.00000000  0.84523700  0.44127400  1
  Si  Si3  1  0.50000000  0.55867200  0.28874500  1
  Si  Si4  1  0.50000000  0.28668700  0.15552700  1
  Si  Si5  1  0.50000000  0.15407300  0.55667100  1
  Ni  Ni0  1  0.74961700  0.00067400  0.99735100  1
  Ni  Ni1  1  0.25038300  0.00067400  0.99735100  1
  Ni  Ni2  1  0.00000000  0.43991600  0.71876700  1
  Ni  Ni3  1  0.00000000  0.71103100  0.84872200  1
loop_
_geom_bond_atom_site_label_1
_geom_bond_atom_site_label_2
_geom_bond_distance
_geom_bond_site_symmetry_2
Pr0 Si3 3.152312 1_555
Pr0 Si3 3.152312 1_455
Pr0 Si2 3.205714 1_555
Pr1 Si4 3.192031 1_455
Pr1 Si4 3.192031 1_555
Pr2 Si5 3.203149 1_455
Pr2 Si5 3.203149 1_555
Pr3 Si5 3.180799 1_555
Pr4 Si3 3.192840 1_556
Pr5 Si2 3.175458 1_655
Pr5 Si2 3.175458 1_555
Pr5 Si4 3.184549 1_565
Pr6 Si0 3.115626 1_555
Pr6 Si0 3.115626 1_455
Pr6 Si2 3.202587 1_545
Pr6 Si5 3.234018 1_555
Pr6 Si5 3.234018 1_455
Pr6 Si4 3.262134 1_455
Pr6 Si4 3.262134 1_555
Pr7 Si0 3.141547 1_455
Pr7 Si0 3.141547 1_555
Pr7 Si3 3.234575 1_455
Pr7 Si3 3.234575 1_555
Pr7 Si5 3.298615 1_555
Pr7 Si5 3.298615 1_455
Pr8 Si0 3.137982 1_555
Pr8 Si0 3.137982 1_455
Pr8 Si4 3.236387 1_555
Pr8 Si4 3.236387 1_455
Pr8 Si3 3.288663 1_455
Pr8 Si3 3.288663 1_555
Pr9 Si1 3.150008 1_555
Pr9 Si1 3.150008 1_655
Pr9 Si5 3.150351 1_565
Pr9 Si2 3.220623 1_555
Pr9 Si2 3.220623 1_655
Pr10 Si1 3.150279 1_555
Pr10 Si1 3.150279 1_655
Pr10 Si3 3.181940 1_555
Pr10 Si2 3.315502 1_555
Pr10 Si2 3.315502 1_655
Pr11 Si1 3.087756 1_555
Pr11 Si1 3.087756 1_655
Pr11 Si4 3.236948 1_556
Si0 Si3 2.465062 1_555
Si0 Si5 2.469412 1_555
Si0 Si4 2.476207 1_555
Si1 Si2 2.541821 1_555
Ni0 Ni1 2.282050 1_555
Ni0 Ni1 2.289052 1_655
Ni0 Pr2 3.013945 1_655
Ni0 Pr3 3.019745 1_555
Ni0 Pr0 3.027136 1_646
Ni0 Pr5 3.033871 1_546
Ni0 Pr1 3.044841 1_656
Ni0 Pr4 3.048942 1_545
Ni1 Pr2 3.013945 1_555
Ni1 Pr3 3.019745 1_555
Ni1 Pr0 3.027136 1_546
Ni1 Pr5 3.033871 1_546
Ni1 Pr1 3.044841 1_556
Ni1 Pr4 3.048942 1_545
Ni2 Si1 2.442373 1_555
Ni2 Pr1 3.058407 1_556
Ni2 Pr3 3.161864 1_555
Ni2 Pr3 3.161864 1_455
Ni2 Pr7 3.223717 1_555
Ni2 Pr10 3.232071 1_555
Ni2 Pr10 3.232071 1_455
Ni2 Pr11 3.317264 1_555
Ni2 Pr11 3.317264 1_455
Ni3 Si1 2.460255 1_555
Ni3 Pr2 3.120815 1_565
Ni3 Pr4 3.125717 1_555
Ni3 Pr4 3.125717 1_455
Ni3 Pr11 3.144833 1_555
Ni3 Pr11 3.144833 1_455
Ni3 Pr8 3.174610 1_556
Ni3 Pr9 3.348681 1_455
Ni3 Pr9 3.348681 1_555
