# generated using pymatgen
data_Dy6CoTe2
_symmetry_space_group_name_H-M   'P 1'
_cell_length_a   8.31793097
_cell_length_b   8.31793097
_cell_length_c   3.94593966
_cell_angle_alpha   90.00000000
_cell_angle_beta   90.00000000
_cell_angle_gamma   120.00404422
_symmetry_Int_Tables_number   1
_chemical_formula_structural   Dy6CoTe2
_chemical_formula_sum   'Dy6 Co1 Te2'
_cell_volume   236.42532518
_cell_formula_units_Z   1
loop_
 _symmetry_equiv_pos_site_id
 _symmetry_equiv_pos_as_xyz
  1  'x, y, z'
loop_
 _atom_site_type_symbol
 _atom_site_label
 _atom_site_symmetry_multiplicity
 _atom_site_fract_x
 _atom_site_fract_y
 _atom_site_fract_z
 _atom_site_occupancy
  Dy  Dy0  1  0.00000550  0.40030750  0.50000000  1
  Dy  Dy1  1  0.59973544  0.59973444  0.50000000  1
  Dy  Dy2  1  0.40030750  0.00000450  0.50000000  1
  Dy  Dy3  1  0.00000454  0.76573144  -0.00000000  1
  Dy  Dy4  1  0.23428584  0.23428484  -0.00000000  1
  Dy  Dy5  1  0.76573144  0.00000354  -0.00000000  1
  Co  Co0  1  -0.00000938  -0.00000938  0.50000000  1
  Te  Te0  1  0.33331337  0.66662774  -0.00000000  1
  Te  Te1  1  0.66662774  0.33331337  -0.00000000  1
loop_
_geom_bond_atom_site_label_1
_geom_bond_atom_site_label_2
_geom_bond_distance
_geom_bond_site_symmetry_2
Dy0 Te0 3.216195 1_555
Dy0 Te0 3.216195 1_556
Dy0 Te1 3.216720 1_456
Dy0 Te1 3.216720 1_455
Dy1 Te1 3.216576 1_556
Dy1 Te1 3.216576 1_555
Dy1 Te0 3.216586 1_555
Dy1 Te0 3.216586 1_556
Dy2 Te1 3.216200 1_556
Dy2 Te1 3.216200 1_555
Dy2 Te0 3.216713 1_546
Dy2 Te0 3.216713 1_545
Dy3 Te1 3.263659 1_455
Dy3 Te0 3.263688 1_555
Dy4 Te1 3.263203 1_555
Dy4 Te0 3.263214 1_555
Dy5 Te0 3.263656 1_545
Dy5 Te1 3.263696 1_555
Co0 Dy5 2.773026 1_456
Co0 Dy5 2.773026 1_455
Co0 Dy3 2.773029 1_545
Co0 Dy3 2.773029 1_546
Co0 Dy4 2.773112 1_555
Co0 Dy4 2.773112 1_556
Co0 Dy1 3.329096 1_445
Co0 Dy0 3.329746 1_555
Co0 Dy2 3.329750 1_555
