# generated using pymatgen
data_Sr2SmBiO6
_symmetry_space_group_name_H-M   'P 1'
_cell_length_a   5.98013087
_cell_length_b   6.16925400
_cell_length_c   8.56720352
_cell_angle_alpha   90.00000000
_cell_angle_beta   90.02596995
_cell_angle_gamma   90.00000000
_symmetry_Int_Tables_number   1
_chemical_formula_structural   Sr2SmBiO6
_chemical_formula_sum   'Sr4 Sm2 Bi2 O12'
_cell_volume   316.06934725
_cell_formula_units_Z   2
loop_
 _symmetry_equiv_pos_site_id
 _symmetry_equiv_pos_as_xyz
  1  'x, y, z'
loop_
 _atom_site_type_symbol
 _atom_site_label
 _atom_site_symmetry_multiplicity
 _atom_site_fract_x
 _atom_site_fract_y
 _atom_site_fract_z
 _atom_site_occupancy
  Sr  Sr0  1  0.01317300  0.45190600  0.25267800  1
  Sr  Sr1  1  0.98682700  0.54809400  0.74732200  1
  Sr  Sr2  1  0.48682800  0.95190600  0.24732200  1
  Sr  Sr3  1  0.51317300  0.04809400  0.75267800  1
  Sm  Sm0  1  0.00000000  0.00000000  0.50000000  1
  Sm  Sm1  1  0.50000000  0.50000000  0.00000000  1
  Bi  Bi0  1  0.00000000  0.00000000  0.00000000  1
  Bi  Bi1  1  0.50000000  0.50000000  0.50000000  1
  O  O0  1  0.90048500  0.04189800  0.23940300  1
  O  O1  1  0.09951500  0.95810200  0.76059700  1
  O  O2  1  0.59951500  0.54189800  0.26059700  1
  O  O3  1  0.40048500  0.45810200  0.73940300  1
  O  O4  1  0.19218000  0.71523600  0.05699700  1
  O  O5  1  0.80782000  0.28476400  0.94300300  1
  O  O6  1  0.30782000  0.21523600  0.44300300  1
  O  O7  1  0.69218000  0.78476400  0.55699700  1
  O  O8  1  0.28913600  0.19436400  0.04836200  1
  O  O9  1  0.71086400  0.80563600  0.95163800  1
  O  O10  1  0.21086400  0.69436400  0.45163800  1
  O  O11  1  0.78913600  0.30563600  0.54836200  1
loop_
_geom_bond_atom_site_label_1
_geom_bond_atom_site_label_2
_geom_bond_distance
_geom_bond_site_symmetry_2
Bi0 O9 2.144411 1_444
Bi0 O8 2.144411 1_555
Bi0 O1 2.151450 1_544
Bi0 O0 2.151450 1_455
Bi0 O5 2.155230 1_454
Bi0 O4 2.155230 1_545
Bi1 O11 2.144411 1_555
Bi1 O10 2.144411 1_555
Bi1 O2 2.151450 1_555
Bi1 O3 2.151450 1_555
Bi1 O7 2.155230 1_555
Bi1 O6 2.155230 1_555
O0 Sm0 2.324696 1_655
O0 Sr2 2.536196 1_545
O0 Sr0 2.620129 1_655
O1 Sm0 2.324696 1_565
O1 Sr3 2.536202 1_565
O1 Sr1 2.620129 1_455
O2 Sm1 2.324696 1_555
O2 Sr0 2.536202 1_655
O2 Sr2 2.620127 1_555
O3 Sm1 2.324696 1_556
O3 Sr1 2.536202 1_455
O3 Sr3 2.620129 1_555
O4 Sm1 2.321850 1_555
O4 Sr0 2.568497 1_555
O4 Sr2 2.809393 1_555
O4 Sr1 3.099523 1_454
O5 Sm1 2.321850 1_556
O5 Sr1 2.568497 1_555
O5 Sr3 2.809389 1_555
O5 Sr0 3.099523 1_656
O6 Sm0 2.321850 1_555
O6 Sr2 2.568499 1_545
O6 Sr0 2.809389 1_555
O6 Sr3 3.099523 1_555
O7 Sm0 2.321850 1_665
O7 Sr3 2.568497 1_565
O7 Sr1 2.809389 1_555
O7 Sr2 3.099521 1_555
O8 Sm1 2.305977 1_555
O8 Sr2 2.557074 1_545
O8 Sr0 2.883482 1_555
O8 Sr3 3.004891 1_554
O9 Sm1 2.305977 1_556
O9 Sr3 2.557071 1_565
O9 Sr1 2.883482 1_555
O9 Sr2 3.004889 1_556
O10 Sm0 2.305977 1_565
O10 Sr0 2.557071 1_555
O10 Sr2 2.883486 1_555
O10 Sr1 3.004891 1_455
O11 Sm0 2.305977 1_655
O11 Sr1 2.557071 1_555
O11 Sr3 2.883482 1_555
O11 Sr0 3.004891 1_655
