# generated using pymatgen
data_Li2Fe(BO3)2
_symmetry_space_group_name_H-M   'P 1'
_cell_length_a   4.74508300
_cell_length_b   10.77561641
_cell_length_c   4.74508289
_cell_angle_alpha   77.28058093
_cell_angle_beta   60.00000430
_cell_angle_gamma   77.28058264
_symmetry_Int_Tables_number   1
_chemical_formula_structural   Li2Fe(BO3)2
_chemical_formula_sum   'Li4 Fe2 B4 O12'
_cell_volume   203.21251854
_cell_formula_units_Z   2
loop_
 _symmetry_equiv_pos_site_id
 _symmetry_equiv_pos_as_xyz
  1  'x, y, z'
loop_
 _atom_site_type_symbol
 _atom_site_label
 _atom_site_symmetry_multiplicity
 _atom_site_fract_x
 _atom_site_fract_y
 _atom_site_fract_z
 _atom_site_occupancy
  Li  Li0  1  0.90371600  0.28885200  0.90371600  1
  Li  Li1  1  0.40371600  0.78885200  0.40371600  1
  Li  Li2  1  0.59628400  0.21114800  0.59628400  1
  Li  Li3  1  0.09628400  0.71114800  0.09628400  1
  Fe  Fe0  1  0.50000000  0.50000000  0.50000000  1
  Fe  Fe1  1  0.00000000  0.00000000  0.00000000  1
  B  B0  1  0.20493300  0.38520100  0.20493300  1
  B  B1  1  0.70493300  0.88520100  0.70493300  1
  B  B2  1  0.29506700  0.11479900  0.29506700  1
  B  B3  1  0.79506700  0.61479900  0.79506700  1
  O  O0  1  0.90134900  0.38161800  0.23581700  1
  O  O1  1  0.40134900  0.88161800  0.73581700  1
  O  O2  1  0.26418300  0.11838200  0.01878400  1
  O  O3  1  0.76418300  0.61838200  0.51878400  1
  O  O4  1  0.01878400  0.11838200  0.59865100  1
  O  O5  1  0.51878400  0.61838200  0.09865100  1
  O  O6  1  0.48121600  0.38161800  0.90134900  1
  O  O7  1  0.98121600  0.88161800  0.40134900  1
  O  O8  1  0.23581700  0.38161800  0.48121600  1
  O  O9  1  0.73581700  0.88161800  0.98121600  1
  O  O10  1  0.59865100  0.11838200  0.26418300  1
  O  O11  1  0.09865100  0.61838200  0.76418300  1
loop_
_geom_bond_atom_site_label_1
_geom_bond_atom_site_label_2
_geom_bond_distance
_geom_bond_site_symmetry_2
Li0 O0 2.038052 1_556
Li0 O8 2.038053 1_655
Li0 O6 2.038053 1_555
Li0 O4 2.388871 1_655
Li0 O10 2.388871 1_556
Li0 O2 2.388871 1_656
Li1 O1 2.038052 1_555
Li1 O9 2.038053 1_554
Li1 O7 2.038053 1_455
Li1 O5 2.388871 1_555
Li1 O11 2.388871 1_555
Li1 O3 2.388871 1_555
Li2 O10 2.038052 1_555
Li2 O2 2.038053 1_556
Li2 O4 2.038053 1_655
Li2 O6 2.388871 1_555
Li2 O0 2.388871 1_555
Li2 O8 2.388871 1_555
Li3 O11 2.038052 1_554
Li3 O3 2.038053 1_455
Li3 O5 2.038053 1_555
Li3 O7 2.388871 1_455
Li3 O1 2.388871 1_554
Li3 O9 2.388871 1_454
Fe0 O3 2.018071 1_555
Fe0 O8 2.018071 1_555
Fe0 O5 2.018071 1_555
Fe0 O6 2.018071 1_555
Fe0 O11 2.018071 1_555
Fe0 O0 2.018071 1_555
Fe1 O2 2.018071 1_555
Fe1 O9 2.018071 1_444
Fe1 O7 2.018071 1_445
Fe1 O4 2.018071 1_554
Fe1 O1 2.018071 1_544
Fe1 O10 2.018071 1_455
B0 O8 1.381662 1_555
B0 O0 1.381662 1_455
B0 O6 1.381663 1_554
B1 O9 1.381662 1_555
B1 O1 1.381662 1_555
B1 O7 1.381663 1_555
B2 O2 1.381662 1_555
B2 O10 1.381662 1_555
B2 O4 1.381663 1_555
B3 O3 1.381662 1_555
B3 O11 1.381662 1_655
B3 O5 1.381663 1_556
