# generated using pymatgen
data_Eu3Ti
_symmetry_space_group_name_H-M   'P 1'
_cell_length_a   6.33730547
_cell_length_b   6.33730547
_cell_length_c   6.33730547
_cell_angle_alpha   132.01316915
_cell_angle_beta   132.01316915
_cell_angle_gamma   70.20822845
_symmetry_Int_Tables_number   1
_chemical_formula_structural   Eu3Ti
_chemical_formula_sum   'Eu3 Ti1'
_cell_volume   137.71687054
_cell_formula_units_Z   1
loop_
 _symmetry_equiv_pos_site_id
 _symmetry_equiv_pos_as_xyz
  1  'x, y, z'
loop_
 _atom_site_type_symbol
 _atom_site_label
 _atom_site_symmetry_multiplicity
 _atom_site_fract_x
 _atom_site_fract_y
 _atom_site_fract_z
 _atom_site_occupancy
  Eu  Eu0  1  0.75000000  0.25000000  0.50000000  1
  Eu  Eu1  1  0.25000000  0.75000000  0.50000000  1
  Eu  Eu2  1  0.50000000  0.50000000  0.00000000  1
  Ti  Ti0  1  0.00000000  0.00000000  0.00000000  1
loop_
_geom_bond_atom_site_label_1
_geom_bond_atom_site_label_2
_geom_bond_distance
_geom_bond_site_symmetry_2
Eu0 Eu1 3.644356 1_656
Eu0 Eu1 3.644356 1_645
Eu0 Eu1 3.644356 1_544
Eu0 Eu1 3.644356 1_555
Eu0 Eu2 3.655228 1_545
Eu0 Eu2 3.655228 1_556
Eu0 Ti0 3.655228 1_555
Eu0 Ti0 3.655228 1_655
Eu0 Eu2 3.655228 1_555
Eu0 Ti0 3.655228 1_666
Eu0 Eu2 3.655228 1_656
Eu0 Ti0 3.655228 1_656
Eu1 Eu2 3.655228 1_556
Eu1 Eu2 3.655228 1_566
Eu1 Ti0 3.655228 1_555
Eu1 Ti0 3.655228 1_566
Eu1 Ti0 3.655228 1_565
Eu1 Ti0 3.655228 1_666
Eu1 Eu2 3.655228 1_455
Eu1 Eu2 3.655228 1_555
Eu2 Ti0 3.644356 1_655
Eu2 Ti0 3.644356 1_565
Eu2 Ti0 3.644356 1_554
Eu2 Ti0 3.644356 1_666
