# generated using pymatgen
data_Nd2Si3Pd
_symmetry_space_group_name_H-M   'P 1'
_cell_length_a   8.24718326
_cell_length_b   8.24718326
_cell_length_c   8.52146400
_cell_angle_alpha   90.00000000
_cell_angle_beta   90.00000000
_cell_angle_gamma   119.99999407
_symmetry_Int_Tables_number   1
_chemical_formula_structural   Nd2Si3Pd
_chemical_formula_sum   'Nd8 Si12 Pd4'
_cell_volume   501.94503356
_cell_formula_units_Z   4
loop_
 _symmetry_equiv_pos_site_id
 _symmetry_equiv_pos_as_xyz
  1  'x, y, z'
loop_
 _atom_site_type_symbol
 _atom_site_label
 _atom_site_symmetry_multiplicity
 _atom_site_fract_x
 _atom_site_fract_y
 _atom_site_fract_z
 _atom_site_occupancy
  Nd  Nd0  1  0.49671800  0.50328200  0.75000000  1
  Nd  Nd1  1  0.50328200  0.49671800  0.25000000  1
  Nd  Nd2  1  0.00656400  0.50328200  0.75000000  1
  Nd  Nd3  1  0.99343600  0.49671800  0.25000000  1
  Nd  Nd4  1  0.49671800  0.99343600  0.75000000  1
  Nd  Nd5  1  0.50328200  0.00656400  0.25000000  1
  Nd  Nd6  1  0.00000000  0.00000000  0.75000000  1
  Nd  Nd7  1  0.00000000  0.00000000  0.25000000  1
  Si  Si0  1  0.83413900  0.16586100  0.99945700  1
  Si  Si1  1  0.16586100  0.83413900  0.00054300  1
  Si  Si2  1  0.33172200  0.16586100  0.99945700  1
  Si  Si3  1  0.16586100  0.83413900  0.49945700  1
  Si  Si4  1  0.66827800  0.83413900  0.00054300  1
  Si  Si5  1  0.83413900  0.16586100  0.50054300  1
  Si  Si6  1  0.83413900  0.66827800  0.99945700  1
  Si  Si7  1  0.66827800  0.83413900  0.49945700  1
  Si  Si8  1  0.16586100  0.33172200  0.00054300  1
  Si  Si9  1  0.33172200  0.16586100  0.50054300  1
  Si  Si10  1  0.16586100  0.33172200  0.49945700  1
  Si  Si11  1  0.83413900  0.66827800  0.50054300  1
  Pd  Pd0  1  0.66666700  0.33333300  0.98823500  1
  Pd  Pd1  1  0.33333300  0.66666700  0.01176500  1
  Pd  Pd2  1  0.33333300  0.66666700  0.48823500  1
  Pd  Pd3  1  0.66666700  0.33333300  0.51176500  1
loop_
_geom_bond_atom_site_label_1
_geom_bond_atom_site_label_2
_geom_bond_distance
_geom_bond_site_symmetry_2
Nd0 Pd3 3.164617 1_555
Nd0 Pd0 3.164617 1_555
Nd0 Si4 3.185099 1_556
Nd0 Si7 3.185099 1_555
Nd0 Si8 3.185099 1_556
Nd0 Si10 3.185099 1_555
Nd0 Si6 3.213654 1_555
Nd0 Si2 3.213654 1_555
Nd0 Si11 3.213654 1_555
Nd0 Si9 3.213654 1_555
Nd0 Pd2 3.228415 1_555
Nd0 Pd1 3.228415 1_556
Nd1 Pd1 3.164617 1_555
Nd1 Pd2 3.164617 1_555
Nd1 Si11 3.185099 1_555
Nd1 Si6 3.185099 1_554
Nd1 Si9 3.185099 1_555
Nd1 Si2 3.185099 1_554
Nd1 Si7 3.213654 1_555
Nd1 Si4 3.213654 1_555
Nd1 Si10 3.213654 1_555
Nd1 Si8 3.213654 1_555
Nd1 Pd0 3.228415 1_554
Nd1 Pd3 3.228415 1_555
Nd2 Pd3 3.164612 1_455
Nd2 Pd0 3.164612 1_455
Nd2 Si8 3.185099 1_556
Nd2 Si10 3.185099 1_555
Nd2 Si1 3.185099 1_556
Nd2 Si3 3.185099 1_555
Nd2 Si6 3.213654 1_455
Nd2 Si11 3.213654 1_455
Nd2 Si0 3.213654 1_455
Nd2 Si5 3.213654 1_455
Nd2 Pd2 3.228410 1_555
Nd2 Pd1 3.228410 1_556
Nd3 Pd2 3.164612 1_655
Nd3 Pd1 3.164612 1_655
Nd3 Si11 3.185099 1_555
Nd3 Si6 3.185099 1_554
Nd3 Si5 3.185099 1_555
Nd3 Si0 3.185099 1_554
Nd3 Si10 3.213654 1_655
Nd3 Si8 3.213654 1_655
Nd3 Si3 3.213654 1_655
Nd3 Si1 3.213654 1_655
Nd3 Pd3 3.228410 1_555
Nd3 Pd0 3.228410 1_554
Nd4 Pd3 3.164612 1_565
Nd4 Pd0 3.164612 1_565
Nd4 Si4 3.185099 1_556
Nd4 Si7 3.185099 1_555
Nd4 Si1 3.185099 1_556
Nd4 Si3 3.185099 1_555
Nd4 Si2 3.213654 1_565
Nd4 Si9 3.213654 1_565
Nd4 Si0 3.213654 1_565
Nd4 Si5 3.213654 1_565
Nd4 Pd2 3.228410 1_555
Nd4 Pd1 3.228410 1_556
Nd5 Pd2 3.164612 1_545
Nd5 Pd1 3.164612 1_545
Nd5 Si9 3.185099 1_555
Nd5 Si2 3.185099 1_554
Nd5 Si5 3.185099 1_555
Nd5 Si0 3.185099 1_554
Nd5 Si7 3.213654 1_545
Nd5 Si4 3.213654 1_545
Nd5 Si3 3.213654 1_545
Nd5 Si1 3.213654 1_545
Nd5 Pd0 3.228410 1_554
Nd5 Pd3 3.228410 1_555
Nd6 Si0 3.183096 1_455
Nd6 Si5 3.183096 1_455
Nd6 Si2 3.183096 1_555
Nd6 Si9 3.183096 1_555
Nd6 Si6 3.183096 1_445
Nd6 Si11 3.183096 1_445
Nd6 Si3 3.189284 1_545
Nd6 Si1 3.189284 1_546
Nd6 Si8 3.189284 1_556
Nd6 Si10 3.189284 1_555
Nd6 Si4 3.189284 1_446
Nd6 Si7 3.189284 1_445
Nd7 Si3 3.183096 1_545
Nd7 Si1 3.183096 1_545
Nd7 Si10 3.183096 1_555
Nd7 Si8 3.183096 1_555
Nd7 Si7 3.183096 1_445
Nd7 Si4 3.183096 1_445
Nd7 Si5 3.189284 1_455
Nd7 Si0 3.189284 1_454
Nd7 Si9 3.189284 1_555
Nd7 Si2 3.189284 1_554
Nd7 Si11 3.189284 1_445
Nd7 Si6 3.189284 1_444
Si0 Si8 2.369266 1_656
Si0 Si4 2.369266 1_546
Si1 Si2 2.369266 1_564
Si1 Si6 2.369266 1_454
Si2 Si8 2.369266 1_556
Si3 Si9 2.369266 1_565
Si4 Si6 2.369266 1_554
Si5 Si7 2.369266 1_545
Si10 Si9 2.369266 1_555
Si10 Si5 2.369266 1_455
Si11 Si7 2.369266 1_555
Si11 Si3 2.369266 1_655
Pd0 Si0 2.394171 1_555
Pd0 Si6 2.394178 1_555
Pd0 Si2 2.394178 1_555
Pd1 Si1 2.394171 1_555
Pd1 Si4 2.394178 1_555
Pd1 Si8 2.394178 1_555
Pd2 Si3 2.394171 1_555
Pd2 Si7 2.394178 1_555
Pd2 Si10 2.394178 1_555
Pd3 Si5 2.394171 1_555
Pd3 Si11 2.394178 1_555
Pd3 Si9 2.394178 1_555
