# generated using pymatgen
data_Sr2MnNbO6
_symmetry_space_group_name_H-M   'P 1'
_cell_length_a   5.67552016
_cell_length_b   9.94334854
_cell_length_c   9.79792143
_cell_angle_alpha   98.91914980
_cell_angle_beta   105.73943817
_cell_angle_gamma   91.14326420
_symmetry_Int_Tables_number   1
_chemical_formula_structural   Sr2MnNbO6
_chemical_formula_sum   'Sr8 Mn4 Nb4 O24'
_cell_volume   524.64615637
_cell_formula_units_Z   4
loop_
 _symmetry_equiv_pos_site_id
 _symmetry_equiv_pos_as_xyz
  1  'x, y, z'
loop_
 _atom_site_type_symbol
 _atom_site_label
 _atom_site_symmetry_multiplicity
 _atom_site_fract_x
 _atom_site_fract_y
 _atom_site_fract_z
 _atom_site_occupancy
  Sr  Sr0  1  0.81348800  0.93687000  0.62578100  1
  Sr  Sr1  1  0.56247500  0.18819800  0.12580000  1
  Sr  Sr2  1  0.31463400  0.43668900  0.62553100  1
  Sr  Sr3  1  0.06266500  0.68811500  0.12567300  1
  Sr  Sr4  1  0.93811000  0.31123200  0.87421300  1
  Sr  Sr5  1  0.68689200  0.56276800  0.37429800  1
  Sr  Sr6  1  0.43739400  0.81140200  0.87436000  1
  Sr  Sr7  1  0.18586300  0.06269900  0.37443100  1
  Mn  Mn0  1  0.25058400  0.74997500  0.50017200  1
  Mn  Mn1  1  0.50009300  0.49975900  0.99989500  1
  Mn  Mn2  1  0.99980400  0.99963700  0.99992400  1
  Mn  Mn3  1  0.75012300  0.24991700  0.49996700  1
  Nb  Nb0  1  0.38238800  0.11700600  0.75012300  1
  Nb  Nb1  1  0.11751300  0.38277800  0.24987300  1
  Nb  Nb2  1  0.88343100  0.61697600  0.75001800  1
  Nb  Nb3  1  0.61699400  0.88277400  0.25004700  1
  O  O0  1  0.32982300  0.92136600  0.63226500  1
  O  O1  1  0.04592500  0.20951300  0.11968600  1
  O  O2  1  0.82955800  0.42129600  0.63214200  1
  O  O3  1  0.54591600  0.70948900  0.11987700  1
  O  O4  1  0.70270000  0.04559500  0.86756800  1
  O  O5  1  0.41450900  0.33213500  0.37923400  1
  O  O6  1  0.20369100  0.54565700  0.86735500  1
  O  O7  1  0.91205900  0.83139700  0.38055500  1
  O  O8  1  0.57776200  0.17674100  0.62424900  1
  O  O9  1  0.30325500  0.45197400  0.12414700  1
  O  O10  1  0.08173200  0.67587500  0.62516100  1
  O  O11  1  0.80484100  0.95178100  0.12517600  1
  O  O12  1  0.45297400  0.29079300  0.87991200  1
  O  O13  1  0.16986800  0.57908000  0.36718900  1
  O  O14  1  0.95362200  0.79079200  0.87976600  1
  O  O15  1  0.66937000  0.07904400  0.36730900  1
  O  O16  1  0.08529000  0.16839200  0.62096500  1
  O  O17  1  0.79627700  0.45476500  0.13324100  1
  O  O18  1  0.58825600  0.66917700  0.61999100  1
  O  O19  1  0.29692400  0.95494000  0.13266000  1
  O  O20  1  0.19533600  0.04795600  0.87520200  1
  O  O21  1  0.92248700  0.32332000  0.37595900  1
  O  O22  1  0.69638300  0.54802800  0.87527800  1
  O  O23  1  0.41899300  0.82409800  0.37500800  1
loop_
_geom_bond_atom_site_label_1
_geom_bond_atom_site_label_2
_geom_bond_distance
_geom_bond_site_symmetry_2
Mn0 O0 1.936830 1_555
Mn0 O13 1.937430 1_555
Mn0 O23 1.961834 1_555
Mn0 O10 1.961964 1_555
Mn0 O18 2.197679 1_555
Mn0 O7 2.203432 1_455
Mn1 O17 1.937171 1_556
Mn1 O6 1.937478 1_555
Mn1 O9 1.962634 1_556
Mn1 O22 1.964844 1_555
Mn1 O12 2.195610 1_555
Mn1 O3 2.202473 1_556
Mn2 O19 1.936978 1_656
Mn2 O4 1.939600 1_565
Mn2 O20 1.962704 1_665
Mn2 O11 1.963066 1_556
Mn2 O14 2.195418 1_555
Mn2 O1 2.202885 1_666
Mn3 O15 1.935767 1_555
Mn3 O2 1.937152 1_555
Mn3 O21 1.964003 1_555
Mn3 O8 1.965140 1_555
Mn3 O16 2.194809 1_655
Mn3 O5 2.198965 1_555
Nb0 O12 1.943780 1_555
Nb0 O16 1.944980 1_555
Nb0 O20 2.009474 1_555
Nb0 O8 2.011511 1_555
Nb0 O0 2.073672 1_545
Nb0 O4 2.074411 1_555
Nb1 O1 1.941588 1_555
Nb1 O5 1.942684 1_555
Nb1 O9 2.010113 1_555
Nb1 O21 2.010742 1_455
Nb1 O13 2.077330 1_555
Nb1 O17 2.077889 1_455
Nb2 O14 1.943798 1_555
Nb2 O18 1.944442 1_555
Nb2 O22 2.010457 1_555
Nb2 O10 2.012220 1_655
Nb2 O6 2.073396 1_655
Nb2 O2 2.073896 1_555
Nb3 O3 1.941630 1_555
Nb3 O7 1.943052 1_555
Nb3 O11 2.010753 1_555
Nb3 O23 2.010988 1_555
Nb3 O19 2.076554 1_555
Nb3 O15 2.076861 1_565
O0 Sr6 2.690723 1_555
O0 Sr0 2.764754 1_555
O0 Sr0 2.921561 1_455
O0 Sr7 3.008527 1_565
O1 Sr4 2.676304 1_454
O1 Sr1 2.765324 1_455
O1 Sr1 2.928612 1_555
O1 Sr7 3.015355 1_555
O2 Sr4 2.691043 1_555
O2 Sr2 2.773078 1_655
O2 Sr2 2.913182 1_555
O2 Sr5 3.009061 1_555
O3 Sr6 2.677669 1_554
O3 Sr3 2.763292 1_555
O3 Sr3 2.930543 1_655
O3 Sr5 3.012439 1_555
O4 Sr0 2.686529 1_545
O4 Sr6 2.767106 1_545
O4 Sr4 2.919687 1_555
O4 Sr1 3.011739 1_556
O5 Sr2 2.685768 1_555
O5 Sr5 2.754040 1_555
O5 Sr7 2.941564 1_555
O5 Sr1 2.999471 1_555
O6 Sr2 2.687927 1_555
O6 Sr4 2.770059 1_455
O6 Sr6 2.915609 1_555
O6 Sr3 3.014230 1_556
O7 Sr0 2.675286 1_555
O7 Sr7 2.767459 1_665
O7 Sr5 2.922673 1_555
O7 Sr3 3.016690 1_655
O8 Sr0 2.757981 1_545
O8 Sr4 2.850808 1_555
O8 Sr7 2.882592 1_555
O8 Sr2 3.010890 1_555
O9 Sr3 2.739732 1_555
O9 Sr5 2.851923 1_555
O9 Sr4 2.884157 1_454
O9 Sr1 3.032839 1_555
O10 Sr2 2.743931 1_555
O10 Sr6 2.837160 1_555
O10 Sr5 2.895176 1_455
O10 Sr0 3.034877 1_455
O11 Sr1 2.747267 1_565
O11 Sr7 2.839271 1_665
O11 Sr6 2.894206 1_554
O11 Sr3 3.027844 1_655
O12 Sr1 2.684438 1_556
O12 Sr4 2.773126 1_555
O12 Sr4 2.919231 1_455
O12 Sr2 3.006327 1_555
O13 Sr3 2.680670 1_555
O13 Sr5 2.763033 1_455
O13 Sr5 2.924612 1_555
O13 Sr2 3.019291 1_555
O14 Sr3 2.685044 1_656
O14 Sr6 2.764643 1_655
O14 Sr6 2.927803 1_555
O14 Sr0 3.004701 1_555
O15 Sr1 2.681264 1_555
O15 Sr7 2.766093 1_555
O15 Sr7 2.921600 1_655
O15 Sr0 3.018859 1_545
O16 Sr7 2.692553 1_555
O16 Sr0 2.759174 1_445
O16 Sr2 2.933618 1_555
O16 Sr4 2.991814 1_455
O17 Sr5 2.674448 1_555
O17 Sr3 2.765718 1_655
O17 Sr1 2.922133 1_555
O17 Sr4 3.026063 1_554
O18 Sr5 2.681948 1_555
O18 Sr2 2.774883 1_555
O18 Sr0 2.915534 1_555
O18 Sr6 3.009599 1_555
O19 Sr7 2.684556 1_565
O19 Sr1 2.760299 1_565
O19 Sr3 2.926607 1_555
O19 Sr6 3.016222 1_554
O20 Sr6 2.747553 1_545
O20 Sr0 2.843079 1_445
O20 Sr1 2.891672 1_556
O20 Sr4 3.022778 1_455
O21 Sr5 2.753937 1_555
O21 Sr1 2.853058 1_555
O21 Sr2 2.880307 1_655
O21 Sr7 3.017436 1_655
O22 Sr4 2.748677 1_555
O22 Sr2 2.845284 1_555
O22 Sr3 2.887666 1_656
O22 Sr6 3.028636 1_555
O23 Sr7 2.739490 1_565
O23 Sr3 2.841209 1_555
O23 Sr0 2.892814 1_555
O23 Sr5 3.036748 1_555
