# generated using pymatgen
data_Mg2Be3(NF6)2
_symmetry_space_group_name_H-M   'P 1'
_cell_length_a   10.06701901
_cell_length_b   10.06701901
_cell_length_c   10.06701901
_cell_angle_alpha   90.00000000
_cell_angle_beta   90.00000000
_cell_angle_gamma   90.00000000
_symmetry_Int_Tables_number   1
_chemical_formula_structural   Mg2Be3(NF6)2
_chemical_formula_sum   'Mg8 Be12 N8 F48'
_cell_volume   1020.24075045
_cell_formula_units_Z   4
loop_
 _symmetry_equiv_pos_site_id
 _symmetry_equiv_pos_as_xyz
  1  'x, y, z'
loop_
 _atom_site_type_symbol
 _atom_site_label
 _atom_site_symmetry_multiplicity
 _atom_site_fract_x
 _atom_site_fract_y
 _atom_site_fract_z
 _atom_site_occupancy
  Mg  Mg0  1  0.33558830  0.33558830  0.33558830  1
  Mg  Mg1  1  0.16441170  0.66441170  0.83558830  1
  Mg  Mg2  1  0.66441170  0.83558830  0.16441170  1
  Mg  Mg3  1  0.83558830  0.16441170  0.66441170  1
  Mg  Mg4  1  0.60169733  0.60169733  0.60169733  1
  Mg  Mg5  1  0.89830267  0.39830267  0.10169733  1
  Mg  Mg6  1  0.39830267  0.10169733  0.89830267  1
  Mg  Mg7  1  0.10169733  0.89830267  0.39830267  1
  Be  Be0  1  0.01762399  0.21809660  0.37530898  1
  Be  Be1  1  0.48237601  0.78190340  0.87530898  1
  Be  Be2  1  0.98237601  0.71809660  0.12469102  1
  Be  Be3  1  0.37530898  0.01762399  0.21809660  1
  Be  Be4  1  0.51762399  0.28190340  0.62469102  1
  Be  Be5  1  0.87530898  0.48237601  0.78190340  1
  Be  Be6  1  0.12469102  0.98237601  0.71809660  1
  Be  Be7  1  0.62469102  0.51762399  0.28190340  1
  Be  Be8  1  0.21809660  0.37530898  0.01762399  1
  Be  Be9  1  0.71809660  0.12469102  0.98237601  1
  Be  Be10  1  0.28190340  0.62469102  0.51762399  1
  Be  Be11  1  0.78190340  0.87530898  0.48237601  1
  N  N0  1  0.04922945  0.04922945  0.04922945  1
  N  N1  1  0.45077055  0.95077055  0.54922945  1
  N  N2  1  0.95077055  0.54922945  0.45077055  1
  N  N3  1  0.54922945  0.45077055  0.95077055  1
  N  N4  1  0.81651543  0.81651543  0.81651543  1
  N  N5  1  0.68348457  0.18348457  0.31651543  1
  N  N6  1  0.18348457  0.31651543  0.68348457  1
  N  N7  1  0.31651543  0.68348457  0.18348457  1
  F  F0  1  0.01381119  0.06758852  0.33380606  1
  F  F1  1  0.48618881  0.93241148  0.83380606  1
  F  F2  1  0.98618881  0.56758852  0.16619394  1
  F  F3  1  0.33380606  0.01381119  0.06758852  1
  F  F4  1  0.51381119  0.43241148  0.66619394  1
  F  F5  1  0.83380606  0.48618881  0.93241148  1
  F  F6  1  0.16619394  0.98618881  0.56758852  1
  F  F7  1  0.66619394  0.51381119  0.43241148  1
  F  F8  1  0.06758852  0.33380606  0.01381119  1
  F  F9  1  0.56758852  0.16619394  0.98618881  1
  F  F10  1  0.43241148  0.66619394  0.51381119  1
  F  F11  1  0.93241148  0.83380606  0.48618881  1
  F  F12  1  0.27100531  0.49410049  0.43625498  1
  F  F13  1  0.22899469  0.50589951  0.93625498  1
  F  F14  1  0.72899469  0.99410049  0.06374502  1
  F  F15  1  0.43625498  0.27100531  0.49410049  1
  F  F16  1  0.77100531  0.00589951  0.56374502  1
  F  F17  1  0.93625498  0.22899469  0.50589951  1
  F  F18  1  0.06374502  0.72899469  0.99410049  1
  F  F19  1  0.56374502  0.77100531  0.00589951  1
  F  F20  1  0.49410049  0.43625498  0.27100531  1
  F  F21  1  0.99410049  0.06374502  0.72899469  1
  F  F22  1  0.00589951  0.56374502  0.77100531  1
  F  F23  1  0.50589951  0.93625498  0.22899469  1
  F  F24  1  0.04402773  0.80786311  0.23288972  1
  F  F25  1  0.45597227  0.19213689  0.73288972  1
  F  F26  1  0.95597227  0.30786311  0.26711028  1
  F  F27  1  0.23288972  0.04402773  0.80786311  1
  F  F28  1  0.54402773  0.69213689  0.76711028  1
  F  F29  1  0.73288972  0.45597227  0.19213689  1
  F  F30  1  0.26711028  0.95597227  0.30786311  1
  F  F31  1  0.76711028  0.54402773  0.69213689  1
  F  F32  1  0.80786311  0.23288972  0.04402773  1
  F  F33  1  0.30786311  0.26711028  0.95597227  1
  F  F34  1  0.69213689  0.76711028  0.54402773  1
  F  F35  1  0.19213689  0.73288972  0.45597227  1
  F  F36  1  0.16543888  0.25647556  0.39796552  1
  F  F37  1  0.33456112  0.74352444  0.89796552  1
  F  F38  1  0.83456112  0.75647556  0.10203448  1
  F  F39  1  0.39796552  0.16543888  0.25647556  1
  F  F40  1  0.66543888  0.24352444  0.60203448  1
  F  F41  1  0.89796552  0.33456112  0.74352444  1
  F  F42  1  0.10203448  0.83456112  0.75647556  1
  F  F43  1  0.60203448  0.66543888  0.24352444  1
  F  F44  1  0.25647556  0.39796552  0.16543888  1
  F  F45  1  0.75647556  0.10203448  0.83456112  1
  F  F46  1  0.24352444  0.60203448  0.66543888  1
  F  F47  1  0.74352444  0.89796552  0.33456112  1
loop_
_geom_bond_atom_site_label_1
_geom_bond_atom_site_label_2
_geom_bond_distance
_geom_bond_site_symmetry_2
Be0 F26 1.545408 1_455
Be0 F17 1.552854 1_455
Be0 F36 1.554222 1_555
Be0 F0 1.572187 1_555
Be1 F28 1.545408 1_555
Be1 F19 1.552854 1_556
Be1 F37 1.554222 1_555
Be1 F1 1.572187 1_555
Be2 F24 1.545408 1_655
Be2 F18 1.552854 1_654
Be2 F38 1.554222 1_555
Be2 F2 1.572187 1_555
Be3 F30 1.545408 1_545
Be3 F23 1.552854 1_545
Be3 F39 1.554222 1_555
Be3 F3 1.572187 1_555
Be4 F25 1.545408 1_555
Be4 F15 1.552854 1_555
Be4 F40 1.554222 1_555
Be4 F4 1.572187 1_555
Be5 F31 1.545408 1_555
Be5 F22 1.552854 1_655
Be5 F41 1.554222 1_555
Be5 F5 1.572187 1_555
Be6 F27 1.545408 1_565
Be6 F21 1.552854 1_465
Be6 F42 1.554222 1_555
Be6 F6 1.572187 1_555
Be7 F29 1.545408 1_555
Be7 F20 1.552854 1_555
Be7 F43 1.554222 1_555
Be7 F7 1.572187 1_555
Be8 F33 1.545408 1_554
Be8 F13 1.552854 1_554
Be8 F44 1.554222 1_555
Be8 F8 1.572187 1_555
Be9 F32 1.545408 1_556
Be9 F14 1.552854 1_546
Be9 F45 1.554222 1_555
Be9 F9 1.572187 1_555
Be10 F35 1.545408 1_555
Be10 F12 1.552854 1_555
Be10 F46 1.554222 1_555
Be10 F10 1.572187 1_555
Be11 F34 1.545408 1_555
Be11 F16 1.552854 1_565
Be11 F47 1.554222 1_555
Be11 F11 1.572187 1_555
F0 Mg7 2.026986 1_545
F1 Mg6 2.026986 1_565
F2 Mg5 2.026986 1_555
F3 Mg6 2.026986 1_554
F4 Mg4 2.026986 1_555
F5 Mg5 2.026986 1_556
F6 Mg7 2.026986 1_555
F7 Mg4 2.026986 1_555
F8 Mg5 2.026986 1_455
F9 Mg6 2.026986 1_555
F10 Mg4 2.026986 1_555
F11 Mg7 2.026986 1_655
F12 Mg0 1.999029 1_555
F13 Mg1 1.999029 1_555
F14 Mg2 1.999029 1_555
F15 Mg0 1.999029 1_555
F16 Mg3 1.999029 1_555
F17 Mg3 1.999029 1_555
F18 Mg1 1.999029 1_555
F19 Mg2 1.999029 1_555
F20 Mg0 1.999029 1_555
F21 Mg3 1.999029 1_555
F22 Mg1 1.999029 1_555
F23 Mg2 1.999029 1_555
F24 Mg7 1.984672 1_555
F25 Mg6 1.984672 1_555
F26 Mg5 1.984672 1_555
F27 Mg6 1.984672 1_555
F28 Mg4 1.984672 1_555
F29 Mg5 1.984672 1_555
F30 Mg7 1.984672 1_555
F31 Mg4 1.984672 1_555
F32 Mg5 1.984672 1_555
F33 Mg6 1.984672 1_555
F34 Mg4 1.984672 1_555
F35 Mg7 1.984672 1_555
F36 Mg0 1.990639 1_555
F37 Mg1 1.990639 1_555
F38 Mg2 1.990639 1_555
F39 Mg0 1.990639 1_555
F40 Mg3 1.990639 1_555
F41 Mg3 1.990639 1_555
F42 Mg1 1.990639 1_555
F43 Mg2 1.990639 1_555
F44 Mg0 1.990639 1_555
F45 Mg3 1.990639 1_555
F46 Mg1 1.990639 1_555
F47 Mg2 1.990639 1_555
