# generated using pymatgen
data_Sr2ZnSb2
_symmetry_space_group_name_H-M   'P 1'
_cell_length_a   4.69533131
_cell_length_b   4.69533131
_cell_length_c   8.79141500
_cell_angle_alpha   90.00000000
_cell_angle_beta   90.00000000
_cell_angle_gamma   119.99999035
_symmetry_Int_Tables_number   1
_chemical_formula_structural   Sr2ZnSb2
_chemical_formula_sum   'Sr2 Zn1 Sb2'
_cell_volume   167.85023000
_cell_formula_units_Z   1
loop_
 _symmetry_equiv_pos_site_id
 _symmetry_equiv_pos_as_xyz
  1  'x, y, z'
loop_
 _atom_site_type_symbol
 _atom_site_label
 _atom_site_symmetry_multiplicity
 _atom_site_fract_x
 _atom_site_fract_y
 _atom_site_fract_z
 _atom_site_occupancy
  Sr  Sr0  1  0.33333300  0.66666700  0.71229600  1
  Sr  Sr1  1  0.33333300  0.66666700  0.28770400  1
  Zn  Zn0  1  0.66666700  0.33333300  0.00000000  1
  Sb  Sb0  1  0.66666700  0.33333300  0.50000000  1
  Sb  Sb1  1  0.00000000  0.00000000  0.00000000  1
loop_
_geom_bond_atom_site_label_1
_geom_bond_atom_site_label_2
_geom_bond_distance
_geom_bond_site_symmetry_2
Sb0 Sr1 3.291213 1_655
Sb0 Sr0 3.291213 1_545
Sb0 Sr1 3.291213 1_545
Sb0 Sr0 3.291213 1_655
Sb0 Sr1 3.291219 1_555
Sb0 Sr0 3.291219 1_555
Sb1 Zn0 2.710848 1_455
Sb1 Zn0 2.710852 1_445
Sb1 Zn0 2.710852 1_555
Sb1 Sr0 3.707585 1_544
Sb1 Sr1 3.707585 1_545
Sb1 Sr0 3.707588 1_554
Sb1 Sr0 3.707588 1_444
Sb1 Sr1 3.707588 1_445
Sb1 Sr1 3.707588 1_555
