# generated using pymatgen
data_MoW(SeS)2
_symmetry_space_group_name_H-M   'P 1'
_cell_length_a   3.25144031
_cell_length_b   3.25144031
_cell_length_c   36.89223100
_cell_angle_alpha   90.00000000
_cell_angle_beta   90.00000000
_cell_angle_gamma   120.00000636
_symmetry_Int_Tables_number   1
_chemical_formula_structural   MoW(SeS)2
_chemical_formula_sum   'Mo2 W2 Se4 S4'
_cell_volume   337.76690560
_cell_formula_units_Z   2
loop_
 _symmetry_equiv_pos_site_id
 _symmetry_equiv_pos_as_xyz
  1  'x, y, z'
loop_
 _atom_site_type_symbol
 _atom_site_label
 _atom_site_symmetry_multiplicity
 _atom_site_fract_x
 _atom_site_fract_y
 _atom_site_fract_z
 _atom_site_occupancy
  Mo  Mo0  1  0.00000000  0.00000000  0.09389800  1
  Mo  Mo1  1  0.33333300  0.66666700  0.28180300  1
  W  W0  1  0.00000000  0.00000000  0.46966400  1
  W  W1  1  0.33333300  0.66666700  0.65754000  1
  Se  Se0  1  0.00000000  0.00000000  0.32786900  1
  Se  Se1  1  0.33333300  0.66666700  0.04780900  1
  Se  Se2  1  0.33333300  0.66666700  0.14000300  1
  Se  Se3  1  0.00000000  0.00000000  0.23573800  1
  S  S0  1  0.00000000  0.00000000  0.69960500  1
  S  S1  1  0.33333300  0.66666700  0.42761500  1
  S  S2  1  0.33333300  0.66666700  0.51173000  1
  S  S3  1  0.00000000  0.00000000  0.61547200  1
loop_
_geom_bond_atom_site_label_1
_geom_bond_atom_site_label_2
_geom_bond_distance
_geom_bond_site_symmetry_2
Mo0 Se1 2.532796 1_545
Mo0 Se1 2.532798 1_555
Mo0 Se1 2.532798 1_445
Mo0 Se2 2.533192 1_545
Mo0 Se2 2.533194 1_555
Mo0 Se2 2.533194 1_445
Mo1 Se3 2.532202 1_565
Mo1 Se3 2.532204 1_555
Mo1 Se3 2.532204 1_665
Mo1 Se0 2.532227 1_565
Mo1 Se0 2.532229 1_555
Mo1 Se0 2.532229 1_665
S0 W1 2.435622 1_545
S0 W1 2.435624 1_445
S0 W1 2.435624 1_555
S1 W0 2.435246 1_565
S1 W0 2.435248 1_665
S1 W0 2.435248 1_555
S2 W0 2.435645 1_565
S2 W0 2.435647 1_555
S2 W0 2.435647 1_665
S3 W1 2.435692 1_545
S3 W1 2.435694 1_445
S3 W1 2.435694 1_555
