# generated using pymatgen
data_La4TiO8
_symmetry_space_group_name_H-M   'P 1'
_cell_length_a   13.46450500
_cell_length_b   13.46450500
_cell_length_c   7.73734100
_cell_angle_alpha   90.00000000
_cell_angle_beta   90.00000000
_cell_angle_gamma   90.00000000
_symmetry_Int_Tables_number   1
_chemical_formula_structural   La4TiO8
_chemical_formula_sum   'La24 Ti6 O48'
_cell_volume   1402.72494868
_cell_formula_units_Z   6
loop_
 _symmetry_equiv_pos_site_id
 _symmetry_equiv_pos_as_xyz
  1  'x, y, z'
loop_
 _atom_site_type_symbol
 _atom_site_label
 _atom_site_symmetry_multiplicity
 _atom_site_fract_x
 _atom_site_fract_y
 _atom_site_fract_z
 _atom_site_occupancy
  La  La0  1  0.25850000  0.75850000  0.00000000  1
  La  La1  1  0.74150000  0.24150000  0.00000000  1
  La  La2  1  0.75850000  0.74150000  0.00000000  1
  La  La3  1  0.24150000  0.25850000  0.00000000  1
  La  La4  1  0.19853500  0.02089600  0.27397700  1
  La  La5  1  0.80146500  0.97910400  0.72602300  1
  La  La6  1  0.80146500  0.97910400  0.27397700  1
  La  La7  1  0.02089600  0.80146500  0.27397700  1
  La  La8  1  0.69853500  0.47910400  0.72602300  1
  La  La9  1  0.19853500  0.02089600  0.72602300  1
  La  La10  1  0.97910400  0.19853500  0.72602300  1
  La  La11  1  0.30146500  0.52089600  0.27397700  1
  La  La12  1  0.97910400  0.19853500  0.27397700  1
  La  La13  1  0.30146500  0.52089600  0.72602300  1
  La  La14  1  0.02089600  0.80146500  0.72602300  1
  La  La15  1  0.69853500  0.47910400  0.27397700  1
  La  La16  1  0.52089600  0.69853500  0.72602300  1
  La  La17  1  0.47910400  0.30146500  0.27397700  1
  La  La18  1  0.47910400  0.30146500  0.72602300  1
  La  La19  1  0.52089600  0.69853500  0.27397700  1
  La  La20  1  0.72336900  0.22336900  0.50000000  1
  La  La21  1  0.27663100  0.77663100  0.50000000  1
  La  La22  1  0.22336900  0.27663100  0.50000000  1
  La  La23  1  0.77663100  0.72336900  0.50000000  1
  Ti  Ti0  1  0.00000000  0.00000000  0.00000000  1
  Ti  Ti1  1  0.50000000  0.50000000  0.00000000  1
  Ti  Ti2  1  0.56975800  0.06975800  0.00000000  1
  Ti  Ti3  1  0.43024200  0.93024200  0.00000000  1
  Ti  Ti4  1  0.06975800  0.43024200  0.00000000  1
  Ti  Ti5  1  0.93024200  0.56975800  0.00000000  1
  O  O0  1  0.12390600  0.09457600  0.00000000  1
  O  O1  1  0.87609400  0.90542400  0.00000000  1
  O  O2  1  0.09457600  0.87609400  0.00000000  1
  O  O3  1  0.62390600  0.40542400  0.00000000  1
  O  O4  1  0.90542400  0.12390600  0.00000000  1
  O  O5  1  0.37609400  0.59457600  0.00000000  1
  O  O6  1  0.59457600  0.62390600  0.00000000  1
  O  O7  1  0.40542400  0.37609400  0.00000000  1
  O  O8  1  0.00000000  0.00000000  0.24562900  1
  O  O9  1  0.00000000  0.00000000  0.75437100  1
  O  O10  1  0.50000000  0.50000000  0.75437100  1
  O  O11  1  0.50000000  0.50000000  0.24562900  1
  O  O12  1  0.50000000  0.00000000  0.16572700  1
  O  O13  1  0.50000000  0.00000000  0.83427300  1
  O  O14  1  0.00000000  0.50000000  0.16572700  1
  O  O15  1  0.00000000  0.50000000  0.83427300  1
  O  O16  1  0.20392700  0.70392700  0.25154400  1
  O  O17  1  0.79607300  0.29607300  0.74845600  1
  O  O18  1  0.79607300  0.29607300  0.25154400  1
  O  O19  1  0.70392700  0.79607300  0.25154400  1
  O  O20  1  0.70392700  0.79607300  0.74845600  1
  O  O21  1  0.20392700  0.70392700  0.74845600  1
  O  O22  1  0.29607300  0.20392700  0.74845600  1
  O  O23  1  0.29607300  0.20392700  0.25154400  1
  O  O24  1  0.14062400  0.11199700  0.50000000  1
  O  O25  1  0.85937600  0.88800300  0.50000000  1
  O  O26  1  0.11199700  0.85937600  0.50000000  1
  O  O27  1  0.64062400  0.38800300  0.50000000  1
  O  O28  1  0.88800300  0.14062400  0.50000000  1
  O  O29  1  0.35937600  0.61199700  0.50000000  1
  O  O30  1  0.61199700  0.64062400  0.50000000  1
  O  O31  1  0.38800300  0.35937600  0.50000000  1
  O  O32  1  0.04457800  0.28502100  0.50000000  1
  O  O33  1  0.95542200  0.71497900  0.50000000  1
  O  O34  1  0.28502100  0.95542200  0.50000000  1
  O  O35  1  0.54457800  0.21497900  0.50000000  1
  O  O36  1  0.71497900  0.04457800  0.50000000  1
  O  O37  1  0.45542200  0.78502100  0.50000000  1
  O  O38  1  0.78502100  0.54457800  0.50000000  1
  O  O39  1  0.21497900  0.45542200  0.50000000  1
  O  O40  1  0.29636700  0.94448000  0.00000000  1
  O  O41  1  0.70363300  0.05552000  0.00000000  1
  O  O42  1  0.94448000  0.70363300  0.00000000  1
  O  O43  1  0.79636700  0.55552000  0.00000000  1
  O  O44  1  0.05552000  0.29636700  0.00000000  1
  O  O45  1  0.20363300  0.44448000  0.00000000  1
  O  O46  1  0.44448000  0.79636700  0.00000000  1
  O  O47  1  0.55552000  0.20363300  0.00000000  1
loop_
_geom_bond_atom_site_label_1
_geom_bond_atom_site_label_2
_geom_bond_distance
_geom_bond_site_symmetry_2
La0 O21 2.206325 1_554
La0 O16 2.206325 1_555
La0 O46 2.555507 1_555
La0 O40 2.555507 1_555
La0 O2 2.716343 1_555
La0 O5 2.716343 1_555
La1 O17 2.206325 1_554
La1 O18 2.206325 1_555
La1 O41 2.555507 1_555
La1 O47 2.555507 1_555
La1 O3 2.716343 1_555
La1 O4 2.716343 1_555
La2 O20 2.206325 1_554
La2 O19 2.206325 1_555
La2 O43 2.555507 1_555
La2 O42 2.555507 1_555
La2 O1 2.716343 1_555
La2 O6 2.716343 1_555
La3 O22 2.206325 1_554
La3 O23 2.206325 1_555
La3 O44 2.555507 1_555
La3 O45 2.555507 1_555
La3 O7 2.716343 1_555
La3 O0 2.716343 1_555
La4 O24 2.273979 1_555
La4 O34 2.278503 1_545
La4 O0 2.547092 1_555
La4 O8 2.696875 1_555
La4 O40 2.699554 1_545
La4 O23 2.797903 1_555
La4 O26 3.024191 1_545
La4 O2 3.202246 1_545
La5 O25 2.273979 1_555
La5 O36 2.278503 1_565
La5 O1 2.547092 1_556
La5 O9 2.696875 1_665
La5 O41 2.699554 1_566
La5 O20 2.797903 1_555
La5 O28 3.024191 1_565
La5 O4 3.202246 1_566
La6 O25 2.273979 1_555
La6 O36 2.278503 1_565
La6 O1 2.547092 1_555
La6 O8 2.696875 1_665
La6 O41 2.699554 1_565
La6 O19 2.797903 1_555
La6 O28 3.024191 1_565
La6 O4 3.202246 1_565
La7 O26 2.273979 1_555
La7 O33 2.278503 1_455
La7 O2 2.547092 1_555
La7 O8 2.696875 1_565
La7 O42 2.699554 1_455
La7 O16 2.797903 1_555
La7 O25 3.024191 1_455
La7 O1 3.202246 1_455
La8 O27 2.273979 1_555
La8 O38 2.278503 1_555
La8 O3 2.547092 1_556
La8 O10 2.696875 1_555
La8 O43 2.699554 1_556
La8 O17 2.797903 1_555
La8 O30 3.024191 1_555
La8 O6 3.202246 1_556
La9 O24 2.273979 1_555
La9 O34 2.278503 1_545
La9 O0 2.547092 1_556
La9 O9 2.696875 1_555
La9 O40 2.699554 1_546
La9 O22 2.797903 1_555
La9 O26 3.024191 1_545
La9 O2 3.202246 1_546
La10 O28 2.273979 1_555
La10 O32 2.278503 1_655
La10 O4 2.547092 1_556
La10 O9 2.696875 1_655
La10 O44 2.699554 1_656
La10 O17 2.797903 1_555
La10 O24 3.024191 1_655
La10 O0 3.202246 1_656
La11 O29 2.273979 1_555
La11 O39 2.278503 1_555
La11 O5 2.547092 1_555
La11 O11 2.696875 1_555
La11 O45 2.699554 1_555
La11 O16 2.797903 1_555
La11 O31 3.024191 1_555
La11 O7 3.202246 1_555
La12 O28 2.273979 1_555
La12 O32 2.278503 1_655
La12 O4 2.547092 1_555
La12 O8 2.696875 1_655
La12 O44 2.699554 1_655
La12 O18 2.797903 1_555
La12 O24 3.024191 1_655
La12 O0 3.202246 1_655
La13 O29 2.273979 1_555
La13 O39 2.278503 1_555
La13 O5 2.547092 1_556
La13 O10 2.696875 1_555
La13 O45 2.699554 1_556
La13 O21 2.797903 1_555
La13 O31 3.024191 1_555
La13 O7 3.202246 1_556
La14 O26 2.273979 1_555
La14 O33 2.278503 1_455
La14 O2 2.547092 1_556
La14 O9 2.696875 1_565
La14 O42 2.699554 1_456
La14 O21 2.797903 1_555
La14 O25 3.024191 1_455
La14 O1 3.202246 1_456
La15 O27 2.273979 1_555
La15 O38 2.278503 1_555
La15 O3 2.547092 1_555
La15 O11 2.696875 1_555
La15 O43 2.699554 1_555
La15 O18 2.797903 1_555
La15 O30 3.024191 1_555
La15 O6 3.202246 1_555
La16 O30 2.273979 1_555
La16 O37 2.278503 1_555
La16 O6 2.547092 1_556
La16 O10 2.696875 1_555
La16 O46 2.699554 1_556
La16 O20 2.797903 1_555
La16 O29 3.024191 1_555
La16 O5 3.202246 1_556
La17 O31 2.273979 1_555
La17 O35 2.278503 1_555
La17 O7 2.547092 1_555
La17 O11 2.696875 1_555
La17 O47 2.699554 1_555
La17 O23 2.797903 1_555
La17 O27 3.024191 1_555
La17 O3 3.202246 1_555
La18 O31 2.273979 1_555
La18 O35 2.278503 1_555
La18 O7 2.547092 1_556
La18 O10 2.696875 1_555
La18 O47 2.699554 1_556
La18 O22 2.797903 1_555
La18 O27 3.024191 1_555
La18 O3 3.202246 1_556
La19 O30 2.273979 1_555
La19 O37 2.278503 1_555
La19 O6 2.547092 1_555
La19 O11 2.696875 1_555
La19 O46 2.699554 1_555
La19 O19 2.797903 1_555
La19 O29 3.024191 1_555
La19 O5 3.202246 1_555
La20 O18 2.369000 1_555
La20 O17 2.369000 1_555
La20 O35 2.409981 1_555
La20 O36 2.409981 1_555
La20 O28 2.480946 1_555
La20 O27 2.480946 1_555
La21 O21 2.369000 1_555
La21 O16 2.369000 1_555
La21 O34 2.409981 1_555
La21 O37 2.409981 1_555
La21 O26 2.480946 1_555
La21 O29 2.480946 1_555
La22 O23 2.369000 1_555
La22 O22 2.369000 1_555
La22 O32 2.409981 1_555
La22 O39 2.409981 1_555
La22 O24 2.480946 1_555
La22 O31 2.480946 1_555
La23 O20 2.369000 1_555
La23 O19 2.369000 1_555
La23 O38 2.409981 1_555
La23 O33 2.409981 1_555
La23 O30 2.480946 1_555
La23 O25 2.480946 1_555
O0 Ti0 2.098793 1_555
O1 Ti0 2.098793 1_665
O2 Ti0 2.098793 1_565
O3 Ti1 2.098793 1_555
O4 Ti0 2.098793 1_655
O5 Ti1 2.098793 1_555
O6 Ti1 2.098793 1_555
O7 Ti1 2.098793 1_555
O8 Ti0 1.900515 1_555
O9 Ti0 1.900515 1_556
O10 Ti1 1.900515 1_556
O11 Ti1 1.900515 1_555
O12 Ti2 1.846257 1_555
O12 Ti3 1.846257 1_545
O13 Ti2 1.846257 1_556
O13 Ti3 1.846257 1_546
O14 Ti5 1.846257 1_455
O14 Ti4 1.846257 1_555
O15 Ti5 1.846257 1_456
O15 Ti4 1.846257 1_556
O40 Ti3 1.812726 1_555
O41 Ti2 1.812726 1_555
O42 Ti5 1.812726 1_555
O43 Ti5 1.812726 1_555
O44 Ti4 1.812726 1_555
O45 Ti4 1.812726 1_555
O46 Ti3 1.812726 1_555
O47 Ti2 1.812726 1_555
