# generated using pymatgen
data_Er2FeGe4
_symmetry_space_group_name_H-M   'P 1'
_cell_length_a   4.09595316
_cell_length_b   4.15280772
_cell_length_c   8.10827894
_cell_angle_alpha   75.18431019
_cell_angle_beta   89.99996910
_cell_angle_gamma   89.99996680
_symmetry_Int_Tables_number   1
_chemical_formula_structural   Er2FeGe4
_chemical_formula_sum   'Er2 Fe1 Ge4'
_cell_volume   133.33408800
_cell_formula_units_Z   1
loop_
 _symmetry_equiv_pos_site_id
 _symmetry_equiv_pos_as_xyz
  1  'x, y, z'
loop_
 _atom_site_type_symbol
 _atom_site_label
 _atom_site_symmetry_multiplicity
 _atom_site_fract_x
 _atom_site_fract_y
 _atom_site_fract_z
 _atom_site_occupancy
  Er  Er0  1  0.25000019  0.89543709  0.20951851  1
  Er  Er1  1  0.74999910  0.10430391  0.79105385  1
  Fe  Fe0  1  0.25000111  0.69300689  0.61412647  1
  Ge  Ge0  1  0.24999911  0.54561671  0.90741517  1
  Ge  Ge1  1  0.74999979  0.44222421  0.11626184  1
  Ge  Ge2  1  0.24999975  0.25837948  0.48315120  1
  Ge  Ge3  1  0.74999994  0.75803071  0.48447396  1
loop_
_geom_bond_atom_site_label_1
_geom_bond_atom_site_label_2
_geom_bond_distance
_geom_bond_site_symmetry_2
Er0 Ge3 2.973130 1_555
Er0 Ge3 2.973131 1_455
Er0 Ge2 2.984051 1_565
Er0 Ge2 2.986599 1_555
Er0 Ge1 3.006013 1_555
Er0 Ge1 3.006017 1_455
Er0 Ge1 3.007316 1_565
Er0 Ge1 3.007317 1_465
Er0 Ge0 3.147717 1_564
Er0 Ge0 3.151284 1_554
Er1 Ge0 3.054084 1_555
Er1 Ge0 3.054086 1_655
Er1 Ge0 3.057422 1_645
Er1 Ge0 3.057423 1_545
Er1 Ge2 3.165354 1_555
Er1 Ge2 3.165356 1_655
Er1 Ge3 3.174175 1_545
Er1 Ge3 3.177763 1_555
Er1 Fe0 3.228424 1_545
Er1 Fe0 3.228433 1_645
Er1 Fe0 3.230390 1_555
Er1 Fe0 3.230402 1_655
Er1 Ge1 3.287093 1_546
Er1 Ge1 3.288597 1_556
Fe0 Ge3 2.286279 1_555
Fe0 Ge3 2.286288 1_455
Fe0 Ge0 2.299007 1_555
Fe0 Ge2 2.316286 1_565
Fe0 Ge2 2.316431 1_555
Ge0 Ge1 2.621882 1_456
Ge0 Ge1 2.621887 1_556
Ge2 Ge3 2.915544 1_545
Ge2 Ge3 2.915544 1_445
Ge2 Ge3 2.917385 1_455
Ge2 Ge3 2.917388 1_555
