# generated using pymatgen
data_Mg14AlSi
_symmetry_space_group_name_H-M   'P 1'
_cell_length_a   6.23734039
_cell_length_b   6.36723350
_cell_length_c   10.18540756
_cell_angle_alpha   90.00000000
_cell_angle_beta   90.00000000
_cell_angle_gamma   120.69131793
_symmetry_Int_Tables_number   1
_chemical_formula_structural   Mg14AlSi
_chemical_formula_sum   'Mg14 Al1 Si1'
_cell_volume   347.84962849
_cell_formula_units_Z   1
loop_
 _symmetry_equiv_pos_site_id
 _symmetry_equiv_pos_as_xyz
  1  'x, y, z'
loop_
 _atom_site_type_symbol
 _atom_site_label
 _atom_site_symmetry_multiplicity
 _atom_site_fract_x
 _atom_site_fract_y
 _atom_site_fract_z
 _atom_site_occupancy
  Mg  Mg0  1  0.16913832  0.33456866  0.62500000  1
  Mg  Mg1  1  0.16836282  0.83418091  0.62500000  1
  Mg  Mg2  1  0.66966216  0.33366155  0.12500000  1
  Mg  Mg3  1  0.66611895  0.33379077  0.62500000  1
  Mg  Mg4  1  0.66966216  0.83599961  0.12500000  1
  Mg  Mg5  1  0.66611895  0.83232718  0.62500000  1
  Mg  Mg6  1  0.32871213  0.16386808  0.36594457  1
  Mg  Mg7  1  0.32871213  0.16386808  0.88405543  1
  Mg  Mg8  1  0.32871213  0.66484505  0.36594457  1
  Mg  Mg9  1  0.32871213  0.66484505  0.88405543  1
  Mg  Mg10  1  0.83662371  0.16831235  0.37397819  1
  Mg  Mg11  1  0.83662371  0.16831235  0.87602181  1
  Mg  Mg12  1  0.83831596  0.66915848  0.37113393  1
  Mg  Mg13  1  0.83831596  0.66915848  0.87886607  1
  Al  Al0  1  0.16104231  0.33052065  0.12500000  1
  Si  Si0  1  0.16516647  0.83258273  0.12500000  1
loop_
_geom_bond_atom_site_label_1
_geom_bond_atom_site_label_2
_geom_bond_distance
_geom_bond_site_symmetry_2
Mg0 Mg5 3.102368 1_555
Mg0 Mg3 3.102368 1_555
Mg0 Mg10 3.117353 1_455
Mg0 Mg11 3.117353 1_455
Mg0 Mg5 3.134978 1_445
Mg0 Mg3 3.134978 1_455
Mg0 Mg1 3.183619 1_545
Mg0 Mg1 3.183619 1_555
Mg0 Mg7 3.199757 1_555
Mg0 Mg6 3.199757 1_555
Mg0 Mg8 3.199763 1_555
Mg0 Mg9 3.199763 1_555
Mg1 Mg3 3.110715 1_565
Mg1 Mg5 3.110715 1_555
Mg1 Mg3 3.126658 1_455
Mg1 Mg5 3.126658 1_455
Mg1 Mg12 3.133661 1_455
Mg1 Mg13 3.133661 1_455
Mg1 Mg9 3.197777 1_555
Mg1 Mg8 3.197777 1_555
Mg1 Mg6 3.197783 1_565
Mg1 Mg7 3.197783 1_565
Mg2 Mg6 3.060560 1_555
Mg2 Mg7 3.060560 1_554
Mg2 Si0 3.101790 1_655
Mg2 Si0 3.135662 1_545
Mg2 Mg4 3.168730 1_545
Mg2 Mg4 3.198504 1_555
Mg3 Mg5 3.174298 1_555
Mg3 Mg5 3.192936 1_545
Mg3 Mg6 3.199586 1_555
Mg3 Mg7 3.199586 1_555
Mg4 Mg9 3.060559 1_554
Mg4 Mg8 3.060559 1_555
Mg4 Si0 3.101790 1_655
Mg4 Si0 3.135663 1_555
Mg5 Mg8 3.199586 1_555
Mg5 Mg9 3.199586 1_555
Mg6 Si0 3.052240 1_545
Mg6 Mg8 3.177396 1_545
Mg6 Mg8 3.189837 1_555
Mg7 Si0 3.052240 1_546
Mg7 Mg9 3.177396 1_545
Mg7 Mg9 3.189837 1_555
Mg8 Si0 3.052234 1_555
Mg9 Si0 3.052234 1_556
Mg10 Mg8 3.084948 1_655
Mg10 Mg6 3.084948 1_655
Mg10 Mg2 3.121406 1_555
Mg10 Mg4 3.121412 1_545
Mg10 Mg3 3.149933 1_555
Mg10 Mg5 3.149939 1_545
Mg10 Mg8 3.154729 1_545
Mg10 Mg6 3.154729 1_555
Mg10 Mg12 3.183761 1_545
Mg10 Mg12 3.183762 1_555
Mg11 Mg9 3.084948 1_655
Mg11 Mg7 3.084948 1_655
Mg11 Mg2 3.121406 1_556
Mg11 Mg4 3.121412 1_546
Mg11 Mg3 3.149933 1_555
Mg11 Mg5 3.149939 1_545
Mg11 Mg9 3.154729 1_545
Mg11 Mg7 3.154729 1_555
Mg11 Mg13 3.183761 1_545
Mg11 Mg13 3.183762 1_555
Mg12 Si0 3.059142 1_655
Mg12 Mg6 3.073331 1_665
Mg12 Mg8 3.073331 1_655
Mg12 Mg4 3.108185 1_555
Mg12 Mg2 3.108192 1_555
Mg12 Mg6 3.165084 1_555
Mg12 Mg8 3.165084 1_555
Mg12 Mg5 3.171446 1_555
Mg12 Mg3 3.171452 1_555
Mg13 Si0 3.059142 1_656
Mg13 Mg7 3.073331 1_665
Mg13 Mg9 3.073331 1_655
Mg13 Mg4 3.108185 1_556
Mg13 Mg2 3.108192 1_556
Mg13 Mg7 3.165084 1_555
Mg13 Mg9 3.165084 1_555
Mg13 Mg5 3.171446 1_555
Mg13 Mg3 3.171452 1_555
Al0 Mg6 3.061900 1_555
Al0 Mg7 3.061900 1_554
Al0 Mg8 3.061907 1_555
Al0 Mg9 3.061907 1_554
Al0 Mg4 3.075161 1_445
Al0 Mg2 3.075161 1_455
Al0 Mg11 3.075529 1_454
Al0 Mg10 3.075529 1_455
Al0 Mg4 3.162274 1_555
Al0 Mg2 3.162274 1_555
