# generated using pymatgen
data_B5H4NO8
_symmetry_space_group_name_H-M   'P 1'
_cell_length_a   7.71545500
_cell_length_b   12.11338800
_cell_length_c   14.97056600
_cell_angle_alpha   90.00000000
_cell_angle_beta   90.00000000
_cell_angle_gamma   90.00000000
_symmetry_Int_Tables_number   1
_chemical_formula_structural   B5H4NO8
_chemical_formula_sum   'B40 H32 N8 O64'
_cell_volume   1399.15358970
_cell_formula_units_Z   8
loop_
 _symmetry_equiv_pos_site_id
 _symmetry_equiv_pos_as_xyz
  1  'x, y, z'
loop_
 _atom_site_type_symbol
 _atom_site_label
 _atom_site_symmetry_multiplicity
 _atom_site_fract_x
 _atom_site_fract_y
 _atom_site_fract_z
 _atom_site_occupancy
  B  B0  1  0.05186900  0.27890200  0.37084700  1
  B  B1  1  0.55186900  0.22109800  0.62915300  1
  B  B2  1  0.94813100  0.77890200  0.12915300  1
  B  B3  1  0.44813100  0.72109800  0.87084700  1
  B  B4  1  0.94813100  0.72109800  0.62915300  1
  B  B5  1  0.44813100  0.77890200  0.37084700  1
  B  B6  1  0.05186900  0.22109800  0.87084700  1
  B  B7  1  0.55186900  0.27890200  0.12915300  1
  B  B8  1  0.91133700  0.10051200  0.41775400  1
  B  B9  1  0.41133700  0.39948800  0.58224600  1
  B  B10  1  0.08866300  0.60051200  0.08224600  1
  B  B11  1  0.58866300  0.89948800  0.91775400  1
  B  B12  1  0.08866300  0.89948800  0.58224600  1
  B  B13  1  0.58866300  0.60051200  0.41775400  1
  B  B14  1  0.91133700  0.39948800  0.91775400  1
  B  B15  1  0.41133700  0.10051200  0.08224600  1
  B  B16  1  0.98946000  0.47863800  0.34668500  1
  B  B17  1  0.48946000  0.02136200  0.65331500  1
  B  B18  1  0.01054000  0.97863800  0.15331500  1
  B  B19  1  0.51054000  0.52136200  0.84668500  1
  B  B20  1  0.01054000  0.52136200  0.65331500  1
  B  B21  1  0.51054000  0.97863800  0.34668500  1
  B  B22  1  0.98946000  0.02136200  0.84668500  1
  B  B23  1  0.48946000  0.47863800  0.15331500  1
  B  B24  1  0.20163000  0.42902800  0.45533900  1
  B  B25  1  0.70163000  0.07097200  0.54466100  1
  B  B26  1  0.79837000  0.92902800  0.04466100  1
  B  B27  1  0.29837000  0.57097200  0.95533900  1
  B  B28  1  0.79837000  0.57097200  0.54466100  1
  B  B29  1  0.29837000  0.92902800  0.45533900  1
  B  B30  1  0.20163000  0.07097200  0.95533900  1
  B  B31  1  0.70163000  0.42902800  0.04466100  1
  B  B32  1  0.07421500  0.10585100  0.28319500  1
  B  B33  1  0.57421500  0.39414900  0.71680500  1
  B  B34  1  0.92578500  0.60585100  0.21680500  1
  B  B35  1  0.42578500  0.89414900  0.78319500  1
  B  B36  1  0.92578500  0.89414900  0.71680500  1
  B  B37  1  0.42578500  0.60585100  0.28319500  1
  B  B38  1  0.07421500  0.39414900  0.78319500  1
  B  B39  1  0.57421500  0.10585100  0.21680500  1
  H  H0  1  0.63508700  0.35202300  0.33995300  1
  H  H1  1  0.13508700  0.14797700  0.66004700  1
  H  H2  1  0.36491300  0.85202300  0.16004700  1
  H  H3  1  0.86491300  0.64797700  0.83995300  1
  H  H4  1  0.36491300  0.64797700  0.66004700  1
  H  H5  1  0.86491300  0.85202300  0.33995300  1
  H  H6  1  0.63508700  0.14797700  0.83995300  1
  H  H7  1  0.13508700  0.35202300  0.16004700  1
  H  H8  1  0.51393600  0.23836400  0.33968800  1
  H  H9  1  0.01393600  0.26163600  0.66031200  1
  H  H10  1  0.48606400  0.73836400  0.16031200  1
  H  H11  1  0.98606400  0.76163600  0.83968800  1
  H  H12  1  0.48606400  0.76163600  0.66031200  1
  H  H13  1  0.98606400  0.73836400  0.33968800  1
  H  H14  1  0.51393600  0.26163600  0.83968800  1
  H  H15  1  0.01393600  0.23836400  0.16031200  1
  H  H16  1  0.48120800  0.33198700  0.41929700  1
  H  H17  1  0.98120800  0.16801300  0.58070300  1
  H  H18  1  0.51879200  0.83198700  0.08070300  1
  H  H19  1  0.01879200  0.66801300  0.91929700  1
  H  H20  1  0.51879200  0.66801300  0.58070300  1
  H  H21  1  0.01879200  0.83198700  0.41929700  1
  H  H22  1  0.48120800  0.16801300  0.91929700  1
  H  H23  1  0.98120800  0.33198700  0.08070300  1
  H  H24  1  0.66578000  0.25739500  0.41950400  1
  H  H25  1  0.16578000  0.24260500  0.58049600  1
  H  H26  1  0.33422000  0.75739500  0.08049600  1
  H  H27  1  0.83422000  0.74260500  0.91950400  1
  H  H28  1  0.33422000  0.74260500  0.58049600  1
  H  H29  1  0.83422000  0.75739500  0.41950400  1
  H  H30  1  0.66578000  0.24260500  0.91950400  1
  H  H31  1  0.16578000  0.25739500  0.08049600  1
  N  N0  1  0.57331500  0.29551100  0.38016000  1
  N  N1  1  0.07331500  0.20448900  0.61984000  1
  N  N2  1  0.42668500  0.79551100  0.11984000  1
  N  N3  1  0.92668500  0.70448900  0.88016000  1
  N  N4  1  0.42668500  0.70448900  0.61984000  1
  N  N5  1  0.92668500  0.79551100  0.38016000  1
  N  N6  1  0.57331500  0.20448900  0.88016000  1
  N  N7  1  0.07331500  0.29551100  0.11984000  1
  O  O0  1  0.81416600  0.03778800  0.47718200  1
  O  O1  1  0.31416600  0.46221200  0.52281800  1
  O  O2  1  0.18583400  0.53778800  0.02281800  1
  O  O3  1  0.68583400  0.96221200  0.97718200  1
  O  O4  1  0.18583400  0.96221200  0.52281800  1
  O  O5  1  0.68583400  0.53778800  0.47718200  1
  O  O6  1  0.81416600  0.46221200  0.97718200  1
  O  O7  1  0.31416600  0.03778800  0.02281800  1
  O  O8  1  0.92820100  0.21209100  0.42543700  1
  O  O9  1  0.42820100  0.28790900  0.57456300  1
  O  O10  1  0.07179900  0.71209100  0.07456300  1
  O  O11  1  0.57179900  0.78790900  0.92543700  1
  O  O12  1  0.07179900  0.78790900  0.57456300  1
  O  O13  1  0.57179900  0.71209100  0.42543700  1
  O  O14  1  0.92820100  0.28790900  0.92543700  1
  O  O15  1  0.42820100  0.21209100  0.07456300  1
  O  O16  1  0.12880600  0.21059200  0.29966800  1
  O  O17  1  0.62880600  0.28940800  0.70033200  1
  O  O18  1  0.87119400  0.71059200  0.20033200  1
  O  O19  1  0.37119400  0.78940800  0.79966800  1
  O  O20  1  0.87119400  0.78940800  0.70033200  1
  O  O21  1  0.37119400  0.71059200  0.29966800  1
  O  O22  1  0.12880600  0.28940800  0.79966800  1
  O  O23  1  0.62880600  0.21059200  0.20033200  1
  O  O24  1  0.95575600  0.37137900  0.32797700  1
  O  O25  1  0.45575600  0.12862100  0.67202300  1
  O  O26  1  0.04424400  0.87137900  0.17202300  1
  O  O27  1  0.54424400  0.62862100  0.82797700  1
  O  O28  1  0.04424400  0.62862100  0.67202300  1
  O  O29  1  0.54424400  0.87137900  0.32797700  1
  O  O30  1  0.95575600  0.12862100  0.82797700  1
  O  O31  1  0.45575600  0.37137900  0.17202300  1
  O  O32  1  0.18866000  0.32115300  0.43079300  1
  O  O33  1  0.68866000  0.17884700  0.56920700  1
  O  O34  1  0.81134000  0.82115300  0.06920700  1
  O  O35  1  0.31134000  0.67884700  0.93079300  1
  O  O36  1  0.81134000  0.67884700  0.56920700  1
  O  O37  1  0.31134000  0.82115300  0.43079300  1
  O  O38  1  0.18866000  0.17884700  0.93079300  1
  O  O39  1  0.68866000  0.32115300  0.06920700  1
  O  O40  1  0.59337500  0.06478100  0.30197200  1
  O  O41  1  0.09337500  0.43521900  0.69802800  1
  O  O42  1  0.40662500  0.56478100  0.19802800  1
  O  O43  1  0.90662500  0.93521900  0.80197200  1
  O  O44  1  0.40662500  0.93521900  0.69802800  1
  O  O45  1  0.90662500  0.56478100  0.30197200  1
  O  O46  1  0.59337500  0.43521900  0.80197200  1
  O  O47  1  0.09337500  0.06478100  0.19802800  1
  O  O48  1  0.98863100  0.04280600  0.34773000  1
  O  O49  1  0.48863100  0.45719400  0.65227000  1
  O  O50  1  0.01136900  0.54280600  0.15227000  1
  O  O51  1  0.51136900  0.95719400  0.84773000  1
  O  O52  1  0.01136900  0.95719400  0.65227000  1
  O  O53  1  0.51136900  0.54280600  0.34773000  1
  O  O54  1  0.98863100  0.45719400  0.84773000  1
  O  O55  1  0.48863100  0.04280600  0.15227000  1
  O  O56  1  0.39353700  0.01102500  0.41270500  1
  O  O57  1  0.89353700  0.48897500  0.58729500  1
  O  O58  1  0.60646300  0.51102500  0.08729500  1
  O  O59  1  0.10646300  0.98897500  0.91270500  1
  O  O60  1  0.60646300  0.98897500  0.58729500  1
  O  O61  1  0.10646300  0.51102500  0.41270500  1
  O  O62  1  0.39353700  0.48897500  0.91270500  1
  O  O63  1  0.89353700  0.01102500  0.08729500  1
loop_
_geom_bond_atom_site_label_1
_geom_bond_atom_site_label_2
_geom_bond_distance
_geom_bond_site_symmetry_2
B0 O16 1.473956 1_555
B0 O32 1.476887 1_555
B0 O24 1.488847 1_455
B0 O8 1.494415 1_455
B1 O17 1.473956 1_555
B1 O33 1.476887 1_555
B1 O25 1.488847 1_555
B1 O9 1.494415 1_555
B2 O18 1.473956 1_555
B2 O34 1.476887 1_555
B2 O26 1.488847 1_655
B2 O10 1.494415 1_655
B3 O19 1.473956 1_555
B3 O35 1.476887 1_555
B3 O27 1.488847 1_555
B3 O11 1.494415 1_555
B4 O20 1.473956 1_555
B4 O36 1.476887 1_555
B4 O28 1.488847 1_655
B4 O12 1.494415 1_655
B5 O21 1.473956 1_555
B5 O37 1.476887 1_555
B5 O29 1.488847 1_555
B5 O13 1.494415 1_555
B6 O22 1.473956 1_555
B6 O38 1.476887 1_555
B6 O30 1.488847 1_455
B6 O14 1.494415 1_455
B7 O23 1.473956 1_555
B7 O39 1.476887 1_555
B7 O31 1.488847 1_555
B7 O15 1.494415 1_555
B8 O8 1.362711 1_555
B8 O0 1.389564 1_555
B8 O48 1.393986 1_555
B9 O9 1.362711 1_555
B9 O1 1.389564 1_555
B9 O49 1.393986 1_555
B10 O10 1.362711 1_555
B10 O2 1.389564 1_555
B10 O50 1.393986 1_555
B11 O11 1.362711 1_555
B11 O3 1.389564 1_555
B11 O51 1.393986 1_555
B12 O12 1.362711 1_555
B12 O4 1.389564 1_555
B12 O52 1.393986 1_555
B13 O13 1.362711 1_555
B13 O5 1.389564 1_555
B13 O53 1.393986 1_555
B14 O14 1.362711 1_555
B14 O6 1.389564 1_555
B14 O54 1.393986 1_555
B15 O15 1.362711 1_555
B15 O7 1.389564 1_555
B15 O55 1.393986 1_555
B16 O24 1.354313 1_555
B16 O45 1.394771 1_555
B16 O61 1.394878 1_655
B17 O25 1.354313 1_555
B17 O44 1.394771 1_545
B17 O60 1.394878 1_545
B18 O26 1.354313 1_555
B18 O47 1.394771 1_565
B18 O63 1.394878 1_465
B19 O27 1.354313 1_555
B19 O46 1.394771 1_555
B19 O62 1.394878 1_555
B20 O28 1.354313 1_555
B20 O41 1.394771 1_555
B20 O57 1.394878 1_455
B21 O29 1.354313 1_555
B21 O40 1.394771 1_565
B21 O56 1.394878 1_565
B22 O30 1.354313 1_555
B22 O43 1.394771 1_545
B22 O59 1.394878 1_645
B23 O31 1.354313 1_555
B23 O42 1.394771 1_555
B23 O58 1.394878 1_555
B24 O32 1.361100 1_555
B24 O61 1.390349 1_555
B24 O1 1.391391 1_555
B25 O33 1.361100 1_555
B25 O60 1.390349 1_545
B25 O0 1.391391 1_555
B26 O34 1.361100 1_555
B26 O63 1.390349 1_565
B26 O3 1.391391 1_554
B27 O35 1.361100 1_555
B27 O62 1.390349 1_555
B27 O2 1.391391 1_556
B28 O36 1.361100 1_555
B28 O57 1.390349 1_555
B28 O5 1.391391 1_555
B29 O37 1.361100 1_555
B29 O56 1.390349 1_565
B29 O4 1.391391 1_555
B30 O38 1.361100 1_555
B30 O59 1.390349 1_545
B30 O7 1.391391 1_556
B31 O39 1.361100 1_555
B31 O58 1.390349 1_555
B31 O6 1.391391 1_554
B32 O16 1.359410 1_555
B32 O47 1.376582 1_555
B32 O48 1.397369 1_455
B33 O17 1.359410 1_555
B33 O46 1.376582 1_555
B33 O49 1.397369 1_555
B34 O18 1.359410 1_555
B34 O45 1.376582 1_555
B34 O50 1.397369 1_655
B35 O19 1.359410 1_555
B35 O44 1.376582 1_555
B35 O51 1.397369 1_555
B36 O20 1.359410 1_555
B36 O43 1.376582 1_555
B36 O52 1.397369 1_655
B37 O21 1.359410 1_555
B37 O42 1.376582 1_555
B37 O53 1.397369 1_555
B38 O22 1.359410 1_555
B38 O41 1.376582 1_555
B38 O54 1.397369 1_455
B39 O23 1.359410 1_555
B39 O40 1.376582 1_555
B39 O55 1.397369 1_555
H0 N0 1.028624 1_555
H1 N1 1.028624 1_555
H2 N2 1.028624 1_555
H3 N3 1.028624 1_555
H4 N4 1.028624 1_555
H5 N5 1.028624 1_555
H6 N6 1.028624 1_555
H7 N7 1.028624 1_555
H8 N0 1.027712 1_555
H9 N1 1.027712 1_555
H10 N2 1.027712 1_555
H11 N3 1.027712 1_555
H12 N4 1.027712 1_555
H13 N5 1.027712 1_555
H14 N6 1.027712 1_555
H15 N7 1.027712 1_555
H16 N0 1.021534 1_555
H17 N1 1.021534 1_655
H18 N2 1.021534 1_555
H19 N3 1.021534 1_455
H20 N4 1.021534 1_555
H21 N5 1.021534 1_455
H22 N6 1.021534 1_555
H23 N7 1.021534 1_655
H24 N0 1.033952 1_555
H25 N1 1.033952 1_555
H26 N2 1.033952 1_555
H27 N3 1.033952 1_555
H28 N4 1.033952 1_555
H29 N5 1.033952 1_555
H30 N6 1.033952 1_555
H31 N7 1.033952 1_555
