# generated using pymatgen
data_Gd3Ge13Os4
_symmetry_space_group_name_H-M   'P 1'
_cell_length_a   9.08153000
_cell_length_b   9.08153000
_cell_length_c   9.08153000
_cell_angle_alpha   90.00000000
_cell_angle_beta   90.00000000
_cell_angle_gamma   90.00000000
_symmetry_Int_Tables_number   1
_chemical_formula_structural   Gd3Ge13Os4
_chemical_formula_sum   'Gd6 Ge26 Os8'
_cell_volume   748.99180475
_cell_formula_units_Z   2
loop_
 _symmetry_equiv_pos_site_id
 _symmetry_equiv_pos_as_xyz
  1  'x, y, z'
loop_
 _atom_site_type_symbol
 _atom_site_label
 _atom_site_symmetry_multiplicity
 _atom_site_fract_x
 _atom_site_fract_y
 _atom_site_fract_z
 _atom_site_occupancy
  Gd  Gd0  1  0.00000000  0.50000000  0.75000000  1
  Gd  Gd1  1  0.50000000  0.25000000  0.00000000  1
  Gd  Gd2  1  0.75000000  0.00000000  0.50000000  1
  Gd  Gd3  1  0.00000000  0.50000000  0.25000000  1
  Gd  Gd4  1  0.50000000  0.75000000  0.00000000  1
  Gd  Gd5  1  0.25000000  0.00000000  0.50000000  1
  Ge  Ge0  1  0.50000000  0.50000000  0.50000000  1
  Ge  Ge1  1  0.00000000  0.00000000  0.00000000  1
  Ge  Ge2  1  0.80326200  0.35372700  0.50000000  1
  Ge  Ge3  1  0.64627300  0.50000000  0.80326200  1
  Ge  Ge4  1  0.50000000  0.19673800  0.64627300  1
  Ge  Ge5  1  0.19673800  0.64627300  0.50000000  1
  Ge  Ge6  1  0.35372700  0.50000000  0.19673800  1
  Ge  Ge7  1  0.50000000  0.80326200  0.35372700  1
  Ge  Ge8  1  0.80326200  0.64627300  0.50000000  1
  Ge  Ge9  1  0.64627300  0.50000000  0.19673800  1
  Ge  Ge10  1  0.19673800  0.35372700  0.50000000  1
  Ge  Ge11  1  0.35372700  0.50000000  0.80326200  1
  Ge  Ge12  1  0.50000000  0.80326200  0.64627300  1
  Ge  Ge13  1  0.50000000  0.19673800  0.35372700  1
  Ge  Ge14  1  0.30326200  0.00000000  0.85372700  1
  Ge  Ge15  1  0.14627300  0.30326200  0.00000000  1
  Ge  Ge16  1  0.00000000  0.14627300  0.69673800  1
  Ge  Ge17  1  0.69673800  0.00000000  0.14627300  1
  Ge  Ge18  1  0.85372700  0.69673800  0.00000000  1
  Ge  Ge19  1  0.00000000  0.85372700  0.30326200  1
  Ge  Ge20  1  0.30326200  0.00000000  0.14627300  1
  Ge  Ge21  1  0.14627300  0.69673800  0.00000000  1
  Ge  Ge22  1  0.69673800  0.00000000  0.85372700  1
  Ge  Ge23  1  0.85372700  0.30326200  0.00000000  1
  Ge  Ge24  1  0.00000000  0.14627300  0.30326200  1
  Ge  Ge25  1  0.00000000  0.85372700  0.69673800  1
  Os  Os0  1  0.75000000  0.25000000  0.75000000  1
  Os  Os1  1  0.25000000  0.75000000  0.25000000  1
  Os  Os2  1  0.75000000  0.75000000  0.25000000  1
  Os  Os3  1  0.25000000  0.25000000  0.75000000  1
  Os  Os4  1  0.25000000  0.75000000  0.75000000  1
  Os  Os5  1  0.75000000  0.25000000  0.25000000  1
  Os  Os6  1  0.25000000  0.25000000  0.25000000  1
  Os  Os7  1  0.75000000  0.75000000  0.75000000  1
loop_
_geom_bond_atom_site_label_1
_geom_bond_atom_site_label_2
_geom_bond_distance
_geom_bond_site_symmetry_2
Gd0 Ge18 3.179854 1_456
Gd0 Ge5 3.179854 1_555
Gd0 Ge21 3.179854 1_556
Gd0 Ge15 3.179854 1_556
Gd0 Ge23 3.179854 1_456
Gd0 Ge10 3.179854 1_555
Gd0 Ge8 3.179854 1_455
Gd0 Ge2 3.179854 1_455
Gd0 Os3 3.210806 1_555
Gd0 Os4 3.210806 1_555
Gd0 Os0 3.210806 1_455
Gd0 Os7 3.210806 1_455
Gd0 Ge11 3.248595 1_555
Gd0 Ge3 3.248595 1_455
Gd0 Ge25 3.248595 1_555
Gd0 Ge16 3.248595 1_555
Gd1 Ge14 3.179854 1_554
Gd1 Ge9 3.179854 1_555
Gd1 Ge17 3.179854 1_555
Gd1 Ge22 3.179854 1_554
Gd1 Ge20 3.179854 1_555
Gd1 Ge6 3.179854 1_555
Gd1 Ge3 3.179854 1_554
Gd1 Ge11 3.179854 1_554
Gd1 Os0 3.210806 1_554
Gd1 Os6 3.210806 1_555
Gd1 Os5 3.210806 1_555
Gd1 Os3 3.210806 1_554
Gd1 Ge13 3.248595 1_555
Gd1 Ge15 3.248595 1_555
Gd1 Ge23 3.248595 1_555
Gd1 Ge4 3.248595 1_554
Gd2 Ge25 3.179854 1_645
Gd2 Ge4 3.179854 1_555
Gd2 Ge16 3.179854 1_655
Gd2 Ge19 3.179854 1_645
Gd2 Ge24 3.179854 1_655
Gd2 Ge13 3.179854 1_555
Gd2 Ge12 3.179854 1_545
Gd2 Ge7 3.179854 1_545
Gd2 Os0 3.210806 1_555
Gd2 Os7 3.210806 1_545
Gd2 Os5 3.210806 1_555
Gd2 Os2 3.210806 1_545
Gd2 Ge2 3.248595 1_555
Gd2 Ge8 3.248595 1_545
Gd2 Ge22 3.248595 1_555
Gd2 Ge17 3.248595 1_555
Gd3 Ge18 3.179854 1_455
Gd3 Ge5 3.179854 1_555
Gd3 Ge15 3.179854 1_555
Gd3 Ge21 3.179854 1_555
Gd3 Ge23 3.179854 1_455
Gd3 Ge10 3.179854 1_555
Gd3 Ge8 3.179854 1_455
Gd3 Ge2 3.179854 1_455
Gd3 Os6 3.210806 1_555
Gd3 Os5 3.210806 1_455
Gd3 Os2 3.210806 1_455
Gd3 Os1 3.210806 1_555
Gd3 Ge6 3.248595 1_555
Gd3 Ge24 3.248595 1_555
Gd3 Ge9 3.248595 1_455
Gd3 Ge19 3.248595 1_555
Gd4 Ge9 3.179854 1_555
Gd4 Ge22 3.179854 1_564
Gd4 Ge14 3.179854 1_564
Gd4 Ge20 3.179854 1_565
Gd4 Ge17 3.179854 1_565
Gd4 Ge6 3.179854 1_555
Gd4 Ge3 3.179854 1_554
Gd4 Ge11 3.179854 1_554
Gd4 Os7 3.210806 1_554
Gd4 Os4 3.210806 1_554
Gd4 Os2 3.210806 1_555
Gd4 Os1 3.210806 1_555
Gd4 Ge7 3.248595 1_555
Gd4 Ge12 3.248595 1_554
Gd4 Ge18 3.248595 1_555
Gd4 Ge21 3.248595 1_555
Gd5 Ge16 3.179854 1_555
Gd5 Ge19 3.179854 1_545
Gd5 Ge4 3.179854 1_555
Gd5 Ge25 3.179854 1_545
Gd5 Ge24 3.179854 1_555
Gd5 Ge13 3.179854 1_555
Gd5 Ge12 3.179854 1_545
Gd5 Ge7 3.179854 1_545
Gd5 Os3 3.210806 1_555
Gd5 Os6 3.210806 1_555
Gd5 Os4 3.210806 1_545
Gd5 Os1 3.210806 1_545
Gd5 Ge10 3.248595 1_555
Gd5 Ge14 3.248595 1_555
Gd5 Ge20 3.248595 1_555
Gd5 Ge5 3.248595 1_545
Ge0 Ge3 3.057707 1_555
Ge0 Ge8 3.057707 1_555
Ge0 Ge12 3.057707 1_555
Ge0 Ge7 3.057707 1_555
Ge0 Ge2 3.057707 1_555
Ge0 Ge11 3.057707 1_555
Ge0 Ge9 3.057707 1_555
Ge0 Ge4 3.057707 1_555
Ge0 Ge5 3.057707 1_555
Ge0 Ge6 3.057707 1_555
Ge0 Ge13 3.057707 1_555
Ge0 Ge10 3.057707 1_555
Ge1 Ge14 3.057707 1_554
Ge1 Ge20 3.057707 1_555
Ge1 Ge24 3.057707 1_555
Ge1 Ge15 3.057707 1_555
Ge1 Ge23 3.057707 1_455
Ge1 Ge19 3.057707 1_545
Ge1 Ge17 3.057707 1_455
Ge1 Ge21 3.057707 1_545
Ge1 Ge18 3.057707 1_445
Ge1 Ge22 3.057707 1_454
Ge1 Ge25 3.057707 1_544
Ge1 Ge16 3.057707 1_554
Ge2 Os5 2.505188 1_555
Ge2 Os0 2.505188 1_555
Ge2 Ge8 2.656765 1_555
Ge3 Os0 2.505188 1_555
Ge3 Os7 2.505188 1_555
Ge4 Os0 2.505188 1_555
Ge4 Os3 2.505188 1_555
Ge5 Os1 2.505188 1_555
Ge5 Os4 2.505188 1_555
Ge6 Os6 2.505188 1_555
Ge6 Os1 2.505188 1_555
Ge6 Ge9 2.656765 1_555
Ge7 Os2 2.505188 1_555
Ge7 Os1 2.505188 1_555
Ge8 Os7 2.505188 1_555
Ge8 Os2 2.505188 1_555
Ge9 Os5 2.505188 1_555
Ge9 Os2 2.505188 1_555
Ge10 Os6 2.505188 1_555
Ge10 Os3 2.505188 1_555
Ge10 Ge5 2.656765 1_555
Ge11 Os3 2.505188 1_555
Ge11 Os4 2.505188 1_555
Ge11 Ge3 2.656765 1_555
Ge12 Os7 2.505188 1_555
Ge12 Os4 2.505188 1_555
Ge12 Ge7 2.656765 1_555
Ge13 Os6 2.505188 1_555
Ge13 Os5 2.505188 1_555
Ge13 Ge4 2.656765 1_555
Ge14 Os3 2.505188 1_555
Ge14 Os4 2.505188 1_545
Ge14 Ge20 2.656765 1_556
Ge15 Os6 2.505188 1_555
Ge15 Os3 2.505188 1_554
Ge15 Ge23 2.656765 1_455
Ge16 Os0 2.505188 1_455
Ge16 Os3 2.505188 1_555
Ge16 Ge25 2.656765 1_545
Ge17 Os5 2.505188 1_555
Ge17 Os2 2.505188 1_545
Ge17 Ge22 2.656765 1_554
Ge18 Os2 2.505188 1_555
Ge18 Os7 2.505188 1_554
Ge18 Ge21 2.656765 1_655
Ge19 Os1 2.505188 1_555
Ge19 Os2 2.505188 1_455
Ge19 Ge24 2.656765 1_565
Ge20 Os6 2.505188 1_555
Ge20 Os1 2.505188 1_545
Ge21 Os1 2.505188 1_555
Ge21 Os4 2.505188 1_554
Ge22 Os7 2.505188 1_545
Ge22 Os0 2.505188 1_555
Ge23 Os0 2.505188 1_554
Ge23 Os5 2.505188 1_555
Ge24 Os6 2.505188 1_555
Ge24 Os5 2.505188 1_455
Ge25 Os7 2.505188 1_455
Ge25 Os4 2.505188 1_555
