# generated using pymatgen
data_Ce3(P3Pd10)2
_symmetry_space_group_name_H-M   'P 1'
_cell_length_a   8.69849863
_cell_length_b   8.69862915
_cell_length_c   8.69743528
_cell_angle_alpha   60.03301289
_cell_angle_beta   60.03334012
_cell_angle_gamma   60.03013740
_symmetry_Int_Tables_number   1
_chemical_formula_structural   Ce3(P3Pd10)2
_chemical_formula_sum   'Ce3 P6 Pd20'
_cell_volume   465.68027395
_cell_formula_units_Z   1
loop_
 _symmetry_equiv_pos_site_id
 _symmetry_equiv_pos_as_xyz
  1  'x, y, z'
loop_
 _atom_site_type_symbol
 _atom_site_label
 _atom_site_symmetry_multiplicity
 _atom_site_fract_x
 _atom_site_fract_y
 _atom_site_fract_z
 _atom_site_occupancy
  Ce  Ce0  1  0.25005171  0.25005393  0.25007357  1
  Ce  Ce1  1  0.74994373  0.74994585  0.74992581  1
  Ce  Ce2  1  0.00000090  0.00000001  0.00000137  1
  P  P0  1  0.73641776  0.26340288  0.26340985  1
  P  P1  1  0.26358664  0.73659744  0.73659017  1
  P  P2  1  0.26339708  0.73642381  0.26340911  1
  P  P3  1  0.73660595  0.26358331  0.73658876  1
  P  P4  1  0.26347627  0.26347474  0.73634183  1
  P  P5  1  0.73652560  0.73652654  0.26365871  1
  Pd  Pd0  1  0.38591690  0.38592010  0.38591866  1
  Pd  Pd1  1  0.61408963  0.61408469  0.61409100  1
  Pd  Pd2  1  0.38541588  0.38540673  0.84336010  1
  Pd  Pd3  1  0.38539202  0.84336361  0.38542401  1
  Pd  Pd4  1  0.61458674  0.61459214  0.15663753  1
  Pd  Pd5  1  0.61460934  0.15662785  0.61458203  1
  Pd  Pd6  1  0.84336560  0.38538795  0.38542296  1
  Pd  Pd7  1  0.15662521  0.61461341  0.61457635  1
  Pd  Pd8  1  0.34629735  -0.00007286  0.99986520  1
  Pd  Pd9  1  0.65375264  0.00003280  0.00008401  1
  Pd  Pd10  1  -0.00000056  0.34670865  0.65337108  1
  Pd  Pd11  1  -0.00003971  0.65332729  0.34667272  1
  Pd  Pd12  1  -0.00007289  0.34630510  0.99985392  1
  Pd  Pd13  1  0.65333743  -0.00003973  0.34667005  1
  Pd  Pd14  1  0.00002566  0.65375168  0.00008183  1
  Pd  Pd15  1  0.34670509  0.00000099  0.65336409  1
  Pd  Pd16  1  -0.00009253  -0.00009412  0.34626439  1
  Pd  Pd17  1  0.00004281  0.00003551  0.65379815  1
  Pd  Pd18  1  0.65333295  0.34671846  -0.00002624  1
  Pd  Pd19  1  0.34670479  0.65332124  -0.00001004  1
loop_
_geom_bond_atom_site_label_1
_geom_bond_atom_site_label_2
_geom_bond_distance
_geom_bond_site_symmetry_2
Ce0 Pd2 2.889475 1_554
Ce0 Pd6 2.889550 1_455
Ce0 Pd3 2.889614 1_545
Ce0 Pd0 2.893921 1_555
Ce0 Pd11 3.352318 1_555
Ce0 Pd13 3.352347 1_555
Ce0 Pd15 3.352363 1_555
Ce0 Pd10 3.352441 1_555
Ce0 Pd19 3.352667 1_555
Ce0 Pd18 3.352785 1_555
Ce0 Pd9 3.354844 1_555
Ce0 Pd14 3.354849 1_555
Ce0 Pd17 3.355100 1_555
Ce0 Pd8 3.355702 1_554
Ce0 Pd12 3.355708 1_554
Ce0 Pd16 3.355927 1_555
Ce1 Pd4 2.889462 1_556
Ce1 Pd7 2.889517 1_655
Ce1 Pd5 2.889555 1_565
Ce1 Pd1 2.893733 1_555
Ce1 Pd15 3.351864 1_565
Ce1 Pd10 3.351878 1_655
Ce1 Pd13 3.351922 1_565
Ce1 Pd11 3.351972 1_655
Ce1 Pd18 3.352207 1_556
Ce1 Pd19 3.352316 1_556
Ce1 Pd12 3.354236 1_655
Ce1 Pd8 3.354303 1_565
Ce1 Pd16 3.354476 1_665
Ce1 Pd14 3.355121 1_656
Ce1 Pd9 3.355227 1_566
Ce1 Pd17 3.355382 1_665
Ce2 Pd17 3.010744 1_554
Ce2 Pd16 3.010785 1_555
Ce2 Pd9 3.011339 1_455
Ce2 Pd8 3.011351 1_554
Ce2 Pd12 3.011419 1_554
Ce2 Pd14 3.011429 1_545
Ce2 Pd13 3.016810 1_455
Ce2 Pd10 3.016847 1_554
Ce2 Pd15 3.016850 1_554
Ce2 Pd11 3.016869 1_545
Ce2 Pd19 3.017090 1_545
Ce2 Pd18 3.017107 1_455
Ce2 P2 3.240782 1_545
Ce2 P3 3.240804 1_454
Ce2 P0 3.240868 1_455
Ce2 P1 3.240883 1_544
Ce2 P5 3.242052 1_445
Ce2 P4 3.242060 1_554
P0 Pd18 2.401937 1_555
P0 Pd13 2.402499 1_555
P0 Pd16 2.403606 1_655
P0 Pd12 2.404071 1_654
P0 Pd0 2.491851 1_555
P0 Pd6 2.492969 1_555
P0 Pd5 2.496066 1_555
P0 Pd4 2.496456 1_555
P1 Pd19 2.401929 1_556
P1 Pd15 2.402479 1_565
P1 Pd17 2.403571 1_565
P1 Pd14 2.404023 1_556
P1 Pd1 2.491862 1_555
P1 Pd7 2.493061 1_555
P1 Pd3 2.496024 1_555
P1 Pd2 2.496467 1_555
P2 Pd19 2.401932 1_555
P2 Pd11 2.402506 1_555
P2 Pd16 2.403563 1_565
P2 Pd8 2.404010 1_564
P2 Pd0 2.491899 1_555
P2 Pd3 2.492994 1_555
P2 Pd7 2.496030 1_555
P2 Pd4 2.496429 1_555
P3 Pd18 2.401925 1_556
P3 Pd10 2.402434 1_655
P3 Pd17 2.403602 1_655
P3 Pd9 2.404006 1_556
P3 Pd1 2.491879 1_555
P3 Pd5 2.493056 1_555
P3 Pd6 2.496023 1_555
P3 Pd2 2.496432 1_555
P4 Pd10 2.402075 1_555
P4 Pd15 2.402143 1_555
P4 Pd12 2.403736 1_555
P4 Pd8 2.403763 1_555
P4 Pd0 2.491060 1_555
P4 Pd2 2.492568 1_555
P4 Pd5 2.496010 1_555
P4 Pd7 2.496079 1_555
P5 Pd11 2.402059 1_655
P5 Pd13 2.402109 1_565
P5 Pd9 2.403799 1_565
P5 Pd14 2.403805 1_655
P5 Pd1 2.491121 1_555
P5 Pd4 2.492600 1_555
P5 Pd3 2.496016 1_555
P5 Pd6 2.496081 1_555
Pd0 Pd19 3.056925 1_555
Pd0 Pd18 3.057039 1_555
Pd0 Pd10 3.057228 1_555
Pd0 Pd15 3.057257 1_555
Pd0 Pd11 3.057409 1_555
Pd0 Pd13 3.057492 1_555
Pd1 Pd18 3.056644 1_556
Pd1 Pd19 3.056772 1_556
Pd1 Pd11 3.056943 1_655
Pd1 Pd13 3.057018 1_565
Pd1 Pd10 3.057135 1_655
Pd1 Pd15 3.057210 1_565
Pd2 Pd8 3.054459 1_555
Pd2 Pd9 3.056107 1_556
Pd3 Pd8 3.054446 1_564
Pd3 Pd9 3.055920 1_565
Pd4 Pd9 3.054257 1_565
Pd4 Pd8 3.055877 1_564
Pd5 Pd9 3.054127 1_556
Pd5 Pd8 3.055568 1_555
Pd8 Pd9 2.675810 1_556
Pd10 Pd11 2.668656 1_555
Pd10 Pd12 3.011446 1_555
Pd10 Pd17 3.013539 1_555
Pd10 Pd18 3.016536 1_456
Pd10 Pd15 3.017224 1_555
Pd10 Pd7 3.054194 1_555
Pd10 Pd6 3.054717 1_455
Pd11 Pd14 3.012326 1_555
Pd11 Pd16 3.012757 1_565
Pd11 Pd13 3.016538 1_465
Pd11 Pd19 3.017223 1_555
Pd11 Pd7 3.054417 1_555
Pd11 Pd6 3.054456 1_455
Pd12 Pd14 2.675783 1_556
Pd12 Pd18 3.012534 1_456
Pd12 Pd8 3.014330 1_555
Pd12 Pd16 3.014544 1_556
Pd12 Pd2 3.054447 1_555
Pd12 Pd6 3.054501 1_456
Pd12 Pd7 3.055528 1_555
Pd12 Pd4 3.055922 1_456
Pd13 Pd15 2.668690 1_555
Pd13 Pd9 3.012292 1_555
Pd13 Pd16 3.012642 1_655
Pd13 Pd18 3.017350 1_555
Pd13 Pd5 3.054466 1_555
Pd13 Pd3 3.054486 1_545
Pd14 Pd19 3.013320 1_555
Pd14 Pd9 3.013485 1_465
Pd14 Pd17 3.013490 1_564
Pd14 Pd7 3.054145 1_554
Pd14 Pd4 3.054178 1_455
Pd14 Pd6 3.055919 1_455
Pd14 Pd2 3.056206 1_554
Pd15 Pd8 3.011580 1_555
Pd15 Pd17 3.013408 1_555
Pd15 Pd19 3.016702 1_546
Pd15 Pd5 3.054235 1_555
Pd15 Pd3 3.054667 1_545
Pd16 Pd17 2.675907 1_555
Pd16 Pd8 3.014446 1_554
Pd16 Pd3 3.054426 1_545
Pd16 Pd6 3.054455 1_455
Pd16 Pd7 3.055616 1_545
Pd16 Pd5 3.055671 1_455
Pd17 Pd9 3.013519 1_456
Pd17 Pd7 3.054154 1_545
Pd17 Pd5 3.054158 1_455
Pd17 Pd3 3.055984 1_545
Pd17 Pd6 3.056016 1_455
Pd18 Pd19 2.668329 1_555
Pd18 Pd9 3.013389 1_555
Pd18 Pd4 3.054200 1_555
Pd18 Pd2 3.054423 1_554
Pd19 Pd8 3.012686 1_564
Pd19 Pd4 3.054191 1_555
Pd19 Pd2 3.054454 1_554
