# generated using pymatgen
data_Mg14BSbO16
_symmetry_space_group_name_H-M   'P 1'
_cell_length_a   8.71357161
_cell_length_b   8.66398551
_cell_length_c   4.32869950
_cell_angle_alpha   90.00000000
_cell_angle_beta   90.00000000
_cell_angle_gamma   90.00000000
_symmetry_Int_Tables_number   1
_chemical_formula_structural   Mg14BSbO16
_chemical_formula_sum   'Mg14 B1 Sb1 O16'
_cell_volume   326.79195759
_cell_formula_units_Z   1
loop_
 _symmetry_equiv_pos_site_id
 _symmetry_equiv_pos_as_xyz
  1  'x, y, z'
loop_
 _atom_site_type_symbol
 _atom_site_label
 _atom_site_symmetry_multiplicity
 _atom_site_fract_x
 _atom_site_fract_y
 _atom_site_fract_z
 _atom_site_occupancy
  Mg  Mg0  1  0.50000000  0.00000000  0.00000000  1
  Mg  Mg1  1  0.50000000  0.50000000  0.00000000  1
  Mg  Mg2  1  0.00000000  0.23116913  0.50000000  1
  Mg  Mg3  1  0.00000000  0.76883087  0.50000000  1
  Mg  Mg4  1  0.50000000  0.24593694  0.50000000  1
  Mg  Mg5  1  0.50000000  0.75406306  0.50000000  1
  Mg  Mg6  1  0.24814269  0.00000000  0.50000000  1
  Mg  Mg7  1  0.26188684  0.50000000  0.50000000  1
  Mg  Mg8  1  0.75185731  0.00000000  0.50000000  1
  Mg  Mg9  1  0.73811316  0.50000000  0.50000000  1
  Mg  Mg10  1  0.25340185  0.23824748  0.00000000  1
  Mg  Mg11  1  0.25340185  0.76175252  0.00000000  1
  Mg  Mg12  1  0.74659815  0.23824748  -0.00000000  1
  Mg  Mg13  1  0.74659815  0.76175252  -0.00000000  1
  B  B0  1  0.00000000  0.00000000  0.00000000  1
  Sb  Sb0  1  0.00000000  0.50000000  0.00000000  1
  O  O0  1  0.26886671  0.00000000  0.00000000  1
  O  O1  1  0.26381333  0.50000000  -0.00000000  1
  O  O2  1  0.73113329  0.00000000  -0.00000000  1
  O  O3  1  0.73618667  0.50000000  0.00000000  1
  O  O4  1  0.24866703  0.25061408  0.50000000  1
  O  O5  1  0.24866703  0.74938592  0.50000000  1
  O  O6  1  0.75133297  0.25061408  0.50000000  1
  O  O7  1  0.75133297  0.74938592  0.50000000  1
  O  O8  1  0.00000000  0.00000000  0.50000000  1
  O  O9  1  0.00000000  0.50000000  0.50000000  1
  O  O10  1  0.50000000  0.00000000  0.50000000  1
  O  O11  1  0.50000000  0.50000000  0.50000000  1
  O  O12  1  0.00000000  0.23775839  -0.00000000  1
  O  O13  1  0.00000000  0.76224161  0.00000000  1
  O  O14  1  0.50000000  0.25188619  -0.00000000  1
  O  O15  1  0.50000000  0.74811381  0.00000000  1
loop_
_geom_bond_atom_site_label_1
_geom_bond_atom_site_label_2
_geom_bond_distance
_geom_bond_site_symmetry_2
Mg0 O0 2.013996 1_555
Mg0 O2 2.013996 1_555
Mg0 O10 2.164350 1_555
Mg0 O10 2.164350 1_554
Mg0 O15 2.182338 1_545
Mg0 O14 2.182338 1_555
Mg1 O1 2.058029 1_555
Mg1 O3 2.058029 1_555
Mg1 O14 2.149654 1_555
Mg1 O15 2.149654 1_555
Mg1 O11 2.164350 1_554
Mg1 O11 2.164350 1_555
Mg2 O8 2.002846 1_555
Mg2 O12 2.165103 1_556
Mg2 O12 2.165103 1_555
Mg2 O6 2.173318 1_455
Mg2 O4 2.173318 1_555
Mg2 O9 2.329147 1_555
Mg3 O8 2.002846 1_565
Mg3 O13 2.165103 1_555
Mg3 O13 2.165103 1_556
Mg3 O5 2.173318 1_555
Mg3 O7 2.173318 1_455
Mg3 O9 2.329147 1_555
Mg4 O10 2.130794 1_555
Mg4 O14 2.164963 1_556
Mg4 O14 2.164963 1_555
Mg4 O6 2.190383 1_555
Mg4 O4 2.190383 1_555
Mg4 O11 2.201199 1_555
Mg5 O10 2.130794 1_565
Mg5 O15 2.164963 1_556
Mg5 O15 2.164963 1_555
Mg5 O7 2.190383 1_555
Mg5 O5 2.190383 1_555
Mg5 O11 2.201199 1_555
Mg6 O8 2.162209 1_555
Mg6 O5 2.171322 1_545
Mg6 O4 2.171322 1_555
Mg6 O0 2.171870 1_555
Mg6 O0 2.171870 1_556
Mg6 O10 2.194577 1_555
Mg7 O11 2.074816 1_555
Mg7 O4 2.163744 1_555
Mg7 O5 2.163744 1_555
Mg7 O1 2.164415 1_556
Mg7 O1 2.164415 1_555
Mg7 O9 2.281970 1_555
Mg8 O8 2.162209 1_655
Mg8 O7 2.171322 1_545
Mg8 O6 2.171322 1_555
Mg8 O2 2.171870 1_556
Mg8 O2 2.171870 1_555
Mg8 O10 2.194577 1_555
Mg9 O11 2.074816 1_555
Mg9 O6 2.163744 1_555
Mg9 O7 2.163744 1_555
Mg9 O3 2.164415 1_556
Mg9 O3 2.164415 1_555
Mg9 O9 2.281970 1_655
Mg10 O0 2.068567 1_555
Mg10 O14 2.151997 1_555
Mg10 O4 2.167393 1_554
Mg10 O4 2.167393 1_555
Mg10 O12 2.208039 1_555
Mg10 O1 2.269634 1_555
Mg11 O0 2.068567 1_565
Mg11 O15 2.151997 1_555
Mg11 O5 2.167393 1_554
Mg11 O5 2.167393 1_555
Mg11 O13 2.208039 1_555
Mg11 O1 2.269634 1_555
Mg12 O2 2.068567 1_555
Mg12 O14 2.151997 1_555
Mg12 O6 2.167393 1_555
Mg12 O6 2.167393 1_554
Mg12 O12 2.208039 1_655
Mg12 O3 2.269634 1_555
Mg13 O2 2.068567 1_565
Mg13 O15 2.151997 1_555
Mg13 O7 2.167393 1_555
Mg13 O7 2.167393 1_554
Mg13 O13 2.208039 1_655
Mg13 O3 2.269634 1_555
B0 O13 2.059935 1_545
B0 O12 2.059935 1_555
B0 O8 2.164350 1_554
B0 O8 2.164350 1_555
O1 Sb0 2.298756 1_555
O3 Sb0 2.298756 1_655
O9 Sb0 2.164350 1_555
O9 Sb0 2.164350 1_556
O12 Sb0 2.272058 1_555
O13 Sb0 2.272058 1_555
