# generated using pymatgen
data_YMg2
_symmetry_space_group_name_H-M   'P 1'
_cell_length_a   5.78407706
_cell_length_b   5.78407706
_cell_length_c   5.44251900
_cell_angle_alpha   90.00000000
_cell_angle_beta   90.00000000
_cell_angle_gamma   120.10672482
_symmetry_Int_Tables_number   1
_chemical_formula_structural   YMg2
_chemical_formula_sum   'Y2 Mg4'
_cell_volume   157.51817375
_cell_formula_units_Z   2
loop_
 _symmetry_equiv_pos_site_id
 _symmetry_equiv_pos_as_xyz
  1  'x, y, z'
loop_
 _atom_site_type_symbol
 _atom_site_label
 _atom_site_symmetry_multiplicity
 _atom_site_fract_x
 _atom_site_fract_y
 _atom_site_fract_z
 _atom_site_occupancy
  Y  Y0  1  0.68274800  0.68274800  0.75000000  1
  Y  Y1  1  0.31725200  0.31725200  0.25000000  1
  Mg  Mg0  1  0.99703900  0.33334200  0.75000000  1
  Mg  Mg1  1  0.33334200  0.99703900  0.75000000  1
  Mg  Mg2  1  0.66665800  0.00296100  0.25000000  1
  Mg  Mg3  1  0.00296100  0.66665800  0.25000000  1
loop_
_geom_bond_atom_site_label_1
_geom_bond_atom_site_label_2
_geom_bond_distance
_geom_bond_site_symmetry_2
Y0 Y1 3.443847 1_556
Y0 Y1 3.443847 1_555
Mg0 Y0 3.256164 1_545
Mg0 Y1 3.319224 1_655
Mg0 Y1 3.319224 1_656
Mg0 Mg1 3.321040 1_655
Mg0 Mg1 3.321040 1_545
Mg0 Mg2 3.323433 1_556
Mg0 Mg2 3.323433 1_555
Mg0 Mg3 3.325218 1_656
Mg0 Mg3 3.325218 1_655
Mg0 Y0 3.327894 1_555
Mg0 Mg1 3.371000 1_645
Mg0 Y0 3.431269 1_655
Mg1 Y0 3.256164 1_455
Mg1 Y1 3.319224 1_566
Mg1 Y1 3.319224 1_565
Mg1 Mg3 3.323433 1_556
Mg1 Mg3 3.323433 1_555
Mg1 Mg2 3.325218 1_566
Mg1 Mg2 3.325218 1_565
Mg1 Y0 3.327894 1_555
Mg1 Y0 3.431269 1_565
Mg2 Y1 3.256164 1_655
Mg2 Y0 3.319224 1_545
Mg2 Y0 3.319224 1_544
Mg2 Mg3 3.321040 1_655
Mg2 Mg3 3.321040 1_545
Mg2 Y1 3.327894 1_555
Mg2 Mg3 3.371000 1_645
Mg2 Y1 3.431269 1_545
Mg3 Y1 3.256164 1_565
Mg3 Y0 3.319224 1_455
Mg3 Y0 3.319224 1_454
Mg3 Y1 3.327894 1_555
Mg3 Y1 3.431269 1_455
