# generated using pymatgen
data_TaCr4Si
_symmetry_space_group_name_H-M   'P 1'
_cell_length_a   4.86830988
_cell_length_b   4.86830988
_cell_length_c   7.64068300
_cell_angle_alpha   90.00000000
_cell_angle_beta   90.00000000
_cell_angle_gamma   119.99999843
_symmetry_Int_Tables_number   1
_chemical_formula_structural   TaCr4Si
_chemical_formula_sum   'Ta2 Cr8 Si2'
_cell_volume   156.82642771
_cell_formula_units_Z   2
loop_
 _symmetry_equiv_pos_site_id
 _symmetry_equiv_pos_as_xyz
  1  'x, y, z'
loop_
 _atom_site_type_symbol
 _atom_site_label
 _atom_site_symmetry_multiplicity
 _atom_site_fract_x
 _atom_site_fract_y
 _atom_site_fract_z
 _atom_site_occupancy
  Ta  Ta0  1  0.66666700  0.33333300  0.93375900  1
  Ta  Ta1  1  0.33333300  0.66666700  0.06624100  1
  Cr  Cr0  1  0.00000000  0.00000000  0.50000000  1
  Cr  Cr1  1  0.00000000  0.00000000  0.00000000  1
  Cr  Cr2  1  0.82820900  0.17179100  0.26174900  1
  Cr  Cr3  1  0.82820900  0.65641700  0.26174900  1
  Cr  Cr4  1  0.34358300  0.17179100  0.26174900  1
  Cr  Cr5  1  0.17179100  0.82820900  0.73825100  1
  Cr  Cr6  1  0.17179100  0.34358300  0.73825100  1
  Cr  Cr7  1  0.65641700  0.82820900  0.73825100  1
  Si  Si0  1  0.33333300  0.66666700  0.43164300  1
  Si  Si1  1  0.66666700  0.33333300  0.56835700  1
loop_
_geom_bond_atom_site_label_1
_geom_bond_atom_site_label_2
_geom_bond_distance
_geom_bond_site_symmetry_2
Ta0 Ta1 2.987438 1_546
Ta0 Ta1 2.987438 1_656
Ta0 Ta1 2.987446 1_556
Cr0 Cr5 2.326416 1_545
Cr0 Cr2 2.326416 1_455
Cr0 Cr4 2.326418 1_555
Cr0 Cr6 2.326418 1_555
Cr0 Cr3 2.326418 1_445
Cr0 Cr7 2.326418 1_445
Cr0 Si0 2.858832 1_545
Cr0 Si1 2.858832 1_455
Cr0 Si0 2.858837 1_445
Cr0 Si1 2.858837 1_555
Cr0 Si1 2.858837 1_445
Cr0 Si0 2.858837 1_555
Cr1 Cr5 2.469437 1_544
Cr1 Cr2 2.469437 1_455
Cr1 Cr4 2.469439 1_555
Cr1 Cr6 2.469439 1_554
Cr1 Cr7 2.469439 1_444
Cr1 Cr3 2.469439 1_445
Cr1 Ta1 2.855923 1_545
Cr1 Ta0 2.855923 1_454
Cr1 Ta0 2.855927 1_444
Cr1 Ta1 2.855927 1_555
Cr1 Ta1 2.855927 1_445
Cr1 Ta0 2.855927 1_554
Cr2 Cr3 2.359310 1_555
Cr2 Cr4 2.359310 1_555
Cr2 Cr4 2.509000 1_655
Cr2 Cr3 2.509000 1_545
Cr2 Si1 2.709920 1_555
Cr2 Si0 2.758996 1_545
Cr2 Si0 2.758996 1_655
Cr2 Ta0 2.852336 1_554
Cr2 Ta1 2.856302 1_545
Cr2 Ta1 2.856302 1_655
Cr3 Cr4 2.359310 1_555
Cr3 Cr4 2.509000 1_665
Cr3 Si1 2.709920 1_555
Cr3 Si0 2.758991 1_655
Cr3 Si0 2.759000 1_555
Cr3 Ta0 2.852336 1_554
Cr3 Ta1 2.856298 1_655
Cr3 Ta1 2.856306 1_555
Cr4 Si1 2.709920 1_555
Cr4 Si0 2.758991 1_545
Cr4 Si0 2.759000 1_555
Cr4 Ta0 2.852336 1_554
Cr4 Ta1 2.856298 1_545
Cr4 Ta1 2.856306 1_555
Cr5 Cr7 2.359310 1_555
Cr5 Cr6 2.359310 1_555
Cr5 Cr6 2.509000 1_565
Cr5 Cr7 2.509000 1_455
Cr5 Si0 2.709920 1_555
Cr5 Si1 2.758996 1_565
Cr5 Si1 2.758996 1_455
Cr5 Ta1 2.852336 1_556
Cr5 Ta0 2.856302 1_455
Cr5 Ta0 2.856302 1_565
Cr6 Cr7 2.359310 1_555
Cr6 Cr7 2.509000 1_445
Cr6 Si0 2.709920 1_555
Cr6 Si1 2.758991 1_455
Cr6 Si1 2.759000 1_555
Cr6 Ta1 2.852336 1_556
Cr6 Ta0 2.856298 1_455
Cr6 Ta0 2.856306 1_555
Cr7 Si0 2.709920 1_555
Cr7 Si1 2.758991 1_565
Cr7 Si1 2.759000 1_555
Cr7 Ta1 2.852336 1_556
Cr7 Ta0 2.856298 1_565
Cr7 Ta0 2.856306 1_555
Si0 Ta1 2.791921 1_555
Si1 Ta0 2.791921 1_555
