# generated using pymatgen
data_CaMn6(OF2)4
_symmetry_space_group_name_H-M   'P 1'
_cell_length_a   5.67709384
_cell_length_b   7.79020863
_cell_length_c   5.96156044
_cell_angle_alpha   92.64022354
_cell_angle_beta   79.74610961
_cell_angle_gamma   93.48956445
_symmetry_Int_Tables_number   1
_chemical_formula_structural   CaMn6(OF2)4
_chemical_formula_sum   'Ca1 Mn6 O4 F8'
_cell_volume   258.79586289
_cell_formula_units_Z   1
loop_
 _symmetry_equiv_pos_site_id
 _symmetry_equiv_pos_as_xyz
  1  'x, y, z'
loop_
 _atom_site_type_symbol
 _atom_site_label
 _atom_site_symmetry_multiplicity
 _atom_site_fract_x
 _atom_site_fract_y
 _atom_site_fract_z
 _atom_site_occupancy
  Ca  Ca0  1  0.41257600  0.73362300  0.94472200  1
  Mn  Mn0  1  0.54027400  0.99768400  0.49805700  1
  Mn  Mn1  1  0.72374300  0.59764100  0.25487900  1
  Mn  Mn2  1  0.46547000  0.33268700  0.79104300  1
  Mn  Mn3  1  0.95691600  0.68531000  0.65333500  1
  Mn  Mn4  1  0.21142700  0.32435800  0.31043600  1
  Mn  Mn5  1  0.91672700  0.01424800  0.98778700  1
  O  O0  1  0.81232700  0.75905500  0.98110700  1
  O  O1  1  0.67550800  0.78070000  0.52845800  1
  O  O2  1  0.50266300  0.45021300  0.07664500  1
  O  O3  1  0.39135900  0.21738500  0.52204700  1
  F  F0  1  0.76168300  0.44149900  0.60163800  1
  F  F1  1  0.87087400  0.11009600  0.32640100  1
  F  F2  1  0.64924800  0.09798500  0.81417200  1
  F  F3  1  0.24444600  0.53662300  0.71631400  1
  F  F4  1  0.38074500  0.93050000  0.22981200  1
  F  F5  1  0.09009900  0.58637100  0.29697200  1
  F  F6  1  0.14989700  0.23535800  0.97634000  1
  F  F7  1  0.21623500  0.90199600  0.72941700  1
loop_
_geom_bond_atom_site_label_1
_geom_bond_atom_site_label_2
_geom_bond_distance
_geom_bond_site_symmetry_2
Ca0 F4 2.226601 1_556
Ca0 F3 2.283043 1_555
Ca0 O0 2.313688 1_555
Ca0 F7 2.335133 1_555
Ca0 O2 2.489016 1_556
Ca0 O1 2.686875 1_555
Ca0 F5 2.770357 1_556
Mn0 O1 1.927509 1_555
Mn0 O3 1.942934 1_565
Mn1 O2 2.051878 1_555
Mn1 O0 2.077917 1_554
Mn1 O1 2.107827 1_555
Mn2 O3 1.901835 1_555
Mn2 O2 1.934586 1_556
Mn3 O0 2.050612 1_555
Mn3 O1 2.068238 1_555
Mn4 O3 1.997155 1_555
Mn4 O2 2.178442 1_555
Mn5 O0 2.040272 1_545
F0 Mn2 2.014952 1_555
F0 Mn3 2.177692 1_555
F0 Mn1 2.494286 1_555
F1 Mn5 2.097146 1_554
F1 Mn0 2.129634 1_545
F1 Mn4 2.467638 1_655
F2 Mn5 2.131896 1_555
F2 Mn2 2.181092 1_555
F2 Mn0 2.182962 1_545
F3 Mn3 2.153038 1_455
F3 Mn2 2.191758 1_555
F4 Mn0 2.008051 1_555
F5 Mn1 2.146270 1_455
F5 Mn4 2.202960 1_555
F5 Mn3 2.242178 1_455
F6 Mn2 2.052314 1_555
F6 Mn5 2.103568 1_455
F6 Mn4 2.158869 1_556
F7 Mn0 2.206043 1_555
F7 Mn3 2.255470 1_455
F7 Mn5 2.269981 1_465
