# generated using pymatgen
data_Ce3Se3N
_symmetry_space_group_name_H-M   'P 1'
_cell_length_a   4.18293152
_cell_length_b   12.81790420
_cell_length_c   13.46158808
_cell_angle_alpha   90.00000000
_cell_angle_beta   90.00000000
_cell_angle_gamma   90.00000000
_symmetry_Int_Tables_number   1
_chemical_formula_structural   Ce3Se3N
_chemical_formula_sum   'Ce12 Se12 N4'
_cell_volume   721.76209977
_cell_formula_units_Z   4
loop_
 _symmetry_equiv_pos_site_id
 _symmetry_equiv_pos_as_xyz
  1  'x, y, z'
loop_
 _atom_site_type_symbol
 _atom_site_label
 _atom_site_symmetry_multiplicity
 _atom_site_fract_x
 _atom_site_fract_y
 _atom_site_fract_z
 _atom_site_occupancy
  Ce  Ce0  1  0.75000000  0.42053239  0.13010284  1
  Ce  Ce1  1  0.75000000  0.92053239  0.36989716  1
  Ce  Ce2  1  0.25000000  0.57946761  0.86989716  1
  Ce  Ce3  1  0.25000000  0.07946761  0.63010284  1
  Ce  Ce4  1  0.75000000  0.78364267  0.13432995  1
  Ce  Ce5  1  0.75000000  0.28364267  0.36567005  1
  Ce  Ce6  1  0.25000000  0.21635733  0.86567005  1
  Ce  Ce7  1  0.25000000  0.71635733  0.63432995  1
  Ce  Ce8  1  0.75000000  0.96484185  0.84538563  1
  Ce  Ce9  1  0.75000000  0.46484185  0.65461437  1
  Ce  Ce10  1  0.25000000  0.03515815  0.15461437  1
  Ce  Ce11  1  0.25000000  0.53515815  0.34538563  1
  Se  Se0  1  0.75000000  0.63339625  0.49860362  1
  Se  Se1  1  0.75000000  0.13339625  0.00139638  1
  Se  Se2  1  0.25000000  0.36660375  0.50139638  1
  Se  Se3  1  0.25000000  0.86660375  0.99860362  1
  Se  Se4  1  0.75000000  0.41405190  0.89320514  1
  Se  Se5  1  0.75000000  0.91405190  0.60679486  1
  Se  Se6  1  0.25000000  0.58594810  0.10679486  1
  Se  Se7  1  0.25000000  0.08594810  0.39320514  1
  Se  Se8  1  0.75000000  0.72907381  0.80288418  1
  Se  Se9  1  0.75000000  0.22907381  0.69711582  1
  Se  Se10  1  0.25000000  0.27092619  0.19711582  1
  Se  Se11  1  0.25000000  0.77092619  0.30288418  1
  N  N0  1  0.75000000  0.45038999  0.29635897  1
  N  N1  1  0.75000000  0.95038999  0.20364103  1
  N  N2  1  0.25000000  0.54961001  0.70364103  1
  N  N3  1  0.25000000  0.04961001  0.79635897  1
loop_
_geom_bond_atom_site_label_1
_geom_bond_atom_site_label_2
_geom_bond_distance
_geom_bond_site_symmetry_2
Ce0 N0 2.270558 1_555
Ce0 Se10 2.977474 1_655
Ce0 Se10 2.977474 1_555
Ce0 Se6 2.994708 1_555
Ce0 Se6 2.994708 1_655
Ce0 Se4 3.190101 1_554
Ce1 N1 2.270558 1_555
Ce1 Se11 2.977474 1_655
Ce1 Se11 2.977474 1_555
Ce1 Se7 2.994708 1_665
Ce1 Se7 2.994708 1_565
Ce1 Se5 3.190101 1_555
Ce2 N2 2.270558 1_555
Ce2 Se8 2.977474 1_455
Ce2 Se8 2.977474 1_555
Ce2 Se4 2.994708 1_555
Ce2 Se4 2.994708 1_455
Ce2 Se6 3.190101 1_556
Ce3 N3 2.270558 1_555
Ce3 Se9 2.977474 1_555
Ce3 Se9 2.977474 1_455
Ce3 Se5 2.994708 1_545
Ce3 Se5 2.994708 1_445
Ce3 Se7 3.190101 1_555
Ce4 N1 2.332130 1_555
Ce4 Se3 2.973766 1_654
Ce4 Se3 2.973766 1_554
Ce4 Se11 3.090177 1_555
Ce4 Se11 3.090177 1_655
Ce4 Se6 3.306498 1_555
Ce4 Se6 3.306498 1_655
Ce5 N0 2.332130 1_555
Ce5 Se2 2.973766 1_555
Ce5 Se2 2.973766 1_655
Ce5 Se10 3.090177 1_555
Ce5 Se10 3.090177 1_655
Ce5 Se7 3.306498 1_555
Ce5 Se7 3.306498 1_655
Ce6 N3 2.332130 1_555
Ce6 Se1 2.973766 1_556
Ce6 Se1 2.973766 1_456
Ce6 Se9 3.090177 1_555
Ce6 Se9 3.090177 1_455
Ce6 Se4 3.306498 1_555
Ce6 Se4 3.306498 1_455
Ce7 N2 2.332130 1_555
Ce7 Se0 2.973766 1_555
Ce7 Se0 2.973766 1_455
Ce7 Se8 3.090177 1_455
Ce7 Se8 3.090177 1_555
Ce7 Se5 3.306498 1_555
Ce7 Se5 3.306498 1_455
Ce8 N3 2.447527 1_665
Ce8 N3 2.447527 1_565
Ce8 Se1 3.013049 1_566
Ce8 Se8 3.075734 1_555
Ce8 Se3 3.195931 1_655
Ce8 Se3 3.195931 1_555
Ce8 Se5 3.277126 1_555
Ce9 N2 2.447527 1_555
Ce9 N2 2.447527 1_655
Ce9 Se0 3.013049 1_555
Ce9 Se9 3.075734 1_555
Ce9 Se2 3.195931 1_555
Ce9 Se2 3.195931 1_655
Ce9 Se4 3.277126 1_555
Ce10 N1 2.447527 1_445
Ce10 N1 2.447527 1_545
Ce10 Se3 3.013049 1_544
Ce10 Se10 3.075734 1_555
Ce10 Se1 3.195931 1_555
Ce10 Se1 3.195931 1_455
Ce10 Se7 3.277126 1_555
Ce11 N0 2.447527 1_555
Ce11 N0 2.447527 1_455
Ce11 Se2 3.013049 1_555
Ce11 Se11 3.075734 1_555
Ce11 Se0 3.195931 1_455
Ce11 Se0 3.195931 1_555
Ce11 Se6 3.277126 1_555
