# generated using pymatgen
data_Li9Mg3P4O16F3
_symmetry_space_group_name_H-M   'P 1'
_cell_length_a   12.76103706
_cell_length_b   12.76103706
_cell_length_c   5.06920600
_cell_angle_alpha   90.00000000
_cell_angle_beta   90.00000000
_cell_angle_gamma   119.99999512
_symmetry_Int_Tables_number   1
_chemical_formula_structural   Li9Mg3P4O16F3
_chemical_formula_sum   'Li18 Mg6 P8 O32 F6'
_cell_volume   714.89545015
_cell_formula_units_Z   2
loop_
 _symmetry_equiv_pos_site_id
 _symmetry_equiv_pos_as_xyz
  1  'x, y, z'
loop_
 _atom_site_type_symbol
 _atom_site_label
 _atom_site_symmetry_multiplicity
 _atom_site_fract_x
 _atom_site_fract_y
 _atom_site_fract_z
 _atom_site_occupancy
  Li  Li0  1  0.16843100  0.08342600  0.84706900  1
  Li  Li1  1  0.91499500  0.83156900  0.84706900  1
  Li  Li2  1  0.91657400  0.08500500  0.84706900  1
  Li  Li3  1  0.83156900  0.91657400  0.34706900  1
  Li  Li4  1  0.08500500  0.16843100  0.34706900  1
  Li  Li5  1  0.08342600  0.91499500  0.34706900  1
  Li  Li6  1  0.39509400  0.56965700  0.80083400  1
  Li  Li7  1  0.17456300  0.60490600  0.80083400  1
  Li  Li8  1  0.43034300  0.82543700  0.80083400  1
  Li  Li9  1  0.60490600  0.43034300  0.30083400  1
  Li  Li10  1  0.82543700  0.39509400  0.30083400  1
  Li  Li11  1  0.56965700  0.17456300  0.30083400  1
  Li  Li12  1  0.33408200  0.42047200  0.27002000  1
  Li  Li13  1  0.08638900  0.66591800  0.27002000  1
  Li  Li14  1  0.57952800  0.91361100  0.27002000  1
  Li  Li15  1  0.66591800  0.57952800  0.77002000  1
  Li  Li16  1  0.91361100  0.33408200  0.77002000  1
  Li  Li17  1  0.42047200  0.08638900  0.77002000  1
  Mg  Mg0  1  0.42520000  0.35780800  0.76899700  1
  Mg  Mg1  1  0.93260900  0.57480000  0.76899700  1
  Mg  Mg2  1  0.64219200  0.06739100  0.76899700  1
  Mg  Mg3  1  0.57480000  0.64219200  0.26899700  1
  Mg  Mg4  1  0.06739100  0.42520000  0.26899700  1
  Mg  Mg5  1  0.35780800  0.93260900  0.26899700  1
  P  P0  1  0.15323200  0.31928900  0.75420000  1
  P  P1  1  0.16605600  0.84676800  0.75420000  1
  P  P2  1  0.68071100  0.83394400  0.75420000  1
  P  P3  1  0.84676800  0.68071100  0.25420000  1
  P  P4  1  0.83394400  0.15323200  0.25420000  1
  P  P5  1  0.31928900  0.16605600  0.25420000  1
  P  P6  1  0.33333300  0.66666700  0.29512500  1
  P  P7  1  0.66666700  0.33333300  0.79512500  1
  O  O0  1  0.20242500  0.59818800  0.18566000  1
  O  O1  1  0.39576300  0.79757500  0.18566000  1
  O  O2  1  0.40181200  0.60423700  0.18566000  1
  O  O3  1  0.79757500  0.40181200  0.68566000  1
  O  O4  1  0.60423700  0.20242500  0.68566000  1
  O  O5  1  0.59818800  0.39576300  0.68566000  1
  O  O6  1  0.09149100  0.17787100  0.75251800  1
  O  O7  1  0.08638000  0.90850900  0.75251800  1
  O  O8  1  0.82212900  0.91362000  0.75251800  1
  O  O9  1  0.90850900  0.82212900  0.25251800  1
  O  O10  1  0.91362000  0.09149100  0.25251800  1
  O  O11  1  0.17787100  0.08638000  0.25251800  1
  O  O12  1  0.28097600  0.37867500  0.88161200  1
  O  O13  1  0.09769900  0.71902400  0.88161200  1
  O  O14  1  0.62132500  0.90230100  0.88161200  1
  O  O15  1  0.71902400  0.62132500  0.38161200  1
  O  O16  1  0.90230100  0.28097600  0.38161200  1
  O  O17  1  0.37867500  0.09769900  0.38161200  1
  O  O18  1  0.07376600  0.35806500  0.90596800  1
  O  O19  1  0.28429900  0.92623400  0.90596800  1
  O  O20  1  0.64193500  0.71570100  0.90596800  1
  O  O21  1  0.92623400  0.64193500  0.40596800  1
  O  O22  1  0.71570100  0.07376600  0.40596800  1
  O  O23  1  0.35806500  0.28429900  0.40596800  1
  O  O24  1  0.16637200  0.35960700  0.45787700  1
  O  O25  1  0.19323500  0.83362800  0.45787700  1
  O  O26  1  0.64039300  0.80676500  0.45787700  1
  O  O27  1  0.83362800  0.64039300  0.95787700  1
  O  O28  1  0.80676500  0.16637200  0.95787700  1
  O  O29  1  0.35960700  0.19323500  0.95787700  1
  O  O30  1  0.33333300  0.66666700  0.60378500  1
  O  O31  1  0.66666700  0.33333300  0.10378500  1
  F  F0  1  0.48346900  0.52284800  0.57394300  1
  F  F1  1  0.03937800  0.51653100  0.57394300  1
  F  F2  1  0.47715200  0.96062200  0.57394300  1
  F  F3  1  0.51653100  0.47715200  0.07394300  1
  F  F4  1  0.96062200  0.48346900  0.07394300  1
  F  F5  1  0.52284800  0.03937800  0.07394300  1
loop_
_geom_bond_atom_site_label_1
_geom_bond_atom_site_label_2
_geom_bond_distance
_geom_bond_site_symmetry_2
Li0 O6 1.956935 1_555
Li0 O7 1.992804 1_545
Li0 O11 2.058074 1_556
Li0 O29 2.193673 1_555
Li1 O7 1.956935 1_655
Li1 O8 1.992804 1_555
Li1 O9 2.058074 1_556
Li1 O27 2.193673 1_555
Li2 O8 1.956935 1_545
Li2 O6 1.992804 1_655
Li2 O10 2.058074 1_556
Li2 O28 2.193673 1_555
Li3 O9 1.956935 1_555
Li3 O10 1.992804 1_565
Li3 O8 2.058074 1_555
Li3 O26 2.193673 1_555
Li4 O10 1.956935 1_455
Li4 O11 1.992804 1_555
Li4 O6 2.058074 1_555
Li4 O24 2.193673 1_555
Li5 O11 1.956935 1_565
Li5 O9 1.992804 1_455
Li5 O7 2.058074 1_555
Li5 O25 2.193673 1_555
Li6 O2 1.992415 1_556
Li6 O30 2.031528 1_555
Li6 O12 2.163070 1_555
Li7 O0 1.992415 1_556
Li7 O30 2.031518 1_555
Li7 O13 2.163070 1_555
Li8 O1 1.992415 1_556
Li8 O30 2.031519 1_555
Li8 O14 2.163070 1_555
Li9 O5 1.992415 1_555
Li9 O31 2.031528 1_555
Li9 O15 2.163070 1_555
Li10 O3 1.992415 1_555
Li10 O31 2.031518 1_555
Li10 O16 2.163070 1_555
Li11 O4 1.992415 1_555
Li11 O31 2.031519 1_555
Li11 O17 2.163070 1_555
Li12 O23 2.029789 1_555
Li12 O12 2.063718 1_554
Li12 O2 2.098154 1_555
Li12 O24 2.104308 1_555
Li13 O21 2.029777 1_455
Li13 O13 2.063717 1_554
Li13 O0 2.098165 1_555
Li13 O25 2.104310 1_555
Li14 O22 2.029782 1_565
Li14 O14 2.063721 1_554
Li14 O1 2.098156 1_555
Li14 O26 2.104318 1_555
Li15 O20 2.029789 1_555
Li15 O15 2.063718 1_555
Li15 O5 2.098154 1_555
Li15 O27 2.104308 1_555
Li16 O18 2.029777 1_655
Li16 O16 2.063717 1_555
Li16 O3 2.098165 1_555
Li16 O28 2.104310 1_555
Li17 O19 2.029782 1_545
Li17 O17 2.063721 1_555
Li17 O4 2.098156 1_555
Li17 O29 2.104318 1_555
Mg0 O23 2.048620 1_555
Mg0 O5 2.053520 1_555
Mg0 O29 2.066402 1_555
Mg0 O12 2.067397 1_555
Mg1 O21 2.048623 1_555
Mg1 O3 2.053524 1_555
Mg1 O27 2.066412 1_555
Mg1 O13 2.067390 1_655
Mg2 O22 2.048618 1_555
Mg2 O4 2.053532 1_555
Mg2 O28 2.066403 1_555
Mg2 O14 2.067385 1_545
Mg3 O20 2.048620 1_554
Mg3 O2 2.053520 1_555
Mg3 O26 2.066402 1_555
Mg3 O15 2.067397 1_555
Mg4 O18 2.048623 1_554
Mg4 O0 2.053524 1_555
Mg4 O24 2.066412 1_555
Mg4 O16 2.067390 1_455
Mg5 O19 2.048618 1_554
Mg5 O1 2.053532 1_555
Mg5 O25 2.066403 1_555
Mg5 O17 2.067385 1_565
O0 P6 1.549964 1_555
O1 P6 1.549963 1_555
O2 P6 1.549974 1_555
O3 P7 1.549964 1_555
O4 P7 1.549963 1_555
O5 P7 1.549974 1_555
O6 P0 1.567072 1_555
O7 P1 1.567060 1_555
O8 P2 1.567071 1_555
O9 P3 1.567072 1_555
O10 P4 1.567060 1_555
O11 P5 1.567071 1_555
O12 P0 1.553534 1_555
O13 P1 1.553533 1_555
O14 P2 1.553523 1_555
O15 P3 1.553534 1_555
O16 P4 1.553533 1_555
O17 P5 1.553523 1_555
O18 P0 1.538459 1_555
O19 P1 1.538467 1_555
O20 P2 1.538470 1_555
O21 P3 1.538459 1_555
O22 P4 1.538467 1_555
O23 P5 1.538470 1_555
O24 P0 1.569371 1_555
O25 P1 1.569375 1_555
O26 P2 1.569372 1_555
O27 P3 1.569371 1_556
O28 P4 1.569375 1_556
O29 P5 1.569372 1_556
O30 P6 1.564661 1_555
O31 P7 1.564661 1_554
F0 Li6 1.903982 1_555
F0 Mg3 2.071801 1_555
F0 Mg0 2.097646 1_555
F0 Li12 2.285600 1_555
F0 Li15 2.290806 1_555
F1 Li7 1.903989 1_555
F1 Mg4 2.071801 1_555
F1 Mg1 2.097625 1_455
F1 Li13 2.285600 1_555
F1 Li16 2.290801 1_455
F2 Li8 1.903991 1_555
F2 Mg5 2.071801 1_555
F2 Mg2 2.097642 1_565
F2 Li14 2.285600 1_555
F2 Li17 2.290784 1_565
F3 Li9 1.903982 1_555
F3 Mg0 2.071801 1_554
F3 Mg3 2.097646 1_555
F3 Li15 2.285600 1_554
F3 Li12 2.290806 1_555
F4 Li10 1.903989 1_555
F4 Mg1 2.071801 1_554
F4 Mg4 2.097625 1_655
F4 Li16 2.285600 1_554
F4 Li13 2.290801 1_655
F5 Li11 1.903991 1_555
F5 Mg2 2.071801 1_554
F5 Mg5 2.097642 1_545
F5 Li17 2.285600 1_554
F5 Li14 2.290784 1_545
