# generated using pymatgen
data_GaPd
_symmetry_space_group_name_H-M   'P 1'
_cell_length_a   8.81830116
_cell_length_b   8.81830116
_cell_length_c   8.81829991
_cell_angle_alpha   39.34579166
_cell_angle_beta   39.34579166
_cell_angle_gamma   39.34579476
_symmetry_Int_Tables_number   1
_chemical_formula_structural   GaPd
_chemical_formula_sum   'Ga8 Pd8'
_cell_volume   248.04342074
_cell_formula_units_Z   8
loop_
 _symmetry_equiv_pos_site_id
 _symmetry_equiv_pos_as_xyz
  1  'x, y, z'
loop_
 _atom_site_type_symbol
 _atom_site_label
 _atom_site_symmetry_multiplicity
 _atom_site_fract_x
 _atom_site_fract_y
 _atom_site_fract_z
 _atom_site_occupancy
  Ga  Ga0_0  1  0.00000000  0.00000000  0.00000000  1
  Ga  Ga0_1  1  0.00000000  0.00000000  0.50000000  1
  Ga  Ga0_2  1  0.00000000  0.50000000  0.00000000  1
  Ga  Ga0_3  1  0.00000000  0.50000000  0.50000000  1
  Ga  Ga0_4  1  0.50000000  0.00000000  0.00000000  1
  Ga  Ga0_5  1  0.50000000  0.00000000  0.50000000  1
  Ga  Ga0_6  1  0.50000000  0.50000000  0.00000000  1
  Ga  Ga0_7  1  0.50000000  0.50000000  0.50000000  1
  Pd  Pd0_0  1  0.25000000  0.25000000  0.25000000  1
  Pd  Pd0_1  1  0.25000000  0.25000000  0.75000000  1
  Pd  Pd0_2  1  0.25000000  0.75000000  0.25000000  1
  Pd  Pd0_3  1  0.25000000  0.75000000  0.75000000  1
  Pd  Pd0_4  1  0.75000000  0.25000000  0.25000000  1
  Pd  Pd0_5  1  0.75000000  0.25000000  0.75000000  1
  Pd  Pd0_6  1  0.75000000  0.75000000  0.25000000  1
  Pd  Pd0_7  1  0.75000000  0.75000000  0.75000000  1
loop_
_geom_bond_atom_site_label_1
_geom_bond_atom_site_label_2
_geom_bond_distance
_geom_bond_site_symmetry_2
Ga0_0 Pd0_5 2.657709 1_454
Ga0_0 Pd0_3 2.657709 1_544
Ga0_0 Pd0_2 2.657709 1_545
Ga0_0 Pd0_4 2.657709 1_455
Ga0_0 Pd0_6 2.657709 1_445
Ga0_0 Pd0_1 2.657709 1_554
Ga0_0 Ga0_5 2.968680 1_455
Ga0_0 Ga0_5 2.968680 1_554
Ga0_0 Ga0_3 2.968680 1_545
Ga0_0 Ga0_3 2.968680 1_554
Ga0_0 Ga0_6 2.968680 1_455
Ga0_0 Ga0_6 2.968680 1_545
Ga0_1 Pd0_3 2.657709 1_545
Ga0_1 Pd0_4 2.657709 1_455
Ga0_1 Pd0_2 2.657709 1_545
Ga0_1 Pd0_5 2.657709 1_455
Ga0_1 Pd0_7 2.657709 1_445
Ga0_1 Pd0_0 2.657709 1_555
Ga0_1 Ga0_2 2.968680 1_546
Ga0_1 Ga0_4 2.968680 1_555
Ga0_1 Ga0_2 2.968680 1_555
Ga0_1 Ga0_4 2.968680 1_456
Ga0_1 Ga0_7 2.968680 1_455
Ga0_1 Ga0_7 2.968680 1_545
Ga0_2 Pd0_7 2.657709 1_454
Ga0_2 Pd0_1 2.657709 1_554
Ga0_2 Pd0_6 2.657709 1_455
Ga0_2 Pd0_0 2.657709 1_555
Ga0_2 Pd0_4 2.657709 1_455
Ga0_2 Pd0_3 2.657709 1_554
Ga0_2 Ga0_7 2.968680 1_455
Ga0_2 Ga0_7 2.968680 1_554
Ga0_2 Ga0_4 2.968680 1_465
Ga0_2 Ga0_4 2.968680 1_555
Ga0_3 Pd0_0 2.657709 1_555
Ga0_3 Pd0_6 2.657709 1_455
Ga0_3 Pd0_1 2.657709 1_555
Ga0_3 Pd0_7 2.657709 1_455
Ga0_3 Pd0_5 2.657709 1_455
Ga0_3 Pd0_2 2.657709 1_555
Ga0_3 Ga0_6 2.968680 1_456
Ga0_3 Ga0_6 2.968680 1_555
Ga0_3 Ga0_5 2.968680 1_555
Ga0_3 Ga0_5 2.968680 1_465
Ga0_4 Pd0_7 2.657709 1_544
Ga0_4 Pd0_1 2.657709 1_554
Ga0_4 Pd0_6 2.657709 1_545
Ga0_4 Pd0_0 2.657709 1_555
Ga0_4 Pd0_5 2.657709 1_554
Ga0_4 Pd0_2 2.657709 1_545
Ga0_4 Ga0_7 2.968680 1_545
Ga0_4 Ga0_7 2.968680 1_554
Ga0_5 Pd0_0 2.657709 1_555
Ga0_5 Pd0_6 2.657709 1_545
Ga0_5 Pd0_1 2.657709 1_555
Ga0_5 Pd0_7 2.657709 1_545
Ga0_5 Pd0_3 2.657709 1_545
Ga0_5 Pd0_4 2.657709 1_555
Ga0_5 Ga0_6 2.968680 1_546
Ga0_5 Ga0_6 2.968680 1_555
Ga0_6 Pd0_3 2.657709 1_554
Ga0_6 Pd0_5 2.657709 1_554
Ga0_6 Pd0_4 2.657709 1_555
Ga0_6 Pd0_2 2.657709 1_555
Ga0_6 Pd0_0 2.657709 1_555
Ga0_6 Pd0_7 2.657709 1_554
Ga0_7 Pd0_5 2.657709 1_555
Ga0_7 Pd0_3 2.657709 1_555
Ga0_7 Pd0_2 2.657709 1_555
Ga0_7 Pd0_4 2.657709 1_555
Ga0_7 Pd0_6 2.657709 1_555
Ga0_7 Pd0_1 2.657709 1_555
Pd0_0 Pd0_3 2.968680 1_554
Pd0_0 Pd0_5 2.968680 1_455
Pd0_0 Pd0_5 2.968680 1_554
Pd0_0 Pd0_3 2.968680 1_545
Pd0_0 Pd0_6 2.968680 1_455
Pd0_0 Pd0_6 2.968680 1_545
Pd0_1 Pd0_2 2.968680 1_555
Pd0_1 Pd0_4 2.968680 1_555
Pd0_1 Pd0_2 2.968680 1_546
Pd0_1 Pd0_4 2.968680 1_456
Pd0_1 Pd0_7 2.968680 1_545
Pd0_1 Pd0_7 2.968680 1_455
Pd0_2 Pd0_7 2.968680 1_455
Pd0_2 Pd0_7 2.968680 1_554
Pd0_2 Pd0_4 2.968680 1_555
Pd0_2 Pd0_4 2.968680 1_465
Pd0_3 Pd0_6 2.968680 1_555
Pd0_3 Pd0_6 2.968680 1_456
Pd0_3 Pd0_5 2.968680 1_465
Pd0_3 Pd0_5 2.968680 1_555
Pd0_4 Pd0_7 2.968680 1_545
Pd0_4 Pd0_7 2.968680 1_554
Pd0_5 Pd0_6 2.968680 1_555
Pd0_5 Pd0_6 2.968680 1_546
