# generated using pymatgen
data_Mg6CuBiO8
_symmetry_space_group_name_H-M   'P 1'
_cell_length_a   8.96401479
_cell_length_b   4.45267068
_cell_length_c   4.45267068
_cell_angle_alpha   90.00000000
_cell_angle_beta   90.00000000
_cell_angle_gamma   90.00000000
_symmetry_Int_Tables_number   1
_chemical_formula_structural   Mg6CuBiO8
_chemical_formula_sum   'Mg6 Cu1 Bi1 O8'
_cell_volume   177.72303295
_cell_formula_units_Z   1
loop_
 _symmetry_equiv_pos_site_id
 _symmetry_equiv_pos_as_xyz
  1  'x, y, z'
loop_
 _atom_site_type_symbol
 _atom_site_label
 _atom_site_symmetry_multiplicity
 _atom_site_fract_x
 _atom_site_fract_y
 _atom_site_fract_z
 _atom_site_occupancy
  Mg  Mg0  1  0.50000000  -0.00000000  0.00000000  1
  Mg  Mg1  1  0.50000000  0.50000000  0.50000000  1
  Mg  Mg2  1  0.26526784  -0.00000000  0.50000000  1
  Mg  Mg3  1  0.73473216  0.00000000  0.50000000  1
  Mg  Mg4  1  0.26526784  0.50000000  -0.00000000  1
  Mg  Mg5  1  0.73473216  0.50000000  0.00000000  1
  Cu  Cu0  1  0.00000000  -0.00000000  0.00000000  1
  Bi  Bi0  1  0.00000000  0.50000000  0.50000000  1
  O  O0  1  0.27076760  -0.00000000  0.00000000  1
  O  O1  1  0.72923240  0.00000000  -0.00000000  1
  O  O2  1  0.26888345  0.50000000  0.50000000  1
  O  O3  1  0.73111655  0.50000000  0.50000000  1
  O  O4  1  0.00000000  -0.00000000  0.50000000  1
  O  O5  1  0.50000000  -0.00000000  0.50000000  1
  O  O6  1  0.00000000  0.50000000  0.00000000  1
  O  O7  1  0.50000000  0.50000000  0.00000000  1
loop_
_geom_bond_atom_site_label_1
_geom_bond_atom_site_label_2
_geom_bond_distance
_geom_bond_site_symmetry_2
Mg0 O1 2.054843 1_555
Mg0 O0 2.054843 1_555
Mg0 O5 2.226335 1_555
Mg0 O7 2.226335 1_545
Mg0 O7 2.226335 1_555
Mg0 O5 2.226335 1_554
Mg1 O3 2.071732 1_555
Mg1 O2 2.071732 1_555
Mg1 O5 2.226335 1_555
Mg1 O5 2.226335 1_565
Mg1 O7 2.226335 1_555
Mg1 O7 2.226335 1_556
Mg2 O5 2.104143 1_555
Mg2 O2 2.226571 1_555
Mg2 O2 2.226571 1_545
Mg2 O0 2.226881 1_555
Mg2 O0 2.226881 1_556
Mg2 O4 2.377865 1_555
Mg3 O5 2.104143 1_555
Mg3 O3 2.226571 1_545
Mg3 O3 2.226571 1_555
Mg3 O1 2.226881 1_555
Mg3 O1 2.226881 1_556
Mg3 O4 2.377865 1_655
Mg4 O7 2.104143 1_555
Mg4 O2 2.226571 1_555
Mg4 O2 2.226571 1_554
Mg4 O0 2.226881 1_555
Mg4 O0 2.226881 1_565
Mg4 O6 2.377865 1_555
Mg5 O7 2.104143 1_555
Mg5 O3 2.226571 1_555
Mg5 O3 2.226571 1_554
Mg5 O1 2.226881 1_555
Mg5 O1 2.226881 1_565
Mg5 O6 2.377865 1_655
Cu0 O6 2.226335 1_555
Cu0 O4 2.226335 1_555
Cu0 O4 2.226335 1_554
Cu0 O6 2.226335 1_545
Cu0 O0 2.427165 1_555
Cu0 O1 2.427165 1_455
Bi0 O6 2.226335 1_556
Bi0 O6 2.226335 1_555
Bi0 O4 2.226335 1_555
Bi0 O4 2.226335 1_565
Bi0 O2 2.410275 1_555
Bi0 O3 2.410275 1_455
