# generated using pymatgen
data_Zn2CrWO6
_symmetry_space_group_name_H-M   'P 1'
_cell_length_a   5.24152613
_cell_length_b   5.54168026
_cell_length_c   7.63777141
_cell_angle_alpha   85.27371151
_cell_angle_beta   90.04798136
_cell_angle_gamma   90.04995760
_symmetry_Int_Tables_number   1
_chemical_formula_structural   Zn2CrWO6
_chemical_formula_sum   'Zn4 Cr2 W2 O12'
_cell_volume   221.09877107
_cell_formula_units_Z   2
loop_
 _symmetry_equiv_pos_site_id
 _symmetry_equiv_pos_as_xyz
  1  'x, y, z'
loop_
 _atom_site_type_symbol
 _atom_site_label
 _atom_site_symmetry_multiplicity
 _atom_site_fract_x
 _atom_site_fract_y
 _atom_site_fract_z
 _atom_site_occupancy
  Zn  Zn0  1  0.00617700  0.49605700  0.23498800  1
  Zn  Zn1  1  0.50852100  0.97422300  0.72716300  1
  Zn  Zn2  1  0.50751600  0.05899700  0.26785400  1
  Zn  Zn3  1  0.01077000  0.56394000  0.77001700  1
  Cr  Cr0  1  0.50906800  0.50465800  0.99133200  1
  Cr  Cr1  1  0.00725700  0.00347200  0.48980100  1
  W  W0  1  0.50778500  0.50632000  0.49345500  1
  W  W1  1  0.00865900  0.01096500  0.99231700  1
  O  O0  1  0.18389400  0.68786800  0.04642500  1
  O  O1  1  0.68671700  0.18397200  0.55021200  1
  O  O2  1  0.19993700  0.31815800  0.41989300  1
  O  O3  1  0.70423100  0.81289300  0.92200800  1
  O  O4  1  0.63335500  0.48821200  0.24442600  1
  O  O5  1  0.13899400  0.99455500  0.74161100  1
  O  O6  1  0.32396000  0.81955800  0.42576600  1
  O  O7  1  0.83055900  0.32187200  0.93155800  1
  O  O8  1  0.87472500  0.00219600  0.23980900  1
  O  O9  1  0.38402700  0.51650400  0.73898500  1
  O  O10  1  0.31941800  0.19350400  0.05603400  1
  O  O11  1  0.82110200  0.68623800  0.55866700  1
loop_
_geom_bond_atom_site_label_1
_geom_bond_atom_site_label_2
_geom_bond_distance
_geom_bond_site_symmetry_2
Cr0 O10 2.015697 1_556
Cr0 O3 2.023201 1_555
Cr0 O9 2.031188 1_555
Cr0 O4 2.034314 1_556
Cr0 O7 2.038265 1_555
Cr0 O0 2.046340 1_556
Cr1 O1 2.028922 1_455
Cr1 O6 2.029787 1_545
Cr1 O8 2.031834 1_455
Cr1 O5 2.039698 1_545
Cr1 O11 2.040785 1_445
Cr1 O2 2.047097 1_555
O0 Zn0 1.954484 1_555
O0 W1 2.024997 1_564
O0 Zn3 2.446760 1_554
O1 Zn1 1.947152 1_545
O1 W0 2.033029 1_555
O1 Zn2 2.500876 1_555
O2 Zn0 1.941069 1_555
O2 W0 2.024536 1_555
O2 Zn2 2.508436 1_555
O3 Zn1 1.961144 1_555
O3 W1 2.032735 1_665
O3 Zn3 2.470521 1_655
O4 Zn0 1.955859 1_655
O4 W0 2.023521 1_555
O4 Zn2 2.460082 1_555
O5 Zn1 1.944013 1_555
O5 W1 2.042684 1_565
O5 Zn3 2.470927 1_555
O6 Zn2 1.969002 1_565
O6 W0 2.015708 1_555
O7 W1 1.981331 1_655
O7 Zn3 1.985207 1_655
O8 Zn2 1.965306 1_555
O8 W1 2.013803 1_654
O9 W0 1.990043 1_555
O9 Zn3 1.991197 1_555
O10 Zn2 1.986182 1_555
O10 W1 1.997547 1_554
O11 Zn3 1.967649 1_655
O11 W0 2.004198 1_555
