# generated using pymatgen
data_SmAlF5
_symmetry_space_group_name_H-M   'P 1'
_cell_length_a   9.09170800
_cell_length_b   9.76740236
_cell_length_c   9.87405396
_cell_angle_alpha   70.65771519
_cell_angle_beta   85.21396093
_cell_angle_gamma   76.24455114
_symmetry_Int_Tables_number   1
_chemical_formula_structural   SmAlF5
_chemical_formula_sum   'Sm8 Al8 F40'
_cell_volume   803.60849158
_cell_formula_units_Z   8
loop_
 _symmetry_equiv_pos_site_id
 _symmetry_equiv_pos_as_xyz
  1  'x, y, z'
loop_
 _atom_site_type_symbol
 _atom_site_label
 _atom_site_symmetry_multiplicity
 _atom_site_fract_x
 _atom_site_fract_y
 _atom_site_fract_z
 _atom_site_occupancy
  Sm  Sm0  1  0.18083600  0.97510100  0.68441600  1
  Sm  Sm1  1  0.24822500  0.38797200  0.33883800  1
  Sm  Sm2  1  0.84080600  0.03595600  0.90052100  1
  Sm  Sm3  1  0.29972700  0.44928400  0.88237700  1
  Sm  Sm4  1  0.76212400  0.62163700  0.16052600  1
  Sm  Sm5  1  0.22561400  0.86598000  0.07295700  1
  Sm  Sm6  1  0.85857300  0.51174400  0.76242600  1
  Sm  Sm7  1  0.86432000  0.94722100  0.34801400  1
  Al  Al0  1  0.67754800  0.31611900  0.08590200  1
  Al  Al1  1  0.49101700  0.03083900  0.47549000  1
  Al  Al2  1  0.51855200  0.08268300  0.14995500  1
  Al  Al3  1  0.89806500  0.28342600  0.48918500  1
  Al  Al4  1  0.01076800  0.72593500  0.91893900  1
  Al  Al5  1  0.53522200  0.51800600  0.51249600  1
  Al  Al6  1  0.15845600  0.70452900  0.50566500  1
  Al  Al7  1  0.52750100  0.83654200  0.84688900  1
  F  F0  1  0.36668600  0.98634300  0.16755300  1
  F  F1  1  0.22496100  0.37885100  0.11747600  1
  F  F2  1  0.58940100  0.93917600  0.33909100  1
  F  F3  1  0.32157500  0.97486900  0.46992100  1
  F  F4  1  0.10955700  0.21596400  0.49063300  1
  F  F5  1  0.36928500  0.99069100  0.85403800  1
  F  F6  1  0.64129000  0.42583700  0.20512300  1
  F  F7  1  0.10326900  0.38953900  0.81501900  1
  F  F8  1  0.43290100  0.18101900  0.28777200  1
  F  F9  1  0.91157200  0.11406600  0.65174300  1
  F  F10  1  0.39311800  0.17702100  0.54022300  1
  F  F11  1  0.88924200  0.17453700  0.37367200  1
  F  F12  1  0.93433000  0.43579400  0.32400100  1
  F  F13  1  0.16143700  0.53213700  0.48131900  1
  F  F14  1  0.25493400  0.62253700  0.17941700  1
  F  F15  1  0.12335500  0.81265600  0.31791800  1
  F  F16  1  0.53175600  0.44526700  0.96599400  1
  F  F17  1  0.69897700  0.35253200  0.51117500  1
  F  F18  1  0.44591200  0.42655100  0.67762700  1
  F  F19  1  0.44351100  0.44461700  0.40711900  1
  F  F20  1  0.36240600  0.68234100  0.47550600  1
  F  F21  1  0.52406200  0.76562100  0.04421600  1
  F  F22  1  0.92965500  0.38917300  0.59841400  1
  F  F23  1  0.61196600  0.63051400  0.35186900  1
  F  F24  1  0.20303300  0.65645800  0.68931600  1
  F  F25  1  0.77760200  0.28878900  0.85603800  1
  F  F26  1  0.64605300  0.57821400  0.61644300  1
  F  F27  1  0.96896500  0.00679600  0.11592600  1
  F  F28  1  0.67164800  0.67727600  0.84823000  1
  F  F29  1  0.85403900  0.75417700  0.27206300  1
  F  F30  1  0.35824300  0.75171700  0.85670200  1
  F  F31  1  0.07428700  0.89923000  0.51981400  1
  F  F32  1  0.66286800  0.96166900  0.08123800  1
  F  F33  1  0.94618500  0.70542200  0.54950400  1
  F  F34  1  0.68123800  0.03664800  0.49722300  1
  F  F35  1  0.50549100  0.88711800  0.65332500  1
  F  F36  1  0.09368200  0.07451500  0.86721000  1
  F  F37  1  0.83192700  0.41442400  0.02177200  1
  F  F38  1  0.65834100  0.95424200  0.82072200  1
  F  F39  1  0.43318900  0.20588100  0.98393800  1
loop_
_geom_bond_atom_site_label_1
_geom_bond_atom_site_label_2
_geom_bond_distance
_geom_bond_site_symmetry_2
Al0 F16 1.796489 1_554
Al0 F6 1.801620 1_555
Al0 F37 1.839229 1_555
Al0 F25 2.447769 1_554
Al1 F3 1.763413 1_545
Al1 F10 1.773325 1_555
Al1 F34 1.776758 1_555
Al1 F35 1.840963 1_545
Al1 F2 1.905901 1_545
Al1 F8 1.964757 1_555
Al2 F39 1.788574 1_554
Al2 F32 1.795611 1_545
Al2 F0 1.814268 1_545
Al2 F8 1.927183 1_555
Al2 F2 1.976029 1_545
Al3 F17 1.797086 1_555
Al3 F22 1.800900 1_555
Al3 F11 1.816022 1_555
Al3 F9 1.872241 1_555
Al3 F12 1.876036 1_555
Al3 F4 1.878152 1_655
Al5 F19 1.792981 1_555
Al5 F23 1.798717 1_555
Al5 F26 1.807994 1_555
Al5 F18 1.809701 1_555
Al5 F20 1.920040 1_555
Al5 F17 1.922341 1_555
Al6 F13 1.771758 1_555
Al6 F24 1.772341 1_555
Al6 F15 1.815326 1_555
Al6 F20 1.825763 1_555
Al6 F31 1.920352 1_555
Al6 F33 1.940897 1_455
Al7 F28 1.776899 1_555
Al7 F38 1.790457 1_555
Al7 F35 1.824384 1_555
Al7 F5 1.834278 1_555
Al7 F21 1.839355 1_556
Al7 F30 1.895292 1_555
F0 Sm5 2.354562 1_555
F1 Sm1 2.246159 1_555
F1 Sm3 2.285898 1_554
F2 Sm7 2.529049 1_555
F3 Sm0 2.381701 1_555
F4 Sm1 2.383792 1_555
F4 Sm0 2.473031 1_545
F5 Sm5 2.530584 1_556
F5 Sm0 2.556495 1_555
F6 Sm4 2.327843 1_555
F7 Sm3 2.219051 1_555
F7 Sm6 2.272243 1_455
F8 Sm1 2.465616 1_555
F9 Sm2 2.399666 1_555
F9 Sm0 2.490179 1_645
F10 Sm1 2.523316 1_555
F11 Sm7 2.380470 1_545
F12 Sm4 2.341156 1_555
F12 Sm1 2.788291 1_655
F13 Sm1 2.276691 1_555
F14 Sm5 2.218019 1_555
F14 Sm1 2.322097 1_555
F15 Sm5 2.450826 1_555
F15 Sm7 2.456033 1_455
F16 Sm3 2.315858 1_555
F18 Sm3 2.368902 1_555
F19 Sm1 2.197047 1_555
F21 Sm4 2.424603 1_555
F21 Sm5 2.682324 1_555
F22 Sm6 2.283710 1_555
F23 Sm4 2.250035 1_555
F24 Sm3 2.319471 1_555
F25 Sm2 2.295738 1_555
F25 Sm6 2.335403 1_555
F26 Sm6 2.341116 1_555
F27 Sm7 2.347666 1_545
F27 Sm2 2.411847 1_554
F27 Sm5 2.492296 1_645
F28 Sm6 2.362314 1_555
F29 Sm7 2.271259 1_555
F29 Sm4 2.280274 1_555
F30 Sm0 2.565473 1_555
F30 Sm5 2.787138 1_556
F31 Sm0 2.351831 1_555
F31 Sm7 2.515868 1_455
F32 Sm2 2.355120 1_564
F33 Sm7 2.527573 1_555
F33 Sm6 2.536887 1_555
F34 Sm7 2.335814 1_545
F36 Sm0 2.320534 1_545
F36 Sm2 2.395684 1_455
F36 Sm5 2.493676 1_546
F37 Sm6 2.431761 1_554
F37 Sm4 2.730761 1_555
F38 Sm2 2.296571 1_565
F39 Sm3 2.319909 1_555
