# generated using pymatgen
data_TiAlAu
_symmetry_space_group_name_H-M   'P 1'
_cell_length_a   4.39993021
_cell_length_b   4.39993104
_cell_length_c   5.84336584
_cell_angle_alpha   90.00000000
_cell_angle_beta   90.00000000
_cell_angle_gamma   119.99999367
_symmetry_Int_Tables_number   1
_chemical_formula_structural   TiAlAu
_chemical_formula_sum   'Ti2 Al2 Au2'
_cell_volume   97.96826001
_cell_formula_units_Z   2
loop_
 _symmetry_equiv_pos_site_id
 _symmetry_equiv_pos_as_xyz
  1  'x, y, z'
loop_
 _atom_site_type_symbol
 _atom_site_label
 _atom_site_symmetry_multiplicity
 _atom_site_fract_x
 _atom_site_fract_y
 _atom_site_fract_z
 _atom_site_occupancy
  Ti  Ti0  1  -0.00000000  -0.00000000  0.00000000  1
  Ti  Ti1  1  -0.00000000  -0.00000000  0.50000000  1
  Al  Al0  1  0.33333300  0.66666700  0.25000000  1
  Al  Al1  1  0.66666700  0.33333300  0.75000000  1
  Au  Au0  1  0.33333300  0.66666700  0.75000000  1
  Au  Au1  1  0.66666700  0.33333300  0.25000000  1
loop_
_geom_bond_atom_site_label_1
_geom_bond_atom_site_label_2
_geom_bond_distance
_geom_bond_site_symmetry_2
Ti0 Ti1 2.921683 1_555
Ti0 Ti1 2.921683 1_554
Al0 Au1 2.540299 1_455
Al0 Au1 2.540299 1_565
Al0 Au1 2.540306 1_555
Al0 Au0 2.921683 1_555
Al0 Au0 2.921683 1_554
Al0 Ti0 2.930388 1_565
Al0 Ti1 2.930388 1_565
Al0 Ti0 2.930391 1_665
Al0 Ti1 2.930391 1_665
Al0 Ti1 2.930392 1_555
Al0 Ti0 2.930392 1_555
Al1 Au0 2.540299 1_655
Al1 Au0 2.540299 1_545
Al1 Au0 2.540306 1_555
Al1 Au1 2.921683 1_556
Al1 Au1 2.921683 1_555
Al1 Ti1 2.930388 1_655
Al1 Ti0 2.930388 1_656
Al1 Ti1 2.930391 1_555
Al1 Ti0 2.930391 1_556
Al1 Ti1 2.930392 1_665
Al1 Ti0 2.930392 1_666
Au0 Ti0 2.930388 1_566
Au0 Ti1 2.930388 1_565
Au0 Ti0 2.930391 1_666
Au0 Ti1 2.930391 1_665
Au0 Ti1 2.930392 1_555
Au0 Ti0 2.930392 1_556
Au1 Ti1 2.930388 1_655
Au1 Ti0 2.930388 1_655
Au1 Ti1 2.930391 1_555
Au1 Ti0 2.930391 1_555
Au1 Ti0 2.930392 1_665
Au1 Ti1 2.930392 1_665
