# generated using pymatgen
data_Cs3PdF5
_symmetry_space_group_name_H-M   'P 1'
_cell_length_a   7.87204669
_cell_length_b   7.87204669
_cell_length_c   6.64064529
_cell_angle_alpha   90.00000000
_cell_angle_beta   90.00000000
_cell_angle_gamma   90.00000000
_symmetry_Int_Tables_number   1
_chemical_formula_structural   Cs3PdF5
_chemical_formula_sum   'Cs6 Pd2 F10'
_cell_volume   411.51493881
_cell_formula_units_Z   2
loop_
 _symmetry_equiv_pos_site_id
 _symmetry_equiv_pos_as_xyz
  1  'x, y, z'
loop_
 _atom_site_type_symbol
 _atom_site_label
 _atom_site_symmetry_multiplicity
 _atom_site_fract_x
 _atom_site_fract_y
 _atom_site_fract_z
 _atom_site_occupancy
  Cs  Cs0  1  0.67632247  0.17632247  0.50000000  1
  Cs  Cs1  1  0.32367753  0.82367753  0.50000000  1
  Cs  Cs2  1  0.17632247  0.32367753  0.50000000  1
  Cs  Cs3  1  0.82367753  0.67632247  0.50000000  1
  Cs  Cs4  1  -0.00000000  0.00000000  -0.00000000  1
  Cs  Cs5  1  0.50000000  0.50000000  -0.00000000  1
  Pd  Pd0  1  0.50000000  0.00000000  -0.00000000  1
  Pd  Pd1  1  -0.00000000  0.50000000  -0.00000000  1
  F  F0  1  -0.00000000  0.00000000  0.50000000  1
  F  F1  1  0.50000000  0.50000000  0.50000000  1
  F  F2  1  0.12768294  0.62768294  0.20518926  1
  F  F3  1  0.87231706  0.37231706  0.79481074  1
  F  F4  1  0.87231706  0.37231706  0.20518926  1
  F  F5  1  0.62768294  0.87231706  0.20518926  1
  F  F6  1  0.62768294  0.87231706  0.79481074  1
  F  F7  1  0.12768294  0.62768294  0.79481074  1
  F  F8  1  0.37231706  0.12768294  0.79481074  1
  F  F9  1  0.37231706  0.12768294  0.20518926  1
loop_
_geom_bond_atom_site_label_1
_geom_bond_atom_site_label_2
_geom_bond_distance
_geom_bond_site_symmetry_2
Cs0 F0 2.901538 1_655
Cs0 F1 2.901538 1_555
Cs0 F4 2.931496 1_555
Cs0 F3 2.931496 1_555
Cs0 F6 3.115521 1_545
Cs0 F5 3.115521 1_545
Cs0 F8 3.115521 1_555
Cs0 F9 3.115521 1_555
Cs1 F1 2.901538 1_555
Cs1 F0 2.901538 1_565
Cs1 F2 2.931496 1_555
Cs1 F7 2.931496 1_555
Cs1 F8 3.115521 1_565
Cs1 F9 3.115521 1_565
Cs1 F5 3.115521 1_555
Cs1 F6 3.115521 1_555
Cs2 F0 2.901538 1_555
Cs2 F1 2.901538 1_555
Cs2 F8 2.931496 1_555
Cs2 F9 2.931496 1_555
Cs2 F7 3.115521 1_555
Cs2 F2 3.115521 1_555
Cs2 F4 3.115521 1_455
Cs2 F3 3.115521 1_455
Cs3 F1 2.901538 1_555
Cs3 F0 2.901538 1_665
Cs3 F5 2.931496 1_555
Cs3 F6 2.931496 1_555
Cs3 F2 3.115521 1_655
Cs3 F7 3.115521 1_655
Cs3 F4 3.115521 1_555
Cs3 F3 3.115521 1_555
Cs4 F0 3.320323 1_554
Cs4 F0 3.320323 1_555
Cs4 F4 3.384832 1_455
Cs4 F2 3.384832 1_545
Cs4 F9 3.384832 1_555
Cs4 F8 3.384832 1_554
Cs4 F6 3.384832 1_444
Cs4 F7 3.384832 1_544
Cs4 F5 3.384832 1_445
Cs4 F3 3.384832 1_454
Cs5 F1 3.320323 1_554
Cs5 F1 3.320323 1_555
Cs5 F5 3.384832 1_555
Cs5 F9 3.384832 1_555
Cs5 F8 3.384832 1_554
Cs5 F4 3.384832 1_555
Cs5 F6 3.384832 1_554
Cs5 F2 3.384832 1_555
Cs5 F3 3.384832 1_554
Cs5 F7 3.384832 1_554
F2 Pd1 1.969062 1_555
F3 Pd1 1.969062 1_656
F4 Pd1 1.969062 1_655
F5 Pd0 1.969062 1_565
F6 Pd0 1.969062 1_566
F7 Pd1 1.969062 1_556
F8 Pd0 1.969062 1_556
F9 Pd0 1.969062 1_555
