# generated using pymatgen
data_Th(P3Ru)4
_symmetry_space_group_name_H-M   'P 1'
_cell_length_a   6.98686616
_cell_length_b   6.98686616
_cell_length_c   6.98686616
_cell_angle_alpha   109.47122063
_cell_angle_beta   109.47122063
_cell_angle_gamma   109.47122063
_symmetry_Int_Tables_number   1
_chemical_formula_structural   Th(P3Ru)4
_chemical_formula_sum   'Th1 P12 Ru4'
_cell_volume   262.55807636
_cell_formula_units_Z   1
loop_
 _symmetry_equiv_pos_site_id
 _symmetry_equiv_pos_as_xyz
  1  'x, y, z'
loop_
 _atom_site_type_symbol
 _atom_site_label
 _atom_site_symmetry_multiplicity
 _atom_site_fract_x
 _atom_site_fract_y
 _atom_site_fract_z
 _atom_site_occupancy
  Th  Th0  1  0.00000000  -0.00000000  -0.00000000  1
  P  P0  1  0.85624143  0.64400974  0.50025217  1
  P  P1  1  0.14375857  0.35599026  0.49974783  1
  P  P2  1  0.14375857  0.64400974  0.78776831  1
  P  P3  1  0.85624143  0.35599026  0.21223169  1
  P  P4  1  0.64400974  0.50025217  0.85624143  1
  P  P5  1  0.35599026  0.49974783  0.14375857  1
  P  P6  1  0.64400974  0.78776831  0.14375857  1
  P  P7  1  0.35599026  0.21223169  0.85624143  1
  P  P8  1  0.50025217  0.85624143  0.64400974  1
  P  P9  1  0.49974783  0.14375857  0.35599026  1
  P  P10  1  0.21223169  0.85624143  0.35599026  1
  P  P11  1  0.78776831  0.14375857  0.64400974  1
  Ru  Ru0  1  0.50000000  0.50000000  0.50000000  1
  Ru  Ru1  1  0.50000000  -0.00000000  -0.00000000  1
  Ru  Ru2  1  0.00000000  0.50000000  -0.00000000  1
  Ru  Ru3  1  0.00000000  -0.00000000  0.50000000  1
loop_
_geom_bond_atom_site_label_1
_geom_bond_atom_site_label_2
_geom_bond_distance
_geom_bond_site_symmetry_2
P0 P2 2.319609 1_655
P0 P3 2.323670 1_555
P0 Ru0 2.352419 1_555
P0 Ru3 2.352426 1_665
P0 Th0 3.097372 1_666
P1 P3 2.319609 1_455
P1 P2 2.323670 1_555
P1 Ru0 2.352419 1_555
P1 Ru3 2.352426 1_555
P1 Th0 3.097372 1_555
P2 Ru1 2.352423 1_566
P2 Ru2 2.352423 1_556
P2 Th0 3.097377 1_566
P3 Ru1 2.352423 1_555
P3 Ru2 2.352423 1_655
P3 Th0 3.097377 1_655
P4 P6 2.319609 1_556
P4 P7 2.323670 1_555
P4 Ru0 2.352419 1_555
P4 Ru2 2.352426 1_656
P4 Th0 3.097372 1_666
P5 P7 2.319609 1_554
P5 P6 2.323670 1_555
P5 Ru0 2.352419 1_555
P5 Ru2 2.352426 1_555
P5 Th0 3.097372 1_555
P6 Ru3 2.352423 1_665
P6 Ru1 2.352423 1_565
P6 Th0 3.097377 1_665
P7 Ru3 2.352423 1_555
P7 Ru1 2.352423 1_556
P7 Th0 3.097377 1_556
P8 Ru0 2.352419 1_555
P8 Ru1 2.352426 1_566
P8 Th0 3.097372 1_666
P9 Ru0 2.352419 1_555
P9 Ru1 2.352426 1_555
P9 Th0 3.097372 1_555
P10 P9 2.319609 1_565
P10 P8 2.323670 1_555
P10 Ru2 2.352423 1_555
P10 Ru3 2.352423 1_565
P10 Th0 3.097377 1_565
P11 P8 2.319609 1_545
P11 P9 2.323670 1_555
P11 Ru2 2.352423 1_656
P11 Ru3 2.352423 1_655
P11 Th0 3.097377 1_656
