# generated using pymatgen
data_MgCoWS4
_symmetry_space_group_name_H-M   'P 1'
_cell_length_a   7.20454085
_cell_length_b   7.16027013
_cell_length_c   7.16000081
_cell_angle_alpha   56.77303573
_cell_angle_beta   59.62823972
_cell_angle_gamma   59.63119475
_symmetry_Int_Tables_number   1
_chemical_formula_structural   MgCoWS4
_chemical_formula_sum   'Mg2 Co2 W2 S8'
_cell_volume   252.85398868
_cell_formula_units_Z   2
loop_
 _symmetry_equiv_pos_site_id
 _symmetry_equiv_pos_as_xyz
  1  'x, y, z'
loop_
 _atom_site_type_symbol
 _atom_site_label
 _atom_site_symmetry_multiplicity
 _atom_site_fract_x
 _atom_site_fract_y
 _atom_site_fract_z
 _atom_site_occupancy
  Mg  Mg0  1  0.87555000  0.87436700  0.87437800  1
  Mg  Mg1  1  0.12440600  0.12568400  0.12566700  1
  Co  Co0  1  0.49994400  0.50001500  0.50000300  1
  Co  Co1  1  0.00003700  0.50000400  0.50001100  1
  W  W0  1  0.49998200  0.50054800  0.99949600  1
  W  W1  1  0.49998400  0.99948600  0.50055100  1
  S  S0  1  0.76289700  0.72667400  0.72668500  1
  S  S1  1  0.26344400  0.26997200  0.70301800  1
  S  S2  1  0.26346400  0.70300900  0.26995100  1
  S  S3  1  0.71610600  0.27329800  0.27327600  1
  S  S4  1  0.73654500  0.29703200  0.72998700  1
  S  S5  1  0.28363700  0.72665600  0.72668100  1
  S  S6  1  0.23743700  0.27328300  0.27327300  1
  S  S7  1  0.73657200  0.72996700  0.29702400  1
loop_
_geom_bond_atom_site_label_1
_geom_bond_atom_site_label_2
_geom_bond_distance
_geom_bond_site_symmetry_2
Mg0 S7 2.404781 1_556
Mg0 S4 2.405064 1_565
Mg0 S5 2.412168 1_655
Mg0 S0 2.420052 1_555
Mg1 S1 2.404837 1_554
Mg1 S2 2.405159 1_545
Mg1 S3 2.413276 1_455
Mg1 S6 2.421073 1_555
Co0 S1 2.332083 1_555
Co0 S2 2.332087 1_555
Co0 S7 2.332351 1_555
Co0 S4 2.332413 1_555
Co0 S5 2.338367 1_555
Co0 S3 2.339065 1_555
Co1 S1 2.330694 1_555
Co1 S2 2.330712 1_555
Co1 S7 2.330947 1_455
Co1 S4 2.330949 1_455
Co1 S0 2.338005 1_455
Co1 S6 2.338640 1_555
S0 W0 2.432804 1_555
S0 W1 2.432918 1_555
S1 W1 2.449121 1_545
S2 W0 2.448889 1_554
S3 W0 2.438007 1_554
S3 W1 2.438114 1_545
S4 W0 2.448815 1_555
S5 W0 2.434669 1_555
S5 W1 2.434706 1_555
S6 W0 2.436281 1_554
S6 W1 2.436444 1_545
S7 W1 2.448955 1_555
