# generated using pymatgen
data_Li9Mn2Co5O16
_symmetry_space_group_name_H-M   'P 1'
_cell_length_a   2.92118900
_cell_length_b   8.37299864
_cell_length_c   11.77962265
_cell_angle_alpha   89.70669199
_cell_angle_beta   90.00000000
_cell_angle_gamma   90.00000000
_symmetry_Int_Tables_number   1
_chemical_formula_structural   Li9Mn2Co5O16
_chemical_formula_sum   'Li9 Mn2 Co5 O16'
_cell_volume   288.11532879
_cell_formula_units_Z   1
loop_
 _symmetry_equiv_pos_site_id
 _symmetry_equiv_pos_as_xyz
  1  'x, y, z'
loop_
 _atom_site_type_symbol
 _atom_site_label
 _atom_site_symmetry_multiplicity
 _atom_site_fract_x
 _atom_site_fract_y
 _atom_site_fract_z
 _atom_site_occupancy
  Li  Li0  1  0.50000000  0.24933700  0.11915200  1
  Li  Li1  1  0.50000000  0.75000000  0.37500000  1
  Li  Li2  1  0.50000000  0.25066300  0.63084800  1
  Li  Li3  1  0.00000000  0.48334200  0.99891400  1
  Li  Li4  1  0.00000000  0.00224100  0.25208500  1
  Li  Li5  1  0.00000000  0.49775900  0.49791500  1
  Li  Li6  1  0.50000000  0.75000000  0.87500000  1
  Li  Li7  1  0.00000000  0.01665800  0.75108600  1
  Li  Li8  1  0.50000000  0.25000000  0.87500000  1
  Mn  Mn0  1  0.00000000  0.01141200  0.99716000  1
  Mn  Mn1  1  0.00000000  0.48858800  0.75284000  1
  Co  Co0  1  0.00000000  0.49967300  0.24861300  1
  Co  Co1  1  0.00000000  0.00032700  0.50138700  1
  Co  Co2  1  0.50000000  0.75007800  0.12363200  1
  Co  Co3  1  0.50000000  0.25000000  0.37500000  1
  Co  Co4  1  0.50000000  0.74992200  0.62636800  1
  O  O0  1  0.50000000  0.99691600  0.11183800  1
  O  O1  1  0.50000000  0.49742500  0.36569300  1
  O  O2  1  0.50000000  0.99461300  0.61904800  1
  O  O3  1  0.00000000  0.22941700  0.00162300  1
  O  O4  1  0.00000000  0.74757100  0.24063000  1
  O  O5  1  0.00000000  0.24594000  0.49097000  1
  O  O6  1  0.50000000  0.50228200  0.86173600  1
  O  O7  1  0.00000000  0.73535000  0.74152800  1
  O  O8  1  0.50000000  0.50538700  0.13095200  1
  O  O9  1  0.50000000  0.00257500  0.38430700  1
  O  O10  1  0.50000000  0.50308400  0.63816200  1
  O  O11  1  0.00000000  0.76465000  0.00847200  1
  O  O12  1  0.00000000  0.25406000  0.25903000  1
  O  O13  1  0.00000000  0.75242900  0.50937000  1
  O  O14  1  0.50000000  0.99771800  0.88826400  1
  O  O15  1  0.00000000  0.27058300  0.74837700  1
loop_
_geom_bond_atom_site_label_1
_geom_bond_atom_site_label_2
_geom_bond_distance
_geom_bond_site_symmetry_2
Li0 O3 2.019954 1_655
Li0 O3 2.019954 1_555
Li0 O0 2.115717 1_545
Li0 O8 2.149118 1_555
Li0 O12 2.202389 1_655
Li0 O12 2.202389 1_555
Li1 O1 2.118210 1_555
Li1 O9 2.118210 1_565
Li1 O13 2.153932 1_555
Li1 O4 2.153932 1_555
Li1 O13 2.153932 1_655
Li1 O4 2.153932 1_655
Li2 O15 2.019954 1_655
Li2 O15 2.019954 1_555
Li2 O10 2.115717 1_555
Li2 O2 2.149118 1_545
Li2 O5 2.202389 1_555
Li2 O5 2.202389 1_655
Li3 O3 2.126190 1_556
Li3 O8 2.142308 1_456
Li3 O8 2.142308 1_556
Li3 O6 2.183349 1_455
Li3 O6 2.183349 1_555
Li3 O11 2.358657 1_556
Li4 O12 2.110485 1_555
Li4 O9 2.135246 1_555
Li4 O9 2.135246 1_455
Li4 O4 2.137306 1_545
Li4 O0 2.205758 1_545
Li4 O0 2.205758 1_445
Li5 O5 2.110485 1_555
Li5 O1 2.135246 1_455
Li5 O1 2.135246 1_555
Li5 O13 2.137306 1_555
Li5 O10 2.205758 1_455
Li5 O10 2.205758 1_555
Li6 O14 2.080817 1_555
Li6 O6 2.080817 1_555
Li6 O7 2.149960 1_555
Li6 O11 2.149960 1_656
Li6 O11 2.149960 1_556
Li6 O7 2.149960 1_655
Li7 O15 2.126190 1_555
Li7 O2 2.142308 1_445
Li7 O2 2.142308 1_545
Li7 O14 2.183349 1_445
Li7 O14 2.183349 1_545
Li7 O7 2.358657 1_545
Li8 O3 2.094085 1_556
Li8 O3 2.094085 1_656
Li8 O15 2.094085 1_555
Li8 O15 2.094085 1_655
Li8 O6 2.117330 1_555
Li8 O14 2.117330 1_545
Mn0 O3 1.826381 1_556
Mn0 O14 1.947677 1_445
Mn0 O14 1.947677 1_545
Mn0 O0 1.992792 1_546
Mn0 O0 1.992792 1_446
Mn0 O11 2.069749 1_546
Mn1 O15 1.826381 1_555
Mn1 O6 1.947677 1_555
Mn1 O6 1.947677 1_455
Mn1 O10 1.992792 1_555
Mn1 O10 1.992792 1_455
Mn1 O7 2.069749 1_555
Co0 O1 2.008856 1_455
Co0 O1 2.008856 1_555
Co0 O8 2.013939 1_455
Co0 O8 2.013939 1_555
Co0 O12 2.059548 1_555
Co0 O4 2.077298 1_555
Co1 O9 2.008856 1_455
Co1 O9 2.008856 1_555
Co1 O2 2.013939 1_445
Co1 O2 2.013939 1_545
Co1 O5 2.059548 1_555
Co1 O13 2.077298 1_545
Co2 O11 1.996680 1_555
Co2 O11 1.996680 1_655
Co2 O4 2.008207 1_555
Co2 O4 2.008207 1_655
Co2 O8 2.050170 1_555
Co2 O0 2.070729 1_555
Co3 O5 2.000050 1_555
Co3 O12 2.000050 1_655
Co3 O5 2.000050 1_655
Co3 O12 2.000050 1_555
Co3 O1 2.074028 1_555
Co3 O9 2.074028 1_555
Co4 O7 1.996680 1_555
Co4 O7 1.996680 1_655
Co4 O13 2.008207 1_655
Co4 O13 2.008207 1_555
Co4 O2 2.050170 1_555
Co4 O10 2.070729 1_555
