# generated using pymatgen
data_HoRu3C
_symmetry_space_group_name_H-M   'P 1'
_cell_length_a   4.12808859
_cell_length_b   4.12808859
_cell_length_c   4.12808859
_cell_angle_alpha   90.00000000
_cell_angle_beta   90.00000000
_cell_angle_gamma   90.00000000
_symmetry_Int_Tables_number   1
_chemical_formula_structural   HoRu3C
_chemical_formula_sum   'Ho1 Ru3 C1'
_cell_volume   70.34723407
_cell_formula_units_Z   1
loop_
 _symmetry_equiv_pos_site_id
 _symmetry_equiv_pos_as_xyz
  1  'x, y, z'
loop_
 _atom_site_type_symbol
 _atom_site_label
 _atom_site_symmetry_multiplicity
 _atom_site_fract_x
 _atom_site_fract_y
 _atom_site_fract_z
 _atom_site_occupancy
  Ho  Ho0  1  0.50000000  0.50000000  0.50000000  1
  Ru  Ru0  1  0.50000000  -0.00000000  -0.00000000  1
  Ru  Ru1  1  -0.00000000  0.50000000  -0.00000000  1
  Ru  Ru2  1  -0.00000000  0.00000000  0.50000000  1
  C  C0  1  0.00000000  -0.00000000  0.00000000  1
loop_
_geom_bond_atom_site_label_1
_geom_bond_atom_site_label_2
_geom_bond_distance
_geom_bond_site_symmetry_2
Ho0 Ru0 2.918999 1_555
Ho0 Ru0 2.918999 1_566
Ho0 Ru1 2.918999 1_656
Ho0 Ru2 2.918999 1_565
Ho0 Ru0 2.918999 1_565
Ho0 Ru2 2.918999 1_555
Ho0 Ru1 2.918999 1_655
Ho0 Ru0 2.918999 1_556
Ho0 Ru1 2.918999 1_556
Ho0 Ru2 2.918999 1_655
Ho0 Ru2 2.918999 1_665
Ho0 Ru1 2.918999 1_555
C0 Ru0 2.064044 1_455
C0 Ru2 2.064044 1_555
C0 Ru2 2.064044 1_554
C0 Ru1 2.064044 1_545
C0 Ru1 2.064044 1_555
C0 Ru0 2.064044 1_555
