# generated using pymatgen
data_BaCaEuNbO6
_symmetry_space_group_name_H-M   'P 1'
_cell_length_a   8.43345670
_cell_length_b   8.48389956
_cell_length_c   8.47043422
_cell_angle_alpha   90.00000000
_cell_angle_beta   90.00000000
_cell_angle_gamma   90.00000000
_symmetry_Int_Tables_number   1
_chemical_formula_structural   BaCaEuNbO6
_chemical_formula_sum   'Ba4 Ca4 Eu4 Nb4 O24'
_cell_volume   606.04770633
_cell_formula_units_Z   4
loop_
 _symmetry_equiv_pos_site_id
 _symmetry_equiv_pos_as_xyz
  1  'x, y, z'
loop_
 _atom_site_type_symbol
 _atom_site_label
 _atom_site_symmetry_multiplicity
 _atom_site_fract_x
 _atom_site_fract_y
 _atom_site_fract_z
 _atom_site_occupancy
  Ba  Ba0  1  0.00000000  -0.00000000  0.00000000  1
  Ba  Ba1  1  0.50000000  0.50000000  0.50000000  1
  Ba  Ba2  1  0.50000000  -0.00000000  0.50000000  1
  Ba  Ba3  1  0.00000000  -0.00000000  0.50000000  1
  Ca  Ca0  1  0.00000000  0.50000000  0.50000000  1
  Ca  Ca1  1  0.50000000  0.50000000  0.00000000  1
  Ca  Ca2  1  0.50000000  -0.00000000  0.00000000  1
  Ca  Ca3  1  0.00000000  0.50000000  0.00000000  1
  Eu  Eu0  1  0.74745896  0.74704466  0.75522097  1
  Eu  Eu1  1  0.25254104  0.25295534  0.75522097  1
  Eu  Eu2  1  0.25254104  0.74704466  0.24477903  1
  Eu  Eu3  1  0.74745896  0.25295534  0.24477903  1
  Nb  Nb0  1  0.24710474  0.25795317  0.24512802  1
  Nb  Nb1  1  0.75289526  0.74204683  0.24512802  1
  Nb  Nb2  1  0.75289526  0.25795317  0.75487198  1
  Nb  Nb3  1  0.24710474  0.74204683  0.75487198  1
  O  O0  1  0.01640736  0.20726326  0.26776829  1
  O  O1  1  0.98359264  0.79273674  0.26776829  1
  O  O2  1  0.98359264  0.20726326  0.73223171  1
  O  O3  1  0.01640736  0.79273674  0.73223171  1
  O  O4  1  0.29541545  0.02241965  0.19960837  1
  O  O5  1  0.29541545  0.97758035  0.80039163  1
  O  O6  1  0.70458455  0.97758035  0.19960837  1
  O  O7  1  0.70458455  0.02241965  0.80039163  1
  O  O8  1  0.20413685  0.30721246  0.01547637  1
  O  O9  1  0.79586315  0.30721246  0.98452363  1
  O  O10  1  0.20413685  0.69278754  0.98452363  1
  O  O11  1  0.79586315  0.69278754  0.01547637  1
  O  O12  1  0.48091472  0.30585291  0.20477886  1
  O  O13  1  0.51908528  0.69414709  0.20477886  1
  O  O14  1  0.51908528  0.30585291  0.79522114  1
  O  O15  1  0.48091472  0.69414709  0.79522114  1
  O  O16  1  0.20303265  0.48522556  0.30230575  1
  O  O17  1  0.20303265  0.51477444  0.69769425  1
  O  O18  1  0.79696735  0.51477444  0.30230575  1
  O  O19  1  0.79696735  0.48522556  0.69769425  1
  O  O20  1  0.28106502  0.22163793  0.48002286  1
  O  O21  1  0.71893498  0.22163793  0.51997714  1
  O  O22  1  0.28106502  0.77836207  0.51997714  1
  O  O23  1  0.71893498  0.77836207  0.48002286  1
loop_
_geom_bond_atom_site_label_1
_geom_bond_atom_site_label_2
_geom_bond_distance
_geom_bond_site_symmetry_2
Ba0 O3 2.873231 1_544
Ba0 O1 2.873231 1_445
Ba0 O0 2.873231 1_555
Ba0 O2 2.873231 1_454
Ba0 O5 3.016923 1_544
Ba0 O7 3.016923 1_454
Ba0 O6 3.016923 1_445
Ba0 O4 3.016923 1_555
Ba0 O11 3.126361 1_445
Ba0 O10 3.126361 1_544
Ba0 O8 3.126361 1_555
Ba0 O9 3.126361 1_454
Ba1 O14 2.998697 1_555
Ba1 O13 2.998697 1_555
Ba1 O12 2.998697 1_555
Ba1 O15 2.998697 1_555
Ba1 O20 3.002479 1_555
Ba1 O23 3.002479 1_555
Ba1 O21 3.002479 1_555
Ba1 O22 3.002479 1_555
Ba1 O19 3.015324 1_555
Ba1 O17 3.015324 1_555
Ba1 O18 3.015324 1_555
Ba1 O16 3.015324 1_555
Ba2 O22 2.640735 1_545
Ba2 O21 2.640735 1_555
Ba2 O23 2.640735 1_545
Ba2 O20 2.640735 1_555
Ba2 O7 3.080137 1_555
Ba2 O5 3.080137 1_545
Ba2 O4 3.080137 1_555
Ba2 O6 3.080137 1_545
Ba3 O3 2.642085 1_545
Ba3 O1 2.642085 1_445
Ba3 O0 2.642085 1_555
Ba3 O2 2.642085 1_455
Ba3 O20 3.030334 1_555
Ba3 O23 3.030334 1_445
Ba3 O22 3.030334 1_545
Ba3 O21 3.030334 1_455
Ca0 O17 2.398272 1_555
Ca0 O16 2.398272 1_555
Ca0 O19 2.398272 1_455
Ca0 O18 2.398272 1_455
Ca1 O15 2.397424 1_554
Ca1 O13 2.397424 1_555
Ca1 O12 2.397424 1_555
Ca1 O14 2.397424 1_554
Ca2 O5 2.423165 1_544
Ca2 O4 2.423165 1_555
Ca2 O7 2.423165 1_554
Ca2 O6 2.423165 1_545
Ca3 O8 2.378271 1_555
Ca3 O11 2.378271 1_455
Ca3 O10 2.378271 1_554
Ca3 O9 2.378271 1_454
Eu0 O11 2.288721 1_556
Eu0 O3 2.309277 1_655
Eu0 O19 2.312078 1_555
Eu0 O15 2.317155 1_555
Eu0 O23 2.358441 1_555
Eu0 O7 2.394831 1_565
Eu1 O8 2.288721 1_556
Eu1 O2 2.309277 1_455
Eu1 O17 2.312078 1_555
Eu1 O14 2.317155 1_555
Eu1 O20 2.358441 1_555
Eu1 O5 2.394831 1_545
Eu2 O10 2.288721 1_554
Eu2 O1 2.309277 1_455
Eu2 O16 2.312078 1_555
Eu2 O13 2.317155 1_555
Eu2 O22 2.358441 1_555
Eu2 O4 2.394831 1_565
Eu3 O9 2.288721 1_554
Eu3 O0 2.309277 1_655
Eu3 O18 2.312078 1_555
Eu3 O12 2.317155 1_555
Eu3 O21 2.358441 1_555
Eu3 O6 2.394831 1_545
Nb0 O0 2.001746 1_555
Nb0 O8 2.022364 1_555
Nb0 O16 2.022498 1_555
Nb0 O20 2.033642 1_555
Nb0 O12 2.042070 1_555
Nb0 O4 2.075484 1_555
Nb1 O1 2.001746 1_555
Nb1 O11 2.022364 1_555
Nb1 O18 2.022498 1_555
Nb1 O23 2.033642 1_555
Nb1 O13 2.042070 1_555
Nb1 O6 2.075484 1_555
Nb2 O2 2.001746 1_555
Nb2 O9 2.022364 1_555
Nb2 O19 2.022498 1_555
Nb2 O21 2.033642 1_555
Nb2 O14 2.042070 1_555
Nb2 O7 2.075484 1_555
Nb3 O3 2.001746 1_555
Nb3 O10 2.022364 1_555
Nb3 O17 2.022498 1_555
Nb3 O22 2.033642 1_555
Nb3 O15 2.042070 1_555
Nb3 O5 2.075484 1_555
