# generated using pymatgen
data_Nb2CuO6
_symmetry_space_group_name_H-M   'P 1'
_cell_length_a   14.35591100
_cell_length_b   5.05729900
_cell_length_c   5.87442858
_cell_angle_alpha   87.75806236
_cell_angle_beta   90.00000000
_cell_angle_gamma   90.00000000
_symmetry_Int_Tables_number   1
_chemical_formula_structural   Nb2CuO6
_chemical_formula_sum   'Nb8 Cu4 O24'
_cell_volume   426.16959166
_cell_formula_units_Z   4
loop_
 _symmetry_equiv_pos_site_id
 _symmetry_equiv_pos_as_xyz
  1  'x, y, z'
loop_
 _atom_site_type_symbol
 _atom_site_label
 _atom_site_symmetry_multiplicity
 _atom_site_fract_x
 _atom_site_fract_y
 _atom_site_fract_z
 _atom_site_occupancy
  Nb  Nb0  1  0.15820300  0.26125800  0.20392700  1
  Nb  Nb1  1  0.65820300  0.73874200  0.29607300  1
  Nb  Nb2  1  0.84179700  0.73874200  0.79607300  1
  Nb  Nb3  1  0.34179700  0.26125800  0.70392700  1
  Nb  Nb4  1  0.16196000  0.76841700  0.84392100  1
  Nb  Nb5  1  0.66196000  0.23158300  0.65607900  1
  Nb  Nb6  1  0.83804000  0.23158300  0.15607900  1
  Nb  Nb7  1  0.33804000  0.76841700  0.34392100  1
  Cu  Cu0  1  0.00161800  0.74912900  0.34528100  1
  Cu  Cu1  1  0.50161800  0.25087100  0.15471900  1
  Cu  Cu2  1  0.99838200  0.25087100  0.65471900  1
  Cu  Cu3  1  0.49838200  0.74912900  0.84528100  1
  O  O0  1  0.09606500  0.93403600  0.13938600  1
  O  O1  1  0.59606500  0.06596400  0.36061400  1
  O  O2  1  0.90393500  0.06596400  0.86061400  1
  O  O3  1  0.40393500  0.93403600  0.63938600  1
  O  O4  1  0.07625000  0.42800200  0.40120000  1
  O  O5  1  0.57625000  0.57199800  0.09880000  1
  O  O6  1  0.92375000  0.57199800  0.59880000  1
  O  O7  1  0.42375000  0.42800200  0.90120000  1
  O  O8  1  0.24609800  0.59785000  0.14951000  1
  O  O9  1  0.74609800  0.40215000  0.35049000  1
  O  O10  1  0.75390200  0.40215000  0.85049000  1
  O  O11  1  0.25390200  0.59785000  0.64951000  1
  O  O12  1  0.24483000  0.09856700  0.90783200  1
  O  O13  1  0.74483000  0.90143300  0.59216800  1
  O  O14  1  0.75517000  0.90143300  0.09216800  1
  O  O15  1  0.25517000  0.09856700  0.40783200  1
  O  O16  1  0.09830400  0.44489400  0.92566400  1
  O  O17  1  0.59830400  0.55510600  0.57433600  1
  O  O18  1  0.90169600  0.55510600  0.07433600  1
  O  O19  1  0.40169600  0.44489400  0.42566400  1
  O  O20  1  0.07810800  0.94398000  0.65559900  1
  O  O21  1  0.57810800  0.05602000  0.84440100  1
  O  O22  1  0.92189200  0.05602000  0.34440100  1
  O  O23  1  0.42189200  0.94398000  0.15559900  1
loop_
_geom_bond_atom_site_label_1
_geom_bond_atom_site_label_2
_geom_bond_distance
_geom_bond_site_symmetry_2
Nb0 O4 1.874758 1_555
Nb0 O0 1.930582 1_545
Nb0 O15 1.993099 1_555
Nb0 O16 2.038427 1_554
Nb0 O8 2.132939 1_555
Nb0 O12 2.315377 1_554
Nb1 O5 1.874758 1_555
Nb1 O1 1.930582 1_565
Nb1 O14 1.993099 1_555
Nb1 O17 2.038427 1_555
Nb1 O9 2.132939 1_555
Nb1 O13 2.315377 1_555
Nb2 O6 1.874758 1_555
Nb2 O2 1.930582 1_565
Nb2 O13 1.993099 1_555
Nb2 O18 2.038427 1_556
Nb2 O10 2.132939 1_555
Nb2 O14 2.315377 1_556
Nb3 O7 1.874758 1_555
Nb3 O3 1.930582 1_545
Nb3 O12 1.993099 1_555
Nb3 O19 2.038427 1_555
Nb3 O11 2.132939 1_555
Nb3 O15 2.315377 1_555
Nb4 O20 1.839675 1_555
Nb4 O16 1.918649 1_555
Nb4 O11 1.966627 1_555
Nb4 O12 2.095976 1_565
Nb4 O0 2.173197 1_556
Nb4 O8 2.303152 1_556
Nb5 O21 1.839675 1_555
Nb5 O17 1.918649 1_555
Nb5 O10 1.966627 1_555
Nb5 O13 2.095976 1_545
Nb5 O1 2.173197 1_555
Nb5 O9 2.303152 1_555
Nb6 O22 1.839675 1_555
Nb6 O18 1.918649 1_555
Nb6 O9 1.966627 1_555
Nb6 O14 2.095976 1_545
Nb6 O2 2.173197 1_554
Nb6 O10 2.303152 1_554
Nb7 O23 1.839675 1_555
Nb7 O19 1.918649 1_555
Nb7 O8 1.966627 1_555
Nb7 O15 2.095976 1_565
Nb7 O3 2.173197 1_555
Nb7 O11 2.303152 1_555
Cu0 O22 1.928262 1_465
Cu0 O4 1.962544 1_555
Cu0 O0 2.021706 1_555
Cu0 O6 2.040996 1_455
Cu0 O20 2.374973 1_555
Cu0 O18 2.382447 1_455
Cu1 O23 1.928262 1_545
Cu1 O5 1.962544 1_555
Cu1 O1 2.021706 1_555
Cu1 O7 2.040996 1_554
Cu1 O21 2.374973 1_554
Cu1 O19 2.382447 1_555
Cu2 O20 1.928262 1_645
Cu2 O6 1.962544 1_555
Cu2 O2 2.021706 1_555
Cu2 O4 2.040996 1_655
Cu2 O22 2.374973 1_555
Cu2 O16 2.382447 1_655
Cu3 O21 1.928262 1_565
Cu3 O7 1.962544 1_555
Cu3 O3 2.021706 1_555
Cu3 O5 2.040996 1_556
Cu3 O23 2.374973 1_556
Cu3 O17 2.382447 1_555
