# generated using pymatgen
data_ZnAs2WO7
_symmetry_space_group_name_H-M   'P 1'
_cell_length_a   9.12170700
_cell_length_b   8.59270200
_cell_length_c   10.73884637
_cell_angle_alpha   53.52461702
_cell_angle_beta   90.00000000
_cell_angle_gamma   90.00000000
_symmetry_Int_Tables_number   1
_chemical_formula_structural   ZnAs2WO7
_chemical_formula_sum   'Zn4 As8 W4 O28'
_cell_volume   676.83098254
_cell_formula_units_Z   4
loop_
 _symmetry_equiv_pos_site_id
 _symmetry_equiv_pos_as_xyz
  1  'x, y, z'
loop_
 _atom_site_type_symbol
 _atom_site_label
 _atom_site_symmetry_multiplicity
 _atom_site_fract_x
 _atom_site_fract_y
 _atom_site_fract_z
 _atom_site_occupancy
  Zn  Zn0  1  0.05308600  0.69272700  0.86966600  1
  Zn  Zn1  1  0.55308600  0.30727300  0.63033400  1
  Zn  Zn2  1  0.94691400  0.30727300  0.13033400  1
  Zn  Zn3  1  0.44691400  0.69272700  0.36966600  1
  As  As0  1  0.77139100  0.50971600  0.77989900  1
  As  As1  1  0.27139100  0.49028400  0.72010100  1
  As  As2  1  0.22860900  0.49028400  0.22010100  1
  As  As3  1  0.72860900  0.50971600  0.27989900  1
  As  As4  1  0.67170300  0.94479900  0.97224600  1
  As  As5  1  0.17170300  0.05520100  0.52775400  1
  As  As6  1  0.32829700  0.05520100  0.02775400  1
  As  As7  1  0.82829700  0.94479900  0.47224600  1
  W  W0  1  0.91335800  0.17435100  0.70028300  1
  W  W1  1  0.41335800  0.82564900  0.79971700  1
  W  W2  1  0.08664200  0.82564900  0.29971700  1
  W  W3  1  0.58664200  0.17435100  0.20028300  1
  O  O0  1  0.67423300  0.25593500  0.02214500  1
  O  O1  1  0.17423300  0.74406500  0.47785500  1
  O  O2  1  0.32576700  0.74406500  0.97785500  1
  O  O3  1  0.82576700  0.25593500  0.52214500  1
  O  O4  1  0.57397700  0.70358200  0.80969800  1
  O  O5  1  0.07397700  0.29641800  0.69030200  1
  O  O6  1  0.42602300  0.29641800  0.19030200  1
  O  O7  1  0.92602300  0.70358200  0.30969800  1
  O  O8  1  0.93035400  0.47607200  0.89904400  1
  O  O9  1  0.43035400  0.52392800  0.60095600  1
  O  O10  1  0.06964600  0.52392800  0.10095600  1
  O  O11  1  0.56964600  0.47607200  0.39904400  1
  O  O12  1  0.87470300  0.69334000  0.59359100  1
  O  O13  1  0.37470300  0.30666000  0.90640900  1
  O  O14  1  0.12529700  0.30666000  0.40640900  1
  O  O15  1  0.62529700  0.69334000  0.09359100  1
  O  O16  1  0.95590500  0.02694200  0.30233800  1
  O  O17  1  0.45590500  0.97305800  0.19766200  1
  O  O18  1  0.04409500  0.97305800  0.69766200  1
  O  O19  1  0.54409500  0.02694200  0.80233800  1
  O  O20  1  0.72671700  0.30829500  0.24497500  1
  O  O21  1  0.22671700  0.69170500  0.25502500  1
  O  O22  1  0.27328300  0.69170500  0.75502500  1
  O  O23  1  0.77328300  0.30829500  0.74497500  1
  O  O24  1  0.65805800  0.92937600  0.38650600  1
  O  O25  1  0.15805800  0.07062400  0.11349400  1
  O  O26  1  0.34194200  0.07062400  0.61349400  1
  O  O27  1  0.84194200  0.92937600  0.88650600  1
loop_
_geom_bond_atom_site_label_1
_geom_bond_atom_site_label_2
_geom_bond_distance
_geom_bond_site_symmetry_2
As0 O8 1.839403 1_555
As0 O12 1.904534 1_555
As0 O23 1.976920 1_555
As0 O0 2.358696 1_556
As1 O9 1.839403 1_555
As1 O13 1.904534 1_555
As1 O22 1.976920 1_555
As1 O1 2.358696 1_555
As2 O10 1.839403 1_555
As2 O14 1.904534 1_555
As2 O21 1.976920 1_555
As2 O2 2.358696 1_554
As3 O11 1.839403 1_555
As3 O15 1.904534 1_555
As3 O20 1.976920 1_555
As3 O3 2.358696 1_555
As4 O15 1.788374 1_556
As4 O27 1.849818 1_555
As4 O19 1.910786 1_565
As5 O14 1.788374 1_555
As5 O26 1.849818 1_555
As5 O18 1.910786 1_545
As6 O13 1.788374 1_554
As6 O25 1.849818 1_555
As6 O17 1.910786 1_545
As7 O12 1.788374 1_555
As7 O24 1.849818 1_555
As7 O16 1.910786 1_565
O0 W3 1.787429 1_555
O1 W2 1.787429 1_555
O2 W1 1.787429 1_555
O3 W0 1.787429 1_555
O4 W1 1.767642 1_555
O5 W0 1.767642 1_455
O6 W3 1.767642 1_555
O7 W2 1.767642 1_655
O8 Zn2 2.003119 1_556
O8 Zn0 2.029856 1_655
O9 Zn3 2.003119 1_555
O9 Zn1 2.029856 1_555
O10 Zn0 2.003119 1_554
O10 Zn2 2.029856 1_455
O11 Zn1 2.003119 1_555
O11 Zn3 2.029856 1_555
O16 Zn2 1.982633 1_555
O16 W2 2.114836 1_645
O17 Zn3 1.982633 1_555
O17 W3 2.114836 1_565
O18 Zn0 1.982633 1_555
O18 W0 2.114836 1_465
O19 Zn1 1.982633 1_555
O19 W1 2.114836 1_545
O20 W3 1.960700 1_555
O20 Zn2 2.358587 1_555
O21 W2 1.960700 1_555
O21 Zn3 2.358587 1_555
O22 W1 1.960700 1_555
O22 Zn0 2.358587 1_555
O23 W0 1.960700 1_555
O23 Zn1 2.358587 1_555
O24 W3 1.962045 1_565
O25 W2 1.962045 1_545
O26 W1 1.962045 1_545
O27 W0 1.962045 1_565
