# generated using pymatgen
data_RbMg14Al
_symmetry_space_group_name_H-M   'P 1'
_cell_length_a   6.49525366
_cell_length_b   6.49525311
_cell_length_c   10.72778016
_cell_angle_alpha   90.00000000
_cell_angle_beta   90.00000000
_cell_angle_gamma   120.00000279
_symmetry_Int_Tables_number   1
_chemical_formula_structural   RbMg14Al
_chemical_formula_sum   'Rb1 Mg14 Al1'
_cell_volume   391.95181557
_cell_formula_units_Z   1
loop_
 _symmetry_equiv_pos_site_id
 _symmetry_equiv_pos_as_xyz
  1  'x, y, z'
loop_
 _atom_site_type_symbol
 _atom_site_label
 _atom_site_symmetry_multiplicity
 _atom_site_fract_x
 _atom_site_fract_y
 _atom_site_fract_z
 _atom_site_occupancy
  Rb  Rb0  1  0.16666700  0.33333300  0.62500000  1
  Mg  Mg0  1  0.16116974  0.83058437  0.12500000  1
  Mg  Mg1  1  0.17463351  0.83731625  0.62500000  1
  Mg  Mg2  1  0.66941563  0.33883026  0.12500000  1
  Mg  Mg3  1  0.66268375  0.32536649  0.62500000  1
  Mg  Mg4  1  0.66941563  0.83058437  0.12500000  1
  Mg  Mg5  1  0.66268375  0.83731625  0.62500000  1
  Mg  Mg6  1  0.33580987  0.16419013  0.35645415  1
  Mg  Mg7  1  0.33580987  0.16419013  0.89354585  1
  Mg  Mg8  1  0.33580987  0.67162075  0.35645415  1
  Mg  Mg9  1  0.33580987  0.67162075  0.89354585  1
  Mg  Mg10  1  0.82837925  0.16419013  0.35645415  1
  Mg  Mg11  1  0.82837925  0.16419013  0.89354585  1
  Mg  Mg12  1  0.83333300  0.66666700  0.38208736  1
  Mg  Mg13  1  0.83333300  0.66666700  0.86791264  1
  Al  Al0  1  0.16666700  0.33333300  0.12500000  1
loop_
_geom_bond_atom_site_label_1
_geom_bond_atom_site_label_2
_geom_bond_distance
_geom_bond_site_symmetry_2
Mg0 Mg8 3.112752 1_555
Mg0 Mg9 3.112752 1_554
Mg0 Mg6 3.112759 1_565
Mg0 Mg7 3.112759 1_564
Mg0 Mg2 3.194067 1_455
Mg0 Mg4 3.194068 1_455
Mg0 Mg2 3.301186 1_565
Mg0 Mg4 3.301186 1_555
Mg0 Mg12 3.317701 1_455
Mg0 Mg13 3.317701 1_454
Mg1 Mg3 3.170010 1_565
Mg1 Mg5 3.170010 1_555
Mg1 Mg13 3.236749 1_455
Mg1 Mg12 3.236749 1_455
Mg1 Rb0 3.247936 1_555
Mg1 Rb0 3.247936 1_565
Mg1 Mg3 3.325243 1_455
Mg1 Mg5 3.325244 1_455
Mg1 Mg8 3.417678 1_555
Mg1 Mg9 3.417678 1_555
Mg1 Mg6 3.417684 1_565
Mg1 Mg7 3.417684 1_565
Mg2 Mg7 3.112759 1_554
Mg2 Mg6 3.112759 1_555
Mg2 Mg4 3.194067 1_555
Mg2 Mg4 3.301186 1_545
Mg3 Mg5 3.170010 1_545
Mg3 Rb0 3.247936 1_655
Mg3 Rb0 3.247936 1_555
Mg3 Mg5 3.325243 1_555
Mg3 Mg6 3.417684 1_555
Mg3 Mg7 3.417684 1_555
Mg4 Mg9 3.112759 1_554
Mg4 Mg8 3.112759 1_555
Mg5 Rb0 3.247936 1_555
Mg5 Rb0 3.247936 1_665
Mg5 Mg8 3.417684 1_555
Mg5 Mg9 3.417684 1_555
Mg6 Mg8 3.199363 1_545
Mg6 Mg8 3.295890 1_555
Mg6 Rb0 3.452611 1_555
Mg7 Mg9 3.199363 1_545
Mg7 Mg9 3.295890 1_555
Mg7 Rb0 3.452611 1_555
Mg8 Rb0 3.452618 1_555
Mg9 Rb0 3.452618 1_555
Mg10 Mg2 3.112752 1_555
Mg10 Mg4 3.112759 1_545
Mg10 Mg8 3.199363 1_545
Mg10 Mg6 3.199363 1_555
Mg10 Mg12 3.259367 1_555
Mg10 Mg12 3.259367 1_545
Mg10 Mg8 3.295890 1_655
Mg10 Mg6 3.295891 1_655
Mg10 Mg3 3.417678 1_555
Mg10 Mg5 3.417684 1_545
Mg10 Rb0 3.452618 1_655
Mg11 Mg2 3.112752 1_556
Mg11 Mg4 3.112759 1_546
Mg11 Mg9 3.199363 1_545
Mg11 Mg7 3.199363 1_555
Mg11 Mg13 3.259367 1_555
Mg11 Mg13 3.259367 1_545
Mg11 Mg9 3.295890 1_655
Mg11 Mg7 3.295891 1_655
Mg11 Mg3 3.417678 1_555
Mg11 Mg5 3.417684 1_545
Mg11 Rb0 3.452618 1_655
Mg12 Mg5 3.236743 1_555
Mg12 Mg3 3.236749 1_555
Mg12 Mg6 3.259367 1_555
Mg12 Mg6 3.259367 1_665
Mg12 Mg8 3.259367 1_655
Mg12 Mg8 3.259367 1_555
Mg12 Mg4 3.317695 1_555
Mg12 Mg2 3.317701 1_555
Mg13 Mg5 3.236743 1_555
Mg13 Mg3 3.236749 1_555
Mg13 Mg7 3.259367 1_555
Mg13 Mg7 3.259367 1_665
Mg13 Mg9 3.259367 1_655
Mg13 Mg9 3.259367 1_555
Mg13 Mg4 3.317695 1_556
Mg13 Mg2 3.317701 1_556
Al0 Mg7 3.128286 1_554
Al0 Mg6 3.128286 1_555
Al0 Mg9 3.128293 1_554
Al0 Mg8 3.128293 1_555
Al0 Mg11 3.128293 1_454
Al0 Mg10 3.128293 1_455
Al0 Mg4 3.247774 1_445
Al0 Mg0 3.247774 1_545
Al0 Mg0 3.247774 1_555
Al0 Mg4 3.247774 1_555
Al0 Mg2 3.247774 1_455
Al0 Mg2 3.247774 1_555
