# generated using pymatgen
data_NaMg6W
_symmetry_space_group_name_H-M   'P 1'
_cell_length_a   6.21979200
_cell_length_b   6.21979200
_cell_length_c   4.39220200
_cell_angle_alpha   90.00000000
_cell_angle_beta   90.00000000
_cell_angle_gamma   90.00000000
_symmetry_Int_Tables_number   1
_chemical_formula_structural   NaMg6W
_chemical_formula_sum   'Na1 Mg6 W1'
_cell_volume   169.91590314
_cell_formula_units_Z   1
loop_
 _symmetry_equiv_pos_site_id
 _symmetry_equiv_pos_as_xyz
  1  'x, y, z'
loop_
 _atom_site_type_symbol
 _atom_site_label
 _atom_site_symmetry_multiplicity
 _atom_site_fract_x
 _atom_site_fract_y
 _atom_site_fract_z
 _atom_site_occupancy
  Na  Na0  1  0.00000000  0.00000000  0.50000000  1
  Mg  Mg0  1  0.00000000  0.50000000  0.50000000  1
  Mg  Mg1  1  0.50000000  0.00000000  0.50000000  1
  Mg  Mg2  1  0.72808100  0.27191900  0.00000000  1
  Mg  Mg3  1  0.27191900  0.72808100  0.00000000  1
  Mg  Mg4  1  0.72808100  0.72808100  0.00000000  1
  Mg  Mg5  1  0.27191900  0.27191900  0.00000000  1
  W  W0  1  0.50000000  0.50000000  0.50000000  1
loop_
_geom_bond_atom_site_label_1
_geom_bond_atom_site_label_2
_geom_bond_distance
_geom_bond_site_symmetry_2
Mg0 W0 3.109896 1_455
Mg0 Na0 3.109896 1_555
Mg0 Na0 3.109896 1_565
Mg0 W0 3.109896 1_555
Mg0 Mg3 3.113801 1_555
Mg0 Mg3 3.113801 1_556
Mg0 Mg5 3.113801 1_556
Mg0 Mg5 3.113801 1_555
Mg0 Mg4 3.113801 1_456
Mg0 Mg4 3.113801 1_455
Mg0 Mg2 3.113801 1_456
Mg0 Mg2 3.113801 1_455
Mg1 Na0 3.109896 1_555
Mg1 W0 3.109896 1_555
Mg1 Na0 3.109896 1_655
Mg1 W0 3.109896 1_545
Mg1 Mg2 3.113801 1_555
Mg1 Mg2 3.113801 1_556
Mg1 Mg5 3.113801 1_556
Mg1 Mg5 3.113801 1_555
Mg1 Mg4 3.113801 1_546
Mg1 Mg4 3.113801 1_545
Mg1 Mg3 3.113801 1_545
Mg1 Mg3 3.113801 1_546
Mg2 Mg5 2.837233 1_555
Mg2 Mg4 2.837233 1_555
Mg2 W0 2.974526 1_554
Mg2 W0 2.974526 1_555
Mg2 Na0 3.247108 1_654
Mg2 Na0 3.247108 1_655
Mg2 Mg4 3.382559 1_545
Mg2 Mg5 3.382559 1_655
Mg3 Mg5 2.837233 1_555
Mg3 Mg4 2.837233 1_555
Mg3 W0 2.974526 1_554
Mg3 W0 2.974526 1_555
Mg3 Na0 3.247108 1_565
Mg3 Na0 3.247108 1_564
Mg3 Mg4 3.382559 1_455
Mg3 Mg5 3.382559 1_565
Mg4 W0 2.974526 1_554
Mg4 W0 2.974526 1_555
Mg4 Na0 3.247108 1_664
Mg4 Na0 3.247108 1_665
Mg5 W0 2.974526 1_554
Mg5 W0 2.974526 1_555
Mg5 Na0 3.247108 1_554
Mg5 Na0 3.247108 1_555
