# generated using pymatgen
data_Cu2H5C3N3O5
_symmetry_space_group_name_H-M   'P 1'
_cell_length_a   6.44891746
_cell_length_b   7.93215085
_cell_length_c   7.93215085
_cell_angle_alpha   99.04739550
_cell_angle_beta   98.12172718
_cell_angle_gamma   98.12172718
_symmetry_Int_Tables_number   1
_chemical_formula_structural   Cu2H5C3N3O5
_chemical_formula_sum   'Cu4 H10 C6 N6 O10'
_cell_volume   391.10603002
_cell_formula_units_Z   2
loop_
 _symmetry_equiv_pos_site_id
 _symmetry_equiv_pos_as_xyz
  1  'x, y, z'
loop_
 _atom_site_type_symbol
 _atom_site_label
 _atom_site_symmetry_multiplicity
 _atom_site_fract_x
 _atom_site_fract_y
 _atom_site_fract_z
 _atom_site_occupancy
  Cu  Cu0  1  0.68587300  0.45955100  0.78681800  1
  Cu  Cu1  1  0.31412700  0.54044900  0.21318200  1
  Cu  Cu2  1  0.81412700  0.21318200  0.54044900  1
  Cu  Cu3  1  0.18587300  0.78681800  0.45955100  1
  H  H0  1  0.96783400  0.59212200  0.66535400  1
  H  H1  1  0.03216600  0.40787800  0.33464600  1
  H  H2  1  0.53216600  0.33464600  0.40787800  1
  H  H3  1  0.46783400  0.66535400  0.59212200  1
  H  H4  1  0.75000000  0.99065600  0.00934400  1
  H  H5  1  0.25000000  0.00934400  0.99065600  1
  H  H6  1  0.91741000  0.74845700  0.79176100  1
  H  H7  1  0.08259000  0.25154300  0.20823900  1
  H  H8  1  0.58259000  0.20823900  0.25154300  1
  H  H9  1  0.41741000  0.79176100  0.74845700  1
  C  C0  1  0.56738300  0.78848500  0.08221400  1
  C  C1  1  0.43261700  0.21151500  0.91778600  1
  C  C2  1  0.93261700  0.91778600  0.21151500  1
  C  C3  1  0.06738300  0.08221400  0.78848500  1
  C  C4  1  0.75000000  0.68310100  0.31689900  1
  C  C5  1  0.25000000  0.31689900  0.68310100  1
  N  N0  1  0.75000000  0.90617900  0.09382100  1
  N  N1  1  0.25000000  0.09382100  0.90617900  1
  N  N2  1  0.56617000  0.68442900  0.20337200  1
  N  N3  1  0.43383000  0.31557100  0.79662800  1
  N  N4  1  0.93383000  0.79662800  0.31557100  1
  N  N5  1  0.06617000  0.20337200  0.68442900  1
  O  O0  1  0.75000000  0.57902700  0.42097300  1
  O  O1  1  0.25000000  0.42097300  0.57902700  1
  O  O2  1  0.92924900  0.62231800  0.78071700  1
  O  O3  1  0.07075100  0.37768200  0.21928300  1
  O  O4  1  0.57075100  0.21928300  0.37768200  1
  O  O5  1  0.42924900  0.78071700  0.62231800  1
  O  O6  1  0.41159100  0.78140300  0.96542900  1
  O  O7  1  0.58840900  0.21859700  0.03457100  1
  O  O8  1  0.08840900  0.03457100  0.21859700  1
  O  O9  1  0.91159100  0.96542900  0.78140300  1
loop_
_geom_bond_atom_site_label_1
_geom_bond_atom_site_label_2
_geom_bond_distance
_geom_bond_site_symmetry_2
Cu0 N3 1.868555 1_555
Cu0 O2 1.897677 1_555
Cu1 N2 1.868555 1_555
Cu1 O3 1.897677 1_555
Cu2 N5 1.868555 1_655
Cu2 O4 1.897677 1_555
Cu3 N4 1.868555 1_455
Cu3 O5 1.897677 1_555
H0 O2 0.984326 1_555
H1 O3 0.984326 1_555
H2 O4 0.984326 1_555
H3 O5 0.984326 1_555
H4 N0 1.019432 1_555
H5 N1 1.019432 1_555
H6 O2 1.005246 1_555
H7 O3 1.005246 1_555
H8 O4 1.005246 1_555
H9 O5 1.005246 1_555
C0 O6 1.255152 1_554
C0 N2 1.361876 1_555
C0 N0 1.377911 1_555
C1 O7 1.255152 1_556
C1 N3 1.361876 1_555
C1 N1 1.377911 1_555
C2 O8 1.255152 1_665
C2 N4 1.361876 1_555
C2 N0 1.377911 1_555
C3 O9 1.255152 1_445
C3 N5 1.361876 1_555
C3 N1 1.377911 1_555
C4 O0 1.255920 1_555
C4 N4 1.386119 1_555
C4 N2 1.386119 1_555
C5 O1 1.255920 1_555
C5 N5 1.386119 1_555
C5 N3 1.386119 1_555
