# generated using pymatgen
data_Mg5Si6
_symmetry_space_group_name_H-M   'P 1'
_cell_length_a   15.15575069
_cell_length_b   15.15575069
_cell_length_c   6.48134518
_cell_angle_alpha   82.28325485
_cell_angle_beta   82.28325485
_cell_angle_gamma   15.92779814
_symmetry_Int_Tables_number   1
_chemical_formula_structural   Mg5Si6
_chemical_formula_sum   'Mg10 Si12'
_cell_volume   404.77720795
_cell_formula_units_Z   2
loop_
 _symmetry_equiv_pos_site_id
 _symmetry_equiv_pos_as_xyz
  1  'x, y, z'
loop_
 _atom_site_type_symbol
 _atom_site_label
 _atom_site_symmetry_multiplicity
 _atom_site_fract_x
 _atom_site_fract_y
 _atom_site_fract_z
 _atom_site_occupancy
  Mg  Mg0  1  0.73859800  0.73859800  0.98305700  1
  Mg  Mg1  1  0.94502500  0.94502500  0.52446700  1
  Mg  Mg2  1  0.51962200  0.51962200  0.64827600  1
  Mg  Mg3  1  0.37042600  0.37042600  0.39848800  1
  Mg  Mg4  1  0.78621900  0.78621900  0.46160300  1
  Mg  Mg5  1  0.11318400  0.11318400  0.57699800  1
  Mg  Mg6  1  0.48469500  0.48469500  0.18177400  1
  Mg  Mg7  1  0.40486600  0.40486600  0.86373600  1
  Mg  Mg8  1  0.21738600  0.21738600  0.50814400  1
  Mg  Mg9  1  0.15541400  0.15541400  0.04858000  1
  Si  Si0  1  0.66808200  0.66808200  0.73334300  1
  Si  Si1  1  0.66881700  0.66881700  0.34446900  1
  Si  Si2  1  0.91602800  0.91602800  0.16576700  1
  Si  Si3  1  0.97461500  0.97461500  0.88130400  1
  Si  Si4  1  0.59139700  0.59139700  0.90656800  1
  Si  Si5  1  0.29130700  0.29130700  0.14496100  1
  Si  Si6  1  0.85250700  0.85250700  0.70370200  1
  Si  Si7  1  0.04251800  0.04251800  0.34181600  1
  Si  Si8  1  0.59042800  0.59042800  0.28084600  1
  Si  Si9  1  0.29366900  0.29366900  0.75851800  1
  Si  Si10  1  0.84057100  0.84057100  0.07782300  1
  Si  Si11  1  0.05001000  0.05001000  0.96213000  1
loop_
_geom_bond_atom_site_label_1
_geom_bond_atom_site_label_2
_geom_bond_distance
_geom_bond_site_symmetry_2
Mg0 Si0 2.833636 1_555
Mg0 Si5 2.909334 1_566
Mg0 Si5 2.909334 1_656
Mg0 Si1 2.923094 1_556
Mg0 Si9 2.933903 1_655
Mg0 Si9 2.933903 1_565
Mg0 Si10 3.202765 1_556
Mg1 Si3 2.587482 1_555
Mg1 Si2 2.590645 1_555
Mg1 Si6 2.861485 1_555
Mg1 Si7 3.004542 1_665
Mg2 Si3 2.821773 1_455
Mg2 Si3 2.821773 1_545
Mg2 Si4 2.902250 1_555
Mg2 Si7 2.908044 1_565
Mg2 Si7 2.908044 1_655
Mg2 Si8 2.969270 1_555
Mg2 Si11 3.143647 1_565
Mg2 Si11 3.143647 1_655
Mg3 Si2 2.828144 1_455
Mg3 Si2 2.828144 1_545
Mg3 Si6 2.885012 1_455
Mg3 Si6 2.885012 1_545
Mg3 Si9 3.048996 1_555
Mg3 Si5 3.065847 1_555
Mg3 Si10 3.168127 1_455
Mg3 Si10 3.168127 1_545
Mg4 Si6 2.696034 1_555
Mg4 Si10 2.783669 1_555
Mg4 Si9 2.877377 1_655
Mg4 Si9 2.877377 1_565
Mg4 Si5 2.925637 1_565
Mg4 Si5 2.925637 1_655
Mg5 Si7 2.774953 1_555
Mg5 Si11 2.922957 1_555
Mg5 Si0 2.933389 1_455
Mg5 Si0 2.933389 1_545
Mg5 Si1 2.964314 1_545
Mg5 Si1 2.964314 1_455
Mg5 Si8 2.985929 1_455
Mg5 Si8 2.985929 1_545
Mg5 Si4 3.003479 1_455
Mg5 Si4 3.003479 1_545
Mg6 Si3 2.907429 1_454
Mg6 Si3 2.907429 1_544
Mg6 Si2 2.954157 1_455
Mg6 Si2 2.954157 1_545
Mg6 Si7 2.997737 1_655
Mg6 Si7 2.997737 1_565
Mg6 Si11 3.085983 1_654
Mg6 Si11 3.085983 1_564
Mg7 Si6 2.897868 1_455
Mg7 Si6 2.897868 1_545
Mg7 Si2 2.920862 1_546
Mg7 Si2 2.920862 1_456
Mg7 Si3 2.978400 1_545
Mg7 Si3 2.978400 1_455
Mg7 Si10 3.055091 1_546
Mg7 Si10 3.055091 1_456
Mg8 Si1 2.842495 1_545
Mg8 Si1 2.842495 1_455
Mg8 Si0 2.853845 1_545
Mg8 Si0 2.853845 1_455
Mg8 Si9 2.980755 1_555
Mg8 Si5 3.008098 1_555
Mg9 Si1 2.908289 1_455
Mg9 Si1 2.908289 1_545
Mg9 Si0 2.918502 1_544
Mg9 Si0 2.918502 1_454
Mg9 Si4 3.070690 1_454
Mg9 Si4 3.070690 1_544
Mg9 Si8 3.112043 1_455
Mg9 Si8 3.112043 1_545
Si0 Si4 2.420532 1_555
Si0 Si1 2.517530 1_555
Si1 Si8 2.443480 1_555
Si2 Si3 2.369198 1_554
Si4 Si8 2.422052 1_556
Si5 Si9 2.496046 1_554
Si6 Si9 2.735871 1_655
Si6 Si9 2.735871 1_565
Si7 Si8 2.545534 1_545
Si7 Si8 2.545534 1_455
Si10 Si6 2.402598 1_554
Si10 Si2 2.409551 1_555
Si10 Si5 2.571209 1_565
Si10 Si5 2.571209 1_655
Si11 Si3 2.391327 1_445
Si11 Si7 2.440576 1_556
Si11 Si4 2.441547 1_455
Si11 Si4 2.441547 1_545
