# generated using pymatgen
data_Eu2Ta2O7
_symmetry_space_group_name_H-M   'P 1'
_cell_length_a   13.69425932
_cell_length_b   13.69425932
_cell_length_c   5.70414200
_cell_angle_alpha   90.00000000
_cell_angle_beta   90.00000000
_cell_angle_gamma   163.27158919
_symmetry_Int_Tables_number   1
_chemical_formula_structural   Eu2Ta2O7
_chemical_formula_sum   'Eu4 Ta4 O14'
_cell_volume   307.90141009
_cell_formula_units_Z   2
loop_
 _symmetry_equiv_pos_site_id
 _symmetry_equiv_pos_as_xyz
  1  'x, y, z'
loop_
 _atom_site_type_symbol
 _atom_site_label
 _atom_site_symmetry_multiplicity
 _atom_site_fract_x
 _atom_site_fract_y
 _atom_site_fract_z
 _atom_site_occupancy
  Eu  Eu0  1  0.71100400  0.28899600  0.35289300  1
  Eu  Eu1  1  0.28899600  0.71100400  0.85289300  1
  Eu  Eu2  1  0.44744800  0.55255200  0.29372500  1
  Eu  Eu3  1  0.55255200  0.44744800  0.79372500  1
  Ta  Ta0  1  0.83988300  0.16011700  0.31727500  1
  Ta  Ta1  1  0.16011700  0.83988300  0.81727500  1
  Ta  Ta2  1  0.94365000  0.05635000  0.79367100  1
  Ta  Ta3  1  0.05635000  0.94365000  0.29367100  1
  O  O0  1  0.90722300  0.09277700  0.48970800  1
  O  O1  1  0.09277700  0.90722300  0.98970800  1
  O  O2  1  0.80045600  0.19954400  0.58710200  1
  O  O3  1  0.19954400  0.80045600  0.08710200  1
  O  O4  1  0.34932200  0.65067800  0.28838200  1
  O  O5  1  0.65067800  0.34932200  0.78838200  1
  O  O6  1  0.89034800  0.10965200  0.00591000  1
  O  O7  1  0.10965200  0.89034800  0.50591000  1
  O  O8  1  0.78447100  0.21552900  0.10576200  1
  O  O9  1  0.21552900  0.78447100  0.60576200  1
  O  O10  1  0.99366500  0.00633500  0.05430700  1
  O  O11  1  0.00633500  0.99366500  0.55430700  1
  O  O12  1  0.54797800  0.45202200  0.27438600  1
  O  O13  1  0.45202200  0.54797800  0.77438600  1
loop_
_geom_bond_atom_site_label_1
_geom_bond_atom_site_label_2
_geom_bond_distance
_geom_bond_site_symmetry_2
Eu0 O8 2.439315 1_555
Eu0 O9 2.462470 1_545
Eu0 O9 2.462470 1_655
Eu0 O3 2.522543 1_655
Eu0 O3 2.522543 1_545
Eu0 O2 2.767684 1_555
Eu0 O5 2.973691 1_555
Eu1 O9 2.439315 1_555
Eu1 O8 2.462470 1_456
Eu1 O8 2.462470 1_566
Eu1 O2 2.522543 1_565
Eu1 O2 2.522543 1_455
Eu1 O3 2.767684 1_556
Eu1 O4 2.973691 1_556
Eu2 O0 2.531008 1_565
Eu2 O0 2.531008 1_455
Eu2 O4 2.659114 1_555
Eu2 O10 2.720598 1_565
Eu2 O10 2.720598 1_455
Eu2 O12 2.726314 1_555
Eu2 O13 2.744559 1_555
Eu2 O11 2.953600 1_655
Eu2 O11 2.953600 1_545
Eu2 O13 2.964975 1_554
Eu2 O6 3.009566 1_455
Eu2 O6 3.009566 1_565
Eu3 O1 2.531008 1_655
Eu3 O1 2.531008 1_545
Eu3 O5 2.659114 1_555
Eu3 O11 2.720598 1_655
Eu3 O11 2.720598 1_545
Eu3 O13 2.726314 1_555
Eu3 O12 2.744559 1_556
Eu3 O10 2.953600 1_566
Eu3 O10 2.953600 1_456
Eu3 O12 2.964975 1_555
Eu3 O7 3.009566 1_545
Eu3 O7 3.009566 1_655
O0 Ta2 1.995128 1_555
O0 Ta0 2.072934 1_555
O1 Ta3 1.995128 1_556
O1 Ta1 2.072934 1_555
O2 Ta0 1.873585 1_555
O3 Ta1 1.873585 1_554
O4 Ta0 2.015139 1_455
O4 Ta0 2.015139 1_565
O5 Ta1 2.015139 1_545
O5 Ta1 2.015139 1_655
O6 Ta2 1.884610 1_554
O6 Ta0 2.241511 1_555
O7 Ta3 1.884610 1_555
O7 Ta1 2.241511 1_555
O8 Ta0 1.926181 1_555
O9 Ta1 1.926181 1_555
O10 Ta2 2.011725 1_554
O10 Ta3 2.179318 1_645
O11 Ta3 2.011725 1_555
O11 Ta2 2.179318 1_465
O12 Ta3 2.007927 1_655
O12 Ta3 2.007927 1_545
O13 Ta2 2.007927 1_565
O13 Ta2 2.007927 1_455
