# generated using pymatgen
data_CaSnS3
_symmetry_space_group_name_H-M   'P 1'
_cell_length_a   7.08728000
_cell_length_b   7.12083400
_cell_length_c   9.41987200
_cell_angle_alpha   90.00000000
_cell_angle_beta   90.00000000
_cell_angle_gamma   90.00000000
_symmetry_Int_Tables_number   1
_chemical_formula_structural   CaSnS3
_chemical_formula_sum   'Ca4 Sn4 S12'
_cell_volume   475.39592435
_cell_formula_units_Z   4
loop_
 _symmetry_equiv_pos_site_id
 _symmetry_equiv_pos_as_xyz
  1  'x, y, z'
loop_
 _atom_site_type_symbol
 _atom_site_label
 _atom_site_symmetry_multiplicity
 _atom_site_fract_x
 _atom_site_fract_y
 _atom_site_fract_z
 _atom_site_occupancy
  Ca  Ca0  1  0.17163400  0.69981400  0.50000000  1
  Ca  Ca1  1  0.67163400  0.30018600  0.50000000  1
  Ca  Ca2  1  0.03935000  0.70220300  0.00000000  1
  Ca  Ca3  1  0.53935000  0.29779700  0.00000000  1
  Sn  Sn0  1  0.13616800  0.19545000  0.74437700  1
  Sn  Sn1  1  0.13616800  0.19545000  0.25562300  1
  Sn  Sn2  1  0.63616800  0.80455000  0.25562300  1
  Sn  Sn3  1  0.63616800  0.80455000  0.74437700  1
  S  S0  1  0.51687100  0.89924800  0.50000000  1
  S  S1  1  0.01687100  0.10075200  0.50000000  1
  S  S2  1  0.65012100  0.66757200  0.00000000  1
  S  S3  1  0.15012100  0.33242800  0.00000000  1
  S  S4  1  0.88569600  0.57517200  0.69448900  1
  S  S5  1  0.88569600  0.57517200  0.30551100  1
  S  S6  1  0.38569600  0.42482800  0.30551100  1
  S  S7  1  0.38569600  0.42482800  0.69448900  1
  S  S8  1  0.28419800  0.89018600  0.80329600  1
  S  S9  1  0.28419800  0.89018600  0.19670400  1
  S  S10  1  0.78419800  0.10981400  0.19670400  1
  S  S11  1  0.78419800  0.10981400  0.80329600  1
loop_
_geom_bond_atom_site_label_1
_geom_bond_atom_site_label_2
_geom_bond_distance
_geom_bond_site_symmetry_2
Ca0 S0 2.829059 1_555
Ca0 S4 2.872455 1_455
Ca0 S5 2.872455 1_455
Ca0 S1 3.058460 1_565
Ca0 S6 3.080968 1_555
Ca0 S7 3.080968 1_555
Ca0 S9 3.261383 1_555
Ca0 S8 3.261383 1_555
Ca1 S1 2.829059 1_655
Ca1 S6 2.872455 1_555
Ca1 S7 2.872455 1_555
Ca1 S0 3.058460 1_545
Ca1 S5 3.080968 1_555
Ca1 S4 3.080968 1_555
Ca1 S10 3.261383 1_555
Ca1 S11 3.261383 1_555
Ca2 S3 2.747649 1_555
Ca2 S2 2.769575 1_455
Ca2 S8 2.869924 1_554
Ca2 S9 2.869924 1_555
Ca2 S4 3.207226 1_454
Ca2 S5 3.207226 1_455
Ca3 S2 2.747649 1_555
Ca3 S3 2.769575 1_555
Ca3 S10 2.869924 1_555
Ca3 S11 2.869924 1_554
Ca3 S6 3.207226 1_555
Ca3 S7 3.207226 1_554
S0 Sn3 2.543379 1_555
S0 Sn2 2.543379 1_555
S1 Sn0 2.543379 1_555
S1 Sn1 2.543379 1_555
S2 Sn2 2.599872 1_555
S2 Sn3 2.599872 1_554
S3 Sn1 2.599872 1_555
S3 Sn0 2.599872 1_554
S4 Sn3 2.452798 1_555
S5 Sn2 2.452798 1_555
S6 Sn1 2.452798 1_555
S7 Sn0 2.452798 1_555
S8 Sn0 2.476657 1_565
S8 Sn3 2.627255 1_555
S9 Sn1 2.476657 1_565
S9 Sn2 2.627255 1_555
S10 Sn2 2.476657 1_545
S10 Sn1 2.627255 1_655
S11 Sn3 2.476657 1_545
S11 Sn0 2.627255 1_655
