# generated using pymatgen
data_Ac
_symmetry_space_group_name_H-M   'P 1'
_cell_length_a   8.00531238
_cell_length_b   8.00531238
_cell_length_c   19.60771200
_cell_angle_alpha   90.00000000
_cell_angle_beta   90.00000000
_cell_angle_gamma   120.00000317
_symmetry_Int_Tables_number   1
_chemical_formula_structural   Ac
_chemical_formula_sum   Ac24
_cell_volume   1088.21348776
_cell_formula_units_Z   24
loop_
 _symmetry_equiv_pos_site_id
 _symmetry_equiv_pos_as_xyz
  1  'x, y, z'
loop_
 _atom_site_type_symbol
 _atom_site_label
 _atom_site_symmetry_multiplicity
 _atom_site_fract_x
 _atom_site_fract_y
 _atom_site_fract_z
 _atom_site_occupancy
  Ac  Ac0_0  1  0.32752300  0.32752300  0.00000000  1
  Ac  Ac0_1  1  0.32752300  0.32752300  0.50000000  1
  Ac  Ac0_2  1  0.32752300  0.82752300  0.00000000  1
  Ac  Ac0_3  1  0.32752300  0.82752300  0.50000000  1
  Ac  Ac0_4  1  0.82752300  0.32752300  0.00000000  1
  Ac  Ac0_5  1  0.82752300  0.32752300  0.50000000  1
  Ac  Ac0_6  1  0.82752300  0.82752300  0.00000000  1
  Ac  Ac0_7  1  0.82752300  0.82752300  0.50000000  1
  Ac  Ac1_0  1  0.17247700  0.00000000  0.16666650  1
  Ac  Ac1_1  1  0.17247700  0.00000000  0.66666650  1
  Ac  Ac1_2  1  0.17247700  0.50000000  0.16666650  1
  Ac  Ac1_3  1  0.17247700  0.50000000  0.66666650  1
  Ac  Ac1_4  1  0.67247700  1.00000000  0.16666650  1
  Ac  Ac1_5  1  0.67247700  1.00000000  0.66666650  1
  Ac  Ac1_6  1  0.67247700  0.50000000  0.16666650  1
  Ac  Ac1_7  1  0.67247700  0.50000000  0.66666650  1
  Ac  Ac2_0  1  0.00000000  0.17247700  0.33333350  1
  Ac  Ac2_1  1  0.00000000  0.17247700  0.83333350  1
  Ac  Ac2_2  1  0.00000000  0.67247700  0.33333350  1
  Ac  Ac2_3  1  0.00000000  0.67247700  0.83333350  1
  Ac  Ac2_4  1  0.50000000  0.17247700  0.33333350  1
  Ac  Ac2_5  1  0.50000000  0.17247700  0.83333350  1
  Ac  Ac2_6  1  0.50000000  0.67247700  0.33333350  1
  Ac  Ac2_7  1  0.50000000  0.67247700  0.83333350  1
loop_
_geom_bond_atom_site_label_1
_geom_bond_atom_site_label_2
_geom_bond_distance
_geom_bond_site_symmetry_2
Ac0_0 Ac1_0 3.979977 1_555
Ac0_0 Ac2_1 3.979977 1_554
Ac0_0 Ac2_5 3.979977 1_554
Ac0_0 Ac1_2 3.979977 1_555
Ac0_0 Ac0_6 4.002656 1_445
Ac0_0 Ac0_6 4.002656 1_555
Ac0_0 Ac0_2 4.002656 1_555
Ac0_0 Ac0_2 4.002656 1_545
Ac0_0 Ac0_4 4.002656 1_555
Ac0_0 Ac0_4 4.002656 1_455
Ac0_0 Ac1_6 4.049537 1_555
Ac0_0 Ac2_7 4.049537 1_554
Ac0_1 Ac1_1 3.979977 1_555
Ac0_1 Ac2_0 3.979977 1_555
Ac0_1 Ac1_3 3.979977 1_555
Ac0_1 Ac2_4 3.979977 1_555
Ac0_1 Ac0_7 4.002656 1_445
Ac0_1 Ac0_7 4.002656 1_555
Ac0_1 Ac0_3 4.002656 1_555
Ac0_1 Ac0_5 4.002656 1_555
Ac0_1 Ac0_3 4.002656 1_545
Ac0_1 Ac0_5 4.002656 1_455
Ac0_1 Ac1_7 4.049537 1_555
Ac0_1 Ac2_6 4.049537 1_555
Ac0_2 Ac2_3 3.979977 1_554
Ac0_2 Ac1_2 3.979977 1_555
Ac0_2 Ac2_7 3.979977 1_554
Ac0_2 Ac1_0 3.979977 1_565
Ac0_2 Ac0_4 4.002656 1_565
Ac0_2 Ac0_4 4.002656 1_455
Ac0_2 Ac0_6 4.002656 1_455
Ac0_2 Ac0_6 4.002656 1_555
Ac0_2 Ac1_4 4.049537 1_555
Ac0_2 Ac2_5 4.049537 1_564
Ac0_3 Ac1_3 3.979977 1_555
Ac0_3 Ac2_2 3.979977 1_555
Ac0_3 Ac2_6 3.979977 1_555
Ac0_3 Ac1_1 3.979977 1_565
Ac0_3 Ac0_5 4.002656 1_565
Ac0_3 Ac0_5 4.002656 1_455
Ac0_3 Ac0_7 4.002656 1_455
Ac0_3 Ac0_7 4.002656 1_555
Ac0_3 Ac1_5 4.049537 1_555
Ac0_3 Ac2_4 4.049537 1_565
Ac0_4 Ac2_5 3.979977 1_554
Ac0_4 Ac1_4 3.979977 1_545
Ac0_4 Ac2_1 3.979977 1_654
Ac0_4 Ac1_6 3.979977 1_555
Ac0_4 Ac0_6 4.002656 1_555
Ac0_4 Ac0_6 4.002656 1_545
Ac0_4 Ac2_3 4.049537 1_654
Ac0_4 Ac1_2 4.049537 1_655
Ac0_5 Ac1_5 3.979977 1_545
Ac0_5 Ac2_4 3.979977 1_555
Ac0_5 Ac1_7 3.979977 1_555
Ac0_5 Ac2_0 3.979977 1_655
Ac0_5 Ac0_7 4.002656 1_555
Ac0_5 Ac0_7 4.002656 1_545
Ac0_5 Ac1_3 4.049537 1_655
Ac0_5 Ac2_2 4.049537 1_655
Ac0_6 Ac1_6 3.979977 1_555
Ac0_6 Ac2_7 3.979977 1_554
Ac0_6 Ac2_3 3.979977 1_654
Ac0_6 Ac1_4 3.979977 1_555
Ac0_6 Ac2_1 4.049537 1_664
Ac0_6 Ac1_0 4.049537 1_665
Ac0_7 Ac1_7 3.979977 1_555
Ac0_7 Ac2_6 3.979977 1_555
Ac0_7 Ac2_2 3.979977 1_655
Ac0_7 Ac1_5 3.979977 1_555
Ac0_7 Ac1_1 4.049537 1_665
Ac0_7 Ac2_0 4.049537 1_665
Ac1_0 Ac2_2 3.979985 1_545
Ac1_0 Ac2_4 3.979985 1_555
Ac1_0 Ac1_6 4.002656 1_555
Ac1_0 Ac1_6 4.002656 1_445
Ac1_0 Ac1_4 4.002656 1_445
Ac1_0 Ac1_2 4.002656 1_555
Ac1_0 Ac1_4 4.002656 1_545
Ac1_0 Ac1_2 4.002656 1_545
Ac1_0 Ac2_0 4.049545 1_555
Ac1_1 Ac2_3 3.979985 1_545
Ac1_1 Ac2_5 3.979985 1_555
Ac1_1 Ac1_7 4.002656 1_555
Ac1_1 Ac1_7 4.002656 1_445
Ac1_1 Ac1_3 4.002656 1_555
Ac1_1 Ac1_5 4.002656 1_445
Ac1_1 Ac1_5 4.002656 1_545
Ac1_1 Ac1_3 4.002656 1_545
Ac1_1 Ac2_1 4.049545 1_555
Ac1_2 Ac2_6 3.979985 1_555
Ac1_2 Ac2_0 3.979985 1_555
Ac1_2 Ac1_4 4.002656 1_555
Ac1_2 Ac1_4 4.002656 1_445
Ac1_2 Ac1_6 4.002656 1_555
Ac1_2 Ac1_6 4.002656 1_455
Ac1_2 Ac2_2 4.049545 1_555
Ac1_3 Ac2_7 3.979985 1_555
Ac1_3 Ac2_1 3.979985 1_555
Ac1_3 Ac1_5 4.002656 1_555
Ac1_3 Ac1_5 4.002656 1_445
Ac1_3 Ac1_7 4.002656 1_555
Ac1_3 Ac1_7 4.002656 1_455
Ac1_3 Ac2_3 4.049545 1_555
Ac1_4 Ac2_6 3.979985 1_555
Ac1_4 Ac2_0 3.979985 1_665
Ac1_4 Ac1_6 4.002656 1_555
Ac1_4 Ac1_6 4.002656 1_565
Ac1_4 Ac2_4 4.049545 1_565
Ac1_5 Ac2_1 3.979985 1_665
Ac1_5 Ac2_7 3.979985 1_555
Ac1_5 Ac1_7 4.002656 1_555
Ac1_5 Ac1_7 4.002656 1_565
Ac1_5 Ac2_5 4.049545 1_565
Ac1_6 Ac2_4 3.979985 1_555
Ac1_6 Ac2_2 3.979985 1_655
Ac1_6 Ac2_6 4.049545 1_555
Ac1_7 Ac2_5 3.979985 1_555
Ac1_7 Ac2_3 3.979985 1_655
Ac1_7 Ac2_7 4.049545 1_555
Ac2_0 Ac2_6 4.002656 1_555
Ac2_0 Ac2_6 4.002656 1_445
Ac2_0 Ac2_2 4.002656 1_545
Ac2_0 Ac2_2 4.002656 1_555
Ac2_0 Ac2_4 4.002656 1_555
Ac2_0 Ac2_4 4.002656 1_455
Ac2_1 Ac2_7 4.002656 1_555
Ac2_1 Ac2_7 4.002656 1_445
Ac2_1 Ac2_3 4.002656 1_545
Ac2_1 Ac2_3 4.002656 1_555
Ac2_1 Ac2_5 4.002656 1_455
Ac2_1 Ac2_5 4.002656 1_555
Ac2_2 Ac2_4 4.002656 1_565
Ac2_2 Ac2_4 4.002656 1_455
Ac2_2 Ac2_6 4.002656 1_555
Ac2_2 Ac2_6 4.002656 1_455
Ac2_3 Ac2_5 4.002656 1_455
Ac2_3 Ac2_5 4.002656 1_565
Ac2_3 Ac2_7 4.002656 1_555
Ac2_3 Ac2_7 4.002656 1_455
Ac2_4 Ac2_6 4.002656 1_545
Ac2_4 Ac2_6 4.002656 1_555
Ac2_5 Ac2_7 4.002656 1_545
Ac2_5 Ac2_7 4.002656 1_555
