# generated using pymatgen
data_Cs3IrBr6O
_symmetry_space_group_name_H-M   'P 1'
_cell_length_a   7.63702100
_cell_length_b   13.41338900
_cell_length_c   15.95244500
_cell_angle_alpha   90.00000000
_cell_angle_beta   90.00000000
_cell_angle_gamma   90.00000000
_symmetry_Int_Tables_number   1
_chemical_formula_structural   Cs3IrBr6O
_chemical_formula_sum   'Cs12 Ir4 Br24 O4'
_cell_volume   1634.14188064
_cell_formula_units_Z   4
loop_
 _symmetry_equiv_pos_site_id
 _symmetry_equiv_pos_as_xyz
  1  'x, y, z'
loop_
 _atom_site_type_symbol
 _atom_site_label
 _atom_site_symmetry_multiplicity
 _atom_site_fract_x
 _atom_site_fract_y
 _atom_site_fract_z
 _atom_site_occupancy
  Cs  Cs0  1  0.25000000  0.88735900  0.53884500  1
  Cs  Cs1  1  0.75000000  0.11264100  0.46115500  1
  Cs  Cs2  1  0.75000000  0.61264100  0.03884500  1
  Cs  Cs3  1  0.25000000  0.38735900  0.96115500  1
  Cs  Cs4  1  0.25000000  0.55956100  0.64336300  1
  Cs  Cs5  1  0.75000000  0.44043900  0.35663700  1
  Cs  Cs6  1  0.75000000  0.94043900  0.14336300  1
  Cs  Cs7  1  0.25000000  0.05956100  0.85663700  1
  Cs  Cs8  1  0.25000000  0.66576600  0.27381700  1
  Cs  Cs9  1  0.75000000  0.33423400  0.72618300  1
  Cs  Cs10  1  0.75000000  0.83423400  0.77381700  1
  Cs  Cs11  1  0.25000000  0.16576600  0.22618300  1
  Ir  Ir0  1  0.25000000  0.72445200  0.90496000  1
  Ir  Ir1  1  0.75000000  0.27554800  0.09504000  1
  Ir  Ir2  1  0.75000000  0.77554800  0.40496000  1
  Ir  Ir3  1  0.25000000  0.22445200  0.59504000  1
  Br  Br0  1  0.01960300  0.60718800  0.84930200  1
  Br  Br1  1  0.98039700  0.39281200  0.15069800  1
  Br  Br2  1  0.98039700  0.89281200  0.34930200  1
  Br  Br3  1  0.51960300  0.39281200  0.15069800  1
  Br  Br4  1  0.01960300  0.10718800  0.65069800  1
  Br  Br5  1  0.48039700  0.60718800  0.84930200  1
  Br  Br6  1  0.48039700  0.10718800  0.65069800  1
  Br  Br7  1  0.51960300  0.89281200  0.34930200  1
  Br  Br8  1  0.25000000  0.63716500  0.04425200  1
  Br  Br9  1  0.75000000  0.36283500  0.95574800  1
  Br  Br10  1  0.75000000  0.86283500  0.54425200  1
  Br  Br11  1  0.25000000  0.13716500  0.45574800  1
  Br  Br12  1  0.02099500  0.84136500  0.96072600  1
  Br  Br13  1  0.97900500  0.15863500  0.03927400  1
  Br  Br14  1  0.97900500  0.65863500  0.46072600  1
  Br  Br15  1  0.52099500  0.15863500  0.03927400  1
  Br  Br16  1  0.02099500  0.34136500  0.53927400  1
  Br  Br17  1  0.47900500  0.84136500  0.96072600  1
  Br  Br18  1  0.47900500  0.34136500  0.53927400  1
  Br  Br19  1  0.52099500  0.65863500  0.46072600  1
  Br  Br20  1  0.25000000  0.81210200  0.76352100  1
  Br  Br21  1  0.75000000  0.18789800  0.23647900  1
  Br  Br22  1  0.75000000  0.68789800  0.26352100  1
  Br  Br23  1  0.25000000  0.31210200  0.73647900  1
  O  O0  1  0.25000000  0.93940000  0.16055700  1
  O  O1  1  0.75000000  0.06060000  0.83944300  1
  O  O2  1  0.75000000  0.56060000  0.66055700  1
  O  O3  1  0.25000000  0.43940000  0.33944300  1
loop_
_geom_bond_atom_site_label_1
_geom_bond_atom_site_label_2
_geom_bond_distance
_geom_bond_site_symmetry_2
Cs4 O2 3.828374 1_455
Cs4 O2 3.828374 1_555
Cs5 O3 3.828374 1_655
Cs5 O3 3.828374 1_555
Cs6 O0 3.828374 1_555
Cs6 O0 3.828374 1_655
Cs7 O1 3.828374 1_555
Cs7 O1 3.828374 1_455
Cs8 O3 3.211747 1_555
Cs9 O2 3.211747 1_555
Cs10 O1 3.211747 1_565
Cs11 O0 3.211747 1_545
Br0 Ir0 2.521582 1_555
Br0 Cs2 3.658864 1_456
Br0 Cs4 3.781119 1_555
Br0 Cs10 3.868354 1_455
Br0 Cs3 3.869675 1_555
Br1 Ir1 2.521582 1_555
Br1 Cs3 3.658864 1_654
Br1 Cs5 3.781119 1_555
Br1 Cs11 3.868354 1_655
Br1 Cs2 3.869675 1_555
Br2 Ir2 2.521582 1_555
Br2 Cs0 3.658864 1_655
Br2 Cs6 3.781119 1_555
Br2 Cs8 3.868354 1_655
Br2 Cs1 3.869675 1_565
Br3 Ir1 2.521582 1_555
Br3 Cs3 3.658864 1_554
Br3 Cs5 3.781119 1_555
Br3 Cs11 3.868354 1_555
Br3 Cs2 3.869675 1_555
Br4 Ir3 2.521582 1_555
Br4 Cs1 3.658864 1_455
Br4 Cs7 3.781119 1_555
Br4 Cs9 3.868354 1_455
Br4 Cs0 3.869675 1_545
Br5 Ir0 2.521582 1_555
Br5 Cs2 3.658864 1_556
Br5 Cs4 3.781119 1_555
Br5 Cs10 3.868354 1_555
Br5 Cs3 3.869675 1_555
Br6 Ir3 2.521582 1_555
Br6 Cs1 3.658864 1_555
Br6 Cs7 3.781119 1_555
Br6 Cs9 3.868354 1_555
Br6 Cs0 3.869675 1_545
Br7 Ir2 2.521582 1_555
Br7 Cs0 3.658864 1_555
Br7 Cs6 3.781119 1_555
Br7 Cs8 3.868354 1_555
Br7 Cs1 3.869675 1_565
Br8 Ir0 2.511634 1_554
Br8 Cs3 3.603430 1_554
Br8 Cs8 3.682163 1_555
Br8 Cs2 3.833624 1_455
Br8 Cs2 3.833624 1_555
Br9 Ir1 2.511634 1_556
Br9 Cs2 3.603430 1_556
Br9 Cs9 3.682163 1_555
Br9 Cs3 3.833624 1_555
Br9 Cs3 3.833624 1_655
Br10 Ir2 2.511634 1_555
Br10 Cs1 3.603430 1_565
Br10 Cs10 3.682163 1_555
Br10 Cs0 3.833624 1_555
Br10 Cs0 3.833624 1_655
Br11 Ir3 2.511634 1_555
Br11 Cs0 3.603430 1_545
Br11 Cs11 3.682163 1_555
Br11 Cs1 3.833624 1_455
Br11 Cs1 3.833624 1_555
Br12 Ir0 2.511842 1_555
Br12 Cs10 3.630791 1_455
Br12 Cs7 3.792326 1_565
Br12 Cs6 3.812842 1_456
Br12 Cs2 3.904947 1_456
Br13 Ir1 2.511842 1_555
Br13 Cs11 3.630791 1_655
Br13 Cs6 3.792326 1_545
Br13 Cs7 3.812842 1_654
Br13 Cs3 3.904947 1_654
Br14 Ir2 2.511842 1_555
Br14 Cs8 3.630791 1_655
Br14 Cs5 3.792326 1_555
Br14 Cs4 3.812842 1_655
Br14 Cs0 3.904947 1_655
Br15 Ir1 2.511842 1_555
Br15 Cs11 3.630791 1_555
Br15 Cs6 3.792326 1_545
Br15 Cs7 3.812842 1_554
Br15 Cs3 3.904947 1_554
Br16 Ir3 2.511842 1_555
Br16 Cs9 3.630791 1_455
Br16 Cs4 3.792326 1_555
Br16 Cs5 3.812842 1_455
Br16 Cs1 3.904947 1_455
Br17 Ir0 2.511842 1_555
Br17 Cs10 3.630791 1_555
Br17 Cs7 3.792326 1_565
Br17 Cs6 3.812842 1_556
Br17 Cs2 3.904947 1_556
Br18 Ir3 2.511842 1_555
Br18 Cs9 3.630791 1_555
Br18 Cs4 3.792326 1_555
Br18 Cs5 3.812842 1_555
Br18 Cs1 3.904947 1_555
Br19 Ir2 2.511842 1_555
Br19 Cs8 3.630791 1_555
Br19 Cs5 3.792326 1_555
Br19 Cs4 3.812842 1_555
Br19 Cs0 3.904947 1_555
Br20 Ir0 2.544231 1_555
Br20 Cs7 3.636483 1_565
Br20 Cs0 3.723572 1_555
Br20 Cs10 3.833553 1_555
Br20 Cs10 3.833553 1_455
Br20 Cs4 3.892154 1_555
Br21 Ir1 2.544231 1_555
Br21 Cs6 3.636483 1_545
Br21 Cs1 3.723572 1_555
Br21 Cs11 3.833553 1_655
Br21 Cs11 3.833553 1_555
Br21 Cs5 3.892154 1_555
Br22 Ir2 2.544231 1_555
Br22 Cs5 3.636483 1_555
Br22 Cs2 3.723572 1_555
Br22 Cs8 3.833553 1_555
Br22 Cs8 3.833553 1_655
Br22 Cs6 3.892154 1_555
Br23 Ir3 2.544231 1_555
Br23 Cs4 3.636483 1_555
Br23 Cs3 3.723572 1_555
Br23 Cs9 3.833553 1_555
Br23 Cs9 3.833553 1_455
Br23 Cs7 3.892154 1_555
