# generated using pymatgen
data_RbDyI3
_symmetry_space_group_name_H-M   'P 1'
_cell_length_a   8.28396059
_cell_length_b   8.28396059
_cell_length_c   11.75734000
_cell_angle_alpha   90.00000000
_cell_angle_beta   90.00000000
_cell_angle_gamma   148.64709074
_symmetry_Int_Tables_number   1
_chemical_formula_structural   RbDyI3
_chemical_formula_sum   'Rb2 Dy2 I6'
_cell_volume   419.80303309
_cell_formula_units_Z   2
loop_
 _symmetry_equiv_pos_site_id
 _symmetry_equiv_pos_as_xyz
  1  'x, y, z'
loop_
 _atom_site_type_symbol
 _atom_site_label
 _atom_site_symmetry_multiplicity
 _atom_site_fract_x
 _atom_site_fract_y
 _atom_site_fract_z
 _atom_site_occupancy
  Rb  Rb0  1  0.24628400  0.75371600  0.25000000  1
  Rb  Rb1  1  0.75371600  0.24628400  0.75000000  1
  Dy  Dy0  1  0.00000000  0.00000000  0.00000000  1
  Dy  Dy1  1  0.00000000  0.00000000  0.50000000  1
  I  I0  1  0.63052100  0.36947900  0.04951100  1
  I  I1  1  0.36947900  0.63052100  0.95048900  1
  I  I2  1  0.36947900  0.63052100  0.54951100  1
  I  I3  1  0.63052100  0.36947900  0.45048900  1
  I  I4  1  0.93378300  0.06621700  0.25000000  1
  I  I5  1  0.06621700  0.93378300  0.75000000  1
loop_
_geom_bond_atom_site_label_1
_geom_bond_atom_site_label_2
_geom_bond_distance
_geom_bond_site_symmetry_2
Dy0 I0 3.111908 1_445
Dy0 I0 3.111908 1_555
Dy0 I1 3.111908 1_554
Dy0 I1 3.111908 1_444
Dy0 I5 3.123363 1_544
Dy0 I4 3.123363 1_455
Dy1 I3 3.111908 1_445
Dy1 I3 3.111908 1_555
Dy1 I2 3.111908 1_445
Dy1 I2 3.111908 1_555
Dy1 I4 3.123363 1_455
Dy1 I5 3.123363 1_545
I0 Rb0 3.738546 1_655
I0 Rb0 3.738546 1_545
I0 Rb1 4.032678 1_554
I1 Rb1 3.738546 1_565
I1 Rb1 3.738546 1_455
I1 Rb0 4.032678 1_556
I2 Rb1 3.738546 1_565
I2 Rb1 3.738546 1_455
I2 Rb0 4.032678 1_555
I3 Rb0 3.738546 1_655
I3 Rb0 3.738546 1_545
I3 Rb1 4.032678 1_555
I4 Rb0 3.735755 1_655
I4 Rb0 3.735755 1_545
I5 Rb1 3.735755 1_565
I5 Rb1 3.735755 1_455
