# generated using pymatgen
data_Mg14ZrW
_symmetry_space_group_name_H-M   'P 1'
_cell_length_a   6.38559083
_cell_length_b   6.12124239
_cell_length_c   10.12547357
_cell_angle_alpha   90.00000000
_cell_angle_beta   90.00000000
_cell_angle_gamma   118.63977591
_symmetry_Int_Tables_number   1
_chemical_formula_structural   Mg14ZrW
_chemical_formula_sum   'Mg14 Zr1 W1'
_cell_volume   347.35822430
_cell_formula_units_Z   1
loop_
 _symmetry_equiv_pos_site_id
 _symmetry_equiv_pos_as_xyz
  1  'x, y, z'
loop_
 _atom_site_type_symbol
 _atom_site_label
 _atom_site_symmetry_multiplicity
 _atom_site_fract_x
 _atom_site_fract_y
 _atom_site_fract_z
 _atom_site_occupancy
  Mg  Mg0  1  0.16720331  0.33360115  0.62500000  1
  Mg  Mg1  1  0.16257342  0.83128621  0.62500000  1
  Mg  Mg2  1  0.65795915  0.32531047  0.12500000  1
  Mg  Mg3  1  0.66314099  0.33371221  0.62500000  1
  Mg  Mg4  1  0.65795915  0.83264768  0.12500000  1
  Mg  Mg5  1  0.66314099  0.82942778  0.62500000  1
  Mg  Mg6  1  0.33161531  0.15973997  0.36721815  1
  Mg  Mg7  1  0.33161531  0.15973997  0.88278185  1
  Mg  Mg8  1  0.33161531  0.67187634  0.36721815  1
  Mg  Mg9  1  0.33161531  0.67187634  0.88278185  1
  Mg  Mg10  1  0.84219527  0.17109814  0.37708355  1
  Mg  Mg11  1  0.84219527  0.17109814  0.87291645  1
  Mg  Mg12  1  0.85076603  0.67538352  0.36239543  1
  Mg  Mg13  1  0.85076603  0.67538352  0.88760457  1
  Zr  Zr0  1  0.15715854  0.32857877  0.12500000  1
  W  W0  1  0.15848059  0.82923979  0.12500000  1
loop_
_geom_bond_atom_site_label_1
_geom_bond_atom_site_label_2
_geom_bond_distance
_geom_bond_site_symmetry_2
Mg0 Mg1 3.060731 1_545
Mg0 Mg1 3.060731 1_555
Mg0 Mg10 3.101473 1_455
Mg0 Mg11 3.101473 1_455
Mg0 Mg5 3.166529 1_555
Mg0 Mg3 3.166529 1_555
Mg0 Mg6 3.181015 1_555
Mg0 Mg7 3.181015 1_555
Mg0 Mg9 3.181021 1_555
Mg0 Mg8 3.181021 1_555
Mg0 Mg5 3.219061 1_445
Mg0 Mg3 3.219062 1_455
Mg1 Mg9 3.152773 1_555
Mg1 Mg8 3.152773 1_555
Mg1 Mg7 3.152779 1_565
Mg1 Mg6 3.152779 1_565
Mg1 Mg12 3.181808 1_455
Mg1 Mg13 3.181808 1_455
Mg1 Mg3 3.183734 1_455
Mg1 Mg5 3.183734 1_455
Mg1 Mg3 3.201887 1_565
Mg1 Mg5 3.201888 1_555
Mg2 Mg4 3.015708 1_545
Mg2 Mg7 3.059466 1_554
Mg2 Mg6 3.059466 1_555
Mg2 Mg4 3.105534 1_555
Mg2 Zr0 3.178143 1_655
Mg2 W0 3.179520 1_545
Mg2 W0 3.206176 1_655
Mg2 Zr0 3.207545 1_555
Mg3 Mg5 3.034395 1_555
Mg3 Mg5 3.086847 1_545
Mg3 Mg6 3.204302 1_555
Mg3 Mg7 3.204302 1_555
Mg4 Mg8 3.059466 1_555
Mg4 Mg9 3.059466 1_554
Mg4 Zr0 3.178142 1_665
Mg4 W0 3.179520 1_555
Mg4 W0 3.206176 1_655
Mg4 Zr0 3.207545 1_555
Mg5 Mg8 3.204302 1_555
Mg5 Mg9 3.204302 1_555
Mg6 Mg8 2.986332 1_545
Mg6 W0 3.030869 1_545
Mg6 Zr0 3.070494 1_555
Mg6 Mg8 3.134911 1_555
Mg7 Mg9 2.986332 1_545
Mg7 W0 3.030869 1_546
Mg7 Zr0 3.070494 1_556
Mg7 Mg9 3.134911 1_555
Mg8 W0 3.030863 1_555
Mg8 Zr0 3.070500 1_555
Mg9 W0 3.030863 1_556
Mg9 Zr0 3.070500 1_556
Mg10 Mg12 3.064609 1_555
Mg10 Mg12 3.064609 1_545
Mg10 Zr0 3.103361 1_655
Mg10 Mg3 3.112967 1_555
Mg10 Mg5 3.112973 1_545
Mg10 Mg2 3.139232 1_555
Mg10 Mg4 3.139238 1_545
Mg10 Mg8 3.160728 1_655
Mg10 Mg6 3.160728 1_655
Mg10 Mg8 3.229153 1_545
Mg10 Mg6 3.229153 1_555
Mg11 Mg13 3.064609 1_555
Mg11 Mg13 3.064609 1_545
Mg11 Zr0 3.103361 1_656
Mg11 Mg3 3.112967 1_555
Mg11 Mg5 3.112973 1_545
Mg11 Mg2 3.139232 1_556
Mg11 Mg4 3.139238 1_546
Mg11 Mg9 3.160728 1_655
Mg11 Mg7 3.160728 1_655
Mg11 Mg9 3.229153 1_545
Mg11 Mg7 3.229153 1_555
Mg12 W0 2.958374 1_655
Mg12 Mg4 3.058861 1_555
Mg12 Mg2 3.058867 1_555
Mg12 Mg6 3.081241 1_665
Mg12 Mg8 3.081241 1_655
Mg12 Mg5 3.236943 1_555
Mg12 Mg3 3.236949 1_555
Mg12 Mg6 3.305209 1_555
Mg12 Mg8 3.305209 1_555
Mg13 W0 2.958374 1_656
Mg13 Mg4 3.058861 1_556
Mg13 Mg2 3.058867 1_556
Mg13 Mg7 3.081241 1_665
Mg13 Mg9 3.081241 1_655
Mg13 Mg5 3.236943 1_555
Mg13 Mg3 3.236949 1_555
Mg13 Mg7 3.305209 1_555
Mg13 Mg9 3.305209 1_555
W0 Zr0 3.060630 1_555
W0 Zr0 3.060630 1_565
