# generated using pymatgen
data_Y2CrN3
_symmetry_space_group_name_H-M   'P 1'
_cell_length_a   5.88529235
_cell_length_b   10.57647080
_cell_length_c   11.42472259
_cell_angle_alpha   90.00000143
_cell_angle_beta   91.84658406
_cell_angle_gamma   153.96824784
_symmetry_Int_Tables_number   1
_chemical_formula_structural   Y2CrN3
_chemical_formula_sum   'Y8 Cr4 N12'
_cell_volume   311.25457090
_cell_formula_units_Z   4
loop_
 _symmetry_equiv_pos_site_id
 _symmetry_equiv_pos_as_xyz
  1  'x, y, z'
loop_
 _atom_site_type_symbol
 _atom_site_label
 _atom_site_symmetry_multiplicity
 _atom_site_fract_x
 _atom_site_fract_y
 _atom_site_fract_z
 _atom_site_occupancy
  Y  Y0  1  0.45916600  0.02604900  0.85309100  1
  Y  Y1  1  0.54083400  0.56688300  0.64690900  1
  Y  Y2  1  0.54083400  0.97395100  0.14690900  1
  Y  Y3  1  0.45916600  0.43311700  0.35309100  1
  Y  Y4  1  0.52817200  0.87223100  0.57224000  1
  Y  Y5  1  0.47182800  0.34406000  0.92776000  1
  Y  Y6  1  0.47182800  0.12776900  0.42776000  1
  Y  Y7  1  0.52817200  0.65594000  0.07224000  1
  Cr  Cr0  1  0.58024000  0.28622800  0.67285200  1
  Cr  Cr1  1  0.41976000  0.70598900  0.82714800  1
  Cr  Cr2  1  0.41976000  0.71377200  0.32714800  1
  Cr  Cr3  1  0.58024000  0.29401100  0.17285200  1
  N  N0  1  0.00000000  0.62667400  0.75000000  1
  N  N1  1  0.00000000  0.37332600  0.25000000  1
  N  N2  1  0.60602800  0.12486300  0.62938200  1
  N  N3  1  0.39397200  0.51883400  0.87061800  1
  N  N4  1  0.39397200  0.87513700  0.37061800  1
  N  N5  1  0.60602800  0.48116600  0.12938200  1
  N  N6  1  0.48404400  0.14642800  0.03671400  1
  N  N7  1  0.51595600  0.66238200  0.46328600  1
  N  N8  1  0.51595600  0.85357200  0.96328600  1
  N  N9  1  0.48404400  0.33761800  0.53671400  1
  N  N10  1  0.00000000  0.99534000  0.75000000  1
  N  N11  1  0.00000000  0.00466000  0.25000000  1
loop_
_geom_bond_atom_site_label_1
_geom_bond_atom_site_label_2
_geom_bond_distance
_geom_bond_site_symmetry_2
Cr0 N10 1.793588 1_545
Cr0 N9 1.879164 1_555
Cr0 N2 1.911218 1_555
Cr0 N0 1.928458 1_655
Cr1 N10 1.793588 1_655
Cr1 N8 1.879146 1_555
Cr1 N3 1.911238 1_555
Cr1 N0 1.928451 1_555
Cr2 N11 1.793588 1_665
Cr2 N7 1.879164 1_555
Cr2 N4 1.911218 1_555
Cr2 N1 1.928458 1_555
Cr3 N11 1.793588 1_555
Cr3 N6 1.879146 1_555
Cr3 N5 1.911238 1_555
Cr3 N1 1.928451 1_655
N0 Y1 2.411116 1_455
N0 Y0 2.411116 1_565
N0 Y5 2.535877 1_455
N0 Y4 2.535878 1_555
N1 Y3 2.411116 1_555
N1 Y2 2.411116 1_445
N1 Y7 2.535877 1_555
N1 Y6 2.535878 1_455
N2 Y4 2.357118 1_545
N2 Y6 2.420148 1_555
N2 Y1 2.422996 1_655
N2 Y0 2.624978 1_555
N2 Y1 2.786128 1_445
N3 Y5 2.357098 1_555
N3 Y7 2.420147 1_556
N3 Y0 2.422995 1_455
N3 Y1 2.624977 1_555
N3 Y0 2.786127 1_665
N4 Y6 2.357118 1_565
N4 Y4 2.420148 1_555
N4 Y3 2.422996 1_455
N4 Y2 2.624978 1_555
N4 Y3 2.786128 1_665
N5 Y7 2.357098 1_555
N5 Y5 2.420147 1_554
N5 Y2 2.422995 1_655
N5 Y3 2.624977 1_555
N5 Y2 2.786127 1_445
N6 Y0 2.385074 1_554
N6 Y2 2.468384 1_545
N6 Y5 2.487581 1_554
N6 Y7 2.534750 1_445
N6 Y7 2.700856 1_655
N7 Y1 2.385064 1_555
N7 Y3 2.468365 1_555
N7 Y4 2.487590 1_555
N7 Y6 2.534748 1_665
N7 Y6 2.700855 1_455
N8 Y2 2.385074 1_556
N8 Y0 2.468384 1_565
N8 Y7 2.487581 1_556
N8 Y5 2.534750 1_665
N8 Y5 2.700856 1_455
N9 Y3 2.385064 1_555
N9 Y1 2.468365 1_555
N9 Y6 2.487590 1_555
N9 Y4 2.534748 1_445
N9 Y4 2.700855 1_655
N10 Y4 2.582546 1_455
N10 Y5 2.582551 1_565
N10 Y0 2.648171 1_565
N10 Y1 2.648171 1_455
N11 Y6 2.582546 1_555
N11 Y7 2.582551 1_445
N11 Y2 2.648171 1_445
N11 Y3 2.648171 1_555
