# generated using pymatgen
data_Bi14WO24
_symmetry_space_group_name_H-M   'P 1'
_cell_length_a   8.76125900
_cell_length_b   8.76125900
_cell_length_c   10.58012548
_cell_angle_alpha   65.54091744
_cell_angle_beta   65.54091744
_cell_angle_gamma   90.00000000
_symmetry_Int_Tables_number   1
_chemical_formula_structural   Bi14WO24
_chemical_formula_sum   'Bi14 W1 O24'
_cell_volume   658.34203655
_cell_formula_units_Z   1
loop_
 _symmetry_equiv_pos_site_id
 _symmetry_equiv_pos_as_xyz
  1  'x, y, z'
loop_
 _atom_site_type_symbol
 _atom_site_label
 _atom_site_symmetry_multiplicity
 _atom_site_fract_x
 _atom_site_fract_y
 _atom_site_fract_z
 _atom_site_occupancy
  Bi  Bi0  1  0.34048700  0.34048700  0.31902600  1
  Bi  Bi1  1  0.65951300  0.65951300  0.68097400  1
  Bi  Bi2  1  0.79672800  0.43644400  0.00000000  1
  Bi  Bi3  1  0.20327200  0.56355600  0.00000000  1
  Bi  Bi4  1  0.43644400  0.20327200  0.00000000  1
  Bi  Bi5  1  0.56355600  0.79672800  0.00000000  1
  Bi  Bi6  1  0.12985400  0.71949400  0.33302900  1
  Bi  Bi7  1  0.53711800  0.94747800  0.33302900  1
  Bi  Bi8  1  0.71949400  0.53711800  0.33302900  1
  Bi  Bi9  1  0.94747800  0.12985400  0.33302900  1
  Bi  Bi10  1  0.87014600  0.28050600  0.66697100  1
  Bi  Bi11  1  0.46288200  0.05252200  0.66697100  1
  Bi  Bi12  1  0.28050600  0.46288200  0.66697100  1
  Bi  Bi13  1  0.05252200  0.87014600  0.66697100  1
  W  W0  1  0.00000000  0.00000000  0.00000000  1
  O  O0  1  0.61533800  0.11533800  0.76932400  1
  O  O1  1  0.11533800  0.61533800  0.76932400  1
  O  O2  1  0.38466200  0.88466200  0.23067600  1
  O  O3  1  0.88466200  0.38466200  0.23067600  1
  O  O4  1  0.17389400  0.50134100  0.49435800  1
  O  O5  1  0.33174800  0.00430100  0.49435800  1
  O  O6  1  0.50134100  0.33174800  0.49435800  1
  O  O7  1  0.00430100  0.17389400  0.49435800  1
  O  O8  1  0.82610600  0.49865900  0.50564200  1
  O  O9  1  0.66825200  0.99569900  0.50564200  1
  O  O10  1  0.49865900  0.66825200  0.50564200  1
  O  O11  1  0.99569900  0.82610600  0.50564200  1
  O  O12  1  0.76348400  0.71205100  0.83675400  1
  O  O13  1  0.39976200  0.45119500  0.83675400  1
  O  O14  1  0.71205100  0.39976200  0.83675400  1
  O  O15  1  0.45119500  0.76348400  0.83675400  1
  O  O16  1  0.23651600  0.28794900  0.16324600  1
  O  O17  1  0.60023800  0.54880500  0.16324600  1
  O  O18  1  0.28794900  0.60023800  0.16324600  1
  O  O19  1  0.54880500  0.23651600  0.16324600  1
  O  O20  1  0.97430300  0.21572400  0.00000000  1
  O  O21  1  0.02569700  0.78427600  0.00000000  1
  O  O22  1  0.21572400  0.02569700  0.00000000  1
  O  O23  1  0.78427600  0.97430300  0.00000000  1
loop_
_geom_bond_atom_site_label_1
_geom_bond_atom_site_label_2
_geom_bond_distance
_geom_bond_site_symmetry_2
Bi0 O17 2.372676 1_555
Bi0 O18 2.372676 1_555
Bi0 O19 2.372676 1_555
Bi0 O16 2.372676 1_555
Bi0 O7 2.735018 1_555
Bi0 O5 2.735018 1_555
Bi0 O4 2.735018 1_555
Bi0 O6 2.735018 1_555
Bi1 O13 2.372676 1_555
Bi1 O14 2.372676 1_555
Bi1 O15 2.372676 1_555
Bi1 O12 2.372676 1_555
Bi1 O11 2.735018 1_555
Bi1 O9 2.735018 1_555
Bi1 O8 2.735018 1_555
Bi1 O10 2.735018 1_555
Bi2 O19 2.271007 1_555
Bi2 O14 2.271007 1_554
Bi2 O12 2.421063 1_554
Bi2 O17 2.421063 1_555
Bi2 O20 2.481930 1_555
Bi2 O1 2.719544 1_654
Bi2 O3 2.719544 1_555
Bi3 O15 2.271007 1_554
Bi3 O18 2.271007 1_555
Bi3 O16 2.421063 1_555
Bi3 O13 2.421063 1_554
Bi3 O21 2.481930 1_555
Bi3 O3 2.719544 1_455
Bi3 O1 2.719544 1_554
Bi4 O13 2.271007 1_554
Bi4 O16 2.271007 1_555
Bi4 O14 2.421063 1_554
Bi4 O19 2.421064 1_555
Bi4 O22 2.481930 1_555
Bi4 O2 2.719544 1_545
Bi4 O0 2.719544 1_554
Bi5 O17 2.271007 1_555
Bi5 O12 2.271007 1_554
Bi5 O18 2.421063 1_555
Bi5 O15 2.421064 1_554
Bi5 O23 2.481930 1_555
Bi5 O0 2.719544 1_564
Bi5 O2 2.719544 1_555
Bi6 O4 2.135235 1_555
Bi6 O2 2.225070 1_555
Bi6 O11 2.285664 1_455
Bi6 O18 2.393914 1_555
Bi6 O8 2.685175 1_455
Bi7 O5 2.135235 1_565
Bi7 O2 2.225081 1_555
Bi7 O10 2.285669 1_555
Bi7 O19 2.393910 1_565
Bi7 O9 2.685165 1_555
Bi8 O6 2.135240 1_555
Bi8 O3 2.225077 1_555
Bi8 O8 2.285663 1_555
Bi8 O17 2.393917 1_555
Bi8 O10 2.685169 1_555
Bi9 O7 2.135230 1_655
Bi9 O3 2.225074 1_555
Bi9 O9 2.285671 1_545
Bi9 O16 2.393907 1_655
Bi9 O11 2.685171 1_545
Bi10 O8 2.135235 1_555
Bi10 O0 2.225070 1_555
Bi10 O7 2.285664 1_655
Bi10 O14 2.393914 1_555
Bi10 O4 2.685175 1_655
Bi11 O9 2.135235 1_545
Bi11 O0 2.225081 1_555
Bi11 O6 2.285669 1_555
Bi11 O15 2.393910 1_545
Bi11 O5 2.685165 1_555
Bi12 O10 2.135240 1_555
Bi12 O1 2.225077 1_555
Bi12 O4 2.285663 1_555
Bi12 O13 2.393917 1_555
Bi12 O6 2.685169 1_555
Bi13 O11 2.135230 1_455
Bi13 O1 2.225074 1_555
Bi13 O5 2.285671 1_565
Bi13 O12 2.393907 1_455
Bi13 O7 2.685171 1_565
O20 W0 1.903376 1_655
O21 W0 1.903376 1_565
O22 W0 1.903376 1_555
O23 W0 1.903376 1_665
