# generated using pymatgen
data_Pr2Si3Pd
_symmetry_space_group_name_H-M   'P 1'
_cell_length_a   8.28889643
_cell_length_b   8.28889643
_cell_length_c   8.60635000
_cell_angle_alpha   90.00000000
_cell_angle_beta   90.00000000
_cell_angle_gamma   120.00000342
_symmetry_Int_Tables_number   1
_chemical_formula_structural   Pr2Si3Pd
_chemical_formula_sum   'Pr8 Si12 Pd4'
_cell_volume   512.08616973
_cell_formula_units_Z   4
loop_
 _symmetry_equiv_pos_site_id
 _symmetry_equiv_pos_as_xyz
  1  'x, y, z'
loop_
 _atom_site_type_symbol
 _atom_site_label
 _atom_site_symmetry_multiplicity
 _atom_site_fract_x
 _atom_site_fract_y
 _atom_site_fract_z
 _atom_site_occupancy
  Pr  Pr0  1  0.49786400  0.50213600  0.75000000  1
  Pr  Pr1  1  0.50213600  0.49786400  0.25000000  1
  Pr  Pr2  1  0.00427200  0.50213600  0.75000000  1
  Pr  Pr3  1  0.99572800  0.49786400  0.25000000  1
  Pr  Pr4  1  0.49786400  0.99572800  0.75000000  1
  Pr  Pr5  1  0.50213600  0.00427200  0.25000000  1
  Pr  Pr6  1  0.00000000  0.00000000  0.75000000  1
  Pr  Pr7  1  0.00000000  0.00000000  0.25000000  1
  Si  Si0  1  0.83431000  0.16569000  0.00259600  1
  Si  Si1  1  0.16569000  0.83431000  0.99740400  1
  Si  Si2  1  0.33138000  0.16569000  0.00259600  1
  Si  Si3  1  0.16569000  0.83431000  0.50259600  1
  Si  Si4  1  0.66862000  0.83431000  0.99740400  1
  Si  Si5  1  0.83431000  0.16569000  0.49740400  1
  Si  Si6  1  0.83431000  0.66862000  0.00259600  1
  Si  Si7  1  0.66862000  0.83431000  0.50259600  1
  Si  Si8  1  0.16569000  0.33138000  0.99740400  1
  Si  Si9  1  0.33138000  0.16569000  0.49740400  1
  Si  Si10  1  0.16569000  0.33138000  0.50259600  1
  Si  Si11  1  0.83431000  0.66862000  0.49740400  1
  Pd  Pd0  1  0.66666700  0.33333300  0.99213100  1
  Pd  Pd1  1  0.33333300  0.66666700  0.00786900  1
  Pd  Pd2  1  0.33333300  0.66666700  0.49213100  1
  Pd  Pd3  1  0.66666700  0.33333300  0.50786900  1
loop_
_geom_bond_atom_site_label_1
_geom_bond_atom_site_label_2
_geom_bond_distance
_geom_bond_site_symmetry_2
Pr0 Si8 3.197016 1_555
Pr0 Si4 3.197016 1_555
Pr0 Si10 3.197016 1_555
Pr0 Si7 3.197016 1_555
Pr0 Si2 3.249475 1_556
Pr0 Si6 3.249475 1_556
Pr0 Si9 3.249475 1_555
Pr0 Si11 3.249475 1_555
Pr1 Si9 3.197016 1_555
Pr1 Si11 3.197016 1_555
Pr1 Si2 3.197016 1_555
Pr1 Si6 3.197016 1_555
Pr1 Si10 3.249475 1_555
Pr1 Si7 3.249475 1_555
Pr1 Si8 3.249475 1_554
Pr1 Si4 3.249475 1_554
Pr2 Si1 3.197016 1_555
Pr2 Si3 3.197016 1_555
Pr2 Si8 3.197016 1_555
Pr2 Si10 3.197016 1_555
Pr2 Si0 3.249475 1_456
Pr2 Si5 3.249475 1_455
Pr2 Si6 3.249475 1_456
Pr2 Si11 3.249475 1_455
Pr3 Si5 3.197016 1_555
Pr3 Si0 3.197016 1_555
Pr3 Si11 3.197016 1_555
Pr3 Si6 3.197016 1_555
Pr3 Si3 3.249475 1_655
Pr3 Si1 3.249475 1_654
Pr3 Si10 3.249475 1_655
Pr3 Si8 3.249475 1_654
Pr4 Si1 3.197016 1_555
Pr4 Si3 3.197016 1_555
Pr4 Si4 3.197016 1_555
Pr4 Si7 3.197016 1_555
Pr4 Si0 3.249475 1_566
Pr4 Si5 3.249475 1_565
Pr4 Si2 3.249475 1_566
Pr4 Si9 3.249475 1_565
Pr5 Si5 3.197016 1_555
Pr5 Si0 3.197016 1_555
Pr5 Si9 3.197016 1_555
Pr5 Si2 3.197016 1_555
Pr5 Si3 3.249475 1_545
Pr5 Si1 3.249475 1_544
Pr5 Si7 3.249475 1_545
Pr5 Si4 3.249475 1_544
Pr6 Si4 3.192532 1_445
Pr6 Si8 3.192532 1_555
Pr6 Si7 3.192532 1_445
Pr6 Si10 3.192532 1_555
Pr6 Si1 3.192533 1_545
Pr6 Si3 3.192533 1_545
Pr6 Si6 3.222506 1_446
Pr6 Si2 3.222506 1_556
Pr6 Si11 3.222506 1_445
Pr6 Si9 3.222506 1_555
Pr6 Si0 3.222506 1_456
Pr6 Si5 3.222506 1_455
Pr7 Si11 3.192532 1_445
Pr7 Si9 3.192532 1_555
Pr7 Si6 3.192532 1_445
Pr7 Si2 3.192532 1_555
Pr7 Si5 3.192533 1_455
Pr7 Si0 3.192533 1_455
Pr7 Si7 3.222506 1_445
Pr7 Si10 3.222506 1_555
Pr7 Si4 3.222506 1_444
Pr7 Si8 3.222506 1_554
Pr7 Si3 3.222506 1_545
Pr7 Si1 3.222506 1_544
Si0 Si4 2.379196 1_544
Si0 Si8 2.379196 1_654
Si1 Si6 2.379196 1_456
Si1 Si2 2.379196 1_566
Si2 Si8 2.379196 1_554
Si3 Si9 2.379196 1_565
Si4 Si6 2.379196 1_556
Si5 Si7 2.379196 1_545
Si10 Si5 2.379196 1_455
Si10 Si9 2.379196 1_555
Si11 Si3 2.379196 1_655
Si11 Si7 2.379196 1_555
Pd0 Si0 2.408500 1_556
Pd0 Si2 2.408507 1_556
Pd0 Si6 2.408507 1_556
Pd0 Pr4 3.196194 1_545
Pd0 Pr2 3.196194 1_655
Pd0 Pr0 3.196200 1_555
Pd0 Pr3 3.241141 1_556
Pd0 Pr5 3.241141 1_556
Pd0 Pr1 3.241147 1_556
Pd1 Si1 2.408500 1_554
Pd1 Si8 2.408507 1_554
Pd1 Si4 2.408507 1_554
Pd1 Pr5 3.196194 1_565
Pd1 Pr3 3.196194 1_455
Pd1 Pr1 3.196200 1_555
Pd1 Pr2 3.241141 1_554
Pd1 Pr4 3.241141 1_554
Pd1 Pr0 3.241147 1_554
Pd2 Si3 2.408500 1_555
Pd2 Si10 2.408507 1_555
Pd2 Si7 2.408507 1_555
Pd2 Pr5 3.196194 1_565
Pd2 Pr3 3.196194 1_455
Pd2 Pr1 3.196200 1_555
Pd2 Pr4 3.241141 1_555
Pd2 Pr2 3.241141 1_555
Pd2 Pr0 3.241147 1_555
Pd3 Si5 2.408500 1_555
Pd3 Si9 2.408507 1_555
Pd3 Si11 2.408507 1_555
Pd3 Pr2 3.196194 1_655
Pd3 Pr4 3.196194 1_545
Pd3 Pr0 3.196200 1_555
Pd3 Pr3 3.241141 1_555
Pd3 Pr5 3.241141 1_555
Pd3 Pr1 3.241147 1_555
