# generated using pymatgen
data_Sr2Mg
_symmetry_space_group_name_H-M   'P 1'
_cell_length_a   8.51457230
_cell_length_b   8.51457230
_cell_length_c   34.75165800
_cell_angle_alpha   90.00000000
_cell_angle_beta   90.00000000
_cell_angle_gamma   120.00000233
_symmetry_Int_Tables_number   1
_chemical_formula_structural   Sr2Mg
_chemical_formula_sum   'Sr32 Mg16'
_cell_volume   2181.88484708
_cell_formula_units_Z   16
loop_
 _symmetry_equiv_pos_site_id
 _symmetry_equiv_pos_as_xyz
  1  'x, y, z'
loop_
 _atom_site_type_symbol
 _atom_site_label
 _atom_site_symmetry_multiplicity
 _atom_site_fract_x
 _atom_site_fract_y
 _atom_site_fract_z
 _atom_site_occupancy
  Sr  Sr0_0  1  0.00000000  0.00000000  0.00000000  1
  Sr  Sr0_1  1  0.00000000  0.00000000  0.50000000  1
  Sr  Sr0_2  1  0.00000000  0.50000000  0.00000000  1
  Sr  Sr0_3  1  0.00000000  0.50000000  0.50000000  1
  Sr  Sr0_4  1  0.50000000  0.00000000  0.00000000  1
  Sr  Sr0_5  1  0.50000000  0.00000000  0.50000000  1
  Sr  Sr0_6  1  0.50000000  0.50000000  0.00000000  1
  Sr  Sr0_7  1  0.50000000  0.50000000  0.50000000  1
  Sr  Sr1_0  1  0.16666650  0.33333350  0.40004000  1
  Sr  Sr1_1  1  0.16666650  0.33333350  0.90004000  1
  Sr  Sr1_2  1  0.16666650  0.83333350  0.40004000  1
  Sr  Sr1_3  1  0.16666650  0.83333350  0.90004000  1
  Sr  Sr1_4  1  0.66666650  0.33333350  0.40004000  1
  Sr  Sr1_5  1  0.66666650  0.33333350  0.90004000  1
  Sr  Sr1_6  1  0.66666650  0.83333350  0.40004000  1
  Sr  Sr1_7  1  0.66666650  0.83333350  0.90004000  1
  Sr  Sr2_0  1  0.16666650  0.33333350  0.25000000  1
  Sr  Sr2_1  1  0.16666650  0.33333350  0.75000000  1
  Sr  Sr2_2  1  0.16666650  0.83333350  0.25000000  1
  Sr  Sr2_3  1  0.16666650  0.83333350  0.75000000  1
  Sr  Sr2_4  1  0.66666650  0.33333350  0.25000000  1
  Sr  Sr2_5  1  0.66666650  0.33333350  0.75000000  1
  Sr  Sr2_6  1  0.66666650  0.83333350  0.25000000  1
  Sr  Sr2_7  1  0.66666650  0.83333350  0.75000000  1
  Sr  Sr3_0  1  0.16666650  0.33333350  0.09996000  1
  Sr  Sr3_1  1  0.16666650  0.33333350  0.59996000  1
  Sr  Sr3_2  1  0.16666650  0.83333350  0.09996000  1
  Sr  Sr3_3  1  0.16666650  0.83333350  0.59996000  1
  Sr  Sr3_4  1  0.66666650  0.33333350  0.09996000  1
  Sr  Sr3_5  1  0.66666650  0.33333350  0.59996000  1
  Sr  Sr3_6  1  0.66666650  0.83333350  0.09996000  1
  Sr  Sr3_7  1  0.66666650  0.83333350  0.59996000  1
  Mg  Mg0_0  1  0.00000000  0.00000000  0.32475500  1
  Mg  Mg0_1  1  0.00000000  0.00000000  0.82475500  1
  Mg  Mg0_2  1  0.00000000  0.50000000  0.32475500  1
  Mg  Mg0_3  1  0.00000000  0.50000000  0.82475500  1
  Mg  Mg0_4  1  0.50000000  0.00000000  0.32475500  1
  Mg  Mg0_5  1  0.50000000  0.00000000  0.82475500  1
  Mg  Mg0_6  1  0.50000000  0.50000000  0.32475500  1
  Mg  Mg0_7  1  0.50000000  0.50000000  0.82475500  1
  Mg  Mg1_0  1  0.00000000  0.00000000  0.17524500  1
  Mg  Mg1_1  1  0.00000000  0.00000000  0.67524500  1
  Mg  Mg1_2  1  0.00000000  0.50000000  0.17524500  1
  Mg  Mg1_3  1  0.00000000  0.50000000  0.67524500  1
  Mg  Mg1_4  1  0.50000000  0.00000000  0.17524500  1
  Mg  Mg1_5  1  0.50000000  0.00000000  0.67524500  1
  Mg  Mg1_6  1  0.50000000  0.50000000  0.17524500  1
  Mg  Mg1_7  1  0.50000000  0.50000000  0.67524500  1
loop_
_geom_bond_atom_site_label_1
_geom_bond_atom_site_label_2
_geom_bond_distance
_geom_bond_site_symmetry_2
Sr0_0 Sr3_2 4.255420 1_545
Sr0_0 Sr1_3 4.255420 1_544
Sr0_0 Sr3_0 4.255422 1_555
Sr0_0 Sr3_6 4.255422 1_445
Sr0_0 Sr1_1 4.255422 1_554
Sr0_0 Sr1_7 4.255422 1_444
Sr0_0 Sr0_6 4.257286 1_445
Sr0_0 Sr0_6 4.257286 1_555
Sr0_0 Sr0_4 4.257286 1_455
Sr0_0 Sr0_4 4.257286 1_555
Sr0_0 Sr0_2 4.257286 1_545
Sr0_0 Sr0_2 4.257286 1_555
Sr0_1 Sr1_2 4.255420 1_545
Sr0_1 Sr3_3 4.255420 1_545
Sr0_1 Sr1_0 4.255422 1_555
Sr0_1 Sr3_7 4.255422 1_445
Sr0_1 Sr3_1 4.255422 1_555
Sr0_1 Sr1_6 4.255422 1_445
Sr0_1 Sr0_7 4.257286 1_555
Sr0_1 Sr0_7 4.257286 1_445
Sr0_1 Sr0_3 4.257286 1_555
Sr0_1 Sr0_3 4.257286 1_545
Sr0_1 Sr0_5 4.257286 1_455
Sr0_1 Sr0_5 4.257286 1_555
Sr0_2 Sr3_0 4.255420 1_555
Sr0_2 Sr1_1 4.255420 1_554
Sr0_2 Sr3_2 4.255422 1_555
Sr0_2 Sr3_4 4.255422 1_455
Sr0_2 Sr1_3 4.255422 1_554
Sr0_2 Sr1_5 4.255422 1_454
Sr0_2 Sr0_4 4.257286 1_565
Sr0_2 Sr0_4 4.257286 1_455
Sr0_2 Sr0_6 4.257286 1_455
Sr0_2 Sr0_6 4.257286 1_555
Sr0_3 Sr1_0 4.255420 1_555
Sr0_3 Sr3_1 4.255420 1_555
Sr0_3 Sr1_2 4.255422 1_555
Sr0_3 Sr3_3 4.255422 1_555
Sr0_3 Sr1_4 4.255422 1_455
Sr0_3 Sr3_5 4.255422 1_455
Sr0_3 Sr0_5 4.257286 1_455
Sr0_3 Sr0_5 4.257286 1_565
Sr0_3 Sr0_7 4.257286 1_455
Sr0_3 Sr0_7 4.257286 1_555
Sr0_4 Sr3_6 4.255420 1_545
Sr0_4 Sr1_7 4.255420 1_544
Sr0_4 Sr3_2 4.255422 1_545
Sr0_4 Sr3_4 4.255422 1_555
Sr0_4 Sr1_5 4.255422 1_554
Sr0_4 Sr1_3 4.255422 1_544
Sr0_4 Sr0_6 4.257286 1_555
Sr0_4 Sr0_6 4.257286 1_545
Sr0_5 Sr1_6 4.255420 1_545
Sr0_5 Sr3_7 4.255420 1_545
Sr0_5 Sr1_2 4.255422 1_545
Sr0_5 Sr3_3 4.255422 1_545
Sr0_5 Sr1_4 4.255422 1_555
Sr0_5 Sr3_5 4.255422 1_555
Sr0_5 Sr0_7 4.257286 1_545
Sr0_5 Sr0_7 4.257286 1_555
Sr0_6 Sr3_4 4.255420 1_555
Sr0_6 Sr1_5 4.255420 1_554
Sr0_6 Sr3_6 4.255422 1_555
Sr0_6 Sr3_0 4.255422 1_555
Sr0_6 Sr1_7 4.255422 1_554
Sr0_6 Sr1_1 4.255422 1_554
Sr0_7 Sr1_4 4.255420 1_555
Sr0_7 Sr3_5 4.255420 1_555
Sr0_7 Sr1_0 4.255422 1_555
Sr0_7 Sr1_6 4.255422 1_555
Sr0_7 Sr3_1 4.255422 1_555
Sr0_7 Sr3_7 4.255422 1_555
Mg0_0 Sr2_2 3.576361 1_545
Mg0_0 Sr2_0 3.576364 1_555
Mg0_0 Sr2_6 3.576364 1_445
Mg0_0 Sr1_2 3.589763 1_545
Mg0_0 Sr1_6 3.589765 1_445
Mg0_0 Sr1_0 3.589765 1_555
Mg0_1 Sr2_3 3.576361 1_545
Mg0_1 Sr2_1 3.576364 1_555
Mg0_1 Sr2_7 3.576364 1_445
Mg0_1 Sr1_3 3.589763 1_545
Mg0_1 Sr1_1 3.589765 1_555
Mg0_1 Sr1_7 3.589765 1_445
Mg0_2 Sr2_0 3.576361 1_555
Mg0_2 Sr2_2 3.576364 1_555
Mg0_2 Sr2_4 3.576364 1_455
Mg0_2 Sr1_0 3.589763 1_555
Mg0_2 Sr1_2 3.589765 1_555
Mg0_2 Sr1_4 3.589765 1_455
Mg0_3 Sr2_1 3.576361 1_555
Mg0_3 Sr2_3 3.576364 1_555
Mg0_3 Sr2_5 3.576364 1_455
Mg0_3 Sr1_1 3.589763 1_555
Mg0_3 Sr1_3 3.589765 1_555
Mg0_3 Sr1_5 3.589765 1_455
Mg0_4 Sr2_6 3.576361 1_545
Mg0_4 Sr2_2 3.576364 1_545
Mg0_4 Sr2_4 3.576364 1_555
Mg0_4 Sr1_6 3.589763 1_545
Mg0_4 Sr1_2 3.589765 1_545
Mg0_4 Sr1_4 3.589765 1_555
Mg0_5 Sr2_7 3.576361 1_545
Mg0_5 Sr2_3 3.576364 1_545
Mg0_5 Sr2_5 3.576364 1_555
Mg0_5 Sr1_7 3.589763 1_545
Mg0_5 Sr1_3 3.589765 1_545
Mg0_5 Sr1_5 3.589765 1_555
Mg0_6 Sr2_4 3.576361 1_555
Mg0_6 Sr2_6 3.576364 1_555
Mg0_6 Sr2_0 3.576364 1_555
Mg0_6 Sr1_4 3.589763 1_555
Mg0_6 Sr1_6 3.589765 1_555
Mg0_6 Sr1_0 3.589765 1_555
Mg0_7 Sr2_5 3.576361 1_555
Mg0_7 Sr2_7 3.576364 1_555
Mg0_7 Sr2_1 3.576364 1_555
Mg0_7 Sr1_5 3.589763 1_555
Mg0_7 Sr1_7 3.589765 1_555
Mg0_7 Sr1_1 3.589765 1_555
Mg1_0 Sr2_2 3.576361 1_545
Mg1_0 Sr2_0 3.576364 1_555
Mg1_0 Sr2_6 3.576364 1_445
Mg1_0 Sr3_2 3.589763 1_545
Mg1_0 Sr3_0 3.589765 1_555
Mg1_0 Sr3_6 3.589765 1_445
Mg1_1 Sr2_3 3.576361 1_545
Mg1_1 Sr2_1 3.576364 1_555
Mg1_1 Sr2_7 3.576364 1_445
Mg1_1 Sr3_3 3.589763 1_545
Mg1_1 Sr3_1 3.589765 1_555
Mg1_1 Sr3_7 3.589765 1_445
Mg1_2 Sr2_0 3.576361 1_555
Mg1_2 Sr2_2 3.576364 1_555
Mg1_2 Sr2_4 3.576364 1_455
Mg1_2 Sr3_0 3.589763 1_555
Mg1_2 Sr3_4 3.589765 1_455
Mg1_2 Sr3_2 3.589765 1_555
Mg1_3 Sr2_1 3.576361 1_555
Mg1_3 Sr2_3 3.576364 1_555
Mg1_3 Sr2_5 3.576364 1_455
Mg1_3 Sr3_1 3.589763 1_555
Mg1_3 Sr3_3 3.589765 1_555
Mg1_3 Sr3_5 3.589765 1_455
Mg1_4 Sr2_6 3.576361 1_545
Mg1_4 Sr2_2 3.576364 1_545
Mg1_4 Sr2_4 3.576364 1_555
Mg1_4 Sr3_6 3.589763 1_545
Mg1_4 Sr3_4 3.589765 1_555
Mg1_4 Sr3_2 3.589765 1_545
Mg1_5 Sr2_7 3.576361 1_545
Mg1_5 Sr2_3 3.576364 1_545
Mg1_5 Sr2_5 3.576364 1_555
Mg1_5 Sr3_7 3.589763 1_545
Mg1_5 Sr3_3 3.589765 1_545
Mg1_5 Sr3_5 3.589765 1_555
Mg1_6 Sr2_4 3.576361 1_555
Mg1_6 Sr2_6 3.576364 1_555
Mg1_6 Sr2_0 3.576364 1_555
Mg1_6 Sr3_4 3.589763 1_555
Mg1_6 Sr3_6 3.589765 1_555
Mg1_6 Sr3_0 3.589765 1_555
Mg1_7 Sr2_5 3.576361 1_555
Mg1_7 Sr2_7 3.576364 1_555
Mg1_7 Sr2_1 3.576364 1_555
Mg1_7 Sr3_5 3.589763 1_555
Mg1_7 Sr3_7 3.589765 1_555
Mg1_7 Sr3_1 3.589765 1_555
