# generated using pymatgen
data_CeSiPt
_symmetry_space_group_name_H-M   'P 1'
_cell_length_a   7.86836661
_cell_length_b   7.86836661
_cell_length_c   7.86836661
_cell_angle_alpha   149.23571828
_cell_angle_beta   149.22474158
_cell_angle_gamma   44.07252987
_symmetry_Int_Tables_number   1
_chemical_formula_structural   CeSiPt
_chemical_formula_sum   'Ce2 Si2 Pt2'
_cell_volume   127.13020454
_cell_formula_units_Z   2
loop_
 _symmetry_equiv_pos_site_id
 _symmetry_equiv_pos_as_xyz
  1  'x, y, z'
loop_
 _atom_site_type_symbol
 _atom_site_label
 _atom_site_symmetry_multiplicity
 _atom_site_fract_x
 _atom_site_fract_y
 _atom_site_fract_z
 _atom_site_occupancy
  Ce  Ce0  1  0.74915152  0.24915152  0.50000000  1
  Ce  Ce1  1  -0.00061555  -0.00061555  0.00000000  1
  Si  Si0  1  0.16891173  0.66891173  0.50000000  1
  Si  Si1  1  0.41898603  0.41898603  -0.00000000  1
  Pt  Pt0  1  0.33584598  0.83584598  0.50000000  1
  Pt  Pt1  1  0.58572030  0.58572030  -0.00000000  1
loop_
_geom_bond_atom_site_label_1
_geom_bond_atom_site_label_2
_geom_bond_distance
_geom_bond_site_symmetry_2
Ce0 Pt1 3.168518 1_545
Ce0 Pt1 3.168518 1_556
Ce0 Si0 3.175726 1_645
Ce0 Si0 3.175726 1_544
Ce0 Si0 3.175726 1_656
Ce0 Si0 3.175726 1_555
Ce0 Pt0 3.211621 1_656
Ce0 Pt0 3.211621 1_544
Ce0 Pt0 3.211621 1_555
Ce0 Pt0 3.211621 1_645
Ce0 Si1 3.239849 1_555
Ce0 Si1 3.239849 1_656
Ce1 Pt0 3.170174 1_444
Ce1 Pt0 3.170174 1_545
Ce1 Si1 3.176579 1_455
Ce1 Si1 3.176579 1_444
Ce1 Si1 3.176579 1_556
Ce1 Si1 3.176579 1_545
Ce1 Pt1 3.209565 1_545
Ce1 Pt1 3.209565 1_556
Ce1 Pt1 3.209565 1_444
Ce1 Pt1 3.209565 1_455
Ce1 Si0 3.235955 1_544
Ce1 Si0 3.235955 1_555
Pt0 Si1 2.413902 1_555
Pt0 Si1 2.413902 1_566
Pt0 Si0 2.435088 1_555
Pt1 Si0 2.414907 1_554
Pt1 Si0 2.414907 1_655
Pt1 Si1 2.432171 1_555
