# generated using pymatgen
data_AcLa
_symmetry_space_group_name_H-M   'P 1'
_cell_length_a   7.98123799
_cell_length_b   7.98123799
_cell_length_c   12.28280136
_cell_angle_alpha   90.00000000
_cell_angle_beta   90.00000000
_cell_angle_gamma   120.00001349
_symmetry_Int_Tables_number   1
_chemical_formula_structural   AcLa
_chemical_formula_sum   'Ac8 La8'
_cell_volume   677.59239486
_cell_formula_units_Z   8
loop_
 _symmetry_equiv_pos_site_id
 _symmetry_equiv_pos_as_xyz
  1  'x, y, z'
loop_
 _atom_site_type_symbol
 _atom_site_label
 _atom_site_symmetry_multiplicity
 _atom_site_fract_x
 _atom_site_fract_y
 _atom_site_fract_z
 _atom_site_occupancy
  Ac  Ac0_0  1  0.00000000  0.00000000  0.25000000  1
  Ac  Ac0_1  1  0.00000000  0.00000000  0.75000000  1
  Ac  Ac0_2  1  1.00000000  0.50000000  0.25000000  1
  Ac  Ac0_3  1  1.00000000  0.50000000  0.75000000  1
  Ac  Ac0_4  1  0.50000000  0.00000000  0.25000000  1
  Ac  Ac0_5  1  0.50000000  0.00000000  0.75000000  1
  Ac  Ac0_6  1  0.50000000  0.50000000  0.25000000  1
  Ac  Ac0_7  1  0.50000000  0.50000000  0.75000000  1
  La  La0_0  1  0.33333350  0.16666650  0.00000000  1
  La  La0_1  1  0.33333350  0.16666650  0.50000000  1
  La  La0_2  1  0.33333350  0.66666650  0.00000000  1
  La  La0_3  1  0.33333350  0.66666650  0.50000000  1
  La  La0_4  1  0.83333350  0.16666650  0.00000000  1
  La  La0_5  1  0.83333350  0.16666650  0.50000000  1
  La  La0_6  1  0.83333350  0.66666650  0.00000000  1
  La  La0_7  1  0.83333350  0.66666650  0.50000000  1
loop_
_geom_bond_atom_site_label_1
_geom_bond_atom_site_label_2
_geom_bond_distance
_geom_bond_site_symmetry_2
Ac0_0 La0_5 3.838950 1_455
Ac0_0 La0_4 3.838950 1_455
Ac0_0 La0_0 3.838952 1_555
Ac0_0 La0_1 3.838952 1_555
Ac0_0 La0_7 3.838952 1_445
Ac0_0 La0_6 3.838952 1_445
Ac0_0 Ac0_6 3.990618 1_555
Ac0_0 Ac0_6 3.990618 1_445
Ac0_0 Ac0_4 3.990619 1_555
Ac0_0 Ac0_2 3.990619 1_445
Ac0_0 Ac0_4 3.990619 1_455
Ac0_0 Ac0_2 3.990619 1_455
Ac0_1 La0_4 3.838950 1_456
Ac0_1 La0_5 3.838950 1_455
Ac0_1 La0_0 3.838952 1_556
Ac0_1 La0_1 3.838952 1_555
Ac0_1 La0_7 3.838952 1_445
Ac0_1 La0_6 3.838952 1_446
Ac0_1 Ac0_7 3.990618 1_555
Ac0_1 Ac0_7 3.990618 1_445
Ac0_1 Ac0_5 3.990619 1_555
Ac0_1 Ac0_3 3.990619 1_445
Ac0_1 Ac0_5 3.990619 1_455
Ac0_1 Ac0_3 3.990619 1_455
Ac0_2 La0_7 3.838950 1_555
Ac0_2 La0_6 3.838950 1_555
Ac0_2 La0_4 3.838952 1_555
Ac0_2 La0_5 3.838952 1_555
Ac0_2 La0_2 3.838952 1_655
Ac0_2 La0_3 3.838952 1_655
Ac0_2 Ac0_4 3.990618 1_555
Ac0_2 Ac0_4 3.990618 1_665
Ac0_2 Ac0_6 3.990619 1_555
Ac0_2 Ac0_6 3.990619 1_655
Ac0_3 La0_7 3.838950 1_555
Ac0_3 La0_6 3.838950 1_556
Ac0_3 La0_4 3.838952 1_556
Ac0_3 La0_5 3.838952 1_555
Ac0_3 La0_2 3.838952 1_656
Ac0_3 La0_3 3.838952 1_655
Ac0_3 Ac0_5 3.990618 1_555
Ac0_3 Ac0_5 3.990618 1_665
Ac0_3 Ac0_7 3.990619 1_555
Ac0_3 Ac0_7 3.990619 1_655
Ac0_4 La0_0 3.838950 1_555
Ac0_4 La0_1 3.838950 1_555
Ac0_4 La0_5 3.838952 1_555
Ac0_4 La0_2 3.838952 1_545
Ac0_4 La0_4 3.838952 1_555
Ac0_4 La0_3 3.838952 1_545
Ac0_4 Ac0_6 3.990619 1_545
Ac0_4 Ac0_6 3.990619 1_555
Ac0_5 La0_0 3.838950 1_556
Ac0_5 La0_1 3.838950 1_555
Ac0_5 La0_5 3.838952 1_555
Ac0_5 La0_4 3.838952 1_556
Ac0_5 La0_2 3.838952 1_546
Ac0_5 La0_3 3.838952 1_545
Ac0_5 Ac0_7 3.990619 1_545
Ac0_5 Ac0_7 3.990619 1_555
Ac0_6 La0_2 3.838950 1_555
Ac0_6 La0_3 3.838950 1_555
Ac0_6 La0_6 3.838952 1_555
Ac0_6 La0_7 3.838952 1_555
Ac0_6 La0_1 3.838952 1_555
Ac0_6 La0_0 3.838952 1_555
Ac0_7 La0_3 3.838950 1_555
Ac0_7 La0_2 3.838950 1_556
Ac0_7 La0_7 3.838952 1_555
Ac0_7 La0_6 3.838952 1_556
Ac0_7 La0_1 3.838952 1_555
Ac0_7 La0_0 3.838952 1_556
La0_0 La0_6 3.990618 1_555
La0_0 La0_6 3.990618 1_445
La0_0 La0_2 3.990619 1_545
La0_0 La0_4 3.990619 1_455
La0_0 La0_4 3.990619 1_555
La0_0 La0_2 3.990619 1_555
La0_1 La0_7 3.990618 1_555
La0_1 La0_7 3.990618 1_445
La0_1 La0_3 3.990619 1_545
La0_1 La0_5 3.990619 1_555
La0_1 La0_5 3.990619 1_455
La0_1 La0_3 3.990619 1_555
La0_2 La0_4 3.990618 1_455
La0_2 La0_4 3.990618 1_565
La0_2 La0_6 3.990619 1_455
La0_2 La0_6 3.990619 1_555
La0_3 La0_5 3.990618 1_565
La0_3 La0_5 3.990618 1_455
La0_3 La0_7 3.990619 1_455
La0_3 La0_7 3.990619 1_555
La0_4 La0_6 3.990619 1_545
La0_4 La0_6 3.990619 1_555
La0_5 La0_7 3.990619 1_545
La0_5 La0_7 3.990619 1_555
