# generated using pymatgen
data_YbMgAu
_symmetry_space_group_name_H-M   'P 1'
_cell_length_a   4.43107800
_cell_length_b   7.29539700
_cell_length_c   8.70539000
_cell_angle_alpha   90.00000000
_cell_angle_beta   90.00000000
_cell_angle_gamma   90.00000000
_symmetry_Int_Tables_number   1
_chemical_formula_structural   YbMgAu
_chemical_formula_sum   'Yb4 Mg4 Au4'
_cell_volume   281.41455608
_cell_formula_units_Z   4
loop_
 _symmetry_equiv_pos_site_id
 _symmetry_equiv_pos_as_xyz
  1  'x, y, z'
loop_
 _atom_site_type_symbol
 _atom_site_label
 _atom_site_symmetry_multiplicity
 _atom_site_fract_x
 _atom_site_fract_y
 _atom_site_fract_z
 _atom_site_occupancy
  Yb  Yb0  1  0.75000000  0.96254000  0.67507100  1
  Yb  Yb1  1  0.25000000  0.53746000  0.17507100  1
  Yb  Yb2  1  0.75000000  0.46254000  0.82492900  1
  Yb  Yb3  1  0.25000000  0.03746000  0.32492900  1
  Mg  Mg0  1  0.25000000  0.13766400  0.94032800  1
  Mg  Mg1  1  0.25000000  0.63766400  0.55967200  1
  Mg  Mg2  1  0.75000000  0.86233600  0.05967200  1
  Mg  Mg3  1  0.75000000  0.36233600  0.44032800  1
  Au  Au0  1  0.25000000  0.25925300  0.62876000  1
  Au  Au1  1  0.25000000  0.75925300  0.87124000  1
  Au  Au2  1  0.75000000  0.24074700  0.12876000  1
  Au  Au3  1  0.75000000  0.74074700  0.37124000  1
loop_
_geom_bond_atom_site_label_1
_geom_bond_atom_site_label_2
_geom_bond_distance
_geom_bond_site_symmetry_2
Au0 Mg1 2.825414 1_555
Au0 Mg0 2.853686 1_555
Au0 Mg3 2.857445 1_555
Au0 Mg3 2.857445 1_455
Au0 Yb3 3.100644 1_555
Au0 Yb0 3.123589 1_545
Au0 Yb0 3.123589 1_445
Au0 Yb2 3.166135 1_555
Au0 Yb2 3.166135 1_455
Au1 Mg0 2.825414 1_565
Au1 Mg1 2.853686 1_555
Au1 Mg2 2.857445 1_456
Au1 Mg2 2.857445 1_556
Au1 Yb1 3.100644 1_556
Au1 Yb2 3.123589 1_455
Au1 Yb2 3.123589 1_555
Au1 Yb0 3.166135 1_455
Au1 Yb0 3.166135 1_555
Au2 Mg2 2.825414 1_545
Au2 Mg3 2.853686 1_555
Au2 Mg0 2.857445 1_654
Au2 Mg0 2.857445 1_554
Au2 Yb2 3.100644 1_554
Au2 Yb1 3.123589 1_655
Au2 Yb1 3.123589 1_555
Au2 Yb3 3.166135 1_555
Au2 Yb3 3.166135 1_655
Au3 Mg3 2.825414 1_555
Au3 Mg2 2.853686 1_555
Au3 Mg1 2.857445 1_655
Au3 Mg1 2.857445 1_555
Au3 Yb0 3.100644 1_555
Au3 Yb3 3.123589 1_565
Au3 Yb3 3.123589 1_665
Au3 Yb1 3.166135 1_655
Au3 Yb1 3.166135 1_555
