# generated using pymatgen
data_KMg14MnO16
_symmetry_space_group_name_H-M   'P 1'
_cell_length_a   4.41058800
_cell_length_b   8.54495300
_cell_length_c   8.66193300
_cell_angle_alpha   90.00000000
_cell_angle_beta   90.00000000
_cell_angle_gamma   90.00000000
_symmetry_Int_Tables_number   1
_chemical_formula_structural   KMg14MnO16
_chemical_formula_sum   'K1 Mg14 Mn1 O16'
_cell_volume   326.45324505
_cell_formula_units_Z   1
loop_
 _symmetry_equiv_pos_site_id
 _symmetry_equiv_pos_as_xyz
  1  'x, y, z'
loop_
 _atom_site_type_symbol
 _atom_site_label
 _atom_site_symmetry_multiplicity
 _atom_site_fract_x
 _atom_site_fract_y
 _atom_site_fract_z
 _atom_site_occupancy
  K  K0  1  0.00000000  0.50000000  0.00000000  1
  Mg  Mg0  1  0.00000000  0.00000000  0.50000000  1
  Mg  Mg1  1  0.00000000  0.50000000  0.50000000  1
  Mg  Mg2  1  0.50000000  0.74725600  0.00000000  1
  Mg  Mg3  1  0.50000000  0.25274400  0.00000000  1
  Mg  Mg4  1  0.50000000  0.74850700  0.50000000  1
  Mg  Mg5  1  0.50000000  0.25149300  0.50000000  1
  Mg  Mg6  1  0.50000000  0.00000000  0.74828700  1
  Mg  Mg7  1  0.50000000  0.50000000  0.74802400  1
  Mg  Mg8  1  0.50000000  0.00000000  0.25171300  1
  Mg  Mg9  1  0.50000000  0.50000000  0.25197600  1
  Mg  Mg10  1  0.00000000  0.74782600  0.74374700  1
  Mg  Mg11  1  0.00000000  0.25217400  0.74374700  1
  Mg  Mg12  1  0.00000000  0.74782600  0.25625300  1
  Mg  Mg13  1  0.00000000  0.25217400  0.25625300  1
  Mn  Mn0  1  0.00000000  0.00000000  0.00000000  1
  O  O0  1  0.00000000  0.00000000  0.75065500  1
  O  O1  1  0.00000000  0.50000000  0.72518600  1
  O  O2  1  0.00000000  0.00000000  0.24934500  1
  O  O3  1  0.00000000  0.50000000  0.27481400  1
  O  O4  1  0.50000000  0.75149300  0.75111400  1
  O  O5  1  0.50000000  0.24850700  0.75111400  1
  O  O6  1  0.50000000  0.75149300  0.24888600  1
  O  O7  1  0.50000000  0.24850700  0.24888600  1
  O  O8  1  0.50000000  0.00000000  0.00000000  1
  O  O9  1  0.50000000  0.50000000  0.00000000  1
  O  O10  1  0.50000000  0.00000000  0.50000000  1
  O  O11  1  0.50000000  0.50000000  0.50000000  1
  O  O12  1  0.00000000  0.78004700  0.00000000  1
  O  O13  1  0.00000000  0.21995300  0.00000000  1
  O  O14  1  0.00000000  0.75732300  0.50000000  1
  O  O15  1  0.00000000  0.24267700  0.50000000  1
loop_
_geom_bond_atom_site_label_1
_geom_bond_atom_site_label_2
_geom_bond_distance
_geom_bond_site_symmetry_2
K0 O9 2.205294 1_455
K0 O9 2.205294 1_555
K0 O1 2.380420 1_554
K0 O3 2.380420 1_555
K0 O13 2.392988 1_555
K0 O12 2.392988 1_555
Mg0 O15 2.073664 1_555
Mg0 O14 2.073664 1_545
Mg0 O0 2.171157 1_555
Mg0 O2 2.171157 1_555
Mg0 O10 2.205294 1_455
Mg0 O10 2.205294 1_555
Mg1 O3 1.950546 1_555
Mg1 O1 1.950546 1_555
Mg1 O14 2.198813 1_555
Mg1 O15 2.198813 1_555
Mg1 O11 2.205294 1_555
Mg1 O11 2.205294 1_455
Mg2 O9 2.112791 1_555
Mg2 O6 2.156138 1_555
Mg2 O4 2.156138 1_554
Mg2 O8 2.159686 1_565
Mg2 O12 2.223023 1_655
Mg2 O12 2.223023 1_555
Mg3 O9 2.112791 1_555
Mg3 O7 2.156138 1_555
Mg3 O5 2.156138 1_554
Mg3 O8 2.159686 1_555
Mg3 O13 2.223023 1_655
Mg3 O13 2.223023 1_555
Mg4 O11 2.123481 1_555
Mg4 O10 2.148996 1_565
Mg4 O4 2.175282 1_555
Mg4 O6 2.175282 1_555
Mg4 O14 2.206580 1_555
Mg4 O14 2.206580 1_655
Mg5 O11 2.123481 1_555
Mg5 O10 2.148996 1_555
Mg5 O5 2.175282 1_555
Mg5 O7 2.175282 1_555
Mg5 O15 2.206580 1_655
Mg5 O15 2.206580 1_555
Mg6 O5 2.123622 1_555
Mg6 O4 2.123622 1_545
Mg6 O10 2.150645 1_555
Mg6 O8 2.180321 1_556
Mg6 O0 2.205389 1_555
Mg6 O0 2.205389 1_655
Mg7 O11 2.148367 1_555
Mg7 O4 2.149163 1_555
Mg7 O5 2.149163 1_555
Mg7 O9 2.182599 1_556
Mg7 O1 2.214149 1_655
Mg7 O1 2.214149 1_555
Mg8 O7 2.123622 1_555
Mg8 O6 2.123622 1_545
Mg8 O10 2.150645 1_555
Mg8 O8 2.180321 1_555
Mg8 O2 2.205389 1_555
Mg8 O2 2.205389 1_655
Mg9 O11 2.148367 1_555
Mg9 O7 2.149163 1_555
Mg9 O6 2.149163 1_555
Mg9 O9 2.182599 1_555
Mg9 O3 2.214149 1_655
Mg9 O3 2.214149 1_555
Mg10 O14 2.112879 1_555
Mg10 O1 2.123756 1_555
Mg10 O0 2.155646 1_565
Mg10 O4 2.206440 1_555
Mg10 O4 2.206440 1_455
Mg10 O12 2.236657 1_556
Mg11 O15 2.112879 1_555
Mg11 O1 2.123756 1_555
Mg11 O0 2.155646 1_555
Mg11 O5 2.206440 1_455
Mg11 O5 2.206440 1_555
Mg11 O13 2.236657 1_556
Mg12 O14 2.112879 1_555
Mg12 O3 2.123756 1_555
Mg12 O2 2.155646 1_565
Mg12 O6 2.206440 1_455
Mg12 O6 2.206440 1_555
Mg12 O12 2.236657 1_555
Mg13 O15 2.112879 1_555
Mg13 O3 2.123756 1_555
Mg13 O2 2.155646 1_555
Mg13 O7 2.206440 1_455
Mg13 O7 2.206440 1_555
Mg13 O13 2.236657 1_555
Mn0 O12 1.879488 1_545
Mn0 O13 1.879488 1_555
Mn0 O2 2.159810 1_555
Mn0 O0 2.159810 1_554
Mn0 O8 2.205294 1_455
Mn0 O8 2.205294 1_555
