# generated using pymatgen
data_Li4FeC6ClO21
_symmetry_space_group_name_H-M   'P 1'
_cell_length_a   9.39426315
_cell_length_b   9.39426285
_cell_length_c   25.62449177
_cell_angle_alpha   90.00000000
_cell_angle_beta   90.00000000
_cell_angle_gamma   119.91291229
_symmetry_Int_Tables_number   1
_chemical_formula_structural   Li4FeC6ClO21
_chemical_formula_sum   'Li16 Fe4 C24 Cl4 O84'
_cell_volume   1960.16111415
_cell_formula_units_Z   4
loop_
 _symmetry_equiv_pos_site_id
 _symmetry_equiv_pos_as_xyz
  1  'x, y, z'
loop_
 _atom_site_type_symbol
 _atom_site_label
 _atom_site_symmetry_multiplicity
 _atom_site_fract_x
 _atom_site_fract_y
 _atom_site_fract_z
 _atom_site_occupancy
  Li  Li0  1  0.00128088  0.00096817  0.89035898  1
  Li  Li1  1  0.00128088  0.00096817  0.60964102  1
  Li  Li2  1  0.99903183  0.99871912  0.39035898  1
  Li  Li3  1  0.99903183  0.99871912  0.10964102  1
  Li  Li4  1  0.87258699  0.74148984  0.00056069  1
  Li  Li5  1  0.25851016  0.12741301  0.99943931  1
  Li  Li6  1  0.86985416  0.13014584  0.00000000  1
  Li  Li7  1  0.87258699  0.74148984  0.49943931  1
  Li  Li8  1  0.25851016  0.12741301  0.50056069  1
  Li  Li9  1  0.86985416  0.13014584  0.50000000  1
  Li  Li10  1  0.94972484  0.61862699  0.75000000  1
  Li  Li11  1  0.37923435  0.32589151  0.75000000  1
  Li  Li12  1  0.66915175  0.05202456  0.75000000  1
  Li  Li13  1  0.38137301  0.05027516  0.25000000  1
  Li  Li14  1  0.67410849  0.62076565  0.25000000  1
  Li  Li15  1  0.94797544  0.33084825  0.25000000  1
  Fe  Fe0  1  0.33347262  0.66679744  0.89712471  1
  Fe  Fe1  1  0.33347262  0.66679744  0.60287529  1
  Fe  Fe2  1  0.33320256  0.66652738  0.39712471  1
  Fe  Fe3  1  0.33320256  0.66652738  0.10287529  1
  C  C0  1  0.12235334  0.78982456  0.92268108  1
  C  C1  1  0.21062720  0.33288737  0.92287424  1
  C  C2  1  0.66783401  0.87881433  0.92261703  1
  C  C3  1  0.12235334  0.78982456  0.57731892  1
  C  C4  1  0.21062720  0.33288737  0.57712576  1
  C  C5  1  0.66783401  0.87881433  0.57738297  1
  C  C6  1  0.21017544  0.87764666  0.42268108  1
  C  C7  1  0.66711263  0.78937280  0.42287424  1
  C  C8  1  0.12118567  0.33216599  0.42261703  1
  C  C9  1  0.21017544  0.87764666  0.07731892  1
  C  C10  1  0.66711263  0.78937280  0.07712576  1
  C  C11  1  0.12118567  0.33216599  0.07738297  1
  C  C12  1  0.21625903  0.88447938  0.87243725  1
  C  C13  1  0.11609754  0.33175445  0.87257982  1
  C  C14  1  0.66797363  0.78340323  0.87262000  1
  C  C15  1  0.21625903  0.88447938  0.62756275  1
  C  C16  1  0.11609754  0.33175445  0.62742018  1
  C  C17  1  0.66797363  0.78340323  0.62738000  1
  C  C18  1  0.11552062  0.78374097  0.37243725  1
  C  C19  1  0.66824555  0.88390246  0.37257982  1
  C  C20  1  0.21659677  0.33202637  0.37262000  1
  C  C21  1  0.11552062  0.78374097  0.12756275  1
  C  C22  1  0.66824555  0.88390246  0.12742018  1
  C  C23  1  0.21659677  0.33202637  0.12738000  1
  Cl  Cl0  1  0.66644486  0.33269762  0.85546024  1
  Cl  Cl1  1  0.66644486  0.33269762  0.64453976  1
  Cl  Cl2  1  0.66730238  0.33355514  0.35546024  1
  Cl  Cl3  1  0.66730238  0.33355514  0.14453976  1
  O  O0  1  0.16162660  0.68762796  0.94045537  1
  O  O1  1  0.31155948  0.47410462  0.94090253  1
  O  O2  1  0.52667961  0.83976013  0.94056907  1
  O  O3  1  0.16162660  0.68762796  0.55954463  1
  O  O4  1  0.31155948  0.47410462  0.55909747  1
  O  O5  1  0.52667961  0.83976013  0.55943093  1
  O  O6  1  0.31237204  0.83837340  0.44045537  1
  O  O7  1  0.52589538  0.68844052  0.44090253  1
  O  O8  1  0.16023987  0.47332038  0.44056907  1
  O  O9  1  0.31237204  0.83837340  0.05954463  1
  O  O10  1  0.52589538  0.68844052  0.05909747  1
  O  O11  1  0.16023987  0.47332038  0.05943093  1
  O  O12  1  0.02035301  0.82320913  0.94312824  1
  O  O13  1  0.17833844  0.19755477  0.94304073  1
  O  O14  1  0.80340578  0.98169264  0.94261838  1
  O  O15  1  0.02035301  0.82320913  0.55687176  1
  O  O16  1  0.17833844  0.19755477  0.55695927  1
  O  O17  1  0.80340578  0.98169264  0.55738162  1
  O  O18  1  0.17679087  0.97964699  0.44312824  1
  O  O19  1  0.80244523  0.82166056  0.44304073  1
  O  O20  1  0.01830736  0.19659422  0.44261838  1
  O  O21  1  0.17679087  0.97964699  0.05687176  1
  O  O22  1  0.80244523  0.82166056  0.05695927  1
  O  O23  1  0.01830736  0.19659422  0.05738162  1
  O  O24  1  0.18720377  0.98903154  0.85349806  1
  O  O25  1  0.01290519  0.19798934  0.85352336  1
  O  O26  1  0.80097008  0.81215826  0.85334806  1
  O  O27  1  0.18720377  0.98903154  0.64650194  1
  O  O28  1  0.01290519  0.19798934  0.64647664  1
  O  O29  1  0.80097008  0.81215826  0.64665194  1
  O  O30  1  0.01096846  0.81279623  0.35349806  1
  O  O31  1  0.80201066  0.98709481  0.35352336  1
  O  O32  1  0.18784174  0.19902992  0.35334806  1
  O  O33  1  0.01096846  0.81279623  0.14650194  1
  O  O34  1  0.80201066  0.98709481  0.14647664  1
  O  O35  1  0.18784174  0.19902992  0.14665194  1
  O  O36  1  0.32040334  0.84356807  0.85582668  1
  O  O37  1  0.15547463  0.47631093  0.85600276  1
  O  O38  1  0.52288959  0.67820351  0.85648145  1
  O  O39  1  0.32040334  0.84356807  0.64417332  1
  O  O40  1  0.15547463  0.47631093  0.64399724  1
  O  O41  1  0.52288959  0.67820351  0.64351855  1
  O  O42  1  0.15643193  0.67959666  0.35582668  1
  O  O43  1  0.52368907  0.84452537  0.35600276  1
  O  O44  1  0.32179649  0.47711041  0.35648145  1
  O  O45  1  0.15643193  0.67959666  0.14417332  1
  O  O46  1  0.52368907  0.84452537  0.14399724  1
  O  O47  1  0.32179649  0.47711041  0.14351855  1
  O  O48  1  0.60217211  0.48452923  0.98208022  1
  O  O49  1  0.51541533  0.11716891  0.98164194  1
  O  O50  1  0.88365749  0.39857710  0.98238524  1
  O  O51  1  0.60217211  0.48452923  0.51791978  1
  O  O52  1  0.51541533  0.11716891  0.51835806  1
  O  O53  1  0.88365749  0.39857710  0.51761476  1
  O  O54  1  0.51547077  0.39782789  0.48208022  1
  O  O55  1  0.88283109  0.48458467  0.48164194  1
  O  O56  1  0.60142290  0.11634251  0.48238524  1
  O  O57  1  0.51547077  0.39782789  0.01791978  1
  O  O58  1  0.88283109  0.48458467  0.01835806  1
  O  O59  1  0.60142290  0.11634251  0.01761476  1
  O  O60  1  0.90077917  0.58210225  0.82565232  1
  O  O61  1  0.41866703  0.31970564  0.82572221  1
  O  O62  1  0.68013153  0.09865347  0.82570035  1
  O  O63  1  0.90077917  0.58210225  0.67434768  1
  O  O64  1  0.41866703  0.31970564  0.67427779  1
  O  O65  1  0.68013153  0.09865347  0.67429965  1
  O  O66  1  0.41789775  0.09922083  0.32565232  1
  O  O67  1  0.68029436  0.58133297  0.32572221  1
  O  O68  1  0.90134653  0.31986847  0.32570035  1
  O  O69  1  0.41789775  0.09922083  0.17434768  1
  O  O70  1  0.68029436  0.58133297  0.17427779  1
  O  O71  1  0.90134653  0.31986847  0.17429965  1
  O  O72  1  0.19160277  0.86984267  0.75000000  1
  O  O73  1  0.13141562  0.32578798  0.75000000  1
  O  O74  1  0.67804578  0.81188769  0.75000000  1
  O  O75  1  0.13015733  0.80839723  0.25000000  1
  O  O76  1  0.67421202  0.86858438  0.25000000  1
  O  O77  1  0.18811231  0.32195422  0.25000000  1
  O  O78  1  0.12141962  0.45139570  0.75000000  1
  O  O79  1  0.55398846  0.67505654  0.75000000  1
  O  O80  1  0.32422547  0.87305411  0.75000000  1
  O  O81  1  0.54860430  0.87858038  0.25000000  1
  O  O82  1  0.32494346  0.44601154  0.25000000  1
  O  O83  1  0.12694589  0.67577453  0.25000000  1
loop_
_geom_bond_atom_site_label_1
_geom_bond_atom_site_label_2
_geom_bond_distance
_geom_bond_site_symmetry_2
Li0 O25 2.031499 1_555
Li0 O24 2.037331 1_545
Li0 O26 2.063409 1_445
Li0 O13 2.221689 1_555
Li0 O14 2.223913 1_445
Li0 O12 2.224305 1_545
Li1 O28 2.031499 1_555
Li1 O27 2.037331 1_545
Li1 O29 2.063409 1_445
Li1 O16 2.221689 1_555
Li1 O17 2.223913 1_445
Li1 O15 2.224305 1_545
Li2 O31 2.031499 1_555
Li2 O30 2.037331 1_655
Li2 O32 2.063409 1_665
Li2 O19 2.221692 1_555
Li2 O20 2.223913 1_665
Li2 O18 2.224305 1_655
Li3 O34 2.031499 1_555
Li3 O33 2.037331 1_655
Li3 O35 2.063409 1_665
Li3 O22 2.221692 1_555
Li3 O23 2.223913 1_665
Li3 O21 2.224305 1_655
Li4 O22 1.893393 1_555
Li4 O12 1.902442 1_654
Li4 O58 2.504707 1_555
Li4 O48 2.527581 1_554
Li5 O13 1.893399 1_555
Li5 O21 1.902442 1_546
Li5 O49 2.504707 1_555
Li5 O57 2.527581 1_556
Li6 O14 1.904819 1_544
Li6 O23 1.904819 1_655
Li6 O50 2.500691 1_554
Li6 O59 2.500691 1_555
Li7 O19 1.893393 1_555
Li7 O15 1.902442 1_655
Li7 O55 2.504707 1_555
Li7 O51 2.527581 1_555
Li8 O16 1.893399 1_555
Li8 O18 1.902442 1_545
Li8 O52 2.504707 1_555
Li8 O54 2.527581 1_555
Li9 O17 1.904819 1_545
Li9 O20 1.904819 1_655
Li9 O53 2.500691 1_555
Li9 O56 2.500691 1_555
Li10 O60 1.982369 1_555
Li10 O63 1.982369 1_555
Li10 O72 2.320416 1_655
Li11 O64 1.981667 1_555
Li11 O61 1.981667 1_555
Li11 O73 2.327590 1_555
Li12 O62 1.979954 1_555
Li12 O65 1.979954 1_555
Li12 O74 2.298716 1_545
Li13 O69 1.982369 1_555
Li13 O66 1.982369 1_555
Li13 O75 2.320416 1_545
Li14 O67 1.981667 1_555
Li14 O70 1.981667 1_555
Li14 O76 2.327589 1_555
Li15 O71 1.979954 1_555
Li15 O68 1.979954 1_555
Li15 O77 2.298716 1_655
Fe0 O38 2.018004 1_555
Fe0 O36 2.023855 1_555
Fe0 O37 2.030834 1_555
Fe0 O0 2.047529 1_555
Fe0 O1 2.050845 1_555
Fe0 O2 2.057283 1_555
Fe1 O41 2.018004 1_555
Fe1 O39 2.023855 1_555
Fe1 O40 2.030834 1_555
Fe1 O3 2.047529 1_555
Fe1 O4 2.050845 1_555
Fe1 O5 2.057283 1_555
Fe2 O44 2.018004 1_555
Fe2 O42 2.023855 1_555
Fe2 O43 2.030834 1_555
Fe2 O6 2.047529 1_555
Fe2 O7 2.050845 1_555
Fe2 O8 2.057283 1_555
Fe3 O47 2.018004 1_555
Fe3 O45 2.023855 1_555
Fe3 O46 2.030834 1_555
Fe3 O9 2.047529 1_555
Fe3 O10 2.050845 1_555
Fe3 O11 2.057283 1_555
C0 O12 1.261266 1_555
C0 O0 1.272224 1_555
C1 O13 1.261251 1_555
C1 O1 1.271943 1_555
C2 O14 1.261404 1_555
C2 O2 1.272548 1_555
C3 O15 1.261266 1_555
C3 O3 1.272224 1_555
C4 O16 1.261251 1_555
C4 O4 1.271943 1_555
C5 O17 1.261404 1_555
C5 O5 1.272548 1_555
C6 O18 1.261266 1_555
C6 O6 1.272224 1_555
C7 O19 1.261254 1_555
C7 O7 1.271943 1_555
C8 O20 1.261404 1_555
C8 O8 1.272548 1_555
C9 O21 1.261266 1_555
C9 O9 1.272224 1_555
C10 O22 1.261254 1_555
C10 O10 1.271943 1_555
C11 O23 1.261404 1_555
C11 O11 1.272548 1_555
C12 O24 1.241817 1_555
C12 O36 1.288832 1_555
C13 O25 1.241909 1_555
C13 O37 1.288572 1_555
C14 O26 1.241466 1_555
C14 O38 1.289158 1_555
C15 O27 1.241817 1_555
C15 O39 1.288832 1_555
C16 O28 1.241909 1_555
C16 O40 1.288572 1_555
C17 O29 1.241466 1_555
C17 O41 1.289158 1_555
C18 O30 1.241817 1_555
C18 O42 1.288832 1_555
C19 O31 1.241909 1_555
C19 O43 1.288572 1_555
C20 O32 1.241466 1_555
C20 O44 1.289158 1_555
C21 O33 1.241817 1_555
C21 O45 1.288832 1_555
C22 O34 1.241909 1_555
C22 O46 1.288572 1_555
C23 O35 1.241466 1_555
C23 O47 1.289158 1_555
Cl0 O62 2.390434 1_555
Cl0 O61 2.393819 1_555
Cl0 O60 2.403093 1_555
Cl1 O65 2.390434 1_555
Cl1 O64 2.393819 1_555
Cl1 O63 2.403093 1_555
Cl2 O68 2.390434 1_555
Cl2 O67 2.393819 1_555
Cl2 O66 2.403093 1_555
Cl3 O71 2.390434 1_555
Cl3 O70 2.393819 1_555
Cl3 O69 2.403093 1_555
O48 O57 1.228232 1_556
O49 O59 1.228345 1_556
O50 O58 1.228345 1_556
O51 O54 1.228232 1_555
O52 O56 1.228345 1_555
O53 O55 1.228345 1_555
O72 O80 1.231125 1_555
O73 O78 1.229518 1_555
O74 O79 1.231429 1_555
O75 O83 1.231125 1_555
O76 O81 1.229518 1_555
O77 O82 1.231429 1_555
