# generated using pymatgen
data_Ce2Te4Cl2O11
_symmetry_space_group_name_H-M   'P 1'
_cell_length_a   8.15242242
_cell_length_b   9.68456277
_cell_length_c   10.55310550
_cell_angle_alpha   109.06015950
_cell_angle_beta   108.90003311
_cell_angle_gamma   98.29086929
_symmetry_Int_Tables_number   1
_chemical_formula_structural   Ce2Te4Cl2O11
_chemical_formula_sum   'Ce4 Te8 Cl4 O22'
_cell_volume   715.35348203
_cell_formula_units_Z   2
loop_
 _symmetry_equiv_pos_site_id
 _symmetry_equiv_pos_as_xyz
  1  'x, y, z'
loop_
 _atom_site_type_symbol
 _atom_site_label
 _atom_site_symmetry_multiplicity
 _atom_site_fract_x
 _atom_site_fract_y
 _atom_site_fract_z
 _atom_site_occupancy
  Ce  Ce0  1  0.87896862  0.61876593  0.61362641  1
  Ce  Ce1  1  0.12103138  0.38123407  0.38637359  1
  Ce  Ce2  1  0.38092339  0.11006478  0.11840412  1
  Ce  Ce3  1  0.61907661  0.88993522  0.88159588  1
  Te  Te0  1  0.99231850  0.73151522  0.00331884  1
  Te  Te1  1  0.00768150  0.26848478  0.99668116  1
  Te  Te2  1  0.74557964  0.48651820  0.19415599  1
  Te  Te3  1  0.25442036  0.51348180  0.80584401  1
  Te  Te4  1  0.79971565  0.96265919  0.26146531  1
  Te  Te5  1  0.20028435  0.03734081  0.73853469  1
  Te  Te6  1  0.46513295  0.76195824  0.45063436  1
  Te  Te7  1  0.53486705  0.23804176  0.54936564  1
  Cl  Cl0  1  0.63334882  0.40289336  0.89213340  1
  Cl  Cl1  1  0.36665118  0.59710664  0.10786660  1
  Cl  Cl2  1  0.10567592  0.87784531  0.37927756  1
  Cl  Cl3  1  0.89432408  0.12215469  0.62072244  1
  O  O0  1  0.60132437  0.98963423  0.11998556  1
  O  O1  1  0.39867563  0.01036577  0.88001444  1
  O  O2  1  0.66017761  0.67835779  0.47017717  1
  O  O3  1  0.33982239  0.32164221  0.52982283  1
  O  O4  1  0.48696732  0.14646676  0.35000800  1
  O  O5  1  0.51303268  0.85353324  0.64999200  1
  O  O6  1  0.88310915  0.50390230  0.38751358  1
  O  O7  1  0.11689085  0.49609770  0.61248642  1
  O  O8  1  0.83856797  0.86094412  0.08878363  1
  O  O9  1  0.16143203  0.13905588  0.91121637  1
  O  O10  1  0.92234229  0.38667684  0.15579144  1
  O  O11  1  0.07765771  0.61332316  0.84420856  1
  O  O12  1  0.17349888  0.25876568  0.16654579  1
  O  O13  1  0.82650112  0.74123432  0.83345421  1
  O  O14  1  0.94322083  0.15563441  0.32000441  1
  O  O15  1  0.05677917  0.84436559  0.67999559  1
  O  O16  1  0.70538942  0.41332622  0.58963566  1
  O  O17  1  0.29461058  0.58667378  0.41036434  1
  O  O18  1  0.56694783  0.31996880  0.15469409  1
  O  O19  1  0.43305217  0.68003120  0.84530591  1
  O  O20  1  0.17330274  0.90533606  0.06104937  1
  O  O21  1  0.82669726  0.09466394  0.93895063  1
loop_
_geom_bond_atom_site_label_1
_geom_bond_atom_site_label_2
_geom_bond_distance
_geom_bond_site_symmetry_2
Ce0 O16 2.156851 1_555
Ce0 O15 2.189701 1_655
Ce0 O2 2.219115 1_555
Ce0 O6 2.293873 1_555
Ce0 O7 2.417437 1_655
Ce0 O13 2.442040 1_555
Ce0 O11 2.470359 1_655
Ce1 O17 2.156851 1_555
Ce1 O14 2.189701 1_455
Ce1 O3 2.219115 1_555
Ce1 O7 2.293873 1_555
Ce1 O6 2.417437 1_455
Ce1 O12 2.442040 1_555
Ce1 O10 2.470359 1_455
Ce2 O20 2.178778 1_545
Ce2 O18 2.192068 1_555
Ce2 O4 2.196806 1_555
Ce2 O0 2.277440 1_545
Ce2 O1 2.443751 1_554
Ce2 O12 2.443881 1_555
Ce2 O9 2.464267 1_554
Ce3 O21 2.178778 1_565
Ce3 O19 2.192068 1_555
Ce3 O5 2.196806 1_555
Ce3 O1 2.277440 1_565
Ce3 O0 2.443751 1_556
Ce3 O13 2.443881 1_555
Ce3 O8 2.464267 1_556
Cl0 Te2 2.804094 1_556
Cl1 Te3 2.804094 1_554
Cl2 Te4 2.773240 1_455
Cl3 Te5 2.773240 1_655
O0 Te4 1.930163 1_555
O1 Te5 1.930163 1_555
O2 Te6 1.869305 1_555
O3 Te7 1.869305 1_555
O4 Te7 1.874688 1_555
O5 Te6 1.874688 1_555
O6 Te2 1.920473 1_555
O7 Te3 1.920473 1_555
O8 Te4 1.919127 1_555
O8 Te0 2.098299 1_555
O9 Te5 1.919127 1_555
O9 Te1 2.098299 1_555
O10 Te2 1.923432 1_555
O10 Te1 2.084420 1_654
O11 Te3 1.923432 1_555
O11 Te0 2.084420 1_456
O12 Te1 1.904388 1_554
O13 Te0 1.904388 1_556
O14 Te4 1.841257 1_545
O15 Te5 1.841257 1_565
O16 Te7 1.860208 1_555
O17 Te6 1.860208 1_555
O18 Te2 1.840326 1_555
O19 Te3 1.840326 1_555
O20 Te0 1.847550 1_455
O21 Te1 1.847550 1_655
