# generated using pymatgen
data_EuMgSn
_symmetry_space_group_name_H-M   'P 1'
_cell_length_a   4.84560444
_cell_length_b   7.98553361
_cell_length_c   8.73816204
_cell_angle_alpha   89.99887766
_cell_angle_beta   90.00000000
_cell_angle_gamma   90.00000000
_symmetry_Int_Tables_number   1
_chemical_formula_structural   EuMgSn
_chemical_formula_sum   'Eu4 Mg4 Sn4'
_cell_volume   338.12088299
_cell_formula_units_Z   4
loop_
 _symmetry_equiv_pos_site_id
 _symmetry_equiv_pos_as_xyz
  1  'x, y, z'
loop_
 _atom_site_type_symbol
 _atom_site_label
 _atom_site_symmetry_multiplicity
 _atom_site_fract_x
 _atom_site_fract_y
 _atom_site_fract_z
 _atom_site_occupancy
  Eu  Eu0  1  0.25000000  0.01121594  0.30557601  1
  Eu  Eu1  1  0.25000000  0.51121280  0.19442005  1
  Eu  Eu2  1  0.75000000  0.98878406  0.69442399  1
  Eu  Eu3  1  0.75000000  0.48878720  0.80557995  1
  Mg  Mg0  1  0.25000000  0.15322433  0.93078923  1
  Mg  Mg1  1  0.25000000  0.65320222  0.56921234  1
  Mg  Mg2  1  0.75000000  0.84677567  0.06921077  1
  Mg  Mg3  1  0.75000000  0.34679778  0.43078766  1
  Sn  Sn0  1  0.25000000  0.27370121  0.60496916  1
  Sn  Sn1  1  0.25000000  0.77366915  0.89502501  1
  Sn  Sn2  1  0.75000000  0.72629879  0.39503084  1
  Sn  Sn3  1  0.75000000  0.22633085  0.10497499  1
loop_
_geom_bond_atom_site_label_1
_geom_bond_atom_site_label_2
_geom_bond_distance
_geom_bond_site_symmetry_2
Eu0 Sn0 3.352314 1_555
Eu0 Sn2 3.414310 1_445
Eu0 Sn2 3.414310 1_545
Eu0 Mg2 3.443877 1_445
Eu0 Mg2 3.443877 1_545
Eu0 Sn3 3.448669 1_455
Eu0 Sn3 3.448669 1_555
Eu0 Mg0 3.465706 1_554
Eu0 Mg1 3.671545 1_545
Eu0 Mg3 3.774720 1_455
Eu0 Mg3 3.774720 1_555
Eu1 Sn1 3.352118 1_554
Eu1 Sn3 3.414124 1_555
Eu1 Sn3 3.414124 1_455
Eu1 Mg3 3.443782 1_455
Eu1 Mg3 3.443782 1_555
Eu1 Sn2 3.448632 1_555
Eu1 Sn2 3.448632 1_455
Eu1 Mg1 3.465744 1_555
Eu1 Mg0 3.671428 1_554
Eu1 Mg2 3.774576 1_455
Eu1 Mg2 3.774576 1_555
Eu2 Sn2 3.352314 1_555
Eu2 Sn0 3.414310 1_665
Eu2 Sn0 3.414310 1_565
Eu2 Mg0 3.443877 1_565
Eu2 Mg0 3.443877 1_665
Eu2 Sn1 3.448669 1_655
Eu2 Sn1 3.448669 1_555
Eu2 Mg2 3.465706 1_556
Eu2 Mg3 3.671545 1_565
Eu2 Mg1 3.774720 1_655
Eu2 Mg1 3.774720 1_555
Eu3 Sn3 3.352118 1_556
Eu3 Sn1 3.414124 1_655
Eu3 Sn1 3.414124 1_555
Eu3 Mg1 3.443782 1_655
Eu3 Mg1 3.443782 1_555
Eu3 Sn0 3.448632 1_555
Eu3 Sn0 3.448632 1_655
Eu3 Mg3 3.465744 1_555
Eu3 Mg2 3.671428 1_556
Eu3 Mg0 3.774576 1_655
Eu3 Mg0 3.774576 1_555
Mg0 Sn3 2.920188 1_556
Mg0 Sn3 2.920188 1_456
Mg0 Sn0 3.005208 1_555
Mg0 Sn1 3.047025 1_545
Mg1 Sn2 2.920141 1_555
Mg1 Sn2 2.920141 1_455
Mg1 Sn1 3.005157 1_555
Mg1 Sn0 3.046576 1_555
Mg2 Sn1 2.920188 1_654
Mg2 Sn1 2.920188 1_554
Mg2 Sn2 3.005208 1_555
Mg2 Sn3 3.047025 1_565
Mg3 Sn0 2.920141 1_555
Mg3 Sn0 2.920141 1_655
Mg3 Sn3 3.005157 1_555
Mg3 Sn2 3.046576 1_555
