# generated using pymatgen
data_PuB4Os
_symmetry_space_group_name_H-M   'P 1'
_cell_length_a   6.00692454
_cell_length_b   6.00692454
_cell_length_c   3.54665479
_cell_angle_alpha   90.00000000
_cell_angle_beta   90.00000000
_cell_angle_gamma   103.98154840
_symmetry_Int_Tables_number   1
_chemical_formula_structural   PuB4Os
_chemical_formula_sum   'Pu2 B8 Os2'
_cell_volume   124.18302569
_cell_formula_units_Z   2
loop_
 _symmetry_equiv_pos_site_id
 _symmetry_equiv_pos_as_xyz
  1  'x, y, z'
loop_
 _atom_site_type_symbol
 _atom_site_label
 _atom_site_symmetry_multiplicity
 _atom_site_fract_x
 _atom_site_fract_y
 _atom_site_fract_z
 _atom_site_occupancy
  Pu  Pu0  1  0.30011903  0.69988097  -0.00000000  1
  Pu  Pu1  1  0.69988097  0.30011903  -0.00000000  1
  B  B0  1  0.37863200  0.06283819  0.50000000  1
  B  B1  1  0.62136800  0.93716181  0.50000000  1
  B  B2  1  0.06283819  0.37863200  0.50000000  1
  B  B3  1  0.93716181  0.62136800  0.50000000  1
  B  B4  1  0.37574437  0.37574437  0.50000000  1
  B  B5  1  0.62425563  0.62425563  0.50000000  1
  B  B6  1  0.09144915  0.90855085  0.50000000  1
  B  B7  1  0.90855085  0.09144915  0.50000000  1
  Os  Os0  1  0.18619812  0.18619812  -0.00000000  1
  Os  Os1  1  0.81380188  0.81380188  0.00000000  1
loop_
_geom_bond_atom_site_label_1
_geom_bond_atom_site_label_2
_geom_bond_distance
_geom_bond_site_symmetry_2
B0 B6 1.749942 1_545
B0 B1 1.796628 1_545
B0 B4 1.883870 1_555
B0 Os0 2.333214 1_555
B0 Os0 2.333214 1_556
B0 Pu1 2.751541 1_555
B0 Pu1 2.751541 1_556
B0 Pu0 2.761116 1_545
B0 Pu0 2.761116 1_546
B1 B7 1.749942 1_565
B1 B5 1.883870 1_555
B1 Os1 2.333214 1_556
B1 Os1 2.333214 1_555
B1 Pu0 2.751541 1_556
B1 Pu0 2.751541 1_555
B1 Pu1 2.761116 1_565
B1 Pu1 2.761116 1_566
B2 B7 1.749942 1_455
B2 B3 1.796628 1_455
B2 B4 1.883870 1_555
B2 Os0 2.333214 1_555
B2 Os0 2.333214 1_556
B2 Pu0 2.751541 1_556
B2 Pu0 2.751541 1_555
B2 Pu1 2.761116 1_456
B2 Pu1 2.761116 1_455
B3 B6 1.749942 1_655
B3 B5 1.883870 1_555
B3 Os1 2.333214 1_556
B3 Os1 2.333214 1_555
B3 Pu1 2.751541 1_555
B3 Pu1 2.751541 1_556
B3 Pu0 2.761116 1_655
B3 Pu0 2.761116 1_656
B4 B5 1.838483 1_555
B4 Os0 2.260758 1_556
B4 Os0 2.260758 1_555
B4 Pu0 2.751277 1_555
B4 Pu0 2.751277 1_556
B4 Pu1 2.751277 1_555
B4 Pu1 2.751277 1_556
B5 Os1 2.260758 1_556
B5 Os1 2.260758 1_555
B5 Pu0 2.751277 1_555
B5 Pu0 2.751277 1_556
B5 Pu1 2.751277 1_555
B5 Pu1 2.751277 1_556
B6 B7 1.731288 1_465
B6 Os1 2.406556 1_456
B6 Os1 2.406556 1_455
B6 Os0 2.406556 1_566
B6 Os0 2.406556 1_565
B6 Pu0 2.654478 1_555
B6 Pu0 2.654478 1_556
B7 Os0 2.406556 1_656
B7 Os1 2.406556 1_546
B7 Os1 2.406556 1_545
B7 Os0 2.406556 1_655
B7 Pu1 2.654478 1_555
B7 Pu1 2.654478 1_556
Os0 Os1 2.754983 1_445
Os0 Pu0 2.994863 1_555
Os0 Pu1 2.994863 1_555
Os0 Pu0 3.157229 1_545
Os0 Pu1 3.157229 1_455
Os1 Pu0 2.994863 1_555
Os1 Pu1 2.994863 1_555
Os1 Pu1 3.157229 1_565
Os1 Pu0 3.157229 1_655
