# generated using pymatgen
data_La2InNi2
_symmetry_space_group_name_H-M   'P 1'
_cell_length_a   3.85114637
_cell_length_b   7.58619716
_cell_length_c   7.58619716
_cell_angle_alpha   90.00000000
_cell_angle_beta   90.00000000
_cell_angle_gamma   90.00000000
_symmetry_Int_Tables_number   1
_chemical_formula_structural   La2InNi2
_chemical_formula_sum   'La4 In2 Ni4'
_cell_volume   221.63496534
_cell_formula_units_Z   2
loop_
 _symmetry_equiv_pos_site_id
 _symmetry_equiv_pos_as_xyz
  1  'x, y, z'
loop_
 _atom_site_type_symbol
 _atom_site_label
 _atom_site_symmetry_multiplicity
 _atom_site_fract_x
 _atom_site_fract_y
 _atom_site_fract_z
 _atom_site_occupancy
  La  La0  1  0.50000000  0.17541682  0.67541682  1
  La  La1  1  0.50000000  0.82458318  0.32458318  1
  La  La2  1  0.50000000  0.32458318  0.17541682  1
  La  La3  1  0.50000000  0.67541682  0.82458318  1
  In  In0  1  0.00000000  0.50000000  0.50000000  1
  In  In1  1  0.00000000  0.00000000  -0.00000000  1
  Ni  Ni0  1  0.00000000  0.61998069  0.11998069  1
  Ni  Ni1  1  0.00000000  0.38001931  0.88001931  1
  Ni  Ni2  1  0.00000000  0.88001931  0.61998069  1
  Ni  Ni3  1  -0.00000000  0.11998069  0.38001931  1
loop_
_geom_bond_atom_site_label_1
_geom_bond_atom_site_label_2
_geom_bond_distance
_geom_bond_site_symmetry_2
La0 Ni1 2.919966 1_555
La0 Ni1 2.919966 1_655
La0 Ni2 2.984380 1_645
La0 Ni2 2.984380 1_545
La0 Ni3 2.984380 1_555
La0 Ni3 2.984380 1_655
La1 Ni0 2.919966 1_655
La1 Ni0 2.919966 1_555
La1 Ni2 2.984380 1_555
La1 Ni2 2.984380 1_655
La1 Ni3 2.984380 1_565
La1 Ni3 2.984380 1_665
La2 Ni3 2.919966 1_655
La2 Ni3 2.919966 1_555
La2 Ni0 2.984380 1_555
La2 Ni0 2.984380 1_655
La2 Ni1 2.984380 1_654
La2 Ni1 2.984380 1_554
La3 Ni2 2.919966 1_555
La3 Ni2 2.919966 1_655
La3 Ni0 2.984380 1_656
La3 Ni1 2.984380 1_655
La3 Ni0 2.984380 1_556
La3 Ni1 2.984380 1_555
In0 Ni2 3.023174 1_555
In0 Ni3 3.023174 1_555
In0 Ni0 3.023174 1_555
In0 Ni1 3.023174 1_555
In0 La0 3.397337 1_455
In0 La3 3.397337 1_555
In0 La1 3.397337 1_455
In0 La0 3.397337 1_555
In0 La1 3.397337 1_555
In0 La2 3.397337 1_455
In0 La2 3.397337 1_555
In0 La3 3.397337 1_455
In1 Ni0 3.023174 1_545
In1 Ni1 3.023174 1_554
In1 Ni2 3.023174 1_544
In1 Ni3 3.023174 1_555
In1 La0 3.397337 1_454
In1 La0 3.397337 1_554
In1 La3 3.397337 1_544
In1 La3 3.397337 1_444
In1 La1 3.397337 1_545
In1 La2 3.397337 1_455
In1 La2 3.397337 1_555
In1 La1 3.397337 1_445
Ni0 Ni1 2.574426 1_554
Ni2 Ni3 2.574426 1_565
