# generated using pymatgen
data_U4(TeSe)3
_symmetry_space_group_name_H-M   'P 1'
_cell_length_a   4.16673529
_cell_length_b   11.56585698
_cell_length_c   12.05773425
_cell_angle_alpha   89.98387944
_cell_angle_beta   90.00000000
_cell_angle_gamma   90.00000000
_symmetry_Int_Tables_number   1
_chemical_formula_structural   U4(TeSe)3
_chemical_formula_sum   'U8 Te6 Se6'
_cell_volume   581.08467166
_cell_formula_units_Z   2
loop_
 _symmetry_equiv_pos_site_id
 _symmetry_equiv_pos_as_xyz
  1  'x, y, z'
loop_
 _atom_site_type_symbol
 _atom_site_label
 _atom_site_symmetry_multiplicity
 _atom_site_fract_x
 _atom_site_fract_y
 _atom_site_fract_z
 _atom_site_occupancy
  U  U0  1  0.75000000  0.50242644  0.67814116  1
  U  U1  1  0.75000000  -0.00227352  0.17797181  1
  U  U2  1  0.25000000  0.48716281  0.30659852  1
  U  U3  1  0.25000000  0.01174156  0.80817682  1
  U  U4  1  0.25000000  0.18689886  0.49690991  1
  U  U5  1  0.25000000  0.31465727  0.99540347  1
  U  U6  1  0.75000000  0.80939252  0.51783851  1
  U  U7  1  0.75000000  0.68833412  0.02018685  1
  Te  Te0  1  0.25000000  0.94630598  0.37629039  1
  Te  Te1  1  0.25000000  0.55571565  0.87479236  1
  Te  Te2  1  0.25000000  0.29573664  0.73176818  1
  Te  Te3  1  0.25000000  0.20557847  0.23172230  1
  Te  Te4  1  0.75000000  0.69739426  0.27648520  1
  Te  Te5  1  0.75000000  0.80217288  0.77606293  1
  Se  Se0  1  0.25000000  0.62476405  0.54143193  1
  Se  Se1  1  0.25000000  0.87556735  0.04102921  1
  Se  Se2  1  0.75000000  0.36901888  0.45530682  1
  Se  Se3  1  0.75000000  0.12968329  0.95576994  1
  Se  Se4  1  0.75000000  0.05144324  0.61854959  1
  Se  Se5  1  0.75000000  0.44828025  0.11956110  1
loop_
_geom_bond_atom_site_label_1
_geom_bond_atom_site_label_2
_geom_bond_distance
_geom_bond_site_symmetry_2
Te0 U6 3.124009 1_555
Te0 U6 3.124009 1_455
Te0 U4 3.140185 1_565
Te0 U1 3.226686 1_465
Te0 U1 3.226686 1_565
Te1 U7 3.125392 1_556
Te1 U7 3.125392 1_456
Te1 U5 3.144185 1_555
Te1 U0 3.216139 1_555
Te1 U0 3.216139 1_455
Te2 U4 3.099357 1_555
Te2 U5 3.186429 1_555
Te2 U0 3.236105 1_555
Te2 U0 3.236105 1_455
Te2 U3 3.411161 1_555
Te3 U5 3.115937 1_554
Te3 U4 3.204791 1_555
Te3 U1 3.246613 1_455
Te3 U1 3.246613 1_555
Te3 U2 3.379835 1_555
Te4 U7 3.092183 1_555
Te4 U6 3.185778 1_555
Te4 U2 3.222420 1_555
Te4 U2 3.222420 1_655
Te4 U1 3.670770 1_565
Te5 U6 3.114697 1_555
Te5 U3 3.219611 1_565
Te5 U3 3.219611 1_665
Te5 U7 3.224289 1_556
Te5 U0 3.662685 1_555
Se0 U6 2.996812 1_555
Se0 U6 2.996812 1_455
Se0 U0 3.009717 1_455
Se0 U0 3.009717 1_555
Se0 U2 3.248547 1_555
Se1 U1 3.010726 1_565
Se1 U1 3.010726 1_465
Se1 U7 3.015515 1_455
Se1 U7 3.015515 1_555
Se1 U3 3.218862 1_564
Se2 U4 3.004710 1_555
Se2 U4 3.004710 1_655
Se2 U2 3.069421 1_655
Se2 U2 3.069421 1_555
Se2 U0 3.098775 1_555
Se3 U5 3.024291 1_555
Se3 U5 3.024291 1_655
Se3 U3 3.060990 1_655
Se3 U3 3.060990 1_555
Se3 U1 3.083075 1_556
Se4 U4 2.990779 1_555
Se4 U4 2.990779 1_655
Se4 U6 3.051866 1_545
Se4 U3 3.127083 1_655
Se4 U3 3.127083 1_555
Se5 U5 2.995225 1_554
Se5 U5 2.995225 1_654
Se5 U7 3.023646 1_555
Se5 U2 3.103123 1_655
Se5 U2 3.103123 1_555
