# generated using pymatgen
data_Li3Ti2(PO4)3
_symmetry_space_group_name_H-M   'P 1'
_cell_length_a   8.90834000
_cell_length_b   8.48878900
_cell_length_c   12.42124891
_cell_angle_alpha   86.36044389
_cell_angle_beta   90.00000000
_cell_angle_gamma   90.00000000
_symmetry_Int_Tables_number   1
_chemical_formula_structural   Li3Ti2(PO4)3
_chemical_formula_sum   'Li12 Ti8 P12 O48'
_cell_volume   937.41304391
_cell_formula_units_Z   4
loop_
 _symmetry_equiv_pos_site_id
 _symmetry_equiv_pos_as_xyz
  1  'x, y, z'
loop_
 _atom_site_type_symbol
 _atom_site_label
 _atom_site_symmetry_multiplicity
 _atom_site_fract_x
 _atom_site_fract_y
 _atom_site_fract_z
 _atom_site_occupancy
  Li  Li0  1  0.19467100  0.71148300  0.95173900  1
  Li  Li1  1  0.59655900  0.50000000  0.75000000  1
  Li  Li2  1  0.19467100  0.28851700  0.54826100  1
  Li  Li3  1  0.50000000  0.50000000  0.50000000  1
  Li  Li4  1  0.00000000  0.00000000  0.50000000  1
  Li  Li5  1  0.80532900  0.71148300  0.45173900  1
  Li  Li6  1  0.40344100  0.50000000  0.25000000  1
  Li  Li7  1  0.90567800  0.00000000  0.75000000  1
  Li  Li8  1  0.09432200  0.00000000  0.25000000  1
  Li  Li9  1  0.50000000  0.50000000  0.00000000  1
  Li  Li10  1  0.00000000  0.00000000  0.00000000  1
  Li  Li11  1  0.80532900  0.28851700  0.04826100  1
  Ti  Ti0  1  0.50112400  0.78983200  0.85404400  1
  Ti  Ti1  1  0.00507600  0.71346500  0.64163600  1
  Ti  Ti2  1  0.00507600  0.28653500  0.85836400  1
  Ti  Ti3  1  0.50112400  0.21016800  0.64595600  1
  Ti  Ti4  1  0.49887600  0.78983200  0.35404400  1
  Ti  Ti5  1  0.99492400  0.71346500  0.14163600  1
  Ti  Ti6  1  0.99492400  0.28653500  0.35836400  1
  Ti  Ti7  1  0.49887600  0.21016800  0.14595600  1
  P  P0  1  0.29604900  0.50000000  0.75000000  1
  P  P1  1  0.85156400  0.64984600  0.89707100  1
  P  P2  1  0.64629900  0.84411700  0.60250700  1
  P  P3  1  0.19971400  0.00000000  0.75000000  1
  P  P4  1  0.14843600  0.64984600  0.39707100  1
  P  P5  1  0.64629900  0.15588300  0.89749300  1
  P  P6  1  0.85156400  0.35015400  0.60292900  1
  P  P7  1  0.35370100  0.84411700  0.10250700  1
  P  P8  1  0.35370100  0.15588300  0.39749300  1
  P  P9  1  0.14843600  0.35015400  0.10292900  1
  P  P10  1  0.70395100  0.50000000  0.25000000  1
  P  P11  1  0.80028600  0.00000000  0.25000000  1
  O  O0  1  0.29356200  0.87017700  0.80918400  1
  O  O1  1  0.58546800  0.98696400  0.89906000  1
  O  O2  1  0.09068900  0.93627200  0.66325600  1
  O  O3  1  0.40177800  0.56977300  0.83539300  1
  O  O4  1  0.19689800  0.37847500  0.81274300  1
  O  O5  1  0.67850800  0.65043200  0.91067600  1
  O  O6  1  0.93412300  0.74992500  0.98012000  1
  O  O7  1  0.19689800  0.62152500  0.68725700  1
  O  O8  1  0.09068900  0.06372800  0.83674400  1
  O  O9  1  0.06587700  0.74992500  0.48012000  1
  O  O10  1  0.59287800  0.25411300  0.99215000  1
  O  O11  1  0.59994400  0.75171400  0.70821700  1
  O  O12  1  0.41453200  0.98696400  0.39906000  1
  O  O13  1  0.89565000  0.47258600  0.91155400  1
  O  O14  1  0.90258300  0.72396800  0.78595400  1
  O  O15  1  0.40177800  0.43022700  0.66460700  1
  O  O16  1  0.09741700  0.72396800  0.28595400  1
  O  O17  1  0.59994400  0.24828600  0.79178300  1
  O  O18  1  0.82125500  0.85768400  0.58797900  1
  O  O19  1  0.59287800  0.74588700  0.50785000  1
  O  O20  1  0.29356200  0.12982300  0.69081600  1
  O  O21  1  0.10435000  0.47258600  0.41155400  1
  O  O22  1  0.32149200  0.65043200  0.41067600  1
  O  O23  1  0.82125500  0.14231600  0.91202100  1
  O  O24  1  0.67850800  0.34956800  0.58932400  1
  O  O25  1  0.17874500  0.85768400  0.08797900  1
  O  O26  1  0.70643800  0.87017700  0.30918400  1
  O  O27  1  0.89565000  0.52741400  0.58844600  1
  O  O28  1  0.17874500  0.14231600  0.41202100  1
  O  O29  1  0.40712200  0.25411300  0.49215000  1
  O  O30  1  0.40005600  0.75171400  0.20821700  1
  O  O31  1  0.90258300  0.27603200  0.71404600  1
  O  O32  1  0.59822200  0.56977300  0.33539300  1
  O  O33  1  0.09741700  0.27603200  0.21404600  1
  O  O34  1  0.10435000  0.52741400  0.08844600  1
  O  O35  1  0.58546800  0.01303600  0.60094000  1
  O  O36  1  0.40005600  0.24828600  0.29178300  1
  O  O37  1  0.40712200  0.74588700  0.00785000  1
  O  O38  1  0.93412300  0.25007500  0.51988000  1
  O  O39  1  0.90931100  0.93627200  0.16325600  1
  O  O40  1  0.80310200  0.37847500  0.31274300  1
  O  O41  1  0.32149200  0.34956800  0.08932400  1
  O  O42  1  0.06587700  0.25007500  0.01988000  1
  O  O43  1  0.80310200  0.62152500  0.18725700  1
  O  O44  1  0.59822200  0.43022700  0.16460700  1
  O  O45  1  0.90931100  0.06372800  0.33674400  1
  O  O46  1  0.41453200  0.01303600  0.10094000  1
  O  O47  1  0.70643800  0.12982300  0.19081600  1
loop_
_geom_bond_atom_site_label_1
_geom_bond_atom_site_label_2
_geom_bond_distance
_geom_bond_site_symmetry_2
Li0 O37 2.044207 1_556
Li0 O25 2.165827 1_556
Li0 O0 2.328817 1_555
Li0 O6 2.373319 1_455
Li0 O34 2.373914 1_556
Li1 O3 2.136927 1_555
Li1 O15 2.136927 1_555
Li1 O11 2.166832 1_555
Li1 O17 2.166832 1_555
Li1 O5 2.543700 1_555
Li1 O24 2.543700 1_555
Li2 O29 2.044207 1_555
Li2 O28 2.165827 1_555
Li2 O20 2.328817 1_555
Li2 O38 2.373319 1_455
Li2 O21 2.373914 1_555
Li3 O19 2.253146 1_555
Li3 O29 2.253146 1_555
Li3 O32 2.267854 1_555
Li3 O15 2.267854 1_555
Li3 O22 2.282675 1_555
Li3 O24 2.282675 1_555
Li4 O2 2.217704 1_545
Li4 O45 2.217704 1_455
Li4 O9 2.231222 1_545
Li4 O38 2.231222 1_455
Li4 O18 2.240890 1_445
Li4 O28 2.240890 1_555
Li5 O19 2.044207 1_555
Li5 O18 2.165827 1_555
Li5 O26 2.328817 1_555
Li5 O9 2.373319 1_655
Li5 O27 2.373914 1_555
Li6 O32 2.136927 1_555
Li6 O44 2.136927 1_555
Li6 O30 2.166832 1_555
Li6 O36 2.166832 1_555
Li6 O41 2.543700 1_555
Li6 O22 2.543700 1_555
Li7 O8 2.060088 1_655
Li7 O2 2.060088 1_645
Li7 O14 2.357505 1_545
Li7 O31 2.357505 1_555
Li7 O23 2.526645 1_555
Li7 O18 2.526645 1_545
Li8 O45 2.060088 1_455
Li8 O39 2.060088 1_445
Li8 O33 2.357505 1_555
Li8 O16 2.357505 1_545
Li8 O28 2.526645 1_555
Li8 O25 2.526645 1_545
Li9 O37 2.253146 1_555
Li9 O10 2.253146 1_554
Li9 O44 2.267854 1_555
Li9 O3 2.267854 1_554
Li9 O41 2.282675 1_555
Li9 O5 2.282675 1_554
Li10 O39 2.217704 1_445
Li10 O8 2.217704 1_554
Li10 O42 2.231222 1_555
Li10 O6 2.231222 1_444
Li10 O25 2.240890 1_545
Li10 O23 2.240890 1_454
Li11 O10 2.044207 1_554
Li11 O23 2.165827 1_554
Li11 O47 2.328817 1_555
Li11 O42 2.373319 1_655
Li11 O13 2.373914 1_554
O0 P3 1.533301 1_565
O0 Ti0 2.036254 1_555
O1 P5 1.531866 1_565
O1 Ti0 1.948411 1_555
O2 P3 1.571905 1_565
O2 Ti1 2.072563 1_555
O3 P0 1.562928 1_555
O3 Ti0 2.093181 1_555
O4 P0 1.532865 1_555
O4 Ti2 1.947853 1_555
O5 P1 1.550919 1_555
O5 Ti0 2.070376 1_555
O6 P1 1.561424 1_555
O6 Ti5 2.082136 1_556
O7 P0 1.532865 1_555
O7 Ti1 1.947853 1_555
O8 P3 1.571905 1_555
O8 Ti2 2.072563 1_555
O9 P4 1.561424 1_555
O9 Ti1 2.082136 1_555
O10 P5 1.558417 1_555
O10 Ti7 2.097567 1_556
O11 P2 1.542443 1_555
O11 Ti0 2.057931 1_555
O12 P8 1.531866 1_565
O12 Ti4 1.948411 1_555
O13 P1 1.554486 1_555
O13 Ti2 2.003388 1_655
O14 P1 1.548288 1_555
O14 Ti1 2.018746 1_655
O15 P0 1.562928 1_555
O15 Ti3 2.093181 1_555
O16 P4 1.548288 1_555
O16 Ti5 2.018746 1_455
O17 P5 1.542443 1_555
O17 Ti3 2.057931 1_555
O18 P2 1.572362 1_555
O18 Ti1 2.126247 1_655
O19 P2 1.558417 1_555
O19 Ti4 2.097567 1_555
O20 P3 1.533301 1_555
O20 Ti3 2.036254 1_555
O21 P4 1.554486 1_555
O21 Ti6 2.003388 1_455
O22 P4 1.550919 1_555
O22 Ti4 2.070376 1_555
O23 P5 1.572362 1_555
O23 Ti2 2.126247 1_655
O24 P6 1.550919 1_555
O24 Ti3 2.070376 1_555
O25 P7 1.572362 1_555
O25 Ti5 2.126247 1_455
O26 P11 1.533301 1_565
O26 Ti4 2.036254 1_555
O27 P6 1.554486 1_555
O27 Ti1 2.003388 1_655
O28 P8 1.572362 1_555
O28 Ti6 2.126247 1_455
O29 P8 1.558417 1_555
O29 Ti3 2.097567 1_555
O30 P7 1.542443 1_555
O30 Ti4 2.057931 1_555
O31 P6 1.548288 1_555
O31 Ti2 2.018746 1_655
O32 P10 1.562928 1_555
O32 Ti4 2.093181 1_555
O33 P9 1.548288 1_555
O33 Ti6 2.018746 1_455
O34 P9 1.554486 1_555
O34 Ti5 2.003388 1_455
O35 P2 1.531866 1_545
O35 Ti3 1.948411 1_555
O36 P8 1.542443 1_555
O36 Ti7 2.057931 1_555
O37 P7 1.558417 1_555
O37 Ti0 2.097567 1_554
O38 P6 1.561424 1_555
O38 Ti6 2.082136 1_555
O39 P11 1.571905 1_565
O39 Ti5 2.072563 1_555
O40 P10 1.532865 1_555
O40 Ti6 1.947853 1_555
O41 P9 1.550919 1_555
O41 Ti7 2.070376 1_555
O42 P9 1.561424 1_555
O42 Ti2 2.082136 1_554
O43 P10 1.532865 1_555
O43 Ti5 1.947853 1_555
O44 P10 1.562928 1_555
O44 Ti7 2.093181 1_555
O45 P11 1.571905 1_555
O45 Ti6 2.072563 1_555
O46 P7 1.531866 1_545
O46 Ti7 1.948411 1_555
O47 P11 1.533301 1_555
O47 Ti7 2.036254 1_555
