# generated using pymatgen
data_InP2H9(NO4)2
_symmetry_space_group_name_H-M   'P 1'
_cell_length_a   10.15875871
_cell_length_b   10.05739874
_cell_length_c   6.74795693
_cell_angle_alpha   71.31434988
_cell_angle_beta   69.69173297
_cell_angle_gamma   38.99391715
_symmetry_Int_Tables_number   1
_chemical_formula_structural   InP2H9(NO4)2
_chemical_formula_sum   'In2 P4 H18 N4 O16'
_cell_volume   405.35687104
_cell_formula_units_Z   2
loop_
 _symmetry_equiv_pos_site_id
 _symmetry_equiv_pos_as_xyz
  1  'x, y, z'
loop_
 _atom_site_type_symbol
 _atom_site_label
 _atom_site_symmetry_multiplicity
 _atom_site_fract_x
 _atom_site_fract_y
 _atom_site_fract_z
 _atom_site_occupancy
  In  In0  1  0.39811700  0.10188300  0.39811700  1
  In  In1  1  0.14811700  0.85188300  0.14811700  1
  P  P0  1  0.95913800  0.63681400  0.28833500  1
  P  P1  1  0.28833500  0.11571300  0.95913800  1
  P  P2  1  0.61318600  0.29086200  0.13428700  1
  P  P3  1  0.13428700  0.96166500  0.61318600  1
  H  H0  1  0.02521800  0.47478200  0.02521800  1
  H  H1  1  0.77521800  0.22478200  0.77521800  1
  H  H2  1  0.62494000  0.01034900  0.74539300  1
  H  H3  1  0.74539300  0.61931800  0.62494000  1
  H  H4  1  0.23965100  0.62506000  0.63068200  1
  H  H5  1  0.63068200  0.50460700  0.23965100  1
  H  H6  1  0.85842900  0.82110800  0.84001900  1
  H  H7  1  0.84001900  0.48044400  0.85842900  1
  H  H8  1  0.42889200  0.39157100  0.76955600  1
  H  H9  1  0.76955600  0.40998100  0.42889200  1
  H  H10  1  0.79134500  0.02598400  0.67423800  1
  H  H11  1  0.67423800  0.50843200  0.79134500  1
  H  H12  1  0.22401600  0.45865500  0.74156800  1
  H  H13  1  0.74156800  0.57576200  0.22401600  1
  H  H14  1  0.85419700  0.84888200  0.57370000  1
  H  H15  1  0.57370000  0.72322100  0.85419700  1
  H  H16  1  0.40111800  0.39580300  0.52677900  1
  H  H17  1  0.52677900  0.67630000  0.40111800  1
  N  N0  1  0.78297200  0.92561000  0.70893700  1
  N  N1  1  0.70893700  0.58248100  0.78297200  1
  N  N2  1  0.32439000  0.46702800  0.66751900  1
  N  N3  1  0.66751900  0.54106300  0.32439000  1
  O  O0  1  0.08322000  0.41955500  0.41661200  1
  O  O1  1  0.41661200  0.08061400  0.08322000  1
  O  O2  1  0.83044500  0.16678000  0.16938600  1
  O  O3  1  0.16938600  0.83338800  0.83044500  1
  O  O4  1  0.72338600  0.78077700  0.39563900  1
  O  O5  1  0.39563900  0.10019800  0.72338600  1
  O  O6  1  0.46922300  0.52661400  0.14980200  1
  O  O7  1  0.14980200  0.85436100  0.46922300  1
  O  O8  1  0.02343000  0.73030000  0.30068500  1
  O  O9  1  0.30068500  0.94558600  0.02343000  1
  O  O10  1  0.51970000  0.22657000  0.30441400  1
  O  O11  1  0.30441400  0.94931500  0.51970000  1
  O  O12  1  0.98649600  0.61701900  0.05130400  1
  O  O13  1  0.05130400  0.34518000  0.98649600  1
  O  O14  1  0.63298100  0.26350400  0.90482000  1
  O  O15  1  0.90482000  0.19869600  0.63298100  1
loop_
_geom_bond_atom_site_label_1
_geom_bond_atom_site_label_2
_geom_bond_distance
_geom_bond_site_symmetry_2
In0 O1 2.132593 1_555
In0 O0 2.132596 1_555
In0 O4 2.181052 1_545
In0 O5 2.181052 1_555
In0 O10 2.203497 1_555
In0 O11 2.203506 1_545
In1 O2 2.132596 1_465
In1 O3 2.132599 1_554
In1 O6 2.181052 1_555
In1 O7 2.181052 1_555
In1 O8 2.203497 1_555
In1 O9 2.203506 1_555
H0 O12 1.212733 1_455
H0 O13 1.212743 1_554
H1 O14 1.212736 1_555
H1 O15 1.212740 1_555
H2 N0 1.047664 1_545
H3 N1 1.047664 1_555
H4 N2 1.047664 1_555
H5 N3 1.047664 1_555
H6 N0 1.047511 1_555
H7 N1 1.047511 1_555
H8 N2 1.047511 1_555
H9 N3 1.047511 1_555
H10 N0 1.024376 1_545
H11 N1 1.024386 1_555
H12 N2 1.024377 1_555
H13 N3 1.024384 1_555
H14 N0 1.037682 1_555
H15 N1 1.037682 1_555
H16 N2 1.037682 1_555
H17 N3 1.037682 1_555
O0 P0 1.541678 1_455
O1 P1 1.541684 1_554
O2 P2 1.541676 1_555
O3 P3 1.541679 1_555
O4 P0 1.560229 1_555
O5 P1 1.560229 1_555
O6 P2 1.560229 1_555
O7 P3 1.560229 1_555
O8 P0 1.536257 1_455
O9 P1 1.536247 1_564
O10 P2 1.536254 1_555
O11 P3 1.536248 1_555
O12 P0 1.576280 1_555
O13 P1 1.576277 1_555
O14 P2 1.576273 1_556
O15 P3 1.576277 1_645
