# generated using pymatgen
data_Y2Ni7Sn3
_symmetry_space_group_name_H-M   'P 1'
_cell_length_a   7.60608000
_cell_length_b   8.63886700
_cell_length_c   12.61479383
_cell_angle_alpha   110.02377947
_cell_angle_beta   90.00000000
_cell_angle_gamma   90.00000000
_symmetry_Int_Tables_number   1
_chemical_formula_structural   Y2Ni7Sn3
_chemical_formula_sum   'Y8 Ni28 Sn12'
_cell_volume   778.78576371
_cell_formula_units_Z   4
loop_
 _symmetry_equiv_pos_site_id
 _symmetry_equiv_pos_as_xyz
  1  'x, y, z'
loop_
 _atom_site_type_symbol
 _atom_site_label
 _atom_site_symmetry_multiplicity
 _atom_site_fract_x
 _atom_site_fract_y
 _atom_site_fract_z
 _atom_site_occupancy
  Y  Y0  1  0.42717800  0.19390700  0.38781400  1
  Y  Y1  1  0.57282200  0.80609300  0.61218600  1
  Y  Y2  1  0.92717800  0.30609300  0.61218600  1
  Y  Y3  1  0.07282200  0.69390700  0.38781400  1
  Y  Y4  1  0.50000000  0.29202400  0.00000000  1
  Y  Y5  1  0.00000000  0.79202400  0.00000000  1
  Y  Y6  1  0.50000000  0.70797600  0.00000000  1
  Y  Y7  1  0.00000000  0.20797600  0.00000000  1
  Ni  Ni0  1  0.42172100  0.54916700  0.39511800  1
  Ni  Ni1  1  0.57827900  0.15405000  0.60488200  1
  Ni  Ni2  1  0.92172100  0.65405000  0.60488200  1
  Ni  Ni3  1  0.07827900  0.04916700  0.39511800  1
  Ni  Ni4  1  0.57827900  0.45083300  0.60488200  1
  Ni  Ni5  1  0.42172100  0.84595000  0.39511800  1
  Ni  Ni6  1  0.07827900  0.34595000  0.39511800  1
  Ni  Ni7  1  0.92172100  0.95083300  0.60488200  1
  Ni  Ni8  1  0.44502900  0.60063300  0.20126600  1
  Ni  Ni9  1  0.55497100  0.39936700  0.79873400  1
  Ni  Ni10  1  0.94502900  0.89936700  0.79873400  1
  Ni  Ni11  1  0.05497100  0.10063300  0.20126600  1
  Ni  Ni12  1  0.59282100  0.35749400  0.23401300  1
  Ni  Ni13  1  0.40717900  0.12348000  0.76598700  1
  Ni  Ni14  1  0.09282100  0.62348000  0.76598700  1
  Ni  Ni15  1  0.90717900  0.85749400  0.23401300  1
  Ni  Ni16  1  0.40717900  0.64250600  0.76598700  1
  Ni  Ni17  1  0.59282100  0.87652000  0.23401300  1
  Ni  Ni18  1  0.90717900  0.37652000  0.23401300  1
  Ni  Ni19  1  0.09282100  0.14250600  0.76598700  1
  Ni  Ni20  1  0.34956000  0.04691600  0.09383100  1
  Ni  Ni21  1  0.65044000  0.95308400  0.90616900  1
  Ni  Ni22  1  0.84956000  0.45308400  0.90616900  1
  Ni  Ni23  1  0.15044000  0.54691600  0.09383100  1
  Ni  Ni24  1  0.31061000  0.33482600  0.66965300  1
  Ni  Ni25  1  0.68939000  0.66517400  0.33034700  1
  Ni  Ni26  1  0.81061000  0.16517400  0.33034700  1
  Ni  Ni27  1  0.18939000  0.83482600  0.66965300  1
  Sn  Sn0  1  0.25000000  0.53126900  0.56253900  1
  Sn  Sn1  1  0.75000000  0.96873100  0.43746100  1
  Sn  Sn2  1  0.75000000  0.46873100  0.43746100  1
  Sn  Sn3  1  0.25000000  0.03126900  0.56253900  1
  Sn  Sn4  1  0.25000000  0.35604700  0.21209300  1
  Sn  Sn5  1  0.75000000  0.14395300  0.78790700  1
  Sn  Sn6  1  0.75000000  0.64395300  0.78790700  1
  Sn  Sn7  1  0.25000000  0.85604700  0.21209300  1
  Sn  Sn8  1  0.29790800  0.93768100  0.87536300  1
  Sn  Sn9  1  0.70209200  0.06231900  0.12463700  1
  Sn  Sn10  1  0.79790800  0.56231900  0.12463700  1
  Sn  Sn11  1  0.20209200  0.43768100  0.87536300  1
loop_
_geom_bond_atom_site_label_1
_geom_bond_atom_site_label_2
_geom_bond_distance
_geom_bond_site_symmetry_2
Y4 Y6 3.593354 1_555
Y4 Y7 3.871731 1_655
Y4 Y7 3.871731 1_555
Y5 Y7 3.593354 1_565
Y5 Y6 3.871731 1_455
Y5 Y6 3.871731 1_555
Ni0 Ni12 2.502234 1_555
Ni0 Ni25 2.525401 1_555
Ni0 Sn0 2.532580 1_555
Ni0 Ni5 2.563869 1_555
Ni0 Ni8 2.636981 1_555
Ni0 Sn4 2.679947 1_555
Ni0 Sn2 2.693871 1_555
Ni0 Y3 2.948435 1_555
Ni0 Y0 3.039012 1_555
Ni0 Y1 3.095678 1_555
Ni1 Ni13 2.502240 1_555
Ni1 Ni24 2.525392 1_555
Ni1 Sn1 2.532580 1_545
Ni1 Ni4 2.563869 1_555
Ni1 Ni9 2.636977 1_555
Ni1 Sn5 2.679953 1_555
Ni1 Sn3 2.693877 1_555
Ni1 Y2 2.948431 1_555
Ni1 Y1 3.039020 1_545
Ni1 Y0 3.095675 1_555
Ni2 Ni27 2.525392 1_655
Ni2 Sn2 2.532580 1_555
Ni2 Ni7 2.563869 1_555
Ni2 Sn6 2.679953 1_555
Ni2 Sn0 2.693877 1_655
Ni2 Y1 2.948431 1_555
Ni2 Y2 3.039020 1_555
Ni2 Y3 3.095675 1_655
Ni3 Sn3 2.532580 1_555
Ni3 Ni6 2.563869 1_555
Ni3 Sn7 2.679947 1_545
Ni3 Sn1 2.693871 1_445
Ni3 Y0 2.948435 1_555
Ni3 Y3 3.039012 1_545
Ni3 Y2 3.095678 1_455
Ni4 Sn2 2.532580 1_555
Ni4 Ni9 2.636981 1_555
Ni4 Sn6 2.679947 1_555
Ni4 Sn0 2.693871 1_555
Ni4 Y2 2.948435 1_555
Ni4 Y1 3.039012 1_555
Ni4 Y0 3.095678 1_555
Ni5 Sn3 2.532580 1_565
Ni5 Ni8 2.636977 1_555
Ni5 Sn7 2.679953 1_555
Ni5 Sn1 2.693877 1_555
Ni5 Y3 2.948431 1_555
Ni5 Y0 3.039020 1_565
Ni5 Y1 3.095675 1_555
Ni6 Sn0 2.532580 1_555
Ni6 Sn4 2.679953 1_555
Ni6 Sn2 2.693877 1_455
Ni6 Y0 2.948431 1_555
Ni6 Y3 3.039020 1_555
Ni6 Y2 3.095675 1_455
Ni7 Sn1 2.532580 1_555
Ni7 Sn5 2.679947 1_565
Ni7 Sn3 2.693871 1_665
Ni7 Y1 2.948435 1_555
Ni7 Y2 3.039012 1_565
Ni7 Y3 3.095678 1_655
Ni8 Sn4 2.623227 1_555
Ni8 Sn7 2.623234 1_555
Ni8 Sn10 2.833526 1_555
Ni8 Y6 3.015502 1_555
Ni8 Y4 3.015502 1_555
Ni9 Sn6 2.623227 1_555
Ni9 Sn5 2.623234 1_555
Ni9 Sn11 2.833526 1_555
Ni9 Y4 3.015502 1_556
Ni9 Y6 3.015502 1_556
Ni10 Ni27 2.407300 1_655
Ni10 Ni19 2.537788 1_665
Ni10 Ni14 2.537796 1_655
Ni10 Ni21 2.577208 1_555
Ni10 Sn5 2.623227 1_565
Ni10 Sn6 2.623234 1_555
Ni10 Ni2 2.636977 1_555
Ni10 Ni7 2.636981 1_555
Ni10 Sn8 2.833526 1_655
Ni10 Y5 3.015502 1_656
Ni10 Y7 3.015502 1_666
Ni11 Ni26 2.407300 1_455
Ni11 Ni15 2.537788 1_445
Ni11 Ni18 2.537796 1_455
Ni11 Ni20 2.577208 1_555
Ni11 Sn7 2.623227 1_545
Ni11 Sn4 2.623234 1_555
Ni11 Ni6 2.636977 1_555
Ni11 Ni3 2.636981 1_555
Ni11 Sn9 2.833526 1_455
Ni11 Y7 3.015502 1_555
Ni11 Y5 3.015502 1_545
Ni12 Ni18 2.396675 1_555
Ni12 Ni8 2.537788 1_555
Ni12 Sn9 2.586009 1_555
Ni12 Ni25 2.620928 1_555
Ni12 Sn4 2.621723 1_555
Ni12 Sn2 2.692665 1_555
Ni12 Ni26 2.892034 1_555
Ni12 Y4 2.896445 1_555
Ni12 Sn10 3.023234 1_555
Ni12 Y0 3.037502 1_555
Ni13 Ni19 2.396675 1_555
Ni13 Ni9 2.537796 1_555
Ni13 Sn8 2.586009 1_545
Ni13 Ni24 2.620928 1_555
Ni13 Sn5 2.621723 1_555
Ni13 Sn3 2.692665 1_555
Ni13 Ni27 2.892034 1_545
Ni13 Y4 2.896446 1_556
Ni13 Sn11 3.023234 1_555
Ni13 Y1 3.037496 1_545
Ni14 Ni16 2.396675 1_555
Ni14 Ni2 2.502240 1_455
Ni14 Sn11 2.586009 1_555
Ni14 Ni27 2.620928 1_555
Ni14 Sn6 2.621723 1_455
Ni14 Sn0 2.692665 1_555
Ni14 Ni24 2.892034 1_555
Ni14 Y5 2.896446 1_556
Ni14 Sn8 3.023234 1_555
Ni14 Y2 3.037496 1_455
Ni15 Ni17 2.396675 1_555
Ni15 Ni3 2.502234 1_665
Ni15 Sn10 2.586009 1_555
Ni15 Ni26 2.620928 1_565
Ni15 Sn7 2.621723 1_655
Ni15 Sn1 2.692665 1_555
Ni15 Ni25 2.892034 1_555
Ni15 Y5 2.896445 1_655
Ni15 Sn9 3.023234 1_565
Ni15 Y3 3.037502 1_655
Ni16 Ni4 2.502234 1_555
Ni16 Ni9 2.537788 1_555
Ni16 Sn8 2.586009 1_555
Ni16 Ni24 2.620928 1_555
Ni16 Sn6 2.621723 1_555
Ni16 Sn0 2.692665 1_555
Ni16 Ni27 2.892034 1_555
Ni16 Y6 2.896445 1_556
Ni16 Sn11 3.023234 1_555
Ni16 Y1 3.037502 1_555
Ni17 Ni5 2.502240 1_555
Ni17 Ni8 2.537796 1_555
Ni17 Sn9 2.586009 1_565
Ni17 Ni25 2.620928 1_555
Ni17 Sn7 2.621723 1_555
Ni17 Sn1 2.692665 1_555
Ni17 Ni26 2.892034 1_565
Ni17 Y6 2.896446 1_555
Ni17 Sn10 3.023234 1_555
Ni17 Y0 3.037496 1_565
Ni18 Ni6 2.502240 1_655
Ni18 Sn10 2.586009 1_555
Ni18 Ni26 2.620928 1_555
Ni18 Sn4 2.621723 1_655
Ni18 Sn2 2.692665 1_555
Ni18 Ni25 2.892034 1_555
Ni18 Y7 2.896446 1_655
Ni18 Sn9 3.023234 1_555
Ni18 Y3 3.037496 1_655
Ni19 Ni7 2.502234 1_445
Ni19 Sn11 2.586009 1_555
Ni19 Ni27 2.620928 1_545
Ni19 Sn5 2.621723 1_455
Ni19 Sn3 2.692665 1_555
Ni19 Ni24 2.892034 1_555
Ni19 Y7 2.896445 1_556
Ni19 Sn8 3.023234 1_545
Ni19 Y2 3.037502 1_455
Ni20 Sn8 2.618969 1_544
Ni20 Sn7 2.683747 1_545
Ni20 Sn4 2.683747 1_555
Ni20 Sn9 2.706131 1_555
Ni20 Y4 2.985027 1_555
Ni20 Y6 2.985035 1_545
Ni20 Y7 3.396164 1_555
Ni20 Y5 3.396169 1_545
Ni21 Sn9 2.618969 1_566
Ni21 Sn5 2.683747 1_565
Ni21 Sn6 2.683747 1_555
Ni21 Sn8 2.706131 1_555
Ni21 Y6 2.985027 1_556
Ni21 Y4 2.985035 1_566
Ni21 Y5 3.396164 1_656
Ni21 Y7 3.396169 1_666
Ni22 Ni9 2.577208 1_555
Ni22 Sn10 2.618969 1_556
Ni22 Sn6 2.683747 1_555
Ni22 Sn5 2.683747 1_555
Ni22 Sn11 2.706131 1_655
Ni22 Y7 2.985027 1_656
Ni22 Y5 2.985035 1_656
Ni22 Y4 3.396164 1_556
Ni22 Y6 3.396169 1_556
Ni23 Ni8 2.577208 1_555
Ni23 Sn11 2.618969 1_554
Ni23 Sn4 2.683747 1_555
Ni23 Sn7 2.683747 1_555
Ni23 Sn10 2.706131 1_455
Ni23 Y5 2.985027 1_555
Ni23 Y7 2.985035 1_555
Ni23 Y6 3.396164 1_555
Ni23 Y4 3.396169 1_555
Ni24 Ni9 2.407300 1_555
Ni24 Ni4 2.525401 1_555
Ni24 Sn0 2.547280 1_555
Ni24 Sn3 2.547280 1_555
Ni24 Sn11 2.574049 1_555
Ni24 Y2 2.994894 1_455
Ni25 Ni8 2.407300 1_555
Ni25 Ni5 2.525392 1_555
Ni25 Sn2 2.547280 1_555
Ni25 Sn1 2.547280 1_555
Ni25 Sn10 2.574049 1_555
Ni25 Y3 2.994894 1_655
Ni26 Ni6 2.525392 1_655
Ni26 Ni3 2.525401 1_655
Ni26 Sn1 2.547280 1_545
Ni26 Sn2 2.547280 1_555
Ni26 Sn9 2.574049 1_555
Ni26 Y0 2.994894 1_555
Ni27 Ni7 2.525401 1_455
Ni27 Sn3 2.547280 1_565
Ni27 Sn0 2.547280 1_555
Ni27 Sn8 2.574049 1_555
Ni27 Y1 2.994894 1_555
Sn4 Y4 3.172798 1_555
Sn4 Y7 3.172799 1_555
Sn5 Y7 3.172798 1_656
Sn5 Y4 3.172799 1_556
Sn6 Y6 3.172798 1_556
Sn6 Y5 3.172799 1_656
Sn7 Y5 3.172798 1_555
Sn7 Y6 3.172799 1_555
Sn8 Y5 3.247244 1_556
Sn8 Y7 3.247248 1_566
Sn8 Y6 3.302914 1_556
Sn8 Y4 3.302921 1_566
Sn9 Y7 3.247244 1_655
Sn9 Y5 3.247248 1_645
Sn9 Y4 3.302914 1_555
Sn9 Y6 3.302921 1_545
Sn10 Y6 3.247244 1_555
Sn10 Y4 3.247248 1_555
Sn10 Y5 3.302914 1_655
Sn10 Y7 3.302921 1_655
Sn11 Y4 3.247244 1_556
Sn11 Y6 3.247248 1_556
Sn11 Y7 3.302914 1_556
Sn11 Y5 3.302921 1_556
