# generated using pymatgen
data_Rb2SiF6
_symmetry_space_group_name_H-M   'P 1'
_cell_length_a   5.90666375
_cell_length_b   5.90666274
_cell_length_c   5.90666354
_cell_angle_alpha   59.99999551
_cell_angle_beta   60.00000118
_cell_angle_gamma   60.00000156
_symmetry_Int_Tables_number   1
_chemical_formula_structural   Rb2SiF6
_chemical_formula_sum   'Rb2 Si1 F6'
_cell_volume   145.71747991
_cell_formula_units_Z   1
loop_
 _symmetry_equiv_pos_site_id
 _symmetry_equiv_pos_as_xyz
  1  'x, y, z'
loop_
 _atom_site_type_symbol
 _atom_site_label
 _atom_site_symmetry_multiplicity
 _atom_site_fract_x
 _atom_site_fract_y
 _atom_site_fract_z
 _atom_site_occupancy
  Rb  Rb0  1  0.75000000  0.75000000  0.75000000  1
  Rb  Rb1  1  0.25000000  0.25000000  0.25000000  1
  Si  Si0  1  0.00000000  0.00000000  -0.00000000  1
  F  F0  1  0.20377383  0.79622617  0.79622617  1
  F  F1  1  0.20377383  0.79622617  0.20377383  1
  F  F2  1  0.79622617  0.20377383  0.79622617  1
  F  F3  1  0.79622617  0.20377383  0.20377383  1
  F  F4  1  0.79622617  0.79622617  0.20377383  1
  F  F5  1  0.20377383  0.20377383  0.79622617  1
loop_
_geom_bond_atom_site_label_1
_geom_bond_atom_site_label_2
_geom_bond_distance
_geom_bond_site_symmetry_2
F0 Si0 1.702181 1_566
F0 Rb1 2.978468 1_556
F0 Rb1 2.978468 1_565
F0 Rb0 2.978468 1_455
F0 Rb0 2.978468 1_555
F1 Si0 1.702181 1_565
F1 Rb1 2.978468 1_555
F1 Rb1 2.978468 1_565
F1 Rb0 2.978468 1_455
F1 Rb0 2.978468 1_554
F2 Si0 1.702181 1_656
F2 Rb0 2.978468 1_555
F2 Rb0 2.978468 1_545
F2 Rb1 2.978468 1_655
F2 Rb1 2.978468 1_556
F3 Si0 1.702181 1_655
F3 Rb0 2.978468 1_554
F3 Rb0 2.978468 1_545
F3 Rb1 2.978468 1_655
F3 Rb1 2.978468 1_555
F4 Si0 1.702180 1_665
F4 Rb1 2.978468 1_655
F4 Rb0 2.978468 1_555
F4 Rb0 2.978468 1_554
F4 Rb1 2.978468 1_565
F5 Si0 1.702180 1_556
F5 Rb0 2.978468 1_455
F5 Rb1 2.978468 1_556
F5 Rb1 2.978468 1_555
F5 Rb0 2.978468 1_545
