# generated using pymatgen
data_Sr2FeBiPbO6
_symmetry_space_group_name_H-M   'P 1'
_cell_length_a   12.24289222
_cell_length_b   12.24289222
_cell_length_c   12.24289222
_cell_angle_alpha   162.15520204
_cell_angle_beta   162.15520204
_cell_angle_gamma   25.34050911
_symmetry_Int_Tables_number   1
_chemical_formula_structural   Sr2FeBiPbO6
_chemical_formula_sum   'Sr2 Fe1 Bi1 Pb1 O6'
_cell_volume   172.27015564
_cell_formula_units_Z   1
loop_
 _symmetry_equiv_pos_site_id
 _symmetry_equiv_pos_as_xyz
  1  'x, y, z'
loop_
 _atom_site_type_symbol
 _atom_site_label
 _atom_site_symmetry_multiplicity
 _atom_site_fract_x
 _atom_site_fract_y
 _atom_site_fract_z
 _atom_site_occupancy
  Sr  Sr0  1  0.08100100  0.08100100  0.00000000  1
  Sr  Sr1  1  0.92348500  0.92348500  0.00000000  1
  Fe  Fe0  1  0.50748600  0.50748600  0.00000000  1
  Bi  Bi0  1  0.30831000  0.30831000  0.00000000  1
  Pb  Pb0  1  0.69150300  0.69150300  0.00000000  1
  O  O0  1  0.19079700  0.19079700  0.00000000  1
  O  O1  1  0.81261200  0.81261200  0.00000000  1
  O  O2  1  0.59228600  0.59228600  0.00000000  1
  O  O3  1  0.39667200  0.39667200  0.00000000  1
  O  O4  1  0.99792400  0.49792400  0.50000000  1
  O  O5  1  0.49792400  0.99792400  0.50000000  1
loop_
_geom_bond_atom_site_label_1
_geom_bond_atom_site_label_2
_geom_bond_distance
_geom_bond_site_symmetry_2
Fe0 O4 1.912522 1_555
Fe0 O5 1.912522 1_555
Fe0 O5 1.912522 1_544
Fe0 O4 1.912522 1_454
Fe0 O2 2.025831 1_555
Fe0 O3 2.647293 1_555
Bi0 O3 2.110926 1_555
Bi0 O1 2.687318 1_556
Bi0 O1 2.687318 1_444
Bi0 O1 2.687318 1_455
Bi0 O1 2.687318 1_545
Bi0 O0 2.807329 1_555
O0 Sr0 2.622974 1_555
O0 Pb0 2.685406 1_444
O0 Pb0 2.685406 1_545
O0 Pb0 2.685406 1_455
O0 Pb0 2.685406 1_556
O1 Sr1 2.648703 1_555
O2 Pb0 2.370247 1_555
O2 Sr0 2.698851 1_655
O2 Sr0 2.698851 1_565
O2 Sr0 2.698851 1_666
O2 Sr0 2.698851 1_554
O3 Sr1 2.760692 1_556
O3 Sr1 2.760692 1_444
O3 Sr1 2.760692 1_545
O3 Sr1 2.760692 1_455
O4 Sr1 2.601529 1_556
O4 Sr1 2.601529 1_545
O4 Sr0 2.746720 1_666
O4 Sr0 2.746720 1_655
O5 Sr1 2.601529 1_556
O5 Sr1 2.601529 1_455
O5 Sr0 2.746720 1_666
O5 Sr0 2.746720 1_565
