# generated using pymatgen
data_Pr2(Al3Ir)3
_symmetry_space_group_name_H-M   'P 1'
_cell_length_a   7.58136715
_cell_length_b   7.58136715
_cell_length_c   9.60780347
_cell_angle_alpha   90.00000000
_cell_angle_beta   90.00000000
_cell_angle_gamma   119.35434840
_symmetry_Int_Tables_number   1
_chemical_formula_structural   Pr2(Al3Ir)3
_chemical_formula_sum   'Pr4 Al18 Ir6'
_cell_volume   481.32533207
_cell_formula_units_Z   2
loop_
 _symmetry_equiv_pos_site_id
 _symmetry_equiv_pos_as_xyz
  1  'x, y, z'
loop_
 _atom_site_type_symbol
 _atom_site_label
 _atom_site_symmetry_multiplicity
 _atom_site_fract_x
 _atom_site_fract_y
 _atom_site_fract_z
 _atom_site_occupancy
  Pr  Pr0  1  0.99491198  0.67055283  0.25000000  1
  Pr  Pr1  1  0.00508802  0.32944717  0.75000000  1
  Pr  Pr2  1  0.67055283  0.99491198  0.25000000  1
  Pr  Pr3  1  0.32944717  0.00508802  0.75000000  1
  Al  Al0  1  0.13212030  0.13212030  0.25000000  1
  Al  Al1  1  0.86787970  0.86787970  0.75000000  1
  Al  Al2  1  0.00361904  0.33532820  0.07151267  1
  Al  Al3  1  0.99638096  0.66467180  0.92848733  1
  Al  Al4  1  0.99638096  0.66467180  0.57151267  1
  Al  Al5  1  0.33532820  0.00361904  0.42848733  1
  Al  Al6  1  0.00361904  0.33532820  0.42848733  1
  Al  Al7  1  0.66467180  0.99638096  0.57151267  1
  Al  Al8  1  0.66467180  0.99638096  0.92848733  1
  Al  Al9  1  0.33532820  0.00361904  0.07151267  1
  Al  Al10  1  0.33475218  0.33475218  0.54418801  1
  Al  Al11  1  0.66524782  0.66524782  0.45581199  1
  Al  Al12  1  0.66524782  0.66524782  0.04418801  1
  Al  Al13  1  0.33475218  0.33475218  0.95581199  1
  Al  Al14  1  0.33911315  0.54525708  0.25000000  1
  Al  Al15  1  0.66088685  0.45474292  0.75000000  1
  Al  Al16  1  0.54525708  0.33911315  0.25000000  1
  Al  Al17  1  0.45474292  0.66088685  0.75000000  1
  Ir  Ir0  1  0.67092577  0.32907423  -0.00000000  1
  Ir  Ir1  1  0.32907423  0.67092577  -0.00000000  1
  Ir  Ir2  1  0.32907423  0.67092577  0.50000000  1
  Ir  Ir3  1  0.67092577  0.32907423  0.50000000  1
  Ir  Ir4  1  0.00000000  -0.00000000  -0.00000000  1
  Ir  Ir5  1  0.00000000  -0.00000000  0.50000000  1
loop_
_geom_bond_atom_site_label_1
_geom_bond_atom_site_label_2
_geom_bond_distance
_geom_bond_site_symmetry_2
Al0 Ir5 2.606208 1_555
Al0 Ir4 2.606208 1_555
Al0 Al14 2.730200 1_555
Al0 Al16 2.730200 1_555
Al0 Al5 2.781149 1_555
Al0 Al9 2.781149 1_555
Al0 Al2 2.781149 1_555
Al0 Al6 2.781149 1_555
Al0 Pr2 3.123853 1_445
Al0 Pr0 3.123853 1_445
Al1 Ir5 2.606208 1_665
Al1 Ir4 2.606208 1_666
Al1 Al17 2.730200 1_555
Al1 Al15 2.730200 1_555
Al1 Al7 2.781149 1_555
Al1 Al4 2.781149 1_555
Al1 Al8 2.781149 1_555
Al1 Al3 2.781149 1_555
Al1 Pr3 3.123853 1_665
Al1 Pr1 3.123853 1_665
Al2 Ir0 2.592089 1_455
Al2 Ir4 2.620584 1_555
Al2 Ir1 2.622724 1_555
Al2 Al3 2.874029 1_454
Al2 Al8 2.936135 1_444
Al2 Pr1 3.089451 1_554
Al2 Pr0 3.093323 1_455
Al2 Pr2 3.096501 1_445
Al3 Ir1 2.592089 1_656
Al3 Ir4 2.620584 1_666
Al3 Ir0 2.622724 1_556
Al3 Al9 2.936135 1_666
Al3 Pr0 3.089451 1_556
Al3 Pr1 3.093323 1_655
Al3 Pr3 3.096501 1_665
Al4 Ir2 2.592089 1_655
Al4 Ir5 2.620584 1_665
Al4 Ir3 2.622724 1_555
Al4 Al6 2.874029 1_655
Al4 Al5 2.936135 1_665
Al4 Pr0 3.089451 1_555
Al4 Pr1 3.093323 1_655
Al4 Pr3 3.096501 1_665
Al5 Ir2 2.592089 1_545
Al5 Ir5 2.620584 1_555
Al5 Ir3 2.622724 1_555
Al5 Al7 2.874029 1_545
Al5 Pr3 3.089451 1_555
Al5 Pr2 3.093323 1_545
Al5 Pr0 3.096501 1_445
Al6 Ir3 2.592089 1_455
Al6 Ir5 2.620584 1_555
Al6 Ir2 2.622724 1_555
Al6 Al7 2.936135 1_445
Al6 Pr1 3.089451 1_555
Al6 Pr0 3.093323 1_455
Al6 Pr2 3.096501 1_445
Al7 Ir3 2.592089 1_565
Al7 Ir5 2.620584 1_665
Al7 Ir2 2.622724 1_555
Al7 Pr2 3.089451 1_555
Al7 Pr3 3.093323 1_565
Al7 Pr1 3.096501 1_665
Al8 Ir0 2.592089 1_566
Al8 Ir4 2.620584 1_666
Al8 Ir1 2.622724 1_556
Al8 Al9 2.874029 1_566
Al8 Pr2 3.089451 1_556
Al8 Pr3 3.093323 1_565
Al8 Pr1 3.096501 1_665
Al9 Ir1 2.592089 1_545
Al9 Ir4 2.620584 1_555
Al9 Ir0 2.622724 1_555
Al9 Pr3 3.089451 1_554
Al9 Pr2 3.093323 1_545
Al9 Pr0 3.096501 1_445
Al10 Ir5 2.597536 1_555
Al10 Ir3 2.604861 1_555
Al10 Ir2 2.604861 1_555
Al10 Al11 2.668703 1_555
Al10 Al5 2.747509 1_555
Al10 Al6 2.747509 1_555
Al10 Al15 2.940396 1_555
Al10 Al17 2.940396 1_555
Al10 Pr1 3.171704 1_555
Al10 Pr3 3.171704 1_555
Al11 Ir5 2.597536 1_665
Al11 Ir2 2.604861 1_555
Al11 Ir3 2.604861 1_555
Al11 Al4 2.747509 1_555
Al11 Al7 2.747509 1_555
Al11 Al16 2.940396 1_555
Al11 Al14 2.940396 1_555
Al11 Pr0 3.171704 1_555
Al11 Pr2 3.171704 1_555
Al12 Ir4 2.597536 1_665
Al12 Ir1 2.604861 1_555
Al12 Ir0 2.604861 1_555
Al12 Al13 2.668703 1_554
Al12 Al8 2.747509 1_554
Al12 Al3 2.747509 1_554
Al12 Al16 2.940396 1_555
Al12 Al14 2.940396 1_555
Al12 Pr0 3.171704 1_555
Al12 Pr2 3.171704 1_555
Al13 Ir4 2.597536 1_556
Al13 Ir0 2.604861 1_556
Al13 Ir1 2.604861 1_556
Al13 Al2 2.747509 1_556
Al13 Al9 2.747509 1_556
Al13 Al17 2.940396 1_555
Al13 Al15 2.940396 1_555
Al13 Pr1 3.171704 1_555
Al13 Pr3 3.171704 1_555
Al14 Ir2 2.598840 1_555
Al14 Ir1 2.598840 1_555
Al14 Al16 2.698092 1_555
Al14 Al2 2.823894 1_555
Al14 Al6 2.823894 1_555
Al14 Pr2 3.088200 1_555
Al14 Pr0 3.184679 1_455
Al15 Ir0 2.598840 1_556
Al15 Ir3 2.598840 1_555
Al15 Al17 2.698092 1_555
Al15 Al4 2.823894 1_555
Al15 Al3 2.823894 1_555
Al15 Pr3 3.088200 1_555
Al15 Pr1 3.184679 1_655
Al16 Ir0 2.598840 1_555
Al16 Ir3 2.598840 1_555
Al16 Al5 2.823894 1_555
Al16 Al9 2.823894 1_555
Al16 Pr0 3.088200 1_555
Al16 Pr2 3.184679 1_545
Al17 Ir2 2.598840 1_555
Al17 Ir1 2.598840 1_556
Al17 Al7 2.823894 1_555
Al17 Al8 2.823894 1_555
Al17 Pr1 3.088200 1_555
Al17 Pr3 3.184679 1_565
