# generated using pymatgen
data_LuCoB4
_symmetry_space_group_name_H-M   'P 1'
_cell_length_a   3.30037454
_cell_length_b   5.82012594
_cell_length_c   11.26957648
_cell_angle_alpha   90.00002913
_cell_angle_beta   90.00001250
_cell_angle_gamma   89.99998644
_symmetry_Int_Tables_number   1
_chemical_formula_structural   LuCoB4
_chemical_formula_sum   'Lu4 Co4 B16'
_cell_volume   216.47273574
_cell_formula_units_Z   4
loop_
 _symmetry_equiv_pos_site_id
 _symmetry_equiv_pos_as_xyz
  1  'x, y, z'
loop_
 _atom_site_type_symbol
 _atom_site_label
 _atom_site_symmetry_multiplicity
 _atom_site_fract_x
 _atom_site_fract_y
 _atom_site_fract_z
 _atom_site_occupancy
  Lu  Lu0  1  0.50000160  0.37138948  0.14987372  1
  Lu  Lu1  1  0.49999958  0.62862083  0.85011548  1
  Lu  Lu2  1  0.49999954  0.12860887  0.64976808  1
  Lu  Lu3  1  0.49999945  0.87138218  0.35022859  1
  Co  Co0  1  0.50000043  0.36407043  0.41010085  1
  Co  Co1  1  0.49999910  0.63594473  0.58991380  1
  Co  Co2  1  0.50000009  0.13590159  0.91008389  1
  Co  Co3  1  0.49999978  0.86408115  0.08992034  1
  B  B0  1  0.00000119  0.11190129  0.04671537  1
  B  B1  1  -0.00000069  0.88807767  0.95329478  1
  B  B2  1  0.00000015  0.38809095  0.54671469  1
  B  B3  1  -0.00000031  0.61192861  0.45329991  1
  B  B4  1  0.00000013  0.13760361  0.46803962  1
  B  B5  1  -0.00000009  0.86237714  0.53196827  1
  B  B6  1  0.00000030  0.36238278  0.96803304  1
  B  B7  1  -0.00000003  0.63763401  0.03196761  1
  B  B8  1  0.00000006  0.02220502  0.19181276  1
  B  B9  1  -0.00000015  0.97778167  0.80817629  1
  B  B10  1  -0.00000074  0.47778837  0.69180261  1
  B  B11  1  0.00000064  0.52222675  0.30818968  1
  B  B12  1  0.00000041  0.21496941  0.31485177  1
  B  B13  1  -0.00000055  0.78501763  0.68513979  1
  B  B14  1  -0.00000007  0.28502245  0.81484005  1
  B  B15  1  0.00000016  0.71499341  0.18514900  1
loop_
_geom_bond_atom_site_label_1
_geom_bond_atom_site_label_2
_geom_bond_distance
_geom_bond_site_symmetry_2
B0 B1 1.674929 1_544
B0 B6 1.706326 1_554
B0 B8 1.716498 1_555
B0 Co3 2.245113 1_545
B0 Co3 2.245121 1_445
B0 Co2 2.261313 1_554
B0 Co2 2.261318 1_454
B0 Lu0 2.521012 1_455
B0 Lu0 2.521014 1_555
B1 B7 1.706082 1_556
B1 B9 1.716738 1_555
B1 Co2 2.245143 1_465
B1 Co2 2.245148 1_565
B1 Co3 2.261268 1_456
B1 Co3 2.261270 1_556
B1 Lu1 2.521012 1_455
B1 Lu1 2.521013 1_555
B2 B3 1.674952 1_555
B2 B4 1.706311 1_555
B2 Co1 2.245226 1_555
B2 Co1 2.245230 1_455
B2 Co0 2.261187 1_455
B2 Co0 2.261189 1_555
B2 Lu2 2.520446 1_555
B2 Lu2 2.520449 1_455
B3 B5 1.706079 1_555
B3 Co0 2.245243 1_455
B3 Co0 2.245246 1_555
B3 Co1 2.261185 1_555
B3 Co1 2.261188 1_455
B3 Lu3 2.520441 1_555
B3 Lu3 2.520441 1_455
B4 B5 1.756411 1_545
B4 Co0 2.210599 1_455
B4 Co0 2.210601 1_555
B4 Lu3 2.624236 1_545
B4 Lu3 2.624239 1_445
B4 Lu2 2.630621 1_555
B4 Lu2 2.630624 1_455
B5 Co1 2.210501 1_555
B5 Co1 2.210506 1_455
B5 Lu2 2.624208 1_565
B5 Lu2 2.624210 1_465
B5 Lu3 2.630721 1_555
B5 Lu3 2.630723 1_455
B6 B7 1.756569 1_556
B6 Co2 2.210684 1_555
B6 Co2 2.210685 1_455
B6 Lu1 2.624902 1_555
B6 Lu1 2.624904 1_455
B6 Lu0 2.631606 1_456
B6 Lu0 2.631611 1_556
B7 Co3 2.210578 1_555
B7 Co3 2.210578 1_455
B7 Lu0 2.624857 1_455
B7 Lu0 2.624863 1_555
B7 Lu1 2.631709 1_554
B7 Lu1 2.631710 1_454
B8 Co3 2.211023 1_545
B8 Co3 2.211025 1_445
B8 Lu3 2.584740 1_545
B8 Lu3 2.584743 1_445
B8 Lu0 2.660210 1_455
B8 Lu0 2.660217 1_555
B9 Co2 2.211103 1_465
B9 Co2 2.211104 1_565
B9 Lu2 2.584691 1_565
B9 Lu2 2.584691 1_465
B9 Lu1 2.660108 1_555
B9 Lu1 2.660110 1_455
B10 B2 1.716397 1_555
B10 B14 1.783624 1_555
B10 B13 1.789689 1_555
B10 Co1 2.211082 1_555
B10 Co1 2.211082 1_455
B10 Lu1 2.583958 1_455
B10 Lu1 2.583959 1_555
B10 Lu2 2.660382 1_455
B10 Lu2 2.660383 1_555
B11 B3 1.716645 1_555
B11 B15 1.783655 1_555
B11 B12 1.789852 1_555
B11 Co0 2.211212 1_555
B11 Co0 2.211214 1_455
B11 Lu0 2.583990 1_455
B11 Lu0 2.583994 1_555
B11 Lu3 2.660282 1_555
B11 Lu3 2.660287 1_455
B12 B8 1.783631 1_555
B12 B4 1.784118 1_555
B12 Co0 2.151370 1_455
B12 Co0 2.151370 1_555
B12 Lu3 2.623154 1_545
B12 Lu3 2.623159 1_445
B12 Lu0 2.647386 1_455
B12 Lu0 2.647391 1_555
B13 B9 1.783608 1_555
B13 B5 1.783931 1_555
B13 Co1 2.151174 1_555
B13 Co1 2.151175 1_455
B13 Lu2 2.623165 1_465
B13 Lu2 2.623166 1_565
B13 Lu1 2.647323 1_555
B13 Lu1 2.647323 1_455
B14 B6 1.784166 1_555
B14 B9 1.789756 1_545
B14 Co2 2.151388 1_455
B14 Co2 2.151388 1_555
B14 Lu1 2.623032 1_555
B14 Lu1 2.623033 1_455
B14 Lu2 2.648118 1_555
B14 Lu2 2.648119 1_455
B15 B7 1.784038 1_555
B15 B8 1.789587 1_565
B15 Co3 2.151224 1_555
B15 Co3 2.151225 1_455
B15 Lu0 2.623054 1_455
B15 Lu0 2.623059 1_555
B15 Lu3 2.648127 1_555
B15 Lu3 2.648131 1_455
