# generated using pymatgen
data_Ti2ZnN2
_symmetry_space_group_name_H-M   'P 1'
_cell_length_a   3.13900300
_cell_length_b   3.13900300
_cell_length_c   7.63119500
_cell_angle_alpha   90.00000000
_cell_angle_beta   90.00000000
_cell_angle_gamma   90.00000000
_symmetry_Int_Tables_number   1
_chemical_formula_structural   Ti2ZnN2
_chemical_formula_sum   'Ti2 Zn1 N2'
_cell_volume   75.19275767
_cell_formula_units_Z   1
loop_
 _symmetry_equiv_pos_site_id
 _symmetry_equiv_pos_as_xyz
  1  'x, y, z'
loop_
 _atom_site_type_symbol
 _atom_site_label
 _atom_site_symmetry_multiplicity
 _atom_site_fract_x
 _atom_site_fract_y
 _atom_site_fract_z
 _atom_site_occupancy
  Ti  Ti0  1  0.00000000  0.00000000  0.68923500  1
  Ti  Ti1  1  0.00000000  0.00000000  0.31076500  1
  Zn  Zn0  1  0.50000000  0.50000000  0.00000000  1
  N  N0  1  0.00000000  0.50000000  0.17068800  1
  N  N1  1  0.50000000  0.00000000  0.82931200  1
loop_
_geom_bond_atom_site_label_1
_geom_bond_atom_site_label_2
_geom_bond_distance
_geom_bond_site_symmetry_2
N0 Ti1 1.898947 1_565
N0 Ti1 1.898947 1_555
N0 Zn0 2.039603 1_455
N0 Zn0 2.039603 1_555
N1 Ti0 1.898947 1_555
N1 Ti0 1.898947 1_655
N1 Zn0 2.039603 1_546
N1 Zn0 2.039603 1_556
