# generated using pymatgen
data_Mg2SnSbO6
_symmetry_space_group_name_H-M   'P 1'
_cell_length_a   7.97256400
_cell_length_b   5.36858400
_cell_length_c   5.50149137
_cell_angle_alpha   89.76223422
_cell_angle_beta   90.00000000
_cell_angle_gamma   90.00000000
_symmetry_Int_Tables_number   1
_chemical_formula_structural   Mg2SnSbO6
_chemical_formula_sum   'Mg4 Sn2 Sb2 O12'
_cell_volume   235.46939260
_cell_formula_units_Z   2
loop_
 _symmetry_equiv_pos_site_id
 _symmetry_equiv_pos_as_xyz
  1  'x, y, z'
loop_
 _atom_site_type_symbol
 _atom_site_label
 _atom_site_symmetry_multiplicity
 _atom_site_fract_x
 _atom_site_fract_y
 _atom_site_fract_z
 _atom_site_occupancy
  Mg  Mg0  1  0.75000000  0.49870400  0.54705100  1
  Mg  Mg1  1  0.25000000  0.50129600  0.45294900  1
  Mg  Mg2  1  0.75000000  0.99947500  0.03936700  1
  Mg  Mg3  1  0.25000000  0.00052500  0.96063300  1
  Sn  Sn0  1  0.50000000  0.50000000  0.00000000  1
  Sn  Sn1  1  0.00000000  0.50000000  0.00000000  1
  Sb  Sb0  1  0.50000000  0.00000000  0.50000000  1
  Sb  Sb1  1  0.00000000  0.00000000  0.50000000  1
  O  O0  1  0.42492000  0.66750100  0.67739000  1
  O  O1  1  0.07508500  0.82537000  0.17538100  1
  O  O2  1  0.92492000  0.33249900  0.32261000  1
  O  O3  1  0.57508500  0.17463000  0.82461900  1
  O  O4  1  0.42491500  0.82537000  0.17538100  1
  O  O5  1  0.92491500  0.17463000  0.82461900  1
  O  O6  1  0.25000000  0.12879300  0.58445200  1
  O  O7  1  0.07508000  0.66750100  0.67739000  1
  O  O8  1  0.75000000  0.63915000  0.90991900  1
  O  O9  1  0.57508000  0.33249900  0.32261000  1
  O  O10  1  0.75000000  0.87120700  0.41554800  1
  O  O11  1  0.25000000  0.36085000  0.09008100  1
loop_
_geom_bond_atom_site_label_1
_geom_bond_atom_site_label_2
_geom_bond_distance
_geom_bond_site_symmetry_2
Mg0 O9 2.067547 1_555
Mg0 O2 2.067547 1_555
Mg0 O10 2.123828 1_555
Mg0 O8 2.136885 1_555
Mg1 O7 2.067547 1_555
Mg1 O0 2.067547 1_555
Mg1 O6 2.123828 1_555
Mg1 O11 2.136885 1_555
Mg2 O5 2.053164 1_564
Mg2 O3 2.053164 1_564
Mg2 O8 2.064132 1_554
Mg2 O10 2.178401 1_555
Mg3 O1 2.053164 1_546
Mg3 O4 2.053164 1_546
Mg3 O11 2.064132 1_556
Mg3 O6 2.178401 1_555
O0 Sn0 2.074544 1_556
O0 Sb0 2.117224 1_565
O1 Sn1 2.086746 1_555
O1 Sb1 2.107267 1_565
O2 Sn1 2.074544 1_655
O2 Sb1 2.117224 1_655
O3 Sn0 2.086746 1_556
O3 Sb0 2.107267 1_555
O4 Sn0 2.086746 1_555
O4 Sb0 2.107267 1_565
O5 Sn1 2.086746 1_656
O5 Sb1 2.107267 1_655
O6 Sb0 2.160839 1_555
O6 Sb1 2.160839 1_555
O7 Sn1 2.074544 1_556
O7 Sb1 2.117224 1_565
O8 Sn0 2.184766 1_556
O8 Sn1 2.184766 1_656
O9 Sn0 2.074544 1_555
O9 Sb0 2.117224 1_555
O10 Sb1 2.160839 1_665
O10 Sb0 2.160839 1_565
O11 Sn1 2.184766 1_555
O11 Sn0 2.184766 1_555
