# generated using pymatgen
data_La(Co2B)6
_symmetry_space_group_name_H-M   'P 1'
_cell_length_a   5.97109504
_cell_length_b   5.97106791
_cell_length_c   5.97107084
_cell_angle_alpha   104.13159374
_cell_angle_beta   104.13189746
_cell_angle_gamma   104.13197118
_symmetry_Int_Tables_number   1
_chemical_formula_structural   La(Co2B)6
_chemical_formula_sum   'La1 Co12 B6'
_cell_volume   189.46843233
_cell_formula_units_Z   1
loop_
 _symmetry_equiv_pos_site_id
 _symmetry_equiv_pos_as_xyz
  1  'x, y, z'
loop_
 _atom_site_type_symbol
 _atom_site_label
 _atom_site_symmetry_multiplicity
 _atom_site_fract_x
 _atom_site_fract_y
 _atom_site_fract_z
 _atom_site_occupancy
  La  La0  1  -0.00000000  0.00000000  -0.00000000  1
  Co  Co0  1  0.13424081  0.86577414  0.50000090  1
  Co  Co1  1  0.49999800  0.13423669  0.86576331  1
  Co  Co2  1  0.86575619  0.50000110  0.13422886  1
  Co  Co3  1  0.50000200  0.86576331  0.13423669  1
  Co  Co4  1  0.13424381  0.49999890  0.86577114  1
  Co  Co5  1  0.86575919  0.13422586  0.49999910  1
  Co  Co6  1  0.53803630  0.81339603  0.53803729  1
  Co  Co7  1  0.53803430  0.53803629  0.81339703  1
  Co  Co8  1  0.81339966  0.53803793  0.53803693  1
  Co  Co9  1  0.46196370  0.18660397  0.46196271  1
  Co  Co10  1  0.46196570  0.46196371  0.18660297  1
  Co  Co11  1  0.18660034  0.46196207  0.46196307  1
  B  B0  1  0.77105829  0.33034709  0.77106470  1
  B  B1  1  0.77105929  0.77106570  0.33035009  1
  B  B2  1  0.33035743  0.77107352  0.77107352  1
  B  B3  1  0.22894171  0.66965291  0.22893530  1
  B  B4  1  0.22894071  0.22893430  0.66964991  1
  B  B5  1  0.66964257  0.22892648  0.22892648  1
loop_
_geom_bond_atom_site_label_1
_geom_bond_atom_site_label_2
_geom_bond_distance
_geom_bond_site_symmetry_2
Co0 La0 3.242200 1_565
Co0 La0 3.242240 1_566
Co1 La0 3.242230 1_556
Co1 La0 3.242253 1_656
Co2 La0 3.242198 1_665
Co2 La0 3.242261 1_655
Co3 La0 3.242230 1_665
Co3 La0 3.242253 1_565
Co4 La0 3.242198 1_556
Co4 La0 3.242261 1_566
Co5 La0 3.242200 1_656
Co5 La0 3.242240 1_655
Co6 La0 3.121243 1_666
Co7 La0 3.121251 1_666
Co8 La0 3.121240 1_666
Co9 La0 3.121243 1_555
Co10 La0 3.121251 1_555
Co11 La0 3.121240 1_555
B0 Co2 2.024136 1_556
B0 Co4 2.024244 1_655
B0 Co1 2.038459 1_555
B0 Co5 2.038524 1_555
B0 Co9 2.083044 1_555
B0 Co7 2.097401 1_555
B0 Co8 2.097424 1_555
B0 La0 3.057642 1_656
B1 Co5 2.024107 1_565
B1 Co0 2.024221 1_655
B1 Co3 2.038452 1_555
B1 Co2 2.038505 1_555
B1 Co10 2.083038 1_555
B1 Co6 2.097386 1_555
B1 Co8 2.097406 1_555
B1 La0 3.057650 1_665
B2 Co1 2.024119 1_565
B2 Co3 2.024125 1_556
B2 Co4 2.038522 1_555
B2 Co0 2.038534 1_555
B2 Co11 2.083128 1_555
B2 Co7 2.097404 1_555
B2 Co6 2.097406 1_555
B2 La0 3.057637 1_566
B3 Co4 2.024136 1_554
B3 Co2 2.024244 1_455
B3 Co3 2.038459 1_555
B3 Co0 2.038524 1_555
B3 Co6 2.083044 1_555
B3 Co10 2.097401 1_555
B3 Co11 2.097424 1_555
B3 La0 3.057642 1_565
B4 Co0 2.024107 1_545
B4 Co5 2.024221 1_455
B4 Co1 2.038452 1_555
B4 Co4 2.038505 1_555
B4 Co7 2.083038 1_555
B4 Co9 2.097386 1_555
B4 Co11 2.097406 1_555
B4 La0 3.057650 1_556
B5 Co3 2.024119 1_545
B5 Co1 2.024125 1_554
B5 Co2 2.038522 1_555
B5 Co5 2.038534 1_555
B5 Co8 2.083128 1_555
B5 Co10 2.097404 1_555
B5 Co9 2.097406 1_555
B5 La0 3.057637 1_655
