# generated using pymatgen
data_Ba2Y3Si2O8F5
_symmetry_space_group_name_H-M   'P 1'
_cell_length_a   5.15796700
_cell_length_b   8.99257000
_cell_length_c   12.80228700
_cell_angle_alpha   90.00000000
_cell_angle_beta   90.00000000
_cell_angle_gamma   90.00000000
_symmetry_Int_Tables_number   1
_chemical_formula_structural   Ba2Y3Si2O8F5
_chemical_formula_sum   'Ba4 Y6 Si4 O16 F10'
_cell_volume   593.81333389
_cell_formula_units_Z   2
loop_
 _symmetry_equiv_pos_site_id
 _symmetry_equiv_pos_as_xyz
  1  'x, y, z'
loop_
 _atom_site_type_symbol
 _atom_site_label
 _atom_site_symmetry_multiplicity
 _atom_site_fract_x
 _atom_site_fract_y
 _atom_site_fract_z
 _atom_site_occupancy
  Ba  Ba0  1  0.14126300  0.35207800  0.20784000  1
  Ba  Ba1  1  0.14126300  0.64792200  0.79216000  1
  Ba  Ba2  1  0.14126300  0.14792200  0.70784000  1
  Ba  Ba3  1  0.14126300  0.85207800  0.29216000  1
  Y  Y0  1  0.12930600  0.50000000  0.50000000  1
  Y  Y1  1  0.12930600  0.00000000  0.00000000  1
  Y  Y2  1  0.69161300  0.32302600  0.93959400  1
  Y  Y3  1  0.69161300  0.67697400  0.06040600  1
  Y  Y4  1  0.69161300  0.17697400  0.43959400  1
  Y  Y5  1  0.69161300  0.82302600  0.56040600  1
  Si  Si0  1  0.69599200  0.42631700  0.65732900  1
  Si  Si1  1  0.69599200  0.57368300  0.34267100  1
  Si  Si2  1  0.69599200  0.07368300  0.15732900  1
  Si  Si3  1  0.69599200  0.92631700  0.84267100  1
  O  O0  1  0.38204300  0.42201200  0.64253400  1
  O  O1  1  0.38204300  0.57798800  0.35746600  1
  O  O2  1  0.38204300  0.07798800  0.14253400  1
  O  O3  1  0.38204300  0.92201200  0.85746600  1
  O  O4  1  0.85280700  0.18583500  0.07478100  1
  O  O5  1  0.85280700  0.81416500  0.92521900  1
  O  O6  1  0.85280700  0.31416500  0.57478100  1
  O  O7  1  0.85280700  0.68583500  0.42521900  1
  O  O8  1  0.82046200  0.09037300  0.87392500  1
  O  O9  1  0.82046200  0.90962700  0.12607500  1
  O  O10  1  0.82046200  0.40962700  0.37392500  1
  O  O11  1  0.82046200  0.59037300  0.62607500  1
  O  O12  1  0.79850400  0.38019700  0.77437200  1
  O  O13  1  0.79850400  0.61980300  0.22562800  1
  O  O14  1  0.79850400  0.11980300  0.27437200  1
  O  O15  1  0.79850400  0.88019700  0.72562800  1
  F  F0  1  0.97667100  0.50000000  0.00000000  1
  F  F1  1  0.97667100  0.00000000  0.50000000  1
  F  F2  1  0.52368300  0.43755000  0.08959500  1
  F  F3  1  0.52368300  0.56245000  0.91040500  1
  F  F4  1  0.52368300  0.06245000  0.58959500  1
  F  F5  1  0.52368300  0.93755000  0.41040500  1
  F  F6  1  0.29469500  0.22861900  0.92405200  1
  F  F7  1  0.29469500  0.77138100  0.07594800  1
  F  F8  1  0.29469500  0.27138100  0.42405200  1
  F  F9  1  0.29469500  0.72861900  0.57594800  1
loop_
_geom_bond_atom_site_label_1
_geom_bond_atom_site_label_2
_geom_bond_distance
_geom_bond_site_symmetry_2
Ba0 F2 2.602532 1_555
Ba0 O4 2.711152 1_455
Ba0 O10 2.743502 1_455
Ba0 O14 2.866004 1_455
Ba0 O2 2.883837 1_555
Ba0 F8 2.968970 1_555
Ba0 O13 2.995613 1_455
Ba0 O1 3.055944 1_555
Ba0 F0 3.093568 1_455
Ba1 F3 2.602532 1_555
Ba1 O5 2.711152 1_455
Ba1 O11 2.743502 1_455
Ba1 O15 2.866004 1_455
Ba1 O3 2.883837 1_555
Ba1 F9 2.968970 1_555
Ba1 O12 2.995613 1_455
Ba1 O0 3.055944 1_555
Ba1 F0 3.093568 1_456
Ba2 F4 2.602532 1_555
Ba2 O6 2.711152 1_455
Ba2 O8 2.743502 1_455
Ba2 O12 2.866004 1_455
Ba2 O0 2.883837 1_555
Ba2 F6 2.968970 1_555
Ba2 O15 2.995613 1_445
Ba2 O3 3.055944 1_545
Ba2 F1 3.093568 1_455
Ba3 F5 2.602532 1_555
Ba3 O7 2.711152 1_455
Ba3 O9 2.743502 1_455
Ba3 O13 2.866004 1_455
Ba3 O1 2.883837 1_555
Ba3 F7 2.968970 1_555
Ba3 O14 2.995613 1_465
Ba3 O2 3.055944 1_565
Ba3 F1 3.093568 1_465
O0 Si0 1.630838 1_555
O0 Y0 2.349679 1_555
O1 Si1 1.630838 1_555
O1 Y0 2.349679 1_555
O2 Si2 1.630838 1_555
O2 Y1 2.349679 1_555
O3 Si3 1.630838 1_555
O3 Y1 2.349679 1_566
O4 Si2 1.669793 1_555
O4 Y2 2.282242 1_554
O4 Y1 2.396500 1_655
O5 Si3 1.669793 1_555
O5 Y3 2.282242 1_556
O5 Y1 2.396500 1_666
O6 Si0 1.669793 1_555
O6 Y4 2.282242 1_555
O6 Y0 2.396500 1_655
O7 Si1 1.669793 1_555
O7 Y5 2.282242 1_555
O7 Y0 2.396500 1_655
O8 Si3 1.657934 1_545
O8 Y2 2.350654 1_555
O8 Y1 2.409000 1_656
O9 Si2 1.657934 1_565
O9 Y3 2.350654 1_555
O9 Y1 2.409000 1_665
O10 Si1 1.657934 1_555
O10 Y4 2.350654 1_555
O10 Y0 2.409000 1_655
O11 Si0 1.657934 1_555
O11 Y5 2.350654 1_555
O11 Y0 2.409000 1_655
O12 Si0 1.642207 1_555
O12 Y2 2.245538 1_555
O13 Si1 1.642207 1_555
O13 Y3 2.245538 1_555
O14 Si2 1.642207 1_555
O14 Y4 2.245538 1_555
O15 Si3 1.642207 1_555
O15 Y5 2.245538 1_555
F0 Y3 2.300566 1_555
F0 Y2 2.300566 1_554
F1 Y5 2.300566 1_545
F1 Y4 2.300566 1_555
F2 Y2 2.344920 1_554
F2 Y3 2.350632 1_555
F3 Y3 2.344920 1_556
F3 Y2 2.350632 1_555
F4 Y4 2.344920 1_555
F4 Y5 2.350632 1_545
F5 Y5 2.344920 1_555
F5 Y4 2.350632 1_565
F6 Y2 2.225247 1_555
F6 Y1 2.428935 1_556
F7 Y3 2.225247 1_555
F7 Y1 2.428935 1_565
F8 Y4 2.225247 1_555
F8 Y0 2.428935 1_555
F9 Y5 2.225247 1_555
F9 Y0 2.428935 1_555
