# generated using pymatgen
data_Be8NbCr3
_symmetry_space_group_name_H-M   'P 1'
_cell_length_a   4.32111786
_cell_length_b   4.32111786
_cell_length_c   7.08279508
_cell_angle_alpha   90.01461908
_cell_angle_beta   89.98538092
_cell_angle_gamma   120.01931912
_symmetry_Int_Tables_number   1
_chemical_formula_structural   Be8NbCr3
_chemical_formula_sum   'Be8 Nb1 Cr3'
_cell_volume   114.50987389
_cell_formula_units_Z   1
loop_
 _symmetry_equiv_pos_site_id
 _symmetry_equiv_pos_as_xyz
  1  'x, y, z'
loop_
 _atom_site_type_symbol
 _atom_site_label
 _atom_site_symmetry_multiplicity
 _atom_site_fract_x
 _atom_site_fract_y
 _atom_site_fract_z
 _atom_site_occupancy
  Be  Be0  1  0.99998400  0.00001600  0.49548000  1
  Be  Be1  1  0.00001400  0.99998600  0.00142500  1
  Be  Be2  1  0.17017700  0.34018000  0.75973600  1
  Be  Be3  1  0.17015700  0.82984300  0.76001700  1
  Be  Be4  1  0.65982000  0.82982300  0.75973600  1
  Be  Be5  1  0.83030100  0.66081800  0.24291400  1
  Be  Be6  1  0.83035000  0.16965000  0.24271000  1
  Be  Be7  1  0.33918200  0.16969900  0.24291400  1
  Nb  Nb0  1  0.66677800  0.33322200  0.56331500  1
  Cr  Cr0  1  0.33324200  0.66675800  0.42271100  1
  Cr  Cr1  1  0.33323800  0.66676200  0.06700600  1
  Cr  Cr2  1  0.66675700  0.33324300  0.94203700  1
loop_
_geom_bond_atom_site_label_1
_geom_bond_atom_site_label_2
_geom_bond_distance
_geom_bond_site_symmetry_2
Be0 Be5 2.193174 1_545
Be0 Be7 2.193174 1_655
Be0 Be6 2.195176 1_555
Be0 Be4 2.263239 1_545
Be0 Be2 2.263239 1_655
Be0 Be3 2.265942 1_645
Be0 Nb0 2.539806 1_555
Be0 Nb0 2.540703 1_655
Be0 Nb0 2.540703 1_545
Be0 Cr0 2.547019 1_645
Be0 Cr0 2.547357 1_545
Be0 Cr0 2.547357 1_655
Be1 Be6 2.128872 1_465
Be1 Be5 2.129904 1_455
Be1 Be7 2.129904 1_565
Be1 Be3 2.131710 1_554
Be1 Be4 2.133331 1_454
Be1 Be2 2.133331 1_564
Be1 Cr2 2.529752 1_454
Be1 Cr2 2.529752 1_564
Be1 Cr2 2.529808 1_464
Be1 Cr1 2.537240 1_555
Be1 Cr1 2.537529 1_455
Be1 Cr1 2.537529 1_565
Be2 Be4 2.115187 1_555
Be2 Be3 2.115935 1_555
Be2 Be4 2.204669 1_445
Be2 Be3 2.205184 1_545
Be2 Cr1 2.495729 1_556
Be2 Cr2 2.516651 1_455
Be2 Cr2 2.517591 1_555
Be2 Nb0 2.569853 1_555
Be2 Nb0 2.569854 1_455
Be2 Cr0 2.681791 1_555
Be3 Be4 2.115935 1_555
Be3 Be4 2.205184 1_455
Be3 Cr1 2.493869 1_556
Be3 Cr2 2.515548 1_565
Be3 Cr2 2.515548 1_455
Be3 Nb0 2.570400 1_565
Be3 Nb0 2.570400 1_455
Be3 Cr0 2.682549 1_555
Be4 Cr1 2.495729 1_556
Be4 Cr2 2.516651 1_565
Be4 Cr2 2.517591 1_555
Be4 Nb0 2.569853 1_555
Be4 Nb0 2.569854 1_565
Be4 Cr0 2.681791 1_555
Be5 Be7 2.121563 1_555
Be5 Be6 2.122501 1_555
Be5 Be7 2.198293 1_665
Be5 Be6 2.198618 1_565
Be5 Cr2 2.458197 1_554
Be5 Cr1 2.493747 1_655
Be5 Cr1 2.494573 1_555
Be5 Cr0 2.507864 1_555
Be5 Cr0 2.508195 1_655
Be5 Nb0 2.579345 1_555
Be6 Be7 2.122501 1_555
Be6 Be7 2.198618 1_655
Be6 Cr2 2.456866 1_554
Be6 Cr1 2.492882 1_655
Be6 Cr1 2.492882 1_545
Be6 Cr0 2.508220 1_655
Be6 Cr0 2.508220 1_545
Be6 Nb0 2.579506 1_555
Be7 Cr2 2.458197 1_554
Be7 Cr1 2.493747 1_545
Be7 Cr1 2.494573 1_555
Be7 Cr0 2.507864 1_555
Be7 Cr0 2.508195 1_545
Be7 Nb0 2.579345 1_555
Cr0 Cr1 2.519386 1_555
Cr0 Nb0 2.684928 1_565
Cr0 Nb0 2.684928 1_455
Cr0 Nb0 2.688127 1_555
Cr1 Cr2 2.646174 1_564
Cr1 Cr2 2.646174 1_454
Cr1 Cr2 2.648456 1_554
Cr2 Nb0 2.682410 1_555
