# generated using pymatgen
data_MoCl6
_symmetry_space_group_name_H-M   'P 1'
_cell_length_a   5.68118338
_cell_length_b   10.64957003
_cell_length_c   10.64954865
_cell_angle_alpha   60.00039215
_cell_angle_beta   90.00007036
_cell_angle_gamma   90.00037859
_symmetry_Int_Tables_number   1
_chemical_formula_structural   MoCl6
_chemical_formula_sum   'Mo3 Cl18'
_cell_volume   558.00029861
_cell_formula_units_Z   3
loop_
 _symmetry_equiv_pos_site_id
 _symmetry_equiv_pos_as_xyz
  1  'x, y, z'
loop_
 _atom_site_type_symbol
 _atom_site_label
 _atom_site_symmetry_multiplicity
 _atom_site_fract_x
 _atom_site_fract_y
 _atom_site_fract_z
 _atom_site_occupancy
  Mo  Mo0  1  -0.00000655  0.00000136  -0.00000079  1
  Mo  Mo1  1  0.49514385  0.33334678  0.33332800  1
  Mo  Mo2  1  0.50484318  0.66665661  0.66667111  1
  Cl  Cl0  1  0.23326093  0.79681339  0.10159533  1
  Cl  Cl1  1  0.23326770  0.10159765  0.79681586  1
  Cl  Cl2  1  0.23326764  0.10159742  0.10158531  1
  Cl  Cl3  1  0.76673333  0.20319328  0.89840358  1
  Cl  Cl4  1  0.76672680  0.89839939  0.20318910  1
  Cl  Cl5  1  0.76672903  0.89840283  0.89841165  1
  Cl  Cl6  1  0.72842689  0.53650811  0.23174650  1
  Cl  Cl7  1  0.72841683  0.23173812  0.53651297  1
  Cl  Cl8  1  0.72841788  0.23173925  0.23174706  1
  Cl  Cl9  1  0.27156057  0.46350552  0.76824774  1
  Cl  Cl10  1  0.27157379  0.76825472  0.46349954  1
  Cl  Cl11  1  0.27157423  0.76825667  0.76824366  1
  Cl  Cl12  1  0.26141943  0.13037650  0.43481257  1
  Cl  Cl13  1  0.26139267  0.43479711  0.13036923  1
  Cl  Cl14  1  0.26139475  0.43479989  0.43483074  1
  Cl  Cl15  1  0.73859692  0.86960771  0.56519628  1
  Cl  Cl16  1  0.73862928  0.56520469  0.86961571  1
  Cl  Cl17  1  0.73862788  0.56520598  0.56517786  1
loop_
_geom_bond_atom_site_label_1
_geom_bond_atom_site_label_2
_geom_bond_distance
_geom_bond_site_symmetry_2
Cl0 Mo0 2.295222 1_565
Cl1 Mo0 2.295196 1_556
Cl2 Mo0 2.295177 1_555
Cl3 Mo0 2.295227 1_656
Cl4 Mo0 2.295220 1_665
Cl5 Mo0 2.295175 1_666
Cl6 Mo1 2.295057 1_555
Cl7 Mo1 2.295209 1_555
Cl8 Mo1 2.295234 1_555
Cl9 Mo2 2.294979 1_555
Cl10 Mo2 2.295097 1_555
Cl11 Mo2 2.295098 1_555
Cl12 Mo1 2.295069 1_555
Cl13 Mo1 2.295077 1_555
Cl14 Mo1 2.295043 1_555
Cl15 Mo2 2.295021 1_555
Cl16 Mo2 2.295085 1_555
Cl17 Mo2 2.295070 1_555
