# generated using pymatgen
data_KPO3
_symmetry_space_group_name_H-M   'P 1'
_cell_length_a   4.44526820
_cell_length_b   5.81675015
_cell_length_c   12.42586076
_cell_angle_alpha   90.00000000
_cell_angle_beta   90.00000000
_cell_angle_gamma   90.00000000
_symmetry_Int_Tables_number   1
_chemical_formula_structural   KPO3
_chemical_formula_sum   'K4 P4 O12'
_cell_volume   321.29566146
_cell_formula_units_Z   4
loop_
 _symmetry_equiv_pos_site_id
 _symmetry_equiv_pos_as_xyz
  1  'x, y, z'
loop_
 _atom_site_type_symbol
 _atom_site_label
 _atom_site_symmetry_multiplicity
 _atom_site_fract_x
 _atom_site_fract_y
 _atom_site_fract_z
 _atom_site_occupancy
  K  K0  1  0.23203988  0.75000000  0.59251665  1
  K  K1  1  0.73203988  0.75000000  0.90748335  1
  K  K2  1  0.76796012  0.25000000  0.40748335  1
  K  K3  1  0.26796012  0.25000000  0.09251665  1
  P  P0  1  0.68052471  0.25000000  0.67246180  1
  P  P1  1  0.18052471  0.25000000  0.82753820  1
  P  P2  1  0.31947529  0.75000000  0.32753820  1
  P  P3  1  0.81947529  0.75000000  0.17246180  1
  O  O0  1  0.33377649  0.25000000  0.71011884  1
  O  O1  1  0.83377649  0.25000000  0.78988116  1
  O  O2  1  0.66622351  0.75000000  0.28988116  1
  O  O3  1  0.16622351  0.75000000  0.21011884  1
  O  O4  1  0.26012539  0.52972684  0.38389981  1
  O  O5  1  0.76012539  0.97027316  0.11610019  1
  O  O6  1  0.73987461  0.02972684  0.61610019  1
  O  O7  1  0.23987461  0.47027316  0.88389981  1
  O  O8  1  0.76012539  0.52972684  0.11610019  1
  O  O9  1  0.26012539  0.97027316  0.38389981  1
  O  O10  1  0.23987461  0.02972684  0.88389981  1
  O  O11  1  0.73987461  0.47027316  0.61610019  1
loop_
_geom_bond_atom_site_label_1
_geom_bond_atom_site_label_2
_geom_bond_distance
_geom_bond_site_symmetry_2
K0 O6 2.742231 1_465
K0 O11 2.742231 1_455
K0 O11 2.798118 1_555
K0 O6 2.798118 1_565
K0 O9 2.894301 1_555
K0 O4 2.894301 1_555
K1 O7 2.742231 1_555
K1 O10 2.742231 1_565
K1 O7 2.798118 1_655
K1 O10 2.798118 1_665
K1 O5 2.894301 1_556
K1 O8 2.894301 1_556
K2 O4 2.742231 1_655
K2 O9 2.742231 1_645
K2 O4 2.798118 1_555
K2 O9 2.798118 1_545
K2 O6 2.894301 1_555
K2 O11 2.894301 1_555
K3 O5 2.742231 1_545
K3 O8 2.742231 1_555
K3 O5 2.798118 1_445
K3 O8 2.798118 1_455
K3 O10 2.894301 1_554
K3 O7 2.894301 1_554
O0 P1 1.610243 1_555
O0 P0 1.610848 1_555
O1 P0 1.610243 1_555
O1 P1 1.610848 1_655
O2 P3 1.610243 1_555
O2 P2 1.610848 1_555
O3 P2 1.610243 1_555
O3 P3 1.610848 1_455
O4 P2 1.483828 1_555
O5 P3 1.483828 1_555
O6 P0 1.483828 1_555
O7 P1 1.483828 1_555
O8 P3 1.483828 1_555
O9 P2 1.483828 1_555
O10 P1 1.483828 1_555
O11 P0 1.483828 1_555
