# generated using pymatgen
data_LiCr(CoO3)2
_symmetry_space_group_name_H-M   'P 1'
_cell_length_a   2.90132447
_cell_length_b   9.84180283
_cell_length_c   7.67329367
_cell_angle_alpha   94.70188004
_cell_angle_beta   101.96218601
_cell_angle_gamma   81.91222140
_symmetry_Int_Tables_number   1
_chemical_formula_structural   LiCr(CoO3)2
_chemical_formula_sum   'Li2 Cr2 Co4 O12'
_cell_volume   211.89963057
_cell_formula_units_Z   2
loop_
 _symmetry_equiv_pos_site_id
 _symmetry_equiv_pos_as_xyz
  1  'x, y, z'
loop_
 _atom_site_type_symbol
 _atom_site_label
 _atom_site_symmetry_multiplicity
 _atom_site_fract_x
 _atom_site_fract_y
 _atom_site_fract_z
 _atom_site_occupancy
  Li  Li0  1  0.66379500  0.25014300  0.58223500  1
  Li  Li1  1  0.66577400  0.74950300  0.08627500  1
  Cr  Cr0  1  0.68000800  0.49924200  0.83189600  1
  Cr  Cr1  1  0.66695200  0.00009800  0.33408200  1
  Co  Co0  1  0.33736000  0.99262300  0.67009400  1
  Co  Co1  1  0.99648700  0.00804500  0.99800600  1
  Co  Co2  1  0.33879200  0.48785500  0.16711700  1
  Co  Co3  1  0.97950900  0.51023000  0.49893500  1
  O  O0  1  0.50494900  0.10217200  0.10821100  1
  O  O1  1  0.49239300  0.60398900  0.60986800  1
  O  O2  1  0.82972500  0.89848500  0.56018100  1
  O  O3  1  0.89987800  0.39015700  0.04530700  1
  O  O4  1  0.18925700  0.10388600  0.47087600  1
  O  O5  1  0.19973100  0.60369800  0.96655300  1
  O  O6  1  0.14392300  0.89676500  0.19682500  1
  O  O7  1  0.14909500  0.39701400  0.69579700  1
  O  O8  1  0.84490500  0.09621100  0.77891600  1
  O  O9  1  0.78989300  0.59996400  0.28378000  1
  O  O10  1  0.48894800  0.90469300  0.88904700  1
  O  O11  1  0.47195800  0.40522500  0.39266000  1
loop_
_geom_bond_atom_site_label_1
_geom_bond_atom_site_label_2
_geom_bond_distance
_geom_bond_site_symmetry_2
Li0 O11 2.131835 1_555
Li0 O4 2.136816 1_555
Li0 O8 2.161250 1_555
Li0 O7 2.165365 1_655
Li0 O7 2.191861 1_555
Li0 O4 2.201639 1_655
Li1 O5 2.132213 1_554
Li1 O9 2.140739 1_555
Li1 O6 2.149650 1_655
Li1 O10 2.173237 1_554
Li1 O6 2.196792 1_555
Li1 O5 2.247531 1_654
Cr0 O3 1.975764 1_556
Cr0 O7 1.996685 1_655
Cr0 O1 2.001802 1_555
Cr0 O5 2.003593 1_655
Cr0 O7 2.018054 1_555
Cr0 O5 2.021331 1_555
Cr1 O4 2.010457 1_655
Cr1 O6 2.010565 1_545
Cr1 O2 2.011221 1_545
Cr1 O0 2.012191 1_555
Cr1 O6 2.022653 1_645
Cr1 O4 2.023598 1_555
Co0 O2 1.865425 1_455
Co0 O10 1.894729 1_555
Co0 O4 1.894799 1_565
Co0 O2 1.899804 1_555
Co0 O8 1.917859 1_565
Co0 O8 1.929546 1_465
Co1 O0 1.867756 1_656
Co1 O6 1.892474 1_646
Co1 O8 1.896804 1_555
Co1 O0 1.899163 1_556
Co1 O10 1.916690 1_545
Co1 O10 1.929229 1_645
Co2 O3 1.767367 1_455
Co2 O9 1.868266 1_555
Co2 O11 1.915969 1_555
Co2 O5 1.931820 1_554
Co2 O9 2.118853 1_455
Co2 O3 2.119237 1_555
Co3 O1 1.876927 1_655
Co3 O9 1.879906 1_555
Co3 O1 1.891134 1_555
Co3 O7 1.891844 1_655
Co3 O11 1.921905 1_555
Co3 O11 1.924498 1_655
