# generated using pymatgen
data_TbTl(WO4)2
_symmetry_space_group_name_H-M   'P 1'
_cell_length_a   7.65111493
_cell_length_b   7.65111493
_cell_length_c   7.49777341
_cell_angle_alpha   62.43497980
_cell_angle_beta   62.43497980
_cell_angle_gamma   88.55985652
_symmetry_Int_Tables_number   1
_chemical_formula_structural   TbTl(WO4)2
_chemical_formula_sum   'Tb2 Tl2 W4 O16'
_cell_volume   334.80084713
_cell_formula_units_Z   2
loop_
 _symmetry_equiv_pos_site_id
 _symmetry_equiv_pos_as_xyz
  1  'x, y, z'
loop_
 _atom_site_type_symbol
 _atom_site_label
 _atom_site_symmetry_multiplicity
 _atom_site_fract_x
 _atom_site_fract_y
 _atom_site_fract_z
 _atom_site_occupancy
  Tb  Tb0  1  0.77584600  0.22415400  0.75000000  1
  Tb  Tb1  1  0.22415400  0.77584600  0.25000000  1
  Tl  Tl0  1  0.20570200  0.79429800  0.75000000  1
  Tl  Tl1  1  0.79429800  0.20570200  0.25000000  1
  W  W0  1  0.70035100  0.68992700  0.78139600  1
  W  W1  1  0.29964900  0.31007300  0.21860400  1
  W  W2  1  0.31007300  0.29964900  0.71860400  1
  W  W3  1  0.68992700  0.70035100  0.28139600  1
  O  O0  1  0.62029000  0.75386700  0.55920000  1
  O  O1  1  0.37971000  0.24613300  0.44080000  1
  O  O2  1  0.24613300  0.37971000  0.94080000  1
  O  O3  1  0.75386700  0.62029000  0.05920000  1
  O  O4  1  0.37636000  0.06315800  0.87512500  1
  O  O5  1  0.62364000  0.93684200  0.12487500  1
  O  O6  1  0.93684200  0.62364000  0.62487500  1
  O  O7  1  0.06315800  0.37636000  0.37512500  1
  O  O8  1  0.58931500  0.37009800  0.96751900  1
  O  O9  1  0.41068500  0.62990200  0.03248100  1
  O  O10  1  0.62990200  0.41068500  0.53248100  1
  O  O11  1  0.37009800  0.58931500  0.46751900  1
  O  O12  1  0.78364300  0.95463500  0.68978500  1
  O  O13  1  0.21635700  0.04536500  0.31021500  1
  O  O14  1  0.04536500  0.21635700  0.81021500  1
  O  O15  1  0.95463500  0.78364300  0.18978500  1
loop_
_geom_bond_atom_site_label_1
_geom_bond_atom_site_label_2
_geom_bond_distance
_geom_bond_site_symmetry_2
O0 W0 1.888159 1_555
O0 W3 2.131035 1_555
O1 W1 1.888159 1_555
O1 W2 2.131035 1_555
O2 W2 1.888159 1_555
O2 W1 2.131035 1_556
O3 W3 1.888159 1_555
O3 W0 2.131035 1_554
O4 W2 1.856854 1_555
O4 Tb1 2.338701 1_546
O5 W3 1.856854 1_555
O5 Tb0 2.338701 1_564
O6 W0 1.856854 1_555
O6 Tb1 2.338701 1_655
O7 W1 1.856854 1_555
O7 Tb0 2.338701 1_455
O8 W1 2.014035 1_556
O8 W0 2.122257 1_555
O8 Tb0 2.322653 1_555
O9 W0 2.014035 1_554
O9 W1 2.122257 1_555
O9 Tb1 2.322653 1_555
O10 W3 2.014035 1_555
O10 W2 2.122257 1_555
O10 Tb0 2.322653 1_555
O11 W2 2.014035 1_555
O11 W3 2.122257 1_555
O11 Tb1 2.322653 1_555
O12 W0 1.830859 1_555
O12 Tb0 2.300060 1_565
O13 W1 1.830859 1_555
O13 Tb1 2.300060 1_545
O14 W2 1.830859 1_555
O14 Tb0 2.300060 1_455
O15 W3 1.830859 1_555
O15 Tb1 2.300060 1_655
