# generated using pymatgen
data_KCaNi2H3(SeO5)2
_symmetry_space_group_name_H-M   'P 1'
_cell_length_a   6.26691455
_cell_length_b   6.89462568
_cell_length_c   8.70429938
_cell_angle_alpha   55.69664827
_cell_angle_beta   60.76074271
_cell_angle_gamma   63.95892072
_symmetry_Int_Tables_number   1
_chemical_formula_structural   KCaNi2H3(SeO5)2
_chemical_formula_sum   'K1 Ca1 Ni2 H3 Se2 O10'
_cell_volume   264.00862505
_cell_formula_units_Z   1
loop_
 _symmetry_equiv_pos_site_id
 _symmetry_equiv_pos_as_xyz
  1  'x, y, z'
loop_
 _atom_site_type_symbol
 _atom_site_label
 _atom_site_symmetry_multiplicity
 _atom_site_fract_x
 _atom_site_fract_y
 _atom_site_fract_z
 _atom_site_occupancy
  K  K0  1  0.48976000  0.46340800  0.44311600  1
  Ca  Ca0  1  0.56006200  0.47229300  0.81264300  1
  Ni  Ni0  1  0.01419600  0.45730400  0.98591900  1
  Ni  Ni1  1  0.49197500  0.97047400  0.93528500  1
  H  H0  1  0.79820900  0.75475500  0.75834300  1
  H  H1  1  0.23692400  0.28207800  0.27681000  1
  H  H2  1  0.21311400  0.55846300  0.14500600  1
  Se  Se0  1  0.89748500  0.89826200  0.27413700  1
  Se  Se1  1  0.10597100  0.03772100  0.72637300  1
  O  O0  1  0.82397200  0.73282600  0.51725100  1
  O  O1  1  0.26336000  0.17952000  0.48573900  1
  O  O2  1  0.21282800  0.79180300  0.17758000  1
  O  O3  1  0.83491700  0.18947300  0.22023600  1
  O  O4  1  0.79102400  0.14147300  0.73411900  1
  O  O5  1  0.18186300  0.74293300  0.76041300  1
  O  O6  1  0.69730600  0.66983800  0.89590800  1
  O  O7  1  0.23309700  0.41099300  0.13885700  1
  O  O8  1  0.74529300  0.85879300  0.18518400  1
  O  O9  1  0.30402600  0.28297400  0.84974700  1
loop_
_geom_bond_atom_site_label_1
_geom_bond_atom_site_label_2
_geom_bond_distance
_geom_bond_site_symmetry_2
K0 O1 2.662212 1_555
K0 O9 2.777362 1_555
K0 O2 2.837337 1_555
K0 O3 2.907406 1_555
K0 O8 2.908355 1_555
K0 O4 3.092322 1_555
Ca0 O9 2.289150 1_555
Ca0 O5 2.349334 1_555
Ca0 O4 2.378363 1_555
Ca0 O0 2.412753 1_555
Ca0 O6 2.422865 1_555
Ca0 O7 2.482668 1_556
Ni0 O9 1.932457 1_555
Ni0 O3 2.042050 1_456
Ni0 O5 2.068844 1_555
Ni0 O6 2.091845 1_455
Ni0 O7 2.162493 1_556
Ni1 O9 1.845049 1_565
Ni1 O6 2.024277 1_555
Ni1 O4 2.091803 1_565
Ni1 O2 2.094109 1_556
H0 O6 0.985702 1_555
H1 O7 1.019260 1_555
H1 O1 1.605219 1_555
H2 O7 0.997658 1_555
H2 O2 1.783178 1_555
O0 Se0 1.667237 1_555
O1 Se1 1.684084 1_555
O2 Se0 1.717472 1_455
O3 Se0 1.682794 1_545
O4 Se1 1.759716 1_655
O5 Se1 1.747856 1_565
O8 Se0 1.664346 1_555
