# generated using pymatgen
data_NaPO
_symmetry_space_group_name_H-M   'P 1'
_cell_length_a   5.84043013
_cell_length_b   5.84043013
_cell_length_c   5.84043013
_cell_angle_alpha   153.02244410
_cell_angle_beta   102.56693763
_cell_angle_gamma   83.75590935
_symmetry_Int_Tables_number   1
_chemical_formula_structural   NaPO
_chemical_formula_sum   'Na2 P2 O2'
_cell_volume   86.56351233
_cell_formula_units_Z   2
loop_
 _symmetry_equiv_pos_site_id
 _symmetry_equiv_pos_as_xyz
  1  'x, y, z'
loop_
 _atom_site_type_symbol
 _atom_site_label
 _atom_site_symmetry_multiplicity
 _atom_site_fract_x
 _atom_site_fract_y
 _atom_site_fract_z
 _atom_site_occupancy
  Na  Na0  1  0.50000000  0.50000000  0.00000000  1
  Na  Na1  1  0.00000000  0.00000000  0.00000000  1
  P  P0  1  0.00000000  0.00000000  0.50000000  1
  P  P1  1  0.50000000  0.00000000  0.00000000  1
  O  O0  1  0.75000000  0.03401700  0.28401700  1
  O  O1  1  0.25000000  0.96598300  0.71598300  1
loop_
_geom_bond_atom_site_label_1
_geom_bond_atom_site_label_2
_geom_bond_distance
_geom_bond_site_symmetry_2
Na0 O0 2.307901 1_565
Na0 O1 2.307901 1_544
Na1 O1 2.307901 1_544
Na1 O0 2.307901 1_455
O0 P0 1.828851 1_655
O0 P1 1.828851 1_555
O1 P0 1.828851 1_565
O1 P1 1.828851 1_566
