# generated using pymatgen
data_Li9Mn7O16
_symmetry_space_group_name_H-M   'P 1'
_cell_length_a   2.86921100
_cell_length_b   19.57437823
_cell_length_c   5.40061274
_cell_angle_alpha   89.37089628
_cell_angle_beta   90.00000000
_cell_angle_gamma   85.79702444
_symmetry_Int_Tables_number   1
_chemical_formula_structural   Li9Mn7O16
_chemical_formula_sum   'Li9 Mn7 O16'
_cell_volume   302.48068329
_cell_formula_units_Z   1
loop_
 _symmetry_equiv_pos_site_id
 _symmetry_equiv_pos_as_xyz
  1  'x, y, z'
loop_
 _atom_site_type_symbol
 _atom_site_label
 _atom_site_symmetry_multiplicity
 _atom_site_fract_x
 _atom_site_fract_y
 _atom_site_fract_z
 _atom_site_occupancy
  Li  Li0  1  0.44022000  0.11956000  0.18166200  1
  Li  Li1  1  0.31271300  0.37457500  0.56289000  1
  Li  Li2  1  0.18732600  0.62534900  0.93782000  1
  Li  Li3  1  0.05935500  0.88128900  0.31729900  1
  Li  Li4  1  0.94064500  0.11871100  0.68270100  1
  Li  Li5  1  0.81267400  0.37465100  0.06218000  1
  Li  Li6  1  0.68728700  0.62542500  0.43711000  1
  Li  Li7  1  0.55978000  0.88044000  0.81833800  1
  Li  Li8  1  0.50000000  0.00000000  0.50000000  1
  Mn  Mn0  1  0.00000000  0.00000000  0.00000000  1
  Mn  Mn1  1  0.87541300  0.24917400  0.37373200  1
  Mn  Mn2  1  0.74999500  0.50001000  0.75000900  1
  Mn  Mn3  1  0.62497500  0.75005000  0.12707400  1
  Mn  Mn4  1  0.37502500  0.24995000  0.87292600  1
  Mn  Mn5  1  0.25000500  0.49999000  0.24999100  1
  Mn  Mn6  1  0.12458700  0.75082600  0.62626800  1
  O  O0  1  0.47140400  0.05719200  0.85872200  1
  O  O1  1  0.34605200  0.30789600  0.23809400  1
  O  O2  1  0.22095600  0.55808800  0.61414700  1
  O  O3  1  0.09700000  0.80600000  0.98690900  1
  O  O4  1  0.97248500  0.05503000  0.29689900  1
  O  O5  1  0.84581100  0.30837900  0.73581500  1
  O  O6  1  0.72096100  0.55807900  0.11393600  1
  O  O7  1  0.59611500  0.80777000  0.48555500  1
  O  O8  1  0.40388500  0.19223000  0.51444500  1
  O  O9  1  0.27903900  0.44192100  0.88606400  1
  O  O10  1  0.15418900  0.69162100  0.26418500  1
  O  O11  1  0.02751500  0.94497000  0.70310100  1
  O  O12  1  0.90300000  0.19400000  0.01309100  1
  O  O13  1  0.77904400  0.44191200  0.38585300  1
  O  O14  1  0.65394800  0.69210400  0.76190600  1
  O  O15  1  0.52859600  0.94280800  0.14127800  1
loop_
_geom_bond_atom_site_label_1
_geom_bond_atom_site_label_2
_geom_bond_distance
_geom_bond_site_symmetry_2
Li0 O4 2.003769 1_555
Li0 O4 2.003769 1_455
Li0 O0 2.137974 1_554
Li0 O12 2.229249 1_455
Li0 O12 2.229249 1_555
Li0 O8 2.301898 1_555
Li1 O5 2.138604 1_555
Li1 O5 2.138604 1_455
Li1 O13 2.161611 1_555
Li1 O13 2.161613 1_455
Li1 O1 2.195798 1_555
Li1 O9 2.196632 1_555
Li2 O14 2.152132 1_555
Li2 O14 2.152134 1_455
Li2 O6 2.158660 1_556
Li2 O6 2.158660 1_456
Li2 O2 2.197785 1_555
Li2 O10 2.197872 1_556
Li3 O15 2.092590 1_455
Li3 O15 2.092592 1_555
Li3 O7 2.216965 1_455
Li3 O7 2.216967 1_555
Li3 O3 2.324162 1_554
Li3 O11 2.437979 1_555
Li4 O0 2.092590 1_655
Li4 O0 2.092592 1_555
Li4 O8 2.216965 1_655
Li4 O8 2.216967 1_555
Li4 O12 2.324162 1_556
Li4 O4 2.437979 1_555
Li5 O1 2.152132 1_555
Li5 O1 2.152134 1_655
Li5 O9 2.158660 1_554
Li5 O9 2.158660 1_654
Li5 O13 2.197785 1_555
Li5 O5 2.197872 1_554
Li6 O10 2.138604 1_555
Li6 O10 2.138604 1_655
Li6 O2 2.161611 1_555
Li6 O2 2.161613 1_655
Li6 O14 2.195798 1_555
Li6 O6 2.196632 1_555
Li7 O11 2.003769 1_555
Li7 O11 2.003769 1_655
Li7 O15 2.137974 1_556
Li7 O3 2.229249 1_655
Li7 O3 2.229249 1_555
Li7 O7 2.301898 1_555
Li8 O11 2.095078 1_645
Li8 O4 2.095078 1_455
Li8 O4 2.095078 1_555
Li8 O11 2.095078 1_545
Li8 O0 2.246636 1_555
Li8 O15 2.246636 1_545
Mn0 O4 1.939850 1_455
Mn0 O11 1.939850 1_544
Mn0 O15 1.966731 1_545
Mn0 O0 1.966731 1_454
Mn0 O0 1.966731 1_554
Mn0 O15 1.966731 1_445
Mn1 O8 1.962843 1_655
Mn1 O8 1.962843 1_555
Mn1 O1 1.972392 1_555
Mn1 O1 1.972392 1_655
Mn1 O12 2.236020 1_555
Mn1 O5 2.282425 1_555
Mn2 O2 1.965607 1_555
Mn2 O2 1.965607 1_655
Mn2 O9 1.966112 1_655
Mn2 O9 1.966114 1_555
Mn2 O6 2.279701 1_556
Mn2 O13 2.281061 1_555
Mn3 O3 1.950870 1_554
Mn3 O3 1.950870 1_654
Mn3 O10 1.972018 1_655
Mn3 O10 1.972020 1_555
Mn3 O7 2.250747 1_555
Mn3 O14 2.284305 1_554
Mn4 O12 1.950870 1_556
Mn4 O12 1.950870 1_456
Mn4 O5 1.972018 1_455
Mn4 O5 1.972020 1_555
Mn4 O8 2.250747 1_555
Mn4 O1 2.284305 1_556
Mn5 O13 1.965607 1_555
Mn5 O13 1.965607 1_455
Mn5 O6 1.966112 1_455
Mn5 O6 1.966114 1_555
Mn5 O9 2.279701 1_554
Mn5 O2 2.281061 1_555
Mn6 O7 1.962843 1_455
Mn6 O7 1.962843 1_555
Mn6 O14 1.972392 1_555
Mn6 O14 1.972392 1_455
Mn6 O3 2.236020 1_555
Mn6 O10 2.282425 1_555
