# generated using pymatgen
data_Co5Te6
_symmetry_space_group_name_H-M   'P 1'
_cell_length_a   6.64448762
_cell_length_b   6.64448762
_cell_length_c   6.64448858
_cell_angle_alpha   61.66939993
_cell_angle_beta   61.66939993
_cell_angle_gamma   61.66939607
_symmetry_Int_Tables_number   1
_chemical_formula_structural   Co5Te6
_chemical_formula_sum   'Co5 Te6'
_cell_volume   215.19290031
_cell_formula_units_Z   1
loop_
 _symmetry_equiv_pos_site_id
 _symmetry_equiv_pos_as_xyz
  1  'x, y, z'
loop_
 _atom_site_type_symbol
 _atom_site_label
 _atom_site_symmetry_multiplicity
 _atom_site_fract_x
 _atom_site_fract_y
 _atom_site_fract_z
 _atom_site_occupancy
  Co  Co0  1  0.83724550  0.83724550  0.83724550  1
  Co  Co1  1  0.50000000  0.50000000  0.50000000  1
  Co  Co2  1  0.16275450  0.16275450  0.16275450  1
  Co  Co3  1  0.66592609  0.66592609  0.66592609  1
  Co  Co4  1  0.33407391  0.33407391  0.33407391  1
  Te  Te0  1  0.07873193  0.42312192  0.75559149  1
  Te  Te1  1  0.75559149  0.07873193  0.42312192  1
  Te  Te2  1  0.42312192  0.75559149  0.07873193  1
  Te  Te3  1  0.92126807  0.57687808  0.24440851  1
  Te  Te4  1  0.57687808  0.24440851  0.92126807  1
  Te  Te5  1  0.24440851  0.92126807  0.57687808  1
loop_
_geom_bond_atom_site_label_1
_geom_bond_atom_site_label_2
_geom_bond_distance
_geom_bond_site_symmetry_2
Co0 Te4 2.588124 1_565
Co0 Te5 2.588124 1_655
Co0 Te3 2.588124 1_556
Co0 Te0 2.615465 1_655
Co0 Te2 2.615465 1_556
Co0 Te1 2.615465 1_565
Co0 Co3 2.752629 1_555
Co1 Te5 2.646133 1_555
Co1 Te1 2.646133 1_555
Co1 Te3 2.646134 1_555
Co1 Te0 2.646134 1_555
Co1 Te4 2.646134 1_555
Co1 Te2 2.646134 1_555
Co1 Co4 2.665973 1_555
Co1 Co3 2.665973 1_555
Co2 Te2 2.588124 1_545
Co2 Te1 2.588124 1_455
Co2 Te0 2.588124 1_554
Co2 Te3 2.615465 1_455
Co2 Te4 2.615465 1_554
Co2 Te5 2.615465 1_545
Co2 Co4 2.752629 1_555
Co3 Te0 2.630572 1_655
Co3 Te1 2.630572 1_565
Co3 Te2 2.630573 1_556
Co3 Te5 2.680096 1_555
Co3 Te4 2.680096 1_555
Co3 Te3 2.680096 1_555
Co4 Te3 2.630572 1_455
Co4 Te5 2.630572 1_545
Co4 Te4 2.630573 1_554
Co4 Te1 2.680096 1_555
Co4 Te2 2.680096 1_555
Co4 Te0 2.680096 1_555
