# generated using pymatgen
data_MgSi
_symmetry_space_group_name_H-M   'P 1'
_cell_length_a   4.46202000
_cell_length_b   5.26436824
_cell_length_c   10.36008274
_cell_angle_alpha   91.68859917
_cell_angle_beta   92.14880727
_cell_angle_gamma   113.50493796
_symmetry_Int_Tables_number   1
_chemical_formula_structural   MgSi
_chemical_formula_sum   'Mg6 Si6'
_cell_volume   222.74407240
_cell_formula_units_Z   6
loop_
 _symmetry_equiv_pos_site_id
 _symmetry_equiv_pos_as_xyz
  1  'x, y, z'
loop_
 _atom_site_type_symbol
 _atom_site_label
 _atom_site_symmetry_multiplicity
 _atom_site_fract_x
 _atom_site_fract_y
 _atom_site_fract_z
 _atom_site_occupancy
  Mg  Mg0  1  0.87880900  0.73323700  0.90175500  1
  Mg  Mg1  1  0.12119100  0.26676300  0.09824500  1
  Mg  Mg2  1  0.54507500  0.10452000  0.34938800  1
  Mg  Mg3  1  0.45492500  0.89548000  0.65061200  1
  Mg  Mg4  1  0.81770500  0.65927800  0.20387500  1
  Mg  Mg5  1  0.18229500  0.34072200  0.79612500  1
  Si  Si0  1  0.74866400  0.48980900  0.64300000  1
  Si  Si1  1  0.87132700  0.76318800  0.45988200  1
  Si  Si2  1  0.59204700  0.13759400  0.90678800  1
  Si  Si3  1  0.40795300  0.86240600  0.09321200  1
  Si  Si4  1  0.25133600  0.51019100  0.35700000  1
  Si  Si5  1  0.12867300  0.23681200  0.54011800  1
loop_
_geom_bond_atom_site_label_1
_geom_bond_atom_site_label_2
_geom_bond_distance
_geom_bond_site_symmetry_2
Mg0 Si0 2.872792 1_555
Mg0 Si3 2.874013 1_656
Mg0 Si2 2.878665 1_555
Mg0 Si2 2.888303 1_565
Mg0 Si2 3.039655 1_665
Mg0 Si3 3.191137 1_556
Mg1 Si4 2.872792 1_555
Mg1 Si2 2.874013 1_454
Mg1 Si3 2.878665 1_555
Mg1 Si3 2.888303 1_545
Mg1 Si3 3.039655 1_445
Mg1 Si2 3.191137 1_554
Mg2 Si3 2.845955 1_545
Mg2 Si4 2.874810 1_545
Mg2 Si4 2.918113 1_555
Mg2 Si1 2.956554 1_545
Mg2 Si5 3.011313 1_555
Mg2 Si4 3.016822 1_655
Mg2 Si5 3.042519 1_655
Mg2 Si1 3.106013 1_445
Mg3 Si2 2.845955 1_565
Mg3 Si0 2.874810 1_565
Mg3 Si0 2.918113 1_555
Mg3 Si5 2.956554 1_565
Mg3 Si1 3.011313 1_555
Mg3 Si0 3.016822 1_455
Mg3 Si1 3.042519 1_455
Mg3 Si5 3.106013 1_665
Mg4 Si1 2.674591 1_555
Mg4 Si3 2.697262 1_555
Mg4 Si3 2.728827 1_655
Mg4 Si4 2.816175 1_655
Mg4 Si4 2.882884 1_555
Mg5 Si5 2.674591 1_555
Mg5 Si2 2.697262 1_555
Mg5 Si2 2.728827 1_455
Mg5 Si0 2.816175 1_455
Mg5 Si0 2.882884 1_555
Si0 Si1 2.362263 1_555
Si0 Si5 2.705409 1_555
Si0 Si5 2.763741 1_655
Si1 Si5 2.397661 1_665
Si1 Si4 2.705409 1_555
Si1 Si4 2.763741 1_655
Si2 Si3 2.416256 1_546
Si4 Si5 2.362263 1_555
