# generated using pymatgen
data_DyGa4Ni
_symmetry_space_group_name_H-M   'P 1'
_cell_length_a   4.12481100
_cell_length_b   6.57903600
_cell_length_c   7.91008425
_cell_angle_alpha   90.00000000
_cell_angle_beta   105.11344769
_cell_angle_gamma   90.00000000
_symmetry_Int_Tables_number   1
_chemical_formula_structural   DyGa4Ni
_chemical_formula_sum   'Dy2 Ga8 Ni2'
_cell_volume   207.23345927
_cell_formula_units_Z   2
loop_
 _symmetry_equiv_pos_site_id
 _symmetry_equiv_pos_as_xyz
  1  'x, y, z'
loop_
 _atom_site_type_symbol
 _atom_site_label
 _atom_site_symmetry_multiplicity
 _atom_site_fract_x
 _atom_site_fract_y
 _atom_site_fract_z
 _atom_site_occupancy
  Dy  Dy0  1  0.38173300  0.25000000  0.76346600  1
  Dy  Dy1  1  0.61826700  0.75000000  0.23653400  1
  Ga  Ga0  1  0.00000000  0.00000000  0.00000000  1
  Ga  Ga1  1  0.00000000  0.50000000  0.00000000  1
  Ga  Ga2  1  0.57229900  0.25000000  0.14459900  1
  Ga  Ga3  1  0.42770100  0.75000000  0.85540100  1
  Ga  Ga4  1  0.18640900  0.05103500  0.37281800  1
  Ga  Ga5  1  0.81359100  0.94896500  0.62718200  1
  Ga  Ga6  1  0.18640900  0.44896500  0.37281800  1
  Ga  Ga7  1  0.81359100  0.55103500  0.62718200  1
  Ni  Ni0  1  0.72462000  0.25000000  0.44924100  1
  Ni  Ni1  1  0.27538000  0.75000000  0.55075900  1
loop_
_geom_bond_atom_site_label_1
_geom_bond_atom_site_label_2
_geom_bond_distance
_geom_bond_site_symmetry_2
Dy0 Ga2 2.910517 1_556
Dy0 Ga7 3.042876 1_555
Dy0 Ga5 3.042876 1_545
Dy0 Ga7 3.042876 1_455
Dy0 Ga5 3.042876 1_445
Dy0 Ni0 3.164090 1_555
Dy0 Ni0 3.164093 1_455
Dy0 Ga0 3.197097 1_556
Dy0 Ga1 3.197097 1_556
Dy0 Ga0 3.197097 1_656
Dy0 Ga1 3.197097 1_656
Dy0 Ga4 3.257733 1_555
Dy0 Ga6 3.257733 1_555
Dy0 Ga3 3.363602 1_555
Dy0 Ga3 3.363602 1_545
Dy1 Ga3 2.910517 1_554
Dy1 Ga4 3.042876 1_565
Dy1 Ga6 3.042876 1_555
Dy1 Ga4 3.042876 1_665
Dy1 Ga6 3.042876 1_655
Dy1 Ni1 3.164090 1_555
Dy1 Ni1 3.164093 1_655
Dy1 Ga1 3.197097 1_655
Dy1 Ga0 3.197097 1_665
Dy1 Ga1 3.197097 1_555
Dy1 Ga0 3.197097 1_565
Dy1 Ga5 3.257733 1_555
Dy1 Ga7 3.257733 1_555
Dy1 Ga2 3.363602 1_555
Dy1 Ga2 3.363602 1_565
Ga0 Ga2 2.859731 1_555
Ga0 Ga3 2.859731 1_444
Ga0 Ga2 2.859734 1_455
Ga0 Ga3 2.859734 1_544
Ga0 Ga4 2.866750 1_555
Ga0 Ga5 2.866750 1_444
Ga1 Ga2 2.859731 1_555
Ga1 Ga3 2.859731 1_454
Ga1 Ga3 2.859734 1_554
Ga1 Ga2 2.859734 1_455
Ga1 Ga7 2.866750 1_454
Ga1 Ga6 2.866750 1_555
Ga2 Ni0 2.326394 1_555
Ga2 Ga6 3.000717 1_555
Ga2 Ga4 3.000717 1_555
Ga2 Ga6 3.000720 1_655
Ga2 Ga4 3.000720 1_655
Ga3 Ni1 2.326394 1_555
Ga3 Ga5 3.000717 1_555
Ga3 Ga7 3.000717 1_555
Ga3 Ga5 3.000720 1_455
Ga3 Ga7 3.000720 1_455
Ga4 Ni1 2.401857 1_545
Ga4 Ni0 2.511489 1_555
Ga4 Ni0 2.511492 1_455
Ga4 Ga6 2.617996 1_555
Ga4 Ga5 2.911625 1_445
Ga4 Ga5 2.911625 1_545
Ga5 Ni0 2.401857 1_565
Ga5 Ni1 2.511489 1_555
Ga5 Ni1 2.511492 1_655
Ga5 Ga7 2.617996 1_555
Ga6 Ni1 2.401857 1_555
Ga6 Ni0 2.511489 1_555
Ga6 Ni0 2.511492 1_455
Ga6 Ga7 2.911625 1_455
Ga6 Ga7 2.911625 1_555
Ga7 Ni0 2.401857 1_555
Ga7 Ni1 2.511489 1_555
Ga7 Ni1 2.511492 1_655
