# generated using pymatgen
data_Zr4Ti(PbO3)5
_symmetry_space_group_name_H-M   'P 1'
_cell_length_a   5.88360100
_cell_length_b   5.95084737
_cell_length_c   24.28171966
_cell_angle_alpha   96.61879162
_cell_angle_beta   89.98413623
_cell_angle_gamma   119.62203100
_symmetry_Int_Tables_number   1
_chemical_formula_structural   Zr4Ti(PbO3)5
_chemical_formula_sum   'Zr8 Ti2 Pb10 O30'
_cell_volume   732.53987236
_cell_formula_units_Z   2
loop_
 _symmetry_equiv_pos_site_id
 _symmetry_equiv_pos_as_xyz
  1  'x, y, z'
loop_
 _atom_site_type_symbol
 _atom_site_label
 _atom_site_symmetry_multiplicity
 _atom_site_fract_x
 _atom_site_fract_y
 _atom_site_fract_z
 _atom_site_occupancy
  Zr  Zr0  1  0.12031700  0.94035300  0.29988900  1
  Zr  Zr1  1  0.52023800  0.53835300  0.50207800  1
  Zr  Zr2  1  0.92085200  0.13754000  0.70364600  1
  Zr  Zr3  1  0.32309300  0.73977900  0.90588400  1
  Zr  Zr4  1  0.72201400  0.34109900  0.10305000  1
  Zr  Zr5  1  0.82017000  0.23846100  0.40111000  1
  Zr  Zr6  1  0.22033200  0.83765800  0.60290400  1
  Zr  Zr7  1  0.62039500  0.43693200  0.80449000  1
  Ti  Ti0  1  0.02365500  0.04407300  0.00446700  1
  Ti  Ti1  1  0.42461400  0.64517800  0.20230300  1
  Pb  Pb0  1  0.10546100  0.05498000  0.15612600  1
  Pb  Pb1  1  0.50153700  0.64554800  0.35497000  1
  Pb  Pb2  1  0.90158400  0.24561300  0.55742300  1
  Pb  Pb3  1  0.30218300  0.84553400  0.75871100  1
  Pb  Pb4  1  0.70565700  0.45411800  0.95983400  1
  Pb  Pb5  1  0.20095400  0.94577000  0.45690900  1
  Pb  Pb6  1  0.60167100  0.54534400  0.65794400  1
  Pb  Pb7  1  0.00294200  0.14158800  0.86159200  1
  Pb  Pb8  1  0.40092600  0.74428000  0.05730800  1
  Pb  Pb9  1  0.79920600  0.34715200  0.25294300  1
  O  O0  1  0.28099400  0.26137700  0.24473400  1
  O  O1  1  0.68370000  0.85304800  0.44516200  1
  O  O2  1  0.08457600  0.45144400  0.64646900  1
  O  O3  1  0.48104700  0.04835300  0.84818100  1
  O  O4  1  0.87851800  0.65554800  0.04729900  1
  O  O5  1  0.43597600  0.02866800  0.35556500  1
  O  O6  1  0.83732800  0.62782500  0.55804900  1
  O  O7  1  0.23925300  0.22733900  0.75902400  1
  O  O8  1  0.64983400  0.83564800  0.95956200  1
  O  O9  1  0.04508200  0.43467100  0.15683300  1
  O  O10  1  0.92156100  0.05422300  0.34256100  1
  O  O11  1  0.32000200  0.65650800  0.54382900  1
  O  O12  1  0.71946900  0.25585300  0.74510800  1
  O  O13  1  0.12342500  0.85829300  0.94825900  1
  O  O14  1  0.52453100  0.45577600  0.14612200  1
  O  O15  1  0.75447700  0.74976400  0.24161700  1
  O  O16  1  0.17886400  0.35618100  0.44326100  1
  O  O17  1  0.58096600  0.95638900  0.64437500  1
  O  O18  1  0.97866600  0.55227700  0.84766700  1
  O  O19  1  0.35421600  0.14586800  0.04489300  1
  O  O20  1  0.25715500  0.72988900  0.25200200  1
  O  O21  1  0.64878400  0.32847200  0.45708300  1
  O  O22  1  0.04822700  0.92757500  0.65861000  1
  O  O23  1  0.44535200  0.52643600  0.85995700  1
  O  O24  1  0.85458900  0.12737000  0.05432000  1
  O  O25  1  0.91758300  0.55330100  0.34355000  1
  O  O26  1  0.31348400  0.15201600  0.54587100  1
  O  O27  1  0.71403000  0.75054600  0.74729800  1
  O  O28  1  0.11758000  0.33434000  0.95219200  1
  O  O29  1  0.51875200  0.93503100  0.14922500  1
loop_
_geom_bond_atom_site_label_1
_geom_bond_atom_site_label_2
_geom_bond_distance
_geom_bond_site_symmetry_2
O0 Zr0 2.267288 1_545
O0 Pb0 2.311371 1_555
O0 Ti1 2.371933 1_555
O0 Pb9 2.834572 1_555
O1 Zr1 2.270988 1_555
O1 Pb1 2.353558 1_555
O1 Zr5 2.407025 1_565
O1 Pb5 2.819891 1_655
O2 Zr2 2.272258 1_455
O2 Pb2 2.328444 1_455
O2 Zr6 2.405088 1_555
O2 Pb6 2.816018 1_555
O3 Zr3 2.259235 1_545
O3 Pb3 2.329181 1_545
O3 Zr7 2.415710 1_555
O4 Zr4 2.249877 1_555
O4 Pb4 2.278359 1_554
O4 Ti0 2.399701 1_665
O4 Pb8 2.855097 1_655
O5 Zr0 2.103762 1_545
O5 Zr5 2.187380 1_555
O5 Pb1 2.491718 1_545
O5 Pb5 2.795465 1_545
O6 Zr1 2.112766 1_555
O6 Zr6 2.174786 1_655
O6 Pb2 2.481634 1_555
O6 Pb6 2.765288 1_555
O7 Zr2 2.109326 1_455
O7 Zr7 2.173064 1_555
O7 Pb3 2.475288 1_545
O8 Zr3 2.113237 1_555
O8 Ti0 2.134839 1_666
O8 Pb4 2.450179 1_555
O8 Pb8 2.753536 1_556
O9 Zr4 2.101435 1_455
O9 Ti1 2.166074 1_555
O9 Pb0 2.452814 1_555
O9 Pb9 2.709935 1_455
O10 Zr0 1.876457 1_645
O10 Zr5 1.966165 1_555
O10 Pb1 2.517864 1_545
O11 Zr1 1.887848 1_555
O11 Zr6 1.957441 1_555
O11 Pb2 2.526518 1_455
O12 Zr2 1.890443 1_555
O12 Zr7 1.960182 1_555
O12 Pb3 2.521551 1_545
O13 Zr3 1.894005 1_555
O13 Ti0 1.929462 1_566
O13 Pb4 2.493353 1_455
O14 Zr4 1.878352 1_555
O14 Ti1 1.943459 1_555
O14 Pb0 2.479271 1_555
O15 Ti1 1.932684 1_555
O15 Zr0 2.267138 1_655
O15 Pb9 2.580771 1_555
O16 Zr5 2.089631 1_455
O16 Zr1 2.177440 1_555
O16 Pb5 2.567470 1_545
O17 Zr6 2.090583 1_555
O17 Zr2 2.178368 1_565
O17 Pb6 2.566518 1_555
O18 Zr7 2.102063 1_555
O18 Zr3 2.180048 1_655
O18 Pb7 2.577441 1_655
O19 Ti0 1.952544 1_555
O19 Zr4 2.272643 1_555
O19 Pb8 2.587058 1_545
O20 Ti1 1.741052 1_555
O20 Zr0 2.056552 1_555
O20 Pb9 2.528479 1_455
O21 Zr5 1.875175 1_555
O21 Zr1 1.986048 1_555
O21 Pb5 2.488953 1_545
O22 Zr6 1.873315 1_555
O22 Zr2 1.982144 1_465
O22 Pb6 2.482104 1_455
O23 Zr7 1.880009 1_555
O23 Zr3 1.987167 1_555
O23 Pb7 2.479878 1_555
O24 Ti0 1.746125 1_655
O24 Zr4 2.063841 1_555
O24 Pb8 2.519834 1_545
O25 Zr5 2.309516 1_555
O25 Pb9 2.316132 1_555
O25 Zr0 2.387081 1_655
O25 Pb1 2.768229 1_555
O26 Pb5 2.279754 1_545
O26 Zr6 2.302385 1_545
O26 Zr1 2.386267 1_555
O26 Pb2 2.749549 1_455
O27 Pb6 2.286405 1_555
O27 Zr7 2.301231 1_555
O27 Zr2 2.387362 1_565
O27 Pb3 2.754175 1_555
O28 Ti0 2.112270 1_556
O28 Pb7 2.294472 1_555
O28 Zr3 2.507643 1_555
O29 Ti1 2.123836 1_555
O29 Pb8 2.321509 1_555
O29 Zr4 2.508703 1_565
