# generated using pymatgen
data_HgSbOF8
_symmetry_space_group_name_H-M   'P 1'
_cell_length_a   6.39909412
_cell_length_b   7.01626791
_cell_length_c   9.74074608
_cell_angle_alpha   88.64212447
_cell_angle_beta   93.20366314
_cell_angle_gamma   71.58649170
_symmetry_Int_Tables_number   1
_chemical_formula_structural   HgSbOF8
_chemical_formula_sum   'Hg2 Sb2 O2 F16'
_cell_volume   413.90332046
_cell_formula_units_Z   2
loop_
 _symmetry_equiv_pos_site_id
 _symmetry_equiv_pos_as_xyz
  1  'x, y, z'
loop_
 _atom_site_type_symbol
 _atom_site_label
 _atom_site_symmetry_multiplicity
 _atom_site_fract_x
 _atom_site_fract_y
 _atom_site_fract_z
 _atom_site_occupancy
  Hg  Hg0  1  0.96186400  0.93647800  0.62146300  1
  Hg  Hg1  1  0.03813600  0.06352200  0.37853700  1
  Sb  Sb0  1  0.70078000  0.69190800  0.31583000  1
  Sb  Sb1  1  0.29922000  0.30809200  0.68417000  1
  O  O0  1  0.86316100  0.85744400  0.87445200  1
  O  O1  1  0.13683900  0.14255600  0.12554800  1
  F  F0  1  0.70898700  0.42221800  0.36677100  1
  F  F1  1  0.29101300  0.57778200  0.63322900  1
  F  F2  1  0.72975200  0.61843000  0.13009000  1
  F  F3  1  0.27024800  0.38157000  0.86991000  1
  F  F4  1  0.69915900  0.96074200  0.26224200  1
  F  F5  1  0.30084100  0.03925800  0.73775800  1
  F  F6  1  0.66652700  0.77050100  0.50467000  1
  F  F7  1  0.33347300  0.22949900  0.49533000  1
  F  F8  1  0.01339100  0.62215700  0.35259900  1
  F  F9  1  0.98660900  0.37784300  0.64740100  1
  F  F10  1  0.38234800  0.78180200  0.28682100  1
  F  F11  1  0.61765200  0.21819800  0.71317900  1
  F  F12  1  0.78017300  0.69283400  0.85537500  1
  F  F13  1  0.21982700  0.30716600  0.14462500  1
  F  F14  1  0.93534900  0.22272300  0.04133100  1
  F  F15  1  0.06465100  0.77727700  0.95866900  1
loop_
_geom_bond_atom_site_label_1
_geom_bond_atom_site_label_2
_geom_bond_distance
_geom_bond_site_symmetry_2
Hg0 Hg1 2.633630 1_665
Hg0 O0 2.666398 1_555
Hg1 O1 2.666398 1_555
F0 Sb0 1.928541 1_555
F0 Hg1 2.719161 1_655
F1 Sb1 1.928541 1_555
F1 Hg0 2.719161 1_455
F2 Sb0 1.896007 1_555
F3 Sb1 1.896007 1_555
F4 Sb0 1.941840 1_555
F4 Hg1 2.694575 1_665
F5 Sb1 1.941840 1_555
F5 Hg0 2.694575 1_445
F6 Sb0 1.937123 1_555
F6 Hg0 2.726708 1_555
F7 Sb1 1.937123 1_555
F7 Hg1 2.726708 1_555
F8 Sb0 1.913800 1_455
F9 Sb1 1.913800 1_655
F10 Sb0 1.935214 1_555
F10 Hg1 2.666450 1_565
F11 Sb1 1.935214 1_555
F11 Hg0 2.666450 1_545
F12 O0 1.427256 1_555
F13 O1 1.427256 1_555
F14 O1 1.433008 1_655
F15 O0 1.433008 1_455
