# generated using pymatgen
data_Ba3Sr(CuO3)4
_symmetry_space_group_name_H-M   'P 1'
_cell_length_a   8.01739100
_cell_length_b   8.01739100
_cell_length_c   4.00390900
_cell_angle_alpha   90.00000000
_cell_angle_beta   90.00000000
_cell_angle_gamma   90.00000000
_symmetry_Int_Tables_number   1
_chemical_formula_structural   Ba3Sr(CuO3)4
_chemical_formula_sum   'Ba3 Sr1 Cu4 O12'
_cell_volume   257.36549867
_cell_formula_units_Z   1
loop_
 _symmetry_equiv_pos_site_id
 _symmetry_equiv_pos_as_xyz
  1  'x, y, z'
loop_
 _atom_site_type_symbol
 _atom_site_label
 _atom_site_symmetry_multiplicity
 _atom_site_fract_x
 _atom_site_fract_y
 _atom_site_fract_z
 _atom_site_occupancy
  Ba  Ba0  1  0.00000000  0.50000000  0.50000000  1
  Ba  Ba1  1  0.00000000  0.00000000  0.50000000  1
  Ba  Ba2  1  0.50000000  0.00000000  0.50000000  1
  Sr  Sr0  1  0.50000000  0.50000000  0.50000000  1
  Cu  Cu0  1  0.75013400  0.24986600  0.00000000  1
  Cu  Cu1  1  0.24986600  0.24986600  0.00000000  1
  Cu  Cu2  1  0.75013400  0.75013400  0.00000000  1
  Cu  Cu3  1  0.24986600  0.75013400  0.00000000  1
  O  O0  1  0.74326100  0.25673900  0.50000000  1
  O  O1  1  0.25673900  0.25673900  0.50000000  1
  O  O2  1  0.74326100  0.74326100  0.50000000  1
  O  O3  1  0.25673900  0.74326100  0.50000000  1
  O  O4  1  0.73860100  0.50000000  0.00000000  1
  O  O5  1  0.26139900  0.50000000  0.00000000  1
  O  O6  1  0.74857200  0.00000000  0.00000000  1
  O  O7  1  0.25142800  0.00000000  0.00000000  1
  O  O8  1  0.00000000  0.25142800  0.00000000  1
  O  O9  1  0.50000000  0.26139900  0.00000000  1
  O  O10  1  0.00000000  0.74857200  0.00000000  1
  O  O11  1  0.50000000  0.73860100  0.00000000  1
loop_
_geom_bond_atom_site_label_1
_geom_bond_atom_site_label_2
_geom_bond_distance
_geom_bond_site_symmetry_2
Ba0 O10 2.824795 1_556
Ba0 O8 2.824795 1_555
Ba0 O8 2.824795 1_556
Ba0 O10 2.824795 1_555
Ba0 O3 2.835605 1_555
Ba0 O2 2.835605 1_455
Ba0 O1 2.835605 1_555
Ba0 O0 2.835605 1_455
Ba0 O5 2.898265 1_555
Ba0 O5 2.898265 1_556
Ba0 O4 2.898265 1_455
Ba0 O4 2.898265 1_456
Ba1 O6 2.840996 1_456
Ba1 O7 2.840996 1_555
Ba1 O7 2.840996 1_556
Ba1 O8 2.840996 1_555
Ba1 O8 2.840996 1_556
Ba1 O10 2.840996 1_545
Ba1 O10 2.840996 1_546
Ba1 O6 2.840996 1_455
Ba1 O1 2.910985 1_555
Ba1 O2 2.910985 1_445
Ba1 O3 2.910985 1_545
Ba1 O0 2.910985 1_455
Ba2 O7 2.824795 1_555
Ba2 O7 2.824795 1_556
Ba2 O6 2.824795 1_556
Ba2 O6 2.824795 1_555
Ba2 O0 2.835605 1_555
Ba2 O2 2.835605 1_545
Ba2 O1 2.835605 1_555
Ba2 O3 2.835605 1_545
Ba2 O9 2.898265 1_556
Ba2 O9 2.898265 1_555
Ba2 O11 2.898265 1_545
Ba2 O11 2.898265 1_546
Cu0 O6 2.003313 1_555
Cu0 O8 2.003313 1_655
Cu0 O0 2.003471 1_554
Cu0 O0 2.003471 1_555
Cu0 O9 2.007553 1_555
Cu0 O4 2.007553 1_555
Cu1 O8 2.003313 1_555
Cu1 O7 2.003313 1_555
Cu1 O1 2.003471 1_555
Cu1 O1 2.003471 1_554
Cu1 O5 2.007553 1_555
Cu1 O9 2.007553 1_555
Cu2 O6 2.003313 1_565
Cu2 O10 2.003313 1_655
Cu2 O2 2.003471 1_555
Cu2 O2 2.003471 1_554
Cu2 O11 2.007553 1_555
Cu2 O4 2.007553 1_555
Cu3 O10 2.003313 1_555
Cu3 O7 2.003313 1_565
Cu3 O3 2.003471 1_555
Cu3 O3 2.003471 1_554
Cu3 O11 2.007553 1_555
Cu3 O5 2.007553 1_555
O0 Sr0 2.758167 1_555
O1 Sr0 2.758167 1_555
O2 Sr0 2.758167 1_555
O3 Sr0 2.758167 1_555
O4 Sr0 2.768976 1_555
O4 Sr0 2.768976 1_554
O5 Sr0 2.768976 1_555
O5 Sr0 2.768976 1_554
O9 Sr0 2.768976 1_555
O9 Sr0 2.768976 1_554
O11 Sr0 2.768976 1_555
O11 Sr0 2.768976 1_554
