# generated using pymatgen
data_La2Os2I
_symmetry_space_group_name_H-M   'P 1'
_cell_length_a   4.32812122
_cell_length_b   4.32812122
_cell_length_c   18.07513523
_cell_angle_alpha   90.00000000
_cell_angle_beta   90.00000000
_cell_angle_gamma   120.00001380
_symmetry_Int_Tables_number   1
_chemical_formula_structural   La2Os2I
_chemical_formula_sum   'La4 Os4 I2'
_cell_volume   293.23172728
_cell_formula_units_Z   2
loop_
 _symmetry_equiv_pos_site_id
 _symmetry_equiv_pos_as_xyz
  1  'x, y, z'
loop_
 _atom_site_type_symbol
 _atom_site_label
 _atom_site_symmetry_multiplicity
 _atom_site_fract_x
 _atom_site_fract_y
 _atom_site_fract_z
 _atom_site_occupancy
  La  La0  1  0.00000000  0.00000000  0.10723409  1
  La  La1  1  0.00000000  -0.00000000  0.89276591  1
  La  La2  1  0.00000000  -0.00000000  0.60723409  1
  La  La3  1  -0.00000000  0.00000000  0.39276591  1
  Os  Os0  1  0.33333300  0.66666700  0.50519618  1
  Os  Os1  1  0.66666700  0.33333300  0.49480382  1
  Os  Os2  1  0.66666700  0.33333300  0.00519618  1
  Os  Os3  1  0.33333300  0.66666700  0.99480382  1
  I  I0  1  0.33333300  0.66666700  0.25000000  1
  I  I1  1  0.66666700  0.33333300  0.75000000  1
loop_
_geom_bond_atom_site_label_1
_geom_bond_atom_site_label_2
_geom_bond_distance
_geom_bond_site_symmetry_2
La0 Os2 3.105772 1_455
La0 Os2 3.105775 1_555
La0 Os2 3.105775 1_445
La0 Os3 3.220870 1_544
La0 Os3 3.220873 1_444
La0 Os3 3.220873 1_554
La1 Os3 3.105772 1_545
La1 Os3 3.105775 1_555
La1 Os3 3.105775 1_445
La1 Os2 3.220870 1_456
La1 Os2 3.220873 1_556
La1 Os2 3.220873 1_446
La2 Os0 3.105772 1_545
La2 Os0 3.105775 1_555
La2 Os0 3.105775 1_445
La2 Os1 3.220870 1_455
La2 Os1 3.220873 1_555
La2 Os1 3.220873 1_445
La3 Os1 3.105772 1_455
La3 Os1 3.105775 1_445
La3 Os1 3.105775 1_555
La3 Os0 3.220870 1_545
La3 Os0 3.220873 1_445
La3 Os0 3.220873 1_555
Os0 Os1 2.505889 1_455
Os0 Os1 2.505889 1_565
Os0 Os1 2.505897 1_555
Os2 Os3 2.505889 1_544
Os2 Os3 2.505889 1_654
Os2 Os3 2.505897 1_554
I0 La3 3.592109 1_565
I0 La0 3.592109 1_565
I0 La0 3.592111 1_665
I0 La3 3.592111 1_665
I0 La3 3.592111 1_555
I0 La0 3.592111 1_555
I1 La2 3.592109 1_655
I1 La1 3.592109 1_655
I1 La2 3.592111 1_665
I1 La2 3.592111 1_555
I1 La1 3.592111 1_555
I1 La1 3.592111 1_665
