# generated using pymatgen
data_Mg14TiCo
_symmetry_space_group_name_H-M   'P 1'
_cell_length_a   6.29113785
_cell_length_b   6.12483973
_cell_length_c   9.94992234
_cell_angle_alpha   90.00000000
_cell_angle_beta   90.00000000
_cell_angle_gamma   119.12937051
_symmetry_Int_Tables_number   1
_chemical_formula_structural   Mg14TiCo
_chemical_formula_sum   'Mg14 Ti1 Co1'
_cell_volume   334.90209927
_cell_formula_units_Z   1
loop_
 _symmetry_equiv_pos_site_id
 _symmetry_equiv_pos_as_xyz
  1  'x, y, z'
loop_
 _atom_site_type_symbol
 _atom_site_label
 _atom_site_symmetry_multiplicity
 _atom_site_fract_x
 _atom_site_fract_y
 _atom_site_fract_z
 _atom_site_occupancy
  Mg  Mg0  1  0.16581688  0.33290794  0.62500000  1
  Mg  Mg1  1  0.16960481  0.83480191  0.62500000  1
  Mg  Mg2  1  0.66107098  0.33723220  0.12500000  1
  Mg  Mg3  1  0.66277080  0.32903951  0.62500000  1
  Mg  Mg4  1  0.66107098  0.82383778  0.12500000  1
  Mg  Mg5  1  0.66277080  0.83373029  0.62500000  1
  Mg  Mg6  1  0.32733562  0.16738075  0.35869643  1
  Mg  Mg7  1  0.32733562  0.16738075  0.89130357  1
  Mg  Mg8  1  0.32733562  0.65995587  0.35869643  1
  Mg  Mg9  1  0.32733562  0.65995587  0.89130357  1
  Mg  Mg10  1  0.85347372  0.17673736  0.35730407  1
  Mg  Mg11  1  0.85347372  0.17673736  0.89269593  1
  Mg  Mg12  1  0.84258829  0.67129464  0.37567077  1
  Mg  Mg13  1  0.84258829  0.67129464  0.87432923  1
  Ti  Ti0  1  0.14986997  0.82493449  0.12500000  1
  Co  Co0  1  0.16555828  0.33277864  0.12500000  1
loop_
_geom_bond_atom_site_label_1
_geom_bond_atom_site_label_2
_geom_bond_distance
_geom_bond_site_symmetry_2
Mg0 Mg1 3.062491 1_545
Mg0 Mg1 3.062491 1_555
Mg0 Mg5 3.138007 1_555
Mg0 Mg3 3.138007 1_555
Mg0 Mg5 3.153266 1_445
Mg0 Mg3 3.153267 1_455
Mg0 Mg11 3.168719 1_455
Mg0 Mg10 3.168719 1_455
Mg0 Mg6 3.175570 1_555
Mg0 Mg7 3.175570 1_555
Mg0 Mg8 3.175576 1_555
Mg0 Mg9 3.175576 1_555
Mg1 Mg13 3.063329 1_455
Mg1 Mg12 3.063329 1_455
Mg1 Mg3 3.105775 1_565
Mg1 Mg5 3.105776 1_555
Mg1 Mg3 3.185373 1_455
Mg1 Mg5 3.185373 1_455
Mg1 Mg8 3.191707 1_555
Mg1 Mg9 3.191707 1_555
Mg1 Mg6 3.191712 1_565
Mg1 Mg7 3.191712 1_565
Mg2 Mg6 2.961558 1_555
Mg2 Mg7 2.961558 1_554
Mg2 Mg4 2.980381 1_555
Mg2 Ti0 3.071837 1_655
Mg2 Mg4 3.144459 1_545
Mg2 Ti0 3.219311 1_545
Mg3 Mg5 3.033690 1_545
Mg3 Mg5 3.091150 1_555
Mg3 Mg6 3.228048 1_555
Mg3 Mg7 3.228048 1_555
Mg4 Mg9 2.961559 1_554
Mg4 Mg8 2.961559 1_555
Mg4 Ti0 3.071838 1_655
Mg4 Ti0 3.219311 1_555
Mg5 Mg8 3.228048 1_555
Mg5 Mg9 3.228048 1_555
Mg6 Ti0 2.961880 1_545
Mg6 Mg8 3.016944 1_555
Mg6 Mg8 3.107896 1_545
Mg7 Ti0 2.961880 1_546
Mg7 Mg9 3.016944 1_555
Mg7 Mg9 3.107896 1_545
Mg8 Ti0 2.961874 1_555
Mg9 Ti0 2.961874 1_556
Mg10 Mg2 2.988722 1_555
Mg10 Mg4 2.988728 1_545
Mg10 Mg8 3.009475 1_655
Mg10 Mg6 3.009475 1_655
Mg10 Mg12 3.068451 1_555
Mg10 Mg12 3.068451 1_545
Mg10 Mg3 3.239386 1_555
Mg10 Mg5 3.239391 1_545
Mg10 Mg8 3.282522 1_545
Mg10 Mg6 3.282522 1_555
Mg11 Mg2 2.988722 1_556
Mg11 Mg4 2.988728 1_546
Mg11 Mg9 3.009475 1_655
Mg11 Mg7 3.009475 1_655
Mg11 Mg13 3.068451 1_555
Mg11 Mg13 3.068451 1_545
Mg11 Mg3 3.239386 1_555
Mg11 Mg5 3.239391 1_545
Mg11 Mg9 3.282522 1_545
Mg11 Mg7 3.282522 1_555
Mg12 Ti0 3.012035 1_655
Mg12 Mg4 3.071889 1_555
Mg12 Mg2 3.071895 1_555
Mg12 Mg5 3.085398 1_555
Mg12 Mg3 3.085404 1_555
Mg12 Mg6 3.088636 1_665
Mg12 Mg8 3.088636 1_655
Mg12 Mg6 3.212735 1_555
Mg12 Mg8 3.212735 1_555
Mg13 Ti0 3.012035 1_656
Mg13 Mg4 3.071889 1_556
Mg13 Mg2 3.071895 1_556
Mg13 Mg5 3.085398 1_555
Mg13 Mg3 3.085404 1_555
Mg13 Mg7 3.088636 1_665
Mg13 Mg9 3.088636 1_655
Mg13 Mg7 3.212735 1_555
Mg13 Mg9 3.212735 1_555
Co0 Mg10 2.878192 1_455
Co0 Mg11 2.878192 1_454
Co0 Mg7 2.910790 1_554
Co0 Mg6 2.910790 1_555
Co0 Mg9 2.910797 1_554
Co0 Mg8 2.910797 1_555
Co0 Ti0 3.063633 1_545
Co0 Ti0 3.063633 1_555
Co0 Mg4 3.104152 1_555
Co0 Mg2 3.104152 1_555
Co0 Mg4 3.187166 1_445
Co0 Mg2 3.187166 1_455
