# generated using pymatgen
data_Si2H2O3
_symmetry_space_group_name_H-M   'P 1'
_cell_length_a   10.79416965
_cell_length_b   10.79416965
_cell_length_c   14.03598764
_cell_angle_alpha   56.63773090
_cell_angle_beta   56.63773090
_cell_angle_gamma   51.19256191
_symmetry_Int_Tables_number   1
_chemical_formula_structural   Si2H2O3
_chemical_formula_sum   'Si20 H20 O30'
_cell_volume   1010.04945315
_cell_formula_units_Z   10
loop_
 _symmetry_equiv_pos_site_id
 _symmetry_equiv_pos_as_xyz
  1  'x, y, z'
loop_
 _atom_site_type_symbol
 _atom_site_label
 _atom_site_symmetry_multiplicity
 _atom_site_fract_x
 _atom_site_fract_y
 _atom_site_fract_z
 _atom_site_occupancy
  Si  Si0  1  0.31483700  0.68062600  0.89170900  1
  Si  Si1  1  0.31905100  0.69528200  0.61279500  1
  Si  Si2  1  0.69528200  0.31905100  0.11279500  1
  Si  Si3  1  0.68062600  0.31483700  0.39170900  1
  Si  Si4  1  0.23893300  0.12643900  0.73122900  1
  Si  Si5  1  0.90343800  0.71920600  0.77092000  1
  Si  Si6  1  0.71920600  0.90343800  0.27092000  1
  Si  Si7  1  0.12643900  0.23893300  0.23122900  1
  Si  Si8  1  0.85191200  0.36352500  0.78803000  1
  Si  Si9  1  0.60431000  0.20130100  0.70339900  1
  Si  Si10  1  0.20130100  0.60431000  0.20339900  1
  Si  Si11  1  0.36352500  0.85191200  0.28803000  1
  Si  Si12  1  0.86251300  0.35650500  0.53889200  1
  Si  Si13  1  0.65348700  0.14292900  0.95417200  1
  Si  Si14  1  0.14292900  0.65348700  0.45417200  1
  Si  Si15  1  0.35650500  0.86251300  0.03889200  1
  Si  Si16  1  0.25210200  0.12941700  0.46674300  1
  Si  Si17  1  0.86820400  0.77826900  0.01310300  1
  Si  Si18  1  0.77826900  0.86820400  0.51310300  1
  Si  Si19  1  0.12941700  0.25210200  0.96674300  1
  H  H0  1  0.35337000  0.86996700  0.87520600  1
  H  H1  1  0.10860600  0.71917200  0.60162400  1
  H  H2  1  0.71917200  0.10860600  0.10162400  1
  H  H3  1  0.86996700  0.35337000  0.37520600  1
  H  H4  1  0.63875100  0.91269500  0.79560200  1
  H  H5  1  0.91269500  0.63875100  0.29560200  1
  H  H6  1  0.11274000  0.64106300  0.06424800  1
  H  H7  1  0.37586500  0.87511300  0.42793500  1
  H  H8  1  0.87511300  0.37586500  0.92793500  1
  H  H9  1  0.64106300  0.11274000  0.56424800  1
  H  H10  1  0.42536100  0.55871900  0.75901100  1
  H  H11  1  0.55871900  0.42536100  0.25901100  1
  H  H12  1  0.42240900  0.11229300  0.53498400  1
  H  H13  1  0.91831600  0.57156900  0.96337300  1
  H  H14  1  0.57156900  0.91831600  0.46337300  1
  H  H15  1  0.11229300  0.42240900  0.03498400  1
  H  H16  1  0.79416100  0.57148100  0.59971200  1
  H  H17  1  0.41922700  0.21868700  0.89656900  1
  H  H18  1  0.21868700  0.41922700  0.39656900  1
  H  H19  1  0.57148100  0.79416100  0.09971200  1
  O  O0  1  0.28985100  0.88574900  0.83246500  1
  O  O1  1  0.09178600  0.76212800  0.65907400  1
  O  O2  1  0.76212800  0.09178600  0.15907400  1
  O  O3  1  0.88574900  0.28985100  0.33246500  1
  O  O4  1  0.04195500  0.19801500  0.75631500  1
  O  O5  1  0.73832500  0.92766000  0.76149400  1
  O  O6  1  0.92766000  0.73832500  0.26149400  1
  O  O7  1  0.19801500  0.04195500  0.25631500  1
  O  O8  1  0.71977700  0.28473300  0.86092800  1
  O  O9  1  0.75335700  0.24880100  0.64377600  1
  O  O10  1  0.24880100  0.75335700  0.14377600  1
  O  O11  1  0.28473300  0.71977700  0.36092800  1
  O  O12  1  0.05406500  0.19365700  0.54477000  1
  O  O13  1  0.82145700  0.96763600  0.91495200  1
  O  O14  1  0.96763600  0.82145700  0.41495200  1
  O  O15  1  0.19365700  0.05406500  0.04477000  1
  O  O16  1  0.09639500  0.70387500  0.98281900  1
  O  O17  1  0.32335900  0.89427600  0.51149000  1
  O  O18  1  0.89427600  0.32335900  0.01149000  1
  O  O19  1  0.70387500  0.09639500  0.48281900  1
  O  O20  1  0.32901000  0.67178000  0.75271900  1
  O  O21  1  0.67178000  0.32901000  0.25271900  1
  O  O22  1  0.32441200  0.09255300  0.58087400  1
  O  O23  1  0.92512000  0.67658800  0.91160200  1
  O  O24  1  0.67658800  0.92512000  0.41160200  1
  O  O25  1  0.09255300  0.32441200  0.08087400  1
  O  O26  1  0.82206900  0.45232200  0.63645100  1
  O  O27  1  0.53236600  0.21029400  0.85175500  1
  O  O28  1  0.21029400  0.53236600  0.35175500  1
  O  O29  1  0.45232200  0.82206900  0.13645100  1
loop_
_geom_bond_atom_site_label_1
_geom_bond_atom_site_label_2
_geom_bond_distance
_geom_bond_site_symmetry_2
H0 O0 1.025965 1_555
H1 O1 1.021213 1_555
H2 O2 1.021213 1_555
H3 O3 1.025965 1_555
H4 O5 0.988504 1_555
H5 O6 0.988504 1_555
H6 O16 1.008302 1_554
H7 O17 1.062177 1_555
H8 O18 1.062177 1_556
H9 O19 1.008302 1_555
H10 O20 0.985101 1_555
H11 O21 0.985101 1_555
H12 O22 0.980507 1_555
H13 O23 0.978836 1_555
H14 O24 0.978836 1_555
H15 O25 0.980507 1_555
H16 O26 0.983225 1_555
H17 O27 0.987121 1_555
H18 O28 0.987121 1_555
H19 O29 0.983225 1_555
O0 Si0 1.771936 1_555
O0 Si4 2.019866 1_565
O1 Si1 1.872094 1_555
O1 Si5 1.919057 1_455
O2 Si2 1.872094 1_555
O2 Si6 1.919057 1_545
O3 Si3 1.771936 1_555
O3 Si7 2.019866 1_655
O4 Si4 1.630481 1_555
O4 Si8 1.695512 1_455
O5 Si5 1.778284 1_555
O5 Si9 2.185120 1_565
O6 Si6 1.778284 1_555
O6 Si10 2.185120 1_655
O7 Si7 1.630481 1_555
O7 Si11 1.695512 1_545
O8 Si13 1.645377 1_555
O8 Si8 1.662162 1_555
O9 Si9 1.622575 1_555
O9 Si12 1.683398 1_555
O10 Si10 1.622575 1_555
O10 Si15 1.683398 1_555
O11 Si14 1.645377 1_555
O11 Si11 1.662162 1_555
O12 Si16 1.628568 1_555
O12 Si12 1.686541 1_455
O13 Si17 1.644774 1_556
O13 Si13 1.708341 1_565
O14 Si18 1.644774 1_555
O14 Si14 1.708341 1_655
O15 Si19 1.628568 1_554
O15 Si15 1.686541 1_545
O16 Si0 1.884915 1_555
O16 Si17 1.907155 1_456
O17 Si1 1.825112 1_555
O17 Si16 1.938899 1_565
O18 Si2 1.825112 1_555
O18 Si19 1.938899 1_654
O19 Si3 1.884915 1_555
O19 Si18 1.907155 1_545
O20 Si1 1.892918 1_555
O20 Si0 1.922680 1_555
O21 Si2 1.892918 1_555
O21 Si3 1.922680 1_555
O22 Si16 1.902265 1_555
O22 Si4 1.929552 1_555
O23 Si17 1.877160 1_556
O23 Si5 1.881420 1_555
O24 Si18 1.877160 1_555
O24 Si6 1.881420 1_555
O25 Si19 1.902265 1_554
O25 Si7 1.929552 1_555
O26 Si12 1.862694 1_555
O26 Si8 1.916478 1_555
O27 Si9 1.815993 1_555
O27 Si13 2.007574 1_555
O28 Si10 1.815993 1_555
O28 Si14 2.007574 1_555
O29 Si15 1.862694 1_555
O29 Si11 1.916478 1_555
