# generated using pymatgen
data_ErSbRh2
_symmetry_space_group_name_H-M   'P 1'
_cell_length_a   4.69353015
_cell_length_b   4.69353015
_cell_length_c   4.69353015
_cell_angle_alpha   60.00000000
_cell_angle_beta   60.00000000
_cell_angle_gamma   60.00000000
_symmetry_Int_Tables_number   1
_chemical_formula_structural   ErSbRh2
_chemical_formula_sum   'Er1 Sb1 Rh2'
_cell_volume   73.11118775
_cell_formula_units_Z   1
loop_
 _symmetry_equiv_pos_site_id
 _symmetry_equiv_pos_as_xyz
  1  'x, y, z'
loop_
 _atom_site_type_symbol
 _atom_site_label
 _atom_site_symmetry_multiplicity
 _atom_site_fract_x
 _atom_site_fract_y
 _atom_site_fract_z
 _atom_site_occupancy
  Er  Er0  1  0.25000000  0.25000000  0.25000000  1
  Sb  Sb0  1  0.74999900  0.74999900  0.74999900  1
  Rh  Rh0  1  0.00000000  0.00000000  0.00000000  1
  Rh  Rh1  1  0.50000000  0.50000000  0.50000000  1
loop_
_geom_bond_atom_site_label_1
_geom_bond_atom_site_label_2
_geom_bond_distance
_geom_bond_site_symmetry_2
Er0 Rh1 2.874188 1_554
Er0 Rh1 2.874188 1_555
Er0 Rh0 2.874188 1_655
Er0 Rh1 2.874188 1_545
Er0 Rh1 2.874188 1_455
Er0 Rh0 2.874188 1_555
Er0 Rh0 2.874188 1_556
Er0 Rh0 2.874188 1_565
Er0 Sb0 3.318820 1_554
Er0 Sb0 3.318820 1_455
Er0 Sb0 3.318820 1_545
Er0 Sb0 3.318834 1_445
Er0 Sb0 3.318834 1_454
Er0 Sb0 3.318834 1_544
Rh0 Sb0 2.874185 1_445
Rh0 Sb0 2.874185 1_454
Rh0 Sb0 2.874185 1_544
Rh0 Sb0 2.874200 1_444
Rh1 Sb0 2.874177 1_555
Rh1 Sb0 2.874192 1_554
Rh1 Sb0 2.874192 1_455
Rh1 Sb0 2.874192 1_545
