# generated using pymatgen
data_Yb3(GePd)4
_symmetry_space_group_name_H-M   'P 1'
_cell_length_a   7.98194788
_cell_length_b   7.98194788
_cell_length_c   7.98194788
_cell_angle_alpha   150.18790724
_cell_angle_beta   127.73898234
_cell_angle_gamma   61.33250704
_symmetry_Int_Tables_number   1
_chemical_formula_structural   Yb3(GePd)4
_chemical_formula_sum   'Yb3 Ge4 Pd4'
_cell_volume   198.22403359
_cell_formula_units_Z   1
loop_
 _symmetry_equiv_pos_site_id
 _symmetry_equiv_pos_as_xyz
  1  'x, y, z'
loop_
 _atom_site_type_symbol
 _atom_site_label
 _atom_site_symmetry_multiplicity
 _atom_site_fract_x
 _atom_site_fract_y
 _atom_site_fract_z
 _atom_site_occupancy
  Yb  Yb0  1  0.00000000  0.00000000  0.00000000  1
  Yb  Yb1  1  0.62546982  0.12546982  0.50000000  1
  Yb  Yb2  1  0.37453018  0.87453018  0.50000000  1
  Ge  Ge0  1  0.31206733  0.50000000  0.81206733  1
  Ge  Ge1  1  0.68793267  0.50000000  0.18793267  1
  Ge  Ge2  1  0.78107820  0.78107820  0.00000000  1
  Ge  Ge3  1  0.21892180  0.21892180  0.00000000  1
  Pd  Pd0  1  0.62351913  0.32485331  0.29866583  1
  Pd  Pd1  1  0.97381252  0.67514669  0.29866583  1
  Pd  Pd2  1  0.02618748  0.32485331  0.70133417  1
  Pd  Pd3  1  0.37648087  0.67514669  0.70133417  1
loop_
_geom_bond_atom_site_label_1
_geom_bond_atom_site_label_2
_geom_bond_distance
_geom_bond_site_symmetry_2
Ge0 Pd2 2.527882 1_555
Ge0 Pd3 2.527882 1_555
Ge0 Ge1 2.642625 1_556
Ge0 Yb1 2.988300 1_555
Ge0 Yb1 2.988300 1_566
Ge0 Yb2 2.988300 1_545
Ge0 Yb2 2.988300 1_556
Ge0 Yb0 3.004952 1_566
Ge0 Yb0 3.004952 1_555
Ge1 Pd1 2.527882 1_555
Ge1 Pd0 2.527882 1_555
Ge1 Yb1 2.988300 1_554
Ge1 Yb1 2.988300 1_565
Ge1 Yb2 2.988300 1_555
Ge1 Yb2 2.988300 1_544
Ge1 Yb0 3.004952 1_655
Ge1 Yb0 3.004952 1_666
Ge2 Pd3 2.554448 1_554
Ge2 Pd1 2.554448 1_555
Ge2 Pd0 2.565312 1_565
Ge2 Pd0 2.565312 1_554
Ge2 Pd2 2.565312 1_665
Ge2 Pd2 2.565312 1_654
Ge2 Yb1 2.963333 1_565
Ge2 Yb1 2.963333 1_554
Ge2 Yb0 3.006101 1_665
Ge3 Pd0 2.554448 1_555
Ge3 Pd2 2.554448 1_554
Ge3 Pd3 2.565312 1_544
Ge3 Pd3 2.565312 1_555
Ge3 Pd1 2.565312 1_444
Ge3 Pd1 2.565312 1_455
Ge3 Yb2 2.963333 1_544
Ge3 Yb2 2.963333 1_555
Ge3 Yb0 3.006101 1_555
Pd0 Yb2 3.015038 1_544
Pd0 Yb2 3.015038 1_555
Pd0 Yb1 3.082103 1_555
Pd1 Yb1 3.015038 1_565
Pd1 Yb1 3.015038 1_554
Pd1 Yb2 3.082103 1_655
Pd2 Yb2 3.015038 1_545
Pd2 Yb2 3.015038 1_556
Pd2 Yb1 3.082103 1_455
Pd3 Yb1 3.015038 1_566
Pd3 Yb1 3.015038 1_555
Pd3 Yb2 3.082103 1_555
