# generated using pymatgen
data_Al3Ag
_symmetry_space_group_name_H-M   'P 1'
_cell_length_a   4.08151300
_cell_length_b   4.08151300
_cell_length_c   4.08151300
_cell_angle_alpha   90.00000000
_cell_angle_beta   90.00000000
_cell_angle_gamma   90.00000000
_symmetry_Int_Tables_number   1
_chemical_formula_structural   Al3Ag
_chemical_formula_sum   'Al3 Ag1'
_cell_volume   67.99289803
_cell_formula_units_Z   1
loop_
 _symmetry_equiv_pos_site_id
 _symmetry_equiv_pos_as_xyz
  1  'x, y, z'
loop_
 _atom_site_type_symbol
 _atom_site_label
 _atom_site_symmetry_multiplicity
 _atom_site_fract_x
 _atom_site_fract_y
 _atom_site_fract_z
 _atom_site_occupancy
  Al  Al0  1  0.00000000  0.50000000  0.50000000  1
  Al  Al1  1  0.50000000  0.00000000  0.50000000  1
  Al  Al2  1  0.50000000  0.50000000  0.00000000  1
  Ag  Ag0  1  0.00000000  0.00000000  0.00000000  1
loop_
_geom_bond_atom_site_label_1
_geom_bond_atom_site_label_2
_geom_bond_distance
_geom_bond_site_symmetry_2
Al0 Al1 2.886066 1_465
Al0 Al2 2.886066 1_555
Al0 Al1 2.886066 1_455
Al0 Al2 2.886066 1_455
Al0 Al2 2.886066 1_456
Al0 Al2 2.886066 1_556
Al0 Al1 2.886066 1_555
Al0 Al1 2.886066 1_565
Al1 Al2 2.886066 1_546
Al1 Al2 2.886066 1_545
Al1 Al2 2.886066 1_555
Al1 Al2 2.886066 1_556
Ag0 Al0 2.886066 1_554
Ag0 Al2 2.886066 1_445
Ag0 Al2 2.886066 1_545
Ag0 Al2 2.886066 1_555
Ag0 Al1 2.886066 1_554
Ag0 Al1 2.886066 1_455
Ag0 Al1 2.886066 1_454
Ag0 Al0 2.886066 1_544
Ag0 Al0 2.886066 1_545
Ag0 Al0 2.886066 1_555
Ag0 Al2 2.886066 1_455
Ag0 Al1 2.886066 1_555
