# generated using pymatgen
data_TiZn(SiO3)2
_symmetry_space_group_name_H-M   'P 1'
_cell_length_a   5.30496800
_cell_length_b   9.15138300
_cell_length_c   18.63741800
_cell_angle_alpha   90.00000000
_cell_angle_beta   90.00000000
_cell_angle_gamma   90.00000000
_symmetry_Int_Tables_number   1
_chemical_formula_structural   TiZn(SiO3)2
_chemical_formula_sum   'Ti8 Zn8 Si16 O48'
_cell_volume   904.80552921
_cell_formula_units_Z   8
loop_
 _symmetry_equiv_pos_site_id
 _symmetry_equiv_pos_as_xyz
  1  'x, y, z'
loop_
 _atom_site_type_symbol
 _atom_site_label
 _atom_site_symmetry_multiplicity
 _atom_site_fract_x
 _atom_site_fract_y
 _atom_site_fract_z
 _atom_site_occupancy
  Ti  Ti0  1  0.36125700  0.97770400  0.87872500  1
  Ti  Ti1  1  0.63874300  0.02229600  0.12127500  1
  Ti  Ti2  1  0.86125700  0.02229600  0.62127500  1
  Ti  Ti3  1  0.13874300  0.97770400  0.37872500  1
  Ti  Ti4  1  0.36125700  0.47770400  0.62127500  1
  Ti  Ti5  1  0.63874300  0.52229600  0.37872500  1
  Ti  Ti6  1  0.86125700  0.52229600  0.87872500  1
  Ti  Ti7  1  0.13874300  0.47770400  0.12127500  1
  Zn  Zn0  1  0.62186300  0.15017300  0.37524700  1
  Zn  Zn1  1  0.37813700  0.84982700  0.62475300  1
  Zn  Zn2  1  0.62186300  0.65017300  0.12475300  1
  Zn  Zn3  1  0.12186300  0.84982700  0.12475300  1
  Zn  Zn4  1  0.87813700  0.15017300  0.87524700  1
  Zn  Zn5  1  0.37813700  0.34982700  0.87524700  1
  Zn  Zn6  1  0.12186300  0.34982700  0.37524700  1
  Zn  Zn7  1  0.87813700  0.65017300  0.62475300  1
  Si  Si0  1  0.55412900  0.66080100  0.76905900  1
  Si  Si1  1  0.70289200  0.83531600  0.47459200  1
  Si  Si2  1  0.79710800  0.83531600  0.97459200  1
  Si  Si3  1  0.94587100  0.16080100  0.23094100  1
  Si  Si4  1  0.05412900  0.33919900  0.73094100  1
  Si  Si5  1  0.44587100  0.83919900  0.26905900  1
  Si  Si6  1  0.20289200  0.66468400  0.47459200  1
  Si  Si7  1  0.70289200  0.33531600  0.02540800  1
  Si  Si8  1  0.79710800  0.33531600  0.52540800  1
  Si  Si9  1  0.94587100  0.66080100  0.26905900  1
  Si  Si10  1  0.44587100  0.33919900  0.23094100  1
  Si  Si11  1  0.55412900  0.16080100  0.73094100  1
  Si  Si12  1  0.29710800  0.16468400  0.52540800  1
  Si  Si13  1  0.05412900  0.83919900  0.76905900  1
  Si  Si14  1  0.29710800  0.66468400  0.97459200  1
  Si  Si15  1  0.20289200  0.16468400  0.02540800  1
  O  O0  1  0.94624600  0.50285400  0.30801900  1
  O  O1  1  0.29304900  0.01754300  0.06597800  1
  O  O2  1  0.05375400  0.49714600  0.69198100  1
  O  O3  1  0.71226200  0.33926400  0.93727100  1
  O  O4  1  0.21226200  0.16073600  0.93727100  1
  O  O5  1  0.90420200  0.20189700  0.05130300  1
  O  O6  1  0.95667600  0.66073200  0.18130600  1
  O  O7  1  0.04332400  0.83926800  0.68130600  1
  O  O8  1  0.71226200  0.83926400  0.56272900  1
  O  O9  1  0.95667600  0.16073200  0.31869400  1
  O  O10  1  0.44624600  0.49714600  0.19198100  1
  O  O11  1  0.78773800  0.33926400  0.43727100  1
  O  O12  1  0.70695100  0.98245700  0.93402200  1
  O  O13  1  0.45667600  0.83926800  0.18130600  1
  O  O14  1  0.55375400  0.00285400  0.69198100  1
  O  O15  1  0.29304900  0.51754300  0.43402200  1
  O  O16  1  0.44624600  0.99714600  0.30801900  1
  O  O17  1  0.17137900  0.77099000  0.29980300  1
  O  O18  1  0.32862100  0.77099000  0.79980300  1
  O  O19  1  0.59579800  0.70189700  0.94869700  1
  O  O20  1  0.78773800  0.83926400  0.06272900  1
  O  O21  1  0.54332400  0.66073200  0.68130600  1
  O  O22  1  0.79304900  0.48245700  0.06597800  1
  O  O23  1  0.17137900  0.27099000  0.20019700  1
  O  O24  1  0.28773800  0.16073600  0.43727100  1
  O  O25  1  0.54332400  0.16073200  0.81869400  1
  O  O26  1  0.70695100  0.48245700  0.56597800  1
  O  O27  1  0.21226200  0.66073600  0.56272900  1
  O  O28  1  0.20695100  0.51754300  0.93402200  1
  O  O29  1  0.67137900  0.72901000  0.29980300  1
  O  O30  1  0.05375400  0.99714600  0.80801900  1
  O  O31  1  0.82862100  0.72901000  0.79980300  1
  O  O32  1  0.82862100  0.22901000  0.70019700  1
  O  O33  1  0.79304900  0.98245700  0.43402200  1
  O  O34  1  0.28773800  0.66073600  0.06272900  1
  O  O35  1  0.20695100  0.01754300  0.56597800  1
  O  O36  1  0.32862100  0.27099000  0.70019700  1
  O  O37  1  0.09579800  0.79810300  0.94869700  1
  O  O38  1  0.40420200  0.79810300  0.44869700  1
  O  O39  1  0.67137900  0.22901000  0.20019700  1
  O  O40  1  0.40420200  0.29810300  0.05130300  1
  O  O41  1  0.59579800  0.20189700  0.55130300  1
  O  O42  1  0.09579800  0.29810300  0.55130300  1
  O  O43  1  0.45667600  0.33926800  0.31869400  1
  O  O44  1  0.55375400  0.50285400  0.80801900  1
  O  O45  1  0.90420200  0.70189700  0.44869700  1
  O  O46  1  0.04332400  0.33926800  0.81869400  1
  O  O47  1  0.94624600  0.00285400  0.19198100  1
loop_
_geom_bond_atom_site_label_1
_geom_bond_atom_site_label_2
_geom_bond_distance
_geom_bond_site_symmetry_2
O0 Si9 1.617567 1_555
O0 Zn6 2.097380 1_655
O0 Ti5 2.104593 1_555
O1 Si15 1.616678 1_555
O1 Zn3 2.092930 1_545
O1 Ti1 2.104088 1_555
O2 Si4 1.617567 1_555
O2 Zn7 2.097380 1_455
O2 Ti4 2.104593 1_555
O3 Si7 1.643795 1_556
O3 Zn5 2.118358 1_555
O3 Ti6 2.149643 1_555
O3 Zn4 2.259431 1_555
O4 Si15 1.643795 1_556
O4 Zn4 2.118358 1_455
O4 Ti0 2.149643 1_545
O4 Zn5 2.259431 1_555
O5 Si15 1.691054 1_655
O5 Si7 1.692390 1_555
O5 Ti1 2.526906 1_555
O6 Si9 1.636494 1_555
O6 Zn2 2.067618 1_555
O6 Zn3 2.207579 1_655
O6 Ti7 2.233862 1_655
O7 Si13 1.636494 1_555
O7 Zn1 2.067618 1_555
O7 Zn7 2.207579 1_455
O7 Ti2 2.233862 1_465
O8 Si1 1.643795 1_555
O8 Zn1 2.118358 1_555
O8 Ti2 2.149643 1_565
O8 Zn7 2.259431 1_555
O9 Si3 1.636494 1_555
O9 Zn0 2.067618 1_555
O9 Zn6 2.207579 1_655
O9 Ti3 2.233862 1_645
O10 Si10 1.617567 1_555
O10 Zn2 2.097380 1_555
O10 Ti7 2.104593 1_555
O11 Si8 1.643795 1_555
O11 Zn6 2.118358 1_655
O11 Ti5 2.149643 1_555
O11 Zn0 2.259431 1_555
O12 Si2 1.616678 1_555
O12 Zn4 2.092930 1_565
O12 Ti0 2.104088 1_555
O13 Si5 1.636494 1_555
O13 Zn3 2.067618 1_555
O13 Zn2 2.207579 1_555
O13 Ti1 2.233862 1_565
O14 Si11 1.617567 1_555
O14 Zn1 2.097380 1_545
O14 Ti2 2.104593 1_555
O15 Si6 1.616678 1_555
O15 Zn6 2.092930 1_555
O15 Ti5 2.104088 1_555
O16 Si5 1.617567 1_555
O16 Zn0 2.097380 1_565
O16 Ti3 2.104593 1_555
O17 Si9 1.666227 1_455
O17 Si5 1.684751 1_555
O17 Ti3 2.402526 1_555
O18 Si0 1.666227 1_555
O18 Si13 1.684751 1_555
O18 Ti0 2.402526 1_555
O19 Si14 1.691054 1_555
O19 Si2 1.692390 1_555
O19 Ti6 2.526906 1_555
O20 Si2 1.643795 1_554
O20 Zn3 2.118358 1_655
O20 Ti1 2.149643 1_565
O20 Zn2 2.259431 1_555
O21 Si0 1.636494 1_555
O21 Zn7 2.067618 1_555
O21 Zn1 2.207579 1_555
O21 Ti4 2.233862 1_555
O22 Si7 1.616678 1_555
O22 Zn2 2.092930 1_555
O22 Ti7 2.104088 1_655
O23 Si3 1.666227 1_455
O23 Si10 1.684751 1_555
O23 Ti7 2.402526 1_555
O24 Si12 1.643795 1_555
O24 Zn0 2.118358 1_555
O24 Ti3 2.149643 1_545
O24 Zn6 2.259431 1_555
O25 Si11 1.636494 1_555
O25 Zn4 2.067618 1_555
O25 Zn5 2.207579 1_555
O25 Ti0 2.233862 1_545
O26 Si8 1.616678 1_555
O26 Zn7 2.092930 1_555
O26 Ti4 2.104088 1_555
O27 Si6 1.643795 1_555
O27 Zn7 2.118358 1_455
O27 Ti4 2.149643 1_555
O27 Zn1 2.259431 1_555
O28 Si14 1.616678 1_555
O28 Zn5 2.092930 1_555
O28 Ti6 2.104088 1_455
O29 Si5 1.666227 1_555
O29 Si9 1.684751 1_555
O29 Ti5 2.402526 1_555
O30 Si13 1.617567 1_555
O30 Zn4 2.097380 1_465
O30 Ti0 2.104593 1_555
O31 Si13 1.666227 1_655
O31 Si0 1.684751 1_555
O31 Ti6 2.402526 1_555
O32 Si4 1.666227 1_655
O32 Si11 1.684751 1_555
O32 Ti2 2.402526 1_555
O33 Si1 1.616678 1_555
O33 Zn0 2.092930 1_565
O33 Ti3 2.104088 1_655
O34 Si14 1.643795 1_554
O34 Zn2 2.118358 1_555
O34 Ti7 2.149643 1_555
O34 Zn3 2.259431 1_555
O35 Si12 1.616678 1_555
O35 Zn1 2.092930 1_545
O35 Ti2 2.104088 1_455
O36 Si11 1.666227 1_555
O36 Si4 1.684751 1_555
O36 Ti4 2.402526 1_555
O37 Si2 1.691054 1_455
O37 Si14 1.692390 1_555
O37 Ti0 2.526906 1_555
O38 Si1 1.691054 1_555
O38 Si6 1.692390 1_555
O38 Ti3 2.526906 1_555
O39 Si10 1.666227 1_555
O39 Si3 1.684751 1_555
O39 Ti1 2.402526 1_555
O40 Si7 1.691054 1_555
O40 Si15 1.692390 1_555
O40 Ti7 2.526906 1_555
O41 Si12 1.691054 1_555
O41 Si8 1.692390 1_555
O41 Ti2 2.526906 1_555
O42 Si8 1.691054 1_455
O42 Si12 1.692390 1_555
O42 Ti4 2.526906 1_555
O43 Si10 1.636494 1_555
O43 Zn6 2.067618 1_555
O43 Zn0 2.207579 1_555
O43 Ti5 2.233862 1_555
O44 Si0 1.617567 1_555
O44 Zn5 2.097380 1_555
O44 Ti6 2.104593 1_555
O45 Si6 1.691054 1_655
O45 Si1 1.692390 1_555
O45 Ti5 2.526906 1_555
O46 Si4 1.636494 1_555
O46 Zn5 2.067618 1_555
O46 Zn4 2.207579 1_455
O46 Ti6 2.233862 1_455
O47 Si3 1.617567 1_555
O47 Zn3 2.097380 1_645
O47 Ti1 2.104593 1_555
