# generated using pymatgen
data_Na(TeMo)3
_symmetry_space_group_name_H-M   'P 1'
_cell_length_a   10.02278128
_cell_length_b   10.02278128
_cell_length_c   4.61100600
_cell_angle_alpha   90.00000000
_cell_angle_beta   90.00000000
_cell_angle_gamma   119.99999526
_symmetry_Int_Tables_number   1
_chemical_formula_structural   Na(TeMo)3
_chemical_formula_sum   'Na2 Te6 Mo6'
_cell_volume   401.14635125
_cell_formula_units_Z   2
loop_
 _symmetry_equiv_pos_site_id
 _symmetry_equiv_pos_as_xyz
  1  'x, y, z'
loop_
 _atom_site_type_symbol
 _atom_site_label
 _atom_site_symmetry_multiplicity
 _atom_site_fract_x
 _atom_site_fract_y
 _atom_site_fract_z
 _atom_site_occupancy
  Na  Na0  1  0.66666700  0.33333300  0.75000000  1
  Na  Na1  1  0.33333300  0.66666700  0.25000000  1
  Te  Te0  1  0.69509200  0.65529600  0.75000000  1
  Te  Te1  1  0.34470400  0.03979500  0.75000000  1
  Te  Te2  1  0.96020500  0.30490800  0.75000000  1
  Te  Te3  1  0.30490800  0.34470400  0.25000000  1
  Te  Te4  1  0.65529600  0.96020500  0.25000000  1
  Te  Te5  1  0.03979500  0.69509200  0.25000000  1
  Mo  Mo0  1  0.01979700  0.85734500  0.75000000  1
  Mo  Mo1  1  0.14265500  0.16245200  0.75000000  1
  Mo  Mo2  1  0.83754800  0.98020300  0.75000000  1
  Mo  Mo3  1  0.98020300  0.14265500  0.25000000  1
  Mo  Mo4  1  0.85734500  0.83754800  0.25000000  1
  Mo  Mo5  1  0.16245200  0.01979700  0.25000000  1
loop_
_geom_bond_atom_site_label_1
_geom_bond_atom_site_label_2
_geom_bond_distance
_geom_bond_site_symmetry_2
Na0 Te2 3.094368 1_555
Na0 Te0 3.094368 1_555
Na0 Te1 3.094368 1_555
Na1 Te5 3.094368 1_555
Na1 Te3 3.094368 1_555
Na1 Te4 3.094368 1_555
Mo0 Mo2 2.664996 1_455
Mo0 Mo1 2.664996 1_565
Mo0 Mo4 2.771777 1_455
Mo0 Mo4 2.771777 1_456
Mo0 Mo5 2.771777 1_566
Mo0 Mo5 2.771777 1_565
Mo0 Te1 2.827300 1_565
Mo0 Te0 2.846379 1_455
Mo0 Te5 2.885495 1_555
Mo0 Te5 2.885495 1_556
Mo1 Mo2 2.664996 1_445
Mo1 Mo5 2.771776 1_556
Mo1 Mo5 2.771776 1_555
Mo1 Mo3 2.771777 1_456
Mo1 Mo3 2.771777 1_455
Mo1 Te2 2.827292 1_455
Mo1 Te1 2.846386 1_555
Mo1 Te3 2.885499 1_556
Mo1 Te3 2.885499 1_555
Mo2 Mo4 2.771776 1_556
Mo2 Mo4 2.771776 1_555
Mo2 Mo3 2.771777 1_565
Mo2 Mo3 2.771777 1_566
Mo2 Te0 2.827301 1_555
Mo2 Te2 2.846377 1_565
Mo2 Te4 2.885501 1_555
Mo2 Te4 2.885501 1_556
Mo3 Mo5 2.664996 1_655
Mo3 Mo4 2.664996 1_545
Mo3 Te4 2.827300 1_545
Mo3 Te3 2.846379 1_655
Mo3 Te2 2.885495 1_555
Mo3 Te2 2.885495 1_554
Mo4 Mo5 2.664996 1_665
Mo4 Te5 2.827292 1_655
Mo4 Te4 2.846386 1_555
Mo4 Te0 2.885499 1_555
Mo4 Te0 2.885499 1_554
Mo5 Te3 2.827301 1_555
Mo5 Te5 2.846377 1_545
Mo5 Te1 2.885501 1_555
Mo5 Te1 2.885501 1_554
