# generated using pymatgen
data_CSNCl2F5
_symmetry_space_group_name_H-M   'P 1'
_cell_length_a   5.72868300
_cell_length_b   7.83749661
_cell_length_c   8.65354148
_cell_angle_alpha   106.32121646
_cell_angle_beta   88.80375563
_cell_angle_gamma   109.81119434
_symmetry_Int_Tables_number   1
_chemical_formula_structural   CSNCl2F5
_chemical_formula_sum   'C2 S2 N2 Cl4 F10'
_cell_volume   349.61334415
_cell_formula_units_Z   2
loop_
 _symmetry_equiv_pos_site_id
 _symmetry_equiv_pos_as_xyz
  1  'x, y, z'
loop_
 _atom_site_type_symbol
 _atom_site_label
 _atom_site_symmetry_multiplicity
 _atom_site_fract_x
 _atom_site_fract_y
 _atom_site_fract_z
 _atom_site_occupancy
  C  C0  1  0.70537000  0.17250700  0.28726100  1
  C  C1  1  0.29463000  0.82749300  0.71273900  1
  S  S0  1  0.57848900  0.19524500  0.79649000  1
  S  S1  1  0.42151100  0.80475500  0.20351000  1
  N  N0  1  0.49003400  0.04541100  0.25979100  1
  N  N1  1  0.50996600  0.95458900  0.74020900  1
  Cl  Cl0  1  0.00486600  0.84599500  0.72104100  1
  Cl  Cl1  1  0.99513400  0.15400500  0.27895900  1
  Cl  Cl2  1  0.71340000  0.40314200  0.34203300  1
  Cl  Cl3  1  0.28660000  0.59685800  0.65796700  1
  F  F0  1  0.37509600  0.18831300  0.66414000  1
  F  F1  1  0.62490400  0.81168700  0.33586000  1
  F  F2  1  0.66174400  0.42353100  0.84869100  1
  F  F3  1  0.33825600  0.57646900  0.15130900  1
  F  F4  1  0.78189100  0.20990700  0.66395300  1
  F  F5  1  0.21810900  0.79009300  0.33604700  1
  F  F6  1  0.78843400  0.21791300  0.92950200  1
  F  F7  1  0.21156600  0.78208700  0.07049800  1
  F  F8  1  0.38158000  0.19553500  0.93371800  1
  F  F9  1  0.61842000  0.80446500  0.06628200  1
loop_
_geom_bond_atom_site_label_1
_geom_bond_atom_site_label_2
_geom_bond_distance
_geom_bond_site_symmetry_2
C0 N0 1.271505 1_555
C0 Cl1 1.712894 1_555
C0 Cl2 1.719651 1_555
C1 N1 1.271505 1_555
C1 Cl0 1.712894 1_555
C1 Cl3 1.719651 1_555
N0 S1 1.714243 1_545
N1 S0 1.714243 1_565
F0 S0 1.627920 1_555
F1 S1 1.627920 1_555
F2 S0 1.615253 1_555
F3 S1 1.615253 1_555
F4 S0 1.616750 1_555
F5 S1 1.616750 1_555
F6 S0 1.612749 1_555
F7 S1 1.612749 1_555
F8 S0 1.620778 1_555
F9 S1 1.620778 1_555
