# generated using pymatgen
data_FeCuPt2
_symmetry_space_group_name_H-M   'P 1'
_cell_length_a   5.51233256
_cell_length_b   5.51233256
_cell_length_c   14.43955206
_cell_angle_alpha   90.00000000
_cell_angle_beta   90.00000000
_cell_angle_gamma   90.00000000
_symmetry_Int_Tables_number   1
_chemical_formula_structural   FeCuPt2
_chemical_formula_sum   'Fe8 Cu8 Pt16'
_cell_volume   438.75748902
_cell_formula_units_Z   8
loop_
 _symmetry_equiv_pos_site_id
 _symmetry_equiv_pos_as_xyz
  1  'x, y, z'
loop_
 _atom_site_type_symbol
 _atom_site_label
 _atom_site_symmetry_multiplicity
 _atom_site_fract_x
 _atom_site_fract_y
 _atom_site_fract_z
 _atom_site_occupancy
  Fe  Fe0_0  1  0.25000000  0.25000000  0.00000000  1
  Fe  Fe0_1  1  0.25000000  0.25000000  0.50000000  1
  Fe  Fe0_2  1  0.25000000  0.75000000  0.00000000  1
  Fe  Fe0_3  1  0.25000000  0.75000000  0.50000000  1
  Fe  Fe0_4  1  0.75000000  0.25000000  0.00000000  1
  Fe  Fe0_5  1  0.75000000  0.25000000  0.50000000  1
  Fe  Fe0_6  1  0.75000000  0.75000000  0.00000000  1
  Fe  Fe0_7  1  0.75000000  0.75000000  0.50000000  1
  Cu  Cu0_0  1  0.25000000  0.25000000  0.25000000  1
  Cu  Cu0_1  1  0.25000000  0.25000000  0.75000000  1
  Cu  Cu0_2  1  0.25000000  0.75000000  0.25000000  1
  Cu  Cu0_3  1  0.25000000  0.75000000  0.75000000  1
  Cu  Cu0_4  1  0.75000000  0.25000000  0.25000000  1
  Cu  Cu0_5  1  0.75000000  0.25000000  0.75000000  1
  Cu  Cu0_6  1  0.75000000  0.75000000  0.25000000  1
  Cu  Cu0_7  1  0.75000000  0.75000000  0.75000000  1
  Pt  Pt0_0  1  0.00000000  0.00000000  0.37538321  1
  Pt  Pt0_1  1  0.00000000  0.00000000  0.87538321  1
  Pt  Pt0_2  1  0.00000000  0.50000000  0.37538321  1
  Pt  Pt0_3  1  0.00000000  0.50000000  0.87538321  1
  Pt  Pt0_4  1  0.50000000  0.00000000  0.37538321  1
  Pt  Pt0_5  1  0.50000000  0.00000000  0.87538321  1
  Pt  Pt0_6  1  0.50000000  0.50000000  0.37538321  1
  Pt  Pt0_7  1  0.50000000  0.50000000  0.87538321  1
  Pt  Pt1_0  1  0.00000000  0.00000000  0.12461679  1
  Pt  Pt1_1  1  0.00000000  0.00000000  0.62461678  1
  Pt  Pt1_2  1  0.00000000  0.50000000  0.12461679  1
  Pt  Pt1_3  1  0.00000000  0.50000000  0.62461678  1
  Pt  Pt1_4  1  0.50000000  0.00000000  0.12461679  1
  Pt  Pt1_5  1  0.50000000  0.00000000  0.62461678  1
  Pt  Pt1_6  1  0.50000000  0.50000000  0.12461679  1
  Pt  Pt1_7  1  0.50000000  0.50000000  0.62461678  1
loop_
_geom_bond_atom_site_label_1
_geom_bond_atom_site_label_2
_geom_bond_distance
_geom_bond_site_symmetry_2
Fe0_0 Pt1_0 2.652566 1_555
Fe0_0 Pt1_6 2.652566 1_555
Fe0_0 Pt1_4 2.652566 1_555
Fe0_0 Pt1_2 2.652566 1_555
Fe0_0 Pt0_3 2.652566 1_554
Fe0_0 Pt0_7 2.652566 1_554
Fe0_0 Pt0_1 2.652566 1_554
Fe0_0 Pt0_5 2.652566 1_554
Fe0_0 Fe0_2 2.756166 1_555
Fe0_0 Fe0_4 2.756166 1_555
Fe0_0 Fe0_4 2.756166 1_455
Fe0_0 Fe0_2 2.756166 1_545
Fe0_1 Pt0_4 2.652566 1_555
Fe0_1 Pt0_0 2.652566 1_555
Fe0_1 Pt0_2 2.652566 1_555
Fe0_1 Pt0_6 2.652566 1_555
Fe0_1 Pt1_5 2.652566 1_555
Fe0_1 Pt1_3 2.652566 1_555
Fe0_1 Pt1_7 2.652566 1_555
Fe0_1 Pt1_1 2.652566 1_555
Fe0_1 Fe0_5 2.756166 1_555
Fe0_1 Fe0_3 2.756166 1_555
Fe0_1 Fe0_3 2.756166 1_545
Fe0_1 Fe0_5 2.756166 1_455
Fe0_2 Pt1_2 2.652566 1_555
Fe0_2 Pt1_6 2.652566 1_555
Fe0_2 Pt0_7 2.652566 1_554
Fe0_2 Pt0_3 2.652566 1_554
Fe0_2 Pt1_0 2.652566 1_565
Fe0_2 Pt0_1 2.652566 1_564
Fe0_2 Pt1_4 2.652566 1_565
Fe0_2 Pt0_5 2.652566 1_564
Fe0_2 Fe0_6 2.756166 1_555
Fe0_2 Fe0_6 2.756166 1_455
Fe0_3 Pt0_2 2.652566 1_555
Fe0_3 Pt0_6 2.652566 1_555
Fe0_3 Pt1_3 2.652566 1_555
Fe0_3 Pt1_7 2.652566 1_555
Fe0_3 Pt0_4 2.652566 1_565
Fe0_3 Pt0_0 2.652566 1_565
Fe0_3 Pt1_1 2.652566 1_565
Fe0_3 Pt1_5 2.652566 1_565
Fe0_3 Fe0_7 2.756166 1_555
Fe0_3 Fe0_7 2.756166 1_455
Fe0_4 Pt1_4 2.652566 1_555
Fe0_4 Pt1_6 2.652566 1_555
Fe0_4 Pt0_7 2.652566 1_554
Fe0_4 Pt0_5 2.652566 1_554
Fe0_4 Pt1_0 2.652566 1_655
Fe0_4 Pt1_2 2.652566 1_655
Fe0_4 Pt0_1 2.652566 1_654
Fe0_4 Pt0_3 2.652566 1_654
Fe0_4 Fe0_6 2.756166 1_555
Fe0_4 Fe0_6 2.756166 1_545
Fe0_5 Pt0_4 2.652566 1_555
Fe0_5 Pt0_6 2.652566 1_555
Fe0_5 Pt1_7 2.652566 1_555
Fe0_5 Pt1_5 2.652566 1_555
Fe0_5 Pt0_0 2.652566 1_655
Fe0_5 Pt0_2 2.652566 1_655
Fe0_5 Pt1_3 2.652566 1_655
Fe0_5 Pt1_1 2.652566 1_655
Fe0_5 Fe0_7 2.756166 1_555
Fe0_5 Fe0_7 2.756166 1_545
Fe0_6 Pt1_6 2.652566 1_555
Fe0_6 Pt0_7 2.652566 1_554
Fe0_6 Pt1_2 2.652566 1_655
Fe0_6 Pt1_4 2.652566 1_565
Fe0_6 Pt0_3 2.652566 1_654
Fe0_6 Pt1_0 2.652566 1_665
Fe0_6 Pt0_5 2.652566 1_564
Fe0_6 Pt0_1 2.652566 1_664
Fe0_7 Pt0_6 2.652566 1_555
Fe0_7 Pt0_4 2.652566 1_565
Fe0_7 Pt1_7 2.652566 1_555
Fe0_7 Pt0_2 2.652566 1_655
Fe0_7 Pt1_5 2.652566 1_565
Fe0_7 Pt0_0 2.652566 1_665
Fe0_7 Pt1_3 2.652566 1_655
Fe0_7 Pt1_1 2.652566 1_665
Cu0_0 Pt1_6 2.660086 1_555
Cu0_0 Pt1_0 2.660086 1_555
Cu0_0 Pt1_4 2.660086 1_555
Cu0_0 Pt1_2 2.660086 1_555
Cu0_0 Pt0_6 2.660086 1_555
Cu0_0 Pt0_0 2.660086 1_555
Cu0_0 Pt0_4 2.660086 1_555
Cu0_0 Pt0_2 2.660086 1_555
Cu0_0 Cu0_4 2.756166 1_555
Cu0_0 Cu0_2 2.756166 1_555
Cu0_0 Cu0_4 2.756166 1_455
Cu0_0 Cu0_2 2.756166 1_545
Cu0_1 Pt0_3 2.660086 1_555
Cu0_1 Pt0_7 2.660086 1_555
Cu0_1 Pt0_1 2.660086 1_555
Cu0_1 Pt0_5 2.660086 1_555
Cu0_1 Pt1_1 2.660086 1_555
Cu0_1 Pt1_5 2.660086 1_555
Cu0_1 Pt1_3 2.660086 1_555
Cu0_1 Pt1_7 2.660086 1_555
Cu0_1 Cu0_3 2.756166 1_555
Cu0_1 Cu0_5 2.756166 1_555
Cu0_1 Cu0_3 2.756166 1_545
Cu0_1 Cu0_5 2.756166 1_455
Cu0_2 Pt1_2 2.660086 1_555
Cu0_2 Pt1_6 2.660086 1_555
Cu0_2 Pt0_2 2.660086 1_555
Cu0_2 Pt0_6 2.660086 1_555
Cu0_2 Pt1_4 2.660086 1_565
Cu0_2 Pt1_0 2.660086 1_565
Cu0_2 Pt0_0 2.660086 1_565
Cu0_2 Pt0_4 2.660086 1_565
Cu0_2 Cu0_6 2.756166 1_555
Cu0_2 Cu0_6 2.756166 1_455
Cu0_3 Pt0_3 2.660086 1_555
Cu0_3 Pt0_7 2.660086 1_555
Cu0_3 Pt0_1 2.660086 1_565
Cu0_3 Pt0_5 2.660086 1_565
Cu0_3 Pt1_3 2.660086 1_555
Cu0_3 Pt1_7 2.660086 1_555
Cu0_3 Pt1_1 2.660086 1_565
Cu0_3 Pt1_5 2.660086 1_565
Cu0_3 Cu0_7 2.756166 1_555
Cu0_3 Cu0_7 2.756166 1_455
Cu0_4 Pt1_4 2.660086 1_555
Cu0_4 Pt1_6 2.660086 1_555
Cu0_4 Pt0_6 2.660086 1_555
Cu0_4 Pt0_4 2.660086 1_555
Cu0_4 Pt1_0 2.660086 1_655
Cu0_4 Pt1_2 2.660086 1_655
Cu0_4 Pt0_2 2.660086 1_655
Cu0_4 Pt0_0 2.660086 1_655
Cu0_4 Cu0_6 2.756166 1_555
Cu0_4 Cu0_6 2.756166 1_545
Cu0_5 Pt0_5 2.660086 1_555
Cu0_5 Pt0_7 2.660086 1_555
Cu0_5 Pt0_3 2.660086 1_655
Cu0_5 Pt0_1 2.660086 1_655
Cu0_5 Pt1_5 2.660086 1_555
Cu0_5 Pt1_7 2.660086 1_555
Cu0_5 Pt1_3 2.660086 1_655
Cu0_5 Pt1_1 2.660086 1_655
Cu0_5 Cu0_7 2.756166 1_555
Cu0_5 Cu0_7 2.756166 1_545
Cu0_6 Pt1_6 2.660086 1_555
Cu0_6 Pt0_6 2.660086 1_555
Cu0_6 Pt1_2 2.660086 1_655
Cu0_6 Pt1_4 2.660086 1_565
Cu0_6 Pt0_2 2.660086 1_655
Cu0_6 Pt1_0 2.660086 1_665
Cu0_6 Pt0_4 2.660086 1_565
Cu0_6 Pt0_0 2.660086 1_665
Cu0_7 Pt0_7 2.660086 1_555
Cu0_7 Pt0_5 2.660086 1_565
Cu0_7 Pt0_3 2.660086 1_655
Cu0_7 Pt1_7 2.660086 1_555
Cu0_7 Pt1_5 2.660086 1_565
Cu0_7 Pt0_1 2.660086 1_665
Cu0_7 Pt1_3 2.660086 1_655
Cu0_7 Pt1_1 2.660086 1_665
Pt0_0 Pt0_4 2.756166 1_455
Pt0_0 Pt0_2 2.756166 1_545
Pt0_0 Pt0_4 2.756166 1_555
Pt0_0 Pt0_2 2.756166 1_555
Pt0_1 Pt0_3 2.756166 1_555
Pt0_1 Pt0_3 2.756166 1_545
Pt0_1 Pt0_5 2.756166 1_455
Pt0_1 Pt0_5 2.756166 1_555
Pt0_2 Pt0_6 2.756166 1_455
Pt0_2 Pt0_6 2.756166 1_555
Pt0_3 Pt0_7 2.756166 1_455
Pt0_3 Pt0_7 2.756166 1_555
Pt0_4 Pt0_6 2.756166 1_555
Pt0_4 Pt0_6 2.756166 1_545
Pt0_5 Pt0_7 2.756166 1_555
Pt0_5 Pt0_7 2.756166 1_545
Pt1_0 Pt1_4 2.756166 1_555
Pt1_0 Pt1_2 2.756166 1_555
Pt1_0 Pt1_2 2.756166 1_545
Pt1_0 Pt1_4 2.756166 1_455
Pt1_1 Pt1_3 2.756166 1_555
Pt1_1 Pt1_5 2.756166 1_455
Pt1_1 Pt1_3 2.756166 1_545
Pt1_1 Pt1_5 2.756166 1_555
Pt1_2 Pt1_6 2.756166 1_455
Pt1_2 Pt1_6 2.756166 1_555
Pt1_3 Pt1_7 2.756166 1_555
Pt1_3 Pt1_7 2.756166 1_455
Pt1_4 Pt1_6 2.756166 1_545
Pt1_4 Pt1_6 2.756166 1_555
Pt1_5 Pt1_7 2.756166 1_555
Pt1_5 Pt1_7 2.756166 1_545
