# generated using pymatgen
data_RbPr(WO4)2
_symmetry_space_group_name_H-M   'P 1'
_cell_length_a   7.65467511
_cell_length_b   7.65467511
_cell_length_c   7.66410162
_cell_angle_alpha   62.51964082
_cell_angle_beta   62.51964082
_cell_angle_gamma   89.46681458
_symmetry_Int_Tables_number   1
_chemical_formula_structural   RbPr(WO4)2
_chemical_formula_sum   'Rb2 Pr2 W4 O16'
_cell_volume   341.41614595
_cell_formula_units_Z   2
loop_
 _symmetry_equiv_pos_site_id
 _symmetry_equiv_pos_as_xyz
  1  'x, y, z'
loop_
 _atom_site_type_symbol
 _atom_site_label
 _atom_site_symmetry_multiplicity
 _atom_site_fract_x
 _atom_site_fract_y
 _atom_site_fract_z
 _atom_site_occupancy
  Rb  Rb0  1  0.19986788  0.80013212  0.75000000  1
  Rb  Rb1  1  0.80013212  0.19986788  0.25000000  1
  Pr  Pr0  1  0.77312259  0.22687741  0.75000000  1
  Pr  Pr1  1  0.22687741  0.77312259  0.25000000  1
  W  W0  1  0.69374010  0.69034050  0.76933733  1
  W  W1  1  0.30625990  0.30965950  0.23066267  1
  W  W2  1  0.30965950  0.30625990  0.73066267  1
  W  W3  1  0.69034050  0.69374010  0.26933733  1
  O  O0  1  0.61933018  0.75400139  0.56163581  1
  O  O1  1  0.38066982  0.24599861  0.43836419  1
  O  O2  1  0.24599861  0.38066982  0.93836419  1
  O  O3  1  0.75400139  0.61933018  0.06163581  1
  O  O4  1  0.38819956  0.07531718  0.86149430  1
  O  O5  1  0.61180044  0.92468282  0.13850570  1
  O  O6  1  0.92468282  0.61180044  0.63850570  1
  O  O7  1  0.07531718  0.38819956  0.36149430  1
  O  O8  1  0.58089757  0.37050468  0.97614570  1
  O  O9  1  0.41910243  0.62949532  0.02385430  1
  O  O10  1  0.62949532  0.41910243  0.52385430  1
  O  O11  1  0.37050468  0.58089757  0.47614570  1
  O  O12  1  0.79127765  0.94372020  0.69110629  1
  O  O13  1  0.20872235  0.05627980  0.30889371  1
  O  O14  1  0.05627980  0.20872235  0.80889371  1
  O  O15  1  0.94372020  0.79127765  0.19110629  1
loop_
_geom_bond_atom_site_label_1
_geom_bond_atom_site_label_2
_geom_bond_distance
_geom_bond_site_symmetry_2
O0 W0 1.792087 1_555
O0 W3 2.313435 1_555
O0 Rb0 2.947849 1_555
O0 Rb1 2.963533 1_565
O1 W1 1.792087 1_555
O1 W2 2.313435 1_555
O1 Rb1 2.947849 1_555
O1 Rb0 2.963533 1_545
O2 W2 1.792087 1_555
O2 W1 2.313435 1_556
O2 Rb0 2.947849 1_555
O2 Rb1 2.963533 1_456
O3 W3 1.792087 1_555
O3 W0 2.313435 1_554
O3 Rb1 2.947849 1_555
O3 Rb0 2.963533 1_654
O4 W2 1.841906 1_555
O4 Pr1 2.458627 1_546
O4 Pr0 2.753696 1_555
O4 Rb0 3.178073 1_545
O5 W3 1.841906 1_555
O5 Pr0 2.458627 1_564
O5 Pr1 2.753696 1_555
O5 Rb1 3.178073 1_565
O6 W0 1.841906 1_555
O6 Pr1 2.458627 1_655
O6 Pr0 2.753696 1_555
O6 Rb0 3.178073 1_655
O7 W1 1.841906 1_555
O7 Pr0 2.458627 1_455
O7 Pr1 2.753696 1_555
O7 Rb1 3.178073 1_455
O8 W1 1.958739 1_556
O8 W0 2.108748 1_555
O8 Pr0 2.398469 1_555
O8 Rb1 3.099558 1_556
O9 W0 1.958739 1_554
O9 W1 2.108748 1_555
O9 Pr1 2.398469 1_555
O9 Rb0 3.099558 1_554
O10 W3 1.958739 1_555
O10 W2 2.108748 1_555
O10 Pr0 2.398469 1_555
O10 Rb1 3.099558 1_555
O11 W2 1.958739 1_555
O11 W3 2.108748 1_555
O11 Pr1 2.398469 1_555
O11 Rb0 3.099558 1_555
O12 W0 1.794251 1_555
O12 Pr0 2.400082 1_565
O12 Rb1 2.991924 1_565
O12 Rb0 3.460471 1_655
O13 W1 1.794251 1_555
O13 Pr1 2.400082 1_545
O13 Rb0 2.991924 1_545
O13 Rb1 3.460471 1_455
O14 W2 1.794251 1_555
O14 Pr0 2.400082 1_455
O14 Rb1 2.991924 1_456
O14 Rb0 3.460471 1_545
O15 W3 1.794251 1_555
O15 Pr1 2.400082 1_655
O15 Rb0 2.991924 1_654
O15 Rb1 3.460471 1_565
