# generated using pymatgen
data_Ba3P4
_symmetry_space_group_name_H-M   'P 1'
_cell_length_a   6.23719224
_cell_length_b   8.12035351
_cell_length_c   9.71494051
_cell_angle_alpha   82.91838660
_cell_angle_beta   71.27596033
_cell_angle_gamma   67.41542023
_symmetry_Int_Tables_number   1
_chemical_formula_structural   Ba3P4
_chemical_formula_sum   'Ba6 P8'
_cell_volume   430.26709162
_cell_formula_units_Z   2
loop_
 _symmetry_equiv_pos_site_id
 _symmetry_equiv_pos_as_xyz
  1  'x, y, z'
loop_
 _atom_site_type_symbol
 _atom_site_label
 _atom_site_symmetry_multiplicity
 _atom_site_fract_x
 _atom_site_fract_y
 _atom_site_fract_z
 _atom_site_occupancy
  Ba  Ba0  1  0.59346972  0.98990939  0.33780285  1
  Ba  Ba1  1  0.92118197  0.01009061  0.66219715  1
  Ba  Ba2  1  0.33338011  0.51009061  0.83780285  1
  Ba  Ba3  1  0.68127257  0.48990939  0.16219715  1
  Ba  Ba4  1  0.00103105  0.50000000  0.50000000  1
  Ba  Ba5  1  0.25103105  0.00000000  -0.00000000  1
  P  P0  1  0.41920423  0.65461848  0.49396925  1
  P  P1  1  0.56779195  0.34538152  0.50603075  1
  P  P2  1  0.82382270  0.84538152  0.99396925  1
  P  P3  1  0.66317247  0.15461848  0.00603075  1
  P  P4  1  0.34904749  0.19517519  0.65140891  1
  P  P5  1  0.19563259  0.80482481  0.34859109  1
  P  P6  1  0.75045840  0.69517519  0.84859109  1
  P  P7  1  0.29422369  0.30482481  0.15140891  1
loop_
_geom_bond_atom_site_label_1
_geom_bond_atom_site_label_2
_geom_bond_distance
_geom_bond_site_symmetry_2
Ba0 P7 3.265599 1_565
Ba0 P4 3.271540 1_565
Ba0 P3 3.294030 1_565
Ba0 P5 3.329543 1_555
Ba0 P0 3.330465 1_555
Ba0 P2 3.345092 1_554
Ba0 P1 3.415984 1_565
Ba0 P5 3.500582 1_655
Ba1 P6 3.265596 1_545
Ba1 P5 3.271540 1_645
Ba1 P2 3.294029 1_545
Ba1 P4 3.329549 1_555
Ba1 P1 3.330465 1_555
Ba1 P3 3.345092 1_556
Ba1 P0 3.415983 1_645
Ba1 P4 3.500576 1_655
Ba2 P4 3.265605 1_555
Ba2 P7 3.271540 1_556
Ba2 P1 3.294030 1_555
Ba2 P6 3.329543 1_455
Ba2 P2 3.330468 1_455
Ba2 P0 3.345092 1_555
Ba2 P3 3.415978 1_556
Ba2 P6 3.500582 1_555
Ba3 P5 3.265599 1_555
Ba3 P6 3.271540 1_554
Ba3 P0 3.294029 1_555
Ba3 P7 3.329543 1_555
Ba3 P3 3.330468 1_555
Ba3 P1 3.345092 1_555
Ba3 P2 3.415983 1_554
Ba3 P7 3.500582 1_655
Ba4 P4 3.166634 1_555
Ba4 P5 3.166638 1_555
Ba4 P1 3.283564 1_555
Ba4 P0 3.283564 1_555
Ba4 P0 3.371631 1_455
Ba4 P1 3.371631 1_455
Ba4 P7 3.527876 1_555
Ba4 P6 3.527876 1_455
Ba5 P7 3.166638 1_555
Ba5 P6 3.166641 1_544
Ba5 P3 3.283558 1_555
Ba5 P2 3.283564 1_544
Ba5 P2 3.371631 1_444
Ba5 P3 3.371636 1_455
Ba5 P4 3.527876 1_554
Ba5 P5 3.527876 1_545
P0 P5 2.227154 1_555
P0 P1 2.321200 1_555
P1 P4 2.227157 1_555
P2 P6 2.227150 1_555
P2 P3 2.321200 1_566
P3 P7 2.227150 1_555
