# generated using pymatgen
data_Rb4MgFe8H6(Se8O25)2
_symmetry_space_group_name_H-M   'P 1'
_cell_length_a   7.85226200
_cell_length_b   10.51530752
_cell_length_c   16.13059088
_cell_angle_alpha   77.45945308
_cell_angle_beta   88.64679850
_cell_angle_gamma   86.21290620
_symmetry_Int_Tables_number   1
_chemical_formula_structural   Rb4MgFe8H6(Se8O25)2
_chemical_formula_sum   'Rb4 Mg1 Fe8 H6 Se16 O50'
_cell_volume   1297.21283360
_cell_formula_units_Z   1
loop_
 _symmetry_equiv_pos_site_id
 _symmetry_equiv_pos_as_xyz
  1  'x, y, z'
loop_
 _atom_site_type_symbol
 _atom_site_label
 _atom_site_symmetry_multiplicity
 _atom_site_fract_x
 _atom_site_fract_y
 _atom_site_fract_z
 _atom_site_occupancy
  Rb  Rb0  1  0.51703600  0.69687900  0.26141100  1
  Rb  Rb1  1  0.48296400  0.30312100  0.73858900  1
  Rb  Rb2  1  0.90615600  0.69603300  0.83730400  1
  Rb  Rb3  1  0.09384400  0.30396700  0.16269600  1
  Mg  Mg0  1  0.50000000  0.00000000  0.50000000  1
  Fe  Fe0  1  0.59182100  0.25939600  0.30699100  1
  Fe  Fe1  1  0.40817900  0.74060400  0.69300900  1
  Fe  Fe2  1  0.74960900  0.64795900  0.51968400  1
  Fe  Fe3  1  0.25039100  0.35204100  0.48031600  1
  Fe  Fe4  1  0.54835700  0.74927700  0.99765800  1
  Fe  Fe5  1  0.45164300  0.25072300  0.00234200  1
  Fe  Fe6  1  0.97720000  0.09705300  0.77027200  1
  Fe  Fe7  1  0.02280000  0.90294700  0.22972800  1
  H  H0  1  0.21296500  0.61823200  0.09705300  1
  H  H1  1  0.78703500  0.38176800  0.90294700  1
  H  H2  1  0.00322300  0.71809500  0.61355700  1
  H  H3  1  0.99677700  0.28190500  0.38644300  1
  H  H4  1  0.81590600  0.78129100  0.63858400  1
  H  H5  1  0.18409400  0.21870900  0.36141600  1
  Se  Se0  1  0.55206300  0.46073600  0.11880100  1
  Se  Se1  1  0.44793700  0.53926400  0.88119900  1
  Se  Se2  1  0.80646600  0.94419000  0.39959100  1
  Se  Se3  1  0.19353400  0.05581000  0.60040900  1
  Se  Se4  1  0.68874000  0.03147500  0.93387300  1
  Se  Se5  1  0.31126000  0.96852500  0.06612700  1
  Se  Se6  1  0.96449000  0.38060500  0.63602000  1
  Se  Se7  1  0.03551000  0.61939500  0.36398000  1
  Se  Se8  1  0.67573900  0.37547200  0.45429700  1
  Se  Se9  1  0.32426100  0.62452800  0.54570300  1
  Se  Se10  1  0.71577900  0.10408600  0.15103000  1
  Se  Se11  1  0.28422100  0.89591400  0.84897000  1
  Se  Se12  1  0.66701100  0.98629200  0.68205300  1
  Se  Se13  1  0.33298900  0.01370800  0.31794700  1
  Se  Se14  1  0.95817500  0.75089600  0.08149200  1
  Se  Se15  1  0.04182500  0.24910400  0.91850800  1
  O  O0  1  0.51040900  0.42714700  0.22750600  1
  O  O1  1  0.48959100  0.57285300  0.77249400  1
  O  O2  1  0.44564200  0.61542400  0.09457100  1
  O  O3  1  0.55435800  0.38457600  0.90542900  1
  O  O4  1  0.40224000  0.37669500  0.07930600  1
  O  O5  1  0.59776000  0.62330500  0.92069400  1
  O  O6  1  0.66387500  0.83338500  0.45474500  1
  O  O7  1  0.33612500  0.16661500  0.54525500  1
  O  O8  1  0.65583900  0.07751100  0.39236900  1
  O  O9  1  0.34416100  0.92248900  0.60763100  1
  O  O10  1  0.80025500  0.91020500  0.29987900  1
  O  O11  1  0.19974500  0.08979500  0.70012100  1
  O  O12  1  0.48813900  0.11532000  0.92938300  1
  O  O13  1  0.51186100  0.88468000  0.07061700  1
  O  O14  1  0.64298700  0.88992200  0.90273800  1
  O  O15  1  0.35701300  0.11007800  0.09726200  1
  O  O16  1  0.76991400  0.12334700  0.84075200  1
  O  O17  1  0.23008600  0.87665300  0.15924800  1
  O  O18  1  0.86219100  0.24236200  0.68180100  1
  O  O19  1  0.13780900  0.75763800  0.31819900  1
  O  O20  1  0.02651300  0.34298900  0.53903000  1
  O  O21  1  0.97348700  0.65701100  0.46097000  1
  O  O22  1  0.78561900  0.48176800  0.60615400  1
  O  O23  1  0.21438100  0.51823200  0.39384600  1
  O  O24  1  0.65701600  0.54516500  0.43527300  1
  O  O25  1  0.34298400  0.45483500  0.56472700  1
  O  O26  1  0.78370700  0.34269500  0.36474600  1
  O  O27  1  0.21629300  0.65730500  0.63525400  1
  O  O28  1  0.48171900  0.33540200  0.41551300  1
  O  O29  1  0.51828100  0.66459800  0.58448700  1
  O  O30  1  0.74049100  0.21813900  0.21470200  1
  O  O31  1  0.25950900  0.78186100  0.78529800  1
  O  O32  1  0.68991600  0.20939900  0.05241100  1
  O  O33  1  0.31008400  0.79060100  0.94758900  1
  O  O34  1  0.92689600  0.05402200  0.13812800  1
  O  O35  1  0.07310400  0.94597800  0.86187200  1
  O  O36  1  0.69160500  0.01846100  0.57510700  1
  O  O37  1  0.30839500  0.98153900  0.42489300  1
  O  O38  1  0.87732900  0.96440600  0.71483600  1
  O  O39  1  0.12267100  0.03559400  0.28516400  1
  O  O40  1  0.62865000  0.81764500  0.70592700  1
  O  O41  1  0.37135000  0.18235500  0.29407300  1
  O  O42  1  0.78711700  0.68606000  0.04734700  1
  O  O43  1  0.21288300  0.31394000  0.95265300  1
  O  O44  1  0.89443100  0.76868700  0.18087000  1
  O  O45  1  0.10556900  0.23131300  0.81913000  1
  O  O46  1  0.08906800  0.59957400  0.10660200  1
  O  O47  1  0.91093200  0.40042600  0.89339800  1
  O  O48  1  0.88316300  0.74500100  0.59581700  1
  O  O49  1  0.11683700  0.25499900  0.40418300  1
loop_
_geom_bond_atom_site_label_1
_geom_bond_atom_site_label_2
_geom_bond_distance
_geom_bond_site_symmetry_2
Rb0 Se13 3.826305 1_565
Rb1 Se12 3.826305 1_545
Mg0 O36 1.998972 1_555
Mg0 O37 1.998972 1_545
Mg0 O9 2.143094 1_545
Mg0 O8 2.143094 1_555
Mg0 O7 2.339116 1_555
Mg0 O6 2.339116 1_545
Fe0 O30 1.974501 1_555
Fe0 O41 1.993074 1_555
Fe0 O0 2.017843 1_555
Fe0 O26 2.121418 1_555
Fe0 O8 2.137562 1_555
Fe0 O28 2.212543 1_555
Fe1 O31 1.974501 1_555
Fe1 O40 1.993074 1_555
Fe1 O1 2.017843 1_555
Fe1 O27 2.121418 1_555
Fe1 O9 2.137562 1_555
Fe1 O29 2.212543 1_555
Fe2 O21 1.975030 1_555
Fe2 O22 1.993546 1_555
Fe2 O6 2.079711 1_555
Fe2 O24 2.083422 1_555
Fe2 O29 2.090581 1_555
Fe2 O48 2.096565 1_555
Fe3 O20 1.975030 1_555
Fe3 O23 1.993546 1_555
Fe3 O7 2.079711 1_555
Fe3 O25 2.083422 1_555
Fe3 O28 2.090581 1_555
Fe3 O49 2.096565 1_555
Fe4 O5 2.017404 1_555
Fe4 O13 2.037696 1_556
Fe4 O33 2.037953 1_555
Fe4 O14 2.047379 1_555
Fe4 O2 2.051898 1_556
Fe4 O42 2.067408 1_556
Fe5 O4 2.017404 1_555
Fe5 O12 2.037696 1_554
Fe5 O32 2.037953 1_555
Fe5 O15 2.047379 1_555
Fe5 O3 2.051898 1_554
Fe5 O43 2.067408 1_554
Fe6 O16 2.001973 1_555
Fe6 O38 2.019753 1_545
Fe6 O18 2.029407 1_555
Fe6 O35 2.036945 1_645
Fe6 O11 2.065544 1_655
Fe6 O45 2.083020 1_655
Fe7 O17 2.001973 1_555
Fe7 O39 2.019753 1_565
Fe7 O19 2.029407 1_555
Fe7 O34 2.036945 1_465
Fe7 O10 2.065544 1_455
Fe7 O44 2.083020 1_455
H0 O46 1.006832 1_555
H1 O47 1.006832 1_555
H2 O48 0.996517 1_455
H3 O49 0.996517 1_655
H4 O48 0.985353 1_555
H5 O49 0.985353 1_555
O0 Se0 1.739434 1_555
O0 Rb0 3.006820 1_555
O1 Se1 1.739434 1_555
O1 Rb1 3.006820 1_555
O2 Se0 1.748329 1_555
O2 Rb0 3.070232 1_555
O3 Se1 1.748329 1_555
O3 Rb1 3.070232 1_555
O4 Se0 1.728606 1_555
O4 Rb3 2.811133 1_555
O5 Se1 1.728606 1_555
O5 Rb2 2.811133 1_555
O6 Se2 1.754381 1_555
O7 Se3 1.754381 1_555
O8 Se2 1.759092 1_545
O9 Se3 1.759092 1_565
O10 Se2 1.724151 1_555
O10 Rb0 3.419259 1_555
O11 Se3 1.724151 1_555
O11 Rb1 3.419259 1_555
O12 Se4 1.748695 1_555
O12 Rb1 3.275545 1_555
O13 Se5 1.748695 1_555
O13 Rb0 3.275545 1_555
O14 Se4 1.732238 1_565
O14 Rb2 3.133052 1_555
O15 Se5 1.732238 1_545
O15 Rb3 3.133052 1_555
O16 Se4 1.732572 1_555
O16 Rb1 3.102595 1_555
O17 Se5 1.732572 1_555
O17 Rb0 3.102595 1_555
O18 Se6 1.721571 1_555
O18 Rb1 3.160462 1_555
O19 Se7 1.721571 1_555
O19 Rb0 3.160462 1_555
O20 Se6 1.746030 1_455
O21 Se7 1.746030 1_655
O22 Se6 1.717107 1_555
O22 Rb1 3.513913 1_555
O23 Se7 1.717107 1_555
O23 Rb0 3.513913 1_555
O24 Se8 1.740535 1_555
O24 Rb0 3.096683 1_555
O25 Se9 1.740535 1_555
O25 Rb1 3.096683 1_555
O26 Se8 1.744683 1_555
O27 Se9 1.744683 1_555
O28 Se8 1.770380 1_555
O29 Se9 1.770380 1_555
O30 Se10 1.762359 1_555
O30 Rb3 3.018086 1_655
O31 Se11 1.762359 1_555
O31 Rb2 3.018086 1_455
O32 Se10 1.737443 1_555
O33 Se11 1.737443 1_555
O34 Se10 1.727591 1_555
O34 Rb3 3.116927 1_655
O35 Se11 1.727591 1_555
O35 Rb2 3.116927 1_455
O36 Se12 1.693275 1_545
O37 Se13 1.693275 1_565
O38 Se12 1.731518 1_555
O38 Rb2 3.071381 1_555
O39 Se13 1.731518 1_555
O39 Rb3 3.071381 1_555
O40 Se12 1.775503 1_555
O40 Rb2 3.089932 1_555
O41 Se13 1.775503 1_555
O41 Rb3 3.089932 1_555
O42 Se14 1.700386 1_555
O43 Se15 1.700386 1_555
O44 Se14 1.713239 1_555
O44 Rb0 3.275288 1_555
O45 Se15 1.713239 1_555
O45 Rb1 3.275288 1_555
O46 Se14 1.809999 1_455
O46 Rb3 3.040901 1_555
O47 Se15 1.809999 1_655
O47 Rb2 3.040901 1_555
