# generated using pymatgen
data_Cs2K2Pd2N8O25
_symmetry_space_group_name_H-M   'P 1'
_cell_length_a   7.88226503
_cell_length_b   7.88226503
_cell_length_c   22.60625313
_cell_angle_alpha   86.87482909
_cell_angle_beta   86.87482909
_cell_angle_gamma   89.85974821
_symmetry_Int_Tables_number   1
_chemical_formula_structural   Cs2K2Pd2N8O25
_chemical_formula_sum   'Cs4 K4 Pd4 N16 O50'
_cell_volume   1400.35413949
_cell_formula_units_Z   2
loop_
 _symmetry_equiv_pos_site_id
 _symmetry_equiv_pos_as_xyz
  1  'x, y, z'
loop_
 _atom_site_type_symbol
 _atom_site_label
 _atom_site_symmetry_multiplicity
 _atom_site_fract_x
 _atom_site_fract_y
 _atom_site_fract_z
 _atom_site_occupancy
  Cs  Cs0  1  0.74916322  0.26187851  0.02433904  1
  Cs  Cs1  1  0.73812149  0.25083678  0.47566096  1
  Cs  Cs2  1  0.25083678  0.73812149  0.97566096  1
  Cs  Cs3  1  0.26187851  0.74916322  0.52433904  1
  K  K0  1  0.85539651  0.75544392  0.74734168  1
  K  K1  1  0.24455608  0.14460349  0.75265832  1
  K  K2  1  0.14460349  0.24455608  0.25265832  1
  K  K3  1  0.75544392  0.85539651  0.24734168  1
  Pd  Pd0  1  0.76723134  0.26916045  0.83378682  1
  Pd  Pd1  1  0.73083955  0.23276866  0.66621318  1
  Pd  Pd2  1  0.23276866  0.73083955  0.16621318  1
  Pd  Pd3  1  0.26916045  0.76723134  0.33378682  1
  N  N0  1  0.59838721  0.58222754  0.86901424  1
  N  N1  1  0.41777246  0.40161279  0.63098576  1
  N  N2  1  0.40161279  0.41777246  0.13098576  1
  N  N3  1  0.58222754  0.59838721  0.36901424  1
  N  N4  1  0.91641549  0.94686151  0.87729644  1
  N  N5  1  0.05313849  0.08358451  0.62270356  1
  N  N6  1  0.08358451  0.05313849  0.12270356  1
  N  N7  1  0.94686151  0.91641549  0.37729644  1
  N  N8  1  0.44986272  0.10646578  0.88022557  1
  N  N9  1  0.89353422  0.55013728  0.61977443  1
  N  N10  1  0.55013728  0.89353422  0.11977443  1
  N  N11  1  0.10646578  0.44986272  0.38022557  1
  N  N12  1  0.91835843  0.57372596  0.13343858  1
  N  N13  1  0.42627404  0.08164157  0.36656142  1
  N  N14  1  0.08164157  0.42627404  0.86656142  1
  N  N15  1  0.57372596  0.91835843  0.63343858  1
  O  O0  1  0.67663245  0.50944736  0.82280395  1
  O  O1  1  0.49055264  0.32336755  0.67719605  1
  O  O2  1  0.32336755  0.49055264  0.17719605  1
  O  O3  1  0.50944736  0.67663245  0.32280395  1
  O  O4  1  0.58094980  0.50020146  0.91749576  1
  O  O5  1  0.49979854  0.41905020  0.58250424  1
  O  O6  1  0.41905020  0.49979854  0.08250424  1
  O  O7  1  0.50020146  0.58094980  0.41749576  1
  O  O8  1  0.54929553  0.72971933  0.85871156  1
  O  O9  1  0.27028067  0.45070447  0.64128844  1
  O  O10  1  0.45070447  0.27028067  0.14128844  1
  O  O11  1  0.72971933  0.54929553  0.35871156  1
  O  O12  1  0.86511162  0.03045344  0.82811131  1
  O  O13  1  0.96954656  0.13488838  0.67188869  1
  O  O14  1  0.13488838  0.96954656  0.17188869  1
  O  O15  1  0.03045344  0.86511162  0.32811131  1
  O  O16  1  0.91680218  0.01981280  0.92426448  1
  O  O17  1  0.98018720  0.08319782  0.57573552  1
  O  O18  1  0.08319782  0.98018720  0.07573552  1
  O  O19  1  0.01981280  0.91680218  0.42426448  1
  O  O20  1  0.96217600  0.79751841  0.87042491  1
  O  O21  1  0.20248159  0.03782400  0.62957509  1
  O  O22  1  0.03782400  0.20248159  0.12957509  1
  O  O23  1  0.79751841  0.96217600  0.37042491  1
  O  O24  1  0.52599998  0.17782095  0.83104461  1
  O  O25  1  0.82217905  0.47400002  0.66895539  1
  O  O26  1  0.47400002  0.82217905  0.16895539  1
  O  O27  1  0.17782095  0.52599998  0.33104461  1
  O  O28  1  0.52827639  0.08828301  0.92608373  1
  O  O29  1  0.91171699  0.47172361  0.57391627  1
  O  O30  1  0.47172361  0.91171699  0.07391627  1
  O  O31  1  0.08828301  0.52827639  0.42608373  1
  O  O32  1  0.29969585  0.06162028  0.87539997  1
  O  O33  1  0.93837972  0.70030415  0.62460003  1
  O  O34  1  0.70030415  0.93837972  0.12460003  1
  O  O35  1  0.06162028  0.29969585  0.37539997  1
  O  O36  1  0.99628838  0.57974713  0.08414649  1
  O  O37  1  0.42025287  0.00371162  0.41585351  1
  O  O38  1  0.00371162  0.42025287  0.91585351  1
  O  O39  1  0.57974713  0.99628838  0.58414649  1
  O  O40  1  0.77436239  0.51523668  0.14470762  1
  O  O41  1  0.48476332  0.22563761  0.35529238  1
  O  O42  1  0.22563761  0.48476332  0.85529238  1
  O  O43  1  0.51523668  0.77436239  0.64470762  1
  O  O44  1  0.99384719  0.63492409  0.17985392  1
  O  O45  1  0.36507591  0.00615281  0.32014608  1
  O  O46  1  0.00615281  0.36507591  0.82014608  1
  O  O47  1  0.63492409  0.99384719  0.67985392  1
  O  O48  1  0.21381448  0.78618552  0.75000000  1
  O  O49  1  0.78618552  0.21381448  0.25000000  1
loop_
_geom_bond_atom_site_label_1
_geom_bond_atom_site_label_2
_geom_bond_distance
_geom_bond_site_symmetry_2
Cs0 O28 3.256085 1_554
Cs0 O16 3.261443 1_554
Cs0 O38 3.277275 1_654
Cs0 O4 3.311034 1_554
Cs0 O34 3.326700 1_545
Cs0 O22 3.394014 1_655
Cs0 O10 3.445080 1_555
Cs0 O6 3.447958 1_555
Cs0 O40 3.476388 1_555
Cs0 O36 3.546881 1_555
Cs0 O30 3.616823 1_545
Cs0 O18 3.638140 1_645
Cs1 O29 3.256085 1_555
Cs1 O17 3.261443 1_555
Cs1 O39 3.277275 1_545
Cs1 O5 3.311034 1_555
Cs1 O35 3.326700 1_655
Cs1 O23 3.394014 1_545
Cs1 O11 3.445080 1_555
Cs1 O7 3.447958 1_555
Cs1 O41 3.476388 1_555
Cs1 O37 3.546881 1_555
Cs1 O31 3.616823 1_655
Cs1 O19 3.638140 1_645
Cs2 O30 3.256085 1_556
Cs2 O18 3.261443 1_556
Cs2 O36 3.277275 1_456
Cs2 O6 3.311034 1_556
Cs2 O32 3.326700 1_565
Cs2 O20 3.394014 1_455
Cs2 O8 3.445080 1_555
Cs2 O4 3.447958 1_555
Cs2 O42 3.476388 1_555
Cs2 O38 3.546881 1_555
Cs2 O28 3.616823 1_565
Cs2 O16 3.638140 1_465
Cs3 O31 3.256085 1_555
Cs3 O19 3.261443 1_555
Cs3 O37 3.277275 1_565
Cs3 O7 3.311034 1_555
Cs3 O33 3.326700 1_455
Cs3 O21 3.394014 1_565
Cs3 O9 3.445080 1_555
Cs3 O5 3.447958 1_555
Cs3 O43 3.476388 1_555
Cs3 O39 3.546881 1_555
Cs3 O29 3.616823 1_455
Cs3 O17 3.638140 1_465
K0 O0 2.836548 1_555
K0 O48 2.840286 1_655
K0 O33 2.871945 1_555
K0 O12 2.913126 1_565
K0 O25 2.934627 1_555
K0 O47 2.973105 1_555
K0 O20 2.986260 1_555
K1 O1 2.836548 1_555
K1 O48 2.840286 1_545
K1 O32 2.871945 1_555
K1 O13 2.913126 1_455
K1 O24 2.934627 1_555
K1 O46 2.973105 1_555
K1 O21 2.986260 1_555
K2 O2 2.836548 1_555
K2 O49 2.840286 1_455
K2 O35 2.871945 1_555
K2 O14 2.913126 1_545
K2 O27 2.934627 1_555
K2 O45 2.973105 1_555
K2 O22 2.986260 1_555
K3 O3 2.836548 1_555
K3 O49 2.840286 1_565
K3 O34 2.871945 1_555
K3 O15 2.913126 1_655
K3 O26 2.934627 1_555
K3 O44 2.973105 1_555
K3 O23 2.986260 1_555
N0 O8 1.238405 1_555
N0 O4 1.242920 1_555
N0 O0 1.339447 1_555
N1 O9 1.238405 1_555
N1 O5 1.242920 1_555
N1 O1 1.339447 1_555
N2 O10 1.238405 1_555
N2 O6 1.242920 1_555
N2 O2 1.339447 1_555
N3 O11 1.238405 1_555
N3 O7 1.242920 1_555
N3 O3 1.339447 1_555
N4 O16 1.234888 1_565
N4 O20 1.245670 1_555
N4 O12 1.342318 1_565
N5 O17 1.234888 1_455
N5 O21 1.245670 1_555
N5 O13 1.342318 1_455
N6 O18 1.234888 1_545
N6 O22 1.245670 1_555
N6 O14 1.342318 1_545
N7 O19 1.234888 1_655
N7 O23 1.245670 1_555
N7 O15 1.342318 1_655
N8 O28 1.237133 1_555
N8 O32 1.248288 1_555
N8 O24 1.331658 1_555
N9 O29 1.237133 1_555
N9 O33 1.248288 1_555
N9 O25 1.331658 1_555
N10 O30 1.237133 1_555
N10 O34 1.248288 1_555
N10 O26 1.331658 1_555
N11 O31 1.237133 1_555
N11 O35 1.248288 1_555
N11 O27 1.331658 1_555
N12 O40 1.234477 1_555
N12 O36 1.241371 1_555
N12 O44 1.346251 1_555
N13 O41 1.234477 1_555
N13 O37 1.241371 1_555
N13 O45 1.346251 1_555
N14 O42 1.234477 1_555
N14 O38 1.241371 1_555
N14 O46 1.346251 1_555
N15 O43 1.234477 1_555
N15 O39 1.241371 1_555
N15 O47 1.346251 1_555
O0 Pd0 2.029855 1_555
O1 Pd1 2.029855 1_555
O2 Pd2 2.029855 1_555
O3 Pd3 2.029855 1_555
O12 Pd0 2.039696 1_555
O13 Pd1 2.039696 1_555
O14 Pd2 2.039696 1_555
O15 Pd3 2.039696 1_555
O24 Pd0 2.040127 1_555
O25 Pd1 2.040127 1_555
O26 Pd2 2.040127 1_555
O27 Pd3 2.040127 1_555
O44 Pd2 2.032610 1_655
O45 Pd3 2.032610 1_545
O46 Pd0 2.032610 1_455
O47 Pd1 2.032610 1_565
