# generated using pymatgen
data_SrPrGaCuO5
_symmetry_space_group_name_H-M   'P 1'
_cell_length_a   5.61435669
_cell_length_b   5.37353555
_cell_length_c   9.16385259
_cell_angle_alpha   107.41853871
_cell_angle_beta   107.73289805
_cell_angle_gamma   90.11515611
_symmetry_Int_Tables_number   1
_chemical_formula_structural   SrPrGaCuO5
_chemical_formula_sum   'Sr2 Pr2 Ga2 Cu2 O10'
_cell_volume   249.92849600
_cell_formula_units_Z   2
loop_
 _symmetry_equiv_pos_site_id
 _symmetry_equiv_pos_as_xyz
  1  'x, y, z'
loop_
 _atom_site_type_symbol
 _atom_site_label
 _atom_site_symmetry_multiplicity
 _atom_site_fract_x
 _atom_site_fract_y
 _atom_site_fract_z
 _atom_site_occupancy
  Sr  Sr0  1  0.41459700  0.84686200  0.77729000  1
  Sr  Sr1  1  0.94730900  0.34491900  0.77574700  1
  Pr  Pr0  1  0.12571300  0.56900800  0.20676700  1
  Pr  Pr1  1  0.66709500  0.06974900  0.20681500  1
  Ga  Ga0  1  0.35606800  0.24266800  0.49707300  1
  Ga  Ga1  1  0.72620000  0.74307800  0.49935500  1
  Cu  Cu0  1  0.53954300  0.45995700  0.99692400  1
  Cu  Cu1  1  0.04459500  0.96029500  0.99744000  1
  O  O0  1  0.30894600  0.72610000  0.02844700  1
  O  O1  1  0.12016800  0.06440000  0.30277200  1
  O  O2  1  0.66011200  0.08745900  0.47981700  1
  O  O3  1  0.34581000  0.28238200  0.69990000  1
  O  O4  1  0.30961700  0.22872600  0.03245300  1
  O  O5  1  0.78924900  0.71789400  0.00375100  1
  O  O6  1  0.80034700  0.21807700  0.00143900  1
  O  O7  1  0.40459600  0.59074800  0.48290600  1
  O  O8  1  0.93915500  0.78938000  0.70246800  1
  O  O9  1  0.77687900  0.55829900  0.30863500  1
loop_
_geom_bond_atom_site_label_1
_geom_bond_atom_site_label_2
_geom_bond_distance
_geom_bond_site_symmetry_2
Ga0 O3 1.825191 1_555
Ga0 O1 1.838285 1_555
Ga0 O2 1.930202 1_555
Ga0 O7 1.937636 1_555
Ga1 O8 1.822564 1_555
Ga1 O9 1.840247 1_555
Ga1 O7 1.925443 1_555
Ga1 O2 1.937756 1_565
Cu0 O5 1.943523 1_556
Cu0 O0 1.947503 1_556
Cu0 O4 1.951421 1_556
Cu0 O6 1.959088 1_556
Cu0 O3 2.477829 1_555
Cu0 O9 2.643684 1_556
Cu1 O6 1.951520 1_466
Cu1 O4 1.954721 1_566
Cu1 O0 1.957519 1_556
Cu1 O5 1.960434 1_456
Cu1 O8 2.457097 1_455
Cu1 O1 2.580818 1_566
O0 Pr0 2.507496 1_555
O0 Pr1 2.510134 1_565
O0 Sr0 2.791845 1_554
O0 Sr1 2.821304 1_454
O1 Pr1 2.428457 1_455
O1 Pr0 2.544825 1_545
O1 Pr0 3.093853 1_555
O2 Pr1 2.487282 1_555
O2 Sr1 2.636148 1_555
O3 Sr1 2.532216 1_455
O3 Sr0 2.638082 1_545
O3 Sr0 2.897116 1_555
O3 Sr1 3.228952 1_555
O4 Pr1 2.486268 1_555
O4 Pr0 2.494946 1_555
O4 Sr0 2.827943 1_544
O4 Sr1 2.833888 1_454
O5 Pr1 2.486781 1_565
O5 Pr0 2.534955 1_655
O5 Sr0 2.723819 1_554
O5 Sr1 2.792738 1_554
O6 Pr0 2.490261 1_655
O6 Pr1 2.547630 1_555
O6 Sr1 2.702602 1_554
O6 Sr0 2.776377 1_544
O7 Pr0 2.505463 1_555
O7 Sr0 2.619040 1_555
O8 Sr0 2.538836 1_655
O8 Sr1 2.664404 1_555
O8 Sr1 2.853955 1_565
O8 Sr0 3.216493 1_555
O9 Pr0 2.419872 1_655
O9 Pr1 2.513771 1_555
