# generated using pymatgen
data_MgTiAg(PO4)3
_symmetry_space_group_name_H-M   'P 1'
_cell_length_a   8.56030520
_cell_length_b   8.56030520
_cell_length_c   8.56030515
_cell_angle_alpha   61.97227429
_cell_angle_beta   61.97227429
_cell_angle_gamma   61.97228012
_symmetry_Int_Tables_number   1
_chemical_formula_structural   MgTiAg(PO4)3
_chemical_formula_sum   'Mg2 Ti2 Ag2 P6 O24'
_cell_volume   463.13198482
_cell_formula_units_Z   2
loop_
 _symmetry_equiv_pos_site_id
 _symmetry_equiv_pos_as_xyz
  1  'x, y, z'
loop_
 _atom_site_type_symbol
 _atom_site_label
 _atom_site_symmetry_multiplicity
 _atom_site_fract_x
 _atom_site_fract_y
 _atom_site_fract_z
 _atom_site_occupancy
  Mg  Mg0  1  0.99550200  0.99550200  0.99550200  1
  Mg  Mg1  1  0.49550200  0.49550200  0.49550200  1
  Ti  Ti0  1  0.14553700  0.14553700  0.14553700  1
  Ti  Ti1  1  0.64553700  0.64553700  0.64553700  1
  Ag  Ag0  1  0.35123500  0.35123500  0.35123500  1
  Ag  Ag1  1  0.85123500  0.85123500  0.85123500  1
  P  P0  1  0.44421300  0.04815700  0.75690800  1
  P  P1  1  0.75690800  0.44421300  0.04815700  1
  P  P2  1  0.04815700  0.75690800  0.44421300  1
  P  P3  1  0.94421300  0.25690800  0.54815700  1
  P  P4  1  0.25690800  0.54815700  0.94421300  1
  P  P5  1  0.54815700  0.94421300  0.25690800  1
  O  O0  1  0.53119400  0.09096600  0.32082600  1
  O  O1  1  0.09096600  0.32082600  0.53119400  1
  O  O2  1  0.25197600  0.05043400  0.91576100  1
  O  O3  1  0.32082600  0.53119400  0.09096600  1
  O  O4  1  0.59096600  0.03119400  0.82082600  1
  O  O5  1  0.42718700  0.24133400  0.60256000  1
  O  O6  1  0.91576100  0.25197600  0.05043400  1
  O  O7  1  0.60256000  0.42718700  0.24133400  1
  O  O8  1  0.00605600  0.19200500  0.37814900  1
  O  O9  1  0.24133400  0.60256000  0.42718700  1
  O  O10  1  0.92718700  0.10256000  0.74133400  1
  O  O11  1  0.19200500  0.37814900  0.00605600  1
  O  O12  1  0.82082600  0.59096600  0.03119400  1
  O  O13  1  0.05043400  0.91576100  0.25197600  1
  O  O14  1  0.75197600  0.41576100  0.55043400  1
  O  O15  1  0.03119400  0.82082600  0.59096600  1
  O  O16  1  0.41576100  0.55043400  0.75197600  1
  O  O17  1  0.10256000  0.74133400  0.92718700  1
  O  O18  1  0.55043400  0.75197600  0.41576100  1
  O  O19  1  0.37814900  0.00605600  0.19200500  1
  O  O20  1  0.69200500  0.50605600  0.87814900  1
  O  O21  1  0.74133400  0.92718700  0.10256000  1
  O  O22  1  0.87814900  0.69200500  0.50605600  1
  O  O23  1  0.50605600  0.87814900  0.69200500  1
loop_
_geom_bond_atom_site_label_1
_geom_bond_atom_site_label_2
_geom_bond_distance
_geom_bond_site_symmetry_2
Mg0 O21 2.175765 1_556
Mg0 O10 2.175766 1_565
Mg0 O17 2.175766 1_655
Mg0 O2 2.183442 1_665
Mg0 O13 2.183442 1_656
Mg0 O6 2.183442 1_566
Mg1 O5 2.175765 1_555
Mg1 O7 2.175766 1_555
Mg1 O9 2.175766 1_555
Mg1 O18 2.183442 1_555
Mg1 O16 2.183442 1_555
Mg1 O14 2.183442 1_555
Ag0 O1 2.085045 1_555
Ag0 O3 2.085045 1_555
Ag0 O0 2.085046 1_555
Ag0 O7 2.184940 1_555
Ag0 O5 2.184940 1_555
Ag0 O9 2.184941 1_555
Ag1 O12 2.085045 1_556
Ag1 O15 2.085045 1_655
Ag1 O4 2.085046 1_565
Ag1 O10 2.184940 1_565
Ag1 O21 2.184940 1_556
Ag1 O17 2.184941 1_655
O0 P5 1.516085 1_545
O1 P3 1.516085 1_455
O2 P0 1.565017 1_555
O2 Ti0 2.117870 1_556
O3 P4 1.516085 1_554
O4 P0 1.516085 1_555
O5 P0 1.550048 1_555
O6 P1 1.565017 1_555
O6 Ti0 2.117870 1_655
O7 P1 1.550048 1_555
O8 P3 1.570447 1_455
O8 Ti0 1.900657 1_555
O9 P2 1.550049 1_555
O10 P3 1.550048 1_555
O11 P4 1.570447 1_554
O11 Ti0 1.900657 1_555
O12 P1 1.516085 1_555
O13 P2 1.565017 1_555
O13 Ti0 2.117870 1_565
O14 P3 1.565017 1_555
O14 Ti1 2.117870 1_555
O15 P2 1.516085 1_555
O16 P4 1.565017 1_555
O16 Ti1 2.117870 1_555
O17 P4 1.550049 1_555
O18 P5 1.565017 1_555
O18 Ti1 2.117870 1_555
O19 P5 1.570447 1_545
O19 Ti0 1.900657 1_555
O20 P1 1.570447 1_556
O20 Ti1 1.900657 1_555
O21 P5 1.550048 1_555
O22 P2 1.570447 1_655
O22 Ti1 1.900657 1_555
O23 P0 1.570447 1_565
O23 Ti1 1.900657 1_555
