# generated using pymatgen
data_Ba3Yb2TeO5
_symmetry_space_group_name_H-M   'P 1'
_cell_length_a   4.36351367
_cell_length_b   4.36351367
_cell_length_c   11.83477088
_cell_angle_alpha   90.00000000
_cell_angle_beta   90.00000000
_cell_angle_gamma   90.00000000
_symmetry_Int_Tables_number   1
_chemical_formula_structural   Ba3Yb2TeO5
_chemical_formula_sum   'Ba3 Yb2 Te1 O5'
_cell_volume   225.33701478
_cell_formula_units_Z   1
loop_
 _symmetry_equiv_pos_site_id
 _symmetry_equiv_pos_as_xyz
  1  'x, y, z'
loop_
 _atom_site_type_symbol
 _atom_site_label
 _atom_site_symmetry_multiplicity
 _atom_site_fract_x
 _atom_site_fract_y
 _atom_site_fract_z
 _atom_site_occupancy
  Ba  Ba0  1  0.00000000  0.00000000  0.00000000  1
  Ba  Ba1  1  0.00000000  0.00000000  0.66388131  1
  Ba  Ba2  1  0.00000000  0.00000000  0.33611869  1
  Yb  Yb0  1  0.50000000  0.50000000  0.82524898  1
  Yb  Yb1  1  0.50000000  0.50000000  0.17475102  1
  Te  Te0  1  0.50000000  0.50000000  0.50000000  1
  O  O0  1  0.50000000  0.00000000  0.80349020  1
  O  O1  1  0.00000000  0.50000000  0.80349020  1
  O  O2  1  0.50000000  0.00000000  0.19650980  1
  O  O3  1  0.00000000  0.50000000  0.19650980  1
  O  O4  1  0.50000000  0.50000000  0.00000000  1
loop_
_geom_bond_atom_site_label_1
_geom_bond_atom_site_label_2
_geom_bond_distance
_geom_bond_site_symmetry_2
Ba0 O4 3.085470 1_455
Ba0 O4 3.085470 1_555
Ba0 O4 3.085470 1_545
Ba0 O4 3.085470 1_445
Ba0 O3 3.188840 1_545
Ba0 O2 3.188840 1_455
Ba0 O2 3.188840 1_555
Ba0 O3 3.188840 1_555
Ba0 O0 3.188840 1_454
Ba0 O0 3.188840 1_554
Ba0 O1 3.188840 1_554
Ba0 O1 3.188840 1_544
Ba1 O1 2.736779 1_545
Ba1 O0 2.736779 1_455
Ba1 O1 2.736779 1_555
Ba1 O0 2.736779 1_555
Ba1 Te0 3.644417 1_545
Ba1 Te0 3.644417 1_555
Ba1 Te0 3.644417 1_445
Ba1 Te0 3.644417 1_455
Ba2 O3 2.736779 1_555
Ba2 O3 2.736779 1_545
Ba2 O2 2.736779 1_555
Ba2 O2 2.736779 1_455
Ba2 Te0 3.644417 1_455
Ba2 Te0 3.644417 1_555
Ba2 Te0 3.644417 1_545
Ba2 Te0 3.644417 1_445
Te0 Yb0 3.849247 1_555
Te0 Yb1 3.849247 1_555
O0 Yb0 2.196901 1_555
O0 Yb0 2.196901 1_545
O1 Yb0 2.196901 1_555
O1 Yb0 2.196901 1_455
O2 Yb1 2.196901 1_555
O2 Yb1 2.196901 1_545
O3 Yb1 2.196901 1_455
O3 Yb1 2.196901 1_555
O4 Yb1 2.068138 1_555
O4 Yb0 2.068138 1_554
