# generated using pymatgen
data_MgH16C4S4N2(O4F3)4
_symmetry_space_group_name_H-M   'P 1'
_cell_length_a   7.11100075
_cell_length_b   14.30692766
_cell_length_c   17.25468998
_cell_angle_alpha   90.00000000
_cell_angle_beta   96.26667179
_cell_angle_gamma   90.00000000
_symmetry_Int_Tables_number   1
_chemical_formula_structural   MgH16C4S4N2(O4F3)4
_chemical_formula_sum   'Mg2 H32 C8 S8 N4 O32 F24'
_cell_volume   1744.94364950
_cell_formula_units_Z   2
loop_
 _symmetry_equiv_pos_site_id
 _symmetry_equiv_pos_as_xyz
  1  'x, y, z'
loop_
 _atom_site_type_symbol
 _atom_site_label
 _atom_site_symmetry_multiplicity
 _atom_site_fract_x
 _atom_site_fract_y
 _atom_site_fract_z
 _atom_site_occupancy
  Mg  Mg0  1  0.00000000  0.00000000  0.00000000  1
  Mg  Mg1  1  0.50000000  0.50000000  0.50000000  1
  H  H0  1  0.64451424  0.03689896  0.75332869  1
  H  H1  1  0.91288376  0.21552640  0.32900252  1
  H  H2  1  0.05837692  0.18942058  0.63085899  1
  H  H3  1  0.14451424  0.46310104  0.25332869  1
  H  H4  1  0.65254516  0.62976643  0.70845240  1
  H  H5  1  0.94162308  0.81057942  0.36914101  1
  H  H6  1  0.62946898  0.16776821  0.78801282  1
  H  H7  1  0.08711624  0.78447360  0.67099748  1
  H  H8  1  0.34745484  0.37023357  0.29154760  1
  H  H9  1  0.81323075  0.30813263  0.30283167  1
  H  H10  1  0.68676925  0.80813263  0.19716833  1
  H  H11  1  0.61350647  0.87714089  0.79894979  1
  H  H12  1  0.85548576  0.53689896  0.74667131  1
  H  H13  1  0.37053102  0.83223179  0.21198718  1
  H  H14  1  0.58711624  0.71552640  0.17099748  1
  H  H15  1  0.84745484  0.12976643  0.79154760  1
  H  H16  1  0.37036940  0.75548841  0.41495691  1
  H  H17  1  0.88649353  0.37714089  0.70105021  1
  H  H18  1  0.62963060  0.24451159  0.58504309  1
  H  H19  1  0.41288376  0.28447360  0.82900252  1
  H  H20  1  0.35548576  0.96310104  0.24667131  1
  H  H21  1  0.44162308  0.68942058  0.86914101  1
  H  H22  1  0.12963060  0.25548841  0.08504309  1
  H  H23  1  0.18676925  0.69186737  0.69716833  1
  H  H24  1  0.55837692  0.31057942  0.13085899  1
  H  H25  1  0.38649353  0.12285911  0.20105021  1
  H  H26  1  0.87053102  0.66776821  0.71198718  1
  H  H27  1  0.15254516  0.87023357  0.20845240  1
  H  H28  1  0.11350647  0.62285911  0.29894979  1
  H  H29  1  0.87036940  0.74451159  0.91495691  1
  H  H30  1  0.31323075  0.19186737  0.80283167  1
  H  H31  1  0.12946898  0.33223179  0.28801282  1
  C  C0  1  0.91589768  0.86085133  0.41508800  1
  C  C1  1  0.95394135  0.65562309  0.10641037  1
  C  C2  1  0.45394135  0.84437691  0.60641037  1
  C  C3  1  0.04605865  0.34437691  0.89358963  1
  C  C4  1  0.58410232  0.36085133  0.08491200  1
  C  C5  1  0.08410232  0.13914867  0.58491200  1
  C  C6  1  0.54605865  0.15562309  0.39358963  1
  C  C7  1  0.41589768  0.63914867  0.91508800  1
  S  S0  1  0.38718585  0.64668817  0.57656854  1
  S  S1  1  0.36588799  0.67969257  0.36553081  1
  S  S2  1  0.61281415  0.35331183  0.42343146  1
  S  S3  1  0.88718585  0.85331183  0.07656854  1
  S  S4  1  0.13411201  0.17969257  0.13446919  1
  S  S5  1  0.63411201  0.32030743  0.63446919  1
  S  S6  1  0.11281415  0.14668817  0.92343146  1
  S  S7  1  0.86588799  0.82030743  0.86553081  1
  N  N0  1  0.65488574  0.81784394  0.83255739  1
  N  N1  1  0.34511426  0.18215606  0.16744261  1
  N  N2  1  0.15488574  0.68215606  0.33255739  1
  N  N3  1  0.84511426  0.31784394  0.66744261  1
  O  O0  1  0.42897612  0.22822368  0.79861830  1
  O  O1  1  0.18987301  0.95038704  0.74173397  1
  O  O2  1  0.78214651  0.62343341  0.73413850  1
  O  O3  1  0.57102388  0.77177632  0.20138170  1
  O  O4  1  0.55137510  0.39896051  0.58124277  1
  O  O5  1  0.79367398  0.54841968  0.52164399  1
  O  O6  1  0.70632602  0.04841968  0.97835601  1
  O  O7  1  0.09869867  0.13279164  0.83485961  1
  O  O8  1  0.87246114  0.60547889  0.48001789  1
  O  O9  1  0.94862490  0.89896051  0.91875723  1
  O  O10  1  0.44862490  0.60103949  0.41875723  1
  O  O11  1  0.05137510  0.10103949  0.08124277  1
  O  O12  1  0.07102388  0.72822368  0.70138170  1
  O  O13  1  0.20632602  0.45158032  0.47835601  1
  O  O14  1  0.71785349  0.12343341  0.76586150  1
  O  O15  1  0.81012699  0.04961296  0.25826603  1
  O  O16  1  0.01532162  0.95076728  0.73486086  1
  O  O17  1  0.12753886  0.39452111  0.51998211  1
  O  O18  1  0.51532162  0.54923272  0.23486086  1
  O  O19  1  0.92897612  0.27177632  0.29861830  1
  O  O20  1  0.48467838  0.45076728  0.76513914  1
  O  O21  1  0.59869867  0.36720836  0.33485961  1
  O  O22  1  0.37246114  0.89452111  0.98001789  1
  O  O23  1  0.68987301  0.54961296  0.24173397  1
  O  O24  1  0.98467838  0.04923272  0.26513914  1
  O  O25  1  0.28214651  0.87656659  0.23413850  1
  O  O26  1  0.29367398  0.95158032  0.02164399  1
  O  O27  1  0.40130133  0.63279164  0.66514039  1
  O  O28  1  0.90130133  0.86720836  0.16514039  1
  O  O29  1  0.31012699  0.45038704  0.75826603  1
  O  O30  1  0.21785349  0.37656659  0.26586150  1
  O  O31  1  0.62753886  0.10547889  0.01998211  1
  F  F0  1  0.52640961  0.56227022  0.91181490  1
  F  F1  1  0.58085239  0.97226176  0.74072027  1
  F  F2  1  0.23171019  0.61134331  0.90809335  1
  F  F3  1  0.04359994  0.17866709  0.51298073  1
  F  F4  1  0.14153842  0.66348735  0.11886273  1
  F  F5  1  0.26828981  0.11134331  0.59190665  1
  F  F6  1  0.85846158  0.33651265  0.88113727  1
  F  F7  1  0.91914761  0.47226176  0.75927973  1
  F  F8  1  0.45640006  0.67866709  0.98701927  1
  F  F9  1  0.47359039  0.43772978  0.08818510  1
  F  F10  1  0.41914761  0.02773824  0.25927973  1
  F  F11  1  0.97359039  0.06227022  0.58818510  1
  F  F12  1  0.42381984  0.90151263  0.54550313  1
  F  F13  1  0.57618016  0.09848737  0.45449687  1
  F  F14  1  0.76828981  0.38865669  0.09190665  1
  F  F15  1  0.35846158  0.16348735  0.38113727  1
  F  F16  1  0.64153842  0.83651265  0.61886273  1
  F  F17  1  0.08085239  0.52773824  0.24072027  1
  F  F18  1  0.02640961  0.93772978  0.41181490  1
  F  F19  1  0.54359994  0.32133291  0.01298073  1
  F  F20  1  0.07618016  0.40151263  0.95449687  1
  F  F21  1  0.95640006  0.82133291  0.48701927  1
  F  F22  1  0.92381984  0.59848737  0.04550313  1
  F  F23  1  0.73171019  0.88865669  0.40809335  1
loop_
_geom_bond_atom_site_label_1
_geom_bond_atom_site_label_2
_geom_bond_distance
_geom_bond_site_symmetry_2
Mg0 O11 2.019013 1_555
Mg0 O9 2.019013 1_444
Mg0 O26 2.193207 1_545
Mg0 O6 2.193207 1_454
Mg0 S3 2.650431 1_445
Mg0 S6 2.650431 1_554
Mg1 O10 2.019013 1_555
Mg1 O4 2.019013 1_555
Mg1 O5 2.193207 1_555
Mg1 O13 2.193207 1_555
Mg1 S0 2.650431 1_555
Mg1 S2 2.650431 1_555
H0 O14 1.351618 1_555
H1 O19 0.974010 1_555
H3 O30 1.351618 1_555
H4 O2 0.982246 1_555
H6 O14 0.997936 1_555
H7 O12 0.974010 1_555
H8 O30 0.982246 1_555
H9 O19 0.983025 1_555
H10 O3 0.983025 1_555
H11 N0 1.051338 1_555
H12 O2 1.351618 1_555
H13 O25 0.997936 1_555
H14 O3 0.974010 1_555
H15 O14 0.982246 1_555
H16 S1 1.377803 1_555
H17 N3 1.051338 1_555
H18 S5 1.377803 1_555
H19 O0 0.974010 1_555
H20 O25 1.351618 1_555
H22 S4 1.377803 1_555
H23 O12 0.983025 1_555
H25 N1 1.051338 1_555
H26 O2 0.997936 1_555
H27 O25 0.982246 1_555
H28 N2 1.051338 1_555
H29 S7 1.377803 1_555
H30 O0 0.983025 1_555
H31 O30 0.997936 1_555
C0 H5 1.100437 1_555
C0 F18 1.356542 1_655
C0 F23 1.361533 1_555
C0 F21 1.365662 1_555
C1 F22 1.330190 1_555
C1 F4 1.332597 1_655
C2 F12 1.330190 1_555
C2 F16 1.332597 1_555
C3 F20 1.330190 1_555
C3 F6 1.332597 1_455
C4 H24 1.100437 1_555
C4 F9 1.356542 1_555
C4 F14 1.361533 1_555
C4 F19 1.365662 1_555
C5 H2 1.100437 1_555
C5 F11 1.356542 1_455
C5 F5 1.361533 1_555
C5 F3 1.365662 1_555
C6 F13 1.330190 1_555
C6 F15 1.332597 1_555
C7 H21 1.100437 1_555
C7 F0 1.356542 1_555
C7 F2 1.361533 1_555
C7 F8 1.365662 1_555
N0 S7 1.545926 1_555
N1 S4 1.545926 1_555
N2 S1 1.545926 1_555
N3 S5 1.545926 1_555
O1 O16 1.233946 1_555
O4 S5 1.529025 1_555
O5 O8 1.258581 1_555
O7 S6 1.533543 1_555
O9 S7 1.529025 1_555
O10 S1 1.529025 1_555
O11 S4 1.529025 1_555
O13 O17 1.258581 1_555
O15 O24 1.233946 1_555
O18 O23 1.233946 1_555
O20 O29 1.233946 1_555
O21 S2 1.533543 1_555
O22 O26 1.258581 1_556
O27 S0 1.533543 1_555
O28 S3 1.533543 1_555
O31 O6 1.258581 1_554
F1 H0 1.042088 1_565
F7 H12 1.042088 1_555
F10 H20 1.042088 1_545
F17 H3 1.042088 1_555
