# generated using pymatgen
data_Li2VOF4
_symmetry_space_group_name_H-M   'P 1'
_cell_length_a   3.69375419
_cell_length_b   10.22384766
_cell_length_c   5.32803450
_cell_angle_alpha   90.14351280
_cell_angle_beta   110.28502402
_cell_angle_gamma   89.64704016
_symmetry_Int_Tables_number   1
_chemical_formula_structural   Li2VOF4
_chemical_formula_sum   'Li4 V2 O2 F8'
_cell_volume   188.72720134
_cell_formula_units_Z   2
loop_
 _symmetry_equiv_pos_site_id
 _symmetry_equiv_pos_as_xyz
  1  'x, y, z'
loop_
 _atom_site_type_symbol
 _atom_site_label
 _atom_site_symmetry_multiplicity
 _atom_site_fract_x
 _atom_site_fract_y
 _atom_site_fract_z
 _atom_site_occupancy
  Li  Li0  1  0.85842300  0.91949100  0.72895200  1
  Li  Li1  1  0.12860000  0.41981100  0.27098900  1
  Li  Li2  1  0.81633200  0.24835700  0.63496000  1
  Li  Li3  1  0.17833400  0.74841300  0.36530600  1
  V  V0  1  0.17740900  0.05917700  0.27669700  1
  V  V1  1  0.89779700  0.55931200  0.72367700  1
  O  O0  1  0.33826500  0.56827900  0.68301900  1
  O  O1  1  0.65788600  0.06840100  0.31731500  1
  F  F0  1  0.94974900  0.12387300  0.92170400  1
  F  F1  1  0.02363100  0.62410000  0.07857800  1
  F  F2  1  0.94351600  0.39075600  0.89169400  1
  F  F3  1  0.05633300  0.89084400  0.10789500  1
  F  F4  1  0.29745800  0.95198800  0.60922000  1
  F  F5  1  0.68770600  0.45214100  0.38966100  1
  F  F6  1  0.76548100  0.73747300  0.54494200  1
  F  F7  1  0.22307800  0.23758200  0.45539200  1
loop_
_geom_bond_atom_site_label_1
_geom_bond_atom_site_label_2
_geom_bond_distance
_geom_bond_site_symmetry_2
Li0 O1 2.559894 1_565
Li1 O0 2.557764 1_555
Li2 O1 2.429551 1_555
Li3 O0 2.432088 1_555
O0 V1 1.717183 1_455
O0 V1 2.003549 1_555
O1 V0 1.714981 1_555
O1 V0 2.005961 1_655
F0 V0 1.902281 1_656
F0 Li2 1.917478 1_555
F0 Li0 2.300549 1_545
F1 V1 1.902233 1_454
F1 Li3 1.915631 1_555
F1 Li1 2.299735 1_555
F2 Li1 1.918638 1_656
F2 V1 1.923266 1_555
F2 Li2 1.940163 1_555
F3 Li0 1.916651 1_454
F3 V0 1.921877 1_565
F3 Li3 1.943694 1_555
F4 Li0 1.967802 1_455
F4 Li0 1.971509 1_555
F4 V0 1.998873 1_565
F4 Li3 2.411566 1_555
F5 Li1 1.966606 1_655
F5 Li1 1.968766 1_555
F5 V1 2.003256 1_555
F5 Li2 2.417759 1_555
F6 V1 2.034351 1_555
F6 Li3 2.047051 1_555
F6 Li3 2.066106 1_655
F6 Li0 2.075442 1_555
F7 V0 2.036072 1_555
F7 Li2 2.044231 1_455
F7 Li2 2.068377 1_555
F7 Li1 2.078844 1_555
