# generated using pymatgen
data_NaEr(PO3)4
_symmetry_space_group_name_H-M   'P 1'
_cell_length_a   13.20063300
_cell_length_b   7.25063700
_cell_length_c   12.11043404
_cell_angle_alpha   53.74139022
_cell_angle_beta   90.00000000
_cell_angle_gamma   90.00000000
_symmetry_Int_Tables_number   1
_chemical_formula_structural   NaEr(PO3)4
_chemical_formula_sum   'Na4 Er4 P16 O48'
_cell_volume   934.66786272
_cell_formula_units_Z   4
loop_
 _symmetry_equiv_pos_site_id
 _symmetry_equiv_pos_as_xyz
  1  'x, y, z'
loop_
 _atom_site_type_symbol
 _atom_site_label
 _atom_site_symmetry_multiplicity
 _atom_site_fract_x
 _atom_site_fract_y
 _atom_site_fract_z
 _atom_site_occupancy
  Na  Na0  1  0.22354200  0.56090700  0.93949900  1
  Na  Na1  1  0.27645800  0.56090700  0.43949900  1
  Na  Na2  1  0.77645800  0.43909300  0.06050100  1
  Na  Na3  1  0.72354200  0.43909300  0.56050100  1
  Er  Er0  1  0.72213300  0.03322100  0.47831500  1
  Er  Er1  1  0.22213300  0.96677900  0.02168500  1
  Er  Er2  1  0.27786700  0.96677900  0.52168500  1
  Er  Er3  1  0.77786700  0.03322100  0.97831500  1
  P  P0  1  0.11501400  0.39109900  0.23554200  1
  P  P1  1  0.39601500  0.49529300  0.25524300  1
  P  P2  1  0.10398500  0.49529300  0.75524300  1
  P  P3  1  0.60398500  0.50470700  0.74475700  1
  P  P4  1  0.61501400  0.60890100  0.26445800  1
  P  P5  1  0.89601500  0.50470700  0.24475700  1
  P  P6  1  0.38498600  0.39109900  0.73554200  1
  P  P7  1  0.88498600  0.60890100  0.76445800  1
  P  P8  1  0.62717900  0.84547700  0.80118600  1
  P  P9  1  0.09331700  0.94033900  0.29293200  1
  P  P10  1  0.40668300  0.94033900  0.79293200  1
  P  P11  1  0.90668300  0.05966100  0.70706800  1
  P  P12  1  0.12717900  0.15452300  0.69881400  1
  P  P13  1  0.37282100  0.15452300  0.19881400  1
  P  P14  1  0.87282100  0.84547700  0.30118600  1
  P  P15  1  0.59331700  0.05966100  0.20706800  1
  O  O0  1  0.65065500  0.39549100  0.39677800  1
  O  O1  1  0.15065500  0.60450900  0.10322200  1
  O  O2  1  0.34934500  0.60450900  0.60322200  1
  O  O3  1  0.84934500  0.39549100  0.89677800  1
  O  O4  1  0.66371000  0.14882400  0.08817500  1
  O  O5  1  0.16371000  0.85117600  0.41182500  1
  O  O6  1  0.33629000  0.85117600  0.91182500  1
  O  O7  1  0.83629000  0.14882400  0.58817500  1
  O  O8  1  0.83362900  0.29171000  0.30145900  1
  O  O9  1  0.33362900  0.70829000  0.19854100  1
  O  O10  1  0.16637100  0.70829000  0.69854100  1
  O  O11  1  0.66637100  0.29171000  0.80145900  1
  O  O12  1  0.88502300  0.69107300  0.09388400  1
  O  O13  1  0.38502300  0.30892700  0.40611600  1
  O  O14  1  0.11497700  0.30892700  0.90611600  1
  O  O15  1  0.61497700  0.69107300  0.59388400  1
  O  O16  1  0.61473100  0.12169500  0.30313800  1
  O  O17  1  0.79264700  0.83297200  0.39324700  1
  O  O18  1  0.11473100  0.87830500  0.19686200  1
  O  O19  1  0.88526900  0.12169500  0.80313800  1
  O  O20  1  0.86579900  0.02089800  0.14917200  1
  O  O21  1  0.36579900  0.97910200  0.35082800  1
  O  O22  1  0.13420100  0.97910200  0.85082800  1
  O  O23  1  0.63420100  0.02089800  0.64917200  1
  O  O24  1  0.51893900  0.85746000  0.85797000  1
  O  O25  1  0.01893900  0.14254000  0.64203000  1
  O  O26  1  0.48106100  0.14254000  0.14203000  1
  O  O27  1  0.98106100  0.85746000  0.35797000  1
  O  O28  1  0.98799500  0.56945600  0.71207300  1
  O  O29  1  0.48799500  0.43054400  0.78792700  1
  O  O30  1  0.01200500  0.43054400  0.28792700  1
  O  O31  1  0.51200500  0.56945600  0.21207300  1
  O  O32  1  0.62603700  0.59240800  0.83715400  1
  O  O33  1  0.12603700  0.40759200  0.66284600  1
  O  O34  1  0.37396300  0.40759200  0.16284600  1
  O  O35  1  0.87396300  0.59240800  0.33715400  1
  O  O36  1  0.91816500  0.78425200  0.79886300  1
  O  O37  1  0.41816500  0.21574800  0.70113700  1
  O  O38  1  0.08183500  0.21574800  0.20113700  1
  O  O39  1  0.58183500  0.78425200  0.29886300  1
  O  O40  1  0.81410700  0.72372500  0.64505900  1
  O  O41  1  0.31410700  0.27627500  0.85494100  1
  O  O42  1  0.18589300  0.27627500  0.35494100  1
  O  O43  1  0.68589300  0.72372500  0.14505900  1
  O  O44  1  0.70735300  0.83297200  0.89324700  1
  O  O45  1  0.20735300  0.16702800  0.60675300  1
  O  O46  1  0.29264700  0.16702800  0.10675300  1
  O  O47  1  0.38526900  0.87830500  0.69686200  1
loop_
_geom_bond_atom_site_label_1
_geom_bond_atom_site_label_2
_geom_bond_distance
_geom_bond_site_symmetry_2
Na0 O1 2.387146 1_556
Na0 O6 2.433648 1_555
Na0 O46 2.499698 1_556
Na0 O14 2.535543 1_555
Na0 O10 2.557006 1_555
Na0 O22 2.808316 1_555
Na1 O2 2.387146 1_555
Na1 O5 2.433648 1_555
Na1 O45 2.499698 1_555
Na1 O13 2.535543 1_555
Na1 O9 2.557006 1_555
Na1 O21 2.808316 1_555
Na2 O3 2.387146 1_554
Na2 O4 2.433648 1_555
Na2 O44 2.499698 1_554
Na2 O12 2.535543 1_555
Na2 O8 2.557006 1_555
Na2 O20 2.808316 1_555
Na3 O0 2.387146 1_555
Na3 O7 2.433648 1_555
Na3 O17 2.499698 1_555
Na3 O15 2.535543 1_555
Na3 O11 2.557006 1_555
Na3 O23 2.808316 1_555
Er0 O40 2.286355 1_545
Er0 O16 2.304878 1_555
Er0 O23 2.327670 1_555
Er0 O8 2.349043 1_555
Er0 O0 2.386803 1_555
Er0 O17 2.409399 1_545
Er0 O15 2.450930 1_545
Er0 O7 2.462247 1_555
Er1 O41 2.286355 1_564
Er1 O18 2.304878 1_555
Er1 O22 2.327670 1_554
Er1 O9 2.349043 1_555
Er1 O1 2.386803 1_555
Er1 O46 2.409399 1_565
Er1 O14 2.450930 1_564
Er1 O6 2.462247 1_554
Er2 O42 2.286355 1_565
Er2 O47 2.304878 1_555
Er2 O21 2.327670 1_555
Er2 O10 2.349043 1_555
Er2 O2 2.386803 1_555
Er2 O45 2.409399 1_565
Er2 O13 2.450930 1_565
Er2 O5 2.462247 1_555
Er3 O43 2.286355 1_546
Er3 O19 2.304878 1_555
Er3 O20 2.327670 1_556
Er3 O11 2.349043 1_555
Er3 O3 2.386803 1_555
Er3 O44 2.409399 1_545
Er3 O12 2.450930 1_546
Er3 O4 2.462247 1_556
O0 P4 1.500180 1_555
O1 P0 1.500180 1_555
O2 P6 1.500180 1_555
O3 P7 1.500180 1_555
O4 P15 1.501172 1_555
O5 P9 1.501172 1_555
O6 P10 1.501172 1_555
O7 P11 1.501172 1_555
O8 P5 1.510096 1_555
O9 P1 1.510096 1_555
O10 P2 1.510096 1_555
O11 P3 1.510096 1_555
O12 P5 1.504986 1_555
O13 P1 1.504986 1_555
O14 P2 1.504986 1_555
O15 P3 1.504986 1_555
O16 P15 1.501607 1_555
O17 P14 1.500582 1_555
O18 P9 1.501607 1_555
O19 P11 1.501607 1_555
O20 P14 1.498586 1_545
O21 P13 1.498586 1_565
O22 P12 1.498586 1_565
O23 P8 1.498586 1_545
O24 P8 1.610186 1_555
O24 P10 1.617870 1_555
O25 P12 1.610186 1_555
O25 P11 1.617870 1_455
O26 P13 1.610186 1_555
O26 P15 1.617870 1_555
O27 P14 1.610186 1_555
O27 P9 1.617870 1_655
O28 P7 1.596214 1_555
O28 P2 1.604474 1_655
O29 P6 1.596214 1_555
O29 P3 1.604474 1_555
O30 P0 1.596214 1_555
O30 P5 1.604474 1_455
O31 P4 1.596214 1_555
O31 P1 1.604474 1_555
O32 P3 1.607120 1_555
O32 P8 1.615996 1_555
O33 P2 1.607120 1_555
O33 P12 1.615996 1_555
O34 P1 1.607120 1_555
O34 P13 1.615996 1_555
O35 P5 1.607120 1_555
O35 P14 1.615996 1_555
O36 P7 1.615092 1_555
O36 P11 1.618808 1_565
O37 P6 1.615092 1_555
O37 P10 1.618808 1_545
O38 P0 1.615092 1_555
O38 P9 1.618808 1_545
O39 P4 1.615092 1_555
O39 P15 1.618808 1_565
O40 P7 1.495137 1_555
O41 P6 1.495137 1_555
O42 P0 1.495137 1_555
O43 P4 1.495137 1_555
O44 P8 1.500582 1_555
O45 P12 1.500582 1_555
O46 P13 1.500582 1_555
O47 P10 1.501607 1_555
