# generated using pymatgen
data_InPO6
_symmetry_space_group_name_H-M   'P 1'
_cell_length_a   10.15466700
_cell_length_b   9.80818100
_cell_length_c   12.69271525
_cell_angle_alpha   53.18874101
_cell_angle_beta   90.00000000
_cell_angle_gamma   90.00000000
_symmetry_Int_Tables_number   1
_chemical_formula_structural   InPO6
_chemical_formula_sum   'In8 P8 O48'
_cell_volume   1012.11924249
_cell_formula_units_Z   8
loop_
 _symmetry_equiv_pos_site_id
 _symmetry_equiv_pos_as_xyz
  1  'x, y, z'
loop_
 _atom_site_type_symbol
 _atom_site_label
 _atom_site_symmetry_multiplicity
 _atom_site_fract_x
 _atom_site_fract_y
 _atom_site_fract_z
 _atom_site_occupancy
  In  In0  1  0.57098800  0.05300900  0.09484500  1
  In  In1  1  0.42901200  0.94699100  0.90515500  1
  In  In2  1  0.07098800  0.94699100  0.40515500  1
  In  In3  1  0.92901200  0.05300900  0.59484500  1
  In  In4  1  0.25334800  0.31068800  0.89924800  1
  In  In5  1  0.74665200  0.68931200  0.10075200  1
  In  In6  1  0.75334800  0.68931200  0.60075200  1
  In  In7  1  0.24665200  0.31068800  0.39924800  1
  P  P0  1  0.53736400  0.37231100  0.77565500  1
  P  P1  1  0.46263600  0.62768900  0.22434500  1
  P  P2  1  0.03736400  0.62768900  0.72434500  1
  P  P3  1  0.96263600  0.37231100  0.27565500  1
  P  P4  1  0.33316300  0.16547000  0.21285200  1
  P  P5  1  0.66683700  0.83453000  0.78714800  1
  P  P6  1  0.83316300  0.83453000  0.28714800  1
  P  P7  1  0.16683700  0.16547000  0.71285200  1
  O  O0  1  0.24933200  0.51504500  0.60534700  1
  O  O1  1  0.75066800  0.48495500  0.39465300  1
  O  O2  1  0.74933200  0.48495500  0.89465300  1
  O  O3  1  0.25066800  0.51504500  0.10534700  1
  O  O4  1  0.61336300  0.30091100  0.90699600  1
  O  O5  1  0.38663700  0.69908900  0.09300400  1
  O  O6  1  0.11336300  0.69908900  0.59300400  1
  O  O7  1  0.88663700  0.30091100  0.40699600  1
  O  O8  1  0.15638000  0.27944500  0.76307100  1
  O  O9  1  0.84362000  0.72055500  0.23692900  1
  O  O10  1  0.65638000  0.72055500  0.73692900  1
  O  O11  1  0.34362000  0.27944500  0.26307100  1
  O  O12  1  0.40973300  0.46560500  0.76980000  1
  O  O13  1  0.59026700  0.53439500  0.23020000  1
  O  O14  1  0.90973300  0.53439500  0.73020000  1
  O  O15  1  0.09026700  0.46560500  0.26980000  1
  O  O16  1  0.38441700  0.09295900  0.97943100  1
  O  O17  1  0.61558300  0.90704100  0.02056900  1
  O  O18  1  0.88441700  0.90704100  0.52056900  1
  O  O19  1  0.11558300  0.09295900  0.47943100  1
  O  O20  1  0.47592000  0.12520600  0.19971900  1
  O  O21  1  0.52408000  0.87479400  0.80028100  1
  O  O22  1  0.97592000  0.87479400  0.30028100  1
  O  O23  1  0.02408000  0.12520600  0.69971900  1
  O  O24  1  0.12230100  0.50796900  0.84498300  1
  O  O25  1  0.87769900  0.49203100  0.15501700  1
  O  O26  1  0.62230100  0.49203100  0.65501700  1
  O  O27  1  0.37769900  0.50796900  0.34498300  1
  O  O28  1  0.59892700  0.07856100  0.43298700  1
  O  O29  1  0.40107300  0.92143900  0.56701300  1
  O  O30  1  0.09892700  0.92143900  0.06701300  1
  O  O31  1  0.90107300  0.07856100  0.93298700  1
  O  O32  1  0.25753100  0.00043700  0.31459500  1
  O  O33  1  0.74246900  0.99956300  0.68540500  1
  O  O34  1  0.75753100  0.99956300  0.18540500  1
  O  O35  1  0.24246900  0.00043700  0.81459500  1
  O  O36  1  0.07300400  0.06319200  0.03710600  1
  O  O37  1  0.92699600  0.93680800  0.96289400  1
  O  O38  1  0.57300400  0.93680800  0.46289400  1
  O  O39  1  0.42699600  0.06319200  0.53710600  1
  O  O40  1  0.26121800  0.27619100  0.07892600  1
  O  O41  1  0.73878200  0.72380900  0.92107400  1
  O  O42  1  0.76121800  0.72380900  0.42107400  1
  O  O43  1  0.23878200  0.27619100  0.57892600  1
  O  O44  1  0.50084000  0.78147900  0.22530400  1
  O  O45  1  0.49916000  0.21852100  0.77469600  1
  O  O46  1  0.00084000  0.21852100  0.27469600  1
  O  O47  1  0.99916000  0.78147900  0.72530400  1
loop_
_geom_bond_atom_site_label_1
_geom_bond_atom_site_label_2
_geom_bond_distance
_geom_bond_site_symmetry_2
In0 O20 2.082044 1_555
In0 O34 2.112407 1_545
In0 O17 2.181985 1_545
In0 O4 2.198815 1_554
In0 O44 2.248852 1_545
In0 O16 2.280577 1_554
In1 O21 2.082044 1_555
In1 O35 2.112407 1_565
In1 O16 2.181985 1_565
In1 O5 2.198815 1_556
In1 O45 2.248852 1_565
In1 O17 2.280577 1_556
In2 O22 2.082044 1_455
In2 O32 2.112407 1_565
In2 O19 2.181985 1_565
In2 O6 2.198815 1_555
In2 O46 2.248852 1_565
In2 O18 2.280577 1_455
In3 O23 2.082044 1_655
In3 O33 2.112407 1_545
In3 O18 2.181985 1_545
In3 O7 2.198815 1_555
In3 O47 2.248852 1_545
In3 O19 2.280577 1_655
In4 O24 2.095771 1_555
In4 O40 2.096974 1_556
In4 O12 2.130365 1_555
In4 O8 2.164667 1_555
In4 O16 2.182474 1_555
In4 O36 2.686649 1_556
In5 O25 2.095771 1_555
In5 O41 2.096974 1_554
In5 O13 2.130365 1_555
In5 O9 2.164667 1_555
In5 O17 2.182474 1_555
In5 O37 2.686649 1_554
In6 O26 2.095771 1_555
In6 O42 2.096974 1_555
In6 O14 2.130365 1_555
In6 O10 2.164667 1_555
In6 O18 2.182474 1_555
In6 O38 2.686649 1_555
In7 O27 2.095771 1_555
In7 O43 2.096974 1_555
In7 O15 2.130365 1_555
In7 O11 2.164667 1_555
In7 O19 2.182474 1_555
In7 O39 2.686649 1_555
O4 P0 1.570386 1_555
O5 P1 1.570386 1_555
O6 P2 1.570386 1_555
O7 P3 1.570386 1_555
O8 P7 1.587813 1_555
O9 P6 1.587813 1_555
O10 P5 1.587813 1_555
O11 P4 1.587813 1_555
O12 P0 1.562397 1_555
O13 P1 1.562397 1_555
O14 P2 1.562397 1_655
O15 P3 1.562397 1_455
O20 P4 1.537569 1_555
O21 P5 1.537569 1_555
O22 P6 1.537569 1_555
O23 P7 1.537569 1_555
O24 P2 1.520762 1_555
O25 P3 1.520762 1_555
O26 P0 1.520762 1_555
O27 P1 1.520762 1_555
O28 O38 1.230435 1_545
O29 O39 1.230435 1_565
O30 O36 1.230435 1_565
O31 O37 1.230435 1_545
O32 P4 1.540346 1_555
O33 P5 1.540346 1_555
O34 P6 1.540346 1_555
O35 P7 1.540346 1_555
O40 P4 1.546117 1_555
O41 P5 1.546117 1_555
O42 P6 1.546117 1_555
O43 P7 1.546117 1_555
O44 P1 1.564585 1_555
O45 P0 1.564585 1_555
O46 P3 1.564585 1_455
O47 P2 1.564585 1_655
