# generated using pymatgen
data_CaMn3Cu3RuO12
_symmetry_space_group_name_H-M   'P 1'
_cell_length_a   6.40376388
_cell_length_b   6.47964110
_cell_length_c   6.47856752
_cell_angle_alpha   70.38629723
_cell_angle_beta   109.29433555
_cell_angle_gamma   70.73450973
_symmetry_Int_Tables_number   1
_chemical_formula_structural   CaMn3Cu3RuO12
_chemical_formula_sum   'Ca1 Mn3 Cu3 Ru1 O12'
_cell_volume   207.54872283
_cell_formula_units_Z   1
loop_
 _symmetry_equiv_pos_site_id
 _symmetry_equiv_pos_as_xyz
  1  'x, y, z'
loop_
 _atom_site_type_symbol
 _atom_site_label
 _atom_site_symmetry_multiplicity
 _atom_site_fract_x
 _atom_site_fract_y
 _atom_site_fract_z
 _atom_site_occupancy
  Ca  Ca0  1  0.00000000  0.00000400  0.99999600  1
  Mn  Mn0  1  0.49999300  0.49997600  0.50001000  1
  Mn  Mn1  1  0.00000500  0.99999500  0.49999900  1
  Mn  Mn2  1  0.99999600  0.50000700  0.00000500  1
  Cu  Cu0  1  0.99999600  0.49999700  0.50000200  1
  Cu  Cu1  1  0.50000700  0.99999600  0.50000200  1
  Cu  Cu2  1  0.50000000  0.50000300  0.99999800  1
  Ru  Ru0  1  0.49999600  0.00000400  0.00000300  1
  O  O0  1  0.82740600  0.69835500  0.13967100  1
  O  O1  1  0.17258900  0.30165700  0.86032700  1
  O  O2  1  0.52623400  0.16129000  0.69899500  1
  O  O3  1  0.47376400  0.83870400  0.30100600  1
  O  O4  1  0.31159300  0.86044700  0.83793000  1
  O  O5  1  0.68840800  0.13955600  0.16206800  1
  O  O6  1  0.18070000  0.68038900  0.48573400  1
  O  O7  1  0.81930900  0.31960800  0.51426200  1
  O  O8  1  0.86099800  0.83449700  0.67995900  1
  O  O9  1  0.13900700  0.16550600  0.32003700  1
  O  O10  1  0.30481500  0.51460400  0.16584900  1
  O  O11  1  0.69518300  0.48540300  0.83414800  1
loop_
_geom_bond_atom_site_label_1
_geom_bond_atom_site_label_2
_geom_bond_distance
_geom_bond_site_symmetry_2
Ca0 O3 2.594050 1_546
Ca0 O2 2.594068 1_455
Ca0 O4 2.594773 1_545
Ca0 O5 2.594791 1_456
Ca0 O1 2.599960 1_555
Ca0 O0 2.599974 1_446
Ca0 O8 2.672906 1_445
Ca0 O9 2.672909 1_556
Ca0 O10 2.674118 1_546
Ca0 O11 2.674123 1_455
Ca0 O7 2.677241 1_455
Ca0 O6 2.677266 1_546
Mn0 O6 1.944475 1_555
Mn0 O7 1.944607 1_555
Mn0 O2 2.054359 1_555
Mn0 O3 2.054651 1_555
Mn0 O10 2.062481 1_555
Mn0 O11 2.062556 1_555
Mn1 O8 1.943723 1_455
Mn1 O9 1.943746 1_565
Mn1 O4 2.045876 1_555
Mn1 O5 2.045884 1_465
Mn1 O6 2.062543 1_555
Mn1 O7 2.062575 1_465
Mn2 O10 1.943630 1_655
Mn2 O11 1.943644 1_554
Mn2 O0 2.048488 1_555
Mn2 O1 2.048569 1_654
Mn2 O9 2.068607 1_655
Mn2 O8 2.068633 1_554
Cu0 O7 1.898475 1_555
Cu0 O6 1.898583 1_655
Cu0 O1 1.914716 1_655
Cu0 O0 1.914756 1_555
Cu1 O8 1.896550 1_555
Cu1 O9 1.896595 1_565
Cu1 O2 1.913064 1_565
Cu1 O3 1.913074 1_555
Cu2 O11 1.898267 1_555
Cu2 O10 1.898283 1_556
Cu2 O4 1.915703 1_555
Cu2 O5 1.915719 1_556
O0 Ru0 1.972240 1_565
O1 Ru0 1.972229 1_556
O2 Ru0 1.971672 1_556
O3 Ru0 1.971643 1_565
O4 Ru0 1.973845 1_566
O5 Ru0 1.973826 1_555
