# generated using pymatgen
data_Sm3InS6
_symmetry_space_group_name_H-M   'P 1'
_cell_length_a   3.95516400
_cell_length_b   13.72521400
_cell_length_c   16.76029400
_cell_angle_alpha   90.00000000
_cell_angle_beta   90.00000000
_cell_angle_gamma   90.00000000
_symmetry_Int_Tables_number   1
_chemical_formula_structural   Sm3InS6
_chemical_formula_sum   'Sm12 In4 S24'
_cell_volume   909.84047576
_cell_formula_units_Z   4
loop_
 _symmetry_equiv_pos_site_id
 _symmetry_equiv_pos_as_xyz
  1  'x, y, z'
loop_
 _atom_site_type_symbol
 _atom_site_label
 _atom_site_symmetry_multiplicity
 _atom_site_fract_x
 _atom_site_fract_y
 _atom_site_fract_z
 _atom_site_occupancy
  Sm  Sm0  1  0.25465900  0.03704100  0.77833600  1
  Sm  Sm1  1  0.25465900  0.96295900  0.22166400  1
  Sm  Sm2  1  0.74534100  0.46295900  0.27833600  1
  Sm  Sm3  1  0.74534100  0.53704100  0.72166400  1
  Sm  Sm4  1  0.26095300  0.24749700  0.60956200  1
  Sm  Sm5  1  0.26095300  0.75250300  0.39043800  1
  Sm  Sm6  1  0.73904700  0.25250300  0.10956200  1
  Sm  Sm7  1  0.73904700  0.74749700  0.89043800  1
  Sm  Sm8  1  0.74665700  0.30967500  0.85643500  1
  Sm  Sm9  1  0.74665700  0.69032500  0.14356500  1
  Sm  Sm10  1  0.25334300  0.19032500  0.35643500  1
  Sm  Sm11  1  0.25334300  0.80967500  0.64356500  1
  In  In0  1  0.75360300  0.00000000  0.50000000  1
  In  In1  1  0.24639700  0.50000000  0.00000000  1
  In  In2  1  0.40435100  0.50000000  0.50000000  1
  In  In3  1  0.59564900  0.00000000  0.00000000  1
  S  S0  1  0.76878200  0.39682600  0.59085400  1
  S  S1  1  0.76878200  0.60317400  0.40914600  1
  S  S2  1  0.23121800  0.10317400  0.09085400  1
  S  S3  1  0.23121800  0.89682600  0.90914600  1
  S  S4  1  0.24611800  0.31020700  0.98203000  1
  S  S5  1  0.24611800  0.68979300  0.01797000  1
  S  S6  1  0.75388200  0.18979300  0.48203000  1
  S  S7  1  0.75388200  0.81020700  0.51797000  1
  S  S8  1  0.75506700  0.10848400  0.88868600  1
  S  S9  1  0.75506700  0.89151600  0.11131400  1
  S  S10  1  0.24493300  0.39151600  0.38868600  1
  S  S11  1  0.24493300  0.60848400  0.61131400  1
  S  S12  1  0.75789800  0.17827600  0.71762200  1
  S  S13  1  0.75789800  0.82172400  0.28237800  1
  S  S14  1  0.24210200  0.32172400  0.21762200  1
  S  S15  1  0.24210200  0.67827600  0.78237800  1
  S  S16  1  0.24793600  0.38608300  0.75547500  1
  S  S17  1  0.24793600  0.61391700  0.24452500  1
  S  S18  1  0.75206400  0.11391700  0.25547500  1
  S  S19  1  0.75206400  0.88608300  0.74452500  1
  S  S20  1  0.25375000  0.02032100  0.60488800  1
  S  S21  1  0.25375000  0.97967900  0.39511200  1
  S  S22  1  0.74625000  0.47967900  0.10488800  1
  S  S23  1  0.74625000  0.52032100  0.89511200  1
loop_
_geom_bond_atom_site_label_1
_geom_bond_atom_site_label_2
_geom_bond_distance
_geom_bond_site_symmetry_2
In0 S6 2.622303 1_555
In0 S7 2.622303 1_545
In0 S21 2.660211 1_545
In0 S20 2.660211 1_555
In0 S21 2.661075 1_645
In0 S20 2.661075 1_655
In1 S5 2.622303 1_555
In1 S4 2.622303 1_554
In1 S23 2.660211 1_554
In1 S22 2.660211 1_555
In1 S22 2.661075 1_455
In1 S23 2.661075 1_454
In2 S10 2.468856 1_555
In2 S11 2.468856 1_555
In2 S1 2.530143 1_555
In2 S0 2.530143 1_555
In3 S8 2.468856 1_554
In3 S9 2.468856 1_545
In3 S3 2.530143 1_544
In3 S2 2.530143 1_555
S0 Sm4 2.844008 1_655
S0 Sm4 2.886750 1_555
S0 Sm3 2.918716 1_555
S1 Sm5 2.844008 1_655
S1 Sm5 2.886750 1_555
S1 Sm2 2.918716 1_555
S2 Sm6 2.844008 1_455
S2 Sm6 2.886750 1_555
S2 Sm1 2.918716 1_545
S3 Sm7 2.844008 1_455
S3 Sm7 2.886750 1_555
S3 Sm0 2.918716 1_565
S4 Sm8 2.886784 1_455
S4 Sm8 2.889703 1_555
S4 Sm6 2.999509 1_556
S4 Sm6 3.036163 1_456
S5 Sm9 2.886784 1_455
S5 Sm9 2.889703 1_555
S5 Sm7 2.999509 1_554
S5 Sm7 3.036163 1_454
S6 Sm10 2.886784 1_655
S6 Sm10 2.889703 1_555
S6 Sm4 2.999509 1_555
S6 Sm4 3.036163 1_655
S7 Sm11 2.886784 1_655
S7 Sm11 2.889703 1_555
S7 Sm5 2.999509 1_555
S7 Sm5 3.036163 1_655
S8 Sm8 2.813993 1_555
S8 Sm0 2.878648 1_655
S8 Sm0 2.880864 1_555
S9 Sm9 2.813993 1_555
S9 Sm1 2.878648 1_655
S9 Sm1 2.880864 1_555
S10 Sm10 2.813993 1_555
S10 Sm2 2.878648 1_455
S10 Sm2 2.880864 1_555
S11 Sm11 2.813993 1_555
S11 Sm3 2.878648 1_455
S11 Sm3 2.880864 1_555
S12 Sm4 2.836542 1_555
S12 Sm4 2.853340 1_655
S12 Sm0 2.941685 1_655
S12 Sm8 2.944034 1_555
S12 Sm0 2.958859 1_555
S13 Sm5 2.836542 1_555
S13 Sm5 2.853340 1_655
S13 Sm1 2.941685 1_655
S13 Sm9 2.944034 1_555
S13 Sm1 2.958859 1_555
S14 Sm6 2.836542 1_555
S14 Sm6 2.853340 1_455
S14 Sm2 2.941685 1_455
S14 Sm10 2.944034 1_555
S14 Sm2 2.958859 1_555
S15 Sm7 2.836542 1_555
S15 Sm7 2.853340 1_455
S15 Sm3 2.941685 1_455
S15 Sm11 2.944034 1_555
S15 Sm3 2.958859 1_555
S16 Sm8 2.802485 1_555
S16 Sm8 2.809615 1_455
S16 Sm3 2.912794 1_555
S16 Sm3 2.926697 1_455
S16 Sm4 3.098614 1_555
S17 Sm9 2.802485 1_555
S17 Sm9 2.809615 1_455
S17 Sm2 2.912794 1_555
S17 Sm2 2.926697 1_455
S17 Sm5 3.098614 1_555
S18 Sm10 2.802485 1_555
S18 Sm10 2.809615 1_655
S18 Sm1 2.912794 1_545
S18 Sm1 2.926697 1_645
S18 Sm6 3.098614 1_555
S19 Sm11 2.802485 1_555
S19 Sm11 2.809615 1_655
S19 Sm0 2.912794 1_565
S19 Sm0 2.926697 1_665
S19 Sm7 3.098614 1_555
S20 Sm0 2.916086 1_555
S20 Sm11 2.962943 1_545
S20 Sm4 3.119153 1_555
S21 Sm1 2.916086 1_555
S21 Sm10 2.962943 1_565
S21 Sm5 3.119153 1_555
S22 Sm2 2.916086 1_555
S22 Sm9 2.962943 1_555
S22 Sm6 3.119153 1_555
S23 Sm3 2.916086 1_555
S23 Sm8 2.962943 1_555
S23 Sm7 3.119153 1_555
