# generated using pymatgen
data_KMg6Ga
_symmetry_space_group_name_H-M   'P 1'
_cell_length_a   5.12734900
_cell_length_b   6.83724400
_cell_length_c   11.73267500
_cell_angle_alpha   90.00000000
_cell_angle_beta   90.00000000
_cell_angle_gamma   90.00000000
_symmetry_Int_Tables_number   1
_chemical_formula_structural   KMg6Ga
_chemical_formula_sum   'K2 Mg12 Ga2'
_cell_volume   411.31163877
_cell_formula_units_Z   2
loop_
 _symmetry_equiv_pos_site_id
 _symmetry_equiv_pos_as_xyz
  1  'x, y, z'
loop_
 _atom_site_type_symbol
 _atom_site_label
 _atom_site_symmetry_multiplicity
 _atom_site_fract_x
 _atom_site_fract_y
 _atom_site_fract_z
 _atom_site_occupancy
  K  K0  1  0.00000000  0.50000000  0.67062400  1
  K  K1  1  0.00000000  0.00000000  0.17062400  1
  Mg  Mg0  1  0.00000000  0.26113700  0.91780900  1
  Mg  Mg1  1  0.00000000  0.73886300  0.91780900  1
  Mg  Mg2  1  0.00000000  0.50000000  0.16371800  1
  Mg  Mg3  1  0.50000000  0.27329100  0.07285200  1
  Mg  Mg4  1  0.50000000  0.72670900  0.07285200  1
  Mg  Mg5  1  0.50000000  0.50000000  0.33321800  1
  Mg  Mg6  1  0.00000000  0.76113700  0.41780900  1
  Mg  Mg7  1  0.00000000  0.23886300  0.41780900  1
  Mg  Mg8  1  0.00000000  0.00000000  0.66371800  1
  Mg  Mg9  1  0.50000000  0.77329100  0.57285200  1
  Mg  Mg10  1  0.50000000  0.22670900  0.57285200  1
  Mg  Mg11  1  0.50000000  0.00000000  0.83321800  1
  Ga  Ga0  1  0.50000000  0.50000000  0.85111800  1
  Ga  Ga1  1  0.50000000  0.00000000  0.35111800  1
loop_
_geom_bond_atom_site_label_1
_geom_bond_atom_site_label_2
_geom_bond_distance
_geom_bond_site_symmetry_2
K0 Mg1 3.328370 1_555
K0 Mg0 3.328370 1_555
K0 Mg10 3.373401 1_455
K0 Mg10 3.373401 1_555
K0 Mg9 3.373401 1_455
K0 Mg9 3.373401 1_555
K0 Mg8 3.419582 1_565
K0 Mg8 3.419582 1_555
K0 Mg6 3.462106 1_555
K0 Mg7 3.462106 1_555
K1 Mg6 3.328370 1_545
K1 Mg7 3.328370 1_555
K1 Mg4 3.373401 1_445
K1 Mg4 3.373401 1_545
K1 Mg3 3.373401 1_455
K1 Mg3 3.373401 1_555
K1 Mg2 3.419582 1_545
K1 Mg2 3.419582 1_555
K1 Mg1 3.462106 1_544
K1 Mg0 3.462106 1_554
Mg0 Mg11 3.278002 1_455
Mg0 Mg11 3.278002 1_555
Mg0 Mg2 3.315333 1_556
Mg0 Mg8 3.474941 1_555
Mg1 Mg11 3.278002 1_465
Mg1 Mg11 3.278002 1_565
Mg1 Mg2 3.315333 1_556
Mg1 Mg8 3.474941 1_565
Mg2 Mg3 3.179890 1_455
Mg2 Mg4 3.179890 1_455
Mg2 Mg3 3.179890 1_555
Mg2 Mg4 3.179890 1_555
Mg2 Mg5 3.244581 1_555
Mg2 Mg5 3.244581 1_455
Mg2 Mg6 3.474941 1_555
Mg2 Mg7 3.474941 1_555
Mg3 Mg5 3.425557 1_555
Mg4 Mg5 3.425557 1_555
Mg5 Mg7 3.278002 1_555
Mg5 Mg6 3.278002 1_655
Mg5 Mg7 3.278002 1_655
Mg5 Mg6 3.278002 1_555
Mg5 Mg9 3.375842 1_555
Mg6 Mg8 3.315333 1_565
Mg7 Mg8 3.315333 1_555
Mg8 Mg9 3.179890 1_545
Mg8 Mg9 3.179890 1_445
Mg10 Mg8 3.179890 1_555
Mg10 Mg8 3.179890 1_655
Mg10 Mg5 3.375842 1_555
Mg10 Mg11 3.425557 1_555
Mg11 Mg8 3.244581 1_555
Mg11 Mg8 3.244581 1_655
Mg11 Mg4 3.375842 1_546
Mg11 Mg3 3.375842 1_556
Mg11 Mg9 3.425557 1_545
Ga0 Mg4 3.028312 1_556
Ga0 Mg3 3.028312 1_556
Ga0 Mg0 3.138774 1_655
Ga0 Mg0 3.138774 1_555
Ga0 Mg1 3.138774 1_555
Ga0 Mg1 3.138774 1_655
Ga0 K0 3.325204 1_655
Ga0 K0 3.325204 1_555
Ga0 Mg11 3.425067 1_565
Ga0 Mg11 3.425067 1_555
Ga1 Mg10 3.028312 1_555
Ga1 Mg9 3.028312 1_545
Ga1 Mg7 3.138774 1_555
Ga1 Mg7 3.138774 1_655
Ga1 Mg6 3.138774 1_645
Ga1 Mg6 3.138774 1_545
Ga1 K1 3.325204 1_655
Ga1 K1 3.325204 1_555
Ga1 Mg5 3.425067 1_545
Ga1 Mg5 3.425067 1_555
