# generated using pymatgen
data_Cd3SiO5
_symmetry_space_group_name_H-M   'P 1'
_cell_length_a   5.01468461
_cell_length_b   6.83687103
_cell_length_c   6.83687103
_cell_angle_alpha   90.00000000
_cell_angle_beta   90.00000000
_cell_angle_gamma   90.00000000
_symmetry_Int_Tables_number   1
_chemical_formula_structural   Cd3SiO5
_chemical_formula_sum   'Cd6 Si2 O10'
_cell_volume   234.40042727
_cell_formula_units_Z   2
loop_
 _symmetry_equiv_pos_site_id
 _symmetry_equiv_pos_as_xyz
  1  'x, y, z'
loop_
 _atom_site_type_symbol
 _atom_site_label
 _atom_site_symmetry_multiplicity
 _atom_site_fract_x
 _atom_site_fract_y
 _atom_site_fract_z
 _atom_site_occupancy
  Cd  Cd0  1  0.96595749  0.75000000  0.75000000  1
  Cd  Cd1  1  0.03404251  0.25000000  0.25000000  1
  Cd  Cd2  1  0.50000000  0.00000000  0.50000000  1
  Cd  Cd3  1  0.50000000  0.00000000  0.00000000  1
  Cd  Cd4  1  0.50000000  0.50000000  0.50000000  1
  Cd  Cd5  1  0.50000000  0.50000000  0.00000000  1
  Si  Si0  1  -0.00000000  0.75000000  0.25000000  1
  Si  Si1  1  -0.00000000  0.25000000  0.75000000  1
  O  O0  1  0.39546111  0.75000000  0.75000000  1
  O  O1  1  0.60453889  0.25000000  0.25000000  1
  O  O2  1  0.80139893  0.06083359  0.75000000  1
  O  O3  1  0.80139893  0.43916641  0.75000000  1
  O  O4  1  0.80139893  0.75000000  0.43916641  1
  O  O5  1  0.80139893  0.75000000  0.06083359  1
  O  O6  1  0.19860107  0.25000000  0.56083359  1
  O  O7  1  0.19860107  0.93916641  0.25000000  1
  O  O8  1  0.19860107  0.25000000  0.93916641  1
  O  O9  1  0.19860107  0.56083359  0.25000000  1
loop_
_geom_bond_atom_site_label_1
_geom_bond_atom_site_label_2
_geom_bond_distance
_geom_bond_site_symmetry_2
Cd0 O0 2.153825 1_655
Cd0 O4 2.279725 1_555
Cd0 O3 2.279725 1_555
Cd0 O2 2.279725 1_565
Cd0 O5 2.279725 1_556
Cd1 O1 2.153825 1_455
Cd1 O6 2.279725 1_555
Cd1 O8 2.279725 1_554
Cd1 O7 2.279725 1_545
Cd1 O9 2.279725 1_555
Cd2 O2 2.319224 1_555
Cd2 O6 2.319224 1_555
Cd2 O7 2.319224 1_545
Cd2 O4 2.319224 1_545
Cd2 O0 2.473392 1_545
Cd2 O1 2.473392 1_555
Cd3 O2 2.319224 1_554
Cd3 O5 2.319224 1_545
Cd3 O7 2.319224 1_545
Cd3 O8 2.319224 1_554
Cd3 O0 2.473392 1_544
Cd3 O1 2.473392 1_555
Cd4 O3 2.319224 1_555
Cd4 O6 2.319224 1_555
Cd4 O4 2.319224 1_555
Cd4 O9 2.319224 1_555
Cd4 O0 2.473392 1_555
Cd4 O1 2.473392 1_555
Cd5 O3 2.319224 1_554
Cd5 O8 2.319224 1_554
Cd5 O5 2.319224 1_555
Cd5 O9 2.319224 1_555
Cd5 O0 2.473392 1_554
Cd5 O1 2.473392 1_555
O2 Si1 1.632330 1_655
O3 Si1 1.632330 1_655
O4 Si0 1.632330 1_655
O5 Si0 1.632330 1_655
O6 Si1 1.632330 1_555
O7 Si0 1.632330 1_555
O8 Si1 1.632330 1_555
O9 Si0 1.632330 1_555
