# generated using pymatgen
data_Ba2YNi3O7
_symmetry_space_group_name_H-M   'P 1'
_cell_length_a   5.56395829
_cell_length_b   12.16730260
_cell_length_c   5.56398583
_cell_angle_alpha   76.96808655
_cell_angle_beta   90.76477743
_cell_angle_gamma   76.96777240
_symmetry_Int_Tables_number   1
_chemical_formula_structural   Ba2YNi3O7
_chemical_formula_sum   'Ba4 Y2 Ni6 O14'
_cell_volume   356.70076693
_cell_formula_units_Z   2
loop_
 _symmetry_equiv_pos_site_id
 _symmetry_equiv_pos_as_xyz
  1  'x, y, z'
loop_
 _atom_site_type_symbol
 _atom_site_label
 _atom_site_symmetry_multiplicity
 _atom_site_fract_x
 _atom_site_fract_y
 _atom_site_fract_z
 _atom_site_occupancy
  Ba  Ba0  1  0.59116500  0.81767800  0.09120400  1
  Ba  Ba1  1  0.09120800  0.81767300  0.59116900  1
  Ba  Ba2  1  0.90879900  0.18231500  0.40884600  1
  Ba  Ba3  1  0.40884300  0.18231000  0.90881000  1
  Y  Y0  1  0.75000700  0.50000900  0.24998500  1
  Y  Y1  1  0.24998700  0.50000600  0.75000500  1
  Ni  Ni0  1  0.50004100  0.99993300  0.50003200  1
  Ni  Ni1  1  0.00000400  0.99998600  0.00001400  1
  Ni  Ni2  1  0.67065700  0.65875700  0.67065700  1
  Ni  Ni3  1  0.17134700  0.65735800  0.17135100  1
  Ni  Ni4  1  0.32934800  0.34123100  0.32934900  1
  Ni  Ni5  1  0.82864700  0.34265400  0.82864600  1
  O  O0  1  0.76316900  0.99999300  0.23686200  1
  O  O1  1  0.23683500  0.99999200  0.76315100  1
  O  O2  1  0.43772100  0.62370900  0.43772100  1
  O  O3  1  0.93853400  0.62371000  0.93853600  1
  O  O4  1  0.06145400  0.37632100  0.06145300  1
  O  O5  1  0.56225800  0.37631900  0.56225700  1
  O  O6  1  0.93862300  0.62388200  0.43747400  1
  O  O7  1  0.43750000  0.62388300  0.93859300  1
  O  O8  1  0.56249400  0.37612100  0.06140700  1
  O  O9  1  0.06139800  0.37612200  0.56249900  1
  O  O10  1  0.58172100  0.83639900  0.58172100  1
  O  O11  1  0.08108500  0.83788700  0.08108300  1
  O  O12  1  0.41823800  0.16363900  0.41825100  1
  O  O13  1  0.91891500  0.16211100  0.91892700  1
loop_
_geom_bond_atom_site_label_1
_geom_bond_atom_site_label_2
_geom_bond_distance
_geom_bond_site_symmetry_2
Ba0 O10 2.789649 1_555
Ba0 O10 2.791040 1_554
Ba0 O11 2.791594 1_555
Ba0 O11 2.791823 1_655
Ba0 O0 2.870714 1_555
Ba0 O1 2.871353 1_554
Ba0 O7 2.967291 1_554
Ba0 O6 2.967368 1_555
Ba0 O2 2.986080 1_555
Ba0 O3 2.986257 1_554
Ba1 O10 2.789633 1_555
Ba1 O10 2.791038 1_455
Ba1 O11 2.791634 1_555
Ba1 O11 2.791820 1_556
Ba1 O1 2.870618 1_555
Ba1 O0 2.871289 1_455
Ba1 O6 2.967256 1_455
Ba1 O7 2.967300 1_555
Ba1 O2 2.986023 1_555
Ba1 O3 2.986239 1_455
Ba2 O12 2.789714 1_555
Ba2 O12 2.790867 1_655
Ba2 O13 2.791625 1_555
Ba2 O13 2.791811 1_554
Ba2 O0 2.870665 1_545
Ba2 O1 2.871293 1_645
Ba2 O9 2.967364 1_655
Ba2 O8 2.967470 1_555
Ba2 O5 2.986344 1_555
Ba2 O4 2.986628 1_655
Ba3 O12 2.789697 1_555
Ba3 O12 2.790903 1_556
Ba3 O13 2.791568 1_555
Ba3 O13 2.791830 1_455
Ba3 O1 2.870761 1_545
Ba3 O0 2.871356 1_546
Ba3 O8 2.967399 1_556
Ba3 O9 2.967537 1_555
Ba3 O5 2.986444 1_555
Ba3 O4 2.986615 1_556
Ni0 O10 1.884434 1_555
Ni0 O12 1.886416 1_565
Ni0 O0 2.084399 1_555
Ni0 O1 2.084506 1_555
Ni1 O11 1.867898 1_555
Ni1 O13 1.868198 1_464
Ni1 O0 1.876018 1_455
Ni1 O1 1.876061 1_554
Ni2 O3 1.998058 1_555
Ni2 O2 1.998753 1_555
Ni2 O7 2.024855 1_555
Ni2 O6 2.025071 1_555
Ni2 O10 2.047003 1_555
Ni3 O2 1.988675 1_555
Ni3 O3 1.989256 1_454
Ni3 O6 2.012988 1_455
Ni3 O7 2.013231 1_554
Ni3 O11 2.080271 1_555
Ni4 O4 1.998123 1_555
Ni4 O5 1.998793 1_555
Ni4 O8 2.024872 1_555
Ni4 O9 2.024917 1_555
Ni4 O12 2.046427 1_555
Ni5 O5 1.988780 1_555
Ni5 O4 1.989318 1_656
Ni5 O9 2.013169 1_655
Ni5 O8 2.013225 1_556
Ni5 O13 2.080432 1_555
O2 Y0 2.439984 1_555
O2 Y1 2.440003 1_555
O3 Y0 2.439854 1_556
O3 Y1 2.439888 1_655
O4 Y1 2.439762 1_554
O4 Y0 2.439765 1_455
O5 Y1 2.439887 1_555
O5 Y0 2.439925 1_555
O6 Y0 2.419598 1_555
O6 Y1 2.420082 1_655
O7 Y1 2.419625 1_555
O7 Y0 2.420087 1_556
O8 Y0 2.419703 1_555
O8 Y1 2.420158 1_554
O9 Y1 2.419676 1_555
O9 Y0 2.420153 1_455
