# generated using pymatgen
data_Mg2Ga
_symmetry_space_group_name_H-M   'P 1'
_cell_length_a   7.89448575
_cell_length_b   7.89448575
_cell_length_c   5.04534806
_cell_angle_alpha   90.00000000
_cell_angle_beta   90.00000000
_cell_angle_gamma   157.67287294
_symmetry_Int_Tables_number   1
_chemical_formula_structural   Mg2Ga
_chemical_formula_sum   'Mg4 Ga2'
_cell_volume   119.45420535
_cell_formula_units_Z   2
loop_
 _symmetry_equiv_pos_site_id
 _symmetry_equiv_pos_as_xyz
  1  'x, y, z'
loop_
 _atom_site_type_symbol
 _atom_site_label
 _atom_site_symmetry_multiplicity
 _atom_site_fract_x
 _atom_site_fract_y
 _atom_site_fract_z
 _atom_site_occupancy
  Mg  Mg0  1  0.09875201  0.90124799  0.25000000  1
  Mg  Mg1  1  0.78367789  0.21632211  0.25000000  1
  Mg  Mg2  1  0.21632211  0.78367789  0.75000000  1
  Mg  Mg3  1  0.90124799  0.09875201  0.75000000  1
  Ga  Ga0  1  0.44288636  0.55711364  0.25000000  1
  Ga  Ga1  1  0.55711364  0.44288636  0.75000000  1
loop_
_geom_bond_atom_site_label_1
_geom_bond_atom_site_label_2
_geom_bond_distance
_geom_bond_site_symmetry_2
Ga0 Mg0 2.857529 1_545
Ga0 Mg0 2.857529 1_655
Ga0 Mg1 2.901412 1_455
Ga0 Mg1 2.901412 1_565
Ga0 Mg3 3.019283 1_565
Ga0 Mg3 3.019283 1_455
Ga0 Mg3 3.019283 1_454
Ga0 Mg3 3.019283 1_564
Ga1 Mg3 2.857529 1_455
Ga1 Mg3 2.857529 1_565
Ga1 Mg2 2.901412 1_545
Ga1 Mg2 2.901412 1_655
Ga1 Mg0 3.019283 1_655
Ga1 Mg0 3.019283 1_546
Ga1 Mg0 3.019283 1_656
Ga1 Mg0 3.019283 1_545
