# generated using pymatgen
data_Li7Mn2(CoO4)3
_symmetry_space_group_name_H-M   'P 1'
_cell_length_a   5.10057722
_cell_length_b   5.10057722
_cell_length_c   15.66373507
_cell_angle_alpha   82.40035296
_cell_angle_beta   82.40035296
_cell_angle_gamma   32.81956951
_symmetry_Int_Tables_number   1
_chemical_formula_structural   Li7Mn2(CoO4)3
_chemical_formula_sum   'Li7 Mn2 Co3 O12'
_cell_volume   218.75723313
_cell_formula_units_Z   1
loop_
 _symmetry_equiv_pos_site_id
 _symmetry_equiv_pos_as_xyz
  1  'x, y, z'
loop_
 _atom_site_type_symbol
 _atom_site_label
 _atom_site_symmetry_multiplicity
 _atom_site_fract_x
 _atom_site_fract_y
 _atom_site_fract_z
 _atom_site_occupancy
  Li  Li0  1  0.24919600  0.24919600  0.08446300  1
  Li  Li1  1  0.74688500  0.74688500  0.25970000  1
  Li  Li2  1  0.23531500  0.23531500  0.42800400  1
  Li  Li3  1  0.75708200  0.75708200  0.57617800  1
  Li  Li4  1  0.25582000  0.25582000  0.74860200  1
  Li  Li5  1  0.75408700  0.75408700  0.90360400  1
  Li  Li6  1  0.50020000  0.50020000  0.50287500  1
  Mn  Mn0  1  0.00274500  0.00274500  0.99574700  1
  Mn  Mn1  1  0.49776300  0.49776300  0.16990400  1
  Co  Co0  1  0.98716800  0.98716800  0.35289000  1
  Co  Co1  1  0.00868000  0.00868000  0.65443800  1
  Co  Co2  1  0.50219900  0.50219900  0.82681800  1
  O  O0  1  0.38784600  0.38784600  0.95916100  1
  O  O1  1  0.88548100  0.88548100  0.13074800  1
  O  O2  1  0.39587400  0.39587400  0.28189900  1
  O  O3  1  0.87599300  0.87599300  0.45242900  1
  O  O4  1  0.38681200  0.38681200  0.63278700  1
  O  O5  1  0.88504100  0.88504100  0.79447500  1
  O  O6  1  0.11418500  0.11418500  0.19856300  1
  O  O7  1  0.61584300  0.61584300  0.37110200  1
  O  O8  1  0.11999900  0.11999900  0.55293100  1
  O  O9  1  0.60717800  0.60717800  0.70774100  1
  O  O10  1  0.12123600  0.12123600  0.86955500  1
  O  O11  1  0.60737400  0.60737400  0.04538400  1
loop_
_geom_bond_atom_site_label_1
_geom_bond_atom_site_label_2
_geom_bond_distance
_geom_bond_site_symmetry_2
Li0 O6 2.070896 1_555
Li0 O11 2.147388 1_545
Li0 O11 2.147388 1_455
Li0 O1 2.155714 1_545
Li0 O1 2.155714 1_455
Li0 O0 2.226828 1_554
Li1 O7 2.017995 1_555
Li1 O2 2.112491 1_655
Li1 O2 2.112491 1_565
Li1 O6 2.241091 1_655
Li1 O6 2.241091 1_565
Li1 O1 2.272428 1_555
Li2 O3 2.064701 1_455
Li2 O3 2.064701 1_545
Li2 O8 2.119828 1_555
Li2 O7 2.127170 1_545
Li2 O7 2.127170 1_455
Li2 O2 2.591251 1_555
Li3 O8 2.035449 1_655
Li3 O8 2.035449 1_565
Li3 O3 2.118813 1_555
Li3 O4 2.187360 1_565
Li3 O4 2.187360 1_655
Li3 O9 2.359035 1_555
Li4 O4 2.071924 1_555
Li4 O5 2.107634 1_455
Li4 O5 2.107634 1_545
Li4 O10 2.153111 1_555
Li4 O9 2.204173 1_545
Li4 O9 2.204173 1_455
Li5 O5 1.990001 1_555
Li5 O10 2.059614 1_655
Li5 O10 2.059614 1_565
Li5 O0 2.204754 1_565
Li5 O0 2.204754 1_655
Li5 O11 2.472652 1_556
Li6 O8 2.078175 1_655
Li6 O8 2.078175 1_565
Li6 O3 2.107794 1_545
Li6 O3 2.107794 1_455
Li6 O4 2.179318 1_555
Li6 O7 2.212892 1_555
Mn0 O0 1.961267 1_455
Mn0 O0 1.961267 1_545
Mn0 O11 1.987109 1_456
Mn0 O11 1.987109 1_546
Mn0 O10 2.149325 1_555
Mn0 O1 2.262588 1_446
Mn1 O2 1.894532 1_555
Mn1 O6 1.927889 1_565
Mn1 O6 1.927889 1_655
Mn1 O1 1.961006 1_545
Mn1 O1 1.961006 1_455
Mn1 O11 2.092341 1_555
Co0 O3 1.773926 1_555
Co0 O7 1.960159 1_655
Co0 O7 1.960159 1_565
Co0 O2 2.094001 1_565
Co0 O2 2.094001 1_655
Co0 O6 2.561240 1_665
Co1 O8 1.799192 1_555
Co1 O4 1.930032 1_545
Co1 O4 1.930032 1_455
Co1 O9 1.980994 1_455
Co1 O9 1.980994 1_545
Co1 O5 2.354466 1_445
Co2 O5 1.951279 1_455
Co2 O5 1.951279 1_545
Co2 O9 2.001480 1_555
Co2 O10 2.023936 1_565
Co2 O10 2.023936 1_655
Co2 O0 2.215817 1_555
