# generated using pymatgen
data_Ba(C4N3)2
_symmetry_space_group_name_H-M   'P 1'
_cell_length_a   14.78061327
_cell_length_b   14.77580709
_cell_length_c   4.48720501
_cell_angle_alpha   90.00726216
_cell_angle_beta   89.99636826
_cell_angle_gamma   119.98924511
_symmetry_Int_Tables_number   1
_chemical_formula_structural   Ba(C4N3)2
_chemical_formula_sum   'Ba3 C24 N18'
_cell_volume   848.78415178
_cell_formula_units_Z   3
loop_
 _symmetry_equiv_pos_site_id
 _symmetry_equiv_pos_as_xyz
  1  'x, y, z'
loop_
 _atom_site_type_symbol
 _atom_site_label
 _atom_site_symmetry_multiplicity
 _atom_site_fract_x
 _atom_site_fract_y
 _atom_site_fract_z
 _atom_site_occupancy
  Ba  Ba0  1  0.00000000  0.00000000  0.41972000  1
  Ba  Ba1  1  0.33334700  0.66664400  0.65615200  1
  Ba  Ba2  1  0.66665300  0.33329600  0.65615200  1
  C  C0  1  0.00000000  0.62861000  0.22581400  1
  C  C1  1  0.62859600  0.99999200  0.22583400  1
  C  C2  1  0.37140400  0.37139500  0.22583400  1
  C  C3  1  0.00000000  0.72072100  0.31087400  1
  C  C4  1  0.72067000  0.99998200  0.31085200  1
  C  C5  1  0.27933000  0.27931200  0.31085200  1
  C  C6  1  0.09547400  0.63124800  0.18417700  1
  C  C7  1  0.53577300  0.90450600  0.18418800  1
  C  C8  1  0.36875100  0.46424900  0.18417000  1
  C  C9  1  0.90452600  0.53577400  0.18417700  1
  C  C10  1  0.63124900  0.09549700  0.18417000  1
  C  C11  1  0.46422700  0.36873200  0.18418800  1
  C  C12  1  0.70937100  0.70938500  0.74549400  1
  C  C13  1  0.00000000  0.29063800  0.74547800  1
  C  C14  1  0.29062900  0.00001300  0.74549400  1
  C  C15  1  0.79794500  0.79796500  0.85107800  1
  C  C16  1  0.00000000  0.20204500  0.85107700  1
  C  C17  1  0.20205500  0.00002000  0.85107800  1
  C  C18  1  0.61721300  0.71173200  0.69075900  1
  C  C19  1  0.09450100  0.38279300  0.69074200  1
  C  C20  1  0.28827800  0.90547500  0.69073900  1
  C  C21  1  0.38278700  0.09451800  0.69075900  1
  C  C22  1  0.71172200  0.61719700  0.69073900  1
  C  C23  1  0.90549900  0.28829300  0.69074200  1
  N  N0  1  0.00000000  0.79699500  0.38302300  1
  N  N1  1  0.79692400  0.99999400  0.38295700  1
  N  N2  1  0.20307600  0.20307000  0.38295700  1
  N  N3  1  0.17646200  0.63551000  0.15089500  1
  N  N4  1  0.45904400  0.82351900  0.15087600  1
  N  N5  1  0.36448500  0.54100400  0.15085800  1
  N  N6  1  0.82353800  0.45904800  0.15089500  1
  N  N7  1  0.63551500  0.17651800  0.15085800  1
  N  N8  1  0.54095600  0.36447400  0.15087600  1
  N  N9  1  0.87323700  0.87323700  0.93525400  1
  N  N10  1  0.00000000  0.12674300  0.93526500  1
  N  N11  1  0.12676300  0.99999900  0.93525400  1
  N  N12  1  0.53951800  0.71205100  0.64354100  1
  N  N13  1  0.17254300  0.46045800  0.64356800  1
  N  N14  1  0.28792700  0.82741400  0.64352200  1
  N  N15  1  0.46048200  0.17253300  0.64354100  1
  N  N16  1  0.71207300  0.53948700  0.64352200  1
  N  N17  1  0.82745700  0.28791700  0.64356800  1
loop_
_geom_bond_atom_site_label_1
_geom_bond_atom_site_label_2
_geom_bond_distance
_geom_bond_site_symmetry_2
Ba0 N10 2.869455 1_554
Ba0 N9 2.869813 1_444
Ba0 N11 2.869818 1_544
Ba0 N10 2.976178 1_555
Ba0 N9 2.976986 1_445
Ba0 N11 2.976991 1_545
Ba0 N0 3.004058 1_545
Ba0 N2 3.006084 1_555
Ba0 N1 3.006084 1_445
Ba1 N14 2.773304 1_555
Ba1 N13 2.774012 1_555
Ba1 N12 2.774114 1_555
Ba1 N5 3.072651 1_556
Ba1 N4 3.073572 1_556
Ba1 N3 3.074149 1_556
Ba1 N5 3.106766 1_555
Ba1 N4 3.108198 1_555
Ba1 N3 3.108518 1_555
Ba2 N16 2.773319 1_555
Ba2 N17 2.773983 1_555
Ba2 N15 2.774109 1_555
Ba2 N7 3.072650 1_556
Ba2 N8 3.073572 1_556
Ba2 N6 3.074152 1_556
Ba2 N7 3.106766 1_555
Ba2 N8 3.108198 1_555
Ba2 N6 3.108522 1_555
C0 C9 1.404561 1_455
C0 C6 1.404561 1_555
C0 C3 1.413474 1_555
C1 C10 1.404500 1_565
C1 C7 1.404541 1_555
C1 C4 1.413464 1_555
C2 C8 1.404529 1_555
C2 C5 1.413457 1_555
C3 N0 1.172549 1_555
C4 N1 1.172537 1_555
C5 N2 1.172537 1_555
C6 N3 1.176360 1_555
C7 N4 1.176348 1_555
C8 N5 1.176466 1_555
C9 N6 1.176360 1_555
C10 N7 1.176466 1_555
C11 N8 1.176348 1_555
C11 C2 1.404541 1_555
C12 C15 1.392282 1_555
C12 C18 1.401517 1_555
C12 C22 1.401522 1_555
C13 C16 1.392212 1_555
C13 C19 1.401488 1_555
C13 C23 1.401495 1_455
C14 C17 1.392289 1_555
C14 C20 1.401508 1_545
C14 C21 1.401517 1_555
C15 N9 1.175052 1_555
C16 N10 1.175075 1_555
C17 N11 1.175045 1_545
C18 N12 1.170099 1_555
C19 N13 1.170055 1_555
C20 N14 1.170144 1_555
C21 N15 1.170107 1_555
C22 N16 1.170144 1_555
C23 N17 1.170062 1_555
