# generated using pymatgen
data_USnPd
_symmetry_space_group_name_H-M   'P 1'
_cell_length_a   5.10820950
_cell_length_b   5.10820950
_cell_length_c   5.55286001
_cell_angle_alpha   89.99449311
_cell_angle_beta   90.00550689
_cell_angle_gamma   119.98442508
_symmetry_Int_Tables_number   1
_chemical_formula_structural   USnPd
_chemical_formula_sum   'U2 Sn2 Pd2'
_cell_volume   125.50264898
_cell_formula_units_Z   2
loop_
 _symmetry_equiv_pos_site_id
 _symmetry_equiv_pos_as_xyz
  1  'x, y, z'
loop_
 _atom_site_type_symbol
 _atom_site_label
 _atom_site_symmetry_multiplicity
 _atom_site_fract_x
 _atom_site_fract_y
 _atom_site_fract_z
 _atom_site_occupancy
  U  U0  1  0.00005700  0.99994300  0.76258100  1
  U  U1  1  0.99994300  0.00005700  0.23741900  1
  Sn  Sn0  1  0.33329400  0.66670600  0.49765400  1
  Sn  Sn1  1  0.66670600  0.33329400  0.50234600  1
  Pd  Pd0  1  0.66670000  0.33330000  0.00170600  1
  Pd  Pd1  1  0.33330000  0.66670000  0.99829400  1
loop_
_geom_bond_atom_site_label_1
_geom_bond_atom_site_label_2
_geom_bond_distance
_geom_bond_site_symmetry_2
U0 U1 2.636709 1_466
U0 U1 2.916151 1_465
Sn0 Sn1 2.949458 1_455
Sn0 Sn1 2.949458 1_565
Sn0 Sn1 2.949803 1_555
Sn0 U1 3.284008 1_465
Sn0 U1 3.284637 1_455
Sn0 U1 3.284637 1_565
Sn0 U0 3.294943 1_555
Sn0 U0 3.296489 1_655
Sn0 U0 3.296489 1_545
Sn1 U0 3.284008 1_645
Sn1 U0 3.284637 1_655
Sn1 U0 3.284637 1_545
Sn1 U1 3.294943 1_555
Sn1 U1 3.296489 1_455
Sn1 U1 3.296489 1_565
Pd0 Sn1 2.772876 1_554
Pd0 Sn1 2.779984 1_555
Pd0 Pd1 2.949456 1_654
Pd0 Pd1 2.949456 1_544
Pd0 Pd1 2.949643 1_554
Pd0 U1 3.225550 1_555
Pd0 U1 3.227479 1_455
Pd0 U1 3.227479 1_565
Pd0 U0 3.234471 1_644
Pd0 U0 3.234616 1_544
Pd0 U0 3.234616 1_654
Pd1 Sn0 2.772876 1_556
Pd1 Sn0 2.779984 1_555
Pd1 U0 3.225550 1_555
Pd1 U0 3.227479 1_545
Pd1 U0 3.227479 1_655
Pd1 U1 3.234471 1_466
Pd1 U1 3.234616 1_456
Pd1 U1 3.234616 1_566
