# generated using pymatgen
data_Ba3(MoN2)2
_symmetry_space_group_name_H-M   'P 1'
_cell_length_a   7.90194320
_cell_length_b   9.41278703
_cell_length_c   5.87765761
_cell_angle_alpha   90.00000114
_cell_angle_beta   92.22559265
_cell_angle_gamma   126.55538302
_symmetry_Int_Tables_number   1
_chemical_formula_structural   Ba3(MoN2)2
_chemical_formula_sum   'Ba6 Mo4 N8'
_cell_volume   350.76486833
_cell_formula_units_Z   2
loop_
 _symmetry_equiv_pos_site_id
 _symmetry_equiv_pos_as_xyz
  1  'x, y, z'
loop_
 _atom_site_type_symbol
 _atom_site_label
 _atom_site_symmetry_multiplicity
 _atom_site_fract_x
 _atom_site_fract_y
 _atom_site_fract_z
 _atom_site_occupancy
  Ba  Ba0  1  0.24424300  0.99409800  0.03515500  1
  Ba  Ba1  1  0.75575700  0.74985500  0.46484500  1
  Ba  Ba2  1  0.75575700  0.00590200  0.96484500  1
  Ba  Ba3  1  0.24424300  0.25014500  0.53515500  1
  Ba  Ba4  1  0.00000000  0.59939200  0.75000000  1
  Ba  Ba5  1  0.00000000  0.40060800  0.25000000  1
  Mo  Mo0  1  0.58742100  0.16830700  0.58715300  1
  Mo  Mo1  1  0.41257900  0.58088600  0.91284700  1
  Mo  Mo2  1  0.41257900  0.83169300  0.41284700  1
  Mo  Mo3  1  0.58742100  0.41911400  0.08715300  1
  N  N0  1  0.28375100  0.95276800  0.53506400  1
  N  N1  1  0.71624900  0.66901900  0.96493600  1
  N  N2  1  0.71624900  0.04723200  0.46493600  1
  N  N3  1  0.28375100  0.33098100  0.03506400  1
  N  N4  1  0.63756600  0.27655600  0.89637300  1
  N  N5  1  0.36243400  0.63898900  0.60362700  1
  N  N6  1  0.36243400  0.72344400  0.10362700  1
  N  N7  1  0.63756600  0.36101100  0.39637300  1
loop_
_geom_bond_atom_site_label_1
_geom_bond_atom_site_label_2
_geom_bond_distance
_geom_bond_site_symmetry_2
Ba0 N4 2.783444 1_564
Ba0 N0 2.992625 1_555
Ba0 N3 2.995585 1_565
Ba0 N0 3.017385 1_554
Ba0 N6 3.213963 1_555
Ba0 N1 3.405771 1_454
Ba1 N5 2.783441 1_555
Ba1 N1 2.992622 1_554
Ba1 N2 2.995604 1_565
Ba1 N1 3.017381 1_555
Ba1 N7 3.213954 1_555
Ba1 N0 3.405775 1_655
Ba2 N6 2.783444 1_546
Ba2 N2 2.992625 1_555
Ba2 N1 2.995585 1_545
Ba2 N2 3.017385 1_556
Ba2 N4 3.213963 1_555
Ba2 N3 3.405771 1_656
Ba3 N7 2.783441 1_555
Ba3 N3 2.992622 1_556
Ba3 N0 2.995604 1_545
Ba3 N3 3.017381 1_555
Ba3 N5 3.213954 1_555
Ba3 N2 3.405775 1_455
Ba4 N4 2.828606 1_455
Ba4 N5 2.828610 1_555
Ba4 N0 3.003878 1_555
Ba4 N1 3.003890 1_455
Ba4 N7 3.072433 1_455
Ba4 N6 3.072435 1_556
Ba5 N6 2.828606 1_555
Ba5 N7 2.828610 1_455
Ba5 N2 3.003878 1_455
Ba5 N3 3.003890 1_555
Ba5 N5 3.072433 1_555
Ba5 N4 3.072435 1_454
Mo0 N7 1.970515 1_555
Mo0 N4 1.990380 1_555
Mo0 N0 2.027720 1_545
Mo0 N2 2.071212 1_555
Mo1 N6 1.970507 1_556
Mo1 N5 1.990376 1_555
Mo1 N1 2.027714 1_555
Mo1 N3 2.071227 1_556
Mo2 N5 1.970515 1_555
Mo2 N6 1.990380 1_555
Mo2 N2 2.027720 1_565
Mo2 N0 2.071212 1_555
Mo3 N4 1.970507 1_554
Mo3 N7 1.990376 1_555
Mo3 N3 2.027714 1_555
Mo3 N1 2.071227 1_554
