# generated using pymatgen
data_Zr4CuSb7
_symmetry_space_group_name_H-M   'P 1'
_cell_length_a   11.29014800
_cell_length_b   11.29014800
_cell_length_c   8.77293300
_cell_angle_alpha   90.00000000
_cell_angle_beta   90.00000000
_cell_angle_gamma   90.00000000
_symmetry_Int_Tables_number   1
_chemical_formula_structural   Zr4CuSb7
_chemical_formula_sum   'Zr16 Cu4 Sb28'
_cell_volume   1118.26332714
_cell_formula_units_Z   4
loop_
 _symmetry_equiv_pos_site_id
 _symmetry_equiv_pos_as_xyz
  1  'x, y, z'
loop_
 _atom_site_type_symbol
 _atom_site_label
 _atom_site_symmetry_multiplicity
 _atom_site_fract_x
 _atom_site_fract_y
 _atom_site_fract_z
 _atom_site_occupancy
  Zr  Zr0  1  0.50000000  0.50000000  0.30127800  1
  Zr  Zr1  1  0.00000000  0.00000000  0.30127800  1
  Zr  Zr2  1  0.74574100  0.24574100  0.29330700  1
  Zr  Zr3  1  0.25425900  0.75425900  0.29330700  1
  Zr  Zr4  1  0.24574100  0.25425900  0.29330700  1
  Zr  Zr5  1  0.75425900  0.74574100  0.29330700  1
  Zr  Zr6  1  0.00000000  0.50000000  0.28484800  1
  Zr  Zr7  1  0.50000000  0.00000000  0.28484800  1
  Zr  Zr8  1  0.00492600  0.24879700  0.82039000  1
  Zr  Zr9  1  0.99507400  0.75120300  0.82039000  1
  Zr  Zr10  1  0.50492600  0.25120300  0.82039000  1
  Zr  Zr11  1  0.49507400  0.74879700  0.82039000  1
  Zr  Zr12  1  0.75120300  0.00492600  0.82039000  1
  Zr  Zr13  1  0.24879700  0.99507400  0.82039000  1
  Zr  Zr14  1  0.74879700  0.50492600  0.82039000  1
  Zr  Zr15  1  0.25120300  0.49507400  0.82039000  1
  Cu  Cu0  1  0.87411900  0.37411900  0.55208900  1
  Cu  Cu1  1  0.12588100  0.62588100  0.55208900  1
  Cu  Cu2  1  0.37411900  0.12588100  0.55208900  1
  Cu  Cu3  1  0.62588100  0.87411900  0.55208900  1
  Sb  Sb0  1  0.00000000  0.50000000  0.93309400  1
  Sb  Sb1  1  0.50000000  0.00000000  0.93309400  1
  Sb  Sb2  1  0.50000000  0.50000000  0.94709700  1
  Sb  Sb3  1  0.00000000  0.00000000  0.94709700  1
  Sb  Sb4  1  0.25315600  0.24684400  0.94200300  1
  Sb  Sb5  1  0.74684400  0.75315600  0.94200300  1
  Sb  Sb6  1  0.75315600  0.25315600  0.94200300  1
  Sb  Sb7  1  0.24684400  0.74684400  0.94200300  1
  Sb  Sb8  1  0.10804700  0.39195300  0.55788900  1
  Sb  Sb9  1  0.89195300  0.60804700  0.55788900  1
  Sb  Sb10  1  0.60804700  0.10804700  0.55788900  1
  Sb  Sb11  1  0.39195300  0.89195300  0.55788900  1
  Sb  Sb12  1  0.49718200  0.25084600  0.17488400  1
  Sb  Sb13  1  0.50281800  0.74915400  0.17488400  1
  Sb  Sb14  1  0.99718200  0.24915400  0.17488400  1
  Sb  Sb15  1  0.00281800  0.75084600  0.17488400  1
  Sb  Sb16  1  0.74915400  0.49718200  0.17488400  1
  Sb  Sb17  1  0.25084600  0.50281800  0.17488400  1
  Sb  Sb18  1  0.75084600  0.99718200  0.17488400  1
  Sb  Sb19  1  0.24915400  0.00281800  0.17488400  1
  Sb  Sb20  1  0.64278000  0.37516000  0.55685200  1
  Sb  Sb21  1  0.35722000  0.62484000  0.55685200  1
  Sb  Sb22  1  0.14278000  0.12484000  0.55685200  1
  Sb  Sb23  1  0.85722000  0.87516000  0.55685200  1
  Sb  Sb24  1  0.62484000  0.64278000  0.55685200  1
  Sb  Sb25  1  0.37516000  0.35722000  0.55685200  1
  Sb  Sb26  1  0.87516000  0.14278000  0.55685200  1
  Sb  Sb27  1  0.12484000  0.85722000  0.55685200  1
loop_
_geom_bond_atom_site_label_1
_geom_bond_atom_site_label_2
_geom_bond_distance
_geom_bond_site_symmetry_2
Cu0 Sb26 2.612212 1_555
Cu0 Sb20 2.612212 1_555
Cu0 Sb8 2.649234 1_655
Cu0 Sb9 2.649234 1_555
Cu0 Zr2 3.058712 1_555
Cu0 Zr6 3.088094 1_655
Cu0 Zr8 3.118220 1_655
Cu0 Zr14 3.118220 1_555
Cu1 Sb21 2.612212 1_555
Cu1 Sb27 2.612212 1_555
Cu1 Sb9 2.649234 1_455
Cu1 Sb8 2.649234 1_555
Cu1 Zr3 3.058712 1_555
Cu1 Zr6 3.088094 1_555
Cu1 Zr9 3.118220 1_455
Cu1 Zr15 3.118220 1_555
Cu2 Sb22 2.612212 1_555
Cu2 Sb25 2.612212 1_555
Cu2 Sb11 2.649234 1_545
Cu2 Sb10 2.649234 1_555
Cu2 Zr4 3.058712 1_555
Cu2 Zr7 3.088094 1_555
Cu2 Zr10 3.118220 1_555
Cu2 Zr13 3.118220 1_545
Cu3 Sb24 2.612212 1_555
Cu3 Sb23 2.612212 1_555
Cu3 Sb10 2.649234 1_565
Cu3 Sb11 2.649234 1_555
Cu3 Zr5 3.058712 1_555
Cu3 Zr7 3.088094 1_565
Cu3 Zr12 3.118220 1_565
Cu3 Zr11 3.118220 1_555
Sb0 Zr9 3.004044 1_455
Sb0 Zr8 3.004044 1_555
Sb0 Zr15 3.004044 1_555
Sb0 Zr14 3.004044 1_455
Sb0 Zr6 3.085914 1_556
Sb1 Zr12 3.004044 1_555
Sb1 Zr10 3.004044 1_555
Sb1 Zr13 3.004044 1_545
Sb1 Zr11 3.004044 1_545
Sb1 Zr7 3.085914 1_556
Sb2 Zr11 3.021417 1_555
Sb2 Zr14 3.021417 1_555
Sb2 Zr10 3.021417 1_555
Sb2 Zr15 3.021417 1_555
Sb2 Zr0 3.107206 1_556
Sb3 Zr8 3.021417 1_555
Sb3 Zr13 3.021417 1_545
Sb3 Zr12 3.021417 1_455
Sb3 Zr9 3.021417 1_445
Sb3 Zr1 3.107206 1_556
Sb4 Zr15 2.998845 1_555
Sb4 Zr8 2.998845 1_555
Sb4 Zr13 3.036548 1_545
Sb4 Zr10 3.036548 1_555
Sb4 Zr4 3.084240 1_556
Sb5 Zr14 2.998845 1_555
Sb5 Zr9 2.998845 1_555
Sb5 Zr12 3.036548 1_565
Sb5 Zr11 3.036548 1_555
Sb5 Zr5 3.084240 1_556
Sb6 Zr10 2.998845 1_555
Sb6 Zr12 2.998845 1_555
Sb6 Zr14 3.036548 1_555
Sb6 Zr8 3.036548 1_655
Sb6 Zr2 3.084240 1_556
Sb7 Zr13 2.998845 1_555
Sb7 Zr11 2.998845 1_555
Sb7 Zr9 3.036548 1_455
Sb7 Zr15 3.036548 1_555
Sb7 Zr3 3.084240 1_556
Sb8 Zr6 2.951940 1_555
Sb8 Zr8 3.044851 1_555
Sb8 Zr15 3.044851 1_555
Sb8 Zr4 3.197070 1_555
Sb9 Zr6 2.951940 1_655
Sb9 Zr9 3.044851 1_555
Sb9 Zr14 3.044851 1_555
Sb9 Zr5 3.197070 1_555
Sb10 Zr7 2.951940 1_555
Sb10 Sb26 3.041147 1_555
Sb10 Sb20 3.041147 1_555
Sb10 Zr12 3.044851 1_555
Sb10 Zr10 3.044851 1_555
Sb10 Zr2 3.197070 1_555
Sb11 Zr7 2.951940 1_565
Sb11 Sb21 3.041147 1_555
Sb11 Sb27 3.041147 1_555
Sb11 Zr13 3.044851 1_555
Sb11 Zr11 3.044851 1_555
Sb11 Zr3 3.197070 1_555
Sb12 Zr7 2.992056 1_555
Sb12 Zr2 2.992960 1_555
Sb12 Zr4 3.023186 1_555
Sb12 Zr0 3.023812 1_555
Sb12 Zr10 3.111183 1_554
Sb13 Zr7 2.992056 1_565
Sb13 Zr3 2.992960 1_555
Sb13 Zr5 3.023186 1_555
Sb13 Zr0 3.023812 1_555
Sb13 Zr11 3.111183 1_554
Sb14 Zr6 2.992056 1_655
Sb14 Zr4 2.992960 1_655
Sb14 Zr2 3.023186 1_555
Sb14 Zr1 3.023812 1_655
Sb14 Zr8 3.111183 1_654
Sb15 Zr6 2.992056 1_555
Sb15 Zr5 2.992960 1_455
Sb15 Zr3 3.023186 1_555
Sb15 Zr1 3.023812 1_565
Sb15 Zr9 3.111183 1_454
Sb16 Zr6 2.992056 1_655
Sb16 Zr5 2.992960 1_555
Sb16 Zr2 3.023186 1_555
Sb16 Zr0 3.023812 1_555
Sb16 Zr14 3.111183 1_554
Sb17 Zr6 2.992056 1_555
Sb17 Zr4 2.992960 1_555
Sb17 Zr3 3.023186 1_555
Sb17 Zr0 3.023812 1_555
Sb17 Zr15 3.111183 1_554
Sb18 Zr7 2.992056 1_565
Sb18 Zr2 2.992960 1_565
Sb18 Zr5 3.023186 1_555
Sb18 Zr1 3.023812 1_665
Sb18 Zr12 3.111183 1_564
Sb19 Zr7 2.992056 1_555
Sb19 Zr3 2.992960 1_545
Sb19 Zr4 3.023186 1_555
Sb19 Zr1 3.023812 1_555
Sb19 Zr13 3.111183 1_544
Sb20 Zr2 2.971851 1_555
Sb20 Zr14 2.987388 1_555
Sb20 Sb25 3.028251 1_555
Sb20 Sb24 3.028251 1_555
Sb20 Zr0 3.100373 1_555
Sb20 Zr10 3.118699 1_555
Sb21 Zr3 2.971851 1_555
Sb21 Zr15 2.987388 1_555
Sb21 Sb24 3.028251 1_555
Sb21 Sb25 3.028251 1_555
Sb21 Zr0 3.100373 1_555
Sb21 Zr11 3.118699 1_555
Sb22 Zr4 2.971851 1_555
Sb22 Zr13 2.987388 1_545
Sb22 Sb27 3.028251 1_545
Sb22 Sb26 3.028251 1_455
Sb22 Sb8 3.041147 1_555
Sb22 Zr1 3.100373 1_555
Sb22 Zr8 3.118699 1_555
Sb23 Zr5 2.971851 1_555
Sb23 Zr12 2.987388 1_565
Sb23 Sb27 3.028251 1_655
Sb23 Sb26 3.028251 1_565
Sb23 Sb9 3.041147 1_555
Sb23 Zr1 3.100373 1_665
Sb23 Zr9 3.118699 1_555
Sb24 Zr5 2.971851 1_555
Sb24 Zr11 2.987388 1_555
Sb24 Sb9 3.041147 1_555
Sb24 Zr0 3.100373 1_555
Sb24 Zr14 3.118699 1_555
Sb25 Zr4 2.971851 1_555
Sb25 Zr10 2.987388 1_555
Sb25 Sb8 3.041147 1_555
Sb25 Zr0 3.100373 1_555
Sb25 Zr15 3.118699 1_555
Sb26 Zr2 2.971851 1_555
Sb26 Zr8 2.987388 1_655
Sb26 Zr1 3.100373 1_655
Sb26 Zr12 3.118699 1_555
Sb27 Zr3 2.971851 1_555
Sb27 Zr9 2.987388 1_455
Sb27 Zr1 3.100373 1_565
Sb27 Zr13 3.118699 1_555
