# generated using pymatgen
data_Mg3(AlN2)2
_symmetry_space_group_name_H-M   'P 1'
_cell_length_a   6.18917452
_cell_length_b   7.27069786
_cell_length_c   5.49035008
_cell_angle_alpha   90.00000091
_cell_angle_beta   89.74500471
_cell_angle_gamma   125.97074549
_symmetry_Int_Tables_number   1
_chemical_formula_structural   Mg3(AlN2)2
_chemical_formula_sum   'Mg6 Al4 N8'
_cell_volume   199.94979472
_cell_formula_units_Z   2
loop_
 _symmetry_equiv_pos_site_id
 _symmetry_equiv_pos_as_xyz
  1  'x, y, z'
loop_
 _atom_site_type_symbol
 _atom_site_label
 _atom_site_symmetry_multiplicity
 _atom_site_fract_x
 _atom_site_fract_y
 _atom_site_fract_z
 _atom_site_occupancy
  Mg  Mg0  1  0.22471100  0.98765500  0.96874100  1
  Mg  Mg1  1  0.77528900  0.76294400  0.53125900  1
  Mg  Mg2  1  0.77528900  0.01234500  0.03125900  1
  Mg  Mg3  1  0.22471100  0.23705600  0.46874100  1
  Mg  Mg4  1  0.00000000  0.59793400  0.75000000  1
  Mg  Mg5  1  0.00000000  0.40206600  0.25000000  1
  Al  Al0  1  0.62035000  0.18623100  0.60664300  1
  Al  Al1  1  0.37965000  0.56588100  0.89335700  1
  Al  Al2  1  0.37965000  0.81376900  0.39335700  1
  Al  Al3  1  0.62035000  0.43411900  0.10664300  1
  N  N0  1  0.24065500  0.95707100  0.56616000  1
  N  N1  1  0.75934500  0.71641600  0.93384000  1
  N  N2  1  0.75934500  0.04292900  0.43384000  1
  N  N3  1  0.24065500  0.28358400  0.06616000  1
  N  N4  1  0.71722800  0.26735400  0.93305500  1
  N  N5  1  0.28277200  0.55012600  0.56694500  1
  N  N6  1  0.28277200  0.73264600  0.06694500  1
  N  N7  1  0.71722800  0.44987400  0.43305500  1
loop_
_geom_bond_atom_site_label_1
_geom_bond_atom_site_label_2
_geom_bond_distance
_geom_bond_site_symmetry_2
Mg0 N6 2.154512 1_556
Mg0 N3 2.162473 1_566
Mg0 N0 2.229012 1_555
Mg0 N1 2.356665 1_455
Mg0 N4 2.485633 1_565
Mg1 N7 2.154512 1_555
Mg1 N2 2.162473 1_565
Mg1 N1 2.229012 1_555
Mg1 N0 2.356665 1_655
Mg1 N5 2.485633 1_555
Mg2 N4 2.154512 1_554
Mg2 N1 2.162473 1_544
Mg2 N2 2.229012 1_555
Mg2 N3 2.356665 1_655
Mg2 N6 2.485633 1_545
Mg3 N5 2.154512 1_555
Mg3 N0 2.162473 1_545
Mg3 N3 2.229012 1_555
Mg3 N2 2.356665 1_455
Mg3 N7 2.485633 1_555
Mg4 N5 2.211978 1_555
Mg4 N4 2.211978 1_455
Mg4 N6 2.250278 1_556
Mg4 N7 2.250278 1_455
Mg4 N1 2.339501 1_455
Mg4 N0 2.339501 1_555
Mg5 N7 2.211978 1_455
Mg5 N6 2.211978 1_555
Mg5 N4 2.250278 1_454
Mg5 N5 2.250278 1_555
Mg5 N3 2.339501 1_555
Mg5 N2 2.339501 1_455
Al0 N4 1.874352 1_555
Al0 N7 1.893924 1_555
Al0 N0 1.937253 1_545
Al0 N2 1.942015 1_555
Al1 N5 1.874352 1_555
Al1 N6 1.893924 1_556
Al1 N1 1.937253 1_555
Al1 N3 1.942015 1_556
Al2 N6 1.874352 1_555
Al2 N5 1.893924 1_555
Al2 N2 1.937253 1_565
Al2 N0 1.942015 1_555
Al3 N7 1.874352 1_555
Al3 N4 1.893924 1_554
Al3 N3 1.937253 1_555
Al3 N1 1.942015 1_554
