# generated using pymatgen
data_Ca2Ni10H
_symmetry_space_group_name_H-M   'P 1'
_cell_length_a   4.92727367
_cell_length_b   5.03262413
_cell_length_c   7.80746000
_cell_angle_alpha   90.00000000
_cell_angle_beta   90.00000000
_cell_angle_gamma   119.23928461
_symmetry_Int_Tables_number   1
_chemical_formula_structural   Ca2Ni10H
_chemical_formula_sum   'Ca2 Ni10 H1'
_cell_volume   168.93509196
_cell_formula_units_Z   1
loop_
 _symmetry_equiv_pos_site_id
 _symmetry_equiv_pos_as_xyz
  1  'x, y, z'
loop_
 _atom_site_type_symbol
 _atom_site_label
 _atom_site_symmetry_multiplicity
 _atom_site_fract_x
 _atom_site_fract_y
 _atom_site_fract_z
 _atom_site_occupancy
  Ca  Ca0  1  0.00000000  0.00000000  0.00000000  1
  Ca  Ca1  1  0.00000000  0.00000000  0.50000000  1
  Ni  Ni0  1  0.31425600  0.62848200  0.00000000  1
  Ni  Ni1  1  0.68574400  0.37151800  0.00000000  1
  Ni  Ni2  1  0.50000000  0.00000000  0.75663500  1
  Ni  Ni3  1  0.50000000  0.50000000  0.74367900  1
  Ni  Ni4  1  0.00000000  0.50000000  0.74367500  1
  Ni  Ni5  1  0.34254500  0.68494600  0.50000000  1
  Ni  Ni6  1  0.65745500  0.31505400  0.50000000  1
  Ni  Ni7  1  0.50000000  0.00000000  0.24336500  1
  Ni  Ni8  1  0.50000000  0.50000000  0.25632100  1
  Ni  Ni9  1  0.00000000  0.50000000  0.25632500  1
  H  H0  1  0.50000000  0.00000000  0.00000000  1
loop_
_geom_bond_atom_site_label_1
_geom_bond_atom_site_label_2
_geom_bond_distance
_geom_bond_site_symmetry_2
Ca0 H0 2.463637 1_455
Ca0 H0 2.463637 1_555
Ca0 Ni0 2.759921 1_555
Ca0 Ni1 2.759921 1_445
Ca0 Ni9 3.215092 1_555
Ca0 Ni9 3.215092 1_545
Ca0 Ni4 3.215092 1_554
Ca0 Ni4 3.215092 1_544
Ca0 Ni8 3.217145 1_445
Ca0 Ni8 3.217145 1_555
Ca0 Ni3 3.217145 1_554
Ca0 Ni3 3.217145 1_444
Ca1 Ni6 2.824360 1_455
Ca1 Ni5 2.824360 1_545
Ca1 Ni5 2.826714 1_445
Ca1 Ni6 2.826714 1_555
Ca1 Ni5 3.007878 1_555
Ca1 Ni6 3.007878 1_445
Ca1 Ni4 3.154563 1_545
Ca1 Ni4 3.154563 1_555
Ca1 Ni9 3.154563 1_555
Ca1 Ni9 3.154563 1_545
Ca1 Ni3 3.156694 1_445
Ca1 Ni3 3.156694 1_555
Ca1 Ni8 3.156694 1_555
Ca1 Ni8 3.156694 1_445
Ca1 Ni7 3.175561 1_455
Ca1 Ni7 3.175561 1_555
Ca1 Ni2 3.175561 1_455
Ca1 Ni2 3.175561 1_555
Ni0 Ni8 2.416338 1_555
Ni0 Ni3 2.416338 1_554
Ni0 Ni9 2.417148 1_555
Ni0 Ni4 2.417148 1_554
Ni1 Ni8 2.416338 1_555
Ni1 Ni3 2.416338 1_554
Ni1 Ni9 2.417148 1_655
Ni1 Ni4 2.417148 1_654
Ni2 Ni6 2.434921 1_555
Ni2 Ni5 2.434921 1_545
Ni2 Ni3 2.518344 1_555
Ni2 Ni3 2.518344 1_545
Ni2 Ni4 2.520991 1_545
Ni2 Ni4 2.520991 1_655
Ni3 Ni5 2.406912 1_555
Ni3 Ni6 2.406912 1_555
Ni3 Ni4 2.463637 1_655
Ni3 Ni4 2.463637 1_555
Ni4 Ni5 2.408274 1_555
Ni4 Ni6 2.408274 1_455
Ni5 Ni8 2.406912 1_555
Ni5 Ni9 2.408274 1_555
Ni5 Ni7 2.434921 1_565
Ni6 Ni8 2.406912 1_555
Ni6 Ni9 2.408274 1_655
Ni6 Ni7 2.434921 1_555
Ni7 Ni8 2.518344 1_545
Ni7 Ni8 2.518344 1_555
Ni7 Ni9 2.520991 1_545
Ni7 Ni9 2.520991 1_655
Ni8 Ni9 2.463637 1_555
Ni8 Ni9 2.463637 1_655
H0 Ni1 1.631487 1_555
H0 Ni0 1.631487 1_545
H0 Ni7 1.900063 1_555
H0 Ni2 1.900063 1_554
