# generated using pymatgen
data_SbPO4
_symmetry_space_group_name_H-M   'P 1'
_cell_length_a   9.65348732
_cell_length_b   9.65348732
_cell_length_c   18.14519416
_cell_angle_alpha   62.03242708
_cell_angle_beta   62.03242708
_cell_angle_gamma   32.33351285
_symmetry_Int_Tables_number   1
_chemical_formula_structural   SbPO4
_chemical_formula_sum   'Sb8 P8 O32'
_cell_volume   789.25566689
_cell_formula_units_Z   8
loop_
 _symmetry_equiv_pos_site_id
 _symmetry_equiv_pos_as_xyz
  1  'x, y, z'
loop_
 _atom_site_type_symbol
 _atom_site_label
 _atom_site_symmetry_multiplicity
 _atom_site_fract_x
 _atom_site_fract_y
 _atom_site_fract_z
 _atom_site_occupancy
  Sb  Sb0  1  0.36626100  0.84831000  0.99777100  1
  Sb  Sb1  1  0.15169000  0.63373900  0.50222900  1
  Sb  Sb2  1  0.63373900  0.15169000  0.00222900  1
  Sb  Sb3  1  0.00000000  0.50000000  0.00000000  1
  Sb  Sb4  1  0.84831000  0.36626100  0.49777100  1
  Sb  Sb5  1  0.72485800  0.27514200  0.75000000  1
  Sb  Sb6  1  0.27514200  0.72485800  0.25000000  1
  Sb  Sb7  1  0.50000000  0.00000000  0.50000000  1
  P  P0  1  0.47514100  0.93112700  0.13874800  1
  P  P1  1  0.71861800  0.29252800  0.38617600  1
  P  P2  1  0.52485900  0.06887300  0.86125200  1
  P  P3  1  0.29252800  0.71861800  0.88617600  1
  P  P4  1  0.93112700  0.47514100  0.63874800  1
  P  P5  1  0.06887300  0.52485900  0.36125200  1
  P  P6  1  0.28138200  0.70747200  0.61382400  1
  P  P7  1  0.70747200  0.28138200  0.11382400  1
  O  O0  1  0.22505900  0.27604700  0.89987000  1
  O  O1  1  0.54803400  0.32336700  0.08205300  1
  O  O2  1  0.27604700  0.22505900  0.39987000  1
  O  O3  1  0.53986800  0.28809100  0.45645300  1
  O  O4  1  0.65095700  0.80673100  0.93076200  1
  O  O5  1  0.60400500  0.45289100  0.30265200  1
  O  O6  1  0.71190900  0.46013200  0.04354700  1
  O  O7  1  0.01127000  0.99841400  0.87876600  1
  O  O8  1  0.46013200  0.71190900  0.54354700  1
  O  O9  1  0.67663300  0.45196600  0.41794700  1
  O  O10  1  0.61964500  0.12596300  0.87760000  1
  O  O11  1  0.96205100  0.39790900  0.72748500  1
  O  O12  1  0.45196600  0.67663300  0.91794700  1
  O  O13  1  0.99841400  0.01127000  0.37876600  1
  O  O14  1  0.77494100  0.72395300  0.10013000  1
  O  O15  1  0.38035500  0.87403700  0.12240000  1
  O  O16  1  0.39790900  0.96205100  0.22748500  1
  O  O17  1  0.28809100  0.53986800  0.95645300  1
  O  O18  1  0.12596300  0.61964500  0.37760000  1
  O  O19  1  0.03794900  0.60209100  0.27251500  1
  O  O20  1  0.00158600  0.98873000  0.62123400  1
  O  O21  1  0.80673100  0.65095700  0.43076200  1
  O  O22  1  0.98873000  0.00158600  0.12123400  1
  O  O23  1  0.45289100  0.60400500  0.80265200  1
  O  O24  1  0.32336700  0.54803400  0.58205300  1
  O  O25  1  0.72395300  0.77494100  0.60013000  1
  O  O26  1  0.60209100  0.03794900  0.77251500  1
  O  O27  1  0.19326900  0.34904300  0.56923800  1
  O  O28  1  0.34904300  0.19326900  0.06923800  1
  O  O29  1  0.54710900  0.39599500  0.19734800  1
  O  O30  1  0.39599500  0.54710900  0.69734800  1
  O  O31  1  0.87403700  0.38035500  0.62240000  1
loop_
_geom_bond_atom_site_label_1
_geom_bond_atom_site_label_2
_geom_bond_distance
_geom_bond_site_symmetry_2
O0 P2 1.580432 1_555
O0 Sb3 2.177043 1_556
O1 P7 1.557062 1_555
O1 Sb2 2.083122 1_555
O2 P5 1.580432 1_555
O2 Sb7 2.177043 1_555
O3 P1 1.617191 1_555
O3 Sb1 2.101428 1_555
O4 P2 1.648386 1_565
O4 Sb0 2.156853 1_555
O4 Sb3 2.306612 1_656
O5 P1 1.547678 1_555
O5 Sb6 2.071536 1_555
O6 P7 1.617191 1_555
O6 Sb0 2.101428 1_554
O7 P3 1.514664 1_555
O7 Sb2 2.613179 1_466
O8 P6 1.617191 1_555
O8 Sb4 2.101428 1_555
O9 P1 1.557062 1_555
O9 Sb4 2.083122 1_555
O10 P2 1.577683 1_555
O10 Sb5 2.367468 1_555
O10 Sb2 2.463061 1_556
O11 P4 1.478620 1_555
O12 P3 1.557062 1_555
O12 Sb0 2.083122 1_555
O13 P1 1.514664 1_555
O13 Sb1 2.613179 1_645
O14 P0 1.580432 1_555
O14 Sb3 2.177043 1_655
O15 P0 1.577683 1_555
O15 Sb6 2.367468 1_555
O15 Sb0 2.463061 1_554
O16 P0 1.478620 1_555
O17 P3 1.617191 1_555
O17 Sb2 2.101428 1_556
O18 P5 1.577683 1_555
O18 Sb6 2.367468 1_555
O18 Sb1 2.463061 1_555
O19 P5 1.478620 1_555
O20 P6 1.514664 1_555
O20 Sb4 2.613179 1_465
O21 P5 1.648386 1_655
O21 Sb4 2.156853 1_555
O21 Sb7 2.306612 1_565
O22 P7 1.514664 1_555
O22 Sb0 2.613179 1_644
O23 P3 1.547678 1_555
O23 Sb5 2.071536 1_555
O24 P6 1.557062 1_555
O24 Sb1 2.083122 1_555
O25 P4 1.580432 1_555
O25 Sb7 2.177043 1_565
O26 P2 1.478620 1_555
O27 P4 1.648386 1_455
O27 Sb1 2.156853 1_555
O27 Sb7 2.306612 1_555
O28 P0 1.648386 1_545
O28 Sb2 2.156853 1_555
O28 Sb3 2.306612 1_555
O29 P7 1.547678 1_555
O29 Sb6 2.071536 1_555
O30 P6 1.547678 1_555
O30 Sb5 2.071536 1_555
O31 P4 1.577683 1_555
O31 Sb5 2.367468 1_555
O31 Sb4 2.463061 1_555
