# generated using pymatgen
data_Tb2Co17
_symmetry_space_group_name_H-M   'P 1'
_cell_length_a   6.28574820
_cell_length_b   6.28574820
_cell_length_c   6.28574815
_cell_angle_alpha   82.69301341
_cell_angle_beta   82.69301341
_cell_angle_gamma   82.69301436
_symmetry_Int_Tables_number   1
_chemical_formula_structural   Tb2Co17
_chemical_formula_sum   'Tb2 Co17'
_cell_volume   242.77607297
_cell_formula_units_Z   1
loop_
 _symmetry_equiv_pos_site_id
 _symmetry_equiv_pos_as_xyz
  1  'x, y, z'
loop_
 _atom_site_type_symbol
 _atom_site_label
 _atom_site_symmetry_multiplicity
 _atom_site_fract_x
 _atom_site_fract_y
 _atom_site_fract_z
 _atom_site_occupancy
  Tb  Tb0  1  0.65527100  0.65527100  0.65527100  1
  Tb  Tb1  1  0.34472900  0.34472900  0.34472900  1
  Co  Co0  1  0.00000000  0.00000000  0.50000000  1
  Co  Co1  1  0.00000000  0.50000000  0.00000000  1
  Co  Co2  1  0.50000000  0.00000000  0.00000000  1
  Co  Co3  1  0.28923500  0.71076500  0.00000000  1
  Co  Co4  1  0.71076500  0.00000000  0.28923500  1
  Co  Co5  1  0.00000000  0.28923500  0.71076500  1
  Co  Co6  1  0.28923500  0.00000000  0.71076500  1
  Co  Co7  1  0.00000000  0.71076500  0.28923500  1
  Co  Co8  1  0.71076500  0.28923500  0.00000000  1
  Co  Co9  1  0.34501300  0.34501300  0.84980100  1
  Co  Co10  1  0.34501300  0.84980100  0.34501300  1
  Co  Co11  1  0.84980100  0.34501300  0.34501300  1
  Co  Co12  1  0.65498700  0.65498700  0.15019900  1
  Co  Co13  1  0.65498700  0.15019900  0.65498700  1
  Co  Co14  1  0.15019900  0.65498700  0.65498700  1
  Co  Co15  1  0.90355800  0.90355800  0.90355800  1
  Co  Co16  1  0.09644200  0.09644200  0.09644200  1
loop_
_geom_bond_atom_site_label_1
_geom_bond_atom_site_label_2
_geom_bond_distance
_geom_bond_site_symmetry_2
Co0 Co4 2.381837 1_455
Co0 Co6 2.381837 1_555
Co0 Co7 2.381837 1_545
Co0 Co5 2.381837 1_555
Co0 Co13 2.391499 1_455
Co0 Co10 2.391499 1_545
Co0 Co11 2.391499 1_455
Co0 Co14 2.391499 1_545
Co0 Co15 2.545743 1_445
Co0 Co16 2.545743 1_555
Co0 Tb0 3.234462 1_445
Co0 Tb1 3.234462 1_555
Co1 Co3 2.381837 1_555
Co1 Co8 2.381837 1_455
Co1 Co5 2.381837 1_554
Co1 Co7 2.381837 1_555
Co1 Co14 2.391499 1_554
Co1 Co11 2.391499 1_455
Co1 Co12 2.391499 1_455
Co1 Co9 2.391499 1_554
Co1 Co15 2.545743 1_454
Co1 Co16 2.545743 1_555
Co1 Tb0 3.234462 1_454
Co1 Tb1 3.234462 1_555
Co2 Co3 2.381837 1_545
Co2 Co8 2.381837 1_555
Co2 Co4 2.381837 1_555
Co2 Co6 2.381837 1_554
Co2 Co9 2.391499 1_554
Co2 Tb0 3.234462 1_544
Co2 Tb1 3.234462 1_555
Co3 Co7 2.402060 1_555
Co3 Co6 2.402060 1_564
Co3 Co9 2.561772 1_554
Co3 Tb0 2.971649 1_554
Co3 Tb1 2.971649 1_555
Co4 Co8 2.402060 1_555
Co4 Co7 2.402060 1_645
Co4 Tb0 2.971649 1_545
Co4 Tb1 2.971649 1_555
Co5 Co8 2.402060 1_456
Co5 Co6 2.402060 1_555
Co5 Co9 2.518586 1_555
Co5 Tb1 2.971649 1_555
Co5 Tb0 2.971649 1_455
Co6 Co9 2.518586 1_555
Co6 Tb1 2.971649 1_555
Co6 Tb0 2.971649 1_545
Co7 Tb0 2.971649 1_455
Co7 Tb1 2.971649 1_555
Co8 Co9 2.561772 1_554
Co8 Tb1 2.971649 1_555
Co8 Tb0 2.971649 1_554
Co9 Tb0 2.975908 1_555
Co9 Tb1 3.110540 1_556
Co9 Tb1 3.175211 1_555
Co10 Co2 2.391499 1_565
Co10 Co14 2.441925 1_555
Co10 Co12 2.441925 1_555
Co10 Co3 2.518586 1_555
Co10 Co7 2.518586 1_555
Co10 Co6 2.561772 1_565
Co10 Co4 2.561772 1_565
Co10 Co16 2.583542 1_565
Co10 Tb0 2.975908 1_555
Co10 Tb1 3.110540 1_565
Co10 Tb1 3.175211 1_555
Co11 Co13 2.441925 1_555
Co11 Co12 2.441925 1_555
Co11 Co8 2.518586 1_555
Co11 Co4 2.518586 1_555
Co11 Co5 2.561772 1_655
Co11 Co7 2.561772 1_655
Co11 Co16 2.583542 1_655
Co11 Tb0 2.975908 1_555
Co11 Tb1 3.110540 1_655
Co11 Tb1 3.175211 1_555
Co12 Co2 2.391499 1_565
Co12 Co4 2.518586 1_565
Co12 Co7 2.518586 1_655
Co12 Co8 2.561772 1_555
Co12 Co3 2.561772 1_555
Co12 Co15 2.583542 1_554
Co12 Tb1 2.975908 1_555
Co12 Tb0 3.110540 1_554
Co12 Tb0 3.175211 1_555
Co13 Co2 2.391499 1_556
Co13 Co9 2.441925 1_555
Co13 Co8 2.518586 1_556
Co13 Co5 2.518586 1_655
Co13 Co4 2.561772 1_555
Co13 Co6 2.561772 1_555
Co13 Co15 2.583542 1_545
Co13 Tb1 2.975908 1_555
Co13 Tb0 3.110540 1_545
Co13 Tb0 3.175211 1_555
Co14 Co9 2.441925 1_555
Co14 Co3 2.518586 1_556
Co14 Co6 2.518586 1_565
Co14 Co7 2.561772 1_555
Co14 Co5 2.561772 1_555
Co14 Co15 2.583542 1_455
Co14 Tb1 2.975908 1_555
Co14 Tb0 3.110540 1_455
Co14 Tb0 3.175211 1_555
Co15 Co16 2.351943 1_666
Co15 Co2 2.545743 1_566
Co15 Co7 2.674472 1_656
Co15 Co5 2.674472 1_665
Co15 Co6 2.674472 1_665
Co15 Co4 2.674472 1_566
Co15 Co3 2.674472 1_656
Co15 Co8 2.674472 1_566
Co15 Tb0 3.027503 1_555
Co16 Co2 2.545743 1_555
Co16 Co9 2.583542 1_554
Co16 Co4 2.674472 1_455
Co16 Co6 2.674472 1_554
Co16 Co5 2.674472 1_554
Co16 Co7 2.674472 1_545
Co16 Co3 2.674472 1_545
Co16 Co8 2.674472 1_455
Co16 Tb1 3.027503 1_555
