# generated using pymatgen
data_Rb2PaF7
_symmetry_space_group_name_H-M   'P 1'
_cell_length_a   7.86147933
_cell_length_b   7.86147933
_cell_length_c   8.18366863
_cell_angle_alpha   59.22044744
_cell_angle_beta   59.22044744
_cell_angle_gamma   52.45960171
_symmetry_Int_Tables_number   1
_chemical_formula_structural   Rb2PaF7
_chemical_formula_sum   'Rb4 Pa2 F14'
_cell_volume   329.37926002
_cell_formula_units_Z   2
loop_
 _symmetry_equiv_pos_site_id
 _symmetry_equiv_pos_as_xyz
  1  'x, y, z'
loop_
 _atom_site_type_symbol
 _atom_site_label
 _atom_site_symmetry_multiplicity
 _atom_site_fract_x
 _atom_site_fract_y
 _atom_site_fract_z
 _atom_site_occupancy
  Rb  Rb0  1  0.31860884  0.33697337  0.11210787  1
  Rb  Rb1  1  0.66302663  0.68139116  0.38789213  1
  Rb  Rb2  1  0.68139116  0.66302663  0.88789213  1
  Rb  Rb3  1  0.33697337  0.31860884  0.61210787  1
  Pa  Pa0  1  0.02528357  0.97471643  0.25000000  1
  Pa  Pa1  1  0.97471643  0.02528357  0.75000000  1
  F  F0  1  0.94560050  0.71064097  0.48692105  1
  F  F1  1  0.28935903  0.05439950  0.01307895  1
  F  F2  1  0.05439950  0.28935903  0.51307895  1
  F  F3  1  0.71064097  0.94560050  0.98692105  1
  F  F4  1  0.34310987  0.65689013  0.25000000  1
  F  F5  1  0.65689013  0.34310987  0.75000000  1
  F  F6  1  0.89460738  0.32619118  0.20947884  1
  F  F7  1  0.67380882  0.10539262  0.29052116  1
  F  F8  1  0.10539262  0.67380882  0.79052116  1
  F  F9  1  0.32619118  0.89460738  0.70947884  1
  F  F10  1  0.05545753  0.79843778  0.07879923  1
  F  F11  1  0.20156222  0.94454247  0.42120077  1
  F  F12  1  0.94454247  0.20156222  0.92120077  1
  F  F13  1  0.79843778  0.05545753  0.57879923  1
loop_
_geom_bond_atom_site_label_1
_geom_bond_atom_site_label_2
_geom_bond_distance
_geom_bond_site_symmetry_2
F0 Pa0 2.164172 1_655
F0 Rb2 2.817208 1_555
F0 Rb1 2.881021 1_555
F0 Rb3 2.907468 1_655
F1 Pa0 2.164172 1_545
F1 Rb3 2.817208 1_554
F1 Rb0 2.881021 1_555
F1 Rb2 2.907468 1_544
F2 Pa1 2.164172 1_455
F2 Rb0 2.817208 1_555
F2 Rb3 2.881021 1_555
F2 Rb1 2.907468 1_455
F3 Pa1 2.164172 1_565
F3 Rb1 2.817208 1_556
F3 Rb2 2.881021 1_555
F3 Rb0 2.907468 1_566
F4 Pa0 2.208612 1_555
F4 Rb3 2.792945 1_555
F4 Rb2 2.792945 1_554
F4 Rb0 3.369478 1_555
F4 Rb1 3.369478 1_555
F5 Pa1 2.208612 1_555
F5 Rb1 2.792945 1_555
F5 Rb0 2.792945 1_556
F5 Rb3 3.369478 1_555
F5 Rb2 3.369478 1_555
F6 Pa0 2.179861 1_645
F6 Rb1 2.915605 1_555
F6 Rb2 2.953150 1_554
F6 Rb0 3.051166 1_655
F7 Pa0 2.179861 1_645
F7 Rb0 2.915605 1_555
F7 Rb3 2.953150 1_555
F7 Rb1 3.051166 1_545
F8 Pa1 2.179861 1_465
F8 Rb3 2.915605 1_555
F8 Rb0 2.953150 1_556
F8 Rb2 3.051166 1_455
F9 Pa1 2.179861 1_465
F9 Rb2 2.915605 1_555
F9 Rb1 2.953150 1_555
F9 Rb3 3.051166 1_565
F10 Pa0 2.277300 1_555
F10 Pa1 2.506171 1_464
F10 Rb0 2.816747 1_555
F10 Rb1 3.138982 1_455
F11 Pa0 2.277300 1_555
F11 Pa1 2.506171 1_465
F11 Rb1 2.816747 1_555
F11 Rb0 3.138982 1_565
F12 Pa1 2.277300 1_555
F12 Pa0 2.506171 1_646
F12 Rb2 2.816747 1_555
F12 Rb3 3.138982 1_655
F13 Pa1 2.277300 1_555
F13 Pa0 2.506171 1_645
F13 Rb3 2.816747 1_555
F13 Rb2 3.138982 1_545
