# generated using pymatgen
data_YbAlB14
_symmetry_space_group_name_H-M   'P 1'
_cell_length_a   7.27997855
_cell_length_b   7.27997855
_cell_length_c   7.27997855
_cell_angle_alpha   132.22527425
_cell_angle_beta   110.92228875
_cell_angle_gamma   88.32966615
_symmetry_Int_Tables_number   1
_chemical_formula_structural   YbAlB14
_chemical_formula_sum   'Yb2 Al2 B28'
_cell_volume   254.16819511
_cell_formula_units_Z   2
loop_
 _symmetry_equiv_pos_site_id
 _symmetry_equiv_pos_as_xyz
  1  'x, y, z'
loop_
 _atom_site_type_symbol
 _atom_site_label
 _atom_site_symmetry_multiplicity
 _atom_site_fract_x
 _atom_site_fract_y
 _atom_site_fract_z
 _atom_site_occupancy
  Yb  Yb0  1  0.60137700  0.25000000  0.35137700  1
  Yb  Yb1  1  0.39862300  0.75000000  0.64862300  1
  Al  Al0  1  0.00000000  0.00000000  0.50000000  1
  Al  Al1  1  0.00000000  0.50000000  0.00000000  1
  B  B0  1  0.63128900  0.66668300  0.96460600  1
  B  B1  1  0.36871100  0.33331700  0.03539400  1
  B  B2  1  0.20207700  0.16668300  0.03539400  1
  B  B3  1  0.79792300  0.83331700  0.96460600  1
  B  B4  1  0.77072100  0.14553300  0.62518700  1
  B  B5  1  0.22927900  0.85446700  0.37481300  1
  B  B6  1  0.02034600  0.64553300  0.37481300  1
  B  B7  1  0.97965400  0.35446700  0.62518700  1
  B  B8  1  0.92164400  0.08892600  0.83271800  1
  B  B9  1  0.07835600  0.91107400  0.16728200  1
  B  B10  1  0.75620900  0.58892600  0.16728200  1
  B  B11  1  0.24379100  0.41107400  0.83271800  1
  B  B12  1  0.39819600  0.39724500  0.67526600  1
  B  B13  1  0.60180400  0.27707000  0.99905000  1
  B  B14  1  0.22197900  0.89724500  0.99905000  1
  B  B15  1  0.77802100  0.77707000  0.67526600  1
  B  B16  1  0.60180400  0.60275500  0.32473400  1
  B  B17  1  0.39819600  0.72293000  0.00095000  1
  B  B18  1  0.77802100  0.10275500  0.00095000  1
  B  B19  1  0.22197900  0.22293000  0.32473400  1
  B  B20  1  0.03229700  0.83142900  0.70464300  1
  B  B21  1  0.96770300  0.67234600  0.79913200  1
  B  B22  1  0.62678600  0.33142900  0.79913200  1
  B  B23  1  0.37321400  0.17234600  0.70464300  1
  B  B24  1  0.96770300  0.16857100  0.29535700  1
  B  B25  1  0.03229700  0.32765400  0.20086800  1
  B  B26  1  0.37321400  0.66857100  0.20086800  1
  B  B27  1  0.62678600  0.82765400  0.29535700  1
loop_
_geom_bond_atom_site_label_1
_geom_bond_atom_site_label_2
_geom_bond_distance
_geom_bond_site_symmetry_2
Al0 B4 2.103485 1_455
Al0 B5 2.103485 1_545
Al0 B7 2.103492 1_455
Al0 B6 2.103492 1_545
Al0 B11 2.338605 1_555
Al0 B10 2.338605 1_445
Al0 B8 2.338608 1_455
Al0 B9 2.338608 1_545
Al0 B23 2.443594 1_555
Al0 B20 2.443594 1_545
Al0 B24 2.443594 1_455
Al0 B27 2.443594 1_445
Al1 B5 2.103490 1_555
Al1 B4 2.103490 1_454
Al1 B7 2.103492 1_454
Al1 B6 2.103492 1_555
Al1 B11 2.338601 1_554
Al1 B10 2.338601 1_455
Al1 B8 2.338608 1_454
Al1 B9 2.338608 1_555
Al1 B26 2.443594 1_555
Al1 B21 2.443594 1_454
Al1 B22 2.443594 1_454
Al1 B25 2.443594 1_555
B0 B3 1.740395 1_555
B0 B17 1.803252 1_556
B0 B12 1.803254 1_555
B0 B22 1.853012 1_555
B0 B27 1.853012 1_556
B0 B10 1.859779 1_556
B0 Yb1 2.749760 1_555
B1 B2 1.740395 1_555
B1 B13 1.803252 1_554
B1 B16 1.803254 1_555
B1 B23 1.853012 1_554
B1 B26 1.853012 1_555
B1 B11 1.859779 1_554
B1 Yb0 2.749760 1_555
B2 B20 1.853012 1_544
B2 B25 1.853012 1_555
B2 B8 1.859777 1_454
B2 Yb0 2.749760 1_555
B3 B9 1.859777 1_656
B3 Yb1 2.749760 1_555
B4 B8 1.812313 1_555
B4 B7 2.182188 1_555
B4 Yb0 2.509870 1_555
B5 B9 1.812313 1_555
B5 B6 2.182188 1_555
B5 Yb1 2.509870 1_555
B6 Yb1 2.509868 1_555
B7 Yb0 2.509868 1_555
B10 B22 1.769585 1_554
B10 B27 1.769590 1_555
B10 B6 1.812309 1_655
B10 B13 1.829223 1_554
B10 B16 1.829223 1_555
B11 B26 1.769585 1_556
B11 B23 1.769590 1_555
B11 B7 1.812309 1_455
B11 B17 1.829223 1_556
B11 B12 1.829223 1_555
B12 B19 1.781101 1_555
B12 B22 1.809570 1_555
B12 B23 1.809753 1_555
B12 B17 1.920206 1_556
B12 Yb1 2.702387 1_555
B12 Yb0 2.810323 1_555
B13 B18 1.781098 1_556
B13 B23 1.809574 1_555
B13 B22 1.809761 1_555
B13 B16 1.920206 1_556
B13 Yb0 2.702380 1_556
B13 Yb1 2.810322 1_545
B14 B17 1.781098 1_556
B14 B2 1.803258 1_566
B14 B20 1.809575 1_555
B14 B21 1.809752 1_455
B14 B9 1.829211 1_556
B14 B19 1.920206 1_566
B14 Yb0 2.702387 1_566
B14 Yb1 2.810329 1_555
B15 B16 1.781101 1_555
B15 B3 1.803254 1_555
B15 B21 1.809570 1_555
B15 B20 1.809753 1_655
B15 B8 1.829217 1_565
B15 B18 1.920206 1_566
B15 Yb1 2.702387 1_555
B15 Yb0 2.810323 1_555
B16 B26 1.809570 1_555
B16 B27 1.809753 1_555
B16 Yb0 2.702387 1_555
B16 Yb1 2.810323 1_555
B17 B27 1.809574 1_555
B17 B26 1.809761 1_555
B17 Yb1 2.702380 1_554
B17 Yb0 2.810322 1_565
B18 B3 1.803258 1_544
B18 B24 1.809575 1_555
B18 B25 1.809752 1_655
B18 B8 1.829211 1_554
B18 Yb1 2.702387 1_544
B18 Yb0 2.810329 1_555
B19 B2 1.803254 1_555
B19 B25 1.809570 1_555
B19 B24 1.809753 1_455
B19 B9 1.829217 1_545
B19 Yb0 2.702387 1_555
B19 Yb1 2.810323 1_555
B20 B6 1.759141 1_555
B20 B8 1.769585 1_465
B20 B21 1.835507 1_455
B20 Yb1 2.826563 1_555
B21 B7 1.759141 1_555
B21 B9 1.769585 1_656
B21 B3 1.853012 1_555
B21 Yb0 2.826563 1_555
B22 B4 1.759147 1_555
B22 B23 1.835507 1_555
B22 Yb0 2.826563 1_555
B23 B5 1.759142 1_545
B23 Yb1 2.826563 1_545
B24 B7 1.759141 1_555
B24 B9 1.769585 1_645
B24 B25 1.835507 1_655
B24 B3 1.853012 1_544
B24 Yb0 2.826563 1_555
B25 B6 1.759141 1_555
B25 B8 1.769585 1_454
B25 Yb1 2.826563 1_555
B26 B5 1.759147 1_555
B26 B27 1.835507 1_555
B26 Yb1 2.826563 1_555
B27 B4 1.759142 1_565
B27 Yb0 2.826563 1_565
