# generated using pymatgen
data_Sr2LiSiO4
_symmetry_space_group_name_H-M   'P 1'
_cell_length_a   5.98219849
_cell_length_b   5.98219849
_cell_length_c   13.59728100
_cell_angle_alpha   90.00000000
_cell_angle_beta   90.00000000
_cell_angle_gamma   120.00000538
_symmetry_Int_Tables_number   1
_chemical_formula_structural   Sr2LiSiO4
_chemical_formula_sum   'Sr6 Li3 Si3 O12'
_cell_volume   421.40949635
_cell_formula_units_Z   3
loop_
 _symmetry_equiv_pos_site_id
 _symmetry_equiv_pos_as_xyz
  1  'x, y, z'
loop_
 _atom_site_type_symbol
 _atom_site_label
 _atom_site_symmetry_multiplicity
 _atom_site_fract_x
 _atom_site_fract_y
 _atom_site_fract_z
 _atom_site_occupancy
  Sr  Sr0  1  0.18215000  0.52258900  0.93225600  1
  Sr  Sr1  1  0.47741100  0.65956100  0.26559000  1
  Sr  Sr2  1  0.52258900  0.18215000  0.06774400  1
  Sr  Sr3  1  0.34043900  0.81785000  0.59892300  1
  Sr  Sr4  1  0.65956100  0.47741100  0.73441000  1
  Sr  Sr5  1  0.81785000  0.34043900  0.40107700  1
  Li  Li0  1  0.74002100  0.00000000  0.83333300  1
  Li  Li1  1  0.00000000  0.74002100  0.16666700  1
  Li  Li2  1  0.25997900  0.25997900  0.50000000  1
  Si  Si0  1  0.19954600  0.00000000  0.33333300  1
  Si  Si1  1  0.00000000  0.19954600  0.66666700  1
  Si  Si2  1  0.80045400  0.80045400  0.00000000  1
  O  O0  1  0.26105600  0.18134000  0.64220600  1
  O  O1  1  0.81866000  0.07971600  0.97554000  1
  O  O2  1  0.18134000  0.26105600  0.35779400  1
  O  O3  1  0.92028400  0.73894400  0.30887300  1
  O  O4  1  0.07971600  0.81866000  0.02446000  1
  O  O5  1  0.73894400  0.92028400  0.69112700  1
  O  O6  1  0.96539400  0.35007600  0.56979400  1
  O  O7  1  0.64992400  0.61531900  0.90312800  1
  O  O8  1  0.35007600  0.96539400  0.43020600  1
  O  O9  1  0.38468100  0.03460600  0.23646100  1
  O  O10  1  0.61531900  0.64992400  0.09687200  1
  O  O11  1  0.03460600  0.38468100  0.76353900  1
loop_
_geom_bond_atom_site_label_1
_geom_bond_atom_site_label_2
_geom_bond_distance
_geom_bond_site_symmetry_2
Li0 O5 1.990791 1_545
Li0 O1 1.990804 1_555
Li0 O11 2.290524 1_655
Li0 O7 2.290528 1_545
Li1 O3 1.990791 1_455
Li1 O4 1.990804 1_555
Li1 O9 2.290524 1_565
Li1 O10 2.290528 1_455
Li2 O2 1.990791 1_555
Li2 O0 1.990791 1_555
Li2 O6 2.290528 1_455
Li2 O8 2.290528 1_545
O0 Si1 1.652708 1_555
O0 Sr4 2.483877 1_555
O0 Sr3 2.516510 1_545
O1 Si2 1.652706 1_546
O1 Sr2 2.483877 1_556
O1 Sr0 2.516513 1_655
O2 Si0 1.652708 1_555
O2 Sr1 2.483877 1_555
O2 Sr5 2.516510 1_455
O3 Si0 1.652706 1_665
O3 Sr5 2.483877 1_555
O3 Sr1 2.516510 1_555
O4 Si2 1.652706 1_455
O4 Sr0 2.483877 1_554
O4 Sr2 2.516513 1_565
O5 Si1 1.652706 1_665
O5 Sr3 2.483877 1_555
O5 Sr4 2.516510 1_555
O6 Si1 1.665899 1_655
O6 Sr5 2.448336 1_555
O6 Sr3 2.596705 1_655
O7 Si2 1.665886 1_556
O7 Sr4 2.448351 1_555
O7 Sr0 2.596701 1_555
O8 Si0 1.665899 1_565
O8 Sr3 2.448336 1_555
O8 Sr5 2.596705 1_565
O9 Si0 1.665885 1_555
O9 Sr2 2.448337 1_555
O9 Sr1 2.596709 1_545
O10 Si2 1.665886 1_555
O10 Sr1 2.448351 1_555
O10 Sr2 2.596701 1_555
O11 Si1 1.665885 1_555
O11 Sr0 2.448337 1_555
O11 Sr4 2.596709 1_455
