# generated using pymatgen
data_MgAu4Se4(ClO3)4
_symmetry_space_group_name_H-M   'P 1'
_cell_length_a   4.48899335
_cell_length_b   10.03967366
_cell_length_c   11.31686819
_cell_angle_alpha   82.73973835
_cell_angle_beta   96.28235341
_cell_angle_gamma   84.41267003
_symmetry_Int_Tables_number   1
_chemical_formula_structural   MgAu4Se4(ClO3)4
_chemical_formula_sum   'Mg1 Au4 Se4 Cl4 O12'
_cell_volume   499.69354790
_cell_formula_units_Z   1
loop_
 _symmetry_equiv_pos_site_id
 _symmetry_equiv_pos_as_xyz
  1  'x, y, z'
loop_
 _atom_site_type_symbol
 _atom_site_label
 _atom_site_symmetry_multiplicity
 _atom_site_fract_x
 _atom_site_fract_y
 _atom_site_fract_z
 _atom_site_occupancy
  Mg  Mg0  1  0.95571900  0.38929600  0.55235800  1
  Au  Au0  1  0.04160200  0.57598100  0.18404700  1
  Au  Au1  1  0.96415000  0.00317300  0.01214700  1
  Au  Au2  1  0.98692500  0.42978600  0.80869700  1
  Au  Au3  1  0.97385300  0.98989600  0.50974100  1
  Se  Se0  1  0.74371700  0.85586500  0.26574700  1
  Se  Se1  1  0.16013200  0.71253500  0.91228600  1
  Se  Se2  1  0.76885200  0.29587200  0.09692100  1
  Se  Se3  1  0.25660200  0.11550600  0.74797800  1
  Cl  Cl0  1  0.43510800  0.48087700  0.56932700  1
  Cl  Cl1  1  0.75423200  0.49779000  0.33290100  1
  Cl  Cl2  1  0.20189500  0.18834400  0.46288700  1
  Cl  Cl3  1  0.73953700  0.79877500  0.54872100  1
  O  O0  1  0.65477000  0.94573900  0.12275900  1
  O  O1  1  0.63691300  0.32572600  0.95162300  1
  O  O2  1  0.07582700  0.75421400  0.25585500  1
  O  O3  1  0.05305300  0.15574900  0.10611000  1
  O  O4  1  0.07296400  0.40179300  0.11386700  1
  O  O5  1  0.87612000  0.84065300  0.92814700  1
  O  O6  1  0.31057500  0.64723400  0.06078100  1
  O  O7  1  0.99317600  0.26289100  0.71247400  1
  O  O8  1  0.91950200  0.98366000  0.33116400  1
  O  O9  1  0.89405700  0.60946600  0.87254500  1
  O  O10  1  0.26928300  0.06348900  0.89841700  1
  O  O11  1  0.02532600  0.00069300  0.69012000  1
loop_
_geom_bond_atom_site_label_1
_geom_bond_atom_site_label_2
_geom_bond_distance
_geom_bond_site_symmetry_2
Mg0 O7 2.057360 1_555
Au0 O4 2.009093 1_555
Au0 O6 2.049431 1_555
Au0 O2 2.068742 1_555
Au0 Cl1 2.335945 1_455
Au1 O3 2.018499 1_655
Au1 O5 2.038990 1_544
Au1 O0 2.045043 1_545
Au1 O10 2.061499 1_654
Au2 O9 2.049141 1_555
Au2 O7 2.110173 1_555
Au2 O1 2.573924 1_555
Au3 O8 2.018578 1_555
Au3 O11 2.046882 1_665
Au3 Cl3 2.294200 1_555
Au3 Cl2 2.355307 1_665
Cl0 Mg0 2.419239 1_455
Cl0 Mg0 2.463401 1_555
Cl1 Mg0 2.608718 1_555
Cl2 Mg0 2.577550 1_455
O0 Se0 1.735360 1_555
O1 Se2 1.664971 1_556
O2 Se0 1.745215 1_455
O3 Se2 1.789408 1_455
O4 Se2 1.818849 1_455
O5 Se1 1.761035 1_655
O6 Se1 1.759802 1_554
O7 Se3 1.776038 1_655
O8 Se0 1.768121 1_555
O9 Se1 1.714755 1_655
O10 Se3 1.709604 1_555
O11 Se3 1.763599 1_555
