# generated using pymatgen
data_Li3(FeO3)2
_symmetry_space_group_name_H-M   'P 1'
_cell_length_a   5.01061661
_cell_length_b   8.76536595
_cell_length_c   5.12006403
_cell_angle_alpha   73.95458240
_cell_angle_beta   101.17790871
_cell_angle_gamma   96.18153998
_symmetry_Int_Tables_number   1
_chemical_formula_structural   Li3(FeO3)2
_chemical_formula_sum   'Li6 Fe4 O12'
_cell_volume   211.66330407
_cell_formula_units_Z   2
loop_
 _symmetry_equiv_pos_site_id
 _symmetry_equiv_pos_as_xyz
  1  'x, y, z'
loop_
 _atom_site_type_symbol
 _atom_site_label
 _atom_site_symmetry_multiplicity
 _atom_site_fract_x
 _atom_site_fract_y
 _atom_site_fract_z
 _atom_site_occupancy
  Li  Li0  1  0.74988700  0.24995300  0.74991500  1
  Li  Li1  1  0.25005100  0.74956500  0.24988100  1
  Li  Li2  1  0.24030100  0.42972400  0.55495900  1
  Li  Li3  1  0.72178500  0.92474800  0.07613400  1
  Li  Li4  1  0.25956400  0.07015700  0.94540300  1
  Li  Li5  1  0.77816100  0.57521700  0.42403200  1
  Fe  Fe0  1  0.99865900  0.83280300  0.66964300  1
  Fe  Fe1  1  0.00080800  0.16440300  0.33806700  1
  Fe  Fe2  1  0.49909800  0.33564900  0.16171300  1
  Fe  Fe3  1  0.50143100  0.66726900  0.83034000  1
  O  O0  1  0.64773300  0.14914900  0.12042000  1
  O  O1  1  0.15970900  0.64597200  0.61152100  1
  O  O2  1  0.85224000  0.35095100  0.37957800  1
  O  O3  1  0.34041700  0.85409100  0.88853500  1
  O  O4  1  0.14919000  0.27198500  0.00650300  1
  O  O5  1  0.65841900  0.77066100  0.49550100  1
  O  O6  1  0.91534600  0.05208100  0.67936800  1
  O  O7  1  0.41908600  0.53011100  0.19968300  1
  O  O8  1  0.35082000  0.22812600  0.49340200  1
  O  O9  1  0.84174900  0.72936600  0.00459900  1
  O  O10  1  0.58470100  0.44795400  0.82059500  1
  O  O11  1  0.08084500  0.97006400  0.30020800  1
loop_
_geom_bond_atom_site_label_1
_geom_bond_atom_site_label_2
_geom_bond_distance
_geom_bond_site_symmetry_2
Li0 O2 1.998358 1_555
Li0 O0 1.998460 1_556
Li0 O6 2.144318 1_555
Li0 O10 2.144958 1_555
Li0 O8 2.190464 1_555
Li0 O4 2.191846 1_656
Li1 O1 1.940345 1_555
Li1 O3 1.940564 1_554
Li1 O9 2.200630 1_455
Li1 O5 2.202713 1_555
Li1 O7 2.278640 1_555
Li1 O11 2.287718 1_555
Li2 O10 2.001002 1_555
Li2 O8 2.028510 1_555
Li2 O1 2.086495 1_555
Li2 O2 2.107258 1_455
Li2 O7 2.112552 1_555
Li2 O4 2.443637 1_556
Li3 O11 2.002140 1_655
Li3 O9 2.020457 1_555
Li3 O3 2.078466 1_554
Li3 O0 2.119989 1_565
Li3 O5 2.259256 1_555
Li3 O6 2.364441 1_564
Li4 O6 2.001201 1_455
Li4 O4 2.029075 1_556
Li4 O3 2.086039 1_545
Li4 O0 2.107730 1_556
Li4 O11 2.110033 1_546
Li4 O8 2.446367 1_555
Li5 O7 2.002359 1_555
Li5 O5 2.020331 1_555
Li5 O1 2.079260 1_655
Li5 O2 2.119216 1_555
Li5 O9 2.259994 1_555
Li5 O10 2.363218 1_555
Fe0 O5 1.864729 1_555
Fe0 O3 1.877753 1_655
Fe0 O9 1.972584 1_556
Fe0 O1 2.017107 1_655
Fe0 O6 2.026027 1_565
Fe0 O11 2.032800 1_655
Fe1 O6 1.858669 1_455
Fe1 O11 1.860093 1_545
Fe1 O8 1.874587 1_555
Fe1 O0 1.912212 1_455
Fe1 O4 1.943546 1_555
Fe1 O2 1.946455 1_455
Fe2 O10 1.858098 1_554
Fe2 O7 1.861322 1_555
Fe2 O4 1.873789 1_555
Fe2 O2 1.913010 1_555
Fe2 O8 1.943702 1_555
Fe2 O0 1.945774 1_555
Fe3 O9 1.865138 1_556
Fe3 O1 1.877458 1_555
Fe3 O5 1.972225 1_555
Fe3 O3 2.017111 1_555
Fe3 O10 2.026310 1_555
Fe3 O7 2.032393 1_556
