# generated using pymatgen
data_LiMg14BO15
_symmetry_space_group_name_H-M   'P 1'
_cell_length_a   8.33944074
_cell_length_b   8.64197679
_cell_length_c   4.23631364
_cell_angle_alpha   90.00000000
_cell_angle_beta   90.00000000
_cell_angle_gamma   90.00000000
_symmetry_Int_Tables_number   1
_chemical_formula_structural   LiMg14BO15
_chemical_formula_sum   'Li1 Mg14 B1 O15'
_cell_volume   305.30796085
_cell_formula_units_Z   1
loop_
 _symmetry_equiv_pos_site_id
 _symmetry_equiv_pos_as_xyz
  1  'x, y, z'
loop_
 _atom_site_type_symbol
 _atom_site_label
 _atom_site_symmetry_multiplicity
 _atom_site_fract_x
 _atom_site_fract_y
 _atom_site_fract_z
 _atom_site_occupancy
  Li  Li0  1  0.00149163  -0.00000000  0.00000000  1
  Mg  Mg0  1  0.00335369  0.50000000  0.00000000  1
  Mg  Mg1  1  0.50175616  -0.00000000  0.00000000  1
  Mg  Mg2  1  0.00122616  0.24473782  0.50000000  1
  Mg  Mg3  1  0.00122616  0.75526218  0.50000000  1
  Mg  Mg4  1  0.50162775  0.25095392  0.50000000  1
  Mg  Mg5  1  0.50162775  0.74904608  0.50000000  1
  Mg  Mg6  1  0.24557948  -0.00000000  0.50000000  1
  Mg  Mg7  1  0.26560072  0.50000000  0.50000000  1
  Mg  Mg8  1  0.75714677  -0.00000000  0.50000000  1
  Mg  Mg9  1  0.74250677  0.50000000  0.50000000  1
  Mg  Mg10  1  0.25368344  0.23728564  -0.00000000  1
  Mg  Mg11  1  0.25368344  0.76271436  -0.00000000  1
  Mg  Mg12  1  0.74993328  0.23694314  -0.00000000  1
  Mg  Mg13  1  0.74993328  0.76305686  0.00000000  1
  B  B0  1  0.51623174  0.50000000  0.00000000  1
  O  O0  1  0.25378234  -0.00000000  0.00000000  1
  O  O1  1  0.74906348  -0.00000000  0.00000000  1
  O  O2  1  0.68670100  0.50000000  0.00000000  1
  O  O3  1  0.25143557  0.25704422  0.50000000  1
  O  O4  1  0.25143557  0.74295578  0.50000000  1
  O  O5  1  0.75157643  0.25463649  0.50000000  1
  O  O6  1  0.75157643  0.74536351  0.50000000  1
  O  O7  1  0.00203342  -0.00000000  0.50000000  1
  O  O8  1  -0.00175533  0.50000000  0.50000000  1
  O  O9  1  0.50035193  -0.00000000  0.50000000  1
  O  O10  1  0.50211864  0.50000000  0.50000000  1
  O  O11  1  0.00094287  0.26967194  0.00000000  1
  O  O12  1  0.00094287  0.73032806  0.00000000  1
  O  O13  1  0.50159330  0.24360088  -0.00000000  1
  O  O14  1  0.50159330  0.75639912  -0.00000000  1
loop_
_geom_bond_atom_site_label_1
_geom_bond_atom_site_label_2
_geom_bond_distance
_geom_bond_site_symmetry_2
Li0 O0 2.103963 1_555
Li0 O1 2.105110 1_455
Li0 O7 2.118162 1_555
Li0 O7 2.118162 1_554
Li0 O12 2.330503 1_545
Li0 O11 2.330503 1_555
Mg0 O11 1.990591 1_555
Mg0 O12 1.990591 1_555
Mg0 O8 2.118585 1_555
Mg0 O8 2.118585 1_554
Mg0 O2 2.640706 1_455
Mg1 O1 2.062405 1_555
Mg1 O0 2.067963 1_555
Mg1 O13 2.105194 1_555
Mg1 O14 2.105194 1_545
Mg1 O9 2.118189 1_555
Mg1 O9 2.118189 1_554
Mg2 O5 2.083696 1_455
Mg2 O3 2.089315 1_555
Mg2 O7 2.115029 1_555
Mg2 O11 2.129090 1_556
Mg2 O11 2.129090 1_555
Mg2 O8 2.206110 1_555
Mg3 O6 2.083696 1_455
Mg3 O4 2.089315 1_555
Mg3 O7 2.115029 1_565
Mg3 O12 2.129090 1_556
Mg3 O12 2.129090 1_555
Mg3 O8 2.206110 1_555
Mg4 O5 2.084675 1_555
Mg4 O3 2.087127 1_555
Mg4 O13 2.119110 1_556
Mg4 O13 2.119110 1_555
Mg4 O10 2.152254 1_555
Mg4 O9 2.168764 1_555
Mg5 O6 2.084675 1_555
Mg5 O4 2.087127 1_555
Mg5 O14 2.119110 1_556
Mg5 O14 2.119110 1_555
Mg5 O10 2.152254 1_555
Mg5 O9 2.168764 1_565
Mg6 O7 2.031038 1_555
Mg6 O0 2.119261 1_555
Mg6 O0 2.119261 1_556
Mg6 O9 2.124660 1_555
Mg6 O4 2.221907 1_545
Mg6 O3 2.221907 1_555
Mg7 O10 1.972427 1_555
Mg7 O3 2.102939 1_555
Mg7 O4 2.102939 1_555
Mg7 O8 2.229600 1_555
Mg8 O7 2.042218 1_655
Mg8 O1 2.119229 1_556
Mg8 O1 2.119229 1_555
Mg8 O9 2.141525 1_555
Mg8 O5 2.201053 1_555
Mg8 O6 2.201053 1_545
Mg9 O10 2.004703 1_555
Mg9 O5 2.121774 1_555
Mg9 O6 2.121774 1_555
Mg9 O8 2.132711 1_655
Mg9 O2 2.168681 1_556
Mg9 O2 2.168681 1_555
Mg10 O0 2.050617 1_555
Mg10 O13 2.068150 1_555
Mg10 O3 2.125111 1_555
Mg10 O3 2.125111 1_554
Mg10 O11 2.126216 1_555
Mg11 O0 2.050617 1_565
Mg11 O14 2.068150 1_555
Mg11 O4 2.125111 1_554
Mg11 O4 2.125111 1_555
Mg11 O12 2.126216 1_555
Mg12 O1 2.047670 1_555
Mg12 O13 2.071816 1_555
Mg12 O11 2.112302 1_655
Mg12 O5 2.123713 1_554
Mg12 O5 2.123713 1_555
Mg12 O2 2.333689 1_555
Mg13 O1 2.047670 1_565
Mg13 O14 2.071816 1_555
Mg13 O12 2.112302 1_655
Mg13 O6 2.123713 1_555
Mg13 O6 2.123713 1_554
Mg13 O2 2.333689 1_555
B0 O2 1.421618 1_555
B0 O10 2.121424 1_554
B0 O10 2.121424 1_555
B0 O14 2.219156 1_555
B0 O13 2.219156 1_555
