# generated using pymatgen
data_SmMgAg
_symmetry_space_group_name_H-M   'P 1'
_cell_length_a   7.69077427
_cell_length_b   7.69077427
_cell_length_c   4.28127008
_cell_angle_alpha   90.00000000
_cell_angle_beta   90.00000000
_cell_angle_gamma   119.99998957
_symmetry_Int_Tables_number   1
_chemical_formula_structural   SmMgAg
_chemical_formula_sum   'Sm3 Mg3 Ag3'
_cell_volume   219.30242404
_cell_formula_units_Z   3
loop_
 _symmetry_equiv_pos_site_id
 _symmetry_equiv_pos_as_xyz
  1  'x, y, z'
loop_
 _atom_site_type_symbol
 _atom_site_label
 _atom_site_symmetry_multiplicity
 _atom_site_fract_x
 _atom_site_fract_y
 _atom_site_fract_z
 _atom_site_occupancy
  Sm  Sm0  1  0.00000000  0.41497300  0.50000000  1
  Sm  Sm1  1  0.58502700  0.58502700  0.50000000  1
  Sm  Sm2  1  0.41497300  0.00000000  0.50000000  1
  Mg  Mg0  1  0.00000000  0.75988515  -0.00000000  1
  Mg  Mg1  1  0.24011485  0.24011485  0.00000000  1
  Mg  Mg2  1  0.75988515  0.00000000  0.00000000  1
  Ag  Ag0  1  0.33333300  0.66666700  -0.00000000  1
  Ag  Ag1  1  0.66666700  0.33333300  -0.00000000  1
  Ag  Ag2  1  -0.00000000  -0.00000000  0.50000000  1
loop_
_geom_bond_atom_site_label_1
_geom_bond_atom_site_label_2
_geom_bond_distance
_geom_bond_site_symmetry_2
Mg0 Mg2 3.198525 1_465
Mg0 Mg1 3.198525 1_565
Mg0 Sm0 3.408640 1_554
Mg0 Sm0 3.408640 1_555
Mg0 Sm1 3.504906 1_455
Mg0 Sm1 3.504906 1_454
Mg0 Sm2 3.504907 1_565
Mg0 Sm2 3.504907 1_564
Mg1 Mg2 3.198525 1_455
Mg1 Sm1 3.408640 1_554
Mg1 Sm1 3.408640 1_555
Mg1 Sm2 3.504906 1_555
Mg1 Sm2 3.504906 1_554
Mg1 Sm0 3.504906 1_554
Mg1 Sm0 3.504906 1_555
Mg2 Sm2 3.408640 1_555
Mg2 Sm2 3.408640 1_554
Mg2 Sm1 3.504906 1_544
Mg2 Sm1 3.504906 1_545
Mg2 Sm0 3.504907 1_654
Mg2 Sm0 3.504907 1_655
Ag0 Mg0 2.987281 1_555
Ag0 Mg2 2.987287 1_565
Ag0 Mg1 2.987289 1_555
Ag0 Sm2 3.152605 1_565
Ag0 Sm2 3.152605 1_564
Ag0 Sm0 3.152607 1_555
Ag0 Sm0 3.152607 1_554
Ag0 Sm1 3.152611 1_555
Ag0 Sm1 3.152611 1_554
Ag1 Mg2 2.987281 1_555
Ag1 Mg0 2.987287 1_655
Ag1 Mg1 2.987289 1_555
Ag1 Sm0 3.152605 1_655
Ag1 Sm0 3.152605 1_654
Ag1 Sm2 3.152607 1_555
Ag1 Sm2 3.152607 1_554
Ag1 Sm1 3.152611 1_555
Ag1 Sm1 3.152611 1_554
Ag2 Mg0 2.827102 1_545
Ag2 Mg2 2.827102 1_456
Ag2 Mg2 2.827102 1_455
Ag2 Mg0 2.827102 1_546
Ag2 Mg1 2.827102 1_555
Ag2 Mg1 2.827102 1_556
Ag2 Sm0 3.191464 1_555
Ag2 Sm2 3.191464 1_555
Ag2 Sm1 3.191464 1_445
