# generated using pymatgen
data_CaMg30SiO32
_symmetry_space_group_name_H-M   'P 1'
_cell_length_a   8.58981100
_cell_length_b   8.58981100
_cell_length_c   8.59041300
_cell_angle_alpha   90.00000000
_cell_angle_beta   90.00000000
_cell_angle_gamma   90.00000000
_symmetry_Int_Tables_number   1
_chemical_formula_structural   CaMg30SiO32
_chemical_formula_sum   'Ca1 Mg30 Si1 O32'
_cell_volume   633.84236055
_cell_formula_units_Z   1
loop_
 _symmetry_equiv_pos_site_id
 _symmetry_equiv_pos_as_xyz
  1  'x, y, z'
loop_
 _atom_site_type_symbol
 _atom_site_label
 _atom_site_symmetry_multiplicity
 _atom_site_fract_x
 _atom_site_fract_y
 _atom_site_fract_z
 _atom_site_occupancy
  Ca  Ca0  1  0.00000000  0.00000000  0.00000000  1
  Mg  Mg0  1  0.00000000  0.50000000  0.00000000  1
  Mg  Mg1  1  0.50000000  0.00000000  0.00000000  1
  Mg  Mg2  1  0.00000000  0.00000000  0.50000000  1
  Mg  Mg3  1  0.00000000  0.50000000  0.50000000  1
  Mg  Mg4  1  0.50000000  0.00000000  0.50000000  1
  Mg  Mg5  1  0.50000000  0.50000000  0.50000000  1
  Mg  Mg6  1  0.25146600  0.25146600  0.00000000  1
  Mg  Mg7  1  0.25146600  0.74853400  0.00000000  1
  Mg  Mg8  1  0.74853400  0.25146600  0.00000000  1
  Mg  Mg9  1  0.74853400  0.74853400  0.00000000  1
  Mg  Mg10  1  0.25027700  0.25027700  0.50000000  1
  Mg  Mg11  1  0.25027700  0.74972300  0.50000000  1
  Mg  Mg12  1  0.74972300  0.25027700  0.50000000  1
  Mg  Mg13  1  0.74972300  0.74972300  0.50000000  1
  Mg  Mg14  1  0.00000000  0.25296400  0.25293600  1
  Mg  Mg15  1  0.00000000  0.74703600  0.25293600  1
  Mg  Mg16  1  0.50000000  0.24883400  0.25178200  1
  Mg  Mg17  1  0.50000000  0.75116600  0.25178200  1
  Mg  Mg18  1  0.00000000  0.25296400  0.74706400  1
  Mg  Mg19  1  0.00000000  0.74703600  0.74706400  1
  Mg  Mg20  1  0.50000000  0.24883400  0.74821800  1
  Mg  Mg21  1  0.50000000  0.75116600  0.74821800  1
  Mg  Mg22  1  0.25296400  0.00000000  0.25293600  1
  Mg  Mg23  1  0.24883400  0.50000000  0.25178200  1
  Mg  Mg24  1  0.74703600  0.00000000  0.25293600  1
  Mg  Mg25  1  0.75116600  0.50000000  0.25178200  1
  Mg  Mg26  1  0.25296400  0.00000000  0.74706400  1
  Mg  Mg27  1  0.24883400  0.50000000  0.74821800  1
  Mg  Mg28  1  0.74703600  0.00000000  0.74706400  1
  Mg  Mg29  1  0.75116600  0.50000000  0.74821800  1
  Si  Si0  1  0.50000000  0.50000000  0.00000000  1
  O  O0  1  0.00000000  0.00000000  0.26244400  1
  O  O1  1  0.00000000  0.50000000  0.25347500  1
  O  O2  1  0.50000000  0.00000000  0.25347500  1
  O  O3  1  0.50000000  0.50000000  0.26033900  1
  O  O4  1  0.00000000  0.00000000  0.73755600  1
  O  O5  1  0.00000000  0.50000000  0.74652500  1
  O  O6  1  0.50000000  0.00000000  0.74652500  1
  O  O7  1  0.50000000  0.50000000  0.73966100  1
  O  O8  1  0.25030700  0.25030700  0.24942300  1
  O  O9  1  0.25030700  0.74969300  0.24942300  1
  O  O10  1  0.74969300  0.25030700  0.24942300  1
  O  O11  1  0.74969300  0.74969300  0.24942300  1
  O  O12  1  0.25030700  0.25030700  0.75057700  1
  O  O13  1  0.25030700  0.74969300  0.75057700  1
  O  O14  1  0.74969300  0.25030700  0.75057700  1
  O  O15  1  0.74969300  0.74969300  0.75057700  1
  O  O16  1  0.00000000  0.26133300  0.00000000  1
  O  O17  1  0.00000000  0.73866700  0.00000000  1
  O  O18  1  0.50000000  0.24213500  0.00000000  1
  O  O19  1  0.50000000  0.75786500  0.00000000  1
  O  O20  1  0.00000000  0.25187600  0.50000000  1
  O  O21  1  0.00000000  0.74812400  0.50000000  1
  O  O22  1  0.50000000  0.24901200  0.50000000  1
  O  O23  1  0.50000000  0.75098800  0.50000000  1
  O  O24  1  0.26133300  0.00000000  0.00000000  1
  O  O25  1  0.24213500  0.50000000  0.00000000  1
  O  O26  1  0.73866700  0.00000000  0.00000000  1
  O  O27  1  0.75786500  0.50000000  0.00000000  1
  O  O28  1  0.25187600  0.00000000  0.50000000  1
  O  O29  1  0.24901200  0.50000000  0.50000000  1
  O  O30  1  0.74812400  0.00000000  0.50000000  1
  O  O31  1  0.75098800  0.50000000  0.50000000  1
loop_
_geom_bond_atom_site_label_1
_geom_bond_atom_site_label_2
_geom_bond_distance
_geom_bond_site_symmetry_2
Ca0 O24 2.244801 1_555
Ca0 O16 2.244801 1_555
Ca0 O26 2.244801 1_455
Ca0 O17 2.244801 1_545
Ca0 O0 2.254502 1_555
Ca0 O4 2.254502 1_554
Mg0 O17 2.050104 1_555
Mg0 O16 2.050104 1_555
Mg0 O27 2.079894 1_455
Mg0 O25 2.079894 1_555
Mg0 O1 2.177455 1_555
Mg0 O5 2.177455 1_554
Mg1 O26 2.050104 1_555
Mg1 O24 2.050104 1_555
Mg1 O19 2.079894 1_545
Mg1 O18 2.079894 1_555
Mg1 O2 2.177455 1_555
Mg1 O6 2.177455 1_554
Mg2 O4 2.040704 1_555
Mg2 O0 2.040704 1_555
Mg2 O20 2.163567 1_555
Mg2 O28 2.163567 1_555
Mg2 O30 2.163567 1_455
Mg2 O21 2.163567 1_545
Mg3 O1 2.117752 1_555
Mg3 O5 2.117752 1_555
Mg3 O21 2.131338 1_555
Mg3 O20 2.131338 1_555
Mg3 O29 2.138966 1_555
Mg3 O31 2.138966 1_455
Mg4 O2 2.117752 1_555
Mg4 O6 2.117752 1_555
Mg4 O30 2.131338 1_555
Mg4 O28 2.131338 1_555
Mg4 O22 2.138966 1_555
Mg4 O23 2.138966 1_545
Mg5 O3 2.058787 1_555
Mg5 O7 2.058787 1_555
Mg5 O23 2.155939 1_555
Mg5 O31 2.155939 1_555
Mg5 O22 2.155939 1_555
Mg5 O29 2.155939 1_555
Mg6 O25 2.136364 1_555
Mg6 O18 2.136364 1_555
Mg6 O8 2.142693 1_555
Mg6 O12 2.142693 1_554
Mg6 O16 2.161708 1_555
Mg6 O24 2.161708 1_555
Mg7 O25 2.136364 1_555
Mg7 O19 2.136364 1_555
Mg7 O9 2.142693 1_555
Mg7 O13 2.142693 1_554
Mg7 O17 2.161708 1_555
Mg7 O24 2.161708 1_565
Mg8 O18 2.136364 1_555
Mg8 O27 2.136364 1_555
Mg8 O10 2.142693 1_555
Mg8 O14 2.142693 1_554
Mg8 O26 2.161708 1_555
Mg8 O16 2.161708 1_655
Mg9 O19 2.136364 1_555
Mg9 O27 2.136364 1_555
Mg9 O11 2.142693 1_555
Mg9 O15 2.142693 1_554
Mg9 O26 2.161708 1_565
Mg9 O17 2.161708 1_655
Mg10 O29 2.145101 1_555
Mg10 O22 2.145101 1_555
Mg10 O20 2.149876 1_555
Mg10 O28 2.149876 1_555
Mg10 O12 2.152560 1_555
Mg10 O8 2.152560 1_555
Mg11 O29 2.145101 1_555
Mg11 O23 2.145101 1_555
Mg11 O21 2.149876 1_555
Mg11 O28 2.149876 1_565
Mg11 O13 2.152560 1_555
Mg11 O9 2.152560 1_555
Mg12 O22 2.145101 1_555
Mg12 O31 2.145101 1_555
Mg12 O30 2.149876 1_555
Mg12 O20 2.149876 1_655
Mg12 O14 2.152560 1_555
Mg12 O10 2.152560 1_555
Mg13 O31 2.145101 1_555
Mg13 O23 2.145101 1_555
Mg13 O30 2.149876 1_565
Mg13 O21 2.149876 1_655
Mg13 O15 2.152560 1_555
Mg13 O11 2.152560 1_555
Mg14 O1 2.121998 1_555
Mg14 O20 2.122402 1_555
Mg14 O8 2.150423 1_555
Mg14 O10 2.150423 1_455
Mg14 O16 2.174014 1_555
Mg14 O0 2.174447 1_555
Mg15 O1 2.121998 1_555
Mg15 O21 2.122402 1_555
Mg15 O9 2.150423 1_555
Mg15 O11 2.150423 1_455
Mg15 O17 2.174014 1_555
Mg15 O0 2.174447 1_565
Mg16 O22 2.132296 1_555
Mg16 O2 2.137487 1_555
Mg16 O10 2.144949 1_555
Mg16 O8 2.144949 1_555
Mg16 O3 2.158720 1_555
Mg16 O18 2.163677 1_555
Mg17 O23 2.132296 1_555
Mg17 O2 2.137487 1_565
Mg17 O11 2.144949 1_555
Mg17 O9 2.144949 1_555
Mg17 O3 2.158720 1_555
Mg17 O19 2.163677 1_555
Mg18 O5 2.121998 1_555
Mg18 O20 2.122402 1_555
Mg18 O12 2.150423 1_555
Mg18 O14 2.150423 1_455
Mg18 O16 2.174014 1_556
Mg18 O4 2.174447 1_555
Mg19 O5 2.121998 1_555
Mg19 O21 2.122402 1_555
Mg19 O13 2.150423 1_555
Mg19 O15 2.150423 1_455
Mg19 O17 2.174014 1_556
Mg19 O4 2.174447 1_565
Mg20 O22 2.132296 1_555
Mg20 O6 2.137487 1_555
Mg20 O14 2.144949 1_555
Mg20 O12 2.144949 1_555
Mg20 O7 2.158720 1_555
Mg20 O18 2.163677 1_556
Mg21 O23 2.132296 1_555
Mg21 O6 2.137487 1_565
Mg21 O15 2.144949 1_555
Mg21 O13 2.144949 1_555
Mg21 O7 2.158720 1_555
Mg21 O19 2.163677 1_556
Mg22 O2 2.121998 1_555
Mg22 O28 2.122402 1_555
Mg22 O8 2.150423 1_555
Mg22 O9 2.150423 1_545
Mg22 O24 2.174014 1_555
Mg22 O0 2.174447 1_555
Mg23 O29 2.132296 1_555
Mg23 O1 2.137487 1_555
Mg23 O9 2.144949 1_555
Mg23 O8 2.144949 1_555
Mg23 O3 2.158720 1_555
Mg23 O25 2.163677 1_555
Mg24 O2 2.121998 1_555
Mg24 O30 2.122402 1_555
Mg24 O10 2.150423 1_555
Mg24 O11 2.150423 1_545
Mg24 O26 2.174014 1_555
Mg24 O0 2.174447 1_655
Mg25 O31 2.132296 1_555
Mg25 O1 2.137487 1_655
Mg25 O11 2.144949 1_555
Mg25 O10 2.144949 1_555
Mg25 O3 2.158720 1_555
Mg25 O27 2.163677 1_555
Mg26 O6 2.121998 1_555
Mg26 O28 2.122402 1_555
Mg26 O12 2.150423 1_555
Mg26 O13 2.150423 1_545
Mg26 O24 2.174014 1_556
Mg26 O4 2.174447 1_555
Mg27 O29 2.132296 1_555
Mg27 O5 2.137487 1_555
Mg27 O13 2.144949 1_555
Mg27 O12 2.144949 1_555
Mg27 O7 2.158720 1_555
Mg27 O25 2.163677 1_556
Mg28 O6 2.121998 1_555
Mg28 O30 2.122402 1_555
Mg28 O14 2.150423 1_555
Mg28 O15 2.150423 1_545
Mg28 O26 2.174014 1_556
Mg28 O4 2.174447 1_655
Mg29 O31 2.132296 1_555
Mg29 O5 2.137487 1_655
Mg29 O15 2.144949 1_555
Mg29 O14 2.144949 1_555
Mg29 O7 2.158720 1_555
Mg29 O27 2.163677 1_556
O3 Si0 2.236420 1_555
O7 Si0 2.236420 1_556
O18 Si0 2.215012 1_555
O19 Si0 2.215012 1_555
O25 Si0 2.215012 1_555
O27 Si0 2.215012 1_555
