# generated using pymatgen
data_Li9Mn2Co5O16
_symmetry_space_group_name_H-M   'P 1'
_cell_length_a   5.14645200
_cell_length_b   7.68166134
_cell_length_c   7.76187569
_cell_angle_alpha   93.77260727
_cell_angle_beta   109.25723413
_cell_angle_gamma   96.48941707
_symmetry_Int_Tables_number   1
_chemical_formula_structural   Li9Mn2Co5O16
_chemical_formula_sum   'Li9 Mn2 Co5 O16'
_cell_volume   286.08430363
_cell_formula_units_Z   1
loop_
 _symmetry_equiv_pos_site_id
 _symmetry_equiv_pos_as_xyz
  1  'x, y, z'
loop_
 _atom_site_type_symbol
 _atom_site_label
 _atom_site_symmetry_multiplicity
 _atom_site_fract_x
 _atom_site_fract_y
 _atom_site_fract_z
 _atom_site_occupancy
  Li  Li0  1  0.56282900  0.19081400  0.06162600  1
  Li  Li1  1  0.93915500  0.32181100  0.44288400  1
  Li  Li2  1  0.31982100  0.43756600  0.80741700  1
  Li  Li3  1  0.68125800  0.55770700  0.19309900  1
  Li  Li4  1  0.07817000  0.68311200  0.56461800  1
  Li  Li5  1  0.43526900  0.80933200  0.93311700  1
  Li  Li6  1  0.81326400  0.93946600  0.31704300  1
  Li  Li7  1  0.17611200  0.05925100  0.68284800  1
  Li  Li8  1  0.49881500  0.50435500  0.50002100  1
  Mn  Mn0  1  0.00192400  0.99787600  0.99694300  1
  Mn  Mn1  1  0.24777600  0.74901800  0.25265900  1
  Co  Co0  1  0.37611600  0.13158800  0.37786500  1
  Co  Co1  1  0.73847600  0.25444800  0.74455800  1
  Co  Co2  1  0.12328300  0.37764400  0.13133500  1
  Co  Co3  1  0.87457500  0.61738600  0.86165000  1
  Co  Co4  1  0.62622300  0.87247000  0.62376700  1
  O  O0  1  0.13107400  0.20879800  0.91033400  1
  O  O1  1  0.49808800  0.32979000  0.27779400  1
  O  O2  1  0.91893200  0.47230900  0.67300500  1
  O  O3  1  0.27669800  0.59907400  0.05032500  1
  O  O4  1  0.61700300  0.73171000  0.40181100  1
  O  O5  1  0.03704100  0.85121900  0.79725600  1
  O  O6  1  0.37195300  0.96178200  0.15380700  1
  O  O7  1  0.75819600  0.08432100  0.53705800  1
  O  O8  1  0.97416800  0.14814300  0.20427200  1
  O  O9  1  0.36709800  0.27094000  0.60346500  1
  O  O10  1  0.73943200  0.40770000  0.97029200  1
  O  O11  1  0.09424000  0.54317100  0.33203100  1
  O  O12  1  0.50081600  0.67353900  0.71808200  1
  O  O13  1  0.87567000  0.78437800  0.08629600  1
  O  O14  1  0.21494000  0.90610300  0.44740500  1
  O  O15  1  0.63158500  0.02317600  0.84531300  1
loop_
_geom_bond_atom_site_label_1
_geom_bond_atom_site_label_2
_geom_bond_distance
_geom_bond_site_symmetry_2
Li0 O1 2.068671 1_555
Li0 O10 2.083866 1_554
Li0 O8 2.115017 1_555
Li0 O0 2.169095 1_554
Li0 O6 2.193360 1_545
Li0 O15 2.193825 1_554
Li1 O2 2.101388 1_555
Li1 O11 2.146511 1_655
Li1 O1 2.218443 1_555
Li1 O7 2.229404 1_555
Li1 O9 2.237114 1_655
Li1 O8 2.278531 1_555
Li2 O2 2.039016 1_455
Li2 O9 2.064310 1_555
Li2 O10 2.159557 1_555
Li2 O12 2.200912 1_555
Li2 O0 2.231723 1_555
Li2 O3 2.274578 1_556
Li3 O11 2.061628 1_655
Li3 O3 2.082771 1_555
Li3 O10 2.136710 1_554
Li3 O1 2.138506 1_555
Li3 O4 2.165331 1_555
Li3 O13 2.250193 1_555
Li4 O11 2.069969 1_555
Li4 O2 2.082217 1_455
Li4 O12 2.119933 1_555
Li4 O14 2.147624 1_555
Li4 O5 2.231590 1_555
Li4 O4 2.377644 1_455
Li5 O5 2.045480 1_555
Li5 O12 2.051710 1_555
Li5 O15 2.100000 1_565
Li5 O3 2.118355 1_556
Li5 O6 2.145298 1_556
Li5 O13 2.222176 1_556
Li6 O14 2.033966 1_655
Li6 O4 2.052369 1_555
Li6 O7 2.091718 1_565
Li6 O8 2.093842 1_565
Li6 O13 2.217058 1_555
Li6 O6 2.238627 1_555
Li7 O9 2.039626 1_555
Li7 O5 2.049876 1_545
Li7 O7 2.111962 1_455
Li7 O0 2.134099 1_555
Li7 O14 2.185110 1_545
Li7 O15 2.324796 1_555
Li8 O4 2.059639 1_555
Li8 O12 2.061525 1_555
Li8 O1 2.112739 1_555
Li8 O11 2.127213 1_555
Li8 O9 2.143088 1_555
Li8 O2 2.187927 1_555
Mn0 O15 1.920864 1_465
Mn0 O5 1.924881 1_555
Mn0 O0 1.927040 1_565
Mn0 O13 1.949081 1_456
Mn0 O6 1.954526 1_556
Mn0 O8 1.971546 1_466
Mn1 O4 1.896054 1_555
Mn1 O11 1.916019 1_555
Mn1 O14 1.934967 1_555
Mn1 O3 1.941697 1_555
Mn1 O6 1.980074 1_555
Mn1 O13 1.985226 1_455
Co0 O1 1.891200 1_555
Co0 O9 2.008103 1_555
Co0 O14 2.018204 1_545
Co0 O7 2.035419 1_555
Co0 O8 2.086694 1_455
Co0 O6 2.096900 1_545
Co1 O9 1.886982 1_555
Co1 O2 2.020616 1_555
Co1 O7 2.042791 1_555
Co1 O10 2.043866 1_555
Co1 O15 2.077512 1_555
Co1 O0 2.089414 1_655
Co2 O1 1.979145 1_555
Co2 O11 2.000418 1_555
Co2 O10 2.007619 1_454
Co2 O3 2.019069 1_555
Co2 O8 2.032121 1_455
Co2 O0 2.095410 1_554
Co3 O2 1.871182 1_555
Co3 O12 1.991165 1_555
Co3 O10 2.025260 1_555
Co3 O5 2.056617 1_655
Co3 O13 2.093678 1_556
Co3 O3 2.130986 1_656
Co4 O12 1.877110 1_555
Co4 O7 1.938659 1_565
Co4 O4 1.956724 1_555
Co4 O15 1.999385 1_565
Co4 O5 2.130498 1_655
Co4 O14 2.163273 1_555
