# generated using pymatgen
data_K4Na4VMo7O20
_symmetry_space_group_name_H-M   'P 1'
_cell_length_a   11.47510787
_cell_length_b   11.77744098
_cell_length_c   17.35400707
_cell_angle_alpha   109.88004551
_cell_angle_beta   109.35706050
_cell_angle_gamma   89.88454351
_symmetry_Int_Tables_number   1
_chemical_formula_structural   K4Na4VMo7O20
_chemical_formula_sum   'K16 Na16 V4 Mo28 O80'
_cell_volume   2064.64384777
_cell_formula_units_Z   4
loop_
 _symmetry_equiv_pos_site_id
 _symmetry_equiv_pos_as_xyz
  1  'x, y, z'
loop_
 _atom_site_type_symbol
 _atom_site_label
 _atom_site_symmetry_multiplicity
 _atom_site_fract_x
 _atom_site_fract_y
 _atom_site_fract_z
 _atom_site_occupancy
  K  K0  1  0.30379400  0.06576500  0.10784400  1
  K  K1  1  0.30324300  0.56240300  0.10702900  1
  K  K2  1  0.80348600  0.06359400  0.10891200  1
  K  K3  1  0.80304700  0.56251700  0.10786700  1
  K  K4  1  0.20085800  0.93588800  0.39567200  1
  K  K5  1  0.19060600  0.92383300  0.87903900  1
  K  K6  1  0.69867100  0.43759000  0.39723700  1
  K  K7  1  0.68883900  0.42804900  0.87954200  1
  K  K8  1  0.69841500  0.93373700  0.39536600  1
  K  K9  1  0.05673700  0.29475000  0.10889700  1
  K  K10  1  0.05162100  0.79144300  0.10616900  1
  K  K11  1  0.55365100  0.29243900  0.10618900  1
  K  K12  1  0.55269200  0.79318700  0.10431900  1
  K  K13  1  0.45019300  0.71065700  0.39789300  1
  K  K14  1  0.43746100  0.70268900  0.87710600  1
  K  K15  1  0.94153000  0.70206200  0.87923400  1
  Na  Na0  1  0.29822900  0.07119000  0.60759100  1
  Na  Na1  1  0.30792800  0.56884300  0.60825700  1
  Na  Na2  1  0.80380900  0.06887700  0.60621700  1
  Na  Na3  1  0.81001600  0.56879000  0.60545000  1
  Na  Na4  1  0.20105400  0.43880900  0.40611500  1
  Na  Na5  1  0.19931600  0.43124000  0.88899500  1
  Na  Na6  1  0.69789200  0.93089400  0.89358700  1
  Na  Na7  1  0.05829700  0.28898800  0.60841300  1
  Na  Na8  1  0.05798600  0.78488000  0.60700100  1
  Na  Na9  1  0.55475700  0.28958100  0.60504600  1
  Na  Na10  1  0.55195600  0.78431300  0.60540700  1
  Na  Na11  1  0.45025800  0.21662400  0.40598500  1
  Na  Na12  1  0.44234000  0.21046900  0.89118000  1
  Na  Na13  1  0.95021200  0.21807600  0.40513600  1
  Na  Na14  1  0.94626300  0.21248700  0.89311000  1
  Na  Na15  1  0.95067300  0.71647700  0.40462800  1
  V  V0  1  0.10539200  0.57970100  0.74335400  1
  V  V1  1  0.59797700  0.58448900  0.74324600  1
  V  V2  1  0.35010800  0.40697200  0.74450700  1
  V  V3  1  0.34715100  0.91441800  0.74412200  1
  Mo  Mo0  1  0.00356300  0.99817900  0.99417200  1
  Mo  Mo1  1  0.01279200  0.00273300  0.50525600  1
  Mo  Mo2  1  0.00305900  0.49474600  0.99337800  1
  Mo  Mo3  1  0.01472900  0.50201900  0.50593200  1
  Mo  Mo4  1  0.50064500  0.99694700  0.99103300  1
  Mo  Mo5  1  0.51344500  0.00648400  0.50847800  1
  Mo  Mo6  1  0.50111000  0.49561400  0.99169200  1
  Mo  Mo7  1  0.51340000  0.50255900  0.50927000  1
  Mo  Mo8  1  0.25343200  0.24791500  0.99316700  1
  Mo  Mo9  1  0.26196700  0.25425900  0.50643500  1
  Mo  Mo10  1  0.25112600  0.74493700  0.99271400  1
  Mo  Mo11  1  0.26244500  0.75342000  0.50825600  1
  Mo  Mo12  1  0.75300500  0.24448300  0.99134100  1
  Mo  Mo13  1  0.76527700  0.25145100  0.50596000  1
  Mo  Mo14  1  0.75113500  0.74624200  0.99187200  1
  Mo  Mo15  1  0.76586700  0.75349400  0.50854000  1
  Mo  Mo16  1  0.09825000  0.10656200  0.25799700  1
  Mo  Mo17  1  0.09476100  0.09076100  0.74655300  1
  Mo  Mo18  1  0.09674300  0.59394300  0.25747100  1
  Mo  Mo19  1  0.59757100  0.10003700  0.25459100  1
  Mo  Mo20  1  0.58872900  0.08357700  0.74505100  1
  Mo  Mo21  1  0.59867200  0.59245900  0.25098000  1
  Mo  Mo22  1  0.34625900  0.40376500  0.25848000  1
  Mo  Mo23  1  0.34805600  0.91397100  0.25197800  1
  Mo  Mo24  1  0.85426900  0.40630500  0.25450400  1
  Mo  Mo25  1  0.85229300  0.40775200  0.74334300  1
  Mo  Mo26  1  0.85071600  0.91022600  0.25385400  1
  Mo  Mo27  1  0.83784200  0.91197100  0.74575400  1
  O  O0  1  0.12634100  0.12472100  0.48906600  1
  O  O1  1  0.12051800  0.11951800  0.98157600  1
  O  O2  1  0.12817000  0.61913800  0.48924900  1
  O  O3  1  0.12204600  0.61296700  0.98160300  1
  O  O4  1  0.62865800  0.12563000  0.49290300  1
  O  O5  1  0.61926100  0.11210400  0.97512700  1
  O  O6  1  0.63243100  0.62563500  0.49959400  1
  O  O7  1  0.62112100  0.61798500  0.98370300  1
  O  O8  1  0.13184900  0.37578300  0.00228000  1
  O  O9  1  0.14659000  0.38706100  0.52125700  1
  O  O10  1  0.13224500  0.87610700  0.00572800  1
  O  O11  1  0.14292400  0.88303800  0.52024400  1
  O  O12  1  0.62909200  0.37176000  0.00052400  1
  O  O13  1  0.64745200  0.38668600  0.52602300  1
  O  O14  1  0.63031700  0.87663900  0.99939200  1
  O  O15  1  0.64832300  0.88947300  0.52769400  1
  O  O16  1  0.38149700  0.12475300  0.49354800  1
  O  O17  1  0.37253000  0.11782000  0.98098600  1
  O  O18  1  0.37835800  0.61882700  0.49653200  1
  O  O19  1  0.36825300  0.61257100  0.98045500  1
  O  O20  1  0.88125300  0.11939700  0.48965000  1
  O  O21  1  0.87120800  0.11443300  0.97932600  1
  O  O22  1  0.88304900  0.62220700  0.49270700  1
  O  O23  1  0.87101500  0.61500700  0.98263000  1
  O  O24  1  0.38169400  0.37695500  0.00164900  1
  O  O25  1  0.39602800  0.38600000  0.52289900  1
  O  O26  1  0.38009500  0.87708700  0.00287200  1
  O  O27  1  0.39806400  0.89262300  0.52885800  1
  O  O28  1  0.88395300  0.37603500  0.00463900  1
  O  O29  1  0.89723900  0.38490900  0.52187600  1
  O  O30  1  0.87798000  0.87799900  0.00099500  1
  O  O31  1  0.89726400  0.88672500  0.52439400  1
  O  O32  1  0.07403800  0.08944500  0.13803000  1
  O  O33  1  0.09094000  0.11119000  0.64043400  1
  O  O34  1  0.07692800  0.58659800  0.14116100  1
  O  O35  1  0.09251600  0.60394700  0.64486000  1
  O  O36  1  0.57381100  0.08743000  0.13553500  1
  O  O37  1  0.59006400  0.11604500  0.64518100  1
  O  O38  1  0.57513000  0.58882100  0.13484100  1
  O  O39  1  0.58137000  0.61080900  0.64592000  1
  O  O40  1  0.44880500  0.39284700  0.36754400  1
  O  O41  1  0.43095000  0.40102600  0.85064500  1
  O  O42  1  0.44476200  0.90824700  0.36524700  1
  O  O43  1  0.42830400  0.90933500  0.84997400  1
  O  O44  1  0.95386400  0.39261500  0.36466600  1
  O  O45  1  0.94002500  0.39326100  0.85412200  1
  O  O46  1  0.94431700  0.89217000  0.36366300  1
  O  O47  1  0.94163300  0.90516300  0.85571800  1
  O  O48  1  0.32559500  0.30186800  0.13883200  1
  O  O49  1  0.32910300  0.28574900  0.64422900  1
  O  O50  1  0.32944700  0.79883300  0.13836700  1
  O  O51  1  0.33578300  0.79081000  0.64588400  1
  O  O52  1  0.83161400  0.29765700  0.13782000  1
  O  O53  1  0.84448600  0.27410900  0.64115800  1
  O  O54  1  0.83016100  0.80099100  0.13759200  1
  O  O55  1  0.84443600  0.78276000  0.64572200  1
  O  O56  1  0.20620600  0.22438000  0.36599400  1
  O  O57  1  0.19482500  0.21270700  0.85474400  1
  O  O58  1  0.20320000  0.70936000  0.36801700  1
  O  O59  1  0.17873600  0.69030400  0.85120000  1
  O  O60  1  0.70934100  0.20947200  0.36479700  1
  O  O61  1  0.69768200  0.19977600  0.85332200  1
  O  O62  1  0.70070300  0.70406300  0.36565800  1
  O  O63  1  0.67639000  0.69643700  0.85021800  1
  O  O64  1  0.44116900  0.07166200  0.26787500  1
  O  O65  1  0.41812100  0.06031900  0.74585500  1
  O  O66  1  0.44003200  0.54586900  0.25360100  1
  O  O67  1  0.43592800  0.53633100  0.73575500  1
  O  O68  1  0.94260700  0.06879100  0.26993600  1
  O  O69  1  0.92560700  0.06171000  0.74759200  1
  O  O70  1  0.93748200  0.56672600  0.26768700  1
  O  O71  1  0.93997700  0.54370900  0.73290100  1
  O  O72  1  0.18867100  0.44921500  0.26908300  1
  O  O73  1  0.18841900  0.44190100  0.74435600  1
  O  O74  1  0.18571400  0.95634300  0.25137900  1
  O  O75  1  0.18213500  0.94095400  0.73408400  1
  O  O76  1  0.69165800  0.44840600  0.25312500  1
  O  O77  1  0.68097200  0.44544300  0.73386000  1
  O  O78  1  0.68732800  0.95204500  0.25130200  1
  O  O79  1  0.66657800  0.93122100  0.74681900  1
loop_
_geom_bond_atom_site_label_1
_geom_bond_atom_site_label_2
_geom_bond_distance
_geom_bond_site_symmetry_2
K0 O48 2.642088 1_555
K0 O10 2.649150 1_545
K0 O64 2.677622 1_555
K0 O26 2.705452 1_545
K0 O1 2.740177 1_554
K0 O17 2.813457 1_554
K0 O32 2.848934 1_555
K0 O36 2.971417 1_555
K1 O66 2.580819 1_555
K1 O8 2.633156 1_555
K1 O50 2.646677 1_555
K1 O24 2.700382 1_555
K1 O3 2.700390 1_554
K1 O19 2.775108 1_554
K1 O34 2.842245 1_555
K1 O38 2.994543 1_555
K2 O52 2.628831 1_555
K2 O14 2.660265 1_544
K2 O30 2.699184 1_545
K2 O68 2.699602 1_555
K2 O5 2.798101 1_554
K2 O36 2.820350 1_555
K2 O21 2.845316 1_554
K2 O32 2.974200 1_655
K2 O54 3.293761 1_545
K3 O70 2.673039 1_555
K3 O54 2.676377 1_555
K3 O12 2.684933 1_555
K3 O28 2.704299 1_555
K3 O7 2.719877 1_554
K3 O23 2.784490 1_554
K3 O38 2.804453 1_555
K3 O34 2.996655 1_655
K4 O74 2.545623 1_555
K4 O58 2.546822 1_555
K4 O0 2.600710 1_565
K4 O16 2.691569 1_565
K4 O11 2.715216 1_555
K4 O46 2.822659 1_455
K4 O27 2.837577 1_555
K4 O42 3.012844 1_555
K5 O75 2.561425 1_555
K5 O59 2.621204 1_555
K5 O1 2.697563 1_565
K5 O26 2.711371 1_556
K5 O10 2.723260 1_556
K5 O17 2.744028 1_565
K5 O47 2.747737 1_455
K5 O43 2.928310 1_555
K6 O76 2.522006 1_555
K6 O60 2.562364 1_555
K6 O6 2.617372 1_555
K6 O22 2.682133 1_555
K6 O13 2.735572 1_555
K6 O40 2.757945 1_555
K6 O29 2.809852 1_555
K6 O44 3.172189 1_555
K7 O77 2.577325 1_555
K7 O61 2.577353 1_555
K7 O7 2.655069 1_555
K7 O12 2.687042 1_556
K7 O23 2.698011 1_555
K7 O28 2.788895 1_556
K7 O41 2.832265 1_555
K7 O45 3.063633 1_555
K8 O78 2.543379 1_555
K8 O62 2.577518 1_555
K8 O4 2.627297 1_565
K8 O20 2.677670 1_565
K8 O15 2.750668 1_555
K8 O42 2.779162 1_555
K8 O31 2.824555 1_555
K8 O46 3.056964 1_555
K9 O32 2.627645 1_555
K9 O28 2.629349 1_455
K9 O72 2.666652 1_555
K9 O8 2.708962 1_555
K9 O1 2.764336 1_554
K9 O21 2.774112 1_454
K9 O52 2.788209 1_455
K9 O48 2.950282 1_555
K9 O34 3.284815 1_555
K10 O74 2.569599 1_555
K10 O10 2.672680 1_555
K10 O34 2.673972 1_555
K10 O30 2.680884 1_455
K10 O23 2.692860 1_454
K10 O54 2.764761 1_455
K10 O3 2.793809 1_554
K10 O50 3.044801 1_555
K11 O76 2.556061 1_555
K11 O36 2.626503 1_555
K11 O24 2.650061 1_555
K11 O12 2.684266 1_555
K11 O17 2.693455 1_554
K11 O5 2.845031 1_554
K11 O48 2.849658 1_555
K11 O52 3.048962 1_555
K12 O78 2.558755 1_555
K12 O26 2.619588 1_555
K12 O38 2.629490 1_555
K12 O14 2.714968 1_554
K12 O7 2.720532 1_554
K12 O19 2.741788 1_554
K12 O50 2.809302 1_555
K12 O54 3.037427 1_555
K13 O66 2.559816 1_555
K13 O42 2.571560 1_555
K13 O18 2.641490 1_555
K13 O6 2.690276 1_555
K13 O58 2.706066 1_555
K13 O27 2.774817 1_555
K13 O15 2.841888 1_555
K13 O62 3.101295 1_555
K14 O67 2.561089 1_555
K14 O43 2.627063 1_555
K14 O19 2.686288 1_555
K14 O26 2.704394 1_556
K14 O7 2.742456 1_555
K14 O14 2.747062 1_555
K14 O59 2.847821 1_555
K14 O63 2.926460 1_555
K15 O47 2.559782 1_555
K15 O71 2.583892 1_555
K15 O23 2.672568 1_555
K15 O30 2.707012 1_556
K15 O3 2.714311 1_655
K15 O10 2.753739 1_656
K15 O63 2.911587 1_555
K15 O59 2.914698 1_655
Na0 O49 2.382616 1_555
Na0 O65 2.384605 1_555
Na0 O11 2.514924 1_545
Na0 O27 2.583766 1_545
Na0 O0 2.589635 1_555
Na0 O33 2.629910 1_555
Na0 O16 2.707937 1_555
Na1 O67 2.370482 1_555
Na1 O51 2.463060 1_555
Na1 O9 2.501060 1_555
Na1 O18 2.564354 1_555
Na1 O25 2.582253 1_555
Na1 O2 2.621855 1_555
Na1 O35 2.746404 1_555
Na2 O53 2.290871 1_555
Na2 O69 2.418071 1_555
Na2 O15 2.439270 1_545
Na2 O4 2.573282 1_555
Na2 O31 2.587861 1_545
Na2 O20 2.692276 1_555
Na2 O37 2.760483 1_555
Na3 O71 2.336505 1_555
Na3 O55 2.370266 1_555
Na3 O13 2.506125 1_555
Na3 O6 2.514931 1_555
Na3 O29 2.571521 1_555
Na3 O22 2.617714 1_555
Na3 O39 2.932930 1_555
Na4 O72 2.380019 1_555
Na4 O56 2.386811 1_555
Na4 O2 2.449556 1_555
Na4 O9 2.532265 1_555
Na4 O18 2.595225 1_555
Na4 O44 2.691991 1_455
Na4 O25 2.710302 1_555
Na5 O57 2.433102 1_555
Na5 O73 2.517548 1_555
Na5 O19 2.551427 1_555
Na5 O3 2.558806 1_555
Na5 O24 2.596737 1_556
Na5 O8 2.602922 1_556
Na5 O45 2.836700 1_455
Na5 O41 2.939804 1_555
Na6 O79 2.452828 1_555
Na6 O14 2.474832 1_555
Na6 O5 2.481130 1_565
Na6 O30 2.522705 1_556
Na6 O21 2.590391 1_565
Na6 O63 2.591979 1_555
Na6 O43 2.920224 1_555
Na7 O33 2.341837 1_555
Na7 O73 2.413426 1_555
Na7 O29 2.500546 1_455
Na7 O20 2.608742 1_455
Na7 O9 2.618599 1_555
Na7 O0 2.642536 1_555
Na7 O53 2.714223 1_455
Na7 O49 2.963066 1_555
Na8 O75 2.332998 1_555
Na8 O35 2.430165 1_555
Na8 O31 2.510607 1_455
Na8 O22 2.534960 1_455
Na8 O11 2.591193 1_555
Na8 O2 2.646987 1_555
Na8 O55 2.749617 1_455
Na9 O77 2.353322 1_555
Na9 O37 2.367311 1_555
Na9 O25 2.451683 1_555
Na9 O13 2.521614 1_555
Na9 O16 2.525080 1_555
Na9 O4 2.601298 1_555
Na9 O49 2.891018 1_555
Na10 O39 2.366608 1_555
Na10 O79 2.393265 1_555
Na10 O27 2.469555 1_555
Na10 O18 2.520496 1_555
Na10 O6 2.549598 1_555
Na10 O15 2.589536 1_555
Na10 O51 2.787557 1_555
Na11 O40 2.384732 1_555
Na11 O64 2.392115 1_555
Na11 O16 2.453343 1_555
Na11 O25 2.561729 1_555
Na11 O4 2.580330 1_555
Na11 O56 2.662064 1_555
Na11 O13 2.743590 1_555
Na12 O65 2.463528 1_555
Na12 O17 2.499799 1_555
Na12 O24 2.515268 1_556
Na12 O41 2.561298 1_555
Na12 O12 2.582798 1_556
Na12 O5 2.600727 1_555
Na12 O57 2.699647 1_555
Na13 O68 2.379735 1_555
Na13 O44 2.392136 1_555
Na13 O20 2.461759 1_555
Na13 O29 2.537481 1_555
Na13 O0 2.558102 1_655
Na13 O60 2.609663 1_555
Na13 O9 2.716620 1_655
Na14 O45 2.437779 1_555
Na14 O69 2.478270 1_555
Na14 O28 2.518697 1_556
Na14 O21 2.519394 1_555
Na14 O1 2.579461 1_655
Na14 O8 2.585956 1_656
Na14 O61 2.694746 1_555
Na15 O70 2.386039 1_555
Na15 O46 2.399546 1_555
Na15 O22 2.472886 1_555
Na15 O31 2.592490 1_555
Na15 O2 2.602320 1_655
Na15 O11 2.673393 1_655
Na15 O62 2.712034 1_555
Mo0 O21 2.054231 1_465
Mo0 O10 2.068545 1_556
Mo0 O1 2.075045 1_565
Mo0 O30 2.080730 1_456
Mo0 O47 2.135255 1_455
Mo0 O32 2.209536 1_566
Mo1 O20 2.052638 1_455
Mo1 O11 2.065963 1_545
Mo1 O31 2.083812 1_445
Mo1 O0 2.089401 1_555
Mo1 O33 2.123929 1_555
Mo1 O46 2.213363 1_445
Mo2 O8 2.039247 1_556
Mo2 O3 2.056885 1_555
Mo2 O28 2.057062 1_456
Mo2 O23 2.078568 1_455
Mo2 O45 2.161534 1_455
Mo2 O34 2.267556 1_556
Mo3 O9 2.040392 1_555
Mo3 O2 2.051750 1_555
Mo3 O29 2.076273 1_455
Mo3 O22 2.078945 1_455
Mo3 O35 2.158676 1_555
Mo3 O44 2.208689 1_455
Mo4 O17 2.051514 1_565
Mo4 O14 2.056952 1_555
Mo4 O5 2.068675 1_565
Mo4 O26 2.083761 1_556
Mo4 O43 2.164418 1_555
Mo4 O36 2.217988 1_566
Mo5 O16 2.068032 1_555
Mo5 O4 2.071795 1_555
Mo5 O27 2.077613 1_545
Mo5 O15 2.089890 1_545
Mo5 O37 2.146162 1_555
Mo5 O42 2.210722 1_545
Mo6 O24 2.046834 1_556
Mo6 O19 2.058348 1_555
Mo6 O7 2.064776 1_555
Mo6 O12 2.074189 1_556
Mo6 O41 2.173321 1_555
Mo6 O38 2.201844 1_556
Mo7 O25 2.047900 1_555
Mo7 O13 2.068346 1_555
Mo7 O18 2.072563 1_555
Mo7 O6 2.078588 1_555
Mo7 O39 2.139877 1_555
Mo7 O40 2.214087 1_555
Mo8 O24 2.052036 1_556
Mo8 O8 2.053111 1_556
Mo8 O17 2.054956 1_555
Mo8 O1 2.062150 1_555
Mo8 O57 2.155804 1_555
Mo8 O48 2.236437 1_556
Mo9 O9 2.051620 1_555
Mo9 O16 2.054426 1_555
Mo9 O0 2.055815 1_555
Mo9 O25 2.066960 1_555
Mo9 O49 2.150821 1_555
Mo9 O56 2.203881 1_555
Mo10 O19 2.058527 1_555
Mo10 O10 2.063245 1_556
Mo10 O3 2.064710 1_555
Mo10 O26 2.072044 1_556
Mo10 O59 2.170321 1_555
Mo10 O50 2.237163 1_556
Mo11 O11 2.054134 1_555
Mo11 O18 2.067581 1_555
Mo11 O2 2.074172 1_555
Mo11 O27 2.116679 1_555
Mo11 O51 2.135496 1_555
Mo11 O58 2.167975 1_555
Mo12 O21 2.047231 1_555
Mo12 O28 2.061068 1_556
Mo12 O12 2.067218 1_556
Mo12 O5 2.071310 1_555
Mo12 O61 2.133731 1_555
Mo12 O52 2.251040 1_556
Mo13 O20 2.052328 1_555
Mo13 O4 2.061668 1_555
Mo13 O29 2.068075 1_555
Mo13 O13 2.100542 1_555
Mo13 O53 2.136264 1_555
Mo13 O60 2.189262 1_555
Mo14 O30 2.059353 1_556
Mo14 O7 2.061772 1_555
Mo14 O14 2.067050 1_555
Mo14 O23 2.067876 1_555
Mo14 O63 2.178628 1_555
Mo14 O54 2.237468 1_556
Mo15 O22 2.054767 1_555
Mo15 O31 2.062087 1_555
Mo15 O6 2.080614 1_555
Mo15 O15 2.102630 1_555
Mo15 O55 2.149309 1_555
Mo15 O62 2.199374 1_555
Mo16 O56 1.916182 1_555
Mo16 O68 1.934393 1_455
Mo16 O32 1.945126 1_555
Mo16 O74 2.020307 1_545
Mo17 O57 1.910474 1_555
Mo17 O33 1.923289 1_555
Mo17 O69 1.978681 1_455
Mo17 O75 2.010480 1_545
Mo18 O58 1.923535 1_555
Mo18 O34 1.926237 1_555
Mo18 O70 1.931286 1_455
Mo18 O72 2.035740 1_555
Mo19 O60 1.915210 1_555
Mo19 O64 1.927424 1_555
Mo19 O36 1.945057 1_555
Mo19 O78 2.016460 1_545
Mo20 O37 1.902262 1_555
Mo20 O61 1.914998 1_555
Mo20 O65 1.982640 1_555
Mo20 O79 2.007866 1_545
Mo21 O66 1.921702 1_555
Mo21 O38 1.928041 1_555
Mo21 O62 1.934325 1_555
Mo21 O76 2.006893 1_555
Mo22 O40 1.916250 1_555
Mo22 O72 1.933951 1_555
Mo22 O48 1.946231 1_555
Mo22 O66 2.032266 1_555
Mo23 O50 1.917139 1_555
Mo23 O74 1.925215 1_555
Mo23 O42 1.934856 1_555
Mo23 O64 2.032505 1_565
Mo24 O52 1.922360 1_555
Mo24 O76 1.924331 1_555
Mo24 O44 1.935833 1_555
Mo24 O70 2.025403 1_555
Mo25 O53 1.904483 1_555
Mo25 O45 1.917797 1_555
Mo25 O77 1.980075 1_555
Mo25 O71 1.983398 1_555
Mo26 O54 1.924036 1_555
Mo26 O78 1.927651 1_555
Mo26 O46 1.936008 1_555
Mo26 O68 2.033637 1_565
Mo27 O55 1.903950 1_555
Mo27 O47 1.914056 1_555
Mo27 O79 1.983298 1_555
Mo27 O69 2.018163 1_565
O35 V0 1.785869 1_555
O39 V1 1.768497 1_555
O41 V2 1.792456 1_555
O43 V3 1.784871 1_555
O49 V2 1.777188 1_555
O51 V3 1.791136 1_555
O59 V0 1.791670 1_555
O63 V1 1.796394 1_555
O65 V3 1.889731 1_545
O67 V2 1.891181 1_555
O67 V1 1.894808 1_555
O71 V0 1.881030 1_655
O73 V0 1.882527 1_555
O73 V2 1.898993 1_555
O75 V3 1.878729 1_555
O77 V1 1.878948 1_555
