# generated using pymatgen
data_MgFe10O9F11
_symmetry_space_group_name_H-M   'P 1'
_cell_length_a   4.87757594
_cell_length_b   4.89596414
_cell_length_c   15.42748446
_cell_angle_alpha   90.00000000
_cell_angle_beta   90.00000000
_cell_angle_gamma   95.15277486
_symmetry_Int_Tables_number   1
_chemical_formula_structural   MgFe10O9F11
_chemical_formula_sum   'Mg1 Fe10 O9 F11'
_cell_volume   366.92621622
_cell_formula_units_Z   1
loop_
 _symmetry_equiv_pos_site_id
 _symmetry_equiv_pos_as_xyz
  1  'x, y, z'
loop_
 _atom_site_type_symbol
 _atom_site_label
 _atom_site_symmetry_multiplicity
 _atom_site_fract_x
 _atom_site_fract_y
 _atom_site_fract_z
 _atom_site_occupancy
  Mg  Mg0  1  0.01506445  0.51717737  0.70000000  1
  Fe  Fe0  1  0.97303810  0.99102242  0.99976473  1
  Fe  Fe1  1  0.98413977  0.99417611  0.20000000  1
  Fe  Fe2  1  0.97303810  0.99102242  0.40023527  1
  Fe  Fe3  1  0.06252824  0.01999753  0.59583249  1
  Fe  Fe4  1  0.06252824  0.01999753  0.80416751  1
  Fe  Fe5  1  0.48171873  0.49558637  0.10304009  1
  Fe  Fe6  1  0.47102293  0.48019753  0.48828072  1
  Fe  Fe7  1  0.48171873  0.49558637  0.29695991  1
  Fe  Fe8  1  0.49771599  0.54363641  0.70000000  1
  Fe  Fe9  1  0.47102293  0.48019753  0.91171928  1
  O  O0  1  0.24442426  0.85584923  0.70000000  1
  O  O1  1  0.27128616  0.29549509  0.00599172  1
  O  O2  1  0.27935033  0.29584737  0.20000000  1
  O  O3  1  0.27128616  0.29549509  0.39400828  1
  O  O4  1  0.28274060  0.37797295  0.59469814  1
  O  O5  1  0.28274060  0.37797295  0.80530186  1
  O  O6  1  0.68887144  0.68323300  0.00242592  1
  O  O7  1  0.68474748  0.69305305  0.20000000  1
  O  O8  1  0.68887144  0.68323300  0.39757408  1
  F  F0  1  0.17339835  0.80711090  0.10168415  1
  F  F1  1  0.17339835  0.80711090  0.29831585  1
  F  F2  1  0.21196536  0.81447420  0.48640447  1
  F  F3  1  0.21196536  0.81447420  0.91359553  1
  F  F4  1  0.77319023  0.67271678  0.59876858  1
  F  F5  1  0.77319023  0.67271678  0.80123142  1
  F  F6  1  0.78610060  0.17680878  0.10154714  1
  F  F7  1  0.77314587  0.17739625  0.49463124  1
  F  F8  1  0.78610060  0.17680878  0.29845286  1
  F  F9  1  0.77314587  0.17739625  0.90536876  1
  F  F10  1  0.78543551  0.18567785  0.70000000  1
loop_
_geom_bond_atom_site_label_1
_geom_bond_atom_site_label_2
_geom_bond_distance
_geom_bond_site_symmetry_2
Mg0 O0 1.915128 1_555
Mg0 O5 2.228921 1_555
Mg0 O4 2.228921 1_555
Fe0 O6 1.954087 1_556
Fe0 O1 1.989495 1_666
Fe1 O2 1.967939 1_665
Fe1 O7 1.979725 1_555
Fe2 O8 1.954087 1_555
Fe2 O3 1.989495 1_665
Fe3 O4 1.971697 1_555
Fe3 O0 2.035604 1_545
Fe4 O5 1.971697 1_555
Fe4 O0 2.035604 1_545
Fe5 O7 1.995230 1_555
Fe5 O2 1.998698 1_555
Fe5 O1 2.018471 1_555
Fe5 O6 2.026722 1_555
Fe6 O4 1.925271 1_555
Fe6 O3 1.929734 1_555
Fe6 O8 1.971225 1_555
Fe7 O7 1.995230 1_555
Fe7 O2 1.998698 1_555
Fe7 O3 2.018471 1_555
Fe7 O8 2.026722 1_555
Fe8 O0 2.049907 1_555
Fe8 O5 2.060026 1_555
Fe8 O4 2.060026 1_555
Fe9 O5 1.925271 1_555
Fe9 O1 1.929734 1_556
Fe9 O6 1.971225 1_556
F0 Fe1 2.035536 1_455
F0 Fe0 2.096712 1_454
F0 Fe5 2.236134 1_555
F1 Fe1 2.035536 1_455
F1 Fe2 2.096712 1_455
F1 Fe7 2.236134 1_555
F2 Fe2 2.013316 1_455
F2 Fe3 2.127334 1_565
F2 Fe6 2.155781 1_555
F3 Fe0 2.013316 1_455
F3 Fe4 2.127334 1_565
F3 Fe9 2.155781 1_555
F4 Fe3 2.110367 1_665
F4 Fe8 2.119269 1_555
F4 Mg0 2.138262 1_655
F4 Fe6 2.390943 1_555
F5 Fe4 2.110367 1_665
F5 Fe8 2.119269 1_555
F5 Mg0 2.138262 1_655
F5 Fe9 2.390943 1_555
F6 Fe1 2.048104 1_545
F6 Fe0 2.067223 1_544
F6 Fe5 2.248727 1_555
F7 Fe2 2.015890 1_545
F7 Fe6 2.184356 1_555
F7 Fe3 2.284539 1_655
F8 Fe1 2.048104 1_545
F8 Fe2 2.067223 1_545
F8 Fe7 2.248727 1_555
F9 Fe0 2.015890 1_545
F9 Fe9 2.184356 1_555
F9 Fe4 2.284539 1_655
F10 Mg0 1.887355 1_655
F10 Fe4 2.294376 1_655
F10 Fe3 2.294376 1_655
F10 Fe8 2.341512 1_555
