# generated using pymatgen
data_MnV(Fe2Si)2
_symmetry_space_group_name_H-M   'P 1'
_cell_length_a   6.86350902
_cell_length_b   6.86350902
_cell_length_c   6.86350865
_cell_angle_alpha   33.63209893
_cell_angle_beta   33.63209893
_cell_angle_gamma   33.63210259
_symmetry_Int_Tables_number   1
_chemical_formula_structural   MnV(Fe2Si)2
_chemical_formula_sum   'Mn1 V1 Fe4 Si2'
_cell_volume   88.35518513
_cell_formula_units_Z   1
loop_
 _symmetry_equiv_pos_site_id
 _symmetry_equiv_pos_as_xyz
  1  'x, y, z'
loop_
 _atom_site_type_symbol
 _atom_site_label
 _atom_site_symmetry_multiplicity
 _atom_site_fract_x
 _atom_site_fract_y
 _atom_site_fract_z
 _atom_site_occupancy
  Mn  Mn0  1  0.00000000  0.00000000  0.00000000  1
  V  V0  1  0.50000000  0.50000000  0.50000000  1
  Fe  Fe0  1  0.62298700  0.62298700  0.62298700  1
  Fe  Fe1  1  0.12662100  0.12662100  0.12662100  1
  Fe  Fe2  1  0.87337900  0.87337900  0.87337900  1
  Fe  Fe3  1  0.37701300  0.37701300  0.37701300  1
  Si  Si0  1  0.25160600  0.25160600  0.25160600  1
  Si  Si1  1  0.74839400  0.74839400  0.74839400  1
loop_
_geom_bond_atom_site_label_1
_geom_bond_atom_site_label_2
_geom_bond_distance
_geom_bond_site_symmetry_2
Mn0 Si1 2.787958 1_445
Mn0 Si0 2.787958 1_554
Mn0 Si0 2.787958 1_545
Mn0 Si1 2.787958 1_454
Mn0 Si1 2.787958 1_544
Mn0 Si0 2.787958 1_455
Fe0 V0 2.386892 1_555
Fe0 Si0 2.408762 1_556
Fe0 Si0 2.408763 1_655
Fe0 Si0 2.408763 1_565
Fe0 Si1 2.433858 1_555
Fe0 Mn0 2.444485 1_665
Fe0 Mn0 2.444485 1_566
Fe0 Mn0 2.444485 1_656
Fe1 V0 2.420931 1_554
Fe1 V0 2.420931 1_455
Fe1 V0 2.420931 1_545
Fe1 Si0 2.425668 1_555
Fe1 Si1 2.452755 1_445
Fe1 Si1 2.452756 1_454
Fe1 Si1 2.452756 1_544
Fe1 Mn0 2.457419 1_555
Fe2 V0 2.420931 1_556
Fe2 V0 2.420931 1_655
Fe2 V0 2.420931 1_565
Fe2 Si1 2.425668 1_555
Fe2 Si0 2.452755 1_665
Fe2 Si0 2.452756 1_566
Fe2 Si0 2.452756 1_656
Fe2 Mn0 2.457419 1_666
Fe3 V0 2.386892 1_555
Fe3 Si1 2.408762 1_554
Fe3 Si1 2.408763 1_545
Fe3 Si1 2.408763 1_455
Fe3 Si0 2.433858 1_555
Fe3 Mn0 2.444485 1_556
Fe3 Mn0 2.444485 1_565
Fe3 Mn0 2.444485 1_655
Si0 V0 2.823888 1_554
Si0 V0 2.823889 1_545
Si0 V0 2.823889 1_455
Si1 V0 2.823888 1_556
Si1 V0 2.823889 1_565
Si1 V0 2.823889 1_655
