# generated using pymatgen
data_Mg7Si4
_symmetry_space_group_name_H-M   'P 1'
_cell_length_a   5.36890900
_cell_length_b   5.95176332
_cell_length_c   13.95039847
_cell_angle_alpha   101.82186590
_cell_angle_beta   92.97966496
_cell_angle_gamma   91.43988078
_symmetry_Int_Tables_number   1
_chemical_formula_structural   Mg7Si4
_chemical_formula_sum   'Mg14 Si8'
_cell_volume   435.44053474
_cell_formula_units_Z   2
loop_
 _symmetry_equiv_pos_site_id
 _symmetry_equiv_pos_as_xyz
  1  'x, y, z'
loop_
 _atom_site_type_symbol
 _atom_site_label
 _atom_site_symmetry_multiplicity
 _atom_site_fract_x
 _atom_site_fract_y
 _atom_site_fract_z
 _atom_site_occupancy
  Mg  Mg0  1  0.35816900  0.86141200  0.86819400  1
  Mg  Mg1  1  0.94674700  0.14812200  0.77767900  1
  Mg  Mg2  1  0.49382500  0.99114500  0.47841600  1
  Mg  Mg3  1  0.20006100  0.53207700  0.66714700  1
  Mg  Mg4  1  0.48184300  0.37479500  0.87282900  1
  Mg  Mg5  1  0.26491800  0.64006200  0.28288700  1
  Mg  Mg6  1  0.36195200  0.14135100  0.28551700  1
  Mg  Mg7  1  0.48131000  0.49370000  0.47350600  1
  Mg  Mg8  1  0.00759100  0.52213400  0.99647000  1
  Mg  Mg9  1  0.86277800  0.01264500  0.97635200  1
  Mg  Mg10  1  0.51731700  0.74157300  0.09759300  1
  Mg  Mg11  1  0.41249300  0.23280300  0.07483500  1
  Mg  Mg12  1  0.00315400  0.75686600  0.49199900  1
  Mg  Mg13  1  0.98103400  0.23783600  0.45298200  1
  Si  Si0  1  0.94606900  0.29892200  0.15769700  1
  Si  Si1  1  0.86143900  0.66503600  0.81365100  1
  Si  Si2  1  0.38262400  0.05194000  0.67981300  1
  Si  Si3  1  0.76556000  0.86606700  0.30287900  1
  Si  Si4  1  0.00946300  0.89050200  0.15703300  1
  Si  Si5  1  0.70592400  0.75548200  0.65421300  1
  Si  Si6  1  0.69887900  0.32797700  0.63178400  1
  Si  Si7  1  0.75687800  0.46498200  0.31021500  1
loop_
_geom_bond_atom_site_label_1
_geom_bond_atom_site_label_2
_geom_bond_distance
_geom_bond_site_symmetry_2
Mg0 Si1 2.885370 1_455
Mg0 Si1 3.042030 1_555
Mg0 Si2 3.075536 1_565
Mg1 Si6 2.782439 1_555
Mg1 Si2 2.783411 1_655
Mg1 Si5 2.840228 1_545
Mg1 Si1 3.045876 1_545
Mg1 Si1 3.064128 1_555
Mg2 Si6 2.774058 1_565
Mg2 Si2 2.854775 1_565
Mg2 Si3 2.891083 1_555
Mg3 Si1 2.811484 1_455
Mg3 Si6 2.900274 1_455
Mg3 Si6 2.991082 1_555
Mg3 Si5 3.010754 1_455
Mg3 Si5 3.024002 1_555
Mg3 Si2 3.080232 1_555
Mg3 Si2 3.189197 1_565
Mg4 Si1 2.898524 1_555
Mg4 Si2 2.984279 1_555
Mg5 Si4 2.847812 1_555
Mg5 Si0 2.857383 1_455
Mg5 Si7 2.898964 1_555
Mg5 Si3 2.949341 1_555
Mg5 Si7 2.966333 1_455
Mg5 Si3 3.029887 1_455
Mg6 Si4 2.726187 1_545
Mg6 Si3 2.779419 1_545
Mg6 Si7 2.787741 1_555
Mg6 Si0 3.069394 1_455
Mg7 Si7 2.758778 1_555
Mg7 Si6 2.809790 1_555
Mg7 Si5 2.866549 1_555
Mg8 Si4 2.794368 1_556
Mg8 Si0 2.865719 1_456
Mg8 Si1 2.925390 1_455
Mg9 Si1 2.739629 1_545
Mg9 Si0 2.753376 1_556
Mg9 Si4 2.841685 1_646
Mg10 Si4 2.794336 1_655
Mg10 Si4 2.993844 1_555
Mg10 Si3 3.034952 1_555
Mg11 Si0 2.815340 1_455
Mg11 Si0 3.018345 1_555
Mg12 Si5 2.837252 1_455
Mg12 Si7 2.988006 1_455
Mg12 Si3 3.066696 1_455
Mg13 Si7 2.859817 1_555
Mg13 Si3 2.887932 1_545
Mg13 Si6 2.947852 1_555
Si0 Si7 2.439084 1_555
Si0 Si4 2.461197 1_645
Si1 Si5 2.500839 1_555
Si2 Si5 2.492766 1_545
Si2 Si6 2.541694 1_555
Si3 Si7 2.409605 1_555
Si3 Si4 2.502842 1_655
Si5 Si6 2.498215 1_555
