# generated using pymatgen
data_BMo
_symmetry_space_group_name_H-M   'P 1'
_cell_length_a   3.11623693
_cell_length_b   3.11623490
_cell_length_c   8.77640623
_cell_angle_alpha   100.23721615
_cell_angle_beta   100.23722330
_cell_angle_gamma   90.01180255
_symmetry_Int_Tables_number   1
_chemical_formula_structural   BMo
_chemical_formula_sum   'B4 Mo4'
_cell_volume   82.49057965
_cell_formula_units_Z   4
loop_
 _symmetry_equiv_pos_site_id
 _symmetry_equiv_pos_as_xyz
  1  'x, y, z'
loop_
 _atom_site_type_symbol
 _atom_site_label
 _atom_site_symmetry_multiplicity
 _atom_site_fract_x
 _atom_site_fract_y
 _atom_site_fract_z
 _atom_site_occupancy
  B  B0  1  0.46953659  0.71955242  0.43932981  1
  B  B1  1  0.21955950  0.96954297  0.93934429  1
  B  B2  1  0.53045977  0.28044325  0.56066121  1
  B  B3  1  0.78044672  0.03046257  0.06066847  1
  Mo  Mo0  1  0.32170548  0.57176868  0.14366857  1
  Mo  Mo1  1  0.07176437  0.82170183  0.64366060  1
  Mo  Mo2  1  0.67831043  0.42824793  0.85636391  1
  Mo  Mo3  1  0.92821716  0.17828036  0.35630315  1
loop_
_geom_bond_atom_site_label_1
_geom_bond_atom_site_label_2
_geom_bond_distance
_geom_bond_site_symmetry_2
B0 B2 1.867769 1_555
B0 B2 1.868538 1_565
B0 Mo3 2.312279 1_455
B0 Mo3 2.313747 1_555
B0 Mo3 2.313946 1_465
B0 Mo3 2.314548 1_565
B0 Mo1 2.332332 1_655
B0 Mo1 2.332613 1_555
B0 Mo0 2.511529 1_555
B1 B3 1.867736 1_466
B1 B3 1.868505 1_566
B1 Mo2 2.312157 1_455
B1 Mo2 2.313630 1_465
B1 Mo2 2.313823 1_555
B1 Mo2 2.314431 1_565
B1 Mo0 2.332292 1_566
B1 Mo0 2.332569 1_556
B1 Mo1 2.511719 1_555
B2 Mo1 2.312206 1_655
B2 Mo1 2.313679 1_555
B2 Mo1 2.313872 1_645
B2 Mo1 2.314480 1_545
B2 Mo3 2.332507 1_455
B2 Mo3 2.332783 1_555
B2 Mo2 2.511881 1_555
B3 Mo0 2.312210 1_655
B3 Mo0 2.313678 1_645
B3 Mo0 2.313877 1_555
B3 Mo0 2.314480 1_545
B3 Mo2 2.332165 1_544
B3 Mo2 2.332447 1_554
B3 Mo3 2.511303 1_555
