# generated using pymatgen
data_HfGa2Ag
_symmetry_space_group_name_H-M   'P 1'
_cell_length_a   4.20580400
_cell_length_b   4.20580400
_cell_length_c   3.99045300
_cell_angle_alpha   90.00000000
_cell_angle_beta   90.00000000
_cell_angle_gamma   90.00000000
_symmetry_Int_Tables_number   1
_chemical_formula_structural   HfGa2Ag
_chemical_formula_sum   'Hf1 Ga2 Ag1'
_cell_volume   70.58627429
_cell_formula_units_Z   1
loop_
 _symmetry_equiv_pos_site_id
 _symmetry_equiv_pos_as_xyz
  1  'x, y, z'
loop_
 _atom_site_type_symbol
 _atom_site_label
 _atom_site_symmetry_multiplicity
 _atom_site_fract_x
 _atom_site_fract_y
 _atom_site_fract_z
 _atom_site_occupancy
  Hf  Hf0  1  0.00000000  0.00000000  0.00000000  1
  Ga  Ga0  1  0.00000000  0.50000000  0.50000000  1
  Ga  Ga1  1  0.50000000  0.00000000  0.50000000  1
  Ag  Ag0  1  0.50000000  0.50000000  0.00000000  1
loop_
_geom_bond_atom_site_label_1
_geom_bond_atom_site_label_2
_geom_bond_distance
_geom_bond_site_symmetry_2
Ga0 Hf0 2.898815 1_555
Ga0 Hf0 2.898815 1_556
Ga0 Hf0 2.898815 1_565
Ga0 Hf0 2.898815 1_566
Ga0 Ga1 2.973953 1_465
Ga0 Ga1 2.973953 1_455
Ga0 Ga1 2.973953 1_565
Ga0 Ga1 2.973953 1_555
Ga1 Hf0 2.898815 1_556
Ga1 Hf0 2.898815 1_656
Ga1 Hf0 2.898815 1_655
Ga1 Hf0 2.898815 1_555
Ag0 Ga1 2.898815 1_554
Ag0 Ga1 2.898815 1_564
Ag0 Ga0 2.898815 1_554
Ag0 Ga0 2.898815 1_555
Ag0 Ga1 2.898815 1_565
Ag0 Ga1 2.898815 1_555
Ag0 Ga0 2.898815 1_655
Ag0 Ga0 2.898815 1_654
Ag0 Hf0 2.973953 1_655
Ag0 Hf0 2.973953 1_565
Ag0 Hf0 2.973953 1_665
Ag0 Hf0 2.973953 1_555
