# generated using pymatgen
data_CaEuZr2O6
_symmetry_space_group_name_H-M   'P 1'
_cell_length_a   4.20995672
_cell_length_b   5.76585532
_cell_length_c   5.76585532
_cell_angle_alpha   90.25094967
_cell_angle_beta   90.00000000
_cell_angle_gamma   90.00000000
_symmetry_Int_Tables_number   1
_chemical_formula_structural   CaEuZr2O6
_chemical_formula_sum   'Ca1 Eu1 Zr2 O6'
_cell_volume   139.95903740
_cell_formula_units_Z   1
loop_
 _symmetry_equiv_pos_site_id
 _symmetry_equiv_pos_as_xyz
  1  'x, y, z'
loop_
 _atom_site_type_symbol
 _atom_site_label
 _atom_site_symmetry_multiplicity
 _atom_site_fract_x
 _atom_site_fract_y
 _atom_site_fract_z
 _atom_site_occupancy
  Ca  Ca0  1  0.50000000  0.00000000  -0.00000000  1
  Eu  Eu0  1  0.50000000  0.50000000  0.50000000  1
  Zr  Zr0  1  0.00000000  0.00000000  0.50000000  1
  Zr  Zr1  1  0.00000000  0.50000000  -0.00000000  1
  O  O0  1  0.50000000  0.00000000  0.50000000  1
  O  O1  1  0.50000000  0.50000000  -0.00000000  1
  O  O2  1  -0.00000000  0.32025689  0.67974311  1
  O  O3  1  -0.00000000  0.67974311  0.32025689  1
  O  O4  1  -0.00000000  0.82322373  0.82322373  1
  O  O5  1  0.00000000  0.17677627  0.17677627  1
loop_
_geom_bond_atom_site_label_1
_geom_bond_atom_site_label_2
_geom_bond_distance
_geom_bond_site_symmetry_2
Ca0 O4 2.549439 1_644
Ca0 O4 2.549439 1_544
Ca0 O5 2.549439 1_555
Ca0 O5 2.549439 1_655
Ca0 O1 2.882928 1_555
Ca0 O1 2.882928 1_545
Ca0 O0 2.882928 1_555
Ca0 O0 2.882928 1_554
Eu0 O2 2.566803 1_655
Eu0 O3 2.566803 1_555
Eu0 O2 2.566803 1_555
Eu0 O3 2.566803 1_655
Eu0 O1 2.882928 1_555
Eu0 O1 2.882928 1_556
Eu0 O0 2.882928 1_565
Eu0 O0 2.882928 1_555
O0 Zr0 2.104978 1_655
O0 Zr0 2.104978 1_555
O1 Zr1 2.104978 1_555
O1 Zr1 2.104978 1_655
O2 Zr1 2.113544 1_556
O2 Zr0 2.113544 1_555
O3 Zr0 2.113544 1_565
O3 Zr1 2.113544 1_555
O4 Zr1 2.128092 1_556
O4 Zr0 2.128092 1_565
O5 Zr0 2.128092 1_555
O5 Zr1 2.128092 1_555
