# generated using pymatgen
data_SbNF4
_symmetry_space_group_name_H-M   'P 1'
_cell_length_a   7.23105000
_cell_length_b   8.65743600
_cell_length_c   17.76792332
_cell_angle_alpha   74.73640765
_cell_angle_beta   90.00000000
_cell_angle_gamma   90.00000000
_symmetry_Int_Tables_number   1
_chemical_formula_structural   SbNF4
_chemical_formula_sum   'Sb8 N8 F32'
_cell_volume   1073.07681688
_cell_formula_units_Z   8
loop_
 _symmetry_equiv_pos_site_id
 _symmetry_equiv_pos_as_xyz
  1  'x, y, z'
loop_
 _atom_site_type_symbol
 _atom_site_label
 _atom_site_symmetry_multiplicity
 _atom_site_fract_x
 _atom_site_fract_y
 _atom_site_fract_z
 _atom_site_occupancy
  Sb  Sb0  1  0.24920500  0.67944800  0.59115100  1
  Sb  Sb1  1  0.74920500  0.32055200  0.90884900  1
  Sb  Sb2  1  0.75079500  0.32055200  0.40884900  1
  Sb  Sb3  1  0.25079500  0.67944800  0.09115100  1
  Sb  Sb4  1  0.69675200  0.80337900  0.72234600  1
  Sb  Sb5  1  0.19675200  0.19662100  0.77765400  1
  Sb  Sb6  1  0.30324800  0.19662100  0.27765400  1
  Sb  Sb7  1  0.80324800  0.80337900  0.22234600  1
  N  N0  1  0.26444300  0.63440500  0.86903600  1
  N  N1  1  0.76444300  0.36559500  0.63096400  1
  N  N2  1  0.73555700  0.36559500  0.13096400  1
  N  N3  1  0.23555700  0.63440500  0.36903600  1
  N  N4  1  0.23578900  0.16752000  0.54267200  1
  N  N5  1  0.73578900  0.83248000  0.95732800  1
  N  N6  1  0.76421100  0.83248000  0.45732800  1
  N  N7  1  0.26421100  0.16752000  0.04267200  1
  F  F0  1  0.19705700  0.82816000  0.49245000  1
  F  F1  1  0.69705700  0.17184000  0.00755000  1
  F  F2  1  0.80294300  0.17184000  0.50755000  1
  F  F3  1  0.30294300  0.82816000  0.99245000  1
  F  F4  1  0.13293100  0.50003900  0.56558800  1
  F  F5  1  0.63293100  0.49996100  0.93441200  1
  F  F6  1  0.86706900  0.49996100  0.43441200  1
  F  F7  1  0.36706900  0.50003900  0.06558800  1
  F  F8  1  0.49289400  0.62625600  0.56198800  1
  F  F9  1  0.99289400  0.37374400  0.93801200  1
  F  F10  1  0.50710600  0.37374400  0.43801200  1
  F  F11  1  0.00710600  0.62625600  0.06198800  1
  F  F12  1  0.52374500  0.89633100  0.64297300  1
  F  F13  1  0.02374500  0.10366900  0.85702700  1
  F  F14  1  0.47625500  0.10366900  0.35702700  1
  F  F15  1  0.97625500  0.89633100  0.14297300  1
  F  F16  1  0.59452000  0.59558300  0.74933500  1
  F  F17  1  0.09452000  0.40441700  0.75066500  1
  F  F18  1  0.40548000  0.40441700  0.25066500  1
  F  F19  1  0.90548000  0.59558300  0.24933500  1
  F  F20  1  0.89413100  0.76612800  0.79436700  1
  F  F21  1  0.39413100  0.23387200  0.70563300  1
  F  F22  1  0.10586900  0.23387200  0.20563300  1
  F  F23  1  0.60586900  0.76612800  0.29436700  1
  F  F24  1  0.57244600  0.91594200  0.78537300  1
  F  F25  1  0.07244600  0.08405800  0.71462700  1
  F  F26  1  0.42755400  0.08405800  0.21462700  1
  F  F27  1  0.92755400  0.91594200  0.28537300  1
  F  F28  1  0.87269700  0.80212900  0.64373900  1
  F  F29  1  0.37269700  0.19787100  0.85626100  1
  F  F30  1  0.12730300  0.19787100  0.35626100  1
  F  F31  1  0.62730300  0.80212900  0.14373900  1
loop_
_geom_bond_atom_site_label_1
_geom_bond_atom_site_label_2
_geom_bond_distance
_geom_bond_site_symmetry_2
F0 Sb0 1.920017 1_555
F1 Sb1 1.920017 1_554
F2 Sb2 1.920017 1_555
F3 Sb3 1.920017 1_556
F4 Sb0 1.922800 1_555
F5 Sb1 1.922800 1_555
F6 Sb2 1.922800 1_555
F7 Sb3 1.922800 1_555
F8 Sb0 1.926471 1_555
F9 Sb1 1.926471 1_555
F10 Sb2 1.926471 1_555
F11 Sb3 1.926471 1_555
F12 Sb4 1.898426 1_555
F13 Sb5 1.898426 1_555
F14 Sb6 1.898426 1_555
F15 Sb7 1.898426 1_555
F16 Sb4 1.886413 1_555
F17 Sb5 1.886413 1_555
F18 Sb6 1.886413 1_555
F19 Sb7 1.886413 1_555
F20 Sb4 1.887146 1_555
F21 Sb5 1.887146 1_555
F22 Sb6 1.887146 1_555
F23 Sb7 1.887146 1_555
F24 Sb4 1.893753 1_555
F25 Sb5 1.893753 1_555
F26 Sb6 1.893753 1_555
F27 Sb7 1.893753 1_555
F28 Sb4 1.891418 1_555
F29 Sb5 1.891418 1_555
F30 Sb6 1.891418 1_555
F31 Sb7 1.891418 1_555
