# generated using pymatgen
data_Ba2TmReO6
_symmetry_space_group_name_H-M   'P 1'
_cell_length_a   5.94796728
_cell_length_b   5.94796728
_cell_length_c   5.94796728
_cell_angle_alpha   60.00000000
_cell_angle_beta   60.00000000
_cell_angle_gamma   60.00000000
_symmetry_Int_Tables_number   1
_chemical_formula_structural   Ba2TmReO6
_chemical_formula_sum   'Ba2 Tm1 Re1 O6'
_cell_volume   148.79581454
_cell_formula_units_Z   1
loop_
 _symmetry_equiv_pos_site_id
 _symmetry_equiv_pos_as_xyz
  1  'x, y, z'
loop_
 _atom_site_type_symbol
 _atom_site_label
 _atom_site_symmetry_multiplicity
 _atom_site_fract_x
 _atom_site_fract_y
 _atom_site_fract_z
 _atom_site_occupancy
  Ba  Ba0  1  0.75000000  0.75000000  0.75000000  1
  Ba  Ba1  1  0.25000000  0.25000000  0.25000000  1
  Tm  Tm0  1  0.50000000  0.50000000  0.50000000  1
  Re  Re0  1  0.00000000  0.00000000  0.00000000  1
  O  O0  1  0.76302400  0.76302400  0.23697600  1
  O  O1  1  0.76302400  0.23697600  0.76302400  1
  O  O2  1  0.23697600  0.76302400  0.23697600  1
  O  O3  1  0.76302400  0.23697600  0.23697600  1
  O  O4  1  0.23697600  0.23697600  0.76302400  1
  O  O5  1  0.23697600  0.76302400  0.76302400  1
loop_
_geom_bond_atom_site_label_1
_geom_bond_atom_site_label_2
_geom_bond_distance
_geom_bond_site_symmetry_2
Ba0 O5 2.976001 1_555
Ba0 O2 2.976001 1_655
Ba0 O2 2.976001 1_556
Ba0 O0 2.976001 1_555
Ba0 O3 2.976001 1_556
Ba0 O3 2.976001 1_565
Ba0 O1 2.976001 1_555
Ba0 O4 2.976001 1_655
Ba0 O5 2.976001 1_655
Ba0 O4 2.976001 1_565
Ba0 O1 2.976001 1_565
Ba0 O0 2.976001 1_556
Ba1 O5 2.976001 1_554
Ba1 O0 2.976001 1_455
Ba1 O3 2.976001 1_555
Ba1 O3 2.976001 1_455
Ba1 O2 2.976001 1_545
Ba1 O4 2.976001 1_554
Ba1 O2 2.976001 1_555
Ba1 O5 2.976001 1_545
Ba1 O1 2.976001 1_455
Ba1 O1 2.976001 1_554
Ba1 O4 2.976001 1_555
Ba1 O0 2.976001 1_545
O0 Re0 1.993370 1_665
O0 Tm0 2.212478 1_555
O1 Re0 1.993370 1_656
O1 Tm0 2.212478 1_555
O2 Re0 1.993370 1_565
O2 Tm0 2.212478 1_555
O3 Re0 1.993370 1_655
O3 Tm0 2.212478 1_555
O4 Re0 1.993370 1_556
O4 Tm0 2.212478 1_555
O5 Re0 1.993370 1_566
O5 Tm0 2.212478 1_555
