# generated using pymatgen
data_Rb3Mo2HCO13
_symmetry_space_group_name_H-M   'P 1'
_cell_length_a   11.98377300
_cell_length_b   6.47705200
_cell_length_c   17.01548000
_cell_angle_alpha   90.00000000
_cell_angle_beta   90.00000000
_cell_angle_gamma   90.00000000
_symmetry_Int_Tables_number   1
_chemical_formula_structural   Rb3Mo2HCO13
_chemical_formula_sum   'Rb12 Mo8 H4 C4 O52'
_cell_volume   1320.73340510
_cell_formula_units_Z   4
loop_
 _symmetry_equiv_pos_site_id
 _symmetry_equiv_pos_as_xyz
  1  'x, y, z'
loop_
 _atom_site_type_symbol
 _atom_site_label
 _atom_site_symmetry_multiplicity
 _atom_site_fract_x
 _atom_site_fract_y
 _atom_site_fract_z
 _atom_site_occupancy
  Rb  Rb0  1  0.40052700  0.75250200  0.85247000  1
  Rb  Rb1  1  0.59947300  0.24749800  0.35247000  1
  Rb  Rb2  1  0.09947300  0.75250200  0.35247000  1
  Rb  Rb3  1  0.90052700  0.24749800  0.85247000  1
  Rb  Rb4  1  0.59115600  0.24181700  0.64806300  1
  Rb  Rb5  1  0.40884400  0.75818300  0.14806300  1
  Rb  Rb6  1  0.90884400  0.24181700  0.14806300  1
  Rb  Rb7  1  0.09115600  0.75818300  0.64806300  1
  Rb  Rb8  1  0.43031500  0.72410100  0.44588800  1
  Rb  Rb9  1  0.56968500  0.27589900  0.94588800  1
  Rb  Rb10  1  0.06968500  0.72410100  0.94588800  1
  Rb  Rb11  1  0.93031500  0.27589900  0.44588800  1
  Mo  Mo0  1  0.73745200  0.78499200  0.75782000  1
  Mo  Mo1  1  0.26254800  0.21500800  0.25782000  1
  Mo  Mo2  1  0.76254800  0.78499200  0.25782000  1
  Mo  Mo3  1  0.23745200  0.21500800  0.75782000  1
  Mo  Mo4  1  0.76012500  0.79375300  0.53691000  1
  Mo  Mo5  1  0.23987500  0.20624700  0.03691000  1
  Mo  Mo6  1  0.73987500  0.79375300  0.03691000  1
  Mo  Mo7  1  0.26012500  0.20624700  0.53691000  1
  H  H0  1  0.90644800  0.26512900  0.65417900  1
  H  H1  1  0.09355200  0.73487100  0.15417900  1
  H  H2  1  0.59355200  0.26512900  0.15417900  1
  H  H3  1  0.40644800  0.73487100  0.65417900  1
  C  C0  1  0.86128100  0.41442400  0.65217100  1
  C  C1  1  0.13871900  0.58557600  0.15217100  1
  C  C2  1  0.63871900  0.41442400  0.15217100  1
  C  C3  1  0.36128100  0.58557600  0.65217100  1
  O  O0  1  0.89820400  0.86078500  0.74801500  1
  O  O1  1  0.10179600  0.13921500  0.24801500  1
  O  O2  1  0.60179600  0.86078500  0.24801500  1
  O  O3  1  0.39820400  0.13921500  0.74801500  1
  O  O4  1  0.87415300  0.76323600  0.82491100  1
  O  O5  1  0.12584700  0.23676400  0.32491100  1
  O  O6  1  0.62584700  0.76323600  0.32491100  1
  O  O7  1  0.37415300  0.23676400  0.82491100  1
  O  O8  1  0.65712000  0.58314200  0.82614800  1
  O  O9  1  0.34288000  0.41685800  0.32614800  1
  O  O10  1  0.84288000  0.58314200  0.32614800  1
  O  O11  1  0.15712000  0.41685800  0.82614800  1
  O  O12  1  0.59897200  0.61443100  0.75049900  1
  O  O13  1  0.40102800  0.38556900  0.25049900  1
  O  O14  1  0.90102800  0.61443100  0.25049900  1
  O  O15  1  0.09897200  0.38556900  0.75049900  1
  O  O16  1  0.64339300  0.57396100  0.53562400  1
  O  O17  1  0.35660700  0.42603900  0.03562400  1
  O  O18  1  0.85660700  0.57396100  0.03562400  1
  O  O19  1  0.14339300  0.42603900  0.53562400  1
  O  O20  1  0.71526000  0.56452700  0.46520100  1
  O  O21  1  0.28474000  0.43547300  0.96520100  1
  O  O22  1  0.78474000  0.56452700  0.96520100  1
  O  O23  1  0.21526000  0.43547300  0.46520100  1
  O  O24  1  0.90397500  0.81930300  0.47822500  1
  O  O25  1  0.09602500  0.18069700  0.97822500  1
  O  O26  1  0.59602500  0.81930300  0.97822500  1
  O  O27  1  0.40397500  0.18069700  0.47822500  1
  O  O28  1  0.90905000  0.92465900  0.55547500  1
  O  O29  1  0.09095000  0.07534100  0.05547500  1
  O  O30  1  0.59095000  0.92465900  0.05547500  1
  O  O31  1  0.40905000  0.07534100  0.55547500  1
  O  O32  1  0.68267300  0.01619800  0.79365700  1
  O  O33  1  0.31732700  0.98380200  0.29365700  1
  O  O34  1  0.81732700  0.01619800  0.29365700  1
  O  O35  1  0.18267300  0.98380200  0.79365700  1
  O  O36  1  0.72065600  0.84806800  0.64617100  1
  O  O37  1  0.27934400  0.15193200  0.14617100  1
  O  O38  1  0.77934400  0.84806800  0.14617100  1
  O  O39  1  0.22065600  0.15193200  0.64617100  1
  O  O40  1  0.68749100  0.00135800  0.49659400  1
  O  O41  1  0.31250900  0.99864200  0.99659400  1
  O  O42  1  0.81250900  0.00135800  0.99659400  1
  O  O43  1  0.18749100  0.99864200  0.49659400  1
  O  O44  1  0.81087900  0.46515100  0.71470400  1
  O  O45  1  0.18912100  0.53484900  0.21470400  1
  O  O46  1  0.68912100  0.46515100  0.21470400  1
  O  O47  1  0.31087900  0.53484900  0.71470400  1
  O  O48  1  0.86596300  0.51131800  0.58741500  1
  O  O49  1  0.13403700  0.48868200  0.08741500  1
  O  O50  1  0.63403700  0.51131800  0.08741500  1
  O  O51  1  0.36596300  0.48868200  0.58741500  1
loop_
_geom_bond_atom_site_label_1
_geom_bond_atom_site_label_2
_geom_bond_distance
_geom_bond_site_symmetry_2
Mo0 O32 1.745102 1_565
Mo0 O36 1.953591 1_555
Mo0 O0 1.994971 1_555
Mo0 O8 1.996934 1_555
Mo0 O12 1.997482 1_555
Mo0 O4 2.001688 1_555
Mo0 O44 2.367308 1_555
Mo1 O33 1.745102 1_545
Mo1 O37 1.953591 1_555
Mo1 O1 1.994971 1_555
Mo1 O9 1.996934 1_555
Mo1 O13 1.997482 1_555
Mo1 O5 2.001688 1_555
Mo1 O45 2.367308 1_555
Mo2 O34 1.745102 1_565
Mo2 O38 1.953591 1_555
Mo2 O2 1.994971 1_555
Mo2 O10 1.996934 1_555
Mo2 O14 1.997482 1_555
Mo2 O6 2.001688 1_555
Mo2 O46 2.367308 1_555
Mo3 O35 1.745102 1_545
Mo3 O39 1.953591 1_555
Mo3 O3 1.994971 1_555
Mo3 O11 1.996934 1_555
Mo3 O15 1.997482 1_555
Mo3 O7 2.001688 1_555
Mo3 O47 2.367308 1_555
Mo4 O40 1.742519 1_565
Mo4 O36 1.950343 1_555
Mo4 O20 1.995552 1_555
Mo4 O16 1.996001 1_555
Mo4 O24 1.999052 1_555
Mo4 O28 2.000948 1_555
Mo4 O48 2.386148 1_555
Mo5 O41 1.742519 1_544
Mo5 O37 1.950343 1_555
Mo5 O21 1.995552 1_554
Mo5 O17 1.996001 1_555
Mo5 O25 1.999052 1_554
Mo5 O29 2.000948 1_555
Mo5 O49 2.386148 1_555
Mo6 O42 1.742519 1_564
Mo6 O38 1.950343 1_555
Mo6 O22 1.995552 1_554
Mo6 O18 1.996001 1_555
Mo6 O26 1.999052 1_554
Mo6 O30 2.000948 1_555
Mo6 O50 2.386148 1_555
Mo7 O43 1.742519 1_545
Mo7 O39 1.950343 1_555
Mo7 O23 1.995552 1_555
Mo7 O19 1.996001 1_555
Mo7 O27 1.999052 1_555
Mo7 O31 2.000948 1_555
Mo7 O51 2.386148 1_555
C0 H0 1.108699 1_555
C0 O44 1.266860 1_555
C0 O48 1.269290 1_555
C1 H1 1.108699 1_555
C1 O45 1.266860 1_555
C1 O49 1.269290 1_555
C2 H2 1.108699 1_555
C2 O46 1.266860 1_555
C2 O50 1.269290 1_555
C3 H3 1.108699 1_555
C3 O47 1.266860 1_555
C3 O51 1.269290 1_555
O0 O4 1.481300 1_555
O0 Rb7 2.946324 1_655
O0 Rb3 3.071413 1_565
O1 O5 1.481300 1_555
O1 Rb6 2.946324 1_455
O1 Rb2 3.071413 1_545
O2 O6 1.481300 1_555
O2 Rb5 2.946324 1_555
O2 Rb1 3.071413 1_565
O3 O7 1.481300 1_555
O3 Rb4 2.946324 1_555
O3 Rb0 3.071413 1_545
O4 Rb10 3.129255 1_655
O4 Rb3 3.187160 1_565
O4 Rb3 3.387990 1_555
O5 Rb11 3.129255 1_455
O5 Rb2 3.187160 1_545
O5 Rb2 3.387990 1_555
O6 Rb8 3.129255 1_555
O6 Rb1 3.187160 1_565
O6 Rb1 3.387990 1_555
O7 Rb9 3.129255 1_555
O7 Rb0 3.187160 1_545
O7 Rb0 3.387990 1_555
O8 Rb9 3.034673 1_555
O8 Rb0 3.295336 1_555
O9 Rb8 3.034673 1_555
O9 Rb1 3.295336 1_555
O10 O14 1.477681 1_555
O10 Rb11 3.034673 1_555
O10 Rb2 3.295336 1_655
O11 O15 1.477681 1_555
O11 Rb10 3.034673 1_555
O11 Rb3 3.295336 1_455
O12 O8 1.477681 1_555
O12 Rb4 2.978508 1_555
O12 Rb0 3.076644 1_555
O13 O9 1.477681 1_555
O13 Rb5 2.978508 1_555
O13 Rb1 3.076644 1_555
O14 Rb6 2.978508 1_555
O14 Rb2 3.076644 1_655
O15 Rb7 2.978508 1_555
O15 Rb3 3.076644 1_455
O16 O20 1.476937 1_555
O16 Rb4 2.946247 1_555
O16 Rb8 3.130074 1_555
O17 O21 1.476937 1_554
O17 Rb5 2.946247 1_555
O17 Rb9 3.130074 1_554
O18 O22 1.476937 1_554
O18 Rb6 2.946247 1_555
O18 Rb10 3.130074 1_654
O19 O23 1.476937 1_555
O19 Rb7 2.946247 1_555
O19 Rb11 3.130074 1_455
O20 Rb1 3.133884 1_555
O20 Rb11 3.200730 1_555
O21 Rb0 3.133884 1_555
O21 Rb10 3.200730 1_555
O22 Rb3 3.133884 1_555
O22 Rb9 3.200730 1_555
O23 Rb2 3.133884 1_555
O23 Rb8 3.200730 1_555
O24 O28 1.482272 1_555
O24 Rb11 3.024662 1_565
O24 Rb2 3.202281 1_655
O25 O29 1.482272 1_556
O25 Rb10 3.024662 1_545
O25 Rb3 3.202281 1_455
O26 O30 1.482272 1_556
O26 Rb9 3.024662 1_565
O26 Rb0 3.202281 1_555
O27 O31 1.482272 1_555
O27 Rb8 3.024662 1_545
O27 Rb1 3.202281 1_555
O28 Rb7 2.899510 1_655
O28 Rb11 2.952555 1_565
O29 Rb6 2.899510 1_455
O29 Rb10 2.952555 1_544
O30 Rb5 2.899510 1_555
O30 Rb9 2.952555 1_564
O31 Rb4 2.899510 1_555
O31 Rb8 2.952555 1_545
O32 Rb4 3.078246 1_555
O32 Rb3 3.172021 1_555
O32 Rb9 3.372298 1_555
O33 Rb5 3.078246 1_555
O33 Rb2 3.172021 1_555
O33 Rb8 3.372298 1_555
O34 Rb6 3.078246 1_555
O34 Rb1 3.172021 1_555
O34 Rb11 3.372298 1_555
O35 Rb7 3.078246 1_555
O35 Rb0 3.172021 1_555
O35 Rb10 3.372298 1_555
O36 Rb4 2.985569 1_565
O37 Rb5 2.985569 1_545
O38 Rb6 2.985569 1_565
O39 Rb7 2.985569 1_545
O40 Rb1 3.109375 1_555
O40 Rb4 3.225064 1_555
O41 Rb0 3.109375 1_555
O41 Rb5 3.225064 1_556
O42 Rb3 3.109375 1_555
O42 Rb6 3.225064 1_556
O43 Rb2 3.109375 1_555
O43 Rb7 3.225064 1_555
O44 Rb3 2.938813 1_555
O44 Rb4 3.211162 1_555
O45 Rb2 2.938813 1_555
O45 Rb5 3.211162 1_555
O46 Rb1 2.938813 1_555
O46 Rb6 3.211162 1_555
O47 Rb0 2.938813 1_555
O47 Rb7 3.211162 1_555
O48 Rb11 2.952792 1_555
O48 Rb7 3.302177 1_655
O49 Rb10 2.952792 1_554
O49 Rb6 3.302177 1_455
O50 Rb9 2.952792 1_554
O50 Rb5 3.302177 1_555
O51 Rb8 2.952792 1_555
O51 Rb4 3.302177 1_555
