# generated using pymatgen
data_Li9Mn2Co5O16
_symmetry_space_group_name_H-M   'P 1'
_cell_length_a   5.90534500
_cell_length_b   5.91159125
_cell_length_c   8.59538152
_cell_angle_alpha   70.53946520
_cell_angle_beta   87.96970143
_cell_angle_gamma   86.71032946
_symmetry_Int_Tables_number   1
_chemical_formula_structural   Li9Mn2Co5O16
_chemical_formula_sum   'Li9 Mn2 Co5 O16'
_cell_volume   282.41370367
_cell_formula_units_Z   1
loop_
 _symmetry_equiv_pos_site_id
 _symmetry_equiv_pos_as_xyz
  1  'x, y, z'
loop_
 _atom_site_type_symbol
 _atom_site_label
 _atom_site_symmetry_multiplicity
 _atom_site_fract_x
 _atom_site_fract_y
 _atom_site_fract_z
 _atom_site_occupancy
  Li  Li0  1  0.75441400  0.86364900  0.75793700  1
  Li  Li1  1  0.00035500  0.74955700  0.50079600  1
  Li  Li2  1  0.75562800  0.37874400  0.75522600  1
  Li  Li3  1  0.99868700  0.24920300  0.50147100  1
  Li  Li4  1  0.24429900  0.13686400  0.24305600  1
  Li  Li5  1  0.24642500  0.62024800  0.24407800  1
  Li  Li6  1  0.50101900  0.50034000  0.99979800  1
  Li  Li7  1  0.49980200  0.99969900  0.99990600  1
  Li  Li8  1  0.99954800  0.49976900  0.99978100  1
  Mn  Mn0  1  0.99961400  0.00024300  0.99923300  1
  Mn  Mn1  1  0.50074100  0.75030700  0.50090100  1
  Co  Co0  1  0.24186500  0.86392400  0.75270700  1
  Co  Co1  1  0.75548600  0.62501300  0.24969200  1
  Co  Co2  1  0.24736600  0.37748700  0.75177100  1
  Co  Co3  1  0.49913900  0.25171100  0.49875400  1
  Co  Co4  1  0.75762200  0.13601700  0.24549900  1
  O  O0  1  0.00291100  0.09990600  0.75988100  1
  O  O1  1  0.25995300  0.98198500  0.51146800  1
  O  O2  1  0.01938500  0.60846700  0.74867700  1
  O  O3  1  0.28210800  0.51032900  0.50758900  1
  O  O4  1  0.50895600  0.35372200  0.26370500  1
  O  O5  1  0.51541500  0.85564300  0.26454400  1
  O  O6  1  0.77197500  0.76444500  0.01465300  1
  O  O7  1  0.75568500  0.23133200  0.01184600  1
  O  O8  1  0.49492100  0.64483800  0.74039500  1
  O  O9  1  0.73858100  0.51592100  0.49085700  1
  O  O10  1  0.48144100  0.14822200  0.73115600  1
  O  O11  1  0.71921900  0.99368900  0.49002700  1
  O  O12  1  0.99592500  0.90204100  0.23648600  1
  O  O13  1  0.98011600  0.38463000  0.25604100  1
  O  O14  1  0.22786400  0.23291200  0.98581600  1
  O  O15  1  0.24353700  0.76914200  0.98625500  1
loop_
_geom_bond_atom_site_label_1
_geom_bond_atom_site_label_2
_geom_bond_distance
_geom_bond_site_symmetry_2
Li0 O0 2.087312 1_665
Li0 O6 2.090605 1_556
Li0 O8 2.101901 1_555
Li0 O2 2.128545 1_655
Li0 O11 2.184726 1_555
Li0 O10 2.222302 1_565
Li1 O2 2.017423 1_555
Li1 O3 2.110361 1_555
Li1 O11 2.120045 1_455
Li1 O1 2.140601 1_555
Li1 O12 2.147438 1_455
Li1 O9 2.153514 1_455
Li2 O7 2.084219 1_556
Li2 O2 2.111650 1_655
Li2 O8 2.112654 1_555
Li2 O0 2.129585 1_655
Li2 O9 2.147169 1_555
Li2 O10 2.233034 1_555
Li3 O13 1.996049 1_555
Li3 O0 2.099572 1_655
Li3 O9 2.118930 1_555
Li3 O1 2.126605 1_645
Li3 O11 2.326273 1_545
Li3 O3 2.354527 1_655
Li4 O12 2.091248 1_445
Li4 O14 2.095956 1_554
Li4 O13 2.103806 1_455
Li4 O4 2.125748 1_555
Li4 O1 2.183455 1_545
Li4 O5 2.207282 1_545
Li5 O15 2.094594 1_554
Li5 O4 2.115555 1_555
Li5 O13 2.137383 1_455
Li5 O12 2.149228 1_455
Li5 O3 2.152719 1_555
Li5 O5 2.219740 1_555
Li6 O7 2.104324 1_556
Li6 O8 2.106059 1_555
Li6 O15 2.112485 1_555
Li6 O4 2.142854 1_556
Li6 O6 2.334139 1_556
Li6 O14 2.355586 1_555
Li7 O14 2.035357 1_565
Li7 O6 2.043026 1_556
Li7 O7 2.123917 1_566
Li7 O15 2.125433 1_555
Li7 O5 2.150105 1_556
Li7 O10 2.184992 1_565
Li8 O6 2.037233 1_556
Li8 O2 2.037560 1_655
Li8 O14 2.047325 1_655
Li8 O13 2.078514 1_556
Li8 O7 2.178277 1_556
Li8 O15 2.180239 1_655
Mn0 O12 1.925001 1_546
Mn0 O0 1.941881 1_655
Mn0 O7 1.953141 1_556
Mn0 O14 1.953979 1_655
Mn0 O15 1.953990 1_645
Mn0 O6 1.961397 1_546
Mn1 O5 1.916602 1_555
Mn1 O9 1.935920 1_555
Mn1 O1 1.938078 1_555
Mn1 O8 1.941587 1_555
Mn1 O3 1.957917 1_555
Mn1 O11 1.964253 1_555
Co0 O15 1.896087 1_555
Co0 O0 1.940710 1_565
Co0 O8 1.944165 1_555
Co0 O1 1.956187 1_555
Co0 O2 2.067291 1_555
Co0 O10 2.215263 1_565
Co1 O13 1.875930 1_555
Co1 O6 1.912071 1_555
Co1 O5 1.940702 1_555
Co1 O9 1.955705 1_555
Co1 O4 2.198379 1_555
Co1 O12 2.200568 1_555
Co2 O2 1.856095 1_555
Co2 O14 1.907863 1_555
Co2 O10 1.925274 1_555
Co2 O3 1.988380 1_555
Co2 O8 2.190128 1_555
Co2 O0 2.229358 1_555
Co3 O10 1.885150 1_555
Co3 O4 1.905961 1_555
Co3 O3 1.957376 1_555
Co3 O11 1.965485 1_545
Co3 O9 2.149309 1_555
Co3 O1 2.163546 1_545
Co4 O7 1.896815 1_555
Co4 O4 1.933442 1_555
Co4 O12 1.933863 1_545
Co4 O11 1.996688 1_545
Co4 O13 2.052647 1_555
Co4 O5 2.212344 1_545
