# generated using pymatgen
data_Mg5Hg
_symmetry_space_group_name_H-M   'P 1'
_cell_length_a   11.91001127
_cell_length_b   11.91001127
_cell_length_c   14.47724685
_cell_angle_alpha   75.89705223
_cell_angle_beta   75.89705223
_cell_angle_gamma   31.61241114
_symmetry_Int_Tables_number   1
_chemical_formula_structural   Mg5Hg
_chemical_formula_sum   'Mg40 Hg8'
_cell_volume   1041.33489224
_cell_formula_units_Z   8
loop_
 _symmetry_equiv_pos_site_id
 _symmetry_equiv_pos_as_xyz
  1  'x, y, z'
loop_
 _atom_site_type_symbol
 _atom_site_label
 _atom_site_symmetry_multiplicity
 _atom_site_fract_x
 _atom_site_fract_y
 _atom_site_fract_z
 _atom_site_occupancy
  Mg  Mg0_0  1  0.13950207  0.13950207  0.47197227  1
  Mg  Mg0_1  1  0.13950207  0.13950207  0.97197227  1
  Mg  Mg0_2  1  0.13950207  0.63950207  0.47197227  1
  Mg  Mg0_3  1  0.13950207  0.63950207  0.97197227  1
  Mg  Mg0_4  1  0.63950207  0.13950207  0.47197227  1
  Mg  Mg0_5  1  0.63950207  0.13950207  0.97197227  1
  Mg  Mg0_6  1  0.63950207  0.63950207  0.47197227  1
  Mg  Mg0_7  1  0.63950207  0.63950207  0.97197227  1
  Mg  Mg1_0  1  0.33340927  0.33340927  0.33458932  1
  Mg  Mg1_1  1  0.33340927  0.33340927  0.83458933  1
  Mg  Mg1_2  1  0.33340927  0.83340927  0.33458932  1
  Mg  Mg1_3  1  0.33340927  0.83340927  0.83458932  1
  Mg  Mg1_4  1  0.83340926  0.33340927  0.33458932  1
  Mg  Mg1_5  1  0.83340926  0.33340927  0.83458932  1
  Mg  Mg1_6  1  0.83340926  0.83340927  0.33458932  1
  Mg  Mg1_7  1  0.83340927  0.83340927  0.83458932  1
  Mg  Mg2_0  1  0.47599964  0.47599964  0.29783450  1
  Mg  Mg2_1  1  0.47599964  0.47599964  0.79783450  1
  Mg  Mg2_2  1  0.47599964  0.97599964  0.29783450  1
  Mg  Mg2_3  1  0.47599964  0.97599964  0.79783450  1
  Mg  Mg2_4  1  0.97599964  0.47599964  0.29783450  1
  Mg  Mg2_5  1  0.97599964  0.47599964  0.79783450  1
  Mg  Mg2_6  1  0.97599964  0.97599964  0.29783450  1
  Mg  Mg2_7  1  0.97599964  0.97599964  0.79783450  1
  Mg  Mg3_0  1  0.16166513  0.16166514  0.16813207  1
  Mg  Mg3_1  1  0.16166514  0.16166513  0.66813207  1
  Mg  Mg3_2  1  0.16166514  0.66166514  0.16813207  1
  Mg  Mg3_3  1  0.16166514  0.66166514  0.66813207  1
  Mg  Mg3_4  1  0.66166513  0.16166514  0.16813207  1
  Mg  Mg3_5  1  0.66166513  0.16166514  0.66813207  1
  Mg  Mg3_6  1  0.66166513  0.66166514  0.16813207  1
  Mg  Mg3_7  1  0.66166514  0.66166514  0.66813207  1
  Mg  Mg4_0  1  0.00110276  0.00110277  0.00556766  1
  Mg  Mg4_1  1  0.00110277  0.00110277  0.50556765  1
  Mg  Mg4_2  1  0.00110277  0.50110277  0.00556766  1
  Mg  Mg4_3  1  0.00110277  0.50110276  0.50556766  1
  Mg  Mg4_4  1  0.50110276  0.00110277  0.00556766  1
  Mg  Mg4_5  1  0.50110276  0.00110277  0.50556766  1
  Mg  Mg4_6  1  0.50110276  0.50110277  0.00556766  1
  Mg  Mg4_7  1  0.50110276  0.50110277  0.50556765  1
  Hg  Hg0_0  1  0.30498712  0.30498713  0.13857068  1
  Hg  Hg0_1  1  0.30498713  0.30498713  0.63857068  1
  Hg  Hg0_2  1  0.30498713  0.80498713  0.13857068  1
  Hg  Hg0_3  1  0.30498713  0.80498713  0.63857068  1
  Hg  Hg0_4  1  0.80498712  0.30498713  0.13857068  1
  Hg  Hg0_5  1  0.80498712  0.30498713  0.63857068  1
  Hg  Hg0_6  1  0.80498712  0.80498713  0.13857068  1
  Hg  Hg0_7  1  0.80498712  0.80498713  0.63857068  1
loop_
_geom_bond_atom_site_label_1
_geom_bond_atom_site_label_2
_geom_bond_distance
_geom_bond_site_symmetry_2
Mg0_0 Mg3_1 3.008889 1_555
Mg0_0 Mg4_1 3.084947 1_555
Mg0_0 Mg1_2 3.087837 1_545
Mg0_0 Mg1_4 3.087837 1_455
Mg0_0 Mg4_5 3.168613 1_555
Mg0_0 Mg4_3 3.168613 1_555
Mg0_0 Mg2_2 3.222658 1_545
Mg0_0 Mg2_4 3.222658 1_455
Mg0_0 Mg0_6 3.244102 1_455
Mg0_0 Mg0_6 3.244102 1_545
Mg0_1 Mg3_0 3.008889 1_556
Mg0_1 Mg4_0 3.084947 1_556
Mg0_1 Mg1_3 3.087837 1_545
Mg0_1 Mg1_5 3.087837 1_455
Mg0_1 Mg4_4 3.168613 1_556
Mg0_1 Mg4_2 3.168613 1_556
Mg0_1 Mg2_3 3.222658 1_545
Mg0_1 Mg2_5 3.222658 1_455
Mg0_1 Mg0_7 3.244102 1_455
Mg0_1 Mg0_7 3.244102 1_545
Mg0_2 Mg3_3 3.008889 1_555
Mg0_2 Mg4_3 3.084947 1_555
Mg0_2 Mg1_0 3.087837 1_555
Mg0_2 Mg1_6 3.087837 1_455
Mg0_2 Mg4_7 3.168613 1_555
Mg0_2 Mg4_1 3.168613 1_565
Mg0_2 Mg2_0 3.222658 1_555
Mg0_2 Mg2_6 3.222658 1_455
Mg0_2 Mg0_4 3.244102 1_555
Mg0_2 Mg0_4 3.244102 1_465
Mg0_3 Mg3_2 3.008889 1_556
Mg0_3 Mg4_2 3.084947 1_556
Mg0_3 Mg1_1 3.087837 1_555
Mg0_3 Mg1_7 3.087837 1_455
Mg0_3 Mg4_0 3.168613 1_566
Mg0_3 Mg4_6 3.168613 1_556
Mg0_3 Mg2_7 3.222658 1_455
Mg0_3 Mg2_1 3.222658 1_555
Mg0_3 Mg0_5 3.244102 1_555
Mg0_3 Mg0_5 3.244102 1_465
Mg0_4 Mg3_5 3.008889 1_555
Mg0_4 Mg4_5 3.084947 1_555
Mg0_4 Mg1_0 3.087837 1_555
Mg0_4 Mg1_6 3.087837 1_545
Mg0_4 Mg4_1 3.168613 1_655
Mg0_4 Mg4_7 3.168613 1_555
Mg0_4 Mg2_0 3.222658 1_555
Mg0_4 Mg2_6 3.222658 1_545
Mg0_5 Mg3_4 3.008889 1_556
Mg0_5 Mg4_4 3.084947 1_556
Mg0_5 Mg1_1 3.087837 1_555
Mg0_5 Mg1_7 3.087837 1_545
Mg0_5 Mg4_0 3.168613 1_656
Mg0_5 Mg4_6 3.168613 1_556
Mg0_5 Mg2_1 3.222658 1_555
Mg0_5 Mg2_7 3.222658 1_545
Mg0_6 Mg3_7 3.008889 1_555
Mg0_6 Mg4_7 3.084947 1_555
Mg0_6 Mg1_2 3.087837 1_555
Mg0_6 Mg1_4 3.087837 1_555
Mg0_6 Mg4_5 3.168613 1_565
Mg0_6 Mg4_3 3.168613 1_655
Mg0_6 Mg2_2 3.222658 1_555
Mg0_6 Mg2_4 3.222658 1_555
Mg0_7 Mg3_6 3.008889 1_556
Mg0_7 Mg4_6 3.084947 1_556
Mg0_7 Mg1_5 3.087837 1_555
Mg0_7 Mg1_3 3.087837 1_555
Mg0_7 Mg4_4 3.168613 1_566
Mg0_7 Mg4_2 3.168613 1_656
Mg0_7 Mg2_5 3.222658 1_555
Mg0_7 Mg2_3 3.222658 1_555
Mg1_0 Mg3_4 3.076715 1_555
Mg1_0 Mg3_2 3.076715 1_555
Mg1_1 Mg3_5 3.076715 1_555
Mg1_1 Mg3_3 3.076715 1_555
Mg1_2 Mg3_6 3.076715 1_555
Mg1_2 Mg3_0 3.076715 1_565
Mg1_3 Mg3_1 3.076715 1_565
Mg1_3 Mg3_7 3.076715 1_555
Mg1_4 Mg3_6 3.076715 1_555
Mg1_4 Mg3_0 3.076715 1_655
Mg1_5 Mg3_7 3.076715 1_555
Mg1_5 Mg3_1 3.076715 1_655
Mg1_6 Mg3_4 3.076715 1_565
Mg1_6 Mg3_2 3.076715 1_655
Mg1_7 Mg3_5 3.076715 1_565
Mg1_7 Mg3_3 3.076715 1_655
Mg2_0 Mg3_2 3.119841 1_555
Mg2_0 Mg3_4 3.119841 1_555
Mg2_1 Mg3_5 3.119841 1_555
Mg2_1 Mg3_3 3.119841 1_555
Mg2_2 Mg3_0 3.119841 1_565
Mg2_2 Mg3_6 3.119841 1_555
Mg2_3 Mg3_7 3.119841 1_555
Mg2_3 Mg3_1 3.119841 1_565
Mg2_4 Mg3_0 3.119841 1_655
Mg2_4 Mg3_6 3.119841 1_555
Mg2_5 Mg3_7 3.119841 1_555
Mg2_5 Mg3_1 3.119841 1_655
Mg2_6 Mg3_2 3.119841 1_655
Mg2_6 Mg3_4 3.119841 1_565
Mg2_7 Mg3_3 3.119841 1_655
Mg2_7 Mg3_5 3.119841 1_565
Mg3_0 Mg4_4 3.150940 1_555
Mg3_0 Mg4_2 3.150940 1_555
Mg3_0 Mg3_6 3.244102 1_545
Mg3_0 Mg3_6 3.244102 1_455
Mg3_1 Mg4_5 3.150940 1_555
Mg3_1 Mg4_3 3.150940 1_555
Mg3_1 Mg3_7 3.244102 1_545
Mg3_1 Mg3_7 3.244102 1_455
Mg3_2 Mg4_0 3.150940 1_565
Mg3_2 Mg4_6 3.150940 1_555
Mg3_2 Mg3_4 3.244102 1_555
Mg3_2 Mg3_4 3.244102 1_465
Mg3_3 Mg4_1 3.150940 1_565
Mg3_3 Mg4_7 3.150940 1_555
Mg3_3 Mg3_5 3.244102 1_555
Mg3_3 Mg3_5 3.244102 1_465
Mg3_4 Mg4_0 3.150940 1_655
Mg3_4 Mg4_6 3.150940 1_555
Mg3_5 Mg4_7 3.150940 1_555
Mg3_5 Mg4_1 3.150940 1_655
Mg3_6 Mg4_4 3.150940 1_565
Mg3_6 Mg4_2 3.150940 1_655
Mg3_7 Mg4_5 3.150940 1_565
Mg3_7 Mg4_3 3.150940 1_655
Hg0_0 Mg4_2 3.011361 1_555
Hg0_0 Mg4_4 3.011361 1_555
Hg0_0 Mg2_4 3.018368 1_455
Hg0_0 Mg2_2 3.018368 1_545
Hg0_0 Mg3_4 3.053220 1_555
Hg0_0 Mg3_2 3.053220 1_555
Hg0_0 Mg1_0 3.068190 1_555
Hg0_0 Mg0_5 3.135937 1_554
Hg0_0 Mg0_3 3.135937 1_554
Hg0_0 Mg3_0 3.203336 1_555
Hg0_1 Mg4_3 3.011361 1_555
Hg0_1 Mg4_5 3.011361 1_555
Hg0_1 Mg2_3 3.018368 1_545
Hg0_1 Mg2_5 3.018368 1_455
Hg0_1 Mg3_5 3.053220 1_555
Hg0_1 Mg3_3 3.053220 1_555
Hg0_1 Mg1_1 3.068190 1_555
Hg0_1 Mg0_2 3.135937 1_555
Hg0_1 Mg0_4 3.135937 1_555
Hg0_1 Mg3_1 3.203336 1_555
Hg0_2 Mg4_6 3.011361 1_555
Hg0_2 Mg4_0 3.011361 1_565
Hg0_2 Mg2_6 3.018368 1_455
Hg0_2 Mg2_0 3.018368 1_555
Hg0_2 Mg3_6 3.053220 1_555
Hg0_2 Mg3_0 3.053220 1_565
Hg0_2 Mg1_2 3.068190 1_555
Hg0_2 Mg0_7 3.135937 1_554
Hg0_2 Mg0_1 3.135937 1_564
Hg0_2 Mg3_2 3.203336 1_555
Hg0_3 Mg4_7 3.011361 1_555
Hg0_3 Mg4_1 3.011361 1_565
Hg0_3 Mg2_1 3.018368 1_555
Hg0_3 Mg2_7 3.018368 1_455
Hg0_3 Mg3_1 3.053220 1_565
Hg0_3 Mg3_7 3.053220 1_555
Hg0_3 Mg1_3 3.068190 1_555
Hg0_3 Mg0_0 3.135937 1_565
Hg0_3 Mg0_6 3.135937 1_555
Hg0_3 Mg3_3 3.203336 1_555
Hg0_4 Mg4_6 3.011361 1_555
Hg0_4 Mg4_0 3.011361 1_655
Hg0_4 Mg2_0 3.018368 1_555
Hg0_4 Mg2_6 3.018368 1_545
Hg0_4 Mg3_6 3.053220 1_555
Hg0_4 Mg3_0 3.053220 1_655
Hg0_4 Mg1_4 3.068190 1_555
Hg0_4 Mg0_7 3.135937 1_554
Hg0_4 Mg0_1 3.135937 1_654
Hg0_4 Mg3_4 3.203336 1_555
Hg0_5 Mg4_7 3.011361 1_555
Hg0_5 Mg4_1 3.011361 1_655
Hg0_5 Mg2_1 3.018368 1_555
Hg0_5 Mg2_7 3.018368 1_545
Hg0_5 Mg3_1 3.053220 1_655
Hg0_5 Mg3_7 3.053220 1_555
Hg0_5 Mg1_5 3.068190 1_555
Hg0_5 Mg0_0 3.135937 1_655
Hg0_5 Mg0_6 3.135937 1_555
Hg0_5 Mg3_5 3.203336 1_555
Hg0_6 Mg4_2 3.011361 1_655
Hg0_6 Mg4_4 3.011361 1_565
Hg0_6 Mg2_2 3.018368 1_555
Hg0_6 Mg2_4 3.018368 1_555
Hg0_6 Mg3_4 3.053220 1_565
Hg0_6 Mg3_2 3.053220 1_655
Hg0_6 Mg1_6 3.068190 1_555
Hg0_6 Mg0_5 3.135937 1_564
Hg0_6 Mg0_3 3.135937 1_654
Hg0_6 Mg3_6 3.203336 1_555
Hg0_7 Mg4_3 3.011361 1_655
Hg0_7 Mg4_5 3.011361 1_565
Hg0_7 Mg2_3 3.018368 1_555
Hg0_7 Mg2_5 3.018368 1_555
Hg0_7 Mg3_5 3.053220 1_565
Hg0_7 Mg3_3 3.053220 1_655
Hg0_7 Mg1_7 3.068190 1_555
Hg0_7 Mg0_4 3.135937 1_565
Hg0_7 Mg0_2 3.135937 1_655
Hg0_7 Mg3_7 3.203336 1_555
