# generated using pymatgen
data_NaMg6C
_symmetry_space_group_name_H-M   'P 1'
_cell_length_a   19.29024903
_cell_length_b   19.29024903
_cell_length_c   6.90505000
_cell_angle_alpha   90.00000000
_cell_angle_beta   90.00000000
_cell_angle_gamma   144.67833180
_symmetry_Int_Tables_number   1
_chemical_formula_structural   NaMg6C
_chemical_formula_sum   'Na8 Mg48 C8'
_cell_volume   1485.57717707
_cell_formula_units_Z   8
loop_
 _symmetry_equiv_pos_site_id
 _symmetry_equiv_pos_as_xyz
  1  'x, y, z'
loop_
 _atom_site_type_symbol
 _atom_site_label
 _atom_site_symmetry_multiplicity
 _atom_site_fract_x
 _atom_site_fract_y
 _atom_site_fract_z
 _atom_site_occupancy
  Na  Na0_0  1  0.39799250  0.10200750  0.25000000  1
  Na  Na0_1  1  0.39799250  0.10200750  0.75000000  1
  Na  Na0_2  1  0.39799250  0.60200750  0.25000000  1
  Na  Na0_3  1  0.39799250  0.60200750  0.75000000  1
  Na  Na0_4  1  0.89799250  0.10200750  0.25000000  1
  Na  Na0_5  1  0.89799250  0.10200750  0.75000000  1
  Na  Na0_6  1  0.89799250  0.60200750  0.25000000  1
  Na  Na0_7  1  0.89799250  0.60200750  0.75000000  1
  Mg  Mg0_0  1  0.14935500  0.10512050  0.25000000  1
  Mg  Mg0_1  1  0.14935500  0.10512050  0.75000000  1
  Mg  Mg0_2  1  0.14935500  0.60512050  0.25000000  1
  Mg  Mg0_3  1  0.14935500  0.60512050  0.75000000  1
  Mg  Mg0_4  1  0.64935500  0.10512050  0.25000000  1
  Mg  Mg0_5  1  0.64935500  0.10512050  0.75000000  1
  Mg  Mg0_6  1  0.64935500  0.60512050  0.25000000  1
  Mg  Mg0_7  1  0.64935500  0.60512050  0.75000000  1
  Mg  Mg1_0  1  0.39487950  0.35064500  0.25000000  1
  Mg  Mg1_1  1  0.39487950  0.35064500  0.75000000  1
  Mg  Mg1_2  1  0.39487950  0.85064500  0.25000000  1
  Mg  Mg1_3  1  0.39487950  0.85064500  0.75000000  1
  Mg  Mg1_4  1  0.89487950  0.35064500  0.25000000  1
  Mg  Mg1_5  1  0.89487950  0.35064500  0.75000000  1
  Mg  Mg1_6  1  0.89487950  0.85064500  0.25000000  1
  Mg  Mg1_7  1  0.89487950  0.85064500  0.75000000  1
  Mg  Mg2_0  1  0.09402550  0.18026050  0.00000000  1
  Mg  Mg2_1  1  0.09402550  0.18026050  0.50000000  1
  Mg  Mg2_2  1  0.09402550  0.68026050  0.00000000  1
  Mg  Mg2_3  1  0.09402550  0.68026050  0.50000000  1
  Mg  Mg2_4  1  0.59402550  0.18026050  0.00000000  1
  Mg  Mg2_5  1  0.59402550  0.18026050  0.50000000  1
  Mg  Mg2_6  1  0.59402550  0.68026050  0.00000000  1
  Mg  Mg2_7  1  0.59402550  0.68026050  0.50000000  1
  Mg  Mg3_0  1  0.31973950  0.40597450  0.00000000  1
  Mg  Mg3_1  1  0.31973950  0.40597450  0.50000000  1
  Mg  Mg3_2  1  0.31973950  0.90597450  0.00000000  1
  Mg  Mg3_3  1  0.31973950  0.90597450  0.50000000  1
  Mg  Mg3_4  1  0.81973950  0.40597450  0.00000000  1
  Mg  Mg3_5  1  0.81973950  0.40597450  0.50000000  1
  Mg  Mg3_6  1  0.81973950  0.90597450  0.00000000  1
  Mg  Mg3_7  1  0.81973950  0.90597450  0.50000000  1
  Mg  Mg4_0  1  0.32909150  0.17090850  0.00000000  1
  Mg  Mg4_1  1  0.32909150  0.17090850  0.50000000  1
  Mg  Mg4_2  1  0.32909150  0.67090850  0.00000000  1
  Mg  Mg4_3  1  0.32909150  0.67090850  0.50000000  1
  Mg  Mg4_4  1  0.82909150  0.17090850  0.00000000  1
  Mg  Mg4_5  1  0.82909150  0.17090850  0.50000000  1
  Mg  Mg4_6  1  0.82909150  0.67090850  0.00000000  1
  Mg  Mg4_7  1  0.82909150  0.67090850  0.50000000  1
  Mg  Mg5_0  1  0.09180400  0.40819600  0.00000000  1
  Mg  Mg5_1  1  0.09180400  0.40819600  0.50000000  1
  Mg  Mg5_2  1  0.09180400  0.90819600  0.00000000  1
  Mg  Mg5_3  1  0.09180400  0.90819600  0.50000000  1
  Mg  Mg5_4  1  0.59180400  0.40819600  0.00000000  1
  Mg  Mg5_5  1  0.59180400  0.40819600  0.50000000  1
  Mg  Mg5_6  1  0.59180400  0.90819600  0.00000000  1
  Mg  Mg5_7  1  0.59180400  0.90819600  0.50000000  1
  C  C0_0  1  0.22311500  0.27688500  0.25000000  1
  C  C0_1  1  0.22311500  0.27688500  0.75000000  1
  C  C0_2  1  0.22311500  0.77688500  0.25000000  1
  C  C0_3  1  0.22311500  0.77688500  0.75000000  1
  C  C0_4  1  0.72311500  0.27688500  0.25000000  1
  C  C0_5  1  0.72311500  0.27688500  0.75000000  1
  C  C0_6  1  0.72311500  0.77688500  0.25000000  1
  C  C0_7  1  0.72311500  0.77688500  0.75000000  1
loop_
_geom_bond_atom_site_label_1
_geom_bond_atom_site_label_2
_geom_bond_distance
_geom_bond_site_symmetry_2
Mg0_0 Mg5_3 3.429418 1_545
Mg0_0 Mg5_2 3.429418 1_545
Mg0_1 Mg5_2 3.429418 1_546
Mg0_1 Mg5_3 3.429418 1_545
Mg0_2 Mg5_1 3.429418 1_555
Mg0_2 Mg5_0 3.429418 1_555
Mg0_3 Mg5_0 3.429418 1_556
Mg0_3 Mg5_1 3.429418 1_555
Mg0_4 Mg5_6 3.429418 1_545
Mg0_4 Mg5_7 3.429418 1_545
Mg0_5 Mg5_6 3.429418 1_546
Mg0_5 Mg5_7 3.429418 1_545
Mg0_6 Mg5_5 3.429418 1_555
Mg0_6 Mg5_4 3.429418 1_555
Mg0_7 Mg5_5 3.429418 1_555
Mg0_7 Mg5_4 3.429418 1_556
Mg1_0 Mg5_5 3.429418 1_555
Mg1_0 Mg5_4 3.429418 1_555
Mg1_1 Mg5_4 3.429418 1_556
Mg1_1 Mg5_5 3.429418 1_555
Mg1_2 Mg5_7 3.429418 1_555
Mg1_2 Mg5_6 3.429418 1_555
Mg1_3 Mg5_7 3.429418 1_555
Mg1_3 Mg5_6 3.429418 1_556
Mg1_4 Mg5_1 3.429418 1_655
Mg1_4 Mg5_0 3.429418 1_655
Mg1_5 Mg5_0 3.429418 1_656
Mg1_5 Mg5_1 3.429418 1_655
Mg1_6 Mg5_2 3.429418 1_655
Mg1_6 Mg5_3 3.429418 1_655
Mg1_7 Mg5_3 3.429418 1_655
Mg1_7 Mg5_2 3.429418 1_656
Mg2_0 Na0_4 3.200557 1_455
Mg2_0 Na0_5 3.200557 1_454
Mg2_1 Na0_4 3.200557 1_455
Mg2_1 Na0_5 3.200557 1_455
Mg2_2 Na0_7 3.200557 1_454
Mg2_2 Na0_6 3.200557 1_455
Mg2_3 Na0_6 3.200557 1_455
Mg2_3 Na0_7 3.200557 1_455
Mg2_4 Na0_0 3.200557 1_555
Mg2_4 Na0_1 3.200557 1_554
Mg2_5 Na0_0 3.200557 1_555
Mg2_5 Na0_1 3.200557 1_555
Mg2_6 Na0_3 3.200557 1_554
Mg2_6 Na0_2 3.200557 1_555
Mg2_7 Na0_3 3.200557 1_555
Mg2_7 Na0_2 3.200557 1_555
Mg3_0 Na0_3 3.200557 1_554
Mg3_0 Na0_2 3.200557 1_555
Mg3_1 Na0_2 3.200557 1_555
Mg3_1 Na0_3 3.200557 1_555
Mg3_2 Na0_1 3.200557 1_564
Mg3_2 Na0_0 3.200557 1_565
Mg3_3 Na0_0 3.200557 1_565
Mg3_3 Na0_1 3.200557 1_565
Mg3_4 Na0_6 3.200557 1_555
Mg3_4 Na0_7 3.200557 1_554
Mg3_5 Na0_6 3.200557 1_555
Mg3_5 Na0_7 3.200557 1_555
Mg3_6 Na0_5 3.200557 1_564
Mg3_6 Na0_4 3.200557 1_565
Mg3_7 Na0_4 3.200557 1_565
Mg3_7 Na0_5 3.200557 1_565
Mg4_0 Mg5_4 2.963240 1_555
Mg4_0 Mg5_2 2.963240 1_545
Mg4_0 Na0_1 3.065260 1_554
Mg4_0 Na0_0 3.065260 1_555
Mg4_1 Mg5_5 2.963240 1_555
Mg4_1 Mg5_3 2.963240 1_545
Mg4_1 Na0_0 3.065260 1_555
Mg4_1 Na0_1 3.065260 1_555
Mg4_2 Mg5_0 2.963240 1_555
Mg4_2 Mg5_6 2.963240 1_555
Mg4_2 Na0_3 3.065260 1_554
Mg4_2 Na0_2 3.065260 1_555
Mg4_3 Mg5_1 2.963240 1_555
Mg4_3 Mg5_7 2.963240 1_555
Mg4_3 Na0_3 3.065260 1_555
Mg4_3 Na0_2 3.065260 1_555
Mg4_4 Mg5_0 2.963240 1_655
Mg4_4 Mg5_6 2.963240 1_545
Mg4_4 Na0_4 3.065260 1_555
Mg4_4 Na0_5 3.065260 1_554
Mg4_5 Mg5_7 2.963240 1_545
Mg4_5 Mg5_1 2.963240 1_655
Mg4_5 Na0_4 3.065260 1_555
Mg4_5 Na0_5 3.065260 1_555
Mg4_6 Mg5_2 2.963240 1_655
Mg4_6 Mg5_4 2.963240 1_555
Mg4_6 Na0_6 3.065260 1_555
Mg4_6 Na0_7 3.065260 1_554
Mg4_7 Mg5_5 2.963240 1_555
Mg4_7 Mg5_3 2.963240 1_655
Mg4_7 Na0_6 3.065260 1_555
Mg4_7 Na0_7 3.065260 1_555
Mg5_0 Mg5_1 3.452525 1_555
Mg5_0 Mg5_1 3.452525 1_554
Mg5_2 Mg5_3 3.452525 1_555
Mg5_2 Mg5_3 3.452525 1_554
Mg5_4 Mg5_5 3.452525 1_555
Mg5_4 Mg5_5 3.452525 1_554
Mg5_6 Mg5_7 3.452525 1_555
Mg5_6 Mg5_7 3.452525 1_554
C0_0 Mg3_1 2.254105 1_555
C0_0 Mg2_0 2.254105 1_555
C0_0 Mg2_1 2.254105 1_555
C0_0 Mg3_0 2.254105 1_555
C0_0 Mg0_0 2.304297 1_555
C0_0 Mg1_0 2.304297 1_555
C0_1 Mg2_0 2.254105 1_556
C0_1 Mg2_1 2.254105 1_555
C0_1 Mg3_0 2.254105 1_556
C0_1 Mg3_1 2.254105 1_555
C0_1 Mg0_1 2.304297 1_555
C0_1 Mg1_1 2.304297 1_555
C0_2 Mg2_2 2.254105 1_555
C0_2 Mg2_3 2.254105 1_555
C0_2 Mg3_2 2.254105 1_555
C0_2 Mg3_3 2.254105 1_555
C0_2 Mg0_2 2.304297 1_555
C0_2 Mg1_2 2.304297 1_555
C0_3 Mg2_2 2.254105 1_556
C0_3 Mg3_2 2.254105 1_556
C0_3 Mg2_3 2.254105 1_555
C0_3 Mg3_3 2.254105 1_555
C0_3 Mg0_3 2.304297 1_555
C0_3 Mg1_3 2.304297 1_555
C0_4 Mg3_4 2.254105 1_555
C0_4 Mg3_5 2.254105 1_555
C0_4 Mg2_5 2.254105 1_555
C0_4 Mg2_4 2.254105 1_555
C0_4 Mg0_4 2.304297 1_555
C0_4 Mg1_4 2.304297 1_555
C0_5 Mg3_4 2.254105 1_556
C0_5 Mg2_4 2.254105 1_556
C0_5 Mg2_5 2.254105 1_555
C0_5 Mg3_5 2.254105 1_555
C0_5 Mg0_5 2.304297 1_555
C0_5 Mg1_5 2.304297 1_555
C0_6 Mg3_7 2.254105 1_555
C0_6 Mg2_6 2.254105 1_555
C0_6 Mg3_6 2.254105 1_555
C0_6 Mg2_7 2.254105 1_555
C0_6 Mg1_6 2.304297 1_555
C0_6 Mg0_6 2.304297 1_555
C0_7 Mg3_7 2.254105 1_555
C0_7 Mg2_6 2.254105 1_556
C0_7 Mg3_6 2.254105 1_556
C0_7 Mg2_7 2.254105 1_555
C0_7 Mg1_7 2.304297 1_555
C0_7 Mg0_7 2.304297 1_555
