# generated using pymatgen
data_CaTlCl5O7
_symmetry_space_group_name_H-M   'P 1'
_cell_length_a   9.84526436
_cell_length_b   9.84526436
_cell_length_c   7.35443974
_cell_angle_alpha   73.61041163
_cell_angle_beta   73.61041163
_cell_angle_gamma   74.83073137
_symmetry_Int_Tables_number   1
_chemical_formula_structural   CaTlCl5O7
_chemical_formula_sum   'Ca2 Tl2 Cl10 O14'
_cell_volume   643.14019278
_cell_formula_units_Z   2
loop_
 _symmetry_equiv_pos_site_id
 _symmetry_equiv_pos_as_xyz
  1  'x, y, z'
loop_
 _atom_site_type_symbol
 _atom_site_label
 _atom_site_symmetry_multiplicity
 _atom_site_fract_x
 _atom_site_fract_y
 _atom_site_fract_z
 _atom_site_occupancy
  Ca  Ca0  1  0.67556400  0.67556400  0.55897600  1
  Ca  Ca1  1  0.32443600  0.32443600  0.44102400  1
  Tl  Tl0  1  0.63728300  0.36271700  0.00000000  1
  Tl  Tl1  1  0.36271700  0.63728300  0.00000000  1
  Cl  Cl0  1  0.95780000  0.31885100  0.63131300  1
  Cl  Cl1  1  0.31885100  0.95780000  0.63131300  1
  Cl  Cl2  1  0.04220000  0.68114900  0.36868700  1
  Cl  Cl3  1  0.68114900  0.04220000  0.36868700  1
  Cl  Cl4  1  0.17812400  0.50213800  0.86658200  1
  Cl  Cl5  1  0.50213800  0.17812400  0.86658200  1
  Cl  Cl6  1  0.82187600  0.49786200  0.13341800  1
  Cl  Cl7  1  0.49786200  0.82187600  0.13341800  1
  Cl  Cl8  1  0.87998000  0.87998000  0.76250500  1
  Cl  Cl9  1  0.12002000  0.12002000  0.23749500  1
  O  O0  1  0.83456800  0.42869800  0.76144300  1
  O  O1  1  0.42869800  0.83456800  0.76144300  1
  O  O2  1  0.16543200  0.57130200  0.23855700  1
  O  O3  1  0.57130200  0.16543200  0.23855700  1
  O  O4  1  0.25358900  0.47152500  0.65600200  1
  O  O5  1  0.47152500  0.25358900  0.65600200  1
  O  O6  1  0.74641100  0.52847500  0.34399800  1
  O  O7  1  0.52847500  0.74641100  0.34399800  1
  O  O8  1  0.81281300  0.81281300  0.65463200  1
  O  O9  1  0.18718700  0.18718700  0.34536800  1
  O  O10  1  0.16013300  0.16013300  0.02066000  1
  O  O11  1  0.83986700  0.83986700  0.97934000  1
  O  O12  1  0.54581600  0.54581600  0.79349700  1
  O  O13  1  0.45418400  0.45418400  0.20650300  1
loop_
_geom_bond_atom_site_label_1
_geom_bond_atom_site_label_2
_geom_bond_distance
_geom_bond_site_symmetry_2
Ca0 O12 2.146068 1_555
Ca0 O6 2.285696 1_555
Ca0 O7 2.285696 1_555
Ca0 O8 2.484985 1_555
Ca0 O0 2.803012 1_555
Ca0 O1 2.803012 1_555
Ca1 O13 2.146068 1_555
Ca1 O5 2.285696 1_555
Ca1 O4 2.285696 1_555
Ca1 O9 2.484985 1_555
Ca1 O3 2.803012 1_555
Ca1 O2 2.803012 1_555
Cl0 O0 1.673208 1_555
Cl1 O1 1.673208 1_555
Cl2 O2 1.673208 1_555
Cl3 O3 1.673208 1_555
Cl4 O4 1.593169 1_555
Cl4 Tl1 3.007411 1_556
Cl5 O5 1.593169 1_555
Cl5 Tl0 3.007411 1_556
Cl6 O6 1.593169 1_555
Cl6 Tl0 3.007411 1_555
Cl7 O7 1.593169 1_555
Cl7 Tl1 3.007411 1_555
Cl8 O11 1.491912 1_555
Cl8 O8 1.524777 1_555
Cl9 O10 1.491912 1_555
Cl9 O9 1.524777 1_555
O0 Tl0 2.316628 1_556
O1 Tl1 2.316628 1_556
O2 Tl1 2.316628 1_555
O3 Tl0 2.316628 1_555
O12 Tl1 2.178130 1_556
O12 Tl0 2.178130 1_556
O13 Tl0 2.178130 1_555
O13 Tl1 2.178130 1_555
