# generated using pymatgen
data_KNa(BiO3)4
_symmetry_space_group_name_H-M   'P 1'
_cell_length_a   5.86130095
_cell_length_b   5.86130095
_cell_length_c   8.42996151
_cell_angle_alpha   90.00000000
_cell_angle_beta   90.00000000
_cell_angle_gamma   89.17983664
_symmetry_Int_Tables_number   1
_chemical_formula_structural   KNa(BiO3)4
_chemical_formula_sum   'K1 Na1 Bi4 O12'
_cell_volume   289.58038263
_cell_formula_units_Z   1
loop_
 _symmetry_equiv_pos_site_id
 _symmetry_equiv_pos_as_xyz
  1  'x, y, z'
loop_
 _atom_site_type_symbol
 _atom_site_label
 _atom_site_symmetry_multiplicity
 _atom_site_fract_x
 _atom_site_fract_y
 _atom_site_fract_z
 _atom_site_occupancy
  K  K0  1  0.01615493  0.01615493  0.00000000  1
  Na  Na0  1  0.48183988  0.48183988  0.50000000  1
  Bi  Bi0  1  0.49920653  0.99563103  0.74731878  1
  Bi  Bi1  1  0.49920653  0.99563103  0.25268122  1
  Bi  Bi2  1  0.99563103  0.49920653  0.25268122  1
  Bi  Bi3  1  0.99563103  0.49920653  0.74731878  1
  O  O0  1  0.80555640  0.18986591  0.74355285  1
  O  O1  1  0.18986591  0.80555640  0.74355285  1
  O  O2  1  0.18986591  0.80555640  0.25644715  1
  O  O3  1  0.80555640  0.18986591  0.25644715  1
  O  O4  1  0.69083142  0.69083142  0.69340076  1
  O  O5  1  0.30326899  0.30326899  0.79070878  1
  O  O6  1  0.30326899  0.30326899  0.20929122  1
  O  O7  1  0.69083142  0.69083142  0.30659924  1
  O  O8  1  0.54204226  0.94539958  0.00000000  1
  O  O9  1  0.46671732  0.08042547  0.50000000  1
  O  O10  1  0.94539958  0.54204226  0.00000000  1
  O  O11  1  0.08042547  0.46671732  0.50000000  1
loop_
_geom_bond_atom_site_label_1
_geom_bond_atom_site_label_2
_geom_bond_distance
_geom_bond_site_symmetry_2
K0 O1 2.682898 1_544
K0 O0 2.682898 1_454
K0 O3 2.682898 1_455
K0 O2 2.682898 1_545
K0 O10 2.815558 1_445
K0 O8 2.815558 1_445
K0 O5 2.976229 1_554
K0 O6 2.976229 1_555
K0 O8 3.104269 1_545
K0 O10 3.104269 1_455
Na0 O11 2.355747 1_555
Na0 O9 2.355747 1_555
Na0 O7 2.387907 1_555
Na0 O4 2.387907 1_555
Na0 O6 2.868466 1_555
Na0 O5 2.868466 1_555
Bi0 O0 2.140059 1_565
Bi0 O1 2.141843 1_555
Bi0 O4 2.145303 1_555
Bi0 O9 2.151122 1_565
Bi0 O5 2.155185 1_565
Bi0 O8 2.164463 1_556
Bi1 O3 2.140059 1_565
Bi1 O2 2.141843 1_555
Bi1 O7 2.145303 1_555
Bi1 O9 2.151122 1_565
Bi1 O6 2.155185 1_565
Bi1 O8 2.164463 1_555
Bi2 O2 2.140059 1_655
Bi2 O3 2.141843 1_555
Bi2 O7 2.145303 1_555
Bi2 O11 2.151122 1_655
Bi2 O6 2.155185 1_655
Bi2 O10 2.164463 1_555
Bi3 O1 2.140059 1_655
Bi3 O0 2.141843 1_555
Bi3 O4 2.145303 1_555
Bi3 O11 2.151122 1_655
Bi3 O5 2.155185 1_655
Bi3 O10 2.164463 1_556
