# generated using pymatgen
data_Sc2H10S3O17
_symmetry_space_group_name_H-M   'P 1'
_cell_length_a   6.27662500
_cell_length_b   11.28618517
_cell_length_c   11.68901482
_cell_angle_alpha   100.93859017
_cell_angle_beta   95.47651910
_cell_angle_gamma   89.64867981
_symmetry_Int_Tables_number   1
_chemical_formula_structural   Sc2H10S3O17
_chemical_formula_sum   'Sc4 H20 S6 O34'
_cell_volume   809.22356130
_cell_formula_units_Z   2
loop_
 _symmetry_equiv_pos_site_id
 _symmetry_equiv_pos_as_xyz
  1  'x, y, z'
loop_
 _atom_site_type_symbol
 _atom_site_label
 _atom_site_symmetry_multiplicity
 _atom_site_fract_x
 _atom_site_fract_y
 _atom_site_fract_z
 _atom_site_occupancy
  Sc  Sc0  1  0.35679000  0.12687800  0.22846400  1
  Sc  Sc1  1  0.64321000  0.87312200  0.77153600  1
  Sc  Sc2  1  0.00000000  0.50000000  0.00000000  1
  Sc  Sc3  1  0.00000000  0.50000000  0.50000000  1
  H  H0  1  0.66330000  0.08403500  0.06511700  1
  H  H1  1  0.33670000  0.91596500  0.93488300  1
  H  H2  1  0.66152200  0.96700500  0.11870300  1
  H  H3  1  0.33847800  0.03299500  0.88129700  1
  H  H4  1  0.80803500  0.15483400  0.47610900  1
  H  H5  1  0.19196500  0.84516600  0.52389100  1
  H  H6  1  0.65793500  0.72376100  0.34711400  1
  H  H7  1  0.34206500  0.27623900  0.65288600  1
  H  H8  1  0.21457000  0.92237500  0.22956700  1
  H  H9  1  0.78543000  0.07762500  0.77043300  1
  H  H10  1  0.44503500  0.64251500  0.07357500  1
  H  H11  1  0.55496500  0.35748500  0.92642500  1
  H  H12  1  0.54518300  0.42332700  0.18857400  1
  H  H13  1  0.45481700  0.57667300  0.81142600  1
  H  H14  1  0.42162600  0.70867500  0.09155300  1
  H  H15  1  0.57837400  0.29132500  0.90844700  1
  H  H16  1  0.34236400  0.57738500  0.36993100  1
  H  H17  1  0.65763600  0.42261500  0.63006900  1
  H  H18  1  0.37606800  0.62239000  0.50833200  1
  H  H19  1  0.62393200  0.37761000  0.49166800  1
  S  S0  1  0.29831900  0.49591300  0.75532000  1
  S  S1  1  0.70168100  0.50408700  0.24468000  1
  S  S2  1  0.04527500  0.18595400  0.98322200  1
  S  S3  1  0.95472500  0.81404600  0.01677800  1
  S  S4  1  0.14466400  0.19504400  0.49471500  1
  S  S5  1  0.85533600  0.80495600  0.50528500  1
  O  O0  1  0.15566700  0.46627000  0.83639500  1
  O  O1  1  0.84433300  0.53373000  0.16360500  1
  O  O2  1  0.17188900  0.54541900  0.65980700  1
  O  O3  1  0.82811100  0.45458100  0.34019300  1
  O  O4  1  0.42638600  0.39172700  0.70347200  1
  O  O5  1  0.57361400  0.60827300  0.29652800  1
  O  O6  1  0.52045000  0.72689600  0.68133800  1
  O  O7  1  0.47955000  0.27310400  0.31866200  1
  O  O8  1  0.84869700  0.11049500  0.96101200  1
  O  O9  1  0.15130300  0.88950500  0.03898800  1
  O  O10  1  0.15458300  0.17579000  0.10280300  1
  O  O11  1  0.84541700  0.82421000  0.89719700  1
  O  O12  1  0.28829100  0.47971700  0.09469000  1
  O  O13  1  0.71170900  0.52028300  0.90531000  1
  O  O14  1  0.19387400  0.15220800  0.89322000  1
  O  O15  1  0.80612600  0.84779200  0.10678000  1
  O  O16  1  0.30118400  0.18920000  0.60127900  1
  O  O17  1  0.69881600  0.81080000  0.39872100  1
  O  O18  1  0.93441700  0.15530500  0.53743400  1
  O  O19  1  0.06558300  0.84469500  0.46256600  1
  O  O20  1  0.21523400  0.10754700  0.39827600  1
  O  O21  1  0.78476600  0.89245300  0.60172400  1
  O  O22  1  0.12930500  0.32080400  0.47782000  1
  O  O23  1  0.87069500  0.67919600  0.52218000  1
  O  O24  1  0.57928200  0.04392100  0.11533200  1
  O  O25  1  0.42071800  0.95607900  0.88466800  1
  O  O26  1  0.65418300  0.14918100  0.35116700  1
  O  O27  1  0.34581700  0.85081900  0.64883300  1
  O  O28  1  0.83922500  0.15216000  0.30770600  1
  O  O29  1  0.16077500  0.84784000  0.69229400  1
  O  O30  1  0.01475800  0.68485400  0.00834000  1
  O  O31  1  0.98524200  0.31514600  0.99166000  1
  O  O32  1  0.27714600  0.57762400  0.44405700  1
  O  O33  1  0.72285400  0.42237600  0.55594300  1
loop_
_geom_bond_atom_site_label_1
_geom_bond_atom_site_label_2
_geom_bond_distance
_geom_bond_site_symmetry_2
H0 O24 0.995216 1_555
H1 O25 0.995216 1_555
H2 O24 1.012514 1_565
H2 O15 1.609806 1_555
H3 O25 1.012514 1_545
H3 O14 1.609806 1_555
H4 O18 1.016460 1_555
H4 O26 1.663040 1_555
H5 O19 1.016460 1_555
H5 O27 1.663040 1_555
H6 O17 1.069287 1_555
H6 O5 1.408856 1_555
H7 O16 1.069287 1_555
H7 O4 1.408856 1_555
H8 Sc0 2.482519 1_565
H9 Sc1 2.482519 1_545
H10 H14 0.753856 1_555
H11 H15 0.753856 1_555
H12 S1 1.373651 1_555
H13 S0 1.373651 1_555
H16 O32 0.992535 1_555
H17 O33 0.992535 1_555
H18 O32 0.987923 1_555
H19 O33 0.987923 1_555
O0 S0 1.448342 1_555
O0 Sc2 2.198312 1_556
O1 S1 1.448342 1_555
O1 Sc2 2.198312 1_655
O2 S0 1.500191 1_555
O2 Sc3 2.043240 1_555
O3 S1 1.500191 1_555
O3 Sc3 2.043240 1_655
O4 S0 1.485609 1_555
O5 S1 1.485609 1_555
O6 Sc1 1.905016 1_555
O7 Sc0 1.905016 1_555
O8 S2 1.477467 1_655
O9 S3 1.477467 1_455
O10 S2 1.521351 1_554
O10 Sc0 2.004090 1_555
O11 S3 1.521351 1_556
O11 Sc1 2.004090 1_555
O12 Sc2 2.064109 1_555
O13 Sc2 2.064109 1_656
O14 S2 1.467187 1_555
O15 S3 1.467187 1_555
O16 S4 1.522462 1_555
O17 S5 1.522462 1_555
O18 S4 1.552412 1_655
O19 S5 1.552412 1_455
O20 S4 1.452444 1_555
O20 Sc0 2.297900 1_555
O21 S5 1.452444 1_555
O21 Sc1 2.297900 1_555
O22 S4 1.471026 1_555
O22 Sc3 2.153418 1_555
O23 S5 1.471026 1_555
O23 Sc3 2.153418 1_655
O24 Sc0 2.107636 1_555
O25 Sc1 2.107636 1_555
O26 O28 1.314434 1_555
O26 O7 1.845353 1_555
O26 Sc0 2.227672 1_555
O27 O29 1.314434 1_555
O27 O6 1.845353 1_555
O27 Sc1 2.227672 1_555
O30 S3 1.491140 1_455
O30 Sc2 2.072239 1_555
O31 S2 1.491140 1_655
O31 Sc2 2.072239 1_656
O32 Sc3 2.162027 1_555
O33 Sc3 2.162027 1_655
