# generated using pymatgen
data_Mg9Si5
_symmetry_space_group_name_H-M   'P 1'
_cell_length_a   12.96401319
_cell_length_b   12.96401319
_cell_length_c   12.96401330
_cell_angle_alpha   32.15645116
_cell_angle_beta   32.15645116
_cell_angle_gamma   32.15645104
_symmetry_Int_Tables_number   1
_chemical_formula_structural   Mg9Si5
_chemical_formula_sum   'Mg18 Si10'
_cell_volume   548.50872949
_cell_formula_units_Z   2
loop_
 _symmetry_equiv_pos_site_id
 _symmetry_equiv_pos_as_xyz
  1  'x, y, z'
loop_
 _atom_site_type_symbol
 _atom_site_label
 _atom_site_symmetry_multiplicity
 _atom_site_fract_x
 _atom_site_fract_y
 _atom_site_fract_z
 _atom_site_occupancy
  Mg  Mg0  1  0.61782900  0.14134800  0.90693000  1
  Mg  Mg1  1  0.24803600  0.50000000  0.75196400  1
  Mg  Mg2  1  0.14134800  0.90693000  0.61782900  1
  Mg  Mg3  1  0.50000000  0.75196400  0.24803600  1
  Mg  Mg4  1  0.90693000  0.61782900  0.14134800  1
  Mg  Mg5  1  0.75196400  0.24803600  0.50000000  1
  Mg  Mg6  1  0.07477000  0.44415900  0.64286000  1
  Mg  Mg7  1  0.74391900  0.25608100  0.00000000  1
  Mg  Mg8  1  0.44415900  0.64286000  0.07477000  1
  Mg  Mg9  1  0.25608100  0.00000000  0.74391900  1
  Mg  Mg10  1  0.64286000  0.07477000  0.44415900  1
  Mg  Mg11  1  0.00000000  0.74391900  0.25608100  1
  Mg  Mg12  1  0.85865200  0.38217100  0.09307000  1
  Mg  Mg13  1  0.92523000  0.35714000  0.55584100  1
  Mg  Mg14  1  0.38217100  0.09307000  0.85865200  1
  Mg  Mg15  1  0.35714000  0.55584100  0.92523000  1
  Mg  Mg16  1  0.09307000  0.85865200  0.38217100  1
  Mg  Mg17  1  0.55584100  0.92523000  0.35714000  1
  Si  Si0  1  0.33059400  0.33059400  0.33059400  1
  Si  Si1  1  0.44220400  0.44220400  0.44220400  1
  Si  Si2  1  0.16772600  0.16772600  0.16772600  1
  Si  Si3  1  0.23559900  0.23559900  0.23559900  1
  Si  Si4  1  0.05581500  0.05581500  0.05581500  1
  Si  Si5  1  0.55779600  0.55779600  0.55779600  1
  Si  Si6  1  0.66940600  0.66940600  0.66940600  1
  Si  Si7  1  0.94418500  0.94418500  0.94418500  1
  Si  Si8  1  0.83227400  0.83227400  0.83227400  1
  Si  Si9  1  0.76440100  0.76440100  0.76440100  1
loop_
_geom_bond_atom_site_label_1
_geom_bond_atom_site_label_2
_geom_bond_distance
_geom_bond_site_symmetry_2
Mg0 Si3 2.648831 1_556
Mg0 Si5 2.777476 1_555
Mg0 Si7 2.779554 1_545
Mg0 Si8 2.805286 1_545
Mg1 Si8 2.733263 1_455
Mg1 Si2 2.733263 1_556
Mg1 Si5 2.794537 1_555
Mg1 Si1 2.794537 1_555
Mg2 Si3 2.648831 1_565
Mg2 Si5 2.777476 1_555
Mg2 Si7 2.779554 1_455
Mg2 Si8 2.805286 1_455
Mg3 Si2 2.733263 1_565
Mg3 Si8 2.733263 1_554
Mg3 Si1 2.794537 1_555
Mg3 Si5 2.794537 1_555
Mg4 Si3 2.648831 1_655
Mg4 Si5 2.777476 1_555
Mg4 Si7 2.779554 1_554
Mg4 Si8 2.805286 1_554
Mg5 Si8 2.733263 1_545
Mg5 Si2 2.733263 1_655
Mg5 Si1 2.794537 1_555
Mg5 Si5 2.794537 1_555
Mg6 Si9 2.822338 1_455
Mg6 Si4 2.880721 1_556
Mg6 Si1 2.895554 1_555
Mg6 Si0 2.940429 1_555
Mg6 Si6 2.986352 1_455
Mg7 Si0 2.715687 1_555
Mg7 Si6 2.715687 1_554
Mg7 Si4 2.758926 1_655
Mg7 Si7 2.758926 1_544
Mg8 Si9 2.822338 1_554
Mg8 Si4 2.880721 1_565
Mg8 Si1 2.895554 1_555
Mg8 Si0 2.940429 1_555
Mg8 Si6 2.986352 1_554
Mg9 Si6 2.715687 1_545
Mg9 Si0 2.715687 1_555
Mg9 Si7 2.758926 1_445
Mg9 Si4 2.758926 1_556
Mg10 Si9 2.822338 1_545
Mg10 Si4 2.880721 1_655
Mg10 Si1 2.895554 1_555
Mg10 Si0 2.940429 1_555
Mg10 Si6 2.986352 1_545
Mg11 Si0 2.715687 1_555
Mg11 Si6 2.715687 1_455
Mg11 Si4 2.758926 1_565
Mg11 Si7 2.758926 1_454
Mg12 Si9 2.648831 1_554
Mg12 Si1 2.777476 1_555
Mg12 Si4 2.779554 1_655
Mg12 Si2 2.805286 1_655
Mg13 Si3 2.822338 1_655
Mg13 Si7 2.880721 1_545
Mg13 Si5 2.895554 1_555
Mg13 Si6 2.940429 1_555
Mg13 Si0 2.986352 1_655
Mg14 Si9 2.648831 1_545
Mg14 Si1 2.777476 1_555
Mg14 Si4 2.779554 1_556
Mg14 Si2 2.805286 1_556
Mg15 Si3 2.822338 1_556
Mg15 Si7 2.880721 1_455
Mg15 Si5 2.895554 1_555
Mg15 Si6 2.940429 1_555
Mg15 Si0 2.986352 1_556
Mg16 Si9 2.648831 1_455
Mg16 Si1 2.777476 1_555
Mg16 Si4 2.779554 1_565
Mg16 Si2 2.805286 1_565
Mg17 Si3 2.822338 1_565
Mg17 Si7 2.880721 1_554
Mg17 Si5 2.895554 1_555
Mg17 Si6 2.940429 1_555
Mg17 Si0 2.986352 1_565
Si2 Si3 2.501100 1_555
Si8 Si9 2.501100 1_555
