# generated using pymatgen
data_BaOsO2
_symmetry_space_group_name_H-M   'P 1'
_cell_length_a   7.94314770
_cell_length_b   7.94314770
_cell_length_c   7.94314770
_cell_angle_alpha   131.55299253
_cell_angle_beta   131.55299253
_cell_angle_gamma   70.93594948
_symmetry_Int_Tables_number   1
_chemical_formula_structural   BaOsO2
_chemical_formula_sum   'Ba4 Os4 O8'
_cell_volume   274.84891306
_cell_formula_units_Z   4
loop_
 _symmetry_equiv_pos_site_id
 _symmetry_equiv_pos_as_xyz
  1  'x, y, z'
loop_
 _atom_site_type_symbol
 _atom_site_label
 _atom_site_symmetry_multiplicity
 _atom_site_fract_x
 _atom_site_fract_y
 _atom_site_fract_z
 _atom_site_occupancy
  Ba  Ba0  1  0.87500000  0.62500000  0.25000000  1
  Ba  Ba1  1  0.37500000  0.62500000  0.75000000  1
  Ba  Ba2  1  0.37500000  0.62500000  0.25000000  1
  Ba  Ba3  1  0.37500000  0.12500000  0.75000000  1
  Os  Os0  1  0.37500000  0.12500000  0.25000000  1
  Os  Os1  1  0.87500000  0.12500000  0.75000000  1
  Os  Os2  1  0.87500000  0.12500000  0.25000000  1
  Os  Os3  1  0.87500000  0.62500000  0.75000000  1
  O  O0  1  0.16273000  0.34701800  0.18428800  1
  O  O1  1  0.16273000  0.97844200  0.81571200  1
  O  O2  1  0.09701800  0.41273000  0.68428800  1
  O  O3  1  0.58727000  0.90298200  0.31571200  1
  O  O4  1  0.72844200  0.41273000  0.31571200  1
  O  O5  1  0.58727000  0.27155800  0.68428800  1
  O  O6  1  0.65298200  0.83727000  0.81571200  1
  O  O7  1  0.02155800  0.83727000  0.18428800  1
loop_
_geom_bond_atom_site_label_1
_geom_bond_atom_site_label_2
_geom_bond_distance
_geom_bond_site_symmetry_2
Ba0 O1 2.669902 1_655
Ba0 O3 2.669902 1_555
Ba0 O5 2.669902 1_554
Ba0 O0 2.669902 1_655
Ba0 O7 2.779640 1_655
Ba0 O4 2.779640 1_555
Ba1 O1 2.669902 1_555
Ba1 O3 2.669902 1_556
Ba1 O5 2.669902 1_555
Ba1 O0 2.669902 1_555
Ba1 O2 2.779640 1_555
Ba1 O6 2.779640 1_555
Ba2 O4 2.669902 1_555
Ba2 O2 2.669902 1_554
Ba2 O6 2.669902 1_555
Ba2 O7 2.669902 1_555
Ba2 O0 2.779640 1_555
Ba2 O3 2.779640 1_555
Ba3 O4 2.669902 1_556
Ba3 O6 2.669902 1_545
Ba3 O2 2.669902 1_555
Ba3 O7 2.669902 1_545
Ba3 O5 2.779640 1_555
Ba3 O1 2.779640 1_545
O0 Os1 2.082441 1_454
O0 Os0 2.082441 1_555
O1 Os0 2.082441 1_566
O1 Os1 2.082441 1_465
O2 Os2 2.082441 1_455
O2 Os3 2.082441 1_455
O3 Os1 2.082441 1_565
O3 Os0 2.082441 1_565
O4 Os3 2.082441 1_555
O4 Os2 2.082441 1_555
O5 Os1 2.082441 1_555
O5 Os0 2.082441 1_555
O6 Os2 2.082441 1_566
O6 Os3 2.082441 1_555
O7 Os2 2.082441 1_465
O7 Os3 2.082441 1_454
