# generated using pymatgen
data_CoBi6(SO8)2
_symmetry_space_group_name_H-M   'P 1'
_cell_length_a   5.66734401
_cell_length_b   31.21206601
_cell_length_c   8.99577984
_cell_angle_alpha   88.32048259
_cell_angle_beta   108.36081317
_cell_angle_gamma   90.00594710
_symmetry_Int_Tables_number   1
_chemical_formula_structural   CoBi6(SO8)2
_chemical_formula_sum   'Co4 Bi24 S8 O64'
_cell_volume   1509.53210844
_cell_formula_units_Z   4
loop_
 _symmetry_equiv_pos_site_id
 _symmetry_equiv_pos_as_xyz
  1  'x, y, z'
loop_
 _atom_site_type_symbol
 _atom_site_label
 _atom_site_symmetry_multiplicity
 _atom_site_fract_x
 _atom_site_fract_y
 _atom_site_fract_z
 _atom_site_occupancy
  Co  Co0  1  0.10799300  0.49998000  0.00005500  1
  Co  Co1  1  0.60789300  0.24998800  0.99998300  1
  Co  Co2  1  0.65731300  0.75001000  0.00010300  1
  Co  Co3  1  0.10810300  0.00001400  0.99992600  1
  Bi  Bi0  1  0.45035500  0.66514600  0.64904700  1
  Bi  Bi1  1  0.94795400  0.91560200  0.64489300  1
  Bi  Bi2  1  0.45036200  0.16512800  0.64742600  1
  Bi  Bi3  1  0.95040700  0.41510200  0.64747600  1
  Bi  Bi4  1  0.30305500  0.58441500  0.35510300  1
  Bi  Bi5  1  0.80138200  0.83487000  0.35103800  1
  Bi  Bi6  1  0.30297400  0.08489100  0.35257700  1
  Bi  Bi7  1  0.80289300  0.33487100  0.35262100  1
  Bi  Bi8  1  0.97626000  0.58752200  0.69259000  1
  Bi  Bi9  1  0.47444600  0.83803000  0.69238500  1
  Bi  Bi10  1  0.97675700  0.08757200  0.69253300  1
  Bi  Bi11  1  0.47677100  0.33755000  0.69251800  1
  Bi  Bi12  1  0.78219000  0.66197400  0.30758900  1
  Bi  Bi13  1  0.28384400  0.91248600  0.30736800  1
  Bi  Bi14  1  0.78444600  0.16244100  0.30749800  1
  Bi  Bi15  1  0.28432700  0.41242600  0.30746400  1
  Bi  Bi16  1  0.05705700  0.66668400  0.01052400  1
  Bi  Bi17  1  0.55275000  0.91800800  0.00734800  1
  Bi  Bi18  1  0.05284300  0.16791100  0.00776100  1
  Bi  Bi19  1  0.55282200  0.41789300  0.00779600  1
  Bi  Bi20  1  0.54537000  0.58197300  0.99260400  1
  Bi  Bi21  1  0.04648400  0.83332600  0.98942500  1
  Bi  Bi22  1  0.54509100  0.08212100  0.99216200  1
  Bi  Bi23  1  0.04506200  0.33207700  0.99221700  1
  S  S0  1  0.03503500  0.74620400  0.72190900  1
  S  S1  1  0.53127400  0.99613200  0.71509700  1
  S  S2  1  0.03114400  0.24606500  0.71504700  1
  S  S3  1  0.53110900  0.49604400  0.71510100  1
  S  S4  1  0.81615800  0.50385500  0.28492100  1
  S  S5  1  0.31331500  0.75382100  0.27816600  1
  S  S6  1  0.81600300  0.00394900  0.28479500  1
  S  S7  1  0.31598700  0.25392300  0.28493000  1
  O  O0  1  0.12996100  0.62499200  0.50124900  1
  O  O1  1  0.62878500  0.87502300  0.49877900  1
  O  O2  1  0.12987300  0.12500900  0.49998200  1
  O  O3  1  0.62983400  0.37499500  0.50003200  1
  O  O4  1  0.60981400  0.62512800  0.50042400  1
  O  O5  1  0.10946400  0.87490000  0.49960000  1
  O  O6  1  0.61065900  0.12501400  0.49999400  1
  O  O7  1  0.11062900  0.37498700  0.50004000  1
  O  O8  1  0.30388700  0.73834900  0.81254400  1
  O  O9  1  0.80220900  0.98819300  0.80590000  1
  O  O10  1  0.30206100  0.23810800  0.80586000  1
  O  O11  1  0.80197100  0.48807500  0.80599200  1
  O  O12  1  0.99636900  0.51177600  0.19414400  1
  O  O13  1  0.49144600  0.76163700  0.18742800  1
  O  O14  1  0.99603000  0.01189600  0.19392400  1
  O  O15  1  0.49600700  0.26184600  0.19402300  1
  O  O16  1  0.87930400  0.73098900  0.82288500  1
  O  O17  1  0.37762300  0.98048200  0.81471200  1
  O  O18  1  0.87744300  0.23030700  0.81453200  1
  O  O19  1  0.37730100  0.48027200  0.81449100  1
  O  O20  1  0.56295200  0.51952900  0.18530300  1
  O  O21  1  0.05663300  0.76904900  0.17725300  1
  O  O22  1  0.56282400  0.01971500  0.18534400  1
  O  O23  1  0.06283700  0.26969600  0.18551900  1
  O  O24  1  0.96874300  0.72163300  0.57738900  1
  O  O25  1  0.47092400  0.97210300  0.56972300  1
  O  O26  1  0.97082700  0.22209600  0.56951100  1
  O  O27  1  0.47080100  0.47214900  0.56944600  1
  O  O28  1  0.90131600  0.52791400  0.43027400  1
  O  O29  1  0.39187000  0.77841400  0.42263100  1
  O  O30  1  0.90137900  0.02787900  0.43037600  1
  O  O31  1  0.40150500  0.27789400  0.43044300  1
  O  O32  1  0.48811400  0.54337400  0.68504400  1
  O  O33  1  0.98916600  0.79345000  0.68892400  1
  O  O34  1  0.48827700  0.04344600  0.68457600  1
  O  O35  1  0.98805700  0.29338000  0.68473600  1
  O  O36  1  0.30024000  0.70658500  0.31121900  1
  O  O37  1  0.80293900  0.95663000  0.31495900  1
  O  O38  1  0.30297900  0.20660900  0.31526900  1
  O  O39  1  0.80348300  0.45655900  0.31552500  1
  O  O40  1  0.17128800  0.55797200  0.94132900  1
  O  O41  1  0.66888400  0.80991400  0.94175000  1
  O  O42  1  0.17133000  0.05805500  0.94126500  1
  O  O43  1  0.67132000  0.30800500  0.94127800  1
  O  O44  1  0.72709800  0.69007900  0.05819400  1
  O  O45  1  0.22993300  0.94201300  0.05860800  1
  O  O46  1  0.73003000  0.19197400  0.05868400  1
  O  O47  1  0.22996600  0.44194700  0.05867500  1
  O  O48  1  0.30064300  0.62886600  0.81495900  1
  O  O49  1  0.79834100  0.87996200  0.81232700  1
  O  O50  1  0.30051900  0.12907700  0.81436300  1
  O  O51  1  0.80057400  0.37903700  0.81440900  1
  O  O52  1  0.98613900  0.62005300  0.18767400  1
  O  O53  1  0.48578500  0.87112800  0.18505600  1
  O  O54  1  0.98624900  0.12094900  0.18560100  1
  O  O55  1  0.48624800  0.37093500  0.18562900  1
  O  O56  1  0.79781700  0.63129300  0.81815500  1
  O  O57  1  0.29524700  0.88206600  0.81666200  1
  O  O58  1  0.79764600  0.13145100  0.81795600  1
  O  O59  1  0.29773300  0.38143700  0.81797600  1
  O  O60  1  0.47872400  0.61791900  0.18336300  1
  O  O61  1  0.97979100  0.86870900  0.18188600  1
  O  O62  1  0.47992400  0.11854500  0.18209500  1
  O  O63  1  0.97986200  0.36852300  0.18211100  1
loop_
_geom_bond_atom_site_label_1
_geom_bond_atom_site_label_2
_geom_bond_distance
_geom_bond_site_symmetry_2
Co0 O40 1.935780 1_554
Co0 O47 1.936868 1_555
Co0 O12 2.077929 1_455
Co0 O11 2.079435 1_454
Co1 O43 1.936649 1_555
Co1 O46 1.936667 1_556
Co1 O15 2.078751 1_556
Co1 O10 2.078978 1_555
Co2 O41 1.933873 1_554
Co2 O44 1.934214 1_555
Co2 O13 2.211087 1_555
Co2 O8 2.213132 1_554
Co2 O16 2.407490 1_554
Co2 O21 2.407781 1_655
Co3 O45 1.935796 1_546
Co3 O42 1.936916 1_555
Co3 O9 2.078297 1_445
Co3 O14 2.079151 1_456
Bi0 O48 2.219973 1_555
Bi0 O4 2.241346 1_555
Bi0 O0 2.282935 1_555
Bi0 O56 2.308101 1_555
Bi1 O49 2.220628 1_555
Bi1 O5 2.238599 1_655
Bi1 O1 2.281005 1_555
Bi1 O57 2.312314 1_655
Bi2 O50 2.224110 1_555
Bi2 O6 2.237972 1_555
Bi2 O2 2.281540 1_555
Bi2 O58 2.309906 1_555
Bi3 O51 2.224260 1_555
Bi3 O7 2.237764 1_655
Bi3 O3 2.281620 1_555
Bi3 O59 2.309793 1_655
Bi4 O52 2.220276 1_455
Bi4 O4 2.238585 1_555
Bi4 O0 2.281475 1_555
Bi4 O60 2.312062 1_555
Bi5 O53 2.219940 1_555
Bi5 O5 2.241207 1_655
Bi5 O1 2.282704 1_555
Bi5 O61 2.308279 1_555
Bi6 O54 2.224312 1_455
Bi6 O6 2.237783 1_555
Bi6 O2 2.281619 1_555
Bi6 O62 2.309827 1_555
Bi7 O55 2.224192 1_555
Bi7 O7 2.237835 1_655
Bi7 O3 2.281619 1_555
Bi7 O63 2.310068 1_555
Bi8 O56 2.230578 1_555
Bi8 O48 2.250445 1_655
Bi8 O40 2.323858 1_655
Bi8 O0 2.432213 1_655
Bi8 O4 2.509755 1_555
Bi9 O57 2.230705 1_555
Bi9 O49 2.254134 1_555
Bi9 O41 2.311706 1_555
Bi9 O1 2.444014 1_555
Bi9 O5 2.496814 1_555
Bi10 O58 2.234164 1_555
Bi10 O50 2.249871 1_655
Bi10 O42 2.322985 1_655
Bi10 O2 2.438605 1_655
Bi10 O6 2.507658 1_555
Bi11 O59 2.234277 1_555
Bi11 O51 2.249829 1_555
Bi11 O43 2.323486 1_555
Bi11 O3 2.438073 1_555
Bi11 O7 2.507513 1_555
Bi12 O60 2.230743 1_555
Bi12 O52 2.253936 1_555
Bi12 O44 2.311642 1_555
Bi12 O0 2.443641 1_655
Bi12 O4 2.497318 1_555
Bi13 O61 2.230469 1_455
Bi13 O53 2.250263 1_555
Bi13 O45 2.323537 1_555
Bi13 O1 2.432199 1_555
Bi13 O5 2.510147 1_555
Bi14 O62 2.234231 1_555
Bi14 O54 2.249725 1_555
Bi14 O46 2.323558 1_555
Bi14 O2 2.437619 1_655
Bi14 O6 2.507780 1_555
Bi15 O63 2.234044 1_455
Bi15 O55 2.249779 1_555
Bi15 O47 2.323269 1_555
Bi15 O3 2.438202 1_555
Bi15 O7 2.508215 1_555
Bi16 O44 2.176649 1_455
Bi16 O56 2.209836 1_454
Bi16 O52 2.255409 1_455
Bi16 O16 2.573521 1_454
Bi17 O45 2.161748 1_555
Bi17 O57 2.205916 1_554
Bi17 O53 2.255134 1_555
Bi17 O17 2.551294 1_554
Bi18 O46 2.160883 1_455
Bi18 O58 2.204527 1_454
Bi18 O54 2.256802 1_455
Bi18 O18 2.552608 1_454
Bi19 O47 2.160813 1_555
Bi19 O59 2.204287 1_554
Bi19 O55 2.256633 1_555
Bi19 O19 2.552701 1_554
Bi20 O40 2.161576 1_555
Bi20 O60 2.206231 1_556
Bi20 O48 2.255347 1_555
Bi20 O20 2.550819 1_556
Bi21 O41 2.176535 1_455
Bi21 O61 2.210085 1_456
Bi21 O49 2.255569 1_455
Bi21 O21 2.573570 1_556
Bi22 O42 2.160924 1_555
Bi22 O62 2.204464 1_556
Bi22 O50 2.256926 1_555
Bi22 O22 2.552592 1_556
Bi23 O43 2.160859 1_455
Bi23 O63 2.204615 1_456
Bi23 O51 2.256859 1_455
Bi23 O23 2.552668 1_556
O8 S0 1.500725 1_555
O9 S1 1.511416 1_555
O10 S2 1.511432 1_555
O11 S3 1.511376 1_555
O12 S4 1.511492 1_555
O13 S5 1.500787 1_555
O14 S6 1.511364 1_555
O15 S7 1.511462 1_555
O16 S0 1.519633 1_655
O17 S1 1.505246 1_555
O18 S2 1.505604 1_655
O19 S3 1.505548 1_555
O20 S4 1.505301 1_555
O21 S5 1.519557 1_555
O22 S6 1.505642 1_555
O23 S7 1.505482 1_555
O24 S0 1.473145 1_655
O25 S1 1.471510 1_555
O26 S2 1.471727 1_655
O27 S3 1.471388 1_555
O28 S4 1.471889 1_555
O29 S5 1.473163 1_555
O30 S6 1.471437 1_555
O31 S7 1.471670 1_555
O32 S3 1.499985 1_555
O33 S0 1.502011 1_655
O34 S1 1.499921 1_545
O35 S2 1.499812 1_655
O36 S5 1.501906 1_555
O37 S6 1.499853 1_565
O38 S7 1.499931 1_555
O39 S4 1.499584 1_555
