# generated using pymatgen
data_UFe4B
_symmetry_space_group_name_H-M   'P 1'
_cell_length_a   4.99037968
_cell_length_b   4.99060163
_cell_length_c   7.15400365
_cell_angle_alpha   90.00000000
_cell_angle_beta   90.00000000
_cell_angle_gamma   119.99768635
_symmetry_Int_Tables_number   1
_chemical_formula_structural   UFe4B
_chemical_formula_sum   'U2 Fe8 B2'
_cell_volume   154.30372391
_cell_formula_units_Z   2
loop_
 _symmetry_equiv_pos_site_id
 _symmetry_equiv_pos_as_xyz
  1  'x, y, z'
loop_
 _atom_site_type_symbol
 _atom_site_label
 _atom_site_symmetry_multiplicity
 _atom_site_fract_x
 _atom_site_fract_y
 _atom_site_fract_z
 _atom_site_occupancy
  U  U0  1  -0.00000000  0.00000000  0.50000000  1
  U  U1  1  -0.00000000  0.00000000  0.00000000  1
  Fe  Fe0  1  0.33332645  0.66668306  0.50000000  1
  Fe  Fe1  1  0.66667355  0.33331694  0.50000000  1
  Fe  Fe2  1  0.50000000  0.00000000  0.21382696  1
  Fe  Fe3  1  0.50000000  0.00000000  0.78617304  1
  Fe  Fe4  1  -0.00000000  0.50000000  0.21384298  1
  Fe  Fe5  1  -0.00000000  0.50000000  0.78615702  1
  Fe  Fe6  1  0.50000000  0.50000000  0.21384566  1
  Fe  Fe7  1  0.50000000  0.50000000  0.78615434  1
  B  B0  1  0.33333482  0.66666747  -0.00000000  1
  B  B1  1  0.66666518  0.33333253  0.00000000  1
loop_
_geom_bond_atom_site_label_1
_geom_bond_atom_site_label_2
_geom_bond_distance
_geom_bond_site_symmetry_2
Fe0 Fe5 2.503245 1_555
Fe0 Fe4 2.503245 1_555
Fe0 Fe7 2.503293 1_555
Fe0 Fe6 2.503293 1_555
Fe0 Fe3 2.503352 1_565
Fe0 Fe2 2.503352 1_565
Fe0 U0 2.881127 1_565
Fe0 Fe1 2.881205 1_455
Fe0 Fe1 2.881251 1_565
Fe0 U0 2.881294 1_665
Fe0 Fe1 2.881429 1_555
Fe0 U0 2.881463 1_555
Fe1 Fe5 2.503245 1_655
Fe1 Fe4 2.503245 1_655
Fe1 Fe6 2.503293 1_555
Fe1 Fe7 2.503293 1_555
Fe1 Fe3 2.503352 1_555
Fe1 Fe2 2.503352 1_555
Fe1 U0 2.881127 1_655
Fe1 U0 2.881294 1_555
Fe1 U0 2.881463 1_665
Fe2 U1 2.926775 1_555
Fe2 U1 2.926775 1_655
Fe3 U1 2.926775 1_556
Fe3 U1 2.926775 1_656
Fe4 U1 2.926930 1_555
Fe4 U1 2.926930 1_565
Fe5 U1 2.926930 1_556
Fe5 U1 2.926930 1_566
Fe6 U1 2.926967 1_555
Fe6 U1 2.926967 1_665
Fe7 U1 2.926967 1_666
Fe7 U1 2.926967 1_556
B0 Fe2 2.101341 1_565
B0 Fe3 2.101341 1_564
B0 Fe7 2.101383 1_554
B0 Fe6 2.101383 1_555
B0 Fe4 2.101388 1_555
B0 Fe5 2.101388 1_554
B0 U1 2.881230 1_565
B0 U1 2.881258 1_665
B0 U1 2.881396 1_555
B1 Fe2 2.101341 1_555
B1 Fe3 2.101341 1_554
B1 Fe6 2.101383 1_555
B1 Fe7 2.101383 1_554
B1 Fe4 2.101388 1_655
B1 Fe5 2.101388 1_654
B1 U1 2.881230 1_655
B1 U1 2.881258 1_555
B1 U1 2.881396 1_665
