# generated using pymatgen
data_Mg5Pt
_symmetry_space_group_name_H-M   'P 1'
_cell_length_a   11.04437753
_cell_length_b   11.04437753
_cell_length_c   14.73871312
_cell_angle_alpha   70.52508589
_cell_angle_beta   70.52508589
_cell_angle_gamma   35.11781365
_symmetry_Int_Tables_number   1
_chemical_formula_structural   Mg5Pt
_chemical_formula_sum   'Mg40 Pt8'
_cell_volume   968.91053248
_cell_formula_units_Z   8
loop_
 _symmetry_equiv_pos_site_id
 _symmetry_equiv_pos_as_xyz
  1  'x, y, z'
loop_
 _atom_site_type_symbol
 _atom_site_label
 _atom_site_symmetry_multiplicity
 _atom_site_fract_x
 _atom_site_fract_y
 _atom_site_fract_z
 _atom_site_occupancy
  Mg  Mg0_0  1  0.33069350  0.33069350  0.35146150  1
  Mg  Mg0_1  1  0.33069350  0.33069350  0.85146150  1
  Mg  Mg0_2  1  0.33069350  0.83069350  0.35146150  1
  Mg  Mg0_3  1  0.33069350  0.83069350  0.85146150  1
  Mg  Mg0_4  1  0.83069350  0.33069350  0.35146150  1
  Mg  Mg0_5  1  0.83069350  0.33069350  0.85146150  1
  Mg  Mg0_6  1  0.83069350  0.83069350  0.35146150  1
  Mg  Mg0_7  1  0.83069350  0.83069350  0.85146150  1
  Mg  Mg1_0  1  0.00000000  0.00000000  0.25000000  1
  Mg  Mg1_1  1  0.00000000  0.00000000  0.75000000  1
  Mg  Mg1_2  1  0.00000000  0.50000000  0.25000000  1
  Mg  Mg1_3  1  0.00000000  0.50000000  0.75000000  1
  Mg  Mg1_4  1  0.50000000  0.00000000  0.25000000  1
  Mg  Mg1_5  1  0.50000000  0.00000000  0.75000000  1
  Mg  Mg1_6  1  0.50000000  0.50000000  0.25000000  1
  Mg  Mg1_7  1  0.50000000  0.50000000  0.75000000  1
  Mg  Mg2_0  1  0.16930650  0.16930650  0.14853850  1
  Mg  Mg2_1  1  0.16930650  0.16930650  0.64853850  1
  Mg  Mg2_2  1  0.16930650  0.66930650  0.14853850  1
  Mg  Mg2_3  1  0.16930650  0.66930650  0.64853850  1
  Mg  Mg2_4  1  0.66930650  0.16930650  0.14853850  1
  Mg  Mg2_5  1  0.66930650  0.16930650  0.64853850  1
  Mg  Mg2_6  1  0.66930650  0.66930650  0.14853850  1
  Mg  Mg2_7  1  0.66930650  0.66930650  0.64853850  1
  Mg  Mg3_0  1  0.32235400  0.32235400  0.07235800  1
  Mg  Mg3_1  1  0.32235400  0.32235400  0.57235800  1
  Mg  Mg3_2  1  0.32235400  0.82235400  0.07235800  1
  Mg  Mg3_3  1  0.32235400  0.82235400  0.57235800  1
  Mg  Mg3_4  1  0.82235400  0.32235400  0.07235800  1
  Mg  Mg3_5  1  0.82235400  0.32235400  0.57235800  1
  Mg  Mg3_6  1  0.82235400  0.82235400  0.07235800  1
  Mg  Mg3_7  1  0.82235400  0.82235400  0.57235800  1
  Mg  Mg4_0  1  0.17764600  0.17764600  0.42764200  1
  Mg  Mg4_1  1  0.17764600  0.17764600  0.92764200  1
  Mg  Mg4_2  1  0.17764600  0.67764600  0.42764200  1
  Mg  Mg4_3  1  0.17764600  0.67764600  0.92764200  1
  Mg  Mg4_4  1  0.67764600  0.17764600  0.42764200  1
  Mg  Mg4_5  1  0.67764600  0.17764600  0.92764200  1
  Mg  Mg4_6  1  0.67764600  0.67764600  0.42764200  1
  Mg  Mg4_7  1  0.67764600  0.67764600  0.92764200  1
  Pt  Pt0_0  1  0.00000000  0.00000000  0.00000000  1
  Pt  Pt0_1  1  0.00000000  0.00000000  0.50000000  1
  Pt  Pt0_2  1  0.00000000  0.50000000  0.00000000  1
  Pt  Pt0_3  1  0.00000000  0.50000000  0.50000000  1
  Pt  Pt0_4  1  0.50000000  0.00000000  0.00000000  1
  Pt  Pt0_5  1  0.50000000  0.00000000  0.50000000  1
  Pt  Pt0_6  1  0.50000000  0.50000000  0.00000000  1
  Pt  Pt0_7  1  0.50000000  0.50000000  0.50000000  1
loop_
_geom_bond_atom_site_label_1
_geom_bond_atom_site_label_2
_geom_bond_distance
_geom_bond_site_symmetry_2
Mg0_0 Pt0_3 2.802546 1_555
Mg0_0 Pt0_5 2.802546 1_555
Mg0_0 Mg4_0 3.019633 1_555
Mg0_0 Mg1_2 3.110765 1_555
Mg0_0 Mg1_4 3.110765 1_555
Mg0_0 Mg4_4 3.131824 1_555
Mg0_0 Mg4_2 3.131824 1_555
Mg0_0 Mg3_1 3.198551 1_555
Mg0_0 Mg0_6 3.331936 1_545
Mg0_0 Mg0_6 3.331936 1_455
Mg0_0 Mg1_6 3.349658 1_555
Mg0_0 Mg2_2 3.361482 1_555
Mg0_0 Mg2_4 3.361482 1_555
Mg0_1 Pt0_2 2.802546 1_556
Mg0_1 Pt0_4 2.802546 1_556
Mg0_1 Mg4_1 3.019633 1_555
Mg0_1 Mg1_3 3.110765 1_555
Mg0_1 Mg1_5 3.110765 1_555
Mg0_1 Mg4_5 3.131824 1_555
Mg0_1 Mg4_3 3.131824 1_555
Mg0_1 Mg3_0 3.198551 1_556
Mg0_1 Mg0_7 3.331936 1_455
Mg0_1 Mg0_7 3.331936 1_545
Mg0_1 Mg1_7 3.349658 1_555
Mg0_1 Mg2_3 3.361482 1_555
Mg0_1 Mg2_5 3.361482 1_555
Mg0_2 Pt0_1 2.802546 1_565
Mg0_2 Pt0_7 2.802546 1_555
Mg0_2 Mg4_2 3.019633 1_555
Mg0_2 Mg1_6 3.110765 1_555
Mg0_2 Mg1_0 3.110765 1_565
Mg0_2 Mg4_6 3.131824 1_555
Mg0_2 Mg4_0 3.131824 1_565
Mg0_2 Mg3_3 3.198551 1_555
Mg0_2 Mg0_4 3.331936 1_555
Mg0_2 Mg0_4 3.331936 1_465
Mg0_2 Mg1_4 3.349658 1_565
Mg0_2 Mg2_0 3.361482 1_565
Mg0_2 Mg2_6 3.361482 1_555
Mg0_3 Pt0_0 2.802546 1_566
Mg0_3 Pt0_6 2.802546 1_556
Mg0_3 Mg4_3 3.019633 1_555
Mg0_3 Mg1_7 3.110765 1_555
Mg0_3 Mg1_1 3.110765 1_565
Mg0_3 Mg4_1 3.131824 1_565
Mg0_3 Mg4_7 3.131824 1_555
Mg0_3 Mg3_2 3.198551 1_556
Mg0_3 Mg0_5 3.331936 1_465
Mg0_3 Mg0_5 3.331936 1_555
Mg0_3 Mg1_5 3.349658 1_565
Mg0_3 Mg2_7 3.361482 1_555
Mg0_3 Mg2_1 3.361482 1_565
Mg0_4 Pt0_1 2.802546 1_655
Mg0_4 Pt0_7 2.802546 1_555
Mg0_4 Mg4_4 3.019633 1_555
Mg0_4 Mg1_6 3.110765 1_555
Mg0_4 Mg1_0 3.110765 1_655
Mg0_4 Mg4_6 3.131824 1_555
Mg0_4 Mg4_0 3.131824 1_655
Mg0_4 Mg3_5 3.198551 1_555
Mg0_4 Mg1_2 3.349658 1_655
Mg0_4 Mg2_0 3.361482 1_655
Mg0_4 Mg2_6 3.361482 1_555
Mg0_5 Pt0_0 2.802546 1_656
Mg0_5 Pt0_6 2.802546 1_556
Mg0_5 Mg4_5 3.019633 1_555
Mg0_5 Mg1_7 3.110765 1_555
Mg0_5 Mg1_1 3.110765 1_655
Mg0_5 Mg4_1 3.131824 1_655
Mg0_5 Mg4_7 3.131824 1_555
Mg0_5 Mg3_4 3.198551 1_556
Mg0_5 Mg1_3 3.349658 1_655
Mg0_5 Mg2_7 3.361482 1_555
Mg0_5 Mg2_1 3.361482 1_655
Mg0_6 Pt0_3 2.802546 1_655
Mg0_6 Pt0_5 2.802546 1_565
Mg0_6 Mg4_6 3.019633 1_555
Mg0_6 Mg1_2 3.110765 1_655
Mg0_6 Mg1_4 3.110765 1_565
Mg0_6 Mg4_4 3.131824 1_565
Mg0_6 Mg4_2 3.131824 1_655
Mg0_6 Mg3_7 3.198551 1_555
Mg0_6 Mg1_0 3.349658 1_665
Mg0_6 Mg2_2 3.361482 1_655
Mg0_6 Mg2_4 3.361482 1_565
Mg0_7 Pt0_4 2.802546 1_566
Mg0_7 Pt0_2 2.802546 1_656
Mg0_7 Mg4_7 3.019633 1_555
Mg0_7 Mg1_5 3.110765 1_565
Mg0_7 Mg1_3 3.110765 1_655
Mg0_7 Mg4_5 3.131824 1_565
Mg0_7 Mg4_3 3.131824 1_655
Mg0_7 Mg3_6 3.198551 1_556
Mg0_7 Mg1_1 3.349658 1_665
Mg0_7 Mg2_3 3.361482 1_655
Mg0_7 Mg2_5 3.361482 1_565
Mg1_0 Mg4_2 3.026904 1_545
Mg1_0 Mg4_4 3.026904 1_455
Mg1_0 Mg3_4 3.026904 1_455
Mg1_0 Mg3_2 3.026904 1_545
Mg1_0 Mg2_2 3.110765 1_545
Mg1_0 Mg2_4 3.110765 1_455
Mg1_0 Mg1_6 3.331936 1_455
Mg1_0 Mg1_6 3.331936 1_545
Mg1_0 Mg2_0 3.349658 1_555
Mg1_1 Mg4_3 3.026904 1_545
Mg1_1 Mg4_5 3.026904 1_455
Mg1_1 Mg3_5 3.026904 1_455
Mg1_1 Mg3_3 3.026904 1_545
Mg1_1 Mg2_3 3.110765 1_545
Mg1_1 Mg2_5 3.110765 1_455
Mg1_1 Mg1_7 3.331936 1_455
Mg1_1 Mg1_7 3.331936 1_545
Mg1_1 Mg2_1 3.349658 1_555
Mg1_2 Mg4_0 3.026904 1_555
Mg1_2 Mg4_6 3.026904 1_455
Mg1_2 Mg3_0 3.026904 1_555
Mg1_2 Mg3_6 3.026904 1_455
Mg1_2 Mg2_6 3.110765 1_455
Mg1_2 Mg2_0 3.110765 1_555
Mg1_2 Mg1_4 3.331936 1_555
Mg1_2 Mg1_4 3.331936 1_465
Mg1_2 Mg2_2 3.349658 1_555
Mg1_3 Mg4_1 3.026904 1_555
Mg1_3 Mg4_7 3.026904 1_455
Mg1_3 Mg3_7 3.026904 1_455
Mg1_3 Mg3_1 3.026904 1_555
Mg1_3 Mg2_1 3.110765 1_555
Mg1_3 Mg2_7 3.110765 1_455
Mg1_3 Mg1_5 3.331936 1_555
Mg1_3 Mg1_5 3.331936 1_465
Mg1_3 Mg2_3 3.349658 1_555
Mg1_4 Mg4_0 3.026904 1_555
Mg1_4 Mg4_6 3.026904 1_545
Mg1_4 Mg3_0 3.026904 1_555
Mg1_4 Mg3_6 3.026904 1_545
Mg1_4 Mg2_6 3.110765 1_545
Mg1_4 Mg2_0 3.110765 1_555
Mg1_4 Mg2_4 3.349658 1_555
Mg1_5 Mg4_1 3.026904 1_555
Mg1_5 Mg4_7 3.026904 1_545
Mg1_5 Mg3_1 3.026904 1_555
Mg1_5 Mg3_7 3.026904 1_545
Mg1_5 Mg2_1 3.110765 1_555
Mg1_5 Mg2_7 3.110765 1_545
Mg1_5 Mg2_5 3.349658 1_555
Mg1_6 Mg4_2 3.026904 1_555
Mg1_6 Mg4_4 3.026904 1_555
Mg1_6 Mg3_2 3.026904 1_555
Mg1_6 Mg3_4 3.026904 1_555
Mg1_6 Mg2_4 3.110765 1_555
Mg1_6 Mg2_2 3.110765 1_555
Mg1_6 Mg2_6 3.349658 1_555
Mg1_7 Mg4_3 3.026904 1_555
Mg1_7 Mg4_5 3.026904 1_555
Mg1_7 Mg3_5 3.026904 1_555
Mg1_7 Mg3_3 3.026904 1_555
Mg1_7 Mg2_3 3.110765 1_555
Mg1_7 Mg2_5 3.110765 1_555
Mg1_7 Mg2_7 3.349658 1_555
Mg2_0 Pt0_2 2.802546 1_555
Mg2_0 Pt0_4 2.802546 1_555
Mg2_0 Mg3_0 3.019633 1_555
Mg2_0 Mg3_4 3.131824 1_455
Mg2_0 Mg3_2 3.131824 1_545
Mg2_0 Mg4_1 3.198551 1_554
Mg2_0 Mg2_6 3.331936 1_545
Mg2_0 Mg2_6 3.331936 1_455
Mg2_1 Pt0_5 2.802546 1_555
Mg2_1 Pt0_3 2.802546 1_555
Mg2_1 Mg3_1 3.019633 1_555
Mg2_1 Mg3_5 3.131824 1_455
Mg2_1 Mg3_3 3.131824 1_545
Mg2_1 Mg4_0 3.198551 1_555
Mg2_1 Mg2_7 3.331936 1_545
Mg2_1 Mg2_7 3.331936 1_455
Mg2_2 Pt0_0 2.802546 1_565
Mg2_2 Pt0_6 2.802546 1_555
Mg2_2 Mg3_2 3.019633 1_555
Mg2_2 Mg3_6 3.131824 1_455
Mg2_2 Mg3_0 3.131824 1_555
Mg2_2 Mg4_3 3.198551 1_554
Mg2_2 Mg2_4 3.331936 1_555
Mg2_2 Mg2_4 3.331936 1_465
Mg2_3 Pt0_7 2.802546 1_555
Mg2_3 Pt0_1 2.802546 1_565
Mg2_3 Mg3_3 3.019633 1_555
Mg2_3 Mg3_7 3.131824 1_455
Mg2_3 Mg3_1 3.131824 1_555
Mg2_3 Mg4_2 3.198551 1_555
Mg2_3 Mg2_5 3.331936 1_555
Mg2_3 Mg2_5 3.331936 1_465
Mg2_4 Pt0_0 2.802546 1_655
Mg2_4 Pt0_6 2.802546 1_555
Mg2_4 Mg3_4 3.019633 1_555
Mg2_4 Mg3_6 3.131824 1_545
Mg2_4 Mg3_0 3.131824 1_555
Mg2_4 Mg4_5 3.198551 1_554
Mg2_5 Pt0_7 2.802546 1_555
Mg2_5 Pt0_1 2.802546 1_655
Mg2_5 Mg3_5 3.019633 1_555
Mg2_5 Mg3_7 3.131824 1_545
Mg2_5 Mg3_1 3.131824 1_555
Mg2_5 Mg4_4 3.198551 1_555
Mg2_6 Pt0_4 2.802546 1_565
Mg2_6 Pt0_2 2.802546 1_655
Mg2_6 Mg3_6 3.019633 1_555
Mg2_6 Mg3_2 3.131824 1_555
Mg2_6 Mg3_4 3.131824 1_555
Mg2_6 Mg4_7 3.198551 1_554
Mg2_7 Pt0_5 2.802546 1_565
Mg2_7 Pt0_3 2.802546 1_655
Mg2_7 Mg3_7 3.019633 1_555
Mg2_7 Mg3_5 3.131824 1_555
Mg2_7 Mg3_3 3.131824 1_555
Mg2_7 Mg4_6 3.198551 1_555
Mg3_0 Pt0_2 2.714975 1_555
Mg3_0 Pt0_4 2.714975 1_555
Mg3_0 Mg4_5 2.988977 1_554
Mg3_0 Mg4_3 2.988977 1_554
Mg3_0 Mg3_6 3.331936 1_455
Mg3_0 Mg3_6 3.331936 1_545
Mg3_1 Pt0_3 2.714975 1_555
Mg3_1 Pt0_5 2.714975 1_555
Mg3_1 Mg4_4 2.988977 1_555
Mg3_1 Mg4_2 2.988977 1_555
Mg3_1 Mg3_7 3.331936 1_455
Mg3_1 Mg3_7 3.331936 1_545
Mg3_2 Pt0_0 2.714975 1_565
Mg3_2 Pt0_6 2.714975 1_555
Mg3_2 Mg4_1 2.988977 1_564
Mg3_2 Mg4_7 2.988977 1_554
Mg3_2 Mg3_4 3.331936 1_465
Mg3_2 Mg3_4 3.331936 1_555
Mg3_3 Pt0_1 2.714975 1_565
Mg3_3 Pt0_7 2.714975 1_555
Mg3_3 Mg4_0 2.988977 1_565
Mg3_3 Mg4_6 2.988977 1_555
Mg3_3 Mg3_5 3.331936 1_465
Mg3_3 Mg3_5 3.331936 1_555
Mg3_4 Pt0_0 2.714975 1_655
Mg3_4 Pt0_6 2.714975 1_555
Mg3_4 Mg4_1 2.988977 1_654
Mg3_4 Mg4_7 2.988977 1_554
Mg3_5 Pt0_1 2.714975 1_655
Mg3_5 Pt0_7 2.714975 1_555
Mg3_5 Mg4_6 2.988977 1_555
Mg3_5 Mg4_0 2.988977 1_655
Mg3_6 Pt0_2 2.714975 1_655
Mg3_6 Pt0_4 2.714975 1_565
Mg3_6 Mg4_5 2.988977 1_564
Mg3_6 Mg4_3 2.988977 1_654
Mg3_7 Pt0_3 2.714975 1_655
Mg3_7 Pt0_5 2.714975 1_565
Mg3_7 Mg4_4 2.988977 1_565
Mg3_7 Mg4_2 2.988977 1_655
Mg4_0 Pt0_5 2.714975 1_555
Mg4_0 Pt0_3 2.714975 1_555
Mg4_0 Mg4_6 3.331936 1_455
Mg4_0 Mg4_6 3.331936 1_545
Mg4_1 Pt0_4 2.714975 1_556
Mg4_1 Pt0_2 2.714975 1_556
Mg4_1 Mg4_7 3.331936 1_455
Mg4_1 Mg4_7 3.331936 1_545
Mg4_2 Pt0_7 2.714975 1_555
Mg4_2 Pt0_1 2.714975 1_565
Mg4_2 Mg4_4 3.331936 1_555
Mg4_2 Mg4_4 3.331936 1_465
Mg4_3 Pt0_6 2.714975 1_556
Mg4_3 Pt0_0 2.714975 1_566
Mg4_3 Mg4_5 3.331936 1_555
Mg4_3 Mg4_5 3.331936 1_465
Mg4_4 Pt0_7 2.714975 1_555
Mg4_4 Pt0_1 2.714975 1_655
Mg4_5 Pt0_6 2.714975 1_556
Mg4_5 Pt0_0 2.714975 1_656
Mg4_6 Pt0_5 2.714975 1_565
Mg4_6 Pt0_3 2.714975 1_655
Mg4_7 Pt0_4 2.714975 1_566
Mg4_7 Pt0_2 2.714975 1_656
