# generated using pymatgen
data_Sn2N2O
_symmetry_space_group_name_H-M   'P 1'
_cell_length_a   8.84696700
_cell_length_b   8.84754191
_cell_length_c   8.86224379
_cell_angle_alpha   109.54460861
_cell_angle_beta   109.38207055
_cell_angle_gamma   109.33917744
_symmetry_Int_Tables_number   1
_chemical_formula_structural   Sn2N2O
_chemical_formula_sum   'Sn16 N16 O8'
_cell_volume   534.96744432
_cell_formula_units_Z   8
loop_
 _symmetry_equiv_pos_site_id
 _symmetry_equiv_pos_as_xyz
  1  'x, y, z'
loop_
 _atom_site_type_symbol
 _atom_site_label
 _atom_site_symmetry_multiplicity
 _atom_site_fract_x
 _atom_site_fract_y
 _atom_site_fract_z
 _atom_site_occupancy
  Sn  Sn0  1  0.00962000  0.01026200  0.49028600  1
  Sn  Sn1  1  0.74850900  0.46683900  0.78898600  1
  Sn  Sn2  1  0.23319300  0.76321800  0.52182400  1
  Sn  Sn3  1  0.70521200  0.74316900  0.02929900  1
  Sn  Sn4  1  0.26176000  0.04531400  0.70955500  1
  Sn  Sn5  1  0.50184700  0.99776900  0.99520400  1
  Sn  Sn6  1  0.04426100  0.78779000  0.23838600  1
  Sn  Sn7  1  0.99519100  0.49293900  0.00930900  1
  Sn  Sn8  1  0.48893300  0.49653300  0.49790500  1
  Sn  Sn9  1  0.46383900  0.70954900  0.75517600  1
  Sn  Sn10  1  0.53501700  0.28466200  0.25628200  1
  Sn  Sn11  1  0.96445500  0.21700400  0.74792000  1
  Sn  Sn12  1  0.75043200  0.96758100  0.27903800  1
  Sn  Sn13  1  0.26326600  0.23858000  0.97046600  1
  Sn  Sn14  1  0.78985600  0.26524300  0.46376500  1
  Sn  Sn15  1  0.24857000  0.53369300  0.21562700  1
  N  N0  1  0.02540700  0.02669200  0.23778600  1
  N  N1  1  0.27155400  0.03508900  0.46233100  1
  N  N2  1  0.77222900  0.53895500  0.99069600  1
  N  N3  1  0.47189300  0.73678900  0.50121300  1
  N  N4  1  0.27166100  0.99964100  0.95473900  1
  N  N5  1  0.45507900  0.49594600  0.27014600  1
  N  N6  1  0.74005900  0.99770300  0.03486100  1
  N  N7  1  0.99861400  0.54526200  0.22875500  1
  N  N8  1  0.22741400  0.45326900  0.99736800  1
  N  N9  1  0.21925100  0.26979600  0.73354500  1
  N  N10  1  0.76300400  0.22039900  0.23587300  1
  N  N11  1  0.27221000  0.77217900  0.27384800  1
  N  N12  1  0.54338900  0.27388000  0.50710300  1
  N  N13  1  0.50228400  0.77137700  0.94984800  1
  N  N14  1  0.73352000  0.24739900  0.73497100  1
  N  N15  1  0.03771800  0.26762800  0.46528300  1
  O  O0  1  0.54969300  0.50387800  0.72781700  1
  O  O1  1  0.95820700  0.94411300  0.76985800  1
  O  O2  1  0.94735400  0.72408400  0.55019000  1
  O  O3  1  0.23084700  0.77272700  0.77470000  1
  O  O4  1  0.02597700  0.48224500  0.75045700  1
  O  O5  1  0.47881300  0.22970300  0.05163200  1
  O  O6  1  0.72951100  0.95447400  0.55727100  1
  O  O7  1  0.77035300  0.71663100  0.27068400  1
loop_
_geom_bond_atom_site_label_1
_geom_bond_atom_site_label_2
_geom_bond_distance
_geom_bond_site_symmetry_2
Sn0 Sn12 2.238222 1_445
Sn12 Sn3 2.224122 1_555
Sn12 Sn14 2.421862 1_565
N0 Sn6 2.176236 1_545
N0 Sn0 2.336589 1_555
N0 Sn12 2.490130 1_445
N0 Sn3 2.539571 1_445
N1 Sn6 2.073978 1_545
N1 Sn4 2.194213 1_555
N1 Sn0 2.357951 1_555
N1 Sn2 2.570155 1_545
N2 Sn1 1.595576 1_555
N2 Sn3 2.040496 1_556
N2 Sn7 2.108253 1_556
N2 Sn6 2.282165 1_656
N3 Sn8 2.171534 1_555
N3 Sn15 2.196543 1_555
N3 Sn2 2.258787 1_555
N3 Sn9 2.363626 1_555
N4 O5 1.885353 1_566
N4 O3 1.923791 1_555
N4 Sn5 1.953866 1_555
N4 Sn13 2.099465 1_565
N4 Sn4 2.318830 1_565
N5 Sn15 1.899741 1_555
N5 Sn8 1.937679 1_555
N5 Sn10 2.188443 1_555
N5 Sn13 2.349740 1_554
N6 Sn5 2.018472 1_554
N6 Sn3 2.150533 1_555
N6 Sn12 2.243303 1_555
N7 Sn7 1.829387 1_555
N7 Sn6 2.013797 1_655
N7 Sn2 2.278598 1_655
N7 Sn15 2.286220 1_655
N8 Sn15 1.741649 1_556
N8 Sn13 1.977791 1_555
N8 Sn11 2.223179 1_455
N8 Sn7 2.225369 1_456
N9 Sn4 2.096791 1_555
N9 Sn13 2.133777 1_555
N9 Sn0 2.138550 1_555
N9 Sn11 2.201990 1_455
N10 Sn14 1.837325 1_555
N10 Sn5 2.161301 1_544
N10 Sn12 2.366017 1_545
N11 Sn15 1.915671 1_555
N11 Sn6 1.994396 1_555
N11 Sn2 2.357314 1_555
N11 Sn7 2.430473 1_455
N12 Sn1 2.129306 1_555
N12 Sn8 2.197574 1_555
N12 Sn10 2.234473 1_555
N12 Sn14 2.356786 1_555
N13 Sn9 1.499066 1_555
N13 Sn3 1.832066 1_556
N13 Sn5 1.908170 1_555
N13 Sn12 2.486068 1_556
N14 Sn1 1.783728 1_555
N14 Sn11 2.118624 1_555
N14 Sn7 2.321445 1_556
N14 Sn14 2.654613 1_555
N15 Sn14 2.181444 1_455
N15 Sn0 2.301115 1_555
N15 Sn12 2.458973 1_445
O0 Sn1 1.833796 1_555
O0 Sn8 1.898957 1_555
O0 Sn9 2.165501 1_555
O0 Sn3 2.315153 1_556
O1 Sn11 2.470439 1_565
O1 Sn13 2.508268 1_665
O2 Sn2 2.545234 1_655
O2 Sn0 2.676912 1_665
O2 Sn4 2.698171 1_665
O3 Sn5 2.157908 1_555
O3 Sn2 2.221641 1_555
O3 Sn9 2.350821 1_555
O3 Sn4 2.612293 1_565
O4 Sn11 2.216867 1_455
O4 Sn14 2.249961 1_455
O4 Sn7 2.373217 1_456
O4 Sn1 2.554766 1_455
O5 Sn10 1.557010 1_555
O5 Sn13 1.840259 1_554
O5 Sn5 2.039729 1_544
O5 Sn4 2.508286 1_554
O6 Sn11 2.101384 1_565
O6 Sn12 2.570552 1_555
O7 Sn3 2.137966 1_555
O7 Sn12 2.263643 1_555
O7 Sn0 2.293050 1_665
O7 Sn6 2.433301 1_655
