# generated using pymatgen
data_SnN2Cl4O
_symmetry_space_group_name_H-M   'P 1'
_cell_length_a   7.77036600
_cell_length_b   10.09357300
_cell_length_c   11.83418700
_cell_angle_alpha   90.00000000
_cell_angle_beta   90.00000000
_cell_angle_gamma   90.00000000
_symmetry_Int_Tables_number   1
_chemical_formula_structural   SnN2Cl4O
_chemical_formula_sum   'Sn4 N8 Cl16 O4'
_cell_volume   928.16423847
_cell_formula_units_Z   4
loop_
 _symmetry_equiv_pos_site_id
 _symmetry_equiv_pos_as_xyz
  1  'x, y, z'
loop_
 _atom_site_type_symbol
 _atom_site_label
 _atom_site_symmetry_multiplicity
 _atom_site_fract_x
 _atom_site_fract_y
 _atom_site_fract_z
 _atom_site_occupancy
  Sn  Sn0  1  0.74516800  0.50278200  0.49752100  1
  Sn  Sn1  1  0.24516800  0.49721800  0.50247900  1
  Sn  Sn2  1  0.24516800  0.00278200  0.00247900  1
  Sn  Sn3  1  0.74516800  0.99721800  0.99752100  1
  N  N0  1  0.59170100  0.08845300  0.35686300  1
  N  N1  1  0.09170100  0.91154700  0.64313700  1
  N  N2  1  0.09170100  0.58845300  0.14313700  1
  N  N3  1  0.59170100  0.41154700  0.85686300  1
  N  N4  1  0.00880000  0.10200000  0.35579000  1
  N  N5  1  0.50880000  0.89800000  0.64421000  1
  N  N6  1  0.50880000  0.60200000  0.14421000  1
  N  N7  1  0.00880000  0.39800000  0.85579000  1
  Cl  Cl0  1  0.74670900  0.59944500  0.68107700  1
  Cl  Cl1  1  0.24670900  0.40055500  0.31892300  1
  Cl  Cl2  1  0.24670900  0.09944500  0.81892300  1
  Cl  Cl3  1  0.74670900  0.90055500  0.18107700  1
  Cl  Cl4  1  0.00051100  0.66040100  0.44189700  1
  Cl  Cl5  1  0.50051100  0.33959900  0.55810300  1
  Cl  Cl6  1  0.50051100  0.16040100  0.05810300  1
  Cl  Cl7  1  0.00051100  0.83959900  0.94189700  1
  Cl  Cl8  1  0.49050800  0.66059300  0.44288000  1
  Cl  Cl9  1  0.99050800  0.33940700  0.55712000  1
  Cl  Cl10  1  0.99050800  0.16059300  0.05712000  1
  Cl  Cl11  1  0.49050800  0.83940700  0.94288000  1
  Cl  Cl12  1  0.74653800  0.41397100  0.31083600  1
  Cl  Cl13  1  0.24653800  0.58602900  0.68916400  1
  Cl  Cl14  1  0.24653800  0.91397100  0.18916400  1
  Cl  Cl15  1  0.74653800  0.08602900  0.81083600  1
  O  O0  1  0.67776500  0.07014100  0.43442500  1
  O  O1  1  0.17776500  0.92985900  0.56557500  1
  O  O2  1  0.17776500  0.57014100  0.06557500  1
  O  O3  1  0.67776500  0.42985900  0.93442500  1
loop_
_geom_bond_atom_site_label_1
_geom_bond_atom_site_label_2
_geom_bond_distance
_geom_bond_site_symmetry_2
N0 O0 1.150608 1_555
N1 O1 1.150608 1_555
N2 O2 1.150608 1_555
N3 O3 1.150608 1_555
Cl0 Sn0 2.381322 1_555
Cl1 Sn1 2.381322 1_555
Cl2 Sn2 2.381322 1_556
Cl3 Sn3 2.381322 1_554
Cl4 Sn1 2.615535 1_555
Cl4 Sn0 2.626992 1_455
Cl5 Sn0 2.615535 1_555
Cl5 Sn1 2.626992 1_555
Cl6 Sn3 2.615535 1_544
Cl6 Sn2 2.626992 1_555
Cl7 Sn2 2.615535 1_566
Cl7 Sn3 2.626992 1_455
Cl8 Sn1 2.617455 1_555
Cl8 Sn0 2.621268 1_555
Cl9 Sn0 2.617455 1_555
Cl9 Sn1 2.621268 1_655
Cl10 Sn3 2.617455 1_544
Cl10 Sn2 2.621268 1_655
Cl11 Sn2 2.617455 1_566
Cl11 Sn3 2.621268 1_555
Cl12 Sn0 2.384226 1_555
Cl13 Sn1 2.384226 1_555
Cl14 Sn2 2.384226 1_565
Cl15 Sn3 2.384226 1_545
