# generated using pymatgen
data_Tb4In5S13
_symmetry_space_group_name_H-M   'P 1'
_cell_length_a   3.88805300
_cell_length_b   11.89861100
_cell_length_c   21.48763900
_cell_angle_alpha   90.00000000
_cell_angle_beta   90.00000000
_cell_angle_gamma   90.00000000
_symmetry_Int_Tables_number   1
_chemical_formula_structural   Tb4In5S13
_chemical_formula_sum   'Tb8 In10 S26'
_cell_volume   994.07039928
_cell_formula_units_Z   2
loop_
 _symmetry_equiv_pos_site_id
 _symmetry_equiv_pos_as_xyz
  1  'x, y, z'
loop_
 _atom_site_type_symbol
 _atom_site_label
 _atom_site_symmetry_multiplicity
 _atom_site_fract_x
 _atom_site_fract_y
 _atom_site_fract_z
 _atom_site_occupancy
  Tb  Tb0  1  0.00000000  0.67053400  0.34050700  1
  Tb  Tb1  1  0.00000000  0.32946600  0.65949300  1
  Tb  Tb2  1  0.00000000  0.82946600  0.84050700  1
  Tb  Tb3  1  0.00000000  0.17053400  0.15949300  1
  Tb  Tb4  1  0.00000000  0.51493200  0.17080100  1
  Tb  Tb5  1  0.00000000  0.48506800  0.82919900  1
  Tb  Tb6  1  0.00000000  0.98506800  0.67080100  1
  Tb  Tb7  1  0.00000000  0.01493200  0.32919900  1
  In  In0  1  0.00000000  0.50000000  0.50000000  1
  In  In1  1  0.00000000  0.00000000  0.00000000  1
  In  In2  1  0.50000000  0.84471500  0.49298200  1
  In  In3  1  0.50000000  0.15528500  0.50701800  1
  In  In4  1  0.50000000  0.65528500  0.99298200  1
  In  In5  1  0.50000000  0.34471500  0.00701800  1
  In  In6  1  0.50000000  0.84429100  0.17078800  1
  In  In7  1  0.50000000  0.15570900  0.82921200  1
  In  In8  1  0.50000000  0.65570900  0.67078800  1
  In  In9  1  0.50000000  0.34429100  0.32921200  1
  S  S0  1  0.50000000  0.84789200  0.36613100  1
  S  S1  1  0.50000000  0.15210800  0.63386900  1
  S  S2  1  0.50000000  0.65210800  0.86613100  1
  S  S3  1  0.50000000  0.34789200  0.13386900  1
  S  S4  1  0.50000000  0.57923700  0.26048900  1
  S  S5  1  0.50000000  0.42076300  0.73951100  1
  S  S6  1  0.50000000  0.92076300  0.76048900  1
  S  S7  1  0.50000000  0.07923700  0.23951100  1
  S  S8  1  0.50000000  0.50512700  0.40555900  1
  S  S9  1  0.50000000  0.49487300  0.59444100  1
  S  S10  1  0.50000000  0.99487300  0.90555900  1
  S  S11  1  0.50000000  0.00512700  0.09444100  1
  S  S12  1  0.00000000  0.70317900  0.47388200  1
  S  S13  1  0.00000000  0.29682100  0.52611800  1
  S  S14  1  0.00000000  0.79682100  0.97388200  1
  S  S15  1  0.00000000  0.20317900  0.02611800  1
  S  S16  1  0.00000000  0.83226100  0.24240500  1
  S  S17  1  0.00000000  0.16773900  0.75759500  1
  S  S18  1  0.00000000  0.66773900  0.74240500  1
  S  S19  1  0.00000000  0.33226100  0.25759500  1
  S  S20  1  0.50000000  0.65660300  0.11469600  1
  S  S21  1  0.50000000  0.34339700  0.88530400  1
  S  S22  1  0.50000000  0.84339700  0.61469600  1
  S  S23  1  0.50000000  0.15660300  0.38530400  1
  S  S24  1  0.00000000  0.00000000  0.50000000  1
  S  S25  1  0.00000000  0.50000000  0.00000000  1
loop_
_geom_bond_atom_site_label_1
_geom_bond_atom_site_label_2
_geom_bond_distance
_geom_bond_site_symmetry_2
In0 S13 2.481834 1_555
In0 S12 2.481834 1_555
In0 S8 2.810885 1_555
In0 S8 2.810885 1_455
In0 S9 2.810885 1_455
In0 S9 2.810885 1_555
In1 S15 2.481834 1_555
In1 S14 2.481834 1_544
In1 S10 2.810885 1_444
In1 S10 2.810885 1_544
In1 S11 2.810885 1_555
In1 S11 2.810885 1_455
In2 S12 2.604575 1_555
In2 S12 2.604575 1_655
In2 S22 2.615394 1_555
In2 S24 2.686240 1_565
In2 S24 2.686240 1_665
In2 S0 2.725991 1_555
In3 S13 2.604575 1_655
In3 S13 2.604575 1_555
In3 S23 2.615394 1_555
In3 S24 2.686240 1_555
In3 S24 2.686240 1_655
In3 S1 2.725991 1_555
In4 S14 2.604575 1_555
In4 S14 2.604575 1_655
In4 S20 2.615394 1_556
In4 S25 2.686240 1_656
In4 S25 2.686240 1_556
In4 S2 2.725991 1_555
In5 S15 2.604575 1_655
In5 S15 2.604575 1_555
In5 S21 2.615394 1_554
In5 S25 2.686240 1_555
In5 S25 2.686240 1_655
In5 S3 2.725991 1_555
In6 S16 2.483522 1_655
In6 S16 2.483522 1_555
In6 S11 2.520643 1_565
In6 S20 2.537718 1_555
In7 S17 2.483522 1_655
In7 S17 2.483522 1_555
In7 S10 2.520643 1_545
In7 S21 2.537718 1_555
In8 S18 2.483522 1_655
In8 S18 2.483522 1_555
In8 S9 2.520643 1_555
In8 S22 2.537718 1_555
In9 S19 2.483522 1_655
In9 S19 2.483522 1_555
In9 S8 2.520643 1_555
In9 S23 2.537718 1_555
S0 Tb7 2.891253 1_565
S0 Tb7 2.891253 1_665
S0 Tb0 2.921613 1_655
S0 Tb0 2.921613 1_555
S1 Tb6 2.891253 1_545
S1 Tb6 2.891253 1_645
S1 Tb1 2.921613 1_655
S1 Tb1 2.921613 1_555
S2 Tb5 2.891253 1_555
S2 Tb5 2.891253 1_655
S2 Tb2 2.921613 1_555
S2 Tb2 2.921613 1_655
S3 Tb4 2.891253 1_555
S3 Tb4 2.891253 1_655
S3 Tb3 2.921613 1_655
S3 Tb3 2.921613 1_555
S4 Tb0 2.813473 1_655
S4 Tb0 2.813473 1_555
S4 Tb4 2.842308 1_555
S4 Tb4 2.842308 1_655
S5 Tb1 2.813473 1_555
S5 Tb1 2.813473 1_655
S5 Tb5 2.842308 1_555
S5 Tb5 2.842308 1_655
S6 Tb2 2.813473 1_655
S6 Tb2 2.813473 1_555
S6 Tb6 2.842308 1_555
S6 Tb6 2.842308 1_655
S7 Tb3 2.813473 1_655
S7 Tb3 2.813473 1_555
S7 Tb7 2.842308 1_655
S7 Tb7 2.842308 1_555
S8 Tb0 3.099451 1_655
S8 Tb0 3.099451 1_555
S9 Tb1 3.099451 1_555
S9 Tb1 3.099451 1_655
S10 Tb2 3.099451 1_655
S10 Tb2 3.099451 1_555
S11 Tb3 3.099451 1_555
S11 Tb3 3.099451 1_655
S12 Tb0 2.892117 1_555
S13 Tb1 2.892117 1_555
S14 Tb2 2.892117 1_555
S15 Tb3 2.892117 1_555
S16 Tb0 2.854227 1_555
S16 Tb7 2.863993 1_565
S17 Tb1 2.854227 1_555
S17 Tb6 2.863993 1_545
S18 Tb2 2.854227 1_555
S18 Tb5 2.863993 1_555
S19 Tb3 2.854227 1_555
S19 Tb4 2.863993 1_555
S20 Tb4 2.841508 1_655
S20 Tb4 2.841508 1_555
S21 Tb5 2.841508 1_555
S21 Tb5 2.841508 1_655
S22 Tb6 2.841508 1_655
S22 Tb6 2.841508 1_555
S23 Tb7 2.841508 1_555
S23 Tb7 2.841508 1_655
