# generated using pymatgen
data_BaSr4(FeO2)5
_symmetry_space_group_name_H-M   'P 1'
_cell_length_a   6.79042581
_cell_length_b   14.02699687
_cell_length_c   6.79078691
_cell_angle_alpha   82.88741308
_cell_angle_beta   73.70809863
_cell_angle_gamma   102.97828389
_symmetry_Int_Tables_number   1
_chemical_formula_structural   BaSr4(FeO2)5
_chemical_formula_sum   'Ba2 Sr8 Fe10 O20'
_cell_volume   592.79422067
_cell_formula_units_Z   2
loop_
 _symmetry_equiv_pos_site_id
 _symmetry_equiv_pos_as_xyz
  1  'x, y, z'
loop_
 _atom_site_type_symbol
 _atom_site_label
 _atom_site_symmetry_multiplicity
 _atom_site_fract_x
 _atom_site_fract_y
 _atom_site_fract_z
 _atom_site_occupancy
  Ba  Ba0  1  0.49995900  0.00001000  0.99994800  1
  Ba  Ba1  1  0.99999200  0.00001200  0.49999800  1
  Sr  Sr0  1  0.39970400  0.20414000  0.69559500  1
  Sr  Sr1  1  0.89973100  0.20415900  0.19558300  1
  Sr  Sr2  1  0.10042600  0.79566600  0.80474900  1
  Sr  Sr3  1  0.60038500  0.79564800  0.30476200  1
  Sr  Sr4  1  0.80133700  0.40229500  0.89914100  1
  Sr  Sr5  1  0.30141400  0.40230300  0.39902600  1
  Sr  Sr6  1  0.69849400  0.59792100  0.60055700  1
  Sr  Sr7  1  0.19847400  0.59791300  0.10060900  1
  Fe  Fe0  1  0.50005000  0.00008000  0.49982100  1
  Fe  Fe1  1  0.10047300  0.79303300  0.30736600  1
  Fe  Fe2  1  0.90032000  0.20700700  0.69338200  1
  Fe  Fe3  1  0.80054500  0.40091800  0.39968400  1
  Fe  Fe4  1  0.69874600  0.59899400  0.09969700  1
  Fe  Fe5  1  0.00007900  0.00005800  0.99985300  1
  Fe  Fe6  1  0.60050700  0.79302600  0.80739600  1
  Fe  Fe7  1  0.40034900  0.20704800  0.19339100  1
  Fe  Fe8  1  0.30045200  0.40085400  0.89944300  1
  Fe  Fe9  1  0.19878900  0.59896000  0.59986600  1
  O  O0  1  0.49999100  0.49989700  0.00007800  1
  O  O1  1  0.00000500  0.49985600  0.50018500  1
  O  O2  1  0.24994000  0.99998600  0.75000900  1
  O  O3  1  0.74993800  0.99998800  0.25000700  1
  O  O4  1  0.80398000  0.89010400  0.91385300  1
  O  O5  1  0.30397400  0.89009100  0.41384100  1
  O  O6  1  0.19590200  0.11001000  0.08597900  1
  O  O7  1  0.69587100  0.10999600  0.58592500  1
  O  O8  1  0.39982100  0.69636800  0.70343900  1
  O  O9  1  0.89982500  0.69638600  0.20342900  1
  O  O10  1  0.60027900  0.30365600  0.29664300  1
  O  O11  1  0.10024700  0.30362100  0.79661100  1
  O  O12  1  0.84806200  0.79233600  0.55564700  1
  O  O13  1  0.34805000  0.79233300  0.05565900  1
  O  O14  1  0.65207100  0.20777500  0.94439000  1
  O  O15  1  0.15207200  0.20776600  0.44442900  1
  O  O16  1  0.55031500  0.40080000  0.64951500  1
  O  O17  1  0.05032800  0.40077700  0.14955200  1
  O  O18  1  0.94956200  0.59910000  0.85047200  1
  O  O19  1  0.44954300  0.59911000  0.35046900  1
loop_
_geom_bond_atom_site_label_1
_geom_bond_atom_site_label_2
_geom_bond_distance
_geom_bond_site_symmetry_2
Ba0 O2 2.716557 1_545
Ba0 O3 2.717032 1_546
Ba0 O13 2.802082 1_546
Ba0 O14 2.803477 1_555
Ba0 O5 2.820407 1_546
Ba0 O4 2.820625 1_545
Ba0 O7 2.821374 1_555
Ba0 O6 2.821761 1_556
Ba1 O2 2.716606 1_645
Ba1 O3 2.717029 1_545
Ba1 O12 2.802123 1_545
Ba1 O15 2.803304 1_655
Ba1 O4 2.820165 1_545
Ba1 O5 2.820598 1_645
Ba1 O6 2.821405 1_655
Ba1 O7 2.821893 1_555
Fe0 O3 2.035592 1_545
Fe0 O2 2.037262 1_545
Fe0 O7 2.055666 1_555
Fe0 O5 2.056818 1_545
Fe1 O9 2.034512 1_455
Fe1 O13 2.036506 1_555
Fe1 O12 2.036546 1_455
Fe1 O5 2.060382 1_555
Fe2 O11 2.028268 1_655
Fe2 O15 2.036286 1_655
Fe2 O14 2.036610 1_555
Fe2 O7 2.068166 1_555
Fe3 O1 2.033501 1_655
Fe3 O10 2.034006 1_555
Fe3 O16 2.036200 1_555
Fe3 O17 2.036660 1_655
Fe4 O0 2.028254 1_555
Fe4 O18 2.036184 1_554
Fe4 O19 2.036820 1_555
Fe4 O9 2.041313 1_555
Fe5 O2 2.035523 1_545
Fe5 O3 2.037347 1_446
Fe5 O6 2.056080 1_556
Fe5 O4 2.056667 1_445
Fe6 O8 2.034841 1_555
Fe6 O12 2.036550 1_555
Fe6 O13 2.036680 1_556
Fe6 O4 2.060343 1_555
Fe7 O10 2.028330 1_555
Fe7 O14 2.036485 1_554
Fe7 O15 2.036640 1_555
Fe7 O6 2.068176 1_555
Fe8 O11 2.032651 1_555
Fe8 O0 2.035225 1_556
Fe8 O16 2.035799 1_555
Fe8 O17 2.037066 1_556
Fe9 O1 2.028685 1_555
Fe9 O18 2.036335 1_455
Fe9 O19 2.036448 1_555
Fe9 O8 2.040578 1_555
O0 Sr5 2.689742 1_555
O0 Sr4 2.689821 1_554
O0 Sr6 2.694459 1_554
O0 Sr7 2.694601 1_555
O1 Sr4 2.689724 1_455
O1 Sr5 2.689833 1_555
O1 Sr7 2.694862 1_555
O1 Sr6 2.694946 1_455
O2 Sr0 2.755067 1_565
O2 Sr2 2.756874 1_555
O3 Sr1 2.755303 1_565
O3 Sr3 2.757153 1_555
O4 Sr2 2.638154 1_655
O4 Sr3 2.638323 1_556
O5 Sr3 2.637992 1_555
O5 Sr2 2.638164 1_555
O6 Sr1 2.634236 1_455
O6 Sr0 2.634479 1_554
O7 Sr0 2.634223 1_555
O7 Sr1 2.634423 1_555
O8 Sr6 2.685177 1_555
O8 Sr7 2.685413 1_556
O8 Sr3 2.696205 1_555
O8 Sr2 2.696474 1_555
O9 Sr6 2.685212 1_555
O9 Sr7 2.685261 1_655
O9 Sr2 2.696249 1_654
O9 Sr3 2.696373 1_555
O10 Sr4 2.687706 1_554
O10 Sr5 2.687849 1_555
O10 Sr1 2.698604 1_555
O10 Sr0 2.698629 1_555
O11 Sr5 2.688404 1_555
O11 Sr4 2.688475 1_455
O11 Sr0 2.698438 1_555
O11 Sr1 2.698482 1_456
O12 Sr6 2.633929 1_555
O12 Sr3 2.712281 1_555
O12 Sr2 2.722196 1_655
O13 Sr7 2.633968 1_555
O13 Sr2 2.712152 1_554
O13 Sr3 2.722053 1_555
O14 Sr4 2.634783 1_555
O14 Sr1 2.714200 1_556
O14 Sr0 2.720345 1_555
O15 Sr5 2.634943 1_555
O15 Sr0 2.713912 1_555
O15 Sr1 2.720498 1_455
O16 Sr0 2.663260 1_555
O16 Sr6 2.665202 1_555
O16 Sr5 2.714894 1_555
O16 Sr4 2.719080 1_555
O17 Sr1 2.662737 1_455
O17 Sr7 2.665386 1_555
O17 Sr4 2.714974 1_454
O17 Sr5 2.718578 1_555
O18 Sr4 2.661298 1_555
O18 Sr2 2.662520 1_655
O18 Sr7 2.712734 1_656
O18 Sr6 2.721152 1_555
O19 Sr5 2.661337 1_555
O19 Sr3 2.662148 1_555
O19 Sr6 2.712681 1_555
O19 Sr7 2.720844 1_555
