# generated using pymatgen
data_Sm3(Ge3Pd10)2
_symmetry_space_group_name_H-M   'P 1'
_cell_length_a   8.81179970
_cell_length_b   8.81179713
_cell_length_c   8.81179627
_cell_angle_alpha   60.00046125
_cell_angle_beta   60.00046321
_cell_angle_gamma   60.00046682
_symmetry_Int_Tables_number   1
_chemical_formula_structural   Sm3(Ge3Pd10)2
_chemical_formula_sum   'Sm3 Ge6 Pd20'
_cell_volume   483.81922669
_cell_formula_units_Z   1
loop_
 _symmetry_equiv_pos_site_id
 _symmetry_equiv_pos_as_xyz
  1  'x, y, z'
loop_
 _atom_site_type_symbol
 _atom_site_label
 _atom_site_symmetry_multiplicity
 _atom_site_fract_x
 _atom_site_fract_y
 _atom_site_fract_z
 _atom_site_occupancy
  Sm  Sm0  1  0.24999994  0.24999934  0.24999961  1
  Sm  Sm1  1  0.75000017  0.75000074  0.75000034  1
  Sm  Sm2  1  -0.00000005  0.00000024  -0.00000016  1
  Ge  Ge0  1  0.73248891  0.26750969  0.26750985  1
  Ge  Ge1  1  0.26751107  0.73249034  0.73249016  1
  Ge  Ge2  1  0.26750992  0.73248898  0.26750978  1
  Ge  Ge3  1  0.73249012  0.26751104  0.73249021  1
  Ge  Ge4  1  0.26751000  0.26750975  0.73248884  1
  Ge  Ge5  1  0.73249005  0.73249039  0.26751105  1
  Pd  Pd0  1  0.38276585  0.38276525  0.38276556  1
  Pd  Pd1  1  0.61723411  0.61723457  0.61723466  1
  Pd  Pd2  1  0.38276516  0.38276475  0.85170227  1
  Pd  Pd3  1  0.38276514  0.85170224  0.38276497  1
  Pd  Pd4  1  0.61723483  0.61723508  0.14829766  1
  Pd  Pd5  1  0.61723464  0.14829782  0.61723513  1
  Pd  Pd6  1  0.85170185  0.38276499  0.38276511  1
  Pd  Pd7  1  0.14829807  0.61723478  0.61723502  1
  Pd  Pd8  1  0.34822415  0.00000046  0.00000022  1
  Pd  Pd9  1  0.65177568  -0.00000033  -0.00000043  1
  Pd  Pd10  1  0.00000003  0.34822479  0.65177528  1
  Pd  Pd11  1  0.00000005  0.65177508  0.34822479  1
  Pd  Pd12  1  0.00000065  0.34822364  0.00000060  1
  Pd  Pd13  1  0.65177465  0.00000020  0.34822505  1
  Pd  Pd14  1  -0.00000051  0.65177608  -0.00000054  1
  Pd  Pd15  1  0.34822536  -0.00000021  0.65177524  1
  Pd  Pd16  1  0.00000056  0.00000065  0.34822376  1
  Pd  Pd17  1  -0.00000057  -0.00000048  0.65177614  1
  Pd  Pd18  1  0.65177481  0.34822479  0.00000019  1
  Pd  Pd19  1  0.34822536  0.65177532  -0.00000036  1
loop_
_geom_bond_atom_site_label_1
_geom_bond_atom_site_label_2
_geom_bond_distance
_geom_bond_site_symmetry_2
Ge0 Pd13 2.462200 1_555
Ge0 Pd18 2.462201 1_555
Ge0 Pd16 2.462227 1_655
Ge0 Pd12 2.462228 1_655
Ge0 Pd6 2.516263 1_555
Ge0 Pd0 2.516284 1_555
Ge0 Pd5 2.516299 1_555
Ge0 Pd4 2.516300 1_555
Ge1 Pd19 2.462201 1_556
Ge1 Pd15 2.462201 1_565
Ge1 Pd17 2.462228 1_565
Ge1 Pd14 2.462229 1_556
Ge1 Pd7 2.516265 1_555
Ge1 Pd1 2.516284 1_555
Ge1 Pd3 2.516298 1_555
Ge1 Pd2 2.516302 1_555
Ge2 Pd19 2.462201 1_555
Ge2 Pd11 2.462203 1_555
Ge2 Pd8 2.462228 1_565
Ge2 Pd16 2.462229 1_565
Ge2 Pd3 2.516265 1_555
Ge2 Pd0 2.516288 1_555
Ge2 Pd4 2.516298 1_555
Ge2 Pd7 2.516299 1_555
Ge3 Pd18 2.462201 1_556
Ge3 Pd10 2.462202 1_655
Ge3 Pd9 2.462228 1_556
Ge3 Pd17 2.462228 1_655
Ge3 Pd5 2.516265 1_555
Ge3 Pd1 2.516287 1_555
Ge3 Pd6 2.516298 1_555
Ge3 Pd2 2.516298 1_555
Ge4 Pd15 2.462200 1_555
Ge4 Pd10 2.462202 1_555
Ge4 Pd8 2.462227 1_556
Ge4 Pd12 2.462229 1_556
Ge4 Pd2 2.516264 1_555
Ge4 Pd0 2.516285 1_555
Ge4 Pd5 2.516296 1_555
Ge4 Pd7 2.516298 1_555
Ge5 Pd13 2.462201 1_565
Ge5 Pd11 2.462202 1_655
Ge5 Pd9 2.462228 1_565
Ge5 Pd14 2.462229 1_655
Ge5 Pd4 2.516266 1_555
Ge5 Pd1 2.516287 1_555
Ge5 Pd3 2.516298 1_555
Ge5 Pd6 2.516300 1_555
Pd0 Sm0 2.865664 1_555
Pd0 Pd13 3.065585 1_555
Pd0 Pd18 3.065587 1_555
Pd0 Pd15 3.065589 1_555
Pd0 Pd10 3.065592 1_555
Pd0 Pd19 3.065592 1_555
Pd0 Pd11 3.065593 1_555
Pd1 Sm1 2.865665 1_555
Pd1 Pd19 3.065585 1_556
Pd1 Pd15 3.065586 1_565
Pd1 Pd18 3.065590 1_556
Pd1 Pd13 3.065590 1_565
Pd1 Pd11 3.065593 1_655
Pd1 Pd10 3.065593 1_655
Pd2 Sm0 2.865687 1_556
Pd2 Pd8 3.065570 1_556
Pd2 Pd9 3.065597 1_556
Pd3 Sm0 2.865686 1_565
Pd3 Pd8 3.065573 1_565
Pd3 Pd9 3.065598 1_565
Pd4 Sm1 2.865687 1_554
Pd4 Pd9 3.065571 1_565
Pd4 Pd8 3.065599 1_565
Pd5 Sm1 2.865685 1_545
Pd5 Pd9 3.065570 1_556
Pd5 Pd8 3.065596 1_556
Pd6 Sm0 2.865694 1_655
Pd7 Sm1 2.865692 1_455
Pd8 Pd9 2.674829 1_555
Pd8 Sm2 3.068485 1_555
Pd8 Sm0 3.390362 1_555
Pd8 Sm1 3.390399 1_544
Pd9 Sm2 3.068486 1_655
Pd9 Sm1 3.390360 1_544
Pd9 Sm0 3.390398 1_555
Pd10 Pd11 2.674843 1_555
Pd10 Pd7 3.065582 1_555
Pd10 Pd6 3.065585 1_455
Pd10 Pd12 3.068488 1_556
Pd10 Pd17 3.068489 1_555
Pd10 Sm2 3.068505 1_556
Pd10 Pd18 3.068510 1_456
Pd10 Pd15 3.068512 1_555
Pd10 Sm0 3.390395 1_555
Pd10 Sm1 3.390395 1_455
Pd11 Pd7 3.065584 1_555
Pd11 Pd6 3.065584 1_455
Pd11 Pd14 3.068489 1_555
Pd11 Pd16 3.068491 1_565
Pd11 Sm2 3.068510 1_565
Pd11 Pd19 3.068512 1_555
Pd11 Pd13 3.068512 1_465
Pd11 Sm0 3.390394 1_555
Pd11 Sm1 3.390395 1_455
Pd12 Pd14 2.674832 1_555
Pd12 Pd6 3.065571 1_455
Pd12 Pd2 3.065572 1_554
Pd12 Pd7 3.065601 1_554
Pd12 Pd4 3.065603 1_455
Pd12 Sm2 3.068480 1_555
Pd12 Pd16 3.068492 1_555
Pd12 Pd18 3.068493 1_455
Pd12 Pd8 3.068496 1_555
Pd12 Sm0 3.390362 1_555
Pd12 Sm1 3.390407 1_454
Pd13 Pd15 2.674838 1_555
Pd13 Pd3 3.065580 1_545
Pd13 Pd5 3.065581 1_555
Pd13 Pd9 3.068490 1_555
Pd13 Pd16 3.068493 1_655
Pd13 Pd18 3.068507 1_555
Pd13 Sm2 3.068512 1_655
Pd13 Sm0 3.390389 1_555
Pd13 Sm1 3.390392 1_545
Pd14 Pd7 3.065571 1_554
Pd14 Pd4 3.065573 1_455
Pd14 Pd6 3.065602 1_455
Pd14 Pd2 3.065602 1_554
Pd14 Sm2 3.068484 1_565
Pd14 Pd19 3.068494 1_555
Pd14 Pd17 3.068495 1_564
Pd14 Pd9 3.068499 1_465
Pd14 Sm1 3.390362 1_454
Pd14 Sm0 3.390405 1_555
Pd15 Pd5 3.065577 1_555
Pd15 Pd3 3.065583 1_545
Pd15 Pd8 3.068485 1_556
Pd15 Pd17 3.068494 1_555
Pd15 Pd19 3.068504 1_546
Pd15 Sm2 3.068510 1_556
Pd15 Sm1 3.390388 1_545
Pd15 Sm0 3.390394 1_555
Pd16 Pd17 2.674832 1_555
Pd16 Pd6 3.065570 1_455
Pd16 Pd3 3.065573 1_545
Pd16 Pd7 3.065603 1_545
Pd16 Pd5 3.065603 1_455
Pd16 Sm2 3.068483 1_555
Pd16 Pd8 3.068497 1_555
Pd16 Sm0 3.390361 1_555
Pd16 Sm1 3.390403 1_445
Pd17 Pd7 3.065573 1_545
Pd17 Pd5 3.065574 1_455
Pd17 Pd6 3.065601 1_455
Pd17 Pd3 3.065602 1_545
Pd17 Sm2 3.068482 1_556
Pd17 Pd9 3.068497 1_456
Pd17 Sm1 3.390361 1_445
Pd17 Sm0 3.390403 1_555
Pd18 Pd19 2.674840 1_555
Pd18 Pd2 3.065580 1_554
Pd18 Pd4 3.065582 1_555
Pd18 Pd9 3.068488 1_555
Pd18 Sm2 3.068509 1_655
Pd18 Sm0 3.390390 1_555
Pd18 Sm1 3.390397 1_554
Pd19 Pd4 3.065578 1_555
Pd19 Pd2 3.065584 1_554
Pd19 Pd8 3.068487 1_565
Pd19 Sm2 3.068512 1_565
Pd19 Sm1 3.390389 1_554
Pd19 Sm0 3.390397 1_555
