# generated using pymatgen
data_Li2CaTa2O7
_symmetry_space_group_name_H-M   'P 1'
_cell_length_a   5.50266770
_cell_length_b   5.51455403
_cell_length_c   9.41837285
_cell_angle_alpha   90.00000000
_cell_angle_beta   106.98516354
_cell_angle_gamma   90.00000000
_symmetry_Int_Tables_number   1
_chemical_formula_structural   Li2CaTa2O7
_chemical_formula_sum   'Li4 Ca2 Ta4 O14'
_cell_volume   273.33185213
_cell_formula_units_Z   2
loop_
 _symmetry_equiv_pos_site_id
 _symmetry_equiv_pos_as_xyz
  1  'x, y, z'
loop_
 _atom_site_type_symbol
 _atom_site_label
 _atom_site_symmetry_multiplicity
 _atom_site_fract_x
 _atom_site_fract_y
 _atom_site_fract_z
 _atom_site_occupancy
  Li  Li0  1  0.73685137  0.50000000  0.47370174  1
  Li  Li1  1  0.73685137  0.00000000  0.47370174  1
  Li  Li2  1  0.26314863  0.50000000  0.52629826  1
  Li  Li3  1  0.26314863  0.00000000  0.52629826  1
  Ca  Ca0  1  0.25095780  0.25000000  0.00000000  1
  Ca  Ca1  1  0.74904220  0.75000000  -0.00000000  1
  Ta  Ta0  1  0.64097745  0.25000000  0.77358190  1
  Ta  Ta1  1  0.13260445  0.75000000  0.77358190  1
  Ta  Ta2  1  0.35902255  0.75000000  0.22641810  1
  Ta  Ta3  1  0.86739555  0.25000000  0.22641810  1
  O  O0  1  0.66965378  0.25000000  -0.00000000  1
  O  O1  1  0.33034622  0.75000000  0.00000000  1
  O  O2  1  0.58766535  0.25000000  0.56926281  1
  O  O3  1  0.98159645  0.75000000  0.56926281  1
  O  O4  1  0.41233465  0.75000000  0.43073719  1
  O  O5  1  0.01840355  0.25000000  0.43073719  1
  O  O6  1  0.37993997  0.50000000  0.75987895  1
  O  O7  1  0.37993997  -0.00000000  0.75987895  1
  O  O8  1  0.62006003  0.50000000  0.24012105  1
  O  O9  1  0.62006003  0.00000000  0.24012105  1
  O  O10  1  0.91530570  0.50000000  0.83061340  1
  O  O11  1  0.91530570  0.00000000  0.83061340  1
  O  O12  1  0.08469430  0.50000000  0.16938660  1
  O  O13  1  0.08469430  -0.00000000  0.16938660  1
loop_
_geom_bond_atom_site_label_1
_geom_bond_atom_site_label_2
_geom_bond_distance
_geom_bond_site_symmetry_2
Li0 O3 1.953525 1_555
Li0 O2 1.953531 1_555
Li0 O8 2.103989 1_555
Li0 O4 2.197946 1_555
Li0 O5 2.197946 1_655
Li1 O3 1.953525 1_545
Li1 O2 1.953531 1_555
Li1 O9 2.103989 1_555
Li1 O4 2.197946 1_545
Li1 O5 2.197946 1_655
Li2 O5 1.953525 1_555
Li2 O4 1.953531 1_555
Li2 O6 2.103989 1_555
Li2 O2 2.197946 1_555
Li2 O3 2.197946 1_455
Li3 O5 1.953525 1_555
Li3 O4 1.953531 1_545
Li3 O7 2.103989 1_555
Li3 O2 2.197946 1_555
Li3 O3 2.197946 1_445
Ca0 O0 2.303945 1_555
Ca0 O13 2.477005 1_555
Ca0 O12 2.477005 1_555
Ca0 O11 2.477011 1_454
Ca0 O10 2.477011 1_454
Ca0 O1 2.791668 1_555
Ca0 O1 2.791668 1_545
Ca0 O9 2.908052 1_555
Ca0 O8 2.908052 1_555
Ca0 O7 2.908055 1_554
Ca0 O6 2.908055 1_554
Ca1 O1 2.303945 1_555
Ca1 O10 2.477005 1_554
Ca1 O11 2.477005 1_564
Ca1 O13 2.477011 1_665
Ca1 O12 2.477011 1_655
Ca1 O0 2.791668 1_555
Ca1 O0 2.791668 1_565
Ca1 O7 2.908052 1_564
Ca1 O6 2.908052 1_554
Ca1 O9 2.908055 1_565
Ca1 O8 2.908055 1_555
O0 Ta0 2.091845 1_554
O0 Ta3 2.091845 1_555
O1 Ta2 2.091845 1_555
O1 Ta1 2.091845 1_554
O2 Ta0 1.859939 1_555
O3 Ta1 1.859940 1_655
O4 Ta2 1.859939 1_555
O5 Ta3 1.859940 1_455
O6 Ta0 1.967802 1_555
O6 Ta1 1.967806 1_555
O7 Ta0 1.967802 1_555
O7 Ta1 1.967806 1_545
O8 Ta2 1.967802 1_555
O8 Ta3 1.967806 1_555
O9 Ta2 1.967802 1_545
O9 Ta3 1.967806 1_555
O10 Ta0 1.998534 1_555
O10 Ta1 1.998542 1_655
O11 Ta0 1.998534 1_555
O11 Ta1 1.998542 1_645
O12 Ta2 1.998534 1_555
O12 Ta3 1.998542 1_455
O13 Ta2 1.998534 1_545
O13 Ta3 1.998542 1_455
