# generated using pymatgen
data_Mg3Ni3(AsO4)4
_symmetry_space_group_name_H-M   'P 1'
_cell_length_a   5.14513500
_cell_length_b   8.57013100
_cell_length_c   15.95699521
_cell_angle_alpha   68.97028849
_cell_angle_beta   90.00000000
_cell_angle_gamma   90.00000000
_symmetry_Int_Tables_number   1
_chemical_formula_structural   Mg3Ni3(AsO4)4
_chemical_formula_sum   'Mg6 Ni6 As8 O32'
_cell_volume   656.75073961
_cell_formula_units_Z   2
loop_
 _symmetry_equiv_pos_site_id
 _symmetry_equiv_pos_as_xyz
  1  'x, y, z'
loop_
 _atom_site_type_symbol
 _atom_site_label
 _atom_site_symmetry_multiplicity
 _atom_site_fract_x
 _atom_site_fract_y
 _atom_site_fract_z
 _atom_site_occupancy
  Mg  Mg0  1  0.54616800  0.31022600  0.21126200  1
  Mg  Mg1  1  0.04616800  0.68977400  0.28873800  1
  Mg  Mg2  1  0.45383200  0.68977400  0.78873800  1
  Mg  Mg3  1  0.95383200  0.31022600  0.71126200  1
  Mg  Mg4  1  0.50000000  0.00000000  0.50000000  1
  Mg  Mg5  1  0.00000000  0.00000000  0.00000000  1
  Ni  Ni0  1  0.48909200  0.20576500  0.62442400  1
  Ni  Ni1  1  0.51090800  0.79423500  0.37557600  1
  Ni  Ni2  1  0.98909200  0.79423500  0.87557600  1
  Ni  Ni3  1  0.01090800  0.20576500  0.12442400  1
  Ni  Ni4  1  0.00000000  0.50000000  0.50000000  1
  Ni  Ni5  1  0.50000000  0.50000000  0.00000000  1
  As  As0  1  0.99030300  0.04264400  0.35009500  1
  As  As1  1  0.48805200  0.41725900  0.39802500  1
  As  As2  1  0.98805200  0.58274100  0.10197500  1
  As  As3  1  0.01194800  0.41725900  0.89802500  1
  As  As4  1  0.00969700  0.95735600  0.64990500  1
  As  As5  1  0.51194800  0.58274100  0.60197500  1
  As  As6  1  0.50969700  0.04264400  0.85009500  1
  As  As7  1  0.49030300  0.95735600  0.14990500  1
  O  O0  1  0.41181300  0.80199200  0.25259100  1
  O  O1  1  0.92417700  0.75372200  0.00782000  1
  O  O2  1  0.40934300  0.39564500  0.30120100  1
  O  O3  1  0.38378600  0.14453900  0.15914400  1
  O  O4  1  0.59065700  0.60435500  0.69879900  1
  O  O5  1  0.08818700  0.80199200  0.75259100  1
  O  O6  1  0.90934300  0.60435500  0.19879900  1
  O  O7  1  0.71363800  0.51469100  0.89545900  1
  O  O8  1  0.67596600  0.09479400  0.92683400  1
  O  O9  1  0.58818700  0.19800800  0.74740900  1
  O  O10  1  0.11621400  0.14453900  0.65914400  1
  O  O11  1  0.28636200  0.48530900  0.10454100  1
  O  O12  1  0.27587100  0.57490200  0.40718800  1
  O  O13  1  0.32403400  0.90520600  0.07316600  1
  O  O14  1  0.67823100  0.98735000  0.62859000  1
  O  O15  1  0.17823100  0.01265000  0.87141000  1
  O  O16  1  0.77587100  0.42509800  0.09281200  1
  O  O17  1  0.09065700  0.39564500  0.80120100  1
  O  O18  1  0.17596600  0.90520600  0.57316600  1
  O  O19  1  0.21363800  0.48530900  0.60454100  1
  O  O20  1  0.82176900  0.98735000  0.12859000  1
  O  O21  1  0.32176900  0.01265000  0.37141000  1
  O  O22  1  0.07582300  0.24627800  0.99218000  1
  O  O23  1  0.42417700  0.24627800  0.49218000  1
  O  O24  1  0.72412900  0.42509800  0.59281200  1
  O  O25  1  0.91181300  0.19800800  0.24740900  1
  O  O26  1  0.61621400  0.85546100  0.84085600  1
  O  O27  1  0.82403400  0.09479400  0.42683400  1
  O  O28  1  0.57582300  0.75372200  0.50782000  1
  O  O29  1  0.78636200  0.51469100  0.39545900  1
  O  O30  1  0.22412900  0.57490200  0.90718800  1
  O  O31  1  0.88378600  0.85546100  0.34085600  1
loop_
_geom_bond_atom_site_label_1
_geom_bond_atom_site_label_2
_geom_bond_distance
_geom_bond_site_symmetry_2
Mg0 O2 1.960916 1_555
Mg0 O3 2.062397 1_555
Mg0 O25 2.097319 1_555
Mg0 O16 2.145457 1_555
Mg0 O11 2.259300 1_555
Mg1 O6 1.960916 1_455
Mg1 O31 2.062397 1_455
Mg1 O0 2.097319 1_555
Mg1 O12 2.145457 1_555
Mg1 O29 2.259300 1_455
Mg2 O4 1.960916 1_555
Mg2 O26 2.062397 1_555
Mg2 O5 2.097319 1_555
Mg2 O30 2.145457 1_555
Mg2 O7 2.259300 1_555
Mg3 O17 1.960916 1_655
Mg3 O10 2.062397 1_655
Mg3 O9 2.097319 1_555
Mg3 O24 2.145457 1_555
Mg3 O19 2.259300 1_655
Mg4 O27 2.030244 1_555
Mg4 O18 2.030244 1_545
Mg4 O28 2.105592 1_545
Mg4 O23 2.105592 1_555
Mg4 O14 2.214354 1_545
Mg4 O21 2.214354 1_555
Mg5 O13 2.030244 1_545
Mg5 O8 2.030244 1_454
Mg5 O22 2.105592 1_554
Mg5 O1 2.105592 1_445
Mg5 O15 2.214354 1_554
Mg5 O20 2.214354 1_445
Ni0 O9 2.005501 1_555
Ni0 O10 2.013530 1_555
Ni0 O23 2.039431 1_555
Ni0 O14 2.089481 1_545
Ni0 O24 2.137675 1_555
Ni1 O0 2.005501 1_555
Ni1 O31 2.013530 1_555
Ni1 O28 2.039431 1_555
Ni1 O21 2.089481 1_565
Ni1 O12 2.137675 1_555
Ni2 O5 2.005501 1_655
Ni2 O26 2.013530 1_555
Ni2 O1 2.039431 1_556
Ni2 O15 2.089481 1_665
Ni2 O30 2.137675 1_655
Ni3 O25 2.005501 1_455
Ni3 O3 2.013530 1_555
Ni3 O22 2.039431 1_554
Ni3 O20 2.089481 1_445
Ni3 O16 2.137675 1_455
Ni4 O19 1.963697 1_555
Ni4 O29 1.963697 1_455
Ni4 O24 1.984387 1_455
Ni4 O12 1.984387 1_555
Ni5 O11 1.963697 1_555
Ni5 O7 1.963697 1_554
Ni5 O16 1.984387 1_555
Ni5 O30 1.984387 1_554
As0 O27 1.680426 1_555
As0 O21 1.739979 1_655
As0 O25 1.747855 1_555
As0 O31 1.750779 1_545
As1 O2 1.670569 1_555
As1 O23 1.712434 1_555
As1 O29 1.740724 1_555
As1 O12 1.783317 1_555
As2 O6 1.670569 1_555
As2 O1 1.712434 1_555
As2 O11 1.740724 1_655
As2 O16 1.783317 1_555
As3 O17 1.670569 1_555
As3 O22 1.712434 1_555
As3 O7 1.740724 1_455
As3 O30 1.783317 1_555
As4 O18 1.680426 1_555
As4 O14 1.739979 1_455
As4 O5 1.747855 1_555
As4 O10 1.750779 1_565
As5 O4 1.670569 1_555
As5 O28 1.712434 1_555
As5 O19 1.740724 1_555
As5 O24 1.783317 1_555
As6 O8 1.680426 1_555
As6 O15 1.739979 1_555
As6 O9 1.747855 1_555
As6 O26 1.750779 1_545
As7 O13 1.680426 1_555
As7 O20 1.739979 1_555
As7 O0 1.747855 1_555
As7 O3 1.750779 1_565
