# generated using pymatgen
data_Mn(Mo3Se4)2
_symmetry_space_group_name_H-M   'P 1'
_cell_length_a   6.69357689
_cell_length_b   6.69357689
_cell_length_c   6.69357654
_cell_angle_alpha   92.34451943
_cell_angle_beta   92.34451943
_cell_angle_gamma   92.34452078
_symmetry_Int_Tables_number   1
_chemical_formula_structural   Mn(Mo3Se4)2
_chemical_formula_sum   'Mn1 Mo6 Se8'
_cell_volume   299.12447089
_cell_formula_units_Z   1
loop_
 _symmetry_equiv_pos_site_id
 _symmetry_equiv_pos_as_xyz
  1  'x, y, z'
loop_
 _atom_site_type_symbol
 _atom_site_label
 _atom_site_symmetry_multiplicity
 _atom_site_fract_x
 _atom_site_fract_y
 _atom_site_fract_z
 _atom_site_occupancy
  Mn  Mn0  1  0.00000000  0.00000000  0.00000000  1
  Mo  Mo0  1  0.22516300  0.54795700  0.41789100  1
  Mo  Mo1  1  0.77483700  0.45204300  0.58210900  1
  Mo  Mo2  1  0.41789100  0.22516300  0.54795700  1
  Mo  Mo3  1  0.58210900  0.77483700  0.45204300  1
  Mo  Mo4  1  0.54795700  0.41789100  0.22516300  1
  Mo  Mo5  1  0.45204300  0.58210900  0.77483700  1
  Se  Se0  1  0.12793900  0.36652000  0.74851800  1
  Se  Se1  1  0.87206100  0.63348000  0.25148200  1
  Se  Se2  1  0.21400800  0.21400800  0.21400800  1
  Se  Se3  1  0.78599200  0.78599200  0.78599200  1
  Se  Se4  1  0.36652000  0.74851800  0.12793900  1
  Se  Se5  1  0.63348000  0.25148200  0.87206100  1
  Se  Se6  1  0.74851800  0.12793900  0.36652000  1
  Se  Se7  1  0.25148200  0.87206100  0.63348000  1
loop_
_geom_bond_atom_site_label_1
_geom_bond_atom_site_label_2
_geom_bond_distance
_geom_bond_site_symmetry_2
Mn0 Se2 2.377462 1_555
Mn0 Se3 2.377462 1_444
Mn0 Se7 3.141603 1_544
Mn0 Se6 3.141603 1_455
Mn0 Se1 3.141603 1_445
Mn0 Se0 3.141603 1_554
Mn0 Se5 3.141603 1_454
Mn0 Se4 3.141603 1_545
Mo0 Se7 2.551788 1_555
Mo0 Se2 2.567693 1_555
Mo0 Se4 2.593019 1_555
Mo0 Se0 2.658798 1_555
Mo0 Se1 2.664975 1_455
Mo1 Se6 2.551788 1_555
Mo1 Se3 2.567693 1_555
Mo1 Se5 2.593019 1_555
Mo1 Se1 2.658798 1_555
Mo1 Se0 2.664975 1_655
Mo2 Se5 2.551788 1_555
Mo2 Se2 2.567693 1_555
Mo2 Se0 2.593019 1_555
Mo2 Se6 2.658798 1_555
Mo2 Se7 2.664975 1_545
Mo3 Se4 2.551788 1_555
Mo3 Se3 2.567693 1_555
Mo3 Se1 2.593019 1_555
Mo3 Se7 2.658798 1_555
Mo3 Se6 2.664975 1_565
Mo4 Se1 2.551788 1_555
Mo4 Se2 2.567693 1_555
Mo4 Se6 2.593019 1_555
Mo4 Se4 2.658798 1_555
Mo4 Se5 2.664975 1_554
Mo5 Se0 2.551788 1_555
Mo5 Se3 2.567693 1_555
Mo5 Se7 2.593019 1_555
Mo5 Se5 2.658798 1_555
Mo5 Se4 2.664975 1_556
