# generated using pymatgen
data_Eu(BiSe2)2
_symmetry_space_group_name_H-M   'P 1'
_cell_length_a   4.24958700
_cell_length_b   12.51262500
_cell_length_c   15.45148100
_cell_angle_alpha   90.00000000
_cell_angle_beta   90.00000000
_cell_angle_gamma   90.00000000
_symmetry_Int_Tables_number   1
_chemical_formula_structural   Eu(BiSe2)2
_chemical_formula_sum   'Eu4 Bi8 Se16'
_cell_volume   821.60914782
_cell_formula_units_Z   4
loop_
 _symmetry_equiv_pos_site_id
 _symmetry_equiv_pos_as_xyz
  1  'x, y, z'
loop_
 _atom_site_type_symbol
 _atom_site_label
 _atom_site_symmetry_multiplicity
 _atom_site_fract_x
 _atom_site_fract_y
 _atom_site_fract_z
 _atom_site_occupancy
  Eu  Eu0  1  0.75000000  0.25429900  0.16162100  1
  Eu  Eu1  1  0.75000000  0.75429900  0.33837900  1
  Eu  Eu2  1  0.25000000  0.74570100  0.83837900  1
  Eu  Eu3  1  0.25000000  0.24570100  0.66162100  1
  Bi  Bi0  1  0.75000000  0.42917500  0.89996100  1
  Bi  Bi1  1  0.75000000  0.92917500  0.60003900  1
  Bi  Bi2  1  0.25000000  0.57082500  0.10003900  1
  Bi  Bi3  1  0.25000000  0.07082500  0.39996100  1
  Bi  Bi4  1  0.75000000  0.42109400  0.39036800  1
  Bi  Bi5  1  0.75000000  0.92109400  0.10963200  1
  Bi  Bi6  1  0.25000000  0.57890600  0.60963200  1
  Bi  Bi7  1  0.25000000  0.07890600  0.89036800  1
  Se  Se0  1  0.75000000  0.14704800  0.52928400  1
  Se  Se1  1  0.75000000  0.64704800  0.97071600  1
  Se  Se2  1  0.25000000  0.85295200  0.47071600  1
  Se  Se3  1  0.25000000  0.35295200  0.02928400  1
  Se  Se4  1  0.75000000  0.21907000  0.81394100  1
  Se  Se5  1  0.75000000  0.71907000  0.68605900  1
  Se  Se6  1  0.25000000  0.78093000  0.18605900  1
  Se  Se7  1  0.25000000  0.28093000  0.31394100  1
  Se  Se8  1  0.75000000  0.41683700  0.58454300  1
  Se  Se9  1  0.75000000  0.91683700  0.91545700  1
  Se  Se10  1  0.25000000  0.58316300  0.41545700  1
  Se  Se11  1  0.25000000  0.08316300  0.08454300  1
  Se  Se12  1  0.75000000  0.50561000  0.21241600  1
  Se  Se13  1  0.75000000  0.00561000  0.28758400  1
  Se  Se14  1  0.25000000  0.49439000  0.78758400  1
  Se  Se15  1  0.25000000  0.99439000  0.71241600  1
loop_
_geom_bond_atom_site_label_1
_geom_bond_atom_site_label_2
_geom_bond_distance
_geom_bond_site_symmetry_2
Eu0 Se7 3.188272 1_655
Eu0 Se7 3.188272 1_555
Eu0 Se3 3.196831 1_655
Eu0 Se3 3.196831 1_555
Eu0 Se12 3.241028 1_555
Eu0 Se11 3.243236 1_555
Eu0 Se11 3.243236 1_655
Eu0 Se13 3.670306 1_555
Eu1 Se6 3.188272 1_655
Eu1 Se6 3.188272 1_555
Eu1 Se2 3.196831 1_555
Eu1 Se2 3.196831 1_655
Eu1 Se13 3.241028 1_565
Eu1 Se10 3.243236 1_655
Eu1 Se10 3.243236 1_555
Eu1 Se12 3.670306 1_555
Eu2 Se5 3.188272 1_555
Eu2 Se5 3.188272 1_455
Eu2 Se1 3.196831 1_455
Eu2 Se1 3.196831 1_555
Eu2 Se14 3.241028 1_555
Eu2 Se9 3.243236 1_455
Eu2 Se9 3.243236 1_555
Eu2 Se15 3.670306 1_555
Eu3 Se4 3.188272 1_455
Eu3 Se4 3.188272 1_555
Eu3 Se0 3.196831 1_455
Eu3 Se0 3.196831 1_555
Eu3 Se15 3.241028 1_545
Eu3 Se8 3.243236 1_455
Eu3 Se8 3.243236 1_555
Eu3 Se14 3.670306 1_555
Bi0 Se14 2.862809 1_655
Bi0 Se14 2.862809 1_555
Bi0 Se1 2.937210 1_555
Bi0 Se4 2.945855 1_555
Bi0 Se3 3.068765 1_656
Bi0 Se3 3.068765 1_556
Bi1 Se15 2.862809 1_555
Bi1 Se15 2.862809 1_655
Bi1 Se0 2.937210 1_565
Bi1 Se5 2.945855 1_555
Bi1 Se2 3.068765 1_555
Bi1 Se2 3.068765 1_655
Bi2 Se12 2.862809 1_455
Bi2 Se12 2.862809 1_555
Bi2 Se3 2.937210 1_555
Bi2 Se6 2.945855 1_555
Bi2 Se1 3.068765 1_554
Bi2 Se1 3.068765 1_454
Bi3 Se13 2.862809 1_455
Bi3 Se13 2.862809 1_555
Bi3 Se2 2.937210 1_545
Bi3 Se7 2.945855 1_555
Bi3 Se0 3.068765 1_455
Bi3 Se0 3.068765 1_555
Bi4 Se12 2.945974 1_555
Bi4 Se10 2.962675 1_655
Bi4 Se10 2.962675 1_555
Bi4 Se7 2.997529 1_555
Bi4 Se7 2.997529 1_655
Bi4 Se8 3.000764 1_555
Bi5 Se13 2.945974 1_565
Bi5 Se11 2.962675 1_665
Bi5 Se11 2.962675 1_565
Bi5 Se6 2.997529 1_555
Bi5 Se6 2.997529 1_655
Bi5 Se9 3.000764 1_554
Bi6 Se14 2.945974 1_555
Bi6 Se8 2.962675 1_455
Bi6 Se8 2.962675 1_555
Bi6 Se5 2.997529 1_555
Bi6 Se5 2.997529 1_455
Bi6 Se10 3.000764 1_555
Bi7 Se15 2.945974 1_545
Bi7 Se9 2.962675 1_545
Bi7 Se9 2.962675 1_445
Bi7 Se4 2.997529 1_455
Bi7 Se4 2.997529 1_555
Bi7 Se11 3.000764 1_556
