# generated using pymatgen
data_LiTb4Al2(FeO6)2
_symmetry_space_group_name_H-M   'P 1'
_cell_length_a   5.31445357
_cell_length_b   5.79900493
_cell_length_c   7.58685301
_cell_angle_alpha   89.05204289
_cell_angle_beta   88.92966161
_cell_angle_gamma   88.37625161
_symmetry_Int_Tables_number   1
_chemical_formula_structural   LiTb4Al2(FeO6)2
_chemical_formula_sum   'Li1 Tb4 Al2 Fe2 O12'
_cell_volume   233.65108013
_cell_formula_units_Z   1
loop_
 _symmetry_equiv_pos_site_id
 _symmetry_equiv_pos_as_xyz
  1  'x, y, z'
loop_
 _atom_site_type_symbol
 _atom_site_label
 _atom_site_symmetry_multiplicity
 _atom_site_fract_x
 _atom_site_fract_y
 _atom_site_fract_z
 _atom_site_occupancy
  Li  Li0  1  0.35889000  0.26283500  0.15074600  1
  Tb  Tb0  1  0.54294000  0.60746300  0.26553600  1
  Tb  Tb1  1  0.94493000  0.07768100  0.24243600  1
  Tb  Tb2  1  0.48796800  0.42646100  0.75518600  1
  Tb  Tb3  1  0.01888000  0.91978600  0.75189500  1
  Al  Al0  1  0.01468100  0.49255200  0.50277400  1
  Al  Al1  1  0.49185300  0.96347800  0.97713700  1
  Fe  Fe0  1  0.99454900  0.50367400  0.99878500  1
  Fe  Fe1  1  0.49116800  0.00963000  0.50435200  1
  O  O0  1  0.38437700  0.97463000  0.24759400  1
  O  O1  1  0.12815600  0.45734300  0.26502900  1
  O  O2  1  0.60969800  0.03368600  0.75229300  1
  O  O3  1  0.89159500  0.53928900  0.73409600  1
  O  O4  1  0.78788500  0.82548500  0.05074900  1
  O  O5  1  0.70656100  0.31300400  0.44695200  1
  O  O6  1  0.19396900  0.20746000  0.56779400  1
  O  O7  1  0.32060600  0.69955400  0.94096300  1
  O  O8  1  0.20810300  0.16462500  0.95090300  1
  O  O9  1  0.30219900  0.69249200  0.55335100  1
  O  O10  1  0.81157900  0.80427700  0.44077400  1
  O  O11  1  0.67191300  0.31031000  0.06137000  1
loop_
_geom_bond_atom_site_label_1
_geom_bond_atom_site_label_2
_geom_bond_distance
_geom_bond_site_symmetry_2
Li0 O11 1.811246 1_555
Li0 O0 1.817070 1_545
Li0 O8 1.834433 1_554
Li0 O1 1.855245 1_555
Al0 O3 1.882604 1_455
Al0 O1 1.903523 1_555
Al0 O6 1.945698 1_555
Al0 O9 1.990826 1_555
Al0 O5 2.020385 1_455
Al0 O10 2.129397 1_455
Al1 O7 1.829798 1_555
Al1 O4 1.836862 1_556
Al1 O2 1.849189 1_565
Al1 O8 1.891577 1_565
Al1 O0 2.121156 1_556
Al1 O11 2.354527 1_566
Fe0 O3 2.096577 1_555
Fe0 O11 2.117477 1_556
Fe0 O7 2.133552 1_655
Fe0 O1 2.163650 1_656
Fe0 O4 2.176317 1_556
Fe0 O8 2.273218 1_655
Fe1 O6 1.982328 1_555
Fe1 O2 2.003173 1_555
Fe1 O0 2.053984 1_545
Fe1 O10 2.103268 1_545
Fe1 O9 2.144081 1_545
Fe1 O5 2.159896 1_555
O0 Tb0 2.270496 1_555
O0 Tb1 2.395075 1_465
O1 Tb0 2.392949 1_555
O1 Tb1 2.442355 1_455
O2 Tb3 2.254660 1_645
O2 Tb2 2.350436 1_555
O3 Tb2 2.262348 1_555
O3 Tb3 2.332882 1_655
O4 Tb1 2.266125 1_565
O4 Tb0 2.427826 1_555
O4 Tb3 2.615346 1_654
O5 Tb0 2.334338 1_555
O5 Tb1 2.402758 1_555
O5 Tb2 2.675302 1_555
O6 Tb3 2.358394 1_545
O6 Tb2 2.516061 1_555
O7 Tb2 2.287550 1_555
O7 Tb3 2.483776 1_555
O7 Tb0 2.788299 1_556
O8 Tb3 2.348481 1_545
O8 Tb2 2.587157 1_555
O8 Tb1 2.643856 1_456
O9 Tb2 2.364637 1_555
O9 Tb3 2.478291 1_555
O9 Tb0 2.558059 1_555
O10 Tb1 2.285861 1_565
O10 Tb0 2.306927 1_555
O10 Tb3 2.724945 1_655
O11 Tb1 2.390479 1_555
O11 Tb0 2.412518 1_555
O11 Tb2 2.607925 1_554
