# generated using pymatgen
data_Sm5Si3
_symmetry_space_group_name_H-M   'P 1'
_cell_length_a   6.58312429
_cell_length_b   8.65473445
_cell_length_c   8.65474590
_cell_angle_alpha   120.00010464
_cell_angle_beta   90.00000000
_cell_angle_gamma   90.00000000
_symmetry_Int_Tables_number   1
_chemical_formula_structural   Sm5Si3
_chemical_formula_sum   'Sm10 Si6'
_cell_volume   427.04171213
_cell_formula_units_Z   2
loop_
 _symmetry_equiv_pos_site_id
 _symmetry_equiv_pos_as_xyz
  1  'x, y, z'
loop_
 _atom_site_type_symbol
 _atom_site_label
 _atom_site_symmetry_multiplicity
 _atom_site_fract_x
 _atom_site_fract_y
 _atom_site_fract_z
 _atom_site_occupancy
  Sm  Sm0  1  0.49999996  0.33333210  0.66666848  1
  Sm  Sm1  1  0.49999996  0.66666362  0.33333152  1
  Sm  Sm2  1  -0.00000004  0.66666790  0.33333152  1
  Sm  Sm3  1  -0.00000004  0.33333638  0.66666848  1
  Sm  Sm4  1  0.75000212  0.24462491  0.00000000  1
  Sm  Sm5  1  0.74999851  0.75536726  0.75536699  1
  Sm  Sm6  1  0.74999851  0.00000028  0.24463401  1
  Sm  Sm7  1  0.25000212  0.75537509  -0.00000000  1
  Sm  Sm8  1  0.24999851  0.24463274  0.24463301  1
  Sm  Sm9  1  0.24999851  0.99999972  0.75536599  1
  Si  Si0  1  0.74999704  0.60685683  -0.00000000  1
  Si  Si1  1  0.75000144  0.39314421  0.39314209  1
  Si  Si2  1  0.75000144  0.00000113  0.60685791  1
  Si  Si3  1  0.24999704  0.39314317  0.00000000  1
  Si  Si4  1  0.25000144  0.60685579  0.60685791  1
  Si  Si5  1  0.25000144  0.99999887  0.39314209  1
loop_
_geom_bond_atom_site_label_1
_geom_bond_atom_site_label_2
_geom_bond_distance
_geom_bond_site_symmetry_2
Si0 Sm6 2.975908 1_565
Si0 Sm5 2.975914 1_554
Si0 Sm0 3.131423 1_554
Si0 Sm1 3.131427 1_555
Si0 Sm3 3.131433 1_654
Si0 Sm2 3.131437 1_655
Si0 Sm4 3.135021 1_555
Si0 Sm7 3.533607 1_555
Si0 Sm7 3.533669 1_655
Si1 Sm4 2.975890 1_555
Si1 Sm6 2.975914 1_555
Si1 Sm1 3.131420 1_555
Si1 Sm2 3.131441 1_655
Si1 Sm3 3.131450 1_655
Si1 Sm0 3.131480 1_555
Si1 Sm5 3.134949 1_555
Si1 Sm8 3.533595 1_655
Si1 Sm8 3.533631 1_555
Si2 Sm4 2.975890 1_556
Si2 Sm5 2.975911 1_545
Si2 Sm0 3.131425 1_555
Si2 Sm2 3.131440 1_645
Si2 Sm3 3.131446 1_655
Si2 Sm1 3.131470 1_545
Si2 Sm6 3.134952 1_555
Si2 Sm9 3.533591 1_645
Si2 Sm9 3.533627 1_545
Si3 Sm9 2.975908 1_544
Si3 Sm8 2.975914 1_555
Si3 Sm2 3.131423 1_555
Si3 Sm3 3.131427 1_554
Si3 Sm1 3.131433 1_555
Si3 Sm0 3.131437 1_554
Si3 Sm7 3.135021 1_555
Si3 Sm4 3.533607 1_455
Si3 Sm4 3.533669 1_555
Si4 Sm7 2.975890 1_556
Si4 Sm9 2.975914 1_555
Si4 Sm3 3.131420 1_555
Si4 Sm0 3.131441 1_555
Si4 Sm1 3.131450 1_555
Si4 Sm2 3.131480 1_555
Si4 Sm8 3.134949 1_555
Si4 Sm5 3.533595 1_555
Si4 Sm5 3.533631 1_455
Si5 Sm7 2.975890 1_555
Si5 Sm8 2.975911 1_565
Si5 Sm2 3.131425 1_555
Si5 Sm0 3.131440 1_565
Si5 Sm1 3.131446 1_555
Si5 Sm3 3.131470 1_565
Si5 Sm9 3.134952 1_555
Si5 Sm6 3.533591 1_565
Si5 Sm6 3.533627 1_465
