# generated using pymatgen
data_Ca2MnNiO6
_symmetry_space_group_name_H-M   'P 1'
_cell_length_a   6.41310802
_cell_length_b   6.41310802
_cell_length_c   6.29884644
_cell_angle_alpha   85.75791057
_cell_angle_beta   85.75791057
_cell_angle_gamma   93.10411063
_symmetry_Int_Tables_number   1
_chemical_formula_structural   Ca2MnNiO6
_chemical_formula_sum   'Ca4 Mn2 Ni2 O12'
_cell_volume   257.17778239
_cell_formula_units_Z   2
loop_
 _symmetry_equiv_pos_site_id
 _symmetry_equiv_pos_as_xyz
  1  'x, y, z'
loop_
 _atom_site_type_symbol
 _atom_site_label
 _atom_site_symmetry_multiplicity
 _atom_site_fract_x
 _atom_site_fract_y
 _atom_site_fract_z
 _atom_site_occupancy
  Ca  Ca0  1  0.12166400  0.87833600  0.00000000  1
  Ca  Ca1  1  0.88804900  0.11195100  0.50000000  1
  Ca  Ca2  1  0.73901400  0.61301400  0.35697900  1
  Ca  Ca3  1  0.38698600  0.26098600  0.64302100  1
  Mn  Mn0  1  0.49839300  0.00002600  0.24883900  1
  Mn  Mn1  1  0.99997400  0.50160700  0.75116100  1
  Ni  Ni0  1  0.24527200  0.75472800  0.50000000  1
  Ni  Ni1  1  0.74825700  0.25174300  0.00000000  1
  O  O0  1  0.60680600  0.27988100  0.29363500  1
  O  O1  1  0.41674400  0.70944000  0.25381500  1
  O  O2  1  0.49689300  0.92599800  0.55059000  1
  O  O3  1  0.20020700  0.00917000  0.32783300  1
  O  O4  1  0.07400200  0.50310700  0.44941000  1
  O  O5  1  0.29056000  0.58325600  0.74618500  1
  O  O6  1  0.03734900  0.20799800  0.81992600  1
  O  O7  1  0.72011900  0.39319400  0.70636500  1
  O  O8  1  0.91032200  0.52507300  0.03685100  1
  O  O9  1  0.79200200  0.96265100  0.18007400  1
  O  O10  1  0.47492700  0.08967800  0.96314900  1
  O  O11  1  0.99083000  0.79979300  0.67216700  1
loop_
_geom_bond_atom_site_label_1
_geom_bond_atom_site_label_2
_geom_bond_distance
_geom_bond_site_symmetry_2
Ca0 O3 2.363527 1_565
Ca0 O11 2.363527 1_454
Ca0 O6 2.430712 1_564
Ca0 O9 2.430712 1_455
Ca0 O10 2.562526 1_564
Ca0 O8 2.562526 1_455
Ca0 O5 2.779150 1_554
Ca0 O1 2.779150 1_555
Ca1 O11 2.354912 1_545
Ca1 O3 2.354912 1_655
Ca1 O9 2.400473 1_545
Ca1 O6 2.400473 1_655
Ca1 O0 2.540217 1_555
Ca1 O7 2.540217 1_555
Ca1 O4 2.705167 1_655
Ca1 O2 2.705167 1_545
Ca2 O1 2.313824 1_555
Ca2 O0 2.328590 1_555
Ca2 O8 2.344921 1_555
Ca2 O4 2.395694 1_655
Ca2 O9 2.424188 1_555
Ca2 O7 2.515610 1_555
Ca2 O2 2.889058 1_555
Ca2 O11 2.932733 1_555
Ca3 O5 2.313824 1_555
Ca3 O7 2.328590 1_555
Ca3 O10 2.344921 1_555
Ca3 O2 2.395694 1_545
Ca3 O6 2.424188 1_555
Ca3 O0 2.515610 1_555
Ca3 O4 2.889058 1_555
Ca3 O3 2.932733 1_555
Mn0 O10 1.867577 1_554
Mn0 O1 1.905589 1_545
Mn0 O2 1.923898 1_545
Mn0 O9 1.932389 1_545
Mn0 O0 1.937241 1_555
Mn0 O3 1.945147 1_555
Mn1 O8 1.867577 1_556
Mn1 O5 1.905589 1_655
Mn1 O4 1.923898 1_655
Mn1 O6 1.932389 1_655
Mn1 O7 1.937241 1_555
Mn1 O11 1.945147 1_555
Ni0 O5 1.883396 1_555
Ni0 O1 1.883396 1_555
Ni0 O3 1.938521 1_565
Ni0 O11 1.938521 1_455
Ni0 O4 1.961582 1_555
Ni0 O2 1.961582 1_555
Ni1 O0 2.023668 1_555
Ni1 O7 2.023668 1_554
Ni1 O10 2.026160 1_554
Ni1 O8 2.026160 1_555
Ni1 O9 2.143544 1_545
Ni1 O6 2.143544 1_654
