# generated using pymatgen
data_V4Zn(CuO4)3
_symmetry_space_group_name_H-M   'P 1'
_cell_length_a   6.38821949
_cell_length_b   6.40820814
_cell_length_c   6.39499814
_cell_angle_alpha   109.68240724
_cell_angle_beta   109.40319423
_cell_angle_gamma   109.65195294
_symmetry_Int_Tables_number   1
_chemical_formula_structural   V4Zn(CuO4)3
_chemical_formula_sum   'V4 Zn1 Cu3 O12'
_cell_volume   200.71712769
_cell_formula_units_Z   1
loop_
 _symmetry_equiv_pos_site_id
 _symmetry_equiv_pos_as_xyz
  1  'x, y, z'
loop_
 _atom_site_type_symbol
 _atom_site_label
 _atom_site_symmetry_multiplicity
 _atom_site_fract_x
 _atom_site_fract_y
 _atom_site_fract_z
 _atom_site_occupancy
  V  V0  1  0.00000100  0.00000400  0.49999900  1
  V  V1  1  0.99999600  0.50000200  0.99999800  1
  V  V2  1  0.50000100  0.49999700  0.50000000  1
  V  V3  1  0.50000100  0.00000200  0.99999900  1
  Zn  Zn0  1  0.00000300  0.00000300  0.99999400  1
  Cu  Cu0  1  0.49999800  0.49999900  0.99999900  1
  Cu  Cu1  1  0.00000100  0.50000100  0.49999900  1
  Cu  Cu2  1  0.50000000  0.99999600  0.49999900  1
  O  O0  1  0.81348700  0.29400400  0.12244200  1
  O  O1  1  0.18651500  0.70599600  0.87755900  1
  O  O2  1  0.82229900  0.69879600  0.52218300  1
  O  O3  1  0.30276900  0.48029500  0.17729400  1
  O  O4  1  0.47753400  0.17676800  0.30310500  1
  O  O5  1  0.12133100  0.81335700  0.29481900  1
  O  O6  1  0.70498700  0.87827100  0.18635800  1
  O  O7  1  0.52246600  0.82322500  0.69689700  1
  O  O8  1  0.17770300  0.30120500  0.47781700  1
  O  O9  1  0.69722300  0.51970400  0.82271200  1
  O  O10  1  0.87867100  0.18664200  0.70518100  1
  O  O11  1  0.29501400  0.12173100  0.81364400  1
loop_
_geom_bond_atom_site_label_1
_geom_bond_atom_site_label_2
_geom_bond_distance
_geom_bond_site_symmetry_2
Cu0 O9 1.956333 1_555
Cu0 O3 1.956396 1_556
Cu0 O11 1.973078 1_555
Cu0 O6 1.973100 1_556
Cu1 O0 1.968650 1_455
Cu1 O1 1.968664 1_555
Cu1 O2 1.972217 1_455
Cu1 O8 1.972221 1_555
Cu2 O4 1.959419 1_565
Cu2 O7 1.959434 1_555
Cu2 O5 1.972752 1_555
Cu2 O10 1.972762 1_565
O0 V3 1.897309 1_554
O0 V1 2.008378 1_554
O0 Zn0 2.591993 1_654
O1 V3 1.897327 1_565
O1 V1 2.008370 1_455
O1 Zn0 2.591985 1_565
O2 V2 1.949911 1_555
O2 V0 1.962689 1_665
O2 Zn0 2.568970 1_665
O3 V1 1.961169 1_454
O3 V2 1.962696 1_555
O3 Zn0 2.586037 1_554
O4 V2 1.954362 1_555
O4 V3 1.968790 1_554
O4 Zn0 2.571828 1_554
O5 V1 1.902518 1_454
O5 V0 1.998781 1_565
O5 Zn0 2.599557 1_564
O6 V0 1.904967 1_665
O6 V3 2.004995 1_564
O6 Zn0 2.590464 1_664
O7 V2 1.954367 1_555
O7 V3 1.968780 1_565
O7 Zn0 2.571821 1_665
O8 V2 1.949899 1_555
O8 V0 1.962645 1_555
O8 Zn0 2.569029 1_554
O9 V1 1.961133 1_555
O9 V2 1.962694 1_555
O9 Zn0 2.586115 1_665
O10 V1 1.902541 1_555
O10 V0 1.998759 1_655
O10 Zn0 2.599466 1_655
O11 V0 1.904989 1_555
O11 V3 2.004976 1_555
O11 Zn0 2.590362 1_555
