# generated using pymatgen
data_Li4Mn3SbO8
_symmetry_space_group_name_H-M   'P 1'
_cell_length_a   6.11042634
_cell_length_b   10.70249857
_cell_length_c   6.10006530
_cell_angle_alpha   88.88289271
_cell_angle_beta   118.51336753
_cell_angle_gamma   74.01533779
_symmetry_Int_Tables_number   1
_chemical_formula_structural   Li4Mn3SbO8
_chemical_formula_sum   'Li8 Mn6 Sb2 O16'
_cell_volume   331.56009617
_cell_formula_units_Z   2
loop_
 _symmetry_equiv_pos_site_id
 _symmetry_equiv_pos_as_xyz
  1  'x, y, z'
loop_
 _atom_site_type_symbol
 _atom_site_label
 _atom_site_symmetry_multiplicity
 _atom_site_fract_x
 _atom_site_fract_y
 _atom_site_fract_z
 _atom_site_occupancy
  Li  Li0  1  0.50086500  0.74674300  0.75265700  1
  Li  Li1  1  0.50127400  0.24656300  0.25258900  1
  Li  Li2  1  0.00098000  0.50077700  0.00035100  1
  Li  Li3  1  0.00087100  0.00082800  0.50034000  1
  Li  Li4  1  0.49979900  0.50033900  0.50002200  1
  Li  Li5  1  0.49966900  0.00045400  0.99993100  1
  Li  Li6  1  0.99890300  0.75099800  0.25042800  1
  Li  Li7  1  0.99876100  0.25102700  0.75031300  1
  Mn  Mn0  1  0.49914800  0.25077500  0.74974800  1
  Mn  Mn1  1  0.00005200  0.25084800  0.24950500  1
  Mn  Mn2  1  0.50255800  0.99695800  0.50107100  1
  Mn  Mn3  1  0.49903600  0.75082300  0.24982700  1
  Mn  Mn4  1  0.99971700  0.75087500  0.74946700  1
  Mn  Mn5  1  0.50258500  0.49696000  0.00101500  1
  Sb  Sb0  1  0.99944000  0.00078600  0.99989600  1
  Sb  Sb1  1  0.99953100  0.50071600  0.49990800  1
  O  O0  1  0.22800400  0.14029400  0.57901000  1
  O  O1  1  0.22793800  0.64034300  0.07910000  1
  O  O2  1  0.77421500  0.35946200  0.91745100  1
  O  O3  1  0.77414400  0.85947400  0.41757300  1
  O  O4  1  0.76811900  0.88184200  0.89042000  1
  O  O5  1  0.76825500  0.38179500  0.39030100  1
  O  O6  1  0.22563800  0.88512700  0.34602200  1
  O  O7  1  0.22572200  0.38511200  0.84592000  1
  O  O8  1  0.76839200  0.61666900  0.62385000  1
  O  O9  1  0.76836200  0.11667300  0.12379500  1
  O  O10  1  0.23300100  0.61823700  0.61111200  1
  O  O11  1  0.23302500  0.11821500  0.11107000  1
  O  O12  1  0.77098500  0.61520000  0.15271300  1
  O  O13  1  0.77110700  0.11515600  0.65270400  1
  O  O14  1  0.22991500  0.88494700  0.87597500  1
  O  O15  1  0.22998500  0.38498600  0.37592600  1
loop_
_geom_bond_atom_site_label_1
_geom_bond_atom_site_label_2
_geom_bond_distance
_geom_bond_site_symmetry_2
Li0 O8 2.289802 1_555
Li0 O10 2.291925 1_555
Li0 O14 2.319153 1_555
Li0 O12 2.324297 1_556
Li0 O4 2.345475 1_555
Li0 O6 2.382625 1_555
Li1 O9 2.287019 1_555
Li1 O11 2.292205 1_555
Li1 O15 2.321716 1_555
Li1 O13 2.323909 1_555
Li1 O5 2.345465 1_555
Li1 O7 2.383563 1_554
Li2 O15 2.148520 1_555
Li2 O8 2.152853 1_454
Li2 O7 2.156389 1_554
Li2 O12 2.163815 1_455
Li2 O1 2.217656 1_555
Li2 O2 2.231181 1_454
Li3 O14 2.149152 1_545
Li3 O9 2.152867 1_455
Li3 O6 2.156132 1_545
Li3 O13 2.162436 1_455
Li3 O0 2.217536 1_555
Li3 O3 2.231421 1_445
Li4 O10 2.159678 1_555
Li4 O5 2.164151 1_555
Li4 O15 2.186608 1_555
Li4 O8 2.189229 1_555
Li4 O2 2.439318 1_555
Li4 O1 2.450386 1_555
Li5 O11 2.158623 1_556
Li5 O4 2.163529 1_545
Li5 O14 2.187621 1_545
Li5 O9 2.188753 1_556
Li5 O3 2.440689 1_546
Li5 O0 2.449662 1_555
Li6 O4 2.146662 1_554
Li6 O10 2.158666 1_655
Li6 O6 2.162614 1_655
Li6 O12 2.182468 1_555
Li6 O3 2.185969 1_555
Li6 O1 2.232765 1_655
Li7 O5 2.146332 1_555
Li7 O11 2.159217 1_656
Li7 O7 2.163173 1_655
Li7 O13 2.182027 1_555
Li7 O2 2.184858 1_555
Li7 O0 2.233848 1_655
Mn0 O2 2.169386 1_555
Mn0 O0 2.169654 1_555
Mn0 O7 2.201898 1_555
Mn0 O13 2.205213 1_555
Mn0 O15 2.226808 1_555
Mn0 O9 2.227244 1_556
Mn1 O0 1.925314 1_555
Mn1 O2 1.927300 1_454
Mn1 O15 2.179290 1_555
Mn1 O9 2.186454 1_455
Mn1 O5 2.196121 1_455
Mn1 O11 2.199126 1_555
Mn2 O3 2.160978 1_555
Mn2 O0 2.183195 1_565
Mn2 O6 2.195873 1_555
Mn2 O13 2.210958 1_565
Mn2 O4 2.212968 1_555
Mn2 O11 2.240111 1_565
Mn3 O3 2.169297 1_555
Mn3 O1 2.169444 1_555
Mn3 O6 2.201708 1_555
Mn3 O12 2.205464 1_555
Mn3 O14 2.226518 1_554
Mn3 O8 2.227445 1_555
Mn4 O1 1.925850 1_656
Mn4 O3 1.926480 1_555
Mn4 O14 2.179791 1_655
Mn4 O8 2.185229 1_555
Mn4 O4 2.196105 1_555
Mn4 O10 2.200049 1_655
Mn5 O2 2.161483 1_554
Mn5 O1 2.184363 1_555
Mn5 O7 2.195784 1_554
Mn5 O12 2.210704 1_555
Mn5 O5 2.212915 1_555
Mn5 O10 2.239791 1_554
O4 Sb0 2.046302 1_565
O5 Sb1 2.045913 1_555
O6 Sb0 2.017480 1_464
O7 Sb1 2.016749 1_455
O8 Sb1 2.048696 1_555
O9 Sb0 2.047950 1_554
O10 Sb1 2.043263 1_455
O11 Sb0 2.042958 1_454
O12 Sb1 2.017349 1_555
O13 Sb0 2.016822 1_555
O14 Sb0 2.045255 1_465
O15 Sb1 2.044935 1_455
