# generated using pymatgen
data_Gd4PdO7
_symmetry_space_group_name_H-M   'P 1'
_cell_length_a   6.82460069
_cell_length_b   7.18459932
_cell_length_c   7.90021479
_cell_angle_alpha   69.78944851
_cell_angle_beta   71.86341827
_cell_angle_gamma   84.11235914
_symmetry_Int_Tables_number   1
_chemical_formula_structural   Gd4PdO7
_chemical_formula_sum   'Gd8 Pd2 O14'
_cell_volume   345.44759251
_cell_formula_units_Z   2
loop_
 _symmetry_equiv_pos_site_id
 _symmetry_equiv_pos_as_xyz
  1  'x, y, z'
loop_
 _atom_site_type_symbol
 _atom_site_label
 _atom_site_symmetry_multiplicity
 _atom_site_fract_x
 _atom_site_fract_y
 _atom_site_fract_z
 _atom_site_occupancy
  Gd  Gd0  1  0.78043366  0.38680897  0.21104307  1
  Gd  Gd1  1  0.21956634  0.61319103  0.78895693  1
  Gd  Gd2  1  0.35826085  0.14846569  0.14193764  1
  Gd  Gd3  1  0.64173915  0.85153431  0.85806236  1
  Gd  Gd4  1  0.20968879  0.60040667  0.27522503  1
  Gd  Gd5  1  0.79031121  0.39959333  0.72477497  1
  Gd  Gd6  1  0.33651545  0.16834051  0.62174717  1
  Gd  Gd7  1  0.66348455  0.83165949  0.37825283  1
  Pd  Pd0  1  0.00000000  0.00000000  0.00000000  1
  Pd  Pd1  1  0.00000000  0.00000000  0.50000000  1
  O  O0  1  0.69933945  0.08172269  0.50831758  1
  O  O1  1  0.30066055  0.91827731  0.49168242  1
  O  O2  1  0.14732242  0.41689064  0.10090665  1
  O  O3  1  0.85267758  0.58310936  0.89909335  1
  O  O4  1  0.52736080  0.75938517  0.17613386  1
  O  O5  1  0.47263920  0.24061483  0.82386614  1
  O  O6  1  0.43074953  0.33374196  0.30332168  1
  O  O7  1  0.56925047  0.66625804  0.69667832  1
  O  O8  1  0.05804170  0.92853739  0.25696522  1
  O  O9  1  0.94195830  0.07146261  0.74303478  1
  O  O10  1  0.72894414  0.14050020  0.08869270  1
  O  O11  1  0.27105586  0.85949980  0.91130730  1
  O  O12  1  0.15807741  0.45914918  0.59895792  1
  O  O13  1  0.84192259  0.54085082  0.40104208  1
loop_
_geom_bond_atom_site_label_1
_geom_bond_atom_site_label_2
_geom_bond_distance
_geom_bond_site_symmetry_2
Gd0 O6 2.298585 1_555
Gd0 O13 2.299846 1_555
Gd0 O3 2.300089 1_554
Gd0 O2 2.387027 1_655
Gd0 O10 2.389618 1_555
Gd0 O0 2.551328 1_555
Gd1 O7 2.298585 1_555
Gd1 O12 2.299846 1_555
Gd1 O2 2.300089 1_556
Gd1 O3 2.387027 1_455
Gd1 O11 2.389618 1_555
Gd1 O1 2.551328 1_555
Gd2 O5 2.257733 1_554
Gd2 O2 2.277206 1_555
Gd2 O6 2.311409 1_555
Gd2 O10 2.429890 1_555
Gd2 O8 2.456279 1_545
Gd2 O1 2.612273 1_545
Gd2 O4 2.868703 1_545
Gd3 O4 2.257733 1_556
Gd3 O3 2.277206 1_555
Gd3 O7 2.311409 1_555
Gd3 O11 2.429890 1_555
Gd3 O9 2.456279 1_565
Gd3 O0 2.612273 1_565
Gd3 O5 2.868703 1_565
Gd4 O6 2.305983 1_555
Gd4 O12 2.326851 1_555
Gd4 O4 2.334782 1_555
Gd4 O2 2.356004 1_555
Gd4 O13 2.417391 1_455
Gd4 O8 2.450931 1_555
Gd4 O11 2.760222 1_554
Gd5 O7 2.305983 1_555
Gd5 O13 2.326851 1_555
Gd5 O5 2.334782 1_555
Gd5 O3 2.356004 1_555
Gd5 O12 2.417391 1_655
Gd5 O9 2.450931 1_555
Gd5 O10 2.760222 1_556
Gd6 O12 2.288085 1_555
Gd6 O6 2.288712 1_555
Gd6 O5 2.297334 1_555
Gd6 O1 2.421933 1_545
Gd6 O0 2.451385 1_555
Gd6 O11 2.533002 1_545
Gd6 O9 2.640187 1_455
Gd7 O13 2.288085 1_555
Gd7 O7 2.288712 1_555
Gd7 O4 2.297334 1_555
Gd7 O0 2.421933 1_565
Gd7 O1 2.451385 1_555
Gd7 O10 2.533002 1_565
Gd7 O8 2.640187 1_655
O0 Pd1 2.062730 1_655
O1 Pd1 2.062730 1_565
O8 Pd1 2.067108 1_565
O8 Pd0 2.068931 1_565
O9 Pd1 2.067108 1_655
O9 Pd0 2.068931 1_656
O10 Pd0 2.056826 1_655
O11 Pd0 2.056826 1_566
