# generated using pymatgen
data_Y(FeO2)3
_symmetry_space_group_name_H-M   'P 1'
_cell_length_a   6.27112786
_cell_length_b   6.27112786
_cell_length_c   15.12826800
_cell_angle_alpha   90.00000000
_cell_angle_beta   90.00000000
_cell_angle_gamma   119.99999855
_symmetry_Int_Tables_number   1
_chemical_formula_structural   Y(FeO2)3
_chemical_formula_sum   'Y4 Fe12 O24'
_cell_volume   515.24188337
_cell_formula_units_Z   4
loop_
 _symmetry_equiv_pos_site_id
 _symmetry_equiv_pos_as_xyz
  1  'x, y, z'
loop_
 _atom_site_type_symbol
 _atom_site_label
 _atom_site_symmetry_multiplicity
 _atom_site_fract_x
 _atom_site_fract_y
 _atom_site_fract_z
 _atom_site_occupancy
  Y  Y0  1  0.33333300  0.66666700  0.44001100  1
  Y  Y1  1  0.00000000  0.00000000  0.13051800  1
  Y  Y2  1  0.66666700  0.33333300  0.55998900  1
  Y  Y3  1  0.00000000  0.00000000  0.86948200  1
  Fe  Fe0  1  0.17161200  0.82838800  0.66677100  1
  Fe  Fe1  1  0.82838800  0.17161200  0.33322900  1
  Fe  Fe2  1  0.50000000  0.50000000  0.00000000  1
  Fe  Fe3  1  0.17161200  0.34322400  0.66677100  1
  Fe  Fe4  1  0.82838800  0.65677600  0.33322900  1
  Fe  Fe5  1  0.50000000  0.00000000  0.00000000  1
  Fe  Fe6  1  0.00000000  0.00000000  0.50000000  1
  Fe  Fe7  1  0.66666700  0.33333300  0.17358300  1
  Fe  Fe8  1  0.33333300  0.66666700  0.82641700  1
  Fe  Fe9  1  0.65677600  0.82838800  0.66677100  1
  Fe  Fe10  1  0.34322400  0.17161200  0.33322900  1
  Fe  Fe11  1  0.00000000  0.50000000  0.00000000  1
  O  O0  1  0.33333300  0.66666700  0.58499200  1
  O  O1  1  0.00000000  0.00000000  0.27062700  1
  O  O2  1  0.66666700  0.33333300  0.93957100  1
  O  O3  1  0.28489600  0.14244800  0.58659200  1
  O  O4  1  0.95754700  0.47877300  0.26386100  1
  O  O5  1  0.62829200  0.81414600  0.91842400  1
  O  O6  1  0.85755200  0.14244800  0.58659200  1
  O  O7  1  0.52122700  0.47877300  0.26386100  1
  O  O8  1  0.18585400  0.81414600  0.91842400  1
  O  O9  1  0.85755200  0.71510400  0.58659200  1
  O  O10  1  0.52122700  0.04245300  0.26386100  1
  O  O11  1  0.18585400  0.37170800  0.91842400  1
  O  O12  1  0.71510400  0.85755200  0.41340800  1
  O  O13  1  0.37170800  0.18585400  0.08157600  1
  O  O14  1  0.04245300  0.52122700  0.73613900  1
  O  O15  1  0.66666700  0.33333300  0.41500800  1
  O  O16  1  0.33333300  0.66666700  0.06042900  1
  O  O17  1  0.00000000  0.00000000  0.72937300  1
  O  O18  1  0.14244800  0.85755200  0.41340800  1
  O  O19  1  0.81414600  0.18585400  0.08157600  1
  O  O20  1  0.47877300  0.52122700  0.73613900  1
  O  O21  1  0.14244800  0.28489600  0.41340800  1
  O  O22  1  0.81414600  0.62829200  0.08157600  1
  O  O23  1  0.47877300  0.95754700  0.73613900  1
loop_
_geom_bond_atom_site_label_1
_geom_bond_atom_site_label_2
_geom_bond_distance
_geom_bond_site_symmetry_2
Fe0 O23 1.976752 1_555
Fe0 O14 1.976752 1_555
Fe0 O17 2.090824 1_565
Fe0 O3 2.110873 1_565
Fe0 O9 2.110873 1_455
Fe0 O0 2.148544 1_555
Fe1 O4 1.976752 1_555
Fe1 O10 1.976752 1_555
Fe1 O1 2.090824 1_655
Fe1 O21 2.110873 1_655
Fe1 O12 2.110873 1_545
Fe1 O15 2.148544 1_555
Fe2 O2 2.028054 1_554
Fe2 O16 2.028054 1_555
Fe2 O13 2.113388 1_555
Fe2 O22 2.113388 1_555
Fe2 O11 2.113388 1_554
Fe2 O5 2.113388 1_554
Fe3 O20 1.976753 1_555
Fe3 O14 1.976757 1_555
Fe3 O17 2.090824 1_555
Fe3 O3 2.110873 1_555
Fe3 O6 2.110873 1_455
Fe3 O0 2.148549 1_555
Fe4 O7 1.976753 1_555
Fe4 O4 1.976757 1_555
Fe4 O1 2.090824 1_665
Fe4 O12 2.110873 1_555
Fe4 O18 2.110873 1_655
Fe4 O15 2.148549 1_555
Fe5 O2 2.028049 1_554
Fe5 O16 2.028049 1_545
Fe5 O5 2.113388 1_544
Fe5 O13 2.113388 1_555
Fe5 O8 2.113388 1_544
Fe5 O19 2.113388 1_555
Fe6 O6 2.027331 1_455
Fe6 O18 2.027331 1_545
Fe6 O21 2.027331 1_555
Fe6 O3 2.027331 1_555
Fe6 O12 2.027331 1_445
Fe6 O9 2.027331 1_445
Fe7 O7 2.088278 1_555
Fe7 O10 2.088278 1_555
Fe7 O4 2.088278 1_555
Fe7 O19 2.122145 1_555
Fe7 O13 2.122149 1_555
Fe7 O22 2.122149 1_555
Fe8 O20 2.088278 1_555
Fe8 O14 2.088278 1_555
Fe8 O23 2.088278 1_555
Fe8 O8 2.122145 1_555
Fe8 O5 2.122149 1_555
Fe8 O11 2.122149 1_555
Fe9 O20 1.976753 1_555
Fe9 O23 1.976757 1_555
Fe9 O17 2.090824 1_665
Fe9 O9 2.110873 1_555
Fe9 O6 2.110873 1_565
Fe9 O0 2.148549 1_555
Fe10 O7 1.976753 1_555
Fe10 O10 1.976757 1_555
Fe10 O1 2.090824 1_555
Fe10 O21 2.110873 1_555
Fe10 O18 2.110873 1_545
Fe10 O15 2.148549 1_555
Fe11 O2 2.028049 1_454
Fe11 O16 2.028049 1_555
Fe11 O22 2.113388 1_455
Fe11 O11 2.113388 1_554
Fe11 O8 2.113388 1_554
Fe11 O19 2.113388 1_455
O0 Y0 2.193311 1_555
O1 Y1 2.119607 1_555
O3 Y2 2.112080 1_555
O5 Y3 2.150226 1_665
O6 Y2 2.112075 1_555
O8 Y3 2.150226 1_565
O9 Y2 2.112080 1_555
O11 Y3 2.150226 1_555
O12 Y0 2.112080 1_555
O13 Y1 2.150226 1_555
O15 Y2 2.193311 1_555
O17 Y3 2.119607 1_555
O18 Y0 2.112075 1_555
O19 Y1 2.150226 1_655
O21 Y0 2.112080 1_555
O22 Y1 2.150226 1_665
