# generated using pymatgen
data_Ba7Ti2Nb4O21
_symmetry_space_group_name_H-M   'P 1'
_cell_length_a   17.04923693
_cell_length_b   17.04923693
_cell_length_c   17.04923698
_cell_angle_alpha   19.79547863
_cell_angle_beta   19.79547863
_cell_angle_gamma   19.79547672
_symmetry_Int_Tables_number   1
_chemical_formula_structural   Ba7Ti2Nb4O21
_chemical_formula_sum   'Ba7 Ti2 Nb4 O21'
_cell_volume   497.14176358
_cell_formula_units_Z   1
loop_
 _symmetry_equiv_pos_site_id
 _symmetry_equiv_pos_as_xyz
  1  'x, y, z'
loop_
 _atom_site_type_symbol
 _atom_site_label
 _atom_site_symmetry_multiplicity
 _atom_site_fract_x
 _atom_site_fract_y
 _atom_site_fract_z
 _atom_site_occupancy
  Ba  Ba0  1  0.76461600  0.76461600  0.76461600  1
  Ba  Ba1  1  0.23538400  0.23538400  0.23538400  1
  Ba  Ba2  1  0.85120900  0.85120900  0.85120900  1
  Ba  Ba3  1  0.14879100  0.14879100  0.14879100  1
  Ba  Ba4  1  0.61771600  0.61771600  0.61771600  1
  Ba  Ba5  1  0.38228400  0.38228400  0.38228400  1
  Ba  Ba6  1  0.00000000  0.00000000  0.00000000  1
  Ti  Ti0  1  0.92449400  0.92449400  0.92449400  1
  Ti  Ti1  1  0.07550600  0.07550600  0.07550600  1
  Nb  Nb0  1  0.54330400  0.54330400  0.54330400  1
  Nb  Nb1  1  0.45669600  0.45669600  0.45669600  1
  Nb  Nb2  1  0.69239200  0.69239200  0.69239200  1
  Nb  Nb3  1  0.30760800  0.30760800  0.30760800  1
  O  O0  1  0.74521600  0.22945400  0.74521600  1
  O  O1  1  0.74521600  0.74521600  0.22945400  1
  O  O2  1  0.22945400  0.74521600  0.74521600  1
  O  O3  1  0.25478400  0.77054600  0.25478400  1
  O  O4  1  0.25478400  0.25478400  0.77054600  1
  O  O5  1  0.77054600  0.25478400  0.25478400  1
  O  O6  1  0.87750500  0.38527700  0.87750500  1
  O  O7  1  0.87750500  0.87750500  0.38527700  1
  O  O8  1  0.38527700  0.87750500  0.87750500  1
  O  O9  1  0.12249500  0.61472300  0.12249500  1
  O  O10  1  0.12249500  0.12249500  0.61472300  1
  O  O11  1  0.61472300  0.12249500  0.12249500  1
  O  O12  1  0.63750300  0.14578900  0.63750300  1
  O  O13  1  0.63750300  0.63750300  0.14578900  1
  O  O14  1  0.14578900  0.63750300  0.63750300  1
  O  O15  1  0.36249700  0.85421100  0.36249700  1
  O  O16  1  0.36249700  0.36249700  0.85421100  1
  O  O17  1  0.85421100  0.36249700  0.36249700  1
  O  O18  1  0.50000000  0.50000000  0.00000000  1
  O  O19  1  0.00000000  0.50000000  0.50000000  1
  O  O20  1  0.50000000  0.00000000  0.50000000  1
loop_
_geom_bond_atom_site_label_1
_geom_bond_atom_site_label_2
_geom_bond_distance
_geom_bond_site_symmetry_2
Ba0 O12 2.730996 1_565
Ba0 O14 2.730996 1_655
Ba0 O13 2.730996 1_556
Ba0 O4 2.940053 1_655
Ba0 O4 2.940053 1_565
Ba0 O5 2.940053 1_556
Ba0 O3 2.940053 1_556
Ba0 O5 2.940053 1_565
Ba0 O3 2.940053 1_655
Ba0 O8 3.059232 1_555
Ba0 O6 3.059232 1_555
Ba0 O7 3.059232 1_555
Ba1 O15 2.730996 1_545
Ba1 O17 2.730996 1_455
Ba1 O16 2.730996 1_554
Ba1 O1 2.940053 1_455
Ba1 O1 2.940053 1_545
Ba1 O2 2.940053 1_554
Ba1 O0 2.940053 1_554
Ba1 O2 2.940053 1_545
Ba1 O0 2.940053 1_455
Ba1 O9 3.059232 1_555
Ba1 O11 3.059232 1_555
Ba1 O10 3.059232 1_555
Ba2 O12 2.808063 1_565
Ba2 O14 2.808063 1_655
Ba2 O13 2.808063 1_556
Ba2 O16 2.961733 1_655
Ba2 O16 2.961733 1_565
Ba2 O17 2.961734 1_565
Ba2 O15 2.961734 1_655
Ba2 O15 2.961734 1_556
Ba2 O17 2.961734 1_556
Ba2 O0 3.225447 1_565
Ba2 O2 3.225447 1_655
Ba2 O1 3.225448 1_556
Ba3 O17 2.808063 1_455
Ba3 O15 2.808063 1_545
Ba3 O16 2.808063 1_554
Ba3 O13 2.961733 1_545
Ba3 O13 2.961733 1_455
Ba3 O14 2.961734 1_545
Ba3 O12 2.961734 1_455
Ba3 O14 2.961734 1_554
Ba3 O12 2.961734 1_554
Ba3 O3 3.225447 1_545
Ba3 O5 3.225447 1_455
Ba3 O4 3.225448 1_554
Ba4 O2 2.829281 1_555
Ba4 O0 2.829281 1_555
Ba4 O1 2.829282 1_555
Ba4 O10 2.932767 1_565
Ba4 O10 2.932767 1_655
Ba4 O11 2.932768 1_565
Ba4 O9 2.932768 1_655
Ba4 O9 2.932768 1_556
Ba4 O11 2.932768 1_556
Ba4 O20 2.980677 1_565
Ba4 O19 2.980677 1_655
Ba4 O18 2.980677 1_556
Ba5 O3 2.829281 1_555
Ba5 O5 2.829281 1_555
Ba5 O4 2.829282 1_555
Ba5 O7 2.932767 1_545
Ba5 O7 2.932767 1_455
Ba5 O8 2.932768 1_545
Ba5 O6 2.932768 1_455
Ba5 O8 2.932768 1_554
Ba5 O6 2.932768 1_554
Ba5 O19 2.980677 1_555
Ba5 O20 2.980677 1_555
Ba5 O18 2.980677 1_555
Ba6 O8 2.906504 1_544
Ba6 O6 2.906504 1_454
Ba6 O11 2.906504 1_455
Ba6 O9 2.906504 1_545
Ba6 O7 2.906504 1_445
Ba6 O10 2.906504 1_554
Ba6 O18 2.930597 1_455
Ba6 O18 2.930597 1_545
Ba6 O19 2.930597 1_554
Ba6 O20 2.930597 1_455
Ba6 O20 2.930597 1_554
Ba6 O19 2.930597 1_545
Nb0 O15 1.867256 1_555
Nb0 O17 1.867256 1_555
Nb0 O16 1.867256 1_555
Nb0 O0 2.303596 1_555
Nb0 O2 2.303596 1_555
Nb0 O1 2.303597 1_555
Nb1 O12 1.867256 1_555
Nb1 O14 1.867256 1_555
Nb1 O13 1.867256 1_555
Nb1 O5 2.303596 1_555
Nb1 O3 2.303596 1_555
Nb1 O4 2.303597 1_555
Nb2 O6 1.971458 1_555
Nb2 O8 1.971458 1_555
Nb2 O7 1.971458 1_555
Nb2 O20 2.127417 1_565
Nb2 O19 2.127417 1_655
Nb2 O18 2.127417 1_556
Nb3 O9 1.971458 1_555
Nb3 O11 1.971458 1_555
Nb3 O10 1.971458 1_555
Nb3 O20 2.127417 1_555
Nb3 O19 2.127417 1_555
Nb3 O18 2.127417 1_555
O0 Ti0 1.867414 1_545
O1 Ti0 1.867414 1_554
O2 Ti0 1.867414 1_455
O3 Ti1 1.867414 1_565
O4 Ti1 1.867414 1_556
O5 Ti1 1.867414 1_655
O6 Ti1 2.242487 1_656
O7 Ti1 2.242487 1_665
O8 Ti1 2.242487 1_566
O9 Ti0 2.242487 1_454
O10 Ti0 2.242487 1_445
O11 Ti0 2.242487 1_544
