# generated using pymatgen
data_NpH3
_symmetry_space_group_name_H-M   'P 1'
_cell_length_a   6.34747919
_cell_length_b   6.34747919
_cell_length_c   6.62244100
_cell_angle_alpha   90.00000000
_cell_angle_beta   90.00000000
_cell_angle_gamma   119.99999161
_symmetry_Int_Tables_number   1
_chemical_formula_structural   NpH3
_chemical_formula_sum   'Np6 H18'
_cell_volume   231.07413625
_cell_formula_units_Z   6
loop_
 _symmetry_equiv_pos_site_id
 _symmetry_equiv_pos_as_xyz
  1  'x, y, z'
loop_
 _atom_site_type_symbol
 _atom_site_label
 _atom_site_symmetry_multiplicity
 _atom_site_fract_x
 _atom_site_fract_y
 _atom_site_fract_z
 _atom_site_occupancy
  Np  Np0  1  0.66337500  0.00000000  0.75000000  1
  Np  Np1  1  0.33662500  0.33662500  0.75000000  1
  Np  Np2  1  0.00000000  0.66337500  0.75000000  1
  Np  Np3  1  0.66337500  0.66337500  0.25000000  1
  Np  Np4  1  0.00000000  0.33662500  0.25000000  1
  Np  Np5  1  0.33662500  0.00000000  0.25000000  1
  H  H0  1  0.00000000  0.00000000  0.75000000  1
  H  H1  1  0.00000000  0.00000000  0.25000000  1
  H  H2  1  0.66666700  0.33333300  0.83507200  1
  H  H3  1  0.66666700  0.33333300  0.33507200  1
  H  H4  1  0.33333300  0.66666700  0.16492800  1
  H  H5  1  0.33333300  0.66666700  0.66492800  1
  H  H6  1  0.32530000  0.98519600  0.90656700  1
  H  H7  1  0.65989600  0.67470000  0.90656700  1
  H  H8  1  0.01480400  0.34010400  0.90656700  1
  H  H9  1  0.32530000  0.34010400  0.40656700  1
  H  H10  1  0.01480400  0.67470000  0.40656700  1
  H  H11  1  0.65989600  0.98519600  0.40656700  1
  H  H12  1  0.67470000  0.01480400  0.09343300  1
  H  H13  1  0.34010400  0.32530000  0.09343300  1
  H  H14  1  0.98519600  0.65989600  0.09343300  1
  H  H15  1  0.67470000  0.65989600  0.59343300  1
  H  H16  1  0.98519600  0.32530000  0.59343300  1
  H  H17  1  0.34010400  0.01480400  0.59343300  1
loop_
_geom_bond_atom_site_label_1
_geom_bond_atom_site_label_2
_geom_bond_distance
_geom_bond_site_symmetry_2
H0 Np0 2.136720 1_455
H0 Np2 2.136720 1_545
H0 Np1 2.136720 1_555
H1 Np5 2.136720 1_555
H1 Np4 2.136720 1_555
H1 Np3 2.136720 1_445
H2 Np0 2.179527 1_555
H2 Np2 2.179530 1_655
H2 Np1 2.179533 1_555
H3 Np4 2.179527 1_655
H3 Np5 2.179530 1_555
H3 Np3 2.179533 1_555
H4 Np5 2.179527 1_565
H4 Np4 2.179530 1_555
H4 Np3 2.179533 1_555
H5 Np2 2.179527 1_555
H5 Np0 2.179530 1_565
H5 Np1 2.179533 1_555
H6 Np5 2.275956 1_566
H6 Np2 2.300762 1_555
H6 Np0 2.342486 1_565
H6 Np1 2.428138 1_565
H7 Np3 2.275956 1_556
H7 Np0 2.300761 1_565
H7 Np1 2.342486 1_555
H7 Np2 2.428138 1_655
H8 Np4 2.275956 1_556
H8 Np1 2.300761 1_555
H8 Np2 2.342486 1_555
H8 Np0 2.428138 1_455
H9 Np1 2.275956 1_555
H9 Np4 2.300761 1_555
H9 Np3 2.342486 1_555
H9 Np5 2.428138 1_555
H10 Np2 2.275956 1_555
H10 Np5 2.300762 1_565
H10 Np4 2.342486 1_555
H10 Np3 2.428138 1_455
H11 Np0 2.275956 1_565
H11 Np3 2.300761 1_555
H11 Np5 2.342486 1_565
H11 Np4 2.428138 1_665
H12 Np0 2.275956 1_554
H12 Np4 2.300762 1_655
H12 Np5 2.342486 1_555
H12 Np3 2.428138 1_545
H13 Np1 2.275956 1_554
H13 Np5 2.300761 1_555
H13 Np3 2.342486 1_555
H13 Np4 2.428138 1_555
H14 Np2 2.275956 1_654
H14 Np3 2.300761 1_555
H14 Np4 2.342486 1_655
H14 Np5 2.428138 1_665
H15 Np3 2.275956 1_555
H15 Np2 2.300761 1_655
H15 Np1 2.342486 1_555
H15 Np0 2.428138 1_565
H16 Np4 2.275956 1_655
H16 Np0 2.300762 1_555
H16 Np2 2.342486 1_655
H16 Np1 2.428138 1_655
H17 Np5 2.275956 1_555
H17 Np1 2.300761 1_555
H17 Np0 2.342486 1_555
H17 Np2 2.428138 1_545
