# generated using pymatgen
data_Mg30NbZnO32
_symmetry_space_group_name_H-M   'P 1'
_cell_length_a   8.56318600
_cell_length_b   8.56318600
_cell_length_c   8.56334600
_cell_angle_alpha   90.00000000
_cell_angle_beta   90.00000000
_cell_angle_gamma   90.00000000
_symmetry_Int_Tables_number   1
_chemical_formula_structural   Mg30NbZnO32
_chemical_formula_sum   'Mg30 Nb1 Zn1 O32'
_cell_volume   627.93435827
_cell_formula_units_Z   1
loop_
 _symmetry_equiv_pos_site_id
 _symmetry_equiv_pos_as_xyz
  1  'x, y, z'
loop_
 _atom_site_type_symbol
 _atom_site_label
 _atom_site_symmetry_multiplicity
 _atom_site_fract_x
 _atom_site_fract_y
 _atom_site_fract_z
 _atom_site_occupancy
  Mg  Mg0  1  0.00000000  0.50000000  0.00000000  1
  Mg  Mg1  1  0.00000000  0.50000000  0.50000000  1
  Mg  Mg2  1  0.50000000  0.00000000  0.00000000  1
  Mg  Mg3  1  0.50000000  0.00000000  0.50000000  1
  Mg  Mg4  1  0.50000000  0.50000000  0.00000000  1
  Mg  Mg5  1  0.50000000  0.50000000  0.50000000  1
  Mg  Mg6  1  0.00000000  0.25183800  0.24810800  1
  Mg  Mg7  1  0.00000000  0.25183800  0.75189200  1
  Mg  Mg8  1  0.00000000  0.74816200  0.24810800  1
  Mg  Mg9  1  0.00000000  0.74816200  0.75189200  1
  Mg  Mg10  1  0.50000000  0.24993600  0.24988700  1
  Mg  Mg11  1  0.50000000  0.24993600  0.75011300  1
  Mg  Mg12  1  0.50000000  0.75006400  0.24988700  1
  Mg  Mg13  1  0.50000000  0.75006400  0.75011300  1
  Mg  Mg14  1  0.25183800  0.00000000  0.24810800  1
  Mg  Mg15  1  0.25183800  0.00000000  0.75189200  1
  Mg  Mg16  1  0.24993600  0.50000000  0.24988700  1
  Mg  Mg17  1  0.24993600  0.50000000  0.75011300  1
  Mg  Mg18  1  0.74816200  0.00000000  0.24810800  1
  Mg  Mg19  1  0.74816200  0.00000000  0.75189200  1
  Mg  Mg20  1  0.75006400  0.50000000  0.24988700  1
  Mg  Mg21  1  0.75006400  0.50000000  0.75011300  1
  Mg  Mg22  1  0.24982800  0.24982800  0.00000000  1
  Mg  Mg23  1  0.25169400  0.25169400  0.50000000  1
  Mg  Mg24  1  0.24982800  0.75017200  0.00000000  1
  Mg  Mg25  1  0.25169400  0.74830600  0.50000000  1
  Mg  Mg26  1  0.75017200  0.24982800  0.00000000  1
  Mg  Mg27  1  0.74830600  0.25169400  0.50000000  1
  Mg  Mg28  1  0.75017200  0.75017200  0.00000000  1
  Mg  Mg29  1  0.74830600  0.74830600  0.50000000  1
  Nb  Nb0  1  0.00000000  0.00000000  0.50000000  1
  Zn  Zn0  1  0.00000000  0.00000000  0.00000000  1
  O  O0  1  0.25491600  0.00000000  0.00000000  1
  O  O1  1  0.26214800  0.00000000  0.50000000  1
  O  O2  1  0.25042000  0.50000000  0.00000000  1
  O  O3  1  0.25136300  0.50000000  0.50000000  1
  O  O4  1  0.74508400  0.00000000  0.00000000  1
  O  O5  1  0.73785200  0.00000000  0.50000000  1
  O  O6  1  0.74958000  0.50000000  0.00000000  1
  O  O7  1  0.74863700  0.50000000  0.50000000  1
  O  O8  1  0.24948400  0.24948400  0.25012500  1
  O  O9  1  0.24948400  0.24948400  0.74987500  1
  O  O10  1  0.24948400  0.75051600  0.25012500  1
  O  O11  1  0.24948400  0.75051600  0.74987500  1
  O  O12  1  0.75051600  0.24948400  0.25012500  1
  O  O13  1  0.75051600  0.24948400  0.74987500  1
  O  O14  1  0.75051600  0.75051600  0.25012500  1
  O  O15  1  0.75051600  0.75051600  0.74987500  1
  O  O16  1  0.00000000  0.00000000  0.23956100  1
  O  O17  1  0.00000000  0.00000000  0.76043900  1
  O  O18  1  0.00000000  0.50000000  0.24889400  1
  O  O19  1  0.00000000  0.50000000  0.75110600  1
  O  O20  1  0.50000000  0.00000000  0.24889400  1
  O  O21  1  0.50000000  0.00000000  0.75110600  1
  O  O22  1  0.50000000  0.50000000  0.24983200  1
  O  O23  1  0.50000000  0.50000000  0.75016800  1
  O  O24  1  0.00000000  0.25491600  0.00000000  1
  O  O25  1  0.00000000  0.26214800  0.50000000  1
  O  O26  1  0.00000000  0.74508400  0.00000000  1
  O  O27  1  0.00000000  0.73785200  0.50000000  1
  O  O28  1  0.50000000  0.25042000  0.00000000  1
  O  O29  1  0.50000000  0.25136300  0.50000000  1
  O  O30  1  0.50000000  0.74958000  0.00000000  1
  O  O31  1  0.50000000  0.74863700  0.50000000  1
loop_
_geom_bond_atom_site_label_1
_geom_bond_atom_site_label_2
_geom_bond_distance
_geom_bond_site_symmetry_2
Mg0 O26 2.098700 1_555
Mg0 O24 2.098700 1_555
Mg0 O18 2.131365 1_555
Mg0 O19 2.131365 1_554
Mg0 O6 2.144393 1_455
Mg0 O2 2.144393 1_555
Mg1 O27 2.036771 1_555
Mg1 O25 2.036771 1_555
Mg1 O19 2.150308 1_555
Mg1 O18 2.150308 1_555
Mg1 O3 2.152468 1_555
Mg1 O7 2.152468 1_455
Mg2 O4 2.098700 1_555
Mg2 O0 2.098700 1_555
Mg2 O20 2.131365 1_555
Mg2 O21 2.131365 1_554
Mg2 O30 2.144393 1_545
Mg2 O28 2.144393 1_555
Mg3 O5 2.036771 1_555
Mg3 O1 2.036771 1_555
Mg3 O21 2.150308 1_555
Mg3 O20 2.150308 1_555
Mg3 O31 2.152468 1_545
Mg3 O29 2.152468 1_555
Mg4 O28 2.137200 1_555
Mg4 O2 2.137200 1_555
Mg4 O30 2.137200 1_555
Mg4 O6 2.137200 1_555
Mg4 O22 2.139398 1_555
Mg4 O23 2.139398 1_554
Mg5 O31 2.129125 1_555
Mg5 O3 2.129125 1_555
Mg5 O29 2.129125 1_555
Mg5 O7 2.129125 1_555
Mg5 O23 2.142275 1_555
Mg5 O22 2.142275 1_555
Mg6 O24 2.124798 1_555
Mg6 O18 2.125068 1_555
Mg6 O8 2.136543 1_555
Mg6 O12 2.136543 1_455
Mg6 O16 2.157777 1_555
Mg6 O25 2.158844 1_555
Mg7 O24 2.124798 1_556
Mg7 O19 2.125068 1_555
Mg7 O9 2.136543 1_555
Mg7 O13 2.136543 1_455
Mg7 O17 2.157777 1_555
Mg7 O25 2.158844 1_555
Mg8 O26 2.124798 1_555
Mg8 O18 2.125068 1_555
Mg8 O10 2.136543 1_555
Mg8 O14 2.136543 1_455
Mg8 O16 2.157777 1_565
Mg8 O27 2.158844 1_555
Mg9 O26 2.124798 1_556
Mg9 O19 2.125068 1_555
Mg9 O11 2.136543 1_555
Mg9 O15 2.136543 1_455
Mg9 O17 2.157777 1_565
Mg9 O27 2.158844 1_555
Mg10 O28 2.139873 1_555
Mg10 O20 2.140265 1_555
Mg10 O22 2.141345 1_555
Mg10 O29 2.141839 1_555
Mg10 O12 2.145220 1_555
Mg10 O8 2.145220 1_555
Mg11 O28 2.139873 1_556
Mg11 O21 2.140265 1_555
Mg11 O23 2.141345 1_555
Mg11 O29 2.141839 1_555
Mg11 O13 2.145220 1_555
Mg11 O9 2.145220 1_555
Mg12 O30 2.139873 1_555
Mg12 O20 2.140265 1_565
Mg12 O22 2.141345 1_555
Mg12 O31 2.141839 1_555
Mg12 O14 2.145220 1_555
Mg12 O10 2.145220 1_555
Mg13 O30 2.139873 1_556
Mg13 O21 2.140265 1_565
Mg13 O23 2.141345 1_555
Mg13 O31 2.141839 1_555
Mg13 O15 2.145220 1_555
Mg13 O11 2.145220 1_555
Mg14 O0 2.124798 1_555
Mg14 O20 2.125068 1_555
Mg14 O8 2.136543 1_555
Mg14 O10 2.136543 1_545
Mg14 O16 2.157777 1_555
Mg14 O1 2.158844 1_555
Mg15 O0 2.124798 1_556
Mg15 O21 2.125068 1_555
Mg15 O9 2.136543 1_555
Mg15 O11 2.136543 1_545
Mg15 O17 2.157777 1_555
Mg15 O1 2.158844 1_555
Mg16 O2 2.139873 1_555
Mg16 O18 2.140265 1_555
Mg16 O22 2.141345 1_555
Mg16 O3 2.141839 1_555
Mg16 O10 2.145220 1_555
Mg16 O8 2.145220 1_555
Mg17 O2 2.139873 1_556
Mg17 O19 2.140265 1_555
Mg17 O23 2.141345 1_555
Mg17 O3 2.141839 1_555
Mg17 O11 2.145220 1_555
Mg17 O9 2.145220 1_555
Mg18 O4 2.124798 1_555
Mg18 O20 2.125068 1_555
Mg18 O12 2.136543 1_555
Mg18 O14 2.136543 1_545
Mg18 O16 2.157777 1_655
Mg18 O5 2.158844 1_555
Mg19 O4 2.124798 1_556
Mg19 O21 2.125068 1_555
Mg19 O13 2.136543 1_555
Mg19 O15 2.136543 1_545
Mg19 O17 2.157777 1_655
Mg19 O5 2.158844 1_555
Mg20 O6 2.139873 1_555
Mg20 O18 2.140265 1_655
Mg20 O22 2.141345 1_555
Mg20 O7 2.141839 1_555
Mg20 O14 2.145220 1_555
Mg20 O12 2.145220 1_555
Mg21 O6 2.139873 1_556
Mg21 O19 2.140265 1_655
Mg21 O23 2.141345 1_555
Mg21 O7 2.141839 1_555
Mg21 O15 2.145220 1_555
Mg21 O13 2.145220 1_555
Mg22 O24 2.139767 1_555
Mg22 O0 2.139767 1_555
Mg22 O8 2.141911 1_555
Mg22 O9 2.141911 1_554
Mg22 O28 2.142275 1_555
Mg22 O2 2.142275 1_555
Mg23 O3 2.126292 1_555
Mg23 O29 2.126292 1_555
Mg23 O9 2.139933 1_555
Mg23 O8 2.139933 1_555
Mg23 O1 2.157161 1_555
Mg23 O25 2.157161 1_555
Mg24 O26 2.139767 1_555
Mg24 O0 2.139767 1_565
Mg24 O10 2.141911 1_555
Mg24 O11 2.141911 1_554
Mg24 O2 2.142275 1_555
Mg24 O30 2.142275 1_555
Mg25 O3 2.126292 1_555
Mg25 O31 2.126292 1_555
Mg25 O11 2.139933 1_555
Mg25 O10 2.139933 1_555
Mg25 O27 2.157161 1_555
Mg25 O1 2.157161 1_565
Mg26 O4 2.139767 1_555
Mg26 O24 2.139767 1_655
Mg26 O12 2.141911 1_555
Mg26 O13 2.141911 1_554
Mg26 O28 2.142275 1_555
Mg26 O6 2.142275 1_555
Mg27 O29 2.126292 1_555
Mg27 O7 2.126292 1_555
Mg27 O13 2.139933 1_555
Mg27 O12 2.139933 1_555
Mg27 O5 2.157161 1_555
Mg27 O25 2.157161 1_655
Mg28 O26 2.139767 1_655
Mg28 O4 2.139767 1_565
Mg28 O14 2.141911 1_555
Mg28 O15 2.141911 1_554
Mg28 O30 2.142275 1_555
Mg28 O6 2.142275 1_555
Mg29 O7 2.126292 1_555
Mg29 O31 2.126292 1_555
Mg29 O15 2.139933 1_555
Mg29 O14 2.139933 1_555
Mg29 O5 2.157161 1_565
Mg29 O27 2.157161 1_655
Nb0 O16 2.230229 1_555
Nb0 O17 2.230229 1_555
Nb0 O1 2.244822 1_555
Nb0 O25 2.244822 1_555
Nb0 O5 2.244822 1_455
Nb0 O27 2.244822 1_545
O0 Zn0 2.182893 1_555
O4 Zn0 2.182893 1_655
O16 Zn0 2.051444 1_555
O17 Zn0 2.051444 1_556
O24 Zn0 2.182893 1_555
O26 Zn0 2.182893 1_565
