# generated using pymatgen
data_Ba2Li3Y3(WO4)8
_symmetry_space_group_name_H-M   'P 1'
_cell_length_a   5.25966600
_cell_length_b   6.94096978
_cell_length_c   19.39064270
_cell_angle_alpha   88.54441605
_cell_angle_beta   87.64089694
_cell_angle_gamma   68.04969718
_symmetry_Int_Tables_number   1
_chemical_formula_structural   Ba2Li3Y3(WO4)8
_chemical_formula_sum   'Ba2 Li3 Y3 W8 O32'
_cell_volume   655.98633297
_cell_formula_units_Z   1
loop_
 _symmetry_equiv_pos_site_id
 _symmetry_equiv_pos_as_xyz
  1  'x, y, z'
loop_
 _atom_site_type_symbol
 _atom_site_label
 _atom_site_symmetry_multiplicity
 _atom_site_fract_x
 _atom_site_fract_y
 _atom_site_fract_z
 _atom_site_occupancy
  Ba  Ba0  1  0.46675100  0.06866600  0.76457000  1
  Ba  Ba1  1  0.53176100  0.93211500  0.23905200  1
  Li  Li0  1  0.19451700  0.63706200  0.75780000  1
  Li  Li1  1  0.80852200  0.35984600  0.24322600  1
  Li  Li2  1  0.35090700  0.29072200  0.96332500  1
  Y  Y0  1  0.35808200  0.28982200  0.53318400  1
  Y  Y1  1  0.65308100  0.70556500  0.02861000  1
  Y  Y2  1  0.64146300  0.71033000  0.46822500  1
  W  W0  1  0.07502000  0.88051600  0.90681700  1
  W  W1  1  0.04159900  0.87390300  0.59558200  1
  W  W2  1  0.92461100  0.12095600  0.09100900  1
  W  W3  1  0.95842200  0.12465300  0.40497900  1
  W  W4  1  0.75952300  0.48311300  0.85187100  1
  W  W5  1  0.75883000  0.48984500  0.65031800  1
  W  W6  1  0.24349700  0.51240400  0.14901800  1
  W  W7  1  0.24224300  0.50995000  0.35062600  1
  O  O0  1  0.77618300  0.95566300  0.96671500  1
  O  O1  1  0.27403000  0.95895500  0.53694600  1
  O  O2  1  0.23316300  0.02738400  0.03617600  1
  O  O3  1  0.72543200  0.03969500  0.46268000  1
  O  O4  1  0.47709200  0.71229600  0.82092400  1
  O  O5  1  0.79184500  0.73485800  0.66972800  1
  O  O6  1  0.51737000  0.28191300  0.18022500  1
  O  O7  1  0.20818400  0.26697100  0.32938800  1
  O  O8  1  0.91003600  0.53270500  0.93025500  1
  O  O9  1  0.56823700  0.52388600  0.56793500  1
  O  O10  1  0.08041100  0.48070700  0.07164100  1
  O  O11  1  0.43444900  0.47542600  0.43241500  1
  O  O12  1  0.00996400  0.41759800  0.77837200  1
  O  O13  1  0.55643300  0.40891500  0.71193400  1
  O  O14  1  0.98626600  0.58493700  0.22037100  1
  O  O15  1  0.44024500  0.59028400  0.28742200  1
  O  O16  1  0.17326300  0.10144300  0.89097700  1
  O  O17  1  0.72308900  0.09923800  0.60297900  1
  O  O18  1  0.80622100  0.90426100  0.10730200  1
  O  O19  1  0.27806800  0.90024200  0.39632600  1
  O  O20  1  0.34583900  0.67307200  0.95406800  1
  O  O21  1  0.01198700  0.65915400  0.54210800  1
  O  O22  1  0.66798000  0.34719900  0.04886600  1
  O  O23  1  0.99058600  0.33970600  0.45738900  1
  O  O24  1  0.94339400  0.83193700  0.82547900  1
  O  O25  1  0.22528900  0.82777700  0.67412900  1
  O  O26  1  0.05239000  0.16573300  0.17333100  1
  O  O27  1  0.77671300  0.17207500  0.32590400  1
  O  O28  1  0.60200800  0.29424600  0.86478500  1
  O  O29  1  0.10368600  0.29892400  0.63169900  1
  O  O30  1  0.40542300  0.70308500  0.13513300  1
  O  O31  1  0.89589600  0.70024600  0.36818500  1
loop_
_geom_bond_atom_site_label_1
_geom_bond_atom_site_label_2
_geom_bond_distance
_geom_bond_site_symmetry_2
Ba0 O4 2.661296 1_545
Ba0 O12 2.709138 1_555
Ba0 O24 2.728610 1_545
Ba0 O13 2.740871 1_555
Ba0 O28 2.799096 1_555
Ba0 O16 2.810135 1_555
Ba0 O5 2.944464 1_545
Ba0 O25 3.066569 1_545
Ba0 O29 3.279202 1_555
Ba0 O17 3.393087 1_555
Ba1 O6 2.632642 1_565
Ba1 O14 2.705405 1_555
Ba1 O15 2.728441 1_555
Ba1 O26 2.777323 1_565
Ba1 O30 2.844613 1_555
Ba1 O18 2.856691 1_555
Ba1 O7 2.893276 1_565
Ba1 O27 3.032421 1_565
Ba1 O31 3.227044 1_555
Ba1 O19 3.313781 1_555
Li0 O24 1.976923 1_455
Li0 O25 2.107188 1_555
Li0 O12 2.112929 1_555
Li0 O13 2.144942 1_555
Li0 O4 2.177684 1_555
Li1 O26 1.988733 1_655
Li1 O27 2.081245 1_555
Li1 O14 2.129318 1_555
Li1 O15 2.159051 1_555
Li1 O6 2.221919 1_555
Li2 O28 2.282515 1_555
Li2 O16 2.384603 1_555
Li2 O8 2.401090 1_455
Li2 O2 2.522505 1_556
Li2 O22 2.536860 1_556
Li2 O0 2.555682 1_545
Li2 O10 2.581956 1_556
Li2 O20 2.645622 1_555
O0 W0 1.832793 1_655
O0 Y1 2.354476 1_556
O1 W1 1.877977 1_555
O1 Y2 2.429009 1_555
O1 Y0 2.494534 1_565
O2 W2 1.814137 1_455
O2 Y1 2.488134 1_545
O3 W3 1.869534 1_555
O3 Y0 2.451863 1_555
O3 Y2 2.484221 1_545
O4 W4 1.831814 1_555
O4 W0 2.563656 1_555
O5 W5 1.822805 1_555
O5 W1 2.333657 1_655
O6 W6 1.816679 1_555
O6 W2 2.613994 1_555
O7 W7 1.820227 1_555
O8 W4 1.839754 1_555
O8 Y1 2.365411 1_556
O9 W5 1.883667 1_555
O9 Y2 2.396963 1_555
O9 Y0 2.403070 1_555
O10 W6 1.816360 1_555
O10 Y1 2.376881 1_455
O11 W7 1.877819 1_555
O11 Y2 2.402723 1_555
O11 Y0 2.415233 1_555
O12 W4 1.844894 1_455
O13 W5 1.784525 1_555
O14 W6 1.835834 1_655
O15 W7 1.786569 1_555
O16 W0 1.807814 1_545
O17 W1 1.818255 1_645
O17 Y0 2.343400 1_555
O18 W2 1.846522 1_565
O18 Y1 2.432636 1_555
O19 W3 1.820214 1_465
O19 Y2 2.361553 1_555
O20 W0 1.857081 1_555
O20 Y1 2.287542 1_556
O21 W1 1.893825 1_555
O21 Y2 2.379715 1_455
O21 Y0 2.534395 1_555
O22 W2 1.843005 1_555
O22 Y1 2.480884 1_555
O23 W3 1.889312 1_555
O23 Y0 2.392436 1_655
O23 Y2 2.549101 1_555
O24 W0 1.836290 1_655
O25 W1 1.794666 1_555
O26 W2 1.834682 1_455
O27 W3 1.797952 1_555
O28 W4 1.801605 1_555
O29 W5 1.830254 1_455
O29 Y0 2.275077 1_555
O30 W6 1.831733 1_555
O30 Y1 2.399377 1_555
O31 W7 1.830839 1_655
O31 Y2 2.298239 1_555
