# generated using pymatgen
data_MgCrN2
_symmetry_space_group_name_H-M   'P 1'
_cell_length_a   5.63007381
_cell_length_b   6.55725305
_cell_length_c   5.06632725
_cell_angle_alpha   90.00013463
_cell_angle_beta   90.00063573
_cell_angle_gamma   89.99910602
_symmetry_Int_Tables_number   1
_chemical_formula_structural   MgCrN2
_chemical_formula_sum   'Mg4 Cr4 N8'
_cell_volume   187.03775068
_cell_formula_units_Z   4
loop_
 _symmetry_equiv_pos_site_id
 _symmetry_equiv_pos_as_xyz
  1  'x, y, z'
loop_
 _atom_site_type_symbol
 _atom_site_label
 _atom_site_symmetry_multiplicity
 _atom_site_fract_x
 _atom_site_fract_y
 _atom_site_fract_z
 _atom_site_occupancy
  Mg  Mg0  1  0.59001346  0.87773090  0.99214869  1
  Mg  Mg1  1  0.40998653  0.12228335  0.49213955  1
  Mg  Mg2  1  0.90999079  0.37772229  0.49214890  1
  Mg  Mg3  1  0.09000370  0.62225973  0.99215511  1
  Cr  Cr0  1  0.57448130  0.37195215  0.00118252  1
  Cr  Cr1  1  0.42551733  0.62803311  0.50117627  1
  Cr  Cr2  1  0.92552207  0.87197000  0.50118079  1
  Cr  Cr3  1  0.07447986  0.12804571  0.00118515  1
  N  N0  1  0.56053035  0.39434609  0.36663146  1
  N  N1  1  0.43947425  0.60564889  0.86665374  1
  N  N2  1  0.93948226  0.89434247  0.86666499  1
  N  N3  1  0.06052822  0.10566511  0.36664632  1
  N  N4  1  0.60348971  0.85599197  0.41001982  1
  N  N5  1  0.39650978  0.14401658  0.91002175  1
  N  N6  1  0.89650292  0.35597983  0.91002286  1
  N  N7  1  0.10348647  0.64401081  0.41001710  1
loop_
_geom_bond_atom_site_label_1
_geom_bond_atom_site_label_2
_geom_bond_distance
_geom_bond_site_symmetry_2
Mg0 N2 2.070570 1_555
Mg0 N1 2.075007 1_555
Mg0 N5 2.099717 1_565
Mg0 N4 2.123221 1_556
Mg1 N3 2.070518 1_555
Mg1 N0 2.074938 1_555
Mg1 N4 2.099743 1_545
Mg1 N5 2.123276 1_555
Mg2 N0 2.070566 1_555
Mg2 N3 2.074858 1_655
Mg2 N7 2.099747 1_655
Mg2 N6 2.123241 1_555
Mg3 N1 2.070604 1_555
Mg3 N2 2.074943 1_455
Mg3 N6 2.099709 1_455
Mg3 N7 2.123181 1_556
Cr0 N1 1.841336 1_554
Cr0 N5 1.857754 1_554
Cr0 N0 1.858958 1_555
Cr0 N6 1.873839 1_554
Cr1 N0 1.841330 1_555
Cr1 N4 1.857882 1_555
Cr1 N1 1.859098 1_555
Cr1 N7 1.873881 1_555
Cr2 N3 1.841362 1_665
Cr2 N7 1.857841 1_655
Cr2 N2 1.859126 1_555
Cr2 N4 1.873894 1_555
Cr3 N2 1.841350 1_444
Cr3 N6 1.857742 1_454
Cr3 N3 1.859014 1_555
Cr3 N5 1.873891 1_554
