# generated using pymatgen
data_LiOs2N3
_symmetry_space_group_name_H-M   'P 1'
_cell_length_a   5.58276532
_cell_length_b   5.87002642
_cell_length_c   5.08514700
_cell_angle_alpha   90.00000000
_cell_angle_beta   90.00000000
_cell_angle_gamma   121.71722570
_symmetry_Int_Tables_number   1
_chemical_formula_structural   LiOs2N3
_chemical_formula_sum   'Li2 Os4 N6'
_cell_volume   141.75729729
_cell_formula_units_Z   2
loop_
 _symmetry_equiv_pos_site_id
 _symmetry_equiv_pos_as_xyz
  1  'x, y, z'
loop_
 _atom_site_type_symbol
 _atom_site_label
 _atom_site_symmetry_multiplicity
 _atom_site_fract_x
 _atom_site_fract_y
 _atom_site_fract_z
 _atom_site_occupancy
  Li  Li0  1  0.00000000  0.67879200  0.49780900  1
  Li  Li1  1  0.00000000  0.32120800  0.99780900  1
  Os  Os0  1  0.36675000  0.39425300  0.48220700  1
  Os  Os1  1  0.63325000  0.02750300  0.48220700  1
  Os  Os2  1  0.63325000  0.60574700  0.98220700  1
  Os  Os3  1  0.36675000  0.97249700  0.98220700  1
  N  N0  1  0.32027000  0.26583900  0.85398100  1
  N  N1  1  0.67973000  0.94556900  0.85398100  1
  N  N2  1  0.67973000  0.73416100  0.35398100  1
  N  N3  1  0.32027000  0.05443100  0.35398100  1
  N  N4  1  0.00000000  0.67223300  0.91781500  1
  N  N5  1  0.00000000  0.32776700  0.41781500  1
loop_
_geom_bond_atom_site_label_1
_geom_bond_atom_site_label_2
_geom_bond_distance
_geom_bond_site_symmetry_2
Li0 N5 2.100295 1_555
Li0 N2 2.109149 1_455
Li0 N3 2.109149 1_565
Li0 N4 2.136139 1_555
Li1 N4 2.100295 1_555
Li1 N0 2.109149 1_555
Li1 N1 2.109149 1_445
Li1 N5 2.136139 1_556
N0 Os2 1.947714 1_555
N0 Os3 1.981750 1_545
N0 Os0 2.000990 1_555
N1 Os3 1.947714 1_555
N1 Os2 1.981750 1_555
N1 Os1 2.000990 1_565
N2 Os0 1.947714 1_555
N2 Os1 1.981750 1_565
N2 Os2 2.000990 1_554
N3 Os1 1.947714 1_555
N3 Os0 1.981750 1_555
N3 Os3 2.000990 1_544
N4 Os2 1.900397 1_455
N4 Os3 1.900397 1_555
N5 Os0 1.900397 1_555
N5 Os1 1.900397 1_455
