# generated using pymatgen
data_HfMg14Cr
_symmetry_space_group_name_H-M   'P 1'
_cell_length_a   6.34677000
_cell_length_b   6.34676949
_cell_length_c   10.15044892
_cell_angle_alpha   90.00000000
_cell_angle_beta   90.00000000
_cell_angle_gamma   120.00000267
_symmetry_Int_Tables_number   1
_chemical_formula_structural   HfMg14Cr
_chemical_formula_sum   'Hf1 Mg14 Cr1'
_cell_volume   354.09627283
_cell_formula_units_Z   1
loop_
 _symmetry_equiv_pos_site_id
 _symmetry_equiv_pos_as_xyz
  1  'x, y, z'
loop_
 _atom_site_type_symbol
 _atom_site_label
 _atom_site_symmetry_multiplicity
 _atom_site_fract_x
 _atom_site_fract_y
 _atom_site_fract_z
 _atom_site_occupancy
  Hf  Hf0  1  0.16666700  0.33333300  0.62500000  1
  Mg  Mg0  1  0.16667836  0.83333868  0.12500000  1
  Mg  Mg1  1  0.17209417  0.83604659  0.62500000  1
  Mg  Mg2  1  0.66666132  0.33332164  0.12500000  1
  Mg  Mg3  1  0.66395341  0.32790583  0.62500000  1
  Mg  Mg4  1  0.66666132  0.83333868  0.12500000  1
  Mg  Mg5  1  0.66395341  0.83604659  0.62500000  1
  Mg  Mg6  1  0.32946208  0.17053792  0.37361055  1
  Mg  Mg7  1  0.32946208  0.17053792  0.87638945  1
  Mg  Mg8  1  0.32946208  0.65892516  0.37361055  1
  Mg  Mg9  1  0.32946208  0.65892516  0.87638945  1
  Mg  Mg10  1  0.84107484  0.17053792  0.37361055  1
  Mg  Mg11  1  0.84107484  0.17053792  0.87638945  1
  Mg  Mg12  1  0.83333300  0.66666700  0.37741249  1
  Mg  Mg13  1  0.83333300  0.66666700  0.87258751  1
  Cr  Cr0  1  0.16666700  0.33333300  0.12500000  1
loop_
_geom_bond_atom_site_label_1
_geom_bond_atom_site_label_2
_geom_bond_distance
_geom_bond_site_symmetry_2
Hf0 Mg6 3.116713 1_555
Hf0 Mg7 3.116713 1_555
Hf0 Mg9 3.116720 1_555
Hf0 Mg8 3.116720 1_555
Hf0 Mg10 3.116720 1_455
Hf0 Mg11 3.116720 1_455
Hf0 Mg1 3.173525 1_545
Hf0 Mg5 3.173525 1_555
Hf0 Mg5 3.173525 1_445
Hf0 Mg1 3.173525 1_555
Hf0 Mg3 3.173525 1_555
Hf0 Mg3 3.173525 1_455
Mg0 Mg9 3.131217 1_554
Mg0 Mg8 3.131217 1_555
Mg0 Mg6 3.131224 1_565
Mg0 Mg7 3.131224 1_564
Mg0 Mg12 3.149824 1_455
Mg0 Mg13 3.149824 1_454
Mg0 Mg2 3.173277 1_565
Mg0 Mg4 3.173277 1_555
Mg0 Mg2 3.173493 1_455
Mg0 Mg4 3.173493 1_455
Mg1 Mg3 3.121717 1_565
Mg1 Mg5 3.121717 1_555
Mg1 Mg13 3.127746 1_455
Mg1 Mg12 3.127746 1_455
Mg1 Mg8 3.145679 1_555
Mg1 Mg9 3.145679 1_555
Mg1 Mg7 3.145685 1_565
Mg1 Mg6 3.145685 1_565
Mg1 Mg3 3.225052 1_455
Mg1 Mg5 3.225053 1_455
Mg2 Mg6 3.131224 1_555
Mg2 Mg7 3.131224 1_554
Mg2 Mg4 3.173277 1_545
Mg2 Mg4 3.173493 1_555
Mg3 Mg5 3.121717 1_545
Mg3 Mg6 3.145686 1_555
Mg3 Mg7 3.145686 1_555
Mg3 Mg5 3.225052 1_555
Mg4 Mg9 3.131224 1_554
Mg4 Mg8 3.131224 1_555
Mg5 Mg8 3.145685 1_555
Mg5 Mg9 3.145685 1_555
Mg6 Mg8 3.099681 1_555
Mg6 Mg8 3.247088 1_545
Mg7 Mg9 3.099681 1_555
Mg7 Mg9 3.247088 1_545
Mg10 Mg8 3.099681 1_655
Mg10 Mg6 3.099681 1_655
Mg10 Mg2 3.131217 1_555
Mg10 Mg4 3.131224 1_545
Mg10 Mg3 3.145679 1_555
Mg10 Mg5 3.145685 1_545
Mg10 Mg12 3.173905 1_545
Mg10 Mg12 3.173905 1_555
Mg10 Mg8 3.247088 1_545
Mg10 Mg6 3.247089 1_555
Mg11 Mg9 3.099681 1_655
Mg11 Mg7 3.099681 1_655
Mg11 Mg2 3.131217 1_556
Mg11 Mg4 3.131224 1_546
Mg11 Mg3 3.145679 1_555
Mg11 Mg5 3.145685 1_545
Mg11 Mg13 3.173905 1_545
Mg11 Mg13 3.173905 1_555
Mg11 Mg9 3.247088 1_545
Mg11 Mg7 3.247089 1_555
Mg12 Mg5 3.127740 1_555
Mg12 Mg3 3.127746 1_555
Mg12 Mg4 3.149817 1_555
Mg12 Mg2 3.149824 1_555
Mg12 Mg6 3.173905 1_665
Mg12 Mg6 3.173905 1_555
Mg12 Mg8 3.173905 1_655
Mg12 Mg8 3.173905 1_555
Mg13 Mg5 3.127740 1_555
Mg13 Mg3 3.127746 1_555
Mg13 Mg4 3.149817 1_556
Mg13 Mg2 3.149824 1_556
Mg13 Mg7 3.173905 1_665
Mg13 Mg7 3.173905 1_555
Mg13 Mg9 3.173905 1_655
Mg13 Mg9 3.173905 1_555
Cr0 Mg7 3.093662 1_554
Cr0 Mg6 3.093662 1_555
Cr0 Mg8 3.093668 1_555
Cr0 Mg9 3.093668 1_554
Cr0 Mg10 3.093668 1_455
Cr0 Mg11 3.093668 1_454
Cr0 Mg0 3.173385 1_555
Cr0 Mg4 3.173385 1_555
Cr0 Mg4 3.173385 1_445
Cr0 Mg0 3.173385 1_545
Cr0 Mg2 3.173385 1_455
Cr0 Mg2 3.173385 1_555
