# generated using pymatgen
data_Sm2MgS4
_symmetry_space_group_name_H-M   'P 1'
_cell_length_a   8.04596442
_cell_length_b   8.04596442
_cell_length_c   8.04596442
_cell_angle_alpha   60.00000000
_cell_angle_beta   60.00000000
_cell_angle_gamma   60.00000000
_symmetry_Int_Tables_number   1
_chemical_formula_structural   Sm2MgS4
_chemical_formula_sum   'Sm4 Mg2 S8'
_cell_volume   368.31493091
_cell_formula_units_Z   2
loop_
 _symmetry_equiv_pos_site_id
 _symmetry_equiv_pos_as_xyz
  1  'x, y, z'
loop_
 _atom_site_type_symbol
 _atom_site_label
 _atom_site_symmetry_multiplicity
 _atom_site_fract_x
 _atom_site_fract_y
 _atom_site_fract_z
 _atom_site_occupancy
  Sm  Sm0  1  0.62500000  0.12500000  0.62500000  1
  Sm  Sm1  1  0.62500000  0.62500000  0.12500000  1
  Sm  Sm2  1  0.12500000  0.62500000  0.62500000  1
  Sm  Sm3  1  0.62500000  0.62500000  0.62500000  1
  Mg  Mg0  1  0.00000000  0.00000000  0.00000000  1
  Mg  Mg1  1  0.25000000  0.25000000  0.25000000  1
  S  S0  1  0.37851800  0.37851800  0.37851800  1
  S  S1  1  0.86444600  0.37851800  0.37851800  1
  S  S2  1  0.37851800  0.86444600  0.37851800  1
  S  S3  1  0.37851800  0.37851800  0.86444600  1
  S  S4  1  0.87148200  0.87148200  0.38555400  1
  S  S5  1  0.87148200  0.38555400  0.87148200  1
  S  S6  1  0.38555400  0.87148200  0.87148200  1
  S  S7  1  0.87148200  0.87148200  0.87148200  1
loop_
_geom_bond_atom_site_label_1
_geom_bond_atom_site_label_2
_geom_bond_distance
_geom_bond_site_symmetry_2
Mg0 S5 2.532898 1_454
Mg0 S4 2.532898 1_445
Mg0 S7 2.532898 1_444
Mg0 S6 2.532898 1_544
Mg1 S0 2.532898 1_555
Mg1 S2 2.532898 1_545
Mg1 S1 2.532898 1_455
Mg1 S3 2.532898 1_554
S0 Sm1 2.805219 1_555
S0 Sm0 2.805219 1_555
S0 Sm2 2.805219 1_555
S1 Sm1 2.805219 1_555
S1 Sm0 2.805219 1_555
S1 Sm3 2.805219 1_555
S2 Sm1 2.805219 1_555
S2 Sm2 2.805219 1_555
S2 Sm3 2.805219 1_555
S3 Sm0 2.805219 1_555
S3 Sm2 2.805219 1_555
S3 Sm3 2.805219 1_555
S4 Sm2 2.805219 1_655
S4 Sm3 2.805219 1_555
S4 Sm0 2.805219 1_565
S5 Sm2 2.805219 1_655
S5 Sm3 2.805219 1_555
S5 Sm1 2.805219 1_556
S6 Sm3 2.805219 1_555
S6 Sm1 2.805219 1_556
S6 Sm0 2.805219 1_565
S7 Sm2 2.805219 1_655
S7 Sm1 2.805219 1_556
S7 Sm0 2.805219 1_565
