# generated using pymatgen
data_Na3Mo9P(H5O17)2
_symmetry_space_group_name_H-M   'P 1'
_cell_length_a   10.53727081
_cell_length_b   14.46676371
_cell_length_c   14.46676371
_cell_angle_alpha   119.99999674
_cell_angle_beta   90.00000000
_cell_angle_gamma   90.00000000
_symmetry_Int_Tables_number   1
_chemical_formula_structural   Na3Mo9P(H5O17)2
_chemical_formula_sum   'Na6 Mo18 P2 H20 O68'
_cell_volume   1909.86013446
_cell_formula_units_Z   2
loop_
 _symmetry_equiv_pos_site_id
 _symmetry_equiv_pos_as_xyz
  1  'x, y, z'
loop_
 _atom_site_type_symbol
 _atom_site_label
 _atom_site_symmetry_multiplicity
 _atom_site_fract_x
 _atom_site_fract_y
 _atom_site_fract_z
 _atom_site_occupancy
  Na  Na0  1  0.74141429  0.62404303  0.81929628  1
  Na  Na1  1  0.74141429  0.19525324  0.37595697  1
  Na  Na2  1  0.24141429  0.37595697  0.18070372  1
  Na  Na3  1  0.74141429  0.18070372  0.80474676  1
  Na  Na4  1  0.24141429  0.80474676  0.62404303  1
  Na  Na5  1  0.24141429  0.81929628  0.19525324  1
  Mo  Mo0  1  0.56950310  0.76163105  0.26980998  1
  Mo  Mo1  1  0.56950310  0.50817893  0.23836895  1
  Mo  Mo2  1  0.06950310  0.23836895  0.73019002  1
  Mo  Mo3  1  0.56950310  0.73019002  0.49182107  1
  Mo  Mo4  1  0.06950310  0.49182107  0.76163105  1
  Mo  Mo5  1  0.06950310  0.26980998  0.50817893  1
  Mo  Mo6  1  0.83679287  0.94532059  0.41058736  1
  Mo  Mo7  1  0.83679287  0.46526677  0.05467941  1
  Mo  Mo8  1  0.33679287  0.05467941  0.58941264  1
  Mo  Mo9  1  0.83679287  0.58941264  0.53473323  1
  Mo  Mo10  1  0.33679287  0.53473323  0.94532059  1
  Mo  Mo11  1  0.33679287  0.41058736  0.46526677  1
  Mo  Mo12  1  0.88497563  0.72656372  0.11502640  1
  Mo  Mo13  1  0.88497563  0.38846267  0.27343628  1
  Mo  Mo14  1  0.38497563  0.27343628  0.88497360  1
  Mo  Mo15  1  0.88497563  0.88497360  0.61153733  1
  Mo  Mo16  1  0.38497563  0.61153733  0.72656372  1
  Mo  Mo17  1  0.38497563  0.11502640  0.38846267  1
  P  P0  1  0.85440129  0.66666700  0.33333300  1
  P  P1  1  0.35440129  0.33333300  0.66666700  1
  H  H0  1  0.93354446  0.91889394  0.93548068  1
  H  H1  1  0.93354446  0.01658673  0.08110606  1
  H  H2  1  0.43354446  0.08110606  0.06451932  1
  H  H3  1  0.93354446  0.06451932  0.98341327  1
  H  H4  1  0.43354446  0.98341327  0.91889394  1
  H  H5  1  0.43354446  0.93548068  0.01658673  1
  H  H6  1  0.60736798  0.74184911  0.98456290  1
  H  H7  1  0.60736798  0.24271378  0.25815089  1
  H  H8  1  0.10736798  0.25815089  0.01543710  1
  H  H9  1  0.60736798  0.01543710  0.75728622  1
  H  H10  1  0.10736798  0.75728622  0.74184911  1
  H  H11  1  0.10736798  0.98456290  0.24271378  1
  H  H12  1  0.65214201  0.98608454  0.18489345  1
  H  H13  1  0.65214201  0.19880892  0.01391546  1
  H  H14  1  0.15214201  0.01391546  0.81510655  1
  H  H15  1  0.65214201  0.81510655  0.80119108  1
  H  H16  1  0.15214201  0.80119108  0.98608454  1
  H  H17  1  0.15214201  0.18489345  0.19880892  1
  H  H18  1  0.92934864  -0.00000000  -0.00000000  1
  H  H19  1  0.42934864  -0.00000000  -0.00000000  1
  O  O0  1  0.82019993  0.57819211  0.64724491  1
  O  O1  1  0.82019993  0.06905280  0.42180789  1
  O  O2  1  0.32019993  0.42180789  0.35275509  1
  O  O3  1  0.82019993  0.35275509  0.93094720  1
  O  O4  1  0.32019993  0.93094720  0.57819211  1
  O  O5  1  0.32019993  0.64724491  0.06905280  1
  O  O6  1  0.52367246  0.38043875  0.46549338  1
  O  O7  1  0.52367246  0.08505463  0.61956125  1
  O  O8  1  0.02367246  0.61956125  0.53450662  1
  O  O9  1  0.52367246  0.53450662  0.91494537  1
  O  O10  1  0.02367246  0.91494537  0.38043875  1
  O  O11  1  0.02367246  0.46549338  0.08505463  1
  O  O12  1  0.67692877  0.88791181  0.37608514  1
  O  O13  1  0.67692877  0.48817333  0.11208819  1
  O  O14  1  0.17692877  0.11208819  0.62391486  1
  O  O15  1  0.67692877  0.62391486  0.51182667  1
  O  O16  1  0.17692877  0.51182667  0.88791181  1
  O  O17  1  0.17692877  0.37608514  0.48817333  1
  O  O18  1  0.55114239  0.61235502  0.72901593  1
  O  O19  1  0.55114239  0.11666091  0.38764498  1
  O  O20  1  0.05114239  0.38764498  0.27098407  1
  O  O21  1  0.55114239  0.27098407  0.88333909  1
  O  O22  1  0.05114239  0.88333909  0.61235502  1
  O  O23  1  0.05114239  0.72901593  0.11666091  1
  O  O24  1  0.00183549  0.41245821  0.62480112  1
  O  O25  1  0.00183549  0.21234292  0.58754179  1
  O  O26  1  0.50183549  0.58754179  0.37519888  1
  O  O27  1  0.00183549  0.37519888  0.78765708  1
  O  O28  1  0.50183549  0.78765708  0.41245821  1
  O  O29  1  0.50183549  0.62480112  0.21234292  1
  O  O30  1  0.89920038  0.78165949  0.41366867  1
  O  O31  1  0.89920038  0.63200918  0.21834051  1
  O  O32  1  0.39920038  0.21834051  0.58633133  1
  O  O33  1  0.89920038  0.58633133  0.36799082  1
  O  O34  1  0.39920038  0.36799082  0.78165949  1
  O  O35  1  0.39920038  0.41366867  0.63200918  1
  O  O36  1  0.84353140  0.77350707  0.02984998  1
  O  O37  1  0.84353140  0.25634291  0.22649293  1
  O  O38  1  0.34353140  0.22649293  0.97015002  1
  O  O39  1  0.84353140  0.97015002  0.74365709  1
  O  O40  1  0.34353140  0.74365709  0.77350707  1
  O  O41  1  0.34353140  0.02984998  0.25634291  1
  O  O42  1  0.88072268  0.86010877  0.25677733  1
  O  O43  1  0.88072268  0.39666856  0.13989123  1
  O  O44  1  0.38072268  0.13989123  0.74322267  1
  O  O45  1  0.88072268  0.74322267  0.60333144  1
  O  O46  1  0.38072268  0.60333144  0.86010877  1
  O  O47  1  0.38072268  0.25677733  0.39666856  1
  O  O48  1  0.69613319  0.73309477  0.17191173  1
  O  O49  1  0.69613319  0.43881696  0.26690523  1
  O  O50  1  0.19613319  0.26690523  0.82808827  1
  O  O51  1  0.69613319  0.82808827  0.56118304  1
  O  O52  1  0.19613319  0.56118304  0.73309477  1
  O  O53  1  0.19613319  0.17191173  0.43881696  1
  O  O54  1  0.95527776  0.58909938  0.82663839  1
  O  O55  1  0.95527776  0.23753901  0.41090062  1
  O  O56  1  0.45527776  0.41090062  0.17336161  1
  O  O57  1  0.95527776  0.17336161  0.76246099  1
  O  O58  1  0.45527776  0.76246099  0.58909938  1
  O  O59  1  0.45527776  0.82663839  0.23753901  1
  O  O60  1  0.85254094  0.98169442  0.55532472  1
  O  O61  1  0.85254094  0.57363030  0.01830558  1
  O  O62  1  0.35254094  0.01830558  0.44467528  1
  O  O63  1  0.85254094  0.44467528  0.42636970  1
  O  O64  1  0.35254094  0.42636970  0.98169442  1
  O  O65  1  0.35254094  0.55532472  0.57363030  1
  O  O66  1  0.70537295  0.66666700  0.33333300  1
  O  O67  1  0.20537295  0.33333300  0.66666700  1
loop_
_geom_bond_atom_site_label_1
_geom_bond_atom_site_label_2
_geom_bond_distance
_geom_bond_site_symmetry_2
Na0 O54 2.323566 1_555
Na0 O18 2.352311 1_555
Na0 O0 2.381898 1_555
Na0 O36 2.919797 1_556
Na1 O55 2.323566 1_555
Na1 O19 2.352311 1_555
Na1 O1 2.381898 1_555
Na1 O37 2.919797 1_555
Na2 O56 2.323566 1_555
Na2 O20 2.352311 1_555
Na2 O2 2.381898 1_555
Na2 O38 2.919797 1_554
Na3 O57 2.323566 1_555
Na3 O21 2.352311 1_555
Na3 O3 2.381898 1_555
Na3 O39 2.919797 1_545
Na4 O58 2.323566 1_555
Na4 O22 2.352311 1_555
Na4 O4 2.381898 1_555
Na4 O40 2.919797 1_555
Na5 O59 2.323566 1_555
Na5 O23 2.352311 1_555
Na5 O5 2.381898 1_555
Na5 O41 2.919797 1_565
Mo0 O59 1.729207 1_555
Mo0 O48 1.836308 1_555
Mo0 O29 1.863404 1_555
Mo0 O28 2.032700 1_555
Mo0 O12 2.043004 1_555
Mo0 O66 2.458488 1_555
Mo1 O56 1.729207 1_555
Mo1 O49 1.836308 1_555
Mo1 O26 1.863404 1_555
Mo1 O29 2.032700 1_555
Mo1 O13 2.043004 1_555
Mo1 O66 2.458497 1_555
Mo2 O57 1.729207 1_455
Mo2 O50 1.836308 1_555
Mo2 O27 1.863404 1_555
Mo2 O25 2.032700 1_555
Mo2 O14 2.043004 1_555
Mo2 O67 2.458488 1_555
Mo3 O58 1.729207 1_555
Mo3 O51 1.836308 1_555
Mo3 O28 1.863404 1_555
Mo3 O26 2.032700 1_555
Mo3 O15 2.043004 1_555
Mo3 O66 2.458498 1_555
Mo4 O54 1.729207 1_455
Mo4 O52 1.836308 1_555
Mo4 O24 1.863404 1_555
Mo4 O27 2.032700 1_555
Mo4 O16 2.043004 1_555
Mo4 O67 2.458497 1_555
Mo5 O55 1.729207 1_455
Mo5 O53 1.836308 1_555
Mo5 O25 1.863404 1_555
Mo5 O24 2.032700 1_555
Mo5 O17 2.043004 1_555
Mo5 O67 2.458498 1_555
Mo6 O1 1.723506 1_565
Mo6 O12 1.833576 1_555
Mo6 O60 1.893924 1_555
Mo6 O42 1.985480 1_555
Mo6 O10 2.017281 1_655
Mo6 O30 2.479057 1_555
Mo7 O3 1.723507 1_554
Mo7 O13 1.833576 1_555
Mo7 O61 1.893924 1_555
Mo7 O43 1.985480 1_555
Mo7 O11 2.017281 1_655
Mo7 O31 2.479057 1_555
Mo8 O4 1.723506 1_545
Mo8 O14 1.833576 1_555
Mo8 O62 1.893924 1_555
Mo8 O44 1.985480 1_555
Mo8 O7 2.017281 1_555
Mo8 O32 2.479057 1_555
Mo9 O0 1.723506 1_555
Mo9 O15 1.833576 1_555
Mo9 O63 1.893924 1_555
Mo9 O45 1.985480 1_555
Mo9 O8 2.017281 1_655
Mo9 O33 2.479057 1_555
Mo10 O5 1.723507 1_556
Mo10 O16 1.833576 1_555
Mo10 O64 1.893924 1_555
Mo10 O46 1.985480 1_555
Mo10 O9 2.017281 1_555
Mo10 O34 2.479057 1_555
Mo11 O2 1.723506 1_555
Mo11 O17 1.833576 1_555
Mo11 O65 1.893924 1_555
Mo11 O47 1.985480 1_555
Mo11 O6 2.017281 1_555
Mo11 O35 2.479057 1_555
Mo12 O36 1.734107 1_555
Mo12 O23 1.751224 1_655
Mo12 O61 1.968215 1_555
Mo12 O42 1.994477 1_555
Mo12 O48 2.137300 1_555
Mo12 O31 2.484350 1_555
Mo13 O37 1.734107 1_555
Mo13 O20 1.751224 1_655
Mo13 O63 1.968215 1_555
Mo13 O43 1.994477 1_555
Mo13 O49 2.137300 1_555
Mo13 O33 2.484350 1_555
Mo14 O38 1.734107 1_555
Mo14 O21 1.751224 1_555
Mo14 O64 1.968215 1_555
Mo14 O44 1.994477 1_555
Mo14 O50 2.137300 1_555
Mo14 O34 2.484350 1_555
Mo15 O39 1.734107 1_555
Mo15 O22 1.751224 1_655
Mo15 O60 1.968215 1_555
Mo15 O45 1.994477 1_555
Mo15 O51 2.137300 1_555
Mo15 O30 2.484350 1_555
Mo16 O40 1.734107 1_555
Mo16 O18 1.751224 1_555
Mo16 O65 1.968215 1_555
Mo16 O46 1.994477 1_555
Mo16 O52 2.137300 1_555
Mo16 O35 2.484350 1_555
Mo17 O41 1.734107 1_555
Mo17 O19 1.751224 1_555
Mo17 O62 1.968215 1_555
Mo17 O47 1.994477 1_555
Mo17 O53 2.137300 1_555
Mo17 O32 2.484350 1_555
H0 H18 1.074577 1_566
H1 H18 1.074577 1_555
H6 Na0 2.557582 1_555
H7 Na1 2.557582 1_555
H8 Na2 2.557582 1_555
H9 Na3 2.557582 1_555
H10 Na4 2.557582 1_555
H11 Na5 2.557582 1_555
H18 H3 1.074576 1_554
H19 H5 1.074576 1_545
H19 H2 1.074577 1_555
H19 H4 1.074577 1_544
O30 P0 1.551648 1_555
O31 P0 1.551644 1_555
O32 P1 1.551648 1_555
O33 P0 1.551658 1_555
O34 P1 1.551644 1_555
O35 P1 1.551658 1_555
O66 P0 1.570352 1_555
O67 P1 1.570352 1_555
