# generated using pymatgen
data_Sr5Al3F19
_symmetry_space_group_name_H-M   'P 1'
_cell_length_a   10.75055447
_cell_length_b   10.75055447
_cell_length_c   10.75055447
_cell_angle_alpha   96.52230221
_cell_angle_beta   96.52230221
_cell_angle_gamma   140.60781122
_symmetry_Int_Tables_number   1
_chemical_formula_structural   Sr5Al3F19
_chemical_formula_sum   'Sr10 Al6 F38'
_cell_volume   742.38162302
_cell_formula_units_Z   2
loop_
 _symmetry_equiv_pos_site_id
 _symmetry_equiv_pos_as_xyz
  1  'x, y, z'
loop_
 _atom_site_type_symbol
 _atom_site_label
 _atom_site_symmetry_multiplicity
 _atom_site_fract_x
 _atom_site_fract_y
 _atom_site_fract_z
 _atom_site_occupancy
  Sr  Sr0  1  0.78076000  0.05411400  0.83487400  1
  Sr  Sr1  1  0.21924000  0.94588600  0.16512600  1
  Sr  Sr2  1  0.05411400  0.21924000  0.27335400  1
  Sr  Sr3  1  0.94588600  0.78076000  0.72664600  1
  Sr  Sr4  1  0.57770200  0.25202300  0.82972500  1
  Sr  Sr5  1  0.42229800  0.74797700  0.17027500  1
  Sr  Sr6  1  0.25202300  0.42229800  0.67432100  1
  Sr  Sr7  1  0.74797700  0.57770200  0.32567900  1
  Sr  Sr8  1  0.75000000  0.25000000  0.50000000  1
  Sr  Sr9  1  0.25000000  0.75000000  0.50000000  1
  Al  Al0  1  0.82337400  0.34076800  0.16414100  1
  Al  Al1  1  0.17662600  0.65923200  0.83585900  1
  Al  Al2  1  0.34076800  0.17662600  0.51739400  1
  Al  Al3  1  0.65923200  0.82337400  0.48260600  1
  Al  Al4  1  0.74716900  0.74716900  0.00000000  1
  Al  Al5  1  0.25283100  0.25283100  0.00000000  1
  F  F0  1  0.42512300  0.77740600  0.85673200  1
  F  F1  1  0.57487700  0.22259400  0.14326800  1
  F  F2  1  0.92067300  0.56839100  0.14326800  1
  F  F3  1  0.77740600  0.92067300  0.35228300  1
  F  F4  1  0.07932700  0.43160900  0.85673200  1
  F  F5  1  0.22259400  0.07932700  0.64771700  1
  F  F6  1  0.56839100  0.42512300  0.64771700  1
  F  F7  1  0.43160900  0.57487700  0.35228300  1
  F  F8  1  0.71236800  0.87717800  0.07142300  1
  F  F9  1  0.28763200  0.12282200  0.92857700  1
  F  F10  1  0.80575500  0.64094500  0.92857700  1
  F  F11  1  0.87717800  0.80575500  0.16481000  1
  F  F12  1  0.19424500  0.35905500  0.07142300  1
  F  F13  1  0.12282200  0.19424500  0.83519000  1
  F  F14  1  0.64094500  0.71236800  0.83519000  1
  F  F15  1  0.35905500  0.28763200  0.16481000  1
  F  F16  1  0.61727800  0.07645000  0.69372800  1
  F  F17  1  0.38272200  0.92355000  0.30627200  1
  F  F18  1  0.07645000  0.38272200  0.45917200  1
  F  F19  1  0.92355000  0.61727800  0.54082800  1
  F  F20  1  0.00000000  0.00000000  0.00000000  1
  F  F21  1  0.88892900  0.45153000  0.34045900  1
  F  F22  1  0.11107100  0.54847000  0.65954100  1
  F  F23  1  0.45153000  0.11107100  0.56260000  1
  F  F24  1  0.54847000  0.88892900  0.43740000  1
  F  F25  1  0.73256500  0.12406400  0.20565000  1
  F  F26  1  0.26743500  0.87593600  0.79435000  1
  F  F27  1  0.91841400  0.52691500  0.79435000  1
  F  F28  1  0.12406400  0.91841400  0.39150000  1
  F  F29  1  0.08158600  0.47308500  0.20565000  1
  F  F30  1  0.87593600  0.08158600  0.60850000  1
  F  F31  1  0.52691500  0.73256500  0.60850000  1
  F  F32  1  0.47308500  0.26743500  0.39150000  1
  F  F33  1  0.75657100  0.23327800  0.98984900  1
  F  F34  1  0.24342900  0.76672200  0.01015100  1
  F  F35  1  0.23327800  0.24342900  0.47670700  1
  F  F36  1  0.76672200  0.75657100  0.52329300  1
  F  F37  1  0.50000000  0.50000000  0.00000000  1
loop_
_geom_bond_atom_site_label_1
_geom_bond_atom_site_label_2
_geom_bond_distance
_geom_bond_site_symmetry_2
Al0 F33 1.811540 1_554
Al0 F2 1.831502 1_555
Al0 F1 1.831502 1_555
Al0 F21 1.842341 1_555
Al0 F29 1.843757 1_655
Al0 F25 1.843762 1_555
Al1 F34 1.811540 1_556
Al1 F4 1.831502 1_555
Al1 F0 1.831502 1_555
Al1 F22 1.842341 1_555
Al1 F27 1.843757 1_455
Al1 F26 1.843762 1_555
Al2 F35 1.811550 1_555
Al2 F5 1.831499 1_555
Al2 F6 1.831501 1_555
Al2 F23 1.842329 1_555
Al2 F32 1.843748 1_555
Al2 F28 1.843753 1_545
Al3 F36 1.811550 1_555
Al3 F3 1.831499 1_555
Al3 F7 1.831501 1_555
Al3 F24 1.842329 1_555
Al3 F31 1.843748 1_555
Al3 F30 1.843753 1_565
Al4 F37 1.791121 1_555
Al4 F8 1.820086 1_555
Al4 F14 1.820086 1_554
Al4 F11 1.820086 1_555
Al4 F10 1.820086 1_554
Al4 F20 1.832150 1_665
Al5 F37 1.791121 1_555
Al5 F12 1.820086 1_555
Al5 F15 1.820086 1_555
Al5 F13 1.820086 1_554
Al5 F9 1.820086 1_554
Al5 F20 1.832150 1_555
F0 Sr0 2.511125 1_565
F0 Sr6 2.893494 1_555
F1 Sr1 2.511125 1_545
F1 Sr7 2.893494 1_555
F2 Sr1 2.511125 1_655
F2 Sr7 2.893486 1_555
F3 Sr2 2.511129 1_665
F3 Sr5 2.893499 1_555
F4 Sr0 2.511125 1_455
F4 Sr6 2.893486 1_555
F5 Sr3 2.511129 1_445
F5 Sr4 2.893499 1_555
F6 Sr3 2.511125 1_555
F6 Sr4 2.893494 1_555
F7 Sr2 2.511125 1_555
F7 Sr5 2.893494 1_555
F8 Sr5 2.678903 1_555
F8 Sr2 2.688083 1_665
F9 Sr4 2.678903 1_555
F9 Sr3 2.688083 1_445
F10 Sr4 2.678903 1_555
F10 Sr3 2.688083 1_555
F11 Sr7 2.678903 1_555
F11 Sr1 2.688083 1_655
F12 Sr5 2.678903 1_555
F12 Sr2 2.688083 1_555
F13 Sr6 2.678903 1_555
F13 Sr0 2.688083 1_455
F14 Sr6 2.678903 1_555
F14 Sr0 2.688083 1_565
F15 Sr7 2.678903 1_555
F15 Sr1 2.688083 1_545
F16 Sr0 2.361833 1_555
F16 Sr4 2.576220 1_555
F16 Sr9 2.701418 1_545
F16 Sr8 2.701418 1_555
F17 Sr1 2.361833 1_555
F17 Sr5 2.576220 1_555
F17 Sr8 2.701418 1_565
F17 Sr9 2.701418 1_555
F18 Sr2 2.361833 1_555
F18 Sr6 2.576220 1_555
F18 Sr9 2.701418 1_555
F18 Sr8 2.701418 1_455
F19 Sr3 2.361833 1_555
F19 Sr7 2.576220 1_555
F19 Sr8 2.701418 1_555
F19 Sr9 2.701418 1_655
F21 Sr8 2.508206 1_555
F21 Sr9 2.508206 1_655
F21 Sr7 2.707852 1_555
F22 Sr8 2.508206 1_455
F22 Sr9 2.508206 1_555
F22 Sr6 2.707852 1_555
F23 Sr8 2.508201 1_555
F23 Sr9 2.508206 1_545
F23 Sr4 2.707862 1_555
F24 Sr9 2.508201 1_555
F24 Sr8 2.508206 1_565
F24 Sr5 2.707862 1_555
F25 Sr5 2.476967 1_545
F25 Sr2 2.705298 1_655
F26 Sr4 2.476967 1_565
F26 Sr3 2.705298 1_455
F27 Sr4 2.476967 1_555
F27 Sr3 2.705298 1_555
F28 Sr7 2.476966 1_455
F28 Sr1 2.705309 1_555
F29 Sr5 2.476967 1_555
F29 Sr2 2.705298 1_555
F30 Sr6 2.476966 1_655
F30 Sr0 2.705309 1_555
F31 Sr6 2.476973 1_555
F31 Sr0 2.705305 1_565
F32 Sr7 2.476973 1_555
F32 Sr1 2.705305 1_545
F33 Sr4 2.574365 1_555
F33 Sr0 2.587834 1_555
F34 Sr5 2.574365 1_555
F34 Sr1 2.587834 1_555
F35 Sr6 2.574365 1_555
F35 Sr2 2.587834 1_555
F36 Sr7 2.574365 1_555
F36 Sr3 2.587834 1_555
