# generated using pymatgen
data_Ba3Sn4Bi
_symmetry_space_group_name_H-M   'P 1'
_cell_length_a   9.36607800
_cell_length_b   9.36607800
_cell_length_c   9.44150283
_cell_angle_alpha   119.73609465
_cell_angle_beta   119.73609465
_cell_angle_gamma   90.00000000
_symmetry_Int_Tables_number   1
_chemical_formula_structural   Ba3Sn4Bi
_chemical_formula_sum   'Ba6 Sn8 Bi2'
_cell_volume   590.29613708
_cell_formula_units_Z   2
loop_
 _symmetry_equiv_pos_site_id
 _symmetry_equiv_pos_as_xyz
  1  'x, y, z'
loop_
 _atom_site_type_symbol
 _atom_site_label
 _atom_site_symmetry_multiplicity
 _atom_site_fract_x
 _atom_site_fract_y
 _atom_site_fract_z
 _atom_site_occupancy
  Ba  Ba0  1  0.25000000  0.25000000  0.50000000  1
  Ba  Ba1  1  0.75000000  0.75000000  0.50000000  1
  Ba  Ba2  1  0.66430200  0.16430200  0.00000000  1
  Ba  Ba3  1  0.33569800  0.83569800  0.00000000  1
  Ba  Ba4  1  0.83569800  0.66430200  0.00000000  1
  Ba  Ba5  1  0.16430200  0.33569800  0.00000000  1
  Sn  Sn0  1  0.33092300  0.83092300  0.38442100  1
  Sn  Sn1  1  0.66907700  0.16907700  0.61557900  1
  Sn  Sn2  1  0.05349900  0.55349900  0.38442100  1
  Sn  Sn3  1  0.55349900  0.33092300  0.38442100  1
  Sn  Sn4  1  0.16907700  0.94650100  0.61557900  1
  Sn  Sn5  1  0.94650100  0.44650100  0.61557900  1
  Sn  Sn6  1  0.44650100  0.66907700  0.61557900  1
  Sn  Sn7  1  0.83092300  0.05349900  0.38442100  1
  Bi  Bi0  1  0.00000000  0.00000000  0.00000000  1
  Bi  Bi1  1  0.50000000  0.50000000  0.00000000  1
loop_
_geom_bond_atom_site_label_1
_geom_bond_atom_site_label_2
_geom_bond_distance
_geom_bond_site_symmetry_2
Ba0 Bi0 3.364530 1_555
Ba0 Bi1 3.364530 1_556
Ba0 Sn7 3.707178 1_455
Ba0 Sn6 3.707178 1_555
Ba0 Sn0 3.707182 1_545
Ba0 Sn1 3.707182 1_555
Ba0 Sn2 3.707187 1_555
Ba0 Sn5 3.707187 1_455
Ba0 Sn3 3.707190 1_555
Ba0 Sn4 3.707190 1_545
Ba1 Bi1 3.364530 1_555
Ba1 Bi0 3.364530 1_666
Ba1 Sn4 3.707178 1_655
Ba1 Sn3 3.707178 1_555
Ba1 Sn1 3.707182 1_565
Ba1 Sn0 3.707182 1_555
Ba1 Sn2 3.707187 1_655
Ba1 Sn5 3.707187 1_555
Ba1 Sn7 3.707190 1_565
Ba1 Sn6 3.707190 1_555
Ba2 Bi1 3.500562 1_555
Ba2 Bi0 3.500562 1_655
Ba2 Sn1 3.674154 1_554
Ba2 Sn2 3.674163 1_655
Ba2 Sn3 3.847526 1_555
Ba2 Sn7 3.847526 1_555
Ba2 Sn4 3.847533 1_544
Ba2 Sn6 3.847533 1_544
Ba2 Sn0 4.156112 1_544
Ba2 Sn5 4.156114 1_555
Ba3 Bi0 3.500562 1_565
Ba3 Bi1 3.500562 1_555
Ba3 Sn0 3.674154 1_555
Ba3 Sn5 3.674163 1_454
Ba3 Sn4 3.847526 1_554
Ba3 Sn6 3.847526 1_554
Ba3 Sn7 3.847533 1_565
Ba3 Sn3 3.847533 1_565
Ba3 Sn1 4.156112 1_565
Ba3 Sn2 4.156114 1_554
Ba4 Bi1 3.500562 1_555
Ba4 Bi0 3.500562 1_665
Ba4 Sn7 3.674159 1_565
Ba4 Sn6 3.674159 1_554
Ba4 Sn5 3.847526 1_554
Ba4 Sn2 3.847526 1_655
Ba4 Sn1 3.847532 1_554
Ba4 Sn0 3.847532 1_655
Ba4 Sn3 4.156113 1_554
Ba4 Sn4 4.156113 1_655
Ba5 Bi0 3.500562 1_555
Ba5 Bi1 3.500562 1_555
Ba5 Sn3 3.674159 1_555
Ba5 Sn4 3.674159 1_544
Ba5 Sn5 3.847526 1_454
Ba5 Sn2 3.847526 1_555
Ba5 Sn1 3.847532 1_454
Ba5 Sn0 3.847532 1_555
Ba5 Sn6 4.156113 1_555
Ba5 Sn7 4.156113 1_454
Sn0 Sn6 3.028384 1_555
Sn0 Sn4 3.028384 1_555
Sn0 Sn1 3.333328 1_565
Sn1 Sn7 3.028384 1_555
Sn1 Sn3 3.028384 1_555
Sn2 Sn6 3.028367 1_555
Sn2 Sn4 3.028367 1_555
Sn2 Sn5 3.333352 1_455
Sn3 Sn5 3.028367 1_555
Sn3 Sn6 3.333340 1_555
Sn4 Sn7 3.333340 1_465
Sn5 Sn7 3.028367 1_555
