# generated using pymatgen
data_CaAl2O4
_symmetry_space_group_name_H-M   'P 1'
_cell_length_a   8.70714700
_cell_length_b   8.03956600
_cell_length_c   10.37778637
_cell_angle_alpha   84.98641441
_cell_angle_beta   90.00000000
_cell_angle_gamma   90.00000000
_symmetry_Int_Tables_number   1
_chemical_formula_structural   CaAl2O4
_chemical_formula_sum   'Ca8 Al16 O32'
_cell_volume   723.68306876
_cell_formula_units_Z   8
loop_
 _symmetry_equiv_pos_site_id
 _symmetry_equiv_pos_as_xyz
  1  'x, y, z'
loop_
 _atom_site_type_symbol
 _atom_site_label
 _atom_site_symmetry_multiplicity
 _atom_site_fract_x
 _atom_site_fract_y
 _atom_site_fract_z
 _atom_site_occupancy
  Ca  Ca0  1  0.71734700  0.00501600  0.87416800  1
  Ca  Ca1  1  0.21734700  0.99498400  0.62583200  1
  Ca  Ca2  1  0.28265300  0.99498400  0.12583200  1
  Ca  Ca3  1  0.78265300  0.00501600  0.37416800  1
  Ca  Ca4  1  0.74406000  0.46760800  0.85586200  1
  Ca  Ca5  1  0.24406000  0.53239200  0.64413800  1
  Ca  Ca6  1  0.25594000  0.53239200  0.14413800  1
  Ca  Ca7  1  0.75594000  0.46760800  0.35586200  1
  Al  Al0  1  0.05900500  0.77569900  0.86787400  1
  Al  Al1  1  0.55900500  0.22430100  0.63212600  1
  Al  Al2  1  0.94099500  0.22430100  0.13212600  1
  Al  Al3  1  0.44099500  0.77569900  0.36787400  1
  Al  Al4  1  0.05725800  0.17941900  0.86156200  1
  Al  Al5  1  0.55725800  0.82058100  0.63843800  1
  Al  Al6  1  0.94274200  0.82058100  0.13843800  1
  Al  Al7  1  0.44274200  0.17941900  0.36156200  1
  Al  Al8  1  0.90259100  0.30501300  0.61055200  1
  Al  Al9  1  0.40259100  0.69498700  0.88944800  1
  Al  Al10  1  0.09740900  0.69498700  0.38944800  1
  Al  Al11  1  0.59740900  0.30501300  0.11055200  1
  Al  Al12  1  0.89258900  0.70630500  0.61561600  1
  Al  Al13  1  0.39258900  0.29369500  0.88438400  1
  Al  Al14  1  0.10741100  0.29369500  0.38438400  1
  Al  Al15  1  0.60741100  0.70630500  0.11561600  1
  O  O0  1  0.98555400  0.98004700  0.83139600  1
  O  O1  1  0.48555400  0.01995300  0.66860400  1
  O  O2  1  0.01444600  0.01995300  0.16860400  1
  O  O3  1  0.51444600  0.98004700  0.33139600  1
  O  O4  1  0.74385300  0.23113400  0.70771900  1
  O  O5  1  0.24385300  0.76886600  0.79228100  1
  O  O6  1  0.25614700  0.76886600  0.29228100  1
  O  O7  1  0.75614700  0.23113400  0.20771900  1
  O  O8  1  0.07433100  0.28617500  0.70373200  1
  O  O9  1  0.57433100  0.71382500  0.79626800  1
  O  O10  1  0.92566900  0.71382500  0.29626800  1
  O  O11  1  0.42566900  0.28617500  0.20373200  1
  O  O12  1  0.06579100  0.78450000  0.53859300  1
  O  O13  1  0.56579100  0.21550000  0.96140700  1
  O  O14  1  0.93420900  0.21550000  0.46140700  1
  O  O15  1  0.43420900  0.78450000  0.03859300  1
  O  O16  1  0.84265300  0.51163900  0.56127800  1
  O  O17  1  0.34265300  0.48836100  0.93872200  1
  O  O18  1  0.15734700  0.48836100  0.43872200  1
  O  O19  1  0.65734700  0.51163900  0.06127800  1
  O  O20  1  0.74298600  0.84748000  0.57145500  1
  O  O21  1  0.24298600  0.15252000  0.92854500  1
  O  O22  1  0.25701400  0.15252000  0.42854500  1
  O  O23  1  0.75701400  0.84748000  0.07145500  1
  O  O24  1  0.56768000  0.65341600  0.28241100  1
  O  O25  1  0.06768000  0.34658400  0.21758900  1
  O  O26  1  0.43232000  0.34658400  0.71758900  1
  O  O27  1  0.93232000  0.65341600  0.78241100  1
  O  O28  1  0.57680900  0.27111700  0.46278100  1
  O  O29  1  0.07680900  0.72888300  0.03721900  1
  O  O30  1  0.42319100  0.72888300  0.53721900  1
  O  O31  1  0.92319100  0.27111700  0.96278100  1
loop_
_geom_bond_atom_site_label_1
_geom_bond_atom_site_label_2
_geom_bond_distance
_geom_bond_site_symmetry_2
Ca0 O23 2.337091 1_546
Ca0 O13 2.385868 1_555
Ca0 O0 2.388851 1_545
Ca0 O4 2.406856 1_555
Ca0 O9 2.831172 1_545
Ca0 O1 2.931547 1_555
Ca0 O31 2.996446 1_555
Ca1 O22 2.337091 1_565
Ca1 O12 2.385868 1_555
Ca1 O1 2.388851 1_565
Ca1 O5 2.406856 1_555
Ca1 O8 2.831172 1_565
Ca1 O0 2.931547 1_455
Ca1 O30 2.996446 1_555
Ca2 O21 2.337091 1_564
Ca2 O15 2.385868 1_555
Ca2 O2 2.388851 1_565
Ca2 O6 2.406856 1_555
Ca2 O11 2.831172 1_565
Ca2 O3 2.931547 1_555
Ca2 O29 2.996446 1_555
Ca3 O20 2.337091 1_545
Ca3 O14 2.385868 1_555
Ca3 O3 2.388851 1_545
Ca3 O7 2.406856 1_555
Ca3 O10 2.831172 1_545
Ca3 O2 2.931547 1_655
Ca3 O28 2.996446 1_555
Ca4 O27 2.302282 1_555
Ca4 O19 2.317688 1_556
Ca4 O31 2.419297 1_555
Ca4 O9 2.504177 1_555
Ca4 O4 2.547316 1_555
Ca4 O13 2.707240 1_555
Ca5 O26 2.302282 1_555
Ca5 O18 2.317688 1_555
Ca5 O30 2.419297 1_555
Ca5 O8 2.504177 1_555
Ca5 O5 2.547316 1_555
Ca5 O12 2.707240 1_555
Ca6 O25 2.302282 1_555
Ca6 O17 2.317688 1_554
Ca6 O29 2.419297 1_555
Ca6 O11 2.504177 1_555
Ca6 O6 2.547316 1_555
Ca6 O15 2.707240 1_555
Ca7 O24 2.302282 1_555
Ca7 O16 2.317688 1_555
Ca7 O28 2.419297 1_555
Ca7 O10 2.504177 1_555
Ca7 O7 2.547316 1_555
Ca7 O14 2.707240 1_555
Al0 O27 1.766993 1_455
Al0 O29 1.771617 1_556
Al0 O0 1.772751 1_455
Al0 O5 1.793449 1_555
Al1 O26 1.766993 1_555
Al1 O28 1.771617 1_555
Al1 O1 1.772751 1_555
Al1 O4 1.793449 1_555
Al2 O25 1.766993 1_655
Al2 O31 1.771617 1_554
Al2 O2 1.772751 1_655
Al2 O7 1.793449 1_555
Al3 O24 1.766993 1_555
Al3 O30 1.771617 1_555
Al3 O3 1.772751 1_555
Al3 O6 1.793449 1_555
Al4 O21 1.766045 1_555
Al4 O0 1.773324 1_445
Al4 O31 1.773392 1_455
Al4 O8 1.787686 1_555
Al5 O20 1.766045 1_555
Al5 O1 1.773324 1_565
Al5 O30 1.773392 1_555
Al5 O9 1.787686 1_555
Al6 O23 1.766045 1_555
Al6 O2 1.773324 1_665
Al6 O29 1.773392 1_655
Al6 O10 1.787686 1_555
Al7 O22 1.766045 1_555
Al7 O3 1.773324 1_545
Al7 O28 1.773392 1_555
Al7 O11 1.787686 1_555
Al8 O16 1.773390 1_555
Al8 O8 1.780042 1_655
Al8 O4 1.781931 1_555
Al8 O14 1.784387 1_555
Al9 O17 1.773390 1_555
Al9 O9 1.780042 1_555
Al9 O5 1.781931 1_555
Al9 O15 1.784387 1_556
Al10 O18 1.773390 1_555
Al10 O10 1.780042 1_455
Al10 O6 1.781931 1_555
Al10 O12 1.784387 1_555
Al11 O19 1.773390 1_555
Al11 O11 1.780042 1_555
Al11 O7 1.781931 1_555
Al11 O13 1.784387 1_554
Al12 O20 1.761850 1_555
Al12 O16 1.763694 1_555
Al12 O27 1.779906 1_555
Al12 O12 1.794618 1_655
Al13 O21 1.761850 1_555
Al13 O17 1.763694 1_555
Al13 O26 1.779906 1_555
Al13 O13 1.794618 1_555
Al14 O22 1.761850 1_555
Al14 O18 1.763694 1_555
Al14 O25 1.779906 1_555
Al14 O14 1.794618 1_455
Al15 O23 1.761850 1_555
Al15 O19 1.763694 1_555
Al15 O24 1.779906 1_555
Al15 O15 1.794618 1_555
