# generated using pymatgen
data_W2(OF3)3
_symmetry_space_group_name_H-M   'P 1'
_cell_length_a   5.48237800
_cell_length_b   5.78125376
_cell_length_c   15.63136886
_cell_angle_alpha   94.57047364
_cell_angle_beta   90.00000000
_cell_angle_gamma   90.00000000
_symmetry_Int_Tables_number   1
_chemical_formula_structural   W2(OF3)3
_chemical_formula_sum   'W4 O6 F18'
_cell_volume   493.86107330
_cell_formula_units_Z   2
loop_
 _symmetry_equiv_pos_site_id
 _symmetry_equiv_pos_as_xyz
  1  'x, y, z'
loop_
 _atom_site_type_symbol
 _atom_site_label
 _atom_site_symmetry_multiplicity
 _atom_site_fract_x
 _atom_site_fract_y
 _atom_site_fract_z
 _atom_site_occupancy
  W  W0  1  0.26592000  0.25235800  0.61887500  1
  W  W1  1  0.73408000  0.74764100  0.38112500  1
  W  W2  1  0.26592000  0.24764100  0.88112500  1
  W  W3  1  0.73408000  0.75235900  0.11887500  1
  O  O0  1  0.36031300  0.25027700  0.51154000  1
  O  O1  1  0.63968700  0.74972300  0.48846000  1
  O  O2  1  0.36031300  0.24972300  0.98846000  1
  O  O3  1  0.63968700  0.75027700  0.01154000  1
  O  O4  1  0.81804800  0.75000000  0.75000000  1
  O  O5  1  0.18195200  0.25000000  0.25000000  1
  F  F0  1  0.14847500  0.25000000  0.75000000  1
  F  F1  1  0.85152500  0.75000000  0.25000000  1
  F  F2  1  0.53213600  0.08665100  0.66095500  1
  F  F3  1  0.46786400  0.91334900  0.33904500  1
  F  F4  1  0.53213600  0.41334900  0.83904500  1
  F  F5  1  0.46786400  0.58665100  0.16095500  1
  F  F6  1  0.41867200  0.53397700  0.66045700  1
  F  F7  1  0.58132800  0.46602300  0.33954300  1
  F  F8  1  0.41867200  0.96602300  0.83954300  1
  F  F9  1  0.58132800  0.03397700  0.16045700  1
  F  F10  1  0.97161200  0.42353100  0.61036400  1
  F  F11  1  0.02838700  0.57646900  0.38963600  1
  F  F12  1  0.97161200  0.07646900  0.88963600  1
  F  F13  1  0.02838700  0.92353100  0.11036400  1
  F  F14  1  0.08158600  0.97345600  0.60786100  1
  F  F15  1  0.91841400  0.02654400  0.39213900  1
  F  F16  1  0.08158600  0.52654400  0.89213900  1
  F  F17  1  0.91841400  0.47345600  0.10786100  1
loop_
_geom_bond_atom_site_label_1
_geom_bond_atom_site_label_2
_geom_bond_distance
_geom_bond_site_symmetry_2
O0 W0 1.754913 1_555
O1 W1 1.754913 1_555
O2 W2 1.754913 1_555
O3 W3 1.754913 1_555
F0 W0 2.149497 1_555
F0 W2 2.149497 1_555
F1 W1 2.149497 1_555
F1 W3 2.149497 1_555
F2 W0 1.892345 1_555
F3 W1 1.892348 1_555
F4 W2 1.892348 1_555
F5 W3 1.892348 1_555
F6 W0 1.898916 1_555
F7 W1 1.898912 1_555
F8 W2 1.898912 1_565
F9 W3 1.898912 1_545
F10 W0 1.902994 1_655
F11 W1 1.902986 1_455
F12 W2 1.902991 1_655
F13 W3 1.902986 1_455
F14 W0 1.899087 1_565
F15 W1 1.899092 1_545
F16 W2 1.899092 1_555
F17 W3 1.899092 1_555
