# generated using pymatgen
data_DyPS
_symmetry_space_group_name_H-M   'P 1'
_cell_length_a   5.32499797
_cell_length_b   5.35700398
_cell_length_c   16.69439367
_cell_angle_alpha   90.00000000
_cell_angle_beta   90.00000000
_cell_angle_gamma   90.00000000
_symmetry_Int_Tables_number   1
_chemical_formula_structural   DyPS
_chemical_formula_sum   'Dy8 P8 S8'
_cell_volume   476.22486346
_cell_formula_units_Z   8
loop_
 _symmetry_equiv_pos_site_id
 _symmetry_equiv_pos_as_xyz
  1  'x, y, z'
loop_
 _atom_site_type_symbol
 _atom_site_label
 _atom_site_symmetry_multiplicity
 _atom_site_fract_x
 _atom_site_fract_y
 _atom_site_fract_z
 _atom_site_occupancy
  Dy  Dy0  1  0.25000000  0.48381471  0.36188843  1
  Dy  Dy1  1  0.25000000  0.98381471  0.13811157  1
  Dy  Dy2  1  0.75000000  0.51618529  0.63811157  1
  Dy  Dy3  1  0.75000000  0.01618529  0.86188843  1
  Dy  Dy4  1  0.25000000  0.01412435  0.64675133  1
  Dy  Dy5  1  0.25000000  0.51412435  0.85324867  1
  Dy  Dy6  1  0.75000000  0.98587565  0.35324867  1
  Dy  Dy7  1  0.75000000  0.48587565  0.14675133  1
  P  P0  1  0.03921718  0.29534398  0.99718478  1
  P  P1  1  0.46078282  0.79534398  0.50281522  1
  P  P2  1  0.53921718  0.70465602  0.00281522  1
  P  P3  1  0.96078282  0.20465602  0.49718478  1
  P  P4  1  0.96078282  0.70465602  0.00281522  1
  P  P5  1  0.53921718  0.20465602  0.49718478  1
  P  P6  1  0.46078282  0.29534398  0.99718478  1
  P  P7  1  0.03921718  0.79534398  0.50281522  1
  S  S0  1  0.25000000  0.48509754  0.18894172  1
  S  S1  1  0.25000000  0.98509754  0.31105828  1
  S  S2  1  0.75000000  0.51490246  0.81105828  1
  S  S3  1  0.75000000  0.01490246  0.68894172  1
  S  S4  1  0.25000000  0.01054847  0.81598960  1
  S  S5  1  0.25000000  0.51054847  0.68401040  1
  S  S6  1  0.75000000  0.98945153  0.18401040  1
  S  S7  1  0.75000000  0.48945153  0.31598960  1
loop_
_geom_bond_atom_site_label_1
_geom_bond_atom_site_label_2
_geom_bond_distance
_geom_bond_site_symmetry_2
Dy0 S7 2.770732 1_455
Dy0 S7 2.770732 1_555
Dy0 S1 2.803157 1_545
Dy0 S1 2.816260 1_555
Dy0 S0 2.887249 1_555
Dy0 P7 3.095168 1_555
Dy0 P1 3.095168 1_555
Dy0 P5 3.116074 1_555
Dy0 P3 3.116074 1_455
Dy1 S6 2.770732 1_555
Dy1 S6 2.770732 1_455
Dy1 S0 2.803157 1_555
Dy1 S0 2.816260 1_565
Dy1 S1 2.887249 1_555
Dy1 P0 3.095168 1_564
Dy1 P6 3.095168 1_564
Dy1 P4 3.116074 1_455
Dy1 P2 3.116074 1_555
Dy2 S5 2.770732 1_555
Dy2 S5 2.770732 1_655
Dy2 S3 2.803157 1_565
Dy2 S3 2.816260 1_555
Dy2 S2 2.887249 1_555
Dy2 P5 3.095168 1_555
Dy2 P3 3.095168 1_555
Dy2 P1 3.116074 1_555
Dy2 P7 3.116074 1_655
Dy3 S4 2.770732 1_555
Dy3 S4 2.770732 1_655
Dy3 S2 2.803157 1_555
Dy3 S2 2.816260 1_545
Dy3 S3 2.887249 1_555
Dy3 P2 3.095168 1_546
Dy3 P4 3.095168 1_546
Dy3 P6 3.116074 1_555
Dy3 P0 3.116074 1_655
Dy4 S5 2.731122 1_555
Dy4 S3 2.754091 1_455
Dy4 S3 2.754091 1_555
Dy4 S5 2.768441 1_545
Dy4 S4 2.825395 1_555
Dy4 P7 2.899565 1_545
Dy4 P1 2.899565 1_545
Dy4 P5 3.106165 1_555
Dy4 P3 3.106165 1_455
Dy5 S4 2.731122 1_565
Dy5 S2 2.754091 1_455
Dy5 S2 2.754091 1_555
Dy5 S4 2.768441 1_555
Dy5 S5 2.825395 1_555
Dy5 P0 2.899565 1_555
Dy5 P6 2.899565 1_555
Dy5 P4 3.106165 1_456
Dy5 P2 3.106165 1_556
Dy6 S7 2.731122 1_555
Dy6 S1 2.754091 1_555
Dy6 S1 2.754091 1_655
Dy6 S7 2.768441 1_565
Dy6 S6 2.825395 1_555
Dy6 P5 2.899565 1_565
Dy6 P3 2.899565 1_565
Dy6 P1 3.106165 1_555
Dy6 P7 3.106165 1_655
Dy7 S6 2.731122 1_545
Dy7 S0 2.754091 1_655
Dy7 S0 2.754091 1_555
Dy7 S6 2.768441 1_555
Dy7 S7 2.825395 1_555
Dy7 P4 2.899565 1_555
Dy7 P2 2.899565 1_555
Dy7 P6 3.106165 1_554
Dy7 P0 3.106165 1_654
P0 P4 2.234088 1_456
P0 P6 2.244836 1_555
P1 P5 2.234088 1_565
P1 P7 2.244836 1_555
P2 P6 2.234088 1_554
P2 P4 2.244836 1_555
P3 P7 2.234088 1_645
P3 P5 2.244836 1_555
