# generated using pymatgen
data_Hf6Ga2Co
_symmetry_space_group_name_H-M   'P 1'
_cell_length_a   6.63126260
_cell_length_b   15.41755584
_cell_length_c   15.41734924
_cell_angle_alpha   119.99957174
_cell_angle_beta   90.00000000
_cell_angle_gamma   90.00000000
_symmetry_Int_Tables_number   1
_chemical_formula_structural   Hf6Ga2Co
_chemical_formula_sum   'Hf48 Ga16 Co8'
_cell_volume   1365.06701496
_cell_formula_units_Z   8
loop_
 _symmetry_equiv_pos_site_id
 _symmetry_equiv_pos_as_xyz
  1  'x, y, z'
loop_
 _atom_site_type_symbol
 _atom_site_label
 _atom_site_symmetry_multiplicity
 _atom_site_fract_x
 _atom_site_fract_y
 _atom_site_fract_z
 _atom_site_occupancy
  Hf  Hf0_0  1  0.00000000  0.12422507  0.00000835  1
  Hf  Hf0_1  1  0.00000000  0.12422507  0.50000835  1
  Hf  Hf0_2  1  0.00000000  0.62422507  0.00000835  1
  Hf  Hf0_3  1  0.00000000  0.62422507  0.50000836  1
  Hf  Hf0_4  1  0.50000000  0.12422507  0.00000835  1
  Hf  Hf0_5  1  0.50000000  0.12422507  0.50000835  1
  Hf  Hf0_6  1  0.50000000  0.62422507  0.00000835  1
  Hf  Hf0_7  1  0.50000000  0.62422507  0.50000836  1
  Hf  Hf1_0  1  0.00000000  0.37576506  0.37577881  1
  Hf  Hf1_1  1  0.00000000  0.37576506  0.87577881  1
  Hf  Hf1_2  1  0.00000000  0.87576505  0.37577881  1
  Hf  Hf1_3  1  0.00000000  0.87576505  0.87577881  1
  Hf  Hf1_4  1  0.50000000  0.37576506  0.37577881  1
  Hf  Hf1_5  1  0.50000000  0.37576506  0.87577881  1
  Hf  Hf1_6  1  0.50000000  0.87576505  0.37577881  1
  Hf  Hf1_7  1  0.50000000  0.87576505  0.87577881  1
  Hf  Hf2_0  1  0.00000000  0.49999457  0.12421586  1
  Hf  Hf2_1  1  0.00000000  0.49999458  0.62421586  1
  Hf  Hf2_2  1  0.00000000  0.99999457  0.12421586  1
  Hf  Hf2_3  1  0.00000000  0.99999457  0.62421586  1
  Hf  Hf2_4  1  0.50000000  0.49999457  0.12421586  1
  Hf  Hf2_5  1  0.50000000  0.49999458  0.62421586  1
  Hf  Hf2_6  1  0.50000000  0.99999457  0.12421586  1
  Hf  Hf2_7  1  0.50000000  0.99999457  0.62421586  1
  Hf  Hf3_0  1  0.25000000  0.29956103  0.49999619  1
  Hf  Hf3_1  1  0.25000000  0.29956103  0.99999619  1
  Hf  Hf3_2  1  0.25000000  0.79956103  0.49999619  1
  Hf  Hf3_3  1  0.25000000  0.79956103  0.99999619  1
  Hf  Hf3_4  1  0.75000000  0.29956103  0.49999619  1
  Hf  Hf3_5  1  0.75000000  0.29956103  0.99999619  1
  Hf  Hf3_6  1  0.75000000  0.79956103  0.49999619  1
  Hf  Hf3_7  1  0.75000000  0.79956103  0.99999619  1
  Hf  Hf4_0  1  0.25000000  0.20042907  0.20043098  1
  Hf  Hf4_1  1  0.25000000  0.20042906  0.70043098  1
  Hf  Hf4_2  1  0.25000000  0.70042907  0.20043098  1
  Hf  Hf4_3  1  0.25000000  0.70042907  0.70043098  1
  Hf  Hf4_4  1  0.75000000  0.20042907  0.20043098  1
  Hf  Hf4_5  1  0.75000000  0.20042906  0.70043098  1
  Hf  Hf4_6  1  0.75000000  0.70042907  0.20043098  1
  Hf  Hf4_7  1  0.75000000  0.70042907  0.70043098  1
  Hf  Hf5_0  1  0.25000000  0.49999432  0.29958166  1
  Hf  Hf5_1  1  0.25000000  0.49999432  0.79958166  1
  Hf  Hf5_2  1  0.25000000  0.99999432  0.29958166  1
  Hf  Hf5_3  1  0.25000000  0.99999432  0.79958166  1
  Hf  Hf5_4  1  0.75000000  0.49999432  0.29958166  1
  Hf  Hf5_5  1  0.75000000  0.49999432  0.79958166  1
  Hf  Hf5_6  1  0.75000000  0.99999432  0.29958166  1
  Hf  Hf5_7  1  0.75000000  0.99999432  0.79958166  1
  Ga  Ga0_0  1  0.00000000  0.16665964  0.33333062  1
  Ga  Ga0_1  1  0.00000000  0.16665964  0.83333062  1
  Ga  Ga0_2  1  0.00000000  0.66665964  0.33333062  1
  Ga  Ga0_3  1  0.00000000  0.66665964  0.83333062  1
  Ga  Ga0_4  1  0.50000000  0.16665964  0.33333062  1
  Ga  Ga0_5  1  0.50000000  0.16665964  0.83333062  1
  Ga  Ga0_6  1  0.50000000  0.66665964  0.33333062  1
  Ga  Ga0_7  1  0.50000000  0.66665964  0.83333062  1
  Ga  Ga1_0  1  0.00000000  0.33332415  0.16666415  1
  Ga  Ga1_1  1  0.00000000  0.33332415  0.66666415  1
  Ga  Ga1_2  1  0.00000000  0.83332415  0.16666415  1
  Ga  Ga1_3  1  0.00000000  0.83332415  0.66666415  1
  Ga  Ga1_4  1  0.50000000  0.33332415  0.16666415  1
  Ga  Ga1_5  1  0.50000000  0.33332415  0.66666415  1
  Ga  Ga1_6  1  0.50000000  0.83332415  0.16666415  1
  Ga  Ga1_7  1  0.50000000  0.83332415  0.66666415  1
  Co  Co0_0  1  0.25000000  0.49999610  0.49999288  1
  Co  Co0_1  1  0.25000000  0.49999610  0.99999288  1
  Co  Co0_2  1  0.25000000  0.99999610  0.49999288  1
  Co  Co0_3  1  0.25000000  0.99999610  0.99999288  1
  Co  Co0_4  1  0.75000000  0.49999610  0.49999288  1
  Co  Co0_5  1  0.75000000  0.49999610  0.99999288  1
  Co  Co0_6  1  0.75000000  0.99999610  0.49999288  1
  Co  Co0_7  1  0.75000000  0.99999610  0.99999288  1
loop_
_geom_bond_atom_site_label_1
_geom_bond_atom_site_label_2
_geom_bond_distance
_geom_bond_site_symmetry_2
Hf0_0 Hf4_4 3.169604 1_455
Hf0_0 Hf4_0 3.169604 1_555
Hf0_0 Hf5_7 3.169678 1_444
Hf0_0 Hf5_3 3.169678 1_544
Hf0_0 Hf3_1 3.171188 1_554
Hf0_0 Hf3_5 3.171188 1_454
Hf0_1 Hf4_1 3.169604 1_555
Hf0_1 Hf4_5 3.169604 1_455
Hf0_1 Hf5_2 3.169678 1_545
Hf0_1 Hf5_6 3.169678 1_445
Hf0_1 Hf3_0 3.171188 1_555
Hf0_1 Hf3_4 3.171188 1_455
Hf0_2 Hf4_6 3.169604 1_455
Hf0_2 Hf4_2 3.169604 1_555
Hf0_2 Hf5_5 3.169678 1_454
Hf0_2 Hf5_1 3.169678 1_554
Hf0_2 Hf3_7 3.171188 1_454
Hf0_2 Hf3_3 3.171188 1_554
Hf0_3 Hf4_7 3.169604 1_455
Hf0_3 Hf4_3 3.169604 1_555
Hf0_3 Hf5_0 3.169678 1_555
Hf0_3 Hf5_4 3.169678 1_455
Hf0_3 Hf3_6 3.171188 1_455
Hf0_3 Hf3_2 3.171188 1_555
Hf0_4 Hf4_0 3.169604 1_555
Hf0_4 Hf4_4 3.169604 1_555
Hf0_4 Hf5_3 3.169678 1_544
Hf0_4 Hf5_7 3.169678 1_544
Hf0_4 Hf3_1 3.171188 1_554
Hf0_4 Hf3_5 3.171188 1_554
Hf0_5 Hf4_1 3.169604 1_555
Hf0_5 Hf4_5 3.169604 1_555
Hf0_5 Hf5_2 3.169678 1_545
Hf0_5 Hf5_6 3.169678 1_545
Hf0_5 Hf3_0 3.171188 1_555
Hf0_5 Hf3_4 3.171188 1_555
Hf0_6 Hf4_2 3.169604 1_555
Hf0_6 Hf4_6 3.169604 1_555
Hf0_6 Hf5_1 3.169678 1_554
Hf0_6 Hf5_5 3.169678 1_554
Hf0_6 Hf3_3 3.171188 1_554
Hf0_6 Hf3_7 3.171188 1_554
Hf0_7 Hf4_3 3.169604 1_555
Hf0_7 Hf4_7 3.169604 1_555
Hf0_7 Hf5_0 3.169678 1_555
Hf0_7 Hf5_4 3.169678 1_555
Hf0_7 Hf3_2 3.171188 1_555
Hf0_7 Hf3_6 3.171188 1_555
Hf1_0 Hf3_4 3.169590 1_455
Hf1_0 Hf3_0 3.169590 1_555
Hf1_0 Hf5_4 3.169673 1_455
Hf1_0 Hf5_0 3.169673 1_555
Hf1_0 Hf4_4 3.171185 1_455
Hf1_0 Hf4_0 3.171185 1_555
Hf1_1 Hf3_5 3.169590 1_455
Hf1_1 Hf3_1 3.169590 1_555
Hf1_1 Hf5_5 3.169673 1_455
Hf1_1 Hf5_1 3.169673 1_555
Hf1_1 Hf4_1 3.171185 1_555
Hf1_1 Hf4_5 3.171185 1_455
Hf1_2 Hf3_2 3.169590 1_555
Hf1_2 Hf3_6 3.169590 1_455
Hf1_2 Hf5_6 3.169673 1_455
Hf1_2 Hf5_2 3.169673 1_555
Hf1_2 Hf4_6 3.171185 1_455
Hf1_2 Hf4_2 3.171185 1_555
Hf1_3 Hf3_7 3.169590 1_455
Hf1_3 Hf3_3 3.169590 1_555
Hf1_3 Hf5_3 3.169673 1_555
Hf1_3 Hf5_7 3.169673 1_455
Hf1_3 Hf4_7 3.171185 1_455
Hf1_3 Hf4_3 3.171185 1_555
Hf1_4 Hf3_0 3.169590 1_555
Hf1_4 Hf3_4 3.169590 1_555
Hf1_4 Hf5_0 3.169673 1_555
Hf1_4 Hf5_4 3.169673 1_555
Hf1_4 Hf4_0 3.171185 1_555
Hf1_4 Hf4_4 3.171185 1_555
Hf1_5 Hf3_1 3.169590 1_555
Hf1_5 Hf3_5 3.169590 1_555
Hf1_5 Hf5_1 3.169673 1_555
Hf1_5 Hf5_5 3.169673 1_555
Hf1_5 Hf4_1 3.171185 1_555
Hf1_5 Hf4_5 3.171185 1_555
Hf1_6 Hf3_2 3.169590 1_555
Hf1_6 Hf3_6 3.169590 1_555
Hf1_6 Hf5_2 3.169673 1_555
Hf1_6 Hf5_6 3.169673 1_555
Hf1_6 Hf4_2 3.171185 1_555
Hf1_6 Hf4_6 3.171185 1_555
Hf1_7 Hf3_3 3.169590 1_555
Hf1_7 Hf3_7 3.169590 1_555
Hf1_7 Hf5_3 3.169673 1_555
Hf1_7 Hf5_7 3.169673 1_555
Hf1_7 Hf4_3 3.171185 1_555
Hf1_7 Hf4_7 3.171185 1_555
Hf2_0 Hf3_5 3.169754 1_454
Hf2_0 Hf3_1 3.169754 1_554
Hf2_0 Hf4_6 3.169763 1_455
Hf2_0 Hf4_2 3.169763 1_555
Hf2_0 Hf5_4 3.171471 1_455
Hf2_0 Hf5_0 3.171471 1_555
Hf2_1 Hf3_0 3.169754 1_555
Hf2_1 Hf3_4 3.169754 1_455
Hf2_1 Hf4_7 3.169763 1_455
Hf2_1 Hf4_3 3.169763 1_555
Hf2_1 Hf5_5 3.171471 1_455
Hf2_1 Hf5_1 3.171471 1_555
Hf2_2 Hf3_7 3.169754 1_454
Hf2_2 Hf3_3 3.169754 1_554
Hf2_2 Hf4_4 3.169763 1_465
Hf2_2 Hf4_0 3.169763 1_565
Hf2_2 Hf5_6 3.171471 1_455
Hf2_2 Hf5_2 3.171471 1_555
Hf2_3 Hf3_6 3.169754 1_455
Hf2_3 Hf3_2 3.169754 1_555
Hf2_3 Hf4_5 3.169763 1_465
Hf2_3 Hf4_1 3.169763 1_565
Hf2_3 Hf5_7 3.171471 1_455
Hf2_3 Hf5_3 3.171471 1_555
Hf2_4 Hf3_1 3.169754 1_554
Hf2_4 Hf3_5 3.169754 1_554
Hf2_4 Hf4_2 3.169763 1_555
Hf2_4 Hf4_6 3.169763 1_555
Hf2_4 Hf5_0 3.171471 1_555
Hf2_4 Hf5_4 3.171471 1_555
Hf2_5 Hf3_0 3.169754 1_555
Hf2_5 Hf3_4 3.169754 1_555
Hf2_5 Hf4_3 3.169763 1_555
Hf2_5 Hf4_7 3.169763 1_555
Hf2_5 Hf5_1 3.171471 1_555
Hf2_5 Hf5_5 3.171471 1_555
Hf2_6 Hf3_3 3.169754 1_554
Hf2_6 Hf3_7 3.169754 1_554
Hf2_6 Hf4_0 3.169763 1_565
Hf2_6 Hf4_4 3.169763 1_565
Hf2_6 Hf5_2 3.171471 1_555
Hf2_6 Hf5_6 3.171471 1_555
Hf2_7 Hf3_2 3.169754 1_555
Hf2_7 Hf3_6 3.169754 1_555
Hf2_7 Hf4_1 3.169763 1_565
Hf2_7 Hf4_5 3.169763 1_565
Hf2_7 Hf5_3 3.171471 1_555
Hf2_7 Hf5_7 3.171471 1_555
Hf3_0 Hf3_4 3.315631 1_455
Hf3_0 Hf3_4 3.315631 1_555
Hf3_1 Hf3_5 3.315631 1_455
Hf3_1 Hf3_5 3.315631 1_555
Hf3_2 Hf3_6 3.315631 1_455
Hf3_2 Hf3_6 3.315631 1_555
Hf3_3 Hf3_7 3.315631 1_455
Hf3_3 Hf3_7 3.315631 1_555
Hf4_0 Hf4_4 3.315631 1_455
Hf4_0 Hf4_4 3.315631 1_555
Hf4_1 Hf4_5 3.315631 1_455
Hf4_1 Hf4_5 3.315631 1_555
Hf4_2 Hf4_6 3.315631 1_455
Hf4_2 Hf4_6 3.315631 1_555
Hf4_3 Hf4_7 3.315631 1_455
Hf4_3 Hf4_7 3.315631 1_555
Hf5_0 Hf5_4 3.315631 1_455
Hf5_0 Hf5_4 3.315631 1_555
Hf5_1 Hf5_5 3.315631 1_455
Hf5_1 Hf5_5 3.315631 1_555
Hf5_2 Hf5_6 3.315631 1_455
Hf5_2 Hf5_6 3.315631 1_555
Hf5_3 Hf5_7 3.315631 1_455
Hf5_3 Hf5_7 3.315631 1_555
Ga0_0 Hf3_4 2.878263 1_455
Ga0_0 Hf3_0 2.878263 1_555
Ga0_0 Hf4_4 2.878267 1_455
Ga0_0 Hf4_0 2.878267 1_555
Ga0_0 Hf5_6 2.878334 1_445
Ga0_0 Hf5_2 2.878334 1_545
Ga0_0 Hf1_0 2.951605 1_555
Ga0_0 Hf2_2 2.951721 1_545
Ga0_0 Hf0_1 2.951732 1_555
Ga0_1 Hf3_5 2.878263 1_455
Ga0_1 Hf3_1 2.878263 1_555
Ga0_1 Hf4_5 2.878267 1_455
Ga0_1 Hf4_1 2.878267 1_555
Ga0_1 Hf5_7 2.878334 1_445
Ga0_1 Hf5_3 2.878334 1_545
Ga0_1 Hf1_1 2.951605 1_555
Ga0_1 Hf2_3 2.951721 1_545
Ga0_1 Hf0_0 2.951732 1_556
Ga0_2 Hf3_6 2.878263 1_455
Ga0_2 Hf3_2 2.878263 1_555
Ga0_2 Hf4_6 2.878267 1_455
Ga0_2 Hf4_2 2.878267 1_555
Ga0_2 Hf5_4 2.878334 1_455
Ga0_2 Hf5_0 2.878334 1_555
Ga0_2 Hf1_2 2.951605 1_555
Ga0_2 Hf2_0 2.951721 1_555
Ga0_2 Hf0_3 2.951732 1_555
Ga0_3 Hf3_7 2.878263 1_455
Ga0_3 Hf3_3 2.878263 1_555
Ga0_3 Hf4_7 2.878267 1_455
Ga0_3 Hf4_3 2.878267 1_555
Ga0_3 Hf5_5 2.878334 1_455
Ga0_3 Hf5_1 2.878334 1_555
Ga0_3 Hf1_3 2.951605 1_555
Ga0_3 Hf2_1 2.951721 1_555
Ga0_3 Hf0_2 2.951732 1_556
Ga0_4 Hf3_0 2.878263 1_555
Ga0_4 Hf3_4 2.878263 1_555
Ga0_4 Hf4_0 2.878267 1_555
Ga0_4 Hf4_4 2.878267 1_555
Ga0_4 Hf5_2 2.878334 1_545
Ga0_4 Hf5_6 2.878334 1_545
Ga0_4 Hf1_4 2.951605 1_555
Ga0_4 Hf2_6 2.951721 1_545
Ga0_4 Hf0_5 2.951732 1_555
Ga0_5 Hf3_1 2.878263 1_555
Ga0_5 Hf3_5 2.878263 1_555
Ga0_5 Hf4_1 2.878267 1_555
Ga0_5 Hf4_5 2.878267 1_555
Ga0_5 Hf5_3 2.878334 1_545
Ga0_5 Hf5_7 2.878334 1_545
Ga0_5 Hf1_5 2.951605 1_555
Ga0_5 Hf2_7 2.951721 1_545
Ga0_5 Hf0_4 2.951732 1_556
Ga0_6 Hf3_2 2.878263 1_555
Ga0_6 Hf3_6 2.878263 1_555
Ga0_6 Hf4_6 2.878267 1_555
Ga0_6 Hf4_2 2.878267 1_555
Ga0_6 Hf5_0 2.878334 1_555
Ga0_6 Hf5_4 2.878334 1_555
Ga0_6 Hf1_6 2.951605 1_555
Ga0_6 Hf2_4 2.951721 1_555
Ga0_6 Hf0_7 2.951732 1_555
Ga0_7 Hf3_3 2.878263 1_555
Ga0_7 Hf3_7 2.878263 1_555
Ga0_7 Hf4_3 2.878267 1_555
Ga0_7 Hf4_7 2.878267 1_555
Ga0_7 Hf5_5 2.878334 1_555
Ga0_7 Hf5_1 2.878334 1_555
Ga0_7 Hf1_7 2.951605 1_555
Ga0_7 Hf2_5 2.951721 1_555
Ga0_7 Hf0_6 2.951732 1_556
Ga1_0 Hf4_4 2.878207 1_455
Ga1_0 Hf4_0 2.878207 1_555
Ga1_0 Hf3_5 2.878279 1_454
Ga1_0 Hf3_1 2.878279 1_554
Ga1_0 Hf5_4 2.878378 1_455
Ga1_0 Hf5_0 2.878378 1_555
Ga1_0 Hf0_0 2.951533 1_555
Ga1_0 Hf1_0 2.951736 1_555
Ga1_0 Hf2_0 2.951789 1_555
Ga1_1 Hf4_5 2.878207 1_455
Ga1_1 Hf4_1 2.878207 1_555
Ga1_1 Hf3_4 2.878279 1_455
Ga1_1 Hf3_0 2.878279 1_555
Ga1_1 Hf5_1 2.878378 1_555
Ga1_1 Hf5_5 2.878378 1_455
Ga1_1 Hf0_1 2.951533 1_555
Ga1_1 Hf1_1 2.951736 1_555
Ga1_1 Hf2_1 2.951789 1_555
Ga1_2 Hf4_6 2.878207 1_455
Ga1_2 Hf4_2 2.878207 1_555
Ga1_2 Hf3_7 2.878279 1_454
Ga1_2 Hf3_3 2.878279 1_554
Ga1_2 Hf5_2 2.878378 1_555
Ga1_2 Hf5_6 2.878378 1_455
Ga1_2 Hf0_2 2.951533 1_555
Ga1_2 Hf1_2 2.951736 1_555
Ga1_2 Hf2_2 2.951789 1_555
Ga1_3 Hf4_7 2.878207 1_455
Ga1_3 Hf4_3 2.878207 1_555
Ga1_3 Hf3_6 2.878279 1_455
Ga1_3 Hf3_2 2.878279 1_555
Ga1_3 Hf5_3 2.878378 1_555
Ga1_3 Hf5_7 2.878378 1_455
Ga1_3 Hf0_3 2.951533 1_555
Ga1_3 Hf1_3 2.951736 1_555
Ga1_3 Hf2_3 2.951789 1_555
Ga1_4 Hf4_0 2.878207 1_555
Ga1_4 Hf4_4 2.878207 1_555
Ga1_4 Hf3_1 2.878279 1_554
Ga1_4 Hf3_5 2.878279 1_554
Ga1_4 Hf5_0 2.878378 1_555
Ga1_4 Hf5_4 2.878378 1_555
Ga1_4 Hf0_4 2.951533 1_555
Ga1_4 Hf1_4 2.951736 1_555
Ga1_4 Hf2_4 2.951789 1_555
Ga1_5 Hf4_1 2.878207 1_555
Ga1_5 Hf4_5 2.878207 1_555
Ga1_5 Hf3_0 2.878279 1_555
Ga1_5 Hf3_4 2.878279 1_555
Ga1_5 Hf5_1 2.878378 1_555
Ga1_5 Hf5_5 2.878378 1_555
Ga1_5 Hf0_5 2.951533 1_555
Ga1_5 Hf1_5 2.951736 1_555
Ga1_5 Hf2_5 2.951789 1_555
Ga1_6 Hf4_6 2.878207 1_555
Ga1_6 Hf4_2 2.878207 1_555
Ga1_6 Hf3_3 2.878279 1_554
Ga1_6 Hf3_7 2.878279 1_554
Ga1_6 Hf5_2 2.878378 1_555
Ga1_6 Hf5_6 2.878378 1_555
Ga1_6 Hf0_6 2.951533 1_555
Ga1_6 Hf1_6 2.951736 1_555
Ga1_6 Hf2_6 2.951789 1_555
Ga1_7 Hf4_3 2.878207 1_555
Ga1_7 Hf4_7 2.878207 1_555
Ga1_7 Hf3_2 2.878279 1_555
Ga1_7 Hf3_6 2.878279 1_555
Ga1_7 Hf5_3 2.878378 1_555
Ga1_7 Hf5_7 2.878378 1_555
Ga1_7 Hf0_7 2.951533 1_555
Ga1_7 Hf1_7 2.951736 1_555
Ga1_7 Hf2_7 2.951789 1_555
Co0_0 Hf0_3 2.533041 1_555
Co0_0 Hf0_7 2.533041 1_555
Co0_0 Hf2_5 2.533051 1_555
Co0_0 Hf2_1 2.533051 1_555
Co0_0 Hf1_0 2.533056 1_555
Co0_0 Hf1_4 2.533056 1_555
Co0_0 Hf5_0 3.089796 1_555
Co0_0 Hf4_3 3.090225 1_555
Co0_0 Hf3_0 3.090244 1_555
Co0_1 Hf0_6 2.533041 1_556
Co0_1 Hf0_2 2.533041 1_556
Co0_1 Hf2_0 2.533051 1_556
Co0_1 Hf2_4 2.533051 1_556
Co0_1 Hf1_1 2.533056 1_555
Co0_1 Hf1_5 2.533056 1_555
Co0_1 Hf5_1 3.089796 1_555
Co0_1 Hf4_2 3.090225 1_556
Co0_1 Hf3_1 3.090244 1_555
Co0_2 Hf0_1 2.533041 1_565
Co0_2 Hf0_5 2.533041 1_565
Co0_2 Hf2_3 2.533051 1_555
Co0_2 Hf2_7 2.533051 1_555
Co0_2 Hf1_2 2.533056 1_555
Co0_2 Hf1_6 2.533056 1_555
Co0_2 Hf5_2 3.089796 1_555
Co0_2 Hf4_1 3.090225 1_565
Co0_2 Hf3_2 3.090244 1_555
Co0_3 Hf0_0 2.533041 1_566
Co0_3 Hf0_4 2.533041 1_566
Co0_3 Hf2_2 2.533051 1_556
Co0_3 Hf2_6 2.533051 1_556
Co0_3 Hf1_3 2.533056 1_555
Co0_3 Hf1_7 2.533056 1_555
Co0_3 Hf5_3 3.089796 1_555
Co0_3 Hf4_0 3.090225 1_566
Co0_3 Hf3_3 3.090244 1_555
Co0_4 Hf0_3 2.533041 1_655
Co0_4 Hf0_7 2.533041 1_555
Co0_4 Hf2_1 2.533051 1_655
Co0_4 Hf2_5 2.533051 1_555
Co0_4 Hf1_0 2.533056 1_655
Co0_4 Hf1_4 2.533056 1_555
Co0_4 Hf5_4 3.089796 1_555
Co0_4 Hf4_7 3.090225 1_555
Co0_4 Hf3_4 3.090244 1_555
Co0_5 Hf0_2 2.533041 1_656
Co0_5 Hf0_6 2.533041 1_556
Co0_5 Hf2_0 2.533051 1_656
Co0_5 Hf2_4 2.533051 1_556
Co0_5 Hf1_1 2.533056 1_655
Co0_5 Hf1_5 2.533056 1_555
Co0_5 Hf5_5 3.089796 1_555
Co0_5 Hf4_6 3.090225 1_556
Co0_5 Hf3_5 3.090244 1_555
Co0_6 Hf0_1 2.533041 1_665
Co0_6 Hf0_5 2.533041 1_565
Co0_6 Hf2_3 2.533051 1_655
Co0_6 Hf2_7 2.533051 1_555
Co0_6 Hf1_2 2.533056 1_655
Co0_6 Hf1_6 2.533056 1_555
Co0_6 Hf5_6 3.089796 1_555
Co0_6 Hf4_5 3.090225 1_565
Co0_6 Hf3_6 3.090244 1_555
Co0_7 Hf0_0 2.533041 1_666
Co0_7 Hf0_4 2.533041 1_566
Co0_7 Hf2_2 2.533051 1_656
Co0_7 Hf2_6 2.533051 1_556
Co0_7 Hf1_3 2.533056 1_655
Co0_7 Hf1_7 2.533056 1_555
Co0_7 Hf5_7 3.089796 1_555
Co0_7 Hf4_4 3.090225 1_566
Co0_7 Hf3_7 3.090244 1_555
