# generated using pymatgen
data_NaLaMg6
_symmetry_space_group_name_H-M   'P 1'
_cell_length_a   5.31916200
_cell_length_b   6.77548900
_cell_length_c   11.84405800
_cell_angle_alpha   90.00000000
_cell_angle_beta   90.00000000
_cell_angle_gamma   90.00000000
_symmetry_Int_Tables_number   1
_chemical_formula_structural   NaLaMg6
_chemical_formula_sum   'Na2 La2 Mg12'
_cell_volume   426.85894567
_cell_formula_units_Z   2
loop_
 _symmetry_equiv_pos_site_id
 _symmetry_equiv_pos_as_xyz
  1  'x, y, z'
loop_
 _atom_site_type_symbol
 _atom_site_label
 _atom_site_symmetry_multiplicity
 _atom_site_fract_x
 _atom_site_fract_y
 _atom_site_fract_z
 _atom_site_occupancy
  Na  Na0  1  0.50000000  0.50000000  0.15957200  1
  Na  Na1  1  0.50000000  0.00000000  0.65957200  1
  La  La0  1  0.00000000  0.50000000  0.33579400  1
  La  La1  1  0.00000000  0.00000000  0.83579400  1
  Mg  Mg0  1  0.00000000  0.74945800  0.08066000  1
  Mg  Mg1  1  0.00000000  0.25054200  0.08066000  1
  Mg  Mg2  1  0.00000000  0.00000000  0.33760000  1
  Mg  Mg3  1  0.50000000  0.24491700  0.41943400  1
  Mg  Mg4  1  0.50000000  0.75508300  0.41943400  1
  Mg  Mg5  1  0.50000000  0.00000000  0.16684500  1
  Mg  Mg6  1  0.00000000  0.24945800  0.58066000  1
  Mg  Mg7  1  0.00000000  0.75054200  0.58066000  1
  Mg  Mg8  1  0.00000000  0.50000000  0.83760000  1
  Mg  Mg9  1  0.50000000  0.74491700  0.91943400  1
  Mg  Mg10  1  0.50000000  0.25508300  0.91943400  1
  Mg  Mg11  1  0.50000000  0.50000000  0.66684500  1
loop_
_geom_bond_atom_site_label_1
_geom_bond_atom_site_label_2
_geom_bond_distance
_geom_bond_site_symmetry_2
La0 Mg4 3.322920 1_555
La0 Mg4 3.322920 1_455
La0 Mg3 3.322920 1_455
La0 Mg3 3.322920 1_555
La0 Mg7 3.360485 1_555
La0 Mg6 3.360485 1_555
La0 Na0 3.380785 1_555
La0 Na0 3.380785 1_455
La0 Mg2 3.387812 1_555
La0 Mg2 3.387812 1_565
La0 Mg1 3.462396 1_555
La0 Mg0 3.462396 1_555
La1 Mg10 3.322920 1_455
La1 Mg10 3.322920 1_555
La1 Mg9 3.322920 1_445
La1 Mg9 3.322920 1_545
La1 Mg1 3.360485 1_556
La1 Mg0 3.360485 1_546
La1 Na1 3.380785 1_555
La1 Na1 3.380785 1_455
La1 Mg8 3.387812 1_555
La1 Mg8 3.387812 1_545
La1 Mg6 3.462396 1_555
La1 Mg7 3.462396 1_545
Mg0 Mg9 3.274260 1_454
Mg0 Mg9 3.274260 1_554
Mg0 Na0 3.286898 1_555
Mg0 Na0 3.286898 1_455
Mg0 Mg5 3.316176 1_565
Mg0 Mg5 3.316176 1_465
Mg0 Mg8 3.338317 1_554
Mg0 Mg1 3.380400 1_555
Mg0 Mg1 3.395089 1_565
Mg0 Mg2 3.484652 1_565
Mg1 Mg10 3.274260 1_554
Mg1 Mg10 3.274260 1_454
Mg1 Na0 3.286898 1_455
Mg1 Na0 3.286898 1_555
Mg1 Mg5 3.316176 1_455
Mg1 Mg5 3.316176 1_555
Mg1 Mg8 3.338317 1_554
Mg1 Mg2 3.484652 1_555
Mg2 Mg3 3.281239 1_555
Mg2 Mg3 3.281239 1_455
Mg2 Mg4 3.281239 1_545
Mg2 Mg4 3.281239 1_445
Mg2 Mg6 3.338317 1_555
Mg2 Mg7 3.338317 1_545
Mg2 Mg5 3.341198 1_455
Mg2 Mg5 3.341198 1_555
Mg3 Mg6 3.274260 1_555
Mg3 Mg6 3.274260 1_655
Mg3 Na1 3.292907 1_555
Mg3 Mg4 3.318865 1_545
Mg3 Mg5 3.421090 1_555
Mg3 Mg4 3.456624 1_555
Mg3 Na0 3.529878 1_555
Mg4 Mg7 3.274260 1_655
Mg4 Mg7 3.274260 1_555
Mg4 Na1 3.292907 1_565
Mg4 Mg5 3.421090 1_565
Mg4 Na0 3.529878 1_555
Mg5 Na0 3.388840 1_555
Mg5 Na0 3.388840 1_545
Mg5 Mg9 3.402060 1_544
Mg6 Na1 3.286898 1_555
Mg6 Na1 3.286898 1_455
Mg6 Mg7 3.380400 1_545
Mg6 Mg7 3.395089 1_555
Mg6 Mg8 3.484652 1_555
Mg7 Na1 3.286898 1_565
Mg7 Na1 3.286898 1_465
Mg7 Mg8 3.484652 1_555
Mg8 Mg9 3.281239 1_455
Mg8 Mg9 3.281239 1_555
Mg9 Na0 3.292907 1_556
Mg9 Na1 3.529878 1_565
Mg10 Mg8 3.281239 1_555
Mg10 Mg8 3.281239 1_655
Mg10 Na0 3.292907 1_556
Mg10 Mg9 3.318865 1_555
Mg10 Mg5 3.402060 1_556
Mg10 Mg11 3.421090 1_555
Mg10 Mg9 3.456624 1_545
Mg10 Na1 3.529878 1_555
Mg11 Mg7 3.316176 1_655
Mg11 Mg7 3.316176 1_555
Mg11 Mg6 3.316176 1_555
Mg11 Mg6 3.316176 1_655
Mg11 Mg8 3.341198 1_555
Mg11 Mg8 3.341198 1_655
Mg11 Na1 3.388840 1_555
Mg11 Na1 3.388840 1_565
Mg11 Mg4 3.402060 1_555
Mg11 Mg3 3.402060 1_555
Mg11 Mg9 3.421090 1_555
