# generated using pymatgen
data_Pr3Cr
_symmetry_space_group_name_H-M   'P 1'
_cell_length_a   5.55517937
_cell_length_b   5.55517937
_cell_length_c   5.55517937
_cell_angle_alpha   60.00000000
_cell_angle_beta   60.00000000
_cell_angle_gamma   60.00000000
_symmetry_Int_Tables_number   1
_chemical_formula_structural   Pr3Cr
_chemical_formula_sum   'Pr3 Cr1'
_cell_volume   121.22139015
_cell_formula_units_Z   1
loop_
 _symmetry_equiv_pos_site_id
 _symmetry_equiv_pos_as_xyz
  1  'x, y, z'
loop_
 _atom_site_type_symbol
 _atom_site_label
 _atom_site_symmetry_multiplicity
 _atom_site_fract_x
 _atom_site_fract_y
 _atom_site_fract_z
 _atom_site_occupancy
  Pr  Pr0  1  0.00000000  0.00000000  0.00000000  1
  Pr  Pr1  1  0.50000000  0.50000000  0.50000000  1
  Pr  Pr2  1  0.25000000  0.25000000  0.25000000  1
  Cr  Cr0  1  0.75000000  0.75000000  0.75000000  1
loop_
_geom_bond_atom_site_label_1
_geom_bond_atom_site_label_2
_geom_bond_distance
_geom_bond_site_symmetry_2
Pr0 Pr2 3.401839 1_554
Pr0 Pr2 3.401839 1_545
Pr0 Pr2 3.401839 1_555
Pr0 Pr2 3.401839 1_455
Pr1 Pr2 3.401839 1_565
Pr1 Pr2 3.401839 1_655
Pr1 Pr2 3.401839 1_555
Pr1 Pr2 3.401839 1_556
Cr0 Pr1 3.401839 1_555
Cr0 Pr1 3.401839 1_565
Cr0 Pr0 3.401839 1_656
Cr0 Pr0 3.401839 1_665
Cr0 Pr1 3.401839 1_556
Cr0 Pr0 3.401839 1_566
Cr0 Pr1 3.401839 1_655
Cr0 Pr0 3.401839 1_666
