# generated using pymatgen
data_LaAg2
_symmetry_space_group_name_H-M   'P 1'
_cell_length_a   4.83808609
_cell_length_b   6.02430322
_cell_length_c   6.02430726
_cell_angle_alpha   75.74271988
_cell_angle_beta   66.23668855
_cell_angle_gamma   66.23635806
_symmetry_Int_Tables_number   1
_chemical_formula_structural   LaAg2
_chemical_formula_sum   'La2 Ag4'
_cell_volume   146.33421958
_cell_formula_units_Z   2
loop_
 _symmetry_equiv_pos_site_id
 _symmetry_equiv_pos_as_xyz
  1  'x, y, z'
loop_
 _atom_site_type_symbol
 _atom_site_label
 _atom_site_symmetry_multiplicity
 _atom_site_fract_x
 _atom_site_fract_y
 _atom_site_fract_z
 _atom_site_occupancy
  La  La0  1  0.46432157  0.28521108  0.78521020  1
  La  La1  1  0.53567864  0.71478921  0.21478968  1
  Ag  Ag0  1  0.83431510  0.12201930  0.20955343  1
  Ag  Ag1  1  0.16568455  0.87798136  0.79044708  1
  Ag  Ag2  1  0.83431370  0.70955194  0.62202114  1
  Ag  Ag3  1  0.16568744  0.29044711  0.37797848  1
loop_
_geom_bond_atom_site_label_1
_geom_bond_atom_site_label_2
_geom_bond_distance
_geom_bond_site_symmetry_2
La0 La1 3.742841 1_555
La0 La1 3.742847 1_546
Ag0 Ag3 2.782092 1_555
Ag0 Ag3 2.785390 1_655
Ag0 Ag1 2.787997 1_644
Ag0 Ag2 3.050828 1_545
Ag0 La1 3.271283 1_555
Ag0 La1 3.297403 1_645
Ag0 La1 3.299836 1_545
Ag0 La0 3.384583 1_555
Ag0 La0 3.418994 1_654
Ag0 La0 3.426021 1_554
Ag1 Ag2 2.782098 1_555
Ag1 Ag2 2.785394 1_455
Ag1 Ag3 3.050826 1_565
Ag1 La0 3.271286 1_555
Ag1 La0 3.297401 1_465
Ag1 La0 3.299835 1_565
Ag1 La1 3.384587 1_555
Ag1 La1 3.418992 1_456
Ag1 La1 3.426020 1_556
Ag2 Ag3 2.788000 1_655
Ag2 La1 3.271287 1_556
Ag2 La1 3.297426 1_655
Ag2 La1 3.299832 1_555
Ag2 La0 3.384581 1_565
Ag2 La0 3.418970 1_655
Ag2 La0 3.426014 1_555
Ag3 La0 3.271285 1_554
Ag3 La0 3.297428 1_455
Ag3 La0 3.299833 1_555
Ag3 La1 3.384574 1_545
Ag3 La1 3.418975 1_455
Ag3 La1 3.426018 1_555
