# generated using pymatgen
data_MgMn4(Si4O11)2
_symmetry_space_group_name_H-M   'P 1'
_cell_length_a   8.75167643
_cell_length_b   7.75328616
_cell_length_c   7.15219765
_cell_angle_alpha   108.49657508
_cell_angle_beta   101.80966730
_cell_angle_gamma   99.97875668
_symmetry_Int_Tables_number   1
_chemical_formula_structural   MgMn4(Si4O11)2
_chemical_formula_sum   'Mg1 Mn4 Si8 O22'
_cell_volume   435.40953468
_cell_formula_units_Z   1
loop_
 _symmetry_equiv_pos_site_id
 _symmetry_equiv_pos_as_xyz
  1  'x, y, z'
loop_
 _atom_site_type_symbol
 _atom_site_label
 _atom_site_symmetry_multiplicity
 _atom_site_fract_x
 _atom_site_fract_y
 _atom_site_fract_z
 _atom_site_occupancy
  Mg  Mg0  1  0.00000000  0.50000000  0.00000000  1
  Mn  Mn0  1  0.37600400  0.65846600  0.85227300  1
  Mn  Mn1  1  0.40066700  0.61967800  0.34596700  1
  Mn  Mn2  1  0.59933300  0.38032200  0.65403300  1
  Mn  Mn3  1  0.62399600  0.34153400  0.14772700  1
  Si  Si0  1  0.04092900  0.35407500  0.25685600  1
  Si  Si1  1  0.23795400  0.20345600  0.96914400  1
  Si  Si2  1  0.22205500  0.20432800  0.53526100  1
  Si  Si3  1  0.60499200  0.98242700  0.75751500  1
  Si  Si4  1  0.39500800  0.01757300  0.24248400  1
  Si  Si5  1  0.77794500  0.79567200  0.46473900  1
  Si  Si6  1  0.76204600  0.79654400  0.03085600  1
  Si  Si7  1  0.95907100  0.64592500  0.74314400  1
  O  O0  1  0.12853700  0.60038900  0.82517000  1
  O  O1  1  0.05981900  0.25198200  0.42137900  1
  O  O2  1  0.16951400  0.55659100  0.30231500  1
  O  O3  1  0.07035600  0.22278600  0.03602400  1
  O  O4  1  0.18325600  0.14951800  0.72338000  1
  O  O5  1  0.26289400  0.02748100  0.37712700  1
  O  O6  1  0.37127300  0.39339100  0.60813600  1
  O  O7  1  0.44881800  0.79596200  0.63714800  1
  O  O8  1  0.42975300  0.81128900  0.18175400  1
  O  O9  1  0.30884100  0.03678900  0.02149600  1
  O  O10  1  0.37646100  0.40326400  0.09151100  1
  O  O11  1  0.62353900  0.59673600  0.90848900  1
  O  O12  1  0.69115900  0.96321100  0.97850400  1
  O  O13  1  0.57024700  0.18871100  0.81824600  1
  O  O14  1  0.55118200  0.20403800  0.36285200  1
  O  O15  1  0.62872700  0.60660900  0.39186400  1
  O  O16  1  0.73710600  0.97251900  0.62287300  1
  O  O17  1  0.81674400  0.85048200  0.27662000  1
  O  O18  1  0.92964400  0.77721400  0.96397600  1
  O  O19  1  0.83048600  0.44340900  0.69768500  1
  O  O20  1  0.94018100  0.74801800  0.57862100  1
  O  O21  1  0.87146300  0.39961100  0.17483000  1
loop_
_geom_bond_atom_site_label_1
_geom_bond_atom_site_label_2
_geom_bond_distance
_geom_bond_site_symmetry_2
Mg0 O0 2.079577 1_554
Mg0 O21 2.079577 1_455
Mg0 O2 2.219917 1_555
Mg0 O19 2.219917 1_454
Mg0 O18 2.410428 1_454
Mg0 O3 2.410428 1_555
Mn0 O0 2.089405 1_555
Mn0 O8 2.181707 1_556
Mn0 O6 2.222261 1_555
Mn0 O7 2.261967 1_555
Mn0 O11 2.282255 1_555
Mn1 O2 1.931531 1_555
Mn1 O15 1.981081 1_555
Mn1 O10 1.988430 1_555
Mn1 O7 2.004480 1_555
Mn1 O8 2.179372 1_555
Mn2 O19 1.931531 1_555
Mn2 O6 1.981081 1_555
Mn2 O11 1.988430 1_555
Mn2 O14 2.004480 1_555
Mn2 O13 2.179372 1_555
Mn3 O21 2.089405 1_555
Mn3 O13 2.181707 1_554
Mn3 O15 2.222261 1_555
Mn3 O14 2.261967 1_555
Mn3 O10 2.282255 1_555
O0 Si7 1.620242 1_455
O1 Si0 1.610971 1_555
O1 Si2 1.647803 1_555
O2 Si0 1.658751 1_555
O3 Si1 1.649408 1_554
O3 Si0 1.683551 1_555
O4 Si2 1.614292 1_555
O4 Si1 1.616641 1_555
O5 Si2 1.624283 1_555
O5 Si4 1.646116 1_555
O6 Si2 1.642863 1_555
O7 Si3 1.656259 1_555
O8 Si4 1.618940 1_565
O9 Si1 1.638488 1_554
O9 Si4 1.670176 1_555
O10 Si1 1.640101 1_554
O11 Si6 1.640101 1_556
O12 Si6 1.638488 1_556
O12 Si3 1.670182 1_555
O13 Si3 1.618940 1_545
O14 Si4 1.656259 1_555
O15 Si5 1.642863 1_555
O16 Si5 1.624283 1_555
O16 Si3 1.646110 1_555
O17 Si5 1.614292 1_555
O17 Si6 1.616641 1_555
O18 Si6 1.649408 1_556
O18 Si7 1.683551 1_555
O19 Si7 1.658751 1_555
O20 Si7 1.610971 1_555
O20 Si5 1.647803 1_555
O21 Si0 1.620242 1_655
