# generated using pymatgen
data_Li3FeO3
_symmetry_space_group_name_H-M   'P 1'
_cell_length_a   3.59338200
_cell_length_b   8.98810839
_cell_length_c   8.98828038
_cell_angle_alpha   90.33924180
_cell_angle_beta   89.99985006
_cell_angle_gamma   90.00005125
_symmetry_Int_Tables_number   1
_chemical_formula_structural   Li3FeO3
_chemical_formula_sum   'Li12 Fe4 O12'
_cell_volume   290.29575691
_cell_formula_units_Z   4
loop_
 _symmetry_equiv_pos_site_id
 _symmetry_equiv_pos_as_xyz
  1  'x, y, z'
loop_
 _atom_site_type_symbol
 _atom_site_label
 _atom_site_symmetry_multiplicity
 _atom_site_fract_x
 _atom_site_fract_y
 _atom_site_fract_z
 _atom_site_occupancy
  Li  Li0  1  0.00000100  0.16932800  0.17359300  1
  Li  Li1  1  0.50000100  0.33216800  0.66781100  1
  Li  Li2  1  0.50000000  0.66876900  0.33120900  1
  Li  Li3  1  0.00000100  0.82639300  0.83066300  1
  Li  Li4  1  0.50000100  0.09977000  0.35698500  1
  Li  Li5  1  0.99999900  0.14186900  0.59350300  1
  Li  Li6  1  0.50000400  0.36051600  0.10222100  1
  Li  Li7  1  0.00000100  0.40648200  0.85811100  1
  Li  Li8  1  0.00000200  0.60016400  0.14295600  1
  Li  Li9  1  0.50000400  0.64301300  0.90022600  1
  Li  Li10  1  0.00000100  0.85701900  0.39983000  1
  Li  Li11  1  0.50000100  0.89776500  0.63946800  1
  Fe  Fe0  1  0.99999200  0.38571500  0.38523700  1
  Fe  Fe1  1  0.00000400  0.61469600  0.61426200  1
  Fe  Fe2  1  0.49998300  0.11673000  0.88333900  1
  Fe  Fe3  1  0.50000300  0.88352600  0.11662700  1
  O  O0  1  0.50000000  0.09900600  0.10545700  1
  O  O1  1  0.99999900  0.39949700  0.60048700  1
  O  O2  1  0.99999900  0.60041600  0.39957100  1
  O  O3  1  0.50000000  0.89458500  0.90103700  1
  O  O4  1  0.49999900  0.10971200  0.67348100  1
  O  O5  1  0.99999900  0.18093800  0.38755400  1
  O  O6  1  0.50000000  0.32651700  0.89027400  1
  O  O7  1  0.00000200  0.38840700  0.18016500  1
  O  O8  1  0.00000200  0.61243000  0.81905400  1
  O  O9  1  0.50000100  0.67760400  0.11286100  1
  O  O10  1  0.99999900  0.81981800  0.61158200  1
  O  O11  1  0.50000100  0.88715000  0.32243600  1
loop_
_geom_bond_atom_site_label_1
_geom_bond_atom_site_label_2
_geom_bond_distance
_geom_bond_site_symmetry_2
Li0 O5 1.925353 1_455
Li0 O7 1.969642 1_555
Li0 O0 1.999516 1_555
Li0 O0 1.999525 1_455
Li1 O1 1.991180 1_555
Li1 O1 1.991197 1_455
Li1 O4 2.000410 1_555
Li1 O6 2.000505 1_555
Li2 O9 1.964649 1_555
Li2 O11 1.964882 1_555
Li2 O2 1.996889 1_555
Li2 O2 1.996891 1_455
Li3 O8 1.925334 1_555
Li3 O10 1.969698 1_455
Li3 O3 1.999819 1_555
Li3 O3 1.999823 1_455
Li4 O11 1.934302 1_545
Li4 O5 1.957915 1_555
Li4 O5 1.957928 1_455
Li4 O0 2.260774 1_555
Li5 O5 1.886182 1_555
Li5 O4 1.957257 1_555
Li5 O4 1.957261 1_655
Li5 O1 2.316068 1_555
Li6 O6 1.927606 1_554
Li6 O7 1.944134 1_655
Li6 O7 1.944145 1_555
Li6 O0 2.350832 1_555
Li7 O8 1.886119 1_555
Li7 O6 1.957218 1_555
Li7 O6 1.957222 1_455
Li7 O1 2.316076 1_455
Li8 O7 1.934405 1_555
Li8 O9 1.946266 1_555
Li8 O9 1.946275 1_455
Li8 O2 2.306515 1_455
Li9 O9 1.934528 1_556
Li9 O8 1.957949 1_655
Li9 O8 1.957965 1_555
Li9 O3 2.261125 1_555
Li10 O10 1.934383 1_455
Li10 O11 1.946170 1_555
Li10 O11 1.946174 1_455
Li10 O2 2.306363 1_455
Li11 O4 1.927590 1_565
Li11 O10 1.944133 1_555
Li11 O10 1.944146 1_455
Li11 O3 2.351398 1_555
Fe0 O5 1.840799 1_555
Fe0 O7 1.843547 1_655
Fe0 O2 1.933291 1_555
Fe0 O1 1.937957 1_555
Fe1 O8 1.840961 1_555
Fe1 O10 1.843959 1_455
Fe1 O2 1.933208 1_455
Fe1 O1 1.937459 1_455
Fe2 O6 1.886249 1_555
Fe2 O4 1.886944 1_555
Fe2 O0 2.003745 1_556
Fe2 O3 2.003929 1_545
Fe3 O11 1.849963 1_555
Fe3 O9 1.850958 1_555
Fe3 O0 1.939952 1_565
Fe3 O3 1.940919 1_554
