# generated using pymatgen
data_La4Cu5As8
_symmetry_space_group_name_H-M   'P 1'
_cell_length_a   10.54615757
_cell_length_b   10.54615757
_cell_length_c   5.84538611
_cell_angle_alpha   90.00000000
_cell_angle_beta   90.00000000
_cell_angle_gamma   148.30827922
_symmetry_Int_Tables_number   1
_chemical_formula_structural   La4Cu5As8
_chemical_formula_sum   'La4 Cu5 As8'
_cell_volume   341.54613893
_cell_formula_units_Z   1
loop_
 _symmetry_equiv_pos_site_id
 _symmetry_equiv_pos_as_xyz
  1  'x, y, z'
loop_
 _atom_site_type_symbol
 _atom_site_label
 _atom_site_symmetry_multiplicity
 _atom_site_fract_x
 _atom_site_fract_y
 _atom_site_fract_z
 _atom_site_occupancy
  La  La0  1  0.62015664  0.37984336  0.00000000  1
  La  La1  1  0.12205063  0.87794937  0.50000000  1
  La  La2  1  0.87638364  0.12361636  0.50000000  1
  La  La3  1  0.37895643  0.62104357  0.00000000  1
  Cu  Cu0  1  0.99520774  0.49536809  0.24445041  1
  Cu  Cu1  1  0.50463191  0.00479226  0.75554959  1
  Cu  Cu2  1  0.50463191  0.00479226  0.24445041  1
  Cu  Cu3  1  0.99520774  0.49536809  0.75554959  1
  Cu  Cu4  1  0.44132513  0.55867487  0.50000000  1
  As  As0  1  0.82309258  0.17690742  0.00000000  1
  As  As1  1  0.31958266  0.68041734  0.50000000  1
  As  As2  1  0.67861876  0.32138124  0.50000000  1
  As  As3  1  0.17872241  0.82127759  0.00000000  1
  As  As4  1  0.77774098  0.77692507  0.76518088  1
  As  As5  1  0.22307493  0.22225902  0.23481912  1
  As  As6  1  0.77774098  0.77692507  0.23481912  1
  As  As7  1  0.22307493  0.22225902  0.76518088  1
loop_
_geom_bond_atom_site_label_1
_geom_bond_atom_site_label_2
_geom_bond_distance
_geom_bond_site_symmetry_2
Cu0 La2 3.288112 1_555
Cu0 La0 3.312117 1_555
Cu0 La3 3.324003 1_655
Cu0 La1 3.333937 1_655
Cu1 La2 3.288112 1_555
Cu1 La0 3.312117 1_556
Cu1 La3 3.324003 1_546
Cu1 La1 3.333937 1_545
Cu2 La2 3.288112 1_555
Cu2 La0 3.312117 1_555
Cu2 La3 3.324003 1_545
Cu2 La1 3.333937 1_545
Cu3 La2 3.288112 1_555
Cu3 La0 3.312117 1_556
Cu3 La3 3.324003 1_656
Cu3 La1 3.333937 1_655
Cu4 La2 3.166805 1_565
Cu4 La2 3.166805 1_455
Cu4 La3 3.184910 1_556
Cu4 La3 3.184910 1_555
As0 Cu0 2.498373 1_555
As0 Cu3 2.498373 1_554
As0 Cu2 2.498373 1_555
As0 Cu1 2.498373 1_554
As0 La3 3.094697 1_545
As0 La3 3.094697 1_655
As0 La2 3.116309 1_554
As0 La2 3.116309 1_555
As1 Cu4 2.470252 1_555
As1 Cu3 2.526138 1_455
As1 Cu0 2.526138 1_455
As1 Cu1 2.526138 1_565
As1 Cu2 2.526138 1_565
As1 La2 3.101713 1_565
As1 La2 3.101713 1_455
As1 La3 3.161256 1_556
As1 La3 3.161256 1_555
As2 Cu1 2.513992 1_555
As2 Cu2 2.513992 1_555
As2 Cu0 2.513992 1_555
As2 Cu3 2.513992 1_555
As2 La1 3.099960 1_545
As2 La1 3.099960 1_655
As2 La0 3.154252 1_556
As2 La0 3.154252 1_555
As3 Cu1 2.506143 1_564
As3 Cu2 2.506143 1_565
As3 Cu0 2.506143 1_455
As3 Cu3 2.506143 1_454
As3 La0 3.115196 1_565
As3 La0 3.115196 1_455
As3 La1 3.140771 1_555
As3 La1 3.140771 1_554
As4 Cu4 2.528069 1_555
As4 As7 2.564796 1_665
As4 As6 2.745217 1_556
As4 La1 3.184251 1_655
As4 La0 3.215451 1_556
As4 La2 3.221854 1_565
As4 La3 3.241639 1_556
As5 Cu4 2.528069 1_555
As5 As6 2.564796 1_445
As5 As7 2.745217 1_554
As5 La1 3.184251 1_545
As5 La0 3.215451 1_555
As5 La2 3.221854 1_455
As5 La3 3.241639 1_555
As6 Cu4 2.528069 1_555
As6 La1 3.184251 1_655
As6 La0 3.215451 1_555
As6 La2 3.221854 1_565
As6 La3 3.241639 1_555
As7 Cu4 2.528069 1_555
As7 La1 3.184251 1_545
As7 La0 3.215451 1_556
As7 La2 3.221854 1_455
As7 La3 3.241639 1_556
