# generated using pymatgen
data_SbTeN
_symmetry_space_group_name_H-M   'P 1'
_cell_length_a   3.95744900
_cell_length_b   3.95744900
_cell_length_c   9.76846100
_cell_angle_alpha   90.00000000
_cell_angle_beta   90.00000000
_cell_angle_gamma   90.00000000
_symmetry_Int_Tables_number   1
_chemical_formula_structural   SbTeN
_chemical_formula_sum   'Sb2 Te2 N2'
_cell_volume   152.98780038
_cell_formula_units_Z   2
loop_
 _symmetry_equiv_pos_site_id
 _symmetry_equiv_pos_as_xyz
  1  'x, y, z'
loop_
 _atom_site_type_symbol
 _atom_site_label
 _atom_site_symmetry_multiplicity
 _atom_site_fract_x
 _atom_site_fract_y
 _atom_site_fract_z
 _atom_site_occupancy
  Sb  Sb0  1  0.50000000  0.00000000  0.10460100  1
  Sb  Sb1  1  0.00000000  0.50000000  0.89539900  1
  Te  Te0  1  0.50000000  0.00000000  0.55122400  1
  Te  Te1  1  0.00000000  0.50000000  0.44877600  1
  N  N0  1  0.50000000  0.50000000  0.00000000  1
  N  N1  1  0.00000000  0.00000000  0.00000000  1
loop_
_geom_bond_atom_site_label_1
_geom_bond_atom_site_label_2
_geom_bond_distance
_geom_bond_site_symmetry_2
Te0 Te1 2.971905 1_555
Te0 Te1 2.971905 1_645
Te0 Te1 2.971905 1_545
Te0 Te1 2.971905 1_655
N0 Sb0 2.226973 1_565
N0 Sb0 2.226973 1_555
N0 Sb1 2.226973 1_554
N0 Sb1 2.226973 1_654
N1 Sb0 2.226973 1_455
N1 Sb0 2.226973 1_555
N1 Sb1 2.226973 1_554
N1 Sb1 2.226973 1_544
