# generated using pymatgen
data_GdCoSi
_symmetry_space_group_name_H-M   'P 1'
_cell_length_a   3.88857214
_cell_length_b   3.88857214
_cell_length_c   7.02150853
_cell_angle_alpha   90.00000000
_cell_angle_beta   90.00000000
_cell_angle_gamma   90.00000000
_symmetry_Int_Tables_number   1
_chemical_formula_structural   GdCoSi
_chemical_formula_sum   'Gd2 Co2 Si2'
_cell_volume   106.17218335
_cell_formula_units_Z   2
loop_
 _symmetry_equiv_pos_site_id
 _symmetry_equiv_pos_as_xyz
  1  'x, y, z'
loop_
 _atom_site_type_symbol
 _atom_site_label
 _atom_site_symmetry_multiplicity
 _atom_site_fract_x
 _atom_site_fract_y
 _atom_site_fract_z
 _atom_site_occupancy
  Gd  Gd0  1  -0.00000000  0.50000000  0.32519204  1
  Gd  Gd1  1  0.50000000  0.00000000  0.67480796  1
  Co  Co0  1  0.00000000  -0.00000000  -0.00000000  1
  Co  Co1  1  0.50000000  0.50000000  -0.00000000  1
  Si  Si0  1  0.00000000  0.50000000  0.82528290  1
  Si  Si1  1  0.50000000  0.00000000  0.17471710  1
loop_
_geom_bond_atom_site_label_1
_geom_bond_atom_site_label_2
_geom_bond_distance
_geom_bond_site_symmetry_2
Gd0 Si1 2.945644 1_455
Gd0 Si1 2.945644 1_565
Gd0 Si1 2.945644 1_465
Gd0 Si1 2.945644 1_555
Gd0 Si0 3.511392 1_555
Gd1 Si0 2.945644 1_645
Gd1 Si0 2.945644 1_545
Gd1 Si0 2.945644 1_655
Gd1 Si0 2.945644 1_555
Gd1 Si1 3.511392 1_555
Co0 Si1 2.298963 1_455
Co0 Si1 2.298963 1_555
Co0 Si0 2.298963 1_554
Co0 Si0 2.298963 1_544
Co0 Gd1 2.998980 1_554
Co0 Gd0 2.998980 1_555
Co0 Gd1 2.998980 1_454
Co0 Gd0 2.998980 1_545
Co1 Si1 2.298963 1_565
Co1 Si0 2.298963 1_654
Co1 Si1 2.298963 1_555
Co1 Si0 2.298963 1_554
Co1 Gd0 2.998980 1_655
Co1 Gd1 2.998980 1_564
Co1 Gd0 2.998980 1_555
Co1 Gd1 2.998980 1_554
