# generated using pymatgen
data_CsTm(MoO4)2
_symmetry_space_group_name_H-M   'P 1'
_cell_length_a   7.56532861
_cell_length_b   7.56532861
_cell_length_c   7.75387824
_cell_angle_alpha   62.07853721
_cell_angle_beta   62.07853721
_cell_angle_gamma   88.51585778
_symmetry_Int_Tables_number   1
_chemical_formula_structural   CsTm(MoO4)2
_chemical_formula_sum   'Cs2 Tm2 Mo4 O16'
_cell_volume   335.68341855
_cell_formula_units_Z   2
loop_
 _symmetry_equiv_pos_site_id
 _symmetry_equiv_pos_as_xyz
  1  'x, y, z'
loop_
 _atom_site_type_symbol
 _atom_site_label
 _atom_site_symmetry_multiplicity
 _atom_site_fract_x
 _atom_site_fract_y
 _atom_site_fract_z
 _atom_site_occupancy
  Cs  Cs0  1  0.19647900  0.80352100  0.75000000  1
  Cs  Cs1  1  0.80352100  0.19647900  0.25000000  1
  Tm  Tm0  1  0.77092500  0.22907500  0.75000000  1
  Tm  Tm1  1  0.22907500  0.77092500  0.25000000  1
  Mo  Mo0  1  0.69696400  0.69303400  0.76729400  1
  Mo  Mo1  1  0.30303600  0.30696600  0.23270600  1
  Mo  Mo2  1  0.30696600  0.30303600  0.73270600  1
  Mo  Mo3  1  0.69303400  0.69696400  0.26729400  1
  O  O0  1  0.61739800  0.75889000  0.56561700  1
  O  O1  1  0.38260200  0.24111000  0.43438300  1
  O  O2  1  0.24111000  0.38260200  0.93438300  1
  O  O3  1  0.75889000  0.61739800  0.06561700  1
  O  O4  1  0.37993800  0.06584800  0.87959000  1
  O  O5  1  0.62006200  0.93415200  0.12041000  1
  O  O6  1  0.93415200  0.62006200  0.62041000  1
  O  O7  1  0.06584800  0.37993800  0.37959000  1
  O  O8  1  0.58619100  0.36819000  0.96523400  1
  O  O9  1  0.41380900  0.63181000  0.03476600  1
  O  O10  1  0.63181000  0.41380900  0.53476600  1
  O  O11  1  0.36819000  0.58619100  0.46523400  1
  O  O12  1  0.78759000  0.95059100  0.69938000  1
  O  O13  1  0.21241000  0.04940900  0.30062000  1
  O  O14  1  0.04940900  0.21241000  0.80062000  1
  O  O15  1  0.95059100  0.78759000  0.19938000  1
loop_
_geom_bond_atom_site_label_1
_geom_bond_atom_site_label_2
_geom_bond_distance
_geom_bond_site_symmetry_2
Cs0 O3 2.891037 1_456
Cs0 O1 2.891037 1_565
Cs0 O2 2.903629 1_555
Cs0 O0 2.903629 1_555
Cs0 O13 3.027243 1_565
Cs0 O15 3.027243 1_456
Cs0 O11 3.141546 1_555
Cs0 O9 3.141546 1_556
Cs0 O6 3.192330 1_455
Cs0 O4 3.192330 1_565
Cs0 O12 3.392759 1_455
Cs0 O14 3.392759 1_565
Cs1 O0 2.891037 1_545
Cs1 O2 2.891037 1_654
Cs1 O1 2.903629 1_555
Cs1 O3 2.903629 1_555
Cs1 O14 3.027243 1_654
Cs1 O12 3.027243 1_545
Cs1 O10 3.141546 1_555
Cs1 O8 3.141546 1_554
Cs1 O5 3.192330 1_545
Cs1 O7 3.192330 1_655
Cs1 O15 3.392759 1_545
Cs1 O13 3.392759 1_655
Mo0 O0 1.786709 1_555
Mo0 O12 1.820487 1_555
Mo0 O6 1.856169 1_555
Mo0 O9 2.023782 1_556
Mo0 O8 2.113568 1_555
Mo0 O3 2.378874 1_556
Mo1 O1 1.786709 1_555
Mo1 O13 1.820487 1_555
Mo1 O7 1.856169 1_555
Mo1 O8 2.023782 1_554
Mo1 O9 2.113568 1_555
Mo1 O2 2.378874 1_554
Mo2 O2 1.786709 1_555
Mo2 O14 1.820487 1_555
Mo2 O4 1.856169 1_555
Mo2 O11 2.023782 1_555
Mo2 O10 2.113568 1_555
Mo2 O1 2.378874 1_555
Mo3 O3 1.786709 1_555
Mo3 O15 1.820487 1_555
Mo3 O5 1.856169 1_555
Mo3 O10 2.023782 1_555
Mo3 O11 2.113568 1_555
Mo3 O0 2.378874 1_555
O4 Tm1 2.364402 1_546
O4 Tm0 2.743649 1_555
O5 Tm0 2.364402 1_564
O5 Tm1 2.743649 1_555
O6 Tm1 2.364402 1_655
O6 Tm0 2.743649 1_555
O7 Tm0 2.364402 1_455
O7 Tm1 2.743649 1_555
O8 Tm0 2.287024 1_555
O9 Tm1 2.287024 1_555
O10 Tm0 2.287024 1_555
O11 Tm1 2.287024 1_555
O12 Tm0 2.307161 1_565
O13 Tm1 2.307161 1_545
O14 Tm0 2.307161 1_455
O15 Tm1 2.307161 1_655
