# generated using pymatgen
data_KLi2(HO)3
_symmetry_space_group_name_H-M   'P 1'
_cell_length_a   5.70292600
_cell_length_b   6.14515800
_cell_length_c   7.43948642
_cell_angle_alpha   75.12491871
_cell_angle_beta   90.00000000
_cell_angle_gamma   90.00000000
_symmetry_Int_Tables_number   1
_chemical_formula_structural   KLi2(HO)3
_chemical_formula_sum   'K2 Li4 H6 O6'
_cell_volume   251.98235463
_cell_formula_units_Z   2
loop_
 _symmetry_equiv_pos_site_id
 _symmetry_equiv_pos_as_xyz
  1  'x, y, z'
loop_
 _atom_site_type_symbol
 _atom_site_label
 _atom_site_symmetry_multiplicity
 _atom_site_fract_x
 _atom_site_fract_y
 _atom_site_fract_z
 _atom_site_occupancy
  K  K0  1  0.25000000  0.73464500  0.48130200  1
  K  K1  1  0.75000000  0.26535500  0.51869800  1
  Li  Li0  1  0.54395300  0.66207900  0.85471500  1
  Li  Li1  1  0.95604700  0.66207900  0.85471500  1
  Li  Li2  1  0.45604700  0.33792100  0.14528500  1
  Li  Li3  1  0.04395300  0.33792100  0.14528500  1
  H  H0  1  0.25000000  0.25718900  0.83932800  1
  H  H1  1  0.75000000  0.74281100  0.16067200  1
  H  H2  1  0.25000000  0.15467200  0.80210800  1
  H  H3  1  0.75000000  0.84532800  0.19789200  1
  H  H4  1  0.75000000  0.38755100  0.91811300  1
  H  H5  1  0.25000000  0.61244900  0.08188700  1
  O  O0  1  0.75000000  0.84899600  0.69016800  1
  O  O1  1  0.25000000  0.15100400  0.30983200  1
  O  O2  1  0.75000000  0.61471200  0.65420200  1
  O  O3  1  0.75000000  0.42183300  0.04009200  1
  O  O4  1  0.25000000  0.38528800  0.34579800  1
  O  O5  1  0.25000000  0.57816700  0.95990800  1
loop_
_geom_bond_atom_site_label_1
_geom_bond_atom_site_label_2
_geom_bond_distance
_geom_bond_site_symmetry_2
K0 O1 2.549102 1_565
K0 O4 2.595450 1_555
K0 O2 3.137169 1_555
K0 O2 3.137169 1_455
K1 O0 2.549102 1_545
K1 O2 2.595450 1_555
K1 O4 3.137169 1_655
K1 O4 3.137169 1_555
Li0 O0 1.864607 1_555
Li0 O5 1.865860 1_555
Li0 O2 1.978297 1_555
Li0 O3 2.101662 1_556
Li1 O0 1.864607 1_555
Li1 O5 1.865860 1_655
Li1 O2 1.978297 1_555
Li1 O3 2.101662 1_556
Li2 O1 1.864607 1_555
Li2 O3 1.865860 1_555
Li2 O4 1.978297 1_555
Li2 O5 2.101662 1_554
Li3 O1 1.864607 1_555
Li3 O3 1.865860 1_455
Li3 O4 1.978297 1_555
Li3 O5 2.101662 1_554
H0 H2 0.750409 1_555
H1 H3 0.750409 1_555
H4 O3 0.982863 1_556
H4 Li0 2.010162 1_555
H4 Li1 2.010162 1_555
H5 O5 0.982863 1_554
H5 Li3 2.010162 1_555
H5 Li2 2.010162 1_555
O0 O2 1.530407 1_555
O1 O4 1.530407 1_555
