# generated using pymatgen
data_In10(Pb2S7)3
_symmetry_space_group_name_H-M   'P 1'
_cell_length_a   14.13573972
_cell_length_b   14.13573972
_cell_length_c   15.93985637
_cell_angle_alpha   84.83459111
_cell_angle_beta   84.83459111
_cell_angle_gamma   15.91553337
_symmetry_Int_Tables_number   1
_chemical_formula_structural   In10(Pb2S7)3
_chemical_formula_sum   'In10 Pb6 S21'
_cell_volume   869.79830179
_cell_formula_units_Z   1
loop_
 _symmetry_equiv_pos_site_id
 _symmetry_equiv_pos_as_xyz
  1  'x, y, z'
loop_
 _atom_site_type_symbol
 _atom_site_label
 _atom_site_symmetry_multiplicity
 _atom_site_fract_x
 _atom_site_fract_y
 _atom_site_fract_z
 _atom_site_occupancy
  In  In0  1  0.68782200  0.68782200  0.51538200  1
  In  In1  1  0.31217800  0.31217800  0.48461800  1
  In  In2  1  0.78510100  0.78510100  0.69205500  1
  In  In3  1  0.21489900  0.21489900  0.30794500  1
  In  In4  1  0.26467500  0.26467500  0.89235500  1
  In  In5  1  0.73532500  0.73532500  0.10764500  1
  In  In6  1  0.51336300  0.51336300  0.87101500  1
  In  In7  1  0.48663700  0.48663700  0.12898500  1
  In  In8  1  0.90047400  0.90047400  0.98123100  1
  In  In9  1  0.09952600  0.09952600  0.01876900  1
  Pb  Pb0  1  0.92561900  0.92561900  0.70590500  1
  Pb  Pb1  1  0.07438100  0.07438100  0.29409500  1
  Pb  Pb2  1  0.04959600  0.04959600  0.56814900  1
  Pb  Pb3  1  0.95040400  0.95040400  0.43185100  1
  Pb  Pb4  1  0.13704300  0.13704300  0.75863900  1
  Pb  Pb5  1  0.86295700  0.86295700  0.24136100  1
  S  S0  1  0.00000000  0.00000000  0.00000000  1
  S  S1  1  0.02596200  0.02596200  0.76395300  1
  S  S2  1  0.97403800  0.97403800  0.23604700  1
  S  S3  1  0.32754300  0.32754300  0.76138400  1
  S  S4  1  0.67245700  0.67245700  0.23861600  1
  S  S5  1  0.23606600  0.23606600  0.59796000  1
  S  S6  1  0.76393400  0.76393400  0.40204000  1
  S  S7  1  0.42133700  0.42133700  0.87349100  1
  S  S8  1  0.57866300  0.57866300  0.12650900  1
  S  S9  1  0.60214300  0.60214300  0.90427300  1
  S  S10  1  0.39785700  0.39785700  0.09572700  1
  S  S11  1  0.61812800  0.61812800  0.63259500  1
  S  S12  1  0.38187200  0.38187200  0.36740500  1
  S  S13  1  0.46503700  0.46503700  0.59297100  1
  S  S14  1  0.53496300  0.53496300  0.40702900  1
  S  S15  1  0.80449300  0.80449300  0.97611300  1
  S  S16  1  0.19550700  0.19550700  0.02388700  1
  S  S17  1  0.71878600  0.71878600  0.81222200  1
  S  S18  1  0.28121400  0.28121400  0.18777800  1
  S  S19  1  0.84942300  0.84942300  0.56492100  1
  S  S20  1  0.15057700  0.15057700  0.43507900  1
loop_
_geom_bond_atom_site_label_1
_geom_bond_atom_site_label_2
_geom_bond_distance
_geom_bond_site_symmetry_2
In0 S11 2.575999 1_555
In0 S20 2.607388 1_565
In0 S20 2.607388 1_655
In0 S6 2.665613 1_555
In0 S5 2.776751 1_565
In0 S5 2.776751 1_655
In1 S12 2.575999 1_555
In1 S19 2.607388 1_545
In1 S19 2.607388 1_455
In1 S5 2.665613 1_555
In1 S6 2.776751 1_545
In1 S6 2.776751 1_455
In2 S17 2.543599 1_555
In2 S19 2.585850 1_555
In2 S3 2.588820 1_655
In2 S3 2.588820 1_565
In2 S5 2.887695 1_565
In2 S5 2.887695 1_655
In3 S18 2.543599 1_555
In3 S20 2.585850 1_555
In3 S4 2.588820 1_455
In3 S4 2.588820 1_545
In3 S6 2.887695 1_545
In3 S6 2.887695 1_455
In4 S3 2.605512 1_555
In4 S15 2.669432 1_545
In4 S15 2.669432 1_455
In4 S16 2.721786 1_556
In4 S17 2.722240 1_545
In4 S17 2.722240 1_455
In5 S4 2.605512 1_555
In5 S16 2.669432 1_565
In5 S16 2.669432 1_655
In5 S15 2.721786 1_554
In5 S18 2.722240 1_655
In5 S18 2.722240 1_565
In6 S7 2.573370 1_555
In6 S9 2.588376 1_555
In6 S1 2.599451 1_655
In6 S1 2.599451 1_565
In6 S0 2.838505 1_566
In6 S0 2.838505 1_656
In7 S8 2.573370 1_555
In7 S10 2.588376 1_555
In7 S2 2.599451 1_545
In7 S2 2.599451 1_455
In7 S0 2.838505 1_565
In7 S0 2.838505 1_655
In8 S7 2.634007 1_565
In8 S7 2.634007 1_655
In8 S10 2.672395 1_566
In8 S10 2.672395 1_656
In8 S15 2.696035 1_555
In8 S0 2.829578 1_666
In9 S8 2.634007 1_455
In9 S8 2.634007 1_545
In9 S9 2.672395 1_454
In9 S9 2.672395 1_544
In9 S16 2.696035 1_555
In9 S0 2.829578 1_555
Pb0 S13 2.815538 1_565
Pb0 S13 2.815538 1_655
Pb0 S1 3.036811 1_665
Pb1 S14 2.815538 1_455
Pb1 S14 2.815538 1_545
Pb1 S2 3.036811 1_445
Pb2 S11 2.987547 1_455
Pb2 S11 2.987547 1_545
Pb2 S13 3.069452 1_455
Pb2 S13 3.069452 1_545
Pb2 S1 3.131066 1_555
Pb3 S12 2.987547 1_655
Pb3 S12 2.987547 1_565
Pb3 S14 3.069452 1_565
Pb3 S14 3.069452 1_655
Pb3 S2 3.131066 1_555
Pb4 S11 2.887966 1_545
Pb4 S11 2.887966 1_455
Pb4 S1 3.103629 1_555
Pb4 S9 3.124277 1_545
Pb4 S9 3.124277 1_455
Pb4 S17 3.186390 1_545
Pb4 S17 3.186390 1_455
Pb5 S12 2.887966 1_565
Pb5 S12 2.887966 1_655
Pb5 S2 3.103629 1_555
Pb5 S10 3.124277 1_565
Pb5 S10 3.124277 1_655
Pb5 S18 3.186390 1_655
Pb5 S18 3.186390 1_565
