# generated using pymatgen
data_Ba16Zn9Ge80Pd3
_symmetry_space_group_name_H-M   'P 1'
_cell_length_a   10.93170242
_cell_length_b   10.92208333
_cell_length_c   21.80441300
_cell_angle_alpha   89.98148966
_cell_angle_beta   90.00004944
_cell_angle_gamma   90.00000063
_symmetry_Int_Tables_number   1
_chemical_formula_structural   Ba16Zn9Ge80Pd3
_chemical_formula_sum   'Ba16 Zn9 Ge80 Pd3'
_cell_volume   2603.38059606
_cell_formula_units_Z   1
loop_
 _symmetry_equiv_pos_site_id
 _symmetry_equiv_pos_as_xyz
  1  'x, y, z'
loop_
 _atom_site_type_symbol
 _atom_site_label
 _atom_site_symmetry_multiplicity
 _atom_site_fract_x
 _atom_site_fract_y
 _atom_site_fract_z
 _atom_site_occupancy
  Ba  Ba0  1  0.49999988  0.49888601  0.25043869  1
  Ba  Ba1  1  0.49999983  0.50008298  0.75046634  1
  Ba  Ba2  1  0.00000001  0.00039709  0.00055770  1
  Ba  Ba3  1  0.99999990  0.00047778  0.49839275  1
  Ba  Ba4  1  0.00000002  0.49607928  0.37217130  1
  Ba  Ba5  1  0.00000008  0.49990363  0.87553250  1
  Ba  Ba6  1  0.49999992  0.24535638  0.99956804  1
  Ba  Ba7  1  0.50000016  0.24537281  0.49643685  1
  Ba  Ba8  1  0.74984457  0.00351165  0.25193110  1
  Ba  Ba9  1  0.74547811  0.00006449  0.75192898  1
  Ba  Ba10  1  0.99999975  0.49648521  0.12790442  1
  Ba  Ba11  1  0.00000041  0.49974586  0.62438131  1
  Ba  Ba12  1  0.49999962  0.75468818  0.99895322  1
  Ba  Ba13  1  0.50000008  0.75449895  0.49720517  1
  Ba  Ba14  1  0.25015556  0.00351139  0.25193104  1
  Ba  Ba15  1  0.25452171  0.00006441  0.75192886  1
  Zn  Zn0  1  0.00000000  0.24951708  0.74963689  1
  Zn  Zn1  1  0.74974569  0.50026839  0.00032863  1
  Zn  Zn2  1  0.74983009  0.50020291  0.50034540  1
  Zn  Zn3  1  0.49999989  0.99958042  0.12511807  1
  Zn  Zn4  1  0.50000000  0.99994930  0.62509470  1
  Zn  Zn5  1  0.99999998  0.75029228  0.24972242  1
  Zn  Zn6  1  0.00000006  0.75067751  0.74961730  1
  Zn  Zn7  1  0.25025429  0.50026833  0.00032863  1
  Zn  Zn8  1  0.25016987  0.50020316  0.50034549  1
  Ge  Ge0  1  0.68356852  0.31762351  0.34173474  1
  Ge  Ge1  1  0.68383210  0.31635401  0.84130544  1
  Ge  Ge2  1  0.31713953  0.68374643  0.15799248  1
  Ge  Ge3  1  0.31690875  0.68406396  0.65801769  1
  Ge  Ge4  1  0.68286054  0.68374697  0.15799252  1
  Ge  Ge5  1  0.68309112  0.68406377  0.65801764  1
  Ge  Ge6  1  0.31643131  0.31762356  0.34173460  1
  Ge  Ge7  1  0.31616791  0.31635406  0.84130543  1
  Ge  Ge8  1  0.31642887  0.68347031  0.34137409  1
  Ge  Ge9  1  0.31611129  0.68371195  0.84130464  1
  Ge  Ge10  1  0.68288736  0.31706319  0.15772096  1
  Ge  Ge11  1  0.68313023  0.31590307  0.65808774  1
  Ge  Ge12  1  0.31711290  0.31706322  0.15772097  1
  Ge  Ge13  1  0.31686977  0.31590315  0.65808782  1
  Ge  Ge14  1  0.68357130  0.68347033  0.34137393  1
  Ge  Ge15  1  0.68388851  0.68371192  0.84130472  1
  Ge  Ge16  1  0.18376322  0.18355652  0.40885773  1
  Ge  Ge17  1  0.18334188  0.18369484  0.90851279  1
  Ge  Ge18  1  0.81657896  0.81642887  0.09190306  1
  Ge  Ge19  1  0.81613040  0.81710815  0.59209267  1
  Ge  Ge20  1  0.18342114  0.81642905  0.09190302  1
  Ge  Ge21  1  0.18386975  0.81710802  0.59209260  1
  Ge  Ge22  1  0.81623651  0.18355617  0.40885790  1
  Ge  Ge23  1  0.81665773  0.18369467  0.90851286  1
  Ge  Ge24  1  0.81611721  0.18246973  0.09178650  1
  Ge  Ge25  1  0.81616667  0.18296711  0.59216108  1
  Ge  Ge26  1  0.18318592  0.81565929  0.40866015  1
  Ge  Ge27  1  0.18345377  0.81632510  0.90852292  1
  Ge  Ge28  1  0.81681416  0.81565976  0.40866006  1
  Ge  Ge29  1  0.81654608  0.81632533  0.90852284  1
  Ge  Ge30  1  0.18388312  0.18247003  0.09178638  1
  Ge  Ge31  1  0.18383343  0.18296687  0.59216118  1
  Ge  Ge32  1  0.81591652  0.37816492  0.24987006  1
  Ge  Ge33  1  0.81125453  0.38192657  0.74989907  1
  Ge  Ge34  1  0.61859110  0.50028420  0.40551397  1
  Ge  Ge35  1  0.61859374  0.49996750  0.90508521  1
  Ge  Ge36  1  0.49999985  0.18472539  0.31143850  1
  Ge  Ge37  1  0.50000014  0.18452138  0.81098386  1
  Ge  Ge38  1  0.19001666  0.61620794  0.24985864  1
  Ge  Ge39  1  0.18879520  0.61807000  0.74986568  1
  Ge  Ge40  1  0.38285100  0.50026163  0.09442814  1
  Ge  Ge41  1  0.38268831  0.49988881  0.59493635  1
  Ge  Ge42  1  0.50000005  0.80920576  0.19177567  1
  Ge  Ge43  1  0.49999992  0.80907056  0.69173789  1
  Ge  Ge44  1  0.80998351  0.61620790  0.24985868  1
  Ge  Ge45  1  0.81120446  0.61806981  0.74986570  1
  Ge  Ge46  1  0.61714872  0.50026156  0.09442795  1
  Ge  Ge47  1  0.61731167  0.49988886  0.59493631  1
  Ge  Ge48  1  0.18408365  0.37816524  0.24987009  1
  Ge  Ge49  1  0.18874549  0.38192671  0.74989898  1
  Ge  Ge50  1  0.38140866  0.50028455  0.40551404  1
  Ge  Ge51  1  0.38140655  0.49996757  0.90508517  1
  Ge  Ge52  1  0.49999991  0.81566561  0.31080298  1
  Ge  Ge53  1  0.49999993  0.81566572  0.81100586  1
  Ge  Ge54  1  0.49999992  0.19093686  0.19116027  1
  Ge  Ge55  1  0.49999995  0.19088243  0.69169576  1
  Ge  Ge56  1  0.31581839  0.99989497  0.43916850  1
  Ge  Ge57  1  0.31554164  0.99996085  0.93868414  1
  Ge  Ge58  1  0.11831173  0.31109426  0.00003180  1
  Ge  Ge59  1  0.11822134  0.31114234  0.50023121  1
  Ge  Ge60  1  0.99999979  0.12249353  0.34242514  1
  Ge  Ge61  1  0.00000004  0.11883467  0.84479062  1
  Ge  Ge62  1  0.69055926  0.99971765  0.05804688  1
  Ge  Ge63  1  0.69057516  0.00003597  0.55868274  1
  Ge  Ge64  1  0.88233463  0.68874611  0.99984161  1
  Ge  Ge65  1  0.88237621  0.68871609  0.50047635  1
  Ge  Ge66  1  0.99999989  0.88435868  0.15452220  1
  Ge  Ge67  1  0.00000033  0.88262802  0.65513213  1
  Ge  Ge68  1  0.30944081  0.99971750  0.05804683  1
  Ge  Ge69  1  0.30942527  0.00003588  0.55868288  1
  Ge  Ge70  1  0.11766538  0.68874631  0.99984154  1
  Ge  Ge71  1  0.11762391  0.68871571  0.50047634  1
  Ge  Ge72  1  0.68418172  0.99989509  0.43916843  1
  Ge  Ge73  1  0.68445861  0.99996096  0.93868399  1
  Ge  Ge74  1  0.88168838  0.31109439  0.00003191  1
  Ge  Ge75  1  0.88177840  0.31114224  0.50023126  1
  Ge  Ge76  1  0.99999979  0.12112922  0.15766498  1
  Ge  Ge77  1  0.00000033  0.11748387  0.65525498  1
  Ge  Ge78  1  0.99999992  0.88290069  0.34549463  1
  Ge  Ge79  1  0.00000004  0.88130564  0.84476694  1
  Pd  Pd0  1  0.49999982  0.99950014  0.37516063  1
  Pd  Pd1  1  0.49999999  0.00006792  0.87492866  1
  Pd  Pd2  1  0.00000036  0.25008547  0.24968289  1
loop_
_geom_bond_atom_site_label_1
_geom_bond_atom_site_label_2
_geom_bond_distance
_geom_bond_site_symmetry_2
Ba0 Ge6 3.450585 1_555
Ba0 Ge0 3.450586 1_555
Ba0 Ge14 3.467781 1_555
Ba0 Ge8 3.467783 1_555
Ba0 Ge12 3.468498 1_555
Ba0 Ge10 3.468503 1_555
Ba0 Ge2 3.483254 1_555
Ba0 Ge4 3.483261 1_555
Ba0 Ge54 3.603639 1_555
Ba0 Ge34 3.621365 1_555
Ba0 Ge50 3.621368 1_555
Ba0 Ge42 3.622284 1_555
Ba0 Ge38 3.622850 1_555
Ba0 Ge44 3.622854 1_555
Ba0 Ge40 3.634818 1_555
Ba0 Ge46 3.634824 1_555
Ba0 Ge36 3.679656 1_555
Ba0 Ge48 3.696666 1_555
Ba0 Ge32 3.696672 1_555
Ba0 Ge52 3.702189 1_555
Ba1 Ge7 3.462068 1_555
Ba1 Ge1 3.462069 1_555
Ba1 Ge15 3.462526 1_555
Ba1 Ge9 3.462526 1_555
Ba1 Ge3 3.479178 1_555
Ba1 Ge5 3.479181 1_555
Ba1 Ge13 3.480545 1_555
Ba1 Ge11 3.480551 1_555
Ba1 Ge43 3.609180 1_555
Ba1 Ge51 3.612047 1_555
Ba1 Ge35 3.612048 1_555
Ba1 Ge55 3.612455 1_555
Ba1 Ge41 3.625617 1_555
Ba1 Ge47 3.625621 1_555
Ba1 Ge45 3.637910 1_555
Ba1 Ge39 3.637911 1_555
Ba1 Ge49 3.639075 1_555
Ba1 Ge33 3.639079 1_555
Ba1 Ge37 3.690156 1_555
Ba1 Ge53 3.691340 1_555
Ba2 Ge24 3.457562 1_455
Ba2 Ge30 3.457562 1_555
Ba2 Ge20 3.467303 1_545
Ba2 Ge18 3.467306 1_445
Ba2 Ge23 3.471360 1_454
Ba2 Ge17 3.471361 1_554
Ba2 Ge29 3.477570 1_444
Ba2 Ge27 3.477571 1_544
Ba2 Ge66 3.587989 1_445
Ba2 Ge68 3.607507 1_545
Ba2 Ge62 3.607509 1_445
Ba2 Ge58 3.631588 1_555
Ba2 Ge74 3.631589 1_455
Ba2 Ge61 3.634023 1_554
Ba2 Ge79 3.637836 1_544
Ba2 Ge70 3.638842 1_544
Ba2 Ge64 3.638844 1_444
Ba2 Ge76 3.671063 1_455
Ba2 Ge73 3.703854 1_444
Ba2 Ge57 3.703858 1_544
Ba3 Ge22 3.441312 1_555
Ba3 Ge16 3.441317 1_655
Ba3 Ge28 3.451895 1_545
Ba3 Ge26 3.451900 1_645
Ba3 Ge31 3.492007 1_655
Ba3 Ge25 3.492007 1_555
Ba3 Ge19 3.496105 1_545
Ba3 Ge21 3.496106 1_645
Ba3 Ge78 3.573022 1_545
Ba3 Ge63 3.629014 1_555
Ba3 Ge69 3.629019 1_655
Ba3 Ge75 3.631122 1_555
Ba3 Ge59 3.631122 1_655
Ba3 Ge65 3.640046 1_545
Ba3 Ge71 3.640051 1_645
Ba3 Ge67 3.651576 1_645
Ba3 Ge77 3.651624 1_655
Ba3 Ge60 3.652176 1_555
Ba3 Ge72 3.686042 1_545
Ba3 Ge56 3.686046 1_645
Ba4 Ge32 3.580738 1_455
Ba4 Ge48 3.580739 1_555
Ba4 Ge44 3.625830 1_455
Ba4 Ge38 3.625834 1_555
Ba4 Ge59 3.680123 1_555
Ba4 Ge75 3.680127 1_455
Ba4 Ge71 3.729690 1_555
Ba4 Ge65 3.729694 1_455
Ba5 Ge70 3.641290 1_555
Ba5 Ge64 3.641292 1_455
Ba5 Ge58 3.645682 1_556
Ba5 Ge74 3.645685 1_456
Ba5 Ge33 3.663878 1_455
Ba5 Ge49 3.663881 1_555
Ba5 Ge45 3.664835 1_455
Ba5 Ge39 3.664835 1_555
Ba6 Ge57 3.607538 1_545
Ba6 Ge73 3.607542 1_545
Ba6 Ge62 3.627810 1_546
Ba6 Ge68 3.627810 1_546
Ba6 Ge51 3.695203 1_555
Ba6 Ge35 3.695205 1_555
Ba6 Ge46 3.697711 1_556
Ba6 Ge40 3.697715 1_556
Ba7 Ge72 3.578230 1_545
Ba7 Ge56 3.578231 1_545
Ba7 Ge34 3.655003 1_555
Ba7 Ge50 3.655006 1_555
Ba7 Ge63 3.655148 1_555
Ba7 Ge69 3.655151 1_555
Ba7 Ge47 3.740146 1_555
Ba7 Ge41 3.740149 1_555
Ba8 Ge60 3.614137 1_555
Ba8 Ge36 3.614166 1_555
Ba8 Ge52 3.648980 1_545
Ba8 Ge76 3.653967 1_555
Ba8 Ge78 3.657015 1_545
Ba8 Ge54 3.661171 1_555
Ba8 Ge66 3.699289 1_545
Ba8 Ge42 3.699414 1_545
Ba9 Ge53 3.593750 1_545
Ba9 Ge37 3.594399 1_555
Ba9 Ge55 3.642506 1_555
Ba9 Ge43 3.643761 1_545
Ba9 Ge79 3.676950 1_645
Ba9 Ge61 3.677739 1_655
Ba9 Ge77 3.718580 1_655
Ba9 Ge67 3.720633 1_645
Ba10 Ge32 3.576271 1_555
Ba10 Ge48 3.576272 1_655
Ba10 Ge44 3.619105 1_555
Ba10 Ge38 3.619107 1_655
Ba10 Ge74 3.681086 1_555
Ba10 Ge58 3.681092 1_655
Ba10 Ge64 3.722551 1_554
Ba10 Ge70 3.722557 1_654
Ba11 Ge71 3.634373 1_555
Ba11 Ge65 3.634376 1_455
Ba11 Ge59 3.639384 1_555
Ba11 Ge75 3.639387 1_455
Ba11 Ge49 3.660760 1_555
Ba11 Ge33 3.660770 1_455
Ba11 Ge39 3.663089 1_555
Ba11 Ge45 3.663098 1_455
Ba12 Ge57 3.600991 1_555
Ba12 Ge73 3.601001 1_555
Ba12 Ge68 3.628239 1_556
Ba12 Ge62 3.628245 1_556
Ba12 Ge51 3.689647 1_555
Ba12 Ge35 3.689652 1_555
Ba12 Ge46 3.700294 1_556
Ba12 Ge40 3.700295 1_556
Ba13 Ge56 3.582835 1_555
Ba13 Ge72 3.582837 1_555
Ba13 Ge63 3.651207 1_565
Ba13 Ge69 3.651207 1_565
Ba13 Ge50 3.659313 1_555
Ba13 Ge34 3.659316 1_555
Ba13 Ge47 3.730287 1_555
Ba13 Ge41 3.730290 1_555
Ba14 Ge60 3.614145 1_455
Ba14 Ge36 3.614163 1_555
Ba14 Ge52 3.648975 1_545
Ba14 Ge76 3.653969 1_455
Ba14 Ge78 3.657020 1_445
Ba14 Ge54 3.661171 1_555
Ba14 Ge66 3.699287 1_445
Ba14 Ge42 3.699413 1_545
Ba15 Ge53 3.593749 1_545
Ba15 Ge37 3.594402 1_555
Ba15 Ge55 3.642508 1_555
Ba15 Ge43 3.643761 1_545
Ba15 Ge79 3.676952 1_545
Ba15 Ge61 3.677742 1_555
Ba15 Ge77 3.718569 1_555
Ba15 Ge67 3.720622 1_545
Ge0 Ge22 2.527483 1_555
Ge0 Ge34 2.533864 1_555
Ge0 Ge32 2.557697 1_555
Ge0 Ge36 2.563365 1_555
Ge1 Ge23 2.520668 1_555
Ge1 Ge33 2.534679 1_555
Ge1 Ge35 2.542872 1_555
Ge1 Ge37 2.559194 1_555
Ge2 Ge20 2.512392 1_555
Ge2 Ge42 2.533146 1_555
Ge2 Ge40 2.540653 1_555
Ge2 Ge38 2.546907 1_555
Ge3 Ge43 2.532067 1_555
Ge3 Ge41 2.541097 1_555
Ge3 Ge39 2.547702 1_555
Ge4 Ge42 2.533144 1_555
Ge4 Ge46 2.540661 1_555
Ge4 Ge44 2.546908 1_555
Ge10 Ge24 2.520010 1_555
Ge10 Ge46 2.534338 1_555
Ge10 Ge54 2.534904 1_555
Ge10 Ge32 2.568685 1_555
Ge11 Ge25 2.508165 1_555
Ge11 Ge55 2.531524 1_555
Ge11 Ge47 2.539705 1_555
Ge11 Ge33 2.547594 1_555
Ge12 Ge30 2.520008 1_555
Ge12 Ge40 2.534335 1_555
Ge12 Ge54 2.534900 1_555
Ge12 Ge48 2.568689 1_555
Ge13 Ge31 2.508164 1_555
Ge13 Ge55 2.531522 1_555
Ge13 Ge41 2.539705 1_555
Ge13 Ge49 2.547593 1_555
Ge14 Ge28 2.521896 1_555
Ge14 Ge44 2.536153 1_555
Ge14 Ge34 2.542004 1_555
Ge14 Ge52 2.560359 1_555
Ge15 Ge29 2.520002 1_555
Ge15 Ge45 2.535179 1_555
Ge15 Ge35 2.543473 1_555
Ge15 Ge53 2.560057 1_555
Ge16 Ge6 2.527483 1_555
Ge16 Ge59 2.535042 1_555
Ge16 Ge56 2.558083 1_545
Ge16 Ge60 2.564977 1_455
Ge17 Ge7 2.520671 1_555
Ge17 Ge58 2.534844 1_556
Ge17 Ge61 2.539674 1_555
Ge17 Ge57 2.558813 1_545
Ge18 Ge4 2.512389 1_555
Ge18 Ge66 2.536888 1_555
Ge18 Ge62 2.539566 1_555
Ge18 Ge64 2.548089 1_554
Ge19 Ge5 2.508309 1_555
Ge19 Ge63 2.530891 1_565
Ge19 Ge67 2.538156 1_655
Ge19 Ge65 2.546229 1_555
Ge20 Ge66 2.536893 1_455
Ge20 Ge68 2.539564 1_555
Ge20 Ge70 2.548088 1_554
Ge21 Ge3 2.508306 1_555
Ge21 Ge69 2.530892 1_565
Ge21 Ge67 2.538155 1_555
Ge21 Ge71 2.546229 1_555
Ge22 Ge75 2.535040 1_555
Ge22 Ge72 2.558076 1_545
Ge22 Ge60 2.564979 1_555
Ge23 Ge74 2.534847 1_556
Ge23 Ge61 2.539681 1_655
Ge23 Ge73 2.558806 1_545
Ge24 Ge62 2.531845 1_545
Ge24 Ge74 2.547198 1_555
Ge24 Ge76 2.559745 1_555
Ge25 Ge63 2.531936 1_555
Ge25 Ge77 2.538122 1_655
Ge25 Ge75 2.547624 1_555
Ge26 Ge8 2.521895 1_555
Ge26 Ge71 2.538153 1_555
Ge26 Ge78 2.538853 1_455
Ge26 Ge56 2.568011 1_555
Ge27 Ge9 2.520004 1_555
Ge27 Ge70 2.534115 1_555
Ge27 Ge79 2.541159 1_555
Ge27 Ge57 2.557558 1_555
Ge28 Ge65 2.538154 1_555
Ge28 Ge78 2.538850 1_555
Ge28 Ge72 2.568009 1_555
Ge29 Ge64 2.534120 1_555
Ge29 Ge79 2.541161 1_655
Ge29 Ge73 2.557554 1_555
Ge30 Ge68 2.531847 1_545
Ge30 Ge58 2.547195 1_555
Ge30 Ge76 2.559756 1_455
Ge31 Ge69 2.531937 1_555
Ge31 Ge77 2.538117 1_555
Ge31 Ge59 2.547629 1_555
Ge32 Pd2 2.450812 1_655
Ge33 Zn0 2.519671 1_655
Ge34 Zn2 2.516709 1_555
Ge35 Zn1 2.523557 1_556
Ge36 Pd0 2.453853 1_545
Ge36 Ge6 2.563364 1_555
Ge37 Pd1 2.449669 1_555
Ge37 Ge7 2.559198 1_555
Ge38 Ge8 2.536154 1_555
Ge38 Zn5 2.541553 1_455
Ge39 Zn6 2.521355 1_555
Ge39 Ge9 2.535176 1_555
Ge40 Zn7 2.512148 1_555
Ge41 Zn8 2.520415 1_555
Ge42 Zn3 2.536522 1_555
Ge43 Ge5 2.532070 1_555
Ge43 Zn4 2.540856 1_555
Ge44 Zn5 2.541552 1_555
Ge45 Zn6 2.521360 1_655
Ge45 Ge5 2.547700 1_555
Ge46 Zn1 2.512148 1_555
Ge47 Zn2 2.520418 1_555
Ge47 Ge5 2.541094 1_555
Ge48 Pd2 2.450809 1_555
Ge48 Ge6 2.557691 1_555
Ge49 Zn0 2.519672 1_555
Ge49 Ge7 2.534679 1_555
Ge50 Zn8 2.516710 1_555
Ge50 Ge6 2.533868 1_555
Ge50 Ge8 2.541997 1_555
Ge51 Zn7 2.523562 1_556
Ge51 Ge7 2.542872 1_555
Ge51 Ge9 2.543474 1_555
Ge52 Pd0 2.450001 1_555
Ge52 Ge8 2.560358 1_555
Ge53 Pd1 2.449676 1_565
Ge53 Ge9 2.560058 1_555
Ge54 Zn3 2.538449 1_545
Ge55 Zn4 2.541589 1_545
Ge56 Pd0 2.449842 1_555
Ge57 Pd1 2.449198 1_565
Ge58 Zn7 2.519826 1_555
Ge59 Zn8 2.518841 1_555
Ge60 Pd2 2.455498 1_655
Ge61 Zn0 2.517939 1_555
Ge62 Zn3 2.545236 1_555
Ge63 Zn4 2.537146 1_545
Ge64 Zn1 2.517664 1_556
Ge65 Zn2 2.517694 1_555
Ge66 Zn5 2.539891 1_555
Ge67 Zn6 2.513854 1_555
Ge68 Zn3 2.545232 1_555
Ge69 Zn4 2.537138 1_545
Ge70 Zn7 2.517666 1_556
Ge71 Zn8 2.517688 1_555
Ge72 Pd0 2.449843 1_555
Ge73 Pd1 2.449196 1_565
Ge74 Zn1 2.519826 1_555
Ge75 Zn2 2.518838 1_555
Ge76 Pd2 2.451784 1_655
Ge77 Zn0 2.513291 1_555
Ge78 Zn5 2.541755 1_555
Ge79 Zn6 2.518289 1_555
