# generated using pymatgen
data_Li2V3O6
_symmetry_space_group_name_H-M   'P 1'
_cell_length_a   2.98887860
_cell_length_b   10.00204077
_cell_length_c   7.88072710
_cell_angle_alpha   84.44819080
_cell_angle_beta   79.31245571
_cell_angle_gamma   81.18507823
_symmetry_Int_Tables_number   1
_chemical_formula_structural   Li2V3O6
_chemical_formula_sum   'Li4 V6 O12'
_cell_volume   228.20515487
_cell_formula_units_Z   2
loop_
 _symmetry_equiv_pos_site_id
 _symmetry_equiv_pos_as_xyz
  1  'x, y, z'
loop_
 _atom_site_type_symbol
 _atom_site_label
 _atom_site_symmetry_multiplicity
 _atom_site_fract_x
 _atom_site_fract_y
 _atom_site_fract_z
 _atom_site_occupancy
  Li  Li0  1  0.99637900  0.99799500  0.00857200  1
  Li  Li1  1  0.99268500  0.49735900  0.51875000  1
  Li  Li2  1  0.67393700  0.00220600  0.64919500  1
  Li  Li3  1  0.67051300  0.50209500  0.15823500  1
  V  V0  1  0.99832600  0.25948700  0.74943800  1
  V  V1  1  0.66826600  0.24050500  0.41731800  1
  V  V2  1  0.67438300  0.73525500  0.91720600  1
  V  V3  1  0.33411400  0.74966800  0.58205000  1
  V  V4  1  0.33308300  0.25008700  0.08338800  1
  V  V5  1  0.99182900  0.76529000  0.24944800  1
  O  O0  1  0.48748000  0.64563400  0.38074900  1
  O  O1  1  0.49638500  0.14249400  0.87474500  1
  O  O2  1  0.17989900  0.85365300  0.78543800  1
  O  O3  1  0.17033700  0.35742600  0.29200500  1
  O  O4  1  0.81655600  0.14389300  0.18699700  1
  O  O5  1  0.83490500  0.64259800  0.69093100  1
  O  O6  1  0.83195900  0.85774000  0.47470700  1
  O  O7  1  0.85004000  0.35608900  0.97973400  1
  O  O8  1  0.15570800  0.13808100  0.54807800  1
  O  O9  1  0.15650700  0.63738600  0.05274600  1
  O  O10  1  0.51090600  0.36200700  0.61874600  1
  O  O11  1  0.50913500  0.86305400  0.11485600  1
loop_
_geom_bond_atom_site_label_1
_geom_bond_atom_site_label_2
_geom_bond_distance
_geom_bond_site_symmetry_2
Li0 O4 2.066850 1_565
Li0 O11 2.120234 1_655
Li0 O11 2.138998 1_555
Li0 O1 2.249915 1_564
Li0 O1 2.284075 1_664
Li0 O2 2.316919 1_654
Li1 O5 2.026820 1_555
Li1 O10 2.111041 1_655
Li1 O10 2.120725 1_555
Li1 O0 2.296294 1_555
Li1 O0 2.309301 1_655
Li1 O3 2.310446 1_655
Li2 O6 2.033777 1_545
Li2 O8 2.117600 1_555
Li2 O8 2.126044 1_655
Li2 O2 2.291798 1_645
Li2 O1 2.305320 1_555
Li2 O2 2.305781 1_545
Li3 O7 2.068038 1_554
Li3 O9 2.121635 1_555
Li3 O9 2.137539 1_655
Li3 O3 2.250189 1_655
Li3 O3 2.285459 1_555
Li3 O0 2.307829 1_555
O0 V3 1.926921 1_555
O0 V5 2.117371 1_455
O0 V5 2.123719 1_555
O1 V4 1.995906 1_556
O1 V0 2.085255 1_455
O1 V0 2.088098 1_555
O2 V3 1.940337 1_555
O2 V2 2.111857 1_555
O2 V2 2.119459 1_455
O3 V4 1.994245 1_555
O3 V1 2.084710 1_555
O3 V1 2.087940 1_455
O4 V4 1.918965 1_555
O4 V4 2.011348 1_655
O4 V1 2.081949 1_555
O5 V3 1.982636 1_555
O5 V3 1.986576 1_655
O5 V2 2.033489 1_555
O6 V3 1.983293 1_655
O6 V3 1.986791 1_555
O6 V5 2.025414 1_555
O7 V4 1.917425 1_656
O7 V4 2.011253 1_556
O7 V0 2.081725 1_555
O8 V1 2.032021 1_455
O8 V0 2.033437 1_455
O8 V1 2.037042 1_555
O9 V2 2.027795 1_454
O9 V2 2.035658 1_554
O9 V5 2.046848 1_455
O10 V0 2.031988 1_555
O10 V1 2.034475 1_555
O10 V0 2.037467 1_455
O11 V5 2.024146 1_555
O11 V5 2.031318 1_455
O11 V2 2.051944 1_554
