# generated using pymatgen
data_MgFe3Co5O16
_symmetry_space_group_name_H-M   'P 1'
_cell_length_a   5.87000332
_cell_length_b   5.71980770
_cell_length_c   8.90792528
_cell_angle_alpha   89.15383982
_cell_angle_beta   91.33104079
_cell_angle_gamma   119.90897787
_symmetry_Int_Tables_number   1
_chemical_formula_structural   MgFe3Co5O16
_chemical_formula_sum   'Mg1 Fe3 Co5 O16'
_cell_volume   259.18176436
_cell_formula_units_Z   1
loop_
 _symmetry_equiv_pos_site_id
 _symmetry_equiv_pos_as_xyz
  1  'x, y, z'
loop_
 _atom_site_type_symbol
 _atom_site_label
 _atom_site_symmetry_multiplicity
 _atom_site_fract_x
 _atom_site_fract_y
 _atom_site_fract_z
 _atom_site_occupancy
  Mg  Mg0  1  0.17495600  0.34460900  0.95085100  1
  Fe  Fe0  1  0.67297200  0.83589300  0.20857100  1
  Fe  Fe1  1  0.83713300  0.67367000  0.70308000  1
  Fe  Fe2  1  0.82078400  0.16503300  0.69360800  1
  Co  Co0  1  0.16138300  0.82167600  0.21020900  1
  Co  Co1  1  0.33767300  0.67870700  0.48456300  1
  Co  Co2  1  0.17974100  0.33541200  0.23729600  1
  Co  Co3  1  0.34006300  0.17094700  0.70011400  1
  Co  Co4  1  0.66807600  0.32768100  0.98598200  1
  O  O0  1  0.18502300  0.84421800  0.60186500  1
  O  O1  1  0.04501400  0.52146200  0.34554200  1
  O  O2  1  0.31291300  0.64044700  0.10921000  1
  O  O3  1  0.01542700  0.99769800  0.31859800  1
  O  O4  1  0.01504400  0.02576500  0.80760300  1
  O  O5  1  0.18742700  0.35871200  0.60175000  1
  O  O6  1  0.45739700  0.94940500  0.33981700  1
  O  O7  1  0.46603700  0.51253600  0.35577600  1
  O  O8  1  0.32578800  0.16437000  0.10451800  1
  O  O9  1  0.65993300  0.83830000  0.59075400  1
  O  O10  1  0.51127000  0.46734300  0.84268100  1
  O  O11  1  0.50721100  0.04542000  0.84306100  1
  O  O12  1  0.65200600  0.32487000  0.59135300  1
  O  O13  1  0.83397400  0.64966500  0.10272100  1
  O  O14  1  0.94722600  0.46408300  0.84402000  1
  O  O15  1  0.85219300  0.17560900  0.09530100  1
loop_
_geom_bond_atom_site_label_1
_geom_bond_atom_site_label_2
_geom_bond_distance
_geom_bond_site_symmetry_2
Mg0 O14 1.998067 1_455
Mg0 O10 2.001233 1_555
Mg0 O4 2.035015 1_555
Mg0 O2 2.039594 1_556
Mg0 O15 2.104721 1_456
Mg0 O8 2.129028 1_556
Fe0 O15 1.962995 1_565
Fe0 O3 1.984453 1_655
Fe0 O13 1.997963 1_555
Fe0 O2 2.021453 1_555
Fe0 O6 2.073693 1_555
Fe0 O7 2.092295 1_555
Fe1 O9 1.967341 1_555
Fe1 O4 1.981465 1_665
Fe1 O12 1.999519 1_555
Fe1 O0 2.001926 1_655
Fe1 O14 2.030130 1_555
Fe1 O10 2.100957 1_555
Fe2 O9 1.863931 1_545
Fe2 O12 1.866499 1_555
Fe2 O4 1.947863 1_655
Fe2 O14 2.006829 1_555
Fe2 O5 2.050884 1_655
Fe2 O11 2.111789 1_555
Co0 O6 1.884600 1_555
Co0 O3 1.899292 1_555
Co0 O13 1.906597 1_455
Co0 O2 1.912948 1_555
Co0 O1 1.917278 1_555
Co0 O8 1.939371 1_565
Co1 O6 1.857892 1_555
Co1 O9 1.877984 1_555
Co1 O7 1.890459 1_555
Co1 O5 1.895818 1_555
Co1 O1 1.920148 1_555
Co1 O0 1.926048 1_555
Co2 O7 1.793276 1_555
Co2 O3 1.821883 1_545
Co2 O2 1.891968 1_555
Co2 O1 1.895438 1_555
Co2 O8 2.002182 1_555
Co2 O15 2.073829 1_455
Co3 O0 1.844432 1_545
Co3 O12 1.875167 1_555
Co3 O5 1.902447 1_555
Co3 O11 1.927981 1_555
Co3 O4 1.930744 1_555
Co3 O10 1.949918 1_555
Co4 O11 1.898315 1_555
Co4 O13 1.908538 1_556
Co4 O14 1.919673 1_555
Co4 O15 1.933009 1_556
Co4 O10 1.939956 1_555
Co4 O8 2.054817 1_556
