# generated using pymatgen
data_ErFe6(Sn2Ge)2
_symmetry_space_group_name_H-M   'P 1'
_cell_length_a   5.28960585
_cell_length_b   5.28960585
_cell_length_c   8.70842900
_cell_angle_alpha   90.00000000
_cell_angle_beta   90.00000000
_cell_angle_gamma   119.99999814
_symmetry_Int_Tables_number   1
_chemical_formula_structural   ErFe6(Sn2Ge)2
_chemical_formula_sum   'Er1 Fe6 Sn4 Ge2'
_cell_volume   211.01682282
_cell_formula_units_Z   1
loop_
 _symmetry_equiv_pos_site_id
 _symmetry_equiv_pos_as_xyz
  1  'x, y, z'
loop_
 _atom_site_type_symbol
 _atom_site_label
 _atom_site_symmetry_multiplicity
 _atom_site_fract_x
 _atom_site_fract_y
 _atom_site_fract_z
 _atom_site_occupancy
  Er  Er0  1  0.00000000  0.00000000  0.00000000  1
  Fe  Fe0  1  0.50000000  0.50000000  0.76827600  1
  Fe  Fe1  1  0.50000000  0.50000000  0.23172400  1
  Fe  Fe2  1  0.00000000  0.50000000  0.76827600  1
  Fe  Fe3  1  0.00000000  0.50000000  0.23172400  1
  Fe  Fe4  1  0.50000000  0.00000000  0.76827600  1
  Fe  Fe5  1  0.50000000  0.00000000  0.23172400  1
  Sn  Sn0  1  0.66666700  0.33333300  0.50000000  1
  Sn  Sn1  1  0.33333300  0.66666700  0.50000000  1
  Sn  Sn2  1  0.00000000  0.00000000  0.66355900  1
  Sn  Sn3  1  0.00000000  0.00000000  0.33644100  1
  Ge  Ge0  1  0.66666700  0.33333300  0.00000000  1
  Ge  Ge1  1  0.33333300  0.66666700  0.00000000  1
loop_
_geom_bond_atom_site_label_1
_geom_bond_atom_site_label_2
_geom_bond_distance
_geom_bond_site_symmetry_2
Er0 Sn2 2.929873 1_554
Er0 Sn3 2.929873 1_555
Er0 Ge1 3.053952 1_545
Er0 Ge0 3.053952 1_455
Er0 Ge0 3.053957 1_555
Er0 Ge0 3.053957 1_445
Er0 Ge1 3.053957 1_555
Er0 Ge1 3.053957 1_445
Er0 Fe5 3.326727 1_555
Er0 Fe3 3.326727 1_555
Er0 Fe5 3.326727 1_455
Er0 Fe3 3.326727 1_545
Er0 Fe4 3.326727 1_454
Er0 Fe4 3.326727 1_554
Er0 Fe2 3.326727 1_554
Er0 Fe2 3.326727 1_544
Er0 Fe1 3.326727 1_445
Er0 Fe1 3.326727 1_555
Er0 Fe0 3.326727 1_444
Er0 Fe0 3.326727 1_554
Fe0 Ge0 2.530573 1_556
Fe0 Ge1 2.530573 1_556
Fe0 Fe2 2.644803 1_655
Fe0 Fe4 2.644803 1_555
Fe0 Fe4 2.644803 1_565
Fe0 Fe2 2.644803 1_555
Fe0 Sn0 2.791020 1_555
Fe0 Sn1 2.791020 1_555
Fe0 Sn2 2.797603 1_665
Fe0 Sn2 2.797603 1_555
Fe1 Ge0 2.530573 1_555
Fe1 Ge1 2.530573 1_555
Fe1 Fe5 2.644803 1_565
Fe1 Fe3 2.644803 1_655
Fe1 Fe5 2.644803 1_555
Fe1 Fe3 2.644803 1_555
Fe1 Sn1 2.791020 1_555
Fe1 Sn0 2.791020 1_555
Fe1 Sn3 2.797603 1_665
Fe1 Sn3 2.797603 1_555
Fe2 Ge1 2.530570 1_556
Fe2 Ge0 2.530570 1_456
Fe2 Fe4 2.644803 1_455
Fe2 Fe4 2.644803 1_565
Fe2 Sn1 2.791018 1_555
Fe2 Sn0 2.791018 1_455
Fe2 Sn2 2.797603 1_565
Fe2 Sn2 2.797603 1_555
Fe3 Ge1 2.530570 1_555
Fe3 Ge0 2.530570 1_455
Fe3 Fe5 2.644803 1_565
Fe3 Fe5 2.644803 1_455
Fe3 Sn1 2.791018 1_555
Fe3 Sn0 2.791018 1_455
Fe3 Sn3 2.797603 1_565
Fe3 Sn3 2.797603 1_555
Fe4 Ge1 2.530570 1_546
Fe4 Ge0 2.530570 1_556
Fe4 Sn0 2.791018 1_555
Fe4 Sn1 2.791018 1_545
Fe4 Sn2 2.797603 1_655
Fe4 Sn2 2.797603 1_555
Fe5 Ge1 2.530570 1_545
Fe5 Ge0 2.530570 1_555
Fe5 Sn0 2.791018 1_555
Fe5 Sn1 2.791018 1_545
Fe5 Sn3 2.797603 1_555
Fe5 Sn3 2.797603 1_655
Sn2 Sn3 2.848684 1_555
