# generated using pymatgen
data_KPrF4
_symmetry_space_group_name_H-M   'P 1'
_cell_length_a   3.77428535
_cell_length_b   6.24083643
_cell_length_c   15.57261031
_cell_angle_alpha   90.00000000
_cell_angle_beta   90.00000000
_cell_angle_gamma   90.00000000
_symmetry_Int_Tables_number   1
_chemical_formula_structural   KPrF4
_chemical_formula_sum   'K4 Pr4 F16'
_cell_volume   366.80812529
_cell_formula_units_Z   4
loop_
 _symmetry_equiv_pos_site_id
 _symmetry_equiv_pos_as_xyz
  1  'x, y, z'
loop_
 _atom_site_type_symbol
 _atom_site_label
 _atom_site_symmetry_multiplicity
 _atom_site_fract_x
 _atom_site_fract_y
 _atom_site_fract_z
 _atom_site_occupancy
  K  K0  1  0.25000000  0.22109089  0.29703929  1
  K  K1  1  0.75000000  0.77890911  0.70296071  1
  K  K2  1  0.25000000  0.72109089  0.20296071  1
  K  K3  1  0.75000000  0.27890911  0.79703929  1
  Pr  Pr0  1  0.75000000  0.24827479  0.06126982  1
  Pr  Pr1  1  0.25000000  0.75172521  0.93873018  1
  Pr  Pr2  1  0.75000000  0.74827479  0.43873018  1
  Pr  Pr3  1  0.25000000  0.25172521  0.56126982  1
  F  F0  1  0.25000000  0.08791104  0.69526306  1
  F  F1  1  0.75000000  0.91208896  0.30473694  1
  F  F2  1  0.25000000  0.58791104  0.80473694  1
  F  F3  1  0.75000000  0.41208896  0.19526306  1
  F  F4  1  0.75000000  0.39867504  0.63520014  1
  F  F5  1  0.25000000  0.60132496  0.36479986  1
  F  F6  1  0.75000000  0.89867504  0.86479986  1
  F  F7  1  0.25000000  0.10132496  0.13520014  1
  F  F8  1  0.75000000  0.36224084  0.46362428  1
  F  F9  1  0.25000000  0.63775916  0.53637572  1
  F  F10  1  0.75000000  0.86224084  0.03637572  1
  F  F11  1  0.25000000  0.13775916  0.96362428  1
  F  F12  1  0.25000000  0.50538325  0.05928475  1
  F  F13  1  0.75000000  0.49461675  0.94071525  1
  F  F14  1  0.25000000  0.00538325  0.44071525  1
  F  F15  1  0.75000000  0.99461675  0.55928475  1
loop_
_geom_bond_atom_site_label_1
_geom_bond_atom_site_label_2
_geom_bond_distance
_geom_bond_site_symmetry_2
F0 Pr3 2.323613 1_555
F0 K1 2.700837 1_445
F0 K1 2.700837 1_545
F0 K3 2.737539 1_555
F0 K3 2.737539 1_455
F1 Pr2 2.323613 1_555
F1 K0 2.700837 1_565
F1 K0 2.700837 1_665
F1 K2 2.737539 1_555
F1 K2 2.737539 1_655
F2 Pr1 2.323613 1_555
F2 K3 2.700837 1_455
F2 K3 2.700837 1_555
F2 K1 2.737539 1_455
F2 K1 2.737539 1_555
F3 Pr0 2.323613 1_555
F3 K2 2.700837 1_555
F3 K2 2.700837 1_655
F3 K0 2.737539 1_655
F3 K0 2.737539 1_555
F4 Pr3 2.393288 1_655
F4 Pr3 2.393288 1_555
F4 K1 2.597016 1_555
F4 K3 2.628758 1_555
F5 Pr2 2.393288 1_555
F5 Pr2 2.393288 1_455
F5 K0 2.597016 1_555
F5 K2 2.628758 1_555
F6 Pr1 2.393288 1_655
F6 Pr1 2.393288 1_555
F6 K3 2.597016 1_565
F6 K1 2.628758 1_555
F7 Pr0 2.393288 1_455
F7 Pr0 2.393288 1_555
F7 K2 2.597016 1_545
F7 K0 2.628758 1_555
F8 Pr2 2.440166 1_555
F8 Pr3 2.519766 1_555
F8 Pr3 2.519766 1_655
F9 Pr3 2.440166 1_555
F9 Pr2 2.519766 1_455
F9 Pr2 2.519766 1_555
F10 Pr0 2.440166 1_565
F10 Pr1 2.519766 1_554
F10 Pr1 2.519766 1_654
F11 Pr1 2.440166 1_545
F11 Pr0 2.519766 1_556
F11 Pr0 2.519766 1_456
F12 Pr1 2.426515 1_554
F12 Pr0 2.477280 1_555
F12 Pr0 2.477280 1_455
F12 K2 2.611177 1_555
F13 Pr0 2.426515 1_556
F13 Pr1 2.477280 1_655
F13 Pr1 2.477280 1_555
F13 K3 2.611177 1_555
F14 Pr3 2.426515 1_555
F14 Pr2 2.477280 1_545
F14 Pr2 2.477280 1_445
F14 K0 2.611177 1_555
F15 Pr2 2.426515 1_555
F15 Pr3 2.477280 1_565
F15 Pr3 2.477280 1_665
F15 K1 2.611177 1_555
