# generated using pymatgen
data_Sm2Fe3Si5
_symmetry_space_group_name_H-M   'P 1'
_cell_length_a   10.45403100
_cell_length_b   10.45403100
_cell_length_c   5.58590000
_cell_angle_alpha   90.00000000
_cell_angle_beta   90.00000000
_cell_angle_gamma   90.00000000
_symmetry_Int_Tables_number   1
_chemical_formula_structural   Sm2Fe3Si5
_chemical_formula_sum   'Sm8 Fe12 Si20'
_cell_volume   610.46493586
_cell_formula_units_Z   4
loop_
 _symmetry_equiv_pos_site_id
 _symmetry_equiv_pos_as_xyz
  1  'x, y, z'
loop_
 _atom_site_type_symbol
 _atom_site_label
 _atom_site_symmetry_multiplicity
 _atom_site_fract_x
 _atom_site_fract_y
 _atom_site_fract_z
 _atom_site_occupancy
  Sm  Sm0  1  0.56898000  0.73565900  0.50000000  1
  Sm  Sm1  1  0.43102000  0.26434100  0.50000000  1
  Sm  Sm2  1  0.06898000  0.76434100  0.00000000  1
  Sm  Sm3  1  0.93102000  0.23565900  0.00000000  1
  Sm  Sm4  1  0.26434100  0.56898000  0.50000000  1
  Sm  Sm5  1  0.73565900  0.43102000  0.50000000  1
  Sm  Sm6  1  0.23565900  0.06898000  0.00000000  1
  Sm  Sm7  1  0.76434100  0.93102000  0.00000000  1
  Fe  Fe0  1  0.87654000  0.85358500  0.50000000  1
  Fe  Fe1  1  0.12346000  0.14641500  0.50000000  1
  Fe  Fe2  1  0.37654000  0.64641500  0.00000000  1
  Fe  Fe3  1  0.62346000  0.35358500  0.00000000  1
  Fe  Fe4  1  0.14641500  0.87654000  0.50000000  1
  Fe  Fe5  1  0.85358500  0.12346000  0.50000000  1
  Fe  Fe6  1  0.35358500  0.37654000  0.00000000  1
  Fe  Fe7  1  0.64641500  0.62346000  0.00000000  1
  Fe  Fe8  1  0.50000000  0.00000000  0.25000000  1
  Fe  Fe9  1  0.00000000  0.50000000  0.75000000  1
  Fe  Fe10  1  0.00000000  0.50000000  0.25000000  1
  Fe  Fe11  1  0.50000000  0.00000000  0.75000000  1
  Si  Si0  1  0.67755800  0.17755800  0.25000000  1
  Si  Si1  1  0.32244200  0.82244200  0.25000000  1
  Si  Si2  1  0.17755800  0.32244200  0.75000000  1
  Si  Si3  1  0.82244200  0.67755800  0.75000000  1
  Si  Si4  1  0.82244200  0.67755800  0.25000000  1
  Si  Si5  1  0.17755800  0.32244200  0.25000000  1
  Si  Si6  1  0.67755800  0.17755800  0.75000000  1
  Si  Si7  1  0.32244200  0.82244200  0.75000000  1
  Si  Si8  1  0.50000000  0.50000000  0.22104700  1
  Si  Si9  1  0.00000000  0.00000000  0.72104700  1
  Si  Si10  1  0.50000000  0.50000000  0.77895300  1
  Si  Si11  1  0.00000000  0.00000000  0.27895300  1
  Si  Si12  1  0.67898100  0.98089400  0.50000000  1
  Si  Si13  1  0.32101900  0.01910600  0.50000000  1
  Si  Si14  1  0.17898100  0.51910600  0.00000000  1
  Si  Si15  1  0.82101900  0.48089400  0.00000000  1
  Si  Si16  1  0.01910600  0.67898100  0.50000000  1
  Si  Si17  1  0.98089400  0.32101900  0.50000000  1
  Si  Si18  1  0.48089400  0.17898100  0.00000000  1
  Si  Si19  1  0.51910600  0.82101900  0.00000000  1
loop_
_geom_bond_atom_site_label_1
_geom_bond_atom_site_label_2
_geom_bond_distance
_geom_bond_site_symmetry_2
Fe0 Si9 2.352277 1_665
Fe0 Si11 2.352277 1_665
Fe0 Si16 2.356488 1_655
Fe0 Si3 2.378295 1_555
Fe0 Si4 2.378295 1_555
Fe0 Si12 2.456967 1_555
Fe0 Sm7 3.135545 1_556
Fe0 Sm7 3.135545 1_555
Fe1 Si11 2.352277 1_555
Fe1 Si9 2.352277 1_555
Fe1 Si17 2.356488 1_455
Fe1 Si5 2.378295 1_555
Fe1 Si2 2.378295 1_555
Fe1 Si13 2.456967 1_555
Fe1 Sm6 3.135545 1_555
Fe1 Sm6 3.135545 1_556
Fe2 Si10 2.352277 1_554
Fe2 Si8 2.352277 1_555
Fe2 Si19 2.356488 1_555
Fe2 Si1 2.378295 1_555
Fe2 Si7 2.378295 1_554
Fe2 Si14 2.456967 1_555
Fe2 Sm4 3.135545 1_554
Fe2 Sm4 3.135545 1_555
Fe3 Si10 2.352277 1_554
Fe3 Si8 2.352277 1_555
Fe3 Si18 2.356488 1_555
Fe3 Si0 2.378295 1_555
Fe3 Si6 2.378295 1_554
Fe3 Si15 2.456967 1_555
Fe3 Sm5 3.135545 1_555
Fe3 Sm5 3.135545 1_554
Fe4 Si11 2.352277 1_565
Fe4 Si9 2.352277 1_565
Fe4 Si13 2.356488 1_565
Fe4 Si1 2.378295 1_555
Fe4 Si7 2.378295 1_555
Fe4 Si16 2.456967 1_555
Fe4 Sm2 3.135545 1_555
Fe4 Sm2 3.135545 1_556
Fe5 Si11 2.352277 1_655
Fe5 Si9 2.352277 1_655
Fe5 Si12 2.356488 1_545
Fe5 Si6 2.378295 1_555
Fe5 Si0 2.378295 1_555
Fe5 Si17 2.456967 1_555
Fe5 Sm3 3.135545 1_556
Fe5 Sm3 3.135545 1_555
Fe6 Si10 2.352277 1_554
Fe6 Si8 2.352277 1_555
Fe6 Si14 2.356488 1_555
Fe6 Si5 2.378295 1_555
Fe6 Si2 2.378295 1_554
Fe6 Si18 2.456967 1_555
Fe6 Sm1 3.135545 1_554
Fe6 Sm1 3.135545 1_555
Fe7 Si10 2.352277 1_554
Fe7 Si8 2.352277 1_555
Fe7 Si15 2.356488 1_555
Fe7 Si4 2.378295 1_555
Fe7 Si3 2.378295 1_554
Fe7 Si19 2.456967 1_555
Fe7 Sm0 3.135545 1_554
Fe7 Sm0 3.135545 1_555
Fe8 Si13 2.343278 1_555
Fe8 Si18 2.343278 1_555
Fe8 Si12 2.343278 1_545
Fe8 Si19 2.343278 1_545
Fe8 Si0 2.625059 1_555
Fe8 Si1 2.625059 1_545
Fe8 Sm7 3.179103 1_545
Fe8 Sm1 3.179103 1_555
Fe8 Sm0 3.179103 1_545
Fe8 Sm6 3.179103 1_555
Fe9 Si16 2.343278 1_555
Fe9 Si14 2.343278 1_556
Fe9 Si17 2.343278 1_455
Fe9 Si15 2.343278 1_456
Fe9 Si3 2.625059 1_455
Fe9 Si2 2.625059 1_555
Fe9 Sm2 3.179103 1_556
Fe9 Sm4 3.179103 1_555
Fe9 Sm5 3.179103 1_455
Fe9 Sm3 3.179103 1_456
Fe10 Si16 2.343278 1_555
Fe10 Si14 2.343278 1_555
Fe10 Si17 2.343278 1_455
Fe10 Si15 2.343278 1_455
Fe10 Si4 2.625059 1_455
Fe10 Si5 2.625059 1_555
Fe10 Fe9 2.792950 1_555
Fe10 Fe9 2.792950 1_554
Fe10 Sm2 3.179103 1_555
Fe10 Sm4 3.179103 1_555
Fe10 Sm5 3.179103 1_455
Fe10 Sm3 3.179103 1_455
Fe11 Si13 2.343278 1_555
Fe11 Si18 2.343278 1_556
Fe11 Si12 2.343278 1_545
Fe11 Si19 2.343278 1_546
Fe11 Si6 2.625059 1_555
Fe11 Si7 2.625059 1_545
Fe11 Fe8 2.792950 1_556
Fe11 Fe8 2.792950 1_555
Fe11 Sm7 3.179103 1_546
Fe11 Sm1 3.179103 1_555
Fe11 Sm0 3.179103 1_545
Fe11 Sm6 3.179103 1_556
Si0 Si18 2.485401 1_555
Si0 Si12 2.485401 1_545
Si0 Si6 2.792950 1_555
Si0 Si6 2.792950 1_554
Si0 Sm3 3.056137 1_555
Si0 Sm5 3.056137 1_555
Si0 Sm7 3.068513 1_545
Si0 Sm1 3.068513 1_555
Si1 Si13 2.485401 1_565
Si1 Si19 2.485401 1_555
Si1 Si7 2.792950 1_555
Si1 Si7 2.792950 1_554
Si1 Sm4 3.056137 1_555
Si1 Sm2 3.056137 1_555
Si1 Sm0 3.068513 1_555
Si1 Sm6 3.068513 1_565
Si2 Si5 2.792950 1_556
Si2 Si5 2.792950 1_555
Si2 Sm6 3.056137 1_556
Si2 Sm1 3.056137 1_555
Si2 Sm4 3.068513 1_555
Si2 Sm3 3.068513 1_456
Si3 Si4 2.792950 1_555
Si3 Si4 2.792950 1_556
Si3 Sm0 3.056137 1_555
Si3 Sm7 3.056137 1_556
Si3 Sm2 3.068513 1_656
Si3 Sm5 3.068513 1_555
Si4 Sm0 3.056137 1_555
Si4 Sm7 3.056137 1_555
Si4 Sm2 3.068513 1_655
Si4 Sm5 3.068513 1_555
Si5 Sm6 3.056137 1_555
Si5 Sm1 3.056137 1_555
Si5 Sm4 3.068513 1_555
Si5 Sm3 3.068513 1_455
Si6 Sm3 3.056137 1_556
Si6 Sm5 3.056137 1_555
Si6 Sm7 3.068513 1_546
Si6 Sm1 3.068513 1_555
Si7 Sm4 3.056137 1_555
Si7 Sm2 3.056137 1_556
Si7 Sm0 3.068513 1_555
Si7 Sm6 3.068513 1_566
Si8 Sm5 3.002877 1_555
Si8 Sm0 3.002877 1_555
Si8 Sm1 3.002877 1_555
Si8 Sm4 3.002877 1_555
Si9 Sm3 3.002877 1_456
Si9 Sm6 3.002877 1_556
Si9 Sm7 3.002877 1_446
Si9 Sm2 3.002877 1_546
Si10 Si8 2.469493 1_556
Si10 Sm5 3.002877 1_555
Si10 Sm0 3.002877 1_555
Si10 Sm1 3.002877 1_555
Si10 Sm4 3.002877 1_555
Si11 Si9 2.469493 1_555
Si11 Sm3 3.002877 1_455
Si11 Sm6 3.002877 1_555
Si11 Sm2 3.002877 1_545
Si11 Sm7 3.002877 1_445
Si12 Si6 2.485401 1_565
Si12 Sm0 2.809790 1_555
Si12 Sm7 2.978038 1_555
Si12 Sm7 2.978038 1_556
Si13 Si7 2.485401 1_545
Si13 Sm1 2.809790 1_555
Si13 Sm6 2.978038 1_555
Si13 Sm6 2.978038 1_556
Si14 Si5 2.485401 1_555
Si14 Si2 2.485401 1_554
Si14 Sm2 2.809790 1_555
Si14 Sm4 2.978038 1_555
Si14 Sm4 2.978038 1_554
Si15 Si4 2.485401 1_555
Si15 Si3 2.485401 1_554
Si15 Sm3 2.809790 1_555
Si15 Sm5 2.978038 1_554
Si15 Sm5 2.978038 1_555
Si16 Si4 2.485401 1_455
Si16 Si3 2.485401 1_455
Si16 Sm4 2.809790 1_555
Si16 Sm2 2.978038 1_555
Si16 Sm2 2.978038 1_556
Si17 Si5 2.485401 1_655
Si17 Si2 2.485401 1_655
Si17 Sm5 2.809790 1_555
Si17 Sm3 2.978038 1_556
Si17 Sm3 2.978038 1_555
Si18 Si6 2.485401 1_554
Si18 Sm6 2.809790 1_555
Si18 Sm1 2.978038 1_555
Si18 Sm1 2.978038 1_554
Si19 Si7 2.485401 1_554
Si19 Sm7 2.809790 1_555
Si19 Sm0 2.978038 1_555
Si19 Sm0 2.978038 1_554
