# generated using pymatgen
data_Ce2(ReB2)3
_symmetry_space_group_name_H-M   'P 1'
_cell_length_a   6.27965558
_cell_length_b   6.27965558
_cell_length_c   7.50345449
_cell_angle_alpha   90.57809220
_cell_angle_beta   90.57809220
_cell_angle_gamma   114.62295097
_symmetry_Int_Tables_number   1
_chemical_formula_structural   Ce2(ReB2)3
_chemical_formula_sum   'Ce4 Re6 B12'
_cell_volume   268.93918715
_cell_formula_units_Z   2
loop_
 _symmetry_equiv_pos_site_id
 _symmetry_equiv_pos_as_xyz
  1  'x, y, z'
loop_
 _atom_site_type_symbol
 _atom_site_label
 _atom_site_symmetry_multiplicity
 _atom_site_fract_x
 _atom_site_fract_y
 _atom_site_fract_z
 _atom_site_occupancy
  Ce  Ce0  1  0.09741835  0.44814841  0.33120859  1
  Ce  Ce1  1  0.55185159  0.90258165  0.16879141  1
  Ce  Ce2  1  0.90258165  0.55185159  0.66879141  1
  Ce  Ce3  1  0.44814841  0.09741835  0.83120859  1
  Re  Re0  1  0.58925461  0.41074539  0.25000000  1
  Re  Re1  1  0.41074539  0.58925461  0.75000000  1
  Re  Re2  1  0.98963589  0.80647603  0.08695914  1
  Re  Re3  1  0.19352397  0.01036411  0.41304086  1
  Re  Re4  1  0.01036411  0.19352397  0.91304086  1
  Re  Re5  1  0.80647603  0.98963589  0.58695914  1
  B  B0  1  0.24558914  0.15506092  0.13523703  1
  B  B1  1  0.84493908  0.75441086  0.36476297  1
  B  B2  1  0.75441086  0.84493908  0.86476297  1
  B  B3  1  0.15506092  0.24558914  0.63523703  1
  B  B4  1  0.58453693  0.15880070  0.48162008  1
  B  B5  1  0.84119930  0.41546307  0.01837992  1
  B  B6  1  0.41546307  0.84119930  0.51837992  1
  B  B7  1  0.15880070  0.58453693  0.98162008  1
  B  B8  1  0.44453124  0.34943669  0.53583141  1
  B  B9  1  0.65056331  0.55546876  0.96416859  1
  B  B10  1  0.55546876  0.65056331  0.46416859  1
  B  B11  1  0.34943669  0.44453124  0.03583141  1
loop_
_geom_bond_atom_site_label_1
_geom_bond_atom_site_label_2
_geom_bond_distance
_geom_bond_site_symmetry_2
B0 B11 1.826279 1_555
B0 Re2 2.132312 1_445
B0 Re0 2.241451 1_555
B0 Re3 2.254339 1_555
B0 Re4 2.296884 1_554
B0 Ce3 2.716385 1_554
B0 Ce0 2.795609 1_555
B0 Ce1 2.969026 1_545
B1 B10 1.826279 1_555
B1 Re3 2.132312 1_665
B1 Re0 2.241451 1_555
B1 Re2 2.254339 1_555
B1 Re5 2.296884 1_555
B1 Ce2 2.716385 1_555
B1 Ce1 2.795609 1_555
B1 Ce0 2.969026 1_655
B2 B9 1.826279 1_555
B2 Re4 2.132312 1_665
B2 Re1 2.241451 1_555
B2 Re5 2.254339 1_555
B2 Re2 2.296884 1_556
B2 Ce1 2.716385 1_556
B2 Ce2 2.795609 1_555
B2 Ce3 2.969026 1_565
B3 B8 1.826279 1_555
B3 Re5 2.132312 1_445
B3 Re1 2.241451 1_555
B3 Re4 2.254339 1_555
B3 Re3 2.296884 1_555
B3 Ce0 2.716385 1_555
B3 Ce3 2.795609 1_555
B3 Ce2 2.969026 1_455
B4 B8 1.801660 1_555
B4 B6 1.852990 1_545
B4 Re5 2.219018 1_545
B4 Re3 2.284817 1_555
B4 Re0 2.354132 1_555
B4 Ce3 2.748369 1_555
B4 Ce1 2.789190 1_545
B4 Ce2 2.796266 1_555
B4 Ce0 3.191638 1_655
B5 B9 1.801660 1_554
B5 B7 1.852990 1_654
B5 Re4 2.219018 1_654
B5 Re2 2.284817 1_555
B5 Re0 2.354132 1_555
B5 Ce2 2.748369 1_554
B5 Ce0 2.789190 1_655
B5 Ce3 2.796266 1_554
B5 Ce1 3.191638 1_545
B6 Re3 2.219018 1_565
B6 Re5 2.284817 1_555
B6 Re1 2.354132 1_555
B6 Ce1 2.748369 1_555
B6 Ce3 2.789190 1_565
B6 Ce0 2.796266 1_555
B6 Ce2 3.191638 1_455
B7 Re2 2.219018 1_456
B7 Re4 2.284817 1_555
B7 Re1 2.354132 1_555
B7 Ce0 2.748369 1_556
B7 Ce2 2.789190 1_455
B7 Ce1 2.796266 1_556
B7 Ce3 3.191638 1_565
B8 Re3 2.236419 1_555
B8 Re1 2.262681 1_555
B8 Re0 2.310505 1_555
B8 Ce3 2.741719 1_555
B8 Ce2 2.784695 1_555
B8 Ce0 2.927547 1_555
B9 Re2 2.236419 1_556
B9 Re1 2.262681 1_555
B9 Re0 2.310505 1_556
B9 Ce2 2.741719 1_555
B9 Ce3 2.784695 1_555
B9 Ce1 2.927547 1_556
B10 B6 1.801660 1_555
B10 B8 1.811238 1_555
B10 Re5 2.236419 1_555
B10 Re0 2.262681 1_555
B10 Re1 2.310505 1_555
B10 Ce1 2.741719 1_555
B10 Ce0 2.784695 1_555
B10 Ce2 2.927547 1_555
B11 B7 1.801660 1_554
B11 B9 1.811238 1_554
B11 Re4 2.236419 1_554
B11 Re0 2.262681 1_555
B11 Re1 2.310505 1_554
B11 Ce0 2.741719 1_555
B11 Ce1 2.784695 1_555
B11 Ce3 2.927547 1_554
