# generated using pymatgen
data_KNa3Mg4F12
_symmetry_space_group_name_H-M   'P 1'
_cell_length_a   7.89512200
_cell_length_b   5.54628400
_cell_length_c   5.61108891
_cell_angle_alpha   89.79218182
_cell_angle_beta   90.00000000
_cell_angle_gamma   90.00000000
_symmetry_Int_Tables_number   1
_chemical_formula_structural   KNa3Mg4F12
_chemical_formula_sum   'K1 Na3 Mg4 F12'
_cell_volume   245.70004891
_cell_formula_units_Z   1
loop_
 _symmetry_equiv_pos_site_id
 _symmetry_equiv_pos_as_xyz
  1  'x, y, z'
loop_
 _atom_site_type_symbol
 _atom_site_label
 _atom_site_symmetry_multiplicity
 _atom_site_fract_x
 _atom_site_fract_y
 _atom_site_fract_z
 _atom_site_occupancy
  K  K0  1  0.50000000  0.49559100  0.51995900  1
  Na  Na0  1  0.50000000  0.00723100  0.03483900  1
  Na  Na1  1  0.00000000  0.50147300  0.46311100  1
  Na  Na2  1  0.00000000  0.00102600  0.97168400  1
  Mg  Mg0  1  0.24475400  0.00005900  0.50156500  1
  Mg  Mg1  1  0.75443300  0.49935200  0.99774700  1
  Mg  Mg2  1  0.75524600  0.00005900  0.50156500  1
  Mg  Mg3  1  0.24556700  0.49935200  0.99774700  1
  F  F0  1  0.28830400  0.20339200  0.79551600  1
  F  F1  1  0.73142400  0.28139600  0.28036500  1
  F  F2  1  0.79206500  0.78660500  0.21320600  1
  F  F3  1  0.20963500  0.70739400  0.70868000  1
  F  F4  1  0.20793500  0.78660500  0.21320600  1
  F  F5  1  0.79036500  0.70739400  0.70868000  1
  F  F6  1  0.71169600  0.20339200  0.79551600  1
  F  F7  1  0.26857600  0.28139600  0.28036500  1
  F  F8  1  0.50000000  0.57562200  0.00036300  1
  F  F9  1  0.50000000  0.95882800  0.47112000  1
  F  F10  1  0.00000000  0.42610400  0.01172400  1
  F  F11  1  0.00000000  0.07772900  0.53304300  1
loop_
_geom_bond_atom_site_label_1
_geom_bond_atom_site_label_2
_geom_bond_distance
_geom_bond_site_symmetry_2
F0 Mg3 2.027175 1_555
F0 Mg0 2.030761 1_555
F0 Na0 2.402043 1_556
F0 Na2 2.722108 1_555
F0 K0 2.791478 1_555
F1 Mg1 1.998786 1_554
F1 Mg2 1.999151 1_555
F1 K0 2.562935 1_555
F1 Na1 2.654560 1_655
F1 Na0 2.750228 1_555
F2 Mg1 2.025358 1_554
F2 Mg2 2.029263 1_565
F2 Na2 2.436033 1_664
F2 Na1 2.673233 1_655
F2 Na0 2.794143 1_565
F3 Mg3 2.007266 1_555
F3 Mg0 2.012102 1_565
F3 Na1 2.440035 1_555
F3 Na2 2.754415 1_565
F3 K0 2.786706 1_555
F4 Mg3 2.025358 1_554
F4 Mg0 2.029263 1_565
F4 Na2 2.436033 1_564
F4 Na1 2.673233 1_555
F4 Na0 2.794143 1_565
F5 Mg1 2.007266 1_555
F5 Mg2 2.012102 1_565
F5 Na1 2.440035 1_655
F5 Na2 2.754415 1_665
F5 K0 2.786706 1_555
F6 Mg1 2.027175 1_555
F6 Mg2 2.030761 1_555
F6 Na0 2.402043 1_556
F6 Na2 2.722108 1_655
F6 K0 2.791478 1_555
F7 Mg3 1.998786 1_554
F7 Mg0 1.999151 1_555
F7 K0 2.562935 1_555
F7 Na1 2.654560 1_555
F7 Na0 2.750228 1_555
F8 Mg3 2.052900 1_554
F8 Mg1 2.052900 1_554
F8 Na0 2.402329 1_565
F8 K0 2.733479 1_554
F8 K0 2.947503 1_555
F9 Mg0 2.035383 1_565
F9 Mg2 2.035383 1_565
F9 Na0 2.461719 1_565
F9 K0 2.582829 1_555
F9 K0 2.990616 1_565
F10 Mg1 1.982381 1_454
F10 Mg3 1.982381 1_554
F10 Na2 2.369095 1_554
F10 Na1 2.568532 1_555
F11 Mg0 1.987799 1_555
F11 Mg2 1.987799 1_455
F11 Na1 2.381333 1_555
F11 Na2 2.496228 1_555
