# generated using pymatgen
data_Sr5(MnN3)2
_symmetry_space_group_name_H-M   'P 1'
_cell_length_a   6.11696814
_cell_length_b   6.62888249
_cell_length_c   13.41905545
_cell_angle_alpha   90.00000099
_cell_angle_beta   100.07348464
_cell_angle_gamma   122.80924406
_symmetry_Int_Tables_number   1
_chemical_formula_structural   Sr5(MnN3)2
_chemical_formula_sum   'Sr10 Mn4 N12'
_cell_volume   447.31270787
_cell_formula_units_Z   2
loop_
 _symmetry_equiv_pos_site_id
 _symmetry_equiv_pos_as_xyz
  1  'x, y, z'
loop_
 _atom_site_type_symbol
 _atom_site_label
 _atom_site_symmetry_multiplicity
 _atom_site_fract_x
 _atom_site_fract_y
 _atom_site_fract_z
 _atom_site_occupancy
  Sr  Sr0  1  0.13213298  0.80288933  0.99647892  1
  Sr  Sr1  1  0.86786702  0.67075735  0.50352108  1
  Sr  Sr2  1  0.86786702  0.19711067  0.00352108  1
  Sr  Sr3  1  0.13213298  0.32924265  0.49647892  1
  Sr  Sr4  1  0.31664802  0.06651421  0.71981131  1
  Sr  Sr5  1  0.68335198  0.74986618  0.78018869  1
  Sr  Sr6  1  0.68335198  0.93348579  0.28018869  1
  Sr  Sr7  1  0.31664802  0.25013382  0.21981131  1
  Sr  Sr8  1  0.00000000  0.38318752  0.75000000  1
  Sr  Sr9  1  1.00000000  0.61681248  0.25000000  1
  Mn  Mn0  1  0.54800583  0.90630212  0.56946787  1
  Mn  Mn1  1  0.45199417  0.35829630  0.93053213  1
  Mn  Mn2  1  0.45199417  0.09369788  0.43053213  1
  Mn  Mn3  1  0.54800583  0.64170370  0.06946787  1
  N  N0  1  0.87683595  0.98707999  0.62526648  1
  N  N1  1  0.12316405  0.11024404  0.87473352  1
  N  N2  1  0.12316405  0.01292001  0.37473352  1
  N  N3  1  0.87683595  0.88975596  0.12526648  1
  N  N4  1  0.30226641  0.69672467  0.63971558  1
  N  N5  1  0.69773359  0.39445826  0.86028442  1
  N  N6  1  0.69773359  0.30327533  0.36028442  1
  N  N7  1  0.30226641  0.60554174  0.13971558  1
  N  N8  1  0.55995146  0.20694393  0.56764012  1
  N  N9  1  0.44004854  0.64699247  0.93235988  1
  N  N10  1  0.44004854  0.79305607  0.43235988  1
  N  N11  1  0.55995146  0.35300753  0.06764012  1
loop_
_geom_bond_atom_site_label_1
_geom_bond_atom_site_label_2
_geom_bond_distance
_geom_bond_site_symmetry_2
Mn0 N0 1.788634 1_555
Mn0 N4 1.819566 1_555
Mn0 N10 1.849990 1_555
Mn0 N8 1.954606 1_565
Mn1 N1 1.788634 1_555
Mn1 N5 1.819566 1_555
Mn1 N11 1.849990 1_556
Mn1 N9 1.954606 1_555
Mn2 N2 1.788634 1_555
Mn2 N6 1.819566 1_555
Mn2 N8 1.849990 1_555
Mn2 N10 1.954606 1_545
Mn3 N3 1.788634 1_555
Mn3 N7 1.819566 1_555
Mn3 N9 1.849990 1_554
Mn3 N11 1.954606 1_555
N0 Sr4 2.528931 1_665
N0 Sr1 2.629227 1_555
N0 Sr5 2.653144 1_555
N0 Sr3 2.770488 1_665
N0 Sr8 2.771080 1_665
N1 Sr5 2.528931 1_445
N1 Sr0 2.629233 1_545
N1 Sr4 2.653144 1_555
N1 Sr2 2.770491 1_456
N1 Sr8 2.771080 1_555
N2 Sr6 2.528931 1_445
N2 Sr3 2.629227 1_555
N2 Sr7 2.653144 1_555
N2 Sr1 2.770488 1_445
N2 Sr9 2.771080 1_445
N3 Sr7 2.528931 1_665
N3 Sr2 2.629233 1_565
N3 Sr6 2.653144 1_555
N3 Sr0 2.770491 1_654
N3 Sr9 2.771080 1_555
N4 Sr5 2.585400 1_555
N4 Sr8 2.592541 1_555
N4 Sr4 2.627739 1_565
N4 Sr3 2.695281 1_555
N4 Sr1 2.869841 1_455
N5 Sr4 2.585400 1_555
N5 Sr8 2.592541 1_655
N5 Sr5 2.627739 1_555
N5 Sr2 2.695276 1_556
N5 Sr0 2.869838 1_655
N6 Sr7 2.585400 1_555
N6 Sr9 2.592541 1_555
N6 Sr6 2.627739 1_545
N6 Sr1 2.695281 1_555
N6 Sr3 2.869841 1_655
N7 Sr6 2.585400 1_555
N7 Sr9 2.592541 1_455
N7 Sr7 2.627739 1_555
N7 Sr0 2.695276 1_554
N7 Sr2 2.869838 1_455
N8 Sr4 2.610179 1_555
N8 Sr1 2.834112 1_555
N8 Sr8 2.981032 1_655
N8 Sr3 3.137271 1_555
N9 Sr5 2.610179 1_555
N9 Sr0 2.834107 1_555
N9 Sr8 2.981032 1_555
N9 Sr2 3.137276 1_566
N10 Sr6 2.610179 1_555
N10 Sr3 2.834112 1_555
N10 Sr9 2.981032 1_455
N10 Sr1 3.137271 1_555
N11 Sr7 2.610179 1_555
N11 Sr2 2.834107 1_555
N11 Sr9 2.981032 1_555
N11 Sr0 3.137276 1_544
