# generated using pymatgen
data_Mg14NbV
_symmetry_space_group_name_H-M   'P 1'
_cell_length_a   6.33545752
_cell_length_b   6.18791402
_cell_length_c   10.08272657
_cell_angle_alpha   90.00000000
_cell_angle_beta   90.00000000
_cell_angle_gamma   119.23257109
_symmetry_Int_Tables_number   1
_chemical_formula_structural   Mg14NbV
_chemical_formula_sum   'Mg14 Nb1 V1'
_cell_volume   344.93530645
_cell_formula_units_Z   1
loop_
 _symmetry_equiv_pos_site_id
 _symmetry_equiv_pos_as_xyz
  1  'x, y, z'
loop_
 _atom_site_type_symbol
 _atom_site_label
 _atom_site_symmetry_multiplicity
 _atom_site_fract_x
 _atom_site_fract_y
 _atom_site_fract_z
 _atom_site_occupancy
  Mg  Mg0  1  0.16696318  0.33348109  0.62500000  1
  Mg  Mg1  1  0.16675391  0.83337645  0.62500000  1
  Mg  Mg2  1  0.66341277  0.33395495  0.12500000  1
  Mg  Mg3  1  0.66465893  0.33219325  0.62500000  1
  Mg  Mg4  1  0.66341277  0.82945682  0.12500000  1
  Mg  Mg5  1  0.66465893  0.83246468  0.62500000  1
  Mg  Mg6  1  0.32809535  0.16248566  0.36545667  1
  Mg  Mg7  1  0.32809535  0.16248566  0.88454333  1
  Mg  Mg8  1  0.32809535  0.66561069  0.36545667  1
  Mg  Mg9  1  0.32809535  0.66561069  0.88454333  1
  Mg  Mg10  1  0.84230264  0.17115182  0.36877640  1
  Mg  Mg11  1  0.84230264  0.17115182  0.88122360  1
  Mg  Mg12  1  0.84390021  0.67195061  0.37059328  1
  Mg  Mg13  1  0.84390021  0.67195061  0.87940672  1
  Nb  Nb0  1  0.16027628  0.83013764  0.12500000  1
  V  V0  1  0.16507613  0.33253757  0.12500000  1
loop_
_geom_bond_atom_site_label_1
_geom_bond_atom_site_label_2
_geom_bond_distance
_geom_bond_site_symmetry_2
Mg0 Mg1 3.093957 1_555
Mg0 Mg1 3.093957 1_545
Mg0 Mg11 3.145768 1_455
Mg0 Mg10 3.145768 1_455
Mg0 Mg5 3.157029 1_555
Mg0 Mg3 3.157030 1_555
Mg0 Mg7 3.172524 1_555
Mg0 Mg6 3.172524 1_555
Mg0 Mg9 3.172530 1_555
Mg0 Mg8 3.172530 1_555
Mg0 Mg5 3.178443 1_445
Mg0 Mg3 3.178443 1_455
Mg1 Mg12 3.125025 1_455
Mg1 Mg13 3.125025 1_455
Mg1 Mg3 3.157215 1_565
Mg1 Mg5 3.157215 1_555
Mg1 Mg9 3.163407 1_555
Mg1 Mg8 3.163407 1_555
Mg1 Mg7 3.163413 1_565
Mg1 Mg6 3.163413 1_565
Mg1 Mg3 3.178250 1_455
Mg1 Mg5 3.178250 1_455
Mg2 Mg6 3.052092 1_555
Mg2 Mg7 3.052092 1_554
Mg2 Mg4 3.066123 1_555
Mg2 Mg4 3.121791 1_545
Mg2 Nb0 3.145802 1_655
Mg2 V0 3.152917 1_555
Mg2 V0 3.182559 1_655
Mg2 Nb0 3.189659 1_545
Mg3 Mg5 3.092277 1_545
Mg3 Mg5 3.095637 1_555
Mg3 Mg7 3.211008 1_555
Mg3 Mg6 3.211008 1_555
Mg4 Mg8 3.052092 1_555
Mg4 Mg9 3.052092 1_554
Mg4 Nb0 3.145802 1_655
Mg4 V0 3.152916 1_555
Mg4 V0 3.182559 1_665
Mg4 Nb0 3.189659 1_555
Mg5 Mg9 3.211008 1_555
Mg5 Mg8 3.211008 1_555
Mg6 Nb0 3.016979 1_545
Mg6 V0 3.018844 1_555
Mg6 Mg8 3.074620 1_545
Mg6 Mg8 3.113294 1_555
Mg7 Nb0 3.016979 1_546
Mg7 V0 3.018844 1_556
Mg7 Mg9 3.074620 1_545
Mg7 Mg9 3.113294 1_555
Mg8 Nb0 3.016973 1_555
Mg8 V0 3.018850 1_555
Mg9 Nb0 3.016973 1_556
Mg9 V0 3.018850 1_556
Mg10 V0 3.037403 1_655
Mg10 Mg2 3.075052 1_555
Mg10 Mg4 3.075058 1_545
Mg10 Mg12 3.094024 1_545
Mg10 Mg12 3.094024 1_555
Mg10 Mg8 3.104440 1_655
Mg10 Mg6 3.104441 1_655
Mg10 Mg3 3.166893 1_555
Mg10 Mg5 3.166899 1_545
Mg10 Mg8 3.232062 1_545
Mg10 Mg6 3.232062 1_555
Mg11 V0 3.037403 1_656
Mg11 Mg2 3.075052 1_556
Mg11 Mg4 3.075058 1_546
Mg11 Mg13 3.094024 1_545
Mg11 Mg13 3.094024 1_555
Mg11 Mg9 3.104440 1_655
Mg11 Mg7 3.104441 1_655
Mg11 Mg3 3.166893 1_555
Mg11 Mg5 3.166899 1_545
Mg11 Mg9 3.232062 1_545
Mg11 Mg7 3.232062 1_555
Mg12 Nb0 3.031703 1_655
Mg12 Mg4 3.078598 1_555
Mg12 Mg2 3.078604 1_555
Mg12 Mg6 3.087380 1_665
Mg12 Mg8 3.087381 1_655
Mg12 Mg5 3.155554 1_555
Mg12 Mg3 3.155560 1_555
Mg12 Mg6 3.249294 1_555
Mg12 Mg8 3.249294 1_555
Mg13 Nb0 3.031703 1_656
Mg13 Mg4 3.078598 1_556
Mg13 Mg2 3.078604 1_556
Mg13 Mg7 3.087380 1_665
Mg13 Mg9 3.087381 1_655
Mg13 Mg5 3.155554 1_555
Mg13 Mg3 3.155560 1_555
Mg13 Mg7 3.249294 1_555
Mg13 Mg9 3.249294 1_555
Nb0 V0 3.094071 1_555
Nb0 V0 3.094071 1_565
