# generated using pymatgen
data_Cu2AgH(SeO5)2
_symmetry_space_group_name_H-M   'P 1'
_cell_length_a   5.40829071
_cell_length_b   5.40829071
_cell_length_c   8.24791217
_cell_angle_alpha   66.32041790
_cell_angle_beta   66.32041790
_cell_angle_gamma   69.88767403
_symmetry_Int_Tables_number   1
_chemical_formula_structural   Cu2AgH(SeO5)2
_chemical_formula_sum   'Cu2 Ag1 H1 Se2 O10'
_cell_volume   197.48330660
_cell_formula_units_Z   1
loop_
 _symmetry_equiv_pos_site_id
 _symmetry_equiv_pos_as_xyz
  1  'x, y, z'
loop_
 _atom_site_type_symbol
 _atom_site_label
 _atom_site_symmetry_multiplicity
 _atom_site_fract_x
 _atom_site_fract_y
 _atom_site_fract_z
 _atom_site_occupancy
  Cu  Cu0  1  0.50000000  0.00000000  0.50000000  1
  Cu  Cu1  1  0.00000000  0.50000000  0.50000000  1
  Ag  Ag0  1  0.00000000  0.00000000  0.00000000  1
  H  H0  1  0.00000000  0.00000000  0.50000000  1
  Se  Se0  1  0.58015100  0.58015100  0.20574200  1
  Se  Se1  1  0.41984900  0.41984900  0.79425800  1
  O  O0  1  0.84536600  0.84536600  0.54535600  1
  O  O1  1  0.15463400  0.15463400  0.45464400  1
  O  O2  1  0.68040700  0.22535000  0.25808500  1
  O  O3  1  0.31959300  0.77465000  0.74191500  1
  O  O4  1  0.77465000  0.31959300  0.74191500  1
  O  O5  1  0.22535000  0.68040700  0.25808500  1
  O  O6  1  0.67981600  0.67981600  0.33148800  1
  O  O7  1  0.32018400  0.32018400  0.66851200  1
  O  O8  1  0.28268000  0.28268000  0.01964600  1
  O  O9  1  0.71732000  0.71732000  0.98035400  1
loop_
_geom_bond_atom_site_label_1
_geom_bond_atom_site_label_2
_geom_bond_distance
_geom_bond_site_symmetry_2
Cu0 O0 1.887818 1_545
Cu0 O1 1.887818 1_555
Cu0 O2 1.928544 1_555
Cu0 O3 1.928544 1_545
Cu0 O7 2.359127 1_555
Cu0 O6 2.359127 1_545
Cu1 O0 1.887818 1_455
Cu1 O1 1.887818 1_555
Cu1 O5 1.928544 1_555
Cu1 O4 1.928544 1_455
Cu1 O7 2.359127 1_555
Cu1 O6 2.359127 1_455
Ag0 O4 2.585323 1_454
Ag0 O3 2.585323 1_544
Ag0 O2 2.585323 1_455
Ag0 O5 2.585323 1_545
Ag0 O9 2.589630 1_444
Ag0 O8 2.589630 1_555
H0 O1 1.231730 1_555
H0 O0 1.231730 1_445
O2 Se0 1.723225 1_555
O3 Se1 1.723225 1_555
O4 Se1 1.723225 1_555
O5 Se0 1.723225 1_555
O6 Se0 1.659711 1_555
O7 Se1 1.659711 1_555
O8 Se1 1.649089 1_554
O9 Se0 1.649089 1_556
