# generated using pymatgen
data_K4Ge(PSe3)4
_symmetry_space_group_name_H-M   'P 1'
_cell_length_a   7.40728122
_cell_length_b   14.31038951
_cell_length_c   24.53616663
_cell_angle_alpha   90.00000000
_cell_angle_beta   90.00000000
_cell_angle_gamma   90.00000000
_symmetry_Int_Tables_number   1
_chemical_formula_structural   K4Ge(PSe3)4
_chemical_formula_sum   'K16 Ge4 P16 Se48'
_cell_volume   2600.86014879
_cell_formula_units_Z   4
loop_
 _symmetry_equiv_pos_site_id
 _symmetry_equiv_pos_as_xyz
  1  'x, y, z'
loop_
 _atom_site_type_symbol
 _atom_site_label
 _atom_site_symmetry_multiplicity
 _atom_site_fract_x
 _atom_site_fract_y
 _atom_site_fract_z
 _atom_site_occupancy
  K  K0  1  0.30283998  0.47406115  0.56389588  1
  K  K1  1  0.69716002  0.52593885  0.06389588  1
  K  K2  1  0.30283998  0.02593885  0.06389588  1
  K  K3  1  0.69716002  0.97406115  0.56389588  1
  K  K4  1  0.18158141  0.12433648  0.65935545  1
  K  K5  1  0.81841859  0.87566352  0.15935545  1
  K  K6  1  0.18158141  0.37566352  0.15935545  1
  K  K7  1  0.81841859  0.62433648  0.65935545  1
  K  K8  1  0.17238001  0.82464984  0.78156702  1
  K  K9  1  0.82761999  0.17535016  0.28156702  1
  K  K10  1  0.17238001  0.67535016  0.28156702  1
  K  K11  1  0.82761999  0.32464984  0.78156702  1
  K  K12  1  0.19967538  0.66395781  0.93972769  1
  K  K13  1  0.80032462  0.33604219  0.43972769  1
  K  K14  1  0.19967538  0.83604219  0.43972769  1
  K  K15  1  0.80032462  0.16395781  0.93972769  1
  Ge  Ge0  1  0.34353510  0.41991896  0.86822170  1
  Ge  Ge1  1  0.65646490  0.58008104  0.36822170  1
  Ge  Ge2  1  0.34353510  0.08008104  0.36822170  1
  Ge  Ge3  1  0.65646490  0.91991896  0.86822170  1
  P  P0  1  0.31293982  0.40608995  0.71953635  1
  P  P1  1  0.68706018  0.59391005  0.21953635  1
  P  P2  1  0.31293982  0.09391005  0.21953635  1
  P  P3  1  0.68706018  0.90608995  0.71953635  1
  P  P4  1  0.74904664  0.05198268  0.75547796  1
  P  P5  1  0.25095336  0.94801732  0.25547796  1
  P  P6  1  0.74904664  0.44801732  0.25547796  1
  P  P7  1  0.25095336  0.55198268  0.75547796  1
  P  P8  1  0.13446158  0.39303393  0.99984223  1
  P  P9  1  0.86553842  0.60696607  0.49984223  1
  P  P10  1  0.13446158  0.10696607  0.49984223  1
  P  P11  1  0.86553842  0.89303393  0.99984223  1
  P  P12  1  0.36056593  0.28625571  0.98542411  1
  P  P13  1  0.63943407  0.71374429  0.48542411  1
  P  P14  1  0.36056593  0.21374429  0.48542411  1
  P  P15  1  0.63943407  0.78625571  0.98542411  1
  Se  Se0  1  0.57311197  0.41085846  0.68078480  1
  Se  Se1  1  0.42688803  0.58914154  0.18078480  1
  Se  Se2  1  0.57311197  0.08914154  0.18078480  1
  Se  Se3  1  0.42688803  0.91085846  0.68078480  1
  Se  Se4  1  0.08315107  0.36675802  0.67033869  1
  Se  Se5  1  0.91684893  0.63324198  0.17033869  1
  Se  Se6  1  0.08315107  0.13324198  0.17033869  1
  Se  Se7  1  0.91684893  0.86675802  0.67033869  1
  Se  Se8  1  0.31298874  0.30671245  0.79618169  1
  Se  Se9  1  0.68701126  0.69328755  0.29618169  1
  Se  Se10  1  0.31298874  0.19328755  0.29618169  1
  Se  Se11  1  0.68701126  0.80671245  0.79618169  1
  Se  Se12  1  0.67842622  0.15387059  0.69504641  1
  Se  Se13  1  0.32157378  0.84612941  0.19504641  1
  Se  Se14  1  0.67842622  0.34612941  0.19504641  1
  Se  Se15  1  0.32157378  0.65387059  0.69504641  1
  Se  Se16  1  0.01824401  0.05978778  0.79014543  1
  Se  Se17  1  0.98175599  0.94021222  0.29014543  1
  Se  Se18  1  0.01824401  0.44021222  0.29014543  1
  Se  Se19  1  0.98175599  0.55978778  0.79014543  1
  Se  Se20  1  0.54068024  0.05980675  0.82633880  1
  Se  Se21  1  0.45931976  0.94019325  0.32633880  1
  Se  Se22  1  0.54068024  0.44019325  0.32633880  1
  Se  Se23  1  0.45931976  0.55980675  0.82633880  1
  Se  Se24  1  0.05136588  0.43619239  0.91140453  1
  Se  Se25  1  0.94863412  0.56380761  0.41140453  1
  Se  Se26  1  0.05136588  0.06380761  0.41140453  1
  Se  Se27  1  0.94863412  0.93619239  0.91140453  1
  Se  Se28  1  0.23142278  0.98577481  0.54382029  1
  Se  Se29  1  0.76857722  0.01422519  0.04382029  1
  Se  Se30  1  0.23142278  0.51422519  0.04382029  1
  Se  Se31  1  0.76857722  0.48577481  0.54382029  1
  Se  Se32  1  0.09061341  0.68123785  0.53620877  1
  Se  Se33  1  0.90938659  0.31876215  0.03620877  1
  Se  Se34  1  0.09061341  0.81876215  0.03620877  1
  Se  Se35  1  0.90938659  0.18123785  0.53620877  1
  Se  Se36  1  0.56381416  0.38177985  0.93662830  1
  Se  Se37  1  0.43618584  0.61822015  0.43662830  1
  Se  Se38  1  0.56381416  0.11822015  0.43662830  1
  Se  Se39  1  0.43618584  0.88177985  0.93662830  1
  Se  Se40  1  0.47275488  0.24921051  0.56316474  1
  Se  Se41  1  0.52724512  0.75078949  0.06316474  1
  Se  Se42  1  0.47275488  0.25078949  0.06316474  1
  Se  Se43  1  0.52724512  0.74921051  0.56316474  1
  Se  Se44  1  0.27108263  0.17454512  0.93224917  1
  Se  Se45  1  0.72891737  0.82545488  0.43224917  1
  Se  Se46  1  0.27108263  0.32545488  0.43224917  1
  Se  Se47  1  0.72891737  0.67454512  0.93224917  1
loop_
_geom_bond_atom_site_label_1
_geom_bond_atom_site_label_2
_geom_bond_distance
_geom_bond_site_symmetry_2
K0 Se32 3.423838 1_555
K0 Se4 3.439038 1_555
K0 Se40 3.455142 1_555
K0 Se31 3.488864 1_555
K0 Se0 3.612675 1_555
K0 Se37 3.870718 1_555
K0 Se46 3.874455 1_555
K1 Se33 3.423838 1_555
K1 Se5 3.439038 1_555
K1 Se41 3.455142 1_555
K1 Se30 3.488864 1_555
K1 Se1 3.612675 1_555
K1 Se36 3.870718 1_554
K1 Se47 3.874455 1_554
K2 Se34 3.423838 1_545
K2 Se6 3.439038 1_555
K2 Se42 3.455142 1_555
K2 Se29 3.488864 1_555
K2 Se2 3.612675 1_555
K2 Se39 3.870718 1_544
K2 Se44 3.874455 1_554
K3 Se35 3.423838 1_565
K3 Se7 3.439038 1_555
K3 Se43 3.455142 1_555
K3 Se28 3.488864 1_555
K3 Se3 3.612675 1_555
K3 Se38 3.870718 1_565
K3 Se45 3.874455 1_555
K4 Se28 3.479097 1_545
K4 Se16 3.551803 1_555
K4 Se4 3.555164 1_555
K4 Se3 3.593173 1_545
K4 Se40 3.662714 1_555
K4 Se35 3.722628 1_455
K4 Se12 3.806559 1_555
K4 Se12 3.851770 1_455
K5 Se29 3.479097 1_565
K5 Se17 3.551803 1_555
K5 Se5 3.555164 1_555
K5 Se2 3.593173 1_565
K5 Se41 3.662714 1_555
K5 Se34 3.722628 1_655
K5 Se13 3.806559 1_555
K5 Se13 3.851770 1_655
K6 Se30 3.479097 1_555
K6 Se18 3.551803 1_555
K6 Se6 3.555164 1_555
K6 Se1 3.593173 1_555
K6 Se42 3.662714 1_555
K6 Se33 3.722628 1_455
K6 Se14 3.806559 1_555
K6 Se14 3.851770 1_455
K7 Se31 3.479097 1_555
K7 Se19 3.551803 1_555
K7 Se7 3.555164 1_555
K7 Se0 3.593173 1_555
K7 Se43 3.662714 1_555
K7 Se32 3.722628 1_655
K7 Se15 3.806559 1_555
K7 Se15 3.851770 1_655
K8 Se3 3.345262 1_555
K8 Se7 3.375477 1_455
K8 Se15 3.420623 1_555
K8 Se16 3.559565 1_565
K8 Se11 3.622208 1_455
K8 Se11 3.837442 1_555
K8 Se27 3.929821 1_455
K9 Se2 3.345262 1_555
K9 Se6 3.375477 1_655
K9 Se14 3.420623 1_555
K9 Se17 3.559565 1_545
K9 Se10 3.622208 1_655
K9 Se10 3.837442 1_555
K9 Se26 3.929821 1_655
K10 Se1 3.345262 1_555
K10 Se5 3.375477 1_455
K10 Se13 3.420623 1_555
K10 Se18 3.559565 1_555
K10 Se9 3.622208 1_455
K10 Se9 3.837442 1_555
K10 Se25 3.929821 1_455
K11 Se0 3.345262 1_555
K11 Se4 3.375477 1_655
K11 Se12 3.420623 1_555
K11 Se19 3.559565 1_555
K11 Se8 3.622208 1_655
K11 Se8 3.837442 1_555
K11 Se24 3.929821 1_655
K12 Se34 3.341290 1_556
K12 Se30 3.342108 1_556
K12 Se47 3.495147 1_455
K12 Se24 3.509069 1_555
K12 Se39 3.576501 1_555
K12 Se23 3.696023 1_555
K13 Se35 3.341290 1_555
K13 Se31 3.342108 1_555
K13 Se46 3.495147 1_655
K13 Se25 3.509069 1_555
K13 Se38 3.576501 1_555
K13 Se22 3.696023 1_555
K14 Se32 3.341290 1_555
K14 Se28 3.342108 1_555
K14 Se45 3.495147 1_455
K14 Se26 3.509069 1_565
K14 Se37 3.576501 1_555
K14 Se21 3.696023 1_555
K15 Se33 3.341290 1_556
K15 Se29 3.342108 1_556
K15 Se44 3.495147 1_655
K15 Se27 3.509069 1_545
K15 Se36 3.576501 1_555
K15 Se20 3.696023 1_555
Ge0 Se36 2.403616 1_555
Ge0 Se23 2.408115 1_555
Ge0 Se8 2.408329 1_555
Ge0 Se24 2.420854 1_555
Ge1 Se37 2.403616 1_555
Ge1 Se22 2.408115 1_555
Ge1 Se9 2.408329 1_555
Ge1 Se25 2.420854 1_555
Ge2 Se38 2.403616 1_555
Ge2 Se21 2.408115 1_545
Ge2 Se10 2.408329 1_555
Ge2 Se26 2.420854 1_555
Ge3 Se39 2.403616 1_555
Ge3 Se20 2.408115 1_565
Ge3 Se11 2.408329 1_555
Ge3 Se27 2.420854 1_555
P0 Se0 2.150042 1_555
P0 Se4 2.161279 1_555
P0 P7 2.312433 1_555
P0 Se8 2.357763 1_555
P1 Se1 2.150042 1_555
P1 Se5 2.161279 1_555
P1 P6 2.312433 1_555
P1 Se9 2.357763 1_555
P2 Se2 2.150042 1_555
P2 Se6 2.161279 1_555
P2 P5 2.312433 1_545
P2 Se10 2.357763 1_555
P3 Se3 2.150042 1_555
P3 Se7 2.161279 1_555
P3 P4 2.312433 1_565
P3 Se11 2.357763 1_555
P4 Se12 2.144327 1_555
P4 Se16 2.170743 1_655
P4 Se20 2.327579 1_555
P5 Se13 2.144327 1_555
P5 Se17 2.170743 1_455
P5 Se21 2.327579 1_555
P6 Se14 2.144327 1_555
P6 Se18 2.170743 1_655
P6 Se22 2.327579 1_555
P7 Se15 2.144327 1_555
P7 Se19 2.170743 1_455
P7 Se23 2.327579 1_555
P8 Se30 2.165172 1_556
P8 Se33 2.169192 1_456
P8 Se24 2.338561 1_555
P9 Se31 2.165172 1_555
P9 Se32 2.169192 1_655
P9 Se25 2.338561 1_555
P10 Se28 2.165172 1_545
P10 Se35 2.169192 1_455
P10 P14 2.294573 1_555
P10 Se26 2.338561 1_555
P11 Se29 2.165172 1_566
P11 Se34 2.169192 1_656
P11 P15 2.294573 1_555
P11 Se27 2.338561 1_555
P12 Se42 2.141628 1_556
P12 Se44 2.167302 1_555
P12 P8 2.294573 1_555
P12 Se36 2.359804 1_555
P13 Se43 2.141628 1_555
P13 Se45 2.167302 1_555
P13 P9 2.294573 1_555
P13 Se37 2.359804 1_555
P14 Se40 2.141628 1_555
P14 Se46 2.167302 1_555
P14 Se38 2.359804 1_555
P15 Se41 2.141628 1_556
P15 Se47 2.167302 1_555
P15 Se39 2.359804 1_555
