# generated using pymatgen
data_Pu(Mo3Se4)2
_symmetry_space_group_name_H-M   'P 1'
_cell_length_a   6.84111963
_cell_length_b   6.84111963
_cell_length_c   6.84112069
_cell_angle_alpha   89.14999698
_cell_angle_beta   89.14999698
_cell_angle_gamma   89.14999581
_symmetry_Int_Tables_number   1
_chemical_formula_structural   Pu(Mo3Se4)2
_chemical_formula_sum   'Pu1 Mo6 Se8'
_cell_volume   320.06606435
_cell_formula_units_Z   1
loop_
 _symmetry_equiv_pos_site_id
 _symmetry_equiv_pos_as_xyz
  1  'x, y, z'
loop_
 _atom_site_type_symbol
 _atom_site_label
 _atom_site_symmetry_multiplicity
 _atom_site_fract_x
 _atom_site_fract_y
 _atom_site_fract_z
 _atom_site_occupancy
  Pu  Pu0  1  0.00000000  0.00000000  0.00000000  1
  Mo  Mo0  1  0.42261300  0.23611700  0.55999400  1
  Mo  Mo1  1  0.23611700  0.55999400  0.42261300  1
  Mo  Mo2  1  0.55999400  0.42261300  0.23611700  1
  Mo  Mo3  1  0.57738700  0.76388300  0.44000600  1
  Mo  Mo4  1  0.76388300  0.44000600  0.57738700  1
  Mo  Mo5  1  0.44000600  0.57738700  0.76388300  1
  Se  Se0  1  0.23956900  0.23956900  0.23956900  1
  Se  Se1  1  0.76043100  0.76043100  0.76043100  1
  Se  Se2  1  0.37480500  0.75169300  0.12209500  1
  Se  Se3  1  0.75169300  0.12209500  0.37480500  1
  Se  Se4  1  0.12209500  0.37480500  0.75169300  1
  Se  Se5  1  0.62519500  0.24830700  0.87790500  1
  Se  Se6  1  0.24830700  0.87790500  0.62519500  1
  Se  Se7  1  0.87790500  0.62519500  0.24830700  1
loop_
_geom_bond_atom_site_label_1
_geom_bond_atom_site_label_2
_geom_bond_distance
_geom_bond_site_symmetry_2
Pu0 Se0 2.880497 1_555
Pu0 Se1 2.880497 1_444
Pu0 Se2 3.170173 1_545
Pu0 Se5 3.170173 1_454
Pu0 Se4 3.170173 1_554
Pu0 Se7 3.170173 1_445
Pu0 Se3 3.170173 1_455
Pu0 Se6 3.170173 1_544
Mo0 Se0 2.540238 1_555
Mo0 Se4 2.597256 1_555
Mo0 Se5 2.599216 1_555
Mo0 Se3 2.678495 1_555
Mo0 Se6 2.768516 1_545
Mo1 Se0 2.540238 1_555
Mo1 Se2 2.597257 1_555
Mo1 Se6 2.599216 1_555
Mo1 Se4 2.678495 1_555
Mo1 Se7 2.768516 1_455
Mo2 Se0 2.540238 1_555
Mo2 Se3 2.597256 1_555
Mo2 Se7 2.599216 1_555
Mo2 Se2 2.678495 1_555
Mo2 Se5 2.768516 1_554
Mo3 Se1 2.540238 1_555
Mo3 Se7 2.597256 1_555
Mo3 Se2 2.599216 1_555
Mo3 Se6 2.678495 1_555
Mo3 Se3 2.768516 1_565
Mo4 Se1 2.540238 1_555
Mo4 Se5 2.597257 1_555
Mo4 Se3 2.599216 1_555
Mo4 Se7 2.678495 1_555
Mo4 Se4 2.768516 1_655
Mo5 Se1 2.540238 1_555
Mo5 Se6 2.597256 1_555
Mo5 Se4 2.599216 1_555
Mo5 Se5 2.678495 1_555
Mo5 Se2 2.768516 1_556
