# generated using pymatgen
data_NaCeV4O12
_symmetry_space_group_name_H-M   'P 1'
_cell_length_a   5.28627848
_cell_length_b   5.28627848
_cell_length_c   7.51070177
_cell_angle_alpha   90.00000000
_cell_angle_beta   90.00000000
_cell_angle_gamma   92.34986771
_symmetry_Int_Tables_number   1
_chemical_formula_structural   NaCeV4O12
_chemical_formula_sum   'Na1 Ce1 V4 O12'
_cell_volume   209.70811456
_cell_formula_units_Z   1
loop_
 _symmetry_equiv_pos_site_id
 _symmetry_equiv_pos_as_xyz
  1  'x, y, z'
loop_
 _atom_site_type_symbol
 _atom_site_label
 _atom_site_symmetry_multiplicity
 _atom_site_fract_x
 _atom_site_fract_y
 _atom_site_fract_z
 _atom_site_occupancy
  Na  Na0  1  0.00770850  0.99229150  0.50000000  1
  Ce  Ce0  1  0.49383183  0.50616817  0.00000000  1
  V  V0  1  0.49315920  0.01470514  0.25705048  1
  V  V1  1  0.49315920  0.01470514  0.74294952  1
  V  V2  1  0.98529486  0.50684080  0.74294952  1
  V  V3  1  0.98529486  0.50684080  0.25705048  1
  O  O0  1  0.29552871  0.28790699  0.24322745  1
  O  O1  1  0.71209301  0.70447129  0.24322745  1
  O  O2  1  0.71209301  0.70447129  0.75677255  1
  O  O3  1  0.29552871  0.28790699  0.75677255  1
  O  O4  1  0.23211992  0.76788008  0.20546171  1
  O  O5  1  0.78960766  0.21039234  0.28783967  1
  O  O6  1  0.78960766  0.21039234  0.71216033  1
  O  O7  1  0.23211992  0.76788008  0.79453829  1
  O  O8  1  0.54508213  0.05058867  0.00000000  1
  O  O9  1  0.45332555  0.97326606  0.50000000  1
  O  O10  1  0.94941133  0.45491787  -0.00000000  1
  O  O11  1  0.02673394  0.54667445  0.50000000  1
loop_
_geom_bond_atom_site_label_1
_geom_bond_atom_site_label_2
_geom_bond_distance
_geom_bond_site_symmetry_2
Na0 O5 2.303630 1_465
Na0 O6 2.303630 1_465
Na0 O11 2.361918 1_555
Na0 O9 2.361918 1_555
Ce0 O1 2.380794 1_555
Ce0 O2 2.380794 1_554
Ce0 O0 2.380794 1_555
Ce0 O3 2.380794 1_554
Ce0 O10 2.434525 1_555
Ce0 O8 2.434525 1_555
Ce0 O7 2.523162 1_554
Ce0 O4 2.523162 1_555
O0 V0 1.819819 1_555
O0 V3 2.048271 1_455
O1 V3 1.819819 1_555
O1 V0 2.048271 1_565
O2 V2 1.819819 1_555
O2 V1 2.048271 1_565
O3 V1 1.819819 1_555
O3 V2 2.048271 1_455
O4 V0 1.899776 1_565
O4 V3 1.899776 1_455
O5 V3 1.856468 1_555
O5 V0 1.856468 1_555
O6 V2 1.856468 1_555
O6 V1 1.856468 1_555
O7 V1 1.899776 1_565
O7 V2 1.899776 1_455
O8 V1 1.958158 1_554
O8 V0 1.958158 1_555
O9 V0 1.848825 1_565
O9 V1 1.848825 1_565
O10 V2 1.958158 1_554
O10 V3 1.958158 1_555
O11 V3 1.848825 1_455
O11 V2 1.848825 1_455
