# generated using pymatgen
data_Ca8Mn7CrO21
_symmetry_space_group_name_H-M   'P 1'
_cell_length_a   7.77913450
_cell_length_b   7.74899700
_cell_length_c   7.68646138
_cell_angle_alpha   90.00000000
_cell_angle_beta   90.09102797
_cell_angle_gamma   90.00000000
_symmetry_Int_Tables_number   1
_chemical_formula_structural   Ca8Mn7CrO21
_chemical_formula_sum   'Ca8 Mn7 Cr1 O21'
_cell_volume   463.34307287
_cell_formula_units_Z   1
loop_
 _symmetry_equiv_pos_site_id
 _symmetry_equiv_pos_as_xyz
  1  'x, y, z'
loop_
 _atom_site_type_symbol
 _atom_site_label
 _atom_site_symmetry_multiplicity
 _atom_site_fract_x
 _atom_site_fract_y
 _atom_site_fract_z
 _atom_site_occupancy
  Ca  Ca0  1  0.23506100  0.26268900  0.24514800  1
  Ca  Ca1  1  0.26932600  0.26726500  0.70132300  1
  Ca  Ca2  1  0.23506100  0.73731100  0.24514800  1
  Ca  Ca3  1  0.26932600  0.73273500  0.70132300  1
  Ca  Ca4  1  0.73860400  0.25803500  0.26010700  1
  Ca  Ca5  1  0.75494500  0.24595300  0.72352100  1
  Ca  Ca6  1  0.73860400  0.74196500  0.26010700  1
  Ca  Ca7  1  0.75494500  0.75404700  0.72352100  1
  Mn  Mn0  1  0.00740200  0.00000000  0.50343800  1
  Mn  Mn1  1  0.99127500  0.50000000  0.00930300  1
  Mn  Mn2  1  0.00195600  0.50000000  0.49785700  1
  Mn  Mn3  1  0.49470300  0.00000000  0.99845000  1
  Mn  Mn4  1  0.51042200  0.00000000  0.48095300  1
  Mn  Mn5  1  0.49931000  0.50000000  0.99205500  1
  Mn  Mn6  1  0.50533600  0.50000000  0.49772100  1
  Cr  Cr0  1  0.01494300  0.00000000  0.99025000  1
  O  O0  1  0.95962600  0.00000000  0.76529900  1
  O  O1  1  0.01322200  0.50000000  0.25485100  1
  O  O2  1  0.00383200  0.50000000  0.75728200  1
  O  O3  1  0.56372300  0.00000000  0.23222900  1
  O  O4  1  0.52653500  0.00000000  0.74741100  1
  O  O5  1  0.49280500  0.50000000  0.74644000  1
  O  O6  1  0.23699800  0.00000000  0.04817200  1
  O  O7  1  0.25637400  0.00000000  0.48337300  1
  O  O8  1  0.25229000  0.50000000  0.03033300  1
  O  O9  1  0.25941900  0.50000000  0.48670900  1
  O  O10  1  0.76226900  0.00000000  0.48392800  1
  O  O11  1  0.73750000  0.50000000  0.04196100  1
  O  O12  1  0.74891700  0.50000000  0.48926500  1
  O  O13  1  0.94645200  0.20720200  0.06207900  1
  O  O14  1  0.01176600  0.24845500  0.49854100  1
  O  O15  1  0.94645200  0.79279800  0.06207900  1
  O  O16  1  0.01176600  0.75154500  0.49854100  1
  O  O17  1  0.50085400  0.25363500  0.01797500  1
  O  O18  1  0.49856500  0.25543100  0.47266600  1
  O  O19  1  0.50085400  0.74636500  0.01797500  1
  O  O20  1  0.49856500  0.74456900  0.47266600  1
loop_
_geom_bond_atom_site_label_1
_geom_bond_atom_site_label_2
_geom_bond_distance
_geom_bond_site_symmetry_2
Ca0 O8 2.475208 1_555
Ca0 O1 2.523034 1_555
Ca0 O6 2.536969 1_555
Ca0 O14 2.614144 1_555
Ca0 O9 2.619912 1_555
Ca0 O13 2.682446 1_455
Ca0 O18 2.692939 1_555
Ca0 O17 2.709352 1_555
Ca0 O7 2.742818 1_555
Ca1 O9 2.445254 1_555
Ca1 O18 2.507486 1_555
Ca1 O5 2.528461 1_555
Ca1 O14 2.540705 1_555
Ca1 O7 2.665580 1_555
Ca1 O2 2.775938 1_555
Ca1 O4 2.901015 1_555
Ca2 O8 2.475208 1_555
Ca2 O1 2.523034 1_555
Ca2 O6 2.536969 1_565
Ca2 O16 2.614144 1_555
Ca2 O9 2.619912 1_555
Ca2 O15 2.682446 1_455
Ca2 O20 2.692939 1_555
Ca2 O19 2.709352 1_555
Ca2 O7 2.742818 1_565
Ca3 O9 2.445254 1_555
Ca3 O20 2.507486 1_555
Ca3 O5 2.528461 1_555
Ca3 O16 2.540705 1_555
Ca3 O7 2.665580 1_565
Ca3 O2 2.775938 1_555
Ca3 O4 2.901015 1_565
Ca4 O13 2.257026 1_555
Ca4 O3 2.427713 1_555
Ca4 O18 2.483200 1_555
Ca4 O11 2.515385 1_555
Ca4 O12 2.573740 1_555
Ca4 O17 2.621959 1_555
Ca4 O10 2.643990 1_555
Ca4 O14 2.804897 1_655
Ca4 O1 2.842748 1_655
Ca5 O0 2.503825 1_555
Ca5 O4 2.612337 1_555
Ca5 O14 2.644469 1_655
Ca5 O10 2.650956 1_555
Ca5 O12 2.668242 1_555
Ca5 O18 2.772863 1_555
Ca5 O2 2.773040 1_655
Ca5 O5 2.840075 1_555
Ca5 O17 3.007874 1_556
Ca5 O13 3.011522 1_556
Ca6 O15 2.257026 1_555
Ca6 O3 2.427713 1_565
Ca6 O20 2.483200 1_555
Ca6 O11 2.515385 1_555
Ca6 O12 2.573740 1_555
Ca6 O19 2.621959 1_555
Ca6 O10 2.643990 1_565
Ca6 O16 2.804897 1_655
Ca6 O1 2.842748 1_655
Ca7 O0 2.503825 1_565
Ca7 O4 2.612337 1_565
Ca7 O16 2.644469 1_655
Ca7 O10 2.650956 1_565
Ca7 O12 2.668242 1_555
Ca7 O20 2.772863 1_555
Ca7 O2 2.773040 1_655
Ca7 O5 2.840075 1_555
Ca7 O19 3.007874 1_556
Ca7 O15 3.011522 1_556
Mn0 O10 1.912573 1_455
Mn0 O14 1.925945 1_555
Mn0 O16 1.925945 1_545
Mn0 O7 1.943162 1_555
Mn0 O0 2.047390 1_455
Mn1 O1 1.894831 1_655
Mn1 O2 1.939766 1_654
Mn1 O11 1.990441 1_555
Mn1 O8 2.036639 1_655
Mn1 O15 2.331192 1_555
Mn1 O13 2.331192 1_555
Mn2 O1 1.870050 1_555
Mn2 O16 1.950721 1_555
Mn2 O14 1.950721 1_555
Mn2 O12 1.969427 1_455
Mn2 O2 1.994090 1_555
Mn2 O9 2.004808 1_555
Mn3 O3 1.874615 1_556
Mn3 O4 1.945816 1_555
Mn3 O17 1.971713 1_556
Mn3 O19 1.971713 1_546
Mn3 O6 2.041424 1_556
Mn4 O3 1.956898 1_555
Mn4 O10 1.959249 1_555
Mn4 O7 1.976391 1_555
Mn4 O18 1.982501 1_555
Mn4 O20 1.982501 1_545
Mn4 O4 2.051752 1_555
Mn5 O5 1.888508 1_555
Mn5 O11 1.891606 1_556
Mn5 O19 1.919485 1_556
Mn5 O17 1.919485 1_556
Mn5 O8 1.944458 1_556
Mn6 O12 1.896067 1_555
Mn6 O20 1.905644 1_555
Mn6 O18 1.905644 1_555
Mn6 O5 1.914407 1_555
Mn6 O9 1.914759 1_555
Cr0 O15 1.779779 1_446
Cr0 O13 1.779779 1_456
Cr0 O0 1.781156 1_455
Cr0 O6 1.783163 1_556
