# generated using pymatgen
data_CaCd3O4
_symmetry_space_group_name_H-M   'P 1'
_cell_length_a   3.36011279
_cell_length_b   3.36011279
_cell_length_c   9.43525753
_cell_angle_alpha   90.00000000
_cell_angle_beta   90.00000000
_cell_angle_gamma   90.00000000
_symmetry_Int_Tables_number   1
_chemical_formula_structural   CaCd3O4
_chemical_formula_sum   'Ca1 Cd3 O4'
_cell_volume   106.52743497
_cell_formula_units_Z   1
loop_
 _symmetry_equiv_pos_site_id
 _symmetry_equiv_pos_as_xyz
  1  'x, y, z'
loop_
 _atom_site_type_symbol
 _atom_site_label
 _atom_site_symmetry_multiplicity
 _atom_site_fract_x
 _atom_site_fract_y
 _atom_site_fract_z
 _atom_site_occupancy
  Ca  Ca0  1  -0.00000000  -0.00000000  0.00000000  1
  Cd  Cd0  1  0.50000000  0.50000000  0.74753395  1
  Cd  Cd1  1  -0.00000000  -0.00000000  0.50000000  1
  Cd  Cd2  1  0.50000000  0.50000000  0.25246605  1
  O  O0  1  -0.00000000  -0.00000000  0.25169977  1
  O  O1  1  0.50000000  0.50000000  0.00000000  1
  O  O2  1  -0.00000000  -0.00000000  0.74830023  1
  O  O3  1  0.50000000  0.50000000  0.50000000  1
loop_
_geom_bond_atom_site_label_1
_geom_bond_atom_site_label_2
_geom_bond_distance
_geom_bond_site_symmetry_2
Ca0 O2 2.374852 1_554
Ca0 O0 2.374852 1_555
Ca0 O1 2.375959 1_445
Ca0 O1 2.375959 1_545
Ca0 O1 2.375959 1_455
Ca0 O1 2.375959 1_555
Cd0 O3 2.335547 1_555
Cd0 O2 2.375970 1_555
Cd0 O2 2.375970 1_565
Cd0 O2 2.375970 1_665
Cd0 O2 2.375970 1_655
Cd0 O1 2.382082 1_556
Cd1 O2 2.342777 1_555
Cd1 O0 2.342777 1_555
Cd1 O3 2.375959 1_545
Cd1 O3 2.375959 1_455
Cd1 O3 2.375959 1_555
Cd1 O3 2.375959 1_445
Cd2 O3 2.335547 1_555
Cd2 O0 2.375970 1_555
Cd2 O0 2.375970 1_655
Cd2 O0 2.375970 1_665
Cd2 O0 2.375970 1_565
Cd2 O1 2.382082 1_555
