# generated using pymatgen
data_VPb2N3
_symmetry_space_group_name_H-M   'P 1'
_cell_length_a   6.27209838
_cell_length_b   11.14500616
_cell_length_c   12.73521600
_cell_angle_alpha   90.00000000
_cell_angle_beta   90.00000000
_cell_angle_gamma   27.31975062
_symmetry_Int_Tables_number   1
_chemical_formula_structural   VPb2N3
_chemical_formula_sum   'V4 Pb8 N12'
_cell_volume   408.57368852
_cell_formula_units_Z   4
loop_
 _symmetry_equiv_pos_site_id
 _symmetry_equiv_pos_as_xyz
  1  'x, y, z'
loop_
 _atom_site_type_symbol
 _atom_site_label
 _atom_site_symmetry_multiplicity
 _atom_site_fract_x
 _atom_site_fract_y
 _atom_site_fract_z
 _atom_site_occupancy
  V  V0  1  0.00000000  0.25579500  0.83684400  1
  V  V1  1  0.00000000  0.74420500  0.16315600  1
  V  V2  1  0.00000000  0.24420500  0.33684400  1
  V  V3  1  0.00000000  0.75579500  0.66315600  1
  Pb  Pb0  1  0.00000000  0.43350600  0.62588800  1
  Pb  Pb1  1  0.00000000  0.56649400  0.37411200  1
  Pb  Pb2  1  0.00000000  0.06649400  0.12588800  1
  Pb  Pb3  1  0.00000000  0.93350600  0.87411200  1
  Pb  Pb4  1  0.00000000  0.13257400  0.57628100  1
  Pb  Pb5  1  0.00000000  0.86742600  0.42371900  1
  Pb  Pb6  1  0.00000000  0.36742600  0.07628100  1
  Pb  Pb7  1  0.00000000  0.63257400  0.92371900  1
  N  N0  1  0.00000000  0.14772100  0.94562500  1
  N  N1  1  0.00000000  0.85227900  0.05437500  1
  N  N2  1  0.00000000  0.35227900  0.44562500  1
  N  N3  1  0.00000000  0.64772100  0.55437500  1
  N  N4  1  0.00000000  0.40735700  0.88866500  1
  N  N5  1  0.00000000  0.59264300  0.11133500  1
  N  N6  1  0.00000000  0.09264300  0.38866500  1
  N  N7  1  0.00000000  0.90735700  0.61133500  1
  N  N8  1  0.50000000  0.48547900  0.75000000  1
  N  N9  1  0.50000000  0.01452100  0.25000000  1
  N  N10  1  0.50000000  0.51452100  0.25000000  1
  N  N11  1  0.50000000  0.98547900  0.75000000  1
loop_
_geom_bond_atom_site_label_1
_geom_bond_atom_site_label_2
_geom_bond_distance
_geom_bond_site_symmetry_2
N0 V0 1.835750 1_555
N0 Pb2 2.467733 1_556
N0 Pb3 2.555239 1_545
N1 V1 1.835750 1_555
N1 Pb3 2.467733 1_554
N1 Pb2 2.555239 1_565
N2 V2 1.835750 1_555
N2 Pb0 2.467733 1_555
N2 Pb1 2.555239 1_555
N3 V3 1.835750 1_555
N3 Pb1 2.467733 1_555
N3 Pb0 2.555239 1_555
N4 V0 1.813504 1_555
N4 Pb6 2.430422 1_556
N4 Pb7 2.549434 1_555
N5 V1 1.813504 1_555
N5 Pb7 2.430422 1_554
N5 Pb6 2.549434 1_555
N6 V2 1.813504 1_555
N6 Pb4 2.430422 1_555
N6 Pb5 2.549434 1_545
N7 V3 1.813504 1_555
N7 Pb5 2.430422 1_555
N7 Pb4 2.549434 1_565
N8 V0 1.829224 1_655
N8 V3 1.829224 1_555
N9 V2 1.829224 1_555
N9 V1 1.829224 1_645
N10 V1 1.829224 1_555
N10 V2 1.829224 1_655
N11 V3 1.829224 1_655
N11 V0 1.829224 1_565
