# generated using pymatgen
data_K8TeP8(H5O16)2
_symmetry_space_group_name_H-M   'P 1'
_cell_length_a   7.61752200
_cell_length_b   10.83141132
_cell_length_c   11.56734699
_cell_angle_alpha   66.93870948
_cell_angle_beta   79.73819977
_cell_angle_gamma   71.23016804
_symmetry_Int_Tables_number   1
_chemical_formula_structural   K8TeP8(H5O16)2
_chemical_formula_sum   'K8 Te1 P8 H10 O32'
_cell_volume   829.94589547
_cell_formula_units_Z   1
loop_
 _symmetry_equiv_pos_site_id
 _symmetry_equiv_pos_as_xyz
  1  'x, y, z'
loop_
 _atom_site_type_symbol
 _atom_site_label
 _atom_site_symmetry_multiplicity
 _atom_site_fract_x
 _atom_site_fract_y
 _atom_site_fract_z
 _atom_site_occupancy
  K  K0  1  0.25788500  0.10816500  0.55952000  1
  K  K1  1  0.74211500  0.89183500  0.44048000  1
  K  K2  1  0.07883300  0.61778000  0.02366000  1
  K  K3  1  0.92116700  0.38222000  0.97634000  1
  K  K4  1  0.83889000  0.41285200  0.64213500  1
  K  K5  1  0.16111000  0.58714800  0.35786500  1
  K  K6  1  0.37149100  0.08484300  0.15113900  1
  K  K7  1  0.62850900  0.91515700  0.84886100  1
  Te  Te0  1  0.00000000  0.00000000  0.00000000  1
  P  P0  1  0.43509000  0.71726800  0.71961000  1
  P  P1  1  0.56491000  0.28273200  0.28039000  1
  P  P2  1  0.43091000  0.41947800  0.86280500  1
  P  P3  1  0.56909000  0.58052200  0.13719500  1
  P  P4  1  0.36995900  0.31861500  0.67183900  1
  P  P5  1  0.63004100  0.68138500  0.32816100  1
  P  P6  1  0.70968700  0.19460600  0.53330000  1
  P  P7  1  0.29031300  0.80539400  0.46670000  1
  H  H0  1  0.17598500  0.15717000  0.83678200  1
  H  H1  1  0.82401500  0.84283000  0.16321800  1
  H  H2  1  0.30111700  0.82642600  0.06336500  1
  H  H3  1  0.69888300  0.17357400  0.93663500  1
  H  H4  1  0.14374800  0.88850900  0.83847700  1
  H  H5  1  0.85625200  0.11149100  0.16152300  1
  H  H6  1  0.83586800  0.65705000  0.74426900  1
  H  H7  1  0.16413200  0.34295000  0.25573100  1
  H  H8  1  0.96023800  0.32874900  0.28126300  1
  H  H9  1  0.03976200  0.67125100  0.71873700  1
  O  O0  1  0.96057100  0.83462100  0.13956400  1
  O  O1  1  0.03942900  0.16537900  0.86043600  1
  O  O2  1  0.26632800  0.93142200  0.02227200  1
  O  O3  1  0.73367200  0.06857800  0.97772800  1
  O  O4  1  0.01999000  0.90009900  0.88622300  1
  O  O5  1  0.98001000  0.09990100  0.11377700  1
  O  O6  1  0.63542100  0.68017500  0.67302900  1
  O  O7  1  0.36457900  0.31982500  0.32697100  1
  O  O8  1  0.63975800  0.15760400  0.24107600  1
  O  O9  1  0.36024200  0.84239600  0.75892400  1
  O  O10  1  0.61343300  0.41407300  0.16251100  1
  O  O11  1  0.38656700  0.58592700  0.83748900  1
  O  O12  1  0.29916000  0.72906600  0.61973800  1
  O  O13  1  0.70084000  0.27093400  0.38026200  1
  O  O14  1  0.29486200  0.36679800  0.96619800  1
  O  O15  1  0.70513800  0.63320200  0.03380200  1
  O  O16  1  0.63631500  0.35074200  0.87592500  1
  O  O17  1  0.36368500  0.64925800  0.12407500  1
  O  O18  1  0.62096200  0.56735900  0.27293500  1
  O  O19  1  0.37903800  0.43264100  0.72706500  1
  O  O20  1  0.38369400  0.17859700  0.77584600  1
  O  O21  1  0.61630600  0.82140300  0.22415400  1
  O  O22  1  0.79299600  0.61787100  0.40864500  1
  O  O23  1  0.20700400  0.38212900  0.59135500  1
  O  O24  1  0.43891100  0.68487000  0.41809000  1
  O  O25  1  0.56108900  0.31513000  0.58191000  1
  O  O26  1  0.64171100  0.06706400  0.57623800  1
  O  O27  1  0.35828900  0.93293600  0.42376200  1
  O  O28  1  0.10367600  0.81024000  0.43954000  1
  O  O29  1  0.89632400  0.18976000  0.56046000  1
  O  O30  1  0.04902900  0.36386900  0.21423600  1
  O  O31  1  0.95097100  0.63613100  0.78576400  1
loop_
_geom_bond_atom_site_label_1
_geom_bond_atom_site_label_2
_geom_bond_distance
_geom_bond_site_symmetry_2
K0 O29 2.607149 1_455
K0 O27 2.761564 1_545
K0 O26 2.842635 1_555
K0 O9 2.865202 1_545
K0 O7 2.956545 1_555
K0 O23 3.025967 1_555
K1 O28 2.607149 1_655
K1 O26 2.761564 1_565
K1 O27 2.842635 1_555
K1 O8 2.865202 1_565
K1 O6 2.956545 1_555
K1 O22 3.025967 1_555
K2 O4 2.764488 1_554
K2 O15 2.781246 1_455
K2 O17 2.803227 1_555
K2 O30 2.819330 1_555
K2 O11 2.918001 1_554
K2 O14 2.947373 1_554
K2 O0 2.966546 1_455
K2 O31 2.993754 1_454
K3 O5 2.764488 1_556
K3 O14 2.781246 1_655
K3 O16 2.803227 1_555
K3 O31 2.819330 1_555
K3 O10 2.918001 1_556
K3 O15 2.947373 1_556
K3 O1 2.966546 1_655
K3 O30 2.993754 1_656
K4 O23 2.699002 1_655
K4 O22 2.736092 1_555
K4 O29 2.807827 1_555
K4 O16 2.811247 1_555
K4 O25 2.937371 1_555
K4 O6 2.939230 1_555
K4 O1 3.054756 1_655
K5 O22 2.699002 1_455
K5 O23 2.736092 1_555
K5 O28 2.807827 1_555
K5 O17 2.811247 1_555
K5 O24 2.937371 1_555
K5 O7 2.939230 1_555
K5 O0 3.054756 1_455
K6 O21 2.753517 1_545
K6 O8 2.883682 1_555
K6 O14 2.902292 1_554
K6 O27 2.930966 1_545
K6 O2 2.974562 1_545
K6 O5 3.032715 1_455
K6 O3 3.107835 1_554
K7 O20 2.753517 1_565
K7 O9 2.883682 1_555
K7 O15 2.902292 1_556
K7 O26 2.930966 1_565
K7 O3 2.974562 1_565
K7 O4 3.032715 1_655
K7 O2 3.107835 1_556
H0 O1 1.011413 1_555
H0 O20 1.662811 1_555
H1 O0 1.011413 1_555
H1 O21 1.662811 1_555
H2 O2 1.008439 1_555
H2 O17 1.696382 1_555
H3 O3 1.008439 1_555
H3 O16 1.696382 1_555
H4 O4 1.001087 1_555
H5 O5 1.001087 1_555
H6 O31 0.993679 1_555
H7 O30 0.993679 1_555
H8 O30 0.975181 1_655
H9 O31 0.975181 1_455
O0 Te0 1.952712 1_665
O1 Te0 1.952712 1_556
O2 Te0 1.949489 1_565
O3 Te0 1.949489 1_656
O4 Te0 1.965814 1_566
O5 Te0 1.965814 1_655
O6 P0 1.504187 1_555
O7 P1 1.504187 1_555
O8 P1 1.503978 1_555
O9 P0 1.503978 1_555
O10 P1 1.630590 1_555
O10 P3 1.637054 1_555
O11 P0 1.630590 1_555
O11 P2 1.637054 1_555
O12 P0 1.627418 1_555
O12 P7 1.637644 1_555
O13 P1 1.627418 1_555
O13 P6 1.637644 1_555
O14 P2 1.494751 1_555
O15 P3 1.494751 1_555
O16 P2 1.507303 1_555
O17 P3 1.507303 1_555
O18 P5 1.620825 1_555
O18 P3 1.628267 1_555
O19 P4 1.620825 1_555
O19 P2 1.628267 1_555
O20 P4 1.507218 1_555
O21 P5 1.507218 1_555
O22 P5 1.497097 1_555
O23 P4 1.497097 1_555
O24 P5 1.630662 1_555
O24 P7 1.642866 1_555
O25 P4 1.630662 1_555
O25 P6 1.642866 1_555
O26 P6 1.501469 1_555
O27 P7 1.501469 1_555
O28 P7 1.490275 1_555
O29 P6 1.490275 1_555
