# generated using pymatgen
data_Y(CrFe2)4
_symmetry_space_group_name_H-M   'P 1'
_cell_length_a   4.71345400
_cell_length_b   6.34102566
_cell_length_c   6.34102566
_cell_angle_alpha   82.06013617
_cell_angle_beta   68.18176141
_cell_angle_gamma   68.18176141
_symmetry_Int_Tables_number   1
_chemical_formula_structural   Y(CrFe2)4
_chemical_formula_sum   'Y1 Cr4 Fe8'
_cell_volume   163.34212872
_cell_formula_units_Z   1
loop_
 _symmetry_equiv_pos_site_id
 _symmetry_equiv_pos_as_xyz
  1  'x, y, z'
loop_
 _atom_site_type_symbol
 _atom_site_label
 _atom_site_symmetry_multiplicity
 _atom_site_fract_x
 _atom_site_fract_y
 _atom_site_fract_z
 _atom_site_occupancy
  Y  Y0  1  0.00000000  0.00000000  0.00000000  1
  Cr  Cr0  1  0.00000000  0.36808500  0.63191500  1
  Cr  Cr1  1  0.00000000  0.63191500  0.36808500  1
  Cr  Cr2  1  0.63191500  0.36808500  0.36808500  1
  Cr  Cr3  1  0.36808500  0.63191500  0.63191500  1
  Fe  Fe0  1  0.72700600  0.77299400  0.77299400  1
  Fe  Fe1  1  0.27299400  0.22700600  0.22700600  1
  Fe  Fe2  1  0.50000000  0.22700600  0.77299400  1
  Fe  Fe3  1  0.50000000  0.77299400  0.22700600  1
  Fe  Fe4  1  0.00000000  0.00000000  0.50000000  1
  Fe  Fe5  1  0.50000000  0.00000000  0.50000000  1
  Fe  Fe6  1  0.50000000  0.50000000  0.00000000  1
  Fe  Fe7  1  0.00000000  0.50000000  0.00000000  1
loop_
_geom_bond_atom_site_label_1
_geom_bond_atom_site_label_2
_geom_bond_distance
_geom_bond_site_symmetry_2
Cr0 Cr1 2.196436 1_555
Cr0 Fe0 2.524159 1_455
Cr0 Fe1 2.524159 1_555
Cr0 Fe6 2.585884 1_456
Cr0 Fe7 2.585884 1_556
Cr0 Fe4 2.585884 1_555
Cr0 Fe5 2.585884 1_555
Cr0 Fe2 2.633180 1_555
Cr0 Fe2 2.633180 1_455
Cr0 Cr3 2.822469 1_555
Cr0 Cr2 2.822469 1_455
Cr0 Cr3 2.822469 1_455
Cr0 Cr2 2.822469 1_555
Cr0 Y0 3.064380 1_556
Cr1 Fe0 2.524159 1_455
Cr1 Fe1 2.524159 1_555
Cr1 Fe4 2.585884 1_565
Cr1 Fe6 2.585884 1_555
Cr1 Fe7 2.585884 1_555
Cr1 Fe5 2.585884 1_465
Cr1 Fe3 2.633180 1_555
Cr1 Fe3 2.633180 1_455
Cr1 Cr3 2.822469 1_555
Cr1 Cr2 2.822469 1_455
Cr1 Cr3 2.822469 1_455
Cr1 Cr2 2.822469 1_555
Cr1 Y0 3.064380 1_565
Cr2 Cr3 2.196436 1_555
Cr2 Fe3 2.524159 1_555
Cr2 Fe2 2.524159 1_555
Cr2 Fe6 2.585884 1_555
Cr2 Fe5 2.585884 1_555
Cr2 Fe7 2.585884 1_655
Cr2 Fe4 2.585884 1_655
Cr2 Fe1 2.633180 1_655
Cr2 Fe1 2.633180 1_555
Cr2 Y0 3.064380 1_655
Cr3 Fe3 2.524159 1_555
Cr3 Fe2 2.524159 1_555
Cr3 Fe7 2.585884 1_556
Cr3 Fe6 2.585884 1_556
Cr3 Fe4 2.585884 1_565
Cr3 Fe5 2.585884 1_565
Cr3 Fe0 2.633180 1_555
Cr3 Fe0 2.633180 1_455
Cr3 Y0 3.064380 1_566
Fe0 Fe5 2.399373 1_565
Fe0 Fe6 2.399373 1_556
Fe0 Fe4 2.399373 1_665
Fe0 Fe7 2.399373 1_656
Fe0 Fe2 2.672679 1_565
Fe0 Fe3 2.672679 1_556
Fe0 Y0 3.020889 1_566
Fe0 Y0 3.020889 1_666
Fe1 Fe7 2.399373 1_555
Fe1 Fe4 2.399373 1_555
Fe1 Fe5 2.399373 1_555
Fe1 Fe6 2.399373 1_555
Fe1 Fe2 2.672679 1_554
Fe1 Fe3 2.672679 1_545
Fe1 Y0 3.020889 1_555
Fe1 Y0 3.020889 1_655
Fe2 Fe5 2.399373 1_555
Fe2 Fe4 2.399373 1_655
Fe2 Fe7 2.399373 1_556
Fe2 Fe6 2.399373 1_556
Fe2 Y0 3.020889 1_556
Fe2 Y0 3.020889 1_656
Fe3 Fe6 2.399373 1_555
Fe3 Fe7 2.399373 1_655
Fe3 Fe4 2.399373 1_565
Fe3 Fe5 2.399373 1_565
Fe3 Y0 3.020889 1_565
Fe3 Y0 3.020889 1_665
Fe4 Fe5 2.356727 1_455
Fe4 Fe5 2.356727 1_555
Fe4 Y0 3.170513 1_556
Fe4 Y0 3.170513 1_555
Fe5 Y0 3.170513 1_556
Fe5 Y0 3.170513 1_655
Fe6 Fe7 2.356727 1_555
Fe6 Fe7 2.356727 1_655
Fe6 Y0 3.170513 1_565
Fe6 Y0 3.170513 1_655
Fe7 Y0 3.170513 1_555
Fe7 Y0 3.170513 1_565
