# generated using pymatgen
data_NbCr3(AgS4)2
_symmetry_space_group_name_H-M   'P 1'
_cell_length_a   6.94068576
_cell_length_b   13.28775968
_cell_length_c   5.99964147
_cell_angle_alpha   90.23044743
_cell_angle_beta   90.26148288
_cell_angle_gamma   90.50755295
_symmetry_Int_Tables_number   1
_chemical_formula_structural   NbCr3(AgS4)2
_chemical_formula_sum   'Nb2 Cr6 Ag4 S16'
_cell_volume   553.29188256
_cell_formula_units_Z   2
loop_
 _symmetry_equiv_pos_site_id
 _symmetry_equiv_pos_as_xyz
  1  'x, y, z'
loop_
 _atom_site_type_symbol
 _atom_site_label
 _atom_site_symmetry_multiplicity
 _atom_site_fract_x
 _atom_site_fract_y
 _atom_site_fract_z
 _atom_site_occupancy
  Nb  Nb0  1  0.01940900  0.25161000  0.99311300  1
  Nb  Nb1  1  0.23032900  0.75051700  0.49940700  1
  Cr  Cr0  1  0.00316400  0.75057200  0.00110100  1
  Cr  Cr1  1  0.49299200  0.25127500  0.00506700  1
  Cr  Cr2  1  0.49905700  0.74852700  0.00024800  1
  Cr  Cr3  1  0.24844700  0.24910300  0.50440900  1
  Cr  Cr4  1  0.75807300  0.75046600  0.50229700  1
  Cr  Cr5  1  0.75036400  0.24905000  0.50565700  1
  Ag  Ag0  1  0.98145000  0.99789500  0.34305200  1
  Ag  Ag1  1  0.51712800  0.50239500  0.63268800  1
  Ag  Ag2  1  0.98838100  0.49693900  0.02287200  1
  Ag  Ag3  1  0.51065000  0.00064400  0.95409900  1
  S  S0  1  0.25786900  0.36020700  0.82459500  1
  S  S1  1  0.74666000  0.65062100  0.83362600  1
  S  S2  1  0.74137300  0.14938000  0.16780100  1
  S  S3  1  0.24896900  0.85736300  0.16041600  1
  S  S4  1  0.24933200  0.14200000  0.17850400  1
  S  S5  1  0.75699700  0.84933900  0.16869300  1
  S  S6  1  0.73832500  0.35285300  0.83665900  1
  S  S7  1  0.24802800  0.64324100  0.83976300  1
  S  S8  1  0.00105500  0.14304400  0.65936600  1
  S  S9  1  0.99803800  0.85819600  0.67737300  1
  S  S10  1  0.50033300  0.34628600  0.34427800  1
  S  S11  1  0.50853500  0.65110700  0.33797400  1
  S  S12  1  0.00217200  0.35265400  0.34133200  1
  S  S13  1  0.99468300  0.64197700  0.32518300  1
  S  S14  1  0.49811100  0.15344700  0.67279300  1
  S  S15  1  0.51007600  0.84929300  0.66763200  1
loop_
_geom_bond_atom_site_label_1
_geom_bond_atom_site_label_2
_geom_bond_distance
_geom_bond_site_symmetry_2
Nb0 S0 2.414223 1_555
Nb0 S4 2.437855 1_556
Nb0 S8 2.465351 1_555
Nb0 S12 2.482799 1_556
Nb0 S6 2.556741 1_455
Nb0 S2 2.578984 1_456
Nb1 S13 2.403787 1_455
Nb1 S9 2.414736 1_455
Nb1 S3 2.488218 1_555
Nb1 S7 2.498213 1_555
Nb1 S15 2.537245 1_555
Nb1 S11 2.542330 1_555
Cr0 S5 2.386919 1_455
Cr0 S3 2.401906 1_555
Cr0 S9 2.416890 1_454
Cr0 S1 2.423651 1_454
Cr0 S13 2.426597 1_455
Cr0 S7 2.430271 1_554
Cr1 S14 2.376090 1_554
Cr1 S10 2.390715 1_555
Cr1 S6 2.393346 1_554
Cr1 S2 2.407285 1_555
Cr1 S0 2.443155 1_554
Cr1 S4 2.456804 1_555
Cr2 S1 2.385374 1_554
Cr2 S15 2.408744 1_554
Cr2 S11 2.409784 1_555
Cr2 S7 2.418812 1_554
Cr2 S5 2.439463 1_555
Cr2 S3 2.465023 1_555
Cr3 S10 2.373247 1_555
Cr3 S14 2.381654 1_555
Cr3 S8 2.404365 1_555
Cr3 S12 2.410299 1_555
Cr3 S4 2.413824 1_555
Cr3 S0 2.418343 1_555
Cr4 S11 2.376589 1_555
Cr4 S15 2.390889 1_555
Cr4 S1 2.395581 1_555
Cr4 S5 2.398612 1_555
Cr4 S9 2.419948 1_555
Cr4 S13 2.439219 1_555
Cr5 S10 2.377572 1_555
Cr5 S14 2.381493 1_555
Cr5 S6 2.415527 1_555
Cr5 S2 2.417123 1_555
Cr5 S8 2.429252 1_655
Cr5 S12 2.430171 1_655
Ag0 S8 2.702499 1_665
Ag0 S5 2.707738 1_555
Ag0 S9 2.741157 1_555
Ag0 S2 2.827418 1_565
Ag0 S4 2.840252 1_665
Ag0 S3 2.863355 1_655
Ag1 S11 2.657821 1_555
Ag1 S10 2.697333 1_555
Ag1 S1 2.788984 1_555
Ag1 S6 2.803485 1_555
Ag1 S0 2.847716 1_555
Ag1 S7 2.932399 1_555
Ag2 S13 2.641119 1_555
Ag2 S12 2.714135 1_655
Ag2 S6 2.798602 1_554
Ag2 S7 2.864783 1_654
Ag2 S0 2.877109 1_654
Ag2 S1 2.887205 1_554
Ag3 S15 2.640174 1_545
Ag3 S14 2.647252 1_555
Ag3 S2 2.831804 1_556
Ag3 S3 2.904127 1_546
Ag3 S5 2.947008 1_546
Ag3 S4 2.948320 1_556
