# generated using pymatgen
data_Tb2Fe4Si9
_symmetry_space_group_name_H-M   'P 1'
_cell_length_a   3.94878824
_cell_length_b   3.94878824
_cell_length_c   16.08384200
_cell_angle_alpha   90.00000000
_cell_angle_beta   90.00000000
_cell_angle_gamma   120.00000403
_symmetry_Int_Tables_number   1
_chemical_formula_structural   Tb2Fe4Si9
_chemical_formula_sum   'Tb2 Fe4 Si9'
_cell_volume   217.19413900
_cell_formula_units_Z   1
loop_
 _symmetry_equiv_pos_site_id
 _symmetry_equiv_pos_as_xyz
  1  'x, y, z'
loop_
 _atom_site_type_symbol
 _atom_site_label
 _atom_site_symmetry_multiplicity
 _atom_site_fract_x
 _atom_site_fract_y
 _atom_site_fract_z
 _atom_site_occupancy
  Tb  Tb0  1  0.33333300  0.66666700  0.24158300  1
  Tb  Tb1  1  0.66666700  0.33333300  0.75841700  1
  Fe  Fe0  1  0.33333300  0.66666700  0.58839400  1
  Fe  Fe1  1  0.66666700  0.33333300  0.41160600  1
  Fe  Fe2  1  0.66666700  0.33333300  0.10160300  1
  Fe  Fe3  1  0.33333300  0.66666700  0.89839700  1
  Si  Si0  1  0.33333300  0.66666700  0.43475600  1
  Si  Si1  1  0.66666700  0.33333300  0.56524400  1
  Si  Si2  1  0.66666700  0.33333300  0.95687100  1
  Si  Si3  1  0.33333300  0.66666700  0.04312900  1
  Si  Si4  1  0.00000000  0.00000000  0.64887700  1
  Si  Si5  1  0.00000000  0.00000000  0.35112300  1
  Si  Si6  1  0.00000000  0.00000000  0.12653800  1
  Si  Si7  1  0.00000000  0.00000000  0.87346200  1
  Si  Si8  1  0.00000000  0.00000000  0.50000000  1
loop_
_geom_bond_atom_site_label_1
_geom_bond_atom_site_label_2
_geom_bond_distance
_geom_bond_site_symmetry_2
Fe0 Si1 2.310037 1_455
Fe0 Si1 2.310037 1_565
Fe0 Si1 2.310044 1_555
Fe0 Si0 2.471089 1_555
Fe0 Si4 2.478703 1_565
Fe0 Si4 2.478706 1_665
Fe0 Si4 2.478706 1_555
Fe0 Si8 2.686802 1_565
Fe0 Si8 2.686805 1_665
Fe0 Si8 2.686805 1_555
Fe1 Si0 2.310037 1_545
Fe1 Si0 2.310037 1_655
Fe1 Si0 2.310044 1_555
Fe1 Si1 2.471089 1_555
Fe1 Si5 2.478703 1_655
Fe1 Si5 2.478706 1_665
Fe1 Si5 2.478706 1_555
Fe1 Si8 2.686802 1_655
Fe1 Si8 2.686805 1_665
Fe1 Si8 2.686805 1_555
Fe2 Si6 2.314838 1_655
Fe2 Si6 2.314841 1_555
Fe2 Si6 2.314841 1_665
Fe2 Si2 2.327847 1_554
Fe2 Si3 2.466201 1_655
Fe2 Si3 2.466201 1_545
Fe2 Si3 2.466207 1_555
Fe2 Tb0 3.204139 1_545
Fe2 Tb0 3.204139 1_655
Fe2 Tb0 3.204144 1_555
Fe3 Si7 2.314838 1_565
Fe3 Si7 2.314841 1_665
Fe3 Si7 2.314841 1_555
Fe3 Si3 2.327847 1_556
Fe3 Si2 2.466201 1_455
Fe3 Si2 2.466201 1_565
Fe3 Si2 2.466207 1_555
Fe3 Tb1 3.204139 1_455
Fe3 Tb1 3.204139 1_565
Fe3 Tb1 3.204144 1_555
Si0 Si8 2.509745 1_565
Si0 Si8 2.509748 1_665
Si0 Si8 2.509748 1_555
Si0 Si5 2.647080 1_565
Si0 Si5 2.647083 1_665
Si0 Si5 2.647083 1_555
Si0 Tb0 3.106964 1_555
Si1 Si8 2.509745 1_655
Si1 Si8 2.509748 1_555
Si1 Si8 2.509748 1_665
Si1 Si4 2.647080 1_655
Si1 Si4 2.647083 1_555
Si1 Si4 2.647083 1_665
Si1 Tb1 3.106964 1_555
Si2 Si7 2.645251 1_655
Si2 Si7 2.645254 1_555
Si2 Si7 2.645254 1_665
Si2 Si3 2.668782 1_656
Si2 Si3 2.668782 1_546
Si2 Si3 2.668788 1_556
Si2 Tb1 3.191903 1_555
Si3 Si6 2.645251 1_565
Si3 Si6 2.645254 1_665
Si3 Si6 2.645254 1_555
Si3 Tb0 3.191903 1_555
Si4 Si8 2.394514 1_555
Si4 Tb1 2.881260 1_455
Si4 Tb1 2.881262 1_555
Si4 Tb1 2.881262 1_445
Si5 Si8 2.394514 1_555
Si5 Tb0 2.881260 1_545
Si5 Tb0 2.881262 1_445
Si5 Tb0 2.881262 1_555
Si6 Tb0 2.936237 1_545
Si6 Tb0 2.936239 1_445
Si6 Tb0 2.936239 1_555
Si7 Tb1 2.936237 1_455
Si7 Tb1 2.936239 1_555
Si7 Tb1 2.936239 1_445
