# generated using pymatgen
data_NiCl
_symmetry_space_group_name_H-M   'P 1'
_cell_length_a   3.61891893
_cell_length_b   3.61891893
_cell_length_c   6.24063900
_cell_angle_alpha   90.00000000
_cell_angle_beta   90.00000000
_cell_angle_gamma   120.00001706
_symmetry_Int_Tables_number   1
_chemical_formula_structural   NiCl
_chemical_formula_sum   'Ni2 Cl2'
_cell_volume   70.78110319
_cell_formula_units_Z   2
loop_
 _symmetry_equiv_pos_site_id
 _symmetry_equiv_pos_as_xyz
  1  'x, y, z'
loop_
 _atom_site_type_symbol
 _atom_site_label
 _atom_site_symmetry_multiplicity
 _atom_site_fract_x
 _atom_site_fract_y
 _atom_site_fract_z
 _atom_site_occupancy
  Ni  Ni0  1  0.66666700  0.33333300  0.86611500  1
  Ni  Ni1  1  0.33333300  0.66666700  0.36611500  1
  Cl  Cl0  1  0.66666700  0.33333300  0.50888600  1
  Cl  Cl1  1  0.33333300  0.66666700  0.00888600  1
loop_
_geom_bond_atom_site_label_1
_geom_bond_atom_site_label_2
_geom_bond_distance
_geom_bond_site_symmetry_2
Cl0 Ni0 2.229337 1_555
Cl0 Ni1 2.271423 1_545
Cl0 Ni1 2.271423 1_655
Cl0 Ni1 2.271430 1_555
Cl1 Ni1 2.229337 1_555
Cl1 Ni0 2.271423 1_454
Cl1 Ni0 2.271423 1_564
Cl1 Ni0 2.271430 1_554
