# generated using pymatgen
data_YbAl7Fe5
_symmetry_space_group_name_H-M   'P 1'
_cell_length_a   5.01762700
_cell_length_b   6.58505686
_cell_length_c   6.58505686
_cell_angle_alpha   98.25042122
_cell_angle_beta   112.39475728
_cell_angle_gamma   67.60524272
_symmetry_Int_Tables_number   1
_chemical_formula_structural   YbAl7Fe5
_chemical_formula_sum   'Yb1 Al7 Fe5'
_cell_volume   185.99722159
_cell_formula_units_Z   1
loop_
 _symmetry_equiv_pos_site_id
 _symmetry_equiv_pos_as_xyz
  1  'x, y, z'
loop_
 _atom_site_type_symbol
 _atom_site_label
 _atom_site_symmetry_multiplicity
 _atom_site_fract_x
 _atom_site_fract_y
 _atom_site_fract_z
 _atom_site_occupancy
  Yb  Yb0  1  0.00498800  0.99501200  0.00498800  1
  Al  Al0  1  0.66337600  0.33662400  0.66337600  1
  Al  Al1  1  0.33603300  0.66396700  0.33603300  1
  Al  Al2  1  0.99168500  0.34889600  0.33226500  1
  Al  Al3  1  0.99168500  0.66773500  0.65110400  1
  Al  Al4  1  0.27279000  0.22721000  0.77279000  1
  Al  Al5  1  0.50463600  0.78383500  0.79310700  1
  Al  Al6  1  0.50463600  0.20689300  0.21616500  1
  Fe  Fe0  1  0.49524200  0.00192700  0.49836400  1
  Fe  Fe1  1  0.00119600  0.00192700  0.49836400  1
  Fe  Fe2  1  0.49524200  0.50163600  0.99807300  1
  Fe  Fe3  1  0.00119600  0.50163600  0.99807300  1
  Fe  Fe4  1  0.73729700  0.76270300  0.23729700  1
loop_
_geom_bond_atom_site_label_1
_geom_bond_atom_site_label_2
_geom_bond_distance
_geom_bond_site_symmetry_2
Al0 Fe0 2.604036 1_555
Al0 Fe2 2.604036 1_555
Al0 Fe1 2.604039 1_655
Al0 Fe3 2.604039 1_655
Al0 Al4 2.679546 1_555
Al0 Al4 2.679546 1_655
Al0 Al1 2.815807 1_555
Al0 Al5 2.836522 1_555
Al0 Al6 2.836522 1_555
Al0 Yb0 2.938549 1_646
Al1 Fe1 2.599006 1_565
Al1 Fe3 2.599006 1_554
Al1 Fe0 2.599008 1_565
Al1 Fe2 2.599008 1_554
Al1 Fe4 2.648679 1_555
Al1 Fe4 2.648680 1_455
Al1 Yb0 2.847652 1_555
Al1 Al5 2.878325 1_555
Al1 Al6 2.878325 1_555
Al2 Fe3 2.570745 1_654
Al2 Fe2 2.570746 1_554
Al2 Fe4 2.583839 1_555
Al2 Fe1 2.648272 1_655
Al2 Fe0 2.648273 1_655
Al2 Al6 2.746568 1_655
Al2 Al6 2.746573 1_555
Al2 Al3 2.747955 1_555
Al2 Al4 2.781166 1_655
Al2 Yb0 2.937567 1_645
Al3 Fe1 2.570745 1_665
Al3 Fe0 2.570746 1_565
Al3 Fe4 2.583839 1_555
Al3 Fe3 2.648272 1_655
Al3 Fe2 2.648273 1_655
Al3 Al5 2.746568 1_655
Al3 Al5 2.746573 1_555
Al3 Al4 2.781166 1_655
Al3 Yb0 2.937567 1_656
Al4 Fe3 2.493612 1_555
Al4 Fe1 2.493612 1_555
Al4 Fe2 2.493614 1_555
Al4 Fe0 2.493614 1_555
Al4 Al6 2.702046 1_556
Al4 Al5 2.702046 1_545
Al4 Yb0 3.206809 1_546
Al4 Yb0 3.206810 1_646
Al5 Fe2 2.472301 1_555
Al5 Fe3 2.472304 1_655
Al5 Fe1 2.551572 1_565
Al5 Fe0 2.551575 1_565
Al5 Fe4 2.707225 1_556
Al5 Yb0 3.101260 1_556
Al5 Yb0 3.101260 1_656
Al6 Fe0 2.472301 1_555
Al6 Fe1 2.472304 1_655
Al6 Fe3 2.551572 1_554
Al6 Fe2 2.551575 1_554
Al6 Fe4 2.707225 1_545
Al6 Yb0 3.101260 1_545
Al6 Yb0 3.101260 1_645
Fe0 Fe1 2.478939 1_555
Fe0 Fe4 2.503599 1_545
Fe0 Fe1 2.538688 1_655
Fe0 Yb0 3.249899 1_545
Fe0 Yb0 3.335698 1_646
Fe1 Fe4 2.503602 1_445
Fe1 Yb0 3.249897 1_545
Fe1 Yb0 3.335699 1_546
Fe2 Fe3 2.478939 1_555
Fe2 Fe4 2.503599 1_556
Fe2 Fe3 2.538688 1_655
Fe2 Yb0 3.249899 1_556
Fe2 Yb0 3.335698 1_646
Fe3 Fe4 2.503602 1_456
Fe3 Yb0 3.249897 1_556
Fe3 Yb0 3.335699 1_546
Fe4 Yb0 3.207404 1_655
Fe4 Yb0 3.207405 1_555
