# generated using pymatgen
data_NbB2W
_symmetry_space_group_name_H-M   'P 1'
_cell_length_a   4.61005308
_cell_length_b   4.61005308
_cell_length_c   3.12932233
_cell_angle_alpha   90.00000000
_cell_angle_beta   90.00000000
_cell_angle_gamma   138.97017890
_symmetry_Int_Tables_number   1
_chemical_formula_structural   NbB2W
_chemical_formula_sum   'Nb1 B2 W1'
_cell_volume   43.65811305
_cell_formula_units_Z   1
loop_
 _symmetry_equiv_pos_site_id
 _symmetry_equiv_pos_as_xyz
  1  'x, y, z'
loop_
 _atom_site_type_symbol
 _atom_site_label
 _atom_site_symmetry_multiplicity
 _atom_site_fract_x
 _atom_site_fract_y
 _atom_site_fract_z
 _atom_site_occupancy
  Nb  Nb0  1  0.14687285  0.85312715  0.50000000  1
  B  B0  1  0.43914891  0.56085109  0.50000000  1
  B  B1  1  0.55680441  0.44319559  0.00000000  1
  W  W0  1  0.85717382  0.14282618  -0.00000000  1
loop_
_geom_bond_atom_site_label_1
_geom_bond_atom_site_label_2
_geom_bond_distance
_geom_bond_site_symmetry_2
Nb0 W0 2.890723 1_456
Nb0 W0 2.890723 1_455
Nb0 W0 2.890723 1_565
Nb0 W0 2.890723 1_566
B0 B1 1.865588 1_555
B0 B1 1.865588 1_556
B0 W0 2.357843 1_456
B0 W0 2.357843 1_455
B0 W0 2.357843 1_566
B0 W0 2.357843 1_565
B0 Nb0 2.414080 1_655
B0 Nb0 2.414080 1_545
B0 Nb0 2.523914 1_555
B1 W0 2.362613 1_565
B1 W0 2.362613 1_455
B1 Nb0 2.379760 1_654
B1 Nb0 2.379760 1_544
B1 Nb0 2.379760 1_545
B1 Nb0 2.379760 1_655
B1 W0 2.593803 1_555
