# generated using pymatgen
data_CoSeO5
_symmetry_space_group_name_H-M   'P 1'
_cell_length_a   8.47745300
_cell_length_b   6.77814400
_cell_length_c   9.05865216
_cell_angle_alpha   50.01340234
_cell_angle_beta   90.00000000
_cell_angle_gamma   90.00000000
_symmetry_Int_Tables_number   1
_chemical_formula_structural   CoSeO5
_chemical_formula_sum   'Co4 Se4 O20'
_cell_volume   398.82185977
_cell_formula_units_Z   4
loop_
 _symmetry_equiv_pos_site_id
 _symmetry_equiv_pos_as_xyz
  1  'x, y, z'
loop_
 _atom_site_type_symbol
 _atom_site_label
 _atom_site_symmetry_multiplicity
 _atom_site_fract_x
 _atom_site_fract_y
 _atom_site_fract_z
 _atom_site_occupancy
  Co  Co0  1  0.84689800  0.81614000  0.02724300  1
  Co  Co1  1  0.15310200  0.18386000  0.97275700  1
  Co  Co2  1  0.34689800  0.18386000  0.47275700  1
  Co  Co3  1  0.65310200  0.81614000  0.52724300  1
  Se  Se0  1  0.37152200  0.77488600  0.31844700  1
  Se  Se1  1  0.62847800  0.22511400  0.68155300  1
  Se  Se2  1  0.87152200  0.22511400  0.18155300  1
  Se  Se3  1  0.12847800  0.77488600  0.81844700  1
  O  O0  1  0.81704300  0.53960900  0.00125600  1
  O  O1  1  0.18295700  0.46039100  0.99874400  1
  O  O2  1  0.31704300  0.46039100  0.49874400  1
  O  O3  1  0.68295700  0.53960900  0.50125600  1
  O  O4  1  0.42537200  0.84648200  0.46864700  1
  O  O5  1  0.57462800  0.15351800  0.53135300  1
  O  O6  1  0.92537200  0.15351800  0.03135300  1
  O  O7  1  0.07462800  0.84648200  0.96864700  1
  O  O8  1  0.18602500  0.92308100  0.24223700  1
  O  O9  1  0.81397500  0.07691900  0.75776300  1
  O  O10  1  0.68602500  0.07691900  0.25776300  1
  O  O11  1  0.31397500  0.92308100  0.74223700  1
  O  O12  1  0.90364900  0.60826600  0.26238900  1
  O  O13  1  0.09635100  0.39173400  0.73761100  1
  O  O14  1  0.40364900  0.39173400  0.23761100  1
  O  O15  1  0.59635100  0.60826600  0.76238900  1
  O  O16  1  0.66247000  0.82723000  0.08584600  1
  O  O17  1  0.33753000  0.17277000  0.91415400  1
  O  O18  1  0.16247000  0.17277000  0.41415400  1
  O  O19  1  0.83753000  0.82723000  0.58584600  1
loop_
_geom_bond_atom_site_label_1
_geom_bond_atom_site_label_2
_geom_bond_distance
_geom_bond_site_symmetry_2
Co0 O16 1.668299 1_555
Co0 O12 1.701983 1_555
Co0 O9 1.901519 1_564
Co0 O7 1.977586 1_654
Co0 O0 2.049345 1_555
Co0 O6 2.404749 1_565
Co1 O17 1.668299 1_555
Co1 O13 1.701983 1_555
Co1 O8 1.901519 1_546
Co1 O6 1.977586 1_456
Co1 O1 2.049345 1_555
Co1 O7 2.404749 1_545
Co2 O18 1.668299 1_555
Co2 O14 1.701983 1_555
Co2 O11 1.901519 1_545
Co2 O5 1.977586 1_555
Co2 O2 2.049345 1_555
Co2 O4 2.404749 1_545
Co3 O19 1.668299 1_555
Co3 O15 1.701983 1_555
Co3 O10 1.901519 1_565
Co3 O4 1.977586 1_555
Co3 O3 2.049345 1_555
Co3 O5 2.404749 1_565
O0 Se2 1.717650 1_555
O1 Se3 1.717650 1_555
O2 Se0 1.717650 1_555
O3 Se1 1.717650 1_555
O4 Se0 1.773070 1_555
O5 Se1 1.773070 1_555
O6 Se2 1.773070 1_555
O7 Se3 1.773070 1_555
O8 Se0 1.751353 1_555
O9 Se1 1.751353 1_555
O10 Se2 1.751353 1_555
O11 Se3 1.751353 1_555
