# generated using pymatgen
data_Te2Mo2SeS
_symmetry_space_group_name_H-M   'P 1'
_cell_length_a   3.40026040
_cell_length_b   3.40026040
_cell_length_c   38.64391700
_cell_angle_alpha   90.00000000
_cell_angle_beta   90.00000000
_cell_angle_gamma   120.00000776
_symmetry_Int_Tables_number   1
_chemical_formula_structural   Te2Mo2SeS
_chemical_formula_sum   'Te4 Mo4 Se2 S2'
_cell_volume   386.93328755
_cell_formula_units_Z   2
loop_
 _symmetry_equiv_pos_site_id
 _symmetry_equiv_pos_as_xyz
  1  'x, y, z'
loop_
 _atom_site_type_symbol
 _atom_site_label
 _atom_site_symmetry_multiplicity
 _atom_site_fract_x
 _atom_site_fract_y
 _atom_site_fract_z
 _atom_site_occupancy
  Te  Te0  1  0.00000000  0.00000000  0.33033000  1
  Te  Te1  1  0.00000000  0.00000000  0.70599700  1
  Te  Te2  1  0.00000000  0.00000000  0.23330200  1
  Te  Te3  1  0.00000000  0.00000000  0.60903000  1
  Mo  Mo0  1  0.00000000  0.00000000  0.09389400  1
  Mo  Mo1  1  0.00000000  0.00000000  0.46967400  1
  Mo  Mo2  1  0.33333300  0.66666700  0.28182700  1
  Mo  Mo3  1  0.33333300  0.66666700  0.65754600  1
  Se  Se0  1  0.33333300  0.66666700  0.05120200  1
  Se  Se1  1  0.33333300  0.66666700  0.13660900  1
  S  S0  1  0.33333300  0.66666700  0.43084200  1
  S  S1  1  0.33333300  0.66666700  0.50849600  1
loop_
_geom_bond_atom_site_label_1
_geom_bond_atom_site_label_2
_geom_bond_distance
_geom_bond_site_symmetry_2
Mo0 Se0 2.564315 1_545
Mo0 Se0 2.564317 1_445
Mo0 Se0 2.564317 1_555
Mo0 Se1 2.564887 1_545
Mo0 Se1 2.564889 1_555
Mo0 Se1 2.564889 1_445
Mo1 S1 2.470753 1_545
Mo1 S1 2.470755 1_555
Mo1 S1 2.470755 1_445
Mo1 S0 2.470987 1_545
Mo1 S0 2.470989 1_445
Mo1 S0 2.470989 1_555
Mo2 Te0 2.714238 1_565
Mo2 Te0 2.714240 1_555
Mo2 Te0 2.714240 1_665
Mo2 Te2 2.714825 1_565
Mo2 Te2 2.714827 1_555
Mo2 Te2 2.714827 1_665
Mo3 Te1 2.712851 1_565
Mo3 Te1 2.712853 1_665
Mo3 Te1 2.712853 1_555
Mo3 Te3 2.714585 1_565
Mo3 Te3 2.714587 1_665
Mo3 Te3 2.714587 1_555
