# generated using pymatgen
data_BaCaCeNbO6
_symmetry_space_group_name_H-M   'P 1'
_cell_length_a   5.95693912
_cell_length_b   6.02976587
_cell_length_c   8.50228445
_cell_angle_alpha   90.50093619
_cell_angle_beta   90.42137245
_cell_angle_gamma   90.24957460
_symmetry_Int_Tables_number   1
_chemical_formula_structural   BaCaCeNbO6
_chemical_formula_sum   'Ba2 Ca2 Ce2 Nb2 O12'
_cell_volume   305.37020094
_cell_formula_units_Z   2
loop_
 _symmetry_equiv_pos_site_id
 _symmetry_equiv_pos_as_xyz
  1  'x, y, z'
loop_
 _atom_site_type_symbol
 _atom_site_label
 _atom_site_symmetry_multiplicity
 _atom_site_fract_x
 _atom_site_fract_y
 _atom_site_fract_z
 _atom_site_occupancy
  Ba  Ba0  1  0.50510656  0.53376212  0.25068086  1
  Ba  Ba1  1  0.49489344  0.46623788  0.74931914  1
  Ca  Ca0  1  0.98955827  0.04450281  0.25364165  1
  Ca  Ca1  1  0.01044173  0.95549719  0.74635835  1
  Ce  Ce0  1  0.00000000  0.50000000  -0.00000000  1
  Ce  Ce1  1  0.50000000  -0.00000000  0.50000000  1
  Nb  Nb0  1  0.50000000  -0.00000000  -0.00000000  1
  Nb  Nb1  1  0.00000000  0.50000000  0.50000000  1
  O  O0  1  0.22293818  0.18799581  0.94048269  1
  O  O1  1  0.27347503  0.69908488  0.53276388  1
  O  O2  1  0.77706182  0.81200419  0.05951731  1
  O  O3  1  0.72652497  0.30091512  0.46723612  1
  O  O4  1  0.30481009  0.72921676  0.95885984  1
  O  O5  1  0.18175329  0.21774190  0.55541754  1
  O  O6  1  0.69518991  0.27078324  0.04114016  1
  O  O7  1  0.81824671  0.78225810  0.44458246  1
  O  O8  1  0.39215872  0.99831597  0.23172751  1
  O  O9  1  0.06625972  0.44309736  0.26639959  1
  O  O10  1  0.60784128  0.00168403  0.76827249  1
  O  O11  1  0.93374028  0.55690264  0.73360041  1
loop_
_geom_bond_atom_site_label_1
_geom_bond_atom_site_label_2
_geom_bond_distance
_geom_bond_site_symmetry_2
Ba0 O6 2.639414 1_555
Ba0 O3 2.669576 1_555
Ba0 O9 2.672948 1_555
Ba0 O2 2.853713 1_555
Ba0 O7 2.886140 1_555
Ba0 O8 2.889260 1_555
Ba0 O1 2.944240 1_555
Ba0 O4 2.998084 1_554
Ba1 O4 2.639414 1_555
Ba1 O1 2.669576 1_555
Ba1 O11 2.672948 1_555
Ba1 O0 2.853713 1_555
Ba1 O5 2.886140 1_555
Ba1 O10 2.889260 1_555
Ba1 O3 2.944240 1_555
Ba1 O6 2.998084 1_556
Ca0 O8 2.423931 1_645
Ca0 O9 2.445845 1_655
Ca0 O2 2.491020 1_545
Ca0 O7 2.496511 1_545
Ca0 O3 2.856117 1_555
Ca0 O6 2.866742 1_555
Ca0 O5 2.980723 1_655
Ca1 O10 2.423931 1_465
Ca1 O11 2.445845 1_455
Ca1 O0 2.491020 1_565
Ca1 O5 2.496511 1_565
Ca1 O1 2.856117 1_555
Ca1 O4 2.866742 1_555
Ca1 O7 2.980723 1_455
Ce0 O4 2.307692 1_554
Ce0 O6 2.307692 1_455
Ce0 O9 2.324948 1_555
Ce0 O11 2.324948 1_454
Ce0 O2 2.360947 1_455
Ce0 O0 2.360947 1_554
Ce1 O1 2.276780 1_545
Ce1 O3 2.276780 1_555
Ce1 O5 2.358765 1_555
Ce1 O7 2.358765 1_545
Ce1 O10 2.365039 1_555
Ce1 O8 2.365039 1_545
Nb0 O4 2.026746 1_544
Nb0 O6 2.026746 1_555
Nb0 O0 2.068587 1_554
Nb0 O2 2.068587 1_545
Nb0 O8 2.076881 1_545
Nb0 O10 2.076881 1_554
Nb1 O3 2.035428 1_455
Nb1 O1 2.035428 1_555
Nb1 O9 2.054033 1_555
Nb1 O11 2.054033 1_455
Nb1 O7 2.076882 1_455
Nb1 O5 2.076882 1_555
