# generated using pymatgen
data_Sr(AlAu)2
_symmetry_space_group_name_H-M   'P 1'
_cell_length_a   4.48782092
_cell_length_b   4.48782092
_cell_length_c   10.53942412
_cell_angle_alpha   90.00000000
_cell_angle_beta   90.00000000
_cell_angle_gamma   90.00000000
_symmetry_Int_Tables_number   1
_chemical_formula_structural   Sr(AlAu)2
_chemical_formula_sum   'Sr2 Al4 Au4'
_cell_volume   212.26965734
_cell_formula_units_Z   2
loop_
 _symmetry_equiv_pos_site_id
 _symmetry_equiv_pos_as_xyz
  1  'x, y, z'
loop_
 _atom_site_type_symbol
 _atom_site_label
 _atom_site_symmetry_multiplicity
 _atom_site_fract_x
 _atom_site_fract_y
 _atom_site_fract_z
 _atom_site_occupancy
  Sr  Sr0  1  0.00000000  0.50000000  0.24884552  1
  Sr  Sr1  1  0.50000000  -0.00000000  0.75115448  1
  Al  Al0  1  0.00000000  -0.00000000  0.50000000  1
  Al  Al1  1  0.50000000  0.50000000  0.50000000  1
  Al  Al2  1  -0.00000000  0.50000000  0.87565171  1
  Al  Al3  1  0.50000000  0.00000000  0.12434829  1
  Au  Au0  1  0.00000000  -0.00000000  0.00000000  1
  Au  Au1  1  0.50000000  0.50000000  0.00000000  1
  Au  Au2  1  -0.00000000  0.50000000  0.62891281  1
  Au  Au3  1  0.50000000  -0.00000000  0.37108719  1
loop_
_geom_bond_atom_site_label_1
_geom_bond_atom_site_label_2
_geom_bond_distance
_geom_bond_site_symmetry_2
Al0 Au3 2.623187 1_555
Al0 Au2 2.623187 1_545
Al0 Au3 2.623187 1_455
Al0 Au2 2.623187 1_555
Al0 Sr1 3.470139 1_455
Al0 Sr1 3.470139 1_555
Al0 Sr0 3.470139 1_545
Al0 Sr0 3.470139 1_555
Al1 Au2 2.623187 1_655
Al1 Au3 2.623187 1_555
Al1 Au3 2.623187 1_565
Al1 Au2 2.623187 1_555
Al1 Sr1 3.470139 1_565
Al1 Sr1 3.470139 1_555
Al1 Sr0 3.470139 1_555
Al1 Sr0 3.470139 1_655
Al2 Au0 2.598596 1_566
Al2 Au1 2.598596 1_456
Al2 Au0 2.598596 1_556
Al2 Au1 2.598596 1_556
Al2 Au2 2.600486 1_555
Al2 Sr1 3.433941 1_555
Al2 Sr1 3.433941 1_565
Al2 Sr1 3.433941 1_465
Al2 Sr1 3.433941 1_455
Al3 Au0 2.598596 1_555
Al3 Au0 2.598596 1_655
Al3 Au1 2.598596 1_545
Al3 Au1 2.598596 1_555
Al3 Au3 2.600486 1_555
Al3 Sr0 3.433941 1_655
Al3 Sr0 3.433941 1_545
Al3 Sr0 3.433941 1_645
Al3 Sr0 3.433941 1_555
Au0 Sr0 3.451613 1_555
Au0 Sr0 3.451613 1_545
Au0 Sr1 3.451613 1_554
Au0 Sr1 3.451613 1_454
Au1 Sr0 3.451613 1_555
Au1 Sr0 3.451613 1_655
Au1 Sr1 3.451613 1_554
Au1 Sr1 3.451613 1_564
Au2 Sr1 3.424928 1_565
Au2 Sr1 3.424928 1_465
Au2 Sr1 3.424928 1_455
Au2 Sr1 3.424928 1_555
Au3 Sr0 3.424928 1_655
Au3 Sr0 3.424928 1_545
Au3 Sr0 3.424928 1_555
Au3 Sr0 3.424928 1_645
