# generated using pymatgen
data_Li12Fe3CoP4(CO7)4
_symmetry_space_group_name_H-M   'P 1'
_cell_length_a   6.48304100
_cell_length_b   8.49718600
_cell_length_c   10.03073147
_cell_angle_alpha   84.78621756
_cell_angle_beta   90.00000000
_cell_angle_gamma   90.00000000
_symmetry_Int_Tables_number   1
_chemical_formula_structural   Li12Fe3CoP4(CO7)4
_chemical_formula_sum   'Li12 Fe3 Co1 P4 C4 O28'
_cell_volume   550.28275872
_cell_formula_units_Z   1
loop_
 _symmetry_equiv_pos_site_id
 _symmetry_equiv_pos_as_xyz
  1  'x, y, z'
loop_
 _atom_site_type_symbol
 _atom_site_label
 _atom_site_symmetry_multiplicity
 _atom_site_fract_x
 _atom_site_fract_y
 _atom_site_fract_z
 _atom_site_occupancy
  Li  Li0  1  0.00000000  0.90506700  0.61938300  1
  Li  Li1  1  0.00000000  0.90302300  0.11725500  1
  Li  Li2  1  0.22837000  0.72533500  0.87569700  1
  Li  Li3  1  0.77163000  0.72533500  0.87569700  1
  Li  Li4  1  0.22804500  0.72510900  0.37454600  1
  Li  Li5  1  0.77195500  0.72510900  0.37454600  1
  Li  Li6  1  0.72814900  0.27437900  0.62331800  1
  Li  Li7  1  0.27185100  0.27437900  0.62331800  1
  Li  Li8  1  0.72846400  0.27489100  0.12628400  1
  Li  Li9  1  0.27153600  0.27489100  0.12628400  1
  Li  Li10  1  0.50000000  0.09483400  0.88135100  1
  Li  Li11  1  0.50000000  0.09446200  0.38109600  1
  Fe  Fe0  1  0.50000000  0.66635500  0.60530000  1
  Fe  Fe1  1  0.50000000  0.66588200  0.10665200  1
  Fe  Fe2  1  0.00000000  0.33316300  0.89371400  1
  Co  Co0  1  0.00000000  0.33369300  0.39511000  1
  P  P0  1  0.00000000  0.58751100  0.63886000  1
  P  P1  1  0.00000000  0.58681300  0.14173100  1
  P  P2  1  0.50000000  0.41166600  0.85939100  1
  P  P3  1  0.50000000  0.41136300  0.35962800  1
  C  C0  1  0.50000000  0.96582800  0.65022600  1
  C  C1  1  0.50000000  0.96594500  0.15009600  1
  C  C2  1  0.00000000  0.03405000  0.85017100  1
  C  C3  1  0.00000000  0.03784000  0.35053800  1
  O  O0  1  0.50000000  0.92925500  0.52763500  1
  O  O1  1  0.00000000  0.88755000  0.82156900  1
  O  O2  1  0.50000000  0.92912200  0.02761200  1
  O  O3  1  0.50000000  0.85196100  0.74691100  1
  O  O4  1  0.00000000  0.89224500  0.32006500  1
  O  O5  1  0.50000000  0.85239800  0.24699100  1
  O  O6  1  0.18666600  0.69061000  0.58551700  1
  O  O7  1  0.81333400  0.69061000  0.58551700  1
  O  O8  1  0.18645300  0.69063000  0.08876800  1
  O  O9  1  0.81354700  0.69063000  0.08876800  1
  O  O10  1  0.50000000  0.57805800  0.90955700  1
  O  O11  1  0.00000000  0.57021600  0.79504500  1
  O  O12  1  0.50000000  0.57850300  0.40842200  1
  O  O13  1  0.00000000  0.56797200  0.29812800  1
  O  O14  1  0.50000000  0.42880400  0.70311800  1
  O  O15  1  0.00000000  0.42112100  0.58848000  1
  O  O16  1  0.50000000  0.42812100  0.20315500  1
  O  O17  1  0.00000000  0.42161300  0.09047200  1
  O  O18  1  0.31313600  0.30907600  0.91292800  1
  O  O19  1  0.68686400  0.30907600  0.91292800  1
  O  O20  1  0.68735800  0.30883400  0.41282100  1
  O  O21  1  0.31264200  0.30883400  0.41282100  1
  O  O22  1  0.00000000  0.14727300  0.75334000  1
  O  O23  1  0.50000000  0.11168100  0.67885800  1
  O  O24  1  0.00000000  0.15368300  0.25580800  1
  O  O25  1  0.00000000  0.07022600  0.97264000  1
  O  O26  1  0.50000000  0.11188400  0.17857500  1
  O  O27  1  0.00000000  0.07309100  0.47335900  1
loop_
_geom_bond_atom_site_label_1
_geom_bond_atom_site_label_2
_geom_bond_distance
_geom_bond_site_symmetry_2
Li0 O27 1.950326 1_565
Li0 O1 2.019994 1_555
Li0 O6 2.238996 1_555
Li0 O7 2.238996 1_455
Li1 O25 1.936028 1_564
Li1 O4 2.028062 1_555
Li1 O8 2.212154 1_555
Li1 O9 2.212154 1_455
Li2 O1 2.061712 1_555
Li2 O8 2.148054 1_556
Li2 O10 2.169168 1_555
Li2 O11 2.185766 1_555
Li2 O3 2.382217 1_555
Li3 O1 2.061712 1_655
Li3 O9 2.148054 1_556
Li3 O10 2.169168 1_555
Li3 O11 2.185766 1_655
Li3 O3 2.382217 1_555
Li4 O4 2.088124 1_555
Li4 O6 2.126835 1_555
Li4 O12 2.167695 1_555
Li4 O13 2.177645 1_555
Li4 O5 2.379893 1_555
Li5 O4 2.088124 1_655
Li5 O7 2.126835 1_555
Li5 O12 2.167695 1_555
Li5 O13 2.177645 1_655
Li5 O5 2.379893 1_555
Li6 O23 2.066244 1_555
Li6 O20 2.121668 1_555
Li6 O15 2.168824 1_655
Li6 O14 2.177421 1_555
Li6 O22 2.391149 1_655
Li7 O23 2.066244 1_555
Li7 O21 2.121668 1_555
Li7 O15 2.168824 1_555
Li7 O14 2.177421 1_555
Li7 O22 2.391149 1_555
Li8 O26 2.062853 1_555
Li8 O19 2.150402 1_554
Li8 O16 2.160107 1_555
Li8 O17 2.168156 1_655
Li8 O24 2.367375 1_655
Li9 O26 2.062853 1_555
Li9 O18 2.150402 1_554
Li9 O16 2.160107 1_555
Li9 O17 2.168156 1_555
Li9 O24 2.367375 1_555
Li10 O2 1.938982 1_546
Li10 O23 2.023173 1_555
Li10 O19 2.233109 1_555
Li10 O18 2.233109 1_555
Li11 O0 1.938094 1_545
Li11 O26 2.023359 1_555
Li11 O20 2.236083 1_555
Li11 O21 2.236083 1_555
Fe0 O6 2.049593 1_555
Fe0 O7 2.049593 1_555
Fe0 O14 2.162678 1_555
Fe0 O12 2.173738 1_555
Fe0 O3 2.216348 1_555
Fe0 O0 2.298035 1_555
Fe1 O9 2.049773 1_555
Fe1 O8 2.049773 1_555
Fe1 O16 2.159444 1_555
Fe1 O10 2.175682 1_554
Fe1 O5 2.213343 1_555
Fe1 O2 2.304245 1_555
Fe2 O18 2.047697 1_555
Fe2 O19 2.047697 1_455
Fe2 O11 2.162074 1_555
Fe2 O17 2.174777 1_556
Fe2 O22 2.209476 1_555
Fe2 O25 2.301533 1_555
Co0 O21 2.043909 1_555
Co0 O20 2.043909 1_455
Co0 O13 2.134787 1_555
Co0 O15 2.139155 1_555
Co0 O24 2.163446 1_555
Co0 O27 2.281156 1_555
C0 O0 1.295429 1_555
C0 O23 1.297358 1_565
C0 O3 1.306202 1_555
C1 O2 1.295081 1_555
C1 O26 1.297599 1_565
C1 O5 1.305799 1_555
C2 O25 1.293143 1_555
C2 O1 1.302628 1_545
C2 O22 1.303517 1_555
C3 O27 1.294053 1_555
C3 O4 1.301036 1_545
C3 O24 1.304544 1_555
O6 P0 1.559830 1_555
O7 P0 1.559830 1_655
O8 P1 1.560900 1_555
O9 P1 1.560900 1_655
O10 P2 1.543219 1_555
O11 P0 1.560175 1_555
O12 P3 1.543667 1_555
O13 P1 1.562384 1_555
O14 P2 1.561050 1_555
O15 P0 1.544083 1_555
O16 P3 1.563045 1_555
O17 P1 1.538185 1_555
O18 P2 1.559107 1_555
O19 P2 1.559107 1_555
O20 P3 1.560316 1_555
O21 P3 1.560316 1_555
