# generated using pymatgen
data_YbSn2Pd
_symmetry_space_group_name_H-M   'P 1'
_cell_length_a   5.98153212
_cell_length_b   5.98153212
_cell_length_c   7.55748300
_cell_angle_alpha   90.00000000
_cell_angle_beta   90.00000000
_cell_angle_gamma   136.41125793
_symmetry_Int_Tables_number   1
_chemical_formula_structural   YbSn2Pd
_chemical_formula_sum   'Yb2 Sn4 Pd2'
_cell_volume   186.43265770
_cell_formula_units_Z   2
loop_
 _symmetry_equiv_pos_site_id
 _symmetry_equiv_pos_as_xyz
  1  'x, y, z'
loop_
 _atom_site_type_symbol
 _atom_site_label
 _atom_site_symmetry_multiplicity
 _atom_site_fract_x
 _atom_site_fract_y
 _atom_site_fract_z
 _atom_site_occupancy
  Yb  Yb0  1  0.42888100  0.57111900  0.25000000  1
  Yb  Yb1  1  0.57111900  0.42888100  0.75000000  1
  Sn  Sn0  1  0.85997800  0.14002200  0.54361300  1
  Sn  Sn1  1  0.14002200  0.85997800  0.45638700  1
  Sn  Sn2  1  0.85997800  0.14002200  0.95638600  1
  Sn  Sn3  1  0.14002200  0.85997800  0.04361300  1
  Pd  Pd0  1  0.29746500  0.70253500  0.75000000  1
  Pd  Pd1  1  0.70253500  0.29746500  0.25000000  1
loop_
_geom_bond_atom_site_label_1
_geom_bond_atom_site_label_2
_geom_bond_distance
_geom_bond_site_symmetry_2
Sn0 Yb0 3.231348 1_655
Sn0 Yb0 3.231348 1_545
Sn0 Yb1 3.567664 1_555
Sn0 Yb1 3.586850 1_545
Sn0 Yb1 3.586850 1_655
Sn1 Yb1 3.231348 1_455
Sn1 Yb1 3.231348 1_565
Sn1 Yb0 3.567664 1_555
Sn1 Yb0 3.586850 1_565
Sn1 Yb0 3.586850 1_455
Sn2 Yb0 3.231354 1_656
Sn2 Yb0 3.231354 1_546
Sn2 Yb1 3.567661 1_555
Sn2 Yb1 3.586847 1_545
Sn2 Yb1 3.586847 1_655
Sn3 Yb1 3.231348 1_454
Sn3 Yb1 3.231348 1_564
Sn3 Yb0 3.567664 1_555
Sn3 Yb0 3.586850 1_565
Sn3 Yb0 3.586850 1_455
Pd0 Sn2 2.801249 1_455
Pd0 Sn2 2.801249 1_565
Pd0 Sn0 2.801253 1_455
Pd0 Sn0 2.801253 1_565
Pd0 Sn3 2.825315 1_556
Pd0 Sn1 2.825315 1_555
Pd0 Yb1 3.039741 1_555
Pd0 Yb1 3.354608 1_455
Pd0 Yb1 3.354608 1_565
Pd1 Sn3 2.801253 1_545
Pd1 Sn1 2.801253 1_545
Pd1 Sn1 2.801253 1_655
Pd1 Sn3 2.801253 1_655
Pd1 Sn0 2.825315 1_555
Pd1 Sn2 2.825321 1_554
Pd1 Yb0 3.039741 1_555
Pd1 Yb0 3.354608 1_545
Pd1 Yb0 3.354608 1_655
