# generated using pymatgen
data_Ca4ErB3O10
_symmetry_space_group_name_H-M   'P 1'
_cell_length_a   9.01849768
_cell_length_b   9.01849768
_cell_length_c   3.54499334
_cell_angle_alpha   84.99084610
_cell_angle_beta   84.99084610
_cell_angle_gamma   126.41076246
_symmetry_Int_Tables_number   1
_chemical_formula_structural   Ca4ErB3O10
_chemical_formula_sum   'Ca4 Er1 B3 O10'
_cell_volume   227.64541931
_cell_formula_units_Z   1
loop_
 _symmetry_equiv_pos_site_id
 _symmetry_equiv_pos_as_xyz
  1  'x, y, z'
loop_
 _atom_site_type_symbol
 _atom_site_label
 _atom_site_symmetry_multiplicity
 _atom_site_fract_x
 _atom_site_fract_y
 _atom_site_fract_z
 _atom_site_occupancy
  Ca  Ca0  1  0.32840700  0.55237800  0.27728500  1
  Ca  Ca1  1  0.55237800  0.32840700  0.27728500  1
  Ca  Ca2  1  0.87805400  0.24242400  0.94910400  1
  Ca  Ca3  1  0.24242400  0.87805400  0.94910400  1
  Er  Er0  1  0.80209300  0.80209300  0.60271400  1
  B  B0  1  0.17038900  0.17038900  0.90495900  1
  B  B1  1  0.94024400  0.55281700  0.52434000  1
  B  B2  1  0.55281700  0.94024400  0.52434000  1
  O  O0  1  0.02249000  0.74219700  0.52601000  1
  O  O1  1  0.74219700  0.02249000  0.52601000  1
  O  O2  1  0.63349200  0.63349200  0.18039200  1
  O  O3  1  0.18233700  0.33125300  0.85768600  1
  O  O4  1  0.33125300  0.18233700  0.85768600  1
  O  O5  1  0.99562300  0.99562300  0.99934900  1
  O  O6  1  0.03602700  0.49888000  0.33005100  1
  O  O7  1  0.49888000  0.03602700  0.33005100  1
  O  O8  1  0.76116300  0.41623000  0.72136600  1
  O  O9  1  0.41623000  0.76116300  0.72136600  1
loop_
_geom_bond_atom_site_label_1
_geom_bond_atom_site_label_2
_geom_bond_distance
_geom_bond_site_symmetry_2
Ca0 O9 2.316353 1_554
Ca0 O6 2.368220 1_555
Ca0 O9 2.369808 1_555
Ca0 O2 2.371720 1_555
Ca0 O3 2.374261 1_555
Ca0 O3 2.380414 1_554
Ca1 O8 2.316353 1_554
Ca1 O7 2.368220 1_555
Ca1 O8 2.369808 1_555
Ca1 O2 2.371720 1_555
Ca1 O4 2.374261 1_555
Ca1 O4 2.380414 1_554
Ca2 O3 2.338136 1_655
Ca2 O1 2.363673 1_556
Ca2 O1 2.374948 1_555
Ca2 O8 2.471700 1_555
Ca2 O6 2.484435 1_656
Ca2 O6 2.617428 1_655
Ca2 O7 2.860116 1_556
Ca2 O5 2.979161 1_545
Ca3 O4 2.338136 1_565
Ca3 O0 2.363673 1_556
Ca3 O0 2.374948 1_555
Ca3 O9 2.471700 1_555
Ca3 O7 2.484435 1_566
Ca3 O7 2.617428 1_565
Ca3 O6 2.860116 1_556
Ca3 O5 2.979161 1_455
Er0 O2 2.217159 1_555
Er0 O2 2.232834 1_556
Er0 O5 2.304411 1_555
Er0 O0 2.349967 1_655
Er0 O1 2.349967 1_565
Er0 O5 2.397358 1_554
B0 O3 1.383180 1_555
B0 O4 1.383180 1_555
B0 O5 1.395369 1_445
B1 O8 1.380071 1_555
B1 O6 1.382248 1_655
B1 O0 1.402084 1_655
B2 O9 1.380071 1_555
B2 O7 1.382248 1_565
B2 O1 1.402084 1_565
