# generated using pymatgen
data_LiCo4O5
_symmetry_space_group_name_H-M   'P 1'
_cell_length_a   5.18854671
_cell_length_b   5.18854671
_cell_length_c   5.18854671
_cell_angle_alpha   99.38357927
_cell_angle_beta   99.38357927
_cell_angle_gamma   132.36984048
_symmetry_Int_Tables_number   1
_chemical_formula_structural   LiCo4O5
_chemical_formula_sum   'Li1 Co4 O5'
_cell_volume   94.41077939
_cell_formula_units_Z   1
loop_
 _symmetry_equiv_pos_site_id
 _symmetry_equiv_pos_as_xyz
  1  'x, y, z'
loop_
 _atom_site_type_symbol
 _atom_site_label
 _atom_site_symmetry_multiplicity
 _atom_site_fract_x
 _atom_site_fract_y
 _atom_site_fract_z
 _atom_site_occupancy
  Li  Li0  1  0.00000000  0.00000000  0.00000000  1
  Co  Co0  1  0.59853800  0.20358900  0.80212700  1
  Co  Co1  1  0.20358900  0.40146200  0.60505100  1
  Co  Co2  1  0.79641100  0.59853800  0.39494900  1
  Co  Co3  1  0.40146200  0.79641100  0.19787300  1
  O  O0  1  0.69157500  0.89237200  0.58394800  1
  O  O1  1  0.30842500  0.10762800  0.41605200  1
  O  O2  1  0.89237200  0.30842500  0.20079700  1
  O  O3  1  0.50000000  0.50000000  0.00000000  1
  O  O4  1  0.10762800  0.69157500  0.79920300  1
loop_
_geom_bond_atom_site_label_1
_geom_bond_atom_site_label_2
_geom_bond_distance
_geom_bond_site_symmetry_2
Li0 O3 2.095063 1_555
Li0 O3 2.095063 1_445
Li0 O0 2.192873 1_444
Li0 O1 2.192873 1_555
Li0 O2 2.192877 1_455
Li0 O4 2.192877 1_544
Co0 O1 2.051286 1_555
Co0 O2 2.094273 1_556
Co0 O3 2.096856 1_556
Co0 O4 2.097503 1_655
Co0 O4 2.097503 1_545
Co0 O0 2.180532 1_545
Co1 O4 2.051282 1_555
Co1 O1 2.094276 1_555
Co1 O3 2.096856 1_556
Co1 O0 2.097500 1_555
Co1 O0 2.097504 1_445
Co1 O2 2.180535 1_455
Co2 O2 2.051282 1_555
Co2 O0 2.094276 1_555
Co2 O3 2.096856 1_555
Co2 O1 2.097500 1_555
Co2 O1 2.097504 1_665
Co2 O4 2.180535 1_655
Co3 O0 2.051286 1_555
Co3 O4 2.094273 1_554
Co3 O3 2.096856 1_555
Co3 O2 2.097503 1_565
Co3 O2 2.097503 1_455
Co3 O1 2.180532 1_565
