# generated using pymatgen
data_BaMg6Si
_symmetry_space_group_name_H-M   'P 1'
_cell_length_a   7.14538801
_cell_length_b   7.14538801
_cell_length_c   4.86562800
_cell_angle_alpha   90.00000000
_cell_angle_beta   90.00000000
_cell_angle_gamma   119.50086393
_symmetry_Int_Tables_number   1
_chemical_formula_structural   BaMg6Si
_chemical_formula_sum   'Ba1 Mg6 Si1'
_cell_volume   216.21389808
_cell_formula_units_Z   1
loop_
 _symmetry_equiv_pos_site_id
 _symmetry_equiv_pos_as_xyz
  1  'x, y, z'
loop_
 _atom_site_type_symbol
 _atom_site_label
 _atom_site_symmetry_multiplicity
 _atom_site_fract_x
 _atom_site_fract_y
 _atom_site_fract_z
 _atom_site_occupancy
  Ba  Ba0  1  0.67450300  0.32549700  0.50000000  1
  Mg  Mg0  1  0.85874800  0.73703700  0.00000000  1
  Mg  Mg1  1  0.26296300  0.14125200  0.00000000  1
  Mg  Mg2  1  0.33437600  0.66562400  0.00000000  1
  Mg  Mg3  1  0.69869000  0.85848900  0.50000000  1
  Mg  Mg4  1  0.14151100  0.30131000  0.50000000  1
  Mg  Mg5  1  0.16020800  0.83979200  0.50000000  1
  Si  Si0  1  0.86900000  0.13100000  0.00000000  1
loop_
_geom_bond_atom_site_label_1
_geom_bond_atom_site_label_2
_geom_bond_distance
_geom_bond_site_symmetry_2
Ba0 Si0 3.418134 1_555
Ba0 Si0 3.418134 1_556
Ba0 Mg4 3.425363 1_655
Ba0 Mg3 3.425363 1_545
Ba0 Mg0 3.533582 1_556
Ba0 Mg0 3.533582 1_555
Ba0 Mg1 3.533582 1_555
Ba0 Mg1 3.533582 1_556
Ba0 Mg5 3.603937 1_655
Ba0 Mg5 3.603937 1_545
Ba0 Mg3 3.726366 1_555
Ba0 Mg4 3.726366 1_555
Mg0 Si0 2.779677 1_565
Mg0 Mg5 3.088683 1_655
Mg0 Mg5 3.088683 1_654
Mg1 Si0 2.779677 1_455
Mg1 Mg5 3.088683 1_545
Mg1 Mg5 3.088683 1_544
Mg2 Mg5 3.246765 1_554
Mg2 Mg5 3.246765 1_555
Mg2 Mg3 3.325816 1_555
Mg2 Mg4 3.325816 1_554
Mg2 Mg3 3.325816 1_554
Mg2 Mg4 3.325816 1_555
Mg3 Si0 2.976125 1_566
Mg3 Si0 2.976125 1_565
Mg3 Mg5 3.365523 1_655
Mg4 Si0 2.976125 1_455
Mg4 Si0 2.976125 1_456
Mg4 Mg5 3.365523 1_545
