# generated using pymatgen
data_LiBiO2
_symmetry_space_group_name_H-M   'P 1'
_cell_length_a   3.44276179
_cell_length_b   3.44276179
_cell_length_c   9.28896709
_cell_angle_alpha   90.00000000
_cell_angle_beta   90.00000000
_cell_angle_gamma   90.01012043
_symmetry_Int_Tables_number   1
_chemical_formula_structural   LiBiO2
_chemical_formula_sum   'Li2 Bi2 O4'
_cell_volume   110.09849098
_cell_formula_units_Z   2
loop_
 _symmetry_equiv_pos_site_id
 _symmetry_equiv_pos_as_xyz
  1  'x, y, z'
loop_
 _atom_site_type_symbol
 _atom_site_label
 _atom_site_symmetry_multiplicity
 _atom_site_fract_x
 _atom_site_fract_y
 _atom_site_fract_z
 _atom_site_occupancy
  Li  Li0  1  0.75000000  0.75000000  0.50000000  1
  Li  Li1  1  0.25000000  0.25000000  0.50000000  1
  Bi  Bi0  1  0.75000000  0.25000000  0.81592097  1
  Bi  Bi1  1  0.25000000  0.75000000  0.18407903  1
  O  O0  1  0.75000000  0.25000000  0.59532766  1
  O  O1  1  0.25000000  0.75000000  0.40467234  1
  O  O2  1  0.25000000  0.75000000  0.82495925  1
  O  O3  1  0.75000000  0.25000000  0.17504075  1
loop_
_geom_bond_atom_site_label_1
_geom_bond_atom_site_label_2
_geom_bond_distance
_geom_bond_site_symmetry_2
Li0 O1 1.935783 1_555
Li0 O1 1.935783 1_655
Li0 O0 1.935783 1_565
Li0 O0 1.935783 1_555
Li1 O1 1.935783 1_555
Li1 O1 1.935783 1_545
Li1 O0 1.935783 1_455
Li1 O0 1.935783 1_555
Bi0 O0 2.049084 1_555
Bi0 O2 2.435633 1_545
Bi0 O2 2.435633 1_655
Bi0 O2 2.436062 1_555
Bi0 O2 2.436062 1_645
Bi1 O1 2.049084 1_555
Bi1 O3 2.435633 1_565
Bi1 O3 2.435633 1_455
Bi1 O3 2.436062 1_465
Bi1 O3 2.436062 1_555
