# generated using pymatgen
data_Rb2NaYbF6
_symmetry_space_group_name_H-M   'P 1'
_cell_length_a   6.33552402
_cell_length_b   6.33552402
_cell_length_c   6.33552402
_cell_angle_alpha   60.00000000
_cell_angle_beta   60.00000000
_cell_angle_gamma   60.00000000
_symmetry_Int_Tables_number   1
_chemical_formula_structural   Rb2NaYbF6
_chemical_formula_sum   'Rb2 Na1 Yb1 F6'
_cell_volume   179.81777869
_cell_formula_units_Z   1
loop_
 _symmetry_equiv_pos_site_id
 _symmetry_equiv_pos_as_xyz
  1  'x, y, z'
loop_
 _atom_site_type_symbol
 _atom_site_label
 _atom_site_symmetry_multiplicity
 _atom_site_fract_x
 _atom_site_fract_y
 _atom_site_fract_z
 _atom_site_occupancy
  Rb  Rb0  1  0.75000000  0.75000000  0.75000000  1
  Rb  Rb1  1  0.25000000  0.25000000  0.25000000  1
  Na  Na0  1  0.50000000  0.50000000  0.50000000  1
  Yb  Yb0  1  0.00000000  0.00000000  0.00000000  1
  F  F0  1  0.75481000  0.75481000  0.24519000  1
  F  F1  1  0.24519000  0.24519000  0.75481000  1
  F  F2  1  0.75481000  0.24519000  0.75481000  1
  F  F3  1  0.24519000  0.75481000  0.24519000  1
  F  F4  1  0.24519000  0.75481000  0.75481000  1
  F  F5  1  0.75481000  0.24519000  0.24519000  1
loop_
_geom_bond_atom_site_label_1
_geom_bond_atom_site_label_2
_geom_bond_distance
_geom_bond_site_symmetry_2
F0 Yb0 2.196849 1_665
F0 Na0 2.283043 1_555
F0 Rb1 3.168055 1_655
F0 Rb1 3.168055 1_565
F0 Rb0 3.168055 1_554
F0 Rb0 3.168055 1_555
F1 Yb0 2.196849 1_556
F1 Na0 2.283043 1_555
F1 Rb0 3.168055 1_455
F1 Rb1 3.168055 1_555
F1 Rb0 3.168055 1_545
F1 Rb1 3.168055 1_556
F2 Yb0 2.196849 1_656
F2 Na0 2.283043 1_555
F2 Rb0 3.168055 1_555
F2 Rb0 3.168055 1_545
F2 Rb1 3.168055 1_556
F2 Rb1 3.168055 1_655
F3 Yb0 2.196849 1_565
F3 Na0 2.283043 1_555
F3 Rb0 3.168055 1_554
F3 Rb0 3.168055 1_455
F3 Rb1 3.168055 1_555
F3 Rb1 3.168055 1_565
F4 Yb0 2.196849 1_566
F4 Na0 2.283043 1_555
F4 Rb1 3.168055 1_565
F4 Rb0 3.168055 1_455
F4 Rb0 3.168055 1_555
F4 Rb1 3.168055 1_556
F5 Yb0 2.196849 1_655
F5 Na0 2.283043 1_555
F5 Rb1 3.168055 1_555
F5 Rb0 3.168055 1_554
F5 Rb0 3.168055 1_545
F5 Rb1 3.168055 1_655
