# generated using pymatgen
data_FeCu2(SO4)2
_symmetry_space_group_name_H-M   'P 1'
_cell_length_a   6.86580665
_cell_length_b   6.52728300
_cell_length_c   7.79526330
_cell_angle_alpha   90.00000000
_cell_angle_beta   97.66097099
_cell_angle_gamma   90.00000000
_symmetry_Int_Tables_number   1
_chemical_formula_structural   FeCu2(SO4)2
_chemical_formula_sum   'Fe2 Cu4 S4 O16'
_cell_volume   346.22704413
_cell_formula_units_Z   2
loop_
 _symmetry_equiv_pos_site_id
 _symmetry_equiv_pos_as_xyz
  1  'x, y, z'
loop_
 _atom_site_type_symbol
 _atom_site_label
 _atom_site_symmetry_multiplicity
 _atom_site_fract_x
 _atom_site_fract_y
 _atom_site_fract_z
 _atom_site_occupancy
  Fe  Fe0  1  0.00000000  0.00000000  0.00000000  1
  Fe  Fe1  1  0.50000000  0.50000000  0.50000000  1
  Cu  Cu0  1  0.20185900  0.77388500  0.71197400  1
  Cu  Cu1  1  0.79814100  0.22611500  0.28802600  1
  Cu  Cu2  1  0.29814100  0.27388500  0.78802600  1
  Cu  Cu3  1  0.70185900  0.72611500  0.21197400  1
  S  S0  1  0.22677600  0.09015600  0.38537400  1
  S  S1  1  0.77322400  0.90984400  0.61462600  1
  S  S2  1  0.27322400  0.59015600  0.11462600  1
  S  S3  1  0.72677600  0.40984400  0.88537400  1
  O  O0  1  0.67981000  0.47152600  0.32189500  1
  O  O1  1  0.32019000  0.52847400  0.67810500  1
  O  O2  1  0.82019000  0.97152600  0.17810500  1
  O  O3  1  0.17981000  0.02847400  0.82189500  1
  O  O4  1  0.44728100  0.71602800  0.06501600  1
  O  O5  1  0.55271900  0.28397200  0.93498400  1
  O  O6  1  0.05271900  0.21602800  0.43498400  1
  O  O7  1  0.94728100  0.78397200  0.56501600  1
  O  O8  1  0.27819100  0.59496600  0.30993500  1
  O  O9  1  0.72180900  0.40503400  0.69006400  1
  O  O10  1  0.22180900  0.09496600  0.19006400  1
  O  O11  1  0.77819100  0.90503400  0.80993600  1
  O  O12  1  0.08727300  0.70216500  0.03554400  1
  O  O13  1  0.91272700  0.29783500  0.96445600  1
  O  O14  1  0.41272700  0.20216500  0.46445600  1
  O  O15  1  0.58727300  0.79783500  0.53554400  1
loop_
_geom_bond_atom_site_label_1
_geom_bond_atom_site_label_2
_geom_bond_distance
_geom_bond_site_symmetry_2
Fe0 O3 1.985752 1_554
Fe0 O2 1.985752 1_445
Fe0 O12 2.042275 1_545
Fe0 O13 2.042275 1_454
Fe0 O11 2.072922 1_444
Fe0 O10 2.072922 1_555
Fe1 O1 1.985752 1_555
Fe1 O0 1.985752 1_555
Fe1 O14 2.042275 1_555
Fe1 O15 2.042275 1_555
Fe1 O9 2.072922 1_555
Fe1 O8 2.072927 1_555
Cu0 O1 1.831100 1_555
Cu0 O3 1.884996 1_565
Cu0 O7 1.959058 1_455
Cu1 O0 1.831100 1_555
Cu1 O2 1.884996 1_545
Cu1 O6 1.959058 1_655
Cu2 O3 1.831100 1_555
Cu2 O1 1.884996 1_555
Cu2 O5 1.959058 1_555
Cu3 O2 1.831100 1_555
Cu3 O0 1.884996 1_555
Cu3 O4 1.959058 1_555
O4 S2 1.541405 1_555
O5 S3 1.541405 1_555
O6 S0 1.541405 1_555
O7 S1 1.541405 1_555
O8 S2 1.518640 1_555
O9 S3 1.518647 1_555
O10 S0 1.518647 1_555
O11 S1 1.518647 1_555
O12 S2 1.527968 1_555
O13 S3 1.527968 1_555
O14 S0 1.527968 1_555
O15 S1 1.527968 1_555
