# generated using pymatgen
data_CeHo4S7
_symmetry_space_group_name_H-M   'P 1'
_cell_length_a   6.79201866
_cell_length_b   6.79201866
_cell_length_c   11.60986321
_cell_angle_alpha   75.80654176
_cell_angle_beta   75.80654176
_cell_angle_gamma   32.62256165
_symmetry_Int_Tables_number   1
_chemical_formula_structural   CeHo4S7
_chemical_formula_sum   'Ce1 Ho4 S7'
_cell_volume   279.15106303
_cell_formula_units_Z   1
loop_
 _symmetry_equiv_pos_site_id
 _symmetry_equiv_pos_as_xyz
  1  'x, y, z'
loop_
 _atom_site_type_symbol
 _atom_site_label
 _atom_site_symmetry_multiplicity
 _atom_site_fract_x
 _atom_site_fract_y
 _atom_site_fract_z
 _atom_site_occupancy
  Ce  Ce0  1  0.00000000  0.00000000  0.00000000  1
  Ho  Ho0  1  0.11240300  0.11240300  0.57716500  1
  Ho  Ho1  1  0.88759700  0.88759700  0.42283500  1
  Ho  Ho2  1  0.30035400  0.30035400  0.81113300  1
  Ho  Ho3  1  0.69964600  0.69964600  0.18886700  1
  S  S0  1  0.26108600  0.26108600  0.35435400  1
  S  S1  1  0.73891400  0.73891400  0.64564600  1
  S  S2  1  0.66502200  0.66502200  0.94505000  1
  S  S3  1  0.33497800  0.33497800  0.05495000  1
  S  S4  1  0.95553300  0.95553300  0.77929800  1
  S  S5  1  0.04446700  0.04446700  0.22070200  1
  S  S6  1  0.50000000  0.50000000  0.50000000  1
loop_
_geom_bond_atom_site_label_1
_geom_bond_atom_site_label_2
_geom_bond_distance
_geom_bond_site_symmetry_2
Ce0 S4 2.767774 1_444
Ce0 S5 2.767774 1_555
Ce0 S3 2.823689 1_455
Ce0 S2 2.823689 1_544
Ce0 S3 2.823689 1_545
Ce0 S2 2.823689 1_454
Ho0 S4 2.690264 1_445
Ho0 S6 2.694389 1_545
Ho0 S6 2.694389 1_455
Ho0 S1 2.767921 1_545
Ho0 S1 2.767921 1_455
Ho0 S0 2.808367 1_555
Ho1 S5 2.690264 1_665
Ho1 S6 2.694389 1_565
Ho1 S6 2.694389 1_655
Ho1 S0 2.767921 1_565
Ho1 S0 2.767921 1_655
Ho1 S1 2.808367 1_555
Ho2 S4 2.736123 1_455
Ho2 S4 2.736123 1_545
Ho2 S2 2.787015 1_545
Ho2 S2 2.787015 1_455
Ho2 S1 2.959415 1_545
Ho2 S1 2.959415 1_455
Ho2 S3 2.978157 1_556
Ho3 S5 2.736123 1_655
Ho3 S5 2.736123 1_565
Ho3 S3 2.787015 1_655
Ho3 S3 2.787015 1_565
Ho3 S0 2.959415 1_655
Ho3 S0 2.959415 1_565
Ho3 S2 2.978157 1_554
