# generated using pymatgen
data_SrNdScO4
_symmetry_space_group_name_H-M   'P 1'
_cell_length_a   6.80719348
_cell_length_b   6.80719348
_cell_length_c   5.87691600
_cell_angle_alpha   90.00000000
_cell_angle_beta   90.00000000
_cell_angle_gamma   130.37408297
_symmetry_Int_Tables_number   1
_chemical_formula_structural   SrNdScO4
_chemical_formula_sum   'Sr2 Nd2 Sc2 O8'
_cell_volume   207.46485697
_cell_formula_units_Z   2
loop_
 _symmetry_equiv_pos_site_id
 _symmetry_equiv_pos_as_xyz
  1  'x, y, z'
loop_
 _atom_site_type_symbol
 _atom_site_label
 _atom_site_symmetry_multiplicity
 _atom_site_fract_x
 _atom_site_fract_y
 _atom_site_fract_z
 _atom_site_occupancy
  Sr  Sr0  1  0.89561000  0.10439000  0.48662900  1
  Sr  Sr1  1  0.10439000  0.89561000  0.98662900  1
  Nd  Nd0  1  0.60827500  0.39172500  0.51422600  1
  Nd  Nd1  1  0.39172500  0.60827500  0.01422600  1
  Sc  Sc0  1  0.24632500  0.75367500  0.50479800  1
  Sc  Sc1  1  0.75367500  0.24632500  0.00479800  1
  O  O0  1  0.91648000  0.08352000  0.06556000  1
  O  O1  1  0.56905200  0.43094800  0.90739300  1
  O  O2  1  0.08352000  0.91648000  0.56556000  1
  O  O3  1  0.43094800  0.56905200  0.40739300  1
  O  O4  1  0.97001500  0.51694500  0.26069700  1
  O  O5  1  0.02998500  0.48305500  0.76069700  1
  O  O6  1  0.51694500  0.97001500  0.76069700  1
  O  O7  1  0.48305500  0.02998500  0.26069700  1
loop_
_geom_bond_atom_site_label_1
_geom_bond_atom_site_label_2
_geom_bond_distance
_geom_bond_site_symmetry_2
Nd0 O3 2.279496 1_555
Nd0 O1 2.360900 1_555
Nd0 O7 2.508156 1_555
Nd0 O4 2.508156 1_555
Nd0 O2 2.888818 1_655
Nd0 O2 2.888818 1_545
Nd0 O5 2.900547 1_655
Nd0 O6 2.900547 1_545
Nd1 O1 2.279496 1_554
Nd1 O3 2.360900 1_555
Nd1 O6 2.508156 1_554
Nd1 O5 2.508156 1_554
Nd1 O0 2.888818 1_455
Nd1 O0 2.888818 1_565
Nd1 O7 2.900547 1_565
Nd1 O4 2.900547 1_455
O0 Sc1 2.043315 1_555
O0 Sr1 2.367985 1_644
O0 Sr0 2.487990 1_555
O1 Sc1 2.352205 1_556
O1 Sr1 2.927151 1_655
O1 Sr1 2.927151 1_545
O2 Sc0 2.043315 1_555
O2 Sr0 2.367985 1_465
O2 Sr1 2.487990 1_555
O3 Sc0 2.352205 1_555
O3 Sr0 2.927151 1_455
O3 Sr0 2.927151 1_565
O4 Sc0 2.065368 1_655
O4 Sc1 2.075892 1_555
O4 Sr1 2.649635 1_654
O4 Sr0 2.839637 1_555
O5 Sc1 2.065368 1_456
O5 Sc0 2.075892 1_555
O5 Sr0 2.649635 1_455
O5 Sr1 2.839637 1_555
O6 Sc1 2.065368 1_566
O6 Sc0 2.075892 1_555
O6 Sr0 2.649635 1_565
O6 Sr1 2.839637 1_555
O7 Sc0 2.065368 1_545
O7 Sc1 2.075892 1_555
O7 Sr1 2.649635 1_544
O7 Sr0 2.839637 1_555
