# generated using pymatgen
data_Na3CaTi3Fe5O16
_symmetry_space_group_name_H-M   'P 1'
_cell_length_a   4.25025500
_cell_length_b   8.68966796
_cell_length_c   8.90755051
_cell_angle_alpha   89.42245794
_cell_angle_beta   90.00000000
_cell_angle_gamma   90.00000000
_symmetry_Int_Tables_number   1
_chemical_formula_structural   Na3CaTi3Fe5O16
_chemical_formula_sum   'Na3 Ca1 Ti3 Fe5 O16'
_cell_volume   328.96856351
_cell_formula_units_Z   1
loop_
 _symmetry_equiv_pos_site_id
 _symmetry_equiv_pos_as_xyz
  1  'x, y, z'
loop_
 _atom_site_type_symbol
 _atom_site_label
 _atom_site_symmetry_multiplicity
 _atom_site_fract_x
 _atom_site_fract_y
 _atom_site_fract_z
 _atom_site_occupancy
  Na  Na0  1  0.25000000  0.69242300  0.02742100  1
  Na  Na1  1  0.25000000  0.18664700  0.47055600  1
  Na  Na2  1  0.75000000  0.20038000  0.75913000  1
  Ca  Ca0  1  0.75000000  0.70048000  0.73939100  1
  Ti  Ti0  1  0.25000000  0.19818100  0.04293400  1
  Ti  Ti1  1  0.25000000  0.69614800  0.45754500  1
  Ti  Ti2  1  0.75000000  0.45561900  0.06932600  1
  Fe  Fe0  1  0.25000000  0.98435500  0.75566000  1
  Fe  Fe1  1  0.25000000  0.43953800  0.73849200  1
  Fe  Fe2  1  0.75000000  0.39998300  0.47339500  1
  Fe  Fe3  1  0.75000000  0.95839300  0.43214900  1
  Fe  Fe4  1  0.75000000  0.90821100  0.02727600  1
  O  O0  1  0.25000000  0.20316000  0.76074200  1
  O  O1  1  0.25000000  0.71125300  0.27264600  1
  O  O2  1  0.25000000  0.92606500  0.53352100  1
  O  O3  1  0.25000000  0.19661900  0.22795000  1
  O  O4  1  0.25000000  0.96963200  0.98474400  1
  O  O5  1  0.25000000  0.46469500  0.50124300  1
  O  O6  1  0.25000000  0.65744600  0.74855900  1
  O  O7  1  0.25000000  0.42952400  0.99801900  1
  O  O8  1  0.75000000  0.67082000  0.00445300  1
  O  O9  1  0.75000000  0.94884800  0.79884900  1
  O  O10  1  0.75000000  0.17884700  0.49273400  1
  O  O11  1  0.75000000  0.24088900  0.01335900  1
  O  O12  1  0.75000000  0.45446500  0.26293000  1
  O  O13  1  0.75000000  0.44077400  0.69511100  1
  O  O14  1  0.75000000  0.73243200  0.48595500  1
  O  O15  1  0.75000000  0.95417300  0.22591100  1
loop_
_geom_bond_atom_site_label_1
_geom_bond_atom_site_label_2
_geom_bond_distance
_geom_bond_site_symmetry_2
Na0 O8 2.143371 1_455
Na0 O8 2.143371 1_555
Na0 O1 2.192118 1_555
Na0 O7 2.302090 1_554
Na0 O4 2.434878 1_554
Na0 O6 2.505542 1_554
Na1 O10 2.135303 1_455
Na1 O10 2.135303 1_555
Na1 O3 2.161889 1_555
Na1 O2 2.327304 1_545
Na1 O5 2.434294 1_555
Na1 O0 2.590270 1_555
Na2 O0 2.125315 1_555
Na2 O0 2.125315 1_655
Na2 O13 2.159829 1_555
Na2 O9 2.210656 1_545
Na2 O11 2.295257 1_556
Na2 O10 2.382181 1_555
Ca0 O6 2.159180 1_555
Ca0 O6 2.159180 1_655
Ca0 O9 2.227448 1_555
Ca0 O14 2.271725 1_555
Ca0 O13 2.294881 1_555
Ca0 O8 2.372495 1_556
Fe0 O0 1.902338 1_565
Fe0 O4 2.043297 1_555
Fe0 O2 2.047457 1_555
Fe0 O9 2.181049 1_455
Fe0 O9 2.181049 1_555
Fe1 O6 1.896573 1_555
Fe1 O0 2.061596 1_555
Fe1 O5 2.122391 1_555
Fe1 O13 2.159981 1_455
Fe1 O13 2.159981 1_555
Fe1 O7 2.312510 1_555
Fe2 O10 1.927574 1_555
Fe2 O12 1.928950 1_555
Fe2 O13 2.010017 1_555
Fe2 O5 2.212854 1_655
Fe2 O5 2.212854 1_555
Fe3 O15 1.837811 1_555
Fe3 O10 1.995464 1_565
Fe3 O14 2.016475 1_555
Fe3 O2 2.324938 1_555
Fe3 O2 2.324938 1_655
Fe4 O15 1.817792 1_555
Fe4 O9 2.061630 1_554
Fe4 O8 2.074881 1_555
Fe4 O4 2.222721 1_554
Fe4 O4 2.222721 1_654
O0 Ti0 2.513576 1_556
O1 Ti1 1.650900 1_555
O2 Ti1 2.115863 1_555
O3 Ti0 1.647958 1_555
O4 Ti0 2.057589 1_566
O5 Ti1 2.044713 1_555
O6 Ti1 2.610583 1_555
O7 Ti0 2.045760 1_556
O7 Ti2 2.230231 1_556
O7 Ti2 2.230231 1_456
O8 Ti2 1.951700 1_555
O11 Ti2 1.936230 1_555
O11 Ti0 2.172861 1_655
O11 Ti0 2.172861 1_555
O12 Ti2 1.724465 1_555
O14 Ti1 2.163615 1_555
O14 Ti1 2.163615 1_655
