# generated using pymatgen
data_BaZnO5
_symmetry_space_group_name_H-M   'P 1'
_cell_length_a   7.92217300
_cell_length_b   11.48262000
_cell_length_c   18.55564100
_cell_angle_alpha   90.00000000
_cell_angle_beta   90.00000000
_cell_angle_gamma   90.00000000
_symmetry_Int_Tables_number   1
_chemical_formula_structural   BaZnO5
_chemical_formula_sum   'Ba12 Zn12 O60'
_cell_volume   1687.95660112
_cell_formula_units_Z   12
loop_
 _symmetry_equiv_pos_site_id
 _symmetry_equiv_pos_as_xyz
  1  'x, y, z'
loop_
 _atom_site_type_symbol
 _atom_site_label
 _atom_site_symmetry_multiplicity
 _atom_site_fract_x
 _atom_site_fract_y
 _atom_site_fract_z
 _atom_site_occupancy
  Ba  Ba0  1  0.65013600  0.01113800  0.45380500  1
  Ba  Ba1  1  0.15013600  0.98886200  0.54619500  1
  Ba  Ba2  1  0.15013600  0.48886200  0.95380500  1
  Ba  Ba3  1  0.65013600  0.51113800  0.04619500  1
  Ba  Ba4  1  0.55706100  0.99245000  0.21876500  1
  Ba  Ba5  1  0.05706100  0.00755000  0.78123500  1
  Ba  Ba6  1  0.05706100  0.50755000  0.71876500  1
  Ba  Ba7  1  0.55706100  0.49245000  0.28123500  1
  Ba  Ba8  1  0.56254200  0.99111900  0.87104300  1
  Ba  Ba9  1  0.06254200  0.00888100  0.12895700  1
  Ba  Ba10  1  0.06254200  0.50888100  0.37104300  1
  Ba  Ba11  1  0.56254200  0.49111900  0.62895700  1
  Zn  Zn0  1  0.81101400  0.72832800  0.22482000  1
  Zn  Zn1  1  0.31101400  0.27167200  0.77518000  1
  Zn  Zn2  1  0.31101400  0.77167200  0.72482000  1
  Zn  Zn3  1  0.81101400  0.22832800  0.27518000  1
  Zn  Zn4  1  0.90465400  0.73727900  0.89687700  1
  Zn  Zn5  1  0.40465400  0.26272100  0.10312300  1
  Zn  Zn6  1  0.40465400  0.76272100  0.39687700  1
  Zn  Zn7  1  0.90465400  0.23727900  0.60312300  1
  Zn  Zn8  1  0.85416500  0.72994200  0.56809000  1
  Zn  Zn9  1  0.35416500  0.27005800  0.43191000  1
  Zn  Zn10  1  0.35416500  0.77005800  0.06809000  1
  Zn  Zn11  1  0.85416500  0.22994200  0.93191000  1
  O  O0  1  0.19727500  0.54673300  0.20710500  1
  O  O1  1  0.69727500  0.45326700  0.79289500  1
  O  O2  1  0.69727500  0.95326700  0.70710500  1
  O  O3  1  0.19727500  0.04673300  0.29289500  1
  O  O4  1  0.51457000  0.56060900  0.87805700  1
  O  O5  1  0.01457000  0.43939100  0.12194300  1
  O  O6  1  0.01457000  0.93939100  0.37805700  1
  O  O7  1  0.51457000  0.06060900  0.62194300  1
  O  O8  1  0.18886300  0.50628600  0.54312400  1
  O  O9  1  0.68886300  0.49371400  0.45687600  1
  O  O10  1  0.68886300  0.99371400  0.04312400  1
  O  O11  1  0.18886300  0.00628600  0.95687600  1
  O  O12  1  0.10906900  0.60143200  0.16316000  1
  O  O13  1  0.60906900  0.39856800  0.83684000  1
  O  O14  1  0.60906900  0.89856800  0.66316000  1
  O  O15  1  0.10906900  0.10143200  0.33684000  1
  O  O16  1  0.02489200  0.62247200  0.84389500  1
  O  O17  1  0.52489200  0.37752800  0.15610500  1
  O  O18  1  0.52489200  0.87752800  0.34389500  1
  O  O19  1  0.02489200  0.12247200  0.65610500  1
  O  O20  1  0.10605800  0.59759000  0.51418300  1
  O  O21  1  0.60605800  0.40241000  0.48581700  1
  O  O22  1  0.60605800  0.90241000  0.01418300  1
  O  O23  1  0.10605800  0.09759000  0.98581700  1
  O  O24  1  0.67385800  0.62748700  0.17118500  1
  O  O25  1  0.17385800  0.37251300  0.82881500  1
  O  O26  1  0.17385800  0.87251300  0.67118500  1
  O  O27  1  0.67385800  0.12748700  0.32881500  1
  O  O28  1  0.60197700  0.61470200  0.83426200  1
  O  O29  1  0.10197700  0.38529800  0.16573800  1
  O  O30  1  0.10197700  0.88529800  0.33426200  1
  O  O31  1  0.60197700  0.11470200  0.66573800  1
  O  O32  1  0.65708500  0.59744600  0.48851600  1
  O  O33  1  0.15708500  0.40255400  0.51148400  1
  O  O34  1  0.15708500  0.90255400  0.98851600  1
  O  O35  1  0.65708500  0.09744600  0.01148400  1
  O  O36  1  0.83662200  0.63274700  0.30331200  1
  O  O37  1  0.33662200  0.36725300  0.69668800  1
  O  O38  1  0.33662200  0.86725300  0.80331200  1
  O  O39  1  0.83662200  0.13274700  0.19668800  1
  O  O40  1  0.88569800  0.63611900  0.97364100  1
  O  O41  1  0.38569800  0.36388100  0.02635900  1
  O  O42  1  0.38569800  0.86388100  0.47364100  1
  O  O43  1  0.88569800  0.13611900  0.52635900  1
  O  O44  1  0.82893500  0.62764800  0.63952800  1
  O  O45  1  0.32893500  0.37235200  0.36047200  1
  O  O46  1  0.32893500  0.87235200  0.13952800  1
  O  O47  1  0.82893500  0.12764800  0.86047200  1
  O  O48  1  0.84545100  0.87582900  0.19492100  1
  O  O49  1  0.34545100  0.12417100  0.80507900  1
  O  O50  1  0.34545100  0.62417100  0.69492100  1
  O  O51  1  0.84545100  0.37582900  0.30507900  1
  O  O52  1  0.84469800  0.87344000  0.85548200  1
  O  O53  1  0.34469800  0.12656000  0.14451800  1
  O  O54  1  0.34469800  0.62656000  0.35548200  1
  O  O55  1  0.84469800  0.37344000  0.64451800  1
  O  O56  1  0.87022500  0.85904700  0.51567700  1
  O  O57  1  0.37022500  0.14095300  0.48432300  1
  O  O58  1  0.37022500  0.64095300  0.01567700  1
  O  O59  1  0.87022500  0.35904700  0.98432300  1
loop_
_geom_bond_atom_site_label_1
_geom_bond_atom_site_label_2
_geom_bond_distance
_geom_bond_site_symmetry_2
Ba0 O27 2.683133 1_555
Ba0 O43 2.711935 1_555
Ba0 O42 2.717225 1_545
Ba0 O56 2.721779 1_545
Ba0 O57 2.731288 1_555
Ba0 O18 2.738170 1_545
Ba0 O6 3.315071 1_645
Ba0 O7 3.348125 1_555
Ba1 O26 2.683133 1_555
Ba1 O42 2.711935 1_555
Ba1 O43 2.717225 1_465
Ba1 O57 2.721779 1_565
Ba1 O56 2.731288 1_455
Ba1 O19 2.738170 1_565
Ba1 O7 3.315071 1_565
Ba1 O6 3.348125 1_555
Ba2 O25 2.683133 1_555
Ba2 O41 2.711935 1_556
Ba2 O40 2.717225 1_455
Ba2 O58 2.721779 1_556
Ba2 O59 2.731288 1_455
Ba2 O16 2.738170 1_555
Ba2 O4 3.315071 1_555
Ba2 O5 3.348125 1_556
Ba3 O24 2.683133 1_555
Ba3 O40 2.711935 1_554
Ba3 O41 2.717225 1_555
Ba3 O59 2.721779 1_554
Ba3 O58 2.731288 1_555
Ba3 O17 2.738170 1_555
Ba3 O5 3.315071 1_655
Ba3 O4 3.348125 1_554
Ba4 O53 2.664554 1_565
Ba4 O18 2.682792 1_555
Ba4 O48 2.684907 1_555
Ba4 O46 2.707338 1_555
Ba4 O27 2.725878 1_565
Ba4 O39 2.769132 1_565
Ba4 O3 3.225637 1_565
Ba4 O10 3.422340 1_555
Ba5 O52 2.664554 1_445
Ba5 O19 2.682792 1_555
Ba5 O49 2.684907 1_555
Ba5 O47 2.707338 1_455
Ba5 O26 2.725878 1_545
Ba5 O38 2.769132 1_545
Ba5 O2 3.225637 1_445
Ba5 O11 3.422340 1_555
Ba6 O55 2.664554 1_455
Ba6 O16 2.682792 1_555
Ba6 O50 2.684907 1_555
Ba6 O44 2.707338 1_455
Ba6 O25 2.725878 1_555
Ba6 O37 2.769132 1_555
Ba6 O1 3.225637 1_455
Ba6 O8 3.422340 1_555
Ba7 O54 2.664554 1_555
Ba7 O17 2.682792 1_555
Ba7 O51 2.684907 1_555
Ba7 O45 2.707338 1_555
Ba7 O24 2.725878 1_555
Ba7 O36 2.769132 1_555
Ba7 O0 3.225637 1_555
Ba7 O9 3.422340 1_555
Ba8 O49 2.605790 1_565
Ba8 O38 2.608790 1_555
Ba8 O52 2.627889 1_555
Ba8 O47 2.636291 1_565
Ba8 O22 2.865492 1_556
Ba8 O35 2.973668 1_566
Ba8 O2 3.252971 1_555
Ba8 O11 3.366103 1_565
Ba9 O48 2.605790 1_445
Ba9 O39 2.608790 1_455
Ba9 O53 2.627889 1_555
Ba9 O46 2.636291 1_545
Ba9 O23 2.865492 1_554
Ba9 O34 2.973668 1_544
Ba9 O3 3.252971 1_555
Ba9 O10 3.366103 1_445
Ba10 O51 2.605790 1_455
Ba10 O36 2.608790 1_455
Ba10 O54 2.627889 1_555
Ba10 O45 2.636291 1_555
Ba10 O20 2.865492 1_555
Ba10 O33 2.973668 1_555
Ba10 O0 3.252971 1_555
Ba10 O9 3.366103 1_455
Ba11 O50 2.605790 1_555
Ba11 O37 2.608790 1_555
Ba11 O55 2.627889 1_555
Ba11 O44 2.636291 1_555
Ba11 O21 2.865492 1_555
Ba11 O32 2.973668 1_555
Ba11 O1 3.252971 1_555
Ba11 O8 3.366103 1_555
O0 O12 1.244072 1_555
O1 O13 1.244072 1_555
O10 O22 1.348288 1_555
O10 O35 1.351599 1_565
O11 O23 1.348288 1_555
O11 O34 1.351599 1_545
O14 O2 1.244072 1_555
O15 O3 1.244072 1_555
O16 Zn4 1.900457 1_455
O17 Zn5 1.900457 1_555
O18 Zn6 1.900457 1_555
O19 Zn7 1.900457 1_455
O20 O8 1.348288 1_555
O21 O9 1.348288 1_555
O24 Zn0 1.874008 1_555
O25 Zn1 1.874008 1_555
O26 Zn2 1.874008 1_555
O27 Zn3 1.874008 1_555
O28 O4 1.235186 1_555
O29 O5 1.235186 1_555
O30 O6 1.235186 1_555
O31 O7 1.235186 1_555
O32 O9 1.351599 1_555
O32 Zn8 2.632967 1_555
O33 O8 1.351599 1_555
O33 Zn9 2.632967 1_555
O34 Zn10 2.632967 1_556
O35 Zn11 2.632967 1_554
O36 Zn0 1.834942 1_555
O37 Zn1 1.834942 1_555
O38 Zn2 1.834942 1_555
O39 Zn3 1.834942 1_555
O40 Zn4 1.844113 1_555
O41 Zn5 1.844113 1_555
O42 Zn6 1.844113 1_555
O43 Zn7 1.844113 1_555
O44 Zn8 1.782358 1_555
O45 Zn9 1.782358 1_555
O46 Zn10 1.782358 1_555
O47 Zn11 1.782358 1_555
O48 Zn0 1.803008 1_555
O49 Zn1 1.803008 1_555
O50 Zn2 1.803008 1_555
O51 Zn3 1.803008 1_555
O52 Zn4 1.805571 1_555
O53 Zn5 1.805571 1_555
O54 Zn6 1.805571 1_555
O55 Zn7 1.805571 1_555
O56 Zn8 1.777569 1_555
O57 Zn9 1.777569 1_555
O58 Zn10 1.777569 1_555
O59 Zn11 1.777569 1_555
