# generated using pymatgen
data_Li3Mn4(BO3)4
_symmetry_space_group_name_H-M   'P 1'
_cell_length_a   7.86967700
_cell_length_b   7.95441326
_cell_length_c   9.11695823
_cell_angle_alpha   110.44170253
_cell_angle_beta   109.46715408
_cell_angle_gamma   83.43988360
_symmetry_Int_Tables_number   1
_chemical_formula_structural   Li3Mn4(BO3)4
_chemical_formula_sum   'Li6 Mn8 B8 O24'
_cell_volume   504.19781355
_cell_formula_units_Z   2
loop_
 _symmetry_equiv_pos_site_id
 _symmetry_equiv_pos_as_xyz
  1  'x, y, z'
loop_
 _atom_site_type_symbol
 _atom_site_label
 _atom_site_symmetry_multiplicity
 _atom_site_fract_x
 _atom_site_fract_y
 _atom_site_fract_z
 _atom_site_occupancy
  Li  Li0  1  0.67598200  0.01556700  0.72761500  1
  Li  Li1  1  0.16094500  0.50343000  0.73133000  1
  Li  Li2  1  0.42173400  0.25986100  0.22145200  1
  Li  Li3  1  0.57826600  0.74013900  0.77854800  1
  Li  Li4  1  0.83905500  0.49657000  0.26867000  1
  Li  Li5  1  0.32401800  0.98443300  0.27238500  1
  Mn  Mn0  1  0.03373500  0.21057600  0.43285000  1
  Mn  Mn1  1  0.46973300  0.28718200  0.58204500  1
  Mn  Mn2  1  0.78674800  0.46844900  0.92186100  1
  Mn  Mn3  1  0.27860100  0.97010900  0.91432700  1
  Mn  Mn4  1  0.72139900  0.02989100  0.08567300  1
  Mn  Mn5  1  0.21325200  0.53155100  0.07813900  1
  Mn  Mn6  1  0.53026700  0.71281800  0.41795500  1
  Mn  Mn7  1  0.96626500  0.78942400  0.56715000  1
  B  B0  1  0.46786100  0.29170000  0.91300800  1
  B  B1  1  0.05010000  0.22453900  0.10966800  1
  B  B2  1  0.70784400  0.04184000  0.41232400  1
  B  B3  1  0.20592600  0.52300400  0.40713000  1
  B  B4  1  0.79407400  0.47699600  0.59287000  1
  B  B5  1  0.29215600  0.95816000  0.58767600  1
  B  B6  1  0.94990000  0.77546100  0.89033200  1
  B  B7  1  0.53213900  0.70830000  0.08699200  1
  O  O0  1  0.02195800  0.33644100  0.01620000  1
  O  O1  1  0.26684000  0.05472200  0.48078900  1
  O  O2  1  0.32822700  0.40905400  0.88942700  1
  O  O3  1  0.19347600  0.10796400  0.12148900  1
  O  O4  1  0.59022100  0.26023700  0.82064200  1
  O  O5  1  0.06864800  0.75773700  0.80040300  1
  O  O6  1  0.22479100  0.42044500  0.51106900  1
  O  O7  1  0.55295300  0.14115800  0.37699900  1
  O  O8  1  0.06575200  0.63969200  0.38514700  1
  O  O9  1  0.83396900  0.02814700  0.33162700  1
  O  O10  1  0.33016800  0.49846500  0.32110200  1
  O  O11  1  0.48884200  0.19148300  0.01703100  1
  O  O12  1  0.51115800  0.80851700  0.98296900  1
  O  O13  1  0.66983200  0.50153500  0.67889800  1
  O  O14  1  0.16603100  0.97185300  0.66837300  1
  O  O15  1  0.93424800  0.36030800  0.61485300  1
  O  O16  1  0.44704700  0.85884200  0.62300100  1
  O  O17  1  0.77520900  0.57955500  0.48893100  1
  O  O18  1  0.93135200  0.24226300  0.19959700  1
  O  O19  1  0.40977900  0.73976300  0.17935800  1
  O  O20  1  0.80652400  0.89203600  0.87851100  1
  O  O21  1  0.67177300  0.59094600  0.11057300  1
  O  O22  1  0.73316000  0.94527800  0.51921100  1
  O  O23  1  0.97804200  0.66355900  0.98380000  1
loop_
_geom_bond_atom_site_label_1
_geom_bond_atom_site_label_2
_geom_bond_distance
_geom_bond_site_symmetry_2
Li0 O20 1.919659 1_545
Li0 O4 1.972553 1_555
Li0 O22 1.973690 1_545
Li0 O16 2.060842 1_545
Li1 O2 1.907723 1_555
Li1 O15 1.990825 1_455
Li1 O5 2.023726 1_555
Li1 O6 2.095593 1_555
Li2 O7 1.924939 1_555
Li2 O10 1.966288 1_555
Li2 O11 1.982537 1_555
Li2 O3 2.037838 1_555
Li3 O16 1.924939 1_555
Li3 O13 1.966288 1_555
Li3 O12 1.982537 1_555
Li3 O20 2.037838 1_555
Li4 O21 1.907723 1_555
Li4 O8 1.990825 1_655
Li4 O18 2.023726 1_555
Li4 O17 2.095593 1_555
Li5 O3 1.919659 1_565
Li5 O19 1.972553 1_555
Li5 O1 1.973690 1_565
Li5 O7 2.060842 1_565
Mn0 O9 2.011889 1_455
Mn0 O15 2.014260 1_455
Mn0 O1 2.101813 1_555
Mn0 O18 2.102598 1_455
Mn0 O6 2.140874 1_555
Mn1 O7 2.097192 1_555
Mn1 O6 2.106878 1_555
Mn1 O4 2.140397 1_555
Mn1 O13 2.191270 1_555
Mn1 O1 2.306637 1_555
Mn2 O23 2.085398 1_555
Mn2 O21 2.096030 1_556
Mn2 O0 2.096242 1_656
Mn2 O4 2.133774 1_555
Mn2 O13 2.194506 1_555
Mn3 O3 2.108834 1_566
Mn3 O14 2.123206 1_555
Mn3 O12 2.157366 1_555
Mn3 O5 2.220539 1_555
Mn3 O11 2.279555 1_566
Mn4 O20 2.108834 1_544
Mn4 O9 2.123206 1_555
Mn4 O11 2.157366 1_555
Mn4 O18 2.220539 1_555
Mn4 O12 2.279555 1_544
Mn5 O0 2.085398 1_555
Mn5 O2 2.096030 1_554
Mn5 O23 2.096242 1_454
Mn5 O19 2.133774 1_555
Mn5 O10 2.194506 1_555
Mn6 O16 2.097192 1_555
Mn6 O17 2.106878 1_555
Mn6 O19 2.140397 1_555
Mn6 O10 2.191270 1_555
Mn6 O22 2.306637 1_555
Mn7 O14 2.011889 1_655
Mn7 O8 2.014260 1_655
Mn7 O22 2.101813 1_555
Mn7 O5 2.102598 1_655
Mn7 O17 2.140874 1_555
B0 O2 1.368747 1_555
B0 O11 1.398494 1_556
B0 O4 1.427308 1_555
B1 O3 1.376327 1_555
B1 O0 1.387981 1_555
B1 O18 1.401865 1_455
B2 O7 1.381917 1_555
B2 O22 1.392028 1_545
B2 O9 1.394406 1_555
B3 O8 1.366456 1_555
B3 O10 1.403504 1_555
B3 O6 1.415651 1_555
B4 O15 1.366456 1_555
B4 O13 1.403504 1_555
B4 O17 1.415651 1_555
B5 O16 1.381917 1_555
B5 O1 1.392028 1_565
B5 O14 1.394406 1_555
B6 O20 1.376327 1_555
B6 O23 1.387981 1_555
B6 O5 1.401865 1_655
B7 O21 1.368747 1_555
B7 O12 1.398494 1_554
B7 O19 1.427308 1_555
