# generated using pymatgen
data_CaRhO3
_symmetry_space_group_name_H-M   'P 1'
_cell_length_a   3.13312540
_cell_length_b   8.87479078
_cell_length_c   12.45363577
_cell_angle_alpha   104.14409269
_cell_angle_beta   90.00000000
_cell_angle_gamma   90.00000000
_symmetry_Int_Tables_number   1
_chemical_formula_structural   CaRhO3
_chemical_formula_sum   'Ca6 Rh6 O18'
_cell_volume   335.78585892
_cell_formula_units_Z   6
loop_
 _symmetry_equiv_pos_site_id
 _symmetry_equiv_pos_as_xyz
  1  'x, y, z'
loop_
 _atom_site_type_symbol
 _atom_site_label
 _atom_site_symmetry_multiplicity
 _atom_site_fract_x
 _atom_site_fract_y
 _atom_site_fract_z
 _atom_site_occupancy
  Ca  Ca0  1  0.75000000  0.61607955  0.66846851  1
  Ca  Ca1  1  0.25000000  0.38392045  0.33153149  1
  Ca  Ca2  1  0.75000000  0.99337328  0.64966844  1
  Ca  Ca3  1  0.25000000  0.00662672  0.35033156  1
  Ca  Ca4  1  0.25000000  0.33123277  0.05242825  1
  Ca  Ca5  1  0.75000000  0.66876723  0.94757175  1
  Rh  Rh0  1  0.75000000  0.27174772  0.54432186  1
  Rh  Rh1  1  0.25000000  0.72825228  0.45567814  1
  Rh  Rh2  1  0.25000000  0.99953179  0.89168843  1
  Rh  Rh3  1  0.75000000  0.00046821  0.10831157  1
  Rh  Rh4  1  0.75000000  0.64561483  0.19411245  1
  Rh  Rh5  1  0.25000000  0.35438517  0.80588755  1
  O  O0  1  0.75000000  0.87516777  0.81986053  1
  O  O1  1  0.25000000  0.12483223  0.18013947  1
  O  O2  1  0.25000000  0.78704169  0.61681989  1
  O  O3  1  0.75000000  0.21295831  0.38318011  1
  O  O4  1  0.25000000  0.12859547  0.54756554  1
  O  O5  1  0.75000000  0.87140453  0.45243446  1
  O  O6  1  0.25000000  0.41433489  0.55016127  1
  O  O7  1  0.75000000  0.58566511  0.44983873  1
  O  O8  1  0.75000000  0.32674266  0.70552133  1
  O  O9  1  0.25000000  0.67325734  0.29447867  1
  O  O10  1  0.25000000  0.58041729  0.80856678  1
  O  O11  1  0.75000000  0.41958271  0.19143322  1
  O  O12  1  0.25000000  0.12398963  0.78518966  1
  O  O13  1  0.75000000  0.87601037  0.21481034  1
  O  O14  1  0.75000000  0.39132732  0.91334698  1
  O  O15  1  0.25000000  0.60867268  0.08665302  1
  O  O16  1  0.75000000  0.11701482  0.98575912  1
  O  O17  1  0.25000000  0.88298518  0.01424088  1
loop_
_geom_bond_atom_site_label_1
_geom_bond_atom_site_label_2
_geom_bond_distance
_geom_bond_site_symmetry_2
Ca0 O2 2.376311 1_655
Ca0 O2 2.376311 1_555
Ca0 O10 2.422448 1_555
Ca0 O10 2.422448 1_655
Ca0 O6 2.557606 1_655
Ca0 O6 2.557606 1_555
Ca0 O0 2.592875 1_555
Ca0 O7 2.669639 1_555
Ca0 O8 2.717652 1_555
Ca1 O3 2.376311 1_455
Ca1 O3 2.376311 1_555
Ca1 O11 2.422448 1_555
Ca1 O11 2.422448 1_455
Ca1 O7 2.557606 1_455
Ca1 O7 2.557606 1_555
Ca1 O1 2.592875 1_555
Ca1 O6 2.669639 1_555
Ca1 O9 2.717652 1_555
Ca2 O2 2.368223 1_655
Ca2 O2 2.368223 1_555
Ca2 O12 2.385403 1_565
Ca2 O12 2.385403 1_665
Ca2 O5 2.430142 1_555
Ca2 O4 2.501379 1_665
Ca2 O4 2.501379 1_565
Ca2 O0 2.584471 1_555
Ca2 O8 2.869023 1_565
Ca3 O3 2.368223 1_555
Ca3 O3 2.368223 1_455
Ca3 O13 2.385403 1_445
Ca3 O13 2.385403 1_545
Ca3 O4 2.430142 1_555
Ca3 O5 2.501379 1_445
Ca3 O5 2.501379 1_545
Ca3 O1 2.584471 1_555
Ca3 O9 2.869023 1_545
Ca4 O11 2.324287 1_455
Ca4 O11 2.324287 1_555
Ca4 O15 2.394015 1_555
Ca4 O16 2.446706 1_454
Ca4 O16 2.446706 1_554
Ca4 O14 2.487986 1_554
Ca4 O14 2.487986 1_454
Ca4 O1 2.703473 1_555
Ca5 O10 2.324287 1_555
Ca5 O10 2.324287 1_655
Ca5 O14 2.394015 1_555
Ca5 O17 2.446706 1_656
Ca5 O17 2.446706 1_556
Ca5 O15 2.487986 1_556
Ca5 O15 2.487986 1_656
Ca5 O0 2.703473 1_555
O0 Rh2 1.997483 1_555
O0 Rh2 1.997483 1_655
O1 Rh3 1.997483 1_555
O1 Rh3 1.997483 1_455
O2 Rh1 1.946216 1_555
O3 Rh0 1.946216 1_555
O4 Rh0 2.023577 1_555
O4 Rh0 2.023577 1_455
O5 Rh1 2.023577 1_555
O5 Rh1 2.023577 1_655
O6 Rh0 2.003933 1_455
O6 Rh0 2.003933 1_555
O7 Rh1 2.003933 1_555
O7 Rh1 2.003933 1_655
O8 Rh0 1.946662 1_555
O8 Rh5 1.981604 1_655
O8 Rh5 1.981604 1_555
O9 Rh1 1.946662 1_555
O9 Rh4 1.981604 1_455
O9 Rh4 1.981604 1_555
O10 Rh5 1.998096 1_555
O11 Rh4 1.998096 1_555
O12 Rh2 1.922243 1_545
O12 Rh5 1.997425 1_555
O13 Rh3 1.922243 1_565
O13 Rh4 1.997425 1_555
O14 Rh5 2.034237 1_555
O14 Rh5 2.034237 1_655
O15 Rh4 2.034237 1_455
O15 Rh4 2.034237 1_555
O16 Rh3 2.042228 1_556
O16 Rh2 2.077670 1_545
O16 Rh2 2.077670 1_645
O17 Rh2 2.042228 1_554
O17 Rh3 2.077670 1_565
O17 Rh3 2.077670 1_465
