# generated using pymatgen
data_Mg5Ti
_symmetry_space_group_name_H-M   'P 1'
_cell_length_a   16.75588720
_cell_length_b   16.75588720
_cell_length_c   10.20779400
_cell_angle_alpha   90.00000000
_cell_angle_beta   90.00000000
_cell_angle_gamma   158.62133077
_symmetry_Int_Tables_number   1
_chemical_formula_structural   Mg5Ti
_chemical_formula_sum   'Mg40 Ti8'
_cell_volume   1044.72067383
_cell_formula_units_Z   8
loop_
 _symmetry_equiv_pos_site_id
 _symmetry_equiv_pos_as_xyz
  1  'x, y, z'
loop_
 _atom_site_type_symbol
 _atom_site_label
 _atom_site_symmetry_multiplicity
 _atom_site_fract_x
 _atom_site_fract_y
 _atom_site_fract_z
 _atom_site_occupancy
  Mg  Mg0_0  1  0.49982650  0.00017350  0.25000000  1
  Mg  Mg0_1  1  0.49982650  0.00017350  0.75000000  1
  Mg  Mg0_2  1  0.49982650  0.50017350  0.25000000  1
  Mg  Mg0_3  1  0.49982650  0.50017350  0.75000000  1
  Mg  Mg0_4  1  0.99982650  0.00017350  0.25000000  1
  Mg  Mg0_5  1  0.99982650  0.00017350  0.75000000  1
  Mg  Mg0_6  1  0.99982650  0.50017350  0.25000000  1
  Mg  Mg0_7  1  0.99982650  0.50017350  0.75000000  1
  Mg  Mg1_0  1  0.16497100  0.33502900  0.25000000  1
  Mg  Mg1_1  1  0.16497100  0.33502900  0.75000000  1
  Mg  Mg1_2  1  0.16497100  0.83502900  0.25000000  1
  Mg  Mg1_3  1  0.16497100  0.83502900  0.75000000  1
  Mg  Mg1_4  1  0.66497100  0.33502900  0.25000000  1
  Mg  Mg1_5  1  0.66497100  0.33502900  0.75000000  1
  Mg  Mg1_6  1  0.66497100  0.83502900  0.25000000  1
  Mg  Mg1_7  1  0.66497100  0.83502900  0.75000000  1
  Mg  Mg2_0  1  0.33560600  0.16439400  0.25000000  1
  Mg  Mg2_1  1  0.33560600  0.16439400  0.75000000  1
  Mg  Mg2_2  1  0.33560600  0.66439400  0.25000000  1
  Mg  Mg2_3  1  0.33560600  0.66439400  0.75000000  1
  Mg  Mg2_4  1  0.83560600  0.16439400  0.25000000  1
  Mg  Mg2_5  1  0.83560600  0.16439400  0.75000000  1
  Mg  Mg2_6  1  0.83560600  0.66439400  0.25000000  1
  Mg  Mg2_7  1  0.83560600  0.66439400  0.75000000  1
  Mg  Mg3_0  1  0.05737450  0.44262550  0.00000000  1
  Mg  Mg3_1  1  0.05737450  0.44262550  0.50000000  1
  Mg  Mg3_2  1  0.05737450  0.94262550  0.00000000  1
  Mg  Mg3_3  1  0.05737450  0.94262550  0.50000000  1
  Mg  Mg3_4  1  0.55737450  0.44262550  0.00000000  1
  Mg  Mg3_5  1  0.55737450  0.44262550  0.50000000  1
  Mg  Mg3_6  1  0.55737450  0.94262550  0.00000000  1
  Mg  Mg3_7  1  0.55737450  0.94262550  0.50000000  1
  Mg  Mg4_0  1  0.21998550  0.28001450  0.00000000  1
  Mg  Mg4_1  1  0.21998550  0.28001450  0.50000000  1
  Mg  Mg4_2  1  0.21998550  0.78001450  0.00000000  1
  Mg  Mg4_3  1  0.21998550  0.78001450  0.50000000  1
  Mg  Mg4_4  1  0.71998550  0.28001450  0.00000000  1
  Mg  Mg4_5  1  0.71998550  0.28001450  0.50000000  1
  Mg  Mg4_6  1  0.71998550  0.78001450  0.00000000  1
  Mg  Mg4_7  1  0.71998550  0.78001450  0.50000000  1
  Ti  Ti0_0  1  0.38890300  0.11109700  0.00000000  1
  Ti  Ti0_1  1  0.38890300  0.11109700  0.50000000  1
  Ti  Ti0_2  1  0.38890300  0.61109700  0.00000000  1
  Ti  Ti0_3  1  0.38890300  0.61109700  0.50000000  1
  Ti  Ti0_4  1  0.88890300  0.11109700  0.00000000  1
  Ti  Ti0_5  1  0.88890300  0.11109700  0.50000000  1
  Ti  Ti0_6  1  0.88890300  0.61109700  0.00000000  1
  Ti  Ti0_7  1  0.88890300  0.61109700  0.50000000  1
loop_
_geom_bond_atom_site_label_1
_geom_bond_atom_site_label_2
_geom_bond_distance
_geom_bond_site_symmetry_2
Mg0_0 Mg0_6 3.107944 1_555
Mg0_0 Mg0_6 3.107944 1_445
Mg0_0 Mg4_2 3.145300 1_545
Mg0_0 Mg4_3 3.145300 1_545
Mg0_0 Mg4_4 3.145300 1_555
Mg0_0 Mg4_5 3.145300 1_555
Mg0_0 Mg3_7 3.178637 1_545
Mg0_0 Mg3_6 3.178637 1_545
Mg0_0 Mg1_4 3.197345 1_555
Mg0_0 Mg1_2 3.197345 1_545
Mg0_0 Mg2_4 3.223971 1_555
Mg0_0 Mg2_2 3.223971 1_545
Mg0_1 Mg0_7 3.107944 1_555
Mg0_1 Mg0_7 3.107944 1_445
Mg0_1 Mg4_3 3.145300 1_545
Mg0_1 Mg4_2 3.145300 1_546
Mg0_1 Mg4_5 3.145300 1_555
Mg0_1 Mg4_4 3.145300 1_556
Mg0_1 Mg3_6 3.178637 1_546
Mg0_1 Mg3_7 3.178637 1_545
Mg0_1 Mg1_5 3.197345 1_555
Mg0_1 Mg1_3 3.197345 1_545
Mg0_1 Mg2_5 3.223971 1_555
Mg0_1 Mg2_3 3.223971 1_545
Mg0_2 Mg0_4 3.107944 1_455
Mg0_2 Mg0_4 3.107944 1_565
Mg0_2 Mg4_1 3.145300 1_555
Mg0_2 Mg4_0 3.145300 1_555
Mg0_2 Mg4_6 3.145300 1_555
Mg0_2 Mg4_7 3.145300 1_555
Mg0_2 Mg3_4 3.178637 1_555
Mg0_2 Mg3_5 3.178637 1_555
Mg0_2 Mg1_6 3.197345 1_555
Mg0_2 Mg1_0 3.197345 1_555
Mg0_2 Mg2_6 3.223971 1_555
Mg0_2 Mg2_0 3.223971 1_555
Mg0_3 Mg0_5 3.107944 1_455
Mg0_3 Mg0_5 3.107944 1_565
Mg0_3 Mg4_0 3.145300 1_556
Mg0_3 Mg4_1 3.145300 1_555
Mg0_3 Mg4_6 3.145300 1_556
Mg0_3 Mg4_7 3.145300 1_555
Mg0_3 Mg3_4 3.178637 1_556
Mg0_3 Mg3_5 3.178637 1_555
Mg0_3 Mg1_7 3.197345 1_555
Mg0_3 Mg1_1 3.197345 1_555
Mg0_3 Mg2_7 3.223971 1_555
Mg0_3 Mg2_1 3.223971 1_555
Mg0_4 Mg4_6 3.145300 1_545
Mg0_4 Mg4_7 3.145300 1_545
Mg0_4 Mg4_1 3.145300 1_655
Mg0_4 Mg4_0 3.145300 1_655
Mg0_4 Mg3_2 3.178637 1_645
Mg0_4 Mg3_3 3.178637 1_645
Mg0_4 Mg1_0 3.197345 1_655
Mg0_4 Mg1_6 3.197345 1_545
Mg0_4 Mg2_0 3.223971 1_655
Mg0_4 Mg2_6 3.223971 1_545
Mg0_5 Mg4_7 3.145300 1_545
Mg0_5 Mg4_6 3.145300 1_546
Mg0_5 Mg4_0 3.145300 1_656
Mg0_5 Mg4_1 3.145300 1_655
Mg0_5 Mg3_3 3.178637 1_645
Mg0_5 Mg3_2 3.178637 1_646
Mg0_5 Mg1_1 3.197345 1_655
Mg0_5 Mg1_7 3.197345 1_545
Mg0_5 Mg2_1 3.223971 1_655
Mg0_5 Mg2_7 3.223971 1_545
Mg0_6 Mg4_4 3.145300 1_555
Mg0_6 Mg4_5 3.145300 1_555
Mg0_6 Mg4_2 3.145300 1_655
Mg0_6 Mg4_3 3.145300 1_655
Mg0_6 Mg3_0 3.178637 1_655
Mg0_6 Mg3_1 3.178637 1_655
Mg0_6 Mg1_2 3.197345 1_655
Mg0_6 Mg1_4 3.197345 1_555
Mg0_6 Mg2_2 3.223971 1_655
Mg0_6 Mg2_4 3.223971 1_555
Mg0_7 Mg4_4 3.145300 1_556
Mg0_7 Mg4_5 3.145300 1_555
Mg0_7 Mg4_2 3.145300 1_656
Mg0_7 Mg4_3 3.145300 1_655
Mg0_7 Mg3_0 3.178637 1_656
Mg0_7 Mg3_1 3.178637 1_655
Mg0_7 Mg1_3 3.197345 1_655
Mg0_7 Mg1_5 3.197345 1_555
Mg0_7 Mg2_3 3.223971 1_655
Mg0_7 Mg2_5 3.223971 1_555
Mg1_0 Mg2_2 3.040602 1_555
Mg1_0 Mg2_4 3.040602 1_455
Mg1_0 Mg1_6 3.107944 1_555
Mg1_0 Mg1_6 3.107944 1_445
Mg1_0 Ti0_4 3.108724 1_455
Mg1_0 Ti0_5 3.108724 1_455
Mg1_0 Ti0_3 3.108724 1_555
Mg1_0 Ti0_2 3.108724 1_555
Mg1_0 Mg4_1 3.129614 1_555
Mg1_0 Mg4_0 3.129614 1_555
Mg1_1 Mg2_3 3.040602 1_555
Mg1_1 Mg2_5 3.040602 1_455
Mg1_1 Mg1_7 3.107944 1_555
Mg1_1 Mg1_7 3.107944 1_445
Mg1_1 Ti0_4 3.108724 1_456
Mg1_1 Ti0_5 3.108724 1_455
Mg1_1 Ti0_2 3.108724 1_556
Mg1_1 Ti0_3 3.108724 1_555
Mg1_1 Mg4_1 3.129614 1_555
Mg1_1 Mg4_0 3.129614 1_556
Mg1_2 Mg2_0 3.040602 1_565
Mg1_2 Mg2_6 3.040602 1_455
Mg1_2 Mg1_4 3.107944 1_455
Mg1_2 Mg1_4 3.107944 1_565
Mg1_2 Ti0_7 3.108724 1_455
Mg1_2 Ti0_6 3.108724 1_455
Mg1_2 Ti0_0 3.108724 1_565
Mg1_2 Ti0_1 3.108724 1_565
Mg1_2 Mg4_2 3.129614 1_555
Mg1_2 Mg4_3 3.129614 1_555
Mg1_3 Mg2_1 3.040602 1_565
Mg1_3 Mg2_7 3.040602 1_455
Mg1_3 Mg1_5 3.107944 1_455
Mg1_3 Mg1_5 3.107944 1_565
Mg1_3 Ti0_6 3.108724 1_456
Mg1_3 Ti0_7 3.108724 1_455
Mg1_3 Ti0_0 3.108724 1_566
Mg1_3 Ti0_1 3.108724 1_565
Mg1_3 Mg4_3 3.129614 1_555
Mg1_3 Mg4_2 3.129614 1_556
Mg1_4 Mg2_0 3.040602 1_555
Mg1_4 Mg2_6 3.040602 1_555
Mg1_4 Ti0_1 3.108724 1_555
Mg1_4 Ti0_0 3.108724 1_555
Mg1_4 Ti0_6 3.108724 1_555
Mg1_4 Ti0_7 3.108724 1_555
Mg1_4 Mg4_4 3.129614 1_555
Mg1_4 Mg4_5 3.129614 1_555
Mg1_5 Mg2_1 3.040602 1_555
Mg1_5 Mg2_7 3.040602 1_555
Mg1_5 Ti0_0 3.108724 1_556
Mg1_5 Ti0_1 3.108724 1_555
Mg1_5 Ti0_7 3.108724 1_555
Mg1_5 Ti0_6 3.108724 1_556
Mg1_5 Mg4_4 3.129614 1_556
Mg1_5 Mg4_5 3.129614 1_555
Mg1_6 Mg2_2 3.040602 1_555
Mg1_6 Mg2_4 3.040602 1_565
Mg1_6 Ti0_3 3.108724 1_555
Mg1_6 Ti0_2 3.108724 1_555
Mg1_6 Ti0_4 3.108724 1_565
Mg1_6 Ti0_5 3.108724 1_565
Mg1_6 Mg4_6 3.129614 1_555
Mg1_6 Mg4_7 3.129614 1_555
Mg1_7 Mg2_3 3.040602 1_555
Mg1_7 Mg2_5 3.040602 1_565
Mg1_7 Ti0_2 3.108724 1_556
Mg1_7 Ti0_3 3.108724 1_555
Mg1_7 Ti0_5 3.108724 1_565
Mg1_7 Ti0_4 3.108724 1_566
Mg1_7 Mg4_6 3.129614 1_556
Mg1_7 Mg4_7 3.129614 1_555
Mg2_0 Ti0_0 3.097218 1_555
Mg2_0 Ti0_1 3.097218 1_555
Mg2_0 Mg2_6 3.107944 1_555
Mg2_0 Mg2_6 3.107944 1_445
Mg2_0 Mg3_3 3.129146 1_545
Mg2_0 Mg3_2 3.129146 1_545
Mg2_0 Mg3_5 3.129146 1_555
Mg2_0 Mg3_4 3.129146 1_555
Mg2_1 Ti0_0 3.097218 1_556
Mg2_1 Ti0_1 3.097218 1_555
Mg2_1 Mg2_7 3.107944 1_555
Mg2_1 Mg2_7 3.107944 1_445
Mg2_1 Mg3_2 3.129146 1_546
Mg2_1 Mg3_3 3.129146 1_545
Mg2_1 Mg3_4 3.129146 1_556
Mg2_1 Mg3_5 3.129146 1_555
Mg2_2 Ti0_3 3.097218 1_555
Mg2_2 Ti0_2 3.097218 1_555
Mg2_2 Mg2_4 3.107944 1_565
Mg2_2 Mg2_4 3.107944 1_455
Mg2_2 Mg3_0 3.129146 1_555
Mg2_2 Mg3_1 3.129146 1_555
Mg2_2 Mg3_7 3.129146 1_555
Mg2_2 Mg3_6 3.129146 1_555
Mg2_3 Ti0_2 3.097218 1_556
Mg2_3 Ti0_3 3.097218 1_555
Mg2_3 Mg2_5 3.107944 1_455
Mg2_3 Mg2_5 3.107944 1_565
Mg2_3 Mg3_0 3.129146 1_556
Mg2_3 Mg3_1 3.129146 1_555
Mg2_3 Mg3_6 3.129146 1_556
Mg2_3 Mg3_7 3.129146 1_555
Mg2_4 Ti0_4 3.097218 1_555
Mg2_4 Ti0_5 3.097218 1_555
Mg2_4 Mg3_7 3.129146 1_545
Mg2_4 Mg3_6 3.129146 1_545
Mg2_4 Mg3_0 3.129146 1_655
Mg2_4 Mg3_1 3.129146 1_655
Mg2_5 Ti0_4 3.097218 1_556
Mg2_5 Ti0_5 3.097218 1_555
Mg2_5 Mg3_6 3.129146 1_546
Mg2_5 Mg3_7 3.129146 1_545
Mg2_5 Mg3_0 3.129146 1_656
Mg2_5 Mg3_1 3.129146 1_655
Mg2_6 Ti0_7 3.097218 1_555
Mg2_6 Ti0_6 3.097218 1_555
Mg2_6 Mg3_4 3.129146 1_555
Mg2_6 Mg3_5 3.129146 1_555
Mg2_6 Mg3_3 3.129146 1_655
Mg2_6 Mg3_2 3.129146 1_655
Mg2_7 Ti0_6 3.097218 1_556
Mg2_7 Ti0_7 3.097218 1_555
Mg2_7 Mg3_4 3.129146 1_556
Mg2_7 Mg3_5 3.129146 1_555
Mg2_7 Mg3_2 3.129146 1_656
Mg2_7 Mg3_3 3.129146 1_655
Mg3_0 Ti0_4 3.102053 1_455
Mg3_0 Ti0_2 3.102053 1_555
Mg3_0 Mg3_6 3.107944 1_555
Mg3_0 Mg3_6 3.107944 1_445
Mg3_0 Mg4_2 3.270509 1_555
Mg3_0 Mg4_4 3.270509 1_455
Mg3_1 Ti0_5 3.102053 1_455
Mg3_1 Ti0_3 3.102053 1_555
Mg3_1 Mg3_7 3.107944 1_555
Mg3_1 Mg3_7 3.107944 1_445
Mg3_1 Mg4_3 3.270509 1_555
Mg3_1 Mg4_5 3.270509 1_455
Mg3_2 Ti0_6 3.102053 1_455
Mg3_2 Ti0_0 3.102053 1_565
Mg3_2 Mg3_4 3.107944 1_565
Mg3_2 Mg3_4 3.107944 1_455
Mg3_2 Mg4_6 3.270509 1_455
Mg3_2 Mg4_0 3.270509 1_565
Mg3_3 Ti0_7 3.102053 1_455
Mg3_3 Ti0_1 3.102053 1_565
Mg3_3 Mg3_5 3.107944 1_565
Mg3_3 Mg3_5 3.107944 1_455
Mg3_3 Mg4_7 3.270509 1_455
Mg3_3 Mg4_1 3.270509 1_565
Mg3_4 Ti0_0 3.102053 1_555
Mg3_4 Ti0_6 3.102053 1_555
Mg3_4 Mg4_6 3.270509 1_555
Mg3_4 Mg4_0 3.270509 1_555
Mg3_5 Ti0_1 3.102053 1_555
Mg3_5 Ti0_7 3.102053 1_555
Mg3_5 Mg4_7 3.270509 1_555
Mg3_5 Mg4_1 3.270509 1_555
Mg3_6 Ti0_2 3.102053 1_555
Mg3_6 Ti0_4 3.102053 1_565
Mg3_6 Mg4_2 3.270509 1_555
Mg3_6 Mg4_4 3.270509 1_565
Mg3_7 Ti0_3 3.102053 1_555
Mg3_7 Ti0_5 3.102053 1_565
Mg3_7 Mg4_3 3.270509 1_555
Mg3_7 Mg4_5 3.270509 1_565
Mg4_0 Ti0_2 3.089351 1_555
Mg4_0 Ti0_4 3.089351 1_455
Mg4_0 Mg4_6 3.107944 1_555
Mg4_0 Mg4_6 3.107944 1_445
Mg4_1 Ti0_5 3.089351 1_455
Mg4_1 Ti0_3 3.089351 1_555
Mg4_1 Mg4_7 3.107944 1_445
Mg4_1 Mg4_7 3.107944 1_555
Mg4_2 Ti0_6 3.089351 1_455
Mg4_2 Ti0_0 3.089351 1_565
Mg4_2 Mg4_4 3.107944 1_455
Mg4_2 Mg4_4 3.107944 1_565
Mg4_3 Ti0_7 3.089351 1_455
Mg4_3 Ti0_1 3.089351 1_565
Mg4_3 Mg4_5 3.107944 1_455
Mg4_3 Mg4_5 3.107944 1_565
Mg4_4 Ti0_0 3.089351 1_555
Mg4_4 Ti0_6 3.089351 1_555
Mg4_5 Ti0_1 3.089351 1_555
Mg4_5 Ti0_7 3.089351 1_555
Mg4_6 Ti0_2 3.089351 1_555
Mg4_6 Ti0_4 3.089351 1_565
Mg4_7 Ti0_5 3.089351 1_565
Mg4_7 Ti0_3 3.089351 1_555
Ti0_0 Ti0_6 3.107944 1_555
Ti0_0 Ti0_6 3.107944 1_445
Ti0_1 Ti0_7 3.107944 1_555
Ti0_1 Ti0_7 3.107944 1_445
Ti0_2 Ti0_4 3.107944 1_565
Ti0_2 Ti0_4 3.107944 1_455
Ti0_3 Ti0_5 3.107944 1_565
Ti0_3 Ti0_5 3.107944 1_455
