# generated using pymatgen
data_Li4MnCo3O8
_symmetry_space_group_name_H-M   'P 1'
_cell_length_a   2.94251500
_cell_length_b   6.66560711
_cell_length_c   7.75319975
_cell_angle_alpha   90.94990318
_cell_angle_beta   97.20436052
_cell_angle_gamma   102.53135952
_symmetry_Int_Tables_number   1
_chemical_formula_structural   Li4MnCo3O8
_chemical_formula_sum   'Li4 Mn1 Co3 O8'
_cell_volume   147.12329829
_cell_formula_units_Z   1
loop_
 _symmetry_equiv_pos_site_id
 _symmetry_equiv_pos_as_xyz
  1  'x, y, z'
loop_
 _atom_site_type_symbol
 _atom_site_label
 _atom_site_symmetry_multiplicity
 _atom_site_fract_x
 _atom_site_fract_y
 _atom_site_fract_z
 _atom_site_occupancy
  Li  Li0  1  0.25180700  0.87559200  0.12610200  1
  Li  Li1  1  0.25177600  0.37655800  0.62604400  1
  Li  Li2  1  0.74822400  0.62344200  0.37395600  1
  Li  Li3  1  0.74819300  0.12440800  0.87389800  1
  Mn  Mn0  1  0.50000000  0.00000000  0.50000000  1
  Co  Co0  1  0.00234600  0.75250200  0.75244300  1
  Co  Co1  1  0.99765400  0.24749800  0.24755700  1
  Co  Co2  1  0.50000000  0.50000000  0.00000000  1
  O  O0  1  0.62202800  0.80248900  0.92694800  1
  O  O1  1  0.62438600  0.29940200  0.42794400  1
  O  O2  1  0.12492100  0.55172600  0.17626000  1
  O  O3  1  0.15054100  0.05365800  0.68263700  1
  O  O4  1  0.84945900  0.94634200  0.31736300  1
  O  O5  1  0.87507900  0.44827400  0.82374000  1
  O  O6  1  0.37561400  0.70059800  0.57205600  1
  O  O7  1  0.37797200  0.19751100  0.07305200  1
loop_
_geom_bond_atom_site_label_1
_geom_bond_atom_site_label_2
_geom_bond_distance
_geom_bond_site_symmetry_2
Li0 O0 2.106105 1_554
Li0 O4 2.115859 1_555
Li0 O4 2.117176 1_455
Li0 O7 2.152502 1_565
Li0 O2 2.159949 1_555
Li0 O0 2.218388 1_454
Li1 O5 2.106733 1_455
Li1 O1 2.113410 1_555
Li1 O3 2.167864 1_555
Li1 O6 2.167937 1_555
Li1 O5 2.198158 1_555
Li1 O1 2.209579 1_455
Li2 O2 2.106733 1_655
Li2 O6 2.113410 1_555
Li2 O4 2.167864 1_555
Li2 O1 2.167937 1_555
Li2 O2 2.198158 1_555
Li2 O6 2.209579 1_655
Li3 O7 2.106105 1_556
Li3 O3 2.115859 1_555
Li3 O3 2.117176 1_655
Li3 O0 2.152502 1_545
Li3 O5 2.159949 1_555
Li3 O7 2.218388 1_656
Mn0 O3 1.923131 1_555
Mn0 O4 1.923131 1_545
Mn0 O1 2.049427 1_555
Mn0 O6 2.049427 1_545
Mn0 O3 2.191699 1_655
Mn0 O4 2.191699 1_445
Co0 O0 1.928870 1_455
Co0 O6 1.953515 1_555
Co0 O3 2.056219 1_565
Co0 O5 2.077880 1_455
Co0 O0 2.090228 1_555
Co0 O6 2.129987 1_455
Co1 O7 1.928870 1_655
Co1 O1 1.953515 1_555
Co1 O4 2.056219 1_545
Co1 O2 2.077880 1_655
Co1 O7 2.090228 1_555
Co1 O1 2.129987 1_655
Co2 O5 1.931922 1_554
Co2 O2 1.931922 1_555
Co2 O7 2.071179 1_555
Co2 O0 2.071179 1_554
Co2 O2 2.108723 1_655
Co2 O5 2.108723 1_454
