# generated using pymatgen
data_Mg14MnSi
_symmetry_space_group_name_H-M   'P 1'
_cell_length_a   6.22053369
_cell_length_b   6.21766208
_cell_length_c   10.15491039
_cell_angle_alpha   90.00000000
_cell_angle_beta   90.00000000
_cell_angle_gamma   119.98473562
_symmetry_Int_Tables_number   1
_chemical_formula_structural   Mg14MnSi
_chemical_formula_sum   'Mg14 Mn1 Si1'
_cell_volume   340.19526859
_cell_formula_units_Z   1
loop_
 _symmetry_equiv_pos_site_id
 _symmetry_equiv_pos_as_xyz
  1  'x, y, z'
loop_
 _atom_site_type_symbol
 _atom_site_label
 _atom_site_symmetry_multiplicity
 _atom_site_fract_x
 _atom_site_fract_y
 _atom_site_fract_z
 _atom_site_occupancy
  Mg  Mg0  1  0.16972550  0.33486225  0.62500000  1
  Mg  Mg1  1  0.16791180  0.83395540  0.62500000  1
  Mg  Mg2  1  0.67314740  0.33507282  0.12500000  1
  Mg  Mg3  1  0.66493681  0.33339931  0.62500000  1
  Mg  Mg4  1  0.67314740  0.83807358  0.12500000  1
  Mg  Mg5  1  0.66493681  0.83153650  0.62500000  1
  Mg  Mg6  1  0.32784957  0.16423271  0.36072335  1
  Mg  Mg7  1  0.32784957  0.16423271  0.88927665  1
  Mg  Mg8  1  0.32784957  0.66361786  0.36072335  1
  Mg  Mg9  1  0.32784957  0.66361786  0.88927665  1
  Mg  Mg10  1  0.83881297  0.16940698  0.37089595  1
  Mg  Mg11  1  0.83881297  0.16940698  0.87910405  1
  Mg  Mg12  1  0.83752302  0.66876201  0.36995946  1
  Mg  Mg13  1  0.83752302  0.66876201  0.88004054  1
  Mn  Mn0  1  0.16137097  0.33068498  0.12500000  1
  Si  Si0  1  0.16075309  0.83037604  0.12500000  1
loop_
_geom_bond_atom_site_label_1
_geom_bond_atom_site_label_2
_geom_bond_distance
_geom_bond_site_symmetry_2
Mg0 Mg5 3.085034 1_555
Mg0 Mg3 3.085035 1_555
Mg0 Mg1 3.108846 1_545
Mg0 Mg1 3.108846 1_555
Mg0 Mg5 3.135519 1_445
Mg0 Mg3 3.135519 1_455
Mg0 Mg10 3.136460 1_455
Mg0 Mg11 3.136460 1_455
Mg0 Mg6 3.215334 1_555
Mg0 Mg7 3.215334 1_555
Mg0 Mg8 3.215340 1_555
Mg0 Mg9 3.215340 1_555
Mg1 Mg3 3.099304 1_565
Mg1 Mg5 3.099305 1_555
Mg1 Mg3 3.121283 1_455
Mg1 Mg5 3.121284 1_455
Mg1 Mg12 3.142689 1_455
Mg1 Mg13 3.142689 1_455
Mg1 Mg8 3.219784 1_555
Mg1 Mg9 3.219784 1_555
Mg1 Mg6 3.219789 1_565
Mg1 Mg7 3.219789 1_565
Mg2 Mg7 3.031741 1_554
Mg2 Mg6 3.031741 1_555
Mg2 Mn0 3.050737 1_655
Mg2 Si0 3.057368 1_655
Mg2 Mg4 3.090173 1_545
Mg2 Mg4 3.127489 1_555
Mg2 Si0 3.163718 1_545
Mg2 Mn0 3.169976 1_555
Mg3 Mg5 3.097249 1_555
Mg3 Mg5 3.120413 1_545
Mg3 Mg6 3.240514 1_555
Mg3 Mg7 3.240514 1_555
Mg4 Mg8 3.031741 1_555
Mg4 Mg9 3.031741 1_554
Mg4 Mn0 3.050737 1_665
Mg4 Si0 3.057368 1_655
Mg4 Si0 3.163718 1_555
Mg4 Mn0 3.169976 1_555
Mg5 Mg8 3.240514 1_555
Mg5 Mg9 3.240514 1_555
Mg6 Mn0 2.990796 1_555
Mg6 Si0 2.993788 1_545
Mg6 Mg8 3.105008 1_555
Mg6 Mg8 3.112654 1_545
Mg7 Mn0 2.990796 1_556
Mg7 Si0 2.993788 1_546
Mg7 Mg9 3.105008 1_555
Mg7 Mg9 3.112654 1_545
Mg8 Mn0 2.990803 1_555
Mg8 Si0 2.993782 1_555
Mg9 Mn0 2.990803 1_556
Mg9 Si0 2.993782 1_556
Mg10 Mn0 3.042314 1_655
Mg10 Mg8 3.060018 1_655
Mg10 Mg6 3.060018 1_655
Mg10 Mg2 3.069084 1_555
Mg10 Mg4 3.069090 1_545
Mg10 Mg12 3.108853 1_545
Mg10 Mg12 3.108853 1_555
Mg10 Mg3 3.157591 1_555
Mg10 Mg5 3.157597 1_545
Mg10 Mg8 3.164196 1_545
Mg10 Mg6 3.164196 1_555
Mg11 Mn0 3.042314 1_656
Mg11 Mg9 3.060018 1_655
Mg11 Mg7 3.060018 1_655
Mg11 Mg2 3.069084 1_556
Mg11 Mg4 3.069090 1_546
Mg11 Mg13 3.108853 1_545
Mg11 Mg13 3.108853 1_555
Mg11 Mg3 3.157591 1_555
Mg11 Mg5 3.157597 1_545
Mg11 Mg9 3.164196 1_545
Mg11 Mg7 3.164196 1_555
Mg12 Si0 3.036589 1_655
Mg12 Mg6 3.067637 1_665
Mg12 Mg8 3.067637 1_655
Mg12 Mg4 3.068797 1_555
Mg12 Mg2 3.068803 1_555
Mg12 Mg6 3.155971 1_555
Mg12 Mg8 3.155972 1_555
Mg12 Mg5 3.157620 1_555
Mg12 Mg3 3.157626 1_555
Mg13 Si0 3.036589 1_656
Mg13 Mg7 3.067637 1_665
Mg13 Mg9 3.067637 1_655
Mg13 Mg4 3.068797 1_556
Mg13 Mg2 3.068803 1_556
Mg13 Mg7 3.155971 1_555
Mg13 Mg9 3.155972 1_555
Mg13 Mg5 3.157620 1_555
Mg13 Mg3 3.157626 1_555
Mn0 Si0 3.108833 1_545
Mn0 Si0 3.108833 1_555
