# generated using pymatgen
data_Dy4MnSe7
_symmetry_space_group_name_H-M   'P 1'
_cell_length_a   6.83032587
_cell_length_b   6.83032587
_cell_length_c   11.99502431
_cell_angle_alpha   75.66322713
_cell_angle_beta   75.66322713
_cell_angle_gamma   33.60135958
_symmetry_Int_Tables_number   1
_chemical_formula_structural   Dy4MnSe7
_chemical_formula_sum   'Dy4 Mn1 Se7'
_cell_volume   299.15396019
_cell_formula_units_Z   1
loop_
 _symmetry_equiv_pos_site_id
 _symmetry_equiv_pos_as_xyz
  1  'x, y, z'
loop_
 _atom_site_type_symbol
 _atom_site_label
 _atom_site_symmetry_multiplicity
 _atom_site_fract_x
 _atom_site_fract_y
 _atom_site_fract_z
 _atom_site_occupancy
  Dy  Dy0  1  0.69310103  0.69310103  0.20398422  1
  Dy  Dy1  1  0.30644593  0.30644593  0.80145019  1
  Dy  Dy2  1  0.99969290  0.99969290  0.00603352  1
  Dy  Dy3  1  0.11397832  0.11397832  0.56719444  1
  Mn  Mn0  1  0.88416016  0.88416016  0.42286746  1
  Se  Se0  1  0.74397361  0.74397361  0.64045005  1
  Se  Se1  1  0.26788892  0.26788892  0.35242570  1
  Se  Se2  1  0.33815475  0.33815475  0.05045995  1
  Se  Se3  1  0.66007003  0.66007003  0.94847582  1
  Se  Se4  1  0.03400014  0.03400014  0.22497324  1
  Se  Se5  1  0.96365895  0.96365895  0.78496153  1
  Se  Se6  1  0.49487625  0.49487625  0.49672390  1
loop_
_geom_bond_atom_site_label_1
_geom_bond_atom_site_label_2
_geom_bond_distance
_geom_bond_site_symmetry_2
Dy0 Se4 2.831820 1_655
Dy0 Se4 2.831820 1_565
Dy0 Se1 2.987567 1_565
Dy0 Se1 2.987567 1_655
Dy0 Se2 3.013334 1_565
Dy0 Se2 3.013334 1_655
Dy0 Se3 3.203850 1_554
Dy1 Se5 2.820184 1_455
Dy1 Se5 2.820184 1_545
Dy1 Se3 2.987604 1_455
Dy1 Se3 2.987604 1_545
Dy1 Se0 3.018429 1_545
Dy1 Se0 3.018429 1_455
Dy1 Se2 3.119959 1_556
Dy2 Se4 2.776272 1_665
Dy2 Se5 2.810759 1_554
Dy2 Se3 2.832686 1_564
Dy2 Se3 2.832686 1_654
Dy2 Se2 2.839377 1_655
Dy2 Se2 2.839377 1_565
Dy3 Se6 2.778370 1_545
Dy3 Se6 2.778370 1_455
Dy3 Se1 2.829383 1_555
Dy3 Se5 2.833932 1_445
Dy3 Se0 2.886637 1_545
Dy3 Se0 2.886637 1_455
Mn0 Se4 2.658603 1_665
Mn0 Se6 2.728097 1_565
Mn0 Se6 2.728097 1_655
Mn0 Se1 2.754695 1_565
Mn0 Se1 2.754695 1_655
Mn0 Se0 2.774409 1_555
