# generated using pymatgen
data_PrZnGa
_symmetry_space_group_name_H-M   'P 1'
_cell_length_a   4.45855090
_cell_length_b   4.45863822
_cell_length_c   7.81083923
_cell_angle_alpha   90.00000000
_cell_angle_beta   90.00000000
_cell_angle_gamma   119.99936726
_symmetry_Int_Tables_number   1
_chemical_formula_structural   PrZnGa
_chemical_formula_sum   'Pr2 Zn2 Ga2'
_cell_volume   134.47051347
_cell_formula_units_Z   2
loop_
 _symmetry_equiv_pos_site_id
 _symmetry_equiv_pos_as_xyz
  1  'x, y, z'
loop_
 _atom_site_type_symbol
 _atom_site_label
 _atom_site_symmetry_multiplicity
 _atom_site_fract_x
 _atom_site_fract_y
 _atom_site_fract_z
 _atom_site_occupancy
  Pr  Pr0  1  -0.00000000  -0.00000000  0.50000000  1
  Pr  Pr1  1  -0.00000000  -0.00000000  -0.00000000  1
  Zn  Zn0  1  0.33330264  0.66660529  0.75000000  1
  Zn  Zn1  1  0.66669736  0.33339471  0.25000000  1
  Ga  Ga0  1  0.33336226  0.66672352  0.25000000  1
  Ga  Ga1  1  0.66663774  0.33327648  0.75000000  1
loop_
_geom_bond_atom_site_label_1
_geom_bond_atom_site_label_2
_geom_bond_distance
_geom_bond_site_symmetry_2
Pr0 Zn0 3.230855 1_555
Pr0 Zn1 3.230855 1_445
Pr0 Zn0 3.231098 1_445
Pr0 Zn1 3.231098 1_555
Pr0 Zn1 3.231099 1_455
Pr0 Zn0 3.231099 1_545
Pr1 Zn1 3.230855 1_445
Pr1 Zn0 3.230855 1_554
Pr1 Zn0 3.231098 1_444
Pr1 Zn1 3.231098 1_555
Pr1 Zn1 3.231099 1_455
Pr1 Zn0 3.231099 1_544
Ga0 Zn1 2.574152 1_555
Ga0 Zn1 2.574155 1_455
Ga0 Zn1 2.574230 1_565
Ga0 Pr1 3.230915 1_665
Ga0 Pr0 3.230915 1_665
Ga0 Pr1 3.230918 1_565
Ga0 Pr0 3.230918 1_565
Ga0 Pr0 3.231219 1_555
Ga0 Pr1 3.231219 1_555
Ga1 Zn0 2.574152 1_555
Ga1 Zn0 2.574155 1_655
Ga1 Zn0 2.574230 1_545
Ga1 Pr0 3.230915 1_555
Ga1 Pr1 3.230915 1_556
Ga1 Pr0 3.230918 1_655
Ga1 Pr1 3.230918 1_656
Ga1 Pr0 3.231219 1_665
Ga1 Pr1 3.231219 1_666
