# generated using pymatgen
data_CaMn4(CoO6)2
_symmetry_space_group_name_H-M   'P 1'
_cell_length_a   5.10367112
_cell_length_b   5.04714163
_cell_length_c   10.61806333
_cell_angle_alpha   90.03538875
_cell_angle_beta   97.98022780
_cell_angle_gamma   60.37064973
_symmetry_Int_Tables_number   1
_chemical_formula_structural   CaMn4(CoO6)2
_chemical_formula_sum   'Ca1 Mn4 Co2 O12'
_cell_volume   234.70799401
_cell_formula_units_Z   1
loop_
 _symmetry_equiv_pos_site_id
 _symmetry_equiv_pos_as_xyz
  1  'x, y, z'
loop_
 _atom_site_type_symbol
 _atom_site_label
 _atom_site_symmetry_multiplicity
 _atom_site_fract_x
 _atom_site_fract_y
 _atom_site_fract_z
 _atom_site_occupancy
  Ca  Ca0  1  0.49938200  0.90276500  0.24997000  1
  Mn  Mn0  1  0.41031300  0.29164600  0.98420000  1
  Mn  Mn1  1  0.26064000  0.86522700  0.51590100  1
  Mn  Mn2  1  0.58981300  0.20182800  0.51584200  1
  Mn  Mn3  1  0.73946800  0.62602800  0.98418500  1
  Co  Co0  1  0.06718100  0.95999300  0.97136200  1
  Co  Co1  1  0.93277500  0.52710500  0.52850100  1
  O  O0  1  0.95889900  0.17752400  0.60654200  1
  O  O1  1  0.11767100  0.26778800  0.08092900  1
  O  O2  1  0.04126500  0.63616400  0.89345800  1
  O  O3  1  0.39222400  0.97687700  0.88975100  1
  O  O4  1  0.88233300  0.88503300  0.41905100  1
  O  O5  1  0.24293500  0.19984500  0.41506800  1
  O  O6  1  0.31005400  0.51687200  0.60877000  1
  O  O7  1  0.45792000  0.60311100  0.08331800  1
  O  O8  1  0.75701800  0.94319800  0.08502300  1
  O  O9  1  0.69013100  0.32670700  0.89127000  1
  O  O10  1  0.54198900  0.56066600  0.41662900  1
  O  O11  1  0.60798800  0.86912200  0.61023200  1
loop_
_geom_bond_atom_site_label_1
_geom_bond_atom_site_label_2
_geom_bond_distance
_geom_bond_site_symmetry_2
Ca0 O7 2.381700 1_555
Ca0 O10 2.384463 1_555
Ca0 O5 2.393263 1_565
Ca0 O8 2.396505 1_555
Ca0 O1 2.428040 1_565
Ca0 O4 2.429819 1_555
Mn0 O3 1.911942 1_545
Mn0 O9 1.919842 1_555
Mn0 O2 1.938892 1_555
Mn0 O8 1.941487 1_546
Mn0 O1 1.975849 1_556
Mn0 O7 1.985572 1_556
Mn1 O6 1.903127 1_555
Mn1 O11 1.920331 1_555
Mn1 O10 1.942060 1_555
Mn1 O0 1.947263 1_465
Mn1 O5 1.957345 1_565
Mn1 O4 2.013285 1_455
Mn2 O11 1.911831 1_545
Mn2 O6 1.919627 1_555
Mn2 O0 1.938761 1_555
Mn2 O5 1.941834 1_555
Mn2 O4 1.976186 1_545
Mn2 O10 1.985777 1_555
Mn3 O9 1.903762 1_555
Mn3 O3 1.920326 1_555
Mn3 O7 1.941794 1_556
Mn3 O2 1.947579 1_655
Mn3 O8 1.957045 1_556
Mn3 O1 2.012726 1_656
Co0 O2 1.885401 1_555
Co0 O9 1.969220 1_465
Co0 O3 2.012258 1_555
Co0 O1 2.035567 1_566
Co0 O7 2.104077 1_556
Co0 O8 2.152381 1_456
Co1 O0 1.885738 1_555
Co1 O6 1.970460 1_655
Co1 O11 2.012186 1_555
Co1 O4 2.034705 1_555
Co1 O10 2.103784 1_555
Co1 O5 2.150881 1_655
