# generated using pymatgen
data_HoMgV2O6
_symmetry_space_group_name_H-M   'P 1'
_cell_length_a   5.21294000
_cell_length_b   5.47437956
_cell_length_c   7.59234043
_cell_angle_alpha   89.79779393
_cell_angle_beta   89.91039254
_cell_angle_gamma   89.81820235
_symmetry_Int_Tables_number   1
_chemical_formula_structural   HoMgV2O6
_chemical_formula_sum   'Ho2 Mg2 V4 O12'
_cell_volume   216.66456561
_cell_formula_units_Z   2
loop_
 _symmetry_equiv_pos_site_id
 _symmetry_equiv_pos_as_xyz
  1  'x, y, z'
loop_
 _atom_site_type_symbol
 _atom_site_label
 _atom_site_symmetry_multiplicity
 _atom_site_fract_x
 _atom_site_fract_y
 _atom_site_fract_z
 _atom_site_occupancy
  Ho  Ho0  1  0.01610100  0.06861500  0.25128900  1
  Ho  Ho1  1  0.51426400  0.43244500  0.74992100  1
  Mg  Mg0  1  0.49051600  0.55105700  0.25029600  1
  Mg  Mg1  1  0.98401500  0.94433600  0.74854700  1
  V  V0  1  0.99924800  0.50740500  0.00056300  1
  V  V1  1  0.00014800  0.50559100  0.50063000  1
  V  V2  1  0.49835600  0.99120000  0.50106700  1
  V  V3  1  0.49937100  0.99125700  0.00068100  1
  O  O0  1  0.10893000  0.56050200  0.74963700  1
  O  O1  1  0.20646300  0.81643500  0.05749100  1
  O  O2  1  0.19774300  0.80084400  0.43440000  1
  O  O3  1  0.31566000  0.31291400  0.06270300  1
  O  O4  1  0.32968700  0.29688800  0.43932700  1
  O  O5  1  0.36611300  0.04283000  0.74855800  1
  O  O6  1  0.61523500  0.93996900  0.24998500  1
  O  O7  1  0.68194500  0.71119600  0.56149300  1
  O  O8  1  0.68952500  0.69767900  0.93684500  1
  O  O9  1  0.79847500  0.17935400  0.94063300  1
  O  O10  1  0.81448000  0.19025000  0.56446000  1
  O  O11  1  0.87372500  0.45923400  0.25147300  1
loop_
_geom_bond_atom_site_label_1
_geom_bond_atom_site_label_2
_geom_bond_distance
_geom_bond_site_symmetry_2
Ho0 O6 2.207337 1_445
Ho0 O2 2.226903 1_545
Ho0 O1 2.248699 1_545
Ho0 O11 2.261315 1_455
Ho0 O3 2.503989 1_555
Ho0 O4 2.510962 1_555
Ho0 O10 2.683366 1_455
Ho0 O9 2.685418 1_454
Ho1 O0 2.224128 1_555
Ho1 O8 2.232512 1_555
Ho1 O7 2.264619 1_555
Ho1 O5 2.270783 1_555
Ho1 O10 2.486562 1_555
Ho1 O9 2.488132 1_555
Ho1 O4 2.657308 1_555
Ho1 O3 2.669292 1_556
Mg0 O11 2.058398 1_555
Mg0 O3 2.140959 1_555
Mg0 O4 2.165237 1_555
Mg0 O6 2.228073 1_555
Mg0 O2 2.479221 1_555
Mg0 O1 2.534589 1_555
Mg0 O8 2.714437 1_554
Mg0 O7 2.715569 1_555
Mg1 O5 2.065194 1_665
Mg1 O10 2.128344 1_565
Mg1 O9 2.172231 1_565
Mg1 O0 2.197856 1_655
Mg1 O7 2.481527 1_555
Mg1 O8 2.493289 1_555
Mg1 O1 2.707135 1_656
Mg1 O2 2.747090 1_655
O0 V1 1.998636 1_555
O0 V0 2.008634 1_456
O1 V3 1.854111 1_555
O1 V0 2.057637 1_455
O2 V2 1.953056 1_555
O2 V1 1.982316 1_555
O3 V0 2.016084 1_455
O3 V3 2.057497 1_545
O4 V2 1.944141 1_545
O4 V1 2.112308 1_555
O5 V2 2.020980 1_545
O5 V3 2.055613 1_546
O6 V3 2.006261 1_555
O6 V2 2.020623 1_555
O7 V2 1.860946 1_555
O7 V1 2.054597 1_655
O8 V3 1.947906 1_556
O8 V0 1.978401 1_556
O9 V3 1.924565 1_546
O9 V0 2.132322 1_556
O10 V2 2.037722 1_545
O10 V1 2.038374 1_655
O11 V1 2.021274 1_655
O11 V0 2.029867 1_555
