# generated using pymatgen
data_CeTl2InSe4
_symmetry_space_group_name_H-M   'P 1'
_cell_length_a   6.70786884
_cell_length_b   6.70786884
_cell_length_c   6.70786884
_cell_angle_alpha   66.24210536
_cell_angle_beta   72.62865011
_cell_angle_gamma   107.37134989
_symmetry_Int_Tables_number   1
_chemical_formula_structural   CeTl2InSe4
_chemical_formula_sum   'Ce1 Tl2 In1 Se4'
_cell_volume   231.36113719
_cell_formula_units_Z   1
loop_
 _symmetry_equiv_pos_site_id
 _symmetry_equiv_pos_as_xyz
  1  'x, y, z'
loop_
 _atom_site_type_symbol
 _atom_site_label
 _atom_site_symmetry_multiplicity
 _atom_site_fract_x
 _atom_site_fract_y
 _atom_site_fract_z
 _atom_site_occupancy
  Ce  Ce0  1  0.50000000  0.25000000  0.25000000  1
  Tl  Tl0  1  0.00000000  0.25000000  0.75000000  1
  Tl  Tl1  1  0.00000000  0.75000000  0.25000000  1
  In  In0  1  0.50000000  0.75000000  0.75000000  1
  Se  Se0  1  0.50000000  0.34603364  0.78586163  1
  Se  Se1  1  0.50000000  0.71413837  0.15396636  1
  Se  Se2  1  0.13189526  0.78586163  0.71413837  1
  Se  Se3  1  0.86810474  0.15396636  0.34603364  1
loop_
_geom_bond_atom_site_label_1
_geom_bond_atom_site_label_2
_geom_bond_distance
_geom_bond_site_symmetry_2
Ce0 Se0 2.914123 1_554
Ce0 Se1 2.914123 1_555
Ce0 Se2 2.914123 1_545
Ce0 Se3 2.914123 1_555
In0 Se0 2.622100 1_555
In0 Se1 2.622100 1_556
In0 Se3 2.622100 1_565
In0 Se2 2.622100 1_555
Se0 Tl0 3.322382 1_555
Se0 Tl1 3.322382 1_655
Se1 Tl0 3.322382 1_664
Se1 Tl1 3.322382 1_555
Se2 Tl1 3.322382 1_556
Se2 Tl0 3.322382 1_555
Se3 Tl1 3.322382 1_645
Se3 Tl0 3.322382 1_655
