# generated using pymatgen
data_Rb(Nb3S4)2
_symmetry_space_group_name_H-M   'P 1'
_cell_length_a   3.40940719
_cell_length_b   9.78994438
_cell_length_c   9.78995848
_cell_angle_alpha   119.99942100
_cell_angle_beta   90.00006407
_cell_angle_gamma   90.00030310
_symmetry_Int_Tables_number   1
_chemical_formula_structural   Rb(Nb3S4)2
_chemical_formula_sum   'Rb1 Nb6 S8'
_cell_volume   282.99131864
_cell_formula_units_Z   1
loop_
 _symmetry_equiv_pos_site_id
 _symmetry_equiv_pos_as_xyz
  1  'x, y, z'
loop_
 _atom_site_type_symbol
 _atom_site_label
 _atom_site_symmetry_multiplicity
 _atom_site_fract_x
 _atom_site_fract_y
 _atom_site_fract_z
 _atom_site_occupancy
  Rb  Rb0  1  0.50001379  0.00000044  0.00000367  1
  Nb  Nb0  1  0.74910043  0.37721981  0.89095371  1
  Nb  Nb1  1  0.74909463  0.10905045  0.48626531  1
  Nb  Nb2  1  0.74910134  0.51372547  0.62278295  1
  Nb  Nb3  1  0.25088984  0.62271243  0.10892626  1
  Nb  Nb4  1  0.25089970  0.89106969  0.51377887  1
  Nb  Nb5  1  0.25090001  0.48621343  0.37728368  1
  S  S0  1  0.75080907  0.66666832  0.33333408  1
  S  S1  1  0.24919351  0.33333483  0.66666834  1
  S  S2  1  0.75253445  0.05916371  0.71114851  1
  S  S3  1  0.75255508  0.28885357  0.34801286  1
  S  S4  1  0.75254605  0.65198689  0.94083944  1
  S  S5  1  0.24745115  0.94092624  0.28889582  1
  S  S6  1  0.24745178  0.71110686  0.65203477  1
  S  S7  1  0.24745918  0.34796886  0.05907074  1
loop_
_geom_bond_atom_site_label_1
_geom_bond_atom_site_label_2
_geom_bond_distance
_geom_bond_site_symmetry_2
Rb0 S5 3.272695 1_545
Rb0 S6 3.272739 1_544
Rb0 S7 3.272742 1_555
Rb0 S4 3.272816 1_544
Rb0 S3 3.272825 1_555
Rb0 S2 3.272844 1_554
Nb0 S7 2.479744 1_656
Nb0 S4 2.482098 1_555
Nb0 S7 2.487426 1_556
Nb0 S1 2.639593 1_555
Nb0 S1 2.640009 1_655
Nb0 S2 2.704292 1_555
Nb1 S5 2.479785 1_645
Nb1 S2 2.482117 1_555
Nb1 S5 2.487462 1_545
Nb1 S1 2.639601 1_555
Nb1 S1 2.640019 1_655
Nb1 S3 2.704262 1_555
Nb2 S6 2.479812 1_655
Nb2 S3 2.482104 1_555
Nb2 S6 2.487547 1_555
Nb2 S1 2.639515 1_555
Nb2 S1 2.639932 1_655
Nb2 S4 2.704288 1_555
Nb3 S4 2.479599 1_454
Nb3 S7 2.481973 1_555
Nb3 S4 2.487351 1_554
Nb3 S0 2.640344 1_555
Nb3 S0 2.640705 1_455
Nb3 S5 2.705688 1_555
Nb4 S2 2.479725 1_465
Nb4 S5 2.481927 1_555
Nb4 S2 2.487361 1_565
Nb4 S0 2.640293 1_555
Nb4 S0 2.640674 1_455
Nb4 S6 2.705699 1_555
Nb5 S3 2.479596 1_455
Nb5 S6 2.482058 1_555
Nb5 S3 2.487357 1_555
Nb5 S0 2.640302 1_555
Nb5 S0 2.640714 1_455
Nb5 S7 2.705680 1_555
