# generated using pymatgen
data_Yb4NiB13
_symmetry_space_group_name_H-M   'P 1'
_cell_length_a   7.36705200
_cell_length_b   7.36705200
_cell_length_c   6.75340200
_cell_angle_alpha   90.00000000
_cell_angle_beta   90.00000000
_cell_angle_gamma   90.00000000
_symmetry_Int_Tables_number   1
_chemical_formula_structural   Yb4NiB13
_chemical_formula_sum   'Yb8 Ni2 B26'
_cell_volume   366.53046070
_cell_formula_units_Z   2
loop_
 _symmetry_equiv_pos_site_id
 _symmetry_equiv_pos_as_xyz
  1  'x, y, z'
loop_
 _atom_site_type_symbol
 _atom_site_label
 _atom_site_symmetry_multiplicity
 _atom_site_fract_x
 _atom_site_fract_y
 _atom_site_fract_z
 _atom_site_occupancy
  Yb  Yb0  1  0.68035200  0.18936500  0.50000000  1
  Yb  Yb1  1  0.31964800  0.81063500  0.50000000  1
  Yb  Yb2  1  0.18035200  0.31063500  0.00000000  1
  Yb  Yb3  1  0.81964800  0.68936500  0.00000000  1
  Yb  Yb4  1  0.81063500  0.68035200  0.50000000  1
  Yb  Yb5  1  0.18936500  0.31964800  0.50000000  1
  Yb  Yb6  1  0.68936500  0.18035200  0.00000000  1
  Yb  Yb7  1  0.31063500  0.81964800  0.00000000  1
  Ni  Ni0  1  0.50000000  0.50000000  0.50000000  1
  Ni  Ni1  1  0.00000000  0.00000000  0.00000000  1
  B  B0  1  0.50000000  0.50000000  0.00000000  1
  B  B1  1  0.00000000  0.00000000  0.50000000  1
  B  B2  1  0.90835900  0.40835900  0.25000000  1
  B  B3  1  0.09164100  0.59164100  0.25000000  1
  B  B4  1  0.40835900  0.09164100  0.75000000  1
  B  B5  1  0.59164100  0.90835900  0.75000000  1
  B  B6  1  0.59164100  0.90835900  0.25000000  1
  B  B7  1  0.40835900  0.09164100  0.25000000  1
  B  B8  1  0.90835900  0.40835900  0.75000000  1
  B  B9  1  0.09164100  0.59164100  0.75000000  1
  B  B10  1  0.53828500  0.66789000  0.23494400  1
  B  B11  1  0.46171500  0.33211000  0.23494400  1
  B  B12  1  0.03828500  0.83211000  0.73494400  1
  B  B13  1  0.96171500  0.16789000  0.73494400  1
  B  B14  1  0.33211000  0.53828500  0.23494400  1
  B  B15  1  0.66789000  0.46171500  0.23494400  1
  B  B16  1  0.16789000  0.03828500  0.73494400  1
  B  B17  1  0.83211000  0.96171500  0.73494400  1
  B  B18  1  0.46171500  0.33211000  0.76505600  1
  B  B19  1  0.53828500  0.66789000  0.76505600  1
  B  B20  1  0.96171500  0.16789000  0.26505600  1
  B  B21  1  0.03828500  0.83211000  0.26505600  1
  B  B22  1  0.66789000  0.46171500  0.76505600  1
  B  B23  1  0.33211000  0.53828500  0.76505600  1
  B  B24  1  0.83211000  0.96171500  0.26505600  1
  B  B25  1  0.16789000  0.03828500  0.26505600  1
loop_
_geom_bond_atom_site_label_1
_geom_bond_atom_site_label_2
_geom_bond_distance
_geom_bond_site_symmetry_2
Ni0 Yb0 2.646207 1_555
Ni0 Yb4 2.646207 1_555
Ni0 Yb1 2.646207 1_555
Ni0 Yb5 2.646207 1_555
Ni1 Yb3 2.646207 1_445
Ni1 Yb2 2.646207 1_555
Ni1 Yb6 2.646207 1_455
Ni1 Yb7 2.646207 1_545
B0 B19 2.031474 1_554
B0 B23 2.031474 1_554
B0 B10 2.031474 1_555
B0 B14 2.031474 1_555
B0 B11 2.031474 1_555
B0 B18 2.031474 1_554
B0 B22 2.031474 1_554
B0 B15 2.031474 1_555
B0 Yb2 2.737075 1_555
B0 Yb6 2.737075 1_555
B0 Yb3 2.737075 1_555
B0 Yb7 2.737075 1_555
B1 B21 2.031474 1_545
B1 B25 2.031474 1_555
B1 B17 2.031474 1_445
B1 B12 2.031474 1_545
B1 B24 2.031474 1_445
B1 B20 2.031474 1_455
B1 B13 2.031474 1_455
B1 B16 2.031474 1_555
B1 Yb1 2.737075 1_545
B1 Yb5 2.737075 1_555
B1 Yb4 2.737075 1_445
B1 Yb0 2.737075 1_455
B2 B20 1.817479 1_555
B2 B3 1.909539 1_655
B2 Yb4 2.717351 1_555
B2 Yb2 2.717351 1_655
B2 Yb3 2.750147 1_555
B2 Yb5 2.750147 1_655
B2 Yb6 2.876616 1_555
B2 Yb0 2.876616 1_555
B3 Yb3 2.717351 1_455
B3 Yb5 2.717351 1_555
B3 Yb4 2.750147 1_455
B3 Yb2 2.750147 1_555
B3 Yb7 2.876616 1_555
B3 Yb1 2.876616 1_555
B4 B5 1.909539 1_545
B4 Yb0 2.717351 1_555
B4 Yb7 2.717351 1_546
B4 Yb6 2.750147 1_556
B4 Yb1 2.750147 1_545
B4 Yb5 2.876616 1_555
B4 Yb2 2.876616 1_556
B5 Yb1 2.717351 1_555
B5 Yb6 2.717351 1_566
B5 Yb7 2.750147 1_556
B5 Yb0 2.750147 1_565
B5 Yb4 2.876616 1_555
B5 Yb3 2.876616 1_556
B6 B7 1.909539 1_565
B6 Yb1 2.717351 1_555
B6 Yb6 2.717351 1_565
B6 Yb7 2.750147 1_555
B6 Yb0 2.750147 1_565
B6 Yb4 2.876616 1_555
B6 Yb3 2.876616 1_555
B7 Yb0 2.717351 1_555
B7 Yb7 2.717351 1_545
B7 Yb1 2.750147 1_545
B7 Yb6 2.750147 1_555
B7 Yb5 2.876616 1_555
B7 Yb2 2.876616 1_555
B8 B9 1.909539 1_655
B8 Yb4 2.717351 1_555
B8 Yb2 2.717351 1_656
B8 Yb3 2.750147 1_556
B8 Yb5 2.750147 1_655
B8 Yb6 2.876616 1_556
B8 Yb0 2.876616 1_555
B9 Yb3 2.717351 1_456
B9 Yb5 2.717351 1_555
B9 Yb4 2.750147 1_455
B9 Yb2 2.750147 1_556
B9 Yb7 2.876616 1_556
B9 Yb1 2.876616 1_555
B10 B14 1.794079 1_555
B10 B15 1.794079 1_555
B10 B6 1.817479 1_555
B10 Ni0 2.193984 1_555
B10 Yb7 2.565183 1_555
B10 Yb3 2.615171 1_555
B10 Yb1 2.627637 1_555
B10 Yb4 2.690417 1_555
B11 B14 1.794079 1_555
B11 B15 1.794079 1_555
B11 B7 1.817479 1_555
B11 Ni0 2.193984 1_555
B11 Yb6 2.565183 1_555
B11 Yb2 2.615171 1_555
B11 Yb0 2.627637 1_555
B11 Yb5 2.690417 1_555
B12 B16 1.794079 1_565
B12 B17 1.794079 1_455
B12 B9 1.817479 1_555
B12 Ni1 2.193984 1_566
B12 Yb4 2.565183 1_455
B12 Yb1 2.615171 1_555
B12 Yb3 2.627637 1_456
B12 Yb7 2.690417 1_556
B13 B17 1.794079 1_545
B13 B16 1.794079 1_655
B13 B8 1.817479 1_555
B13 Ni1 2.193984 1_656
B13 Yb5 2.565183 1_655
B13 Yb0 2.615171 1_555
B13 Yb2 2.627637 1_656
B13 Yb6 2.690417 1_556
B14 B3 1.817479 1_555
B14 Ni0 2.193984 1_555
B14 Yb2 2.565183 1_555
B14 Yb7 2.615171 1_555
B14 Yb5 2.627637 1_555
B14 Yb1 2.690417 1_555
B15 B2 1.817479 1_555
B15 Ni0 2.193984 1_555
B15 Yb3 2.565183 1_555
B15 Yb6 2.615171 1_555
B15 Yb4 2.627637 1_555
B15 Yb0 2.690417 1_555
B16 B4 1.817479 1_555
B16 Ni1 2.193984 1_556
B16 Yb1 2.565183 1_545
B16 Yb5 2.615171 1_555
B16 Yb7 2.627637 1_546
B16 Yb2 2.690417 1_556
B17 B5 1.817479 1_555
B17 Ni1 2.193984 1_666
B17 Yb0 2.565183 1_565
B17 Yb4 2.615171 1_555
B17 Yb6 2.627637 1_566
B17 Yb3 2.690417 1_556
B18 B23 1.794079 1_555
B18 B22 1.794079 1_555
B18 B4 1.817479 1_555
B18 Ni0 2.193984 1_555
B18 Yb6 2.565183 1_556
B18 Yb2 2.615171 1_556
B18 Yb0 2.627637 1_555
B18 Yb5 2.690417 1_555
B19 B23 1.794079 1_555
B19 B22 1.794079 1_555
B19 B5 1.817479 1_555
B19 Ni0 2.193984 1_555
B19 Yb7 2.565183 1_556
B19 Yb3 2.615171 1_556
B19 Yb1 2.627637 1_555
B19 Yb4 2.690417 1_555
B20 B24 1.794079 1_545
B20 B25 1.794079 1_655
B20 Ni1 2.193984 1_655
B20 Yb5 2.565183 1_655
B20 Yb0 2.615171 1_555
B20 Yb2 2.627637 1_655
B20 Yb6 2.690417 1_555
B21 B25 1.794079 1_565
B21 B24 1.794079 1_455
B21 B3 1.817479 1_555
B21 Ni1 2.193984 1_565
B21 Yb4 2.565183 1_455
B21 Yb1 2.615171 1_555
B21 Yb3 2.627637 1_455
B21 Yb7 2.690417 1_555
B22 B8 1.817479 1_555
B22 Ni0 2.193984 1_555
B22 Yb3 2.565183 1_556
B22 Yb6 2.615171 1_556
B22 Yb4 2.627637 1_555
B22 Yb0 2.690417 1_555
B23 B9 1.817479 1_555
B23 Ni0 2.193984 1_555
B23 Yb2 2.565183 1_556
B23 Yb7 2.615171 1_556
B23 Yb5 2.627637 1_555
B23 Yb1 2.690417 1_555
B24 B6 1.817479 1_555
B24 Ni1 2.193984 1_665
B24 Yb0 2.565183 1_565
B24 Yb4 2.615171 1_555
B24 Yb6 2.627637 1_565
B24 Yb3 2.690417 1_555
B25 B7 1.817479 1_555
B25 Ni1 2.193984 1_555
B25 Yb1 2.565183 1_545
B25 Yb5 2.615171 1_555
B25 Yb7 2.627637 1_545
B25 Yb2 2.690417 1_555
