# generated using pymatgen
data_Sr4Mn2Ga2O11
_symmetry_space_group_name_H-M   'P 1'
_cell_length_a   8.56373165
_cell_length_b   8.53274895
_cell_length_c   5.62797337
_cell_angle_alpha   71.07855338
_cell_angle_beta   70.48286927
_cell_angle_gamma   38.43857735
_symmetry_Int_Tables_number   1
_chemical_formula_structural   Sr4Mn2Ga2O11
_chemical_formula_sum   'Sr4 Mn2 Ga2 O11'
_cell_volume   239.59430310
_cell_formula_units_Z   1
loop_
 _symmetry_equiv_pos_site_id
 _symmetry_equiv_pos_as_xyz
  1  'x, y, z'
loop_
 _atom_site_type_symbol
 _atom_site_label
 _atom_site_symmetry_multiplicity
 _atom_site_fract_x
 _atom_site_fract_y
 _atom_site_fract_z
 _atom_site_occupancy
  Sr  Sr0  1  0.62192100  0.12371800  0.87628200  1
  Sr  Sr1  1  0.12371800  0.62192100  0.37807900  1
  Sr  Sr2  1  0.37807900  0.87628200  0.12371800  1
  Sr  Sr3  1  0.87628200  0.37807900  0.62192100  1
  Mn  Mn0  1  0.00000000  0.50000000  0.00000000  1
  Mn  Mn1  1  0.50000000  0.00000000  0.50000000  1
  Ga  Ga0  1  0.73143800  0.26856200  0.26856200  1
  Ga  Ga1  1  0.26856200  0.73143800  0.73143800  1
  O  O0  1  0.07805200  0.67589100  0.92194800  1
  O  O1  1  0.67589100  0.07805200  0.32410900  1
  O  O2  1  0.92194800  0.32410900  0.07805200  1
  O  O3  1  0.32410900  0.92194800  0.67589100  1
  O  O4  1  0.72699500  0.72699500  0.27300500  1
  O  O5  1  0.27300500  0.27300500  0.72699500  1
  O  O6  1  0.75000000  0.75000000  0.75000000  1
  O  O7  1  0.25000000  0.25000000  0.25000000  1
  O  O8  1  0.50000000  0.50000000  0.50000000  1
  O  O9  1  0.00000000  0.00000000  0.50000000  1
  O  O10  1  0.50000000  0.50000000  0.00000000  1
loop_
_geom_bond_atom_site_label_1
_geom_bond_atom_site_label_2
_geom_bond_distance
_geom_bond_site_symmetry_2
Mn0 O2 1.959597 1_455
Mn0 O0 1.959597 1_554
Mn0 O5 2.003550 1_554
Mn0 O4 2.003550 1_455
Mn0 O6 2.006358 1_454
Mn0 O7 2.006358 1_555
Mn1 O1 1.959597 1_555
Mn1 O3 1.959597 1_545
Mn1 O5 2.003550 1_555
Mn1 O4 2.003550 1_545
Mn1 O6 2.006358 1_545
Mn1 O7 2.006358 1_555
Ga0 O8 1.826584 1_555
Ga0 O2 1.936214 1_555
Ga0 O1 1.936214 1_555
Ga0 O9 2.011699 1_655
Ga0 O10 2.011699 1_555
Ga1 O8 1.826584 1_555
Ga1 O3 1.936214 1_555
Ga1 O0 1.936214 1_555
Ga1 O10 2.011699 1_556
Ga1 O9 2.011699 1_565
O0 Sr0 2.564557 1_465
O0 Sr1 2.564557 1_556
O0 Sr1 3.092930 1_555
O0 Sr0 3.092930 1_555
O1 Sr1 2.564557 1_645
O1 Sr0 2.564557 1_554
O1 Sr1 3.092930 1_555
O1 Sr0 3.092930 1_555
O2 Sr2 2.564557 1_645
O2 Sr3 2.564557 1_554
O2 Sr2 3.092930 1_555
O2 Sr3 3.092930 1_555
O3 Sr3 2.564557 1_465
O3 Sr2 2.564557 1_556
O3 Sr2 3.092930 1_555
O3 Sr3 3.092930 1_555
O4 Sr2 2.505500 1_555
O4 Sr3 2.505500 1_555
O4 Sr1 2.987118 1_655
O4 Sr0 2.987118 1_564
O5 Sr0 2.505500 1_555
O5 Sr1 2.505500 1_555
O5 Sr3 2.987118 1_455
O5 Sr2 2.987118 1_546
O6 Sr0 2.710464 1_565
O6 Sr1 2.710464 1_655
O6 Sr2 2.710464 1_556
O6 Sr3 2.710464 1_555
O7 Sr3 2.710464 1_455
O7 Sr0 2.710464 1_554
O7 Sr1 2.710464 1_555
O7 Sr2 2.710464 1_545
O8 Sr3 2.774834 1_555
O8 Sr1 2.774834 1_555
O8 Sr2 2.774834 1_555
O8 Sr0 2.774834 1_555
O9 Sr2 2.756124 1_545
O9 Sr3 2.756124 1_455
O9 Sr1 2.756124 1_545
O9 Sr0 2.756124 1_455
O10 Sr2 2.756124 1_555
O10 Sr0 2.756124 1_554
O10 Sr1 2.756124 1_555
O10 Sr3 2.756124 1_554
