# generated using pymatgen
data_BiMo30(PbS10)4
_symmetry_space_group_name_H-M   'P 1'
_cell_length_a   9.40616900
_cell_length_b   11.35962368
_cell_length_c   14.64851493
_cell_angle_alpha   105.22769458
_cell_angle_beta   107.94370233
_cell_angle_gamma   90.63683443
_symmetry_Int_Tables_number   1
_chemical_formula_structural   BiMo30(PbS10)4
_chemical_formula_sum   'Bi1 Mo30 Pb4 S40'
_cell_volume   1429.54851824
_cell_formula_units_Z   1
loop_
 _symmetry_equiv_pos_site_id
 _symmetry_equiv_pos_as_xyz
  1  'x, y, z'
loop_
 _atom_site_type_symbol
 _atom_site_label
 _atom_site_symmetry_multiplicity
 _atom_site_fract_x
 _atom_site_fract_y
 _atom_site_fract_z
 _atom_site_occupancy
  Bi  Bi0  1  0.50000000  0.00000000  0.00000000  1
  Mo  Mo0  1  0.24807400  0.81299700  0.51900600  1
  Mo  Mo1  1  0.64799500  0.41279500  0.31919400  1
  Mo  Mo2  1  0.04773100  0.01385800  0.11810500  1
  Mo  Mo3  1  0.44811200  0.61272800  0.91944000  1
  Mo  Mo4  1  0.84827400  0.21298700  0.71872400  1
  Mo  Mo5  1  0.15146500  0.76462200  0.66372600  1
  Mo  Mo6  1  0.55100200  0.36375000  0.46315300  1
  Mo  Mo7  1  0.94936700  0.96416500  0.26278700  1
  Mo  Mo8  1  0.35170400  0.56328800  0.06288000  1
  Mo  Mo9  1  0.75252600  0.16322200  0.86245900  1
  Mo  Mo10  1  0.14358300  0.58204300  0.49901300  1
  Mo  Mo11  1  0.54484000  0.18320700  0.29961300  1
  Mo  Mo12  1  0.94320700  0.78234600  0.09880200  1
  Mo  Mo13  1  0.34388200  0.38116500  0.89922400  1
  Mo  Mo14  1  0.74454000  0.98271500  0.69955500  1
  Mo  Mo15  1  0.35200500  0.58720500  0.68080600  1
  Mo  Mo16  1  0.75192600  0.18700300  0.48099400  1
  Mo  Mo17  1  0.15172600  0.78701300  0.28127600  1
  Mo  Mo18  1  0.55188800  0.38727200  0.08056000  1
  Mo  Mo19  1  0.95226900  0.98614200  0.88189500  1
  Mo  Mo20  1  0.44899800  0.63625000  0.53684700  1
  Mo  Mo21  1  0.84853500  0.23537800  0.33627400  1
  Mo  Mo22  1  0.24747400  0.83677800  0.13754100  1
  Mo  Mo23  1  0.64829600  0.43671200  0.93712000  1
  Mo  Mo24  1  0.05063300  0.03583500  0.73721300  1
  Mo  Mo25  1  0.45516000  0.81679300  0.70038700  1
  Mo  Mo26  1  0.85641700  0.41795700  0.50098700  1
  Mo  Mo27  1  0.25546000  0.01728500  0.30044500  1
  Mo  Mo28  1  0.65611800  0.61883500  0.10077600  1
  Mo  Mo29  1  0.05679300  0.21765400  0.90119800  1
  Pb  Pb0  1  0.90024100  0.59976800  0.80007700  1
  Pb  Pb1  1  0.30041900  0.20027200  0.60008700  1
  Pb  Pb2  1  0.69958100  0.79972800  0.39991300  1
  Pb  Pb3  1  0.09975900  0.40023200  0.19992300  1
  S  S0  1  0.79058500  0.95173500  0.09668600  1
  S  S1  1  0.59300000  0.15140900  0.69758000  1
  S  S2  1  0.99252400  0.75092500  0.49782200  1
  S  S3  1  0.39241000  0.35073200  0.29756700  1
  S  S4  1  0.19288600  0.55039200  0.89700500  1
  S  S5  1  0.40700000  0.84859100  0.30242000  1
  S  S6  1  0.20941500  0.04826500  0.90331400  1
  S  S7  1  0.60759000  0.64926800  0.70243300  1
  S  S8  1  0.00747600  0.24907500  0.50217800  1
  S  S9  1  0.80711400  0.44960800  0.10299500  1
  S  S10  1  0.87790300  0.74954200  0.24516200  1
  S  S11  1  0.67627400  0.95049600  0.84677300  1
  S  S12  1  0.07777800  0.54984500  0.64496200  1
  S  S13  1  0.47696900  0.14928500  0.44494000  1
  S  S14  1  0.27713600  0.34995100  0.04517100  1
  S  S15  1  0.05122700  0.83240800  0.97933400  1
  S  S16  1  0.85180900  0.03269000  0.57969000  1
  S  S17  1  0.25159100  0.63267800  0.37918300  1
  S  S18  1  0.65049400  0.23029400  0.17756200  1
  S  S19  1  0.45162600  0.43227200  0.77919400  1
  S  S20  1  0.07130200  0.16808500  0.27629200  1
  S  S21  1  0.87217700  0.36893600  0.87682100  1
  S  S22  1  0.27140600  0.96857900  0.67631000  1
  S  S23  1  0.67173500  0.56865500  0.47676500  1
  S  S24  1  0.47198500  0.77129900  0.07585400  1
  S  S25  1  0.32372600  0.04950400  0.15322700  1
  S  S26  1  0.12209700  0.25045800  0.75483800  1
  S  S27  1  0.52303100  0.85071500  0.55506000  1
  S  S28  1  0.92222200  0.45015500  0.35503800  1
  S  S29  1  0.72286400  0.65004900  0.95482900  1
  S  S30  1  0.14819100  0.96731000  0.42031000  1
  S  S31  1  0.94877300  0.16759200  0.02066600  1
  S  S32  1  0.34950600  0.76970600  0.82243800  1
  S  S33  1  0.74840900  0.36732200  0.62081700  1
  S  S34  1  0.54837400  0.56772800  0.22080600  1
  S  S35  1  0.12782300  0.63106400  0.12317900  1
  S  S36  1  0.92869800  0.83191500  0.72370800  1
  S  S37  1  0.32826500  0.43134500  0.52323500  1
  S  S38  1  0.72859400  0.03142100  0.32369000  1
  S  S39  1  0.52801500  0.22870100  0.92414600  1
loop_
_geom_bond_atom_site_label_1
_geom_bond_atom_site_label_2
_geom_bond_distance
_geom_bond_site_symmetry_2
Bi0 S6 2.798813 1_554
Bi0 S0 2.798813 1_545
Bi0 S32 3.112468 1_544
Bi0 S18 3.112468 1_555
Bi0 S39 3.120111 1_554
Bi0 S24 3.120111 1_545
Bi0 S11 3.123170 1_544
Bi0 S25 3.123170 1_555
Mo0 S2 2.399844 1_455
Mo0 S22 2.453942 1_555
Mo0 S27 2.483200 1_555
Mo0 S17 2.496261 1_555
Mo0 S30 2.564497 1_555
Mo1 S3 2.398478 1_555
Mo1 S23 2.457464 1_555
Mo1 S28 2.476558 1_555
Mo1 S18 2.524785 1_555
Mo1 S34 2.567054 1_555
Mo2 S0 2.413499 1_445
Mo2 S20 2.455644 1_555
Mo2 S25 2.492467 1_555
Mo2 S15 2.494698 1_544
Mo2 S31 2.545663 1_455
Mo3 S4 2.393035 1_555
Mo3 S24 2.459837 1_556
Mo3 S29 2.482360 1_555
Mo3 S19 2.500972 1_555
Mo3 S32 2.571948 1_555
Mo4 S1 2.396115 1_555
Mo4 S21 2.463193 1_555
Mo4 S26 2.472382 1_655
Mo4 S16 2.489133 1_555
Mo4 S33 2.557401 1_555
Mo5 S2 2.392260 1_455
Mo5 S12 2.449746 1_555
Mo5 S32 2.477316 1_555
Mo5 S22 2.502817 1_555
Mo5 S36 2.562069 1_455
Mo6 S3 2.389103 1_555
Mo6 S13 2.449031 1_555
Mo6 S33 2.467834 1_555
Mo6 S23 2.511027 1_555
Mo6 S37 2.563312 1_555
Mo7 S0 2.397171 1_555
Mo7 S10 2.447143 1_555
Mo7 S30 2.473762 1_655
Mo7 S20 2.506188 1_665
Mo7 S38 2.551616 1_565
Mo8 S4 2.393473 1_554
Mo8 S14 2.439696 1_555
Mo8 S34 2.464990 1_555
Mo8 S24 2.543964 1_555
Mo8 S35 2.575372 1_555
Mo9 S1 2.386452 1_555
Mo9 S11 2.444358 1_545
Mo9 S31 2.466239 1_556
Mo9 S21 2.511791 1_555
Mo9 S39 2.585941 1_555
Mo10 S2 2.400525 1_455
Mo10 S17 2.461785 1_555
Mo10 S37 2.465662 1_555
Mo10 S12 2.511734 1_555
Mo10 S28 2.567682 1_455
Mo11 S3 2.396300 1_555
Mo11 S18 2.460802 1_555
Mo11 S38 2.468784 1_555
Mo11 S13 2.520080 1_555
Mo11 S25 2.588746 1_555
Mo12 S0 2.414481 1_555
Mo12 S15 2.454372 1_654
Mo12 S35 2.470411 1_655
Mo12 S10 2.517694 1_555
Mo12 S29 2.564076 1_554
Mo13 S4 2.403916 1_555
Mo13 S19 2.465102 1_555
Mo13 S39 2.478280 1_555
Mo13 S14 2.512138 1_556
Mo13 S26 2.567637 1_555
Mo14 S1 2.401931 1_565
Mo14 S16 2.454758 1_565
Mo14 S36 2.463120 1_555
Mo14 S11 2.541555 1_555
Mo14 S27 2.572098 1_555
Mo15 S7 2.398478 1_555
Mo15 S37 2.457464 1_555
Mo15 S12 2.476558 1_555
Mo15 S32 2.524785 1_555
Mo15 S19 2.567054 1_555
Mo16 S8 2.399844 1_655
Mo16 S38 2.453942 1_555
Mo16 S13 2.483200 1_555
Mo16 S33 2.496261 1_555
Mo16 S16 2.564497 1_555
Mo17 S5 2.396115 1_555
Mo17 S35 2.463193 1_555
Mo17 S10 2.472382 1_455
Mo17 S30 2.489133 1_555
Mo17 S17 2.557401 1_555
Mo18 S9 2.393035 1_555
Mo18 S39 2.459837 1_554
Mo18 S14 2.482360 1_555
Mo18 S34 2.500972 1_555
Mo18 S18 2.571948 1_555
Mo19 S6 2.413499 1_665
Mo19 S36 2.455644 1_555
Mo19 S11 2.492467 1_555
Mo19 S31 2.494698 1_566
Mo19 S15 2.545663 1_655
Mo20 S7 2.389103 1_555
Mo20 S27 2.449031 1_555
Mo20 S17 2.467834 1_555
Mo20 S37 2.511027 1_555
Mo20 S23 2.563312 1_555
Mo21 S8 2.392260 1_655
Mo21 S28 2.449746 1_555
Mo21 S18 2.477316 1_555
Mo21 S38 2.502817 1_555
Mo21 S20 2.562069 1_655
Mo22 S5 2.386452 1_555
Mo22 S25 2.444358 1_565
Mo22 S15 2.466239 1_554
Mo22 S35 2.511791 1_555
Mo22 S24 2.585941 1_555
Mo23 S9 2.393473 1_556
Mo23 S29 2.439696 1_555
Mo23 S19 2.464990 1_555
Mo23 S39 2.543964 1_555
Mo23 S21 2.575372 1_555
Mo24 S6 2.397171 1_555
Mo24 S26 2.447143 1_555
Mo24 S16 2.473762 1_455
Mo24 S36 2.506188 1_445
Mo24 S22 2.551616 1_545
Mo25 S7 2.396300 1_555
Mo25 S32 2.460802 1_555
Mo25 S22 2.468784 1_555
Mo25 S27 2.520080 1_555
Mo25 S11 2.588746 1_555
Mo26 S8 2.400525 1_655
Mo26 S33 2.461785 1_555
Mo26 S23 2.465662 1_555
Mo26 S28 2.511734 1_555
Mo26 S12 2.567682 1_655
Mo27 S5 2.401931 1_545
Mo27 S30 2.454758 1_545
Mo27 S20 2.463120 1_555
Mo27 S25 2.541555 1_555
Mo27 S13 2.572098 1_555
Mo28 S9 2.403916 1_555
Mo28 S34 2.465102 1_555
Mo28 S24 2.478280 1_555
Mo28 S29 2.512138 1_554
Mo28 S10 2.567637 1_555
Mo29 S6 2.414481 1_555
Mo29 S31 2.454372 1_456
Mo29 S21 2.470411 1_455
Mo29 S26 2.517694 1_555
Mo29 S14 2.564076 1_556
Pb0 S4 2.819969 1_655
Pb0 S7 2.823191 1_555
Pb0 S15 3.141555 1_655
Pb0 S33 3.141701 1_555
Pb0 S29 3.149627 1_555
Pb0 S21 3.150429 1_555
Pb0 S12 3.155216 1_655
Pb0 S36 3.161640 1_555
Pb1 S1 2.819605 1_555
Pb1 S8 2.823745 1_555
Pb1 S19 3.136416 1_555
Pb1 S13 3.148601 1_555
Pb1 S30 3.149608 1_545
Pb1 S37 3.153535 1_555
Pb1 S26 3.156320 1_555
Pb1 S22 3.156553 1_545
Pb2 S5 2.819605 1_555
Pb2 S2 2.823745 1_555
Pb2 S34 3.136416 1_555
Pb2 S27 3.148601 1_555
Pb2 S16 3.149608 1_565
Pb2 S23 3.153535 1_555
Pb2 S10 3.156320 1_555
Pb2 S38 3.156553 1_565
Pb3 S9 2.819969 1_455
Pb3 S3 2.823191 1_555
Pb3 S31 3.141555 1_455
Pb3 S17 3.141701 1_555
Pb3 S14 3.149627 1_555
Pb3 S35 3.150429 1_555
Pb3 S28 3.155216 1_455
Pb3 S20 3.161640 1_555
