# generated using pymatgen
data_CdRe2C2(N2O5)2
_symmetry_space_group_name_H-M   'P 1'
_cell_length_a   10.70445100
_cell_length_b   8.74338900
_cell_length_c   15.70339778
_cell_angle_alpha   88.49490489
_cell_angle_beta   90.00000000
_cell_angle_gamma   90.00000000
_symmetry_Int_Tables_number   1
_chemical_formula_structural   CdRe2C2(N2O5)2
_chemical_formula_sum   'Cd4 Re8 C8 N16 O40'
_cell_volume   1469.22385403
_cell_formula_units_Z   4
loop_
 _symmetry_equiv_pos_site_id
 _symmetry_equiv_pos_as_xyz
  1  'x, y, z'
loop_
 _atom_site_type_symbol
 _atom_site_label
 _atom_site_symmetry_multiplicity
 _atom_site_fract_x
 _atom_site_fract_y
 _atom_site_fract_z
 _atom_site_occupancy
  Cd  Cd0  1  0.09083000  0.13696400  0.23822200  1
  Cd  Cd1  1  0.90917000  0.86303600  0.76177800  1
  Cd  Cd2  1  0.59083000  0.36303600  0.76177800  1
  Cd  Cd3  1  0.40917000  0.63696400  0.23822200  1
  Re  Re0  1  0.31242900  0.32012600  0.08642500  1
  Re  Re1  1  0.68757100  0.67987400  0.91357500  1
  Re  Re2  1  0.81242900  0.17987400  0.91357500  1
  Re  Re3  1  0.18757100  0.82012600  0.08642500  1
  Re  Re4  1  0.40925200  0.02283000  0.34863100  1
  Re  Re5  1  0.59074800  0.97717000  0.65136900  1
  Re  Re6  1  0.90925200  0.47717000  0.65136900  1
  Re  Re7  1  0.09074800  0.52283000  0.34863100  1
  C  C0  1  0.82827600  0.28686100  0.18358800  1
  C  C1  1  0.17172400  0.71313900  0.81641200  1
  C  C2  1  0.32827600  0.21313900  0.81641200  1
  C  C3  1  0.67172400  0.78686100  0.18358800  1
  C  C4  1  0.05870300  0.06256200  0.60708500  1
  C  C5  1  0.94129700  0.93743800  0.39291500  1
  C  C6  1  0.55870300  0.43743800  0.39291500  1
  C  C7  1  0.44129700  0.56256200  0.60708500  1
  N  N0  1  0.72560900  0.37231700  0.15956500  1
  N  N1  1  0.27439100  0.62768300  0.84043500  1
  N  N2  1  0.22560900  0.12768300  0.84043500  1
  N  N3  1  0.77439100  0.87231700  0.15956500  1
  N  N4  1  0.32646300  0.50766000  0.58139400  1
  N  N5  1  0.67353700  0.49234000  0.41860600  1
  N  N6  1  0.82646300  0.99234000  0.41860600  1
  N  N7  1  0.17353700  0.00766000  0.58139400  1
  N  N8  1  0.83793600  0.41928400  0.13417300  1
  N  N9  1  0.16206400  0.58071600  0.86582700  1
  N  N10  1  0.33793600  0.08071600  0.86582700  1
  N  N11  1  0.66206400  0.91928400  0.13417300  1
  N  N12  1  0.12193300  0.12224800  0.53690100  1
  N  N13  1  0.87806700  0.87775200  0.46309900  1
  N  N14  1  0.62193300  0.37775200  0.46309900  1
  N  N15  1  0.37806700  0.62224800  0.53690100  1
  O  O0  1  0.15957900  0.29118900  0.12858400  1
  O  O1  1  0.84042100  0.70881100  0.87141600  1
  O  O2  1  0.65957900  0.20881100  0.87141600  1
  O  O3  1  0.34042100  0.79118900  0.12858400  1
  O  O4  1  0.29210500  0.09754100  0.27980500  1
  O  O5  1  0.70789500  0.90245900  0.72019500  1
  O  O6  1  0.79210500  0.40245900  0.72019500  1
  O  O7  1  0.20789500  0.59754100  0.27980500  1
  O  O8  1  0.37243600  0.06662600  0.45268700  1
  O  O9  1  0.62756400  0.93337400  0.54731300  1
  O  O10  1  0.87243600  0.43337400  0.54731300  1
  O  O11  1  0.12756400  0.56662600  0.45268700  1
  O  O12  1  0.40334300  0.43687500  0.15334200  1
  O  O13  1  0.59665700  0.56312500  0.84665800  1
  O  O14  1  0.90334300  0.06312500  0.84665800  1
  O  O15  1  0.09665700  0.93687500  0.15334200  1
  O  O16  1  0.05230400  0.39410500  0.67831600  1
  O  O17  1  0.94769600  0.60589500  0.32168400  1
  O  O18  1  0.55230400  0.10589500  0.32168400  1
  O  O19  1  0.44769600  0.89410500  0.67831600  1
  O  O20  1  0.80415200  0.09882800  0.01570000  1
  O  O21  1  0.19584800  0.90117200  0.98430000  1
  O  O22  1  0.30415200  0.40117200  0.98430000  1
  O  O23  1  0.69584800  0.59882800  0.01570000  1
  O  O24  1  0.87305000  0.17878500  0.22275400  1
  O  O25  1  0.12695000  0.82121500  0.77724600  1
  O  O26  1  0.37305000  0.32121500  0.77724600  1
  O  O27  1  0.62695000  0.67878500  0.22275400  1
  O  O28  1  0.38631300  0.14485900  0.07895600  1
  O  O29  1  0.61368700  0.85514100  0.92104400  1
  O  O30  1  0.88631300  0.35514100  0.92104400  1
  O  O31  1  0.11368700  0.64485900  0.07895600  1
  O  O32  1  0.08013100  0.32087300  0.33964400  1
  O  O33  1  0.91986900  0.67912700  0.66035600  1
  O  O34  1  0.58013100  0.17912700  0.66035600  1
  O  O35  1  0.41986900  0.82087300  0.33964400  1
  O  O36  1  0.46753500  0.44259800  0.34750000  1
  O  O37  1  0.53246500  0.55740200  0.65250000  1
  O  O38  1  0.96753500  0.05740200  0.65250000  1
  O  O39  1  0.03246500  0.94259800  0.34750000  1
loop_
_geom_bond_atom_site_label_1
_geom_bond_atom_site_label_2
_geom_bond_distance
_geom_bond_site_symmetry_2
Cd0 O15 2.227918 1_545
Cd0 O4 2.274956 1_555
Cd0 O0 2.280822 1_555
Cd0 O32 2.295620 1_555
Cd0 O24 2.371203 1_455
Cd0 O39 2.463724 1_545
Cd1 O14 2.227918 1_565
Cd1 O5 2.274956 1_555
Cd1 O1 2.280822 1_555
Cd1 O33 2.295620 1_555
Cd1 O25 2.371203 1_655
Cd1 O38 2.463724 1_565
Cd2 O13 2.227918 1_555
Cd2 O6 2.274956 1_555
Cd2 O2 2.280822 1_555
Cd2 O34 2.295620 1_555
Cd2 O26 2.371203 1_555
Cd2 O37 2.463724 1_555
Cd3 O12 2.227918 1_555
Cd3 O7 2.274956 1_555
Cd3 O3 2.280822 1_555
Cd3 O35 2.295620 1_555
Cd3 O27 2.371203 1_555
Cd3 O36 2.463724 1_555
C0 O24 1.212594 1_555
C0 N0 1.376068 1_555
C0 N8 1.380654 1_555
C1 O25 1.212594 1_555
C1 N1 1.376068 1_555
C1 N9 1.380654 1_555
C2 O26 1.212594 1_555
C2 N2 1.376068 1_555
C2 N10 1.380654 1_555
C3 O27 1.212594 1_555
C3 N3 1.376068 1_555
C3 N11 1.380654 1_555
C4 O38 1.208861 1_455
C4 N7 1.383612 1_555
C4 N12 1.383807 1_555
C5 O39 1.208861 1_655
C5 N6 1.383612 1_555
C5 N13 1.383807 1_555
C6 O36 1.208861 1_555
C6 N5 1.383612 1_555
C6 N14 1.383807 1_555
C7 O37 1.208861 1_555
C7 N4 1.383612 1_555
C7 N15 1.383807 1_555
N0 N8 1.328454 1_555
N1 N9 1.328454 1_555
N10 N2 1.328454 1_555
N11 N3 1.328454 1_555
N12 N7 1.326768 1_555
N13 N6 1.326768 1_555
N14 N5 1.326768 1_555
N15 N4 1.326768 1_555
O0 Re0 1.780612 1_555
O1 Re1 1.780612 1_555
O2 Re2 1.780612 1_555
O3 Re3 1.780612 1_555
O4 Re4 1.769252 1_555
O5 Re5 1.769252 1_555
O6 Re6 1.769252 1_555
O7 Re7 1.769252 1_555
O8 Re4 1.733458 1_555
O9 Re5 1.733458 1_555
O10 Re6 1.733458 1_555
O11 Re7 1.733458 1_555
O12 Re0 1.774729 1_555
O13 Re1 1.774729 1_555
O14 Re2 1.774729 1_555
O15 Re3 1.774729 1_555
O16 Re6 1.742196 1_455
O17 Re7 1.742196 1_655
O18 Re4 1.742196 1_555
O19 Re5 1.742196 1_555
O20 Re2 1.738440 1_554
O21 Re3 1.738440 1_556
O22 Re0 1.738440 1_556
O23 Re1 1.738440 1_554
O28 Re0 1.731195 1_555
O29 Re1 1.731195 1_555
O30 Re2 1.731195 1_555
O31 Re3 1.731195 1_555
O32 Re7 1.778745 1_555
O33 Re6 1.778745 1_555
O34 Re5 1.778745 1_545
O35 Re4 1.778745 1_565
