# generated using pymatgen
data_TcAgO2
_symmetry_space_group_name_H-M   'P 1'
_cell_length_a   7.33933370
_cell_length_b   7.33933370
_cell_length_c   7.33933370
_cell_angle_alpha   131.35189470
_cell_angle_beta   131.35189470
_cell_angle_gamma   71.25458521
_symmetry_Int_Tables_number   1
_chemical_formula_structural   TcAgO2
_chemical_formula_sum   'Tc4 Ag4 O8'
_cell_volume   218.07364580
_cell_formula_units_Z   4
loop_
 _symmetry_equiv_pos_site_id
 _symmetry_equiv_pos_as_xyz
  1  'x, y, z'
loop_
 _atom_site_type_symbol
 _atom_site_label
 _atom_site_symmetry_multiplicity
 _atom_site_fract_x
 _atom_site_fract_y
 _atom_site_fract_z
 _atom_site_occupancy
  Tc  Tc0  1  0.37500000  0.12500000  0.25000000  1
  Tc  Tc1  1  0.87500000  0.12500000  0.75000000  1
  Tc  Tc2  1  0.87500000  0.12500000  0.25000000  1
  Tc  Tc3  1  0.87500000  0.62500000  0.75000000  1
  Ag  Ag0  1  0.87500000  0.62500000  0.25000000  1
  Ag  Ag1  1  0.37500000  0.62500000  0.75000000  1
  Ag  Ag2  1  0.37500000  0.62500000  0.25000000  1
  Ag  Ag3  1  0.37500000  0.12500000  0.75000000  1
  O  O0  1  0.17789400  0.37636400  0.19847000  1
  O  O1  1  0.17789400  0.97942300  0.80153000  1
  O  O2  1  0.12636400  0.42789400  0.69847000  1
  O  O3  1  0.57210600  0.87363600  0.30153000  1
  O  O4  1  0.72942300  0.42789400  0.30153000  1
  O  O5  1  0.57210600  0.27057700  0.69847000  1
  O  O6  1  0.62363600  0.82210600  0.80153000  1
  O  O7  1  0.02057700  0.82210600  0.19847000  1
loop_
_geom_bond_atom_site_label_1
_geom_bond_atom_site_label_2
_geom_bond_distance
_geom_bond_site_symmetry_2
Ag0 O7 2.372257 1_655
Ag0 O4 2.372257 1_555
Ag0 O1 2.450834 1_655
Ag0 O5 2.450834 1_554
Ag0 O3 2.450836 1_555
Ag0 O0 2.450836 1_655
Ag1 O6 2.372252 1_555
Ag1 O2 2.372252 1_555
Ag1 O1 2.450830 1_555
Ag1 O5 2.450830 1_555
Ag1 O3 2.450836 1_556
Ag1 O0 2.450836 1_555
Ag2 O3 2.372252 1_555
Ag2 O0 2.372252 1_555
Ag2 O4 2.450830 1_555
Ag2 O7 2.450830 1_555
Ag2 O2 2.450836 1_554
Ag2 O6 2.450836 1_555
Ag3 O5 2.372257 1_555
Ag3 O1 2.372257 1_545
Ag3 O4 2.450834 1_556
Ag3 O7 2.450834 1_545
Ag3 O2 2.450836 1_555
Ag3 O6 2.450836 1_545
O0 Tc0 2.030493 1_555
O0 Tc1 2.030493 1_454
O1 Tc0 2.030491 1_566
O1 Tc1 2.030495 1_465
O2 Tc3 2.030493 1_455
O2 Tc2 2.030493 1_455
O3 Tc1 2.030493 1_565
O3 Tc0 2.030493 1_565
O4 Tc3 2.030491 1_555
O4 Tc2 2.030495 1_555
O5 Tc0 2.030491 1_555
O5 Tc1 2.030495 1_555
O6 Tc3 2.030493 1_555
O6 Tc2 2.030493 1_566
O7 Tc3 2.030491 1_454
O7 Tc2 2.030495 1_465
