# generated using pymatgen
data_Mg14ZrNb
_symmetry_space_group_name_H-M   'P 1'
_cell_length_a   6.40516056
_cell_length_b   6.40516004
_cell_length_c   9.97975769
_cell_angle_alpha   90.00000000
_cell_angle_beta   90.00000000
_cell_angle_gamma   120.00000268
_symmetry_Int_Tables_number   1
_chemical_formula_structural   Mg14ZrNb
_chemical_formula_sum   'Mg14 Zr1 Nb1'
_cell_volume   354.57705042
_cell_formula_units_Z   1
loop_
 _symmetry_equiv_pos_site_id
 _symmetry_equiv_pos_as_xyz
  1  'x, y, z'
loop_
 _atom_site_type_symbol
 _atom_site_label
 _atom_site_symmetry_multiplicity
 _atom_site_fract_x
 _atom_site_fract_y
 _atom_site_fract_z
 _atom_site_occupancy
  Mg  Mg0  1  0.17081538  0.83540719  0.12500000  1
  Mg  Mg1  1  0.16745341  0.83372621  0.62500000  1
  Mg  Mg2  1  0.66459281  0.32918462  0.12500000  1
  Mg  Mg3  1  0.66627379  0.33254659  0.62500000  1
  Mg  Mg4  1  0.66459281  0.83540719  0.12500000  1
  Mg  Mg5  1  0.66627379  0.83372621  0.62500000  1
  Mg  Mg6  1  0.32852940  0.17147060  0.37934590  1
  Mg  Mg7  1  0.32852940  0.17147060  0.87065410  1
  Mg  Mg8  1  0.32852940  0.65705981  0.37934590  1
  Mg  Mg9  1  0.32852940  0.65705981  0.87065410  1
  Mg  Mg10  1  0.84294019  0.17147060  0.37934590  1
  Mg  Mg11  1  0.84294019  0.17147060  0.87065410  1
  Mg  Mg12  1  0.83333300  0.66666700  0.37333677  1
  Mg  Mg13  1  0.83333300  0.66666700  0.87666323  1
  Zr  Zr0  1  0.16666700  0.33333300  0.12500000  1
  Nb  Nb0  1  0.16666700  0.33333300  0.62500000  1
loop_
_geom_bond_atom_site_label_1
_geom_bond_atom_site_label_2
_geom_bond_distance
_geom_bond_site_symmetry_2
Mg0 Mg13 3.105906 1_454
Mg0 Mg12 3.105906 1_455
Mg0 Mg8 3.149987 1_555
Mg0 Mg9 3.149987 1_554
Mg0 Mg7 3.149993 1_564
Mg0 Mg6 3.149993 1_565
Mg0 Mg2 3.162723 1_565
Mg0 Mg4 3.162724 1_555
Mg0 Zr0 3.202663 1_555
Mg0 Zr0 3.202663 1_565
Mg0 Mg2 3.242437 1_455
Mg0 Mg4 3.242437 1_455
Mg1 Mg9 3.085865 1_555
Mg1 Mg8 3.085865 1_555
Mg1 Mg7 3.085872 1_565
Mg1 Mg6 3.085872 1_565
Mg1 Mg13 3.121350 1_455
Mg1 Mg12 3.121350 1_455
Mg1 Mg3 3.195024 1_565
Mg1 Mg5 3.195025 1_555
Mg1 Nb0 3.202583 1_565
Mg1 Nb0 3.202583 1_555
Mg1 Mg3 3.210136 1_455
Mg1 Mg5 3.210136 1_455
Mg2 Mg6 3.149993 1_555
Mg2 Mg7 3.149993 1_554
Mg2 Mg4 3.162723 1_545
Mg2 Zr0 3.202663 1_655
Mg2 Zr0 3.202663 1_555
Mg2 Mg4 3.242437 1_555
Mg3 Mg6 3.085872 1_555
Mg3 Mg7 3.085872 1_555
Mg3 Mg5 3.195024 1_545
Mg3 Nb0 3.202583 1_555
Mg3 Nb0 3.202583 1_655
Mg3 Mg5 3.210136 1_555
Mg4 Mg8 3.149993 1_555
Mg4 Mg9 3.149993 1_554
Mg4 Zr0 3.202663 1_555
Mg4 Zr0 3.202663 1_665
Mg5 Mg9 3.085871 1_555
Mg5 Mg8 3.085871 1_555
Mg5 Nb0 3.202583 1_555
Mg5 Nb0 3.202583 1_665
Mg6 Nb0 3.038876 1_555
Mg6 Zr0 3.109277 1_555
Mg6 Mg8 3.110277 1_555
Mg6 Mg8 3.294883 1_545
Mg7 Nb0 3.038876 1_555
Mg7 Zr0 3.109277 1_556
Mg7 Mg9 3.110277 1_555
Mg7 Mg9 3.294883 1_545
Mg8 Nb0 3.038883 1_555
Mg8 Zr0 3.109283 1_555
Mg9 Nb0 3.038883 1_555
Mg9 Zr0 3.109283 1_556
Mg10 Nb0 3.038883 1_655
Mg10 Mg3 3.085865 1_555
Mg10 Mg5 3.085871 1_545
Mg10 Zr0 3.109283 1_655
Mg10 Mg8 3.110277 1_655
Mg10 Mg6 3.110277 1_655
Mg10 Mg2 3.149987 1_555
Mg10 Mg4 3.149993 1_545
Mg10 Mg12 3.203585 1_555
Mg10 Mg12 3.203585 1_545
Mg10 Mg8 3.294883 1_545
Mg10 Mg6 3.294884 1_555
Mg11 Nb0 3.038883 1_655
Mg11 Mg3 3.085865 1_555
Mg11 Mg5 3.085871 1_545
Mg11 Zr0 3.109283 1_656
Mg11 Mg9 3.110277 1_655
Mg11 Mg7 3.110277 1_655
Mg11 Mg2 3.149987 1_556
Mg11 Mg4 3.149993 1_546
Mg11 Mg13 3.203585 1_555
Mg11 Mg13 3.203585 1_545
Mg11 Mg9 3.294883 1_545
Mg11 Mg7 3.294884 1_555
Mg12 Mg4 3.105899 1_555
Mg12 Mg2 3.105906 1_555
Mg12 Mg5 3.121344 1_555
Mg12 Mg3 3.121350 1_555
Mg12 Mg6 3.203585 1_665
Mg12 Mg6 3.203585 1_555
Mg12 Mg8 3.203585 1_655
Mg12 Mg8 3.203585 1_555
Mg13 Mg4 3.105899 1_556
Mg13 Mg2 3.105906 1_556
Mg13 Mg5 3.121344 1_555
Mg13 Mg3 3.121350 1_555
Mg13 Mg7 3.203585 1_665
Mg13 Mg7 3.203585 1_555
Mg13 Mg9 3.203585 1_655
Mg13 Mg9 3.203585 1_555
