# generated using pymatgen
data_Ce3Cu
_symmetry_space_group_name_H-M   'P 1'
_cell_length_a   5.65413045
_cell_length_b   5.65413045
_cell_length_c   5.65413045
_cell_angle_alpha   133.54557407
_cell_angle_beta   133.54557407
_cell_angle_gamma   67.79864599
_symmetry_Int_Tables_number   1
_chemical_formula_structural   Ce3Cu
_chemical_formula_sum   'Ce3 Cu1'
_cell_volume   93.34084008
_cell_formula_units_Z   1
loop_
 _symmetry_equiv_pos_site_id
 _symmetry_equiv_pos_as_xyz
  1  'x, y, z'
loop_
 _atom_site_type_symbol
 _atom_site_label
 _atom_site_symmetry_multiplicity
 _atom_site_fract_x
 _atom_site_fract_y
 _atom_site_fract_z
 _atom_site_occupancy
  Ce  Ce0  1  0.75000000  0.25000000  0.50000000  1
  Ce  Ce1  1  0.25000000  0.75000000  0.50000000  1
  Ce  Ce2  1  0.50000000  0.50000000  0.00000000  1
  Cu  Cu0  1  0.00000000  0.00000000  0.00000000  1
loop_
_geom_bond_atom_site_label_1
_geom_bond_atom_site_label_2
_geom_bond_distance
_geom_bond_site_symmetry_2
Ce0 Ce1 3.153508 1_656
Ce0 Ce1 3.153508 1_645
Ce0 Ce1 3.153508 1_544
Ce0 Ce1 3.153508 1_555
Ce0 Cu0 3.237044 1_555
Ce0 Ce2 3.237044 1_656
Ce0 Ce2 3.237044 1_556
Ce0 Cu0 3.237044 1_656
Ce0 Cu0 3.237044 1_655
Ce0 Ce2 3.237044 1_555
Ce0 Cu0 3.237044 1_666
Ce0 Ce2 3.237044 1_545
Ce1 Ce2 3.237044 1_455
Ce1 Cu0 3.237044 1_666
Ce1 Ce2 3.237044 1_556
Ce1 Cu0 3.237044 1_565
Ce1 Ce2 3.237044 1_555
Ce1 Ce2 3.237044 1_566
Ce1 Cu0 3.237044 1_555
Ce1 Cu0 3.237044 1_566
Ce2 Cu0 3.153508 1_554
Ce2 Cu0 3.153508 1_565
Ce2 Cu0 3.153508 1_655
Ce2 Cu0 3.153508 1_666
