# generated using pymatgen
data_ZrFe2
_symmetry_space_group_name_H-M   'P 1'
_cell_length_a   5.02302584
_cell_length_b   5.02302730
_cell_length_c   16.42638123
_cell_angle_alpha   89.99997954
_cell_angle_beta   90.00000050
_cell_angle_gamma   119.99873156
_symmetry_Int_Tables_number   1
_chemical_formula_structural   ZrFe2
_chemical_formula_sum   'Zr8 Fe16'
_cell_volume   358.92939814
_cell_formula_units_Z   8
loop_
 _symmetry_equiv_pos_site_id
 _symmetry_equiv_pos_as_xyz
  1  'x, y, z'
loop_
 _atom_site_type_symbol
 _atom_site_label
 _atom_site_symmetry_multiplicity
 _atom_site_fract_x
 _atom_site_fract_y
 _atom_site_fract_z
 _atom_site_occupancy
  Zr  Zr0  1  -0.00000123  0.00000123  0.59466449  1
  Zr  Zr1  1  0.00000052  -0.00000152  0.40536373  1
  Zr  Zr2  1  0.00000041  -0.00000141  0.09456469  1
  Zr  Zr3  1  -0.00000153  0.00000153  0.90542236  1
  Zr  Zr4  1  0.66666369  0.33333531  0.34377564  1
  Zr  Zr5  1  0.33333598  0.66666502  0.65622184  1
  Zr  Zr6  1  0.33333586  0.66666514  0.84390256  1
  Zr  Zr7  1  0.66666358  0.33333542  0.15608478  1
  Fe  Fe0  1  0.66666770  0.33333330  0.62366390  1
  Fe  Fe1  1  0.33333280  0.66666720  0.37630478  1
  Fe  Fe2  1  0.33333218  0.66666682  0.12349878  1
  Fe  Fe3  1  0.66666743  0.33333357  0.87653256  1
  Fe  Fe4  1  0.49999941  -0.00000124  0.49999669  1
  Fe  Fe5  1  0.49999985  0.50000115  0.49999667  1
  Fe  Fe6  1  0.00000124  0.50000059  0.49999669  1
  Fe  Fe7  1  0.49999850  -0.00000213  0.00003116  1
  Fe  Fe8  1  0.49999912  0.49999888  0.00003108  1
  Fe  Fe9  1  0.00000213  0.50000150  0.00003116  1
  Fe  Fe10  1  0.83343254  0.66686179  0.75012086  1
  Fe  Fe11  1  0.83343220  0.16656780  0.75012084  1
  Fe  Fe12  1  0.33313721  0.16656746  0.75012086  1
  Fe  Fe13  1  0.16656884  0.33314147  0.24985095  1
  Fe  Fe14  1  0.16656905  0.83343095  0.24985098  1
  Fe  Fe15  1  0.66685853  0.83343116  0.24985095  1
loop_
_geom_bond_atom_site_label_1
_geom_bond_atom_site_label_2
_geom_bond_distance
_geom_bond_site_symmetry_2
Zr0 Zr5 3.071283 1_545
Zr0 Zr5 3.071292 1_445
Zr0 Zr5 3.071297 1_555
Zr0 Zr1 3.109526 1_555
Zr1 Zr4 3.071450 1_455
Zr1 Zr4 3.071460 1_555
Zr1 Zr4 3.071461 1_445
Zr2 Zr7 3.071083 1_455
Zr2 Zr7 3.071092 1_555
Zr2 Zr7 3.071092 1_445
Zr2 Zr3 3.106924 1_554
Zr3 Zr6 3.071082 1_545
Zr3 Zr6 3.071088 1_445
Zr3 Zr6 3.071093 1_555
Zr4 Zr7 3.083082 1_555
Zr5 Zr6 3.082915 1_555
Fe0 Fe5 2.495831 1_555
Fe0 Fe6 2.495842 1_655
Fe0 Fe4 2.495845 1_555
Fe0 Fe11 2.533753 1_555
Fe0 Fe10 2.533766 1_555
Fe0 Fe12 2.533770 1_555
Fe0 Zr0 2.938875 1_655
Fe0 Zr0 2.938950 1_665
Fe0 Zr0 2.938954 1_555
Fe0 Zr5 2.948915 1_555
Fe0 Zr5 2.948990 1_655
Fe0 Zr5 2.948990 1_545
Fe1 Fe5 2.496155 1_555
Fe1 Fe6 2.496167 1_555
Fe1 Fe4 2.496168 1_565
Fe1 Fe14 2.533704 1_555
Fe1 Fe15 2.533716 1_555
Fe1 Fe13 2.533717 1_555
Fe1 Zr1 2.939035 1_565
Fe1 Zr1 2.939107 1_665
Fe1 Zr1 2.939112 1_555
Fe1 Zr4 2.948826 1_555
Fe1 Zr4 2.948904 1_565
Fe1 Zr4 2.948907 1_455
Fe2 Fe8 2.493163 1_555
Fe2 Fe9 2.493166 1_555
Fe2 Fe7 2.493168 1_565
Fe2 Zr2 2.938702 1_565
Fe2 Zr2 2.938777 1_665
Fe2 Zr2 2.938778 1_555
Fe2 Zr7 2.948995 1_555
Fe2 Zr7 2.949074 1_455
Fe2 Zr7 2.949076 1_565
Fe3 Fe8 2.493572 1_556
Fe3 Fe9 2.493591 1_656
Fe3 Fe7 2.493593 1_556
Fe3 Zr3 2.938583 1_655
Fe3 Zr3 2.938659 1_665
Fe3 Zr3 2.938663 1_555
Fe3 Zr6 2.949128 1_555
Fe3 Zr6 2.949205 1_655
Fe3 Zr6 2.949206 1_545
Fe4 Fe5 2.511503 1_545
Fe4 Fe5 2.511525 1_555
Fe4 Fe6 2.511552 1_545
Fe4 Fe6 2.511571 1_655
Fe4 Zr4 2.947502 1_555
Fe4 Zr5 2.947554 1_545
Fe4 Zr1 2.953653 1_555
Fe4 Zr1 2.953663 1_655
Fe4 Zr0 2.953951 1_655
Fe4 Zr0 2.953967 1_555
Fe5 Fe6 2.511505 1_555
Fe5 Fe6 2.511521 1_655
Fe5 Zr4 2.947474 1_555
Fe5 Zr5 2.947529 1_555
Fe5 Zr1 2.953694 1_665
Fe5 Zr1 2.953704 1_555
Fe5 Zr0 2.953999 1_665
Fe5 Zr0 2.954002 1_555
Fe6 Zr4 2.947504 1_455
Fe6 Zr5 2.947557 1_555
Fe6 Zr1 2.953651 1_565
Fe6 Zr1 2.953667 1_555
Fe6 Zr0 2.953951 1_555
Fe6 Zr0 2.953968 1_565
Fe7 Fe8 2.511510 1_545
Fe7 Fe8 2.511517 1_555
Fe7 Fe9 2.511543 1_545
Fe7 Fe9 2.511580 1_655
Fe7 Zr7 2.945111 1_555
Fe7 Zr6 2.946172 1_544
Fe7 Zr2 2.952792 1_555
Fe7 Zr2 2.952805 1_655
Fe7 Zr3 2.953441 1_654
Fe7 Zr3 2.953457 1_554
Fe8 Fe9 2.511504 1_555
Fe8 Fe9 2.511521 1_655
Fe8 Zr7 2.945077 1_555
Fe8 Zr6 2.946150 1_554
Fe8 Zr2 2.952838 1_555
Fe8 Zr2 2.952843 1_665
Fe8 Zr3 2.953486 1_554
Fe8 Zr3 2.953494 1_664
Fe9 Zr7 2.945112 1_455
Fe9 Zr6 2.946174 1_554
Fe9 Zr2 2.952791 1_565
Fe9 Zr2 2.952808 1_555
Fe9 Zr3 2.953442 1_554
Fe9 Zr3 2.953457 1_564
Fe10 Fe11 2.510038 1_565
Fe10 Fe12 2.510080 1_665
Fe10 Fe11 2.512990 1_555
Fe10 Fe12 2.513042 1_555
Fe10 Fe3 2.533155 1_555
Fe10 Zr3 2.933939 1_665
Fe10 Zr0 2.936149 1_665
Fe10 Zr6 2.946316 1_555
Fe10 Zr6 2.946330 1_655
Fe10 Zr5 2.947323 1_555
Fe10 Zr5 2.947339 1_655
Fe11 Fe12 2.510032 1_655
Fe11 Fe12 2.512994 1_555
Fe11 Fe3 2.533146 1_555
Fe11 Zr3 2.933909 1_655
Fe11 Zr0 2.936122 1_655
Fe11 Zr6 2.946362 1_545
Fe11 Zr6 2.946367 1_655
Fe11 Zr5 2.947371 1_545
Fe11 Zr5 2.947374 1_655
Fe12 Fe3 2.533161 1_555
Fe12 Zr3 2.933935 1_555
Fe12 Zr0 2.936148 1_555
Fe12 Zr6 2.946317 1_555
Fe12 Zr6 2.946330 1_545
Fe12 Zr5 2.947323 1_555
Fe12 Zr5 2.947340 1_545
Fe13 Fe14 2.510060 1_545
Fe13 Fe15 2.510106 1_445
Fe13 Fe14 2.512967 1_555
Fe13 Fe15 2.513017 1_555
Fe13 Fe2 2.532346 1_555
Fe13 Zr2 2.933728 1_555
Fe13 Zr1 2.936963 1_555
Fe13 Zr7 2.946180 1_555
Fe13 Zr7 2.946199 1_455
Fe13 Zr4 2.947543 1_555
Fe13 Zr4 2.947561 1_455
Fe14 Fe15 2.510059 1_455
Fe14 Fe15 2.512966 1_555
Fe14 Fe2 2.532336 1_555
Fe14 Zr2 2.933699 1_565
Fe14 Zr1 2.936934 1_565
Fe14 Zr7 2.946229 1_565
Fe14 Zr7 2.946234 1_455
Fe14 Zr4 2.947591 1_565
Fe14 Zr4 2.947595 1_455
Fe15 Fe2 2.532349 1_555
Fe15 Zr2 2.933725 1_665
Fe15 Zr1 2.936961 1_665
Fe15 Zr7 2.946183 1_555
Fe15 Zr7 2.946197 1_565
Fe15 Zr4 2.947545 1_555
Fe15 Zr4 2.947560 1_565
