# generated using pymatgen
data_Ho6Pb2Se11
_symmetry_space_group_name_H-M   'P 1'
_cell_length_a   7.06230019
_cell_length_b   7.06230019
_cell_length_c   38.19957400
_cell_angle_alpha   90.00000000
_cell_angle_beta   90.00000000
_cell_angle_gamma   146.42995340
_symmetry_Int_Tables_number   1
_chemical_formula_structural   Ho6Pb2Se11
_chemical_formula_sum   'Ho12 Pb4 Se22'
_cell_volume   1053.51680841
_cell_formula_units_Z   2
loop_
 _symmetry_equiv_pos_site_id
 _symmetry_equiv_pos_as_xyz
  1  'x, y, z'
loop_
 _atom_site_type_symbol
 _atom_site_label
 _atom_site_symmetry_multiplicity
 _atom_site_fract_x
 _atom_site_fract_y
 _atom_site_fract_z
 _atom_site_occupancy
  Ho  Ho0  1  0.75234200  0.24765800  0.31895400  1
  Ho  Ho1  1  0.24463000  0.75537000  0.68123400  1
  Ho  Ho2  1  0.75537000  0.24463000  0.18123400  1
  Ho  Ho3  1  0.24765800  0.75234200  0.81895400  1
  Ho  Ho4  1  0.97380700  0.02619300  0.86584800  1
  Ho  Ho5  1  0.02589600  0.97410400  0.13273800  1
  Ho  Ho6  1  0.97410400  0.02589600  0.63273800  1
  Ho  Ho7  1  0.02619300  0.97380700  0.36584800  1
  Ho  Ho8  1  0.99881500  0.00118500  0.50088700  1
  Ho  Ho9  1  0.00118500  0.99881500  0.00088700  1
  Ho  Ho10  1  0.26884000  0.73116000  0.05677100  1
  Ho  Ho11  1  0.73116000  0.26884000  0.55677100  1
  Pb  Pb0  1  0.48437800  0.51562200  0.25121300  1
  Pb  Pb1  1  0.51562200  0.48437800  0.75121300  1
  Pb  Pb2  1  0.72654200  0.27345800  0.94243700  1
  Pb  Pb3  1  0.27345800  0.72654200  0.44243700  1
  Se  Se0  1  0.87927500  0.12072500  0.79911200  1
  Se  Se1  1  0.12197300  0.87802700  0.19817800  1
  Se  Se2  1  0.87802700  0.12197300  0.69817800  1
  Se  Se3  1  0.12072500  0.87927500  0.29911200  1
  Se  Se4  1  0.92826100  0.07173900  0.43202900  1
  Se  Se5  1  0.08783700  0.91216300  0.56974500  1
  Se  Se6  1  0.91216300  0.08783700  0.06974500  1
  Se  Se7  1  0.07173900  0.92826100  0.93202900  1
  Se  Se8  1  0.83076700  0.16923300  0.24949500  1
  Se  Se9  1  0.16923300  0.83076700  0.74949500  1
  Se  Se10  1  0.39571200  0.60428800  0.33672800  1
  Se  Se11  1  0.60269800  0.39730200  0.66086200  1
  Se  Se12  1  0.39730200  0.60269800  0.16086200  1
  Se  Se13  1  0.60428800  0.39571200  0.83672800  1
  Se  Se14  1  0.63772300  0.36227700  0.48911600  1
  Se  Se15  1  0.35243200  0.64756800  0.51832600  1
  Se  Se16  1  0.64756800  0.35243200  0.01832600  1
  Se  Se17  1  0.36227700  0.63772300  0.98911600  1
  Se  Se18  1  0.65767000  0.34233000  0.38575300  1
  Se  Se19  1  0.33678900  0.66321100  0.61057400  1
  Se  Se20  1  0.66321100  0.33678900  0.11057400  1
  Se  Se21  1  0.34233000  0.65767000  0.88575300  1
loop_
_geom_bond_atom_site_label_1
_geom_bond_atom_site_label_2
_geom_bond_distance
_geom_bond_site_symmetry_2
Ho0 Se3 2.810998 1_655
Ho0 Se3 2.810998 1_545
Ho0 Se18 2.854844 1_555
Ho0 Se8 2.857401 1_555
Ho0 Se10 2.894686 1_655
Ho0 Se10 2.894686 1_545
Ho1 Se2 2.798645 1_565
Ho1 Se2 2.798645 1_455
Ho1 Se9 2.799788 1_555
Ho1 Se11 2.906681 1_565
Ho1 Se11 2.906681 1_455
Ho1 Se19 2.972999 1_555
Ho2 Se1 2.798645 1_655
Ho2 Se1 2.798645 1_545
Ho2 Se8 2.799788 1_555
Ho2 Se12 2.906681 1_655
Ho2 Se12 2.906681 1_545
Ho2 Se20 2.972999 1_555
Ho3 Se0 2.810998 1_565
Ho3 Se0 2.810998 1_455
Ho3 Se21 2.854844 1_555
Ho3 Se9 2.857401 1_555
Ho3 Se13 2.894686 1_565
Ho3 Se13 2.894686 1_455
Ho4 Se21 2.810450 1_545
Ho4 Se21 2.810450 1_655
Ho4 Se0 2.851844 1_555
Ho4 Se7 2.853951 1_645
Ho4 Se13 2.917214 1_545
Ho4 Se13 2.917214 1_655
Ho5 Se1 2.817251 1_555
Ho5 Se6 2.855823 1_465
Ho5 Se20 2.885179 1_565
Ho5 Se20 2.885179 1_455
Ho5 Se12 2.887480 1_455
Ho5 Se12 2.887480 1_565
Ho6 Se2 2.817251 1_555
Ho6 Se5 2.855823 1_645
Ho6 Se19 2.885179 1_545
Ho6 Se19 2.885179 1_655
Ho6 Se11 2.887480 1_655
Ho6 Se11 2.887480 1_545
Ho7 Se18 2.810450 1_455
Ho7 Se18 2.810450 1_565
Ho7 Se3 2.851844 1_555
Ho7 Se4 2.853951 1_465
Ho7 Se10 2.917214 1_565
Ho7 Se10 2.917214 1_455
Ho8 Se4 2.798036 1_555
Ho8 Se14 2.808929 1_655
Ho8 Se14 2.808929 1_545
Ho8 Se5 2.892737 1_645
Ho8 Se15 2.919185 1_655
Ho8 Se15 2.919185 1_545
Ho9 Se7 2.798036 1_554
Ho9 Se17 2.808929 1_564
Ho9 Se17 2.808929 1_454
Ho9 Se6 2.892737 1_465
Ho9 Se16 2.919185 1_565
Ho9 Se16 2.919185 1_455
Ho10 Se6 2.856813 1_565
Ho10 Se6 2.856813 1_455
Ho10 Se17 2.876734 1_554
Ho10 Se16 3.000924 1_565
Ho10 Se16 3.000924 1_455
Ho10 Se20 3.228591 1_565
Ho10 Se20 3.228591 1_455
Ho11 Se5 2.856813 1_655
Ho11 Se5 2.856813 1_545
Ho11 Se14 2.876734 1_555
Ho11 Se15 3.000924 1_655
Ho11 Se15 3.000924 1_545
Ho11 Se19 3.228591 1_545
Ho11 Se19 3.228591 1_655
Pb0 Se8 2.911820 1_565
Pb0 Se8 2.911820 1_455
Pb0 Se3 3.302555 1_655
Pb0 Se3 3.302555 1_545
Pb1 Se9 2.911820 1_655
Pb1 Se9 2.911820 1_545
Pb1 Se0 3.302555 1_565
Pb1 Se0 3.302555 1_455
Pb2 Se7 2.949523 1_655
Pb2 Se7 2.949523 1_545
Pb2 Se16 3.089385 1_556
Pb2 Se17 3.272316 1_655
Pb2 Se17 3.272316 1_545
Pb2 Se21 3.361490 1_545
Pb2 Se21 3.361490 1_655
Pb3 Se4 2.949523 1_455
Pb3 Se4 2.949523 1_565
Pb3 Se15 3.089385 1_555
Pb3 Se14 3.272316 1_565
Pb3 Se14 3.272316 1_455
Pb3 Se18 3.361490 1_455
Pb3 Se18 3.361490 1_565
