# generated using pymatgen
data_Li2H32Pt(C6O)2
_symmetry_space_group_name_H-M   'P 1'
_cell_length_a   15.06518399
_cell_length_b   15.65613803
_cell_length_c   17.00166388
_cell_angle_alpha   90.00000000
_cell_angle_beta   90.00000000
_cell_angle_gamma   90.00000000
_symmetry_Int_Tables_number   1
_chemical_formula_structural   Li2H32Pt(C6O)2
_chemical_formula_sum   'Li16 H256 Pt8 C96 O16'
_cell_volume   4010.05664697
_cell_formula_units_Z   8
loop_
 _symmetry_equiv_pos_site_id
 _symmetry_equiv_pos_as_xyz
  1  'x, y, z'
loop_
 _atom_site_type_symbol
 _atom_site_label
 _atom_site_symmetry_multiplicity
 _atom_site_fract_x
 _atom_site_fract_y
 _atom_site_fract_z
 _atom_site_occupancy
  Li  Li0  1  0.99584653  0.37277763  0.01441111  1
  Li  Li1  1  0.50415347  0.87277763  0.98558889  1
  Li  Li2  1  0.49584653  0.62722237  0.48558889  1
  Li  Li3  1  0.00415347  0.12722237  0.51441111  1
  Li  Li4  1  0.00415347  0.62722237  0.98558889  1
  Li  Li5  1  0.49584653  0.12722237  0.01441111  1
  Li  Li6  1  0.50415347  0.37277763  0.51441111  1
  Li  Li7  1  0.99584653  0.87277763  0.48558889  1
  Li  Li8  1  0.10158077  0.50565239  0.07322573  1
  Li  Li9  1  0.39841923  0.00565239  0.92677427  1
  Li  Li10  1  0.60158077  0.49434761  0.42677427  1
  Li  Li11  1  0.89841923  0.99434761  0.57322573  1
  Li  Li12  1  0.89841923  0.49434761  0.92677427  1
  Li  Li13  1  0.60158077  0.99434761  0.07322573  1
  Li  Li14  1  0.39841923  0.50565239  0.57322573  1
  Li  Li15  1  0.10158077  0.00565239  0.42677427  1
  H  H0  1  0.92551125  0.39868470  0.84786419  1
  H  H1  1  0.57448875  0.89868470  0.15213581  1
  H  H2  1  0.42551125  0.60131530  0.65213581  1
  H  H3  1  0.07448875  0.10131530  0.34786419  1
  H  H4  1  0.07448875  0.60131530  0.15213581  1
  H  H5  1  0.42551125  0.10131530  0.84786419  1
  H  H6  1  0.57448875  0.39868470  0.34786419  1
  H  H7  1  0.92551125  0.89868470  0.65213581  1
  H  H8  1  0.03281365  0.37261918  0.81781341  1
  H  H9  1  0.46718635  0.87261918  0.18218659  1
  H  H10  1  0.53281365  0.62738082  0.68218659  1
  H  H11  1  0.96718635  0.12738082  0.31781341  1
  H  H12  1  0.96718635  0.62738082  0.18218659  1
  H  H13  1  0.53281365  0.12738082  0.81781341  1
  H  H14  1  0.46718635  0.37261918  0.31781341  1
  H  H15  1  0.03281365  0.87261918  0.68218659  1
  H  H16  1  0.98967628  0.32454276  0.90187051  1
  H  H17  1  0.51032372  0.82454276  0.09812949  1
  H  H18  1  0.48967628  0.67545724  0.59812949  1
  H  H19  1  0.01032372  0.17545724  0.40187051  1
  H  H20  1  0.01032372  0.67545724  0.09812949  1
  H  H21  1  0.48967628  0.17545724  0.90187051  1
  H  H22  1  0.51032372  0.32454276  0.40187051  1
  H  H23  1  0.98967628  0.82454276  0.59812949  1
  H  H24  1  0.05114832  0.62644021  0.82811934  1
  H  H25  1  0.44885168  0.12644021  0.17188066  1
  H  H26  1  0.55114832  0.37355979  0.67188066  1
  H  H27  1  0.94885168  0.87355979  0.32811934  1
  H  H28  1  0.94885168  0.37355979  0.17188066  1
  H  H29  1  0.55114832  0.87355979  0.82811934  1
  H  H30  1  0.44885168  0.62644021  0.32811934  1
  H  H31  1  0.05114832  0.12644021  0.67188066  1
  H  H32  1  0.98466989  0.54223426  0.79151053  1
  H  H33  1  0.51533011  0.04223426  0.20848947  1
  H  H34  1  0.48466989  0.45776574  0.70848947  1
  H  H35  1  0.01533011  0.95776574  0.29151053  1
  H  H36  1  0.01533011  0.45776574  0.20848947  1
  H  H37  1  0.48466989  0.95776574  0.79151053  1
  H  H38  1  0.51533011  0.54223426  0.29151053  1
  H  H39  1  0.98466989  0.04223426  0.70848947  1
  H  H40  1  0.94313515  0.61156211  0.86375974  1
  H  H41  1  0.55686485  0.11156211  0.13624026  1
  H  H42  1  0.44313515  0.38843789  0.63624026  1
  H  H43  1  0.05686485  0.88843789  0.36375974  1
  H  H44  1  0.05686485  0.38843789  0.13624026  1
  H  H45  1  0.44313515  0.88843789  0.86375974  1
  H  H46  1  0.55686485  0.61156211  0.36375974  1
  H  H47  1  0.94313515  0.11156211  0.63624026  1
  H  H48  1  0.16391138  0.60976325  0.01884135  1
  H  H49  1  0.33608862  0.10976325  0.98115865  1
  H  H50  1  0.66391138  0.39023675  0.48115865  1
  H  H51  1  0.83608862  0.89023675  0.51884135  1
  H  H52  1  0.83608862  0.39023675  0.98115865  1
  H  H53  1  0.66391138  0.89023675  0.01884135  1
  H  H54  1  0.33608862  0.60976325  0.51884135  1
  H  H55  1  0.16391138  0.10976325  0.48115865  1
  H  H56  1  0.22627474  0.56221124  0.94356982  1
  H  H57  1  0.27372526  0.06221124  0.05643018  1
  H  H58  1  0.72627474  0.43778876  0.55643018  1
  H  H59  1  0.77372526  0.93778876  0.44356982  1
  H  H60  1  0.77372526  0.43778876  0.05643018  1
  H  H61  1  0.72627474  0.93778876  0.94356982  1
  H  H62  1  0.27372526  0.56221124  0.44356982  1
  H  H63  1  0.22627474  0.06221124  0.55643018  1
  H  H64  1  0.15088928  0.64488373  0.92137890  1
  H  H65  1  0.34911072  0.14488373  0.07862110  1
  H  H66  1  0.65088928  0.35511627  0.57862110  1
  H  H67  1  0.84911072  0.85511627  0.42137890  1
  H  H68  1  0.84911072  0.35511627  0.07862110  1
  H  H69  1  0.65088928  0.85511627  0.92137890  1
  H  H70  1  0.34911072  0.64488373  0.42137890  1
  H  H71  1  0.15088928  0.14488373  0.57862110  1
  H  H72  1  0.16268060  0.39427629  0.04509896  1
  H  H73  1  0.33731940  0.89427629  0.95490104  1
  H  H74  1  0.66268060  0.60572371  0.45490104  1
  H  H75  1  0.83731940  0.10572371  0.54509896  1
  H  H76  1  0.83731940  0.60572371  0.95490104  1
  H  H77  1  0.66268060  0.10572371  0.04509896  1
  H  H78  1  0.33731940  0.39427629  0.54509896  1
  H  H79  1  0.16268060  0.89427629  0.45490104  1
  H  H80  1  0.13043238  0.32932468  0.96545761  1
  H  H81  1  0.36956762  0.82932468  0.03454239  1
  H  H82  1  0.63043238  0.67067532  0.53454239  1
  H  H83  1  0.86956762  0.17067532  0.46545761  1
  H  H84  1  0.86956762  0.67067532  0.03454239  1
  H  H85  1  0.63043238  0.17067532  0.96545761  1
  H  H86  1  0.36956762  0.32932468  0.46545761  1
  H  H87  1  0.13043238  0.82932468  0.53454239  1
  H  H88  1  0.21630618  0.40433725  0.95482349  1
  H  H89  1  0.28369382  0.90433725  0.04517651  1
  H  H90  1  0.71630618  0.59566275  0.54517651  1
  H  H91  1  0.78369382  0.09566275  0.45482349  1
  H  H92  1  0.78369382  0.59566275  0.04517651  1
  H  H93  1  0.71630618  0.09566275  0.95482349  1
  H  H94  1  0.28369382  0.40433725  0.45482349  1
  H  H95  1  0.21630618  0.90433725  0.54517651  1
  H  H96  1  0.12759025  0.21898081  0.04081142  1
  H  H97  1  0.37240975  0.71898081  0.95918858  1
  H  H98  1  0.62759025  0.78101919  0.45918858  1
  H  H99  1  0.87240975  0.28101919  0.54081142  1
  H  H100  1  0.87240975  0.78101919  0.95918858  1
  H  H101  1  0.62759025  0.28101919  0.04081142  1
  H  H102  1  0.37240975  0.21898081  0.54081142  1
  H  H103  1  0.12759025  0.71898081  0.45918858  1
  H  H104  1  0.07474363  0.12135982  0.01819799  1
  H  H105  1  0.42525637  0.62135982  0.98180201  1
  H  H106  1  0.57474363  0.87864018  0.48180201  1
  H  H107  1  0.92525637  0.37864018  0.51819799  1
  H  H108  1  0.92525637  0.87864018  0.98180201  1
  H  H109  1  0.57474363  0.37864018  0.01819799  1
  H  H110  1  0.42525637  0.12135982  0.51819799  1
  H  H111  1  0.07474363  0.62135982  0.48180201  1
  H  H112  1  0.12393543  0.12504090  0.15745195  1
  H  H113  1  0.37606457  0.62504090  0.84254805  1
  H  H114  1  0.62393543  0.87495910  0.34254805  1
  H  H115  1  0.87606457  0.37495910  0.65745195  1
  H  H116  1  0.87606457  0.87495910  0.84254805  1
  H  H117  1  0.62393543  0.37495910  0.15745195  1
  H  H118  1  0.37606457  0.12504090  0.65745195  1
  H  H119  1  0.12393543  0.62504090  0.34254805  1
  H  H120  1  0.05832481  0.21779566  0.17566090  1
  H  H121  1  0.44167519  0.71779566  0.82433910  1
  H  H122  1  0.55832481  0.78220434  0.32433910  1
  H  H123  1  0.94167519  0.28220434  0.67566090  1
  H  H124  1  0.94167519  0.78220434  0.82433910  1
  H  H125  1  0.55832481  0.28220434  0.17566090  1
  H  H126  1  0.44167519  0.21779566  0.67566090  1
  H  H127  1  0.05832481  0.71779566  0.32433910  1
  H  H128  1  0.00652810  0.11808634  0.15527088  1
  H  H129  1  0.49347190  0.61808634  0.84472912  1
  H  H130  1  0.50652810  0.88191366  0.34472912  1
  H  H131  1  0.99347190  0.38191366  0.65527088  1
  H  H132  1  0.99347190  0.88191366  0.84472912  1
  H  H133  1  0.50652810  0.38191366  0.15527088  1
  H  H134  1  0.49347190  0.11808634  0.65527088  1
  H  H135  1  0.00652810  0.61808634  0.34472912  1
  H  H136  1  0.86610431  0.22482861  0.98741839  1
  H  H137  1  0.63389569  0.72482861  0.01258161  1
  H  H138  1  0.36610431  0.77517139  0.51258161  1
  H  H139  1  0.13389569  0.27517139  0.48741839  1
  H  H140  1  0.13389569  0.77517139  0.01258161  1
  H  H141  1  0.36610431  0.27517139  0.98741839  1
  H  H142  1  0.63389569  0.22482861  0.48741839  1
  H  H143  1  0.86610431  0.72482861  0.51258161  1
  H  H144  1  0.89444462  0.14190166  0.05367482  1
  H  H145  1  0.60555538  0.64190166  0.94632518  1
  H  H146  1  0.39444462  0.85809834  0.44632518  1
  H  H147  1  0.10555538  0.35809834  0.55367482  1
  H  H148  1  0.10555538  0.85809834  0.94632518  1
  H  H149  1  0.39444462  0.35809834  0.05367482  1
  H  H150  1  0.60555538  0.14190166  0.55367482  1
  H  H151  1  0.89444462  0.64190166  0.44632518  1
  H  H152  1  0.87198805  0.08714240  0.91728069  1
  H  H153  1  0.62801195  0.58714240  0.08271931  1
  H  H154  1  0.37198805  0.91285760  0.58271931  1
  H  H155  1  0.12801195  0.41285760  0.41728069  1
  H  H156  1  0.12801195  0.91285760  0.08271931  1
  H  H157  1  0.37198805  0.41285760  0.91728069  1
  H  H158  1  0.62801195  0.08714240  0.41728069  1
  H  H159  1  0.87198805  0.58714240  0.58271931  1
  H  H160  1  0.95778125  0.15510069  0.88098857  1
  H  H161  1  0.54221875  0.65510069  0.11901143  1
  H  H162  1  0.45778125  0.84489931  0.61901143  1
  H  H163  1  0.04221875  0.34489931  0.38098857  1
  H  H164  1  0.04221875  0.84489931  0.11901143  1
  H  H165  1  0.45778125  0.34489931  0.88098857  1
  H  H166  1  0.54221875  0.15510069  0.38098857  1
  H  H167  1  0.95778125  0.65510069  0.61901143  1
  H  H168  1  0.98318797  0.06863410  0.94509859  1
  H  H169  1  0.51681203  0.56863410  0.05490141  1
  H  H170  1  0.48318797  0.93136590  0.55490141  1
  H  H171  1  0.01681203  0.43136590  0.44509859  1
  H  H172  1  0.01681203  0.93136590  0.05490141  1
  H  H173  1  0.48318797  0.43136590  0.94509859  1
  H  H174  1  0.51681203  0.06863410  0.44509859  1
  H  H175  1  0.98318797  0.56863410  0.55490141  1
  H  H176  1  0.36211327  0.51778380  0.16984657  1
  H  H177  1  0.13788673  0.01778380  0.83015343  1
  H  H178  1  0.86211327  0.48221620  0.33015343  1
  H  H179  1  0.63788673  0.98221620  0.66984657  1
  H  H180  1  0.63788673  0.48221620  0.83015343  1
  H  H181  1  0.86211327  0.98221620  0.16984657  1
  H  H182  1  0.13788673  0.51778380  0.66984657  1
  H  H183  1  0.36211327  0.01778380  0.33015343  1
  H  H184  1  0.31417580  0.54999334  0.07892294  1
  H  H185  1  0.18582420  0.04999334  0.92107706  1
  H  H186  1  0.81417580  0.45000666  0.42107706  1
  H  H187  1  0.68582420  0.95000666  0.57892294  1
  H  H188  1  0.68582420  0.45000666  0.92107706  1
  H  H189  1  0.81417580  0.95000666  0.07892294  1
  H  H190  1  0.18582420  0.54999334  0.57892294  1
  H  H191  1  0.31417580  0.04999334  0.42107706  1
  H  H192  1  0.36698701  0.67637357  0.15694421  1
  H  H193  1  0.13301299  0.17637357  0.84305579  1
  H  H194  1  0.86698701  0.32362643  0.34305579  1
  H  H195  1  0.63301299  0.82362643  0.65694421  1
  H  H196  1  0.63301299  0.32362643  0.84305579  1
  H  H197  1  0.86698701  0.82362643  0.15694421  1
  H  H198  1  0.13301299  0.67637357  0.65694421  1
  H  H199  1  0.36698701  0.17637357  0.34305579  1
  H  H200  1  0.24960213  0.67989914  0.14346690  1
  H  H201  1  0.25039787  0.17989914  0.85653310  1
  H  H202  1  0.74960213  0.32010086  0.35653310  1
  H  H203  1  0.75039787  0.82010086  0.64346690  1
  H  H204  1  0.75039787  0.32010086  0.85653310  1
  H  H205  1  0.74960213  0.82010086  0.14346690  1
  H  H206  1  0.25039787  0.67989914  0.64346690  1
  H  H207  1  0.24960213  0.17989914  0.35653310  1
  H  H208  1  0.29541276  0.64867872  0.23568441  1
  H  H209  1  0.20458724  0.14867872  0.76431559  1
  H  H210  1  0.79541276  0.35132128  0.26431559  1
  H  H211  1  0.70458724  0.85132128  0.73568441  1
  H  H212  1  0.70458724  0.35132128  0.76431559  1
  H  H213  1  0.79541276  0.85132128  0.23568441  1
  H  H214  1  0.20458724  0.64867872  0.73568441  1
  H  H215  1  0.29541276  0.14867872  0.26431559  1
  H  H216  1  0.26926726  0.50503276  0.27673658  1
  H  H217  1  0.23073274  0.00503276  0.72326342  1
  H  H218  1  0.76926726  0.49496724  0.22326342  1
  H  H219  1  0.73073274  0.99496724  0.77673658  1
  H  H220  1  0.73073274  0.49496724  0.72326342  1
  H  H221  1  0.76926726  0.99496724  0.27673658  1
  H  H222  1  0.23073274  0.50503276  0.77673658  1
  H  H223  1  0.26926726  0.00503276  0.22326342  1
  H  H224  1  0.15863165  0.46956288  0.25994666  1
  H  H225  1  0.34136835  0.96956288  0.74005334  1
  H  H226  1  0.65863165  0.53043712  0.24005334  1
  H  H227  1  0.84136835  0.03043712  0.75994666  1
  H  H228  1  0.84136835  0.53043712  0.74005334  1
  H  H229  1  0.65863165  0.03043712  0.25994666  1
  H  H230  1  0.34136835  0.46956288  0.75994666  1
  H  H231  1  0.15863165  0.96956288  0.24005334  1
  H  H232  1  0.25979347  0.34755526  0.29208549  1
  H  H233  1  0.24020653  0.84755526  0.70791451  1
  H  H234  1  0.75979347  0.65244474  0.20791451  1
  H  H235  1  0.74020653  0.15244474  0.79208549  1
  H  H236  1  0.74020653  0.65244474  0.70791451  1
  H  H237  1  0.75979347  0.15244474  0.29208549  1
  H  H238  1  0.24020653  0.34755526  0.79208549  1
  H  H239  1  0.25979347  0.84755526  0.20791451  1
  H  H240  1  0.21623480  0.33681311  0.19485327  1
  H  H241  1  0.28376520  0.83681311  0.80514673  1
  H  H242  1  0.71623480  0.66318689  0.30514673  1
  H  H243  1  0.78376520  0.16318689  0.69485327  1
  H  H244  1  0.78376520  0.66318689  0.80514673  1
  H  H245  1  0.71623480  0.16318689  0.19485327  1
  H  H246  1  0.28376520  0.33681311  0.69485327  1
  H  H247  1  0.21623480  0.83681311  0.30514673  1
  H  H248  1  0.32766226  0.37151553  0.21007471  1
  H  H249  1  0.17233774  0.87151553  0.78992529  1
  H  H250  1  0.82766226  0.62848447  0.28992529  1
  H  H251  1  0.67233774  0.12848447  0.71007471  1
  H  H252  1  0.67233774  0.62848447  0.78992529  1
  H  H253  1  0.82766226  0.12848447  0.21007471  1
  H  H254  1  0.17233774  0.37151553  0.71007471  1
  H  H255  1  0.32766226  0.87151553  0.28992529  1
  Pt  Pt0  1  0.06885975  0.48819044  0.92239334  1
  Pt  Pt1  1  0.43114025  0.98819044  0.07760666  1
  Pt  Pt2  1  0.56885975  0.51180956  0.57760666  1
  Pt  Pt3  1  0.93114025  0.01180956  0.42239334  1
  Pt  Pt4  1  0.93114025  0.51180956  0.07760666  1
  Pt  Pt5  1  0.56885975  0.01180956  0.92239334  1
  Pt  Pt6  1  0.43114025  0.48819044  0.42239334  1
  Pt  Pt7  1  0.06885975  0.98819044  0.57760666  1
  C  C0  1  0.06845347  0.18017309  0.05320272  1
  C  C1  1  0.43154653  0.68017309  0.94679728  1
  C  C2  1  0.56845347  0.81982691  0.44679728  1
  C  C3  1  0.93154653  0.31982691  0.55320272  1
  C  C4  1  0.93154653  0.81982691  0.94679728  1
  C  C5  1  0.56845347  0.31982691  0.05320272  1
  C  C6  1  0.43154653  0.18017309  0.55320272  1
  C  C7  1  0.06845347  0.68017309  0.44679728  1
  C  C8  1  0.06298578  0.15946688  0.14032849  1
  C  C9  1  0.43701422  0.65946688  0.85967151  1
  C  C10  1  0.56298578  0.84053312  0.35967151  1
  C  C11  1  0.93701422  0.34053312  0.64032849  1
  C  C12  1  0.93701422  0.84053312  0.85967151  1
  C  C13  1  0.56298578  0.34053312  0.14032849  1
  C  C14  1  0.43701422  0.15946688  0.64032849  1
  C  C15  1  0.06298578  0.65946688  0.35967151  1
  C  C16  1  0.91813891  0.17834362  0.00228881  1
  C  C17  1  0.58186109  0.67834362  0.99771119  1
  C  C18  1  0.41813891  0.82165638  0.49771119  1
  C  C19  1  0.08186109  0.32165638  0.50228881  1
  C  C20  1  0.08186109  0.82165638  0.99771119  1
  C  C21  1  0.41813891  0.32165638  0.00228881  1
  C  C22  1  0.58186109  0.17834362  0.50228881  1
  C  C23  1  0.91813891  0.67834362  0.49771119  1
  C  C24  1  0.93458554  0.11925298  0.93248501  1
  C  C25  1  0.56541446  0.61925298  0.06751499  1
  C  C26  1  0.43458554  0.88074702  0.56751499  1
  C  C27  1  0.06541446  0.38074702  0.43248501  1
  C  C28  1  0.06541446  0.88074702  0.06751499  1
  C  C29  1  0.43458554  0.38074702  0.93248501  1
  C  C30  1  0.56541446  0.11925298  0.43248501  1
  C  C31  1  0.93458554  0.61925298  0.56751499  1
  C  C32  1  0.30591074  0.55252398  0.14302962  1
  C  C33  1  0.19408926  0.05252398  0.85697038  1
  C  C34  1  0.80591074  0.44747602  0.35697038  1
  C  C35  1  0.69408926  0.94747602  0.64302962  1
  C  C36  1  0.69408926  0.44747602  0.85697038  1
  C  C37  1  0.80591074  0.94747602  0.14302962  1
  C  C38  1  0.19408926  0.55252398  0.64302962  1
  C  C39  1  0.30591074  0.05252398  0.35697038  1
  C  C40  1  0.30404326  0.64460621  0.17166051  1
  C  C41  1  0.19595674  0.14460621  0.82833949  1
  C  C42  1  0.80404326  0.35539379  0.32833949  1
  C  C43  1  0.69595674  0.85539379  0.67166051  1
  C  C44  1  0.69595674  0.35539379  0.82833949  1
  C  C45  1  0.80404326  0.85539379  0.17166051  1
  C  C46  1  0.19595674  0.64460621  0.67166051  1
  C  C47  1  0.30404326  0.14460621  0.32833949  1
  C  C48  1  0.22664610  0.46722968  0.23697276  1
  C  C49  1  0.27335390  0.96722968  0.76302724  1
  C  C50  1  0.72664610  0.53277032  0.26302724  1
  C  C51  1  0.77335390  0.03277032  0.73697276  1
  C  C52  1  0.77335390  0.53277032  0.76302724  1
  C  C53  1  0.72664610  0.03277032  0.23697276  1
  C  C54  1  0.27335390  0.46722968  0.73697276  1
  C  C55  1  0.22664610  0.96722968  0.26302724  1
  C  C56  1  0.25950808  0.37550414  0.23277554  1
  C  C57  1  0.24049192  0.87550414  0.76722446  1
  C  C58  1  0.75950808  0.62449586  0.26722446  1
  C  C59  1  0.74049192  0.12449586  0.73277554  1
  C  C60  1  0.74049192  0.62449586  0.76722446  1
  C  C61  1  0.75950808  0.12449586  0.23277554  1
  C  C62  1  0.24049192  0.37550414  0.73277554  1
  C  C63  1  0.25950808  0.87550414  0.26722446  1
  C  C64  1  0.99329281  0.38675312  0.87092268  1
  C  C65  1  0.50670719  0.88675312  0.12907732  1
  C  C66  1  0.49329281  0.61324688  0.62907732  1
  C  C67  1  0.00670719  0.11324688  0.37092268  1
  C  C68  1  0.00670719  0.61324688  0.12907732  1
  C  C69  1  0.49329281  0.11324688  0.87092268  1
  C  C70  1  0.50670719  0.38675312  0.37092268  1
  C  C71  1  0.99329281  0.88675312  0.62907732  1
  C  C72  1  0.00397543  0.57607738  0.84577656  1
  C  C73  1  0.49602457  0.07607738  0.15422344  1
  C  C74  1  0.50397543  0.42392262  0.65422344  1
  C  C75  1  0.99602457  0.92392262  0.34577656  1
  C  C76  1  0.99602457  0.42392262  0.15422344  1
  C  C77  1  0.50397543  0.92392262  0.84577656  1
  C  C78  1  0.49602457  0.57607738  0.34577656  1
  C  C79  1  0.00397543  0.07607738  0.65422344  1
  C  C80  1  0.15918173  0.58641530  0.95709674  1
  C  C81  1  0.34081827  0.08641530  0.04290326  1
  C  C82  1  0.65918173  0.41358470  0.54290326  1
  C  C83  1  0.84081827  0.91358470  0.45709674  1
  C  C84  1  0.84081827  0.41358470  0.04290326  1
  C  C85  1  0.65918173  0.91358470  0.95709674  1
  C  C86  1  0.34081827  0.58641530  0.45709674  1
  C  C87  1  0.15918173  0.08641530  0.54290326  1
  C  C88  1  0.14987984  0.39533430  0.98072343  1
  C  C89  1  0.35012016  0.89533430  0.01927657  1
  C  C90  1  0.64987984  0.60466570  0.51927657  1
  C  C91  1  0.85012016  0.10466570  0.48072343  1
  C  C92  1  0.85012016  0.60466570  0.01927657  1
  C  C93  1  0.64987984  0.10466570  0.98072343  1
  C  C94  1  0.35012016  0.39533430  0.48072343  1
  C  C95  1  0.14987984  0.89533430  0.51927657  1
  O  O0  1  0.99418682  0.22963699  0.02409978  1
  O  O1  1  0.50581318  0.72963699  0.97590022  1
  O  O2  1  0.49418682  0.77036301  0.47590022  1
  O  O3  1  0.00581318  0.27036301  0.52409978  1
  O  O4  1  0.00581318  0.77036301  0.97590022  1
  O  O5  1  0.49418682  0.27036301  0.02409978  1
  O  O6  1  0.50581318  0.22963699  0.52409978  1
  O  O7  1  0.99418682  0.72963699  0.47590022  1
  O  O8  1  0.22437473  0.50757833  0.16025619  1
  O  O9  1  0.27562527  0.00757833  0.83974381  1
  O  O10  1  0.72437473  0.49242167  0.33974381  1
  O  O11  1  0.77562527  0.99242167  0.66025619  1
  O  O12  1  0.77562527  0.49242167  0.83974381  1
  O  O13  1  0.72437473  0.99242167  0.16025619  1
  O  O14  1  0.27562527  0.50757833  0.66025619  1
  O  O15  1  0.22437473  0.00757833  0.33974381  1
loop_
_geom_bond_atom_site_label_1
_geom_bond_atom_site_label_2
_geom_bond_distance
_geom_bond_site_symmetry_2
Li0 O0 2.247214 1_555
Li0 Pt4 2.615854 1_555
Li0 Pt0 2.631042 1_654
Li1 O1 2.247214 1_555
Li1 Pt5 2.615854 1_565
Li1 Pt1 2.631042 1_556
Li2 O2 2.247214 1_555
Li2 Pt6 2.615854 1_555
Li2 Pt2 2.631042 1_555
Li3 O3 2.247214 1_555
Li3 Pt7 2.615854 1_545
Li3 Pt3 2.631042 1_455
Li4 O4 2.247214 1_555
Li4 Pt0 2.615854 1_555
Li4 Pt4 2.631042 1_456
Li5 O5 2.247214 1_555
Li5 Pt1 2.615854 1_545
Li5 Pt5 2.631042 1_554
Li6 O6 2.247214 1_555
Li6 Pt2 2.615854 1_555
Li6 Pt6 2.631042 1_555
Li7 O7 2.247214 1_555
Li7 Pt3 2.615854 1_565
Li7 Pt7 2.631042 1_655
Li8 O8 2.369070 1_555
Li8 Pt4 2.570606 1_455
Li8 Pt0 2.625623 1_554
Li9 O9 2.369070 1_555
Li9 Pt5 2.570606 1_555
Li9 Pt1 2.625623 1_546
Li10 O10 2.369070 1_555
Li10 Pt6 2.570606 1_555
Li10 Pt2 2.625623 1_555
Li11 O11 2.369070 1_555
Li11 Pt7 2.570606 1_655
Li11 Pt3 2.625623 1_565
Li12 O12 2.369070 1_555
Li12 Pt0 2.570606 1_655
Li12 Pt4 2.625623 1_556
Li13 O13 2.369070 1_555
Li13 Pt1 2.570606 1_555
Li13 Pt5 2.625623 1_564
Li14 O14 2.369070 1_555
Li14 Pt2 2.570606 1_555
Li14 Pt6 2.625623 1_555
Li15 O15 2.369070 1_555
Li15 Pt3 2.570606 1_455
Li15 Pt7 2.625623 1_545
H0 Li12 2.051736 1_555
H1 Li13 2.051736 1_555
H2 Li14 2.051736 1_555
H3 Li15 2.051736 1_555
H4 Li8 2.051736 1_555
H5 Li9 2.051736 1_555
H6 Li10 2.051736 1_555
H7 Li11 2.051736 1_555
H16 Li0 2.059111 1_556
H17 Li1 2.059111 1_554
H18 Li2 2.059111 1_555
H19 Li3 2.059111 1_555
H20 Li4 2.059111 1_554
H21 Li5 2.059111 1_556
H22 Li6 2.059111 1_555
H23 Li7 2.059111 1_555
H48 Li8 2.096070 1_555
H49 Li9 2.096070 1_555
H50 Li10 2.096070 1_555
H51 Li11 2.096070 1_555
H52 Li12 2.096070 1_555
H53 Li13 2.096070 1_555
H54 Li14 2.096070 1_555
H55 Li15 2.096070 1_555
H72 Li8 2.028921 1_555
H73 Li9 2.028921 1_565
H74 Li10 2.028921 1_555
H75 Li11 2.028921 1_545
H76 Li12 2.028921 1_555
H77 Li13 2.028921 1_545
H78 Li14 2.028921 1_555
H79 Li15 2.028921 1_565
C0 H96 1.098749 1_555
C0 H104 1.100464 1_555
C0 O0 1.447877 1_455
C1 H97 1.098749 1_555
C1 H105 1.100464 1_555
C1 O1 1.447877 1_555
C2 H98 1.098749 1_555
C2 H106 1.100464 1_555
C2 O2 1.447877 1_555
C3 H99 1.098749 1_555
C3 H107 1.100464 1_555
C3 O3 1.447877 1_655
C4 H100 1.098749 1_555
C4 H108 1.100464 1_555
C4 O4 1.447877 1_655
C5 H101 1.098749 1_555
C5 H109 1.100464 1_555
C5 O5 1.447877 1_555
C6 H102 1.098749 1_555
C6 H110 1.100464 1_555
C6 O6 1.447877 1_555
C7 H103 1.098749 1_555
C7 H111 1.100464 1_555
C7 O7 1.447877 1_455
C8 H120 1.095319 1_555
C8 H128 1.098949 1_555
C8 H112 1.103801 1_555
C9 H121 1.095319 1_555
C9 H129 1.098949 1_555
C9 H113 1.103801 1_555
C10 H122 1.095319 1_555
C10 H130 1.098949 1_555
C10 H114 1.103801 1_555
C11 H123 1.095319 1_555
C11 H131 1.098949 1_555
C11 H115 1.103801 1_555
C12 H124 1.095319 1_555
C12 H132 1.098949 1_555
C12 H116 1.103801 1_555
C13 H125 1.095319 1_555
C13 H133 1.098949 1_555
C13 H117 1.103801 1_555
C14 H126 1.095319 1_555
C14 H134 1.098949 1_555
C14 H118 1.103801 1_555
C15 H127 1.095319 1_555
C15 H135 1.098949 1_555
C15 H119 1.103801 1_555
C16 H136 1.099132 1_554
C16 H144 1.102813 1_555
C16 O0 1.447405 1_555
C17 H137 1.099132 1_556
C17 H145 1.102813 1_555
C17 O1 1.447405 1_555
C18 H138 1.099132 1_555
C18 H146 1.102813 1_555
C18 O2 1.447405 1_555
C19 H139 1.099132 1_555
C19 H147 1.102813 1_555
C19 O3 1.447405 1_555
C20 H140 1.099132 1_556
C20 H148 1.102813 1_555
C20 O4 1.447405 1_555
C21 H141 1.099132 1_554
C21 H149 1.102813 1_555
C21 O5 1.447405 1_555
C22 H142 1.099132 1_555
C22 H150 1.102813 1_555
C22 O6 1.447405 1_555
C23 H143 1.099132 1_555
C23 H151 1.102813 1_555
C23 O7 1.447405 1_555
C24 H160 1.097107 1_555
C24 H152 1.099494 1_555
C24 H168 1.100074 1_555
C25 H161 1.097107 1_555
C25 H153 1.099494 1_555
C25 H169 1.100074 1_555
C26 H162 1.097107 1_555
C26 H154 1.099494 1_555
C26 H170 1.100074 1_555
C27 H163 1.097107 1_555
C27 H155 1.099494 1_555
C27 H171 1.100074 1_555
C28 H164 1.097107 1_555
C28 H156 1.099494 1_555
C28 H172 1.100074 1_555
C29 H165 1.097107 1_555
C29 H157 1.099494 1_555
C29 H173 1.100074 1_555
C30 H166 1.097107 1_555
C30 H158 1.099494 1_555
C30 H174 1.100074 1_555
C31 H167 1.097107 1_555
C31 H159 1.099494 1_555
C31 H175 1.100074 1_555
C32 H184 1.097725 1_555
C32 H176 1.104809 1_555
C32 O8 1.445612 1_555
C33 H185 1.097725 1_555
C33 H177 1.104809 1_555
C33 O9 1.445612 1_555
C34 H186 1.097725 1_555
C34 H178 1.104809 1_555
C34 O10 1.445612 1_555
C35 H187 1.097725 1_555
C35 H179 1.104809 1_555
C35 O11 1.445612 1_555
C36 H188 1.097725 1_555
C36 H180 1.104809 1_555
C36 O12 1.445612 1_555
C37 H189 1.097725 1_555
C37 H181 1.104809 1_555
C37 O13 1.445612 1_555
C38 H190 1.097725 1_555
C38 H182 1.104809 1_555
C38 O14 1.445612 1_555
C39 H191 1.097725 1_555
C39 H183 1.104809 1_555
C39 O15 1.445612 1_555
C40 H208 1.098103 1_555
C40 H200 1.098977 1_555
C40 H192 1.099617 1_555
C41 H209 1.098103 1_555
C41 H201 1.098977 1_555
C41 H193 1.099617 1_555
C42 H210 1.098103 1_555
C42 H202 1.098977 1_555
C42 H194 1.099617 1_555
C43 H211 1.098103 1_555
C43 H203 1.098977 1_555
C43 H195 1.099617 1_555
C44 H212 1.098103 1_555
C44 H204 1.098977 1_555
C44 H196 1.099617 1_555
C45 H213 1.098103 1_555
C45 H205 1.098977 1_555
C45 H197 1.099617 1_555
C46 H214 1.098103 1_555
C46 H206 1.098977 1_555
C46 H198 1.099617 1_555
C47 H215 1.098103 1_555
C47 H207 1.098977 1_555
C47 H199 1.099617 1_555
C48 H224 1.097181 1_555
C48 H216 1.104363 1_555
C48 O8 1.449636 1_555
C49 H225 1.097181 1_555
C49 H217 1.104363 1_565
C49 O9 1.449636 1_565
C50 H226 1.097181 1_555
C50 H218 1.104363 1_555
C50 O10 1.449636 1_555
C51 H227 1.097181 1_555
C51 H219 1.104363 1_545
C51 O11 1.449636 1_545
C52 H228 1.097181 1_555
C52 H220 1.104363 1_555
C52 O12 1.449636 1_555
C53 H229 1.097181 1_555
C53 H221 1.104363 1_545
C53 O13 1.449636 1_545
C54 H230 1.097181 1_555
C54 H222 1.104363 1_555
C54 O14 1.449636 1_555
C55 H231 1.097181 1_555
C55 H223 1.104363 1_565
C55 O15 1.449636 1_565
C56 H248 1.098674 1_555
C56 H240 1.098921 1_555
C56 H232 1.099224 1_555
C57 H249 1.098674 1_555
C57 H241 1.098921 1_555
C57 H233 1.099224 1_555
C58 H250 1.098674 1_555
C58 H242 1.098921 1_555
C58 H234 1.099224 1_555
C59 H251 1.098674 1_555
C59 H243 1.098921 1_555
C59 H235 1.099224 1_555
C60 H252 1.098674 1_555
C60 H244 1.098921 1_555
C60 H236 1.099224 1_555
C61 H253 1.098674 1_555
C61 H245 1.098921 1_555
C61 H237 1.099224 1_555
C62 H254 1.098674 1_555
C62 H246 1.098921 1_555
C62 H238 1.099224 1_555
C63 H255 1.098674 1_555
C63 H247 1.098921 1_555
C63 H239 1.099224 1_555
C64 H8 1.103977 1_655
C64 H16 1.108351 1_555
C64 H0 1.109646 1_555
C64 Pt0 2.141008 1_655
C65 H9 1.103977 1_555
C65 H17 1.108351 1_555
C65 H1 1.109646 1_555
C65 Pt1 2.141008 1_555
C66 H10 1.103977 1_555
C66 H18 1.108351 1_555
C66 H2 1.109646 1_555
C66 Pt2 2.141008 1_555
C67 H11 1.103977 1_455
C67 H19 1.108351 1_555
C67 H3 1.109646 1_555
C67 Pt3 2.141008 1_455
C68 H12 1.103977 1_455
C68 H20 1.108351 1_555
C68 H4 1.109646 1_555
C68 Pt4 2.141008 1_455
C69 H13 1.103977 1_555
C69 H21 1.108351 1_555
C69 H5 1.109646 1_555
C69 Pt5 2.141008 1_555
C70 H14 1.103977 1_555
C70 H22 1.108351 1_555
C70 H6 1.109646 1_555
C70 Pt6 2.141008 1_555
C71 H15 1.103977 1_655
C71 H23 1.108351 1_555
C71 H7 1.109646 1_555
C71 Pt7 2.141008 1_655
C72 H32 1.102972 1_455
C72 H24 1.103124 1_555
C72 H40 1.114549 1_455
C72 Pt0 2.132039 1_555
C73 H33 1.102972 1_555
C73 H25 1.103124 1_555
C73 H41 1.114549 1_555
C73 Pt1 2.132039 1_545
C74 H34 1.102972 1_555
C74 H26 1.103124 1_555
C74 H42 1.114549 1_555
C74 Pt2 2.132039 1_555
C75 H35 1.102972 1_655
C75 H27 1.103124 1_555
C75 H43 1.114549 1_655
C75 Pt3 2.132039 1_565
C76 H36 1.102972 1_655
C76 H28 1.103124 1_555
C76 H44 1.114549 1_655
C76 Pt4 2.132039 1_555
C77 H37 1.102972 1_555
C77 H29 1.103124 1_555
C77 H45 1.114549 1_555
C77 Pt5 2.132039 1_565
C78 H38 1.102972 1_555
C78 H30 1.103124 1_555
C78 H46 1.114549 1_555
C78 Pt6 2.132039 1_555
C79 H39 1.102972 1_455
C79 H31 1.103124 1_555
C79 H47 1.114549 1_455
C79 Pt7 2.132039 1_545
C80 H56 1.103694 1_555
C80 H64 1.105583 1_555
C80 H48 1.113864 1_556
C80 Pt0 2.136485 1_555
C81 H57 1.103694 1_555
C81 H65 1.105583 1_555
C81 H49 1.113864 1_554
C81 Pt1 2.136485 1_545
C82 H58 1.103694 1_555
C82 H66 1.105583 1_555
C82 H50 1.113864 1_555
C82 Pt2 2.136485 1_555
C83 H59 1.103694 1_555
C83 H67 1.105583 1_555
C83 H51 1.113864 1_555
C83 Pt3 2.136485 1_565
C84 H60 1.103694 1_555
C84 H68 1.105583 1_555
C84 H52 1.113864 1_554
C84 Pt4 2.136485 1_555
C85 H61 1.103694 1_555
C85 H69 1.105583 1_555
C85 H53 1.113864 1_556
C85 Pt5 2.136485 1_565
C86 H62 1.103694 1_555
C86 H70 1.105583 1_555
C86 H54 1.113864 1_555
C86 Pt6 2.136485 1_555
C87 H63 1.103694 1_555
C87 H71 1.105583 1_555
C87 H55 1.113864 1_555
C87 Pt7 2.136485 1_545
C88 H88 1.102370 1_555
C88 H80 1.105093 1_555
C88 H72 1.111474 1_556
C88 Pt0 2.141670 1_555
C89 H89 1.102370 1_555
C89 H81 1.105093 1_555
C89 H73 1.111474 1_554
C89 Pt1 2.141670 1_555
C90 H90 1.102370 1_555
C90 H82 1.105093 1_555
C90 H74 1.111474 1_555
C90 Pt2 2.141670 1_555
C91 H91 1.102370 1_555
C91 H83 1.105093 1_555
C91 H75 1.111474 1_555
C91 Pt3 2.141670 1_555
C92 H92 1.102370 1_555
C92 H84 1.105093 1_555
C92 H76 1.111474 1_554
C92 Pt4 2.141670 1_555
C93 H93 1.102370 1_555
C93 H85 1.105093 1_555
C93 H77 1.111474 1_556
C93 Pt5 2.141670 1_555
C94 H94 1.102370 1_555
C94 H86 1.105093 1_555
C94 H78 1.111474 1_555
C94 Pt6 2.141670 1_555
C95 H95 1.102370 1_555
C95 H87 1.105093 1_555
C95 H79 1.111474 1_555
C95 Pt7 2.141670 1_555
