# generated using pymatgen
data_Na2TiSi4H2O13
_symmetry_space_group_name_H-M   'P 1'
_cell_length_a   7.44642800
_cell_length_b   8.78701600
_cell_length_c   16.53026400
_cell_angle_alpha   90.00000000
_cell_angle_beta   90.00000000
_cell_angle_gamma   90.00000000
_symmetry_Int_Tables_number   1
_chemical_formula_structural   Na2TiSi4H2O13
_chemical_formula_sum   'Na8 Ti4 Si16 H8 O52'
_cell_volume   1081.60628313
_cell_formula_units_Z   4
loop_
 _symmetry_equiv_pos_site_id
 _symmetry_equiv_pos_as_xyz
  1  'x, y, z'
loop_
 _atom_site_type_symbol
 _atom_site_label
 _atom_site_symmetry_multiplicity
 _atom_site_fract_x
 _atom_site_fract_y
 _atom_site_fract_z
 _atom_site_occupancy
  Na  Na0  1  0.62042700  0.30756000  0.60253500  1
  Na  Na1  1  0.87957300  0.19244000  0.10253500  1
  Na  Na2  1  0.87957300  0.80756000  0.39746500  1
  Na  Na3  1  0.62042700  0.69244000  0.89746500  1
  Na  Na4  1  0.37957300  0.69244000  0.39746500  1
  Na  Na5  1  0.12042700  0.80756000  0.89746500  1
  Na  Na6  1  0.12042700  0.19244000  0.60253500  1
  Na  Na7  1  0.37957300  0.30756000  0.10253500  1
  Ti  Ti0  1  0.00000000  0.50000000  0.50000000  1
  Ti  Ti1  1  0.50000000  0.00000000  0.00000000  1
  Ti  Ti2  1  0.50000000  0.00000000  0.50000000  1
  Ti  Ti3  1  0.00000000  0.50000000  0.00000000  1
  Si  Si0  1  0.12253800  0.84031100  0.58044800  1
  Si  Si1  1  0.37746200  0.65968900  0.08044800  1
  Si  Si2  1  0.37746200  0.34031100  0.41955200  1
  Si  Si3  1  0.12253800  0.15968900  0.91955200  1
  Si  Si4  1  0.87746200  0.15968900  0.41955200  1
  Si  Si5  1  0.62253800  0.34031100  0.91955200  1
  Si  Si6  1  0.62253800  0.65968900  0.58044800  1
  Si  Si7  1  0.87746200  0.84031100  0.08044800  1
  Si  Si8  1  0.25844000  0.55983000  0.65720100  1
  Si  Si9  1  0.24156000  0.94017000  0.15720100  1
  Si  Si10  1  0.24156000  0.05983000  0.34279900  1
  Si  Si11  1  0.25844000  0.44017000  0.84279900  1
  Si  Si12  1  0.74156000  0.44017000  0.34279900  1
  Si  Si13  1  0.75844000  0.05983000  0.84279900  1
  Si  Si14  1  0.75844000  0.94017000  0.65720100  1
  Si  Si15  1  0.74156000  0.55983000  0.15720100  1
  H  H0  1  0.84392800  0.31812100  0.74462700  1
  H  H1  1  0.65607200  0.18187900  0.24462700  1
  H  H2  1  0.65607200  0.81812100  0.25537300  1
  H  H3  1  0.84392800  0.68187900  0.75537300  1
  H  H4  1  0.15607200  0.68187900  0.25537300  1
  H  H5  1  0.34392800  0.81812100  0.75537300  1
  H  H6  1  0.34392800  0.18187900  0.74462700  1
  H  H7  1  0.15607200  0.31812100  0.24462700  1
  O  O0  1  0.20010000  0.74115400  0.65927700  1
  O  O1  1  0.29990000  0.75884600  0.15927700  1
  O  O2  1  0.29990000  0.24115400  0.34072300  1
  O  O3  1  0.20010000  0.25884600  0.84072300  1
  O  O4  1  0.79990000  0.25884600  0.34072300  1
  O  O5  1  0.70010000  0.24115400  0.84072300  1
  O  O6  1  0.70010000  0.75884600  0.65927700  1
  O  O7  1  0.79990000  0.74115400  0.15927700  1
  O  O8  1  0.26952600  0.96411300  0.55119500  1
  O  O9  1  0.23047400  0.53588700  0.05119500  1
  O  O10  1  0.23047400  0.46411300  0.44880500  1
  O  O11  1  0.26952600  0.03588700  0.94880500  1
  O  O12  1  0.73047400  0.03588700  0.44880500  1
  O  O13  1  0.76952600  0.46411300  0.94880500  1
  O  O14  1  0.76952600  0.53588700  0.55119500  1
  O  O15  1  0.73047400  0.96411300  0.05119500  1
  O  O16  1  0.05834100  0.72069900  0.51108500  1
  O  O17  1  0.44165900  0.77930100  0.01108500  1
  O  O18  1  0.44165900  0.22069900  0.48891500  1
  O  O19  1  0.05834100  0.27930100  0.98891500  1
  O  O20  1  0.94165900  0.27930100  0.48891500  1
  O  O21  1  0.55834100  0.22069900  0.98891500  1
  O  O22  1  0.55834100  0.77930100  0.51108500  1
  O  O23  1  0.94165900  0.72069900  0.01108500  1
  O  O24  1  0.95897300  0.94958900  0.61615300  1
  O  O25  1  0.54102700  0.55041100  0.11615300  1
  O  O26  1  0.54102700  0.44958900  0.38384700  1
  O  O27  1  0.95897300  0.05041100  0.88384700  1
  O  O28  1  0.04102700  0.05041100  0.38384700  1
  O  O29  1  0.45897300  0.44958900  0.88384700  1
  O  O30  1  0.45897300  0.55041100  0.61615300  1
  O  O31  1  0.04102700  0.94958900  0.11615300  1
  O  O32  1  0.11502600  0.45890300  0.60652200  1
  O  O33  1  0.38497400  0.04109700  0.10652200  1
  O  O34  1  0.38497400  0.95890300  0.39347800  1
  O  O35  1  0.11502600  0.54109700  0.89347800  1
  O  O36  1  0.88497400  0.54109700  0.39347800  1
  O  O37  1  0.61502600  0.95890300  0.89347800  1
  O  O38  1  0.61502600  0.04109700  0.60652200  1
  O  O39  1  0.88497400  0.45890300  0.10652200  1
  O  O40  1  0.27299500  0.50000000  0.75000000  1
  O  O41  1  0.22700500  0.00000000  0.25000000  1
  O  O42  1  0.72700500  0.50000000  0.25000000  1
  O  O43  1  0.77299500  0.00000000  0.75000000  1
  O  O44  1  0.87494600  0.28773400  0.68869700  1
  O  O45  1  0.62505400  0.21226600  0.18869700  1
  O  O46  1  0.62505400  0.78773400  0.31130300  1
  O  O47  1  0.87494600  0.71226600  0.81130300  1
  O  O48  1  0.12505400  0.71226600  0.31130300  1
  O  O49  1  0.37494600  0.78773400  0.81130300  1
  O  O50  1  0.37494600  0.21226600  0.68869700  1
  O  O51  1  0.12505400  0.28773400  0.18869700  1
loop_
_geom_bond_atom_site_label_1
_geom_bond_atom_site_label_2
_geom_bond_distance
_geom_bond_site_symmetry_2
Na0 O38 2.342687 1_555
Na0 O44 2.377168 1_555
Na0 O18 2.425307 1_555
Na0 O14 2.445033 1_555
Na0 O30 2.459629 1_555
Na0 O50 2.463971 1_555
Na1 O39 2.342687 1_555
Na1 O45 2.377168 1_555
Na1 O19 2.425307 1_654
Na1 O15 2.445033 1_545
Na1 O31 2.459629 1_645
Na1 O51 2.463971 1_655
Na2 O36 2.342687 1_555
Na2 O46 2.377168 1_555
Na2 O16 2.425307 1_655
Na2 O12 2.445033 1_565
Na2 O28 2.459629 1_665
Na2 O48 2.463971 1_655
Na3 O37 2.342687 1_555
Na3 O47 2.377168 1_555
Na3 O17 2.425307 1_556
Na3 O13 2.445033 1_555
Na3 O29 2.459629 1_555
Na3 O49 2.463971 1_555
Na4 O34 2.342687 1_555
Na4 O48 2.377168 1_555
Na4 O22 2.425307 1_555
Na4 O10 2.445033 1_555
Na4 O26 2.459629 1_555
Na4 O46 2.463971 1_555
Na5 O35 2.342687 1_555
Na5 O49 2.377168 1_555
Na5 O23 2.425307 1_456
Na5 O11 2.445033 1_565
Na5 O27 2.459629 1_465
Na5 O47 2.463971 1_455
Na6 O32 2.342687 1_555
Na6 O50 2.377168 1_555
Na6 O20 2.425307 1_455
Na6 O8 2.445033 1_545
Na6 O24 2.459629 1_445
Na6 O44 2.463971 1_455
Na7 O33 2.342687 1_555
Na7 O51 2.377168 1_555
Na7 O21 2.425307 1_554
Na7 O9 2.445033 1_555
Na7 O25 2.459629 1_555
Na7 O45 2.463971 1_555
H0 O44 0.989653 1_555
H1 O45 0.989653 1_555
H2 O46 0.989653 1_555
H3 O47 0.989653 1_555
H4 O48 0.989653 1_555
H5 O49 0.989653 1_555
H6 O50 0.989653 1_555
H7 O51 0.989653 1_555
O0 Si8 1.651816 1_555
O0 Si0 1.670540 1_555
O1 Si9 1.651816 1_555
O1 Si1 1.670540 1_555
O2 Si10 1.651816 1_555
O2 Si2 1.670540 1_555
O3 Si11 1.651816 1_555
O3 Si3 1.670540 1_555
O4 Si12 1.651816 1_555
O4 Si4 1.670540 1_555
O5 Si13 1.651816 1_555
O5 Si5 1.670540 1_555
O6 Si14 1.651816 1_555
O6 Si6 1.670540 1_555
O7 Si15 1.651816 1_555
O7 Si7 1.670540 1_555
O8 Si0 1.617175 1_555
O8 Ti2 1.939324 1_565
O9 Si1 1.617175 1_555
O9 Ti3 1.939324 1_555
O10 Si2 1.617175 1_555
O10 Ti0 1.939324 1_555
O11 Si3 1.617175 1_555
O11 Ti1 1.939324 1_556
O12 Si4 1.617175 1_555
O12 Ti2 1.939324 1_555
O13 Si5 1.617175 1_555
O13 Ti3 1.939324 1_656
O14 Si6 1.617175 1_555
O14 Ti0 1.939324 1_655
O15 Si7 1.617175 1_555
O15 Ti1 1.939324 1_565
O16 Si0 1.627223 1_555
O16 Ti0 1.995780 1_555
O17 Si1 1.627223 1_555
O17 Ti1 1.995780 1_565
O18 Si2 1.627223 1_555
O18 Ti2 1.995780 1_555
O19 Si3 1.627223 1_555
O19 Ti3 1.995780 1_556
O20 Si4 1.627223 1_555
O20 Ti0 1.995780 1_655
O21 Si5 1.627223 1_555
O21 Ti1 1.995780 1_556
O22 Si6 1.627223 1_555
O22 Ti2 1.995780 1_565
O23 Si7 1.627223 1_555
O23 Ti3 1.995780 1_655
O24 Si14 1.642275 1_555
O24 Si0 1.659473 1_655
O25 Si15 1.642275 1_555
O25 Si1 1.659473 1_555
O26 Si12 1.642275 1_555
O26 Si2 1.659473 1_555
O27 Si13 1.642275 1_555
O27 Si3 1.659473 1_655
O28 Si10 1.642275 1_555
O28 Si4 1.659473 1_455
O29 Si11 1.642275 1_555
O29 Si5 1.659473 1_555
O30 Si8 1.642275 1_555
O30 Si6 1.659473 1_555
O31 Si9 1.642275 1_555
O31 Si7 1.659473 1_455
O32 Si8 1.621345 1_555
O32 Ti0 1.991131 1_555
O33 Si9 1.621345 1_545
O33 Ti1 1.991131 1_555
O34 Si10 1.621345 1_565
O34 Ti2 1.991131 1_565
O35 Si11 1.621345 1_555
O35 Ti3 1.991131 1_556
O36 Si12 1.621345 1_555
O36 Ti0 1.991131 1_655
O37 Si13 1.621345 1_565
O37 Ti1 1.991131 1_566
O38 Si14 1.621345 1_545
O38 Ti2 1.991131 1_555
O39 Si15 1.621345 1_555
O39 Ti3 1.991131 1_655
O40 Si11 1.625198 1_555
O40 Si8 1.625198 1_555
O41 Si9 1.625198 1_545
O41 Si10 1.625198 1_555
O42 Si15 1.625198 1_555
O42 Si12 1.625198 1_555
O43 Si13 1.625198 1_555
O43 Si14 1.625198 1_545
