# generated using pymatgen
data_Mg(NiO2)2
_symmetry_space_group_name_H-M   'P 1'
_cell_length_a   5.88877050
_cell_length_b   5.88877050
_cell_length_c   14.42970400
_cell_angle_alpha   90.00000000
_cell_angle_beta   90.00000000
_cell_angle_gamma   120.00000567
_symmetry_Int_Tables_number   1
_chemical_formula_structural   Mg(NiO2)2
_chemical_formula_sum   'Mg6 Ni12 O24'
_cell_volume   433.34849061
_cell_formula_units_Z   6
loop_
 _symmetry_equiv_pos_site_id
 _symmetry_equiv_pos_as_xyz
  1  'x, y, z'
loop_
 _atom_site_type_symbol
 _atom_site_label
 _atom_site_symmetry_multiplicity
 _atom_site_fract_x
 _atom_site_fract_y
 _atom_site_fract_z
 _atom_site_occupancy
  Mg  Mg0  1  0.66666700  0.33333300  0.95304700  1
  Mg  Mg1  1  0.33333300  0.66666700  0.62062900  1
  Mg  Mg2  1  0.33333300  0.66666700  0.99866200  1
  Mg  Mg3  1  0.00000000  0.00000000  0.29017300  1
  Mg  Mg4  1  0.66666700  0.33333300  0.71408700  1
  Mg  Mg5  1  0.33333300  0.66666700  0.37327800  1
  Ni  Ni0  1  0.16801000  0.83199000  0.83348400  1
  Ni  Ni1  1  0.16801000  0.33602000  0.83348400  1
  Ni  Ni2  1  0.83359800  0.16640200  0.50006600  1
  Ni  Ni3  1  0.66398000  0.83199000  0.83348400  1
  Ni  Ni4  1  0.00000000  0.00000000  0.66730600  1
  Ni  Ni5  1  0.83359800  0.66719600  0.50006600  1
  Ni  Ni6  1  0.50239500  0.49760500  0.16658800  1
  Ni  Ni7  1  0.33280400  0.16640200  0.50006600  1
  Ni  Ni8  1  0.99520900  0.49760500  0.16658800  1
  Ni  Ni9  1  0.66666700  0.33333300  0.33423000  1
  Ni  Ni10  1  0.50239500  0.00479100  0.16658800  1
  Ni  Ni11  1  0.00000000  0.00000000  0.04499300  1
  O  O0  1  0.48492200  0.96984300  0.90478400  1
  O  O1  1  0.33333300  0.66666700  0.75571200  1
  O  O2  1  0.03015700  0.51507800  0.90478400  1
  O  O3  1  0.48492200  0.51507800  0.90478400  1
  O  O4  1  0.85117200  0.14882800  0.76120600  1
  O  O5  1  0.15327700  0.30655400  0.57575800  1
  O  O6  1  0.29765500  0.14882800  0.76120600  1
  O  O7  1  0.00000000  0.00000000  0.91608300  1
  O  O8  1  0.69344600  0.84672300  0.57575800  1
  O  O9  1  0.00000000  0.00000000  0.42768100  1
  O  O10  1  0.85117200  0.70234500  0.76120600  1
  O  O11  1  0.15327700  0.84672300  0.57575800  1
  O  O12  1  0.51934900  0.48065100  0.41957800  1
  O  O13  1  0.81695300  0.63390700  0.24873500  1
  O  O14  1  0.96130300  0.48065100  0.41957800  1
  O  O15  1  0.66666700  0.33333300  0.57445500  1
  O  O16  1  0.66666700  0.33333300  0.09284000  1
  O  O17  1  0.36609300  0.18304700  0.24873500  1
  O  O18  1  0.51934900  0.03869700  0.41957800  1
  O  O19  1  0.81695300  0.18304700  0.24873500  1
  O  O20  1  0.17243500  0.82756500  0.08799800  1
  O  O21  1  0.33333300  0.66666700  0.23572800  1
  O  O22  1  0.65513000  0.82756500  0.08799800  1
  O  O23  1  0.17243500  0.34487000  0.08799800  1
loop_
_geom_bond_atom_site_label_1
_geom_bond_atom_site_label_2
_geom_bond_distance
_geom_bond_site_symmetry_2
Mg0 O0 1.980236 1_545
Mg0 O2 1.980236 1_655
Mg0 O3 1.980237 1_555
Mg0 O16 2.017172 1_556
Mg1 O11 1.947302 1_555
Mg1 O5 1.947307 1_555
Mg1 O8 1.947307 1_555
Mg1 O1 1.949208 1_555
Mg2 O0 2.055624 1_555
Mg2 O2 2.055624 1_555
Mg2 O3 2.055632 1_555
Mg2 O20 2.086858 1_556
Mg2 O23 2.086862 1_556
Mg2 O22 2.086862 1_556
Mg3 O13 1.960423 1_445
Mg3 O17 1.960423 1_555
Mg3 O19 1.960428 1_455
Mg3 O9 1.984200 1_555
Mg4 O4 2.000944 1_555
Mg4 O6 2.000954 1_555
Mg4 O10 2.000954 1_555
Mg4 O15 2.014848 1_555
Mg5 O21 1.984806 1_555
Mg5 O18 2.011480 1_565
Mg5 O14 2.011480 1_455
Mg5 O12 2.011490 1_555
Ni0 O0 1.919718 1_555
Ni0 O2 1.919718 1_555
Ni0 O6 1.930628 1_565
Ni0 O10 1.930628 1_455
Ni0 O1 2.025534 1_555
Ni0 O7 2.087378 1_565
Ni1 O2 1.919713 1_555
Ni1 O3 1.919717 1_555
Ni1 O6 1.930624 1_555
Ni1 O4 1.930628 1_455
Ni1 O1 2.025538 1_555
Ni1 O7 2.087378 1_555
Ni2 O8 1.965775 1_545
Ni2 O5 1.965775 1_655
Ni2 O18 1.986776 1_555
Ni2 O14 1.986776 1_555
Ni2 O9 1.992887 1_655
Ni2 O15 2.012756 1_555
Ni3 O0 1.919713 1_555
Ni3 O3 1.919717 1_555
Ni3 O10 1.930624 1_555
Ni3 O4 1.930628 1_565
Ni3 O1 2.025538 1_555
Ni3 O7 2.087378 1_665
Ni4 O10 2.034742 1_445
Ni4 O6 2.034742 1_555
Ni4 O4 2.034746 1_455
Ni4 O5 2.046753 1_555
Ni4 O8 2.046753 1_445
Ni4 O11 2.046754 1_545
Ni5 O11 1.965775 1_655
Ni5 O8 1.965775 1_555
Ni5 O12 1.986777 1_555
Ni5 O14 1.986781 1_555
Ni5 O9 1.992887 1_665
Ni5 O15 2.012760 1_555
Ni6 O16 1.984892 1_555
Ni6 O21 1.992187 1_555
Ni6 O17 1.998439 1_555
Ni6 O13 1.998439 1_555
Ni6 O23 2.030476 1_555
Ni6 O22 2.030476 1_555
Ni7 O11 1.965775 1_545
Ni7 O5 1.965775 1_555
Ni7 O12 1.986777 1_555
Ni7 O18 1.986781 1_555
Ni7 O9 1.992887 1_555
Ni7 O15 2.012760 1_555
Ni8 O16 1.984884 1_555
Ni8 O21 1.992187 1_655
Ni8 O19 1.998439 1_555
Ni8 O13 1.998439 1_555
Ni8 O20 2.030476 1_655
Ni8 O23 2.030480 1_655
Ni9 O14 1.942804 1_555
Ni9 O18 1.942804 1_555
Ni9 O12 1.942804 1_555
Ni9 O19 1.967641 1_555
Ni9 O17 1.967648 1_555
Ni9 O13 1.967648 1_555
Ni10 O16 1.984884 1_555
Ni10 O21 1.992187 1_545
Ni10 O19 1.998439 1_555
Ni10 O17 1.998439 1_555
Ni10 O20 2.030476 1_545
Ni10 O22 2.030480 1_545
Ni11 O7 1.860133 1_554
Ni11 O22 1.865041 1_445
Ni11 O23 1.865041 1_555
Ni11 O20 1.865041 1_545
