# generated using pymatgen
data_SmFe2
_symmetry_space_group_name_H-M   'P 1'
_cell_length_a   5.24651364
_cell_length_b   5.24654481
_cell_length_c   5.24652607
_cell_angle_alpha   60.00017537
_cell_angle_beta   59.99994242
_cell_angle_gamma   60.00010652
_symmetry_Int_Tables_number   1
_chemical_formula_structural   SmFe2
_chemical_formula_sum   'Sm2 Fe4'
_cell_volume   102.11787447
_cell_formula_units_Z   2
loop_
 _symmetry_equiv_pos_site_id
 _symmetry_equiv_pos_as_xyz
  1  'x, y, z'
loop_
 _atom_site_type_symbol
 _atom_site_label
 _atom_site_symmetry_multiplicity
 _atom_site_fract_x
 _atom_site_fract_y
 _atom_site_fract_z
 _atom_site_occupancy
  Sm  Sm0  1  0.87499885  0.87500246  0.87499985  1
  Sm  Sm1  1  0.12500115  0.12499754  0.12500015  1
  Fe  Fe0  1  0.50000000  0.50000000  0.50000000  1
  Fe  Fe1  1  0.50000000  0.50000000  0.00000000  1
  Fe  Fe2  1  -0.00000000  0.50000000  0.50000000  1
  Fe  Fe3  1  0.50000000  -0.00000000  0.50000000  1
loop_
_geom_bond_atom_site_label_1
_geom_bond_atom_site_label_2
_geom_bond_distance
_geom_bond_site_symmetry_2
Sm0 Sm1 3.212810 1_566
Sm0 Sm1 3.212817 1_666
Sm0 Sm1 3.212829 1_665
Sm0 Sm1 3.212868 1_656
Fe0 Fe2 2.623257 1_655
Fe0 Fe2 2.623257 1_555
Fe0 Fe1 2.623263 1_556
Fe0 Fe1 2.623263 1_555
Fe0 Fe3 2.623272 1_565
Fe0 Fe3 2.623272 1_555
Fe0 Sm0 3.076053 1_545
Fe0 Sm1 3.076053 1_565
Fe0 Sm1 3.076054 1_655
Fe0 Sm0 3.076054 1_455
Fe0 Sm1 3.076055 1_556
Fe0 Sm0 3.076055 1_554
Fe1 Fe2 2.623258 1_555
Fe1 Fe2 2.623258 1_654
Fe1 Fe3 2.623275 1_555
Fe1 Fe3 2.623275 1_564
Fe1 Sm0 3.076049 1_544
Fe1 Sm1 3.076049 1_565
Fe1 Sm0 3.076053 1_454
Fe1 Sm1 3.076053 1_655
Fe1 Sm0 3.076055 1_554
Fe1 Sm1 3.076055 1_555
Fe2 Fe3 2.623269 1_465
Fe2 Fe3 2.623269 1_555
Fe2 Sm0 3.076054 1_445
Fe2 Sm1 3.076054 1_565
Fe2 Sm0 3.076058 1_454
Fe2 Sm1 3.076058 1_556
Fe2 Sm0 3.076060 1_455
Fe2 Sm1 3.076060 1_555
Fe3 Sm0 3.076041 1_445
Fe3 Sm1 3.076041 1_655
Fe3 Sm0 3.076042 1_544
Fe3 Sm1 3.076042 1_556
Fe3 Sm1 3.076046 1_555
Fe3 Sm0 3.076046 1_545
