# generated using pymatgen
data_Na2YPWO8
_symmetry_space_group_name_H-M   'P 1'
_cell_length_a   11.58994176
_cell_length_b   11.58994176
_cell_length_c   11.58994176
_cell_angle_alpha   144.99246005
_cell_angle_beta   115.98342532
_cell_angle_gamma   75.09674583
_symmetry_Int_Tables_number   1
_chemical_formula_structural   Na2YPWO8
_chemical_formula_sum   'Na8 Y4 P4 W4 O32'
_cell_volume   787.10279914
_cell_formula_units_Z   4
loop_
 _symmetry_equiv_pos_site_id
 _symmetry_equiv_pos_as_xyz
  1  'x, y, z'
loop_
 _atom_site_type_symbol
 _atom_site_label
 _atom_site_symmetry_multiplicity
 _atom_site_fract_x
 _atom_site_fract_y
 _atom_site_fract_z
 _atom_site_occupancy
  Na  Na0  1  0.28682600  0.33625500  0.92981200  1
  Na  Na1  1  0.90644300  0.35701400  0.57018800  1
  Na  Na2  1  0.59355700  0.16374500  0.45057100  1
  Na  Na3  1  0.21317400  0.14298600  0.04942900  1
  Na  Na4  1  0.71317400  0.66374500  0.07018800  1
  Na  Na5  1  0.09355700  0.64298600  0.42981200  1
  Na  Na6  1  0.40644300  0.83625500  0.54942900  1
  Na  Na7  1  0.78682600  0.85701400  0.95057100  1
  Y  Y0  1  0.32293400  0.75000000  0.07293400  1
  Y  Y1  1  0.17706600  0.25000000  0.42706600  1
  Y  Y2  1  0.67706600  0.25000000  0.92706600  1
  Y  Y3  1  0.82293400  0.75000000  0.57293400  1
  P  P0  1  0.93044800  0.25000000  0.18044800  1
  P  P1  1  0.56955200  0.75000000  0.31955200  1
  P  P2  1  0.06955200  0.75000000  0.81955200  1
  P  P3  1  0.43044800  0.25000000  0.68044800  1
  W  W0  1  0.92719500  0.17719500  0.75000000  1
  W  W1  1  0.57280500  0.32280500  0.25000000  1
  W  W2  1  0.07280500  0.82280500  0.25000000  1
  W  W3  1  0.42719500  0.67719500  0.75000000  1
  O  O0  1  0.93846700  0.19711700  0.27053400  1
  O  O1  1  0.42658400  0.66793400  0.22946600  1
  O  O2  1  0.07341600  0.30288300  0.24135000  1
  O  O3  1  0.56153300  0.83206600  0.25865000  1
  O  O4  1  0.06153300  0.80288300  0.72946600  1
  O  O5  1  0.57341600  0.33206600  0.77053400  1
  O  O6  1  0.92658400  0.69711700  0.75865000  1
  O  O7  1  0.43846700  0.16793400  0.74135000  1
  O  O8  1  0.84340000  0.06819300  0.92758300  1
  O  O9  1  0.64061000  0.91581700  0.57241700  1
  O  O10  1  0.85939000  0.43180700  0.27520800  1
  O  O11  1  0.65660000  0.58418300  0.22479200  1
  O  O12  1  0.15660000  0.93180700  0.07241700  1
  O  O13  1  0.35939000  0.08418300  0.42758300  1
  O  O14  1  0.14061000  0.56819300  0.72479300  1
  O  O15  1  0.34340000  0.41581700  0.77520800  1
  O  O16  1  0.84377500  0.33042000  0.93428200  1
  O  O17  1  0.89613800  0.90949200  0.56571800  1
  O  O18  1  0.60386200  0.16958000  0.01335400  1
  O  O19  1  0.65622500  0.59050800  0.48664600  1
  O  O20  1  0.15622500  0.66958000  0.06571800  1
  O  O21  1  0.10386200  0.09050800  0.43428200  1
  O  O22  1  0.39613800  0.83042000  0.98664600  1
  O  O23  1  0.34377500  0.40949200  0.51335400  1
  O  O24  1  0.86305000  0.18885600  0.58721900  1
  O  O25  1  0.10163600  0.27583100  0.91278100  1
  O  O26  1  0.39836400  0.31114400  0.17419500  1
  O  O27  1  0.63695000  0.22416900  0.32580500  1
  O  O28  1  0.13695000  0.81114400  0.41278100  1
  O  O29  1  0.89836400  0.72416900  0.08721900  1
  O  O30  1  0.60163600  0.68885600  0.82580500  1
  O  O31  1  0.36305000  0.77583100  0.67419500  1
loop_
_geom_bond_atom_site_label_1
_geom_bond_atom_site_label_2
_geom_bond_distance
_geom_bond_site_symmetry_2
Na0 O25 2.304706 1_555
Na0 O1 2.421990 1_556
Na0 O7 2.507054 1_555
Na0 O26 2.779713 1_556
Na0 O15 2.922013 1_555
Na0 O20 2.968094 1_556
Na1 O24 2.304695 1_555
Na1 O0 2.421978 1_555
Na1 O6 2.507054 1_555
Na1 O27 2.779704 1_555
Na1 O14 2.922024 1_655
Na1 O21 2.968090 1_655
Na2 O27 2.304706 1_555
Na2 O3 2.421988 1_545
Na2 O5 2.507064 1_555
Na2 O24 2.779703 1_555
Na2 O13 2.922024 1_555
Na2 O22 2.968090 1_544
Na3 O26 2.304699 1_555
Na3 O2 2.421988 1_555
Na3 O4 2.507053 1_544
Na3 O25 2.779704 1_554
Na3 O12 2.922024 1_545
Na3 O23 2.968089 1_555
Na4 O29 2.304706 1_555
Na4 O5 2.421990 1_554
Na4 O3 2.507054 1_555
Na4 O30 2.779713 1_554
Na4 O11 2.922013 1_555
Na4 O16 2.968094 1_554
Na5 O28 2.304695 1_555
Na5 O4 2.421978 1_555
Na5 O2 2.507054 1_555
Na5 O31 2.779704 1_555
Na5 O10 2.922030 1_455
Na5 O17 2.968090 1_455
Na6 O31 2.304706 1_555
Na6 O7 2.421988 1_565
Na6 O1 2.507064 1_555
Na6 O28 2.779703 1_555
Na6 O9 2.922024 1_555
Na6 O18 2.968090 1_566
Na7 O30 2.304699 1_555
Na7 O6 2.421988 1_555
Na7 O0 2.507053 1_566
Na7 O29 2.779704 1_556
Na7 O8 2.922024 1_565
Na7 O19 2.968089 1_555
O0 P0 1.551905 1_555
O0 Y1 2.443053 1_655
O1 P1 1.551890 1_555
O1 Y0 2.443043 1_555
O2 P0 1.551894 1_455
O2 Y1 2.443053 1_555
O3 P1 1.551894 1_555
O3 Y0 2.443053 1_555
O4 P2 1.551905 1_555
O4 Y3 2.443053 1_455
O5 P3 1.551890 1_555
O5 Y2 2.443043 1_555
O6 P2 1.551894 1_655
O6 Y3 2.443053 1_555
O7 P3 1.551894 1_555
O7 Y2 2.443053 1_555
O8 P0 1.559924 1_556
O8 Y3 2.305525 1_545
O8 Y2 2.465271 1_555
O9 P1 1.559924 1_555
O9 Y2 2.305525 1_565
O9 Y3 2.465271 1_555
O10 P0 1.559922 1_555
O10 Y3 2.305522 1_555
O10 Y2 2.465278 1_554
O11 P1 1.559923 1_555
O11 Y2 2.305523 1_554
O11 Y3 2.465279 1_555
O12 P2 1.559924 1_554
O12 Y1 2.305525 1_565
O12 Y0 2.465271 1_555
O13 P3 1.559924 1_555
O13 Y0 2.305525 1_545
O13 Y1 2.465271 1_555
O14 P2 1.559924 1_555
O14 Y1 2.305525 1_555
O14 Y0 2.465271 1_556
O15 P3 1.559923 1_555
O15 Y0 2.305523 1_556
O15 Y1 2.465279 1_555
O16 W0 1.833849 1_555
O16 Y2 2.294771 1_555
O17 W0 1.833859 1_565
O17 Y3 2.294760 1_555
O18 W1 1.833859 1_555
O18 Y2 2.294760 1_554
O19 W1 1.833855 1_555
O19 Y3 2.294770 1_555
O20 W2 1.833849 1_555
O20 Y0 2.294771 1_555
O21 W2 1.833859 1_545
O21 Y1 2.294760 1_555
O22 W3 1.833859 1_555
O22 Y0 2.294760 1_556
O23 W3 1.833855 1_555
O23 Y1 2.294770 1_555
O24 W0 1.807579 1_555
O25 W0 1.807570 1_455
O26 W1 1.807569 1_555
O27 W1 1.807570 1_555
O28 W2 1.807579 1_555
O29 W2 1.807570 1_655
O30 W3 1.807569 1_555
O31 W3 1.807570 1_555
