# generated using pymatgen
data_YbPrS3
_symmetry_space_group_name_H-M   'P 1'
_cell_length_a   6.59422649
_cell_length_b   6.59422649
_cell_length_c   9.51806239
_cell_angle_alpha   90.00000000
_cell_angle_beta   90.00000000
_cell_angle_gamma   145.66603908
_symmetry_Int_Tables_number   1
_chemical_formula_structural   YbPrS3
_chemical_formula_sum   'Yb2 Pr2 S6'
_cell_volume   233.43575936
_cell_formula_units_Z   2
loop_
 _symmetry_equiv_pos_site_id
 _symmetry_equiv_pos_as_xyz
  1  'x, y, z'
loop_
 _atom_site_type_symbol
 _atom_site_label
 _atom_site_symmetry_multiplicity
 _atom_site_fract_x
 _atom_site_fract_y
 _atom_site_fract_z
 _atom_site_occupancy
  Yb  Yb0  1  0.00000000  0.00000000  0.50000000  1
  Yb  Yb1  1  0.00000000  0.00000000  0.00000000  1
  Pr  Pr0  1  0.74641433  0.25358567  0.25000000  1
  Pr  Pr1  1  0.25358567  0.74641433  0.75000000  1
  S  S0  1  0.64110344  0.35889656  0.56222230  1
  S  S1  1  0.64110344  0.35889656  0.93777770  1
  S  S2  1  0.35889656  0.64110344  0.06222230  1
  S  S3  1  0.35889656  0.64110344  0.43777770  1
  S  S4  1  0.08490470  0.91509530  0.25000000  1
  S  S5  1  0.91509530  0.08490470  0.75000000  1
loop_
_geom_bond_atom_site_label_1
_geom_bond_atom_site_label_2
_geom_bond_distance
_geom_bond_site_symmetry_2
Pr0 S4 2.816046 1_545
Pr0 S4 2.816046 1_655
Pr0 S3 2.998590 1_655
Pr0 S3 2.998590 1_545
Pr0 S2 2.998590 1_545
Pr0 S2 2.998590 1_655
Pr0 S0 3.254576 1_555
Pr0 S1 3.254576 1_554
Pr1 S5 2.816046 1_565
Pr1 S5 2.816046 1_455
Pr1 S1 2.998590 1_565
Pr1 S1 2.998590 1_455
Pr1 S0 2.998590 1_565
Pr1 S0 2.998590 1_455
Pr1 S2 3.254576 1_556
Pr1 S3 3.254576 1_555
S0 Yb0 2.701916 1_555
S0 Yb0 2.701916 1_665
S1 Yb1 2.701916 1_556
S1 Yb1 2.701916 1_666
S2 Yb1 2.701916 1_555
S2 Yb1 2.701916 1_665
S3 Yb0 2.701916 1_555
S3 Yb0 2.701916 1_665
S4 Yb1 2.608970 1_565
S4 Yb0 2.608970 1_565
S5 Yb1 2.608970 1_656
S5 Yb0 2.608970 1_655
