# generated using pymatgen
data_Na2NiPO4F
_symmetry_space_group_name_H-M   'P 1'
_cell_length_a   5.15330266
_cell_length_b   13.39475398
_cell_length_c   13.65656319
_cell_angle_alpha   59.43387063
_cell_angle_beta   90.00000000
_cell_angle_gamma   90.00000000
_symmetry_Int_Tables_number   1
_chemical_formula_structural   Na2NiPO4F
_chemical_formula_sum   'Na16 Ni8 P8 O32 F8'
_cell_volume   811.68318389
_cell_formula_units_Z   8
loop_
 _symmetry_equiv_pos_site_id
 _symmetry_equiv_pos_as_xyz
  1  'x, y, z'
loop_
 _atom_site_type_symbol
 _atom_site_label
 _atom_site_symmetry_multiplicity
 _atom_site_fract_x
 _atom_site_fract_y
 _atom_site_fract_z
 _atom_site_occupancy
  Na  Na0  1  0.27263804  0.91813317  0.91216419  1
  Na  Na1  1  0.77263804  0.08186683  0.58783581  1
  Na  Na2  1  0.72736196  0.08186683  0.08783581  1
  Na  Na3  1  0.22736196  0.91813317  0.41216419  1
  Na  Na4  1  0.23719412  0.17038735  0.41990328  1
  Na  Na5  1  0.73719412  0.82961265  0.08009672  1
  Na  Na6  1  0.76280588  0.82961265  0.58009672  1
  Na  Na7  1  0.26280588  0.17038735  0.91990328  1
  Na  Na8  1  0.76042684  0.58238735  0.08048633  1
  Na  Na9  1  0.26042684  0.41761265  0.41951367  1
  Na  Na10  1  0.23957316  0.41761265  0.91951367  1
  Na  Na11  1  0.73957316  0.58238735  0.58048633  1
  Na  Na12  1  0.76292149  0.32904117  0.34009241  1
  Na  Na13  1  0.26292149  0.67095883  0.15990759  1
  Na  Na14  1  0.23707851  0.67095883  0.65990759  1
  Na  Na15  1  0.73707851  0.32904117  0.84009241  1
  Ni  Ni0  1  0.78628159  0.82310509  0.85172353  1
  Ni  Ni1  1  0.28628159  0.17689491  0.64827647  1
  Ni  Ni2  1  0.21371841  0.17689491  0.14827647  1
  Ni  Ni3  1  0.71371841  0.82310509  0.35172353  1
  Ni  Ni4  1  0.22112261  0.67698371  0.92513098  1
  Ni  Ni5  1  0.72112261  0.32301629  0.57486902  1
  Ni  Ni6  1  0.77887739  0.32301629  0.07486902  1
  Ni  Ni7  1  0.27887739  0.67698371  0.42513098  1
  P  P0  1  0.69986950  0.08807669  0.32338411  1
  P  P1  1  0.19986950  0.91192331  0.17661589  1
  P  P2  1  0.30013050  0.91192331  0.67661589  1
  P  P3  1  0.80013050  0.08807669  0.82338411  1
  P  P4  1  0.79380856  0.58835654  0.33802260  1
  P  P5  1  0.29380856  0.41164346  0.16197740  1
  P  P6  1  0.20619144  0.41164346  0.66197740  1
  P  P7  1  0.70619144  0.58835654  0.83802260  1
  O  O0  1  0.08952231  0.60637538  0.34458658  1
  O  O1  1  0.58952231  0.39362462  0.15541342  1
  O  O2  1  0.91047769  0.39362462  0.65541342  1
  O  O3  1  0.41047769  0.60637538  0.84458658  1
  O  O4  1  0.09581584  0.10715316  0.79973467  1
  O  O5  1  0.59581584  0.89284684  0.70026533  1
  O  O6  1  0.90418416  0.89284684  0.20026533  1
  O  O7  1  0.40418416  0.10715316  0.29973467  1
  O  O8  1  0.85014963  0.65462342  0.88752155  1
  O  O9  1  0.35014963  0.34537658  0.61247845  1
  O  O10  1  0.14985037  0.34537658  0.11247845  1
  O  O11  1  0.64985037  0.65462342  0.38752155  1
  O  O12  1  0.27162801  0.54153083  0.58865029  1
  O  O13  1  0.77162901  0.45846917  0.91134971  1
  O  O14  1  0.72837199  0.45846917  0.41134971  1
  O  O15  1  0.22837199  0.54153083  0.08865029  1
  O  O16  1  0.21372589  0.86880847  0.59824550  1
  O  O17  1  0.71372589  0.13119153  0.90175450  1
  O  O18  1  0.78627411  0.13119153  0.40175450  1
  O  O19  1  0.28627411  0.86880847  0.09824550  1
  O  O20  1  0.71208933  0.63228288  0.21585595  1
  O  O21  1  0.21208933  0.36771712  0.28414405  1
  O  O22  1  0.28791067  0.36771712  0.78414405  1
  O  O23  1  0.78791067  0.63228288  0.71585595  1
  O  O24  1  0.26418466  0.04190410  0.12138364  1
  O  O25  1  0.76418466  0.95809590  0.37861636  1
  O  O26  1  0.73581534  0.95809590  0.87861636  1
  O  O27  1  0.23581534  0.04190410  0.62138364  1
  O  O28  1  0.84153709  0.15405508  0.20720100  1
  O  O29  1  0.34153709  0.84594492  0.29279900  1
  O  O30  1  0.15846291  0.84594492  0.79279900  1
  O  O31  1  0.65846291  0.15405508  0.70720100  1
  F  F0  1  0.50448178  0.24737405  0.49994136  1
  F  F1  1  0.00448178  0.75262595  0.00005864  1
  F  F2  1  0.49551822  0.75262595  0.50005864  1
  F  F3  1  0.99551822  0.24737405  -0.00005864  1
  F  F4  1  0.50528794  0.74733398  0.97206606  1
  F  F5  1  0.00528794  0.25266602  0.52793394  1
  F  F6  1  0.49471206  0.25266602  0.02793394  1
  F  F7  1  0.99471206  0.74733398  0.47206606  1
loop_
_geom_bond_atom_site_label_1
_geom_bond_atom_site_label_2
_geom_bond_distance
_geom_bond_site_symmetry_2
Na0 O19 2.278527 1_556
Na0 O30 2.354058 1_555
Na0 O4 2.375792 1_565
Na0 O26 2.438086 1_555
Na0 O26 2.810700 1_455
Na1 O18 2.278527 1_555
Na1 O31 2.354058 1_555
Na1 O5 2.375792 1_545
Na1 O27 2.438086 1_655
Na1 O27 2.810700 1_555
Na2 O17 2.278527 1_554
Na2 O28 2.354058 1_555
Na2 O6 2.375792 1_545
Na2 O24 2.438086 1_555
Na2 O24 2.810700 1_655
Na3 O16 2.278527 1_555
Na3 O29 2.354058 1_555
Na3 O7 2.375792 1_565
Na3 O25 2.438086 1_455
Na3 O25 2.810700 1_555
Na4 O21 2.335891 1_555
Na4 O7 2.358999 1_555
Na4 O27 2.390944 1_555
Na4 O18 2.422628 1_455
Na5 O20 2.335891 1_555
Na5 O6 2.358999 1_555
Na5 O26 2.390944 1_554
Na5 O19 2.422628 1_555
Na6 O23 2.335891 1_555
Na6 O5 2.358999 1_555
Na6 O25 2.390944 1_555
Na6 O16 2.422628 1_655
Na7 O22 2.335891 1_555
Na7 O4 2.358999 1_555
Na7 O24 2.390944 1_556
Na7 O17 2.422628 1_555
Na8 O20 2.276618 1_555
Na8 O8 2.345452 1_554
Na8 O1 2.363114 1_555
Na8 O15 2.462727 1_655
Na8 O15 2.787033 1_555
Na9 O21 2.276618 1_555
Na9 O9 2.345452 1_555
Na9 O0 2.363114 1_555
Na9 O14 2.462727 1_555
Na9 O14 2.787033 1_455
Na10 O22 2.276618 1_555
Na10 O10 2.345452 1_556
Na10 O3 2.363114 1_555
Na10 O13 2.462722 1_455
Na10 O13 2.787039 1_555
Na11 O23 2.276618 1_555
Na11 O11 2.345452 1_555
Na11 O2 2.363114 1_555
Na11 O12 2.462727 1_555
Na11 O12 2.787033 1_655
Na12 O18 2.340327 1_555
Na12 O1 2.385100 1_555
Na12 O14 2.387490 1_555
Na12 O21 2.409858 1_655
Na13 O19 2.340327 1_555
Na13 O0 2.385100 1_555
Na13 O15 2.387490 1_555
Na13 O20 2.409858 1_555
Na14 O16 2.340327 1_555
Na14 O3 2.385100 1_555
Na14 O12 2.387490 1_555
Na14 O23 2.409858 1_455
Na15 O17 2.340327 1_555
Na15 O2 2.385100 1_555
Na15 O13 2.387490 1_555
Na15 O22 2.409858 1_555
Ni0 O26 2.036516 1_555
Ni0 O5 2.036942 1_555
Ni0 O30 2.041897 1_655
Ni0 O8 2.078035 1_555
Ni1 O27 2.036516 1_555
Ni1 O4 2.036942 1_555
Ni1 O31 2.041897 1_555
Ni1 O9 2.078035 1_555
Ni2 O24 2.036516 1_555
Ni2 O7 2.036942 1_555
Ni2 O28 2.041897 1_455
Ni2 O10 2.078035 1_555
Ni3 O25 2.036516 1_555
Ni3 O6 2.036942 1_555
Ni3 O29 2.041897 1_555
Ni3 O11 2.078035 1_555
Ni4 O3 2.028468 1_555
Ni4 O15 2.039430 1_556
Ni4 O8 2.040760 1_455
Ni4 O30 2.081453 1_555
Ni5 O2 2.028468 1_555
Ni5 O14 2.039430 1_555
Ni5 O9 2.040760 1_555
Ni5 O31 2.081453 1_555
Ni6 O1 2.028468 1_555
Ni6 O13 2.039429 1_554
Ni6 O10 2.040760 1_655
Ni6 O28 2.081453 1_555
Ni7 O0 2.028468 1_555
Ni7 O12 2.039430 1_555
Ni7 O11 2.040760 1_555
Ni7 O29 2.081453 1_555
O0 P4 1.552602 1_455
O1 P5 1.552602 1_555
O2 P6 1.552602 1_655
O3 P7 1.552602 1_555
O4 P3 1.551612 1_455
O5 P2 1.551612 1_555
O6 P1 1.551612 1_655
O7 P0 1.551612 1_555
O8 P7 1.550955 1_555
O9 P6 1.550955 1_555
O10 P5 1.550955 1_555
O11 P4 1.550955 1_555
O12 P6 1.539959 1_555
O13 P7 1.539960 1_555
O14 P4 1.539959 1_555
O15 P5 1.539959 1_555
O16 P2 1.518521 1_555
O17 P3 1.518521 1_555
O18 P0 1.518521 1_555
O19 P1 1.518521 1_555
O20 P4 1.519416 1_555
O21 P5 1.519416 1_555
O22 P6 1.519416 1_555
O23 P7 1.519416 1_555
O24 P1 1.540916 1_545
O25 P0 1.540916 1_565
O26 P3 1.540916 1_565
O27 P2 1.540916 1_545
O28 P0 1.550920 1_555
O29 P1 1.550920 1_555
O30 P2 1.550920 1_555
O31 P3 1.550920 1_555
F0 Ni1 2.077073 1_555
F0 Ni5 2.091528 1_555
F0 Na4 2.302570 1_555
F0 Na12 2.303708 1_555
F0 Na9 2.332515 1_555
F0 Na1 2.357696 1_555
F1 Ni0 2.077073 1_454
F1 Ni4 2.091528 1_554
F1 Na5 2.302570 1_455
F1 Na13 2.303708 1_555
F1 Na8 2.332515 1_455
F1 Na0 2.357696 1_554
F2 Ni3 2.077073 1_555
F2 Ni7 2.091528 1_555
F2 Na6 2.302570 1_555
F2 Na14 2.303708 1_555
F2 Na11 2.332515 1_555
F2 Na3 2.357696 1_555
F3 Ni2 2.077073 1_655
F3 Ni6 2.091528 1_555
F3 Na7 2.302570 1_654
F3 Na15 2.303708 1_554
F3 Na10 2.332515 1_654
F3 Na2 2.357696 1_555
F4 Ni4 2.014341 1_555
F4 Ni0 2.032592 1_555
F4 Na0 2.331782 1_555
F4 Na8 2.339952 1_556
F4 Na5 2.544239 1_556
F4 Na13 2.553045 1_556
F5 Ni5 2.014341 1_455
F5 Ni1 2.032592 1_555
F5 Na1 2.331782 1_455
F5 Na9 2.339952 1_555
F5 Na4 2.544239 1_555
F5 Na12 2.553045 1_455
F6 Ni6 2.014341 1_555
F6 Ni2 2.032592 1_555
F6 Na2 2.331782 1_555
F6 Na10 2.339952 1_554
F6 Na7 2.544239 1_554
F6 Na15 2.553045 1_554
F7 Ni7 2.014341 1_655
F7 Ni3 2.032592 1_555
F7 Na3 2.331782 1_655
F7 Na11 2.339952 1_555
F7 Na6 2.544239 1_555
F7 Na14 2.553045 1_655
