# generated using pymatgen
data_KMg30BO31
_symmetry_space_group_name_H-M   'P 1'
_cell_length_a   8.53790600
_cell_length_b   8.61628100
_cell_length_c   8.66382800
_cell_angle_alpha   90.00000000
_cell_angle_beta   90.00000000
_cell_angle_gamma   90.00000000
_symmetry_Int_Tables_number   1
_chemical_formula_structural   KMg30BO31
_chemical_formula_sum   'K1 Mg30 B1 O31'
_cell_volume   637.35448297
_cell_formula_units_Z   1
loop_
 _symmetry_equiv_pos_site_id
 _symmetry_equiv_pos_as_xyz
  1  'x, y, z'
loop_
 _atom_site_type_symbol
 _atom_site_label
 _atom_site_symmetry_multiplicity
 _atom_site_fract_x
 _atom_site_fract_y
 _atom_site_fract_z
 _atom_site_occupancy
  K  K0  1  0.00000000  0.00012000  0.00000000  1
  Mg  Mg0  1  0.00000000  0.00329300  0.50000000  1
  Mg  Mg1  1  0.50000000  0.00272300  0.00000000  1
  Mg  Mg2  1  0.00000000  0.49962600  0.00000000  1
  Mg  Mg3  1  0.00000000  0.50511900  0.50000000  1
  Mg  Mg4  1  0.50000000  0.49867800  0.00000000  1
  Mg  Mg5  1  0.50000000  0.50545900  0.50000000  1
  Mg  Mg6  1  0.73723500  0.99996100  0.75558300  1
  Mg  Mg7  1  0.73723500  0.99996100  0.24441700  1
  Mg  Mg8  1  0.26276500  0.99996100  0.75558300  1
  Mg  Mg9  1  0.26276500  0.99996100  0.24441700  1
  Mg  Mg10  1  0.74977600  0.50058700  0.75079500  1
  Mg  Mg11  1  0.74977600  0.50058700  0.24920500  1
  Mg  Mg12  1  0.25022400  0.50058700  0.75079500  1
  Mg  Mg13  1  0.25022400  0.50058700  0.24920500  1
  Mg  Mg14  1  0.00000000  0.24997900  0.75161600  1
  Mg  Mg15  1  0.00000000  0.24997900  0.24838400  1
  Mg  Mg16  1  0.50000000  0.24718600  0.74596200  1
  Mg  Mg17  1  0.50000000  0.24718600  0.25403800  1
  Mg  Mg18  1  0.00000000  0.75041200  0.75051900  1
  Mg  Mg19  1  0.00000000  0.75041200  0.24948100  1
  Mg  Mg20  1  0.50000000  0.75141500  0.76349700  1
  Mg  Mg21  1  0.50000000  0.75141500  0.23650300  1
  Mg  Mg22  1  0.74694500  0.25179400  0.00000000  1
  Mg  Mg23  1  0.73145600  0.25471400  0.50000000  1
  Mg  Mg24  1  0.25305500  0.25179400  0.00000000  1
  Mg  Mg25  1  0.26854400  0.25471400  0.50000000  1
  Mg  Mg26  1  0.75057300  0.74846600  0.00000000  1
  Mg  Mg27  1  0.75244500  0.74656300  0.50000000  1
  Mg  Mg28  1  0.24942700  0.74846600  0.00000000  1
  Mg  Mg29  1  0.24755500  0.74656300  0.50000000  1
  B  B0  1  0.50000000  0.93496500  0.50000000  1
  O  O0  1  0.00000000  0.27348300  0.00000000  1
  O  O1  1  0.50000000  0.25782900  0.00000000  1
  O  O2  1  0.50000000  0.27691100  0.50000000  1
  O  O3  1  0.00000000  0.72607400  0.00000000  1
  O  O4  1  0.00000000  0.75588900  0.50000000  1
  O  O5  1  0.50000000  0.74157900  0.00000000  1
  O  O6  1  0.50000000  0.76438900  0.50000000  1
  O  O7  1  0.74838800  0.24818700  0.74715200  1
  O  O8  1  0.74838800  0.24818700  0.25284800  1
  O  O9  1  0.25161200  0.24818700  0.74715200  1
  O  O10  1  0.25161200  0.24818700  0.25284800  1
  O  O11  1  0.75064200  0.75226800  0.74770800  1
  O  O12  1  0.75064200  0.75226800  0.25229200  1
  O  O13  1  0.24935800  0.75226800  0.74770800  1
  O  O14  1  0.24935800  0.75226800  0.25229200  1
  O  O15  1  0.00000000  0.00042100  0.72106100  1
  O  O16  1  0.00000000  0.00042100  0.27893900  1
  O  O17  1  0.50000000  0.99554100  0.76441200  1
  O  O18  1  0.50000000  0.99554100  0.23558800  1
  O  O19  1  0.00000000  0.49955600  0.74236300  1
  O  O20  1  0.00000000  0.49955600  0.25763700  1
  O  O21  1  0.50000000  0.50710900  0.74737700  1
  O  O22  1  0.50000000  0.50710900  0.25262300  1
  O  O23  1  0.72831400  0.00004500  0.00000000  1
  O  O24  1  0.66106300  0.98975400  0.50000000  1
  O  O25  1  0.27168600  0.00004500  0.00000000  1
  O  O26  1  0.33893700  0.98975400  0.50000000  1
  O  O27  1  0.74680800  0.50008800  0.00000000  1
  O  O28  1  0.74975100  0.50688000  0.50000000  1
  O  O29  1  0.25319200  0.50008800  0.00000000  1
  O  O30  1  0.25024900  0.50688000  0.50000000  1
loop_
_geom_bond_atom_site_label_1
_geom_bond_atom_site_label_2
_geom_bond_distance
_geom_bond_site_symmetry_2
K0 O25 2.319630 1_555
K0 O23 2.319630 1_455
K0 O0 2.355372 1_555
K0 O3 2.361257 1_545
K0 O16 2.416681 1_555
K0 O15 2.416681 1_554
Mg0 O15 1.915394 1_555
Mg0 O16 1.915394 1_555
Mg0 O4 2.131702 1_545
Mg1 O25 1.949460 1_555
Mg1 O23 1.949460 1_555
Mg1 O17 2.042032 1_544
Mg1 O18 2.042032 1_545
Mg1 O1 2.198065 1_555
Mg1 O5 2.250090 1_545
Mg2 O0 1.948512 1_555
Mg2 O3 1.951140 1_555
Mg2 O29 2.161733 1_555
Mg2 O27 2.161733 1_455
Mg2 O19 2.232123 1_554
Mg2 O20 2.232123 1_555
Mg3 O19 2.100338 1_555
Mg3 O20 2.100338 1_555
Mg3 O30 2.136656 1_555
Mg3 O28 2.136656 1_455
Mg3 O4 2.160705 1_555
Mg4 O1 2.075223 1_555
Mg4 O5 2.092903 1_555
Mg4 O27 2.107259 1_555
Mg4 O29 2.107259 1_555
Mg4 O22 2.189887 1_555
Mg4 O21 2.189887 1_554
Mg5 O2 1.969234 1_555
Mg5 O28 2.132386 1_555
Mg5 O30 2.132386 1_555
Mg5 O21 2.143279 1_555
Mg5 O22 2.143279 1_555
Mg5 O6 2.231014 1_555
Mg6 O17 2.027292 1_555
Mg6 O23 2.118956 1_566
Mg6 O11 2.138349 1_555
Mg6 O7 2.142149 1_565
Mg6 O15 2.263316 1_665
Mg6 O24 2.309531 1_555
Mg7 O18 2.027292 1_555
Mg7 O23 2.118956 1_565
Mg7 O12 2.138349 1_555
Mg7 O8 2.142149 1_565
Mg7 O16 2.263316 1_665
Mg7 O24 2.309531 1_555
Mg8 O17 2.027292 1_555
Mg8 O25 2.118956 1_566
Mg8 O13 2.138349 1_555
Mg8 O9 2.142149 1_565
Mg8 O15 2.263316 1_565
Mg8 O26 2.309531 1_555
Mg9 O18 2.027292 1_555
Mg9 O25 2.118956 1_565
Mg9 O14 2.138349 1_555
Mg9 O10 2.142149 1_565
Mg9 O16 2.263316 1_565
Mg9 O26 2.309531 1_555
Mg10 O21 2.133510 1_555
Mg10 O19 2.137656 1_655
Mg10 O27 2.159222 1_556
Mg10 O11 2.168732 1_555
Mg10 O28 2.173521 1_555
Mg10 O7 2.175011 1_555
Mg11 O22 2.133510 1_555
Mg11 O20 2.137656 1_655
Mg11 O27 2.159222 1_555
Mg11 O12 2.168732 1_555
Mg11 O28 2.173521 1_555
Mg11 O8 2.175011 1_555
Mg12 O21 2.133510 1_555
Mg12 O19 2.137656 1_555
Mg12 O29 2.159222 1_556
Mg12 O13 2.168732 1_555
Mg12 O30 2.173521 1_555
Mg12 O9 2.175011 1_555
Mg13 O22 2.133510 1_555
Mg13 O20 2.137656 1_555
Mg13 O29 2.159222 1_555
Mg13 O14 2.168732 1_555
Mg13 O30 2.173521 1_555
Mg13 O10 2.175011 1_555
Mg14 O9 2.148643 1_555
Mg14 O7 2.148643 1_455
Mg14 O19 2.151919 1_555
Mg14 O0 2.161465 1_556
Mg14 O15 2.166496 1_555
Mg15 O10 2.148643 1_555
Mg15 O8 2.148643 1_455
Mg15 O20 2.151919 1_555
Mg15 O0 2.161465 1_555
Mg15 O16 2.166496 1_555
Mg16 O7 2.120756 1_555
Mg16 O9 2.120756 1_555
Mg16 O2 2.146309 1_555
Mg16 O17 2.174128 1_545
Mg16 O1 2.202851 1_556
Mg16 O21 2.239603 1_555
Mg17 O8 2.120756 1_555
Mg17 O10 2.120756 1_555
Mg17 O2 2.146309 1_555
Mg17 O18 2.174128 1_545
Mg17 O1 2.202851 1_555
Mg17 O22 2.239603 1_555
Mg18 O13 2.129195 1_555
Mg18 O11 2.129195 1_455
Mg18 O19 2.162601 1_555
Mg18 O15 2.169214 1_565
Mg18 O4 2.170966 1_555
Mg18 O3 2.171609 1_556
Mg19 O14 2.129195 1_555
Mg19 O12 2.129195 1_455
Mg19 O20 2.162601 1_555
Mg19 O16 2.169214 1_565
Mg19 O4 2.170966 1_555
Mg19 O3 2.171609 1_555
Mg20 O5 2.050773 1_556
Mg20 O17 2.103473 1_555
Mg20 O21 2.109637 1_555
Mg20 O11 2.144338 1_555
Mg20 O13 2.144338 1_555
Mg20 O6 2.285628 1_555
Mg21 O5 2.050773 1_555
Mg21 O18 2.103473 1_555
Mg21 O22 2.109637 1_555
Mg21 O12 2.144338 1_555
Mg21 O14 2.144338 1_555
Mg21 O6 2.285628 1_555
Mg22 O1 2.109034 1_555
Mg22 O27 2.139371 1_555
Mg22 O0 2.168627 1_655
Mg22 O23 2.174965 1_555
Mg22 O8 2.190887 1_555
Mg22 O7 2.190887 1_554
Mg23 O2 1.985383 1_555
Mg23 O7 2.146894 1_555
Mg23 O8 2.146894 1_555
Mg23 O28 2.178341 1_555
Mg23 O24 2.360755 1_545
Mg24 O1 2.109034 1_555
Mg24 O29 2.139371 1_555
Mg24 O0 2.168627 1_555
Mg24 O25 2.174965 1_555
Mg24 O10 2.190887 1_555
Mg24 O9 2.190887 1_554
Mg25 O2 1.985383 1_555
Mg25 O9 2.146894 1_555
Mg25 O10 2.146894 1_555
Mg25 O30 2.178341 1_555
Mg25 O26 2.360755 1_545
Mg26 O3 2.138306 1_655
Mg26 O5 2.140192 1_555
Mg26 O27 2.140336 1_555
Mg26 O23 2.175990 1_565
Mg26 O12 2.186060 1_555
Mg26 O11 2.186060 1_554
Mg27 O28 2.065304 1_555
Mg27 O4 2.115128 1_655
Mg27 O11 2.146718 1_555
Mg27 O12 2.146718 1_555
Mg27 O6 2.160817 1_555
Mg27 O24 2.235942 1_555
Mg28 O3 2.138306 1_555
Mg28 O5 2.140192 1_555
Mg28 O29 2.140336 1_555
Mg28 O25 2.175990 1_565
Mg28 O14 2.186060 1_555
Mg28 O13 2.186060 1_554
Mg29 O30 2.065304 1_555
Mg29 O4 2.115128 1_555
Mg29 O13 2.146718 1_555
Mg29 O14 2.146718 1_555
Mg29 O6 2.160817 1_555
Mg29 O26 2.235942 1_555
B0 O24 1.453915 1_555
B0 O26 1.453915 1_555
B0 O6 1.469731 1_555
