# generated using pymatgen
data_Bi3Pd5
_symmetry_space_group_name_H-M   'P 1'
_cell_length_a   4.25987255
_cell_length_b   4.25987255
_cell_length_c   11.18807300
_cell_angle_alpha   90.00000000
_cell_angle_beta   90.00000000
_cell_angle_gamma   120.00000849
_symmetry_Int_Tables_number   1
_chemical_formula_structural   Bi3Pd5
_chemical_formula_sum   'Bi3 Pd5'
_cell_volume   175.82438085
_cell_formula_units_Z   1
loop_
 _symmetry_equiv_pos_site_id
 _symmetry_equiv_pos_as_xyz
  1  'x, y, z'
loop_
 _atom_site_type_symbol
 _atom_site_label
 _atom_site_symmetry_multiplicity
 _atom_site_fract_x
 _atom_site_fract_y
 _atom_site_fract_z
 _atom_site_occupancy
  Bi  Bi0  1  0.00000000  0.00000000  0.00000000  1
  Bi  Bi1  1  0.33333300  0.66666700  0.72549900  1
  Bi  Bi2  1  0.33333300  0.66666700  0.27450100  1
  Pd  Pd0  1  0.66666700  0.33333300  0.61785800  1
  Pd  Pd1  1  0.66666700  0.33333300  0.12921800  1
  Pd  Pd2  1  0.66666700  0.33333300  0.87078200  1
  Pd  Pd3  1  0.66666700  0.33333300  0.38214200  1
  Pd  Pd4  1  0.00000000  0.00000000  0.50000000  1
loop_
_geom_bond_atom_site_label_1
_geom_bond_atom_site_label_2
_geom_bond_distance
_geom_bond_site_symmetry_2
Bi0 Pd1 2.852872 1_455
Bi0 Pd2 2.852872 1_454
Bi0 Pd2 2.852874 1_554
Bi0 Pd1 2.852874 1_555
Bi0 Pd1 2.852874 1_445
Bi0 Pd2 2.852874 1_444
Bi1 Pd0 2.738458 1_455
Bi1 Pd0 2.738458 1_565
Bi1 Pd0 2.738465 1_555
Bi1 Pd2 2.948028 1_455
Bi1 Pd2 2.948028 1_565
Bi1 Pd2 2.948035 1_555
Bi2 Pd3 2.738458 1_455
Bi2 Pd3 2.738458 1_565
Bi2 Pd3 2.738465 1_555
Bi2 Pd1 2.948028 1_455
Bi2 Pd1 2.948028 1_565
Bi2 Pd1 2.948035 1_555
Pd0 Pd3 2.637208 1_555
Pd0 Pd4 2.790617 1_655
Pd0 Pd4 2.790620 1_665
Pd0 Pd4 2.790620 1_555
Pd0 Pd2 2.829732 1_555
Pd1 Pd3 2.829732 1_555
Pd1 Pd2 2.891401 1_554
Pd3 Pd4 2.790617 1_655
Pd3 Pd4 2.790620 1_665
Pd3 Pd4 2.790620 1_555
