# generated using pymatgen
data_PrSmCo17
_symmetry_space_group_name_H-M   'P 1'
_cell_length_a   6.30374744
_cell_length_b   6.30374744
_cell_length_c   6.30374717
_cell_angle_alpha   83.24391448
_cell_angle_beta   83.24391448
_cell_angle_gamma   83.24393016
_symmetry_Int_Tables_number   1
_chemical_formula_structural   PrSmCo17
_chemical_formula_sum   'Pr1 Sm1 Co17'
_cell_volume   245.65438519
_cell_formula_units_Z   1
loop_
 _symmetry_equiv_pos_site_id
 _symmetry_equiv_pos_as_xyz
  1  'x, y, z'
loop_
 _atom_site_type_symbol
 _atom_site_label
 _atom_site_symmetry_multiplicity
 _atom_site_fract_x
 _atom_site_fract_y
 _atom_site_fract_z
 _atom_site_occupancy
  Pr  Pr0  1  0.65459800  0.65459800  0.65459800  1
  Sm  Sm0  1  0.34407500  0.34407500  0.34407500  1
  Co  Co0  1  0.28423900  0.71549200  0.00072200  1
  Co  Co1  1  0.71549200  0.00072200  0.28423900  1
  Co  Co2  1  0.00072200  0.28423900  0.71549200  1
  Co  Co3  1  0.28423900  0.00072200  0.71549200  1
  Co  Co4  1  0.00072200  0.71549200  0.28423900  1
  Co  Co5  1  0.71549200  0.28423900  0.00072200  1
  Co  Co6  1  0.34329600  0.34329600  0.85164000  1
  Co  Co7  1  0.34329600  0.85164000  0.34329600  1
  Co  Co8  1  0.85164000  0.34329600  0.34329600  1
  Co  Co9  1  0.65568500  0.65568500  0.14852300  1
  Co  Co10  1  0.65568500  0.14852300  0.65568500  1
  Co  Co11  1  0.14852300  0.65568500  0.65568500  1
  Co  Co12  1  0.00097800  0.00097800  0.49952500  1
  Co  Co13  1  0.00097800  0.49952500  0.00097800  1
  Co  Co14  1  0.49952500  0.00097800  0.00097800  1
  Co  Co15  1  0.90437600  0.90437600  0.90437600  1
  Co  Co16  1  0.09643900  0.09643900  0.09643900  1
loop_
_geom_bond_atom_site_label_1
_geom_bond_atom_site_label_2
_geom_bond_distance
_geom_bond_site_symmetry_2
Pr0 Sm0 3.768225 1_555
Co0 Co13 2.369086 1_555
Co0 Co4 2.374188 1_555
Co0 Co14 2.378288 1_565
Co0 Co3 2.388533 1_564
Co0 Co7 2.497802 1_555
Co0 Co11 2.512255 1_554
Co0 Co9 2.591482 1_555
Co0 Co6 2.599524 1_554
Co0 Co15 2.649848 1_454
Co0 Co16 2.652584 1_565
Co0 Sm0 3.016735 1_555
Co0 Pr0 3.024269 1_554
Co1 Co14 2.369087 1_555
Co1 Co5 2.374188 1_555
Co1 Co12 2.378288 1_655
Co1 Co4 2.388533 1_645
Co1 Co8 2.497802 1_555
Co1 Co9 2.512255 1_545
Co1 Co10 2.591482 1_555
Co1 Co7 2.599523 1_545
Co1 Co15 2.649848 1_544
Co1 Co16 2.652584 1_655
Co1 Sm0 3.016736 1_555
Co1 Pr0 3.024269 1_545
Co2 Co3 2.374188 1_555
Co2 Co5 2.388533 1_456
Co2 Co6 2.497802 1_555
Co2 Co8 2.599524 1_455
Co2 Sm0 3.016735 1_555
Co2 Pr0 3.024270 1_455
Co3 Co6 2.497802 1_555
Co3 Co7 2.599524 1_545
Co3 Sm0 3.016735 1_555
Co3 Pr0 3.024270 1_545
Co4 Co7 2.497802 1_555
Co4 Co9 2.512255 1_455
Co4 Co8 2.599523 1_455
Co4 Sm0 3.016736 1_555
Co4 Pr0 3.024269 1_455
Co5 Co8 2.497802 1_555
Co5 Co9 2.591482 1_555
Co5 Co6 2.599524 1_554
Co5 Sm0 3.016735 1_555
Co5 Pr0 3.024269 1_554
Co6 Pr0 3.000610 1_555
Co6 Sm0 3.105350 1_556
Co6 Sm0 3.198414 1_555
Co7 Co9 2.475239 1_555
Co7 Pr0 3.000611 1_555
Co7 Sm0 3.105350 1_565
Co7 Sm0 3.198414 1_555
Co8 Co9 2.475239 1_555
Co8 Pr0 3.000611 1_555
Co8 Sm0 3.105350 1_655
Co8 Sm0 3.198414 1_555
Co9 Sm0 3.000834 1_555
Co9 Pr0 3.115207 1_554
Co9 Pr0 3.188573 1_555
Co10 Co14 2.409731 1_556
Co10 Co12 2.409732 1_655
Co10 Co8 2.475239 1_555
Co10 Co6 2.475239 1_555
Co10 Co2 2.512255 1_655
Co10 Co5 2.512255 1_556
Co10 Co3 2.591481 1_555
Co10 Co15 2.593609 1_545
Co10 Sm0 3.000835 1_555
Co10 Pr0 3.115207 1_545
Co10 Pr0 3.188573 1_555
Co11 Co13 2.409731 1_556
Co11 Co12 2.409732 1_565
Co11 Co7 2.475239 1_555
Co11 Co6 2.475239 1_555
Co11 Co3 2.512255 1_565
Co11 Co2 2.591481 1_555
Co11 Co4 2.591482 1_555
Co11 Co15 2.593609 1_455
Co11 Sm0 3.000835 1_555
Co11 Pr0 3.115207 1_455
Co11 Pr0 3.188573 1_555
Co12 Co3 2.369087 1_555
Co12 Co2 2.369087 1_555
Co12 Co4 2.378288 1_545
Co12 Co8 2.398485 1_455
Co12 Co7 2.398485 1_545
Co12 Co16 2.558583 1_555
Co12 Co15 2.571126 1_445
Co12 Sm0 3.227832 1_555
Co12 Pr0 3.257024 1_445
Co13 Co4 2.369087 1_555
Co13 Co5 2.378288 1_455
Co13 Co2 2.378288 1_554
Co13 Co8 2.398485 1_455
Co13 Co6 2.398485 1_554
Co13 Co9 2.409732 1_455
Co13 Co16 2.558583 1_555
Co13 Co15 2.571127 1_454
Co13 Sm0 3.227832 1_555
Co13 Pr0 3.257024 1_454
Co14 Co5 2.369086 1_555
Co14 Co3 2.378288 1_554
Co14 Co7 2.398485 1_545
Co14 Co6 2.398485 1_554
Co14 Co9 2.409732 1_545
Co14 Co16 2.558583 1_555
Co14 Co15 2.571127 1_544
Co14 Sm0 3.227832 1_555
Co14 Pr0 3.257024 1_544
Co15 Co16 2.330702 1_666
Co15 Co9 2.593608 1_556
Co15 Co2 2.649848 1_665
Co15 Co3 2.649848 1_665
Co15 Co4 2.649848 1_656
Co15 Co5 2.649848 1_566
Co15 Pr0 3.031079 1_555
Co16 Co6 2.581494 1_554
Co16 Co7 2.581494 1_545
Co16 Co8 2.581494 1_455
Co16 Co4 2.652584 1_545
Co16 Co2 2.652584 1_554
Co16 Co3 2.652584 1_554
Co16 Co5 2.652584 1_455
Co16 Sm0 3.005086 1_555
