# generated using pymatgen
data_CaHoTi2O6
_symmetry_space_group_name_H-M   'P 1'
_cell_length_a   5.36466100
_cell_length_b   5.57851700
_cell_length_c   7.69880100
_cell_angle_alpha   90.00000000
_cell_angle_beta   90.00000000
_cell_angle_gamma   90.00000000
_symmetry_Int_Tables_number   1
_chemical_formula_structural   CaHoTi2O6
_chemical_formula_sum   'Ca2 Ho2 Ti4 O12'
_cell_volume   230.40088263
_cell_formula_units_Z   2
loop_
 _symmetry_equiv_pos_site_id
 _symmetry_equiv_pos_as_xyz
  1  'x, y, z'
loop_
 _atom_site_type_symbol
 _atom_site_label
 _atom_site_symmetry_multiplicity
 _atom_site_fract_x
 _atom_site_fract_y
 _atom_site_fract_z
 _atom_site_occupancy
  Ca  Ca0  1  0.48858100  0.19744800  0.00000000  1
  Ca  Ca1  1  0.98858100  0.80255200  0.50000000  1
  Ho  Ho0  1  0.01841000  0.68581700  0.00000000  1
  Ho  Ho1  1  0.51841000  0.31418300  0.50000000  1
  Ti  Ti0  1  0.00037500  0.24628700  0.75005200  1
  Ti  Ti1  1  0.00037500  0.24628700  0.24994800  1
  Ti  Ti2  1  0.50037500  0.75371300  0.25005200  1
  Ti  Ti3  1  0.50037500  0.75371300  0.74994800  1
  O  O0  1  0.10946800  0.22194500  0.50000000  1
  O  O1  1  0.19350400  0.94697100  0.80395500  1
  O  O2  1  0.19350400  0.94697100  0.19604500  1
  O  O3  1  0.29107500  0.46191400  0.79922300  1
  O  O4  1  0.29107500  0.46191400  0.20077700  1
  O  O5  1  0.41363300  0.71625000  0.50000000  1
  O  O6  1  0.60946800  0.77805500  0.00000000  1
  O  O7  1  0.69350400  0.05302900  0.30395500  1
  O  O8  1  0.69350400  0.05302900  0.69604500  1
  O  O9  1  0.79107500  0.53808600  0.70077700  1
  O  O10  1  0.79107500  0.53808600  0.29922300  1
  O  O11  1  0.91363300  0.28375000  0.00000000  1
loop_
_geom_bond_atom_site_label_1
_geom_bond_atom_site_label_2
_geom_bond_distance
_geom_bond_site_symmetry_2
Ca0 O11 2.330529 1_555
Ca0 O4 2.385071 1_555
Ca0 O3 2.385071 1_554
Ca0 O6 2.427810 1_545
Ca0 O1 2.595437 1_544
Ca0 O2 2.595437 1_545
Ca0 O7 2.708068 1_555
Ca0 O8 2.708068 1_554
Ca1 O5 2.330529 1_655
Ca1 O9 2.385071 1_555
Ca1 O10 2.385071 1_555
Ca1 O0 2.427810 1_665
Ca1 O8 2.595437 1_565
Ca1 O7 2.595437 1_565
Ca1 O1 2.708068 1_655
Ca1 O2 2.708068 1_655
Ho0 O6 2.253370 1_455
Ho0 O2 2.298426 1_555
Ho0 O1 2.298426 1_554
Ho0 O11 2.312297 1_455
Ho0 O4 2.467608 1_555
Ho0 O3 2.467608 1_554
Ho0 O10 2.733748 1_455
Ho0 O9 2.733748 1_454
Ho1 O0 2.253370 1_555
Ho1 O8 2.298426 1_555
Ho1 O7 2.298426 1_555
Ho1 O5 2.312297 1_555
Ho1 O9 2.467608 1_555
Ho1 O10 2.467608 1_555
Ho1 O3 2.733748 1_555
Ho1 O4 2.733748 1_555
O0 Ti0 2.016672 1_555
O0 Ti1 2.016672 1_555
O1 Ti0 2.008405 1_565
O1 Ti3 2.011301 1_555
O2 Ti1 2.008405 1_565
O2 Ti2 2.011301 1_555
O3 Ti0 2.005564 1_555
O3 Ti3 2.013553 1_555
O4 Ti1 2.005564 1_555
O4 Ti2 2.013553 1_555
O5 Ti3 1.990766 1_555
O5 Ti2 1.990766 1_555
O6 Ti2 2.016672 1_555
O6 Ti3 2.016672 1_554
O7 Ti2 2.008405 1_545
O7 Ti1 2.011301 1_655
O8 Ti3 2.008405 1_545
O8 Ti0 2.011301 1_655
O9 Ti3 2.005564 1_555
O9 Ti0 2.013553 1_655
O10 Ti2 2.005564 1_555
O10 Ti1 2.013553 1_655
O11 Ti1 1.990766 1_655
O11 Ti0 1.990766 1_654
