# generated using pymatgen
data_Ce4Si3Rh4
_symmetry_space_group_name_H-M   'P 1'
_cell_length_a   10.67127842
_cell_length_b   10.67127842
_cell_length_c   7.90445046
_cell_angle_alpha   70.59499657
_cell_angle_beta   70.59499657
_cell_angle_gamma   30.58232375
_symmetry_Int_Tables_number   1
_chemical_formula_structural   Ce4Si3Rh4
_chemical_formula_sum   'Ce8 Si6 Rh8'
_cell_volume   429.94061623
_cell_formula_units_Z   2
loop_
 _symmetry_equiv_pos_site_id
 _symmetry_equiv_pos_as_xyz
  1  'x, y, z'
loop_
 _atom_site_type_symbol
 _atom_site_label
 _atom_site_symmetry_multiplicity
 _atom_site_fract_x
 _atom_site_fract_y
 _atom_site_fract_z
 _atom_site_occupancy
  Ce  Ce0  1  0.78569500  0.55306200  0.59823800  1
  Ce  Ce1  1  0.44693800  0.21430500  0.90176200  1
  Ce  Ce2  1  0.21430500  0.44693800  0.40176200  1
  Ce  Ce3  1  0.55306200  0.78569500  0.09823800  1
  Ce  Ce4  1  0.79860600  0.07208400  0.17024800  1
  Ce  Ce5  1  0.92791600  0.20139400  0.32975200  1
  Ce  Ce6  1  0.20139400  0.92791600  0.82975200  1
  Ce  Ce7  1  0.07208400  0.79860600  0.67024800  1
  Si  Si0  1  0.94423800  0.71222500  0.05935000  1
  Si  Si1  1  0.28777500  0.05576200  0.44065000  1
  Si  Si2  1  0.05576200  0.28777500  0.94065000  1
  Si  Si3  1  0.71222500  0.94423800  0.55935000  1
  Si  Si4  1  0.64279600  0.35720400  0.75000000  1
  Si  Si5  1  0.35720400  0.64279600  0.25000000  1
  Rh  Rh0  1  0.56835700  0.30340400  0.52226400  1
  Rh  Rh1  1  0.69659600  0.43164300  0.97773600  1
  Rh  Rh2  1  0.43164300  0.69659600  0.47773600  1
  Rh  Rh3  1  0.30340400  0.56835700  0.02226400  1
  Rh  Rh4  1  0.63295600  0.92694700  0.31731600  1
  Rh  Rh5  1  0.07305300  0.36704400  0.18268400  1
  Rh  Rh6  1  0.36704400  0.07305300  0.68268400  1
  Rh  Rh7  1  0.92694700  0.63295600  0.81731600  1
loop_
_geom_bond_atom_site_label_1
_geom_bond_atom_site_label_2
_geom_bond_distance
_geom_bond_site_symmetry_2
Ce0 Rh4 2.971034 1_555
Ce0 Rh2 2.997637 1_555
Ce0 Rh6 2.998566 1_565
Ce0 Rh1 3.037180 1_555
Ce0 Si1 3.069554 1_655
Ce0 Si1 3.072752 1_565
Ce0 Si2 3.112824 1_655
Ce0 Si4 3.277013 1_555
Ce0 Rh7 3.305439 1_555
Ce0 Rh6 3.306849 1_655
Ce0 Rh5 3.360353 1_655
Ce1 Rh5 2.971034 1_556
Ce1 Rh3 2.997637 1_556
Ce1 Rh7 2.998566 1_455
Ce1 Rh0 3.037180 1_555
Ce1 Si0 3.069554 1_546
Ce1 Si0 3.072752 1_456
Ce1 Si3 3.112824 1_545
Ce1 Si4 3.277013 1_555
Ce1 Rh6 3.305439 1_555
Ce1 Rh7 3.306849 1_545
Ce1 Rh4 3.360353 1_546
Ce2 Rh6 2.971034 1_555
Ce2 Rh0 2.997637 1_555
Ce2 Rh4 2.998566 1_545
Ce2 Rh3 3.037180 1_555
Ce2 Si3 3.069554 1_455
Ce2 Si3 3.072752 1_545
Ce2 Si0 3.112824 1_455
Ce2 Si5 3.277013 1_555
Ce2 Rh5 3.305439 1_555
Ce2 Rh4 3.306849 1_455
Ce2 Rh7 3.360353 1_455
Ce3 Rh7 2.971034 1_554
Ce3 Rh1 2.997637 1_554
Ce3 Rh5 2.998566 1_655
Ce3 Rh2 3.037180 1_555
Ce3 Si2 3.069554 1_564
Ce3 Si2 3.072752 1_654
Ce3 Si1 3.112824 1_565
Ce3 Si5 3.277013 1_555
Ce3 Rh4 3.305439 1_555
Ce3 Rh5 3.306849 1_565
Ce3 Rh6 3.360353 1_564
Ce4 Rh1 2.872652 1_554
Ce4 Si0 2.997737 1_545
Ce4 Rh4 3.004497 1_545
Ce4 Rh3 3.024102 1_555
Ce4 Rh3 3.068431 1_645
Ce4 Rh0 3.074228 1_555
Ce4 Si3 3.108653 1_545
Ce4 Si5 3.236749 1_645
Ce4 Si5 3.295500 1_555
Ce4 Si4 3.361577 1_554
Ce5 Rh0 2.872652 1_555
Ce5 Si1 2.997737 1_655
Ce5 Rh5 3.004497 1_655
Ce5 Rh2 3.024102 1_555
Ce5 Rh2 3.068431 1_645
Ce5 Rh1 3.074228 1_554
Ce5 Si2 3.108653 1_654
Ce5 Si5 3.236749 1_645
Ce5 Si5 3.295500 1_555
Ce5 Si4 3.361577 1_555
Ce6 Rh3 2.872652 1_556
Ce6 Si2 2.997737 1_565
Ce6 Rh6 3.004497 1_565
Ce6 Rh1 3.024102 1_555
Ce6 Rh1 3.068431 1_465
Ce6 Rh2 3.074228 1_555
Ce6 Si1 3.108653 1_565
Ce6 Si4 3.236749 1_465
Ce6 Si4 3.295500 1_555
Ce6 Si5 3.361577 1_556
Ce7 Rh2 2.872652 1_555
Ce7 Si3 2.997737 1_455
Ce7 Rh7 3.004497 1_455
Ce7 Rh0 3.024102 1_555
Ce7 Rh0 3.068431 1_465
Ce7 Rh3 3.074228 1_556
Ce7 Si0 3.108653 1_456
Ce7 Si4 3.236749 1_465
Ce7 Si4 3.295500 1_555
Ce7 Si5 3.361577 1_555
Rh0 Si3 2.560067 1_545
Rh0 Si4 2.573562 1_555
Rh0 Si5 2.611056 1_555
Rh1 Si2 2.560067 1_655
Rh1 Si4 2.573562 1_555
Rh1 Si5 2.611056 1_556
Rh2 Si1 2.560067 1_565
Rh2 Si5 2.573562 1_555
Rh2 Si4 2.611056 1_555
Rh3 Si0 2.560067 1_455
Rh3 Si5 2.573562 1_555
Rh3 Si4 2.611056 1_554
Rh4 Si0 2.437407 1_555
Rh4 Si3 2.447120 1_555
Rh4 Si1 2.488853 1_565
Rh5 Si1 2.437407 1_555
Rh5 Si2 2.447120 1_554
Rh5 Si0 2.488853 1_455
Rh6 Si2 2.437407 1_555
Rh6 Si1 2.447120 1_555
Rh6 Si3 2.488853 1_545
Rh7 Si3 2.437407 1_555
Rh7 Si0 2.447120 1_556
Rh7 Si2 2.488853 1_655
