# generated using pymatgen
data_K3(CuO2)2
_symmetry_space_group_name_H-M   'P 1'
_cell_length_a   5.41541000
_cell_length_b   5.41541000
_cell_length_c   10.85954779
_cell_angle_alpha   90.00000000
_cell_angle_beta   90.00000000
_cell_angle_gamma   111.48817047
_symmetry_Int_Tables_number   1
_chemical_formula_structural   K3(CuO2)2
_chemical_formula_sum   'K6 Cu4 O8'
_cell_volume   296.33820000
_cell_formula_units_Z   2
loop_
 _symmetry_equiv_pos_site_id
 _symmetry_equiv_pos_as_xyz
  1  'x, y, z'
loop_
 _atom_site_type_symbol
 _atom_site_label
 _atom_site_symmetry_multiplicity
 _atom_site_fract_x
 _atom_site_fract_y
 _atom_site_fract_z
 _atom_site_occupancy
  K  K0  1  0.65297990  0.34702010  0.56732357  1
  K  K1  1  0.34702010  0.65297990  0.43267643  1
  K  K2  1  0.65297990  0.34702010  0.93267643  1
  K  K3  1  0.34702010  0.65297990  0.06732357  1
  K  K4  1  0.30370479  0.69629521  0.75000000  1
  K  K5  1  0.69629521  0.30370479  0.25000000  1
  Cu  Cu0  1  0.00000000  0.00000000  0.50000000  1
  Cu  Cu1  1  0.00000000  0.00000000  0.00000000  1
  Cu  Cu2  1  0.93697751  0.06302249  0.75000000  1
  Cu  Cu3  1  0.06302249  0.93697751  0.25000000  1
  O  O0  1  0.85877355  0.73191573  0.38662817  1
  O  O1  1  0.73191573  0.85877355  0.61337183  1
  O  O2  1  0.85877355  0.73191573  0.11337183  1
  O  O3  1  0.73191573  0.85877355  0.88662817  1
  O  O4  1  0.14122645  0.26808427  0.61337183  1
  O  O5  1  0.26808427  0.14122645  0.38662817  1
  O  O6  1  0.14122645  0.26808427  0.88662817  1
  O  O7  1  0.26808427  0.14122645  0.11337183  1
loop_
_geom_bond_atom_site_label_1
_geom_bond_atom_site_label_2
_geom_bond_distance
_geom_bond_site_symmetry_2
K0 O4 2.691708 1_555
K0 O1 2.691708 1_555
K0 O5 2.781237 1_555
K0 O0 2.781237 1_555
K0 O4 2.872606 1_655
K0 O1 2.872606 1_545
K1 O5 2.691708 1_555
K1 O0 2.691708 1_555
K1 O1 2.781237 1_555
K1 O4 2.781237 1_555
K1 O0 2.872606 1_455
K1 O5 2.872606 1_565
K2 O6 2.691708 1_555
K2 O3 2.691708 1_555
K2 O2 2.781237 1_556
K2 O7 2.781237 1_556
K2 O3 2.872606 1_545
K2 O6 2.872606 1_655
K3 O7 2.691708 1_555
K3 O2 2.691708 1_555
K3 O6 2.781237 1_554
K3 O3 2.781237 1_554
K3 O7 2.872606 1_565
K3 O2 2.872606 1_455
K4 O3 2.618828 1_555
K4 O1 2.618828 1_555
K4 O4 2.618828 1_555
K4 O6 2.618828 1_555
K5 O2 2.618828 1_555
K5 O0 2.618828 1_555
K5 O5 2.618828 1_555
K5 O7 2.618828 1_555
Cu0 O1 1.842533 1_445
Cu0 O4 1.842533 1_555
Cu0 O5 1.842533 1_555
Cu0 O0 1.842533 1_445
Cu1 O3 1.842533 1_444
Cu1 O6 1.842533 1_554
Cu1 O7 1.842533 1_555
Cu1 O2 1.842533 1_445
Cu2 O1 1.938603 1_545
Cu2 O3 1.938603 1_545
Cu2 O4 1.938603 1_655
Cu2 O6 1.938603 1_655
Cu3 O2 1.938603 1_455
Cu3 O0 1.938603 1_455
Cu3 O5 1.938603 1_565
Cu3 O7 1.938603 1_565
