# generated using pymatgen
data_Na5Li3V8O24
_symmetry_space_group_name_H-M   'P 1'
_cell_length_a   5.92102100
_cell_length_b   7.02484343
_cell_length_c   13.83663070
_cell_angle_alpha   90.67920989
_cell_angle_beta   100.28860212
_cell_angle_gamma   104.22397915
_symmetry_Int_Tables_number   1
_chemical_formula_structural   Na5Li3V8O24
_chemical_formula_sum   'Na5 Li3 V8 O24'
_cell_volume   547.97153624
_cell_formula_units_Z   1
loop_
 _symmetry_equiv_pos_site_id
 _symmetry_equiv_pos_as_xyz
  1  'x, y, z'
loop_
 _atom_site_type_symbol
 _atom_site_label
 _atom_site_symmetry_multiplicity
 _atom_site_fract_x
 _atom_site_fract_y
 _atom_site_fract_z
 _atom_site_occupancy
  Na  Na0  1  0.10578700  0.71205300  0.85607700  1
  Na  Na1  1  0.60562500  0.71058000  0.35527600  1
  Na  Na2  1  0.39465600  0.28942900  0.64484600  1
  Na  Na3  1  0.89410200  0.28817200  0.14392500  1
  Na  Na4  1  0.79238400  0.08491100  0.54243000  1
  Li  Li0  1  0.29395300  0.08780800  0.04391300  1
  Li  Li1  1  0.70611100  0.91206800  0.95604200  1
  Li  Li2  1  0.20534100  0.91086600  0.45545600  1
  V  V0  1  0.85146600  0.62211600  0.59897200  1
  V  V1  1  0.35038900  0.62005900  0.09823700  1
  V  V2  1  0.06049400  0.19756300  0.81302700  1
  V  V3  1  0.55591000  0.19667500  0.30804300  1
  V  V4  1  0.65034800  0.38048100  0.90203700  1
  V  V5  1  0.15199500  0.38212700  0.40081600  1
  V  V6  1  0.43973000  0.80222200  0.69127900  1
  V  V7  1  0.94205400  0.80346500  0.18992500  1
  O  O0  1  0.73885500  0.39452700  0.54821700  1
  O  O1  1  0.24588900  0.38959000  0.04878500  1
  O  O2  1  0.00637800  0.09485700  0.69924100  1
  O  O3  1  0.49749400  0.09901700  0.19270700  1
  O  O4  1  0.75455000  0.61102900  0.95139900  1
  O  O5  1  0.25545100  0.61222300  0.45081700  1
  O  O6  1  0.50244900  0.90230400  0.80647800  1
  O  O7  1  0.00141300  0.90220800  0.30516200  1
  O  O8  1  0.14136100  0.64129900  0.67700800  1
  O  O9  1  0.64174900  0.64438900  0.17588900  1
  O  O10  1  0.85594600  0.35203100  0.82206800  1
  O  O11  1  0.35675100  0.35366900  0.32076100  1
  O  O12  1  0.35949000  0.35735800  0.82487300  1
  O  O13  1  0.85776300  0.35444100  0.32455100  1
  O  O14  1  0.64431900  0.65077300  0.67813200  1
  O  O15  1  0.14371800  0.64819600  0.17782000  1
  O  O16  1  0.86698700  0.78187100  0.50942200  1
  O  O17  1  0.36187700  0.78693200  0.01174900  1
  O  O18  1  0.04433300  0.02338200  0.89590100  1
  O  O19  1  0.53287200  0.01905500  0.38867900  1
  O  O20  1  0.63832400  0.21293600  0.98840300  1
  O  O21  1  0.15099800  0.21600500  0.48720000  1
  O  O22  1  0.44411400  0.97468200  0.60784900  1
  O  O23  1  0.95657400  0.97663200  0.10659100  1
loop_
_geom_bond_atom_site_label_1
_geom_bond_atom_site_label_2
_geom_bond_distance
_geom_bond_site_symmetry_2
Na0 O17 2.372760 1_556
Na0 O18 2.377666 1_565
Na0 O8 2.576654 1_555
Na0 O10 2.586634 1_455
Na0 O6 2.613095 1_555
Na0 O4 2.616300 1_455
Na1 O19 2.366671 1_565
Na1 O16 2.368444 1_555
Na1 O11 2.567175 1_555
Na1 O9 2.575654 1_555
Na1 O5 2.611642 1_555
Na1 O7 2.614786 1_655
Na2 O22 2.362510 1_545
Na2 O21 2.364099 1_555
Na2 O12 2.584938 1_555
Na2 O14 2.593420 1_555
Na2 O0 2.596828 1_555
Na2 O2 2.611202 1_555
Na3 O20 2.370476 1_554
Na3 O23 2.373304 1_545
Na3 O15 2.586140 1_655
Na3 O13 2.592879 1_555
Na3 O3 2.605745 1_555
Na3 O1 2.617559 1_655
Na4 O0 2.276228 1_555
Na4 O2 2.299769 1_655
Na4 O16 2.333810 1_545
Na4 O19 2.358079 1_555
Na4 O22 2.360075 1_545
Na4 O21 2.361380 1_655
Li0 O3 2.181863 1_555
Li0 O1 2.209019 1_555
Li0 O18 2.269719 1_554
Li0 O20 2.283609 1_554
Li0 O23 2.284910 1_445
Li0 O17 2.299242 1_545
Li1 O6 2.192280 1_555
Li1 O4 2.204538 1_555
Li1 O18 2.270590 1_665
Li1 O17 2.284288 1_556
Li1 O20 2.299420 1_565
Li1 O23 2.299523 1_556
Li2 O5 2.191558 1_555
Li2 O7 2.202316 1_555
Li2 O16 2.247355 1_455
Li2 O19 2.263780 1_565
Li2 O22 2.290677 1_555
Li2 O21 2.293118 1_565
O0 V0 1.666166 1_555
O1 V1 1.674050 1_555
O2 V2 1.667711 1_555
O3 V3 1.672516 1_555
O4 V4 1.674019 1_555
O5 V5 1.673952 1_555
O6 V6 1.675293 1_555
O7 V7 1.673581 1_455
O8 V6 1.823906 1_555
O8 V0 1.830614 1_455
O9 V7 1.828442 1_555
O9 V1 1.829864 1_555
O10 V4 1.828036 1_555
O10 V2 1.832132 1_655
O11 V5 1.824922 1_555
O11 V3 1.829335 1_555
O12 V4 1.825877 1_555
O12 V2 1.826610 1_555
O13 V3 1.830184 1_555
O13 V5 1.832594 1_655
O14 V6 1.827537 1_555
O14 V0 1.827725 1_555
O15 V1 1.828693 1_555
O15 V7 1.830488 1_455
O16 V0 1.681117 1_555
O17 V1 1.683467 1_555
O18 V2 1.684095 1_555
O19 V3 1.680499 1_555
O20 V4 1.685515 1_555
O21 V5 1.680101 1_555
O22 V6 1.682094 1_555
O23 V7 1.683454 1_555
