# generated using pymatgen
data_Mg14AlV
_symmetry_space_group_name_H-M   'P 1'
_cell_length_a   6.25334981
_cell_length_b   6.21648431
_cell_length_c   10.28692857
_cell_angle_alpha   90.00000000
_cell_angle_beta   90.00000000
_cell_angle_gamma   119.80518037
_symmetry_Int_Tables_number   1
_chemical_formula_structural   Mg14AlV
_chemical_formula_sum   'Mg14 Al1 V1'
_cell_volume   346.99495089
_cell_formula_units_Z   1
loop_
 _symmetry_equiv_pos_site_id
 _symmetry_equiv_pos_as_xyz
  1  'x, y, z'
loop_
 _atom_site_type_symbol
 _atom_site_label
 _atom_site_symmetry_multiplicity
 _atom_site_fract_x
 _atom_site_fract_y
 _atom_site_fract_z
 _atom_site_occupancy
  Mg  Mg0  1  0.16715168  0.33357534  0.62500000  1
  Mg  Mg1  1  0.16709102  0.83354501  0.62500000  1
  Mg  Mg2  1  0.66753694  0.33506769  0.12500000  1
  Mg  Mg3  1  0.66574468  0.33288352  0.62500000  1
  Mg  Mg4  1  0.66753694  0.83246825  0.12500000  1
  Mg  Mg5  1  0.66574468  0.83286016  0.62500000  1
  Mg  Mg6  1  0.32953873  0.16363025  0.36822176  1
  Mg  Mg7  1  0.32953873  0.16363025  0.88177824  1
  Mg  Mg8  1  0.32953873  0.66590948  0.36822176  1
  Mg  Mg9  1  0.32953873  0.66590948  0.88177824  1
  Mg  Mg10  1  0.83608709  0.16804404  0.37398935  1
  Mg  Mg11  1  0.83608709  0.16804404  0.87601065  1
  Mg  Mg12  1  0.83755689  0.66877894  0.37269047  1
  Mg  Mg13  1  0.83755689  0.66877894  0.87730953  1
  Al  Al0  1  0.16812873  0.33406387  0.12500000  1
  V  V0  1  0.16562246  0.83281073  0.12500000  1
loop_
_geom_bond_atom_site_label_1
_geom_bond_atom_site_label_2
_geom_bond_distance
_geom_bond_site_symmetry_2
Mg0 Mg1 3.108242 1_545
Mg0 Mg1 3.108242 1_555
Mg0 Mg5 3.120016 1_555
Mg0 Mg3 3.120016 1_555
Mg0 Mg5 3.133338 1_445
Mg0 Mg3 3.133338 1_455
Mg0 Mg10 3.145548 1_455
Mg0 Mg11 3.145548 1_455
Mg0 Mg6 3.192343 1_555
Mg0 Mg7 3.192343 1_555
Mg0 Mg8 3.192349 1_555
Mg0 Mg9 3.192349 1_555
Mg1 Mg3 3.120374 1_565
Mg1 Mg5 3.120374 1_555
Mg1 Mg3 3.132980 1_455
Mg1 Mg5 3.132980 1_455
Mg1 Mg13 3.151807 1_455
Mg1 Mg12 3.151807 1_455
Mg1 Mg9 3.185529 1_555
Mg1 Mg8 3.185529 1_555
Mg1 Mg6 3.185535 1_565
Mg1 Mg7 3.185535 1_565
Mg2 Mg4 3.092083 1_555
Mg2 Mg7 3.102246 1_554
Mg2 Mg6 3.102246 1_555
Mg2 V0 3.113645 1_655
Mg2 Mg4 3.124402 1_545
Mg2 V0 3.139705 1_545
Mg3 Mg5 3.108097 1_555
Mg3 Mg5 3.108387 1_545
Mg3 Mg6 3.210211 1_555
Mg3 Mg7 3.210211 1_555
Mg4 Mg9 3.102246 1_554
Mg4 Mg8 3.102246 1_555
Mg4 V0 3.113645 1_655
Mg4 V0 3.139706 1_555
Mg5 Mg8 3.210211 1_555
Mg5 Mg9 3.210211 1_555
Mg6 V0 3.073185 1_545
Mg6 Mg8 3.094073 1_545
Mg6 Mg8 3.122411 1_555
Mg7 V0 3.073185 1_546
Mg7 Mg9 3.094073 1_545
Mg7 Mg9 3.122411 1_555
Mg8 V0 3.073179 1_555
Mg9 V0 3.073179 1_556
Mg10 Mg8 3.100023 1_655
Mg10 Mg6 3.100023 1_655
Mg10 Mg12 3.108281 1_555
Mg10 Mg12 3.108281 1_545
Mg10 Mg2 3.136455 1_555
Mg10 Mg4 3.136461 1_545
Mg10 Mg3 3.152337 1_555
Mg10 Mg5 3.152343 1_545
Mg10 Mg8 3.154633 1_545
Mg10 Mg6 3.154634 1_555
Mg11 Mg9 3.100023 1_655
Mg11 Mg7 3.100023 1_655
Mg11 Mg13 3.108281 1_555
Mg11 Mg13 3.108281 1_545
Mg11 Mg2 3.136455 1_556
Mg11 Mg4 3.136461 1_546
Mg11 Mg3 3.152337 1_555
Mg11 Mg5 3.152343 1_545
Mg11 Mg9 3.154633 1_545
Mg11 Mg7 3.154634 1_555
Mg12 Mg6 3.085782 1_665
Mg12 Mg8 3.085782 1_655
Mg12 V0 3.108224 1_655
Mg12 Mg4 3.119857 1_555
Mg12 Mg2 3.119863 1_555
Mg12 Mg5 3.165559 1_555
Mg12 Mg3 3.165565 1_555
Mg12 Mg6 3.168320 1_555
Mg12 Mg8 3.168320 1_555
Mg13 Mg7 3.085782 1_665
Mg13 Mg9 3.085782 1_655
Mg13 V0 3.108224 1_656
Mg13 Mg4 3.119857 1_556
Mg13 Mg2 3.119863 1_556
Mg13 Mg5 3.165559 1_555
Mg13 Mg3 3.165565 1_555
Mg13 Mg7 3.168320 1_555
Mg13 Mg9 3.168320 1_555
Al0 Mg7 3.076436 1_554
Al0 Mg6 3.076436 1_555
Al0 Mg9 3.076443 1_554
Al0 Mg8 3.076443 1_555
Al0 V0 3.108272 1_555
Al0 V0 3.108272 1_545
Al0 Mg4 3.119877 1_555
Al0 Mg2 3.119877 1_555
Al0 Mg10 3.131550 1_455
Al0 Mg11 3.131550 1_454
Al0 Mg4 3.133482 1_445
Al0 Mg2 3.133482 1_455
