# generated using pymatgen
data_Nb10Ge6C
_symmetry_space_group_name_H-M   'P 1'
_cell_length_a   7.69681803
_cell_length_b   7.69681803
_cell_length_c   5.33521813
_cell_angle_alpha   90.00000000
_cell_angle_beta   90.00000000
_cell_angle_gamma   120.00000385
_symmetry_Int_Tables_number   1
_chemical_formula_structural   Nb10Ge6C
_chemical_formula_sum   'Nb10 Ge6 C1'
_cell_volume   273.71918160
_cell_formula_units_Z   1
loop_
 _symmetry_equiv_pos_site_id
 _symmetry_equiv_pos_as_xyz
  1  'x, y, z'
loop_
 _atom_site_type_symbol
 _atom_site_label
 _atom_site_symmetry_multiplicity
 _atom_site_fract_x
 _atom_site_fract_y
 _atom_site_fract_z
 _atom_site_occupancy
  Nb  Nb0  1  0.00000000  0.76167246  0.25660721  1
  Nb  Nb1  1  0.23832754  0.23832754  0.25660721  1
  Nb  Nb2  1  0.76167246  0.00000000  0.25660721  1
  Nb  Nb3  1  -0.00000000  0.23832754  0.74339279  1
  Nb  Nb4  1  0.76167246  0.76167246  0.74339279  1
  Nb  Nb5  1  0.23832754  -0.00000000  0.74339279  1
  Nb  Nb6  1  0.33333300  0.66666700  -0.00000000  1
  Nb  Nb7  1  0.66666700  0.33333300  -0.00000000  1
  Nb  Nb8  1  0.66666700  0.33333300  0.50000000  1
  Nb  Nb9  1  0.33333300  0.66666700  0.50000000  1
  Ge  Ge0  1  -0.00000000  0.39827343  0.24373351  1
  Ge  Ge1  1  0.60172657  0.60172657  0.24373351  1
  Ge  Ge2  1  0.39827343  -0.00000000  0.24373351  1
  Ge  Ge3  1  0.00000000  0.60172657  0.75626649  1
  Ge  Ge4  1  0.39827343  0.39827343  0.75626649  1
  Ge  Ge5  1  0.60172657  0.00000000  0.75626649  1
  C  C0  1  0.00000000  -0.00000000  0.50000000  1
loop_
_geom_bond_atom_site_label_1
_geom_bond_atom_site_label_2
_geom_bond_distance
_geom_bond_site_symmetry_2
Nb6 Nb9 2.667609 1_555
Nb6 Nb9 2.667609 1_554
Nb7 Nb8 2.667609 1_555
Nb7 Nb8 2.667609 1_554
Ge0 Nb2 2.672712 1_455
Ge0 Nb1 2.672712 1_555
Ge0 Nb7 2.690863 1_455
Ge0 Nb6 2.690865 1_555
Ge0 Nb8 2.723806 1_455
Ge0 Nb9 2.723808 1_555
Ge0 Nb0 2.797859 1_555
Ge0 Nb3 2.936322 1_555
Ge0 Nb3 2.939623 1_554
Ge1 Nb2 2.672712 1_565
Ge1 Nb0 2.672712 1_655
Ge1 Nb7 2.690870 1_555
Ge1 Nb6 2.690870 1_555
Ge1 Nb8 2.723812 1_555
Ge1 Nb9 2.723812 1_555
Ge1 Nb1 2.797859 1_555
Ge1 Nb4 2.936322 1_555
Ge1 Nb4 2.939623 1_554
Ge2 Nb0 2.672712 1_545
Ge2 Nb1 2.672712 1_555
Ge2 Nb6 2.690863 1_545
Ge2 Nb7 2.690865 1_555
Ge2 Nb9 2.723806 1_545
Ge2 Nb8 2.723808 1_555
Ge2 Nb2 2.797859 1_555
Ge2 Nb5 2.936322 1_555
Ge2 Nb5 2.939623 1_554
Ge3 Nb5 2.672712 1_565
Ge3 Nb4 2.672712 1_455
Ge3 Nb6 2.690863 1_556
Ge3 Nb7 2.690865 1_456
Ge3 Nb9 2.723806 1_555
Ge3 Nb8 2.723808 1_455
Ge3 Nb3 2.797859 1_555
Ge3 Nb0 2.936322 1_555
Ge3 Nb0 2.939623 1_556
Ge4 Nb3 2.672712 1_555
Ge4 Nb5 2.672712 1_555
Ge4 Nb6 2.690870 1_556
Ge4 Nb7 2.690870 1_556
Ge4 Nb8 2.723812 1_555
Ge4 Nb9 2.723812 1_555
Ge4 Nb4 2.797859 1_555
Ge4 Nb1 2.936322 1_555
Ge4 Nb1 2.939623 1_556
Ge5 Nb3 2.672712 1_655
Ge5 Nb4 2.672712 1_545
Ge5 Nb7 2.690863 1_556
Ge5 Nb6 2.690865 1_546
Ge5 Nb8 2.723806 1_555
Ge5 Nb9 2.723808 1_545
Ge5 Nb5 2.797859 1_555
Ge5 Nb2 2.936322 1_555
Ge5 Nb2 2.939623 1_556
C0 Nb1 2.247472 1_555
C0 Nb4 2.247472 1_445
C0 Nb5 2.247472 1_555
C0 Nb2 2.247472 1_455
C0 Nb0 2.247472 1_545
C0 Nb3 2.247472 1_555
