# generated using pymatgen
data_ZnFe4NiO8
_symmetry_space_group_name_H-M   'P 1'
_cell_length_a   5.96932321
_cell_length_b   5.96932321
_cell_length_c   5.92544328
_cell_angle_alpha   90.00000000
_cell_angle_beta   59.75472946
_cell_angle_gamma   120.00000000
_symmetry_Int_Tables_number   1
_chemical_formula_structural   ZnFe4NiO8
_chemical_formula_sum   'Zn1 Fe4 Ni1 O8'
_cell_volume   148.74281794
_cell_formula_units_Z   1
loop_
 _symmetry_equiv_pos_site_id
 _symmetry_equiv_pos_as_xyz
  1  'x, y, z'
loop_
 _atom_site_type_symbol
 _atom_site_label
 _atom_site_symmetry_multiplicity
 _atom_site_fract_x
 _atom_site_fract_y
 _atom_site_fract_z
 _atom_site_occupancy
  Zn  Zn0  1  -0.00492170  -0.00246135  0.00738304  1
  Fe  Fe0  1  0.25515103  0.37311875  0.37173022  1
  Fe  Fe1  1  0.25515103  0.88203227  0.37173022  1
  Fe  Fe2  1  0.74623751  0.37311875  0.37173022  1
  Fe  Fe3  1  0.50432192  0.75216096  0.74351712  1
  Ni  Ni0  1  0.74891076  0.37445488  0.87663436  1
  O  O0  1  0.26660263  0.13330131  0.60009606  1
  O  O1  1  0.72789481  0.13160987  0.14049533  1
  O  O2  1  0.72789481  0.59628594  0.14049533  1
  O  O3  1  0.26321874  0.13160987  0.14049533  1
  O  O4  1  0.23699570  0.61849835  0.14450594  1
  O  O5  1  0.76549571  0.62077568  0.61372861  1
  O  O6  1  0.76549571  0.14472003  0.61372861  1
  O  O7  1  0.24155136  0.62077568  0.61372861  1
loop_
_geom_bond_atom_site_label_1
_geom_bond_atom_site_label_2
_geom_bond_distance
_geom_bond_site_symmetry_2
Fe0 O3 1.990220 1_555
Fe0 O2 1.990220 1_555
Fe0 O0 2.018938 1_555
Fe0 O6 2.061805 1_455
Fe0 O7 2.061805 1_555
Fe0 O4 2.067797 1_555
Fe1 O1 1.990220 1_565
Fe1 O3 1.990224 1_565
Fe1 O0 2.018938 1_565
Fe1 O7 2.061805 1_555
Fe1 O5 2.061805 1_455
Fe1 O4 2.067792 1_555
Fe2 O1 1.990220 1_555
Fe2 O2 1.990224 1_555
Fe2 O0 2.018938 1_555
Fe2 O6 2.061805 1_555
Fe2 O5 2.061805 1_555
Fe2 O4 2.067792 1_655
Fe3 O5 1.911015 1_555
Fe3 O6 1.911015 1_565
Fe3 O7 1.911015 1_555
Fe3 O4 1.932802 1_556
Ni0 O1 2.045042 1_556
Ni0 O3 2.045050 1_556
Ni0 O2 2.045050 1_556
Ni0 O6 2.073083 1_555
Ni0 O7 2.073083 1_655
Ni0 O5 2.073087 1_555
O0 Zn0 1.963160 1_556
O1 Zn0 1.953325 1_655
O2 Zn0 1.953315 1_665
O3 Zn0 1.953315 1_555
