# generated using pymatgen
data_CsBH4
_symmetry_space_group_name_H-M   'P 1'
_cell_length_a   5.18448692
_cell_length_b   5.18448692
_cell_length_c   5.18448692
_cell_angle_alpha   60.00000000
_cell_angle_beta   60.00000000
_cell_angle_gamma   60.00000000
_symmetry_Int_Tables_number   1
_chemical_formula_structural   CsBH4
_chemical_formula_sum   'Cs1 B1 H4'
_cell_volume   98.53768438
_cell_formula_units_Z   1
loop_
 _symmetry_equiv_pos_site_id
 _symmetry_equiv_pos_as_xyz
  1  'x, y, z'
loop_
 _atom_site_type_symbol
 _atom_site_label
 _atom_site_symmetry_multiplicity
 _atom_site_fract_x
 _atom_site_fract_y
 _atom_site_fract_z
 _atom_site_occupancy
  Cs  Cs0  1  -0.00000000  -0.00000000  -0.00000000  1
  B  B0  1  0.50000000  0.50000000  0.50000000  1
  H  H0  1  0.40337771  0.40337771  0.78986487  1
  H  H1  1  0.40337771  0.78986487  0.40337771  1
  H  H2  1  0.78986487  0.40337771  0.40337771  1
  H  H3  1  0.40337771  0.40337771  0.40337771  1
loop_
_geom_bond_atom_site_label_1
_geom_bond_atom_site_label_2
_geom_bond_distance
_geom_bond_site_symmetry_2
Cs0 H1 3.122636 1_545
Cs0 H2 3.122636 1_455
Cs0 H0 3.122636 1_554
Cs0 H3 3.122639 1_545
Cs0 H3 3.122639 1_554
Cs0 H3 3.122639 1_455
Cs0 H0 3.122645 1_544
Cs0 H1 3.122645 1_445
Cs0 H1 3.122645 1_544
Cs0 H2 3.122645 1_445
Cs0 H2 3.122645 1_454
Cs0 H0 3.122645 1_454
B0 H0 1.227032 1_555
B0 H2 1.227032 1_555
B0 H1 1.227032 1_555
B0 H3 1.227040 1_555
