# generated using pymatgen
data_KH3CSN2O
_symmetry_space_group_name_H-M   'P 1'
_cell_length_a   12.77335200
_cell_length_b   5.31704900
_cell_length_c   9.31703681
_cell_angle_alpha   85.31622221
_cell_angle_beta   90.00000000
_cell_angle_gamma   90.00000000
_symmetry_Int_Tables_number   1
_chemical_formula_structural   KH3CSN2O
_chemical_formula_sum   'K4 H12 C4 S4 N8 O4'
_cell_volume   630.66774674
_cell_formula_units_Z   4
loop_
 _symmetry_equiv_pos_site_id
 _symmetry_equiv_pos_as_xyz
  1  'x, y, z'
loop_
 _atom_site_type_symbol
 _atom_site_label
 _atom_site_symmetry_multiplicity
 _atom_site_fract_x
 _atom_site_fract_y
 _atom_site_fract_z
 _atom_site_occupancy
  K  K0  1  0.83148100  0.26000500  0.03194300  1
  K  K1  1  0.16851900  0.73999500  0.96805700  1
  K  K2  1  0.33148100  0.73999500  0.46805700  1
  K  K3  1  0.66851900  0.26000500  0.53194300  1
  H  H0  1  0.92758900  0.71498000  0.46721000  1
  H  H1  1  0.07241100  0.28502000  0.53279000  1
  H  H2  1  0.42758900  0.28502000  0.03279000  1
  H  H3  1  0.57241100  0.71498000  0.96721000  1
  H  H4  1  0.31476700  0.83296200  0.15506900  1
  H  H5  1  0.68523300  0.16703800  0.84493100  1
  H  H6  1  0.81476700  0.16703800  0.34493100  1
  H  H7  1  0.18523300  0.83296200  0.65506900  1
  H  H8  1  0.77158100  0.10526900  0.30315900  1
  H  H9  1  0.22841900  0.89473100  0.69684100  1
  H  H10  1  0.27158100  0.89473100  0.19684100  1
  H  H11  1  0.72841900  0.10526900  0.80315900  1
  C  C0  1  0.95241900  0.75681700  0.24236800  1
  C  C1  1  0.04758100  0.24318300  0.75763200  1
  C  C2  1  0.45241900  0.24318300  0.25763200  1
  C  C3  1  0.54758100  0.75681700  0.74236800  1
  S  S0  1  0.64299600  0.64073700  0.18100700  1
  S  S1  1  0.35700400  0.35926300  0.81899300  1
  S  S2  1  0.14299600  0.35926300  0.31899300  1
  S  S3  1  0.85700400  0.64073700  0.68100700  1
  N  N0  1  0.95051300  0.79390300  0.36667600  1
  N  N1  1  0.04948700  0.20609700  0.63332400  1
  N  N2  1  0.45051300  0.20609700  0.13332400  1
  N  N3  1  0.54948700  0.79390300  0.86667600  1
  N  N4  1  0.68160300  0.92326800  0.16613600  1
  N  N5  1  0.31839700  0.07673200  0.83386400  1
  N  N6  1  0.18160300  0.07673200  0.33386400  1
  N  N7  1  0.81839700  0.92326800  0.66613600  1
  O  O0  1  0.95759200  0.74854400  0.11351700  1
  O  O1  1  0.04240800  0.25145600  0.88648300  1
  O  O2  1  0.45759200  0.25145600  0.38648300  1
  O  O3  1  0.54240800  0.74854400  0.61351700  1
loop_
_geom_bond_atom_site_label_1
_geom_bond_atom_site_label_2
_geom_bond_distance
_geom_bond_site_symmetry_2
K0 N4 2.840496 1_545
K0 O1 3.017913 1_654
K0 O0 3.198507 1_545
K0 O0 3.200372 1_555
K0 S0 3.504649 1_555
K0 S3 3.716748 1_554
K1 N5 2.840496 1_565
K1 O0 3.017913 1_456
K1 O1 3.198507 1_565
K1 O1 3.200372 1_555
K1 S1 3.504649 1_555
K1 S2 3.716748 1_556
K2 N6 2.840496 1_565
K2 O3 3.017913 1_555
K2 O2 3.198507 1_565
K2 O2 3.200372 1_555
K2 S2 3.504649 1_555
K2 S1 3.716748 1_555
K3 N7 2.840496 1_545
K3 O2 3.017913 1_555
K3 O3 3.198507 1_545
K3 O3 3.200372 1_555
K3 S3 3.504649 1_555
K3 S0 3.716748 1_555
H0 N0 1.036828 1_555
H1 N1 1.036828 1_555
H2 N2 1.036828 1_555
H3 N3 1.036828 1_555
H4 K1 2.628814 1_554
H4 K2 2.925452 1_555
H5 K0 2.628814 1_556
H5 K3 2.925452 1_555
H6 H8 0.764530 1_555
H6 K3 2.628814 1_555
H6 K0 2.925452 1_555
H7 H9 0.764530 1_555
H7 K2 2.628814 1_555
H7 K1 2.925452 1_555
H8 K3 2.690727 1_555
H8 K0 2.703361 1_555
H9 K2 2.690727 1_555
H9 K1 2.703361 1_555
H10 H4 0.764530 1_555
H10 K1 2.690727 1_554
H10 K2 2.703361 1_555
H11 H5 0.764530 1_555
H11 K0 2.690727 1_556
H11 K3 2.703361 1_555
C0 N0 1.190865 1_555
C0 O0 1.206710 1_555
C1 N1 1.190865 1_555
C1 O1 1.206710 1_555
C2 N2 1.190865 1_555
C2 O2 1.206710 1_555
C3 N3 1.190865 1_555
C3 O3 1.206710 1_555
N4 S0 1.576417 1_555
N5 S1 1.576417 1_555
N6 S2 1.576417 1_555
N7 S3 1.576417 1_555
