# generated using pymatgen
data_Li9Mn2Co5O16
_symmetry_space_group_name_H-M   'P 1'
_cell_length_a   5.14351400
_cell_length_b   7.69920307
_cell_length_c   7.76365769
_cell_angle_alpha   82.19889141
_cell_angle_beta   71.12150442
_cell_angle_gamma   83.39976374
_symmetry_Int_Tables_number   1
_chemical_formula_structural   Li9Mn2Co5O16
_chemical_formula_sum   'Li9 Mn2 Co5 O16'
_cell_volume   287.38902881
_cell_formula_units_Z   1
loop_
 _symmetry_equiv_pos_site_id
 _symmetry_equiv_pos_as_xyz
  1  'x, y, z'
loop_
 _atom_site_type_symbol
 _atom_site_label
 _atom_site_symmetry_multiplicity
 _atom_site_fract_x
 _atom_site_fract_y
 _atom_site_fract_z
 _atom_site_occupancy
  Li  Li0  1  0.50556300  0.81516200  0.05646600  1
  Li  Li1  1  0.49158400  0.68359200  0.44174600  1
  Li  Li2  1  0.49972900  0.44112900  0.18995600  1
  Li  Li3  1  0.49984900  0.31301700  0.55779800  1
  Li  Li4  1  0.49458900  0.06437300  0.31727400  1
  Li  Li5  1  0.50744200  0.92606200  0.68863400  1
  Li  Li6  1  0.49640700  0.56958300  0.80715700  1
  Li  Li7  1  0.50266900  0.18715200  0.93825300  1
  Li  Li8  1  0.99939700  0.74777700  0.75132000  1
  Mn  Mn0  1  0.00155200  0.99946600  0.99691600  1
  Mn  Mn1  1  0.00372700  0.37753700  0.87454200  1
  Co  Co0  1  0.99775100  0.87351900  0.38183200  1
  Co  Co1  1  0.00644700  0.62820600  0.11832800  1
  Co  Co2  1  0.99820600  0.50394300  0.50512100  1
  Co  Co3  1  0.99486000  0.25514800  0.25508600  1
  Co  Co4  1  0.99777900  0.11474700  0.62520300  1
  O  O0  1  0.77469300  0.97468100  0.85049800  1
  O  O1  1  0.77638500  0.85568600  0.20698300  1
  O  O2  1  0.77934600  0.57955300  0.97304000  1
  O  O3  1  0.76945000  0.46248900  0.33567100  1
  O  O4  1  0.77811900  0.21737400  0.07883600  1
  O  O5  1  0.76037600  0.09543500  0.46897900  1
  O  O6  1  0.76210900  0.70939500  0.57834100  1
  O  O7  1  0.78102700  0.34003100  0.72337700  1
  O  O8  1  0.22965900  0.65360300  0.28084000  1
  O  O9  1  0.23168400  0.51526400  0.66916900  1
  O  O10  1  0.22575100  0.28446000  0.41213000  1
  O  O11  1  0.22355300  0.15566800  0.79603700  1
  O  O12  1  0.22866900  0.91455800  0.52108900  1
  O  O13  1  0.23532400  0.79560000  0.91851300  1
  O  O14  1  0.23023000  0.40551400  0.02435500  1
  O  O15  1  0.21607700  0.04027600  0.15651000  1
loop_
_geom_bond_atom_site_label_1
_geom_bond_atom_site_label_2
_geom_bond_distance
_geom_bond_site_symmetry_2
Li0 O13 2.038895 1_554
Li0 O0 2.099254 1_554
Li0 O1 2.157668 1_555
Li0 O8 2.193947 1_555
Li0 O2 2.198782 1_554
Li0 O15 2.201839 1_565
Li1 O6 2.043488 1_555
Li1 O12 2.139127 1_555
Li1 O8 2.160496 1_555
Li1 O3 2.162946 1_555
Li1 O9 2.198582 1_555
Li1 O1 2.299182 1_555
Li2 O8 2.064043 1_555
Li2 O2 2.082816 1_554
Li2 O3 2.085680 1_555
Li2 O10 2.160795 1_555
Li2 O4 2.190754 1_555
Li2 O14 2.232928 1_555
Li3 O9 2.043230 1_555
Li3 O5 2.068107 1_555
Li3 O10 2.117890 1_555
Li3 O3 2.121753 1_555
Li3 O11 2.234904 1_555
Li3 O7 2.265438 1_555
Li4 O12 2.042476 1_545
Li4 O1 2.109635 1_545
Li4 O10 2.113491 1_555
Li4 O5 2.122935 1_555
Li4 O15 2.219314 1_555
Li4 O4 2.235425 1_555
Li5 O13 2.091206 1_555
Li5 O6 2.095566 1_555
Li5 O5 2.156798 1_565
Li5 O11 2.229651 1_565
Li5 O0 2.229954 1_555
Li5 O12 2.241263 1_555
Li6 O9 2.091176 1_555
Li6 O6 2.104805 1_555
Li6 O14 2.153802 1_556
Li6 O13 2.167670 1_555
Li6 O7 2.188811 1_555
Li6 O2 2.246719 1_555
Li7 O0 2.063340 1_545
Li7 O14 2.096256 1_556
Li7 O4 2.097151 1_556
Li7 O11 2.125395 1_555
Li7 O7 2.127676 1_555
Li7 O15 2.137658 1_556
Li8 O0 2.075026 1_555
Li8 O9 2.089042 1_655
Li8 O2 2.095856 1_555
Li8 O13 2.131852 1_655
Li8 O12 2.143695 1_655
Li8 O6 2.152155 1_555
Mn0 O13 1.905737 1_555
Mn0 O0 1.912736 1_455
Mn0 O1 1.951630 1_456
Mn0 O11 1.958702 1_565
Mn0 O4 1.978233 1_466
Mn0 O15 1.980292 1_566
Mn1 O9 1.912715 1_555
Mn1 O2 1.917029 1_455
Mn1 O14 1.938825 1_556
Mn1 O7 1.952116 1_455
Mn1 O11 1.990121 1_555
Mn1 O4 1.997437 1_456
Co0 O12 1.920779 1_655
Co0 O6 2.006348 1_555
Co0 O5 2.041418 1_565
Co0 O8 2.048248 1_655
Co0 O1 2.060271 1_555
Co0 O15 2.102396 1_665
Co1 O2 1.960867 1_454
Co1 O8 2.001043 1_555
Co1 O13 2.019314 1_554
Co1 O14 2.034530 1_555
Co1 O1 2.065239 1_455
Co1 O3 2.098357 1_455
Co2 O6 1.912008 1_555
Co2 O10 2.018990 1_655
Co2 O9 2.028744 1_655
Co2 O8 2.050881 1_655
Co2 O7 2.056777 1_555
Co2 O3 2.102128 1_555
Co3 O3 1.913178 1_555
Co3 O15 1.991151 1_655
Co3 O10 2.005282 1_655
Co3 O5 2.052995 1_555
Co3 O4 2.090328 1_555
Co3 O14 2.090586 1_655
Co4 O12 1.932755 1_645
Co4 O0 2.003143 1_545
Co4 O5 2.008310 1_555
Co4 O7 2.048620 1_555
Co4 O10 2.080612 1_655
Co4 O11 2.097884 1_655
