# generated using pymatgen
data_CaPO6
_symmetry_space_group_name_H-M   'P 1'
_cell_length_a   8.02234252
_cell_length_b   8.02234252
_cell_length_c   6.07720339
_cell_angle_alpha   81.47425071
_cell_angle_beta   81.47425071
_cell_angle_gamma   135.64020493
_symmetry_Int_Tables_number   1
_chemical_formula_structural   CaPO6
_chemical_formula_sum   'Ca2 P2 O12'
_cell_volume   251.48524142
_cell_formula_units_Z   2
loop_
 _symmetry_equiv_pos_site_id
 _symmetry_equiv_pos_as_xyz
  1  'x, y, z'
loop_
 _atom_site_type_symbol
 _atom_site_label
 _atom_site_symmetry_multiplicity
 _atom_site_fract_x
 _atom_site_fract_y
 _atom_site_fract_z
 _atom_site_occupancy
  Ca  Ca0  1  0.31325000  0.68675000  0.25000000  1
  Ca  Ca1  1  0.68675000  0.31325000  0.75000000  1
  P  P0  1  0.83587000  0.16413000  0.25000000  1
  P  P1  1  0.16413000  0.83587000  0.75000000  1
  O  O0  1  0.67284500  0.87972900  0.38196000  1
  O  O1  1  0.32715500  0.12027100  0.61804000  1
  O  O2  1  0.12027100  0.32715500  0.11804000  1
  O  O3  1  0.87972900  0.67284500  0.88196000  1
  O  O4  1  0.14452700  0.07036600  0.19469100  1
  O  O5  1  0.85547300  0.92963400  0.80530900  1
  O  O6  1  0.92963400  0.85547300  0.30530900  1
  O  O7  1  0.07036600  0.14452700  0.69469100  1
  O  O8  1  0.70891500  0.15281700  0.07604200  1
  O  O9  1  0.29108500  0.84718300  0.92395800  1
  O  O10  1  0.84718300  0.29108500  0.42395800  1
  O  O11  1  0.15281700  0.70891500  0.57604200  1
loop_
_geom_bond_atom_site_label_1
_geom_bond_atom_site_label_2
_geom_bond_distance
_geom_bond_site_symmetry_2
Ca0 O9 2.299938 1_554
Ca0 O11 2.299938 1_555
Ca0 O0 2.455570 1_555
Ca0 O2 2.455570 1_555
Ca0 O8 2.456676 1_565
Ca0 O10 2.456676 1_455
Ca1 O10 2.299938 1_555
Ca1 O8 2.299938 1_556
Ca1 O3 2.455570 1_555
Ca1 O1 2.455570 1_555
Ca1 O11 2.456676 1_655
Ca1 O9 2.456676 1_545
O0 P0 1.561667 1_565
O1 P1 1.561667 1_545
O2 P0 1.561667 1_455
O3 P1 1.561667 1_655
O4 O6 1.207854 1_445
O5 O7 1.207854 1_665
O8 P0 1.542299 1_555
O9 P1 1.542299 1_555
O10 P0 1.542299 1_555
O11 P1 1.542299 1_555
