# generated using pymatgen
data_CeMn4(CuO4)3
_symmetry_space_group_name_H-M   'P 1'
_cell_length_a   6.43656407
_cell_length_b   6.43656407
_cell_length_c   6.43656407
_cell_angle_alpha   109.47122063
_cell_angle_beta   109.47122063
_cell_angle_gamma   109.47122063
_symmetry_Int_Tables_number   1
_chemical_formula_structural   CeMn4(CuO4)3
_chemical_formula_sum   'Ce1 Mn4 Cu3 O12'
_cell_volume   205.27705080
_cell_formula_units_Z   1
loop_
 _symmetry_equiv_pos_site_id
 _symmetry_equiv_pos_as_xyz
  1  'x, y, z'
loop_
 _atom_site_type_symbol
 _atom_site_label
 _atom_site_symmetry_multiplicity
 _atom_site_fract_x
 _atom_site_fract_y
 _atom_site_fract_z
 _atom_site_occupancy
  Ce  Ce0  1  0.00000000  0.00000000  0.00000000  1
  Mn  Mn0  1  0.00000000  0.00000000  0.50000000  1
  Mn  Mn1  1  0.50000000  0.00000000  0.00000000  1
  Mn  Mn2  1  0.00000000  0.50000000  0.00000000  1
  Mn  Mn3  1  0.50000000  0.50000000  0.50000000  1
  Cu  Cu0  1  0.50000000  0.00000000  0.50000000  1
  Cu  Cu1  1  0.00000000  0.50000000  0.50000000  1
  Cu  Cu2  1  0.50000000  0.50000000  0.00000000  1
  O  O0  1  0.70243600  0.82536700  0.52780300  1
  O  O1  1  0.70243600  0.17463300  0.87706900  1
  O  O2  1  0.29756400  0.82536700  0.12293100  1
  O  O3  1  0.29756400  0.17463300  0.47219700  1
  O  O4  1  0.82536700  0.52780300  0.70243600  1
  O  O5  1  0.17463300  0.87706900  0.70243600  1
  O  O6  1  0.82536700  0.12293100  0.29756400  1
  O  O7  1  0.17463300  0.47219700  0.29756400  1
  O  O8  1  0.52780300  0.70243600  0.82536700  1
  O  O9  1  0.87706900  0.70243600  0.17463300  1
  O  O10  1  0.12293100  0.29756400  0.82536700  1
  O  O11  1  0.47219700  0.29756400  0.17463300  1
loop_
_geom_bond_atom_site_label_1
_geom_bond_atom_site_label_2
_geom_bond_distance
_geom_bond_site_symmetry_2
Ce0 O9 2.564317 1_445
Ce0 O1 2.564317 1_454
Ce0 O5 2.564317 1_544
Ce0 O6 2.564317 1_455
Ce0 O4 2.564317 1_444
Ce0 O2 2.564317 1_545
Ce0 O10 2.564317 1_554
Ce0 O0 2.564317 1_444
Ce0 O8 2.564317 1_444
Ce0 O3 2.564317 1_555
Ce0 O7 2.564317 1_555
Ce0 O11 2.564317 1_555
Mn0 O5 1.972609 1_545
Mn0 O3 1.972609 1_555
Mn0 O10 1.972609 1_555
Mn0 O6 1.972609 1_455
Mn0 O0 1.972609 1_445
Mn0 O9 1.972609 1_445
Mn1 O1 1.972609 1_554
Mn1 O11 1.972609 1_555
Mn1 O6 1.972609 1_555
Mn1 O2 1.972609 1_545
Mn1 O8 1.972609 1_544
Mn1 O5 1.972609 1_544
Mn2 O9 1.972609 1_455
Mn2 O7 1.972609 1_555
Mn2 O10 1.972609 1_554
Mn2 O2 1.972609 1_555
Mn2 O4 1.972609 1_454
Mn2 O1 1.972609 1_454
Mn3 O8 1.972609 1_555
Mn3 O0 1.972609 1_555
Mn3 O4 1.972609 1_555
Mn3 O7 1.972609 1_555
Mn3 O3 1.972609 1_555
Mn3 O11 1.972609 1_555
Cu0 O3 1.987040 1_555
Cu0 O2 1.987040 1_545
Cu0 O0 1.987040 1_545
Cu0 O1 1.987040 1_555
Cu1 O7 1.987040 1_555
Cu1 O6 1.987040 1_455
Cu1 O4 1.987040 1_455
Cu1 O5 1.987040 1_555
Cu2 O11 1.987040 1_555
Cu2 O8 1.987040 1_554
Cu2 O10 1.987040 1_554
Cu2 O9 1.987040 1_555
