# generated using pymatgen
data_Sr4IrN4
_symmetry_space_group_name_H-M   'P 1'
_cell_length_a   13.84410600
_cell_length_b   3.74777500
_cell_length_c   14.43558700
_cell_angle_alpha   90.00000000
_cell_angle_beta   90.00000000
_cell_angle_gamma   90.00000000
_symmetry_Int_Tables_number   1
_chemical_formula_structural   Sr4IrN4
_chemical_formula_sum   'Sr16 Ir4 N16'
_cell_volume   748.98457590
_cell_formula_units_Z   4
loop_
 _symmetry_equiv_pos_site_id
 _symmetry_equiv_pos_as_xyz
  1  'x, y, z'
loop_
 _atom_site_type_symbol
 _atom_site_label
 _atom_site_symmetry_multiplicity
 _atom_site_fract_x
 _atom_site_fract_y
 _atom_site_fract_z
 _atom_site_occupancy
  Sr  Sr0  1  0.54213100  0.25000000  0.88808400  1
  Sr  Sr1  1  0.04213100  0.25000000  0.61191600  1
  Sr  Sr2  1  0.45786900  0.75000000  0.11191600  1
  Sr  Sr3  1  0.95786900  0.75000000  0.38808400  1
  Sr  Sr4  1  0.73450900  0.25000000  0.47748300  1
  Sr  Sr5  1  0.23450900  0.25000000  0.02251700  1
  Sr  Sr6  1  0.26549100  0.75000000  0.52251700  1
  Sr  Sr7  1  0.76549100  0.75000000  0.97748300  1
  Sr  Sr8  1  0.77952200  0.25000000  0.73966800  1
  Sr  Sr9  1  0.27952200  0.25000000  0.76033200  1
  Sr  Sr10  1  0.22047800  0.75000000  0.26033200  1
  Sr  Sr11  1  0.72047800  0.75000000  0.23966800  1
  Sr  Sr12  1  0.98817200  0.25000000  0.12136700  1
  Sr  Sr13  1  0.48817200  0.25000000  0.37863300  1
  Sr  Sr14  1  0.01182800  0.75000000  0.87863300  1
  Sr  Sr15  1  0.51182800  0.75000000  0.62136700  1
  Ir  Ir0  1  0.63034500  0.25000000  0.09050500  1
  Ir  Ir1  1  0.13034500  0.25000000  0.40949500  1
  Ir  Ir2  1  0.36965500  0.75000000  0.90949500  1
  Ir  Ir3  1  0.86965500  0.75000000  0.59050500  1
  N  N0  1  0.37514000  0.25000000  0.24216000  1
  N  N1  1  0.87514000  0.25000000  0.25784000  1
  N  N2  1  0.62486000  0.75000000  0.75784000  1
  N  N3  1  0.12486000  0.75000000  0.74216000  1
  N  N4  1  0.90947700  0.25000000  0.96881100  1
  N  N5  1  0.40947700  0.25000000  0.53118900  1
  N  N6  1  0.09052300  0.75000000  0.03118900  1
  N  N7  1  0.59052300  0.75000000  0.46881100  1
  N  N8  1  0.82513800  0.25000000  0.33161900  1
  N  N9  1  0.32513800  0.25000000  0.16838100  1
  N  N10  1  0.17486200  0.75000000  0.66838100  1
  N  N11  1  0.67486200  0.75000000  0.83161900  1
  N  N12  1  0.87388200  0.25000000  0.88603500  1
  N  N13  1  0.37388200  0.25000000  0.61396500  1
  N  N14  1  0.12611800  0.75000000  0.11396500  1
  N  N15  1  0.62611800  0.75000000  0.38603500  1
loop_
_geom_bond_atom_site_label_1
_geom_bond_atom_site_label_2
_geom_bond_distance
_geom_bond_site_symmetry_2
Ir0 Sr2 3.050977 1_555
Ir0 Sr2 3.050977 1_545
Ir0 Sr7 3.110293 1_554
Ir0 Sr7 3.110293 1_544
Ir0 Sr11 3.115284 1_545
Ir0 Sr11 3.115284 1_555
Ir0 Sr0 3.167003 1_554
Ir1 Sr3 3.050977 1_445
Ir1 Sr3 3.050977 1_455
Ir1 Sr6 3.110293 1_555
Ir1 Sr6 3.110293 1_545
Ir1 Sr10 3.115284 1_555
Ir1 Sr10 3.115284 1_545
Ir1 Sr1 3.167003 1_555
Ir2 Sr0 3.050977 1_565
Ir2 Sr0 3.050977 1_555
Ir2 Sr5 3.110293 1_566
Ir2 Sr5 3.110293 1_556
Ir2 Sr9 3.115284 1_565
Ir2 Sr9 3.115284 1_555
Ir2 Sr2 3.167003 1_556
Ir3 Sr1 3.050977 1_655
Ir3 Sr1 3.050977 1_665
Ir3 Sr4 3.110293 1_555
Ir3 Sr4 3.110293 1_565
Ir3 Sr8 3.115284 1_565
Ir3 Sr8 3.115284 1_555
Ir3 Sr3 3.167003 1_555
N0 N9 1.270238 1_555
N0 Sr13 2.515919 1_555
N0 Sr10 2.857415 1_555
N0 Sr10 2.857415 1_545
N0 Sr2 2.891046 1_555
N0 Sr2 2.891046 1_545
N1 N8 1.270238 1_555
N1 Sr12 2.515919 1_555
N1 Sr11 2.857415 1_555
N1 Sr11 2.857415 1_545
N1 Sr3 2.891046 1_545
N1 Sr3 2.891046 1_555
N2 Sr15 2.515919 1_555
N2 Sr8 2.857415 1_555
N2 Sr8 2.857415 1_565
N2 Sr0 2.891046 1_565
N2 Sr0 2.891046 1_555
N3 Sr14 2.515919 1_555
N3 Sr9 2.857415 1_555
N3 Sr9 2.857415 1_565
N3 Sr1 2.891046 1_555
N3 Sr1 2.891046 1_565
N4 Sr12 2.456984 1_556
N4 Sr14 2.685859 1_655
N4 Sr14 2.685859 1_645
N4 Sr7 2.738722 1_555
N4 Sr7 2.738722 1_545
N5 Sr13 2.456984 1_555
N5 Sr15 2.685859 1_545
N5 Sr15 2.685859 1_555
N5 Sr6 2.738722 1_555
N5 Sr6 2.738722 1_545
N6 Sr14 2.456984 1_554
N6 Sr12 2.685859 1_465
N6 Sr12 2.685859 1_455
N6 Sr5 2.738722 1_565
N6 Sr5 2.738722 1_555
N7 Sr15 2.456984 1_555
N7 Sr13 2.685859 1_555
N7 Sr13 2.685859 1_565
N7 Sr4 2.738722 1_555
N7 Sr4 2.738722 1_565
N8 Sr4 2.451103 1_555
N8 Sr11 2.715279 1_555
N8 Sr11 2.715279 1_545
N8 Sr3 2.748165 1_545
N8 Sr3 2.748165 1_555
N9 Sr5 2.451103 1_555
N9 Sr10 2.715279 1_555
N9 Sr10 2.715279 1_545
N9 Sr2 2.748165 1_545
N9 Sr2 2.748165 1_555
N10 N3 1.270238 1_555
N10 Sr6 2.451103 1_555
N10 Sr9 2.715279 1_555
N10 Sr9 2.715279 1_565
N10 Sr1 2.748165 1_565
N10 Sr1 2.748165 1_555
N11 N2 1.270238 1_555
N11 Sr7 2.451103 1_555
N11 Sr8 2.715279 1_555
N11 Sr8 2.715279 1_565
N11 Sr0 2.748165 1_555
N11 Sr0 2.748165 1_565
N12 N4 1.292543 1_555
N12 Sr8 2.484113 1_555
N12 Sr14 2.677681 1_645
N12 Sr14 2.677681 1_655
N12 Sr7 2.739683 1_545
N12 Sr7 2.739683 1_555
N13 N5 1.292543 1_555
N13 Sr9 2.484113 1_555
N13 Sr15 2.677681 1_545
N13 Sr15 2.677681 1_555
N13 Sr6 2.739683 1_545
N13 Sr6 2.739683 1_555
N14 N6 1.292543 1_555
N14 Sr10 2.484113 1_555
N14 Sr12 2.677681 1_455
N14 Sr12 2.677681 1_465
N14 Sr5 2.739683 1_555
N14 Sr5 2.739683 1_565
N15 N7 1.292543 1_555
N15 Sr11 2.484113 1_555
N15 Sr13 2.677681 1_555
N15 Sr13 2.677681 1_565
N15 Sr4 2.739683 1_565
N15 Sr4 2.739683 1_555
