# generated using pymatgen
data_DyMn6GaGe5
_symmetry_space_group_name_H-M   'P 1'
_cell_length_a   5.16944945
_cell_length_b   5.17201506
_cell_length_c   8.21949400
_cell_angle_alpha   90.00000000
_cell_angle_beta   90.00000000
_cell_angle_gamma   60.05711149
_symmetry_Int_Tables_number   1
_chemical_formula_structural   DyMn6GaGe5
_chemical_formula_sum   'Dy1 Mn6 Ga1 Ge5'
_cell_volume   190.42739860
_cell_formula_units_Z   1
loop_
 _symmetry_equiv_pos_site_id
 _symmetry_equiv_pos_as_xyz
  1  'x, y, z'
loop_
 _atom_site_type_symbol
 _atom_site_label
 _atom_site_symmetry_multiplicity
 _atom_site_fract_x
 _atom_site_fract_y
 _atom_site_fract_z
 _atom_site_occupancy
  Dy  Dy0  1  0.00024100  0.99980500  0.00000000  1
  Mn  Mn0  1  0.50040600  0.50045400  0.24792700  1
  Mn  Mn1  1  0.50042500  0.99908000  0.24798100  1
  Mn  Mn2  1  0.99909300  0.50049100  0.24800000  1
  Mn  Mn3  1  0.50040600  0.50045400  0.75207300  1
  Mn  Mn4  1  0.50042500  0.99908000  0.75201900  1
  Mn  Mn5  1  0.99909300  0.50049100  0.75200000  1
  Ga  Ga0  1  0.33374400  0.33309100  0.50000000  1
  Ge  Ge0  1  0.66646400  0.66686300  0.00000000  1
  Ge  Ge1  1  0.33352700  0.33308600  0.00000000  1
  Ge  Ge2  1  0.99983100  0.00005100  0.34302500  1
  Ge  Ge3  1  0.99983100  0.00005100  0.65697500  1
  Ge  Ge4  1  0.66631600  0.66700300  0.50000000  1
loop_
_geom_bond_atom_site_label_1
_geom_bond_atom_site_label_2
_geom_bond_distance
_geom_bond_site_symmetry_2
Dy0 Ge2 2.819493 1_465
Dy0 Ge3 2.819493 1_464
Dy0 Ge1 2.984018 1_565
Dy0 Ge0 2.984313 1_555
Dy0 Ge0 2.984698 1_455
Dy0 Ge1 2.986513 1_465
Dy0 Ge1 2.988016 1_555
Dy0 Ge0 2.989537 1_465
Ga0 Mn3 2.555159 1_555
Ga0 Mn0 2.555159 1_555
Ga0 Mn4 2.555734 1_545
Ga0 Mn1 2.555734 1_545
Ga0 Mn5 2.556853 1_455
Ga0 Mn2 2.556853 1_455
Ge0 Mn0 2.523483 1_555
Ge0 Mn3 2.523483 1_554
Ge0 Mn1 2.524156 1_555
Ge0 Mn4 2.524156 1_554
Ge0 Mn5 2.524936 1_554
Ge0 Mn2 2.524936 1_555
Ge1 Mn0 2.528192 1_555
Ge1 Mn3 2.528192 1_554
Ge1 Mn1 2.528894 1_545
Ge1 Mn4 2.528894 1_544
Ge1 Mn2 2.529717 1_455
Ge1 Mn5 2.529717 1_454
Ge2 Ge3 2.580510 1_555
Ge2 Mn1 2.699667 1_545
Ge2 Mn1 2.700746 1_645
Ge2 Mn2 2.701032 1_545
Ge2 Mn2 2.701743 1_555
Ge2 Mn0 2.702662 1_555
Ge2 Mn0 2.703509 1_645
Ge3 Mn4 2.699667 1_545
Ge3 Mn4 2.700746 1_645
Ge3 Mn5 2.701032 1_545
Ge3 Mn5 2.701743 1_555
Ge3 Mn3 2.702662 1_555
Ge3 Mn3 2.703509 1_645
Ge4 Mn4 2.550667 1_555
Ge4 Mn1 2.550667 1_555
Ge4 Mn3 2.551062 1_555
Ge4 Mn0 2.551062 1_555
Ge4 Mn2 2.551941 1_555
Ge4 Mn5 2.551941 1_555
