# generated using pymatgen
data_MgV12Zn6O24
_symmetry_space_group_name_H-M   'P 1'
_cell_length_a   6.03901779
_cell_length_b   6.05451688
_cell_length_c   18.66779526
_cell_angle_alpha   60.05607337
_cell_angle_beta   61.21069414
_cell_angle_gamma   59.79997064
_symmetry_Int_Tables_number   1
_chemical_formula_structural   MgV12Zn6O24
_chemical_formula_sum   'Mg1 V12 Zn6 O24'
_cell_volume   486.35584553
_cell_formula_units_Z   1
loop_
 _symmetry_equiv_pos_site_id
 _symmetry_equiv_pos_as_xyz
  1  'x, y, z'
loop_
 _atom_site_type_symbol
 _atom_site_label
 _atom_site_symmetry_multiplicity
 _atom_site_fract_x
 _atom_site_fract_y
 _atom_site_fract_z
 _atom_site_occupancy
  Mg  Mg0  1  0.00154282  0.01471125  0.82965822  1
  V  V0  1  0.99682954  0.49519212  0.17327667  1
  V  V1  1  0.48802429  0.49446467  0.17313434  1
  V  V2  1  0.00061694  0.50135199  0.49542641  1
  V  V3  1  0.48710509  0.00724954  0.17199531  1
  V  V4  1  0.50071786  0.49801668  0.33444232  1
  V  V5  1  0.50988483  0.50113357  0.49571783  1
  V  V6  1  0.99719491  0.50581983  0.83341286  1
  V  V7  1  0.51229850  0.99196668  0.49542187  1
  V  V8  1  0.50165036  0.01338511  0.82823913  1
  V  V9  1  0.50472448  0.48770305  0.66680800  1
  V  V10  1  0.50010936  0.50499118  0.83307055  1
  V  V11  1  0.85565098  0.82512707  0.98768534  1
  Zn  Zn0  1  0.11710178  0.12636695  0.04487641  1
  Zn  Zn1  1  0.12634225  0.12255907  0.37582420  1
  Zn  Zn2  1  0.49103651  0.50159942  0.00207479  1
  Zn  Zn3  1  0.15150981  0.14616138  0.67780930  1
  Zn  Zn4  1  0.87583870  0.87475150  0.29156451  1
  Zn  Zn5  1  0.88050925  0.86233185  0.62519196  1
  O  O0  1  0.24329277  0.26358860  0.09228270  1
  O  O1  1  0.25709875  0.25366179  0.24472904  1
  O  O2  1  0.24751197  0.72215920  0.09235007  1
  O  O3  1  0.71202107  0.26598719  0.09158143  1
  O  O4  1  0.27611855  0.73280796  0.25144083  1
  O  O5  1  0.26941432  0.25644008  0.41778082  1
  O  O6  1  0.73793187  0.27745884  0.25011239  1
  O  O7  1  0.71245150  0.73557060  0.11205079  1
  O  O8  1  0.25558498  0.71742928  0.42058972  1
  O  O9  1  0.28006863  0.26213969  0.55898594  1
  O  O10  1  0.73413355  0.73414548  0.25212185  1
  O  O11  1  0.72378402  0.26423812  0.41963133  1
  O  O12  1  0.28919993  0.72394318  0.57747482  1
  O  O13  1  0.23585643  0.26527505  0.75211205  1
  O  O14  1  0.75512683  0.27384590  0.57711850  1
  O  O15  1  0.74116061  0.74264129  0.42491684  1
  O  O16  1  0.25773927  0.27800109  0.90396335  1
  O  O17  1  0.24831876  0.74663521  0.75323484  1
  O  O18  1  0.73796046  0.73556710  0.57860819  1
  O  O19  1  0.74490548  0.26138818  0.75166185  1
  O  O20  1  0.26449110  0.76117936  0.90542253  1
  O  O21  1  0.74205323  0.73523473  0.75936170  1
  O  O22  1  0.75877650  0.25527598  0.90862949  1
  O  O23  1  0.76588614  0.76050519  0.90391991  1
loop_
_geom_bond_atom_site_label_1
_geom_bond_atom_site_label_2
_geom_bond_distance
_geom_bond_site_symmetry_2
Mg0 O22 2.087507 1_455
Mg0 O13 2.096083 1_555
Mg0 O20 2.102820 1_545
Mg0 O19 2.103924 1_455
Mg0 O23 2.118784 1_445
Mg0 O17 2.172787 1_545
O0 Zn0 2.018590 1_555
O0 V3 2.072866 1_555
O0 V0 2.077740 1_455
O0 Zn2 2.114365 1_555
O1 Zn1 2.018090 1_555
O1 V3 2.029686 1_555
O1 V0 2.036617 1_455
O1 V1 2.040018 1_555
O2 Zn0 1.990705 1_565
O2 V0 2.068827 1_455
O2 V1 2.074666 1_555
O2 Zn2 2.160979 1_555
O3 Zn0 2.014973 1_655
O3 V1 2.073032 1_555
O3 V3 2.093202 1_555
O3 Zn2 2.112062 1_555
O4 Zn4 1.987870 1_455
O4 V4 2.036391 1_555
O4 V1 2.074412 1_555
O4 V3 2.105625 1_565
O5 Zn1 2.001808 1_555
O5 V7 2.045499 1_545
O5 V4 2.049750 1_555
O5 V2 2.095851 1_555
O6 Zn4 1.982813 1_545
O6 V0 2.065325 1_555
O6 V1 2.068356 1_555
O6 V4 2.077411 1_555
O7 V11 1.926932 1_554
O7 V3 1.982075 1_565
O7 V0 2.022196 1_555
O7 V1 2.026875 1_555
O8 Zn1 1.994984 1_565
O8 V2 2.040625 1_555
O8 V5 2.063505 1_555
O8 V4 2.098507 1_555
O9 Zn3 1.830547 1_555
O9 V7 2.019287 1_545
O9 V2 2.026730 1_555
O9 V5 2.037235 1_555
O10 Zn4 1.991170 1_555
O10 V4 2.034733 1_555
O10 V0 2.084219 1_555
O10 V3 2.096547 1_565
O11 Zn1 2.000524 1_655
O11 V5 2.036140 1_555
O11 V4 2.060383 1_555
O11 V7 2.097534 1_545
O12 Zn5 2.033241 1_455
O12 V5 2.052526 1_555
O12 V9 2.087448 1_555
O12 V7 2.127241 1_555
O13 V6 2.118903 1_455
O13 V8 2.119582 1_555
O13 V9 2.134092 1_555
O13 Zn3 2.179958 1_555
O14 Zn5 2.027503 1_545
O14 V2 2.049540 1_655
O14 V5 2.103791 1_555
O14 V9 2.126567 1_555
O15 V7 2.013366 1_555
O15 V2 2.021326 1_655
O15 V5 2.045213 1_555
O15 Zn4 2.053023 1_555
O16 V6 2.027760 1_455
O16 V10 2.030958 1_555
O16 V8 2.148482 1_555
O16 Zn0 2.169225 1_556
O17 Zn3 2.036069 1_565
O17 V10 2.107529 1_555
O17 V6 2.127343 1_455
O17 V9 2.266065 1_555
O18 Zn5 2.034306 1_555
O18 V7 2.044985 1_555
O18 V9 2.091185 1_555
O18 V2 2.121585 1_655
O19 Zn3 2.095945 1_655
O19 V8 2.123623 1_555
O19 V9 2.130076 1_555
O19 V10 2.133186 1_555
O20 V10 2.067553 1_555
O20 V8 2.115439 1_565
O20 V11 2.141031 1_455
O20 Zn2 2.231760 1_556
O21 V10 2.041865 1_555
O21 V6 2.048397 1_555
O21 Zn5 2.066555 1_555
O21 V8 2.121572 1_565
O22 V10 2.081547 1_555
O22 V6 2.114091 1_555
O22 V11 2.182808 1_545
O22 Zn2 2.309987 1_556
O23 V6 2.037082 1_555
O23 V8 2.107267 1_565
O23 V11 2.129029 1_555
O23 Zn2 2.321738 1_556
