# generated using pymatgen
data_Nd11Cd45
_symmetry_space_group_name_H-M   'P 1'
_cell_length_a   15.61385535
_cell_length_b   15.61385535
_cell_length_c   15.61385535
_cell_angle_alpha   60.00000000
_cell_angle_beta   60.00000000
_cell_angle_gamma   60.00000000
_symmetry_Int_Tables_number   1
_chemical_formula_structural   Nd11Cd45
_chemical_formula_sum   'Nd22 Cd90'
_cell_volume   2691.63060212
_cell_formula_units_Z   2
loop_
 _symmetry_equiv_pos_site_id
 _symmetry_equiv_pos_as_xyz
  1  'x, y, z'
loop_
 _atom_site_type_symbol
 _atom_site_label
 _atom_site_symmetry_multiplicity
 _atom_site_fract_x
 _atom_site_fract_y
 _atom_site_fract_z
 _atom_site_occupancy
  Nd  Nd0  1  0.00000000  0.00000000  0.00000000  1
  Nd  Nd1  1  0.01308000  0.33229400  0.64154500  1
  Nd  Nd2  1  0.01308000  0.01308000  0.64154500  1
  Nd  Nd3  1  0.33229400  0.01308000  0.64154500  1
  Nd  Nd4  1  0.01308000  0.64154500  0.33229400  1
  Nd  Nd5  1  0.33229400  0.64154500  0.01308000  1
  Nd  Nd6  1  0.01308000  0.64154500  0.01308000  1
  Nd  Nd7  1  0.64154500  0.01308000  0.01308000  1
  Nd  Nd8  1  0.64154500  0.33229400  0.01308000  1
  Nd  Nd9  1  0.64154500  0.01308000  0.33229400  1
  Nd  Nd10  1  0.33229400  0.01308000  0.01308000  1
  Nd  Nd11  1  0.01308000  0.01308000  0.33229400  1
  Nd  Nd12  1  0.01308000  0.33229400  0.01308000  1
  Nd  Nd13  1  0.25000000  0.25000000  0.25000000  1
  Nd  Nd14  1  0.40661400  0.40661400  0.78015900  1
  Nd  Nd15  1  0.40661400  0.78015900  0.40661400  1
  Nd  Nd16  1  0.78015900  0.40661400  0.40661400  1
  Nd  Nd17  1  0.40661400  0.40661400  0.40661400  1
  Nd  Nd18  1  0.66350200  0.66350200  0.00949300  1
  Nd  Nd19  1  0.66350200  0.00949300  0.66350200  1
  Nd  Nd20  1  0.00949300  0.66350200  0.66350200  1
  Nd  Nd21  1  0.66350200  0.66350200  0.66350200  1
  Cd  Cd0  1  0.08323900  0.08323900  0.75028200  1
  Cd  Cd1  1  0.08323900  0.75028200  0.08323900  1
  Cd  Cd2  1  0.75028200  0.08323900  0.08323900  1
  Cd  Cd3  1  0.08323900  0.08323900  0.08323900  1
  Cd  Cd4  1  0.91325400  0.91325400  0.26023700  1
  Cd  Cd5  1  0.91325400  0.26023700  0.91325400  1
  Cd  Cd6  1  0.26023700  0.91325400  0.91325400  1
  Cd  Cd7  1  0.91325400  0.91325400  0.91325400  1
  Cd  Cd8  1  0.15682900  0.15682900  0.84317100  1
  Cd  Cd9  1  0.84317100  0.15682900  0.84317100  1
  Cd  Cd10  1  0.15682900  0.84317100  0.84317100  1
  Cd  Cd11  1  0.84317100  0.84317100  0.15682900  1
  Cd  Cd12  1  0.15682900  0.84317100  0.15682900  1
  Cd  Cd13  1  0.84317100  0.15682900  0.15682900  1
  Cd  Cd14  1  0.39088100  0.20065900  0.01757800  1
  Cd  Cd15  1  0.39088100  0.39088100  0.01757800  1
  Cd  Cd16  1  0.20065900  0.39088100  0.01757800  1
  Cd  Cd17  1  0.39088100  0.01757800  0.20065900  1
  Cd  Cd18  1  0.20065900  0.01757800  0.39088100  1
  Cd  Cd19  1  0.39088100  0.01757800  0.39088100  1
  Cd  Cd20  1  0.01757800  0.39088100  0.39088100  1
  Cd  Cd21  1  0.01757800  0.20065900  0.39088100  1
  Cd  Cd22  1  0.01757800  0.39088100  0.20065900  1
  Cd  Cd23  1  0.20065900  0.39088100  0.39088100  1
  Cd  Cd24  1  0.39088100  0.39088100  0.20065900  1
  Cd  Cd25  1  0.39088100  0.20065900  0.39088100  1
  Cd  Cd26  1  0.16311400  0.16311400  0.51065800  1
  Cd  Cd27  1  0.16311400  0.51065800  0.16311400  1
  Cd  Cd28  1  0.51065800  0.16311400  0.16311400  1
  Cd  Cd29  1  0.16311400  0.16311400  0.16311400  1
  Cd  Cd30  1  0.26338900  0.61229800  0.86092300  1
  Cd  Cd31  1  0.26338900  0.26338900  0.86092300  1
  Cd  Cd32  1  0.61229800  0.26338900  0.86092300  1
  Cd  Cd33  1  0.26338900  0.86092300  0.61229800  1
  Cd  Cd34  1  0.61229800  0.86092300  0.26338900  1
  Cd  Cd35  1  0.26338900  0.86092300  0.26338900  1
  Cd  Cd36  1  0.86092300  0.26338900  0.26338900  1
  Cd  Cd37  1  0.86092300  0.61229800  0.26338900  1
  Cd  Cd38  1  0.86092300  0.26338900  0.61229800  1
  Cd  Cd39  1  0.61229800  0.26338900  0.26338900  1
  Cd  Cd40  1  0.26338900  0.26338900  0.61229800  1
  Cd  Cd41  1  0.26338900  0.61229800  0.26338900  1
  Cd  Cd42  1  0.50000000  0.50000000  0.50000000  1
  Cd  Cd43  1  0.64098400  0.45027800  0.26775400  1
  Cd  Cd44  1  0.64098400  0.64098400  0.26775400  1
  Cd  Cd45  1  0.45027800  0.64098400  0.26775400  1
  Cd  Cd46  1  0.64098400  0.26775400  0.45027800  1
  Cd  Cd47  1  0.45027800  0.26775400  0.64098400  1
  Cd  Cd48  1  0.64098400  0.26775400  0.64098400  1
  Cd  Cd49  1  0.26775400  0.64098400  0.64098400  1
  Cd  Cd50  1  0.26775400  0.45027800  0.64098400  1
  Cd  Cd51  1  0.26775400  0.64098400  0.45027800  1
  Cd  Cd52  1  0.45027800  0.64098400  0.64098400  1
  Cd  Cd53  1  0.64098400  0.64098400  0.45027800  1
  Cd  Cd54  1  0.64098400  0.45027800  0.64098400  1
  Cd  Cd55  1  0.51265900  0.83307000  0.14161100  1
  Cd  Cd56  1  0.51265900  0.51265900  0.14161100  1
  Cd  Cd57  1  0.83307000  0.51265900  0.14161100  1
  Cd  Cd58  1  0.51265900  0.14161100  0.83307000  1
  Cd  Cd59  1  0.83307000  0.14161100  0.51265900  1
  Cd  Cd60  1  0.51265900  0.14161100  0.51265900  1
  Cd  Cd61  1  0.14161100  0.51265900  0.51265900  1
  Cd  Cd62  1  0.14161100  0.83307000  0.51265900  1
  Cd  Cd63  1  0.14161100  0.51265900  0.83307000  1
  Cd  Cd64  1  0.83307000  0.51265900  0.51265900  1
  Cd  Cd65  1  0.51265900  0.51265900  0.83307000  1
  Cd  Cd66  1  0.51265900  0.83307000  0.51265900  1
  Cd  Cd67  1  0.75000000  0.75000000  0.75000000  1
  Cd  Cd68  1  0.83009400  0.83009400  0.50971800  1
  Cd  Cd69  1  0.83009400  0.50971800  0.83009400  1
  Cd  Cd70  1  0.50971800  0.83009400  0.83009400  1
  Cd  Cd71  1  0.83009400  0.83009400  0.83009400  1
  Cd  Cd72  1  0.91307800  0.91307800  0.58692200  1
  Cd  Cd73  1  0.58692200  0.91307800  0.58692200  1
  Cd  Cd74  1  0.91307800  0.58692200  0.58692200  1
  Cd  Cd75  1  0.58692200  0.58692200  0.91307800  1
  Cd  Cd76  1  0.91307800  0.58692200  0.91307800  1
  Cd  Cd77  1  0.58692200  0.91307800  0.91307800  1
  Cd  Cd78  1  0.76345000  0.06915600  0.40394500  1
  Cd  Cd79  1  0.76345000  0.76345000  0.40394500  1
  Cd  Cd80  1  0.06915600  0.76345000  0.40394500  1
  Cd  Cd81  1  0.76345000  0.40394500  0.06915600  1
  Cd  Cd82  1  0.06915600  0.40394500  0.76345000  1
  Cd  Cd83  1  0.76345000  0.40394500  0.76345000  1
  Cd  Cd84  1  0.40394500  0.76345000  0.76345000  1
  Cd  Cd85  1  0.40394500  0.06915600  0.76345000  1
  Cd  Cd86  1  0.40394500  0.76345000  0.06915600  1
  Cd  Cd87  1  0.06915600  0.76345000  0.76345000  1
  Cd  Cd88  1  0.76345000  0.76345000  0.06915600  1
  Cd  Cd89  1  0.76345000  0.06915600  0.76345000  1
loop_
_geom_bond_atom_site_label_1
_geom_bond_atom_site_label_2
_geom_bond_distance
_geom_bond_site_symmetry_2
Cd0 Cd26 3.054885 1_555
Cd0 Cd9 3.065486 1_455
Cd0 Cd10 3.065486 1_545
Cd0 Cd8 3.065499 1_555
Cd0 Nd0 3.183570 1_556
Cd0 Nd1 3.194106 1_555
Cd0 Nd3 3.194106 1_555
Cd0 Nd2 3.194106 1_555
Cd1 Cd27 3.054885 1_555
Cd1 Cd10 3.065486 1_554
Cd1 Cd11 3.065486 1_455
Cd1 Cd12 3.065499 1_555
Cd1 Nd0 3.183570 1_565
Cd1 Nd4 3.194106 1_555
Cd1 Nd5 3.194106 1_555
Cd1 Nd6 3.194106 1_555
Cd2 Cd28 3.054885 1_555
Cd2 Cd9 3.065486 1_554
Cd2 Nd0 3.183570 1_655
Cd2 Nd9 3.194106 1_555
Cd2 Nd8 3.194106 1_555
Cd2 Nd7 3.194106 1_555
Cd3 Cd8 3.065485 1_554
Cd3 Nd0 3.183557 1_555
Cd3 Nd12 3.194106 1_555
Cd3 Nd10 3.194106 1_555
Cd3 Nd11 3.194106 1_555
Cd4 Cd68 3.180548 1_555
Cd4 Cd79 3.309240 1_555
Cd4 Cd80 3.309263 1_655
Cd4 Cd78 3.309263 1_565
Cd4 Nd0 3.317673 1_665
Cd4 Nd11 3.472959 1_665
Cd4 Nd4 3.472959 1_655
Cd4 Nd9 3.472959 1_565
Cd5 Cd9 3.119740 1_555
Cd5 Cd8 3.119752 1_655
Cd5 Cd69 3.180548 1_555
Cd5 Cd83 3.309240 1_555
Cd5 Cd81 3.309263 1_556
Cd5 Cd82 3.309263 1_655
Cd5 Nd0 3.317673 1_656
Cd5 Nd12 3.472959 1_656
Cd5 Nd1 3.472959 1_655
Cd5 Nd8 3.472959 1_556
Cd6 Cd8 3.119752 1_565
Cd6 Cd70 3.180548 1_555
Cd6 Cd84 3.309240 1_555
Cd6 Cd86 3.309263 1_556
Cd6 Cd85 3.309263 1_565
Cd6 Nd0 3.317673 1_566
Cd6 Nd10 3.472959 1_566
Cd6 Nd3 3.472959 1_565
Cd6 Nd5 3.472959 1_556
Cd7 Cd9 3.119753 1_565
Cd7 Cd71 3.180536 1_555
Cd7 Cd87 3.309241 1_655
Cd7 Cd89 3.309241 1_565
Cd7 Cd88 3.309241 1_556
Cd7 Nd0 3.317686 1_666
Cd7 Nd6 3.472959 1_656
Cd7 Nd2 3.472959 1_665
Cd7 Nd7 3.472959 1_566
Cd8 Cd82 3.151213 1_555
Cd8 Cd85 3.151213 1_555
Cd8 Nd0 3.462992 1_556
Cd8 Nd12 3.840079 1_556
Cd8 Nd10 3.840079 1_556
Cd8 Nd3 3.840091 1_555
Cd8 Nd1 3.840091 1_555
Cd9 Nd0 3.462992 1_656
Cd9 Nd1 3.840081 1_655
Cd9 Nd8 3.840081 1_556
Cd9 Nd2 3.840091 1_655
Cd9 Nd7 3.840091 1_556
Cd10 Cd30 3.050257 1_555
Cd10 Cd33 3.050257 1_555
Cd10 Cd6 3.119740 1_555
Cd10 Cd7 3.119753 1_455
Cd10 Cd87 3.151200 1_555
Cd10 Cd84 3.151213 1_555
Cd10 Nd0 3.462992 1_566
Cd10 Nd3 3.840081 1_565
Cd10 Nd5 3.840081 1_556
Cd10 Nd2 3.840091 1_565
Cd10 Nd6 3.840091 1_556
Cd11 Cd37 3.050257 1_555
Cd11 Cd34 3.050257 1_555
Cd11 Cd2 3.065486 1_565
Cd11 Cd4 3.119740 1_555
Cd11 Cd7 3.119753 1_554
Cd11 Cd88 3.151200 1_555
Cd11 Cd79 3.151213 1_555
Cd11 Nd0 3.462992 1_665
Cd11 Nd9 3.840081 1_565
Cd11 Nd4 3.840081 1_655
Cd11 Nd6 3.840091 1_655
Cd11 Nd7 3.840091 1_565
Cd12 Cd35 3.050243 1_555
Cd12 Cd41 3.050253 1_555
Cd12 Cd3 3.065485 1_565
Cd12 Cd4 3.119752 1_455
Cd12 Cd6 3.119752 1_554
Cd12 Cd86 3.151213 1_555
Cd12 Cd80 3.151213 1_555
Cd12 Nd0 3.462992 1_565
Cd12 Nd11 3.840079 1_565
Cd12 Nd10 3.840079 1_565
Cd12 Nd4 3.840091 1_555
Cd12 Nd5 3.840091 1_555
Cd13 Cd36 3.050243 1_555
Cd13 Cd39 3.050253 1_555
Cd13 Cd3 3.065485 1_655
Cd13 Cd2 3.065499 1_555
Cd13 Cd4 3.119752 1_545
Cd13 Cd5 3.119752 1_554
Cd13 Cd81 3.151213 1_555
Cd13 Cd78 3.151213 1_555
Cd13 Nd0 3.462992 1_655
Cd13 Nd12 3.840079 1_655
Cd13 Nd11 3.840079 1_655
Cd13 Nd8 3.840091 1_555
Cd13 Nd9 3.840091 1_555
Cd14 Cd17 2.858600 1_555
Cd14 Cd58 2.861846 1_554
Cd14 Cd16 2.970099 1_555
Cd14 Cd15 2.970099 1_555
Cd14 Cd29 3.290311 1_555
Cd14 Cd28 3.290324 1_555
Cd14 Cd31 3.380599 1_554
Cd14 Cd32 3.380599 1_554
Cd14 Nd13 3.423491 1_555
Cd14 Nd14 3.478777 1_554
Cd14 Nd7 3.516949 1_555
Cd14 Nd10 3.516949 1_555
Cd15 Cd24 2.858600 1_555
Cd15 Cd65 2.861846 1_554
Cd15 Cd16 2.970099 1_555
Cd15 Cd27 3.290317 1_555
Cd15 Cd28 3.290317 1_555
Cd15 Cd30 3.380599 1_554
Cd15 Cd32 3.380599 1_554
Cd15 Nd13 3.423484 1_555
Cd15 Nd14 3.478763 1_554
Cd15 Nd8 3.516949 1_555
Cd15 Nd5 3.516949 1_555
Cd16 Cd22 2.858600 1_555
Cd16 Cd63 2.861846 1_554
Cd16 Cd29 3.290311 1_555
Cd16 Cd27 3.290324 1_555
Cd16 Cd31 3.380599 1_554
Cd16 Cd30 3.380599 1_554
Cd16 Nd13 3.423491 1_555
Cd16 Nd14 3.478777 1_554
Cd16 Nd6 3.516949 1_555
Cd16 Nd12 3.516949 1_555
Cd17 Cd55 2.861846 1_545
Cd17 Cd19 2.970099 1_555
Cd17 Cd18 2.970099 1_555
Cd17 Cd29 3.290311 1_555
Cd17 Cd28 3.290324 1_555
Cd17 Cd34 3.380599 1_545
Cd17 Cd35 3.380599 1_545
Cd17 Nd13 3.423491 1_555
Cd17 Nd15 3.478777 1_545
Cd17 Nd7 3.516949 1_555
Cd17 Nd10 3.516949 1_555
Cd18 Cd21 2.858600 1_555
Cd18 Cd62 2.861846 1_545
Cd18 Cd19 2.970099 1_555
Cd18 Cd29 3.290311 1_555
Cd18 Cd26 3.290324 1_555
Cd18 Cd35 3.380599 1_545
Cd18 Cd33 3.380599 1_545
Cd18 Nd13 3.423491 1_555
Cd18 Nd15 3.478777 1_545
Cd18 Nd2 3.516949 1_555
Cd18 Nd11 3.516949 1_555
Cd19 Cd25 2.858600 1_555
Cd19 Cd66 2.861846 1_545
Cd19 Cd26 3.290317 1_555
Cd19 Cd28 3.290317 1_555
Cd19 Cd34 3.380599 1_545
Cd19 Cd33 3.380599 1_545
Cd19 Nd13 3.423484 1_555
Cd19 Nd15 3.478763 1_545
Cd19 Nd3 3.516949 1_555
Cd19 Nd9 3.516949 1_555
Cd20 Cd23 2.858600 1_555
Cd20 Cd64 2.861846 1_455
Cd20 Cd22 2.970099 1_555
Cd20 Cd21 2.970099 1_555
Cd20 Cd26 3.290317 1_555
Cd20 Cd27 3.290317 1_555
Cd20 Cd37 3.380599 1_455
Cd20 Cd38 3.380599 1_455
Cd20 Nd13 3.423484 1_555
Cd20 Nd16 3.478763 1_455
Cd20 Nd1 3.516949 1_555
Cd20 Nd4 3.516949 1_555
Cd21 Cd59 2.861846 1_455
Cd21 Cd22 2.970099 1_555
Cd21 Cd29 3.290311 1_555
Cd21 Cd26 3.290324 1_555
Cd21 Cd36 3.380599 1_455
Cd21 Cd38 3.380599 1_455
Cd21 Nd13 3.423491 1_555
Cd21 Nd16 3.478777 1_455
Cd21 Nd2 3.516949 1_555
Cd21 Nd11 3.516949 1_555
Cd22 Cd57 2.861846 1_455
Cd22 Cd29 3.290311 1_555
Cd22 Cd27 3.290324 1_555
Cd22 Cd36 3.380599 1_455
Cd22 Cd37 3.380599 1_455
Cd22 Nd13 3.423491 1_555
Cd22 Nd16 3.478777 1_455
Cd22 Nd6 3.516949 1_555
Cd22 Nd12 3.516949 1_555
Cd23 Cd61 2.861846 1_555
Cd23 Cd25 2.970099 1_555
Cd23 Cd24 2.970099 1_555
Cd23 Cd26 3.290310 1_555
Cd23 Cd27 3.290310 1_555
Cd23 Cd40 3.380599 1_555
Cd23 Cd41 3.380599 1_555
Cd23 Nd13 3.423477 1_555
Cd23 Nd17 3.478794 1_555
Cd23 Nd1 3.516949 1_555
Cd23 Nd4 3.516949 1_555
Cd24 Cd56 2.861846 1_555
Cd24 Cd25 2.970099 1_555
Cd24 Cd28 3.290310 1_555
Cd24 Cd27 3.290310 1_555
Cd24 Cd41 3.380599 1_555
Cd24 Cd39 3.380599 1_555
Cd24 Nd13 3.423477 1_555
Cd24 Nd17 3.478794 1_555
Cd24 Nd8 3.516949 1_555
Cd24 Nd5 3.516949 1_555
Cd25 Cd60 2.861846 1_555
Cd25 Cd26 3.290310 1_555
Cd25 Cd28 3.290310 1_555
Cd25 Cd40 3.380599 1_555
Cd25 Cd39 3.380599 1_555
Cd25 Nd13 3.423477 1_555
Cd25 Nd17 3.478794 1_555
Cd25 Nd3 3.516949 1_555
Cd25 Nd9 3.516949 1_555
Cd26 Nd13 3.323040 1_555
Cd26 Nd3 3.326400 1_555
Cd26 Nd1 3.326400 1_555
Cd26 Nd2 3.326411 1_555
Cd27 Nd13 3.323040 1_555
Cd27 Nd4 3.326400 1_555
Cd27 Nd5 3.326400 1_555
Cd27 Nd6 3.326411 1_555
Cd28 Nd13 3.323040 1_555
Cd28 Nd8 3.326400 1_555
Cd28 Nd9 3.326400 1_555
Cd28 Nd7 3.326411 1_555
Cd29 Cd3 3.054898 1_555
Cd29 Nd13 3.323040 1_555
Cd29 Nd12 3.326410 1_555
Cd29 Nd10 3.326410 1_555
Cd29 Nd11 3.326410 1_555
Cd30 Cd49 3.202596 1_555
Cd30 Cd52 3.202603 1_555
Cd30 Cd63 3.269027 1_555
Cd30 Cd65 3.269027 1_555
Cd30 Cd87 3.309066 1_555
Cd30 Cd84 3.309090 1_555
Cd30 Nd14 3.309529 1_555
Cd30 Nd5 3.338037 1_556
Cd30 Nd6 3.338037 1_556
Cd31 Cd8 3.050243 1_555
Cd31 Cd50 3.202602 1_555
Cd31 Cd47 3.202602 1_555
Cd31 Cd58 3.269027 1_555
Cd31 Cd63 3.269027 1_555
Cd31 Cd82 3.309065 1_555
Cd31 Cd85 3.309065 1_555
Cd31 Nd14 3.309555 1_555
Cd31 Nd10 3.338037 1_556
Cd31 Nd12 3.338037 1_556
Cd32 Cd9 3.050257 1_555
Cd32 Cd48 3.202596 1_555
Cd32 Cd54 3.202603 1_555
Cd32 Cd58 3.269027 1_555
Cd32 Cd65 3.269027 1_555
Cd32 Cd89 3.309066 1_555
Cd32 Cd83 3.309090 1_555
Cd32 Nd14 3.309529 1_555
Cd32 Nd8 3.338037 1_556
Cd32 Nd7 3.338037 1_556
Cd33 Cd49 3.202596 1_555
Cd33 Cd52 3.202603 1_555
Cd33 Cd62 3.269027 1_555
Cd33 Cd66 3.269027 1_555
Cd33 Cd87 3.309066 1_555
Cd33 Cd84 3.309090 1_555
Cd33 Nd15 3.309529 1_555
Cd33 Nd3 3.338037 1_565
Cd33 Nd2 3.338037 1_565
Cd34 Cd44 3.202596 1_555
Cd34 Cd53 3.202603 1_555
Cd34 Cd55 3.269027 1_555
Cd34 Cd66 3.269027 1_555
Cd34 Cd88 3.309066 1_555
Cd34 Cd79 3.309090 1_555
Cd34 Nd15 3.309529 1_555
Cd34 Nd9 3.338037 1_565
Cd34 Nd7 3.338037 1_565
Cd35 Cd51 3.202602 1_555
Cd35 Cd45 3.202602 1_555
Cd35 Cd62 3.269027 1_555
Cd35 Cd55 3.269027 1_555
Cd35 Cd86 3.309065 1_555
Cd35 Cd80 3.309065 1_555
Cd35 Nd15 3.309555 1_555
Cd35 Nd11 3.338037 1_565
Cd35 Nd10 3.338037 1_565
Cd36 Cd46 3.202602 1_555
Cd36 Cd43 3.202602 1_555
Cd36 Cd59 3.269027 1_555
Cd36 Cd57 3.269027 1_555
Cd36 Cd81 3.309065 1_555
Cd36 Cd78 3.309065 1_555
Cd36 Nd16 3.309555 1_555
Cd36 Nd11 3.338037 1_655
Cd36 Nd12 3.338037 1_655
Cd37 Cd44 3.202596 1_555
Cd37 Cd53 3.202603 1_555
Cd37 Cd57 3.269027 1_555
Cd37 Cd64 3.269027 1_555
Cd37 Cd88 3.309066 1_555
Cd37 Cd79 3.309090 1_555
Cd37 Nd16 3.309529 1_555
Cd37 Nd4 3.338037 1_655
Cd37 Nd6 3.338037 1_655
Cd38 Cd9 3.050257 1_555
Cd38 Cd48 3.202596 1_555
Cd38 Cd54 3.202603 1_555
Cd38 Cd59 3.269027 1_555
Cd38 Cd64 3.269027 1_555
Cd38 Cd89 3.309066 1_555
Cd38 Cd83 3.309090 1_555
Cd38 Nd16 3.309529 1_555
Cd38 Nd1 3.338037 1_655
Cd38 Nd2 3.338037 1_655
Cd39 Cd46 3.202611 1_555
Cd39 Cd43 3.202611 1_555
Cd39 Cd56 3.269027 1_555
Cd39 Cd60 3.269027 1_555
Cd39 Cd78 3.309083 1_555
Cd39 Cd81 3.309083 1_555
Cd39 Nd17 3.309545 1_555
Cd39 Nd9 3.338037 1_555
Cd39 Nd8 3.338037 1_555
Cd40 Cd8 3.050253 1_555
Cd40 Cd47 3.202611 1_555
Cd40 Cd50 3.202611 1_555
Cd40 Cd61 3.269027 1_555
Cd40 Cd60 3.269027 1_555
Cd40 Cd85 3.309083 1_555
Cd40 Cd82 3.309083 1_555
Cd40 Nd17 3.309545 1_555
Cd40 Nd3 3.338037 1_555
Cd40 Nd1 3.338037 1_555
Cd41 Cd45 3.202611 1_555
Cd41 Cd51 3.202611 1_555
Cd41 Cd61 3.269027 1_555
Cd41 Cd56 3.269027 1_555
Cd41 Cd86 3.309083 1_555
Cd41 Cd80 3.309083 1_555
Cd41 Nd17 3.309545 1_555
Cd41 Nd5 3.338037 1_555
Cd41 Nd4 3.338037 1_555
Cd42 Cd54 3.423735 1_555
Cd42 Cd52 3.423735 1_555
Cd42 Cd53 3.423735 1_555
Cd42 Cd48 3.423735 1_555
Cd42 Cd49 3.423735 1_555
Cd42 Cd44 3.423735 1_555
Cd42 Cd45 3.423735 1_555
Cd42 Cd46 3.423735 1_555
Cd42 Cd43 3.423735 1_555
Cd42 Cd50 3.423735 1_555
Cd42 Cd47 3.423735 1_555
Cd42 Cd51 3.423735 1_555
Cd42 Nd17 3.571639 1_555
Cd42 Nd15 3.571652 1_555
Cd42 Nd16 3.571652 1_555
Cd42 Nd14 3.571652 1_555
Cd43 Cd46 2.849903 1_555
Cd43 Cd81 2.953940 1_555
Cd43 Cd45 2.977656 1_555
Cd43 Cd44 2.977656 1_555
Cd43 Cd57 2.986444 1_555
Cd43 Cd56 2.986457 1_555
Cd43 Nd17 3.411678 1_555
Cd43 Nd16 3.411692 1_555
Cd43 Nd18 3.714283 1_555
Cd44 Cd53 2.849903 1_555
Cd44 Cd88 2.953947 1_555
Cd44 Cd45 2.977656 1_555
Cd44 Cd55 2.986452 1_555
Cd44 Cd57 2.986452 1_555
Cd44 Nd15 3.411685 1_555
Cd44 Nd16 3.411685 1_555
Cd44 Nd18 3.714289 1_555
Cd45 Cd51 2.849903 1_555
Cd45 Cd86 2.953940 1_555
Cd45 Cd55 2.986444 1_555
Cd45 Cd56 2.986457 1_555
Cd45 Nd17 3.411678 1_555
Cd45 Nd15 3.411692 1_555
Cd45 Nd18 3.714283 1_555
Cd46 Cd78 2.953940 1_555
Cd46 Cd48 2.977656 1_555
Cd46 Cd47 2.977656 1_555
Cd46 Cd59 2.986444 1_555
Cd46 Cd60 2.986457 1_555
Cd46 Nd17 3.411678 1_555
Cd46 Nd16 3.411692 1_555
Cd46 Nd19 3.714283 1_555
Cd47 Cd50 2.849903 1_555
Cd47 Cd85 2.953940 1_555
Cd47 Cd48 2.977656 1_555
Cd47 Cd58 2.986444 1_555
Cd47 Cd60 2.986457 1_555
Cd47 Nd17 3.411678 1_555
Cd47 Nd14 3.411692 1_555
Cd47 Nd19 3.714283 1_555
Cd48 Cd54 2.849903 1_555
Cd48 Cd89 2.953947 1_555
Cd48 Cd58 2.986452 1_555
Cd48 Cd59 2.986452 1_555
Cd48 Nd14 3.411685 1_555
Cd48 Nd16 3.411685 1_555
Cd48 Nd19 3.714289 1_555
Cd49 Cd52 2.849903 1_555
Cd49 Cd87 2.953947 1_555
Cd49 Cd51 2.977656 1_555
Cd49 Cd50 2.977656 1_555
Cd49 Cd63 2.986452 1_555
Cd49 Cd62 2.986452 1_555
Cd49 Nd14 3.411685 1_555
Cd49 Nd15 3.411685 1_555
Cd49 Nd20 3.714289 1_555
Cd50 Cd82 2.953940 1_555
Cd50 Cd51 2.977656 1_555
Cd50 Cd63 2.986444 1_555
Cd50 Cd61 2.986457 1_555
Cd50 Nd17 3.411678 1_555
Cd50 Nd14 3.411692 1_555
Cd50 Nd20 3.714283 1_555
Cd51 Cd80 2.953940 1_555
Cd51 Cd62 2.986444 1_555
Cd51 Cd61 2.986457 1_555
Cd51 Nd17 3.411678 1_555
Cd51 Nd15 3.411692 1_555
Cd51 Nd20 3.714283 1_555
Cd52 Cd84 2.953953 1_555
Cd52 Cd54 2.977656 1_555
Cd52 Cd53 2.977656 1_555
Cd52 Cd65 2.986444 1_555
Cd52 Cd66 2.986444 1_555
Cd52 Nd14 3.411678 1_555
Cd52 Nd15 3.411678 1_555
Cd52 Nd21 3.714274 1_555
Cd53 Cd79 2.953953 1_555
Cd53 Cd54 2.977656 1_555
Cd53 Cd66 2.986444 1_555
Cd53 Cd64 2.986444 1_555
Cd53 Nd16 3.411678 1_555
Cd53 Nd15 3.411678 1_555
Cd53 Nd21 3.714274 1_555
Cd54 Cd83 2.953953 1_555
Cd54 Cd65 2.986444 1_555
Cd54 Cd64 2.986444 1_555
Cd54 Nd16 3.411678 1_555
Cd54 Nd14 3.411678 1_555
Cd54 Nd21 3.714274 1_555
Cd55 Cd77 2.913950 1_554
Cd55 Cd86 3.215289 1_555
Cd55 Cd88 3.215316 1_555
Cd55 Nd18 3.343621 1_555
Cd55 Nd15 3.412220 1_555
Cd55 Nd7 3.457455 1_565
Cd55 Nd10 3.457455 1_565
Cd56 Cd75 2.913950 1_554
Cd56 Cd81 3.215313 1_555
Cd56 Cd86 3.215313 1_555
Cd56 Nd18 3.343621 1_555
Cd56 Nd17 3.412216 1_555
Cd56 Nd5 3.457455 1_555
Cd56 Nd8 3.457455 1_555
Cd57 Cd76 2.913950 1_554
Cd57 Cd81 3.215289 1_555
Cd57 Cd88 3.215316 1_555
Cd57 Nd18 3.343621 1_555
Cd57 Nd16 3.412220 1_555
Cd57 Nd6 3.457455 1_655
Cd57 Nd12 3.457455 1_655
Cd58 Cd77 2.913950 1_545
Cd58 Cd85 3.215289 1_555
Cd58 Cd89 3.215316 1_555
Cd58 Nd19 3.343621 1_555
Cd58 Nd14 3.412220 1_555
Cd58 Nd7 3.457455 1_556
Cd58 Nd10 3.457455 1_556
Cd59 Cd72 2.913950 1_545
Cd59 Cd78 3.215289 1_555
Cd59 Cd89 3.215316 1_555
Cd59 Nd19 3.343621 1_555
Cd59 Nd16 3.412220 1_555
Cd59 Nd2 3.457455 1_655
Cd59 Nd11 3.457455 1_655
Cd60 Cd73 2.913950 1_545
Cd60 Cd78 3.215313 1_555
Cd60 Cd85 3.215313 1_555
Cd60 Nd19 3.343621 1_555
Cd60 Nd17 3.412216 1_555
Cd60 Nd9 3.457455 1_555
Cd60 Nd3 3.457455 1_555
Cd61 Cd74 2.913950 1_455
Cd61 Cd82 3.215313 1_555
Cd61 Cd80 3.215313 1_555
Cd61 Nd20 3.343621 1_555
Cd61 Nd17 3.412216 1_555
Cd61 Nd1 3.457455 1_555
Cd61 Nd4 3.457455 1_555
Cd62 Cd72 2.913950 1_455
Cd62 Cd80 3.215289 1_555
Cd62 Cd87 3.215316 1_555
Cd62 Nd20 3.343621 1_555
Cd62 Nd15 3.412220 1_555
Cd62 Nd2 3.457455 1_565
Cd62 Nd11 3.457455 1_565
Cd63 Cd76 2.913950 1_455
Cd63 Cd82 3.215289 1_555
Cd63 Cd87 3.215316 1_555
Cd63 Nd20 3.343621 1_555
Cd63 Nd14 3.412220 1_555
Cd63 Nd6 3.457455 1_556
Cd63 Nd12 3.457455 1_556
Cd64 Cd74 2.913962 1_555
Cd64 Cd83 3.215314 1_555
Cd64 Cd79 3.215314 1_555
Cd64 Nd21 3.343621 1_555
Cd64 Nd16 3.412193 1_555
Cd64 Nd4 3.457455 1_655
Cd64 Nd1 3.457455 1_655
Cd65 Cd75 2.913962 1_555
Cd65 Cd83 3.215314 1_555
Cd65 Cd84 3.215314 1_555
Cd65 Nd21 3.343621 1_555
Cd65 Nd14 3.412193 1_555
Cd65 Nd8 3.457455 1_556
Cd65 Nd5 3.457455 1_556
Cd66 Cd73 2.913962 1_555
Cd66 Cd79 3.215314 1_555
Cd66 Cd84 3.215314 1_555
Cd66 Nd21 3.343621 1_555
Cd66 Nd15 3.412193 1_555
Cd66 Nd3 3.457455 1_565
Cd66 Nd9 3.457455 1_565
Cd67 Cd71 3.063273 1_555
Cd67 Cd68 3.063273 1_555
Cd67 Cd69 3.063273 1_555
Cd67 Cd70 3.063273 1_555
Cd67 Nd20 3.308188 1_655
Cd67 Nd19 3.308188 1_565
Cd67 Nd18 3.308188 1_556
Cd67 Nd21 3.308201 1_555
Cd68 Cd79 3.068052 1_555
Cd68 Cd78 3.068064 1_565
Cd68 Cd80 3.068064 1_655
Cd68 Cd72 3.100555 1_555
Cd68 Cd73 3.100555 1_555
Cd68 Cd74 3.100555 1_555
Cd68 Nd20 3.683993 1_655
Cd68 Nd19 3.683993 1_565
Cd68 Nd21 3.684004 1_555
Cd69 Cd83 3.068052 1_555
Cd69 Cd81 3.068064 1_556
Cd69 Cd82 3.068064 1_655
Cd69 Cd76 3.100555 1_555
Cd69 Cd74 3.100555 1_555
Cd69 Cd75 3.100555 1_555
Cd69 Nd20 3.683993 1_655
Cd69 Nd18 3.683993 1_556
Cd69 Nd21 3.684004 1_555
Cd70 Cd84 3.068052 1_555
Cd70 Cd86 3.068064 1_556
Cd70 Cd85 3.068064 1_565
Cd70 Cd77 3.100555 1_555
Cd70 Cd73 3.100555 1_555
Cd70 Cd75 3.100555 1_555
Cd70 Nd19 3.683993 1_565
Cd70 Nd18 3.683993 1_556
Cd70 Nd21 3.684004 1_555
Cd71 Cd89 3.068065 1_565
Cd71 Cd88 3.068065 1_556
Cd71 Cd87 3.068065 1_655
Cd71 Cd77 3.100555 1_555
Cd71 Cd72 3.100555 1_555
Cd71 Cd76 3.100555 1_555
Cd71 Nd18 3.684003 1_556
Cd71 Nd20 3.684003 1_655
Cd71 Nd19 3.684003 1_565
Cd72 Nd20 3.186779 1_655
Cd72 Nd19 3.186779 1_565
Cd72 Nd2 3.271827 1_665
Cd72 Nd11 3.271839 1_665
Cd73 Nd19 3.186767 1_565
Cd73 Nd21 3.186780 1_555
Cd73 Nd9 3.271840 1_565
Cd73 Nd3 3.271840 1_565
Cd74 Nd20 3.186767 1_655
Cd74 Nd21 3.186780 1_555
Cd74 Nd4 3.271840 1_655
Cd74 Nd1 3.271840 1_655
Cd75 Nd18 3.186767 1_556
Cd75 Nd21 3.186780 1_555
Cd75 Nd8 3.271840 1_556
Cd75 Nd5 3.271840 1_556
Cd76 Nd18 3.186779 1_556
Cd76 Nd20 3.186779 1_655
Cd76 Nd6 3.271827 1_656
Cd76 Nd12 3.271839 1_656
Cd77 Nd18 3.186779 1_556
Cd77 Nd19 3.186779 1_565
Cd77 Nd7 3.271827 1_566
Cd77 Nd10 3.271839 1_566
Cd78 Nd11 3.227461 1_655
Cd78 Nd9 3.227489 1_555
Cd78 Nd19 3.328871 1_555
Cd79 Nd4 3.227466 1_655
Cd79 Nd9 3.227466 1_565
Cd79 Nd21 3.328874 1_555
Cd80 Nd11 3.227461 1_565
Cd80 Nd4 3.227489 1_555
Cd80 Nd20 3.328871 1_555
Cd81 Nd12 3.227461 1_655
Cd81 Nd8 3.227489 1_555
Cd81 Nd18 3.328871 1_555
Cd82 Nd12 3.227461 1_556
Cd82 Nd1 3.227489 1_555
Cd82 Nd20 3.328871 1_555
Cd83 Cd9 3.151213 1_555
Cd83 Nd8 3.227466 1_556
Cd83 Nd1 3.227466 1_655
Cd83 Nd21 3.328874 1_555
Cd84 Nd5 3.227466 1_556
Cd84 Nd3 3.227466 1_565
Cd84 Nd21 3.328874 1_555
Cd85 Nd10 3.227461 1_556
Cd85 Nd3 3.227489 1_555
Cd85 Nd19 3.328871 1_555
Cd86 Nd10 3.227461 1_565
Cd86 Nd5 3.227489 1_555
Cd86 Nd18 3.328871 1_555
Cd87 Nd6 3.227465 1_556
Cd87 Nd2 3.227465 1_565
Cd87 Nd20 3.328897 1_555
Cd88 Nd6 3.227465 1_655
Cd88 Nd7 3.227465 1_565
Cd88 Nd18 3.328897 1_555
Cd89 Cd9 3.151200 1_555
Cd89 Nd7 3.227465 1_556
Cd89 Nd2 3.227465 1_655
Cd89 Nd19 3.328897 1_555
