# generated using pymatgen
data_Ta3Pb
_symmetry_space_group_name_H-M   'P 1'
_cell_length_a   4.26586000
_cell_length_b   4.26586000
_cell_length_c   4.26586000
_cell_angle_alpha   90.00000000
_cell_angle_beta   90.00000000
_cell_angle_gamma   90.00000000
_symmetry_Int_Tables_number   1
_chemical_formula_structural   Ta3Pb
_chemical_formula_sum   'Ta3 Pb1'
_cell_volume   77.62824987
_cell_formula_units_Z   1
loop_
 _symmetry_equiv_pos_site_id
 _symmetry_equiv_pos_as_xyz
  1  'x, y, z'
loop_
 _atom_site_type_symbol
 _atom_site_label
 _atom_site_symmetry_multiplicity
 _atom_site_fract_x
 _atom_site_fract_y
 _atom_site_fract_z
 _atom_site_occupancy
  Ta  Ta0  1  0.00000000  0.50000000  0.50000000  1
  Ta  Ta1  1  0.50000000  0.00000000  0.50000000  1
  Ta  Ta2  1  0.50000000  0.50000000  0.00000000  1
  Pb  Pb0  1  0.00000000  0.00000000  0.00000000  1
loop_
_geom_bond_atom_site_label_1
_geom_bond_atom_site_label_2
_geom_bond_distance
_geom_bond_site_symmetry_2
Ta0 Ta1 3.016419 1_455
Ta0 Ta2 3.016419 1_456
Ta0 Ta1 3.016419 1_555
Ta0 Ta2 3.016419 1_455
Ta0 Ta2 3.016419 1_555
Ta0 Ta1 3.016419 1_465
Ta0 Ta1 3.016419 1_565
Ta0 Ta2 3.016419 1_556
Ta1 Ta2 3.016419 1_546
Ta1 Ta2 3.016419 1_555
Ta1 Ta2 3.016419 1_556
Ta1 Ta2 3.016419 1_545
Pb0 Ta0 3.016419 1_555
Pb0 Ta0 3.016419 1_554
Pb0 Ta1 3.016419 1_455
Pb0 Ta1 3.016419 1_454
Pb0 Ta1 3.016419 1_555
Pb0 Ta2 3.016419 1_555
Pb0 Ta2 3.016419 1_455
Pb0 Ta2 3.016419 1_445
Pb0 Ta2 3.016419 1_545
Pb0 Ta0 3.016419 1_544
Pb0 Ta1 3.016419 1_554
Pb0 Ta0 3.016419 1_545
