# generated using pymatgen
data_Te4MoW3S4
_symmetry_space_group_name_H-M   'P 1'
_cell_length_a   3.35653871
_cell_length_b   3.35653871
_cell_length_c   38.37686300
_cell_angle_alpha   90.00000000
_cell_angle_beta   90.00000000
_cell_angle_gamma   120.00001405
_symmetry_Int_Tables_number   1
_chemical_formula_structural   Te4MoW3S4
_chemical_formula_sum   'Te4 Mo1 W3 S4'
_cell_volume   374.44097120
_cell_formula_units_Z   1
loop_
 _symmetry_equiv_pos_site_id
 _symmetry_equiv_pos_as_xyz
  1  'x, y, z'
loop_
 _atom_site_type_symbol
 _atom_site_label
 _atom_site_symmetry_multiplicity
 _atom_site_fract_x
 _atom_site_fract_y
 _atom_site_fract_z
 _atom_site_occupancy
  Te  Te0  1  0.33333300  0.66666700  0.04461300  1
  Te  Te1  1  0.33333300  0.66666700  0.42007100  1
  Te  Te2  1  0.33333300  0.66666700  0.14321800  1
  Te  Te3  1  0.33333300  0.66666700  0.51925600  1
  Mo  Mo0  1  0.00000000  0.00000000  0.09391200  1
  W  W0  1  0.00000000  0.00000000  0.46965800  1
  W  W1  1  0.33333300  0.66666700  0.28178500  1
  W  W2  1  0.33333300  0.66666700  0.65756100  1
  S  S0  1  0.00000000  0.00000000  0.32138500  1
  S  S1  1  0.00000000  0.00000000  0.69714800  1
  S  S2  1  0.00000000  0.00000000  0.24218800  1
  S  S3  1  0.00000000  0.00000000  0.61795200  1
loop_
_geom_bond_atom_site_label_1
_geom_bond_atom_site_label_2
_geom_bond_distance
_geom_bond_site_symmetry_2
Te1 W0 2.716032 1_565
Te1 W0 2.716033 1_555
Te1 W0 2.716033 1_665
Te3 W0 2.716327 1_565
Te3 W0 2.716329 1_555
Te3 W0 2.716329 1_665
Mo0 Te0 2.708299 1_545
Mo0 Te0 2.708301 1_555
Mo0 Te0 2.708301 1_445
Mo0 Te2 2.708487 1_545
Mo0 Te2 2.708489 1_445
Mo0 Te2 2.708489 1_555
S0 W1 2.462723 1_545
S0 W1 2.462725 1_555
S0 W1 2.462725 1_445
S1 W2 2.462415 1_545
S1 W2 2.462417 1_555
S1 W2 2.462417 1_445
S2 W1 2.462652 1_545
S2 W1 2.462654 1_445
S2 W1 2.462654 1_555
S3 W2 2.462936 1_545
S3 W2 2.462938 1_445
S3 W2 2.462938 1_555
