# generated using pymatgen
data_ErPtF7
_symmetry_space_group_name_H-M   'P 1'
_cell_length_a   5.38826327
_cell_length_b   8.69210314
_cell_length_c   11.78756490
_cell_angle_alpha   62.47109242
_cell_angle_beta   90.00000000
_cell_angle_gamma   90.00000000
_symmetry_Int_Tables_number   1
_chemical_formula_structural   ErPtF7
_chemical_formula_sum   'Er4 Pt4 F28'
_cell_volume   489.56748313
_cell_formula_units_Z   4
loop_
 _symmetry_equiv_pos_site_id
 _symmetry_equiv_pos_as_xyz
  1  'x, y, z'
loop_
 _atom_site_type_symbol
 _atom_site_label
 _atom_site_symmetry_multiplicity
 _atom_site_fract_x
 _atom_site_fract_y
 _atom_site_fract_z
 _atom_site_occupancy
  Er  Er0  1  0.76143697  0.81398873  0.76415160  1
  Er  Er1  1  0.26143697  0.18601127  0.73584840  1
  Er  Er2  1  0.23856303  0.18601127  0.23584840  1
  Er  Er3  1  0.73856303  0.81398873  0.26415160  1
  Pt  Pt0  1  0.75863744  0.27138076  0.95749657  1
  Pt  Pt1  1  0.25863744  0.72861924  0.54250343  1
  Pt  Pt2  1  0.24136256  0.72861924  0.04250343  1
  Pt  Pt3  1  0.74136256  0.27138076  0.45749657  1
  F  F0  1  0.43502878  0.70484448  0.91229309  1
  F  F1  1  0.93502878  0.29515552  0.58770691  1
  F  F2  1  0.56497122  0.29515552  0.08770691  1
  F  F3  1  0.06497122  0.70484448  0.41229309  1
  F  F4  1  0.43231960  0.27331522  0.54285715  1
  F  F5  1  0.93231960  0.72668478  0.95714285  1
  F  F6  1  0.56768040  0.72668478  0.45714285  1
  F  F7  1  0.06768040  0.27331522  0.04285715  1
  F  F8  1  0.77695738  0.52270681  0.85949825  1
  F  F9  1  0.27695738  0.47729319  0.64050175  1
  F  F10  1  0.22304262  0.47729319  0.14050175  1
  F  F11  1  0.72304262  0.52270681  0.35949825  1
  F  F12  1  0.75327117  0.01978487  0.05123084  1
  F  F13  1  0.25327117  0.98021513  0.44876916  1
  F  F14  1  0.24672883  0.98021513  0.94876916  1
  F  F15  1  0.74672883  0.01978487  0.55123084  1
  F  F16  1  0.95820330  0.72239749  0.63570351  1
  F  F17  1  0.45820330  0.27760251  0.86429649  1
  F  F18  1  0.04179670  0.27760251  0.36429649  1
  F  F19  1  0.54179670  0.72239749  0.13570351  1
  F  F20  1  0.05493990  0.74571020  0.17750560  1
  F  F21  1  0.55493990  0.25428980  0.32249440  1
  F  F22  1  0.94506010  0.25428980  0.82249440  1
  F  F23  1  0.44506010  0.74571020  0.67750560  1
  F  F24  1  0.40649843  0.96644097  0.23181670  1
  F  F25  1  0.90649843  0.03355903  0.26818330  1
  F  F26  1  0.59350157  0.03355903  0.76818330  1
  F  F27  1  0.09350157  0.96644097  0.73181670  1
loop_
_geom_bond_atom_site_label_1
_geom_bond_atom_site_label_2
_geom_bond_distance
_geom_bond_site_symmetry_2
Er0 F26 2.132460 1_565
Er0 F27 2.153086 1_655
Er0 F23 2.204942 1_555
Er0 F5 2.236744 1_555
Er0 F8 2.247225 1_555
Er0 F16 2.272581 1_555
Er0 F15 2.314121 1_565
Er0 F0 2.347602 1_555
Er1 F27 2.132460 1_545
Er1 F26 2.153086 1_555
Er1 F22 2.204942 1_455
Er1 F4 2.236744 1_555
Er1 F9 2.247225 1_555
Er1 F17 2.272581 1_555
Er1 F14 2.314121 1_545
Er1 F1 2.347602 1_455
Er2 F24 2.132460 1_545
Er2 F25 2.153086 1_455
Er2 F21 2.204942 1_555
Er2 F7 2.236744 1_555
Er2 F10 2.247225 1_555
Er2 F18 2.272581 1_555
Er2 F13 2.314121 1_545
Er2 F2 2.347602 1_555
Er3 F25 2.132460 1_565
Er3 F24 2.153086 1_555
Er3 F20 2.204942 1_655
Er3 F6 2.236744 1_555
Er3 F11 2.247225 1_555
Er3 F19 2.272581 1_555
Er3 F12 2.314121 1_565
Er3 F3 2.347602 1_655
F0 Pt2 1.944391 1_556
F1 Pt3 1.944391 1_555
F2 Pt0 1.944391 1_554
F3 Pt1 1.944391 1_555
F4 Pt3 1.949681 1_555
F5 Pt2 1.949681 1_656
F6 Pt1 1.949681 1_555
F7 Pt0 1.949681 1_454
F8 Pt0 1.945173 1_555
F9 Pt1 1.945173 1_555
F10 Pt2 1.945173 1_555
F11 Pt3 1.945173 1_555
F12 Pt0 1.941790 1_554
F13 Pt1 1.941790 1_555
F14 Pt2 1.941790 1_556
F15 Pt3 1.941790 1_555
F16 Pt1 1.943065 1_655
F17 Pt0 1.943065 1_555
F18 Pt3 1.943065 1_455
F19 Pt2 1.943065 1_555
F20 Pt2 1.944735 1_555
F21 Pt3 1.944735 1_555
F22 Pt0 1.944735 1_555
F23 Pt1 1.944735 1_555
