# generated using pymatgen
data_Zn(CoS2)2
_symmetry_space_group_name_H-M   'P 1'
_cell_length_a   6.82027139
_cell_length_b   6.82027139
_cell_length_c   6.82027139
_cell_angle_alpha   119.57166500
_cell_angle_beta   119.08138261
_cell_angle_gamma   91.17102145
_symmetry_Int_Tables_number   1
_chemical_formula_structural   Zn(CoS2)2
_chemical_formula_sum   'Zn2 Co4 S8'
_cell_volume   226.55867662
_cell_formula_units_Z   2
loop_
 _symmetry_equiv_pos_site_id
 _symmetry_equiv_pos_as_xyz
  1  'x, y, z'
loop_
 _atom_site_type_symbol
 _atom_site_label
 _atom_site_symmetry_multiplicity
 _atom_site_fract_x
 _atom_site_fract_y
 _atom_site_fract_z
 _atom_site_occupancy
  Zn  Zn0  1  0.50000000  0.50000000  0.00000000  1
  Zn  Zn1  1  0.00000000  0.50000000  0.50000000  1
  Co  Co0  1  0.00000000  0.00000000  0.50000000  1
  Co  Co1  1  0.50000000  0.00000000  0.50000000  1
  Co  Co2  1  0.00000000  0.50000000  0.00000000  1
  Co  Co3  1  0.00000000  0.00000000  0.00000000  1
  S  S0  1  0.20662900  0.24294700  0.96368200  1
  S  S1  1  0.76745400  0.79595700  0.52850300  1
  S  S2  1  0.77926500  0.24294700  0.53631800  1
  S  S3  1  0.23254600  0.76104900  0.02850300  1
  S  S4  1  0.22073500  0.75705300  0.46368200  1
  S  S5  1  0.23254600  0.20404300  0.47149700  1
  S  S6  1  0.76745400  0.23895100  0.97149700  1
  S  S7  1  0.79337100  0.75705300  0.03631800  1
loop_
_geom_bond_atom_site_label_1
_geom_bond_atom_site_label_2
_geom_bond_distance
_geom_bond_site_symmetry_2
Co0 S1 2.228548 1_445
Co0 S5 2.228548 1_555
Co0 S2 2.265544 1_455
Co0 S7 2.265544 1_445
Co0 S4 2.265544 1_545
Co0 S0 2.265544 1_555
Co1 S3 2.308216 1_545
Co1 S5 2.308216 1_555
Co1 S1 2.308216 1_545
Co1 S6 2.308216 1_555
Co1 S2 2.332790 1_555
Co1 S4 2.332790 1_545
Co2 S3 2.228548 1_555
Co2 S6 2.228548 1_454
Co2 S7 2.265544 1_455
Co2 S0 2.265544 1_554
Co2 S4 2.265544 1_555
Co2 S2 2.265544 1_454
Co3 S3 2.308216 1_545
Co3 S5 2.308216 1_555
Co3 S6 2.308216 1_454
Co3 S1 2.308216 1_444
Co3 S0 2.332790 1_554
Co3 S7 2.332790 1_445
S0 Zn0 2.466709 1_556
S1 Zn0 2.582811 1_555
S1 Zn1 2.582811 1_655
S2 Zn1 2.466709 1_655
S3 Zn0 2.582811 1_555
S3 Zn1 2.582811 1_554
S4 Zn1 2.466709 1_555
S5 Zn0 2.582811 1_556
S5 Zn1 2.582811 1_555
S6 Zn1 2.582811 1_656
S6 Zn0 2.582811 1_556
S7 Zn0 2.466709 1_555
