# generated using pymatgen
data_Ba2MgUO6
_symmetry_space_group_name_H-M   'P 1'
_cell_length_a   5.99504080
_cell_length_b   5.99504080
_cell_length_c   5.99504080
_cell_angle_alpha   60.00000000
_cell_angle_beta   60.00000000
_cell_angle_gamma   60.00000000
_symmetry_Int_Tables_number   1
_chemical_formula_structural   Ba2MgUO6
_chemical_formula_sum   'Ba2 Mg1 U1 O6'
_cell_volume   152.35665547
_cell_formula_units_Z   1
loop_
 _symmetry_equiv_pos_site_id
 _symmetry_equiv_pos_as_xyz
  1  'x, y, z'
loop_
 _atom_site_type_symbol
 _atom_site_label
 _atom_site_symmetry_multiplicity
 _atom_site_fract_x
 _atom_site_fract_y
 _atom_site_fract_z
 _atom_site_occupancy
  Ba  Ba0  1  0.25000000  0.25000000  0.25000000  1
  Ba  Ba1  1  0.75000000  0.75000000  0.75000000  1
  Mg  Mg0  1  0.00000000  0.00000000  0.00000000  1
  U  U0  1  0.50000000  0.50000000  0.50000000  1
  O  O0  1  0.74733500  0.25266500  0.74733500  1
  O  O1  1  0.25266500  0.25266500  0.74733500  1
  O  O2  1  0.74733500  0.74733500  0.25266500  1
  O  O3  1  0.74733500  0.25266500  0.25266500  1
  O  O4  1  0.25266500  0.74733500  0.25266500  1
  O  O5  1  0.25266500  0.74733500  0.74733500  1
loop_
_geom_bond_atom_site_label_1
_geom_bond_atom_site_label_2
_geom_bond_distance
_geom_bond_site_symmetry_2
Ba0 O1 2.997606 1_555
Ba0 O0 2.997606 1_455
Ba0 O4 2.997606 1_555
Ba0 O2 2.997606 1_545
Ba0 O5 2.997606 1_545
Ba0 O2 2.997606 1_455
Ba0 O4 2.997606 1_545
Ba0 O3 2.997606 1_455
Ba0 O5 2.997606 1_554
Ba0 O3 2.997606 1_555
Ba0 O0 2.997606 1_554
Ba0 O1 2.997606 1_554
Ba1 O4 2.997606 1_556
Ba1 O0 2.997606 1_565
Ba1 O2 2.997606 1_556
Ba1 O1 2.997606 1_655
Ba1 O5 2.997606 1_655
Ba1 O1 2.997606 1_565
Ba1 O3 2.997606 1_556
Ba1 O4 2.997606 1_655
Ba1 O5 2.997606 1_555
Ba1 O0 2.997606 1_555
Ba1 O2 2.997606 1_555
Ba1 O3 2.997606 1_565
Mg0 O4 2.142162 1_545
Mg0 O1 2.142162 1_554
Mg0 O3 2.142162 1_455
Mg0 O0 2.142162 1_454
Mg0 O5 2.142162 1_544
Mg0 O2 2.142162 1_445
O0 U0 2.096972 1_555
O1 U0 2.096972 1_555
O2 U0 2.096972 1_555
O3 U0 2.096972 1_555
O4 U0 2.096972 1_555
O5 U0 2.096972 1_555
