# generated using pymatgen
data_Ti5Zn4(TeO6)3
_symmetry_space_group_name_H-M   'P 1'
_cell_length_a   8.88610573
_cell_length_b   8.88610573
_cell_length_c   10.80906264
_cell_angle_alpha   88.25443579
_cell_angle_beta   88.25443579
_cell_angle_gamma   62.30893528
_symmetry_Int_Tables_number   1
_chemical_formula_structural   Ti5Zn4(TeO6)3
_chemical_formula_sum   'Ti10 Zn8 Te6 O36'
_cell_volume   755.27938563
_cell_formula_units_Z   2
loop_
 _symmetry_equiv_pos_site_id
 _symmetry_equiv_pos_as_xyz
  1  'x, y, z'
loop_
 _atom_site_type_symbol
 _atom_site_label
 _atom_site_symmetry_multiplicity
 _atom_site_fract_x
 _atom_site_fract_y
 _atom_site_fract_z
 _atom_site_occupancy
  Ti  Ti0  1  0.31056700  0.00657900  0.71937700  1
  Ti  Ti1  1  0.00657900  0.31056700  0.21937700  1
  Ti  Ti2  1  0.13456900  0.54473600  0.05390300  1
  Ti  Ti3  1  0.54473600  0.13456900  0.55390300  1
  Ti  Ti4  1  0.45526400  0.86543100  0.44609700  1
  Ti  Ti5  1  0.85014800  0.14985200  0.75000000  1
  Ti  Ti6  1  0.14985200  0.85014800  0.25000000  1
  Ti  Ti7  1  0.86543100  0.45526400  0.94609700  1
  Ti  Ti8  1  0.68943300  0.99342100  0.28062300  1
  Ti  Ti9  1  0.99342100  0.68943300  0.78062300  1
  Zn  Zn0  1  0.34395400  0.05715800  0.06744500  1
  Zn  Zn1  1  0.39555800  0.68352300  0.95300300  1
  Zn  Zn2  1  0.94284200  0.65604600  0.43255500  1
  Zn  Zn3  1  0.31647700  0.60444200  0.54699700  1
  Zn  Zn4  1  0.68352300  0.39555800  0.45300300  1
  Zn  Zn5  1  0.05715800  0.34395400  0.56744500  1
  Zn  Zn6  1  0.65604600  0.94284200  0.93255500  1
  Zn  Zn7  1  0.60444200  0.31647700  0.04699700  1
  Te  Te0  1  0.65964900  0.65543000  0.69290900  1
  Te  Te1  1  0.00000000  0.00000000  0.00000000  1
  Te  Te2  1  0.00000000  0.00000000  0.50000000  1
  Te  Te3  1  0.65543000  0.65964900  0.19290900  1
  Te  Te4  1  0.34035100  0.34457000  0.30709100  1
  Te  Te5  1  0.34457000  0.34035100  0.80709100  1
  O  O0  1  0.91716200  0.59992700  0.61965500  1
  O  O1  1  0.25943100  0.95067100  0.55211900  1
  O  O2  1  0.36624300  0.80558600  0.31843100  1
  O  O3  1  0.90355700  0.90890100  0.24668900  1
  O  O4  1  0.04932900  0.74056900  0.94788100  1
  O  O5  1  0.09109900  0.09644300  0.25331100  1
  O  O6  1  0.63084000  0.53821900  0.02872600  1
  O  O7  1  0.87883100  0.26891500  0.56599500  1
  O  O8  1  0.12116900  0.73108500  0.43400500  1
  O  O9  1  0.22921900  0.29492100  0.14453600  1
  O  O10  1  0.42620400  0.77382500  0.78865200  1
  O  O11  1  0.77078100  0.70507900  0.85546400  1
  O  O12  1  0.74056900  0.04932900  0.44788100  1
  O  O13  1  0.56426600  0.89914000  0.61568600  1
  O  O14  1  0.22617500  0.57379600  0.71134800  1
  O  O15  1  0.36916000  0.46178100  0.97127400  1
  O  O16  1  0.57379600  0.22617500  0.21134800  1
  O  O17  1  0.10086000  0.43573400  0.88431400  1
  O  O18  1  0.19441400  0.63375700  0.18156900  1
  O  O19  1  0.77382500  0.42620400  0.28865200  1
  O  O20  1  0.59992700  0.91716200  0.11965500  1
  O  O21  1  0.43573400  0.10086000  0.38431400  1
  O  O22  1  0.73108500  0.12116900  0.93400500  1
  O  O23  1  0.53821900  0.63084000  0.52872600  1
  O  O24  1  0.63375700  0.19441400  0.68156900  1
  O  O25  1  0.90890100  0.90355700  0.74668900  1
  O  O26  1  0.29492100  0.22921900  0.64453600  1
  O  O27  1  0.46178100  0.36916000  0.47127400  1
  O  O28  1  0.95067100  0.25943100  0.05211900  1
  O  O29  1  0.89914000  0.56426600  0.11568600  1
  O  O30  1  0.08283800  0.40007300  0.38034500  1
  O  O31  1  0.09644300  0.09109900  0.75331100  1
  O  O32  1  0.26891500  0.87883100  0.06599500  1
  O  O33  1  0.70507900  0.77078100  0.35546400  1
  O  O34  1  0.80558600  0.36624300  0.81843100  1
  O  O35  1  0.40007300  0.08283800  0.88034500  1
loop_
_geom_bond_atom_site_label_1
_geom_bond_atom_site_label_2
_geom_bond_distance
_geom_bond_site_symmetry_2
O0 Zn2 2.099277 1_555
O0 Zn5 2.108416 1_655
O0 Ti9 2.185443 1_555
O0 Te0 2.229563 1_555
O1 Ti4 1.903061 1_555
O1 Ti0 2.009075 1_565
O1 Te2 2.224625 1_565
O2 Ti4 1.820716 1_555
O2 Ti6 1.939715 1_555
O2 Te3 2.631294 1_555
O3 Ti8 1.721943 1_555
O3 Ti6 2.001373 1_655
O4 Ti2 1.903061 1_556
O4 Ti9 2.009075 1_455
O4 Te1 2.224625 1_566
O5 Ti1 1.721943 1_555
O5 Ti6 2.001373 1_545
O6 Ti7 2.045763 1_554
O6 Zn1 2.058930 1_554
O6 Zn7 2.092761 1_555
O6 Te3 2.172770 1_555
O7 Zn5 1.984977 1_655
O7 Zn4 2.000085 1_555
O7 Te2 2.245920 1_655
O7 Ti5 2.287290 1_555
O8 Zn2 1.984977 1_455
O8 Zn3 2.000085 1_555
O8 Te2 2.245920 1_565
O8 Ti6 2.287290 1_555
O9 Ti1 2.059497 1_555
O9 Zn0 2.061838 1_555
O9 Ti2 2.185735 1_555
O9 Te4 2.194314 1_555
O10 Ti0 1.967643 1_565
O10 Zn1 1.990155 1_555
O10 Te0 2.094811 1_555
O11 Ti9 2.059497 1_555
O11 Zn6 2.061838 1_555
O11 Ti7 2.185735 1_555
O11 Te0 2.194314 1_555
O12 Ti3 1.903061 1_555
O12 Ti8 2.009075 1_545
O12 Te2 2.224625 1_655
O13 Te0 2.081369 1_555
O13 Ti3 2.106482 1_565
O13 Ti4 2.190763 1_555
O13 Ti0 2.271754 1_565
O14 Ti9 1.967643 1_455
O14 Zn3 1.990155 1_555
O14 Te5 2.094811 1_555
O15 Ti2 2.045763 1_556
O15 Zn7 2.058930 1_556
O15 Zn1 2.092761 1_555
O15 Te5 2.172770 1_555
O16 Ti8 1.967643 1_545
O16 Zn7 1.990155 1_555
O16 Te4 2.094811 1_555
O17 Te5 2.081369 1_555
O17 Ti7 2.106482 1_455
O17 Ti2 2.190763 1_556
O17 Ti9 2.271754 1_455
O18 Ti2 1.820716 1_555
O18 Ti6 1.939715 1_555
O18 Te4 2.631294 1_555
O19 Ti1 1.967643 1_655
O19 Zn4 1.990155 1_555
O19 Te3 2.094811 1_555
O20 Zn6 2.099277 1_554
O20 Zn0 2.108416 1_565
O20 Ti8 2.185443 1_555
O20 Te3 2.229563 1_555
O21 Te4 2.081369 1_555
O21 Ti4 2.106482 1_545
O21 Ti3 2.190763 1_555
O21 Ti8 2.271754 1_545
O22 Zn6 1.984977 1_545
O22 Zn7 2.000085 1_556
O22 Te1 2.245920 1_656
O22 Ti5 2.287290 1_555
O23 Ti4 2.045763 1_555
O23 Zn4 2.058930 1_555
O23 Zn3 2.092761 1_555
O23 Te0 2.172770 1_555
O24 Ti3 1.820716 1_555
O24 Ti5 1.939715 1_555
O24 Te5 2.631294 1_555
O25 Ti9 1.721943 1_555
O25 Ti5 2.001373 1_565
O26 Ti0 2.059497 1_555
O26 Zn5 2.061838 1_555
O26 Ti3 2.185735 1_555
O26 Te5 2.194314 1_555
O27 Ti3 2.045763 1_555
O27 Zn3 2.058930 1_555
O27 Zn4 2.092761 1_555
O27 Te4 2.172770 1_555
O28 Ti7 1.903061 1_554
O28 Ti1 2.009075 1_655
O28 Te1 2.224625 1_655
O29 Te3 2.081369 1_555
O29 Ti2 2.106482 1_655
O29 Ti7 2.190763 1_554
O29 Ti1 2.271754 1_655
O30 Zn5 2.099277 1_555
O30 Zn2 2.108416 1_455
O30 Ti1 2.185443 1_555
O30 Te4 2.229563 1_555
O31 Ti0 1.721943 1_555
O31 Ti5 2.001373 1_455
O32 Zn0 1.984977 1_565
O32 Zn1 2.000085 1_554
O32 Te1 2.245920 1_565
O32 Ti6 2.287290 1_555
O33 Ti8 2.059497 1_555
O33 Zn2 2.061838 1_555
O33 Ti4 2.185735 1_555
O33 Te3 2.194314 1_555
O34 Ti7 1.820716 1_555
O34 Ti5 1.939715 1_555
O34 Te0 2.631294 1_555
O35 Zn0 2.099277 1_556
O35 Zn6 2.108416 1_545
O35 Ti0 2.185443 1_555
O35 Te5 2.229563 1_555
