# generated using pymatgen
data_Ca10Si5(ClO10)2
_symmetry_space_group_name_H-M   'P 1'
_cell_length_a   10.15057018
_cell_length_b   10.15057018
_cell_length_c   15.63347147
_cell_angle_alpha   84.78671540
_cell_angle_beta   84.78671540
_cell_angle_gamma   135.24349771
_symmetry_Int_Tables_number   1
_chemical_formula_structural   Ca10Si5(ClO10)2
_chemical_formula_sum   'Ca20 Si10 Cl4 O40'
_cell_volume   1101.36900697
_cell_formula_units_Z   2
loop_
 _symmetry_equiv_pos_site_id
 _symmetry_equiv_pos_as_xyz
  1  'x, y, z'
loop_
 _atom_site_type_symbol
 _atom_site_label
 _atom_site_symmetry_multiplicity
 _atom_site_fract_x
 _atom_site_fract_y
 _atom_site_fract_z
 _atom_site_occupancy
  Ca  Ca0  1  0.13734300  0.34358200  0.25042600  1
  Ca  Ca1  1  0.65641800  0.86265700  0.24957400  1
  Ca  Ca2  1  0.86265700  0.65641800  0.74957400  1
  Ca  Ca3  1  0.34358200  0.13734300  0.75042600  1
  Ca  Ca4  1  0.37526000  0.48150600  0.88242400  1
  Ca  Ca5  1  0.51849400  0.62474000  0.61757600  1
  Ca  Ca6  1  0.62474000  0.51849400  0.11757600  1
  Ca  Ca7  1  0.48150600  0.37526000  0.38242400  1
  Ca  Ca8  1  0.11910200  0.03237200  0.09651600  1
  Ca  Ca9  1  0.96762800  0.88089800  0.40348400  1
  Ca  Ca10  1  0.88089800  0.96762800  0.90348400  1
  Ca  Ca11  1  0.03237200  0.11910200  0.59651600  1
  Ca  Ca12  1  0.54877600  0.09459800  0.09983900  1
  Ca  Ca13  1  0.90540200  0.45122400  0.40016100  1
  Ca  Ca14  1  0.45122400  0.90540200  0.90016100  1
  Ca  Ca15  1  0.09459800  0.54877600  0.59983900  1
  Ca  Ca16  1  0.06989800  0.59845800  0.10520700  1
  Ca  Ca17  1  0.40154200  0.93010200  0.39479300  1
  Ca  Ca18  1  0.93010200  0.40154200  0.89479300  1
  Ca  Ca19  1  0.59845800  0.06989800  0.60520700  1
  Si  Si0  1  0.98605600  0.75064800  0.93845700  1
  Si  Si1  1  0.24935200  0.01394400  0.56154300  1
  Si  Si2  1  0.01394400  0.24935200  0.06154300  1
  Si  Si3  1  0.75064800  0.98605600  0.43845700  1
  Si  Si4  1  0.56028000  0.32821900  0.93586900  1
  Si  Si5  1  0.67178100  0.43972000  0.56413100  1
  Si  Si6  1  0.43972000  0.67178100  0.06413100  1
  Si  Si7  1  0.32821900  0.56028000  0.43586900  1
  Si  Si8  1  0.72252000  0.27748000  0.25000000  1
  Si  Si9  1  0.27748000  0.72252000  0.75000000  1
  Cl  Cl0  1  0.71232000  0.80607700  0.75451500  1
  Cl  Cl1  1  0.19392300  0.28768000  0.74548500  1
  Cl  Cl2  1  0.28768000  0.19392300  0.24548500  1
  Cl  Cl3  1  0.80607700  0.71232000  0.25451500  1
  O  O0  1  0.20362900  0.46181800  0.08436100  1
  O  O1  1  0.53818200  0.79637100  0.41563900  1
  O  O2  1  0.79637100  0.53818200  0.91563900  1
  O  O3  1  0.46181800  0.20362900  0.58436100  1
  O  O4  1  0.49579300  0.34905400  0.84838800  1
  O  O5  1  0.65094600  0.50420700  0.65161200  1
  O  O6  1  0.50420700  0.65094600  0.15161200  1
  O  O7  1  0.34905400  0.49579300  0.34838800  1
  O  O8  1  0.57232000  0.17574700  0.94444900  1
  O  O9  1  0.82425300  0.42768000  0.55555100  1
  O  O10  1  0.42768000  0.82425300  0.05555100  1
  O  O11  1  0.17574700  0.57232000  0.44444900  1
  O  O12  1  0.62148100  0.27290800  0.34121000  1
  O  O13  1  0.72709200  0.37851900  0.15879000  1
  O  O14  1  0.37851900  0.72709200  0.65879000  1
  O  O15  1  0.27290800  0.62148100  0.84121000  1
  O  O16  1  0.44699900  0.30177600  0.02800700  1
  O  O17  1  0.69822400  0.55300100  0.47199300  1
  O  O18  1  0.55300100  0.69822400  0.97199300  1
  O  O19  1  0.30177600  0.44699900  0.52800700  1
  O  O20  1  0.91322000  0.78834200  0.02137900  1
  O  O21  1  0.21165800  0.08678000  0.47862100  1
  O  O22  1  0.08678000  0.21165800  0.97862100  1
  O  O23  1  0.78834200  0.91322000  0.52137900  1
  O  O24  1  0.90041600  0.05580300  0.34931100  1
  O  O25  1  0.94419700  0.09958300  0.15068900  1
  O  O26  1  0.09958300  0.94419700  0.65068900  1
  O  O27  1  0.05580300  0.90041700  0.84931100  1
  O  O28  1  0.94984900  0.40538900  0.25266900  1
  O  O29  1  0.59461100  0.05015100  0.24733100  1
  O  O30  1  0.05015100  0.59461100  0.74733100  1
  O  O31  1  0.40538900  0.94984900  0.75266900  1
  O  O32  1  0.72750600  0.12360200  0.45878700  1
  O  O33  1  0.87639800  0.27249400  0.04121300  1
  O  O34  1  0.27249400  0.87639800  0.54121300  1
  O  O35  1  0.12360200  0.72750600  0.95878700  1
  O  O36  1  0.21196200  0.88788800  0.13967100  1
  O  O37  1  0.11211200  0.78803800  0.36032900  1
  O  O38  1  0.78803800  0.11211200  0.86032900  1
  O  O39  1  0.88788800  0.21196200  0.63967100  1
loop_
_geom_bond_atom_site_label_1
_geom_bond_atom_site_label_2
_geom_bond_distance
_geom_bond_site_symmetry_2
Ca0 O24 2.287600 1_455
Ca0 O7 2.379779 1_555
Ca0 O28 2.388409 1_455
Ca0 O0 2.569571 1_555
Ca0 O25 2.601978 1_455
Ca0 O6 2.750640 1_555
Ca0 Cl2 2.816847 1_555
Ca1 O25 2.287599 1_565
Ca1 O6 2.379779 1_555
Ca1 O29 2.388409 1_565
Ca1 O1 2.569571 1_555
Ca1 O24 2.601973 1_565
Ca1 O7 2.750640 1_555
Ca1 Cl3 2.816847 1_555
Ca2 O26 2.287599 1_655
Ca2 O5 2.379779 1_555
Ca2 O30 2.388409 1_655
Ca2 O2 2.569571 1_555
Ca2 O27 2.601978 1_655
Ca2 O4 2.750640 1_555
Ca2 Cl0 2.816847 1_555
Ca3 O27 2.287599 1_545
Ca3 O4 2.379779 1_555
Ca3 O31 2.388409 1_545
Ca3 O3 2.569571 1_555
Ca3 O26 2.601978 1_545
Ca3 O5 2.750640 1_555
Ca3 Cl1 2.816847 1_555
Ca4 O22 2.323562 1_555
Ca4 O18 2.331796 1_555
Ca4 O15 2.359022 1_555
Ca4 O4 2.436278 1_555
Ca4 Cl0 2.847724 1_555
Ca4 Cl1 2.860145 1_555
Ca5 O23 2.323562 1_555
Ca5 O19 2.331796 1_555
Ca5 O14 2.359022 1_555
Ca5 O5 2.436278 1_555
Ca5 Cl1 2.847724 1_555
Ca5 Cl0 2.860145 1_555
Ca6 O20 2.323562 1_555
Ca6 O16 2.331796 1_555
Ca6 O13 2.359022 1_555
Ca6 O6 2.436278 1_555
Ca6 Cl2 2.847724 1_555
Ca6 Cl3 2.860145 1_555
Ca7 O21 2.323562 1_555
Ca7 O17 2.331796 1_555
Ca7 O12 2.359022 1_555
Ca7 O7 2.436278 1_555
Ca7 Cl3 2.847724 1_555
Ca7 Cl2 2.860145 1_555
Ca8 O36 2.322405 1_545
Ca8 O20 2.346474 1_445
Ca8 O16 2.365721 1_555
Ca8 O25 2.426239 1_455
Ca8 O22 2.676728 1_554
Ca8 Cl2 2.911014 1_555
Ca8 Cl3 3.034242 1_445
Ca9 O37 2.322405 1_655
Ca9 O21 2.346474 1_665
Ca9 O17 2.365721 1_555
Ca9 O24 2.426248 1_565
Ca9 O23 2.676728 1_555
Ca9 Cl3 2.911014 1_555
Ca9 Cl2 3.034242 1_665
Ca10 O38 2.322405 1_565
Ca10 O22 2.346474 1_665
Ca10 O18 2.365721 1_555
Ca10 O27 2.426239 1_655
Ca10 O20 2.676728 1_556
Ca10 Cl0 2.911014 1_555
Ca10 Cl1 3.034242 1_665
Ca11 O39 2.322405 1_455
Ca11 O23 2.346474 1_445
Ca11 O19 2.365721 1_555
Ca11 O26 2.426239 1_545
Ca11 O21 2.676728 1_555
Ca11 Cl1 2.911014 1_555
Ca11 Cl0 3.034242 1_445
Ca12 O10 2.286946 1_545
Ca12 O36 2.380469 1_545
Ca12 O33 2.403510 1_555
Ca12 O13 2.410115 1_555
Ca12 O8 2.426586 1_554
Ca12 O29 2.457801 1_555
Ca13 O11 2.286946 1_655
Ca13 O37 2.380469 1_655
Ca13 O32 2.403510 1_555
Ca13 O12 2.410115 1_555
Ca13 O9 2.426586 1_555
Ca13 O28 2.457801 1_555
Ca14 O8 2.286946 1_565
Ca14 O38 2.380469 1_565
Ca14 O35 2.403510 1_555
Ca14 O15 2.410115 1_555
Ca14 O10 2.426586 1_556
Ca14 O31 2.457801 1_555
Ca15 O9 2.286946 1_455
Ca15 O39 2.380469 1_455
Ca15 O34 2.403510 1_555
Ca15 O14 2.410115 1_555
Ca15 O11 2.426586 1_555
Ca15 O30 2.457801 1_555
Ca16 O36 2.326584 1_555
Ca16 O35 2.338162 1_554
Ca16 O13 2.427266 1_455
Ca16 O28 2.432495 1_455
Ca16 O10 2.527417 1_555
Ca16 O0 2.558946 1_555
Ca16 O33 2.745064 1_455
Ca17 O37 2.326584 1_555
Ca17 O34 2.338162 1_555
Ca17 O12 2.427266 1_565
Ca17 O29 2.432495 1_565
Ca17 O11 2.527417 1_555
Ca17 O1 2.558946 1_555
Ca17 O32 2.745064 1_565
Ca18 O38 2.326584 1_555
Ca18 O33 2.338162 1_556
Ca18 O15 2.427266 1_655
Ca18 O30 2.432495 1_655
Ca18 O8 2.527417 1_555
Ca18 O2 2.558946 1_555
Ca18 O35 2.745064 1_655
Ca19 O39 2.326584 1_555
Ca19 O32 2.338162 1_555
Ca19 O14 2.427266 1_545
Ca19 O31 2.432495 1_545
Ca19 O9 2.527417 1_555
Ca19 O3 2.558946 1_555
Ca19 O34 2.745064 1_545
O0 Si2 1.689050 1_555
O0 Si6 1.694513 1_555
O1 Si3 1.689050 1_555
O1 Si7 1.694513 1_555
O2 Si0 1.689050 1_555
O2 Si4 1.694513 1_555
O3 Si1 1.689050 1_555
O3 Si5 1.694513 1_555
O4 Si4 1.627989 1_555
O5 Si5 1.627989 1_555
O6 Si6 1.627989 1_555
O7 Si7 1.627989 1_555
O8 Si4 1.631599 1_555
O9 Si5 1.631599 1_555
O10 Si6 1.631599 1_555
O11 Si7 1.631599 1_555
O12 Si8 1.655869 1_555
O13 Si8 1.655869 1_555
O14 Si9 1.655869 1_555
O15 Si9 1.655869 1_555
O16 Si4 1.630800 1_554
O17 Si5 1.630800 1_555
O18 Si6 1.630800 1_556
O19 Si7 1.630800 1_555
O20 Si0 1.640505 1_554
O21 Si1 1.640505 1_555
O22 Si2 1.640505 1_556
O23 Si3 1.640505 1_555
O24 Si3 1.631485 1_545
O25 Si2 1.631491 1_655
O26 Si1 1.631491 1_565
O27 Si0 1.631491 1_455
O28 Si8 1.668693 1_555
O29 Si8 1.668693 1_555
O30 Si9 1.668693 1_555
O31 Si9 1.668693 1_555
O32 Si3 1.624297 1_545
O33 Si2 1.624297 1_655
O34 Si1 1.624297 1_565
O35 Si0 1.624297 1_455
