# generated using pymatgen
data_CsMg14Co
_symmetry_space_group_name_H-M   'P 1'
_cell_length_a   6.44754832
_cell_length_b   6.44754779
_cell_length_c   10.73670943
_cell_angle_alpha   90.00000000
_cell_angle_beta   90.00000000
_cell_angle_gamma   120.00000274
_symmetry_Int_Tables_number   1
_chemical_formula_structural   CsMg14Co
_chemical_formula_sum   'Cs1 Mg14 Co1'
_cell_volume   386.53693147
_cell_formula_units_Z   1
loop_
 _symmetry_equiv_pos_site_id
 _symmetry_equiv_pos_as_xyz
  1  'x, y, z'
loop_
 _atom_site_type_symbol
 _atom_site_label
 _atom_site_symmetry_multiplicity
 _atom_site_fract_x
 _atom_site_fract_y
 _atom_site_fract_z
 _atom_site_occupancy
  Cs  Cs0  1  0.16666700  0.33333300  0.62500000  1
  Mg  Mg0  1  0.15194122  0.82597011  0.12500000  1
  Mg  Mg1  1  0.17300488  0.83650194  0.62500000  1
  Mg  Mg2  1  0.67402989  0.34805878  0.12500000  1
  Mg  Mg3  1  0.66349806  0.32699512  0.62500000  1
  Mg  Mg4  1  0.67402989  0.82597011  0.12500000  1
  Mg  Mg5  1  0.66349806  0.83650194  0.62500000  1
  Mg  Mg6  1  0.32983256  0.17016744  0.33570391  1
  Mg  Mg7  1  0.32983256  0.17016744  0.91429609  1
  Mg  Mg8  1  0.32983256  0.65966611  0.33570391  1
  Mg  Mg9  1  0.32983256  0.65966611  0.91429609  1
  Mg  Mg10  1  0.84033389  0.17016744  0.33570391  1
  Mg  Mg11  1  0.84033389  0.17016744  0.91429609  1
  Mg  Mg12  1  0.83333300  0.66666700  0.38576056  1
  Mg  Mg13  1  0.83333300  0.66666700  0.86423944  1
  Co  Co0  1  0.16666700  0.33333300  0.12500000  1
loop_
_geom_bond_atom_site_label_1
_geom_bond_atom_site_label_2
_geom_bond_distance
_geom_bond_site_symmetry_2
Cs0 Mg1 3.223968 1_555
Cs0 Mg5 3.223968 1_555
Cs0 Mg5 3.223968 1_445
Cs0 Mg1 3.223968 1_545
Cs0 Mg3 3.223968 1_555
Cs0 Mg3 3.223968 1_455
Cs0 Mg6 3.601112 1_555
Cs0 Mg7 3.601112 1_555
Cs0 Mg9 3.601118 1_555
Cs0 Mg8 3.601118 1_555
Cs0 Mg10 3.601118 1_455
Cs0 Mg11 3.601118 1_455
Mg0 Mg8 2.968659 1_555
Mg0 Mg9 2.968659 1_554
Mg0 Mg7 2.968666 1_564
Mg0 Mg6 2.968666 1_565
Mg0 Mg2 3.081356 1_455
Mg0 Mg4 3.081356 1_455
Mg0 Mg12 3.317124 1_455
Mg0 Mg13 3.317124 1_454
Mg0 Mg2 3.366192 1_565
Mg0 Mg4 3.366192 1_555
Mg1 Mg13 3.192989 1_455
Mg1 Mg12 3.192989 1_455
Mg2 Mg7 2.968666 1_554
Mg2 Mg6 2.968666 1_555
Mg2 Mg4 3.081356 1_555
Mg2 Mg4 3.366192 1_545
Mg4 Mg9 2.968666 1_554
Mg4 Mg8 2.968666 1_555
Mg10 Mg2 2.968659 1_555
Mg10 Mg4 2.968666 1_545
Mg10 Mg12 3.268500 1_545
Mg10 Mg12 3.268500 1_555
Mg11 Mg2 2.968659 1_556
Mg11 Mg4 2.968666 1_546
Mg11 Mg13 3.268500 1_545
Mg11 Mg13 3.268500 1_555
Mg12 Mg5 3.192982 1_555
Mg12 Mg3 3.192988 1_555
Mg12 Mg6 3.268500 1_665
Mg12 Mg6 3.268500 1_555
Mg12 Mg8 3.268500 1_555
Mg12 Mg8 3.268500 1_655
Mg12 Mg4 3.317118 1_555
Mg12 Mg2 3.317124 1_555
Mg13 Mg5 3.192982 1_555
Mg13 Mg3 3.192988 1_555
Mg13 Mg7 3.268500 1_665
Mg13 Mg7 3.268500 1_555
Mg13 Mg9 3.268500 1_555
Mg13 Mg9 3.268500 1_655
Mg13 Mg4 3.317118 1_556
Mg13 Mg2 3.317124 1_556
Co0 Mg6 2.904836 1_555
Co0 Mg7 2.904836 1_554
Co0 Mg9 2.904843 1_554
Co0 Mg8 2.904843 1_555
Co0 Mg10 2.904843 1_455
Co0 Mg11 2.904843 1_454
Co0 Mg0 3.224822 1_545
Co0 Mg4 3.224822 1_445
Co0 Mg0 3.224822 1_555
Co0 Mg4 3.224822 1_555
Co0 Mg2 3.224823 1_455
Co0 Mg2 3.224823 1_555
