# generated using pymatgen
data_CeMg15
_symmetry_space_group_name_H-M   'P 1'
_cell_length_a   6.53060327
_cell_length_b   6.53053612
_cell_length_c   10.25227190
_cell_angle_alpha   90.00000000
_cell_angle_beta   90.00000000
_cell_angle_gamma   120.00071376
_symmetry_Int_Tables_number   1
_chemical_formula_structural   CeMg15
_chemical_formula_sum   'Ce1 Mg15'
_cell_volume   378.66028786
_cell_formula_units_Z   1
loop_
 _symmetry_equiv_pos_site_id
 _symmetry_equiv_pos_as_xyz
  1  'x, y, z'
loop_
 _atom_site_type_symbol
 _atom_site_label
 _atom_site_symmetry_multiplicity
 _atom_site_fract_x
 _atom_site_fract_y
 _atom_site_fract_z
 _atom_site_occupancy
  Ce  Ce0  1  0.16665913  0.33332127  0.12500000  1
  Mg  Mg0  1  0.16666861  0.33333622  0.62500000  1
  Mg  Mg1  1  0.18036749  0.84016962  0.12500000  1
  Mg  Mg2  1  0.16159506  0.83079397  0.62500000  1
  Mg  Mg3  1  0.65983064  0.31966229  0.12500000  1
  Mg  Mg4  1  0.66921489  0.33842979  0.62500000  1
  Mg  Mg5  1  0.65980413  0.84017162  0.12500000  1
  Mg  Mg6  1  0.66919890  0.83079297  0.62500000  1
  Mg  Mg7  1  0.33388654  0.16609896  0.38134278  1
  Mg  Mg8  1  0.33388654  0.16609896  0.86865722  1
  Mg  Mg9  1  0.33389989  0.66779877  0.38133981  1
  Mg  Mg10  1  0.33389989  0.66779877  0.86866019  1
  Mg  Mg11  1  0.83221342  0.16609796  0.38134178  1
  Mg  Mg12  1  0.83221342  0.16609796  0.86865822  1
  Mg  Mg13  1  0.83333072  0.66666444  0.36390097  1
  Mg  Mg14  1  0.83333072  0.66666444  0.88609903  1
loop_
_geom_bond_atom_site_label_1
_geom_bond_atom_site_label_2
_geom_bond_distance
_geom_bond_site_symmetry_2
Ce0 Mg12 3.237994 1_454
Ce0 Mg11 3.237994 1_455
Ce0 Mg7 3.238022 1_555
Ce0 Mg8 3.238022 1_554
Ce0 Mg10 3.238072 1_554
Ce0 Mg9 3.238072 1_555
Ce0 Mg1 3.266149 1_555
Ce0 Mg5 3.266153 1_555
Ce0 Mg5 3.266186 1_445
Ce0 Mg3 3.266208 1_455
Ce0 Mg3 3.266222 1_555
Ce0 Mg1 3.266228 1_545
Mg0 Mg7 3.133404 1_555
Mg0 Mg8 3.133404 1_555
Mg0 Mg11 3.133406 1_455
Mg0 Mg12 3.133406 1_455
Mg0 Mg9 3.133435 1_555
Mg0 Mg10 3.133435 1_555
Mg0 Mg6 3.265334 1_555
Mg0 Mg2 3.265359 1_555
Mg0 Mg6 3.265418 1_445
Mg0 Mg4 3.265425 1_555
Mg0 Mg2 3.265429 1_545
Mg0 Mg4 3.265432 1_455
Mg1 Mg5 3.131004 1_555
Mg1 Mg3 3.131230 1_565
Mg1 Mg13 3.138661 1_455
Mg1 Mg14 3.138661 1_454
Mg1 Mg10 3.210590 1_554
Mg1 Mg9 3.210590 1_555
Mg1 Mg7 3.210687 1_565
Mg1 Mg8 3.210687 1_564
Mg1 Mg3 3.399269 1_455
Mg1 Mg5 3.399599 1_455
Mg2 Mg8 3.136436 1_565
Mg2 Mg7 3.136436 1_565
Mg2 Mg9 3.136463 1_555
Mg2 Mg4 3.215436 1_455
Mg2 Mg6 3.215641 1_455
Mg2 Mg6 3.314963 1_555
Mg2 Mg4 3.315063 1_565
Mg3 Mg5 3.131245 1_545
Mg3 Mg7 3.210741 1_555
Mg3 Mg8 3.210741 1_554
Mg3 Mg5 3.399292 1_555
Mg4 Mg7 3.136529 1_555
Mg4 Mg8 3.136529 1_555
Mg4 Mg6 3.215448 1_555
Mg4 Mg6 3.315088 1_545
Mg5 Mg9 3.210587 1_555
Mg6 Mg9 3.136453 1_555
Mg7 Mg9 3.254211 1_545
Mg7 Mg9 3.276325 1_555
Mg10 Mg6 3.136453 1_555
Mg10 Mg2 3.136463 1_555
Mg10 Mg5 3.210587 1_556
Mg10 Mg12 3.254189 1_565
Mg10 Mg8 3.254211 1_565
Mg10 Mg14 3.270186 1_555
Mg10 Mg14 3.270212 1_455
Mg10 Mg12 3.276310 1_455
Mg10 Mg8 3.276325 1_555
Mg11 Mg6 3.136444 1_545
Mg11 Mg4 3.136551 1_555
Mg11 Mg5 3.210668 1_545
Mg11 Mg3 3.210748 1_555
Mg11 Mg9 3.254189 1_545
Mg11 Mg7 3.254378 1_555
Mg11 Mg13 3.270115 1_545
Mg11 Mg13 3.270217 1_555
Mg11 Mg7 3.276225 1_655
Mg11 Mg9 3.276310 1_655
Mg12 Mg6 3.136444 1_545
Mg12 Mg4 3.136551 1_555
Mg12 Mg5 3.210668 1_546
Mg12 Mg3 3.210748 1_556
Mg12 Mg8 3.254378 1_555
Mg12 Mg14 3.270115 1_545
Mg12 Mg14 3.270217 1_555
Mg12 Mg8 3.276225 1_655
Mg13 Mg3 3.138526 1_555
Mg13 Mg5 3.138658 1_555
Mg13 Mg4 3.257548 1_555
Mg13 Mg6 3.257648 1_555
Mg13 Mg2 3.257655 1_655
Mg13 Mg7 3.270117 1_665
Mg13 Mg7 3.270180 1_555
Mg13 Mg9 3.270186 1_555
Mg13 Mg9 3.270212 1_655
Mg14 Mg3 3.138526 1_556
Mg14 Mg5 3.138658 1_556
Mg14 Mg4 3.257548 1_555
Mg14 Mg6 3.257648 1_555
Mg14 Mg2 3.257655 1_655
Mg14 Mg8 3.270117 1_665
Mg14 Mg8 3.270180 1_555
