# generated using pymatgen
data_LaGaPt
_symmetry_space_group_name_H-M   'P 1'
_cell_length_a   4.55976904
_cell_length_b   7.29245548
_cell_length_c   7.79045185
_cell_angle_alpha   90.00000000
_cell_angle_beta   90.00000000
_cell_angle_gamma   90.00000000
_symmetry_Int_Tables_number   1
_chemical_formula_structural   LaGaPt
_chemical_formula_sum   'La4 Ga4 Pt4'
_cell_volume   259.04742499
_cell_formula_units_Z   4
loop_
 _symmetry_equiv_pos_site_id
 _symmetry_equiv_pos_as_xyz
  1  'x, y, z'
loop_
 _atom_site_type_symbol
 _atom_site_label
 _atom_site_symmetry_multiplicity
 _atom_site_fract_x
 _atom_site_fract_y
 _atom_site_fract_z
 _atom_site_occupancy
  La  La0  1  0.25000000  0.02574757  0.69433661  1
  La  La1  1  0.25000000  0.52574757  0.80566239  1
  La  La2  1  0.75000000  0.97425243  0.30566239  1
  La  La3  1  0.75000000  0.47425243  0.19433661  1
  Ga  Ga0  1  0.25000000  0.16276637  0.07510856  1
  Ga  Ga1  1  0.25000000  0.66276637  0.42489244  1
  Ga  Ga2  1  0.75000000  0.83723363  0.92489244  1
  Ga  Ga3  1  0.75000000  0.33723363  0.57510856  1
  Pt  Pt0  1  0.25000000  0.28525874  0.39962234  1
  Pt  Pt1  1  0.25000000  0.78525874  0.10037766  1
  Pt  Pt2  1  0.75000000  0.71474126  0.60037766  1
  Pt  Pt3  1  0.75000000  0.21474126  0.89962234  1
loop_
_geom_bond_atom_site_label_1
_geom_bond_atom_site_label_2
_geom_bond_distance
_geom_bond_site_symmetry_2
La0 Pt0 2.975378 1_555
La0 Pt3 3.107257 1_455
La0 Pt3 3.107257 1_555
La0 Pt2 3.298105 1_445
La0 Pt2 3.298105 1_545
La1 Pt1 2.975384 1_556
La1 Pt2 3.107253 1_455
La1 Pt2 3.107253 1_555
La1 Pt3 3.298106 1_455
La1 Pt3 3.298106 1_555
La2 Pt2 2.975384 1_555
La2 Pt1 3.107253 1_555
La2 Pt1 3.107253 1_655
La2 Pt0 3.298106 1_565
La2 Pt0 3.298106 1_665
La3 Pt3 2.975378 1_554
La3 Pt0 3.107257 1_555
La3 Pt0 3.107257 1_655
La3 Pt1 3.298105 1_555
La3 Pt1 3.298105 1_655
Ga0 Pt0 2.681281 1_555
Ga0 Pt3 2.685245 1_454
Ga0 Pt3 2.685245 1_554
Ga0 Pt1 2.759987 1_545
Ga0 La0 3.130152 1_554
Ga0 La2 3.211510 1_545
Ga0 La2 3.211510 1_445
Ga0 La3 3.349675 1_455
Ga0 La3 3.349675 1_555
Ga0 La1 3.378312 1_554
Ga1 Pt1 2.681288 1_555
Ga1 Pt2 2.685241 1_555
Ga1 Pt2 2.685241 1_455
Ga1 Pt0 2.759988 1_555
Ga1 La1 3.130137 1_555
Ga1 La3 3.211519 1_555
Ga1 La3 3.211519 1_455
Ga1 La2 3.349679 1_455
Ga1 La2 3.349679 1_555
Ga1 La0 3.378302 1_565
Ga2 Pt2 2.681288 1_555
Ga2 Pt1 2.685241 1_556
Ga2 Pt1 2.685241 1_656
Ga2 Pt3 2.759988 1_565
Ga2 La2 3.130137 1_556
Ga2 La0 3.211519 1_565
Ga2 La0 3.211519 1_665
Ga2 La1 3.349679 1_655
Ga2 La1 3.349679 1_555
Ga2 La3 3.378302 1_556
Ga3 Pt3 2.681281 1_555
Ga3 Pt0 2.685245 1_555
Ga3 Pt0 2.685245 1_655
Ga3 Pt2 2.759987 1_555
Ga3 La3 3.130152 1_555
Ga3 La1 3.211510 1_555
Ga3 La1 3.211510 1_655
Ga3 La0 3.349675 1_555
Ga3 La0 3.349675 1_655
Ga3 La2 3.378312 1_545
