# generated using pymatgen
data_PaRe3
_symmetry_space_group_name_H-M   'P 1'
_cell_length_a   4.84630160
_cell_length_b   4.84630160
_cell_length_c   4.84630160
_cell_angle_alpha   127.34533378
_cell_angle_beta   127.34533378
_cell_angle_gamma   77.68798812
_symmetry_Int_Tables_number   1
_chemical_formula_structural   PaRe3
_chemical_formula_sum   'Pa1 Re3'
_cell_volume   69.74831694
_cell_formula_units_Z   1
loop_
 _symmetry_equiv_pos_site_id
 _symmetry_equiv_pos_as_xyz
  1  'x, y, z'
loop_
 _atom_site_type_symbol
 _atom_site_label
 _atom_site_symmetry_multiplicity
 _atom_site_fract_x
 _atom_site_fract_y
 _atom_site_fract_z
 _atom_site_occupancy
  Pa  Pa0  1  0.00000000  0.00000000  0.00000000  1
  Re  Re0  1  0.74999800  0.25000000  0.49999800  1
  Re  Re1  1  0.25000000  0.74999800  0.49999800  1
  Re  Re2  1  0.50000100  0.50000100  0.00000000  1
loop_
_geom_bond_atom_site_label_1
_geom_bond_atom_site_label_2
_geom_bond_distance
_geom_bond_site_symmetry_2
Pa0 Re0 2.860320 1_555
Pa0 Re1 2.860320 1_555
Pa0 Re1 2.860326 1_545
Pa0 Re0 2.860326 1_455
Pa0 Re1 2.860326 1_444
Pa0 Re0 2.860326 1_444
Pa0 Re1 2.860333 1_544
Pa0 Re0 2.860333 1_454
Pa0 Re2 3.039610 1_455
Pa0 Re2 3.039610 1_545
Pa0 Re2 3.039610 1_556
Pa0 Re2 3.039610 1_444
Re0 Re2 2.860321 1_545
Re0 Re2 2.860321 1_556
Re0 Re2 2.860325 1_555
Re0 Re2 2.860338 1_656
Re1 Re2 2.860321 1_455
Re1 Re2 2.860321 1_556
Re1 Re2 2.860325 1_555
Re1 Re2 2.860338 1_566
