# generated using pymatgen
data_TiGaNi6
_symmetry_space_group_name_H-M   'P 1'
_cell_length_a   3.56507201
_cell_length_b   3.56506595
_cell_length_c   7.04604290
_cell_angle_alpha   90.00000000
_cell_angle_beta   90.00000000
_cell_angle_gamma   90.00000000
_symmetry_Int_Tables_number   1
_chemical_formula_structural   TiGaNi6
_chemical_formula_sum   'Ti1 Ga1 Ni6'
_cell_volume   89.55321005
_cell_formula_units_Z   1
loop_
 _symmetry_equiv_pos_site_id
 _symmetry_equiv_pos_as_xyz
  1  'x, y, z'
loop_
 _atom_site_type_symbol
 _atom_site_label
 _atom_site_symmetry_multiplicity
 _atom_site_fract_x
 _atom_site_fract_y
 _atom_site_fract_z
 _atom_site_occupancy
  Ti  Ti0  1  0.00000000  0.00000000  0.50000000  1
  Ga  Ga0  1  0.00000000  0.00000000  0.00000000  1
  Ni  Ni0  1  0.50000000  0.50000000  0.00000000  1
  Ni  Ni1  1  0.50000000  0.50000000  0.50000000  1
  Ni  Ni2  1  0.50000000  -0.00000000  0.24810361  1
  Ni  Ni3  1  0.50000000  0.00000000  0.75189639  1
  Ni  Ni4  1  -0.00000000  0.50000000  0.24810361  1
  Ni  Ni5  1  0.00000000  0.50000000  0.75189639  1
loop_
_geom_bond_atom_site_label_1
_geom_bond_atom_site_label_2
_geom_bond_distance
_geom_bond_site_symmetry_2
Ga0 Ni5 2.496687 1_554
Ga0 Ni4 2.496687 1_545
Ga0 Ni4 2.496687 1_555
Ga0 Ni5 2.496687 1_544
Ga0 Ni2 2.496689 1_455
Ga0 Ni2 2.496689 1_555
Ga0 Ni3 2.496689 1_554
Ga0 Ni3 2.496689 1_454
Ga0 Ni0 2.520884 1_555
Ga0 Ni0 2.520884 1_445
Ga0 Ni0 2.520884 1_545
Ga0 Ni0 2.520884 1_455
Ni0 Ni2 2.496687 1_555
Ni0 Ni3 2.496687 1_554
Ni0 Ni2 2.496687 1_565
Ni0 Ni3 2.496687 1_564
Ni0 Ni4 2.496689 1_555
Ni0 Ni4 2.496689 1_655
Ni0 Ni5 2.496689 1_654
Ni0 Ni5 2.496689 1_554
Ni1 Ni3 2.515472 1_555
Ni1 Ni3 2.515472 1_565
Ni1 Ni2 2.515472 1_555
Ni1 Ni2 2.515472 1_565
Ni1 Ni5 2.515474 1_555
Ni1 Ni5 2.515474 1_655
Ni1 Ni4 2.515474 1_555
Ni1 Ni4 2.515474 1_655
Ni1 Ti0 2.520884 1_555
Ni1 Ti0 2.520884 1_655
Ni1 Ti0 2.520884 1_565
Ni1 Ti0 2.520884 1_665
Ni2 Ti0 2.515474 1_555
Ni2 Ti0 2.515474 1_655
Ni2 Ni4 2.520884 1_645
Ni2 Ni4 2.520884 1_555
Ni2 Ni4 2.520884 1_545
Ni2 Ni4 2.520884 1_655
Ni3 Ti0 2.515474 1_555
Ni3 Ti0 2.515474 1_655
Ni3 Ni5 2.520884 1_545
Ni3 Ni5 2.520884 1_655
Ni3 Ni5 2.520884 1_645
Ni3 Ni5 2.520884 1_555
Ni4 Ti0 2.515472 1_555
Ni4 Ti0 2.515472 1_565
Ni5 Ti0 2.515472 1_555
Ni5 Ti0 2.515472 1_565
