# generated using pymatgen
data_Fe4NiSe10
_symmetry_space_group_name_H-M   'P 1'
_cell_length_a   3.61796600
_cell_length_b   4.85056000
_cell_length_c   29.02784386
_cell_angle_alpha   89.77852484
_cell_angle_beta   90.00000000
_cell_angle_gamma   90.00000000
_symmetry_Int_Tables_number   1
_chemical_formula_structural   Fe4NiSe10
_chemical_formula_sum   'Fe8 Ni2 Se20'
_cell_volume   509.41050434
_cell_formula_units_Z   2
loop_
 _symmetry_equiv_pos_site_id
 _symmetry_equiv_pos_as_xyz
  1  'x, y, z'
loop_
 _atom_site_type_symbol
 _atom_site_label
 _atom_site_symmetry_multiplicity
 _atom_site_fract_x
 _atom_site_fract_y
 _atom_site_fract_z
 _atom_site_occupancy
  Fe  Fe0  1  0.50000000  0.50003400  0.89997500  1
  Fe  Fe1  1  0.50000000  0.49996600  0.10002500  1
  Fe  Fe2  1  0.50000000  0.49823400  0.29971400  1
  Fe  Fe3  1  0.50000000  0.50000000  0.50000000  1
  Fe  Fe4  1  0.50000000  0.50176600  0.70028600  1
  Fe  Fe5  1  0.00000000  0.00019700  0.80005700  1
  Fe  Fe6  1  0.00000000  0.00000000  0.00000000  1
  Fe  Fe7  1  0.00000000  0.99980300  0.19994300  1
  Ni  Ni0  1  0.00000000  0.99980800  0.39987900  1
  Ni  Ni1  1  0.00000000  0.00019200  0.60012100  1
  Se  Se0  1  0.50000000  0.28121100  0.82664900  1
  Se  Se1  1  0.50000000  0.28119900  0.02645500  1
  Se  Se2  1  0.50000000  0.28062000  0.22596300  1
  Se  Se3  1  0.50000000  0.29314700  0.42677200  1
  Se  Se4  1  0.50000000  0.29379400  0.62716200  1
  Se  Se5  1  0.50000000  0.71880100  0.97354500  1
  Se  Se6  1  0.50000000  0.71878900  0.17335100  1
  Se  Se7  1  0.50000000  0.70620600  0.37283800  1
  Se  Se8  1  0.50000000  0.70685300  0.57322800  1
  Se  Se9  1  0.50000000  0.71938000  0.77403700  1
  Se  Se10  1  0.00000000  0.78135400  0.87365800  1
  Se  Se11  1  0.00000000  0.78115300  0.07350000  1
  Se  Se12  1  0.00000000  0.78255100  0.27324400  1
  Se  Se13  1  0.00000000  0.78075500  0.47494400  1
  Se  Se14  1  0.00000000  0.77926200  0.67521100  1
  Se  Se15  1  0.00000000  0.21884700  0.92650000  1
  Se  Se16  1  0.00000000  0.21864600  0.12634200  1
  Se  Se17  1  0.00000000  0.22073800  0.32478900  1
  Se  Se18  1  0.00000000  0.21924500  0.52505600  1
  Se  Se19  1  0.00000000  0.21744900  0.72675600  1
loop_
_geom_bond_atom_site_label_1
_geom_bond_atom_site_label_2
_geom_bond_distance
_geom_bond_site_symmetry_2
Fe0 Se0 2.382133 1_555
Fe0 Se5 2.388355 1_555
Fe0 Se10 2.389553 1_655
Fe0 Se10 2.389553 1_555
Fe0 Se15 2.391110 1_655
Fe0 Se15 2.391110 1_555
Fe1 Se6 2.382133 1_555
Fe1 Se1 2.388355 1_555
Fe1 Se16 2.389553 1_555
Fe1 Se16 2.389553 1_655
Fe1 Se11 2.391110 1_555
Fe1 Se11 2.391110 1_655
Fe2 Se7 2.353669 1_555
Fe2 Se17 2.367782 1_555
Fe2 Se17 2.367782 1_655
Fe2 Se2 2.390569 1_555
Fe2 Se12 2.399275 1_555
Fe2 Se12 2.399275 1_655
Fe3 Se8 2.354060 1_555
Fe3 Se3 2.354060 1_555
Fe3 Se13 2.376617 1_555
Fe3 Se13 2.376617 1_655
Fe3 Se18 2.376617 1_555
Fe3 Se18 2.376617 1_655
Fe4 Se4 2.353669 1_555
Fe4 Se14 2.367782 1_555
Fe4 Se14 2.367782 1_655
Fe4 Se9 2.390569 1_555
Fe4 Se19 2.399275 1_555
Fe4 Se19 2.399275 1_655
Fe5 Se19 2.370770 1_555
Fe5 Se10 2.381977 1_545
Fe5 Se9 2.388771 1_445
Fe5 Se9 2.388771 1_545
Fe5 Se0 2.394655 1_555
Fe5 Se0 2.394655 1_455
Fe6 Se11 2.379361 1_545
Fe6 Se15 2.379361 1_554
Fe6 Se1 2.393879 1_455
Fe6 Se5 2.393879 1_444
Fe6 Se1 2.393879 1_555
Fe6 Se5 2.393879 1_544
Fe7 Se12 2.370770 1_555
Fe7 Se16 2.381977 1_565
Fe7 Se2 2.388771 1_565
Fe7 Se2 2.388771 1_465
Fe7 Se6 2.394655 1_555
Fe7 Se6 2.394655 1_455
Ni0 Se13 2.420538 1_555
Ni0 Se17 2.425167 1_565
Ni0 Se3 2.432065 1_565
Ni0 Se3 2.432065 1_465
Ni0 Se7 2.434205 1_555
Ni0 Se7 2.434205 1_455
Ni1 Se18 2.420538 1_555
Ni1 Se14 2.425167 1_545
Ni1 Se8 2.432065 1_445
Ni1 Se8 2.432065 1_545
Ni1 Se4 2.434205 1_555
Ni1 Se4 2.434205 1_455
