# generated using pymatgen
data_BaSrInBiO6
_symmetry_space_group_name_H-M   'P 1'
_cell_length_a   6.03119992
_cell_length_b   6.03119992
_cell_length_c   6.03119992
_cell_angle_alpha   60.00000000
_cell_angle_beta   60.00000000
_cell_angle_gamma   60.00000000
_symmetry_Int_Tables_number   1
_chemical_formula_structural   BaSrInBiO6
_chemical_formula_sum   'Ba1 Sr1 In1 Bi1 O6'
_cell_volume   155.13013669
_cell_formula_units_Z   1
loop_
 _symmetry_equiv_pos_site_id
 _symmetry_equiv_pos_as_xyz
  1  'x, y, z'
loop_
 _atom_site_type_symbol
 _atom_site_label
 _atom_site_symmetry_multiplicity
 _atom_site_fract_x
 _atom_site_fract_y
 _atom_site_fract_z
 _atom_site_occupancy
  Ba  Ba0  1  0.75000000  0.75000000  0.75000000  1
  Sr  Sr0  1  0.25000000  0.25000000  0.25000000  1
  In  In0  1  0.50000000  0.50000000  0.50000000  1
  Bi  Bi0  1  -0.00000000  0.00000000  0.00000000  1
  O  O0  1  0.75184810  0.24815190  0.24815190  1
  O  O1  1  0.24815190  0.75184810  0.75184810  1
  O  O2  1  0.75184810  0.24815190  0.75184810  1
  O  O3  1  0.24815190  0.75184810  0.24815190  1
  O  O4  1  0.75184810  0.75184810  0.24815190  1
  O  O5  1  0.24815190  0.24815190  0.75184810  1
loop_
_geom_bond_atom_site_label_1
_geom_bond_atom_site_label_2
_geom_bond_distance
_geom_bond_site_symmetry_2
Ba0 O2 3.015641 1_555
Ba0 O1 3.015641 1_555
Ba0 O4 3.015641 1_555
Ba0 O0 3.015641 1_565
Ba0 O3 3.015641 1_655
Ba0 O5 3.015641 1_655
Ba0 O5 3.015641 1_565
Ba0 O3 3.015641 1_556
Ba0 O0 3.015641 1_556
Ba0 O2 3.015641 1_565
Ba0 O4 3.015641 1_556
Ba0 O1 3.015641 1_655
In0 O5 2.148114 1_555
In0 O0 2.148114 1_555
In0 O3 2.148114 1_555
In0 O2 2.148114 1_555
In0 O4 2.148114 1_555
In0 O1 2.148114 1_555
Bi0 O4 2.116588 1_445
Bi0 O3 2.116588 1_545
Bi0 O5 2.116588 1_554
Bi0 O2 2.116588 1_454
Bi0 O1 2.116588 1_544
Bi0 O0 2.116588 1_455
O0 Sr0 3.015641 1_655
O0 Sr0 3.015641 1_555
O1 Sr0 3.015641 1_556
O1 Sr0 3.015641 1_565
O2 Sr0 3.015641 1_556
O2 Sr0 3.015641 1_655
O3 Sr0 3.015641 1_555
O3 Sr0 3.015641 1_565
O4 Sr0 3.015641 1_655
O4 Sr0 3.015641 1_565
O5 Sr0 3.015641 1_555
O5 Sr0 3.015641 1_556
