# generated using pymatgen
data_VPH11O9
_symmetry_space_group_name_H-M   'P 1'
_cell_length_a   12.57399844
_cell_length_b   12.57399844
_cell_length_c   6.48701120
_cell_angle_alpha   90.00000000
_cell_angle_beta   90.00000000
_cell_angle_gamma   90.00000000
_symmetry_Int_Tables_number   1
_chemical_formula_structural   VPH11O9
_chemical_formula_sum   'V4 P4 H44 O36'
_cell_volume   1025.63173910
_cell_formula_units_Z   4
loop_
 _symmetry_equiv_pos_site_id
 _symmetry_equiv_pos_as_xyz
  1  'x, y, z'
loop_
 _atom_site_type_symbol
 _atom_site_label
 _atom_site_symmetry_multiplicity
 _atom_site_fract_x
 _atom_site_fract_y
 _atom_site_fract_z
 _atom_site_occupancy
  V  V0  1  0.45219578  0.83020034  0.77334974  1
  V  V1  1  0.54780422  0.16979966  0.27334974  1
  V  V2  1  0.83020034  0.54780422  0.52334974  1
  V  V3  1  0.16979966  0.45219578  0.02334974  1
  P  P0  1  0.57328054  0.08675444  0.77183345  1
  P  P1  1  0.42671946  0.91324556  0.27183345  1
  P  P2  1  0.08675444  0.42671946  0.52183345  1
  P  P3  1  0.91324556  0.57328054  0.02183345  1
  H  H0  1  0.14175727  0.88488417  0.83088260  1
  H  H1  1  0.85824273  0.11511583  0.33088260  1
  H  H2  1  0.88488417  0.85824273  0.58088260  1
  H  H3  1  0.11511583  0.14175727  0.08088260  1
  H  H4  1  0.13889045  0.77231382  0.41837788  1
  H  H5  1  0.86110955  0.22768618  0.91837788  1
  H  H6  1  0.77231382  0.86110955  0.16837788  1
  H  H7  1  0.22768618  0.13889045  0.66837788  1
  H  H8  1  0.29365395  0.62715285  0.92180590  1
  H  H9  1  0.70634605  0.37284715  0.42180590  1
  H  H10  1  0.62715285  0.70634605  0.67180590  1
  H  H11  1  0.37284715  0.29365395  0.17180590  1
  H  H12  1  0.33423780  0.60966794  0.44467971  1
  H  H13  1  0.66576220  0.39033206  0.94467971  1
  H  H14  1  0.60966794  0.66576220  0.19467971  1
  H  H15  1  0.39033206  0.33423780  0.69467971  1
  H  H16  1  0.17330509  0.65742690  0.92102851  1
  H  H17  1  0.82669491  0.34257310  0.42102851  1
  H  H18  1  0.65742690  0.82669491  0.67102851  1
  H  H19  1  0.34257310  0.17330509  0.17102851  1
  H  H20  1  0.55736421  0.41620718  0.78361546  1
  H  H21  1  0.44263579  0.58379282  0.28361546  1
  H  H22  1  0.41620718  0.44263579  0.53361546  1
  H  H23  1  0.58379282  0.55736421  0.03361546  1
  H  H24  1  0.72072502  0.86676518  0.11080354  1
  H  H25  1  0.27927498  0.13323482  0.61080354  1
  H  H26  1  0.86676518  0.27927498  0.86080354  1
  H  H27  1  0.13323482  0.72072502  0.36080354  1
  H  H28  1  0.98518527  0.90427588  0.98165466  1
  H  H29  1  0.01481473  0.09572412  0.48165466  1
  H  H30  1  0.90427588  0.01481473  0.73165466  1
  H  H31  1  0.09572412  0.98518527  0.23165466  1
  H  H32  1  0.94973815  0.71041305  0.40600034  1
  H  H33  1  0.05026185  0.28958695  0.90600034  1
  H  H34  1  0.71041305  0.05026185  0.15600034  1
  H  H35  1  0.28958695  0.94973815  0.65600034  1
  H  H36  1  0.28411842  0.64255193  0.44211676  1
  H  H37  1  0.71588158  0.35744807  0.94211676  1
  H  H38  1  0.64255193  0.71588158  0.19211676  1
  H  H39  1  0.35744807  0.28411842  0.69211676  1
  H  H40  1  0.72600562  0.04457001  0.63431208  1
  H  H41  1  0.27399438  0.95542999  0.13431208  1
  H  H42  1  0.04457001  0.27399438  0.38431208  1
  H  H43  1  0.95542999  0.72600562  0.88431208  1
  O  O0  1  0.51552514  0.98000031  0.77278571  1
  O  O1  1  0.48447486  0.01999969  0.27278571  1
  O  O2  1  0.98000031  0.48447486  0.52278571  1
  O  O3  1  0.01999969  0.51552514  0.02278571  1
  O  O4  1  0.54798252  0.15336955  0.58203511  1
  O  O5  1  0.45201748  0.84663045  0.08203511  1
  O  O6  1  0.15336955  0.45201748  0.33203511  1
  O  O7  1  0.84663045  0.54798252  0.83203511  1
  O  O8  1  0.55928119  0.15067456  0.96972759  1
  O  O9  1  0.44071881  0.84932544  0.46972759  1
  O  O10  1  0.15067456  0.44071881  0.71972759  1
  O  O11  1  0.84932544  0.55928119  0.21972759  1
  O  O12  1  0.60906448  0.77597828  0.73509347  1
  O  O13  1  0.39093552  0.22402172  0.23509347  1
  O  O14  1  0.77597828  0.39093552  0.48509347  1
  O  O15  1  0.22402172  0.60906448  0.98509347  1
  O  O16  1  0.29510444  0.91304776  0.78998975  1
  O  O17  1  0.70489556  0.08695224  0.28998975  1
  O  O18  1  0.91304776  0.70489556  0.53998975  1
  O  O19  1  0.08695224  0.29510444  0.03998975  1
  O  O20  1  0.40184196  0.70988053  0.78921722  1
  O  O21  1  0.59815804  0.29011947  0.28921722  1
  O  O22  1  0.70988053  0.59815804  0.53921722  1
  O  O23  1  0.29011947  0.40184196  0.03921722  1
  O  O24  1  0.16061426  0.20441360  0.03012386  1
  O  O25  1  0.83938574  0.79558640  0.53012386  1
  O  O26  1  0.20441360  0.83938574  0.78012386  1
  O  O27  1  0.79558640  0.16061426  0.28012386  1
  O  O28  1  0.03514843  0.94141088  0.89107836  1
  O  O29  1  0.96485157  0.05858912  0.39107836  1
  O  O30  1  0.94141088  0.96485157  0.64107836  1
  O  O31  1  0.05858912  0.03514843  0.14107836  1
  O  O32  1  0.29898365  0.93932315  0.27338830  1
  O  O33  1  0.70101635  0.06067685  0.77338830  1
  O  O34  1  0.93932315  0.70101635  0.02338830  1
  O  O35  1  0.06067685  0.29898365  0.52338830  1
loop_
_geom_bond_atom_site_label_1
_geom_bond_atom_site_label_2
_geom_bond_distance
_geom_bond_site_symmetry_2
H0 O26 1.027817 1_555
H0 O28 1.566720 1_555
H1 O27 1.027817 1_555
H1 O29 1.566720 1_555
H2 O25 1.027817 1_555
H2 O30 1.566720 1_555
H3 O24 1.027817 1_555
H3 O31 1.566720 1_555
H8 O15 0.993417 1_555
H9 O14 0.993417 1_555
H10 O12 0.993417 1_555
H11 O13 0.993417 1_555
H12 H36 0.753922 1_555
H13 H37 0.753922 1_555
H14 H38 0.753922 1_555
H15 H39 0.753922 1_555
H16 O15 0.974262 1_555
H17 O14 0.974262 1_555
H18 O12 0.974262 1_555
H19 O13 0.974262 1_555
H24 H6 0.751885 1_555
H25 H7 0.751885 1_555
H26 H5 0.751885 1_555
H27 H4 0.751885 1_555
H28 O28 0.978748 1_655
H29 O29 0.978748 1_455
H30 O30 0.978748 1_545
H31 O31 0.978748 1_565
H32 O18 0.986481 1_555
H33 O19 0.986481 1_556
H34 O17 0.986481 1_555
H35 O16 0.986481 1_555
H40 O33 0.976572 1_555
H41 O32 0.976572 1_555
H42 O35 0.976572 1_555
H43 O34 0.976572 1_556
O0 P0 1.526194 1_565
O0 V0 2.044995 1_555
O1 P1 1.526194 1_545
O1 V1 2.044995 1_555
O2 P2 1.526194 1_655
O2 V2 2.044995 1_555
O3 P3 1.526194 1_455
O3 V3 2.044995 1_555
O4 P0 1.522729 1_555
O4 V1 2.013076 1_555
O5 P1 1.522729 1_555
O5 V0 2.013076 1_554
O6 P2 1.522729 1_555
O6 V3 2.013076 1_555
O7 P3 1.522729 1_556
O7 V2 2.013076 1_555
O8 P0 1.524783 1_555
O8 V1 1.989468 1_556
O9 P1 1.524783 1_555
O9 V0 1.989468 1_555
O10 P2 1.524783 1_555
O10 V3 1.989468 1_556
O11 P3 1.524783 1_555
O11 V2 1.989468 1_555
O12 V0 2.101677 1_555
O13 V1 2.101677 1_555
O14 V2 2.101677 1_555
O15 V3 2.101677 1_556
O16 V0 2.235736 1_555
O17 V1 2.235736 1_555
O18 V2 2.235736 1_555
O19 V3 2.235736 1_555
O20 V0 1.643272 1_555
O21 V1 1.643272 1_555
O22 V2 1.643272 1_555
O23 V3 1.643272 1_555
O32 P1 1.639310 1_555
O33 P0 1.639310 1_555
O34 P3 1.639310 1_555
O35 P2 1.639310 1_555
