# generated using pymatgen
data_AgSnS2
_symmetry_space_group_name_H-M   'P 1'
_cell_length_a   3.92011800
_cell_length_b   3.92011800
_cell_length_c   5.48049500
_cell_angle_alpha   90.00000000
_cell_angle_beta   90.00000000
_cell_angle_gamma   90.00000000
_symmetry_Int_Tables_number   1
_chemical_formula_structural   AgSnS2
_chemical_formula_sum   'Ag1 Sn1 S2'
_cell_volume   84.22054856
_cell_formula_units_Z   1
loop_
 _symmetry_equiv_pos_site_id
 _symmetry_equiv_pos_as_xyz
  1  'x, y, z'
loop_
 _atom_site_type_symbol
 _atom_site_label
 _atom_site_symmetry_multiplicity
 _atom_site_fract_x
 _atom_site_fract_y
 _atom_site_fract_z
 _atom_site_occupancy
  Ag  Ag0  1  0.00000000  0.00000000  0.00000000  1
  Sn  Sn0  1  0.50000000  0.50000000  0.50000000  1
  S  S0  1  0.00000000  0.00000000  0.50000000  1
  S  S1  1  0.50000000  0.50000000  0.00000000  1
loop_
_geom_bond_atom_site_label_1
_geom_bond_atom_site_label_2
_geom_bond_distance
_geom_bond_site_symmetry_2
Ag0 S0 2.740248 1_554
Ag0 S0 2.740248 1_555
Ag0 S1 2.771942 1_545
Ag0 S1 2.771942 1_445
Ag0 S1 2.771942 1_455
Ag0 S1 2.771942 1_555
S0 Sn0 2.771942 1_555
S0 Sn0 2.771942 1_545
S0 Sn0 2.771942 1_445
S0 Sn0 2.771942 1_455
S1 Sn0 2.740248 1_555
S1 Sn0 2.740248 1_554
