# generated using pymatgen
data_Bi8Te7
_symmetry_space_group_name_H-M   'P 1'
_cell_length_a   4.45873468
_cell_length_b   4.45873468
_cell_length_c   94.03974230
_cell_angle_alpha   90.00000000
_cell_angle_beta   90.00000000
_cell_angle_gamma   119.99999054
_symmetry_Int_Tables_number   1
_chemical_formula_structural   Bi8Te7
_chemical_formula_sum   'Bi24 Te21'
_cell_volume   1619.06902500
_cell_formula_units_Z   3
loop_
 _symmetry_equiv_pos_site_id
 _symmetry_equiv_pos_as_xyz
  1  'x, y, z'
loop_
 _atom_site_type_symbol
 _atom_site_label
 _atom_site_symmetry_multiplicity
 _atom_site_fract_x
 _atom_site_fract_y
 _atom_site_fract_z
 _atom_site_occupancy
  Bi  Bi0  1  0.33333300  0.66666700  0.35221755  1
  Bi  Bi1  1  0.66666700  0.33333300  0.64778245  1
  Bi  Bi2  1  0.00000000  -0.00000000  0.06875318  1
  Bi  Bi3  1  -0.00000000  0.00000000  0.93124682  1
  Bi  Bi4  1  0.33333300  0.66666700  0.82343394  1
  Bi  Bi5  1  0.66666700  0.33333300  0.17656606  1
  Bi  Bi6  1  0.33333300  0.66666700  0.02149383  1
  Bi  Bi7  1  0.66666700  0.33333300  0.97850617  1
  Bi  Bi8  1  -0.00000000  0.00000000  0.40013351  1
  Bi  Bi9  1  0.00000000  -0.00000000  0.59986649  1
  Bi  Bi10  1  0.00000000  -0.00000000  0.33463420  1
  Bi  Bi11  1  -0.00000000  0.00000000  0.66536580  1
  Bi  Bi12  1  0.33333300  0.66666700  0.75578138  1
  Bi  Bi13  1  0.66666700  0.33333300  0.24421862  1
  Bi  Bi14  1  -0.00000000  0.00000000  0.13364582  1
  Bi  Bi15  1  0.00000000  -0.00000000  0.86635418  1
  Bi  Bi16  1  0.33333300  0.66666700  0.08631941  1
  Bi  Bi17  1  0.66666700  0.33333300  0.91368059  1
  Bi  Bi18  1  0.33333300  0.66666700  0.28712235  1
  Bi  Bi19  1  0.66666700  0.33333300  0.71287765  1
  Bi  Bi20  1  0.33333300  0.66666700  0.49120856  1
  Bi  Bi21  1  0.66666700  0.33333300  0.50879144  1
  Bi  Bi22  1  0.33333300  0.66666700  0.55671115  1
  Bi  Bi23  1  0.66666700  0.33333300  0.44328885  1
  Te  Te0  1  0.33333300  0.66666700  0.42171520  1
  Te  Te1  1  0.66666700  0.33333300  0.57828480  1
  Te  Te2  1  0.33333300  0.66666700  0.15497374  1
  Te  Te3  1  0.66666700  0.33333300  0.84502626  1
  Te  Te4  1  0.00000000  -0.00000000  0.19445120  1
  Te  Te5  1  -0.00000000  0.00000000  0.80554880  1
  Te  Te6  1  0.33333300  0.66666700  0.22637369  1
  Te  Te7  1  0.66666700  0.33333300  0.77362631  1
  Te  Te8  1  0.33333300  0.66666700  0.69473988  1
  Te  Te9  1  0.66666700  0.33333300  0.30526012  1
  Te  Te10  1  0.33333300  0.66666700  0.96044727  1
  Te  Te11  1  0.66666700  0.33333300  0.03955273  1
  Te  Te12  1  0.33333300  0.66666700  0.88447865  1
  Te  Te13  1  0.66666700  0.33333300  0.11552135  1
  Te  Te14  1  0.00000000  -0.00000000  0.46140404  1
  Te  Te15  1  -0.00000000  0.00000000  0.53859596  1
  Te  Te16  1  -0.00000000  0.00000000  0.26576814  1
  Te  Te17  1  0.00000000  -0.00000000  0.73423186  1
  Te  Te18  1  0.00000000  -0.00000000  0.00000000  1
  Te  Te19  1  0.33333300  0.66666700  0.61797086  1
  Te  Te20  1  0.66666700  0.33333300  0.38202914  1
loop_
_geom_bond_atom_site_label_1
_geom_bond_atom_site_label_2
_geom_bond_distance
_geom_bond_site_symmetry_2
Bi0 Bi10 3.059564 1_565
Bi0 Bi10 3.059567 1_665
Bi0 Bi10 3.059567 1_555
Bi1 Bi11 3.059564 1_655
Bi1 Bi11 3.059567 1_555
Bi1 Bi11 3.059567 1_665
Bi4 Te5 3.074995 1_565
Bi4 Te5 3.074998 1_665
Bi4 Te5 3.074998 1_555
Bi4 Te3 3.278694 1_455
Bi4 Te3 3.278694 1_565
Bi4 Te3 3.278700 1_555
Bi5 Te4 3.074995 1_655
Bi5 Te4 3.074998 1_555
Bi5 Te4 3.074998 1_665
Bi5 Te2 3.278694 1_545
Bi5 Te2 3.278694 1_655
Bi5 Te2 3.278700 1_555
Bi6 Te11 3.083963 1_455
Bi6 Te11 3.083963 1_565
Bi6 Te11 3.083969 1_555
Bi6 Te18 3.272966 1_565
Bi6 Te18 3.272969 1_665
Bi6 Te18 3.272969 1_555
Bi7 Te10 3.083963 1_545
Bi7 Te10 3.083963 1_655
Bi7 Te10 3.083969 1_555
Bi7 Te18 3.272966 1_656
Bi7 Te18 3.272969 1_666
Bi7 Te18 3.272969 1_556
Bi8 Te20 3.086319 1_455
Bi8 Te20 3.086323 1_445
Bi8 Te20 3.086323 1_555
Bi8 Te0 3.278075 1_545
Bi8 Te0 3.278078 1_445
Bi8 Te0 3.278078 1_555
Bi9 Te19 3.086319 1_545
Bi9 Te19 3.086323 1_555
Bi9 Te19 3.086323 1_445
Bi9 Te1 3.278075 1_455
Bi9 Te1 3.278078 1_555
Bi9 Te1 3.278078 1_445
Bi12 Te7 3.072928 1_455
Bi12 Te7 3.072928 1_565
Bi12 Te7 3.072935 1_555
Bi12 Te17 3.276203 1_565
Bi12 Te17 3.276206 1_555
Bi12 Te17 3.276206 1_665
Bi13 Te6 3.072928 1_545
Bi13 Te6 3.072928 1_655
Bi13 Te6 3.072935 1_555
Bi13 Te16 3.276203 1_655
Bi13 Te16 3.276206 1_555
Bi13 Te16 3.276206 1_665
Bi14 Te13 3.087362 1_455
Bi14 Te13 3.087366 1_445
Bi14 Te13 3.087366 1_555
Bi14 Te2 3.263354 1_545
Bi14 Te2 3.263357 1_555
Bi14 Te2 3.263357 1_445
Bi15 Te12 3.087362 1_545
Bi15 Te12 3.087366 1_555
Bi15 Te12 3.087366 1_445
Bi15 Te3 3.263354 1_455
Bi15 Te3 3.263357 1_445
Bi15 Te3 3.263357 1_555
Bi16 Bi2 3.058694 1_565
Bi16 Bi2 3.058698 1_555
Bi16 Bi2 3.058698 1_665
Bi17 Bi3 3.058694 1_655
Bi17 Bi3 3.058698 1_665
Bi17 Bi3 3.058698 1_555
Bi18 Te9 3.088053 1_455
Bi18 Te9 3.088053 1_565
Bi18 Te9 3.088060 1_555
Bi18 Te16 3.264874 1_565
Bi18 Te16 3.264877 1_555
Bi18 Te16 3.264877 1_665
Bi19 Te8 3.088053 1_545
Bi19 Te8 3.088053 1_655
Bi19 Te8 3.088060 1_555
Bi19 Te17 3.264874 1_655
Bi19 Te17 3.264877 1_665
Bi19 Te17 3.264877 1_555
Bi20 Bi21 3.059540 1_455
Bi20 Bi21 3.059540 1_565
Bi20 Bi21 3.059547 1_555
Bi22 Te15 3.086881 1_565
Bi22 Te15 3.086884 1_665
Bi22 Te15 3.086884 1_555
Bi22 Te1 3.277607 1_455
Bi22 Te1 3.277607 1_565
Bi22 Te1 3.277613 1_555
Bi23 Te14 3.086881 1_655
Bi23 Te14 3.086884 1_555
Bi23 Te14 3.086884 1_665
Bi23 Te0 3.277607 1_545
Bi23 Te0 3.277607 1_655
Bi23 Te0 3.277613 1_555
